0:0:0
     RDKit          3D

 94101  0  0  1  0  0  0  0  0999 V2000
  -27.9360  -23.7880   17.0330 C   0  0  0  0  0  0  0  0  0  0  0  0
  -28.9710  -24.3350   17.6790 N   0  0  0  0  0  0  0  0  0  0  0  0
  -27.0440  -24.4610   16.5130 O   0  0  0  0  0  0  0  0  0  0  0  0
  -29.6940  -23.7130   18.0210 H   0  0  0  0  0  0  0  0  0  0  0  0
  -27.8640  -22.2580   17.0330 C   0  0  0  0  0  2  0  0  0  0  0  0
  -26.4270  -21.7230   17.2190 C   0  0  0  0  0  2  0  0  0  0  0  0
  -26.3180  -20.2870   17.7730 C   0  0  0  0  0  2  0  0  0  0  0  0
  -26.5670  -20.1710   19.2970 C   0  0  0  0  0  2  0  0  0  0  0  0
  -27.9850  -19.7420   19.7310 C   0  0  0  0  0  2  0  0  0  0  0  0
  -28.3070  -18.2550   19.5220 C   0  0  0  0  0  2  0  0  0  0  0  0
  -29.6960  -17.9030   20.1160 C   0  0  0  0  0  2  0  0  0  0  0  0
  -30.0780  -16.3960   20.1360 C   0  0  0  0  0  2  0  0  0  0  0  0
  -30.1320  -15.4730   21.3960 C   0  0  0  0  0  2  0  0  0  0  0  0
  -31.6100  -13.7660   20.3300 C   0  0  0  0  0  0  0  0  0  0  0  0
  -31.0480  -11.8330   18.9030 C   0  0  0  0  0  2  0  0  0  0  0  0
  -30.1030  -12.2670   17.7660 C   0  0  0  0  0  2  0  0  0  0  0  0
  -28.6330  -12.2680   18.2310 C   0  0  0  0  0  2  0  0  0  0  0  0
  -28.4310  -12.9890   19.5870 C   0  0  0  0  0  3  0  0  0  0  0  0
  -29.4580  -12.4580   20.6130 C   0  0  0  0  0  2  0  0  0  0  0  0
  -30.7990  -12.7090   20.0600 N   0  0  0  0  0  0  0  0  0  0  0  0
  -32.6850  -13.9550   19.7530 O   0  0  0  0  0  0  0  0  0  0  0  0
  -31.2740  -14.5480   21.3660 N   0  0  0  0  0  0  0  0  0  0  0  0
  -32.0910  -14.9850   21.7680 H   0  0  0  0  0  0  0  0  0  0  0  0
  -26.0940  -13.8380   20.2830 C   0  0  0  0  0  0  0  0  0  0  0  0
  -24.9620  -13.1760   20.6680 C   0  0  0  0  0  0  0  0  0  0  0  0
  -25.2940  -11.7850   20.6450 C   0  0  0  0  0  0  0  0  0  0  0  0
  -27.0530  -12.8590   20.0660 N   0  0  0  0  0  0  0  0  0  0  0  0
  -26.5710  -11.6190   20.3310 N   0  0  0  0  0  0  0  0  0  0  0  0
  -24.4560  -10.6010   20.8540 C   0  0  0  0  0  0  0  0  0  0  0  0
  -24.7700   -9.6440   21.8420 C   0  0  0  0  0  3  0  0  0  0  0  0
  -23.9440   -8.5150   22.0340 C   0  0  0  0  0  3  0  0  0  0  0  0
  -22.7880   -8.3420   21.2390 C   0  0  0  0  0  0  0  0  0  0  0  0
  -22.4900   -9.2870   20.2430 C   0  0  0  0  0  3  0  0  0  0  0  0
  -23.3160  -10.4060   20.0490 C   0  0  0  0  0  3  0  0  0  0  0  0
  -21.9400   -7.2630   21.3360 O   0  0  0  0  0  0  0  0  0  0  0  0
  -21.7260   -6.6240   22.5310 C   0  0  0  0  0  0  0  0  0  0  0  0
  -21.2300   -7.3080   23.6630 C   0  0  0  0  0  3  0  0  0  0  0  0
  -20.9540   -6.5980   24.8490 C   0  0  0  0  0  3  0  0  0  0  0  0
  -21.1640   -5.2070   24.9040 C   0  0  0  0  0  0  0  0  0  0  0  0
  -21.6510   -4.5250   23.7760 C   0  0  0  0  0  3  0  0  0  0  0  0
  -21.9270   -5.2310   22.5920 C   0  0  0  0  0  0  0  0  0  0  0  0
  -22.3720   -4.5640   21.5010 F   0  0  0  0  0  0  0  0  0  0  0  0
  -20.8950   -4.5240   26.0410 F   0  0  0  0  0  0  0  0  0  0  0  0
  -23.6170  -13.7840   20.9450 C   0  0  0  0  0  0  0  0  0  0  0  0
  -22.8460  -13.1820   21.8450 N   0  0  0  0  0  0  0  0  0  0  0  0
  -23.2610  -14.8260   20.3960 O   0  0  0  0  0  0  0  0  0  0  0  0
  -23.1490  -12.3370   22.3090 H   0  0  0  0  0  0  0  0  0  0  0  0
  -21.9390  -13.5660   22.0670 H   0  0  0  0  0  0  0  0  0  0  0  0
  -26.3790  -15.1830   20.0760 N   0  0  0  0  0  0  0  0  0  0  0  0
  -25.6650  -15.8980   20.1650 H   0  0  0  0  0  0  0  0  0  0  0  0
  -27.2250  -15.5170   19.6370 H   0  0  0  0  0  0  0  0  0  0  0  0
  -29.0200  -25.7120   18.1620 C   0  0  0  0  0  2  0  0  0  0  0  0
  -28.7320  -25.7190   19.6730 C   0  0  0  0  0  2  0  0  0  0  0  0
  -28.6180  -27.0450   20.1780 O   0  0  0  0  0  0  0  0  0  0  0  0
  -24.6060  -31.9470   23.3610 C   0  0  0  0  0  0  0  0  0  0  0  0
  -27.3970  -27.6870   20.1580 C   0  0  0  0  0  0  0  0  0  0  0  0
  -23.4600  -30.5990   21.6330 C   0  0  0  0  0  3  0  0  0  0  0  0
  -24.9700  -29.1390   20.1880 C   0  0  0  0  0  0  0  0  0  0  0  0
  -25.9840  -30.9980   21.5170 C   0  0  0  0  0  2  0  0  0  0  0  0
  -26.1020  -29.6560   20.8280 C   0  0  0  0  0  0  0  0  0  0  0  0
  -27.3130  -28.9330   20.8170 C   0  0  0  0  0  3  0  0  0  0  0  0
  -26.2420  -27.1760   19.5190 C   0  0  0  0  0  3  0  0  0  0  0  0
  -25.0320  -27.8940   19.5400 C   0  0  0  0  0  3  0  0  0  0  0  0
  -23.7150  -29.9810   20.2320 C   0  0  0  0  0  2  0  0  0  0  0  0
  -24.6990  -31.1940   22.2280 N   0  0  0  0  0  0  0  0  0  0  0  0
  -23.5090  -32.1840   23.8830 O   0  0  0  0  0  0  0  0  0  0  0  0
  -22.8000  -29.5300   22.5320 C   0  0  0  0  0  0  0  0  0  0  0  0
  -21.4810  -29.3430   22.3670 N   0  0  0  0  0  0  0  0  0  0  0  0
  -23.4710  -28.8750   23.3340 O   0  0  0  0  0  0  0  0  0  0  0  0
  -21.0020  -29.9280   21.6960 H   0  0  0  0  0  0  0  0  0  0  0  0
  -18.1050  -28.1090   22.7340 C   0  0  0  0  0  0  0  0  0  0  0  0
  -20.6540  -28.3700   23.0780 C   0  0  0  0  0  3  0  0  0  0  0  0
  -20.7810  -26.9660   22.4450 C   0  0  0  0  0  2  0  0  0  0  0  0
  -19.7060  -26.6800   21.3910 C   0  0  0  0  0  2  0  0  0  0  0  0
  -18.3070  -26.7900   22.0080 C   0  0  0  0  0  2  0  0  0  0  0  0
  -19.2080  -28.8580   23.2220 C   0  0  0  0  0  0  0  0  0  0  0  0
  -18.9700  -30.0940   23.8590 C   0  0  0  0  0  3  0  0  0  0  0  0
  -17.6580  -30.5820   24.0160 C   0  0  0  0  0  3  0  0  0  0  0  0
  -16.5690  -29.8300   23.5420 C   0  0  0  0  0  3  0  0  0  0  0  0
  -16.7920  -28.5950   22.9070 C   0  0  0  0  0  3  0  0  0  0  0  0
  -25.8700  -32.5650   24.0380 C   0  0  0  0  0  3  0  0  0  0  0  0
  -26.3540  -31.7580   25.3050 C   0  0  1  0  0  0  0  0  0  0  0  0
  -25.2310  -31.4820   26.3310 C   0  0  0  0  0  1  0  0  0  0  0  0
  -26.9580  -30.3980   24.8860 C   0  0  0  0  0  1  0  0  0  0  0  0
  -27.4780  -32.5400   26.0260 C   0  0  0  0  0  1  0  0  0  0  0  0
  -25.5430  -33.9520   24.3970 N   0  0  0  0  0  0  0  0  0  0  0  0
  -25.9010  -35.0260   23.6820 C   0  0  0  0  0  0  0  0  0  0  0  0
  -26.6150  -34.9560   22.6770 O   0  0  0  0  0  0  0  0  0  0  0  0
  -24.9150  -34.0810   25.1770 H   0  0  0  0  0  0  0  0  0  0  0  0
  -24.1840  -36.8240   23.3050 C   0  0  0  0  0  1  0  0  0  0  0  0
  -25.3880  -36.3980   24.1600 C   0  0  0  0  0  3  0  0  0  0  0  0
  -27.4780  -37.2630   25.1150 C   0  0  0  0  0  1  0  0  0  0  0  0
  -26.4200  -37.4570   24.1260 N   0  0  0  0  0  0  0  0  0  0  0  0
  -26.0030  -38.3710   24.2850 H   0  0  0  0  0  0  0  0  0  0  0  0
  1  5  1  0
  1  2  1  0
  2  4  1  0
  2 52  1  0
  3  1  2  0
  5  6  1  0
  6  7  1  0
  7  8  1  0
  8  9  1  0
 10  9  1  0
 10 11  1  0
 11 12  1  0
 12 13  1  0
 14 22  1  0
 15 20  1  0
 16 17  1  0
 16 15  1  0
 18 17  1  0
 18 27  1  0
 18 19  1  0
 20 14  1  0
 20 19  1  0
 21 14  2  0
 22 13  1  0
 22 23  1  0
 24 25  2  0
 25 44  1  0
 26 25  1  0
 26 29  1  0
 27 24  1  0
 27 28  1  0
 28 26  2  0
 29 30  1  0
 30 31  2  0
 32 35  1  0
 32 31  1  0
 33 32  2  0
 34 33  1  0
 34 29  2  0
 35 36  1  0
 36 41  2  0
 36 37  1  0
 37 38  2  0
 38 39  1  0
 39 43  1  0
 40 39  2  0
 41 40  1  0
 42 41  1  0
 44 45  1  0
 45 48  1  0
 45 47  1  0
 46 44  2  0
 49 50  1  0
 49 24  1  0
 51 49  1  0
 52 53  1  0
 53 54  1  0
 55 66  2  0
 56 54  1  0
 56 61  1  0
 57 65  1  0
 57 67  1  0
 58 64  1  0
 58 60  1  0
 59 65  1  0
 60 59  1  0
 61 60  2  0
 62 63  1  0
 62 56  2  0
 63 58  2  0
 64 57  1  0
 65 55  1  0
 67 69  2  0
 68 67  1  0
 70 68  1  0
 71 80  2  0
 71 76  1  0
 72 68  1  0
 72 76  1  0
 73 72  1  0
 74 75  1  0
 74 73  1  0
 75 71  1  0
 76 77  2  0
 77 78  1  0
 79 78  2  0
 80 79  1  0
 81 55  1  0
 81 86  1  0
 81 82  1  0
 82 85  1  1
 82 83  1  0
 84 82  1  0
 86 89  1  0
 87 91  1  0
 87 86  1  0
 88 87  2  0
 91 90  1  0
 93 91  1  0
 93 94  1  0
 93 92  1  0
M  ISO  4  14 100  22 100  53 101  54 101
M  END
>  <TORSDO>  (1) 
F 27

>  <SCORE>  (1) 
-9.783

>  <name>  (1) 
0

>  <ligand_id>  (1) 
0

>  <original_smiles>  (1) 
[H]c1c([H])c([H])c2c(c1[H])C([H])([H])C([H])([H])C([H])([H])C2([H])N([H])C(=O)C1([H])N(C(=O)C([H])(N([H])C(=O)C([H])(N([H])C([H])([H])[H])C([H])([H])[H])C(C([H])([H])[H])(C([H])([H])[H])C([H])([H])[H])C([H])([H])c2c([H])c(OC([H])([H])C([H])([H])N([H])C(=O)C([H])([H])C([H])([H])C([H])([H])C([H])([H])C([H])([H])C([H])([H])C([H])([H])C([H])([H])C([H])([H])N([H])C(=O)N3C([H])([H])C([H])([H])C([H])([H])C([H])(n4nc(-c5c([H])c([H])c(Oc6c([H])c([H])c(F)c([H])c6F)c([H])c5[H])c(C(=O)N([H])[H])c4N([H])[H])C3([H])[H])c([H])c([H])c2C1([H])[H]

>  <smiles>  (1) 
[H]c1c([H])c([H])c2c(c1[H])C([H])([H])C([H])([H])C([H])([H])C2([H])N([H])C(=O)C1([H])N(C(=O)C([H])(N([H])C(=O)C([H])(N([H])C([H])([H])[H])C([H])([H])[H])C(C([H])([H])[H])(C([H])([H])[H])C([H])([H])[H])C([H])([H])c2c([H])c(OC([H])([H])C([H])([H])N([H])C(=O)C([H])([H])C([H])([H])C([H])([H])C([H])([H])C([H])([H])C([H])([H])C([H])([H])C([H])([H])C([H])([H])N([H])C(=O)N3C([H])([H])C([H])([H])C([H])([H])C([H])(n4nc(-c5c([H])c([H])c(Oc6c([H])c([H])c(F)c([H])c6F)c([H])c5[H])c(C(=O)N([H])[H])c4N([H])[H])C3([H])[H])c([H])c([H])c2C1([H])[H]

$$$$
1:0:0
     RDKit          3D

 95104  0  0  1  0  0  0  0  0999 V2000
  -28.6650  -22.4620   24.0060 C   0  0  0  0  0  2  0  0  0  0  0  0
  -30.8670  -23.5570   24.7530 C   0  0  0  0  0  2  0  0  0  0  0  0
  -28.2400  -23.8080   23.4040 C   0  0  0  0  0  2  0  0  0  0  0  0
  -30.3740  -24.8790   24.1420 C   0  0  0  0  0  2  0  0  0  0  0  0
  -29.7140  -22.6050   25.1390 C   0  0  0  0  0  3  0  0  0  0  0  0
  -29.4710  -24.5990   22.9270 C   0  0  0  0  0  3  0  0  0  0  0  0
  -30.8340  -19.6020   27.2700 C   0  0  0  0  0  3  0  0  0  0  0  0
  -30.2890  -20.8500   26.9050 C   0  0  0  0  0  3  0  0  0  0  0  0
  -31.3610  -18.7440   26.2850 C   0  0  0  0  0  3  0  0  0  0  0  0
  -30.8340  -20.3940   24.5750 C   0  0  0  0  0  3  0  0  0  0  0  0
  -30.2800  -21.2500   25.5510 C   0  0  0  0  0  0  0  0  0  0  0  0
  -31.3610  -19.1410   24.9330 C   0  0  0  0  0  0  0  0  0  0  0  0
  -31.9050  -18.2210   23.8600 C   0  0  0  0  0  2  0  0  0  0  0  0
  -30.8530  -17.1990   23.4090 C   0  0  0  0  0  2  0  0  0  0  0  0
  -31.3740  -16.2770   22.2990 C   0  0  0  0  0  2  0  0  0  0  0  0
  -30.3460  -15.2000   21.9090 C   0  0  0  0  0  2  0  0  0  0  0  0
  -30.7740  -14.3250   20.7210 C   0  0  0  0  0  0  0  0  0  0  0  0
  -30.4160  -12.2860   19.3670 C   0  0  0  0  0  2  0  0  0  0  0  0
  -29.4770  -12.5400   18.1760 C   0  0  0  0  0  2  0  0  0  0  0  0
  -28.0030  -12.3900   18.5990 C   0  0  0  0  0  2  0  0  0  0  0  0
  -27.6700  -13.1980   19.8800 C   0  0  0  0  0  3  0  0  0  0  0  0
  -28.7110  -12.9200   20.9860 C   0  0  0  0  0  2  0  0  0  0  0  0
  -30.0490  -13.2130   20.4460 N   0  0  0  0  0  0  0  0  0  0  0  0
  -31.7790  -14.6380   20.0720 O   0  0  0  0  0  0  0  0  0  0  0  0
  -25.2640  -13.8140   20.5680 C   0  0  0  0  0  0  0  0  0  0  0  0
  -24.1860  -13.0430   20.9160 C   0  0  0  0  0  0  0  0  0  0  0  0
  -24.6410  -11.6900   20.8730 C   0  0  0  0  0  0  0  0  0  0  0  0
  -26.3080  -12.9310   20.3400 N   0  0  0  0  0  0  0  0  0  0  0  0
  -25.9330  -11.6470   20.5760 N   0  0  0  0  0  0  0  0  0  0  0  0
  -23.9070  -10.4290   21.0400 C   0  0  0  0  0  0  0  0  0  0  0  0
  -24.3620   -9.4200   21.9180 C   0  0  0  0  0  3  0  0  0  0  0  0
  -23.6290   -8.2240   22.0760 C   0  0  0  0  0  3  0  0  0  0  0  0
  -22.4280   -8.0280   21.3540 C   0  0  0  0  0  0  0  0  0  0  0  0
  -21.9900   -9.0260   20.4660 C   0  0  0  0  0  3  0  0  0  0  0  0
  -22.7240  -10.2130   20.3060 C   0  0  0  0  0  3  0  0  0  0  0  0
  -21.6640   -6.8880   21.4240 O   0  0  0  0  0  0  0  0  0  0  0  0
  -21.6840   -6.0740   22.5280 C   0  0  0  0  0  0  0  0  0  0  0  0
  -21.4020   -6.5640   23.8220 C   0  0  0  0  0  3  0  0  0  0  0  0
  -21.3660   -5.6790   24.9180 C   0  0  0  0  0  3  0  0  0  0  0  0
  -21.6040   -4.3050   24.7230 C   0  0  0  0  0  0  0  0  0  0  0  0
  -21.8820   -3.8150   23.4350 C   0  0  0  0  0  3  0  0  0  0  0  0
  -21.9200   -4.6970   22.3400 C   0  0  0  0  0  0  0  0  0  0  0  0
  -22.1660   -4.2150   21.0980 F   0  0  0  0  0  0  0  0  0  0  0  0
  -21.5630   -3.4540   25.7740 F   0  0  0  0  0  0  0  0  0  0  0  0
  -22.7890  -13.5240   21.1810 C   0  0  0  0  0  0  0  0  0  0  0  0
  -22.0520  -12.8240   22.0380 N   0  0  0  0  0  0  0  0  0  0  0  0
  -22.3570  -14.5550   20.6670 O   0  0  0  0  0  0  0  0  0  0  0  0
  -22.4130  -11.9910   22.4780 H   0  0  0  0  0  0  0  0  0  0  0  0
  -21.1150  -13.1290   22.2580 H   0  0  0  0  0  0  0  0  0  0  0  0
  -25.4360  -15.1860   20.4090 N   0  0  0  0  0  0  0  0  0  0  0  0
  -24.6740  -15.8460   20.5200 H   0  0  0  0  0  0  0  0  0  0  0  0
  -26.3000  -15.6260   20.1140 H   0  0  0  0  0  0  0  0  0  0  0  0
  -29.1010  -25.8780   22.1550 C   0  0  0  0  0  2  0  0  0  0  0  0
  -28.4640  -25.5900   20.7830 C   0  0  0  0  0  2  0  0  0  0  0  0
  -28.4250  -26.7910   20.0280 O   0  0  0  0  0  0  0  0  0  0  0  0
  -24.6110  -31.8720   23.2080 C   0  0  0  0  0  0  0  0  0  0  0  0
  -27.2440  -27.4810   20.0880 C   0  0  0  0  0  0  0  0  0  0  0  0
  -23.3960  -30.4900   21.5490 C   0  0  0  0  0  3  0  0  0  0  0  0
  -24.8450  -28.9540   20.1200 C   0  0  0  0  0  0  0  0  0  0  0  0
  -25.9160  -30.8470   21.3560 C   0  0  0  0  0  2  0  0  0  0  0  0
  -25.9990  -29.4800   20.7140 C   0  0  0  0  0  0  0  0  0  0  0  0
  -27.2040  -28.7500   20.6980 C   0  0  0  0  0  3  0  0  0  0  0  0
  -26.0780  -26.9510   19.4950 C   0  0  0  0  0  3  0  0  0  0  0  0
  -24.8750  -27.6850   19.5130 C   0  0  0  0  0  3  0  0  0  0  0  0
  -23.6040  -29.8170   20.1660 C   0  0  0  0  0  2  0  0  0  0  0  0
  -24.6580  -31.0830   22.0980 N   0  0  0  0  0  0  0  0  0  0  0  0
  -23.5310  -32.1480   23.7500 O   0  0  0  0  0  0  0  0  0  0  0  0
  -22.7380  -29.4650   22.5020 C   0  0  0  0  0  0  0  0  0  0  0  0
  -21.4120  -29.3010   22.3740 N   0  0  0  0  0  0  0  0  0  0  0  0
  -23.4160  -28.8180   23.3060 O   0  0  0  0  0  0  0  0  0  0  0  0
  -20.9260  -29.8810   21.7030 H   0  0  0  0  0  0  0  0  0  0  0  0
  -18.0250  -28.1360   22.8460 C   0  0  0  0  0  0  0  0  0  0  0  0
  -20.5840  -28.3640   23.1320 C   0  0  0  0  0  3  0  0  0  0  0  0
  -20.6740  -26.9380   22.5410 C   0  0  0  0  0  2  0  0  0  0  0  0
  -19.5740  -26.6360   21.5190 C   0  0  0  0  0  2  0  0  0  0  0  0
  -18.1920  -26.7900   22.1600 C   0  0  0  0  0  2  0  0  0  0  0  0
  -19.1500  -28.8820   23.2880 C   0  0  0  0  0  0  0  0  0  0  0  0
  -18.9440  -30.1440   23.8870 C   0  0  0  0  0  3  0  0  0  0  0  0
  -17.6450  -30.6560   24.0580 C   0  0  0  0  0  3  0  0  0  0  0  0
  -16.5340  -29.9070   23.6330 C   0  0  0  0  0  3  0  0  0  0  0  0
  -16.7250  -28.6510   23.0300 C   0  0  0  0  0  3  0  0  0  0  0  0
  -25.9030  -32.4830   23.8380 C   0  0  0  0  0  3  0  0  0  0  0  0
  -25.5910  -33.8630   24.2350 N   0  0  0  0  0  0  0  0  0  0  0  0
  -25.9030  -34.9490   23.5140 C   0  0  0  0  0  0  0  0  0  0  0  0
  -26.5590  -34.8920   22.4700 O   0  0  0  0  0  0  0  0  0  0  0  0
  -25.0110  -33.9820   25.0530 H   0  0  0  0  0  0  0  0  0  0  0  0
  -24.1480  -36.7340   23.2610 C   0  0  0  0  0  1  0  0  0  0  0  0
  -25.4100  -36.3140   24.0320 C   0  0  0  0  0  3  0  0  0  0  0  0
  -27.5590  -37.1820   24.8440 C   0  0  0  0  0  1  0  0  0  0  0  0
  -26.4300  -37.3820   23.9400 N   0  0  0  0  0  0  0  0  0  0  0  0
  -26.0170  -38.2880   24.1440 H   0  0  0  0  0  0  0  0  0  0  0  0
  -26.4480  -31.6590   25.0700 C   0  0  1  0  0  0  0  0  0  0  0  0
  -25.3780  -31.3670   26.1480 C   0  0  0  0  0  1  0  0  0  0  0  0
  -27.0290  -30.3020   24.6070 C   0  0  0  0  0  1  0  0  0  0  0  0
  -27.6080  -32.4280   25.7460 C   0  0  0  0  0  1  0  0  0  0  0  0
  1  5  1  0
  2  5  1  0
  3  1  1  0
  4  2  1  0
  5 11  1  0
  6 53  1  0
  6  3  1  0
  6  4  1  0
  8  7  1  0
  9  7  2  0
 10 12  2  0
 10 11  1  0
 11  8  2  0
 12  9  1  0
 13 12  1  0
 14 13  1  0
 15 14  1  0
 16 15  1  0
 17 16  1  0
 18 23  1  0
 19 20  1  0
 19 18  1  0
 21 20  1  0
 21 28  1  0
 21 22  1  0
 23 17  1  0
 23 22  1  0
 24 17  2  0
 25 26  2  0
 26 45  1  0
 27 26  1  0
 27 30  1  0
 28 25  1  0
 28 29  1  0
 29 27  2  0
 30 31  1  0
 31 32  2  0
 33 36  1  0
 33 32  1  0
 34 33  2  0
 35 34  1  0
 35 30  2  0
 36 37  1  0
 37 38  1  0
 38 39  2  0
 40 39  1  0
 40 44  1  0
 41 40  2  0
 42 37  2  0
 42 41  1  0
 43 42  1  0
 45 46  1  0
 46 49  1  0
 46 48  1  0
 47 45  2  0
 50 51  1  0
 50 25  1  0
 52 50  1  0
 54 53  1  0
 55 57  1  0
 55 54  1  0
 56 67  2  0
 57 62  1  0
 58 66  1  0
 58 68  1  0
 59 65  1  0
 59 61  1  0
 60 66  1  0
 61 60  1  0
 62 61  2  0
 63 64  1  0
 63 57  2  0
 64 59  2  0
 65 58  1  0
 66 56  1  0
 68 70  2  0
 69 68  1  0
 71 69  1  0
 72 81  2  0
 72 77  1  0
 73 69  1  0
 73 77  1  0
 74 73  1  0
 75 76  1  0
 75 74  1  0
 76 72  1  0
 77 78  2  0
 78 79  1  0
 80 79  2  0
 81 80  1  0
 82 56  1  0
 82 83  1  0
 82 92  1  0
 83 86  1  0
 84 88  1  0
 84 83  1  0
 85 84  2  0
 88 87  1  0
 90 88  1  0
 90 91  1  0
 90 89  1  0
 92 95  1  1
 92 93  1  0
 94 92  1  0
M  ISO  4  16 100  17 100  54 101  55 101
M  END
>  <TORSDO>  (2) 
F 23

>  <SCORE>  (2) 
20.568

>  <name>  (2) 
1

>  <ligand_id>  (2) 
1

>  <original_smiles>  (2) 
[H]c1c([H])c([H])c2c(c1[H])C([H])([H])C([H])([H])C([H])([H])C2([H])N([H])C(=O)C1([H])N(C(=O)C([H])(N([H])C(=O)C([H])(N([H])C([H])([H])[H])C([H])([H])[H])C(C([H])([H])[H])(C([H])([H])[H])C([H])([H])[H])C([H])([H])c2c([H])c(OC([H])([H])C([H])([H])C3([H])C([H])([H])C([H])([H])C([H])(c4c([H])c([H])c([H])c(C([H])([H])C([H])([H])C([H])([H])C([H])([H])C(=O)N5C([H])([H])C([H])([H])C([H])([H])C([H])(n6nc(-c7c([H])c([H])c(Oc8c([H])c([H])c(F)c([H])c8F)c([H])c7[H])c(C(=O)N([H])[H])c6N([H])[H])C5([H])[H])c4[H])C([H])([H])C3([H])[H])c([H])c([H])c2C1([H])[H]

>  <smiles>  (2) 
[H]c1c([H])c([H])c2c(c1[H])C([H])([H])C([H])([H])C([H])([H])C2([H])N([H])C(=O)C1([H])N(C(=O)C([H])(N([H])C(=O)C([H])(N([H])C([H])([H])[H])C([H])([H])[H])C(C([H])([H])[H])(C([H])([H])[H])C([H])([H])[H])C([H])([H])c2c([H])c(OC([H])([H])C([H])([H])C3([H])C([H])([H])C([H])([H])C([H])(c4c([H])c([H])c([H])c(C([H])([H])C([H])([H])C([H])([H])C([H])([H])C(=O)N5C([H])([H])C([H])([H])C([H])([H])C([H])(n6nc(-c7c([H])c([H])c(Oc8c([H])c([H])c(F)c([H])c8F)c([H])c7[H])c(C(=O)N([H])[H])c6N([H])[H])C5([H])[H])c4[H])C([H])([H])C3([H])[H])c([H])c([H])c2C1([H])[H]

$$$$
2:0:0
     RDKit          3D

 94101  0  0  1  0  0  0  0  0999 V2000
  -23.2850  -21.6210   23.5930 C   0  0  0  0  0  2  0  0  0  0  0  0
  -24.0400  -22.2740   22.4200 C   0  0  0  0  0  2  0  0  0  0  0  0
  -24.7620  -23.5690   22.8310 C   0  0  0  0  0  2  0  0  0  0  0  0
  -26.0490  -23.8160   22.0280 C   0  0  0  0  0  2  0  0  0  0  0  0
  -26.8210  -25.0590   22.5090 C   0  0  0  0  0  2  0  0  0  0  0  0
  -28.2620  -25.1490   21.9640 C   0  0  0  0  0  2  0  0  0  0  0  0
  -28.4000  -25.3820   20.4430 C   0  0  0  0  0  2  0  0  0  0  0  0
  -28.4250  -26.7700   20.1070 O   0  0  0  0  0  0  0  0  0  0  0  0
  -24.6100  -31.8720   23.2100 C   0  0  0  0  0  0  0  0  0  0  0  0
  -27.2370  -27.4590   20.1110 C   0  0  0  0  0  0  0  0  0  0  0  0
  -23.3990  -30.4920   21.5490 C   0  0  0  0  0  3  0  0  0  0  0  0
  -24.8470  -28.9570   20.1180 C   0  0  0  0  0  0  0  0  0  0  0  0
  -25.9220  -30.8490   21.3550 C   0  0  0  0  0  2  0  0  0  0  0  0
  -26.0010  -29.4800   20.7120 C   0  0  0  0  0  0  0  0  0  0  0  0
  -27.2010  -28.7390   20.7020 C   0  0  0  0  0  3  0  0  0  0  0  0
  -26.0680  -26.9440   19.5070 C   0  0  0  0  0  3  0  0  0  0  0  0
  -24.8740  -27.6890   19.5100 C   0  0  0  0  0  3  0  0  0  0  0  0
  -23.6050  -29.8170   20.1650 C   0  0  0  0  0  2  0  0  0  0  0  0
  -24.6620  -31.0860   22.0970 N   0  0  0  0  0  0  0  0  0  0  0  0
  -23.5300  -32.1450   23.7510 O   0  0  0  0  0  0  0  0  0  0  0  0
  -22.7400  -29.4670   22.5000 C   0  0  0  0  0  0  0  0  0  0  0  0
  -21.4130  -29.3040   22.3730 N   0  0  0  0  0  0  0  0  0  0  0  0
  -23.4170  -28.8230   23.3040 O   0  0  0  0  0  0  0  0  0  0  0  0
  -20.9330  -29.8700   21.6860 H   0  0  0  0  0  0  0  0  0  0  0  0
  -18.0290  -28.1390   22.8490 C   0  0  0  0  0  0  0  0  0  0  0  0
  -20.5860  -28.3710   23.1370 C   0  0  0  0  0  3  0  0  0  0  0  0
  -20.6800  -26.9420   22.5520 C   0  0  0  0  0  2  0  0  0  0  0  0
  -19.5820  -26.6370   21.5290 C   0  0  0  0  0  2  0  0  0  0  0  0
  -18.1950  -26.7950   22.1600 C   0  0  0  0  0  2  0  0  0  0  0  0
  -19.1510  -28.8870   23.2910 C   0  0  0  0  0  0  0  0  0  0  0  0
  -18.9410  -30.1480   23.8930 C   0  0  0  0  0  3  0  0  0  0  0  0
  -17.6400  -30.6590   24.0580 C   0  0  0  0  0  3  0  0  0  0  0  0
  -16.5310  -29.9090   23.6290 C   0  0  0  0  0  3  0  0  0  0  0  0
  -16.7260  -28.6520   23.0310 C   0  0  0  0  0  3  0  0  0  0  0  0
  -25.9010  -32.4850   23.8410 C   0  0  0  0  0  3  0  0  0  0  0  0
  -25.5870  -33.8640   24.2340 N   0  0  0  0  0  0  0  0  0  0  0  0
  -25.9030  -34.9490   23.5140 C   0  0  0  0  0  0  0  0  0  0  0  0
  -26.5590  -34.8940   22.4700 O   0  0  0  0  0  0  0  0  0  0  0  0
  -24.9970  -33.9810   25.0460 H   0  0  0  0  0  0  0  0  0  0  0  0
  -24.1490  -36.7330   23.2640 C   0  0  0  0  0  1  0  0  0  0  0  0
  -25.4100  -36.3120   24.0350 C   0  0  0  0  0  3  0  0  0  0  0  0
  -27.5580  -37.1810   24.8460 C   0  0  0  0  0  1  0  0  0  0  0  0
  -26.4300  -37.3800   23.9400 N   0  0  0  0  0  0  0  0  0  0  0  0
  -26.0200  -38.2880   24.1370 H   0  0  0  0  0  0  0  0  0  0  0  0
  -26.4440  -31.6600   25.0710 C   0  0  1  0  0  0  0  0  0  0  0  0
  -25.3720  -31.3700   26.1470 C   0  0  0  0  0  1  0  0  0  0  0  0
  -27.0250  -30.3050   24.6040 C   0  0  0  0  0  1  0  0  0  0  0  0
  -27.6040  -32.4290   25.7460 C   0  0  0  0  0  1  0  0  0  0  0  0
  -22.6360  -20.2600   23.2700 C   0  0  0  0  0  2  0  0  0  0  0  0
  -23.5680  -19.1820   22.6780 C   0  0  0  0  0  2  0  0  0  0  0  0
  -24.8180  -18.8700   23.5220 C   0  0  0  0  0  2  0  0  0  0  0  0
  -25.6410  -17.7040   22.9450 C   0  0  0  0  0  2  0  0  0  0  0  0
  -27.0310  -17.5610   23.5860 C   0  0  0  0  0  2  0  0  0  0  0  0
  -27.8610  -16.4230   22.9650 C   0  0  0  0  0  2  0  0  0  0  0  0
  -29.3270  -16.4450   23.4390 C   0  0  0  0  0  2  0  0  0  0  0  0
  -30.2060  -15.3220   22.8590 C   0  0  0  0  0  2  0  0  0  0  0  0
  -30.7540  -14.3830   20.6520 C   0  0  0  0  0  0  0  0  0  0  0  0
  -30.4130  -12.2750   19.4190 C   0  0  0  0  0  2  0  0  0  0  0  0
  -29.4910  -12.4970   18.2050 C   0  0  0  0  0  2  0  0  0  0  0  0
  -28.0130  -12.3580   18.6140 C   0  0  0  0  0  2  0  0  0  0  0  0
  -27.6630  -13.1990   19.8690 C   0  0  0  0  0  3  0  0  0  0  0  0
  -28.6920  -12.9580   20.9920 C   0  0  0  0  0  2  0  0  0  0  0  0
  -30.0410  -13.2390   20.4660 N   0  0  0  0  0  0  0  0  0  0  0  0
  -31.8010  -14.6340   20.0500 O   0  0  0  0  0  0  0  0  0  0  0  0
  -30.1850  -15.3360   21.3970 N   0  0  0  0  0  0  0  0  0  0  0  0
  -30.4260  -16.2520   21.0460 H   0  0  0  0  0  0  0  0  0  0  0  0
  -25.2610  -13.8160   20.5640 C   0  0  0  0  0  0  0  0  0  0  0  0
  -24.1860  -13.0450   20.9160 C   0  0  0  0  0  0  0  0  0  0  0  0
  -24.6390  -11.6910   20.8730 C   0  0  0  0  0  0  0  0  0  0  0  0
  -26.3020  -12.9300   20.3290 N   0  0  0  0  0  0  0  0  0  0  0  0
  -25.9300  -11.6470   20.5720 N   0  0  0  0  0  0  0  0  0  0  0  0
  -23.9060  -10.4300   21.0420 C   0  0  0  0  0  0  0  0  0  0  0  0
  -24.3620   -9.4220   21.9200 C   0  0  0  0  0  3  0  0  0  0  0  0
  -23.6300   -8.2250   22.0750 C   0  0  0  0  0  3  0  0  0  0  0  0
  -22.4290   -8.0280   21.3540 C   0  0  0  0  0  0  0  0  0  0  0  0
  -21.9920   -9.0270   20.4650 C   0  0  0  0  0  3  0  0  0  0  0  0
  -22.7250  -10.2140   20.3070 C   0  0  0  0  0  3  0  0  0  0  0  0
  -21.6640   -6.8880   21.4250 O   0  0  0  0  0  0  0  0  0  0  0  0
  -21.6860   -6.0740   22.5290 C   0  0  0  0  0  0  0  0  0  0  0  0
  -21.4020   -6.5640   23.8220 C   0  0  0  0  0  3  0  0  0  0  0  0
  -21.3650   -5.6800   24.9180 C   0  0  0  0  0  3  0  0  0  0  0  0
  -21.6050   -4.3070   24.7250 C   0  0  0  0  0  0  0  0  0  0  0  0
  -21.8820   -3.8150   23.4370 C   0  0  0  0  0  3  0  0  0  0  0  0
  -21.9190   -4.6960   22.3420 C   0  0  0  0  0  0  0  0  0  0  0  0
  -22.1650   -4.2150   21.1000 F   0  0  0  0  0  0  0  0  0  0  0  0
  -21.5630   -3.4550   25.7760 F   0  0  0  0  0  0  0  0  0  0  0  0
  -22.7890  -13.5250   21.1840 C   0  0  0  0  0  0  0  0  0  0  0  0
  -22.0540  -12.8220   22.0390 N   0  0  0  0  0  0  0  0  0  0  0  0
  -22.3540  -14.5560   20.6720 O   0  0  0  0  0  0  0  0  0  0  0  0
  -22.4170  -11.9880   22.4780 H   0  0  0  0  0  0  0  0  0  0  0  0
  -21.1190  -13.1270   22.2650 H   0  0  0  0  0  0  0  0  0  0  0  0
  -25.4410  -15.1850   20.4000 N   0  0  0  0  0  0  0  0  0  0  0  0
  -24.7000  -15.8620   20.5410 H   0  0  0  0  0  0  0  0  0  0  0  0
  -26.3220  -15.6050   20.1360 H   0  0  0  0  0  0  0  0  0  0  0  0
  2  3  1  0
  2  1  1  0
  4  5  1  0
  4  3  1  0
  6  5  1  0
  7  6  1  0
  8 10  1  0
  8  7  1  0
  9 20  2  0
 10 15  1  0
 11 19  1  0
 11 21  1  0
 12 18  1  0
 12 14  1  0
 13 19  1  0
 14 13  1  0
 15 14  2  0
 16 17  1  0
 16 10  2  0
 17 12  2  0
 18 11  1  0
 19  9  1  0
 21 23  2  0
 22 21  1  0
 24 22  1  0
 25 34  2  0
 25 30  1  0
 26 22  1  0
 26 30  1  0
 27 26  1  0
 28 29  1  0
 28 27  1  0
 29 25  1  0
 30 31  2  0
 31 32  1  0
 33 32  2  0
 34 33  1  0
 35  9  1  0
 35 36  1  0
 35 45  1  0
 36 39  1  0
 37 41  1  0
 37 36  1  0
 38 37  2  0
 41 40  1  0
 43 41  1  0
 43 44  1  0
 43 42  1  0
 45 48  1  1
 45 46  1  0
 47 45  1  0
 49  1  1  0
 50 49  1  0
 50 51  1  0
 52 51  1  0
 52 53  1  0
 54 55  1  0
 54 53  1  0
 56 55  1  0
 57 65  1  0
 58 63  1  0
 59 60  1  0
 59 58  1  0
 61 60  1  0
 61 70  1  0
 61 62  1  0
 63 57  1  0
 63 62  1  0
 64 57  2  0
 65 56  1  0
 66 65  1  0
 67 68  2  0
 68 87  1  0
 69 68  1  0
 69 72  1  0
 70 67  1  0
 70 71  1  0
 71 69  2  0
 72 73  1  0
 73 74  2  0
 75 78  1  0
 75 74  1  0
 76 75  2  0
 77 76  1  0
 77 72  2  0
 78 79  1  0
 79 80  1  0
 80 81  2  0
 82 81  1  0
 82 86  1  0
 83 82  2  0
 84 79  2  0
 84 83  1  0
 85 84  1  0
 87 88  1  0
 88 91  1  0
 88 90  1  0
 89 87  2  0
 92 93  1  0
 92 67  1  0
 94 92  1  0
M  ISO  4   7 101   8 101  57 100  65 100
M  END
>  <TORSDO>  (3) 
F 30

>  <SCORE>  (3) 
47.470

>  <name>  (3) 
2

>  <ligand_id>  (3) 
2

>  <original_smiles>  (3) 
[H]c1c([H])c([H])c2c(c1[H])C([H])([H])C([H])([H])C([H])([H])C2([H])N([H])C(=O)C1([H])N(C(=O)C([H])(N([H])C(=O)C([H])(N([H])C([H])([H])[H])C([H])([H])[H])C(C([H])([H])[H])(C([H])([H])[H])C([H])([H])[H])C([H])([H])c2c([H])c(OC([H])([H])C([H])([H])C([H])([H])C([H])([H])C([H])([H])C([H])([H])C([H])([H])C([H])([H])C([H])([H])C([H])([H])C([H])([H])C([H])([H])C([H])([H])C([H])([H])C([H])([H])N([H])C(=O)N3C([H])([H])C([H])([H])C([H])([H])C([H])(n4nc(-c5c([H])c([H])c(Oc6c([H])c([H])c(F)c([H])c6F)c([H])c5[H])c(C(=O)N([H])[H])c4N([H])[H])C3([H])[H])c([H])c([H])c2C1([H])[H]

>  <smiles>  (3) 
[H]c1c([H])c([H])c2c(c1[H])C([H])([H])C([H])([H])C([H])([H])C2([H])N([H])C(=O)C1([H])N(C(=O)C([H])(N([H])C(=O)C([H])(N([H])C([H])([H])[H])C([H])([H])[H])C(C([H])([H])[H])(C([H])([H])[H])C([H])([H])[H])C([H])([H])c2c([H])c(OC([H])([H])C([H])([H])C([H])([H])C([H])([H])C([H])([H])C([H])([H])C([H])([H])C([H])([H])C([H])([H])C([H])([H])C([H])([H])C([H])([H])C([H])([H])C([H])([H])C([H])([H])N([H])C(=O)N3C([H])([H])C([H])([H])C([H])([H])C([H])(n4nc(-c5c([H])c([H])c(Oc6c([H])c([H])c(F)c([H])c6F)c([H])c5[H])c(C(=O)N([H])[H])c4N([H])[H])C3([H])[H])c([H])c([H])c2C1([H])[H]

$$$$
3:0:0
     RDKit          3D

 93101  0  0  1  0  0  0  0  0999 V2000
  -28.1390  -22.3590   19.6730 C   0  0  0  0  0  3  0  0  0  0  0  0
  -29.6970  -21.8990   17.8610 C   0  0  0  0  0  3  0  0  0  0  0  0
  -27.9830  -23.6760   19.2040 C   0  0  0  0  0  3  0  0  0  0  0  0
  -29.5410  -23.2220   17.3920 C   0  0  0  0  0  3  0  0  0  0  0  0
  -28.9630  -21.4500   18.9820 C   0  0  0  0  0  0  0  0  0  0  0  0
  -28.6510  -24.1090   18.0370 C   0  0  0  0  0  0  0  0  0  0  0  0
  -28.9610  -19.9790   19.3770 C   0  0  0  0  0  2  0  0  0  0  0  0
  -30.2490  -19.4740   20.0430 C   0  0  0  0  0  2  0  0  0  0  0  0
  -30.0820  -18.0310   20.5640 C   0  0  0  0  0  2  0  0  0  0  0  0
  -31.3840  -17.4240   21.1110 C   0  0  0  0  0  2  0  0  0  0  0  0
  -31.1960  -16.1520   21.9690 C   0  0  0  0  0  2  0  0  0  0  0  0
  -30.7550  -14.3310   20.3010 C   0  0  0  0  0  0  0  0  0  0  0  0
  -30.2820  -12.2980   18.9850 C   0  0  0  0  0  2  0  0  0  0  0  0
  -29.2970  -12.5640   17.8340 C   0  0  0  0  0  2  0  0  0  0  0  0
  -27.8410  -12.4390   18.3190 C   0  0  0  0  0  2  0  0  0  0  0  0
  -27.5740  -13.2430   19.6180 C   0  0  0  0  0  3  0  0  0  0  0  0
  -28.6630  -12.9590   20.6770 C   0  0  0  0  0  2  0  0  0  0  0  0
  -29.9840  -13.2350   20.0790 N   0  0  0  0  0  0  0  0  0  0  0  0
  -31.7530  -14.6020   19.6280 O   0  0  0  0  0  0  0  0  0  0  0  0
  -30.4040  -15.0820   21.3520 N   0  0  0  0  0  0  0  0  0  0  0  0
  -29.5850  -14.7760   21.8580 H   0  0  0  0  0  0  0  0  0  0  0  0
  -25.1990  -13.8720   20.3930 C   0  0  0  0  0  0  0  0  0  0  0  0
  -24.1350  -13.1100   20.7950 C   0  0  0  0  0  0  0  0  0  0  0  0
  -24.5810  -11.7540   20.7510 C   0  0  0  0  0  0  0  0  0  0  0  0
  -26.2300  -12.9820   20.1350 N   0  0  0  0  0  0  0  0  0  0  0  0
  -25.8610  -11.7030   20.4040 N   0  0  0  0  0  0  0  0  0  0  0  0
  -23.8500  -10.4990   20.9640 C   0  0  0  0  0  0  0  0  0  0  0  0
  -24.3010   -9.5270   21.8830 C   0  0  0  0  0  3  0  0  0  0  0  0
  -23.5690   -8.3360   22.0850 C   0  0  0  0  0  3  0  0  0  0  0  0
  -22.3720   -8.1100   21.3650 C   0  0  0  0  0  0  0  0  0  0  0  0
  -21.9390   -9.0710   20.4350 C   0  0  0  0  0  3  0  0  0  0  0  0
  -22.6710  -10.2520   20.2310 C   0  0  0  0  0  3  0  0  0  0  0  0
  -21.6080   -6.9730   21.4760 O   0  0  0  0  0  0  0  0  0  0  0  0
  -21.5950   -6.2260   22.6270 C   0  0  0  0  0  0  0  0  0  0  0  0
  -21.2310   -6.7820   23.8730 C   0  0  0  0  0  3  0  0  0  0  0  0
  -21.1610   -5.9620   25.0180 C   0  0  0  0  0  3  0  0  0  0  0  0
  -21.4450   -4.5880   24.9180 C   0  0  0  0  0  0  0  0  0  0  0  0
  -21.8010   -4.0290   23.6770 C   0  0  0  0  0  3  0  0  0  0  0  0
  -21.8720   -4.8460   22.5350 C   0  0  0  0  0  0  0  0  0  0  0  0
  -22.1960   -4.3000   21.3380 F   0  0  0  0  0  0  0  0  0  0  0  0
  -21.3710   -3.7970   26.0160 F   0  0  0  0  0  0  0  0  0  0  0  0
  -22.7510  -13.6000   21.1090 C   0  0  0  0  0  0  0  0  0  0  0  0
  -22.0430  -12.9100   21.9960 N   0  0  0  0  0  0  0  0  0  0  0  0
  -22.3060  -14.6310   20.6050 O   0  0  0  0  0  0  0  0  0  0  0  0
  -22.4160  -12.0750   22.4260 H   0  0  0  0  0  0  0  0  0  0  0  0
  -21.1150  -13.2190   22.2510 H   0  0  0  0  0  0  0  0  0  0  0  0
  -25.3710  -15.2420   20.2080 N   0  0  0  0  0  0  0  0  0  0  0  0
  -24.6160  -15.9050   20.3400 H   0  0  0  0  0  0  0  0  0  0  0  0
  -26.2220  -15.6710   19.8680 H   0  0  0  0  0  0  0  0  0  0  0  0
  -28.2760  -25.4400   17.3900 C   0  0  0  0  0  2  0  0  0  0  0  0
  -29.0130  -26.7300   17.8330 C   0  0  0  0  0  2  0  0  0  0  0  0
  -29.3520  -26.9360   19.3250 C   0  0  0  0  0  2  0  0  0  0  0  0
  -28.2800  -26.6950   20.2230 O   0  0  0  0  0  0  0  0  0  0  0  0
  -24.5710  -31.9660   23.2490 C   0  0  0  0  0  0  0  0  0  0  0  0
  -27.1790  -27.5110   20.1720 C   0  0  0  0  0  0  0  0  0  0  0  0
  -23.3500  -30.5590   21.6230 C   0  0  0  0  0  3  0  0  0  0  0  0
  -24.7930  -29.0160   20.1980 C   0  0  0  0  0  0  0  0  0  0  0  0
  -25.8770  -30.9140   21.4030 C   0  0  0  0  0  2  0  0  0  0  0  0
  -25.9580  -29.5420   20.7680 C   0  0  0  0  0  0  0  0  0  0  0  0
  -27.1640  -28.8000   20.7500 C   0  0  0  0  0  3  0  0  0  0  0  0
  -25.9900  -26.9840   19.6310 C   0  0  0  0  0  3  0  0  0  0  0  0
  -24.8010  -27.7330   19.6260 C   0  0  0  0  0  3  0  0  0  0  0  0
  -23.5480  -29.8730   20.2460 C   0  0  0  0  0  2  0  0  0  0  0  0
  -24.6180  -31.1590   22.1510 N   0  0  0  0  0  0  0  0  0  0  0  0
  -23.4940  -32.2460   23.7940 O   0  0  0  0  0  0  0  0  0  0  0  0
  -22.7000  -29.5460   22.5920 C   0  0  0  0  0  0  0  0  0  0  0  0
  -21.3750  -29.3630   22.4660 N   0  0  0  0  0  0  0  0  0  0  0  0
  -23.3820  -28.9250   23.4100 O   0  0  0  0  0  0  0  0  0  0  0  0
  -20.8860  -29.9150   21.7740 H   0  0  0  0  0  0  0  0  0  0  0  0
  -17.9990  -28.1780   22.9710 C   0  0  0  0  0  0  0  0  0  0  0  0
  -20.5550  -28.4340   23.2440 C   0  0  0  0  0  3  0  0  0  0  0  0
  -20.6570  -26.9970   22.6810 C   0  0  0  0  0  2  0  0  0  0  0  0
  -19.5550  -26.6660   21.6690 C   0  0  0  0  0  2  0  0  0  0  0  0
  -18.1720  -26.8210   22.3080 C   0  0  0  0  0  2  0  0  0  0  0  0
  -19.1180  -28.9420   23.3940 C   0  0  0  0  0  0  0  0  0  0  0  0
  -18.9010  -30.2140   23.9690 C   0  0  0  0  0  3  0  0  0  0  0  0
  -17.5960  -30.7200   24.1260 C   0  0  0  0  0  3  0  0  0  0  0  0
  -16.4910  -29.9510   23.7210 C   0  0  0  0  0  3  0  0  0  0  0  0
  -16.6940  -28.6830   23.1500 C   0  0  0  0  0  3  0  0  0  0  0  0
  -25.8630  -32.5950   23.8590 C   0  0  0  0  0  3  0  0  0  0  0  0
  -25.5620  -33.9940   24.1870 N   0  0  0  0  0  0  0  0  0  0  0  0
  -25.8960  -35.0410   23.4210 C   0  0  0  0  0  0  0  0  0  0  0  0
  -26.5630  -34.9300   22.3880 O   0  0  0  0  0  0  0  0  0  0  0  0
  -24.9790  -34.1540   24.9950 H   0  0  0  0  0  0  0  0  0  0  0  0
  -24.1780  -36.8410   23.0500 C   0  0  0  0  0  1  0  0  0  0  0  0
  -25.4130  -36.4330   23.8710 C   0  0  0  0  0  3  0  0  0  0  0  0
  -27.5510  -37.3060   24.7060 C   0  0  0  0  0  1  0  0  0  0  0  0
  -26.4500  -37.4820   23.7620 N   0  0  0  0  0  0  0  0  0  0  0  0
  -26.0480  -38.4030   23.9140 H   0  0  0  0  0  0  0  0  0  0  0  0
  -26.3900  -31.8220   25.1290 C   0  0  1  0  0  0  0  0  0  0  0  0
  -25.3080  -31.5780   26.2080 C   0  0  0  0  0  1  0  0  0  0  0  0
  -26.9700  -30.4460   24.7280 C   0  0  0  0  0  1  0  0  0  0  0  0
  -27.5480  -32.6150   25.7790 C   0  0  0  0  0  1  0  0  0  0  0  0
  2  5  1  0
  3  1  1  0
  4  2  2  0
  4  6  1  0
  5  7  1  0
  5  1  2  0
  6  3  2  0
  7  8  1  0
  8  9  1  0
  9 10  1  0
 10 11  1  0
 12 20  1  0
 13 18  1  0
 14 15  1  0
 14 13  1  0
 16 15  1  0
 16 25  1  0
 16 17  1  0
 18 12  1  0
 18 17  1  0
 19 12  2  0
 20 21  1  0
 20 11  1  0
 22 23  2  0
 23 42  1  0
 24 23  1  0
 24 27  1  0
 25 22  1  0
 25 26  1  0
 26 24  2  0
 27 28  1  0
 28 29  2  0
 30 33  1  0
 30 29  1  0
 31 30  2  0
 32 31  1  0
 32 27  2  0
 33 34  1  0
 34 35  1  0
 35 36  2  0
 37 36  1  0
 37 41  1  0
 38 37  2  0
 39 34  2  0
 39 38  1  0
 40 39  1  0
 42 43  1  0
 43 46  1  0
 43 45  1  0
 44 42  2  0
 47 48  1  0
 47 22  1  0
 49 47  1  0
 50 51  1  0
 50  6  1  0
 51 52  1  0
 52 53  1  0
 54 65  2  0
 55 53  1  0
 55 60  1  0
 56 64  1  0
 56 66  1  0
 57 63  1  0
 57 59  1  0
 58 64  1  0
 59 58  1  0
 60 59  2  0
 61 55  2  0
 62 61  1  0
 62 57  2  0
 63 56  1  0
 64 54  1  0
 66 68  2  0
 67 66  1  0
 69 67  1  0
 70 79  2  0
 70 75  1  0
 71 67  1  0
 71 75  1  0
 72 71  1  0
 73 74  1  0
 73 72  1  0
 74 70  1  0
 75 76  2  0
 76 77  1  0
 78 77  2  0
 79 78  1  0
 80 54  1  0
 80 81  1  0
 80 90  1  0
 81 84  1  0
 82 86  1  0
 82 81  1  0
 83 82  2  0
 86 85  1  0
 88 86  1  0
 88 89  1  0
 88 87  1  0
 90 93  1  1
 90 91  1  0
 92 90  1  0
M  ISO  4  12 100  20 100  52 101  53 101
M  END
>  <TORSDO>  (4) 
F 24

>  <SCORE>  (4) 
-12.418

>  <name>  (4) 
3

>  <ligand_id>  (4) 
3

>  <original_smiles>  (4) 
[H]c1c([H])c([H])c2c(c1[H])C([H])([H])C([H])([H])C([H])([H])C2([H])N([H])C(=O)C1([H])N(C(=O)C([H])(N([H])C(=O)C([H])(N([H])C([H])([H])[H])C([H])([H])[H])C(C([H])([H])[H])(C([H])([H])[H])C([H])([H])[H])C([H])([H])c2c([H])c(OC([H])([H])C([H])([H])C([H])([H])c3c([H])c([H])c(C([H])([H])C([H])([H])C([H])([H])C([H])([H])C([H])([H])N([H])C(=O)N4C([H])([H])C([H])([H])C([H])([H])C([H])(n5nc(-c6c([H])c([H])c(Oc7c([H])c([H])c(F)c([H])c7F)c([H])c6[H])c(C(=O)N([H])[H])c5N([H])[H])C4([H])[H])c([H])c3[H])c([H])c([H])c2C1([H])[H]

>  <smiles>  (4) 
[H]c1c([H])c([H])c2c(c1[H])C([H])([H])C([H])([H])C([H])([H])C2([H])N([H])C(=O)C1([H])N(C(=O)C([H])(N([H])C(=O)C([H])(N([H])C([H])([H])[H])C([H])([H])[H])C(C([H])([H])[H])(C([H])([H])[H])C([H])([H])[H])C([H])([H])c2c([H])c(OC([H])([H])C([H])([H])C([H])([H])c3c([H])c([H])c(C([H])([H])C([H])([H])C([H])([H])C([H])([H])C([H])([H])N([H])C(=O)N4C([H])([H])C([H])([H])C([H])([H])C([H])(n5nc(-c6c([H])c([H])c(Oc7c([H])c([H])c(F)c([H])c7F)c([H])c6[H])c(C(=O)N([H])[H])c5N([H])[H])C4([H])[H])c([H])c3[H])c([H])c([H])c2C1([H])[H]

$$$$
4:0:0
     RDKit          3D

100108  0  0  1  0  0  0  0  0999 V2000
  -27.9940  -23.1400   22.6670 C   0  0  0  0  0  3  0  0  0  0  0  0
  -26.7470  -23.7870   22.6250 C   0  0  0  0  0  3  0  0  0  0  0  0
  -28.7570  -24.4620   20.7680 C   0  0  0  0  0  3  0  0  0  0  0  0
  -29.0020  -23.4530   21.7310 C   0  0  0  0  0  0  0  0  0  0  0  0
  -27.5100  -25.1250   20.7280 C   0  0  0  0  0  0  0  0  0  0  0  0
  -26.5010  -24.7750   21.6550 C   0  0  0  0  0  0  0  0  0  0  0  0
  -30.3170  -22.7330   21.8020 C   0  0  0  0  0  0  0  0  0  0  0  0
  -31.0360  -22.7280   20.6760 N   0  0  0  0  0  0  0  0  0  0  0  0
  -30.6510  -22.1220   22.8190 O   0  0  0  0  0  0  0  0  0  0  0  0
  -30.6680  -23.2620   19.9010 H   0  0  0  0  0  0  0  0  0  0  0  0
  -32.2490  -21.9500   20.4440 C   0  0  0  0  0  2  0  0  0  0  0  0
  -31.9580  -20.7330   19.5510 C   0  0  0  0  0  2  0  0  0  0  0  0
  -31.0190  -19.6860   20.1800 C   0  0  0  0  0  2  0  0  0  0  0  0
  -31.2070  -18.3180   19.5180 C   0  0  0  0  0  2  0  0  0  0  0  0
  -30.5310  -17.1510   20.2500 C   0  0  0  0  0  2  0  0  0  0  0  0
  -31.0530  -15.8340   19.6720 C   0  0  0  0  0  2  0  0  0  0  0  0
  -31.1140  -13.4760   20.3340 C   0  0  0  0  0  0  0  0  0  0  0  0
  -31.0020  -11.1010   20.9590 C   0  0  0  0  0  2  0  0  0  0  0  0
  -30.2850  -10.2880   19.8680 C   0  0  0  0  0  2  0  0  0  0  0  0
  -28.7610  -10.2970   20.0990 C   0  0  0  0  0  2  0  0  0  0  0  0
  -28.2010  -11.7250   20.3330 C   0  0  0  0  0  3  0  0  0  0  0  0
  -29.0470  -12.4870   21.3780 C   0  0  0  0  0  2  0  0  0  0  0  0
  -30.4530  -12.4630   20.9460 N   0  0  0  0  0  0  0  0  0  0  0  0
  -32.2270  -13.3430   19.8160 O   0  0  0  0  0  0  0  0  0  0  0  0
  -30.4920  -14.6590   20.3240 N   0  0  0  0  0  0  0  0  0  0  0  0
  -29.5790  -14.7220   20.7500 H   0  0  0  0  0  0  0  0  0  0  0  0
  -25.9010  -12.7410   20.8940 C   0  0  0  0  0  0  0  0  0  0  0  0
  -24.6900  -12.1660   21.1720 C   0  0  0  0  0  0  0  0  0  0  0  0
  -24.9070  -10.7530   21.1360 C   0  0  0  0  0  0  0  0  0  0  0  0
  -26.7880  -11.6910   20.7100 N   0  0  0  0  0  0  0  0  0  0  0  0
  -26.1870  -10.4890   20.9110 N   0  0  0  0  0  0  0  0  0  0  0  0
  -23.9560   -9.6370   21.2420 C   0  0  0  0  0  0  0  0  0  0  0  0
  -23.9990   -8.7320   22.3250 C   0  0  0  0  0  3  0  0  0  0  0  0
  -23.0650   -7.6770   22.4130 C   0  0  0  0  0  3  0  0  0  0  0  0
  -22.0730   -7.5210   21.4150 C   0  0  0  0  0  0  0  0  0  0  0  0
  -22.0510   -8.4100   20.3270 C   0  0  0  0  0  3  0  0  0  0  0  0
  -22.9850   -9.4550   20.2360 C   0  0  0  0  0  3  0  0  0  0  0  0
  -21.1380   -6.5150   21.4060 O   0  0  0  0  0  0  0  0  0  0  0  0
  -20.5800   -6.0400   22.5640 C   0  0  0  0  0  0  0  0  0  0  0  0
  -19.8200   -6.8670   23.4220 C   0  0  0  0  0  3  0  0  0  0  0  0
  -19.2080   -6.3190   24.5660 C   0  0  0  0  0  3  0  0  0  0  0  0
  -19.3440   -4.9480   24.8520 C   0  0  0  0  0  0  0  0  0  0  0  0
  -20.0960   -4.1220   23.9990 C   0  0  0  0  0  3  0  0  0  0  0  0
  -20.7090   -4.6660   22.8560 C   0  0  0  0  0  0  0  0  0  0  0  0
  -21.4120   -3.8620   22.0240 F   0  0  0  0  0  0  0  0  0  0  0  0
  -18.7490   -4.4210   25.9490 F   0  0  0  0  0  0  0  0  0  0  0  0
  -23.3820  -12.8780   21.3620 C   0  0  0  0  0  0  0  0  0  0  0  0
  -22.4800  -12.3120   22.1550 N   0  0  0  0  0  0  0  0  0  0  0  0
  -23.1710  -13.9740   20.8420 O   0  0  0  0  0  0  0  0  0  0  0  0
  -22.6570  -11.4250   22.6050 H   0  0  0  0  0  0  0  0  0  0  0  0
  -21.5950  -12.7720   22.3150 H   0  0  0  0  0  0  0  0  0  0  0  0
  -26.3160  -14.0620   20.7640 N   0  0  0  0  0  0  0  0  0  0  0  0
  -25.6730  -14.8420   20.8350 H   0  0  0  0  0  0  0  0  0  0  0  0
  -27.2580  -14.3470   20.5250 H   0  0  0  0  0  0  0  0  0  0  0  0
  -25.2530  -25.3930   21.6370 N   0  0  0  0  0  0  0  0  0  0  0  0
  -24.6090  -25.2960   22.4140 H   0  0  0  0  0  0  0  0  0  0  0  0
  -25.0720  -26.1800   21.0250 H   0  0  0  0  0  0  0  0  0  0  0  0
  -27.2840  -26.2380   19.7180 C   0  0  0  0  0  2  0  0  0  0  0  0
  -26.4830  -25.7910   18.4740 C   0  0  0  0  0  2  0  0  0  0  0  0
  -26.0550  -26.9160   17.7110 O   0  0  0  0  0  0  0  0  0  0  0  0
  -25.4800  -30.9050   23.5320 C   0  0  0  0  0  0  0  0  0  0  0  0
  -25.2760  -27.8150   18.3990 C   0  0  0  0  0  0  0  0  0  0  0  0
  -23.4220  -30.7120   22.1680 C   0  0  0  0  0  3  0  0  0  0  0  0
  -23.7210  -29.6520   19.8670 C   0  0  0  0  0  0  0  0  0  0  0  0
  -25.7300  -30.5210   21.0850 C   0  0  0  0  0  2  0  0  0  0  0  0
  -25.1070  -29.5930   20.0650 C   0  0  0  0  0  0  0  0  0  0  0  0
  -25.8880  -28.6830   19.3250 C   0  0  0  0  0  3  0  0  0  0  0  0
  -23.8780  -27.8740   18.2130 C   0  0  0  0  0  3  0  0  0  0  0  0
  -23.0980  -28.7900   18.9480 C   0  0  0  0  0  3  0  0  0  0  0  0
  -22.9600  -30.6710   20.6850 C   0  0  0  0  0  2  0  0  0  0  0  0
  -24.9150  -30.6940   22.3100 N   0  0  0  0  0  0  0  0  0  0  0  0
  -24.7830  -31.1640   24.5230 O   0  0  0  0  0  0  0  0  0  0  0  0
  -22.7200  -29.5650   22.9310 C   0  0  0  0  0  0  0  0  0  0  0  0
  -21.3790  -29.5350   22.8580 N   0  0  0  0  0  0  0  0  0  0  0  0
  -23.3740  -28.7140   23.5390 O   0  0  0  0  0  0  0  0  0  0  0  0
  -20.9160  -30.2700   22.3440 H   0  0  0  0  0  0  0  0  0  0  0  0
  -18.0140  -28.2290   22.8480 C   0  0  0  0  0  0  0  0  0  0  0  0
  -20.5080  -28.5260   23.4590 C   0  0  0  0  0  3  0  0  0  0  0  0
  -20.7270  -27.1400   22.8100 C   0  0  0  0  0  2  0  0  0  0  0  0
  -19.7700  -26.8620   21.6470 C   0  0  0  0  0  2  0  0  0  0  0  0
  -18.3140  -26.9310   22.1160 C   0  0  0  0  0  2  0  0  0  0  0  0
  -19.0440  -28.9850   23.4650 C   0  0  0  0  0  0  0  0  0  0  0  0
  -18.7140  -30.2030   24.0980 C   0  0  0  0  0  3  0  0  0  0  0  0
  -17.3840  -30.6620   24.1280 C   0  0  0  0  0  3  0  0  0  0  0  0
  -16.3640  -29.9010   23.5300 C   0  0  0  0  0  3  0  0  0  0  0  0
  -16.6800  -28.6850   22.8970 C   0  0  0  0  0  3  0  0  0  0  0  0
  -27.0260  -30.8600   23.7410 C   0  0  0  0  0  3  0  0  0  0  0  0
  -27.5420  -29.4650   24.2650 C   0  0  1  0  0  0  0  0  0  0  0  0
  -26.7880  -28.9540   25.5140 C   0  0  0  0  0  1  0  0  0  0  0  0
  -27.4140  -28.3900   23.1600 C   0  0  0  0  0  1  0  0  0  0  0  0
  -29.0450  -29.5600   24.6180 C   0  0  0  0  0  1  0  0  0  0  0  0
  -27.3770  -31.9340   24.6790 N   0  0  0  0  0  0  0  0  0  0  0  0
  -28.0090  -33.0650   24.3380 C   0  0  0  0  0  0  0  0  0  0  0  0
  -28.4270  -33.2810   23.1970 O   0  0  0  0  0  0  0  0  0  0  0  0
  -27.0170  -31.8480   25.6180 H   0  0  0  0  0  0  0  0  0  0  0  0
  -27.2130  -35.2750   25.2330 C   0  0  0  0  0  1  0  0  0  0  0  0
  -28.2100  -34.1240   25.4390 C   0  0  0  0  0  3  0  0  0  0  0  0
  -30.5690  -33.6880   25.9610 C   0  0  0  0  0  1  0  0  0  0  0  0
  -29.5870  -34.6620   25.4920 N   0  0  0  0  0  0  0  0  0  0  0  0
  -29.6320  -35.4740   26.1030 H   0  0  0  0  0  0  0  0  0  0  0  0
  2  1  1  0
  3  4  1  0
  4  7  1  0
  4  1  2  0
  5  3  2  0
  5  6  1  0
  6  2  2  0
  7  9  2  0
  8  7  1  0
 10  8  1  0
 11  8  1  0
 12 13  1  0
 12 11  1  0
 14 13  1  0
 14 15  1  0
 16 15  1  0
 16 25  1  0
 17 23  1  0
 19 20  1  0
 19 18  1  0
 21 20  1  0
 21 30  1  0
 21 22  1  0
 23 18  1  0
 23 22  1  0
 24 17  2  0
 25 17  1  0
 25 26  1  0
 27 28  2  0
 28 47  1  0
 29 28  1  0
 29 32  1  0
 30 27  1  0
 30 31  1  0
 31 29  2  0
 32 33  1  0
 33 34  2  0
 35 34  1  0
 36 35  2  0
 37 36  1  0
 37 32  2  0
 38 35  1  0
 38 39  1  0
 39 44  2  0
 39 40  1  0
 40 41  2  0
 41 42  1  0
 42 46  1  0
 43 42  2  0
 44 43  1  0
 45 44  1  0
 47 48  1  0
 48 51  1  0
 48 50  1  0
 49 47  2  0
 52 53  1  0
 52 27  1  0
 54 52  1  0
 55  6  1  0
 55 56  1  0
 57 55  1  0
 58  5  1  0
 59 58  1  0
 60 62  1  0
 60 59  1  0
 61 72  2  0
 62 67  1  0
 63 71  1  0
 63 73  1  0
 64 66  1  0
 64 70  1  0
 65 71  1  0
 66 65  1  0
 67 66  2  0
 68 62  2  0
 68 69  1  0
 69 64  2  0
 70 63  1  0
 71 61  1  0
 73 75  2  0
 74 73  1  0
 76 74  1  0
 77 86  2  0
 77 82  1  0
 78 74  1  0
 78 82  1  0
 79 78  1  0
 80 81  1  0
 80 79  1  0
 81 77  1  0
 82 83  2  0
 83 84  1  0
 85 84  2  0
 86 85  1  0
 87 61  1  0
 87 88  1  0
 87 92  1  0
 88 91  1  1
 88 89  1  0
 90 88  1  0
 92 95  1  0
 93 92  1  0
 93 97  1  0
 94 93  2  0
 97 96  1  0
 97 99  1  0
 99 98  1  0
 99100  1  0
M  ISO  4  17 100  25 100  59 101  60 101
M  END
>  <TORSDO>  (5) 
F 26

>  <SCORE>  (5) 
-7.700

>  <name>  (5) 
4

>  <ligand_id>  (5) 
4

>  <original_smiles>  (5) 
[H]c1c([H])c([H])c2c(c1[H])C([H])([H])C([H])([H])C([H])([H])C2([H])N([H])C(=O)C1([H])N(C(=O)C([H])(N([H])C(=O)C([H])(N([H])C([H])([H])[H])C([H])([H])[H])C(C([H])([H])[H])(C([H])([H])[H])C([H])([H])[H])C([H])([H])c2c([H])c(OC([H])([H])C([H])([H])c3c([H])c(C(=O)N([H])C([H])([H])C([H])([H])C([H])([H])C([H])([H])C([H])([H])C([H])([H])N([H])C(=O)N4C([H])([H])C([H])([H])C([H])([H])C([H])(n5nc(-c6c([H])c([H])c(Oc7c([H])c([H])c(F)c([H])c7F)c([H])c6[H])c(C(=O)N([H])[H])c5N([H])[H])C4([H])[H])c([H])c([H])c3N([H])[H])c([H])c([H])c2C1([H])[H]

>  <smiles>  (5) 
[H]c1c([H])c([H])c2c(c1[H])C([H])([H])C([H])([H])C([H])([H])C2([H])N([H])C(=O)C1([H])N(C(=O)C([H])(N([H])C(=O)C([H])(N([H])C([H])([H])[H])C([H])([H])[H])C(C([H])([H])[H])(C([H])([H])[H])C([H])([H])[H])C([H])([H])c2c([H])c(OC([H])([H])C([H])([H])c3c([H])c(C(=O)N([H])C([H])([H])C([H])([H])C([H])([H])C([H])([H])C([H])([H])C([H])([H])N([H])C(=O)N4C([H])([H])C([H])([H])C([H])([H])C([H])(n5nc(-c6c([H])c([H])c(Oc7c([H])c([H])c(F)c([H])c7F)c([H])c6[H])c(C(=O)N([H])[H])c5N([H])[H])C4([H])[H])c([H])c([H])c3N([H])[H])c([H])c([H])c2C1([H])[H]

$$$$
5:0:0
     RDKit          3D

 99107  0  0  1  0  0  0  0  0999 V2000
  -26.7340  -26.7240   25.0130 C   0  0  0  0  0  3  0  0  0  0  0  0
  -27.2880  -26.5560   23.7300 C   0  0  0  0  0  3  0  0  0  0  0  0
  -27.2590  -26.0170   26.1090 C   0  0  0  0  0  3  0  0  0  0  0  0
  -28.8780  -24.9450   24.6370 C   0  0  0  0  0  3  0  0  0  0  0  0
  -28.3730  -25.6740   23.5310 C   0  0  0  0  0  0  0  0  0  0  0  0
  -28.3330  -25.1200   25.9340 C   0  0  0  0  0  0  0  0  0  0  0  0
  -28.9390  -25.4600   22.1660 C   0  0  0  0  0  0  0  0  0  0  0  0
  -29.2630  -24.3440   21.7450 O   0  0  0  0  0  0  0  0  0  0  0  0
  -29.1980  -26.7040   21.2950 C   0  0  0  0  0  2  0  0  0  0  0  0
  -28.3830  -26.6920   20.1130 O   0  0  0  0  0  0  0  0  0  0  0  0
  -24.6090  -31.8690   23.2110 C   0  0  0  0  0  0  0  0  0  0  0  0
  -27.2510  -27.4730   20.1240 C   0  0  0  0  0  0  0  0  0  0  0  0
  -23.3960  -30.4890   21.5500 C   0  0  0  0  0  3  0  0  0  0  0  0
  -24.8500  -28.9600   20.1160 C   0  0  0  0  0  0  0  0  0  0  0  0
  -25.9140  -30.8630   21.3450 C   0  0  0  0  0  2  0  0  0  0  0  0
  -26.0020  -29.4920   20.7080 C   0  0  0  0  0  0  0  0  0  0  0  0
  -27.2070  -28.7620   20.7050 C   0  0  0  0  0  3  0  0  0  0  0  0
  -26.0910  -26.9590   19.5090 C   0  0  0  0  0  3  0  0  0  0  0  0
  -24.8880  -27.6940   19.5060 C   0  0  0  0  0  3  0  0  0  0  0  0
  -23.6030  -29.8150   20.1650 C   0  0  0  0  0  2  0  0  0  0  0  0
  -24.6590  -31.0850   22.0980 N   0  0  0  0  0  0  0  0  0  0  0  0
  -23.5290  -32.1430   23.7510 O   0  0  0  0  0  0  0  0  0  0  0  0
  -22.7400  -29.4620   22.5010 C   0  0  0  0  0  0  0  0  0  0  0  0
  -21.4120  -29.3000   22.3760 N   0  0  0  0  0  0  0  0  0  0  0  0
  -23.4220  -28.8170   23.3010 O   0  0  0  0  0  0  0  0  0  0  0  0
  -20.9270  -29.8770   21.7030 H   0  0  0  0  0  0  0  0  0  0  0  0
  -18.0260  -28.1340   22.8500 C   0  0  0  0  0  0  0  0  0  0  0  0
  -20.5840  -28.3610   23.1330 C   0  0  0  0  0  3  0  0  0  0  0  0
  -20.6740  -26.9350   22.5410 C   0  0  0  0  0  2  0  0  0  0  0  0
  -19.5730  -26.6350   21.5190 C   0  0  0  0  0  2  0  0  0  0  0  0
  -18.1900  -26.7900   22.1600 C   0  0  0  0  0  2  0  0  0  0  0  0
  -19.1510  -28.8800   23.2910 C   0  0  0  0  0  0  0  0  0  0  0  0
  -18.9440  -30.1410   23.8920 C   0  0  0  0  0  3  0  0  0  0  0  0
  -17.6450  -30.6560   24.0550 C   0  0  0  0  0  3  0  0  0  0  0  0
  -16.5330  -29.9060   23.6310 C   0  0  0  0  0  3  0  0  0  0  0  0
  -16.7260  -28.6460   23.0350 C   0  0  0  0  0  3  0  0  0  0  0  0
  -25.9010  -32.4830   23.8420 C   0  0  0  0  0  3  0  0  0  0  0  0
  -26.4460  -31.6550   25.0710 C   0  0  1  0  0  0  0  0  0  0  0  0
  -25.3740  -31.3530   26.1450 C   0  0  0  0  0  1  0  0  0  0  0  0
  -27.0340  -30.3050   24.5950 C   0  0  0  0  0  1  0  0  0  0  0  0
  -27.6010  -32.4220   25.7570 C   0  0  0  0  0  1  0  0  0  0  0  0
  -25.5870  -33.8620   24.2380 N   0  0  0  0  0  0  0  0  0  0  0  0
  -25.9010  -34.9470   23.5160 C   0  0  0  0  0  0  0  0  0  0  0  0
  -26.5570  -34.8920   22.4720 O   0  0  0  0  0  0  0  0  0  0  0  0
  -25.0030  -33.9780   25.0540 H   0  0  0  0  0  0  0  0  0  0  0  0
  -24.1480  -36.7320   23.2630 C   0  0  0  0  0  1  0  0  0  0  0  0
  -25.4090  -36.3110   24.0340 C   0  0  0  0  0  3  0  0  0  0  0  0
  -27.5590  -37.1780   24.8450 C   0  0  0  0  0  1  0  0  0  0  0  0
  -26.4280  -37.3790   23.9420 N   0  0  0  0  0  0  0  0  0  0  0  0
  -26.0170  -38.2860   24.1480 H   0  0  0  0  0  0  0  0  0  0  0  0
  -28.8830  -24.4050   27.1720 C   0  0  0  0  0  2  0  0  0  0  0  0
  -30.2050  -22.5320   28.2600 C   0  0  0  0  0  1  0  0  0  0  0  0
  -29.6150  -23.0620   26.9400 C   0  0  0  0  0  3  0  0  0  0  0  0
  -28.7260  -21.9900   26.2660 C   0  0  0  0  0  2  0  0  0  0  0  0
  -29.5030  -21.1470   25.2410 C   0  0  0  0  0  2  0  0  0  0  0  0
  -28.6280  -20.1190   24.5060 C   0  0  0  0  0  2  0  0  0  0  0  0
  -29.3430  -19.5290   23.2800 C   0  0  0  0  0  2  0  0  0  0  0  0
  -28.5260  -18.4280   22.5800 C   0  0  0  0  0  2  0  0  0  0  0  0
  -29.0870  -17.9910   21.2100 C   0  0  0  0  0  2  0  0  0  0  0  0
  -30.5760  -17.5930   21.1970 C   0  0  0  0  0  2  0  0  0  0  0  0
  -30.9410  -16.3950   22.0940 C   0  0  0  0  0  2  0  0  0  0  0  0
  -30.7690  -14.3600   20.6750 C   0  0  0  0  0  0  0  0  0  0  0  0
  -30.4140  -12.2840   19.3930 C   0  0  0  0  0  2  0  0  0  0  0  0
  -29.4810  -12.5240   18.1910 C   0  0  0  0  0  2  0  0  0  0  0  0
  -28.0060  -12.3820   18.6100 C   0  0  0  0  0  2  0  0  0  0  0  0
  -27.6660  -13.2030   19.8810 C   0  0  0  0  0  3  0  0  0  0  0  0
  -28.7040  -12.9430   20.9950 C   0  0  0  0  0  2  0  0  0  0  0  0
  -30.0480  -13.2300   20.4570 N   0  0  0  0  0  0  0  0  0  0  0  0
  -31.7960  -14.6410   20.0490 O   0  0  0  0  0  0  0  0  0  0  0  0
  -30.3110  -15.1530   21.6500 N   0  0  0  0  0  0  0  0  0  0  0  0
  -29.4790  -14.8500   22.1340 H   0  0  0  0  0  0  0  0  0  0  0  0
  -25.2600  -13.8160   20.5670 C   0  0  0  0  0  0  0  0  0  0  0  0
  -24.1850  -13.0450   20.9160 C   0  0  0  0  0  0  0  0  0  0  0  0
  -24.6400  -11.6910   20.8730 C   0  0  0  0  0  0  0  0  0  0  0  0
  -26.3050  -12.9330   20.3400 N   0  0  0  0  0  0  0  0  0  0  0  0
  -25.9320  -11.6480   20.5760 N   0  0  0  0  0  0  0  0  0  0  0  0
  -23.9060  -10.4300   21.0400 C   0  0  0  0  0  0  0  0  0  0  0  0
  -24.3610   -9.4210   21.9180 C   0  0  0  0  0  3  0  0  0  0  0  0
  -23.6290   -8.2250   22.0760 C   0  0  0  0  0  3  0  0  0  0  0  0
  -22.4270   -8.0280   21.3540 C   0  0  0  0  0  0  0  0  0  0  0  0
  -21.9910   -9.0260   20.4650 C   0  0  0  0  0  3  0  0  0  0  0  0
  -22.7230  -10.2140   20.3060 C   0  0  0  0  0  3  0  0  0  0  0  0
  -21.6640   -6.8880   21.4240 O   0  0  0  0  0  0  0  0  0  0  0  0
  -21.6850   -6.0740   22.5280 C   0  0  0  0  0  0  0  0  0  0  0  0
  -21.4010   -6.5640   23.8210 C   0  0  0  0  0  3  0  0  0  0  0  0
  -21.3660   -5.6790   24.9180 C   0  0  0  0  0  3  0  0  0  0  0  0
  -21.6040   -4.3050   24.7230 C   0  0  0  0  0  0  0  0  0  0  0  0
  -21.8820   -3.8150   23.4350 C   0  0  0  0  0  3  0  0  0  0  0  0
  -21.9190   -4.6970   22.3400 C   0  0  0  0  0  0  0  0  0  0  0  0
  -22.1660   -4.2150   21.0980 F   0  0  0  0  0  0  0  0  0  0  0  0
  -21.5630   -3.4540   25.7740 F   0  0  0  0  0  0  0  0  0  0  0  0
  -22.7870  -13.5240   21.1830 C   0  0  0  0  0  0  0  0  0  0  0  0
  -22.0510  -12.8240   22.0390 N   0  0  0  0  0  0  0  0  0  0  0  0
  -22.3560  -14.5560   20.6690 O   0  0  0  0  0  0  0  0  0  0  0  0
  -22.4120  -11.9890   22.4770 H   0  0  0  0  0  0  0  0  0  0  0  0
  -21.1140  -13.1270   22.2600 H   0  0  0  0  0  0  0  0  0  0  0  0
  -25.4350  -15.1880   20.4090 N   0  0  0  0  0  0  0  0  0  0  0  0
  -24.6730  -15.8480   20.5200 H   0  0  0  0  0  0  0  0  0  0  0  0
  -26.2980  -15.6250   20.1120 H   0  0  0  0  0  0  0  0  0  0  0  0
  1  3  1  0
  2  1  2  0
  4  6  1  0
  5  2  1  0
  5  4  2  0
  6  3  2  0
  6 51  1  0
  7  5  1  0
  8  7  2  0
  9  7  1  0
 10 12  1  0
 10  9  1  0
 11 22  2  0
 12 17  1  0
 13 21  1  0
 13 23  1  0
 14 20  1  0
 14 16  1  0
 15 21  1  0
 16 15  1  0
 17 16  2  0
 18 12  2  0
 19 18  1  0
 19 14  2  0
 20 13  1  0
 21 11  1  0
 23 25  2  0
 24 23  1  0
 26 24  1  0
 27 36  2  0
 27 32  1  0
 28 24  1  0
 28 32  1  0
 29 28  1  0
 30 31  1  0
 30 29  1  0
 31 27  1  0
 32 33  2  0
 33 34  1  0
 35 34  2  0
 36 35  1  0
 37 11  1  0
 37 42  1  0
 37 38  1  0
 38 41  1  1
 38 39  1  0
 40 38  1  0
 42 45  1  0
 43 47  1  0
 43 42  1  0
 44 43  2  0
 47 46  1  0
 49 47  1  0
 49 50  1  0
 49 48  1  0
 53 51  1  0
 53 52  1  0
 54 53  1  0
 55 54  1  0
 56 55  1  0
 57 56  1  0
 58 57  1  0
 59 58  1  0
 60 59  1  0
 60 61  1  0
 62 70  1  0
 63 68  1  0
 64 65  1  0
 64 63  1  0
 66 65  1  0
 66 75  1  0
 66 67  1  0
 68 62  1  0
 68 67  1  0
 69 62  2  0
 70 61  1  0
 70 71  1  0
 72 73  2  0
 73 92  1  0
 74 73  1  0
 74 77  1  0
 75 72  1  0
 75 76  1  0
 76 74  2  0
 77 78  1  0
 78 79  2  0
 80 83  1  0
 80 79  1  0
 81 80  2  0
 82 81  1  0
 82 77  2  0
 83 84  1  0
 84 85  1  0
 85 86  2  0
 87 86  1  0
 87 91  1  0
 88 87  2  0
 89 84  2  0
 89 88  1  0
 90 89  1  0
 92 93  1  0
 93 96  1  0
 93 95  1  0
 94 92  2  0
 97 98  1  0
 97 72  1  0
 99 97  1  0
M  ISO  4   9 101  10 101  62 100  70 100
M  END
>  <TORSDO>  (6) 
F 28

>  <SCORE>  (6) 
18.076

>  <name>  (6) 
5

>  <ligand_id>  (6) 
5

>  <original_smiles>  (6) 
[H]c1c([H])c([H])c2c(c1[H])C([H])([H])C([H])([H])C([H])([H])C2([H])N([H])C(=O)C1([H])N(C(=O)C([H])(N([H])C(=O)C([H])(N([H])C([H])([H])[H])C([H])([H])[H])C(C([H])([H])[H])(C([H])([H])[H])C([H])([H])[H])C([H])([H])c2c([H])c(OC([H])([H])C(=O)c3c([H])c([H])c([H])c(C([H])([H])C([H])(C([H])([H])[H])C([H])([H])C([H])([H])C([H])([H])C([H])([H])C([H])([H])C([H])([H])C([H])([H])C([H])([H])N([H])C(=O)N4C([H])([H])C([H])([H])C([H])([H])C([H])(n5nc(-c6c([H])c([H])c(Oc7c([H])c([H])c(F)c([H])c7F)c([H])c6[H])c(C(=O)N([H])[H])c5N([H])[H])C4([H])[H])c3[H])c([H])c([H])c2C1([H])[H]

>  <smiles>  (6) 
[H]c1c([H])c([H])c2c(c1[H])C([H])([H])C([H])([H])C([H])([H])C2([H])N([H])C(=O)C1([H])N(C(=O)C([H])(N([H])C(=O)C([H])(N([H])C([H])([H])[H])C([H])([H])[H])C(C([H])([H])[H])(C([H])([H])[H])C([H])([H])[H])C([H])([H])c2c([H])c(OC([H])([H])C(=O)c3c([H])c([H])c([H])c(C([H])([H])C([H])(C([H])([H])[H])C([H])([H])C([H])([H])C([H])([H])C([H])([H])C([H])([H])C([H])([H])C([H])([H])C([H])([H])N([H])C(=O)N4C([H])([H])C([H])([H])C([H])([H])C([H])(n5nc(-c6c([H])c([H])c(Oc7c([H])c([H])c(F)c([H])c7F)c([H])c6[H])c(C(=O)N([H])[H])c5N([H])[H])C4([H])[H])c3[H])c([H])c([H])c2C1([H])[H]

$$$$
6:0:0
     RDKit          3D

 89 96  0  0  1  0  0  0  0  0999 V2000
  -28.8090  -22.9630   19.7550 N   0  0  0  0  0  4  0  0  0  0  0  0
  -27.9360  -22.6970   19.3250 H   0  0  0  0  0  0  0  0  0  0  0  0
  -29.4910  -23.0500   19.0180 H   0  0  0  0  0  0  0  0  0  0  0  0
  -29.2590  -21.8660   20.6560 C   0  0  0  0  0  2  0  0  0  0  0  0
  -29.2120  -20.4490   20.0140 C   0  0  0  0  0  2  0  0  0  0  0  0
  -29.8550  -19.3470   20.9000 C   0  0  0  0  0  2  0  0  0  0  0  0
  -29.6250  -17.8840   20.4320 C   0  0  0  0  0  2  0  0  0  0  0  0
  -30.3840  -16.8410   21.2990 C   0  0  0  0  0  2  0  0  0  0  0  0
  -30.6620  -14.4670   20.4540 C   0  0  0  0  0  0  0  0  0  0  0  0
  -30.3600  -12.3190   19.2760 C   0  0  0  0  0  2  0  0  0  0  0  0
  -29.3980  -12.5260   18.0870 C   0  0  0  0  0  2  0  0  0  0  0  0
  -27.9290  -12.3930   18.5360 C   0  0  0  0  0  2  0  0  0  0  0  0
  -27.6130  -13.2230   19.8080 C   0  0  0  0  0  3  0  0  0  0  0  0
  -28.6780  -12.9770   20.8990 C   0  0  0  0  0  2  0  0  0  0  0  0
  -29.9950  -13.2900   20.3180 N   0  0  0  0  0  0  0  0  0  0  0  0
  -31.7760  -14.6720   19.9610 O   0  0  0  0  0  0  0  0  0  0  0  0
  -29.9660  -15.4500   21.0570 N   0  0  0  0  0  0  0  0  0  0  0  0
  -29.0560  -15.1850   21.4040 H   0  0  0  0  0  0  0  0  0  0  0  0
  -25.2240  -13.8430   20.5430 C   0  0  0  0  0  0  0  0  0  0  0  0
  -24.1560  -13.0760   20.9210 C   0  0  0  0  0  0  0  0  0  0  0  0
  -24.6080  -11.7210   20.8790 C   0  0  0  0  0  0  0  0  0  0  0  0
  -26.2620  -12.9560   20.2990 N   0  0  0  0  0  0  0  0  0  0  0  0
  -25.8950  -11.6750   20.5560 N   0  0  0  0  0  0  0  0  0  0  0  0
  -23.8770  -10.4620   21.0710 C   0  0  0  0  0  0  0  0  0  0  0  0
  -24.3330   -9.4740   21.9720 C   0  0  0  0  0  3  0  0  0  0  0  0
  -23.6040   -8.2790   22.1520 C   0  0  0  0  0  3  0  0  0  0  0  0
  -22.4040   -8.0650   21.4310 C   0  0  0  0  0  0  0  0  0  0  0  0
  -21.9670   -9.0420   20.5200 C   0  0  0  0  0  3  0  0  0  0  0  0
  -22.6970  -10.2280   20.3370 C   0  0  0  0  0  3  0  0  0  0  0  0
  -21.6440   -6.9250   21.5230 O   0  0  0  0  0  0  0  0  0  0  0  0
  -21.6460   -6.1470   22.6530 C   0  0  0  0  0  0  0  0  0  0  0  0
  -21.3110   -6.6710   23.9200 C   0  0  0  0  0  3  0  0  0  0  0  0
  -21.2590   -5.8210   25.0430 C   0  0  0  0  0  3  0  0  0  0  0  0
  -21.5320   -4.4480   24.9010 C   0  0  0  0  0  0  0  0  0  0  0  0
  -21.8600   -3.9220   23.6390 C   0  0  0  0  0  3  0  0  0  0  0  0
  -21.9140   -4.7690   22.5170 C   0  0  0  0  0  0  0  0  0  0  0  0
  -22.2110   -4.2540   21.3000 F   0  0  0  0  0  0  0  0  0  0  0  0
  -21.4740   -3.6290   25.9770 F   0  0  0  0  0  0  0  0  0  0  0  0
  -22.7630  -13.5590   21.2110 C   0  0  0  0  0  0  0  0  0  0  0  0
  -22.0420  -12.8620   22.0810 N   0  0  0  0  0  0  0  0  0  0  0  0
  -22.3250  -14.5890   20.7010 O   0  0  0  0  0  0  0  0  0  0  0  0
  -22.4100  -12.0280   22.5150 H   0  0  0  0  0  0  0  0  0  0  0  0
  -21.1090  -13.1670   22.3200 H   0  0  0  0  0  0  0  0  0  0  0  0
  -25.3970  -15.2130   20.3700 N   0  0  0  0  0  0  0  0  0  0  0  0
  -24.6380  -15.8750   20.4950 H   0  0  0  0  0  0  0  0  0  0  0  0
  -26.2480  -15.6460   20.0310 H   0  0  0  0  0  0  0  0  0  0  0  0
  -28.6310  -24.2910   20.4190 C   0  0  0  0  0  2  0  0  0  0  0  0
  -28.6020  -25.4860   19.4320 C   0  0  0  0  0  2  0  0  0  0  0  0
  -28.4380  -26.7460   20.1130 O   0  0  0  0  0  0  0  0  0  0  0  0
  -24.6050  -31.8860   23.2280 C   0  0  0  0  0  0  0  0  0  0  0  0
  -27.2280  -27.4220   20.1280 C   0  0  0  0  0  0  0  0  0  0  0  0
  -23.3840  -30.4790   21.6030 C   0  0  0  0  0  3  0  0  0  0  0  0
  -24.8250  -28.9320   20.1760 C   0  0  0  0  0  0  0  0  0  0  0  0
  -25.9110  -30.8310   21.3830 C   0  0  0  0  0  2  0  0  0  0  0  0
  -25.9880  -29.4560   20.7480 C   0  0  0  0  0  0  0  0  0  0  0  0
  -27.1890  -28.7070   20.7220 C   0  0  0  0  0  3  0  0  0  0  0  0
  -26.0310  -26.9030   19.5780 C   0  0  0  0  0  3  0  0  0  0  0  0
  -24.8400  -27.6530   19.5950 C   0  0  0  0  0  3  0  0  0  0  0  0
  -23.5830  -29.7930   20.2260 C   0  0  0  0  0  2  0  0  0  0  0  0
  -24.6530  -31.0800   22.1300 N   0  0  0  0  0  0  0  0  0  0  0  0
  -23.5270  -32.1610   23.7750 O   0  0  0  0  0  0  0  0  0  0  0  0
  -22.7420  -29.4610   22.5720 C   0  0  0  0  0  0  0  0  0  0  0  0
  -21.4170  -29.2760   22.4540 N   0  0  0  0  0  0  0  0  0  0  0  0
  -23.4320  -28.8400   23.3850 O   0  0  0  0  0  0  0  0  0  0  0  0
  -20.9210  -29.8280   21.7680 H   0  0  0  0  0  0  0  0  0  0  0  0
  -18.0480  -28.0720   22.9670 C   0  0  0  0  0  0  0  0  0  0  0  0
  -20.6060  -28.3410   23.2330 C   0  0  0  0  0  3  0  0  0  0  0  0
  -20.7130  -26.9060   22.6660 C   0  0  0  0  0  2  0  0  0  0  0  0
  -19.6100  -26.5730   21.6560 C   0  0  0  0  0  2  0  0  0  0  0  0
  -18.2300  -26.7190   22.3010 C   0  0  0  0  0  2  0  0  0  0  0  0
  -19.1660  -28.8410   23.3890 C   0  0  0  0  0  0  0  0  0  0  0  0
  -18.9440  -30.1090   23.9700 C   0  0  0  0  0  3  0  0  0  0  0  0
  -17.6390  -30.6090   24.1320 C   0  0  0  0  0  3  0  0  0  0  0  0
  -16.5360  -29.8370   23.7270 C   0  0  0  0  0  3  0  0  0  0  0  0
  -16.7420  -28.5700   23.1500 C   0  0  0  0  0  3  0  0  0  0  0  0
  -25.8950  -32.5190   23.8350 C   0  0  0  0  0  3  0  0  0  0  0  0
  -26.4310  -31.7460   25.1020 C   0  0  1  0  0  0  0  0  0  0  0  0
  -25.3520  -31.5030   26.1830 C   0  0  0  0  0  1  0  0  0  0  0  0
  -27.0130  -30.3710   24.6970 C   0  0  0  0  0  1  0  0  0  0  0  0
  -27.5890  -32.5420   25.7510 C   0  0  0  0  0  1  0  0  0  0  0  0
  -25.5850  -33.9160   24.1710 N   0  0  0  0  0  0  0  0  0  0  0  0
  -25.9070  -34.9690   23.4080 C   0  0  0  0  0  0  0  0  0  0  0  0
  -26.5670  -34.8700   22.3710 O   0  0  0  0  0  0  0  0  0  0  0  0
  -24.9950  -34.0670   24.9760 H   0  0  0  0  0  0  0  0  0  0  0  0
  -24.1640  -36.7520   23.0810 C   0  0  0  0  0  1  0  0  0  0  0  0
  -25.4190  -36.3550   23.8730 C   0  0  0  0  0  3  0  0  0  0  0  0
  -27.5650  -37.2470   24.6680 C   0  0  0  0  0  1  0  0  0  0  0  0
  -26.4460  -37.4130   23.7450 N   0  0  0  0  0  0  0  0  0  0  0  0
  -26.0380  -38.3300   23.9040 H   0  0  0  0  0  0  0  0  0  0  0  0
  1 47  1  0
  1  4  1  0
  2  1  1  0
  3  1  1  0
  5  4  1  0
  5  6  1  0
  7  6  1  0
  7  8  1  0
  9 17  1  0
 10 15  1  0
 11 12  1  0
 11 10  1  0
 13 12  1  0
 13 22  1  0
 13 14  1  0
 15  9  1  0
 15 14  1  0
 16  9  2  0
 17  8  1  0
 17 18  1  0
 19 20  2  0
 20 39  1  0
 21 20  1  0
 21 24  1  0
 22 19  1  0
 22 23  1  0
 23 21  2  0
 24 25  1  0
 25 26  2  0
 27 30  1  0
 27 26  1  0
 28 27  2  0
 29 28  1  0
 29 24  2  0
 30 31  1  0
 31 32  1  0
 32 33  2  0
 34 33  1  0
 34 38  1  0
 35 34  2  0
 36 31  2  0
 36 35  1  0
 37 36  1  0
 39 40  1  0
 40 43  1  0
 40 42  1  0
 41 39  2  0
 44 45  1  0
 44 19  1  0
 46 44  1  0
 48 49  1  0
 48 47  1  0
 49 51  1  0
 50 61  2  0
 51 56  1  0
 52 60  1  0
 52 62  1  0
 53 59  1  0
 53 55  1  0
 54 60  1  0
 55 54  1  0
 56 55  2  0
 57 58  1  0
 57 51  2  0
 58 53  2  0
 59 52  1  0
 60 50  1  0
 62 64  2  0
 63 62  1  0
 65 63  1  0
 66 75  2  0
 66 71  1  0
 67 63  1  0
 67 71  1  0
 68 67  1  0
 69 70  1  0
 69 68  1  0
 70 66  1  0
 71 72  2  0
 72 73  1  0
 74 73  2  0
 75 74  1  0
 76 50  1  0
 76 81  1  0
 76 77  1  0
 77 80  1  1
 77 78  1  0
 79 77  1  0
 81 84  1  0
 82 86  1  0
 82 81  1  0
 83 82  2  0
 86 85  1  0
 88 86  1  0
 88 89  1  0
 88 87  1  0
M  ISO  4   9 100  17 100  48 101  49 101
M  END
>  <TORSDO>  (7) 
F 23

>  <SCORE>  (7) 
-12.591

>  <name>  (7) 
6

>  <ligand_id>  (7) 
6

>  <original_smiles>  (7) 
[H]c1c([H])c([H])c2c(c1[H])C([H])([H])C([H])([H])C([H])([H])C2([H])N([H])C(=O)C1([H])N(C(=O)C([H])(N([H])C(=O)C([H])(N([H])C([H])([H])[H])C([H])([H])[H])C(C([H])([H])[H])(C([H])([H])[H])C([H])([H])[H])C([H])([H])c2c([H])c(OC([H])([H])C([H])([H])[N+]([H])([H])C([H])([H])C([H])([H])C([H])([H])C([H])([H])C([H])([H])N([H])C(=O)N3C([H])([H])C([H])([H])C([H])([H])C([H])(n4nc(-c5c([H])c([H])c(Oc6c([H])c([H])c(F)c([H])c6F)c([H])c5[H])c(C(=O)N([H])[H])c4N([H])[H])C3([H])[H])c([H])c([H])c2C1([H])[H]

>  <smiles>  (7) 
[H]c1c([H])c([H])c2c(c1[H])C([H])([H])C([H])([H])C([H])([H])C2([H])N([H])C(=O)C1([H])N(C(=O)C([H])(N([H])C(=O)C([H])(N([H])C([H])([H])[H])C([H])([H])[H])C(C([H])([H])[H])(C([H])([H])[H])C([H])([H])[H])C([H])([H])c2c([H])c(OC([H])([H])C([H])([H])[N+]([H])([H])C([H])([H])C([H])([H])C([H])([H])C([H])([H])C([H])([H])N([H])C(=O)N3C([H])([H])C([H])([H])C([H])([H])C([H])(n4nc(-c5c([H])c([H])c(Oc6c([H])c([H])c(F)c([H])c6F)c([H])c5[H])c(C(=O)N([H])[H])c4N([H])[H])C3([H])[H])c([H])c([H])c2C1([H])[H]

$$$$
7:0:0
     RDKit          3D

101108  0  0  1  0  0  0  0  0999 V2000
  -29.6330  -23.6050   23.4320 C   0  0  0  0  0  3  0  0  0  0  0  0
  -29.3120  -24.0530   22.0550 N   0  0  0  0  0  4  0  0  0  0  0  0
  -29.9050  -23.5600   21.4060 H   0  0  0  0  0  0  0  0  0  0  0  0
  -28.3590  -23.7880   21.8560 H   0  0  0  0  0  0  0  0  0  0  0  0
  -29.4370  -25.5160   21.8320 C   0  0  0  0  0  2  0  0  0  0  0  0
  -29.2650  -25.8970   20.3520 C   0  0  0  0  0  2  0  0  0  0  0  0
  -29.1820  -27.3200   20.2540 O   0  0  0  0  0  0  0  0  0  0  0  0
  -24.7010  -31.9110   23.3110 C   0  0  0  0  0  0  0  0  0  0  0  0
  -27.9240  -27.8740   20.2510 C   0  0  0  0  0  0  0  0  0  0  0  0
  -23.7220  -30.4530   21.5680 C   0  0  0  0  0  3  0  0  0  0  0  0
  -25.3880  -29.1110   20.1820 C   0  0  0  0  0  0  0  0  0  0  0  0
  -26.2030  -31.0680   21.5120 C   0  0  0  0  0  2  0  0  0  0  0  0
  -26.4540  -29.7350   20.8430 C   0  0  0  0  0  0  0  0  0  0  0  0
  -27.7250  -29.1230   20.8740 C   0  0  0  0  0  3  0  0  0  0  0  0
  -26.8420  -27.2550   19.5870 C   0  0  0  0  0  3  0  0  0  0  0  0
  -25.5750  -27.8670   19.5540 C   0  0  0  0  0  3  0  0  0  0  0  0
  -24.0660  -29.8420   20.1830 C   0  0  0  0  0  2  0  0  0  0  0  0
  -24.8890  -31.1590   22.1900 N   0  0  0  0  0  0  0  0  0  0  0  0
  -23.5730  -32.0580   23.8010 O   0  0  0  0  0  0  0  0  0  0  0  0
  -23.1280  -29.3430   22.4630 C   0  0  0  0  0  0  0  0  0  0  0  0
  -21.8370  -29.0360   22.2560 N   0  0  0  0  0  0  0  0  0  0  0  0
  -23.8280  -28.7600   23.2960 O   0  0  0  0  0  0  0  0  0  0  0  0
  -21.3330  -29.5660   21.5590 H   0  0  0  0  0  0  0  0  0  0  0  0
  -18.5680  -27.5290   22.5500 C   0  0  0  0  0  0  0  0  0  0  0  0
  -21.0760  -27.9980   22.9520 C   0  0  0  0  0  3  0  0  0  0  0  0
  -21.3330  -26.6070   22.3280 C   0  0  0  0  0  2  0  0  0  0  0  0
  -20.3090  -26.2320   21.2510 C   0  0  0  0  0  2  0  0  0  0  0  0
  -18.8920  -26.2290   21.8350 C   0  0  0  0  0  2  0  0  0  0  0  0
  -19.5930  -28.3680   23.0590 C   0  0  0  0  0  0  0  0  0  0  0  0
  -19.2380  -29.5830   23.6840 C   0  0  0  0  0  3  0  0  0  0  0  0
  -17.8880  -29.9610   23.8070 C   0  0  0  0  0  3  0  0  0  0  0  0
  -16.8750  -29.1200   23.3150 C   0  0  0  0  0  3  0  0  0  0  0  0
  -17.2150  -27.9070   22.6920 C   0  0  0  0  0  3  0  0  0  0  0  0
  -25.8890  -32.6380   24.0160 C   0  0  0  0  0  3  0  0  0  0  0  0
  -25.4830  -34.0310   24.2420 N   0  0  0  0  0  0  0  0  0  0  0  0
  -25.8320  -35.0600   23.4580 C   0  0  0  0  0  0  0  0  0  0  0  0
  -26.6000  -34.9420   22.4990 O   0  0  0  0  0  0  0  0  0  0  0  0
  -24.8050  -34.1920   24.9730 H   0  0  0  0  0  0  0  0  0  0  0  0
  -24.0520  -36.7290   22.8520 C   0  0  0  0  0  1  0  0  0  0  0  0
  -25.2330  -36.4400   23.7910 C   0  0  0  0  0  3  0  0  0  0  0  0
  -27.2450  -37.4780   24.7410 C   0  0  0  0  0  1  0  0  0  0  0  0
  -26.2150  -37.5430   23.7070 N   0  0  0  0  0  0  0  0  0  0  0  0
  -25.7530  -38.4450   23.7750 H   0  0  0  0  0  0  0  0  0  0  0  0
  -26.3220  -31.9550   25.3730 C   0  0  1  0  0  0  0  0  0  0  0  0
  -25.1390  -31.6650   26.3270 C   0  0  0  0  0  1  0  0  0  0  0  0
  -27.0500  -30.6190   25.1010 C   0  0  0  0  0  1  0  0  0  0  0  0
  -27.3260  -32.8640   26.1190 C   0  0  0  0  0  1  0  0  0  0  0  0
  -28.7350  -22.4090   23.8350 C   0  0  0  0  0  2  0  0  0  0  0  0
  -29.2150  -21.6320   25.0760 C   0  0  0  0  0  2  0  0  0  0  0  0
  -28.5380  -20.2570   25.1900 C   0  0  0  0  0  2  0  0  0  0  0  0
  -28.9910  -19.4690   26.4290 C   0  0  0  0  0  2  0  0  0  0  0  0
  -28.2840  -18.1050   26.5460 C   0  0  0  0  0  2  0  0  0  0  0  0
  -28.6780  -17.3780   27.7640 N   0  0  0  0  0  4  0  0  0  0  0  0
  -29.6660  -17.1960   27.7640 H   0  0  0  0  0  0  0  0  0  0  0  0
  -28.1970  -16.4970   27.8030 H   0  0  0  0  0  0  0  0  0  0  0  0
  -28.4420  -17.9010   28.5880 H   0  0  0  0  0  0  0  0  0  0  0  0
  -31.1630  -23.3520   23.5950 C   0  0  0  0  0  2  0  0  0  0  0  0
  -31.6520  -21.8840   23.5810 C   0  0  0  0  0  2  0  0  0  0  0  0
  -31.3620  -21.0920   22.2960 C   0  0  0  0  0  2  0  0  0  0  0  0
  -31.5170  -19.5780   22.5130 C   0  0  0  0  0  2  0  0  0  0  0  0
  -30.9870  -18.7690   21.3240 C   0  0  0  0  0  2  0  0  0  0  0  0
  -30.9190  -17.2600   21.6010 C   0  0  0  0  0  2  0  0  0  0  0  0
  -30.1800  -16.5370   20.4700 C   0  0  0  0  0  2  0  0  0  0  0  0
  -30.6570  -14.1370   20.0900 C   0  0  0  0  0  0  0  0  0  0  0  0
  -30.2160  -12.0700   18.8430 C   0  0  0  0  0  2  0  0  0  0  0  0
  -29.1950  -12.3960   17.7310 C   0  0  0  0  0  2  0  0  0  0  0  0
  -27.7500  -12.2850   18.2590 C   0  0  0  0  0  2  0  0  0  0  0  0
  -27.5380  -13.0490   19.5930 C   0  0  0  0  0  3  0  0  0  0  0  0
  -28.6570  -12.6980   20.6020 C   0  0  0  0  0  2  0  0  0  0  0  0
  -29.9550  -12.9830   19.9640 N   0  0  0  0  0  0  0  0  0  0  0  0
  -31.7260  -14.3560   19.5120 O   0  0  0  0  0  0  0  0  0  0  0  0
  -30.0020  -15.1130   20.7300 N   0  0  0  0  0  0  0  0  0  0  0  0
  -29.1510  -14.8360   21.1970 H   0  0  0  0  0  0  0  0  0  0  0  0
  -25.1970  -13.6940   20.4560 C   0  0  0  0  0  0  0  0  0  0  0  0
  -24.1370  -12.9340   20.8770 C   0  0  0  0  0  0  0  0  0  0  0  0
  -24.5670  -11.5750   20.7890 C   0  0  0  0  0  0  0  0  0  0  0  0
  -26.2090  -12.7960   20.1450 N   0  0  0  0  0  0  0  0  0  0  0  0
  -25.8340  -11.5170   20.3980 N   0  0  0  0  0  0  0  0  0  0  0  0
  -23.8290  -10.3230   21.0010 C   0  0  0  0  0  0  0  0  0  0  0  0
  -24.3080   -9.3200   21.8720 C   0  0  0  0  0  3  0  0  0  0  0  0
  -23.5720   -8.1330   22.0730 C   0  0  0  0  0  3  0  0  0  0  0  0
  -22.3400   -7.9410   21.4020 C   0  0  0  0  0  0  0  0  0  0  0  0
  -21.8780   -8.9320   20.5190 C   0  0  0  0  0  3  0  0  0  0  0  0
  -22.6160  -10.1110   20.3170 C   0  0  0  0  0  3  0  0  0  0  0  0
  -21.5700   -6.8070   21.5140 O   0  0  0  0  0  0  0  0  0  0  0  0
  -21.6040   -6.0240   22.6390 C   0  0  0  0  0  0  0  0  0  0  0  0
  -21.3010   -6.5410   23.9170 C   0  0  0  0  0  3  0  0  0  0  0  0
  -21.2810   -5.6850   25.0360 C   0  0  0  0  0  3  0  0  0  0  0  0
  -21.5520   -4.3120   24.8790 C   0  0  0  0  0  0  0  0  0  0  0  0
  -21.8490   -3.7950   23.6050 C   0  0  0  0  0  3  0  0  0  0  0  0
  -21.8730   -4.6480   22.4890 C   0  0  0  0  0  0  0  0  0  0  0  0
  -22.1380   -4.1400   21.2600 F   0  0  0  0  0  0  0  0  0  0  0  0
  -21.5250   -3.4880   25.9510 F   0  0  0  0  0  0  0  0  0  0  0  0
  -22.7710  -13.4320   21.2510 C   0  0  0  0  0  0  0  0  0  0  0  0
  -22.0920  -12.7360   22.1560 N   0  0  0  0  0  0  0  0  0  0  0  0
  -22.3170  -14.4720   20.7760 O   0  0  0  0  0  0  0  0  0  0  0  0
  -22.4750  -11.8930   22.5600 H   0  0  0  0  0  0  0  0  0  0  0  0
  -21.1780  -13.0510   22.4500 H   0  0  0  0  0  0  0  0  0  0  0  0
  -25.3790  -15.0630   20.2960 N   0  0  0  0  0  0  0  0  0  0  0  0
  -24.6350  -15.7310   20.4620 H   0  0  0  0  0  0  0  0  0  0  0  0
  -26.2180  -15.4910   19.9220 H   0  0  0  0  0  0  0  0  0  0  0  0
  1 57  1  0
  1 48  1  0
  2  1  1  0
  3  2  1  0
  4  2  1  0
  5  2  1  0
  6  5  1  0
  7  6  1  0
  8 19  2  0
  9  7  1  0
  9 14  1  0
 10 18  1  0
 10 20  1  0
 11 17  1  0
 11 13  1  0
 12 18  1  0
 13 14  2  0
 13 12  1  0
 15  9  2  0
 16 15  1  0
 16 11  2  0
 17 10  1  0
 18  8  1  0
 20 22  2  0
 21 20  1  0
 23 21  1  0
 24 33  2  0
 24 29  1  0
 25 21  1  0
 25 29  1  0
 26 25  1  0
 27 28  1  0
 27 26  1  0
 28 24  1  0
 29 30  2  0
 30 31  1  0
 32 31  2  0
 33 32  1  0
 34  8  1  0
 34 35  1  0
 34 44  1  0
 35 38  1  0
 36 40  1  0
 36 35  1  0
 37 36  2  0
 40 39  1  0
 42 43  1  0
 42 40  1  0
 42 41  1  0
 44 47  1  1
 44 45  1  0
 46 44  1  0
 48 49  1  0
 49 50  1  0
 50 51  1  0
 51 52  1  0
 52 53  1  0
 53 55  1  0
 53 56  1  0
 54 53  1  0
 58 57  1  0
 59 60  1  0
 59 58  1  0
 61 62  1  0
 61 60  1  0
 63 72  1  0
 63 62  1  0
 64 72  1  0
 65 70  1  0
 66 67  1  0
 66 65  1  0
 68 67  1  0
 68 77  1  0
 68 69  1  0
 70 64  1  0
 70 69  1  0
 71 64  2  0
 72 73  1  0
 74 75  2  0
 75 94  1  0
 76 75  1  0
 76 79  1  0
 77 78  1  0
 77 74  1  0
 78 76  2  0
 79 80  1  0
 80 81  2  0
 82 85  1  0
 82 81  1  0
 83 82  2  0
 84 83  1  0
 84 79  2  0
 85 86  1  0
 86 87  1  0
 87 88  2  0
 89 88  1  0
 89 93  1  0
 90 89  2  0
 91 86  2  0
 91 90  1  0
 92 91  1  0
 94 95  1  0
 95 98  1  0
 95 97  1  0
 96 94  2  0
 99 74  1  0
 99100  1  0
101 99  1  0
M  ISO  4   6 101   7 101  64 100  72 100
M  END
>  <TORSDO>  (8) 
F 32

>  <SCORE>  (8) 
1.288

>  <name>  (8) 
7

>  <ligand_id>  (8) 
7

>  <original_smiles>  (8) 
[H]c1c([H])c([H])c2c(c1[H])C([H])([H])C([H])([H])C([H])([H])C2([H])N([H])C(=O)C1([H])N(C(=O)C([H])(N([H])C(=O)C([H])(N([H])C([H])([H])[H])C([H])([H])[H])C(C([H])([H])[H])(C([H])([H])[H])C([H])([H])[H])C([H])([H])c2c([H])c(OC([H])([H])C([H])([H])[N+]([H])([H])C([H])(C([H])([H])C([H])([H])C([H])([H])C([H])([H])C([H])([H])C([H])([H])C([H])([H])N([H])C(=O)N3C([H])([H])C([H])([H])C([H])([H])C([H])(n4nc(-c5c([H])c([H])c(Oc6c([H])c([H])c(F)c([H])c6F)c([H])c5[H])c(C(=O)N([H])[H])c4N([H])[H])C3([H])[H])C([H])([H])C([H])([H])C([H])([H])C([H])([H])C([H])([H])[N+]([H])([H])[H])c([H])c([H])c2C1([H])[H]

>  <smiles>  (8) 
[H]c1c([H])c([H])c2c(c1[H])C([H])([H])C([H])([H])C([H])([H])C2([H])N([H])C(=O)C1([H])N(C(=O)C([H])(N([H])C(=O)C([H])(N([H])C([H])([H])[H])C([H])([H])[H])C(C([H])([H])[H])(C([H])([H])[H])C([H])([H])[H])C([H])([H])c2c([H])c(OC([H])([H])C([H])([H])[N+]([H])([H])C([H])(C([H])([H])C([H])([H])C([H])([H])C([H])([H])C([H])([H])C([H])([H])C([H])([H])N([H])C(=O)N3C([H])([H])C([H])([H])C([H])([H])C([H])(n4nc(-c5c([H])c([H])c(Oc6c([H])c([H])c(F)c([H])c6F)c([H])c5[H])c(C(=O)N([H])[H])c4N([H])[H])C3([H])[H])C([H])([H])C([H])([H])C([H])([H])C([H])([H])C([H])([H])[N+]([H])([H])[H])c([H])c([H])c2C1([H])[H]

$$$$
8:0:0
     RDKit          3D

 94101  0  0  1  0  0  0  0  0999 V2000
  -27.7300  -24.2300   23.2850 C   0  0  0  0  0  0  0  0  0  0  0  0
  -28.1890  -24.2930   22.0290 N   0  0  0  0  0  0  0  0  0  0  0  0
  -26.8310  -24.9600   23.7050 O   0  0  0  0  0  0  0  0  0  0  0  0
  -28.9210  -23.6430   21.7760 H   0  0  0  0  0  0  0  0  0  0  0  0
  -28.3640  -23.1910   24.2100 C   0  0  0  0  0  2  0  0  0  0  0  0
  -29.8910  -23.0260   24.0180 C   0  0  0  0  0  2  0  0  0  0  0  0
  -30.2550  -21.7960   23.1670 C   0  0  0  0  0  2  0  0  0  0  0  0
  -31.7610  -21.6860   22.8560 C   0  0  0  0  0  2  0  0  0  0  0  0
  -32.2700  -20.2320   22.8010 C   0  0  0  0  0  2  0  0  0  0  0  0
  -31.7160  -19.3870   21.6380 C   0  0  0  0  0  2  0  0  0  0  0  0
  -31.8200  -17.8800   21.9240 C   0  0  0  0  0  2  0  0  0  0  0  0
  -31.3820  -17.0250   20.7240 C   0  0  0  0  0  2  0  0  0  0  0  0
  -31.7740  -14.5570   20.8720 C   0  0  0  0  0  0  0  0  0  0  0  0
  -31.5740  -12.1370   20.4610 C   0  0  0  0  0  2  0  0  0  0  0  0
  -30.8190  -11.9070   19.1350 C   0  0  0  0  0  2  0  0  0  0  0  0
  -29.2930  -11.9070   19.3620 C   0  0  0  0  0  2  0  0  0  0  0  0
  -28.8110  -13.1220   20.1980 C   0  0  0  0  0  3  0  0  0  0  0  0
  -29.6810  -13.2840   21.4640 C   0  0  0  0  0  2  0  0  0  0  0  0
  -31.0910  -13.3960   21.0420 N   0  0  0  0  0  0  0  0  0  0  0  0
  -32.9220  -14.6150   20.4210 O   0  0  0  0  0  0  0  0  0  0  0  0
  -31.0620  -15.6590   21.1320 N   0  0  0  0  0  0  0  0  0  0  0  0
  -30.1410  -15.5000   21.5130 H   0  0  0  0  0  0  0  0  0  0  0  0
  -26.4420  -14.0150   20.6890 C   0  0  0  0  0  0  0  0  0  0  0  0
  -25.2540  -13.3760   20.9180 C   0  0  0  0  0  0  0  0  0  0  0  0
  -25.5410  -11.9780   20.8680 C   0  0  0  0  0  0  0  0  0  0  0  0
  -27.3900  -13.0140   20.5260 N   0  0  0  0  0  0  0  0  0  0  0  0
  -26.8420  -11.7810   20.6860 N   0  0  0  0  0  0  0  0  0  0  0  0
  -24.6490  -10.8140   20.9310 C   0  0  0  0  0  0  0  0  0  0  0  0
  -24.7960   -9.8220   21.9270 C   0  0  0  0  0  3  0  0  0  0  0  0
  -23.9150   -8.7200   21.9750 C   0  0  0  0  0  3  0  0  0  0  0  0
  -22.8730   -8.6020   21.0240 C   0  0  0  0  0  0  0  0  0  0  0  0
  -22.7460   -9.5800   20.0220 C   0  0  0  0  0  3  0  0  0  0  0  0
  -23.6250  -10.6730   19.9730 C   0  0  0  0  0  3  0  0  0  0  0  0
  -21.9840   -7.5550   20.9800 O   0  0  0  0  0  0  0  0  0  0  0  0
  -21.5240   -6.9530   22.1230 C   0  0  0  0  0  0  0  0  0  0  0  0
  -20.8430   -7.6770   23.1260 C   0  0  0  0  0  3  0  0  0  0  0  0
  -20.3280   -7.0050   24.2530 C   0  0  0  0  0  3  0  0  0  0  0  0
  -20.4810   -5.6110   24.3730 C   0  0  0  0  0  0  0  0  0  0  0  0
  -21.1530   -4.8870   23.3720 C   0  0  0  0  0  3  0  0  0  0  0  0
  -21.6710   -5.5570   22.2490 C   0  0  0  0  0  0  0  0  0  0  0  0
  -22.2990   -4.8510   21.2790 F   0  0  0  0  0  0  0  0  0  0  0  0
  -19.9790   -4.9630   25.4500 F   0  0  0  0  0  0  0  0  0  0  0  0
  -23.9050  -14.0180   21.0790 C   0  0  0  0  0  0  0  0  0  0  0  0
  -23.0200  -13.4060   21.8560 N   0  0  0  0  0  0  0  0  0  0  0  0
  -23.6460  -15.0980   20.5500 O   0  0  0  0  0  0  0  0  0  0  0  0
  -23.2370  -12.5300   22.3110 H   0  0  0  0  0  0  0  0  0  0  0  0
  -22.1100  -13.8170   22.0040 H   0  0  0  0  0  0  0  0  0  0  0  0
  -26.7960  -15.3580   20.5910 N   0  0  0  0  0  0  0  0  0  0  0  0
  -26.1170  -16.1080   20.6600 H   0  0  0  0  0  0  0  0  0  0  0  0
  -27.7260  -15.6880   20.3640 H   0  0  0  0  0  0  0  0  0  0  0  0
  -27.7520  -25.2460   21.0140 C   0  0  0  0  0  2  0  0  0  0  0  0
  -28.8080  -25.3940   19.9030 C   0  0  0  0  0  2  0  0  0  0  0  0
  -28.6070  -26.6430   19.0340 C   0  0  0  0  0  2  0  0  0  0  0  0
  -27.3480  -26.5760   18.3630 O   0  0  0  0  0  0  0  0  0  0  0  0
  -25.0580  -31.2400   23.2350 C   0  0  0  0  0  0  0  0  0  0  0  0
  -26.3360  -27.3670   18.8530 C   0  0  0  0  0  0  0  0  0  0  0  0
  -23.3140  -30.2730   21.7630 C   0  0  0  0  0  3  0  0  0  0  0  0
  -24.1800  -28.9460   19.7640 C   0  0  0  0  0  0  0  0  0  0  0  0
  -25.7170  -30.5280   20.9410 C   0  0  0  0  0  2  0  0  0  0  0  0
  -25.4930  -29.2980   20.0910 C   0  0  0  0  0  0  0  0  0  0  0  0
  -26.5720  -28.5210   19.6340 C   0  0  0  0  0  3  0  0  0  0  0  0
  -25.0090  -27.0210   18.5310 C   0  0  0  0  0  3  0  0  0  0  0  0
  -23.9280  -27.8000   18.9870 C   0  0  0  0  0  3  0  0  0  0  0  0
  -23.0840  -29.8460   20.2860 C   0  0  0  0  0  2  0  0  0  0  0  0
  -24.7330  -30.6800   22.0360 N   0  0  0  0  0  0  0  0  0  0  0  0
  -24.1910  -31.4690   24.0890 O   0  0  0  0  0  0  0  0  0  0  0  0
  -22.8180  -29.1350   22.6770 C   0  0  0  0  0  0  0  0  0  0  0  0
  -21.5120  -28.8410   22.6000 N   0  0  0  0  0  0  0  0  0  0  0  0
  -23.6010  -28.5190   23.4050 O   0  0  0  0  0  0  0  0  0  0  0  0
  -20.9370  -29.3860   21.9720 H   0  0  0  0  0  0  0  0  0  0  0  0
  -18.3980  -27.0300   22.8600 C   0  0  0  0  0  0  0  0  0  0  0  0
  -20.8280  -27.7780   23.3320 C   0  0  0  0  0  3  0  0  0  0  0  0
  -21.2530  -26.3870   22.8110 C   0  0  0  0  0  2  0  0  0  0  0  0
  -20.3230  -25.8410   21.7240 C   0  0  0  0  0  2  0  0  0  0  0  0
  -18.8880  -25.7270   22.2520 C   0  0  0  0  0  2  0  0  0  0  0  0
  -19.3100  -28.0010   23.3530 C   0  0  0  0  0  0  0  0  0  0  0  0
  -18.8070  -29.2130   23.8730 C   0  0  0  0  0  3  0  0  0  0  0  0
  -17.4210  -29.4600   23.9140 C   0  0  0  0  0  3  0  0  0  0  0  0
  -16.5220  -28.4860   23.4440 C   0  0  0  0  0  3  0  0  0  0  0  0
  -17.0100  -27.2750   22.9220 C   0  0  0  0  0  3  0  0  0  0  0  0
  -26.5250  -31.6450   23.5810 C   0  0  0  0  0  3  0  0  0  0  0  0
  -27.2090  -30.6780   24.6230 C   0  0  1  0  0  0  0  0  0  0  0  0
  -26.3560  -30.4220   25.8850 C   0  0  0  0  0  1  0  0  0  0  0  0
  -27.5170  -29.3090   23.9710 C   0  0  0  0  0  1  0  0  0  0  0  0
  -28.5670  -31.2660   25.0760 C   0  0  0  0  0  1  0  0  0  0  0  0
  -26.5020  -33.0240   24.0840 N   0  0  0  0  0  0  0  0  0  0  0  0
  -26.9140  -34.0930   23.3880 C   0  0  0  0  0  0  0  0  0  0  0  0
  -27.4310  -34.0060   22.2710 O   0  0  0  0  0  0  0  0  0  0  0  0
  -26.0460  -33.1750   24.9730 H   0  0  0  0  0  0  0  0  0  0  0  0
  -25.4990  -36.1690   23.4140 C   0  0  0  0  0  1  0  0  0  0  0  0
  -26.7200  -35.4760   24.0380 C   0  0  0  0  0  3  0  0  0  0  0  0
  -29.0450  -35.8890   24.7060 C   0  0  0  0  0  1  0  0  0  0  0  0
  -27.9050  -36.3520   23.9200 N   0  0  0  0  0  0  0  0  0  0  0  0
  -27.6810  -37.2980   24.2190 H   0  0  0  0  0  0  0  0  0  0  0  0
  1  3  2  0
  1  5  1  0
  2  1  1  0
  4  2  1  0
  6  5  1  0
  7  6  1  0
  8  7  1  0
  9  8  1  0
 10 11  1  0
 10  9  1  0
 12 21  1  0
 12 11  1  0
 13 19  1  0
 13 21  1  0
 14 19  1  0
 15 16  1  0
 15 14  1  0
 17 16  1  0
 17 26  1  0
 17 18  1  0
 19 18  1  0
 20 13  2  0
 21 22  1  0
 23 24  2  0
 24 43  1  0
 25 24  1  0
 25 28  1  0
 26 27  1  0
 26 23  1  0
 27 25  2  0
 28 29  1  0
 29 30  2  0
 31 30  1  0
 32 31  2  0
 33 32  1  0
 33 28  2  0
 34 31  1  0
 34 35  1  0
 35 40  2  0
 35 36  1  0
 36 37  2  0
 37 38  1  0
 38 42  1  0
 39 38  2  0
 40 39  1  0
 41 40  1  0
 43 44  1  0
 44 47  1  0
 44 46  1  0
 45 43  2  0
 48 49  1  0
 48 23  1  0
 50 48  1  0
 51  2  1  0
 52 51  1  0
 53 52  1  0
 54 56  1  0
 54 53  1  0
 55 66  2  0
 56 61  1  0
 57 65  1  0
 57 67  1  0
 58 60  1  0
 58 64  1  0
 59 65  1  0
 60 59  1  0
 61 60  2  0
 62 56  2  0
 62 63  1  0
 63 58  2  0
 64 57  1  0
 65 55  1  0
 67 69  2  0
 68 67  1  0
 70 68  1  0
 71 80  2  0
 71 76  1  0
 72 68  1  0
 72 76  1  0
 73 72  1  0
 74 75  1  0
 74 73  1  0
 75 71  1  0
 76 77  2  0
 77 78  1  0
 79 78  2  0
 80 79  1  0
 81 55  1  0
 81 86  1  0
 81 82  1  0
 82 85  1  1
 82 83  1  0
 84 82  1  0
 86 89  1  0
 87 91  1  0
 87 86  1  0
 88 87  2  0
 91 90  1  0
 93 91  1  0
 93 94  1  0
 93 92  1  0
M  ISO  4  13 100  21 100  53 101  54 101
M  END
>  <TORSDO>  (9) 
F 27

>  <SCORE>  (9) 
-4.362

>  <name>  (9) 
8

>  <ligand_id>  (9) 
8

>  <original_smiles>  (9) 
[H]c1c([H])c([H])c2c(c1[H])C([H])([H])C([H])([H])C([H])([H])C2([H])N([H])C(=O)C1([H])N(C(=O)C([H])(N([H])C(=O)C([H])(N([H])C([H])([H])[H])C([H])([H])[H])C(C([H])([H])[H])(C([H])([H])[H])C([H])([H])[H])C([H])([H])c2c([H])c(OC([H])([H])C([H])([H])C([H])([H])N([H])C(=O)C([H])([H])C([H])([H])C([H])([H])C([H])([H])C([H])([H])C([H])([H])C([H])([H])C([H])([H])N([H])C(=O)N3C([H])([H])C([H])([H])C([H])([H])C([H])(n4nc(-c5c([H])c([H])c(Oc6c([H])c([H])c(F)c([H])c6F)c([H])c5[H])c(C(=O)N([H])[H])c4N([H])[H])C3([H])[H])c([H])c([H])c2C1([H])[H]

>  <smiles>  (9) 
[H]c1c([H])c([H])c2c(c1[H])C([H])([H])C([H])([H])C([H])([H])C2([H])N([H])C(=O)C1([H])N(C(=O)C([H])(N([H])C(=O)C([H])(N([H])C([H])([H])[H])C([H])([H])[H])C(C([H])([H])[H])(C([H])([H])[H])C([H])([H])[H])C([H])([H])c2c([H])c(OC([H])([H])C([H])([H])C([H])([H])N([H])C(=O)C([H])([H])C([H])([H])C([H])([H])C([H])([H])C([H])([H])C([H])([H])C([H])([H])C([H])([H])N([H])C(=O)N3C([H])([H])C([H])([H])C([H])([H])C([H])(n4nc(-c5c([H])c([H])c(Oc6c([H])c([H])c(F)c([H])c6F)c([H])c5[H])c(C(=O)N([H])[H])c4N([H])[H])C3([H])[H])c([H])c([H])c2C1([H])[H]

$$$$
9:0:0
     RDKit          3D

 92 99  0  0  1  0  0  0  0  0999 V2000
  -31.0870  -22.8680   16.4710 N   0  0  0  0  0  4  0  0  0  0  0  0
  -31.8940  -23.3900   16.1650 H   0  0  0  0  0  0  0  0  0  0  0  0
  -30.5790  -22.5840   15.6440 H   0  0  0  0  0  0  0  0  0  0  0  0
  -30.7850  -20.4160   16.7380 C   0  0  0  0  0  1  0  0  0  0  0  0
  -31.5590  -21.6660   17.2090 C   0  0  0  0  0  3  0  0  0  0  0  0
  -33.1170  -21.5440   17.2430 C   0  0  0  0  0  2  0  0  0  0  0  0
  -33.8950  -21.6520   15.9030 C   0  0  0  0  0  2  0  0  0  0  0  0
  -33.8280  -20.4610   15.1100 O   0  0  0  0  0  0  0  0  0  0  0  0
  -33.5210  -17.5190    8.6310 C   0  0  0  0  0  0  0  0  0  0  0  0
  -33.6190  -20.6450   13.7630 C   0  0  0  0  0  0  0  0  0  0  0  0
  -33.4430  -19.9970    8.6990 C   0  0  0  0  0  3  0  0  0  0  0  0
  -33.1090  -21.0360   11.0090 C   0  0  0  0  0  0  0  0  0  0  0  0
  -32.5870  -18.6110   10.6680 C   0  0  0  0  0  2  0  0  0  0  0  0
  -32.9910  -19.7560   11.5720 C   0  0  0  0  0  0  0  0  0  0  0  0
  -33.2400  -19.5570   12.9480 C   0  0  0  0  0  3  0  0  0  0  0  0
  -33.7030  -21.9340   13.1870 C   0  0  0  0  0  3  0  0  0  0  0  0
  -33.4650  -22.1350   11.8150 C   0  0  0  0  0  3  0  0  0  0  0  0
  -32.8420  -21.1650    9.5240 C   0  0  0  0  0  2  0  0  0  0  0  0
  -33.2210  -18.6530    9.3290 N   0  0  0  0  0  0  0  0  0  0  0  0
  -33.9470  -17.5820    7.4690 O   0  0  0  0  0  0  0  0  0  0  0  0
  -34.9340  -20.3090    8.4400 C   0  0  0  0  0  0  0  0  0  0  0  0
  -35.2140  -21.0070    7.3280 N   0  0  0  0  0  0  0  0  0  0  0  0
  -35.8010  -19.9520    9.2400 O   0  0  0  0  0  0  0  0  0  0  0  0
  -34.4460  -21.2220    6.7040 H   0  0  0  0  0  0  0  0  0  0  0  0
  -37.1670  -22.0640    4.4760 C   0  0  0  0  0  0  0  0  0  0  0  0
  -36.5360  -21.4760    6.9130 C   0  0  0  0  0  3  0  0  0  0  0  0
  -36.7110  -22.9840    7.2150 C   0  0  0  0  0  2  0  0  0  0  0  0
  -36.3430  -23.8870    6.0320 C   0  0  0  0  0  2  0  0  0  0  0  0
  -37.1930  -23.5480    4.8050 C   0  0  0  0  0  2  0  0  0  0  0  0
  -36.8370  -21.0960    5.4590 C   0  0  0  0  0  0  0  0  0  0  0  0
  -36.7730  -19.7380    5.0850 C   0  0  0  0  0  3  0  0  0  0  0  0
  -37.0400  -19.3380    3.7650 C   0  0  0  0  0  3  0  0  0  0  0  0
  -37.3930  -20.2960    2.7990 C   0  0  0  0  0  3  0  0  0  0  0  0
  -37.4500  -21.6570    3.1540 C   0  0  0  0  0  3  0  0  0  0  0  0
  -33.3380  -16.0990    9.2530 C   0  0  0  0  0  3  0  0  0  0  0  0
  -34.6910  -15.4610    9.7540 C   0  0  1  0  0  0  0  0  0  0  0  0
  -35.4700  -14.7090    8.6520 C   0  0  0  0  0  1  0  0  0  0  0  0
  -35.6210  -16.5490   10.3340 C   0  0  0  0  0  1  0  0  0  0  0  0
  -34.4090  -14.4660   10.9070 C   0  0  0  0  0  1  0  0  0  0  0  0
  -32.7130  -15.2450    8.2340 N   0  0  0  0  0  0  0  0  0  0  0  0
  -31.3930  -15.0410    8.1100 C   0  0  0  0  0  0  0  0  0  0  0  0
  -30.5680  -15.5020    8.9070 O   0  0  0  0  0  0  0  0  0  0  0  0
  -33.3280  -14.8550    7.5360 H   0  0  0  0  0  0  0  0  0  0  0  0
  -29.7180  -14.9040    6.2410 C   0  0  0  0  0  1  0  0  0  0  0  0
  -30.9040  -14.1990    6.9170 C   0  0  0  0  0  3  0  0  0  0  0  0
  -31.6350  -11.8800    7.2600 C   0  0  0  0  0  1  0  0  0  0  0  0
  -30.5170  -12.8200    7.2890 N   0  0  0  0  0  0  0  0  0  0  0  0
  -29.7870  -12.4700    6.6750 H   0  0  0  0  0  0  0  0  0  0  0  0
  -30.2470  -23.7770   17.2940 C   0  0  0  0  0  2  0  0  0  0  0  0
  -30.7980  -24.0350   18.7190 C   0  0  0  0  0  2  0  0  0  0  0  0
  -31.4460  -25.4400   18.7830 C   0  0  0  0  0  2  0  0  0  0  0  0
  -31.1750  -26.3980   17.6060 C   0  0  0  0  0  2  0  0  0  0  0  0
  -32.1990  -27.5480   17.4650 C   0  0  0  0  0  2  0  0  0  0  0  0
  -31.5990  -28.9400   17.7640 C   0  0  0  0  0  2  0  0  0  0  0  0
  -33.1000  -30.8070   16.6300 C   0  0  0  0  0  0  0  0  0  0  0  0
  -33.5060  -31.3650   14.2520 C   0  0  0  0  0  2  0  0  0  0  0  0
  -32.3030  -32.1410   13.6710 C   0  0  0  0  0  2  0  0  0  0  0  0
  -31.1730  -31.1890   13.2160 C   0  0  0  0  0  2  0  0  0  0  0  0
  -30.8590  -30.0910   14.2740 C   0  0  0  0  0  3  0  0  0  0  0  0
  -32.1930  -29.4280   14.6760 C   0  0  0  0  0  2  0  0  0  0  0  0
  -33.0150  -30.4610   15.3120 N   0  0  0  0  0  0  0  0  0  0  0  0
  -33.7200  -31.8180   16.9810 O   0  0  0  0  0  0  0  0  0  0  0  0
  -32.6070  -30.0140   17.6140 N   0  0  0  0  0  0  0  0  0  0  0  0
  -32.8830  -30.3840   18.5130 H   0  0  0  0  0  0  0  0  0  0  0  0
  -28.5360  -29.2690   13.5270 C   0  0  0  0  0  0  0  0  0  0  0  0
  -28.1130  -28.0630   13.0270 C   0  0  0  0  0  0  0  0  0  0  0  0
  -29.2690  -27.2300   12.9790 C   0  0  0  0  0  0  0  0  0  0  0  0
  -29.8910  -29.1160   13.7790 N   0  0  0  0  0  0  0  0  0  0  0  0
  -30.3210  -27.8670   13.4780 N   0  0  0  0  0  0  0  0  0  0  0  0
  -29.4580  -25.8820   12.4280 C   0  0  0  0  0  0  0  0  0  0  0  0
  -29.3300  -24.7360   13.2390 C   0  0  0  0  0  3  0  0  0  0  0  0
  -29.5030  -23.4470   12.6920 C   0  0  0  0  0  3  0  0  0  0  0  0
  -29.8000  -23.2940   11.3170 C   0  0  0  0  0  0  0  0  0  0  0  0
  -29.9450  -24.4400   10.5170 C   0  0  0  0  0  3  0  0  0  0  0  0
  -29.7770  -25.7250   11.0640 C   0  0  0  0  0  3  0  0  0  0  0  0
  -30.0030  -22.0860   10.6990 O   0  0  0  0  0  0  0  0  0  0  0  0
  -28.9580  -21.3340   10.2230 C   0  0  0  0  0  0  0  0  0  0  0  0
  -28.0970  -21.8140    9.2120 C   0  0  0  0  0  3  0  0  0  0  0  0
  -27.0770  -20.9830    8.7080 C   0  0  0  0  0  3  0  0  0  0  0  0
  -26.9270  -19.6730    9.1970 C   0  0  0  0  0  0  0  0  0  0  0  0
  -27.7850  -19.1950   10.2020 C   0  0  0  0  0  3  0  0  0  0  0  0
  -28.8000  -20.0200   10.7100 C   0  0  0  0  0  0  0  0  0  0  0  0
  -29.6420  -19.5500   11.6630 F   0  0  0  0  0  0  0  0  0  0  0  0
  -25.9520  -18.8700    8.7080 F   0  0  0  0  0  0  0  0  0  0  0  0
  -26.7330  -27.7340   12.5360 C   0  0  0  0  0  0  0  0  0  0  0  0
  -26.1680  -26.6130   12.9810 N   0  0  0  0  0  0  0  0  0  0  0  0
  -26.1250  -28.4890   11.7800 O   0  0  0  0  0  0  0  0  0  0  0  0
  -26.6480  -26.0000   13.6230 H   0  0  0  0  0  0  0  0  0  0  0  0
  -25.2390  -26.3710   12.6680 H   0  0  0  0  0  0  0  0  0  0  0  0
  -27.8960  -30.4770   13.7680 N   0  0  0  0  0  0  0  0  0  0  0  0
  -26.9270  -30.6460   13.5300 H   0  0  0  0  0  0  0  0  0  0  0  0
  -28.3770  -31.3190   14.0590 H   0  0  0  0  0  0  0  0  0  0  0  0
  1  5  1  0
  1 49  1  0
  2  1  1  0
  3  1  1  0
  5  4  1  0
  5  6  1  0
  7  6  1  0
  8  7  1  0
  9 19  1  0
 10  8  1  0
 11 21  1  0
 11 19  1  0
 11 18  1  0
 12 14  2  0
 12 17  1  0
 13 14  1  0
 14 15  1  0
 15 10  2  0
 16 10  1  0
 17 16  2  0
 18 12  1  0
 19 13  1  0
 20  9  2  0
 21 23  2  0
 22 21  1  0
 24 22  1  0
 25 29  1  0
 25 30  1  0
 26 27  1  0
 26 22  1  0
 28 27  1  0
 29 28  1  0
 30 26  1  0
 31 30  2  0
 32 31  1  0
 33 34  1  0
 33 32  2  0
 34 25  2  0
 35  9  1  0
 35 36  1  0
 36 38  1  1
 36 39  1  0
 37 36  1  0
 40 35  1  0
 41 40  1  0
 41 42  2  0
 43 40  1  0
 45 44  1  0
 45 47  1  0
 45 41  1  0
 46 47  1  0
 48 47  1  0
 49 50  1  0
 50 51  1  0
 52 51  1  0
 53 52  1  0
 53 54  1  0
 55 62  2  0
 55 63  1  0
 56 61  1  0
 57 56  1  0
 58 57  1  0
 59 58  1  0
 59 60  1  0
 60 61  1  0
 61 55  1  0
 63 54  1  0
 63 64  1  0
 65 90  1  0
 65 68  1  0
 66 65  2  0
 67 66  1  0
 67 69  2  0
 68 59  1  0
 69 68  1  0
 70 67  1  0
 70 71  1  0
 72 71  2  0
 73 72  1  0
 74 75  1  0
 74 73  2  0
 75 70  2  0
 76 73  1  0
 77 76  1  0
 77 82  1  0
 78 77  2  0
 79 80  2  0
 79 78  1  0
 80 81  1  0
 81 82  2  0
 82 83  1  0
 84 80  1  0
 85 86  1  0
 85 66  1  0
 86 88  1  0
 87 85  2  0
 89 86  1  0
 90 92  1  0
 91 90  1  0
M  ISO  4   7 101   8 101  55 100  63 100
M  END
>  <TORSDO>  (10) 
F 25

>  <SCORE>  (10) 
-2.915

>  <name>  (10) 
9

>  <ligand_id>  (10) 
9

>  <original_smiles>  (10) 
[H]c1c([H])c([H])c2c(c1[H])C([H])([H])C([H])([H])C([H])([H])C2([H])N([H])C(=O)C1([H])N(C(=O)C([H])(N([H])C(=O)C([H])(N([H])C([H])([H])[H])C([H])([H])[H])C(C([H])([H])[H])(C([H])([H])[H])C([H])([H])[H])C([H])([H])c2c([H])c(OC([H])([H])C([H])([H])C([H])(C([H])([H])[H])[N+]([H])([H])C([H])([H])C([H])([H])C([H])([H])C([H])([H])C([H])([H])C([H])([H])N([H])C(=O)N3C([H])([H])C([H])([H])C([H])([H])C([H])(n4nc(-c5c([H])c([H])c(Oc6c([H])c([H])c(F)c([H])c6F)c([H])c5[H])c(C(=O)N([H])[H])c4N([H])[H])C3([H])[H])c([H])c([H])c2C1([H])[H]

>  <smiles>  (10) 
[H]c1c([H])c([H])c2c(c1[H])C([H])([H])C([H])([H])C([H])([H])C2([H])N([H])C(=O)C1([H])N(C(=O)C([H])(N([H])C(=O)C([H])(N([H])C([H])([H])[H])C([H])([H])[H])C(C([H])([H])[H])(C([H])([H])[H])C([H])([H])[H])C([H])([H])c2c([H])c(OC([H])([H])C([H])([H])C([H])(C([H])([H])[H])[N+]([H])([H])C([H])([H])C([H])([H])C([H])([H])C([H])([H])C([H])([H])C([H])([H])N([H])C(=O)N3C([H])([H])C([H])([H])C([H])([H])C([H])(n4nc(-c5c([H])c([H])c(Oc6c([H])c([H])c(F)c([H])c6F)c([H])c5[H])c(C(=O)N([H])[H])c4N([H])[H])C3([H])[H])c([H])c([H])c2C1([H])[H]

$$$$
10:0:0
     RDKit          3D

 95103  0  0  1  0  0  0  0  0999 V2000
  -33.4500  -25.0270   20.0920 C   0  0  0  0  0  3  0  0  0  0  0  0
  -32.5120  -26.0250   19.7640 C   0  0  0  0  0  3  0  0  0  0  0  0
  -33.2390  -25.6140   22.4500 C   0  0  0  0  0  3  0  0  0  0  0  0
  -33.7750  -24.7800   21.4440 C   0  0  0  0  0  0  0  0  0  0  0  0
  -31.8920  -26.7790   20.7810 C   0  0  0  0  0  0  0  0  0  0  0  0
  -32.3040  -26.6180   22.1250 C   0  0  0  0  0  0  0  0  0  0  0  0
  -31.7510  -27.3830   23.1140 O   0  0  0  0  0  0  0  0  0  0  0  0
  -32.1450  -27.2510   23.9730 H   0  0  0  0  0  0  0  0  0  0  0  0
  -34.6710  -23.6110   21.8250 C   0  0  0  0  0  2  0  0  0  0  0  0
  -33.9790  -22.5730   22.7500 C   0  0  0  0  0  2  0  0  0  0  0  0
  -33.8190  -21.1730   22.1180 C   0  0  0  0  0  2  0  0  0  0  0  0
  -32.8130  -20.2260   22.8230 C   0  0  0  0  0  2  0  0  0  0  0  0
  -32.7170  -18.8690   22.0920 C   0  0  0  0  0  2  0  0  0  0  0  0
  -31.5520  -17.9090   22.4610 C   0  0  0  0  0  2  0  0  0  0  0  0
  -31.6760  -16.6010   21.6400 C   0  0  0  0  0  2  0  0  0  0  0  0
  -30.5330  -15.5250   21.6540 C   0  0  0  0  0  2  0  0  0  0  0  0
  -30.8430  -14.3860   20.6440 C   0  0  0  0  0  0  0  0  0  0  0  0
  -30.3920  -12.2780   19.4360 C   0  0  0  0  0  2  0  0  0  0  0  0
  -29.4870  -12.5220   18.2180 C   0  0  0  0  0  2  0  0  0  0  0  0
  -28.0130  -12.3850   18.6280 C   0  0  0  0  0  2  0  0  0  0  0  0
  -27.6670  -13.2250   19.8860 C   0  0  0  0  0  3  0  0  0  0  0  0
  -28.7150  -13.0570   21.0180 C   0  0  0  0  0  2  0  0  0  0  0  0
  -30.0580  -13.2830   20.4650 N   0  0  0  0  0  0  0  0  0  0  0  0
  -31.8700  -14.5260   19.9760 O   0  0  0  0  0  0  0  0  0  0  0  0
  -25.2590  -13.8190   20.5740 C   0  0  0  0  0  0  0  0  0  0  0  0
  -24.1860  -13.0450   20.9160 C   0  0  0  0  0  0  0  0  0  0  0  0
  -24.6440  -11.6910   20.8730 C   0  0  0  0  0  0  0  0  0  0  0  0
  -26.3090  -12.9440   20.3470 N   0  0  0  0  0  0  0  0  0  0  0  0
  -25.9390  -11.6570   20.5820 N   0  0  0  0  0  0  0  0  0  0  0  0
  -23.9100  -10.4300   21.0390 C   0  0  0  0  0  0  0  0  0  0  0  0
  -24.3640   -9.4210   21.9180 C   0  0  0  0  0  3  0  0  0  0  0  0
  -23.6310   -8.2260   22.0750 C   0  0  0  0  0  3  0  0  0  0  0  0
  -22.4290   -8.0300   21.3550 C   0  0  0  0  0  0  0  0  0  0  0  0
  -21.9930   -9.0270   20.4640 C   0  0  0  0  0  3  0  0  0  0  0  0
  -22.7270  -10.2140   20.3040 C   0  0  0  0  0  3  0  0  0  0  0  0
  -21.6640   -6.8910   21.4240 O   0  0  0  0  0  0  0  0  0  0  0  0
  -21.6860   -6.0750   22.5270 C   0  0  0  0  0  0  0  0  0  0  0  0
  -21.4020   -6.5650   23.8210 C   0  0  0  0  0  3  0  0  0  0  0  0
  -21.3660   -5.6800   24.9170 C   0  0  0  0  0  3  0  0  0  0  0  0
  -21.6050   -4.3060   24.7210 C   0  0  0  0  0  0  0  0  0  0  0  0
  -21.8820   -3.8160   23.4330 C   0  0  0  0  0  3  0  0  0  0  0  0
  -21.9190   -4.6980   22.3390 C   0  0  0  0  0  0  0  0  0  0  0  0
  -22.1670   -4.2180   21.0960 F   0  0  0  0  0  0  0  0  0  0  0  0
  -21.5620   -3.4530   25.7720 F   0  0  0  0  0  0  0  0  0  0  0  0
  -22.7860  -13.5220   21.1830 C   0  0  0  0  0  0  0  0  0  0  0  0
  -22.0520  -12.8200   22.0380 N   0  0  0  0  0  0  0  0  0  0  0  0
  -22.3550  -14.5540   20.6680 O   0  0  0  0  0  0  0  0  0  0  0  0
  -22.4120  -11.9850   22.4750 H   0  0  0  0  0  0  0  0  0  0  0  0
  -21.1130  -13.1230   22.2600 H   0  0  0  0  0  0  0  0  0  0  0  0
  -25.4230  -15.1930   20.4160 N   0  0  0  0  0  0  0  0  0  0  0  0
  -24.6470  -15.8350   20.5250 H   0  0  0  0  0  0  0  0  0  0  0  0
  -26.2800  -15.6500   20.1330 H   0  0  0  0  0  0  0  0  0  0  0  0
  -30.6810  -27.6320   20.4480 C   0  0  0  0  0  2  0  0  0  0  0  0
  -29.4140  -26.9610   21.0220 C   0  0  0  0  0  2  0  0  0  0  0  0
  -28.4100  -26.7470   20.0310 O   0  0  0  0  0  0  0  0  0  0  0  0
  -24.6090  -31.8760   23.2120 C   0  0  0  0  0  0  0  0  0  0  0  0
  -27.2670  -27.5020   20.0920 C   0  0  0  0  0  0  0  0  0  0  0  0
  -23.3980  -30.4900   21.5530 C   0  0  0  0  0  3  0  0  0  0  0  0
  -24.8530  -28.9660   20.1140 C   0  0  0  0  0  0  0  0  0  0  0  0
  -25.9180  -30.8590   21.3600 C   0  0  0  0  0  2  0  0  0  0  0  0
  -26.0030  -29.4970   20.7100 C   0  0  0  0  0  0  0  0  0  0  0  0
  -27.2090  -28.7760   20.7020 C   0  0  0  0  0  3  0  0  0  0  0  0
  -26.1040  -26.9790   19.4880 C   0  0  0  0  0  3  0  0  0  0  0  0
  -24.8960  -27.7050   19.4910 C   0  0  0  0  0  3  0  0  0  0  0  0
  -23.6090  -29.8220   20.1660 C   0  0  0  0  0  2  0  0  0  0  0  0
  -24.6610  -31.0830   22.1050 N   0  0  0  0  0  0  0  0  0  0  0  0
  -23.5300  -32.1530   23.7520 O   0  0  0  0  0  0  0  0  0  0  0  0
  -22.7390  -29.4660   22.5030 C   0  0  0  0  0  0  0  0  0  0  0  0
  -21.4110  -29.3040   22.3770 N   0  0  0  0  0  0  0  0  0  0  0  0
  -23.4180  -28.8200   23.3070 O   0  0  0  0  0  0  0  0  0  0  0  0
  -20.9250  -29.8840   21.7080 H   0  0  0  0  0  0  0  0  0  0  0  0
  -18.0250  -28.1370   22.8470 C   0  0  0  0  0  0  0  0  0  0  0  0
  -20.5820  -28.3650   23.1330 C   0  0  0  0  0  3  0  0  0  0  0  0
  -20.6740  -26.9400   22.5420 C   0  0  0  0  0  2  0  0  0  0  0  0
  -19.5750  -26.6400   21.5200 C   0  0  0  0  0  2  0  0  0  0  0  0
  -18.1920  -26.7920   22.1580 C   0  0  0  0  0  2  0  0  0  0  0  0
  -19.1490  -28.8810   23.2900 C   0  0  0  0  0  0  0  0  0  0  0  0
  -18.9420  -30.1420   23.8920 C   0  0  0  0  0  3  0  0  0  0  0  0
  -17.6420  -30.6590   24.0560 C   0  0  0  0  0  3  0  0  0  0  0  0
  -16.5310  -29.9100   23.6310 C   0  0  0  0  0  3  0  0  0  0  0  0
  -16.7240  -28.6530   23.0310 C   0  0  0  0  0  3  0  0  0  0  0  0
  -25.9030  -32.4810   23.8500 C   0  0  0  0  0  3  0  0  0  0  0  0
  -26.4240  -31.6420   25.0800 C   0  0  1  0  0  0  0  0  0  0  0  0
  -25.3370  -31.3510   26.1410 C   0  0  0  0  0  1  0  0  0  0  0  0
  -27.0030  -30.2840   24.6200 C   0  0  0  0  0  1  0  0  0  0  0  0
  -27.5790  -32.3940   25.7780 C   0  0  0  0  0  1  0  0  0  0  0  0
  -25.5990  -33.8640   24.2490 N   0  0  0  0  0  0  0  0  0  0  0  0
  -25.8950  -34.9490   23.5180 C   0  0  0  0  0  0  0  0  0  0  0  0
  -26.5420  -34.8940   22.4680 O   0  0  0  0  0  0  0  0  0  0  0  0
  -25.0410  -33.9840   25.0820 H   0  0  0  0  0  0  0  0  0  0  0  0
  -24.1410  -36.7360   23.2620 C   0  0  0  0  0  1  0  0  0  0  0  0
  -25.4010  -36.3150   24.0350 C   0  0  0  0  0  3  0  0  0  0  0  0
  -27.5540  -37.1820   24.8420 C   0  0  0  0  0  1  0  0  0  0  0  0
  -26.4200  -37.3850   23.9420 N   0  0  0  0  0  0  0  0  0  0  0  0
  -26.0120  -38.2920   24.1520 H   0  0  0  0  0  0  0  0  0  0  0  0
  1  4  1  0
  2  1  2  0
  2  5  1  0
  4  9  1  0
  4  3  2  0
  5  6  2  0
  6  3  1  0
  6  7  1  0
  7  8  1  0
  9 10  1  0
 11 10  1  0
 11 12  1  0
 13 14  1  0
 13 12  1  0
 15 16  1  0
 15 14  1  0
 17 16  1  0
 18 23  1  0
 19 20  1  0
 19 18  1  0
 21 20  1  0
 21 28  1  0
 21 22  1  0
 23 17  1  0
 23 22  1  0
 24 17  2  0
 25 26  2  0
 26 45  1  0
 27 26  1  0
 27 30  1  0
 28 25  1  0
 28 29  1  0
 29 27  2  0
 30 31  1  0
 31 32  2  0
 33 36  1  0
 33 32  1  0
 34 33  2  0
 35 34  1  0
 35 30  2  0
 36 37  1  0
 37 38  1  0
 38 39  2  0
 40 39  1  0
 40 44  1  0
 41 40  2  0
 42 37  2  0
 42 41  1  0
 43 42  1  0
 45 46  1  0
 46 49  1  0
 46 48  1  0
 47 45  2  0
 50 51  1  0
 50 25  1  0
 52 50  1  0
 53  5  1  0
 53 54  1  0
 55 57  1  0
 55 54  1  0
 56 67  2  0
 57 62  1  0
 58 66  1  0
 58 68  1  0
 59 65  1  0
 59 61  1  0
 60 66  1  0
 61 60  1  0
 62 61  2  0
 63 64  1  0
 63 57  2  0
 64 59  2  0
 65 58  1  0
 66 56  1  0
 68 70  2  0
 69 68  1  0
 71 69  1  0
 72 81  2  0
 72 77  1  0
 73 69  1  0
 73 77  1  0
 74 73  1  0
 75 76  1  0
 75 74  1  0
 76 72  1  0
 77 78  2  0
 78 79  1  0
 80 79  2  0
 81 80  1  0
 82 56  1  0
 82 87  1  0
 82 83  1  0
 83 86  1  1
 83 84  1  0
 85 83  1  0
 87 90  1  0
 88 92  1  0
 88 87  1  0
 89 88  2  0
 92 91  1  0
 94 92  1  0
 94 95  1  0
 94 93  1  0
M  ISO  4  16 100  17 100  54 101  55 101
M  END
>  <TORSDO>  (11) 
F 27

>  <SCORE>  (11) 
-1.642

>  <name>  (11) 
10

>  <ligand_id>  (11) 
10

>  <original_smiles>  (11) 
[H]Oc1c([H])c(C([H])([H])C([H])([H])C([H])([H])C([H])([H])C([H])([H])C([H])([H])C([H])([H])C([H])([H])C(=O)N2C([H])([H])C([H])([H])C([H])([H])C([H])(n3nc(-c4c([H])c([H])c(Oc5c([H])c([H])c(F)c([H])c5F)c([H])c4[H])c(C(=O)N([H])[H])c3N([H])[H])C2([H])[H])c([H])c([H])c1C([H])([H])C([H])([H])Oc1c([H])c([H])c2c(c1[H])C([H])([H])N(C(=O)C([H])(N([H])C(=O)C([H])(N([H])C([H])([H])[H])C([H])([H])[H])C(C([H])([H])[H])(C([H])([H])[H])C([H])([H])[H])C([H])(C(=O)N([H])C1([H])c3c([H])c([H])c([H])c([H])c3C([H])([H])C([H])([H])C1([H])[H])C2([H])[H]

>  <smiles>  (11) 
[H]Oc1c([H])c(C([H])([H])C([H])([H])C([H])([H])C([H])([H])C([H])([H])C([H])([H])C([H])([H])C([H])([H])C(=O)N2C([H])([H])C([H])([H])C([H])([H])C([H])(n3nc(-c4c([H])c([H])c(Oc5c([H])c([H])c(F)c([H])c5F)c([H])c4[H])c(C(=O)N([H])[H])c3N([H])[H])C2([H])[H])c([H])c([H])c1C([H])([H])C([H])([H])Oc1c([H])c([H])c2c(c1[H])C([H])([H])N(C(=O)C([H])(N([H])C(=O)C([H])(N([H])C([H])([H])[H])C([H])([H])[H])C(C([H])([H])[H])(C([H])([H])[H])C([H])([H])[H])C([H])(C(=O)N([H])C1([H])c3c([H])c([H])c([H])c([H])c3C([H])([H])C([H])([H])C1([H])[H])C2([H])[H]

$$$$
11:0:0
     RDKit          3D

 92 96  0  0  1  0  0  0  0  0999 V2000
  -23.1590  -24.3670   21.7760 C   0  0  0  0  0  2  0  0  0  0  0  0
  -21.7980  -23.5230   21.5710 C   0  0  0  0  0  2  0  0  0  0  0  0
  -20.3220  -24.0890   21.1000 C   0  0  0  0  0  2  0  0  0  0  0  0
  -19.7410  -24.8500   19.6900 C   0  0  0  0  0  2  0  0  0  0  0  0
  -21.2370  -26.1080   17.5720 C   0  0  0  0  0  1  0  0  0  0  0  0
  -23.3060  -26.3260   17.5630 C   0  0  0  0  0  1  0  0  0  0  0  0
  -24.8800  -26.7580   18.4400 O   0  0  0  0  0  0  0  0  0  0  0  0
  -24.2570  -30.6580   22.0770 C   0  0  0  0  0  0  0  0  0  0  0  0
  -26.2700  -27.1450   18.1490 C   0  0  0  0  0  3  0  0  0  0  0  0
  -23.4020  -30.0020   19.8950 C   0  0  0  0  0  3  0  0  0  0  0  0
  -25.0900  -29.3880   18.0420 C   0  0  0  0  0  3  0  0  0  0  0  0
  -25.9040  -30.2320   20.2460 C   0  0  0  0  0  2  0  0  0  0  0  0
  -26.0030  -29.2610   19.0930 C   0  0  0  0  0  3  0  0  0  0  0  0
  -26.8110  -28.1110   19.0610 C   0  0  0  0  0  2  0  0  0  0  0  0
  -26.2470  -27.5980   16.8570 C   0  0  0  0  0  2  0  0  0  0  0  0
  -25.3550  -28.6820   16.8290 C   0  0  0  0  0  2  0  0  0  0  0  0
  -23.7920  -30.0800   18.3730 C   0  0  0  0  0  2  0  0  0  0  0  0
  -24.5340  -30.3480   20.7830 N   0  0  0  0  0  0  0  0  0  0  0  0
  -23.0890  -30.7410   22.4910 O   0  0  0  0  0  0  0  0  0  0  0  0
  -22.8590  -28.6470   20.4070 C   0  0  0  0  0  0  0  0  0  0  0  0
  -21.6660  -28.6390   20.9170 N   0  0  0  0  0  0  0  0  0  0  0  0
  -23.5190  -27.6170   20.4600 O   0  0  0  0  0  0  0  0  0  0  0  0
  -21.1590  -29.5090   20.9910 H   0  0  0  0  0  0  0  0  0  0  0  0
  -18.0560  -28.3840   21.4040 C   0  0  0  0  0  0  0  0  0  0  0  0
  -20.8770  -27.4250   21.0540 C   0  0  0  0  0  2  0  0  0  0  0  0
  -20.5400  -26.2320   19.3820 C   0  0  0  0  0  2  0  0  0  0  0  0
  -18.4770  -26.5200   18.6800 C   0  0  0  0  0 15  0  0  0  0  0  0
  -17.4130  -27.7080   19.8630 C   0  0  0  0  0  1  0  0  0  0  0  0
  -19.5340  -28.2930   21.8680 C   0  0  0  0  0  0  0  0  0  0  0  0
  -19.8390  -28.7680   23.1830 C   0  0  0  0  0  3  0  0  0  0  0  0
  -18.8710  -29.1880   24.1160 C   0  0  0  0  0  3  0  0  0  0  0  0
  -17.5130  -29.0920   23.7860 C   0  0  0  0  0  3  0  0  0  0  0  0
  -17.1280  -28.6850   22.4780 C   0  0  0  0  0  3  0  0  0  0  0  0
  -25.3990  -30.9440   23.0810 C   0  0  0  0  0  3  0  0  0  0  0  0
  -25.5580  -29.8240   24.1780 C   0  0  1  0  0  0  0  0  0  0  0  0
  -24.2400  -29.4510   24.8960 C   0  0  0  0  0  1  0  0  0  0  0  0
  -26.1410  -28.5280   23.5680 C   0  0  0  0  0  1  0  0  0  0  0  0
  -26.5690  -30.3000   25.2460 C   0  0  0  0  0  1  0  0  0  0  0  0
  -25.0870  -32.2370   23.6950 N   0  0  0  0  0  0  0  0  0  0  0  0
  -25.6160  -33.4010   23.3020 C   0  0  0  0  0  0  0  0  0  0  0  0
  -26.4940  -33.4800   22.4400 O   0  0  0  0  0  0  0  0  0  0  0  0
  -24.3430  -32.2520   24.3770 H   0  0  0  0  0  0  0  0  0  0  0  0
  -24.1190  -35.4060   23.0380 C   0  0  0  0  0  1  0  0  0  0  0  0
  -25.0910  -34.6800   23.9810 C   0  0  0  0  0  3  0  0  0  0  0  0
  -26.9920  -35.0780   25.4810 C   0  0  0  0  0  1  0  0  0  0  0  0
  -26.1680  -35.6040   24.3960 N   0  0  0  0  0  0  0  0  0  0  0  0
  -25.7810  -36.4950   24.6960 H   0  0  0  0  0  0  0  0  0  0  0  0
  -24.5630  -23.6870   21.3900 C   0  0  0  0  0  2  0  0  0  0  0  0
  -25.6840  -24.5350   20.6110 C   0  0  0  0  0  3  0  0  0  0  0  0
  -26.7580  -23.7780   19.6840 C   0  0  0  0  0  3  0  0  0  0  0  0
  -28.0700  -24.5590   19.1780 C   0  0  0  0  0  2  0  0  0  0  0  0
  -29.4040  -23.7560   18.7600 C   0  0  0  0  0  3  0  0  0  0  0  0
  -30.8210  -24.1490   19.4250 C   0  0  0  0  0  3  0  0  0  0  0  0
  -32.1240  -23.2010   19.3230 C   0  0  0  0  0  2  0  0  0  0  0  0
  -33.7320  -21.8080   20.9100 C   0  0  0  0  0  0  0  0  0  0  0  0
  -34.7650  -19.5470   21.2010 C   0  0  0  0  0  2  0  0  0  0  0  0
  -34.6270  -18.8160   19.8430 C   0  0  0  0  0  2  0  0  0  0  0  0
  -33.2230  -18.1930   19.6640 C   0  0  0  0  0  2  0  0  0  0  0  0
  -32.0900  -19.1730   20.0580 C   0  0  0  0  0  3  0  0  0  0  0  0
  -32.3750  -19.7910   21.4420 C   0  0  0  0  0  2  0  0  0  0  0  0
  -33.6480  -20.5070   21.3250 N   0  0  0  0  0  0  0  0  0  0  0  0
  -34.8370  -22.3630   20.7870 O   0  0  0  0  0  0  0  0  0  0  0  0
  -32.5190  -22.3360   20.4970 N   0  0  0  0  0  0  0  0  0  0  0  0
  -31.7480  -21.7800   20.8360 H   0  0  0  0  0  0  0  0  0  0  0  0
  -29.5310  -19.1410   19.9070 C   0  0  0  0  0  0  0  0  0  0  0  0
  -28.6340  -18.1090   19.8720 C   0  0  0  0  0  0  0  0  0  0  0  0
  -29.4090  -16.9120   19.9680 C   0  0  0  0  0  0  0  0  0  0  0  0
  -30.7780  -18.5500   20.0210 N   0  0  0  0  0  0  0  0  0  0  0  0
  -30.6940  -17.2010   20.1100 N   0  0  0  0  0  0  0  0  0  0  0  0
  -29.0100  -15.5050   19.8710 C   0  0  0  0  0  0  0  0  0  0  0  0
  -29.1560  -14.6200   20.9630 C   0  0  0  0  0  3  0  0  0  0  0  0
  -28.7490  -13.2740   20.8490 C   0  0  0  0  0  3  0  0  0  0  0  0
  -28.1890  -12.8020   19.6380 C   0  0  0  0  0  0  0  0  0  0  0  0
  -28.0700  -13.6810   18.5480 C   0  0  0  0  0  3  0  0  0  0  0  0
  -28.4800  -15.0200   18.6600 C   0  0  0  0  0  3  0  0  0  0  0  0
  -27.7910  -11.5040   19.4270 O   0  0  0  0  0  0  0  0  0  0  0  0
  -27.1720  -10.7730   20.4100 C   0  0  0  0  0  0  0  0  0  0  0  0
  -25.9610  -11.1950   21.0010 C   0  0  0  0  0  3  0  0  0  0  0  0
  -25.3240  -10.3790   21.9560 C   0  0  0  0  0  3  0  0  0  0  0  0
  -25.8890   -9.1400   22.3150 C   0  0  0  0  0  0  0  0  0  0  0  0
  -27.0950   -8.7180   21.7260 C   0  0  0  0  0  3  0  0  0  0  0  0
  -27.7320   -9.5330   20.7730 C   0  0  0  0  0  0  0  0  0  0  0  0
  -28.8810   -9.1100   20.1910 F   0  0  0  0  0  0  0  0  0  0  0  0
  -25.2740   -8.3530   23.2280 F   0  0  0  0  0  0  0  0  0  0  0  0
  -27.1510  -18.2190   19.6680 C   0  0  0  0  0  0  0  0  0  0  0  0
  -26.3860  -17.2970   20.2410 N   0  0  0  0  0  0  0  0  0  0  0  0
  -26.6590  -19.1540   19.0370 O   0  0  0  0  0  0  0  0  0  0  0  0
  -26.7900  -16.5410   20.7730 H   0  0  0  0  0  0  0  0  0  0  0  0
  -25.3820  -17.3470   20.1430 H   0  0  0  0  0  0  0  0  0  0  0  0
  -29.3960  -20.5240   19.8390 N   0  0  0  0  0  0  0  0  0  0  0  0
  -28.4980  -20.9830   19.7290 H   0  0  0  0  0  0  0  0  0  0  0  0
  -30.1700  -21.1750   19.8800 H   0  0  0  0  0  0  0  0  0  0  0  0
  2  1  1  0
  3  2  1  0
  4  3  1  0
  5 26  1  0
  6  7  1  0
  8 19  2  0
  9  7  1  0
  9 14  1  0
 10 20  1  0
 10 18  1  0
 11 16  1  0
 11 17  1  0
 11 13  1  0
 12 18  1  0
 13 14  1  0
 13 12  1  0
 15  9  1  0
 16 15  1  0
 17 10  1  0
 18  8  1  0
 20 22  2  0
 20 21  1  0
 21 23  1  0
 21 25  1  0
 24 29  2  0
 24 33  1  0
 25 29  1  0
 26  4  1  0
 28 24  1  0
 29 30  1  0
 30 31  2  0
 32 31  1  0
 33 32  2  0
 34  8  1  0
 34 39  1  0
 34 35  1  0
 35 36  1  1
 35 38  1  0
 37 35  1  0
 39 42  1  0
 40 39  1  0
 40 44  1  0
 41 40  2  0
 44 43  1  0
 44 46  1  0
 46 47  1  0
 46 45  1  0
 48  1  1  0
 49 48  1  0
 50 49  2  0
 51 50  1  0
 52 51  1  0
 52 53  2  0
 54 53  1  0
 54 63  1  0
 55 61  1  0
 56 61  1  0
 57 56  1  0
 58 57  1  0
 59 58  1  0
 59 60  1  0
 61 60  1  0
 62 55  2  0
 63 64  1  0
 63 55  1  0
 65 68  1  0
 66 65  2  0
 66 67  1  0
 67 69  2  0
 68 59  1  0
 68 69  1  0
 70 67  1  0
 70 71  1  0
 72 71  2  0
 73 72  1  0
 74 75  1  0
 74 73  2  0
 75 70  2  0
 76 73  1  0
 76 77  1  0
 77 82  2  0
 77 78  1  0
 78 79  2  0
 79 80  1  0
 80 84  1  0
 81 80  2  0
 82 81  1  0
 83 82  1  0
 85 66  1  0
 85 86  1  0
 86 88  1  0
 87 85  2  0
 89 86  1  0
 90 92  1  0
 90 65  1  0
 91 90  1  0
M  ISO  4   6 101   7 101  55 100  63 100
M  END
>  <TORSDO>  (12) 
F 28

>  <SCORE>  (12) 
-4.688

>  <name>  (12) 
11

>  <ligand_id>  (12) 
11

>  <original_smiles>  (12) 
[H]c1c([H])c([H])c2c(c1[H])C([H])([H])C([H])([H])C([H])([H])C2([H])N([H])C(=O)C1([H])N(C(=O)C([H])(N([H])C(=O)C([H])(N([H])C([H])([H])[H])C([H])([H])[H])C(C([H])([H])[H])(C([H])([H])[H])C([H])([H])[H])C([H])([H])c2c([H])c(OC([H])([H])C([H])([H])C([H])([H])C([H])([H])C([H])([H])C([H])([H])C([H])([H])C([H])([H])C([H])([H])C([H])([H])C([H])([H])C([H])([H])C([H])([H])N([H])C(=O)N3C([H])([H])C([H])([H])C([H])([H])C([H])(n4nc(-c5c([H])c([H])c(Oc6c([H])c([H])c(F)c([H])c6F)c([H])c5[H])c(C(=O)N([H])[H])c4N([H])[H])C3([H])[H])c([H])c([H])c2C1([H])[H]

>  <smiles>  (12) 
[H]c1c([H])c([H])c2c(c1[H])C([H])([H])C([H])([H])C([H])([H])C2([H])N([H])C(=O)C1([H])N(C(=O)C([H])(N([H])C(=O)C([H])(N([H])C([H])([H])[H])C([H])([H])[H])C(C([H])([H])[H])(C([H])([H])[H])C([H])([H])[H])C([H])([H])c2c([H])c(OC([H])([H])C([H])([H])C([H])([H])C([H])([H])C([H])([H])C([H])([H])C([H])([H])C([H])([H])C([H])([H])C([H])([H])C([H])([H])C([H])([H])C([H])([H])N([H])C(=O)N3C([H])([H])C([H])([H])C([H])([H])C([H])(n4nc(-c5c([H])c([H])c(Oc6c([H])c([H])c(F)c([H])c6F)c([H])c5[H])c(C(=O)N([H])[H])c4N([H])[H])C3([H])[H])c([H])c([H])c2C1([H])[H]

$$$$
12:0:0
     RDKit          3D

 93100  0  0  1  0  0  0  0  0999 V2000
  -31.0450  -22.6100   19.4200 C   0  0  0  0  0  3  0  0  0  0  0  0
  -29.7430  -23.2920   19.2530 N   0  0  0  0  0  4  0  0  0  0  0  0
  -29.7610  -23.5130   18.2640 H   0  0  0  0  0  0  0  0  0  0  0  0
  -28.9780  -22.6550   19.4220 H   0  0  0  0  0  0  0  0  0  0  0  0
  -29.5950  -24.5770   19.9890 C   0  0  0  0  0  2  0  0  0  0  0  0
  -28.3570  -25.3710   19.5460 C   0  0  0  0  0  2  0  0  0  0  0  0
  -28.3750  -26.6980   20.0970 O   0  0  0  0  0  0  0  0  0  0  0  0
  -24.6000  -31.8820   23.2150 C   0  0  0  0  0  0  0  0  0  0  0  0
  -27.1970  -27.4230   20.0950 C   0  0  0  0  0  0  0  0  0  0  0  0
  -23.3760  -30.4860   21.5860 C   0  0  0  0  0  3  0  0  0  0  0  0
  -24.8090  -28.9460   20.1520 C   0  0  0  0  0  0  0  0  0  0  0  0
  -25.9050  -30.8260   21.3710 C   0  0  0  0  0  2  0  0  0  0  0  0
  -25.9770  -29.4560   20.7290 C   0  0  0  0  0  0  0  0  0  0  0  0
  -27.1710  -28.6980   20.7070 C   0  0  0  0  0  3  0  0  0  0  0  0
  -26.0030  -26.9370   19.5060 C   0  0  0  0  0  3  0  0  0  0  0  0
  -24.8160  -27.6830   19.5460 C   0  0  0  0  0  3  0  0  0  0  0  0
  -23.5720  -29.8110   20.2040 C   0  0  0  0  0  2  0  0  0  0  0  0
  -24.6460  -31.0810   22.1160 N   0  0  0  0  0  0  0  0  0  0  0  0
  -23.5240  -32.1610   23.7640 O   0  0  0  0  0  0  0  0  0  0  0  0
  -22.7300  -29.4630   22.5480 C   0  0  0  0  0  0  0  0  0  0  0  0
  -21.4060  -29.2830   22.4300 N   0  0  0  0  0  0  0  0  0  0  0  0
  -23.4190  -28.8380   23.3590 O   0  0  0  0  0  0  0  0  0  0  0  0
  -20.9130  -29.8380   21.7450 H   0  0  0  0  0  0  0  0  0  0  0  0
  -18.0360  -28.0790   22.9300 C   0  0  0  0  0  0  0  0  0  0  0  0
  -20.5930  -28.3470   23.2030 C   0  0  0  0  0  3  0  0  0  0  0  0
  -20.7010  -26.9110   22.6340 C   0  0  0  0  0  2  0  0  0  0  0  0
  -19.5990  -26.5790   21.6230 C   0  0  0  0  0  2  0  0  0  0  0  0
  -18.2160  -26.7260   22.2640 C   0  0  0  0  0  2  0  0  0  0  0  0
  -19.1520  -28.8470   23.3570 C   0  0  0  0  0  0  0  0  0  0  0  0
  -18.9320  -30.1140   23.9390 C   0  0  0  0  0  3  0  0  0  0  0  0
  -17.6260  -30.6150   24.0990 C   0  0  0  0  0  3  0  0  0  0  0  0
  -16.5230  -29.8440   23.6910 C   0  0  0  0  0  3  0  0  0  0  0  0
  -16.7300  -28.5790   23.1130 C   0  0  0  0  0  3  0  0  0  0  0  0
  -25.8940  -32.5080   23.8220 C   0  0  0  0  0  3  0  0  0  0  0  0
  -26.4310  -31.7260   25.0820 C   0  0  1  0  0  0  0  0  0  0  0  0
  -25.3540  -31.4770   26.1640 C   0  0  0  0  0  1  0  0  0  0  0  0
  -27.0080  -30.3520   24.6660 C   0  0  0  0  0  1  0  0  0  0  0  0
  -27.5930  -32.5130   25.7330 C   0  0  0  0  0  1  0  0  0  0  0  0
  -25.5900  -33.9010   24.1690 N   0  0  0  0  0  0  0  0  0  0  0  0
  -25.9070  -34.9600   23.4120 C   0  0  0  0  0  0  0  0  0  0  0  0
  -26.5640  -34.8670   22.3700 O   0  0  0  0  0  0  0  0  0  0  0  0
  -25.0050  -34.0490   24.9800 H   0  0  0  0  0  0  0  0  0  0  0  0
  -24.1640  -36.7450   23.0980 C   0  0  0  0  0  1  0  0  0  0  0  0
  -25.4200  -36.3430   23.8870 C   0  0  0  0  0  3  0  0  0  0  0  0
  -27.5720  -37.2200   24.6790 C   0  0  0  0  0  1  0  0  0  0  0  0
  -26.4430  -37.4050   23.7710 N   0  0  0  0  0  0  0  0  0  0  0  0
  -26.0340  -38.3160   23.9590 H   0  0  0  0  0  0  0  0  0  0  0  0
  -31.5970  -22.2410   18.0330 C   0  0  0  0  0  2  0  0  0  0  0  0
  -31.5360  -23.3940   17.2070 O   0  0  0  0  0  0  0  0  0  0  0  0
  -32.1160  -23.2570   16.4600 H   0  0  0  0  0  0  0  0  0  0  0  0
  -31.0280  -21.4490   20.4460 C   0  0  0  0  0  2  0  0  0  0  0  0
  -30.3260  -20.1300   20.0540 C   0  0  0  0  0  2  0  0  0  0  0  0
  -30.5800  -19.0550   21.1270 C   0  0  0  0  0  2  0  0  0  0  0  0
  -30.0430  -17.6610   20.7790 C   0  0  0  0  0  2  0  0  0  0  0  0
  -30.5850  -16.5980   21.7560 C   0  0  0  0  0  2  0  0  0  0  0  0
  -30.6860  -14.3980   20.5830 C   0  0  0  0  0  0  0  0  0  0  0  0
  -30.3520  -12.3120   19.3150 C   0  0  0  0  0  2  0  0  0  0  0  0
  -29.3950  -12.5610   18.1320 C   0  0  0  0  0  2  0  0  0  0  0  0
  -27.9240  -12.4240   18.5730 C   0  0  0  0  0  2  0  0  0  0  0  0
  -27.6080  -13.2290   19.8610 C   0  0  0  0  0  3  0  0  0  0  0  0
  -28.6650  -12.9390   20.9480 C   0  0  0  0  0  2  0  0  0  0  0  0
  -29.9940  -13.2470   20.3880 N   0  0  0  0  0  0  0  0  0  0  0  0
  -31.7450  -14.6650   20.0040 O   0  0  0  0  0  0  0  0  0  0  0  0
  -30.1070  -15.2610   21.4260 N   0  0  0  0  0  0  0  0  0  0  0  0
  -29.2440  -14.9620   21.8540 H   0  0  0  0  0  0  0  0  0  0  0  0
  -25.2110  -13.8450   20.5730 C   0  0  0  0  0  0  0  0  0  0  0  0
  -24.1440  -13.0720   20.9470 C   0  0  0  0  0  0  0  0  0  0  0  0
  -24.6030  -11.7220   20.9130 C   0  0  0  0  0  0  0  0  0  0  0  0
  -26.2560  -12.9600   20.3420 N   0  0  0  0  0  0  0  0  0  0  0  0
  -25.8910  -11.6790   20.5990 N   0  0  0  0  0  0  0  0  0  0  0  0
  -23.8770  -10.4580   21.1060 C   0  0  0  0  0  0  0  0  0  0  0  0
  -24.3330   -9.4750   22.0120 C   0  0  0  0  0  3  0  0  0  0  0  0
  -23.6090   -8.2770   22.1930 C   0  0  0  0  0  3  0  0  0  0  0  0
  -22.4130   -8.0550   21.4680 C   0  0  0  0  0  0  0  0  0  0  0  0
  -21.9760   -9.0280   20.5520 C   0  0  0  0  0  3  0  0  0  0  0  0
  -22.7000  -10.2160   20.3700 C   0  0  0  0  0  3  0  0  0  0  0  0
  -21.6590   -6.9120   21.5600 O   0  0  0  0  0  0  0  0  0  0  0  0
  -21.6640   -6.1350   22.6920 C   0  0  0  0  0  0  0  0  0  0  0  0
  -21.3230   -6.6580   23.9570 C   0  0  0  0  0  3  0  0  0  0  0  0
  -21.2740   -5.8100   25.0800 C   0  0  0  0  0  3  0  0  0  0  0  0
  -21.5520   -4.4370   24.9400 C   0  0  0  0  0  0  0  0  0  0  0  0
  -21.8870   -3.9120   23.6790 C   0  0  0  0  0  3  0  0  0  0  0  0
  -21.9380   -4.7580   22.5570 C   0  0  0  0  0  0  0  0  0  0  0  0
  -22.2380   -4.2430   21.3410 F   0  0  0  0  0  0  0  0  0  0  0  0
  -21.4980   -3.6200   26.0170 F   0  0  0  0  0  0  0  0  0  0  0  0
  -22.7470  -13.5510   21.2270 C   0  0  0  0  0  0  0  0  0  0  0  0
  -22.0250  -12.8550   22.0980 N   0  0  0  0  0  0  0  0  0  0  0  0
  -22.3050  -14.5760   20.7100 O   0  0  0  0  0  0  0  0  0  0  0  0
  -22.3920  -12.0250   22.5380 H   0  0  0  0  0  0  0  0  0  0  0  0
  -21.0870  -13.1550   22.3270 H   0  0  0  0  0  0  0  0  0  0  0  0
  -25.3780  -15.2140   20.3980 N   0  0  0  0  0  0  0  0  0  0  0  0
  -24.6140  -15.8730   20.5090 H   0  0  0  0  0  0  0  0  0  0  0  0
  -26.2330  -15.6500   20.0780 H   0  0  0  0  0  0  0  0  0  0  0  0
  1 48  1  0
  1 51  1  0
  2  1  1  0
  2  4  1  0
  2  5  1  0
  3  2  1  0
  6  5  1  0
  6  7  1  0
  8 19  2  0
  9  7  1  0
  9 14  1  0
 10 18  1  0
 10 20  1  0
 11 17  1  0
 11 13  1  0
 12 18  1  0
 13 12  1  0
 14 13  2  0
 15 16  1  0
 15  9  2  0
 16 11  2  0
 17 10  1  0
 18  8  1  0
 20 22  2  0
 21 20  1  0
 23 21  1  0
 24 33  2  0
 24 29  1  0
 25 21  1  0
 25 29  1  0
 26 25  1  0
 27 28  1  0
 27 26  1  0
 28 24  1  0
 29 30  2  0
 30 31  1  0
 32 31  2  0
 33 32  1  0
 34  8  1  0
 34 39  1  0
 34 35  1  0
 35 38  1  1
 35 36  1  0
 37 35  1  0
 39 42  1  0
 40 44  1  0
 40 39  1  0
 41 40  2  0
 44 43  1  0
 46 44  1  0
 46 47  1  0
 46 45  1  0
 49 48  1  0
 50 49  1  0
 52 51  1  0
 52 53  1  0
 54 53  1  0
 54 55  1  0
 56 64  1  0
 57 62  1  0
 58 59  1  0
 58 57  1  0
 60 59  1  0
 60 69  1  0
 60 61  1  0
 62 56  1  0
 62 61  1  0
 63 56  2  0
 64 55  1  0
 64 65  1  0
 66 67  2  0
 67 86  1  0
 68 67  1  0
 68 71  1  0
 69 66  1  0
 69 70  1  0
 70 68  2  0
 71 72  1  0
 72 73  2  0
 74 77  1  0
 74 73  1  0
 75 74  2  0
 76 75  1  0
 76 71  2  0
 77 78  1  0
 78 79  1  0
 79 80  2  0
 81 80  1  0
 81 85  1  0
 82 81  2  0
 83 78  2  0
 83 82  1  0
 84 83  1  0
 86 87  1  0
 87 90  1  0
 87 89  1  0
 88 86  2  0
 91 92  1  0
 91 66  1  0
 93 91  1  0
M  ISO  4   6 101   7 101  56 100  64 100
M  END
>  <TORSDO>  (13) 
F 26

>  <SCORE>  (13) 
-11.951

>  <name>  (13) 
12

>  <ligand_id>  (13) 
12

>  <original_smiles>  (13) 
[H]OC([H])([H])C([H])(C([H])([H])C([H])([H])C([H])([H])C([H])([H])C([H])([H])N([H])C(=O)N1C([H])([H])C([H])([H])C([H])([H])C([H])(n2nc(-c3c([H])c([H])c(Oc4c([H])c([H])c(F)c([H])c4F)c([H])c3[H])c(C(=O)N([H])[H])c2N([H])[H])C1([H])[H])[N+]([H])([H])C([H])([H])C([H])([H])Oc1c([H])c([H])c2c(c1[H])C([H])([H])N(C(=O)C([H])(N([H])C(=O)C([H])(N([H])C([H])([H])[H])C([H])([H])[H])C(C([H])([H])[H])(C([H])([H])[H])C([H])([H])[H])C([H])(C(=O)N([H])C1([H])c3c([H])c([H])c([H])c([H])c3C([H])([H])C([H])([H])C1([H])[H])C2([H])[H]

>  <smiles>  (13) 
[H]OC([H])([H])C([H])(C([H])([H])C([H])([H])C([H])([H])C([H])([H])C([H])([H])N([H])C(=O)N1C([H])([H])C([H])([H])C([H])([H])C([H])(n2nc(-c3c([H])c([H])c(Oc4c([H])c([H])c(F)c([H])c4F)c([H])c3[H])c(C(=O)N([H])[H])c2N([H])[H])C1([H])[H])[N+]([H])([H])C([H])([H])C([H])([H])Oc1c([H])c([H])c2c(c1[H])C([H])([H])N(C(=O)C([H])(N([H])C(=O)C([H])(N([H])C([H])([H])[H])C([H])([H])[H])C(C([H])([H])[H])(C([H])([H])[H])C([H])([H])[H])C([H])(C(=O)N([H])C1([H])c3c([H])c([H])c([H])c([H])c3C([H])([H])C([H])([H])C1([H])[H])C2([H])[H]

$$$$
13:0:0
     RDKit          3D

 95103  0  0  1  0  0  0  0  0999 V2000
  -33.5390  -26.3350   19.3740 C   0  0  0  0  0  3  0  0  0  0  0  0
  -32.8440  -25.4420   20.2120 C   0  0  0  0  0  3  0  0  0  0  0  0
  -32.8270  -27.2180   18.5420 C   0  0  0  0  0  3  0  0  0  0  0  0
  -30.7250  -26.3300   19.3960 C   0  0  0  0  0  3  0  0  0  0  0  0
  -31.4320  -25.4130   20.2130 C   0  0  0  0  0  0  0  0  0  0  0  0
  -31.4160  -27.2230   18.5490 C   0  0  0  0  0  0  0  0  0  0  0  0
  -30.7240  -24.4370   21.0910 C   0  0  0  0  0  0  0  0  0  0  0  0
  -31.2180  -23.9890   22.1310 O   0  0  0  0  0  0  0  0  0  0  0  0
  -29.3390  -23.9500   20.6410 C   0  0  0  0  0  2  0  0  0  0  0  0
  -28.9160  -22.5850   21.2270 C   0  0  0  0  0  2  0  0  0  0  0  0
  -29.7680  -21.4020   20.7300 C   0  0  0  0  0  2  0  0  0  0  0  0
  -29.3920  -20.0730   21.4050 C   0  0  0  0  0  2  0  0  0  0  0  0
  -30.2350  -18.8960   20.8880 C   0  0  0  0  0  2  0  0  0  0  0  0
  -29.7870  -17.5360   21.4470 C   0  0  0  0  0  2  0  0  0  0  0  0
  -30.5380  -16.3680   20.7870 C   0  0  0  0  0  2  0  0  0  0  0  0
  -29.9580  -14.9790   21.1330 C   0  0  0  0  0  2  0  0  0  0  0  0
  -30.5150  -13.8440   20.2540 C   0  0  0  0  0  0  0  0  0  0  0  0
  -30.1800  -11.6470   19.1720 C   0  0  0  0  0  2  0  0  0  0  0  0
  -29.1610  -11.7710   18.0240 C   0  0  0  0  0  2  0  0  0  0  0  0
  -27.7210  -11.6260   18.5510 C   0  0  0  0  0  2  0  0  0  0  0  0
  -27.4410  -12.5250   19.7840 C   0  0  0  0  0  3  0  0  0  0  0  0
  -28.5630  -12.3750   20.8350 C   0  0  0  0  0  2  0  0  0  0  0  0
  -29.8480  -12.6640   20.1790 N   0  0  0  0  0  0  0  0  0  0  0  0
  -31.5380  -14.0600   19.5940 O   0  0  0  0  0  0  0  0  0  0  0  0
  -25.1110  -13.1330   20.7050 C   0  0  0  0  0  0  0  0  0  0  0  0
  -24.0620  -12.3570   21.1200 C   0  0  0  0  0  0  0  0  0  0  0  0
  -24.4960  -11.0030   20.9900 C   0  0  0  0  0  0  0  0  0  0  0  0
  -26.1220  -12.2510   20.3550 N   0  0  0  0  0  0  0  0  0  0  0  0
  -25.7560  -10.9620   20.5790 N   0  0  0  0  0  0  0  0  0  0  0  0
  -23.7640   -9.7440   21.1780 C   0  0  0  0  0  0  0  0  0  0  0  0
  -24.2180   -8.7550   22.0780 C   0  0  0  0  0  3  0  0  0  0  0  0
  -23.4890   -7.5600   22.2550 C   0  0  0  0  0  3  0  0  0  0  0  0
  -22.2920   -7.3450   21.5310 C   0  0  0  0  0  0  0  0  0  0  0  0
  -21.8580   -8.3220   20.6170 C   0  0  0  0  0  3  0  0  0  0  0  0
  -22.5880   -9.5090   20.4390 C   0  0  0  0  0  3  0  0  0  0  0  0
  -21.5310   -6.2040   21.6190 O   0  0  0  0  0  0  0  0  0  0  0  0
  -21.4660   -5.4700   22.7760 C   0  0  0  0  0  0  0  0  0  0  0  0
  -21.0030   -6.0280   23.9880 C   0  0  0  0  0  3  0  0  0  0  0  0
  -20.8860   -5.2200   25.1360 C   0  0  0  0  0  3  0  0  0  0  0  0
  -21.2220   -3.8540   25.0740 C   0  0  0  0  0  0  0  0  0  0  0  0
  -21.6780   -3.2950   23.8670 C   0  0  0  0  0  3  0  0  0  0  0  0
  -21.7960   -4.1010   22.7210 C   0  0  0  0  0  0  0  0  0  0  0  0
  -22.2140   -3.5520   21.5540 F   0  0  0  0  0  0  0  0  0  0  0  0
  -21.1030   -3.0750   26.1740 F   0  0  0  0  0  0  0  0  0  0  0  0
  -22.6980  -12.8380   21.5270 C   0  0  0  0  0  0  0  0  0  0  0  0
  -22.0300  -12.1090   22.4160 N   0  0  0  0  0  0  0  0  0  0  0  0
  -22.2350  -13.8930   21.0950 O   0  0  0  0  0  0  0  0  0  0  0  0
  -22.4210  -11.2540   22.7870 H   0  0  0  0  0  0  0  0  0  0  0  0
  -21.1180  -12.4060   22.7290 H   0  0  0  0  0  0  0  0  0  0  0  0
  -25.2810  -14.5100   20.5810 N   0  0  0  0  0  0  0  0  0  0  0  0
  -24.5360  -15.1680   20.7800 H   0  0  0  0  0  0  0  0  0  0  0  0
  -26.1140  -14.9560   20.2190 H   0  0  0  0  0  0  0  0  0  0  0  0
  -30.6560  -28.1870   17.6440 C   0  0  0  0  0  2  0  0  0  0  0  0
  -29.4660  -27.5470   16.9040 C   0  0  0  0  0  2  0  0  0  0  0  0
  -28.6470  -26.7770   17.7850 O   0  0  0  0  0  0  0  0  0  0  0  0
  -24.5720  -30.4050   22.3690 C   0  0  0  0  0  0  0  0  0  0  0  0
  -27.4340  -27.3540   18.0620 C   0  0  0  0  0  0  0  0  0  0  0  0
  -23.4170  -29.4830   20.3850 C   0  0  0  0  0  3  0  0  0  0  0  0
  -24.9340  -28.5580   18.5530 C   0  0  0  0  0  0  0  0  0  0  0  0
  -25.9000  -30.0770   20.2900 C   0  0  0  0  0  2  0  0  0  0  0  0
  -26.0640  -28.9730   19.2690 C   0  0  0  0  0  0  0  0  0  0  0  0
  -27.3170  -28.3710   19.0320 C   0  0  0  0  0  3  0  0  0  0  0  0
  -26.2890  -26.9260   17.3610 C   0  0  0  0  0  3  0  0  0  0  0  0
  -25.0370  -27.5280   17.6000 C   0  0  0  0  0  3  0  0  0  0  0  0
  -23.6330  -29.2670   18.8610 C   0  0  0  0  0  2  0  0  0  0  0  0
  -24.6480  -29.9850   21.0760 N   0  0  0  0  0  0  0  0  0  0  0  0
  -23.4920  -30.4180   22.9760 O   0  0  0  0  0  0  0  0  0  0  0  0
  -22.8640  -28.1730   20.9930 C   0  0  0  0  0  0  0  0  0  0  0  0
  -21.5370  -27.9900   20.9110 N   0  0  0  0  0  0  0  0  0  0  0  0
  -23.6230  -27.3410   21.4980 O   0  0  0  0  0  0  0  0  0  0  0  0
  -20.9840  -28.7210   20.4880 H   0  0  0  0  0  0  0  0  0  0  0  0
  -18.2250  -26.6190   21.3440 C   0  0  0  0  0  0  0  0  0  0  0  0
  -20.8010  -26.8180   21.3800 C   0  0  0  0  0  3  0  0  0  0  0  0
  -20.8010  -25.6970   20.3150 C   0  0  0  0  0  2  0  0  0  0  0  0
  -19.5780  -25.7410   19.3940 C   0  0  0  0  0  2  0  0  0  0  0  0
  -18.2870  -25.6130   20.2080 C   0  0  0  0  0  2  0  0  0  0  0  0
  -19.4030  -27.1970   21.8840 C   0  0  0  0  0  0  0  0  0  0  0  0
  -19.2870  -28.1550   22.9150 C   0  0  0  0  0  3  0  0  0  0  0  0
  -18.0240  -28.5330   23.4070 C   0  0  0  0  0  3  0  0  0  0  0  0
  -16.8610  -27.9450   22.8790 C   0  0  0  0  0  3  0  0  0  0  0  0
  -16.9630  -26.9890   21.8530 C   0  0  0  0  0  3  0  0  0  0  0  0
  -25.8320  -30.9090   23.1420 C   0  0  0  0  0  3  0  0  0  0  0  0
  -26.3680  -29.8690   24.2000 C   0  0  1  0  0  0  0  0  0  0  0  0
  -25.2820  -29.3550   25.1740 C   0  0  0  0  0  1  0  0  0  0  0  0
  -26.9870  -28.6430   23.4910 C   0  0  0  0  0  1  0  0  0  0  0  0
  -27.4950  -30.5110   25.0430 C   0  0  0  0  0  1  0  0  0  0  0  0
  -25.4740  -32.1760   23.7920 N   0  0  0  0  0  0  0  0  0  0  0  0
  -25.7850  -33.3890   23.3140 C   0  0  0  0  0  0  0  0  0  0  0  0
  -26.4720  -33.5560   22.3030 O   0  0  0  0  0  0  0  0  0  0  0  0
  -24.8680  -32.1170   24.5960 H   0  0  0  0  0  0  0  0  0  0  0  0
  -24.0040  -35.1610   23.3560 C   0  0  0  0  0  1  0  0  0  0  0  0
  -25.2450  -34.6120   24.0780 C   0  0  0  0  0  3  0  0  0  0  0  0
  -27.3360  -35.3300   25.1450 C   0  0  0  0  0  1  0  0  0  0  0  0
  -26.2450  -35.6900   24.2440 N   0  0  0  0  0  0  0  0  0  0  0  0
  -25.8070  -36.5360   24.6000 H   0  0  0  0  0  0  0  0  0  0  0  0
  1  2  1  0
  2  5  2  0
  3  6  1  0
  3  1  2  0
  4  5  1  0
  5  7  1  0
  6  4  2  0
  7  8  2  0
  9  7  1  0
  9 10  1  0
 11 10  1  0
 11 12  1  0
 13 12  1  0
 13 14  1  0
 15 16  1  0
 15 14  1  0
 17 16  1  0
 18 23  1  0
 19 20  1  0
 19 18  1  0
 21 20  1  0
 21 28  1  0
 21 22  1  0
 23 17  1  0
 23 22  1  0
 24 17  2  0
 25 26  2  0
 26 45  1  0
 27 26  1  0
 27 30  1  0
 28 29  1  0
 28 25  1  0
 29 27  2  0
 30 31  1  0
 31 32  2  0
 33 36  1  0
 33 32  1  0
 34 33  2  0
 35 34  1  0
 35 30  2  0
 36 37  1  0
 37 38  1  0
 38 39  2  0
 40 39  1  0
 40 44  1  0
 41 40  2  0
 42 37  2  0
 42 41  1  0
 43 42  1  0
 45 46  1  0
 46 49  1  0
 46 48  1  0
 47 45  2  0
 50 25  1  0
 50 51  1  0
 52 50  1  0
 53  6  1  0
 54 53  1  0
 54 55  1  0
 55 57  1  0
 56 67  2  0
 57 62  1  0
 58 68  1  0
 58 66  1  0
 59 65  1  0
 59 61  1  0
 60 66  1  0
 61 60  1  0
 62 61  2  0
 63 64  1  0
 63 57  2  0
 64 59  2  0
 65 58  1  0
 66 56  1  0
 68 70  2  0
 69 68  1  0
 71 69  1  0
 72 81  2  0
 72 77  1  0
 73 69  1  0
 73 77  1  0
 74 73  1  0
 75 76  1  0
 75 74  1  0
 76 72  1  0
 77 78  2  0
 78 79  1  0
 80 79  2  0
 81 80  1  0
 82 56  1  0
 82 87  1  0
 82 83  1  0
 83 86  1  1
 83 84  1  0
 85 83  1  0
 87 90  1  0
 88 87  1  0
 88 92  1  0
 89 88  2  0
 92 91  1  0
 92 94  1  0
 94 95  1  0
 94 93  1  0
M  ISO  4  16 100  17 100  54 101  55 101
M  END
>  <TORSDO>  (14) 
F 27

>  <SCORE>  (14) 
-6.600

>  <name>  (14) 
13

>  <ligand_id>  (14) 
13

>  <original_smiles>  (14) 
[H]c1c([H])c(C(=O)C([H])([H])C([H])([H])C([H])([H])C([H])([H])C([H])([H])C([H])([H])C([H])([H])C([H])([H])C(=O)N2C([H])([H])C([H])([H])C([H])([H])C([H])(n3nc(-c4c([H])c([H])c(Oc5c([H])c([H])c(F)c([H])c5F)c([H])c4[H])c(C(=O)N([H])[H])c3N([H])[H])C2([H])[H])c([H])c(C([H])([H])C([H])([H])Oc2c([H])c([H])c3c(c2[H])C([H])([H])N(C(=O)C([H])(N([H])C(=O)C([H])(N([H])C([H])([H])[H])C([H])([H])[H])C(C([H])([H])[H])(C([H])([H])[H])C([H])([H])[H])C([H])(C(=O)N([H])C2([H])c4c([H])c([H])c([H])c([H])c4C([H])([H])C([H])([H])C2([H])[H])C3([H])[H])c1[H]

>  <smiles>  (14) 
[H]c1c([H])c(C(=O)C([H])([H])C([H])([H])C([H])([H])C([H])([H])C([H])([H])C([H])([H])C([H])([H])C([H])([H])C(=O)N2C([H])([H])C([H])([H])C([H])([H])C([H])(n3nc(-c4c([H])c([H])c(Oc5c([H])c([H])c(F)c([H])c5F)c([H])c4[H])c(C(=O)N([H])[H])c3N([H])[H])C2([H])[H])c([H])c(C([H])([H])C([H])([H])Oc2c([H])c([H])c3c(c2[H])C([H])([H])N(C(=O)C([H])(N([H])C(=O)C([H])(N([H])C([H])([H])[H])C([H])([H])[H])C(C([H])([H])[H])(C([H])([H])[H])C([H])([H])[H])C([H])(C(=O)N([H])C2([H])c4c([H])c([H])c([H])c([H])c4C([H])([H])C([H])([H])C2([H])[H])C3([H])[H])c1[H]

$$$$
14:0:0
     RDKit          3D

 95103  0  0  1  0  0  0  0  0999 V2000
  -31.9520  -25.5190   20.8430 C   0  0  0  0  0  3  0  0  0  0  0  0
  -32.5620  -26.7790   20.9890 C   0  0  0  0  0  3  0  0  0  0  0  0
  -32.1690  -24.7570   19.6810 C   0  0  0  0  0  3  0  0  0  0  0  0
  -33.4190  -27.2880   19.9890 C   0  0  0  0  0  0  0  0  0  0  0  0
  -32.9960  -25.2570   18.6550 C   0  0  0  0  0  0  0  0  0  0  0  0
  -33.6210  -26.5230   18.8060 C   0  0  0  0  0  0  0  0  0  0  0  0
  -34.4430  -26.9740   17.8060 O   0  0  0  0  0  0  0  0  0  0  0  0
  -34.6910  -27.8900   17.9320 H   0  0  0  0  0  0  0  0  0  0  0  0
  -34.0650  -28.6270   20.1870 C   0  0  0  0  0  0  0  0  0  0  0  0
  -34.3240  -29.3930   19.2510 O   0  0  0  0  0  0  0  0  0  0  0  0
  -34.4500  -29.0110   21.6250 C   0  0  0  0  0  2  0  0  0  0  0  0
  -34.1310  -27.9510   22.7060 C   0  0  0  0  0  2  0  0  0  0  0  0
  -32.9490  -28.3210   23.6340 C   0  0  0  0  0  2  0  0  0  0  0  0
  -31.8820  -29.1890   22.9330 C   0  0  0  0  0  2  0  0  0  0  0  0
  -30.4860  -28.5230   22.9320 C   0  0  0  0  0  3  0  0  0  0  0  0
  -30.0990  -27.7980   24.2440 C   0  0  0  0  0  3  0  0  0  0  0  0
  -28.5870  -27.5310   24.4550 C   0  0  0  0  0  0  0  0  0  0  0  0
  -26.6180  -28.2020   25.7920 C   0  0  0  0  0  2  0  0  0  0  0  0
  -25.3520  -28.5910   25.0120 C   0  0  0  0  0  2  0  0  0  0  0  0
  -25.3970  -30.0770   24.6230 C   0  0  0  0  0  2  0  0  0  0  0  0
  -26.7270  -30.4490   23.9210 C   0  0  0  0  0  3  0  0  0  0  0  0
  -27.9480  -29.9550   24.7280 C   0  0  0  0  0  2  0  0  0  0  0  0
  -27.8070  -28.5100   24.9820 N   0  0  0  0  0  0  0  0  0  0  0  0
  -28.1830  -26.3710   24.3240 O   0  0  0  0  0  0  0  0  0  0  0  0
  -25.8420  -32.8700   23.8470 C   0  0  0  0  0  0  0  0  0  0  0  0
  -26.4450  -34.0530   23.5070 C   0  0  0  0  0  0  0  0  0  0  0  0
  -27.7770  -33.7180   23.1150 C   0  0  0  0  0  0  0  0  0  0  0  0
  -26.8010  -31.8860   23.6530 N   0  0  0  0  0  0  0  0  0  0  0  0
  -27.9550  -32.4040   23.1570 N   0  0  0  0  0  0  0  0  0  0  0  0
  -28.9120  -34.5780   22.7560 C   0  0  0  0  0  0  0  0  0  0  0  0
  -30.0120  -34.0810   22.0230 C   0  0  0  0  0  3  0  0  0  0  0  0
  -31.0840  -34.9330   21.6760 C   0  0  0  0  0  3  0  0  0  0  0  0
  -31.0610  -36.2940   22.0600 C   0  0  0  0  0  0  0  0  0  0  0  0
  -29.9740  -36.7780   22.8090 C   0  0  0  0  0  3  0  0  0  0  0  0
  -28.9110  -35.9290   23.1570 C   0  0  0  0  0  3  0  0  0  0  0  0
  -32.0690  -37.1880   21.7910 O   0  0  0  0  0  0  0  0  0  0  0  0
  -33.3440  -36.7700   21.5020 C   0  0  0  0  0  0  0  0  0  0  0  0
  -33.5980  -35.5260   20.8860 C   0  0  0  0  0  3  0  0  0  0  0  0
  -34.9160  -35.1660   20.5430 C   0  0  0  0  0  3  0  0  0  0  0  0
  -35.9790  -36.0490   20.8080 C   0  0  0  0  0  0  0  0  0  0  0  0
  -35.7270  -37.2920   21.4150 C   0  0  0  0  0  3  0  0  0  0  0  0
  -34.4120  -37.6520   21.7600 C   0  0  0  0  0  0  0  0  0  0  0  0
  -34.1730  -38.8590   22.3260 F   0  0  0  0  0  0  0  0  0  0  0  0
  -37.2460  -35.7090   20.4710 F   0  0  0  0  0  0  0  0  0  0  0  0
  -25.8500  -35.4260   23.6270 C   0  0  0  0  0  0  0  0  0  0  0  0
  -26.1340  -36.3050   22.6710 N   0  0  0  0  0  0  0  0  0  0  0  0
  -25.0860  -35.7140   24.5470 O   0  0  0  0  0  0  0  0  0  0  0  0
  -26.7410  -36.0630   21.9020 H   0  0  0  0  0  0  0  0  0  0  0  0
  -25.7350  -37.2320   22.7090 H   0  0  0  0  0  0  0  0  0  0  0  0
  -24.5750  -32.5560   24.3220 N   0  0  0  0  0  0  0  0  0  0  0  0
  -23.8860  -33.2730   24.5230 H   0  0  0  0  0  0  0  0  0  0  0  0
  -24.2570  -31.6230   24.5570 H   0  0  0  0  0  0  0  0  0  0  0  0
  -33.2600  -24.4450   17.3900 C   0  0  0  0  0  2  0  0  0  0  0  0
  -33.1720  -22.9100   17.4680 C   0  0  0  0  0  2  0  0  0  0  0  0
  -31.8210  -22.6620   17.1000 O   0  0  0  0  0  0  0  0  0  0  0  0
  -32.8830  -26.0360   10.8930 C   0  0  0  0  0  0  0  0  0  0  0  0
  -31.3820  -23.0430   15.8620 C   0  0  0  0  0  0  0  0  0  0  0  0
  -30.5970  -25.1740   11.2970 C   0  0  0  0  0  3  0  0  0  0  0  0
  -30.3450  -23.6290   13.3070 C   0  0  0  0  0  0  0  0  0  0  0  0
  -32.6240  -24.0590   12.3780 C   0  0  0  0  0  2  0  0  0  0  0  0
  -31.7270  -23.6890   13.5380 C   0  0  0  0  0  0  0  0  0  0  0  0
  -32.2520  -23.4090   14.8180 C   0  0  0  0  0  3  0  0  0  0  0  0
  -29.9950  -22.9760   15.6200 C   0  0  0  0  0  3  0  0  0  0  0  0
  -29.4670  -23.2830   14.3520 C   0  0  0  0  0  3  0  0  0  0  0  0
  -29.8730  -23.9440   11.9060 C   0  0  0  0  0  2  0  0  0  0  0  0
  -32.0770  -25.1380   11.5260 N   0  0  0  0  0  0  0  0  0  0  0  0
  -32.4180  -26.8620   10.0970 O   0  0  0  0  0  0  0  0  0  0  0  0
  -29.9280  -26.4570   11.8350 C   0  0  0  0  0  0  0  0  0  0  0  0
  -28.5860  -26.4850   11.8120 N   0  0  0  0  0  0  0  0  0  0  0  0
  -30.6050  -27.3860   12.2850 O   0  0  0  0  0  0  0  0  0  0  0  0
  -28.1050  -25.6900   11.4200 H   0  0  0  0  0  0  0  0  0  0  0  0
  -25.1710  -27.3990   12.5490 C   0  0  0  0  0  0  0  0  0  0  0  0
  -27.7370  -27.5730   12.2980 C   0  0  0  0  0  3  0  0  0  0  0  0
  -27.7820  -27.6630   13.8410 C   0  0  0  0  0  2  0  0  0  0  0  0
  -26.6620  -26.8690   14.5230 C   0  0  0  0  0  2  0  0  0  0  0  0
  -25.2900  -27.3700   14.0620 C   0  0  0  0  0  2  0  0  0  0  0  0
  -26.3220  -27.4790   11.7200 C   0  0  0  0  0  0  0  0  0  0  0  0
  -26.1590  -27.4650   10.3190 C   0  0  0  0  0  3  0  0  0  0  0  0
  -24.8770  -27.3850    9.7430 C   0  0  0  0  0  3  0  0  0  0  0  0
  -23.7400  -27.3270   10.5690 C   0  0  0  0  0  3  0  0  0  0  0  0
  -23.8890  -27.3320   11.9670 C   0  0  0  0  0  3  0  0  0  0  0  0
  -34.4260  -26.0540   11.1220 C   0  0  0  0  0  3  0  0  0  0  0  0
  -34.8790  -27.0980   12.2130 C   0  0  1  0  0  0  0  0  0  0  0  0
  -34.4630  -28.5530   11.8940 C   0  0  0  0  0  1  0  0  0  0  0  0
  -34.2900  -26.7280   13.5940 C   0  0  0  0  0  1  0  0  0  0  0  0
  -36.4180  -27.0650   12.3630 C   0  0  0  0  0  1  0  0  0  0  0  0
  -35.0640  -26.3390    9.8300 N   0  0  0  0  0  0  0  0  0  0  0  0
  -35.6750  -25.4230    9.0660 C   0  0  0  0  0  0  0  0  0  0  0  0
  -35.8260  -24.2490    9.4160 O   0  0  0  0  0  0  0  0  0  0  0  0
  -34.9350  -27.2680    9.4590 H   0  0  0  0  0  0  0  0  0  0  0  0
  -35.2710  -25.3630    6.5860 C   0  0  0  0  0  1  0  0  0  0  0  0
  -36.2030  -25.8820    7.6920 C   0  0  0  0  0  3  0  0  0  0  0  0
  -38.5770  -26.1080    8.2740 C   0  0  0  0  0  1  0  0  0  0  0  0
  -37.5920  -25.4490    7.4210 N   0  0  0  0  0  0  0  0  0  0  0  0
  -37.8430  -25.6270    6.4520 H   0  0  0  0  0  0  0  0  0  0  0  0
  1  2  1  0
  3  1  2  0
  4  9  1  0
  4  2  2  0
  5  6  2  0
  5  3  1  0
  6  4  1  0
  7  8  1  0
  7  6  1  0
  9 11  1  0
 10  9  2  0
 11 12  1  0
 12 13  1  0
 14 13  1  0
 15 14  1  0
 15 16  2  0
 16 17  1  0
 17 23  1  0
 19 18  1  0
 20 19  1  0
 21 28  1  0
 21 20  1  0
 21 22  1  0
 22 23  1  0
 23 18  1  0
 24 17  2  0
 25 50  1  0
 26 45  1  0
 26 25  2  0
 27 29  2  0
 27 26  1  0
 28 25  1  0
 29 28  1  0
 30 27  1  0
 30 35  1  0
 31 30  2  0
 32 31  1  0
 32 33  2  0
 33 34  1  0
 34 35  2  0
 36 33  1  0
 37 42  1  0
 37 36  1  0
 38 37  2  0
 39 40  2  0
 39 38  1  0
 40 41  1  0
 41 42  2  0
 42 43  1  0
 44 40  1  0
 45 47  2  0
 46 49  1  0
 46 45  1  0
 48 46  1  0
 50 51  1  0
 50 52  1  0
 53 54  1  0
 53  5  1  0
 55 54  1  0
 56 66  1  0
 57 55  1  0
 58 66  1  0
 58 68  1  0
 58 65  1  0
 59 61  2  0
 59 64  1  0
 60 61  1  0
 61 62  1  0
 62 57  2  0
 63 57  1  0
 64 63  2  0
 65 59  1  0
 66 60  1  0
 67 56  2  0
 68 70  2  0
 69 68  1  0
 71 69  1  0
 72 76  1  0
 73 69  1  0
 73 74  1  0
 74 75  1  0
 76 75  1  0
 77 73  1  0
 77 72  2  0
 78 77  1  0
 79 78  2  0
 79 80  1  0
 80 81  2  0
 81 72  1  0
 82 56  1  0
 82 83  1  0
 83 86  1  1
 83 85  1  0
 84 83  1  0
 87 82  1  0
 88 89  2  0
 88 87  1  0
 90 87  1  0
 92 91  1  0
 92 88  1  0
 94 92  1  0
 94 93  1  0
 95 94  1  0
M  ISO  4  16 100  17 100  54 101  55 101
M  END
>  <TORSDO>  (15) 
F 26

>  <SCORE>  (15) 
-1.481

>  <name>  (15) 
14

>  <ligand_id>  (15) 
14

>  <original_smiles>  (15) 
[H]Oc1c(C(=O)C([H])([H])C([H])([H])C([H])([H])C([H])([H])C([H])([H])C([H])([H])C(=O)N2C([H])([H])C([H])([H])C([H])([H])C([H])(n3nc(-c4c([H])c([H])c(Oc5c([H])c([H])c(F)c([H])c5F)c([H])c4[H])c(C(=O)N([H])[H])c3N([H])[H])C2([H])[H])c([H])c([H])c([H])c1C([H])([H])C([H])([H])Oc1c([H])c([H])c2c(c1[H])C([H])([H])N(C(=O)C([H])(N([H])C(=O)C([H])(N([H])C([H])([H])[H])C([H])([H])[H])C(C([H])([H])[H])(C([H])([H])[H])C([H])([H])[H])C([H])(C(=O)N([H])C1([H])c3c([H])c([H])c([H])c([H])c3C([H])([H])C([H])([H])C1([H])[H])C2([H])[H]

>  <smiles>  (15) 
[H]Oc1c(C(=O)C([H])([H])C([H])([H])C([H])([H])C([H])([H])C([H])([H])C([H])([H])C(=O)N2C([H])([H])C([H])([H])C([H])([H])C([H])(n3nc(-c4c([H])c([H])c(Oc5c([H])c([H])c(F)c([H])c5F)c([H])c4[H])c(C(=O)N([H])[H])c3N([H])[H])C2([H])[H])c([H])c([H])c([H])c1C([H])([H])C([H])([H])Oc1c([H])c([H])c2c(c1[H])C([H])([H])N(C(=O)C([H])(N([H])C(=O)C([H])(N([H])C([H])([H])[H])C([H])([H])[H])C(C([H])([H])[H])(C([H])([H])[H])C([H])([H])[H])C([H])(C(=O)N([H])C1([H])c3c([H])c([H])c([H])c([H])c3C([H])([H])C([H])([H])C1([H])[H])C2([H])[H]

$$$$
15:0:0
     RDKit          3D

 97104  0  0  1  0  0  0  0  0999 V2000
  -25.5630  -24.8990   27.7740 C   0  0  0  0  0  2  0  0  0  0  0  0
  -25.7400  -23.3760   27.6110 C   0  0  0  0  0  2  0  0  0  0  0  0
  -26.6390  -22.9930   26.4230 C   0  0  0  0  0  2  0  0  0  0  0  0
  -26.6320  -21.4910   26.1030 C   0  0  0  0  0  2  0  0  0  0  0  0
  -27.4190  -21.1670   24.8220 C   0  0  0  0  0  2  0  0  0  0  0  0
  -27.3590  -19.6740   24.4600 C   0  0  0  0  0  2  0  0  0  0  0  0
  -28.0800  -19.3340   23.1420 C   0  0  0  0  0  2  0  0  0  0  0  0
  -27.9360  -17.8560   22.7270 C   0  0  0  0  0  2  0  0  0  0  0  0
  -28.7060  -16.8470   23.6020 C   0  0  0  0  0  2  0  0  0  0  0  0
  -30.2430  -16.8840   23.4490 C   0  0  0  0  0  2  0  0  0  0  0  0
  -30.7790  -16.4580   22.0670 C   0  0  0  0  0  2  0  0  0  0  0  0
  -30.7570  -14.3700   20.6910 C   0  0  0  0  0  0  0  0  0  0  0  0
  -30.4210  -12.2930   19.3980 C   0  0  0  0  0  2  0  0  0  0  0  0
  -29.4900  -12.5310   18.1950 C   0  0  0  0  0  2  0  0  0  0  0  0
  -28.0150  -12.3820   18.6110 C   0  0  0  0  0  2  0  0  0  0  0  0
  -27.6690  -13.2010   19.8830 C   0  0  0  0  0  3  0  0  0  0  0  0
  -28.7060  -12.9370   20.9970 C   0  0  0  0  0  2  0  0  0  0  0  0
  -30.0510  -13.2330   20.4660 N   0  0  0  0  0  0  0  0  0  0  0  0
  -31.7760  -14.6780   20.0630 O   0  0  0  0  0  0  0  0  0  0  0  0
  -30.2760  -15.1460   21.6720 N   0  0  0  0  0  0  0  0  0  0  0  0
  -29.4580  -14.8010   22.1510 H   0  0  0  0  0  0  0  0  0  0  0  0
  -25.2620  -13.8140   20.5690 C   0  0  0  0  0  0  0  0  0  0  0  0
  -24.1860  -13.0430   20.9160 C   0  0  0  0  0  0  0  0  0  0  0  0
  -24.6390  -11.6890   20.8710 C   0  0  0  0  0  0  0  0  0  0  0  0
  -26.3060  -12.9310   20.3390 N   0  0  0  0  0  0  0  0  0  0  0  0
  -25.9320  -11.6470   20.5740 N   0  0  0  0  0  0  0  0  0  0  0  0
  -23.9050  -10.4280   21.0370 C   0  0  0  0  0  0  0  0  0  0  0  0
  -24.3600   -9.4210   21.9160 C   0  0  0  0  0  3  0  0  0  0  0  0
  -23.6290   -8.2240   22.0750 C   0  0  0  0  0  3  0  0  0  0  0  0
  -22.4270   -8.0260   21.3540 C   0  0  0  0  0  0  0  0  0  0  0  0
  -21.9890   -9.0230   20.4640 C   0  0  0  0  0  3  0  0  0  0  0  0
  -22.7210  -10.2110   20.3040 C   0  0  0  0  0  3  0  0  0  0  0  0
  -21.6650   -6.8850   21.4230 O   0  0  0  0  0  0  0  0  0  0  0  0
  -21.6860   -6.0720   22.5270 C   0  0  0  0  0  0  0  0  0  0  0  0
  -21.4020   -6.5630   23.8200 C   0  0  0  0  0  3  0  0  0  0  0  0
  -21.3670   -5.6790   24.9160 C   0  0  0  0  0  3  0  0  0  0  0  0
  -21.6050   -4.3050   24.7220 C   0  0  0  0  0  0  0  0  0  0  0  0
  -21.8820   -3.8140   23.4340 C   0  0  0  0  0  3  0  0  0  0  0  0
  -21.9200   -4.6950   22.3400 C   0  0  0  0  0  0  0  0  0  0  0  0
  -22.1660   -4.2130   21.0980 F   0  0  0  0  0  0  0  0  0  0  0  0
  -21.5640   -3.4530   25.7740 F   0  0  0  0  0  0  0  0  0  0  0  0
  -22.7870  -13.5230   21.1830 C   0  0  0  0  0  0  0  0  0  0  0  0
  -22.0520  -12.8210   22.0390 N   0  0  0  0  0  0  0  0  0  0  0  0
  -22.3560  -14.5540   20.6690 O   0  0  0  0  0  0  0  0  0  0  0  0
  -22.4140  -11.9880   22.4800 H   0  0  0  0  0  0  0  0  0  0  0  0
  -21.1130  -13.1230   22.2590 H   0  0  0  0  0  0  0  0  0  0  0  0
  -25.4320  -15.1870   20.4130 N   0  0  0  0  0  0  0  0  0  0  0  0
  -24.6660  -15.8410   20.5400 H   0  0  0  0  0  0  0  0  0  0  0  0
  -26.2930  -15.6340   20.1250 H   0  0  0  0  0  0  0  0  0  0  0  0
  -24.2700  -25.4670   27.1530 C   0  0  0  0  0  2  0  0  0  0  0  0
  -24.1560  -25.3550   25.6230 C   0  0  0  0  0  2  0  0  0  0  0  0
  -25.2180  -26.1570   24.8960 C   0  0  0  0  0  3  0  0  0  0  0  0
  -25.9880  -25.6810   23.9050 C   0  0  0  0  0  3  0  0  0  0  0  0
  -27.0320  -26.5100   23.1900 C   0  0  0  0  0  2  0  0  0  0  0  0
  -28.0340  -25.6770   22.3590 C   0  0  0  0  0  2  0  0  0  0  0  0
  -28.9440  -26.4970   21.4110 C   0  0  0  0  0  2  0  0  0  0  0  0
  -28.3690  -26.7060   20.1160 O   0  0  0  0  0  0  0  0  0  0  0  0
  -24.6030  -31.8720   23.2130 C   0  0  0  0  0  0  0  0  0  0  0  0
  -27.2450  -27.4910   20.0920 C   0  0  0  0  0  0  0  0  0  0  0  0
  -23.3920  -30.4880   21.5550 C   0  0  0  0  0  3  0  0  0  0  0  0
  -24.8460  -28.9670   20.1140 C   0  0  0  0  0  0  0  0  0  0  0  0
  -25.9130  -30.8590   21.3540 C   0  0  0  0  0  2  0  0  0  0  0  0
  -26.0020  -29.5010   20.6980 C   0  0  0  0  0  0  0  0  0  0  0  0
  -27.2100  -28.7770   20.6760 C   0  0  0  0  0  3  0  0  0  0  0  0
  -26.0840  -26.9690   19.4890 C   0  0  0  0  0  3  0  0  0  0  0  0
  -24.8820  -27.7010   19.5020 C   0  0  0  0  0  3  0  0  0  0  0  0
  -23.5980  -29.8150   20.1710 C   0  0  0  0  0  2  0  0  0  0  0  0
  -24.6550  -31.0860   22.1010 N   0  0  0  0  0  0  0  0  0  0  0  0
  -23.5230  -32.1440   23.7540 O   0  0  0  0  0  0  0  0  0  0  0  0
  -22.7390  -29.4630   22.5060 C   0  0  0  0  0  0  0  0  0  0  0  0
  -21.4120  -29.2960   22.3810 N   0  0  0  0  0  0  0  0  0  0  0  0
  -23.4190  -28.8210   23.3100 O   0  0  0  0  0  0  0  0  0  0  0  0
  -20.9260  -29.8590   21.6980 H   0  0  0  0  0  0  0  0  0  0  0  0
  -18.0280  -28.1350   22.8520 C   0  0  0  0  0  0  0  0  0  0  0  0
  -20.5870  -28.3590   23.1400 C   0  0  0  0  0  3  0  0  0  0  0  0
  -20.6780  -26.9340   22.5450 C   0  0  0  0  0  2  0  0  0  0  0  0
  -19.5770  -26.6380   21.5230 C   0  0  0  0  0  2  0  0  0  0  0  0
  -18.1940  -26.7910   22.1620 C   0  0  0  0  0  2  0  0  0  0  0  0
  -19.1530  -28.8780   23.2970 C   0  0  0  0  0  0  0  0  0  0  0  0
  -18.9460  -30.1400   23.8960 C   0  0  0  0  0  3  0  0  0  0  0  0
  -17.6470  -30.6560   24.0580 C   0  0  0  0  0  3  0  0  0  0  0  0
  -16.5360  -29.9080   23.6320 C   0  0  0  0  0  3  0  0  0  0  0  0
  -16.7270  -28.6480   23.0370 C   0  0  0  0  0  3  0  0  0  0  0  0
  -25.8930  -32.4870   23.8440 C   0  0  0  0  0  3  0  0  0  0  0  0
  -25.5830  -33.8680   24.2360 N   0  0  0  0  0  0  0  0  0  0  0  0
  -25.9030  -34.9520   23.5160 C   0  0  0  0  0  0  0  0  0  0  0  0
  -26.5620  -34.8950   22.4740 O   0  0  0  0  0  0  0  0  0  0  0  0
  -25.0000  -33.9910   25.0510 H   0  0  0  0  0  0  0  0  0  0  0  0
  -24.1480  -36.7320   23.2630 C   0  0  0  0  0  1  0  0  0  0  0  0
  -25.4120  -36.3170   24.0330 C   0  0  0  0  0  3  0  0  0  0  0  0
  -27.5610  -37.1830   24.8470 C   0  0  0  0  0  1  0  0  0  0  0  0
  -26.4330  -37.3840   23.9400 N   0  0  0  0  0  0  0  0  0  0  0  0
  -26.0240  -38.2930   24.1420 H   0  0  0  0  0  0  0  0  0  0  0  0
  -26.4380  -31.6620   25.0740 C   0  0  1  0  0  0  0  0  0  0  0  0
  -25.3620  -31.3730   26.1470 C   0  0  0  0  0  1  0  0  0  0  0  0
  -27.0170  -30.3070   24.6040 C   0  0  0  0  0  1  0  0  0  0  0  0
  -27.6010  -32.4310   25.7460 C   0  0  0  0  0  1  0  0  0  0  0  0
  2  1  1  0
  3  2  1  0
  4  3  1  0
  5  4  1  0
  6  5  1  0
  7  6  1  0
  8  7  1  0
  8  9  1  0
 10  9  1  0
 11 10  1  0
 12 20  1  0
 13 18  1  0
 14 15  1  0
 14 13  1  0
 16 15  1  0
 16 25  1  0
 16 17  1  0
 18 12  1  0
 18 17  1  0
 19 12  2  0
 20 11  1  0
 20 21  1  0
 22 23  2  0
 23 42  1  0
 24 23  1  0
 24 27  1  0
 25 22  1  0
 25 26  1  0
 26 24  2  0
 27 28  1  0
 28 29  2  0
 30 33  1  0
 30 29  1  0
 31 30  2  0
 32 31  1  0
 32 27  2  0
 33 34  1  0
 34 35  1  0
 35 36  2  0
 37 36  1  0
 37 41  1  0
 38 37  2  0
 39 34  2  0
 39 38  1  0
 40 39  1  0
 42 43  1  0
 43 46  1  0
 43 45  1  0
 44 42  2  0
 47 48  1  0
 47 22  1  0
 49 47  1  0
 50  1  1  0
 51 50  1  0
 52 51  1  0
 53 52  2  0
 54 53  1  0
 55 54  1  0
 56 55  1  0
 57 56  1  0
 58 69  2  0
 59 57  1  0
 59 64  1  0
 60 68  1  0
 60 70  1  0
 61 67  1  0
 61 63  1  0
 62 68  1  0
 63 62  1  0
 64 63  2  0
 65 66  1  0
 65 59  2  0
 66 61  2  0
 67 60  1  0
 68 58  1  0
 70 72  2  0
 71 70  1  0
 73 71  1  0
 74 83  2  0
 74 79  1  0
 75 71  1  0
 75 79  1  0
 76 75  1  0
 77 78  1  0
 77 76  1  0
 78 74  1  0
 79 80  2  0
 80 81  1  0
 82 81  2  0
 83 82  1  0
 84 58  1  0
 84 85  1  0
 84 94  1  0
 85 88  1  0
 86 90  1  0
 86 85  1  0
 87 86  2  0
 90 89  1  0
 92 90  1  0
 92 93  1  0
 92 91  1  0
 94 97  1  1
 94 95  1  0
 96 94  1  0
M  ISO  4  12 100  20 100  56 101  57 101
M  END
>  <TORSDO>  (16) 
F 32

>  <SCORE>  (16) 
36.488

>  <name>  (16) 
15

>  <ligand_id>  (16) 
15

>  <original_smiles>  (16) 
[H]C(=C([H])C([H])([H])C([H])([H])C([H])([H])C([H])([H])C([H])([H])C([H])([H])C([H])([H])C([H])([H])C([H])([H])C([H])([H])C([H])([H])C([H])([H])C([H])([H])N([H])C(=O)N1C([H])([H])C([H])([H])C([H])([H])C([H])(n2nc(-c3c([H])c([H])c(Oc4c([H])c([H])c(F)c([H])c4F)c([H])c3[H])c(C(=O)N([H])[H])c2N([H])[H])C1([H])[H])C([H])([H])C([H])([H])C([H])([H])Oc1c([H])c([H])c2c(c1[H])C([H])([H])N(C(=O)C([H])(N([H])C(=O)C([H])(N([H])C([H])([H])[H])C([H])([H])[H])C(C([H])([H])[H])(C([H])([H])[H])C([H])([H])[H])C([H])(C(=O)N([H])C1([H])c3c([H])c([H])c([H])c([H])c3C([H])([H])C([H])([H])C1([H])[H])C2([H])[H]

>  <smiles>  (16) 
[H]C(=C([H])C([H])([H])C([H])([H])C([H])([H])C([H])([H])C([H])([H])C([H])([H])C([H])([H])C([H])([H])C([H])([H])C([H])([H])C([H])([H])C([H])([H])C([H])([H])N([H])C(=O)N1C([H])([H])C([H])([H])C([H])([H])C([H])(n2nc(-c3c([H])c([H])c(Oc4c([H])c([H])c(F)c([H])c4F)c([H])c3[H])c(C(=O)N([H])[H])c2N([H])[H])C1([H])[H])C([H])([H])C([H])([H])C([H])([H])Oc1c([H])c([H])c2c(c1[H])C([H])([H])N(C(=O)C([H])(N([H])C(=O)C([H])(N([H])C([H])([H])[H])C([H])([H])[H])C(C([H])([H])[H])(C([H])([H])[H])C([H])([H])[H])C([H])(C(=O)N([H])C1([H])c3c([H])c([H])c([H])c([H])c3C([H])([H])C([H])([H])C1([H])[H])C2([H])[H]

$$$$
16:0:0
     RDKit          3D

 93100  0  0  1  0  0  0  0  0999 V2000
  -23.8480  -22.3120   21.9300 C   0  0  0  0  0  2  0  0  0  0  0  0
  -24.0370  -23.6810   21.2520 C   0  0  0  0  0  2  0  0  0  0  0  0
  -25.4650  -24.2510   21.3440 C   0  0  0  0  0  2  0  0  0  0  0  0
  -26.5520  -23.4930   20.5390 C   0  0  0  0  0  2  0  0  0  0  0  0
  -27.7340  -24.3260   19.9690 C   0  0  0  0  0  2  0  0  0  0  0  0
  -28.2410  -25.5050   20.8310 C   0  0  0  0  0  2  0  0  0  0  0  0
  -28.3640  -26.7210   20.0840 O   0  0  0  0  0  0  0  0  0  0  0  0
  -24.6140  -31.8730   23.2160 C   0  0  0  0  0  0  0  0  0  0  0  0
  -27.2180  -27.4800   20.0610 C   0  0  0  0  0  0  0  0  0  0  0  0
  -23.3950  -30.5060   21.5590 C   0  0  0  0  0  3  0  0  0  0  0  0
  -24.8390  -28.9960   20.1030 C   0  0  0  0  0  0  0  0  0  0  0  0
  -25.9250  -30.8500   21.3680 C   0  0  0  0  0  2  0  0  0  0  0  0
  -26.0000  -29.4930   20.7090 C   0  0  0  0  0  0  0  0  0  0  0  0
  -27.1950  -28.7390   20.6930 C   0  0  0  0  0  3  0  0  0  0  0  0
  -26.0530  -27.0220   19.4060 C   0  0  0  0  0  3  0  0  0  0  0  0
  -24.8580  -27.7540   19.4520 C   0  0  0  0  0  3  0  0  0  0  0  0
  -23.5980  -29.8540   20.1680 C   0  0  0  0  0  2  0  0  0  0  0  0
  -24.6630  -31.0880   22.1050 N   0  0  0  0  0  0  0  0  0  0  0  0
  -23.5370  -32.1500   23.7590 O   0  0  0  0  0  0  0  0  0  0  0  0
  -22.7400  -29.4730   22.5030 C   0  0  0  0  0  0  0  0  0  0  0  0
  -21.4120  -29.3110   22.3790 N   0  0  0  0  0  0  0  0  0  0  0  0
  -23.4200  -28.8190   23.2990 O   0  0  0  0  0  0  0  0  0  0  0  0
  -20.9280  -29.8960   21.7110 H   0  0  0  0  0  0  0  0  0  0  0  0
  -18.0290  -28.1350   22.8490 C   0  0  0  0  0  0  0  0  0  0  0  0
  -20.5880  -28.3680   23.1370 C   0  0  0  0  0  3  0  0  0  0  0  0
  -20.6840  -26.9450   22.5430 C   0  0  0  0  0  2  0  0  0  0  0  0
  -19.5850  -26.6480   21.5190 C   0  0  0  0  0  2  0  0  0  0  0  0
  -18.2020  -26.7920   22.1580 C   0  0  0  0  0  2  0  0  0  0  0  0
  -19.1520  -28.8820   23.2950 C   0  0  0  0  0  0  0  0  0  0  0  0
  -18.9410  -30.1420   23.8970 C   0  0  0  0  0  3  0  0  0  0  0  0
  -17.6400  -30.6540   24.0560 C   0  0  0  0  0  3  0  0  0  0  0  0
  -16.5300  -29.9050   23.6280 C   0  0  0  0  0  3  0  0  0  0  0  0
  -16.7270  -28.6450   23.0300 C   0  0  0  0  0  3  0  0  0  0  0  0
  -25.9050  -32.4840   23.8440 C   0  0  0  0  0  3  0  0  0  0  0  0
  -26.4490  -31.6610   25.0750 C   0  0  1  0  0  0  0  0  0  0  0  0
  -25.3780  -31.3700   26.1520 C   0  0  0  0  0  1  0  0  0  0  0  0
  -27.0300  -30.3050   24.6090 C   0  0  0  0  0  1  0  0  0  0  0  0
  -27.6080  -32.4310   25.7510 C   0  0  0  0  0  1  0  0  0  0  0  0
  -25.5940  -33.8640   24.2380 N   0  0  0  0  0  0  0  0  0  0  0  0
  -25.9020  -34.9490   23.5150 C   0  0  0  0  0  0  0  0  0  0  0  0
  -26.5560  -34.8930   22.4710 O   0  0  0  0  0  0  0  0  0  0  0  0
  -25.0140  -33.9820   25.0560 H   0  0  0  0  0  0  0  0  0  0  0  0
  -24.1480  -36.7340   23.2620 C   0  0  0  0  0  1  0  0  0  0  0  0
  -25.4090  -36.3140   24.0320 C   0  0  0  0  0  3  0  0  0  0  0  0
  -27.5580  -37.1820   24.8450 C   0  0  0  0  0  1  0  0  0  0  0  0
  -26.4290  -37.3810   23.9400 N   0  0  0  0  0  0  0  0  0  0  0  0
  -26.0190  -38.2890   24.1390 H   0  0  0  0  0  0  0  0  0  0  0  0
  -23.7690  -21.1400   20.9340 C   0  0  0  0  0  2  0  0  0  0  0  0
  -24.3370  -19.8290   21.4960 C   0  0  0  0  0  2  0  0  0  0  0  0
  -25.8700  -19.8710   21.5740 C   0  0  0  0  0  2  0  0  0  0  0  0
  -26.4980  -18.5890   22.1220 C   0  0  0  0  0  2  0  0  0  0  0  0
  -28.0160  -18.6340   21.9290 C   0  0  0  0  0  2  0  0  0  0  0  0
  -28.7230  -17.3540   22.3820 C   0  0  0  0  0  2  0  0  0  0  0  0
  -30.2160  -17.3920   22.0140 C   0  0  0  0  0  2  0  0  0  0  0  0
  -30.9860  -16.1450   22.4630 C   0  0  0  0  0  2  0  0  0  0  0  0
  -30.7780  -14.3230   20.7500 C   0  0  0  0  0  0  0  0  0  0  0  0
  -30.4250  -12.3010   19.3780 C   0  0  0  0  0  2  0  0  0  0  0  0
  -29.4850  -12.5510   18.1860 C   0  0  0  0  0  2  0  0  0  0  0  0
  -28.0120  -12.3930   18.6040 C   0  0  0  0  0  2  0  0  0  0  0  0
  -27.6710  -13.2020   19.8820 C   0  0  0  0  0  3  0  0  0  0  0  0
  -28.7040  -12.9170   20.9920 C   0  0  0  0  0  2  0  0  0  0  0  0
  -30.0530  -13.2130   20.4680 N   0  0  0  0  0  0  0  0  0  0  0  0
  -31.7510  -14.6950   20.0810 O   0  0  0  0  0  0  0  0  0  0  0  0
  -30.4130  -14.9360   21.8820 N   0  0  0  0  0  0  0  0  0  0  0  0
  -29.6270  -14.5270   22.3650 H   0  0  0  0  0  0  0  0  0  0  0  0
  -25.2610  -13.8140   20.5650 C   0  0  0  0  0  0  0  0  0  0  0  0
  -24.1850  -13.0440   20.9150 C   0  0  0  0  0  0  0  0  0  0  0  0
  -24.6390  -11.6910   20.8710 C   0  0  0  0  0  0  0  0  0  0  0  0
  -26.3070  -12.9320   20.3370 N   0  0  0  0  0  0  0  0  0  0  0  0
  -25.9320  -11.6480   20.5740 N   0  0  0  0  0  0  0  0  0  0  0  0
  -23.9050  -10.4300   21.0400 C   0  0  0  0  0  0  0  0  0  0  0  0
  -24.3610   -9.4210   21.9180 C   0  0  0  0  0  3  0  0  0  0  0  0
  -23.6290   -8.2250   22.0750 C   0  0  0  0  0  3  0  0  0  0  0  0
  -22.4260   -8.0280   21.3550 C   0  0  0  0  0  0  0  0  0  0  0  0
  -21.9900   -9.0250   20.4650 C   0  0  0  0  0  3  0  0  0  0  0  0
  -22.7230  -10.2130   20.3050 C   0  0  0  0  0  3  0  0  0  0  0  0
  -21.6630   -6.8870   21.4240 O   0  0  0  0  0  0  0  0  0  0  0  0
  -21.6850   -6.0730   22.5280 C   0  0  0  0  0  0  0  0  0  0  0  0
  -21.4010   -6.5640   23.8220 C   0  0  0  0  0  3  0  0  0  0  0  0
  -21.3660   -5.6780   24.9170 C   0  0  0  0  0  3  0  0  0  0  0  0
  -21.6040   -4.3050   24.7220 C   0  0  0  0  0  0  0  0  0  0  0  0
  -21.8820   -3.8140   23.4340 C   0  0  0  0  0  3  0  0  0  0  0  0
  -21.9190   -4.6970   22.3400 C   0  0  0  0  0  0  0  0  0  0  0  0
  -22.1660   -4.2140   21.0980 F   0  0  0  0  0  0  0  0  0  0  0  0
  -21.5630   -3.4540   25.7740 F   0  0  0  0  0  0  0  0  0  0  0  0
  -22.7870  -13.5240   21.1840 C   0  0  0  0  0  0  0  0  0  0  0  0
  -22.0500  -12.8240   22.0390 N   0  0  0  0  0  0  0  0  0  0  0  0
  -22.3560  -14.5550   20.6680 O   0  0  0  0  0  0  0  0  0  0  0  0
  -22.4110  -11.9900   22.4790 H   0  0  0  0  0  0  0  0  0  0  0  0
  -21.1130  -13.1290   22.2590 H   0  0  0  0  0  0  0  0  0  0  0  0
  -25.4350  -15.1850   20.4040 N   0  0  0  0  0  0  0  0  0  0  0  0
  -24.6750  -15.8470   20.5180 H   0  0  0  0  0  0  0  0  0  0  0  0
  -26.3000  -15.6230   20.1150 H   0  0  0  0  0  0  0  0  0  0  0  0
  2  3  1  0
  2  1  1  0
  4  3  1  0
  5  4  1  0
  5  6  1  0
  7  6  1  0
  8 19  2  0
  9  7  1  0
  9 14  1  0
 10 18  1  0
 10 20  1  0
 11 17  1  0
 11 13  1  0
 12 18  1  0
 13 12  1  0
 14 13  2  0
 15 16  1  0
 15  9  2  0
 16 11  2  0
 17 10  1  0
 18  8  1  0
 20 22  2  0
 21 20  1  0
 23 21  1  0
 24 33  2  0
 24 29  1  0
 25 21  1  0
 25 29  1  0
 26 25  1  0
 27 28  1  0
 27 26  1  0
 28 24  1  0
 29 30  2  0
 30 31  1  0
 32 31  2  0
 33 32  1  0
 34  8  1  0
 34 39  1  0
 34 35  1  0
 35 38  1  1
 35 36  1  0
 37 35  1  0
 39 42  1  0
 40 44  1  0
 40 39  1  0
 41 40  2  0
 44 43  1  0
 46 44  1  0
 46 47  1  0
 46 45  1  0
 48 49  1  0
 48  1  1  0
 49 50  1  0
 50 51  1  0
 52 51  1  0
 52 53  1  0
 54 53  1  0
 54 55  1  0
 56 64  1  0
 57 62  1  0
 58 59  1  0
 58 57  1  0
 60 59  1  0
 60 69  1  0
 60 61  1  0
 62 56  1  0
 62 61  1  0
 63 56  2  0
 64 65  1  0
 64 55  1  0
 66 67  2  0
 67 86  1  0
 68 67  1  0
 68 71  1  0
 69 66  1  0
 69 70  1  0
 70 68  2  0
 71 72  1  0
 72 73  2  0
 74 77  1  0
 74 73  1  0
 75 74  2  0
 76 75  1  0
 76 71  2  0
 77 78  1  0
 78 79  1  0
 79 80  2  0
 81 80  1  0
 81 85  1  0
 82 81  2  0
 83 78  2  0
 83 82  1  0
 84 83  1  0
 86 87  1  0
 87 90  1  0
 87 89  1  0
 88 86  2  0
 91 92  1  0
 91 66  1  0
 93 91  1  0
M  ISO  4   6 101   7 101  56 100  64 100
M  END
>  <TORSDO>  (17) 
F 29

>  <SCORE>  (17) 
20.304

>  <name>  (17) 
16

>  <ligand_id>  (17) 
16

>  <original_smiles>  (17) 
[H]c1c([H])c([H])c2c(c1[H])C([H])([H])C([H])([H])C([H])([H])C2([H])N([H])C(=O)C1([H])N(C(=O)C([H])(N([H])C(=O)C([H])(N([H])C([H])([H])[H])C([H])([H])[H])C(C([H])([H])[H])(C([H])([H])[H])C([H])([H])[H])C([H])([H])c2c([H])c(OC([H])([H])C([H])([H])C([H])([H])C([H])([H])C([H])([H])C([H])([H])C([H])([H])C([H])([H])C([H])([H])C([H])([H])C([H])([H])C([H])([H])C([H])([H])C([H])([H])N([H])C(=O)N3C([H])([H])C([H])([H])C([H])([H])C([H])(n4nc(-c5c([H])c([H])c(Oc6c([H])c([H])c(F)c([H])c6F)c([H])c5[H])c(C(=O)N([H])[H])c4N([H])[H])C3([H])[H])c([H])c([H])c2C1([H])[H]

>  <smiles>  (17) 
[H]c1c([H])c([H])c2c(c1[H])C([H])([H])C([H])([H])C([H])([H])C2([H])N([H])C(=O)C1([H])N(C(=O)C([H])(N([H])C(=O)C([H])(N([H])C([H])([H])[H])C([H])([H])[H])C(C([H])([H])[H])(C([H])([H])[H])C([H])([H])[H])C([H])([H])c2c([H])c(OC([H])([H])C([H])([H])C([H])([H])C([H])([H])C([H])([H])C([H])([H])C([H])([H])C([H])([H])C([H])([H])C([H])([H])C([H])([H])C([H])([H])C([H])([H])C([H])([H])N([H])C(=O)N3C([H])([H])C([H])([H])C([H])([H])C([H])(n4nc(-c5c([H])c([H])c(Oc6c([H])c([H])c(F)c([H])c6F)c([H])c5[H])c(C(=O)N([H])[H])c4N([H])[H])C3([H])[H])c([H])c([H])c2C1([H])[H]

$$$$
17:0:0
     RDKit          3D

 94101  0  0  1  0  0  0  0  0999 V2000
  -25.0910  -22.4970   18.7180 C   0  0  0  0  0  2  0  0  0  0  0  0
  -25.0900  -22.4980   20.2600 C   0  0  0  0  0  2  0  0  0  0  0  0
  -25.5420  -23.8100   20.9280 C   0  0  0  0  0  2  0  0  0  0  0  0
  -27.0240  -24.1870   20.7200 C   0  0  0  0  0  2  0  0  0  0  0  0
  -27.4500  -25.2750   21.7320 C   0  0  0  0  0  2  0  0  0  0  0  0
  -28.6020  -26.2140   21.2920 C   0  0  0  0  0  2  0  0  0  0  0  0
  -28.3550  -26.8740   20.0540 O   0  0  0  0  0  0  0  0  0  0  0  0
  -24.5930  -31.9730   23.2970 C   0  0  0  0  0  0  0  0  0  0  0  0
  -27.2230  -27.6410   20.0790 C   0  0  0  0  0  0  0  0  0  0  0  0
  -23.3780  -30.6000   21.6390 C   0  0  0  0  0  3  0  0  0  0  0  0
  -24.8230  -29.1010   20.1770 C   0  0  0  0  0  0  0  0  0  0  0  0
  -25.9000  -30.9730   21.4360 C   0  0  0  0  0  2  0  0  0  0  0  0
  -25.9800  -29.6190   20.7750 C   0  0  0  0  0  0  0  0  0  0  0  0
  -27.1840  -28.8820   20.7470 C   0  0  0  0  0  3  0  0  0  0  0  0
  -26.0690  -27.1540   19.4440 C   0  0  0  0  0  3  0  0  0  0  0  0
  -24.8520  -27.8610   19.5220 C   0  0  0  0  0  3  0  0  0  0  0  0
  -23.5800  -29.9600   20.2410 C   0  0  0  0  0  2  0  0  0  0  0  0
  -24.6400  -31.1930   22.1820 N   0  0  0  0  0  0  0  0  0  0  0  0
  -23.5160  -32.2300   23.8540 O   0  0  0  0  0  0  0  0  0  0  0  0
  -22.7350  -29.5580   22.5850 C   0  0  0  0  0  0  0  0  0  0  0  0
  -21.4140  -29.3550   22.4480 N   0  0  0  0  0  0  0  0  0  0  0  0
  -23.4250  -28.9380   23.3970 O   0  0  0  0  0  0  0  0  0  0  0  0
  -20.9100  -29.9080   21.7700 H   0  0  0  0  0  0  0  0  0  0  0  0
  -18.0620  -28.1060   22.9560 C   0  0  0  0  0  0  0  0  0  0  0  0
  -20.6170  -28.3970   23.2180 C   0  0  0  0  0  3  0  0  0  0  0  0
  -20.7270  -26.9670   22.6300 C   0  0  0  0  0  2  0  0  0  0  0  0
  -19.6270  -26.6390   21.6170 C   0  0  0  0  0  2  0  0  0  0  0  0
  -18.2520  -26.7610   22.2730 C   0  0  0  0  0  2  0  0  0  0  0  0
  -19.1710  -28.8790   23.3900 C   0  0  0  0  0  0  0  0  0  0  0  0
  -18.9330  -30.1350   23.9880 C   0  0  0  0  0  3  0  0  0  0  0  0
  -17.6230  -30.6190   24.1520 C   0  0  0  0  0  3  0  0  0  0  0  0
  -16.5290  -29.8430   23.7300 C   0  0  0  0  0  3  0  0  0  0  0  0
  -16.7480  -28.5870   23.1410 C   0  0  0  0  0  3  0  0  0  0  0  0
  -25.8820  -32.5980   23.9080 C   0  0  0  0  0  3  0  0  0  0  0  0
  -26.3970  -31.8280   25.1810 C   0  0  1  0  0  0  0  0  0  0  0  0
  -25.3040  -31.5920   26.2500 C   0  0  0  0  0  1  0  0  0  0  0  0
  -26.9640  -30.4430   24.7920 C   0  0  0  0  0  1  0  0  0  0  0  0
  -27.5530  -32.6230   25.8340 C   0  0  0  0  0  1  0  0  0  0  0  0
  -25.5790  -34.0010   24.2190 N   0  0  0  0  0  0  0  0  0  0  0  0
  -25.9210  -35.0370   23.4440 C   0  0  0  0  0  0  0  0  0  0  0  0
  -26.5970  -34.9160   22.4180 O   0  0  0  0  0  0  0  0  0  0  0  0
  -24.9560  -34.1700   24.9940 H   0  0  0  0  0  0  0  0  0  0  0  0
  -24.2090  -36.8360   23.0520 C   0  0  0  0  0  1  0  0  0  0  0  0
  -25.4410  -36.4340   23.8770 C   0  0  0  0  0  3  0  0  0  0  0  0
  -27.5790  -37.3070   24.7090 C   0  0  0  0  0  1  0  0  0  0  0  0
  -26.4850  -37.4730   23.7580 N   0  0  0  0  0  0  0  0  0  0  0  0
  -26.0850  -38.4010   23.8890 H   0  0  0  0  0  0  0  0  0  0  0  0
  -25.0830  -21.0770   18.1150 C   0  0  0  0  0  2  0  0  0  0  0  0
  -26.7770  -19.3810   18.8610 C   0  0  0  0  0  0  0  0  0  0  0  0
  -26.4150  -20.4770   18.1890 N   0  0  0  0  0  0  0  0  0  0  0  0
  -25.9730  -18.6860   19.4850 O   0  0  0  0  0  0  0  0  0  0  0  0
  -27.1480  -20.9340   17.6600 H   0  0  0  0  0  0  0  0  0  0  0  0
  -28.2700  -19.0370   18.8100 C   0  0  0  0  0  2  0  0  0  0  0  0
  -28.7170  -18.0050   19.8680 C   0  0  0  0  0  2  0  0  0  0  0  0
  -30.2420  -18.0060   20.1190 C   0  0  0  0  0  2  0  0  0  0  0  0
  -30.6960  -17.1170   21.2940 C   0  0  0  0  0  2  0  0  0  0  0  0
  -30.9730  -14.7290   20.6170 C   0  0  0  0  0  0  0  0  0  0  0  0
  -30.7020  -12.5980   19.4110 C   0  0  0  0  0  2  0  0  0  0  0  0
  -29.8000  -12.8400   18.1830 C   0  0  0  0  0  2  0  0  0  0  0  0
  -28.3010  -12.7460   18.5510 C   0  0  0  0  0  2  0  0  0  0  0  0
  -27.9350  -13.5580   19.8260 C   0  0  0  0  0  3  0  0  0  0  0  0
  -28.9530  -13.2600   20.9510 C   0  0  0  0  0  2  0  0  0  0  0  0
  -30.3000  -13.5640   20.4430 N   0  0  0  0  0  0  0  0  0  0  0  0
  -32.1130  -14.9180   20.1890 O   0  0  0  0  0  0  0  0  0  0  0  0
  -30.2580  -15.7280   21.1610 N   0  0  0  0  0  0  0  0  0  0  0  0
  -29.3020  -15.5180   21.4150 H   0  0  0  0  0  0  0  0  0  0  0  0
  -25.5110  -14.1980   20.4350 C   0  0  0  0  0  0  0  0  0  0  0  0
  -24.4240  -13.4350   20.7750 C   0  0  0  0  0  0  0  0  0  0  0  0
  -24.8780  -12.0800   20.7760 C   0  0  0  0  0  0  0  0  0  0  0  0
  -26.5610  -13.3060   20.2560 N   0  0  0  0  0  0  0  0  0  0  0  0
  -26.1760  -12.0300   20.5150 N   0  0  0  0  0  0  0  0  0  0  0  0
  -24.1380  -10.8240   20.9480 C   0  0  0  0  0  0  0  0  0  0  0  0
  -24.5260   -9.8690   21.9130 C   0  0  0  0  0  3  0  0  0  0  0  0
  -23.7890   -8.6760   22.0760 C   0  0  0  0  0  3  0  0  0  0  0  0
  -22.6550   -8.4290   21.2700 C   0  0  0  0  0  0  0  0  0  0  0  0
  -22.2850   -9.3700   20.2950 C   0  0  0  0  0  3  0  0  0  0  0  0
  -23.0210  -10.5550   20.1300 C   0  0  0  0  0  3  0  0  0  0  0  0
  -21.9010   -7.2810   21.3370 O   0  0  0  0  0  0  0  0  0  0  0  0
  -21.7840   -6.5630   22.4990 C   0  0  0  0  0  0  0  0  0  0  0  0
  -21.2840   -7.1420   23.6850 C   0  0  0  0  0  3  0  0  0  0  0  0
  -21.1040   -6.3480   24.8350 C   0  0  0  0  0  3  0  0  0  0  0  0
  -21.4250   -4.9780   24.8020 C   0  0  0  0  0  0  0  0  0  0  0  0
  -21.9300   -4.3980   23.6250 C   0  0  0  0  0  3  0  0  0  0  0  0
  -22.1000   -5.1890   22.4730 C   0  0  0  0  0  0  0  0  0  0  0  0
  -22.5600   -4.6210   21.3310 F   0  0  0  0  0  0  0  0  0  0  0  0
  -21.2490   -4.2140   25.9060 F   0  0  0  0  0  0  0  0  0  0  0  0
  -23.0200  -13.9190   20.9880 C   0  0  0  0  0  0  0  0  0  0  0  0
  -22.2540  -13.2440   21.8410 N   0  0  0  0  0  0  0  0  0  0  0  0
  -22.6040  -14.9360   20.4320 O   0  0  0  0  0  0  0  0  0  0  0  0
  -22.5930  -12.4190   22.3160 H   0  0  0  0  0  0  0  0  0  0  0  0
  -21.3090  -13.5520   22.0200 H   0  0  0  0  0  0  0  0  0  0  0  0
  -25.6840  -15.5640   20.2420 N   0  0  0  0  0  0  0  0  0  0  0  0
  -24.9020  -16.2120   20.2780 H   0  0  0  0  0  0  0  0  0  0  0  0
  -26.5200  -16.0010   19.8770 H   0  0  0  0  0  0  0  0  0  0  0  0
  1  2  1  0
  2  3  1  0
  4  3  1  0
  4  5  1  0
  6  5  1  0
  7  9  1  0
  7  6  1  0
  8 19  2  0
  9 14  1  0
 10 18  1  0
 10 20  1  0
 11 17  1  0
 11 13  1  0
 12 18  1  0
 13 12  1  0
 14 13  2  0
 15 16  1  0
 15  9  2  0
 16 11  2  0
 17 10  1  0
 18  8  1  0
 20 22  2  0
 21 20  1  0
 23 21  1  0
 24 33  2  0
 24 29  1  0
 25 21  1  0
 25 29  1  0
 26 25  1  0
 27 28  1  0
 27 26  1  0
 28 24  1  0
 29 30  2  0
 30 31  1  0
 32 31  2  0
 33 32  1  0
 34  8  1  0
 34 39  1  0
 34 35  1  0
 35 38  1  1
 35 36  1  0
 37 35  1  0
 39 42  1  0
 40 44  1  0
 40 39  1  0
 41 40  2  0
 44 43  1  0
 46 44  1  0
 46 47  1  0
 46 45  1  0
 48 50  1  0
 48  1  1  0
 49 51  2  0
 50 49  1  0
 52 50  1  0
 53 49  1  0
 53 54  1  0
 54 55  1  0
 55 56  1  0
 57 65  1  0
 58 63  1  0
 59 60  1  0
 59 58  1  0
 61 60  1  0
 61 70  1  0
 61 62  1  0
 63 57  1  0
 63 62  1  0
 64 57  2  0
 65 56  1  0
 65 66  1  0
 67 68  2  0
 68 69  1  0
 68 87  1  0
 69 72  1  0
 70 67  1  0
 70 71  1  0
 71 69  2  0
 72 73  1  0
 73 74  2  0
 75 78  1  0
 75 74  1  0
 76 75  2  0
 77 76  1  0
 77 72  2  0
 78 79  1  0
 79 80  1  0
 80 81  2  0
 82 81  1  0
 82 86  1  0
 83 82  2  0
 84 79  2  0
 84 83  1  0
 85 84  1  0
 87 88  1  0
 88 91  1  0
 88 90  1  0
 89 87  2  0
 92 93  1  0
 92 67  1  0
 94 92  1  0
M  ISO  4   6 101   7 101  57 100  65 100
M  END
>  <TORSDO>  (18) 
F 27

>  <SCORE>  (18) 
-11.042

>  <name>  (18) 
17

>  <ligand_id>  (18) 
17

>  <original_smiles>  (18) 
[H]c1c([H])c([H])c2c(c1[H])C([H])([H])C([H])([H])C([H])([H])C2([H])N([H])C(=O)C1([H])N(C(=O)C([H])(N([H])C(=O)C([H])(N([H])C([H])([H])[H])C([H])([H])[H])C(C([H])([H])[H])(C([H])([H])[H])C([H])([H])[H])C([H])([H])c2c([H])c(OC([H])([H])C([H])([H])C([H])([H])C([H])([H])C([H])([H])C([H])([H])C([H])([H])N([H])C(=O)C([H])([H])C([H])([H])C([H])([H])C([H])([H])N([H])C(=O)N3C([H])([H])C([H])([H])C([H])([H])C([H])(n4nc(-c5c([H])c([H])c(Oc6c([H])c([H])c(F)c([H])c6F)c([H])c5[H])c(C(=O)N([H])[H])c4N([H])[H])C3([H])[H])c([H])c([H])c2C1([H])[H]

>  <smiles>  (18) 
[H]c1c([H])c([H])c2c(c1[H])C([H])([H])C([H])([H])C([H])([H])C2([H])N([H])C(=O)C1([H])N(C(=O)C([H])(N([H])C(=O)C([H])(N([H])C([H])([H])[H])C([H])([H])[H])C(C([H])([H])[H])(C([H])([H])[H])C([H])([H])[H])C([H])([H])c2c([H])c(OC([H])([H])C([H])([H])C([H])([H])C([H])([H])C([H])([H])C([H])([H])C([H])([H])N([H])C(=O)C([H])([H])C([H])([H])C([H])([H])C([H])([H])N([H])C(=O)N3C([H])([H])C([H])([H])C([H])([H])C([H])(n4nc(-c5c([H])c([H])c(Oc6c([H])c([H])c(F)c([H])c6F)c([H])c5[H])c(C(=O)N([H])[H])c4N([H])[H])C3([H])[H])c([H])c([H])c2C1([H])[H]

$$$$
18:0:0
     RDKit          3D

 98106  0  0  1  0  0  0  0  0999 V2000
  -32.7980  -23.5110   19.8670 C   0  0  0  0  0  3  0  0  0  0  0  0
  -31.9180  -22.3160   21.7950 C   0  0  0  0  0  3  0  0  0  0  0  0
  -31.7840  -24.4780   20.0010 C   0  0  0  0  0  3  0  0  0  0  0  0
  -30.8900  -23.2690   21.9160 C   0  0  0  0  0  3  0  0  0  0  0  0
  -32.8280  -22.3910   20.7210 C   0  0  0  0  0  0  0  0  0  0  0  0
  -30.7700  -24.3270   20.9770 C   0  0  0  0  0  0  0  0  0  0  0  0
  -29.5160  -25.2170   20.8930 C   0  0  0  0  0  3  0  0  0  0  0  0
  -28.6640  -24.6920   19.7050 C   0  0  0  0  0  2  0  0  0  0  0  0
  -27.4710  -25.5170   19.2040 C   0  0  0  0  0  2  0  0  0  0  0  0
  -27.7950  -26.7850   18.6190 O   0  0  0  0  0  0  0  0  0  0  0  0
  -24.7200  -31.2520   23.1110 C   0  0  0  0  0  0  0  0  0  0  0  0
  -26.7310  -27.6270   18.7880 C   0  0  0  0  0  0  0  0  0  0  0  0
  -23.2670  -30.3630   21.3180 C   0  0  0  0  0  3  0  0  0  0  0  0
  -24.4620  -29.1600   19.4180 C   0  0  0  0  0  0  0  0  0  0  0  0
  -25.7820  -30.6410   20.9450 C   0  0  0  0  0  2  0  0  0  0  0  0
  -25.7040  -29.4840   19.9780 C   0  0  0  0  0  0  0  0  0  0  0  0
  -26.8500  -28.7300   19.6540 C   0  0  0  0  0  3  0  0  0  0  0  0
  -25.4810  -27.3120   18.2150 C   0  0  0  0  0  3  0  0  0  0  0  0
  -24.3420  -28.0700   18.5370 C   0  0  0  0  0  3  0  0  0  0  0  0
  -23.2940  -30.0350   19.8010 C   0  0  0  0  0  2  0  0  0  0  0  0
  -24.6130  -30.7530   21.8490 N   0  0  0  0  0  0  0  0  0  0  0  0
  -23.7170  -31.4270   23.8190 O   0  0  0  0  0  0  0  0  0  0  0  0
  -22.6330  -29.1680   22.0650 C   0  0  0  0  0  0  0  0  0  0  0  0
  -21.2940  -29.0680   22.0090 N   0  0  0  0  0  0  0  0  0  0  0  0
  -23.3370  -28.3430   22.6530 O   0  0  0  0  0  0  0  0  0  0  0  0
  -20.7830  -29.7830   21.5120 H   0  0  0  0  0  0  0  0  0  0  0  0
  -17.9120  -27.8820   22.4540 C   0  0  0  0  0  0  0  0  0  0  0  0
  -20.4890  -28.0090   22.6150 C   0  0  0  0  0  3  0  0  0  0  0  0
  -20.5040  -26.7380   21.7360 C   0  0  0  0  0  2  0  0  0  0  0  0
  -19.3340  -26.6670   20.7480 C   0  0  0  0  0  2  0  0  0  0  0  0
  -17.9980  -26.7060   21.4940 C   0  0  0  0  0  2  0  0  0  0  0  0
  -19.0820  -28.5030   22.9670 C   0  0  0  0  0  0  0  0  0  0  0  0
  -18.9470  -29.6120   23.8300 C   0  0  0  0  0  3  0  0  0  0  0  0
  -17.6770  -30.1040   24.1790 C   0  0  0  0  0  3  0  0  0  0  0  0
  -16.5220  -29.4770   23.6820 C   0  0  0  0  0  3  0  0  0  0  0  0
  -16.6420  -28.3620   22.8310 C   0  0  0  0  0  3  0  0  0  0  0  0
  -26.1010  -31.6530   23.7190 C   0  0  0  0  0  3  0  0  0  0  0  0
  -25.9230  -32.9290   24.4260 N   0  0  0  0  0  0  0  0  0  0  0  0
  -26.2770  -34.1220   23.9260 C   0  0  0  0  0  0  0  0  0  0  0  0
  -26.8780  -34.2480   22.8550 O   0  0  0  0  0  0  0  0  0  0  0  0
  -25.4170  -32.8940   25.3020 H   0  0  0  0  0  0  0  0  0  0  0  0
  -24.6650  -36.0570   24.1860 C   0  0  0  0  0  1  0  0  0  0  0  0
  -25.9190  -35.3710   24.7560 C   0  0  0  0  0  3  0  0  0  0  0  0
  -28.1570  -35.8640   25.6180 C   0  0  0  0  0  1  0  0  0  0  0  0
  -27.0180  -36.3540   24.8440 N   0  0  0  0  0  0  0  0  0  0  0  0
  -26.6890  -37.2210   25.2580 H   0  0  0  0  0  0  0  0  0  0  0  0
  -26.6940  -30.5540   24.6830 C   0  0  1  0  0  0  0  0  0  0  0  0
  -25.6910  -30.0510   25.7520 C   0  0  0  0  0  1  0  0  0  0  0  0
  -27.1770  -29.3170   23.8810 C   0  0  0  0  0  1  0  0  0  0  0  0
  -27.9370  -31.1130   25.4220 C   0  0  0  0  0  1  0  0  0  0  0  0
  -28.7160  -25.2130   22.2260 C   0  0  0  0  0  2  0  0  0  0  0  0
  -27.6090  -26.2760   22.3930 C   0  0  0  0  0  2  0  0  0  0  0  0
  -26.2300  -25.6650   22.6280 C   0  0  0  0  0  0  0  0  0  0  0  0
  -25.4360  -26.1750   23.8210 C   0  0  0  0  0  1  0  0  0  0  0  0
  -25.7800  -24.7830   21.8930 O   0  0  0  0  0  0  0  0  0  0  0  0
  -33.7250  -21.2070   20.3980 C   0  0  0  0  0  2  0  0  0  0  0  0
  -33.0410  -20.2170   19.4260 C   0  0  0  0  0  2  0  0  0  0  0  0
  -31.6310  -19.7880   19.8890 C   0  0  0  0  0  2  0  0  0  0  0  0
  -31.1190  -18.4760   19.2660 C   0  0  0  0  0  2  0  0  0  0  0  0
  -30.6170  -17.4920   20.3380 C   0  0  0  0  0  2  0  0  0  0  0  0
  -29.9170  -16.2650   19.7330 C   0  0  0  0  0  2  0  0  0  0  0  0
  -29.9260  -15.0050   20.6390 C   0  0  0  0  0  2  0  0  0  0  0  0
  -30.5860  -13.7840   19.9540 C   0  0  0  0  0  0  0  0  0  0  0  0
  -30.2390  -11.5840   18.8950 C   0  0  0  0  0  2  0  0  0  0  0  0
  -29.1930  -11.7600   17.7730 C   0  0  0  0  0  2  0  0  0  0  0  0
  -27.7600  -11.6240   18.3320 C   0  0  0  0  0  2  0  0  0  0  0  0
  -27.5270  -12.5070   19.5900 C   0  0  0  0  0  3  0  0  0  0  0  0
  -28.6730  -12.2810   20.6040 C   0  0  0  0  0  2  0  0  0  0  0  0
  -29.9430  -12.5880   19.9280 N   0  0  0  0  0  0  0  0  0  0  0  0
  -31.6480  -13.9660   19.3490 O   0  0  0  0  0  0  0  0  0  0  0  0
  -25.2160  -13.1640   20.5240 C   0  0  0  0  0  0  0  0  0  0  0  0
  -24.1720  -12.4120   20.9820 C   0  0  0  0  0  0  0  0  0  0  0  0
  -24.5930  -11.0490   20.8880 C   0  0  0  0  0  0  0  0  0  0  0  0
  -26.2160  -12.2640   20.1820 N   0  0  0  0  0  0  0  0  0  0  0  0
  -25.8450  -10.9850   20.4550 N   0  0  0  0  0  0  0  0  0  0  0  0
  -23.8590   -9.8010   21.1330 C   0  0  0  0  0  0  0  0  0  0  0  0
  -24.3320   -8.8340   22.0490 C   0  0  0  0  0  3  0  0  0  0  0  0
  -23.6020   -7.6520   22.2790 C   0  0  0  0  0  3  0  0  0  0  0  0
  -22.3840   -7.4250   21.5970 C   0  0  0  0  0  0  0  0  0  0  0  0
  -21.9260   -8.3800   20.6700 C   0  0  0  0  0  3  0  0  0  0  0  0
  -22.6570   -9.5560   20.4370 C   0  0  0  0  0  3  0  0  0  0  0  0
  -21.6170   -6.2950   21.7400 O   0  0  0  0  0  0  0  0  0  0  0  0
  -21.5980   -5.5820   22.9130 C   0  0  0  0  0  0  0  0  0  0  0  0
  -21.2000   -6.1680   24.1340 C   0  0  0  0  0  3  0  0  0  0  0  0
  -21.1290   -5.3820   25.3020 C   0  0  0  0  0  3  0  0  0  0  0  0
  -21.4440   -4.0120   25.2480 C   0  0  0  0  0  0  0  0  0  0  0  0
  -21.8340   -3.4240   24.0320 C   0  0  0  0  0  3  0  0  0  0  0  0
  -21.9090   -4.2090   22.8660 C   0  0  0  0  0  0  0  0  0  0  0  0
  -22.2680   -3.6340   21.6920 F   0  0  0  0  0  0  0  0  0  0  0  0
  -21.3660   -3.2540   26.3670 F   0  0  0  0  0  0  0  0  0  0  0  0
  -22.8190  -12.9130   21.4040 C   0  0  0  0  0  0  0  0  0  0  0  0
  -22.1690  -12.2230   22.3330 N   0  0  0  0  0  0  0  0  0  0  0  0
  -22.3530  -13.9560   20.9430 O   0  0  0  0  0  0  0  0  0  0  0  0
  -22.5620  -11.3780   22.7240 H   0  0  0  0  0  0  0  0  0  0  0  0
  -21.2680  -12.5420   22.6600 H   0  0  0  0  0  0  0  0  0  0  0  0
  -25.3850  -14.5360   20.3520 N   0  0  0  0  0  0  0  0  0  0  0  0
  -24.6360  -15.1900   20.5580 H   0  0  0  0  0  0  0  0  0  0  0  0
  -26.2080  -14.9800   19.9650 H   0  0  0  0  0  0  0  0  0  0  0  0
  1  3  2  0
  1  5  1  0
  2  4  1  0
  3  6  1  0
  5  2  2  0
  6  4  2  0
  7  8  1  0
  7  6  1  0
  7 51  1  0
  9  8  1  0
 10 12  1  0
 10  9  1  0
 11 22  2  0
 12 17  1  0
 13 21  1  0
 13 23  1  0
 14 20  1  0
 14 16  1  0
 15 21  1  0
 16 15  1  0
 17 16  2  0
 18 19  1  0
 18 12  2  0
 19 14  2  0
 20 13  1  0
 21 11  1  0
 23 25  2  0
 24 23  1  0
 26 24  1  0
 27 36  2  0
 27 32  1  0
 28 24  1  0
 28 32  1  0
 29 28  1  0
 30 31  1  0
 30 29  1  0
 31 27  1  0
 32 33  2  0
 33 34  1  0
 35 34  2  0
 36 35  1  0
 37 11  1  0
 37 38  1  0
 37 47  1  0
 38 41  1  0
 39 38  1  0
 39 43  1  0
 40 39  2  0
 43 42  1  0
 43 45  1  0
 45 46  1  0
 45 44  1  0
 47 50  1  1
 47 48  1  0
 49 47  1  0
 51 52  1  0
 52 53  1  0
 53 54  1  0
 55 53  2  0
 56  5  1  0
 57 58  1  0
 57 56  1  0
 59 58  1  0
 59 60  1  0
 61 60  1  0
 61 62  1  0
 63 62  1  0
 64 69  1  0
 65 66  1  0
 65 64  1  0
 67 66  1  0
 67 74  1  0
 67 68  1  0
 69 63  1  0
 69 68  1  0
 70 63  2  0
 71 72  2  0
 72 91  1  0
 73 72  1  0
 73 76  1  0
 74 75  1  0
 74 71  1  0
 75 73  2  0
 76 77  1  0
 77 78  2  0
 79 82  1  0
 79 78  1  0
 80 79  2  0
 81 80  1  0
 81 76  2  0
 82 83  1  0
 83 84  1  0
 84 85  2  0
 86 85  1  0
 86 90  1  0
 87 86  2  0
 88 83  2  0
 88 87  1  0
 89 88  1  0
 91 92  1  0
 92 95  1  0
 92 94  1  0
 93 91  2  0
 96 71  1  0
 96 97  1  0
 98 96  1  0
M  ISO  4   9 101  10 101  62 100  63 100
M  END
>  <TORSDO>  (19) 
F 29

>  <SCORE>  (19) 
-8.194

>  <name>  (19) 
18

>  <ligand_id>  (19) 
18

>  <original_smiles>  (19) 
[H]c1c([H])c([H])c2c(c1[H])C([H])([H])C([H])([H])C([H])([H])C2([H])N([H])C(=O)C1([H])N(C(=O)C([H])(N([H])C(=O)C([H])(N([H])C([H])([H])[H])C([H])([H])[H])C(C([H])([H])[H])(C([H])([H])[H])C([H])([H])[H])C([H])([H])c2c([H])c(OC([H])([H])C([H])([H])C([H])(c3c([H])c([H])c(C([H])([H])C([H])([H])C([H])([H])C([H])([H])C([H])([H])C([H])([H])C([H])([H])C(=O)N4C([H])([H])C([H])([H])C([H])([H])C([H])(n5nc(-c6c([H])c([H])c(Oc7c([H])c([H])c(F)c([H])c7F)c([H])c6[H])c(C(=O)N([H])[H])c5N([H])[H])C4([H])[H])c([H])c3[H])C([H])([H])C([H])([H])C(=O)C([H])([H])[H])c([H])c([H])c2C1([H])[H]

>  <smiles>  (19) 
[H]c1c([H])c([H])c2c(c1[H])C([H])([H])C([H])([H])C([H])([H])C2([H])N([H])C(=O)C1([H])N(C(=O)C([H])(N([H])C(=O)C([H])(N([H])C([H])([H])[H])C([H])([H])[H])C(C([H])([H])[H])(C([H])([H])[H])C([H])([H])[H])C([H])([H])c2c([H])c(OC([H])([H])C([H])([H])C([H])(c3c([H])c([H])c(C([H])([H])C([H])([H])C([H])([H])C([H])([H])C([H])([H])C([H])([H])C([H])([H])C(=O)N4C([H])([H])C([H])([H])C([H])([H])C([H])(n5nc(-c6c([H])c([H])c(Oc7c([H])c([H])c(F)c([H])c7F)c([H])c6[H])c(C(=O)N([H])[H])c5N([H])[H])C4([H])[H])c([H])c3[H])C([H])([H])C([H])([H])C(=O)C([H])([H])[H])c([H])c([H])c2C1([H])[H]

$$$$
19:0:0
     RDKit          3D

 95103  0  0  1  0  0  0  0  0999 V2000
  -28.1170  -21.9640   17.6640 C   0  0  0  0  0  3  0  0  0  0  0  0
  -28.7140  -23.2210   17.5820 C   0  0  0  0  0  3  0  0  0  0  0  0
  -29.7450  -21.0760   16.0800 C   0  0  0  0  0  3  0  0  0  0  0  0
  -28.6410  -20.8740   16.9510 C   0  0  0  0  0  0  0  0  0  0  0  0
  -29.8180  -23.4390   16.7300 C   0  0  0  0  0  0  0  0  0  0  0  0
  -30.3460  -22.3570   15.9680 C   0  0  0  0  0  0  0  0  0  0  0  0
  -31.5230  -22.5620   15.0030 C   0  0  0  0  0  1  0  0  0  0  0  0
  -27.9540  -19.5720   17.0900 C   0  0  0  0  0  0  0  0  0  0  0  0
  -27.6000  -18.8910   16.1260 O   0  0  0  0  0  0  0  0  0  0  0  0
  -27.7510  -19.0480   18.5240 C   0  0  0  0  0  2  0  0  0  0  0  0
  -29.0940  -18.6680   19.1930 C   0  0  0  0  0  2  0  0  0  0  0  0
  -29.0320  -17.3030   19.9090 C   0  0  0  0  0  2  0  0  0  0  0  0
  -30.3840  -16.9200   20.5540 C   0  0  0  0  0  2  0  0  0  0  0  0
  -30.2740  -15.7120   21.5210 C   0  0  0  0  0  2  0  0  0  0  0  0
  -31.0030  -14.4410   21.0320 C   0  0  0  0  0  0  0  0  0  0  0  0
  -30.7390  -12.3150   19.8290 C   0  0  0  0  0  2  0  0  0  0  0  0
  -29.8920  -12.6140   18.5780 C   0  0  0  0  0  2  0  0  0  0  0  0
  -28.3880  -12.5080   18.9010 C   0  0  0  0  0  2  0  0  0  0  0  0
  -27.9840  -13.2840   20.1820 C   0  0  0  0  0  3  0  0  0  0  0  0
  -28.9680  -13.0050   21.3390 C   0  0  0  0  0  2  0  0  0  0  0  0
  -30.3310  -13.2740   20.8620 N   0  0  0  0  0  0  0  0  0  0  0  0
  -32.1780  -14.5780   20.6720 O   0  0  0  0  0  0  0  0  0  0  0  0
  -25.5440  -13.9030   20.7090 C   0  0  0  0  0  0  0  0  0  0  0  0
  -24.4480  -13.1270   21.0050 C   0  0  0  0  0  0  0  0  0  0  0  0
  -24.9100  -11.7800   21.0320 C   0  0  0  0  0  0  0  0  0  0  0  0
  -26.6020  -13.0110   20.5690 N   0  0  0  0  0  0  0  0  0  0  0  0
  -26.2210  -11.7360   20.8230 N   0  0  0  0  0  0  0  0  0  0  0  0
  -24.1670  -10.5200   21.1930 C   0  0  0  0  0  0  0  0  0  0  0  0
  -24.5260   -9.5660   22.1680 C   0  0  0  0  0  3  0  0  0  0  0  0
  -23.7760   -8.3770   22.3180 C   0  0  0  0  0  3  0  0  0  0  0  0
  -22.6600   -8.1340   21.4820 C   0  0  0  0  0  0  0  0  0  0  0  0
  -22.3250   -9.0750   20.4940 C   0  0  0  0  0  3  0  0  0  0  0  0
  -23.0770  -10.2530   20.3430 C   0  0  0  0  0  3  0  0  0  0  0  0
  -21.8900   -6.9950   21.5330 O   0  0  0  0  0  0  0  0  0  0  0  0
  -21.7390   -6.2800   22.6930 C   0  0  0  0  0  0  0  0  0  0  0  0
  -21.2120   -6.8680   23.8640 C   0  0  0  0  0  3  0  0  0  0  0  0
  -21.0040   -6.0820   25.0140 C   0  0  0  0  0  3  0  0  0  0  0  0
  -21.3180   -4.7100   24.9950 C   0  0  0  0  0  0  0  0  0  0  0  0
  -21.8430   -4.1210   23.8310 C   0  0  0  0  0  3  0  0  0  0  0  0
  -22.0510   -4.9040   22.6830 C   0  0  0  0  0  0  0  0  0  0  0  0
  -22.5360   -4.3290   21.5560 F   0  0  0  0  0  0  0  0  0  0  0  0
  -21.1130   -3.9550   26.0970 F   0  0  0  0  0  0  0  0  0  0  0  0
  -23.0390  -13.6150   21.1620 C   0  0  0  0  0  0  0  0  0  0  0  0
  -22.2510  -12.9410   21.9950 N   0  0  0  0  0  0  0  0  0  0  0  0
  -22.6440  -14.6240   20.5870 O   0  0  0  0  0  0  0  0  0  0  0  0
  -22.5920  -12.1270   22.4820 H   0  0  0  0  0  0  0  0  0  0  0  0
  -21.2990  -13.2400   22.1440 H   0  0  0  0  0  0  0  0  0  0  0  0
  -25.7240  -15.2650   20.5280 N   0  0  0  0  0  0  0  0  0  0  0  0
  -24.9520  -15.9270   20.5430 H   0  0  0  0  0  0  0  0  0  0  0  0
  -26.6040  -15.7000   20.2810 H   0  0  0  0  0  0  0  0  0  0  0  0
  -30.3850  -24.8560   16.6110 C   0  0  0  0  0  2  0  0  0  0  0  0
  -29.7160  -25.9230   17.5170 C   0  0  0  0  0  2  0  0  0  0  0  0
  -30.4090  -26.1870   18.8880 C   0  0  0  0  0  2  0  0  0  0  0  0
  -29.7290  -27.3220   19.6960 C   0  0  0  0  0  2  0  0  0  0  0  0
  -28.8330  -26.7990   20.6980 O   0  0  0  0  0  0  0  0  0  0  0  0
  -24.6580  -31.9340   23.4530 C   0  0  0  0  0  0  0  0  0  0  0  0
  -27.6250  -27.4530   20.7300 C   0  0  0  0  0  0  0  0  0  0  0  0
  -23.6050  -30.4160   21.8020 C   0  0  0  0  0  3  0  0  0  0  0  0
  -25.1940  -28.8540   20.5660 C   0  0  0  0  0  0  0  0  0  0  0  0
  -26.1250  -30.8350   21.7840 C   0  0  0  0  0  2  0  0  0  0  0  0
  -26.2940  -29.4380   21.2160 C   0  0  0  0  0  0  0  0  0  0  0  0
  -27.5030  -28.7200   21.3370 C   0  0  0  0  0  3  0  0  0  0  0  0
  -26.5170  -26.8830   20.0720 C   0  0  0  0  0  3  0  0  0  0  0  0
  -25.2910  -27.5680   20.0110 C   0  0  0  0  0  3  0  0  0  0  0  0
  -23.9380  -29.6720   20.4790 C   0  0  0  0  0  2  0  0  0  0  0  0
  -24.8090  -31.0720   22.4080 N   0  0  0  0  0  0  0  0  0  0  0  0
  -23.5370  -32.2130   23.8960 O   0  0  0  0  0  0  0  0  0  0  0  0
  -22.9030  -29.4340   22.7660 C   0  0  0  0  0  0  0  0  0  0  0  0
  -21.5940  -29.2220   22.5620 N   0  0  0  0  0  0  0  0  0  0  0  0
  -23.5370  -28.8690   23.6630 O   0  0  0  0  0  0  0  0  0  0  0  0
  -21.1480  -29.7240   21.8110 H   0  0  0  0  0  0  0  0  0  0  0  0
  -18.2270  -27.9600   22.8800 C   0  0  0  0  0  0  0  0  0  0  0  0
  -20.7460  -28.3100   23.3230 C   0  0  0  0  0  3  0  0  0  0  0  0
  -20.9360  -26.8570   22.8340 C   0  0  0  0  0  2  0  0  0  0  0  0
  -19.9230  -26.4470   21.7620 C   0  0  0  0  0  2  0  0  0  0  0  0
  -18.4900  -26.5840   22.2930 C   0  0  0  0  0  2  0  0  0  0  0  0
  -19.2900  -28.7780   23.3490 C   0  0  0  0  0  0  0  0  0  0  0  0
  -18.9950  -30.0610   23.8600 C   0  0  0  0  0  3  0  0  0  0  0  0
  -17.6700  -30.5350   23.8970 C   0  0  0  0  0  3  0  0  0  0  0  0
  -16.6190  -29.7200   23.4420 C   0  0  0  0  0  3  0  0  0  0  0  0
  -16.8970  -28.4340   22.9460 C   0  0  0  0  0  3  0  0  0  0  0  0
  -25.8920  -32.6300   24.1150 C   0  0  0  0  0  3  0  0  0  0  0  0
  -26.3700  -31.9310   25.4470 C   0  0  1  0  0  0  0  0  0  0  0  0
  -25.2140  -31.6740   26.4390 C   0  0  0  0  0  1  0  0  0  0  0  0
  -27.0390  -30.5660   25.1500 C   0  0  0  0  0  1  0  0  0  0  0  0
  -27.4280  -32.8070   26.1620 C   0  0  0  0  0  1  0  0  0  0  0  0
  -25.5360  -34.0350   24.3580 N   0  0  0  0  0  0  0  0  0  0  0  0
  -25.8990  -35.0590   23.5760 C   0  0  0  0  0  0  0  0  0  0  0  0
  -26.6310  -34.9300   22.5900 O   0  0  0  0  0  0  0  0  0  0  0  0
  -24.8820  -34.2190   25.1050 H   0  0  0  0  0  0  0  0  0  0  0  0
  -24.1440  -36.7860   23.0670 C   0  0  0  0  0  1  0  0  0  0  0  0
  -25.3580  -36.4530   23.9490 C   0  0  0  0  0  3  0  0  0  0  0  0
  -27.4230  -37.4290   24.8420 C   0  0  0  0  0  1  0  0  0  0  0  0
  -26.3660  -37.5290   23.8390 N   0  0  0  0  0  0  0  0  0  0  0  0
  -25.9280  -38.4400   23.9350 H   0  0  0  0  0  0  0  0  0  0  0  0
  2  1  1  0
  3  4  1  0
  4  8  1  0
  4  1  2  0
  5  2  2  0
  6  3  2  0
  6  5  1  0
  7  6  1  0
  8 10  1  0
  9  8  2  0
 10 11  1  0
 11 12  1  0
 12 13  1  0
 13 14  1  0
 15 14  1  0
 16 21  1  0
 17 18  1  0
 17 16  1  0
 19 18  1  0
 19 26  1  0
 19 20  1  0
 21 15  1  0
 21 20  1  0
 22 15  2  0
 23 24  2  0
 24 25  1  0
 24 43  1  0
 25 28  1  0
 26 23  1  0
 26 27  1  0
 27 25  2  0
 28 29  1  0
 29 30  2  0
 31 34  1  0
 31 30  1  0
 32 31  2  0
 33 32  1  0
 33 28  2  0
 34 35  1  0
 35 36  1  0
 36 37  2  0
 38 37  1  0
 38 42  1  0
 39 38  2  0
 40 35  2  0
 40 39  1  0
 41 40  1  0
 43 44  1  0
 44 47  1  0
 44 46  1  0
 45 43  2  0
 48 49  1  0
 48 23  1  0
 50 48  1  0
 51  5  1  0
 51 52  1  0
 52 53  1  0
 53 54  1  0
 54 55  1  0
 55 57  1  0
 56 67  2  0
 57 62  1  0
 58 66  1  0
 58 68  1  0
 59 61  1  0
 60 66  1  0
 61 62  2  0
 61 60  1  0
 63 57  2  0
 64 63  1  0
 64 59  2  0
 65 59  1  0
 65 58  1  0
 66 56  1  0
 68 70  2  0
 69 68  1  0
 71 69  1  0
 72 81  2  0
 72 77  1  0
 73 69  1  0
 73 77  1  0
 74 73  1  0
 75 76  1  0
 75 74  1  0
 76 72  1  0
 77 78  2  0
 78 79  1  0
 80 79  2  0
 81 80  1  0
 82 56  1  0
 82 87  1  0
 82 83  1  0
 83 86  1  1
 83 84  1  0
 85 83  1  0
 87 90  1  0
 88 92  1  0
 88 87  1  0
 89 88  2  0
 92 91  1  0
 94 95  1  0
 94 92  1  0
 94 93  1  0
M  ISO  4  14 100  15 100  54 101  55 101
M  END
>  <TORSDO>  (20) 
F 26

>  <SCORE>  (20) 
-11.480

>  <name>  (20) 
19

>  <ligand_id>  (20) 
19

>  <original_smiles>  (20) 
[H]c1c([H])c([H])c2c(c1[H])C([H])([H])C([H])([H])C([H])([H])C2([H])N([H])C(=O)C1([H])N(C(=O)C([H])(N([H])C(=O)C([H])(N([H])C([H])([H])[H])C([H])([H])[H])C(C([H])([H])[H])(C([H])([H])[H])C([H])([H])[H])C([H])([H])c2c([H])c(OC([H])([H])C([H])([H])C([H])([H])C([H])([H])c3c([H])c([H])c(C(=O)C([H])([H])C([H])([H])C([H])([H])C([H])([H])C([H])([H])C(=O)N4C([H])([H])C([H])([H])C([H])([H])C([H])(n5nc(-c6c([H])c([H])c(Oc7c([H])c([H])c(F)c([H])c7F)c([H])c6[H])c(C(=O)N([H])[H])c5N([H])[H])C4([H])[H])c([H])c3C([H])([H])[H])c([H])c([H])c2C1([H])[H]

>  <smiles>  (20) 
[H]c1c([H])c([H])c2c(c1[H])C([H])([H])C([H])([H])C([H])([H])C2([H])N([H])C(=O)C1([H])N(C(=O)C([H])(N([H])C(=O)C([H])(N([H])C([H])([H])[H])C([H])([H])[H])C(C([H])([H])[H])(C([H])([H])[H])C([H])([H])[H])C([H])([H])c2c([H])c(OC([H])([H])C([H])([H])C([H])([H])C([H])([H])c3c([H])c([H])c(C(=O)C([H])([H])C([H])([H])C([H])([H])C([H])([H])C([H])([H])C(=O)N4C([H])([H])C([H])([H])C([H])([H])C([H])(n5nc(-c6c([H])c([H])c(Oc7c([H])c([H])c(F)c([H])c7F)c([H])c6[H])c(C(=O)N([H])[H])c5N([H])[H])C4([H])[H])c([H])c3C([H])([H])[H])c([H])c([H])c2C1([H])[H]

$$$$
20:0:0
     RDKit          3D

 92100  0  0  1  0  0  0  0  0999 V2000
  -33.2980  -21.4340   19.7190 C   0  0  0  0  0  3  0  0  0  0  0  0
  -32.5130  -20.2650   19.6800 C   0  0  0  0  0  3  0  0  0  0  0  0
  -32.6840  -22.6960   19.8310 C   0  0  0  0  0  3  0  0  0  0  0  0
  -30.4990  -21.6240   19.9130 C   0  0  0  0  0  3  0  0  0  0  0  0
  -31.1060  -20.3540   19.7810 C   0  0  0  0  0  0  0  0  0  0  0  0
  -31.2800  -22.8000   19.9130 C   0  0  0  0  0  0  0  0  0  0  0  0
  -30.6540  -24.0530   19.9570 N   0  0  0  0  0  0  0  0  0  0  0  0
  -29.6660  -24.0080   20.1980 H   0  0  0  0  0  0  0  0  0  0  0  0
  -30.8980  -24.8540   18.7590 C   0  0  0  0  0  2  0  0  0  0  0  0
  -30.5280  -26.3410   18.9150 C   0  0  0  0  0  2  0  0  0  0  0  0
  -29.0240  -26.6750   18.8340 C   0  0  0  0  0  2  0  0  0  0  0  0
  -28.4680  -26.8200   20.1370 O   0  0  0  0  0  0  0  0  0  0  0  0
  -24.6020  -31.9080   23.2610 C   0  0  0  0  0  0  0  0  0  0  0  0
  -27.2820  -27.5120   20.1640 C   0  0  0  0  0  0  0  0  0  0  0  0
  -23.4010  -30.4960   21.6210 C   0  0  0  0  0  3  0  0  0  0  0  0
  -24.8640  -28.9650   20.1940 C   0  0  0  0  0  0  0  0  0  0  0  0
  -25.9200  -30.8760   21.4160 C   0  0  0  0  0  2  0  0  0  0  0  0
  -26.0140  -29.5050   20.7840 C   0  0  0  0  0  0  0  0  0  0  0  0
  -27.2230  -28.7800   20.7800 C   0  0  0  0  0  3  0  0  0  0  0  0
  -26.1180  -26.9710   19.5790 C   0  0  0  0  0  3  0  0  0  0  0  0
  -24.9080  -27.6940   19.5930 C   0  0  0  0  0  3  0  0  0  0  0  0
  -23.6110  -29.8140   20.2410 C   0  0  0  0  0  2  0  0  0  0  0  0
  -24.6580  -31.1080   22.1590 N   0  0  0  0  0  0  0  0  0  0  0  0
  -23.5210  -32.1740   23.8050 O   0  0  0  0  0  0  0  0  0  0  0  0
  -22.7590  -29.4730   22.5840 C   0  0  0  0  0  0  0  0  0  0  0  0
  -21.4370  -29.2810   22.4570 N   0  0  0  0  0  0  0  0  0  0  0  0
  -23.4490  -28.8540   23.3990 O   0  0  0  0  0  0  0  0  0  0  0  0
  -20.9430  -29.8340   21.7700 H   0  0  0  0  0  0  0  0  0  0  0  0
  -18.0710  -28.0700   22.9540 C   0  0  0  0  0  0  0  0  0  0  0  0
  -20.6260  -28.3390   23.2270 C   0  0  0  0  0  3  0  0  0  0  0  0
  -20.7360  -26.9090   22.6490 C   0  0  0  0  0  2  0  0  0  0  0  0
  -19.6350  -26.5810   21.6340 C   0  0  0  0  0  2  0  0  0  0  0  0
  -18.2540  -26.7210   22.2790 C   0  0  0  0  0  2  0  0  0  0  0  0
  -19.1850  -28.8370   23.3850 C   0  0  0  0  0  0  0  0  0  0  0  0
  -18.9610  -30.1000   23.9740 C   0  0  0  0  0  3  0  0  0  0  0  0
  -17.6540  -30.5960   24.1370 C   0  0  0  0  0  3  0  0  0  0  0  0
  -16.5540  -29.8260   23.7240 C   0  0  0  0  0  3  0  0  0  0  0  0
  -16.7620  -28.5640   23.1380 C   0  0  0  0  0  3  0  0  0  0  0  0
  -25.8890  -32.5440   23.8770 C   0  0  0  0  0  3  0  0  0  0  0  0
  -25.5800  -33.9430   24.2000 N   0  0  0  0  0  0  0  0  0  0  0  0
  -25.9150  -34.9910   23.4350 C   0  0  0  0  0  0  0  0  0  0  0  0
  -26.5900  -34.8820   22.4080 O   0  0  0  0  0  0  0  0  0  0  0  0
  -24.9790  -34.1010   24.9950 H   0  0  0  0  0  0  0  0  0  0  0  0
  -24.1880  -36.7790   23.0580 C   0  0  0  0  0  1  0  0  0  0  0  0
  -25.4230  -36.3800   23.8810 C   0  0  0  0  0  3  0  0  0  0  0  0
  -27.5510  -37.2690   24.7240 C   0  0  0  0  0  1  0  0  0  0  0  0
  -26.4550  -37.4340   23.7720 N   0  0  0  0  0  0  0  0  0  0  0  0
  -26.0470  -38.3540   23.9130 H   0  0  0  0  0  0  0  0  0  0  0  0
  -26.4130  -31.7780   25.1550 C   0  0  1  0  0  0  0  0  0  0  0  0
  -25.3240  -31.5410   26.2260 C   0  0  0  0  0  1  0  0  0  0  0  0
  -26.9970  -30.4000   24.7620 C   0  0  0  0  0  1  0  0  0  0  0  0
  -27.5630  -32.5780   25.8110 C   0  0  0  0  0  1  0  0  0  0  0  0
  -30.2380  -19.1060   19.6930 C   0  0  0  0  0  2  0  0  0  0  0  0
  -30.6680  -17.9540   20.6220 C   0  0  0  0  0  2  0  0  0  0  0  0
  -29.6540  -16.7920   20.6150 C   0  0  0  0  0  2  0  0  0  0  0  0
  -30.0980  -15.5610   21.4400 C   0  0  0  0  0  2  0  0  0  0  0  0
  -30.6870  -14.4410   20.5590 C   0  0  0  0  0  0  0  0  0  0  0  0
  -30.3660  -12.3670   19.2580 C   0  0  0  0  0  2  0  0  0  0  0  0
  -29.4060  -12.6510   18.0850 C   0  0  0  0  0  2  0  0  0  0  0  0
  -27.9320  -12.5100   18.5200 C   0  0  0  0  0  2  0  0  0  0  0  0
  -27.6230  -13.2690   19.8390 C   0  0  0  0  0  3  0  0  0  0  0  0
  -28.6870  -12.9310   20.9030 C   0  0  0  0  0  2  0  0  0  0  0  0
  -30.0100  -13.2780   20.3570 N   0  0  0  0  0  0  0  0  0  0  0  0
  -31.7580  -14.6820   19.9930 O   0  0  0  0  0  0  0  0  0  0  0  0
  -25.2190  -13.8590   20.5500 C   0  0  0  0  0  0  0  0  0  0  0  0
  -24.1580  -13.0790   20.9220 C   0  0  0  0  0  0  0  0  0  0  0  0
  -24.6280  -11.7310   20.8840 C   0  0  0  0  0  0  0  0  0  0  0  0
  -26.2710  -12.9860   20.3170 N   0  0  0  0  0  0  0  0  0  0  0  0
  -25.9170  -11.6990   20.5680 N   0  0  0  0  0  0  0  0  0  0  0  0
  -23.9100  -10.4620   21.0760 C   0  0  0  0  0  0  0  0  0  0  0  0
  -24.3630   -9.4910   21.9960 C   0  0  0  0  0  3  0  0  0  0  0  0
  -23.6470   -8.2870   22.1750 C   0  0  0  0  0  3  0  0  0  0  0  0
  -22.4640   -8.0480   21.4360 C   0  0  0  0  0  0  0  0  0  0  0  0
  -22.0290   -9.0090   20.5070 C   0  0  0  0  0  3  0  0  0  0  0  0
  -22.7450  -10.2040   20.3240 C   0  0  0  0  0  3  0  0  0  0  0  0
  -21.7180   -6.8970   21.5250 O   0  0  0  0  0  0  0  0  0  0  0  0
  -21.7020   -6.1360   22.6660 C   0  0  0  0  0  0  0  0  0  0  0  0
  -21.3150   -6.6730   23.9140 C   0  0  0  0  0  3  0  0  0  0  0  0
  -21.2440   -5.8390   25.0480 C   0  0  0  0  0  3  0  0  0  0  0  0
  -21.5530   -4.4690   24.9350 C   0  0  0  0  0  0  0  0  0  0  0  0
  -21.9330   -3.9320   23.6930 C   0  0  0  0  0  3  0  0  0  0  0  0
  -22.0050   -4.7640   22.5620 C   0  0  0  0  0  0  0  0  0  0  0  0
  -22.3510   -4.2380   21.3620 F   0  0  0  0  0  0  0  0  0  0  0  0
  -21.4780   -3.6650   26.0220 F   0  0  0  0  0  0  0  0  0  0  0  0
  -22.7590  -13.5450   21.2040 C   0  0  0  0  0  0  0  0  0  0  0  0
  -22.0410  -12.8430   22.0750 N   0  0  0  0  0  0  0  0  0  0  0  0
  -22.3100  -14.5680   20.6900 O   0  0  0  0  0  0  0  0  0  0  0  0
  -22.4170  -12.0190   22.5180 H   0  0  0  0  0  0  0  0  0  0  0  0
  -21.1010  -13.1370   22.3020 H   0  0  0  0  0  0  0  0  0  0  0  0
  -25.3710  -15.2320   20.3780 N   0  0  0  0  0  0  0  0  0  0  0  0
  -24.5980  -15.8780   20.4880 H   0  0  0  0  0  0  0  0  0  0  0  0
  -26.2250  -15.6830   20.0730 H   0  0  0  0  0  0  0  0  0  0  0  0
  1  3  1  0
  2  1  2  0
  2  5  1  0
  3  6  2  0
  5  4  2  0
  6  4  1  0
  6  7  1  0
  7  8  1  0
  9 10  1  0
  9  7  1  0
 11 10  1  0
 11 12  1  0
 12 14  1  0
 13 24  2  0
 14 19  1  0
 15 23  1  0
 15 25  1  0
 16 22  1  0
 16 18  1  0
 17 23  1  0
 18 17  1  0
 19 18  2  0
 20 21  1  0
 20 14  2  0
 21 16  2  0
 22 15  1  0
 23 13  1  0
 25 27  2  0
 26 25  1  0
 28 26  1  0
 29 38  2  0
 29 34  1  0
 30 26  1  0
 30 34  1  0
 31 30  1  0
 32 33  1  0
 32 31  1  0
 33 29  1  0
 34 35  2  0
 35 36  1  0
 37 36  2  0
 38 37  1  0
 39 13  1  0
 39 40  1  0
 39 49  1  0
 40 43  1  0
 41 45  1  0
 41 40  1  0
 42 41  2  0
 45 44  1  0
 47 45  1  0
 47 48  1  0
 47 46  1  0
 49 52  1  1
 49 50  1  0
 51 49  1  0
 53  5  1  0
 53 54  1  0
 55 54  1  0
 55 56  1  0
 57 56  1  0
 58 63  1  0
 59 60  1  0
 59 58  1  0
 61 60  1  0
 61 68  1  0
 61 62  1  0
 63 57  1  0
 63 62  1  0
 64 57  2  0
 65 66  2  0
 66 85  1  0
 67 66  1  0
 67 70  1  0
 68 65  1  0
 68 69  1  0
 69 67  2  0
 70 71  1  0
 71 72  2  0
 73 76  1  0
 73 72  1  0
 74 73  2  0
 75 74  1  0
 75 70  2  0
 76 77  1  0
 77 78  1  0
 78 79  2  0
 80 79  1  0
 80 84  1  0
 81 80  2  0
 82 77  2  0
 82 81  1  0
 83 82  1  0
 85 86  1  0
 86 89  1  0
 86 88  1  0
 87 85  2  0
 90 91  1  0
 90 65  1  0
 92 90  1  0
M  ISO  4  11 101  12 101  56 100  57 100
M  END
>  <TORSDO>  (21) 
F 24

>  <SCORE>  (21) 
-12.420

>  <name>  (21) 
20

>  <ligand_id>  (21) 
20

>  <original_smiles>  (21) 
[H]c1c([H])c(N([H])C([H])([H])C([H])([H])C([H])([H])Oc2c([H])c([H])c3c(c2[H])C([H])([H])N(C(=O)C([H])(N([H])C(=O)C([H])(N([H])C([H])([H])[H])C([H])([H])[H])C(C([H])([H])[H])(C([H])([H])[H])C([H])([H])[H])C([H])(C(=O)N([H])C2([H])c4c([H])c([H])c([H])c([H])c4C([H])([H])C([H])([H])C2([H])[H])C3([H])[H])c([H])c(C([H])([H])C([H])([H])C([H])([H])C([H])([H])C(=O)N2C([H])([H])C([H])([H])C([H])([H])C([H])(n3nc(-c4c([H])c([H])c(Oc5c([H])c([H])c(F)c([H])c5F)c([H])c4[H])c(C(=O)N([H])[H])c3N([H])[H])C2([H])[H])c1[H]

>  <smiles>  (21) 
[H]c1c([H])c(N([H])C([H])([H])C([H])([H])C([H])([H])Oc2c([H])c([H])c3c(c2[H])C([H])([H])N(C(=O)C([H])(N([H])C(=O)C([H])(N([H])C([H])([H])[H])C([H])([H])[H])C(C([H])([H])[H])(C([H])([H])[H])C([H])([H])[H])C([H])(C(=O)N([H])C2([H])c4c([H])c([H])c([H])c([H])c4C([H])([H])C([H])([H])C2([H])[H])C3([H])[H])c([H])c(C([H])([H])C([H])([H])C([H])([H])C([H])([H])C(=O)N2C([H])([H])C([H])([H])C([H])([H])C([H])(n3nc(-c4c([H])c([H])c(Oc5c([H])c([H])c(F)c([H])c5F)c([H])c4[H])c(C(=O)N([H])[H])c3N([H])[H])C2([H])[H])c1[H]

$$$$
21:0:0
     RDKit          3D

100107  0  0  1  0  0  0  0  0999 V2000
  -31.2970  -16.2870   23.5740 C   0  0  0  0  0  2  0  0  0  0  0  0
  -32.3470  -15.6150   24.4810 C   0  0  0  0  0  2  0  0  0  0  0  0
  -32.5720  -14.1370   24.1140 C   0  0  0  0  0  2  0  0  0  0  0  0
  -33.5910  -13.3810   24.9990 C   0  0  0  0  0  2  0  0  0  0  0  0
  -33.8600  -11.9950   24.5380 N   0  0  0  0  0  4  0  0  0  0  0  0
  -33.0160  -11.5350   24.2410 H   0  0  0  0  0  0  0  0  0  0  0  0
  -34.1910  -11.4840   25.3430 H   0  0  0  0  0  0  0  0  0  0  0  0
  -34.9420  -11.8570   23.5320 C   0  0  0  0  0  2  0  0  0  0  0  0
  -34.4610  -11.4160   22.1310 C   0  0  0  0  0  2  0  0  0  0  0  0
  -35.4140  -11.8850   21.0090 C   0  0  0  0  0  2  0  0  0  0  0  0
  -34.8480  -11.7410   19.5820 C   0  0  0  0  0  2  0  0  0  0  0  0
  -33.3910  -12.1960   19.4050 C   0  0  0  0  0  2  0  0  0  0  0  0
  -33.1690  -13.7090   19.6270 C   0  0  0  0  0  2  0  0  0  0  0  0
  -30.9960  -14.0880   18.5940 C   0  0  0  0  0  0  0  0  0  0  0  0
  -30.1150  -12.1120   17.4920 C   0  0  0  0  0  2  0  0  0  0  0  0
  -28.8570  -12.2800   16.6450 C   0  0  0  0  0  2  0  0  0  0  0  0
  -27.6140  -12.1080   17.5340 C   0  0  0  0  0  2  0  0  0  0  0  0
  -27.6500  -13.0170   18.7950 C   0  0  0  0  0  3  0  0  0  0  0  0
  -29.0000  -12.8870   19.5410 C   0  0  0  0  0  2  0  0  0  0  0  0
  -30.0890  -13.0960   18.5730 N   0  0  0  0  0  0  0  0  0  0  0  0
  -31.4630  -14.6410   17.5910 O   0  0  0  0  0  0  0  0  0  0  0  0
  -31.7310  -13.9590   19.6980 N   0  0  0  0  0  0  0  0  0  0  0  0
  -31.2540  -13.4590   20.4350 H   0  0  0  0  0  0  0  0  0  0  0  0
  -25.7000  -13.6290   20.3620 C   0  0  0  0  0  0  0  0  0  0  0  0
  -24.7400  -12.8660   20.9680 C   0  0  0  0  0  0  0  0  0  0  0  0
  -25.0180  -11.5120   20.5930 C   0  0  0  0  0  0  0  0  0  0  0  0
  -26.5150  -12.7440   19.6730 N   0  0  0  0  0  0  0  0  0  0  0  0
  -26.1210  -11.4570   19.8600 N   0  0  0  0  0  0  0  0  0  0  0  0
  -24.2650  -10.2770   20.8440 C   0  0  0  0  0  0  0  0  0  0  0  0
  -24.7360   -9.2880   21.7370 C   0  0  0  0  0  3  0  0  0  0  0  0
  -23.9800   -8.1220   21.9800 C   0  0  0  0  0  3  0  0  0  0  0  0
  -22.7400   -7.9310   21.3260 C   0  0  0  0  0  0  0  0  0  0  0  0
  -22.2850   -8.9060   20.4200 C   0  0  0  0  0  3  0  0  0  0  0  0
  -23.0440  -10.0650   20.1780 C   0  0  0  0  0  3  0  0  0  0  0  0
  -21.9550   -6.8130   21.4780 O   0  0  0  0  0  0  0  0  0  0  0  0
  -21.7890   -6.2120   22.7000 C   0  0  0  0  0  0  0  0  0  0  0  0
  -21.2640   -6.9120   23.8080 C   0  0  0  0  0  3  0  0  0  0  0  0
  -21.0440   -6.2390   25.0270 C   0  0  0  0  0  3  0  0  0  0  0  0
  -21.3380   -4.8650   25.1360 C   0  0  0  0  0  0  0  0  0  0  0  0
  -21.8510   -4.1650   24.0310 C   0  0  0  0  0  3  0  0  0  0  0  0
  -22.0730   -4.8340   22.8150 C   0  0  0  0  0  0  0  0  0  0  0  0
  -22.5490   -4.1490   21.7460 F   0  0  0  0  0  0  0  0  0  0  0  0
  -21.1140   -4.2160   26.3010 F   0  0  0  0  0  0  0  0  0  0  0  0
  -23.5750  -13.3620   21.7720 C   0  0  0  0  0  0  0  0  0  0  0  0
  -23.1250  -12.5850   22.7520 N   0  0  0  0  0  0  0  0  0  0  0  0
  -23.0890  -14.4760   21.5730 O   0  0  0  0  0  0  0  0  0  0  0  0
  -23.5330  -11.6810   22.9400 H   0  0  0  0  0  0  0  0  0  0  0  0
  -22.3590  -12.9020   23.3270 H   0  0  0  0  0  0  0  0  0  0  0  0
  -25.9380  -15.0010   20.3260 N   0  0  0  0  0  0  0  0  0  0  0  0
  -25.3180  -15.6670   20.7770 H   0  0  0  0  0  0  0  0  0  0  0  0
  -26.7160  -15.4370   19.8440 H   0  0  0  0  0  0  0  0  0  0  0  0
  -31.4350  -17.8170   23.5500 C   0  0  0  0  0  2  0  0  0  0  0  0
  -30.4580  -18.5230   22.5850 C   0  0  0  0  0  2  0  0  0  0  0  0
  -30.7310  -20.0370   22.4880 C   0  0  0  0  0  2  0  0  0  0  0  0
  -29.7160  -20.8150   21.6220 C   0  0  0  0  0  2  0  0  0  0  0  0
  -30.0020  -22.3340   21.6000 C   0  0  0  0  0  2  0  0  0  0  0  0
  -28.8340  -23.1930   21.0770 C   0  0  0  0  0  2  0  0  0  0  0  0
  -29.0830  -24.7120   21.1840 C   0  0  0  0  0  2  0  0  0  0  0  0
  -27.7700  -25.5070   21.2910 C   0  0  0  0  0  2  0  0  0  0  0  0
  -28.0510  -26.8910   21.4830 O   0  0  0  0  0  0  0  0  0  0  0  0
  -28.1320  -31.5910   26.7790 C   0  0  0  0  0  0  0  0  0  0  0  0
  -27.2820  -27.5770   22.4010 C   0  0  0  0  0  0  0  0  0  0  0  0
  -25.9840  -30.4060   26.4480 C   0  0  0  0  0  3  0  0  0  0  0  0
  -25.7920  -29.0500   24.2970 C   0  0  0  0  0  0  0  0  0  0  0  0
  -27.5660  -30.7990   24.4820 C   0  0  0  0  0  2  0  0  0  0  0  0
  -27.0460  -29.5100   23.8820 C   0  0  0  0  0  0  0  0  0  0  0  0
  -27.7910  -28.7810   22.9320 C   0  0  0  0  0  3  0  0  0  0  0  0
  -26.0110  -27.1260   22.8280 C   0  0  0  0  0  3  0  0  0  0  0  0
  -25.2670  -27.8560   23.7720 C   0  0  0  0  0  3  0  0  0  0  0  0
  -25.0550  -29.8930   25.3140 C   0  0  0  0  0  2  0  0  0  0  0  0
  -27.2880  -30.9360   25.9310 N   0  0  0  0  0  0  0  0  0  0  0  0
  -27.8200  -31.7940   27.9610 O   0  0  0  0  0  0  0  0  0  0  0  0
  -26.1500  -29.2770   27.4900 C   0  0  0  0  0  0  0  0  0  0  0  0
  -25.2150  -29.2090   28.4510 N   0  0  0  0  0  0  0  0  0  0  0  0
  -27.0810  -28.4700   27.4070 O   0  0  0  0  0  0  0  0  0  0  0  0
  -24.4900  -29.9120   28.4550 H   0  0  0  0  0  0  0  0  0  0  0  0
  -23.4500  -28.2920   31.4630 C   0  0  0  0  0  0  0  0  0  0  0  0
  -25.1420  -28.2080   29.5120 C   0  0  0  0  0  3  0  0  0  0  0  0
  -24.3800  -26.9480   29.0400 C   0  0  0  0  0  2  0  0  0  0  0  0
  -22.8850  -26.9890   29.3680 C   0  0  0  0  0  2  0  0  0  0  0  0
  -22.6720  -27.1260   30.8790 C   0  0  0  0  0  2  0  0  0  0  0  0
  -24.6020  -28.8090   30.8130 C   0  0  0  0  0  0  0  0  0  0  0  0
  -25.2680  -29.9170   31.3800 C   0  0  0  0  0  3  0  0  0  0  0  0
  -24.8060  -30.5040   32.5730 C   0  0  0  0  0  3  0  0  0  0  0  0
  -23.6750  -29.9770   33.2220 C   0  0  0  0  0  3  0  0  0  0  0  0
  -23.0030  -28.8710   32.6690 C   0  0  0  0  0  3  0  0  0  0  0  0
  -29.5160  -32.1330   26.3020 C   0  0  0  0  0  3  0  0  0  0  0  0
  -30.7120  -31.1610   26.6390 C   0  0  1  0  0  0  0  0  0  0  0  0
  -30.7770  -30.7480   28.1290 C   0  0  0  0  0  1  0  0  0  0  0  0
  -30.6110  -29.8710   25.7920 C   0  0  0  0  0  1  0  0  0  0  0  0
  -32.0550  -31.8310   26.2680 C   0  0  0  0  0  1  0  0  0  0  0  0
  -29.7150  -33.4450   26.9320 N   0  0  0  0  0  0  0  0  0  0  0  0
  -29.5360  -34.6190   26.3110 C   0  0  0  0  0  0  0  0  0  0  0  0
  -29.2510  -34.7080   25.1140 O   0  0  0  0  0  0  0  0  0  0  0  0
  -29.8900  -33.4470   27.9260 H   0  0  0  0  0  0  0  0  0  0  0  0
  -28.3140  -36.4650   27.5050 C   0  0  0  0  0  1  0  0  0  0  0  0
  -29.6990  -35.8980   27.1540 C   0  0  0  0  0  3  0  0  0  0  0  0
  -31.9170  -36.5840   26.3570 C   0  0  0  0  0  1  0  0  0  0  0  0
  -30.5080  -36.9430   26.4910 N   0  0  0  0  0  0  0  0  0  0  0  0
  -30.4520  -37.8200   27.0000 H   0  0  0  0  0  0  0  0  0  0  0  0
  1  2  1  0
  3  2  1  0
  3  4  1  0
  5  4  1  0
  5  7  1  0
  6  5  1  0
  8  5  1  0
  9  8  1  0
 10  9  1  0
 11 10  1  0
 12 11  1  0
 12 13  1  0
 13 22  1  0
 14 22  1  0
 15 20  1  0
 16 15  1  0
 16 17  1  0
 18 17  1  0
 18 19  1  0
 18 27  1  0
 20 14  1  0
 20 19  1  0
 21 14  2  0
 22 23  1  0
 24 25  2  0
 25 44  1  0
 26 29  1  0
 26 25  1  0
 27 28  1  0
 27 24  1  0
 28 26  2  0
 29 30  1  0
 30 31  2  0
 32 35  1  0
 32 31  1  0
 33 32  2  0
 34 33  1  0
 34 29  2  0
 35 36  1  0
 36 41  2  0
 36 37  1  0
 37 38  2  0
 38 39  1  0
 39 43  1  0
 40 39  2  0
 41 40  1  0
 42 41  1  0
 44 45  1  0
 45 47  1  0
 45 48  1  0
 46 44  2  0
 49 24  1  0
 49 50  1  0
 51 49  1  0
 52  1  1  0
 53 52  1  0
 54 53  1  0
 55 54  1  0
 56 55  1  0
 57 58  1  0
 57 56  1  0
 58 59  1  0
 59 60  1  0
 60 62  1  0
 61 72  2  0
 62 68  2  0
 62 67  1  0
 63 73  1  0
 64 70  1  0
 65 71  1  0
 66 64  1  0
 66 65  1  0
 67 66  2  0
 68 69  1  0
 69 64  2  0
 70 63  1  0
 71 63  1  0
 71 61  1  0
 73 74  1  0
 74 76  1  0
 75 73  2  0
 77 86  1  0
 78 74  1  0
 78 82  1  0
 79 80  1  0
 79 78  1  0
 80 81  1  0
 81 77  1  0
 82 83  1  0
 82 77  2  0
 83 84  2  0
 84 85  1  0
 86 85  2  0
 87 88  1  0
 87 61  1  0
 87 92  1  0
 88 89  1  1
 90 88  1  0
 91 88  1  0
 92 95  1  0
 93 92  1  0
 93 97  1  0
 94 93  2  0
 97 96  1  0
 98 99  1  0
 99100  1  0
 99 97  1  0
M  ISO  4  14 100  22 100  59 101  60 101
M  END
>  <TORSDO>  (22) 
F 34

>  <SCORE>  (22) 
7.782

>  <name>  (22) 
21

>  <ligand_id>  (22) 
21

>  <original_smiles>  (22) 
[H]c1c([H])c([H])c2c(c1[H])C([H])([H])C([H])([H])C([H])([H])C2([H])N([H])C(=O)C1([H])N(C(=O)C([H])(N([H])C(=O)C([H])(N([H])C([H])([H])[H])C([H])([H])[H])C(C([H])([H])[H])(C([H])([H])[H])C([H])([H])[H])C([H])([H])c2c([H])c(OC([H])([H])C([H])([H])C([H])([H])C([H])([H])C([H])([H])C([H])([H])C([H])([H])C([H])([H])C([H])([H])C([H])([H])C([H])([H])C([H])([H])[N+]([H])([H])C([H])([H])C([H])([H])C([H])([H])C([H])([H])C([H])([H])C([H])([H])N([H])C(=O)N3C([H])([H])C([H])([H])C([H])([H])C([H])(n4nc(-c5c([H])c([H])c(Oc6c([H])c([H])c(F)c([H])c6F)c([H])c5[H])c(C(=O)N([H])[H])c4N([H])[H])C3([H])[H])c([H])c([H])c2C1([H])[H]

>  <smiles>  (22) 
[H]c1c([H])c([H])c2c(c1[H])C([H])([H])C([H])([H])C([H])([H])C2([H])N([H])C(=O)C1([H])N(C(=O)C([H])(N([H])C(=O)C([H])(N([H])C([H])([H])[H])C([H])([H])[H])C(C([H])([H])[H])(C([H])([H])[H])C([H])([H])[H])C([H])([H])c2c([H])c(OC([H])([H])C([H])([H])C([H])([H])C([H])([H])C([H])([H])C([H])([H])C([H])([H])C([H])([H])C([H])([H])C([H])([H])C([H])([H])C([H])([H])[N+]([H])([H])C([H])([H])C([H])([H])C([H])([H])C([H])([H])C([H])([H])C([H])([H])N([H])C(=O)N3C([H])([H])C([H])([H])C([H])([H])C([H])(n4nc(-c5c([H])c([H])c(Oc6c([H])c([H])c(F)c([H])c6F)c([H])c5[H])c(C(=O)N([H])[H])c4N([H])[H])C3([H])[H])c([H])c([H])c2C1([H])[H]

$$$$
22:0:0
     RDKit          3D

101109  0  0  1  0  0  0  0  0999 V2000
  -24.4030  -14.2820   19.0810 C   0  0  0  0  0  3  0  0  0  0  0  0
  -25.1260  -15.7520   18.7490 C   0  0  0  0  0  2  0  0  0  0  0  0
  -25.5050  -16.8050   19.8670 C   0  0  0  0  0  3  0  0  0  0  0  0
  -26.7400  -17.7470   19.5400 C   0  0  0  0  0  3  0  0  0  0  0  0
  -27.0630  -18.9190   20.5390 C   0  0  0  0  0  2  0  0  0  0  0  0
  -28.5630  -19.4090   20.6540 C   0  0  0  0  0  2  0  0  0  0  0  0
  -29.0400  -20.7540   19.9700 C   0  0  0  0  0  2  0  0  0  0  0  0
  -30.2920  -21.4240   20.6680 C   0  0  0  0  0  2  0  0  0  0  0  0
  -30.8970  -22.7980   20.1410 C   0  0  0  0  0  3  0  0  0  0  0  0
  -30.2020  -24.1530   20.5380 C   0  0  0  0  0  3  0  0  0  0  0  0
  -30.7140  -25.4270   19.9610 O   0  0  0  0  0  0  0  0  0  0  0  0
  -25.8580  -29.8200   22.7150 C   0  0  0  0  0  0  0  0  0  0  0  0
  -29.6780  -26.2970   19.6810 C   0  0  0  0  0  0  0  0  0  0  0  0
  -25.2630  -28.6440   20.6280 C   0  0  0  0  0  3  0  0  0  0  0  0
  -27.2080  -27.6240   19.3280 C   0  0  0  0  0  0  0  0  0  0  0  0
  -27.6970  -29.3030   21.1040 C   0  0  0  0  0  2  0  0  0  0  0  0
  -28.1210  -28.1090   20.2700 C   0  0  0  0  0  0  0  0  0  0  0  0
  -29.3740  -27.4520   20.4530 C   0  0  0  0  0  3  0  0  0  0  0  0
  -28.7850  -25.9160   18.6560 C   0  0  0  0  0  3  0  0  0  0  0  0
  -27.5450  -26.5440   18.5050 C   0  0  0  0  0  3  0  0  0  0  0  0
  -25.8600  -28.3060   19.2380 C   0  0  0  0  0  2  0  0  0  0  0  0
  -26.2750  -29.2610   21.5430 N   0  0  0  0  0  0  0  0  0  0  0  0
  -24.6580  -29.8500   23.0200 O   0  0  0  0  0  0  0  0  0  0  0  0
  -24.5990  -27.3750   21.2160 C   0  0  0  0  0  0  0  0  0  0  0  0
  -23.4130  -27.0210   20.6910 N   0  0  0  0  0  0  0  0  0  0  0  0
  -25.1560  -26.7260   22.1050 O   0  0  0  0  0  0  0  0  0  0  0  0
  -23.0170  -27.6090   19.9710 H   0  0  0  0  0  0  0  0  0  0  0  0
  -20.4060  -25.1600   19.9370 C   0  0  0  0  0  0  0  0  0  0  0  0
  -22.6230  -25.8480   21.0750 C   0  0  0  0  0  3  0  0  0  0  0  0
  -23.2170  -24.5540   20.4700 C   0  0  0  0  0  2  0  0  0  0  0  0
  -22.5920  -24.1770   19.1230 C   0  0  0  0  0  2  0  0  0  0  0  0
  -21.0810  -23.9740   19.2680 C   0  0  0  0  0  2  0  0  0  0  0  0
  -21.1340  -26.0470   20.7740 C   0  0  0  0  0  0  0  0  0  0  0  0
  -20.4650  -27.1530   21.3430 C   0  0  0  0  0  3  0  0  0  0  0  0
  -19.0980  -27.3750   21.0940 C   0  0  0  0  0  3  0  0  0  0  0  0
  -18.3790  -26.4840   20.2780 C   0  0  0  0  0  3  0  0  0  0  0  0
  -19.0320  -25.3780   19.7050 C   0  0  0  0  0  3  0  0  0  0  0  0
  -26.8660  -30.4660   23.7150 C   0  0  0  0  0  3  0  0  0  0  0  0
  -26.2730  -31.7250   24.1890 N   0  0  0  0  0  0  0  0  0  0  0  0
  -26.6140  -32.9410   23.7440 C   0  0  0  0  0  0  0  0  0  0  0  0
  -27.5240  -33.1270   22.9300 O   0  0  0  0  0  0  0  0  0  0  0  0
  -25.4850  -31.6470   24.8160 H   0  0  0  0  0  0  0  0  0  0  0  0
  -24.7710  -34.5820   23.2520 C   0  0  0  0  0  1  0  0  0  0  0  0
  -25.8180  -34.1440   24.2890 C   0  0  0  0  0  3  0  0  0  0  0  0
  -27.5220  -35.0430   25.8110 C   0  0  0  0  0  1  0  0  0  0  0  0
  -26.6710  -35.2960   24.6530 N   0  0  0  0  0  0  0  0  0  0  0  0
  -26.1020  -36.1150   24.8530 H   0  0  0  0  0  0  0  0  0  0  0  0
  -27.2240  -29.5260   24.9310 C   0  0  1  0  0  0  0  0  0  0  0  0
  -25.9850  -28.9650   25.6650 C   0  0  0  0  0  1  0  0  0  0  0  0
  -28.0790  -28.3260   24.4620 C   0  0  0  0  0  1  0  0  0  0  0  0
  -28.0780  -30.3030   25.9590 C   0  0  0  0  0  1  0  0  0  0  0  0
  -25.1750  -12.8150   19.6040 C   0  0  0  0  0  2  0  0  0  0  0  0
  -26.6260  -13.6360   19.1040 C   0  0  0  0  0  2  0  0  0  0  0  0
  -28.2640  -13.6300   18.9740 C   0  0  0  0  0  2  0  0  0  0  0  0
  -29.3590  -14.4290   19.9040 C   0  0  0  0  0  2  0  0  0  0  0  0
  -30.9780  -12.9700   21.4510 C   0  0  0  0  0  0  0  0  0  0  0  0
  -30.8470  -10.7640   20.4830 C   0  0  0  0  0  2  0  0  0  0  0  0
  -29.9590  -11.0240   19.2690 C   0  0  0  0  0  2  0  0  0  0  0  0
  -28.5040  -10.9440   19.7520 C   0  0  0  0  0  2  0  0  0  0  0  0
  -28.2650  -11.7330   21.1010 C   0  0  0  0  0  3  0  0  0  0  0  0
  -29.2140  -11.3840   22.1780 C   0  0  0  0  0  2  0  0  0  0  0  0
  -30.4720  -11.7260   21.5260 N   0  0  0  0  0  0  0  0  0  0  0  0
  -32.1930  -13.1770   21.4570 O   0  0  0  0  0  0  0  0  0  0  0  0
  -30.0980  -13.9830   21.1650 N   0  0  0  0  0  0  0  0  0  0  0  0
  -30.4550  -14.8140   21.6190 H   0  0  0  0  0  0  0  0  0  0  0  0
  -25.6490  -12.9310   22.0150 C   0  0  0  0  0  0  0  0  0  0  0  0
  -24.1500  -12.0610   21.8880 C   0  0  0  0  0  0  0  0  0  0  0  0
  -24.4870  -10.3890   21.2850 C   0  0  0  0  0  0  0  0  0  0  0  0
  -26.9970  -11.7050   21.4620 N   0  0  0  0  0  0  0  0  0  0  0  0
  -26.1660  -10.1860   21.0240 N   0  0  0  0  0  0  0  0  0  0  0  0
  -23.8480   -9.1580   21.6840 C   0  0  0  0  0  0  0  0  0  0  0  0
  -24.3540   -8.2420   22.6680 C   0  0  0  0  0  3  0  0  0  0  0  0
  -23.6620   -7.0340   22.9100 C   0  0  0  0  0  3  0  0  0  0  0  0
  -22.4700   -6.7720   22.1820 C   0  0  0  0  0  0  0  0  0  0  0  0
  -21.9870   -7.7040   21.2640 C   0  0  0  0  0  3  0  0  0  0  0  0
  -22.6670   -8.9010   21.0250 C   0  0  0  0  0  3  0  0  0  0  0  0
  -21.7460   -5.6140   22.2350 O   0  0  0  0  0  0  0  0  0  0  0  0
  -21.6790   -4.8350   23.3510 C   0  0  0  0  0  0  0  0  0  0  0  0
  -21.2480   -5.3340   24.5940 C   0  0  0  0  0  3  0  0  0  0  0  0
  -21.1280   -4.4600   25.6910 C   0  0  0  0  0  3  0  0  0  0  0  0
  -21.4190   -3.0940   25.5380 C   0  0  0  0  0  0  0  0  0  0  0  0
  -21.8410   -2.5950   24.2910 C   0  0  0  0  0  3  0  0  0  0  0  0
  -21.9710   -3.4640   23.1970 C   0  0  0  0  0  0  0  0  0  0  0  0
  -22.3560   -2.9860   21.9900 F   0  0  0  0  0  0  0  0  0  0  0  0
  -21.2900   -2.2500   26.5860 F   0  0  0  0  0  0  0  0  0  0  0  0
  -22.8060  -12.4560   22.3230 C   0  0  0  0  0  0  0  0  0  0  0  0
  -22.1410  -11.5950   23.0820 N   0  0  0  0  0  0  0  0  0  0  0  0
  -22.3280  -13.5260   21.9860 O   0  0  0  0  0  0  0  0  0  0  0  0
  -22.5620  -10.7300   23.3870 H   0  0  0  0  0  0  0  0  0  0  0  0
  -21.2180  -11.8320   23.4020 H   0  0  0  0  0  0  0  0  0  0  0  0
  -25.9520  -14.2410   22.2010 N   0  0  0  0  0  0  0  0  0  0  0  0
  -25.2600  -14.9450   22.4500 H   0  0  0  0  0  0  0  0  0  0  0  0
  -26.8710  -14.6210   22.0510 H   0  0  0  0  0  0  0  0  0  0  0  0
  -23.3010  -14.0800   17.9850 C   0  0  0  0  0  2  0  0  0  0  0  0
  -21.8770  -14.1420   18.6290 C   0  0  0  0  0  2  0  0  0  0  0  0
  -18.3480  -15.8120   16.7230 C   0  0  0  0  0  3  0  0  0  0  0  0
  -18.7440  -16.2710   17.9930 C   0  0  0  0  0  3  0  0  0  0  0  0
  -19.1610  -14.8920   16.0260 C   0  0  0  0  0  3  0  0  0  0  0  0
  -19.9370  -15.7910   18.5770 C   0  0  0  0  0  3  0  0  0  0  0  0
  -20.3520  -14.4160   16.6090 C   0  0  0  0  0  3  0  0  0  0  0  0
  -20.7410  -14.8470   17.8980 C   0  0  0  0  0  0  0  0  0  0  0  0
  1 94  1  0
  1 52  1  0
  2  1  1  0
  2  3  1  0
  4  3  2  0
  4  5  1  0
  5  6  1  0
  7  6  1  0
  7  8  1  0
  9 10  2  0
  9  8  1  0
 11 10  1  0
 12 23  2  0
 13 11  1  0
 13 18  1  0
 14 24  1  0
 14 22  1  0
 15 17  1  0
 16 22  1  0
 17 18  2  0
 17 16  1  0
 19 13  2  0
 20 19  1  0
 20 15  2  0
 21 15  1  0
 21 14  1  0
 22 12  1  0
 24 26  2  0
 25 24  1  0
 27 25  1  0
 28 33  1  0
 29 25  1  0
 30 29  1  0
 31 32  1  0
 31 30  1  0
 32 28  1  0
 33 29  1  0
 33 34  2  0
 35 34  1  0
 36 35  2  0
 37 28  2  0
 37 36  1  0
 38 12  1  0
 38 39  1  0
 38 48  1  0
 39 42  1  0
 40 39  1  0
 40 44  1  0
 41 40  2  0
 44 43  1  0
 44 46  1  0
 46 47  1  0
 46 45  1  0
 48 49  1  1
 48 51  1  0
 50 48  1  0
 53 52  1  0
 54 53  1  0
 54 55  1  0
 55 64  1  0
 56 63  2  0
 56 62  1  0
 57 62  1  0
 58 59  1  0
 58 57  1  0
 60 59  1  0
 60 69  1  0
 60 61  1  0
 62 61  1  0
 64 56  1  0
 64 65  1  0
 66 91  1  0
 67 66  2  0
 67 86  1  0
 68 71  1  0
 68 67  1  0
 69 66  1  0
 70 68  2  0
 70 69  1  0
 71 72  1  0
 72 73  2  0
 74 77  1  0
 74 73  1  0
 75 74  2  0
 76 75  1  0
 76 71  2  0
 77 78  1  0
 78 79  1  0
 79 80  2  0
 81 80  1  0
 81 85  1  0
 82 81  2  0
 83 78  2  0
 83 82  1  0
 84 83  1  0
 86 87  1  0
 87 89  1  0
 87 90  1  0
 88 86  2  0
 91 92  1  0
 93 91  1  0
 94 95  1  0
 96 97  1  0
 97 99  2  0
 98100  1  0
 98 96  2  0
100101  2  0
101 99  1  0
101 95  1  0
M  ISO  4  10 101  11 101  56 100  64 100
M  END
>  <TORSDO>  (23) 
F 32

>  <SCORE>  (23) 
22.822

>  <name>  (23) 
22

>  <ligand_id>  (23) 
22

>  <original_smiles>  (23) 
[H]c1c([H])c([H])c(C([H])([H])C([H])([H])C([H])(C([H])([H])C([H])([H])C([H])([H])C([H])([H])N([H])C(=O)N2C([H])([H])C([H])([H])C([H])([H])C([H])(n3nc(-c4c([H])c([H])c(Oc5c([H])c([H])c(F)c([H])c5F)c([H])c4[H])c(C(=O)N([H])[H])c3N([H])[H])C2([H])[H])C([H])([H])C([H])([H])C([H])([H])C([H])([H])C([H])([H])C([H])([H])C([H])([H])C([H])([H])C([H])([H])Oc2c([H])c([H])c3c(c2[H])C([H])([H])N(C(=O)C([H])(N([H])C(=O)C([H])(N([H])C([H])([H])[H])C([H])([H])[H])C(C([H])([H])[H])(C([H])([H])[H])C([H])([H])[H])C([H])(C(=O)N([H])C2([H])c4c([H])c([H])c([H])c([H])c4C([H])([H])C([H])([H])C2([H])[H])C3([H])[H])c([H])c1[H]

>  <smiles>  (23) 
[H]c1c([H])c([H])c(C([H])([H])C([H])([H])C([H])(C([H])([H])C([H])([H])C([H])([H])C([H])([H])N([H])C(=O)N2C([H])([H])C([H])([H])C([H])([H])C([H])(n3nc(-c4c([H])c([H])c(Oc5c([H])c([H])c(F)c([H])c5F)c([H])c4[H])c(C(=O)N([H])[H])c3N([H])[H])C2([H])[H])C([H])([H])C([H])([H])C([H])([H])C([H])([H])C([H])([H])C([H])([H])C([H])([H])C([H])([H])C([H])([H])Oc2c([H])c([H])c3c(c2[H])C([H])([H])N(C(=O)C([H])(N([H])C(=O)C([H])(N([H])C([H])([H])[H])C([H])([H])[H])C(C([H])([H])[H])(C([H])([H])[H])C([H])([H])[H])C([H])(C(=O)N([H])C2([H])c4c([H])c([H])c([H])c([H])c4C([H])([H])C([H])([H])C2([H])[H])C3([H])[H])c([H])c1[H]

$$$$
23:0:0
     RDKit          3D

101109  0  0  1  0  0  0  0  0999 V2000
  -26.8480  -21.6550   18.3430 C   0  0  0  0  0  3  0  0  0  0  0  0
  -26.3200  -22.0890   19.7380 C   0  0  0  0  0  2  0  0  0  0  0  0
  -26.8700  -23.4230   20.2910 C   0  0  0  0  0  2  0  0  0  0  0  0
  -27.2720  -23.3730   21.7820 C   0  0  0  0  0  2  0  0  0  0  0  0
  -28.1640  -24.5560   22.1980 C   0  0  0  0  0  2  0  0  0  0  0  0
  -29.6140  -24.3600   21.7210 C   0  0  0  0  0  2  0  0  0  0  0  0
  -30.5390  -25.5720   21.9080 C   0  0  0  0  0  2  0  0  0  0  0  0
  -30.6850  -26.4750   20.6650 C   0  0  0  0  0  2  0  0  0  0  0  0
  -29.5760  -27.5190   20.4980 C   0  0  0  0  0  2  0  0  0  0  0  0
  -28.4880  -27.0220   19.7160 O   0  0  0  0  0  0  0  0  0  0  0  0
  -24.5310  -31.8870   23.0820 C   0  0  0  0  0  0  0  0  0  0  0  0
  -27.3080  -27.7320   19.7790 C   0  0  0  0  0  0  0  0  0  0  0  0
  -23.3370  -30.4830   21.4260 C   0  0  0  0  0  3  0  0  0  0  0  0
  -24.8170  -29.0660   19.9070 C   0  0  0  0  0  0  0  0  0  0  0  0
  -25.8230  -30.9860   21.1580 C   0  0  0  0  0  2  0  0  0  0  0  0
  -25.9520  -29.6430   20.4810 C   0  0  0  0  0  0  0  0  0  0  0  0
  -27.1910  -28.9860   20.4220 C   0  0  0  0  0  3  0  0  0  0  0  0
  -26.1620  -27.1770   19.1720 C   0  0  0  0  0  3  0  0  0  0  0  0
  -24.9130  -27.8260   19.2490 C   0  0  0  0  0  3  0  0  0  0  0  0
  -23.5330  -29.8550   20.0180 C   0  0  0  0  0  2  0  0  0  0  0  0
  -24.5840  -31.1300   21.9490 N   0  0  0  0  0  0  0  0  0  0  0  0
  -23.4580  -32.0930   23.6630 O   0  0  0  0  0  0  0  0  0  0  0  0
  -22.7660  -29.4020   22.3720 C   0  0  0  0  0  0  0  0  0  0  0  0
  -21.4520  -29.1500   22.2620 N   0  0  0  0  0  0  0  0  0  0  0  0
  -23.5000  -28.7960   23.1560 O   0  0  0  0  0  0  0  0  0  0  0  0
  -20.9200  -29.7010   21.6040 H   0  0  0  0  0  0  0  0  0  0  0  0
  -18.1710  -27.7220   22.7310 C   0  0  0  0  0  0  0  0  0  0  0  0
  -20.7030  -28.1480   23.0170 C   0  0  0  0  0  3  0  0  0  0  0  0
  -20.9060  -26.7340   22.4260 C   0  0  0  0  0  2  0  0  0  0  0  0
  -19.8320  -26.3490   21.4030 C   0  0  0  0  0  2  0  0  0  0  0  0
  -18.4420  -26.3930   22.0440 C   0  0  0  0  0  2  0  0  0  0  0  0
  -19.2330  -28.5510   23.1740 C   0  0  0  0  0  0  0  0  0  0  0  0
  -18.9280  -29.7900   23.7770 C   0  0  0  0  0  3  0  0  0  0  0  0
  -17.5930  -30.2030   23.9400 C   0  0  0  0  0  3  0  0  0  0  0  0
  -16.5440  -29.3700   23.5150 C   0  0  0  0  0  3  0  0  0  0  0  0
  -16.8330  -28.1310   22.9150 C   0  0  0  0  0  3  0  0  0  0  0  0
  -25.8100  -32.5530   23.6830 C   0  0  0  0  0  3  0  0  0  0  0  0
  -25.4470  -33.9150   24.0910 N   0  0  0  0  0  0  0  0  0  0  0  0
  -25.7010  -35.0160   23.3720 C   0  0  0  0  0  0  0  0  0  0  0  0
  -26.3370  -34.9940   22.3150 O   0  0  0  0  0  0  0  0  0  0  0  0
  -24.8730  -34.0000   24.9170 H   0  0  0  0  0  0  0  0  0  0  0  0
  -23.8680  -36.7250   23.1660 C   0  0  0  0  0  1  0  0  0  0  0  0
  -25.1600  -36.3540   23.9100 C   0  0  0  0  0  3  0  0  0  0  0  0
  -27.2830  -37.3120   24.6850 C   0  0  0  0  0  1  0  0  0  0  0  0
  -26.1280  -37.4660   23.8060 N   0  0  0  0  0  0  0  0  0  0  0  0
  -25.6820  -38.3530   24.0210 H   0  0  0  0  0  0  0  0  0  0  0  0
  -26.4170  -31.7490   24.8960 C   0  0  1  0  0  0  0  0  0  0  0  0
  -25.3860  -31.4150   26.0000 C   0  0  0  0  0  1  0  0  0  0  0  0
  -27.0480  -30.4220   24.4080 C   0  0  0  0  0  1  0  0  0  0  0  0
  -27.5570  -32.5670   25.5480 C   0  0  0  0  0  1  0  0  0  0  0  0
  -28.3680  -21.3590   18.3020 C   0  0  0  0  0  2  0  0  0  0  0  0
  -28.8820  -20.3810   19.3730 C   0  0  0  0  0  2  0  0  0  0  0  0
  -30.4010  -20.1490   19.2410 C   0  0  0  0  0  2  0  0  0  0  0  0
  -31.0140  -19.1840   20.2710 C   0  0  0  0  0  2  0  0  0  0  0  0
  -30.5320  -17.7300   20.1200 C   0  0  0  0  0  2  0  0  0  0  0  0
  -31.1360  -16.7800   21.1690 C   0  0  0  0  0  2  0  0  0  0  0  0
  -31.1920  -14.4390   20.2920 C   0  0  0  0  0  0  0  0  0  0  0  0
  -30.8330  -12.2120   19.2930 C   0  0  0  0  0  2  0  0  0  0  0  0
  -29.9070  -12.3260   18.0660 C   0  0  0  0  0  2  0  0  0  0  0  0
  -28.4270  -12.2590   18.4900 C   0  0  0  0  0  2  0  0  0  0  0  0
  -28.0970  -13.2250   19.6590 C   0  0  0  0  0  3  0  0  0  0  0  0
  -29.1290  -13.0740   20.7980 C   0  0  0  0  0  2  0  0  0  0  0  0
  -30.4750  -13.2860   20.2310 N   0  0  0  0  0  0  0  0  0  0  0  0
  -32.2640  -14.6060   19.7030 O   0  0  0  0  0  0  0  0  0  0  0  0
  -30.6280  -15.4190   21.0110 N   0  0  0  0  0  0  0  0  0  0  0  0
  -29.7470  -15.2020   21.4530 H   0  0  0  0  0  0  0  0  0  0  0  0
  -25.7340  -13.9730   20.3600 C   0  0  0  0  0  0  0  0  0  0  0  0
  -24.6260  -13.2630   20.7410 C   0  0  0  0  0  0  0  0  0  0  0  0
  -25.0130  -11.8880   20.7220 C   0  0  0  0  0  0  0  0  0  0  0  0
  -26.7300  -13.0330   20.1400 N   0  0  0  0  0  0  0  0  0  0  0  0
  -26.2980  -11.7750   20.4100 N   0  0  0  0  0  0  0  0  0  0  0  0
  -24.2200  -10.6700   20.9290 C   0  0  0  0  0  0  0  0  0  0  0  0
  -24.5960   -9.6960   21.8800 C   0  0  0  0  0  3  0  0  0  0  0  0
  -23.8080   -8.5400   22.0720 C   0  0  0  0  0  3  0  0  0  0  0  0
  -22.6290   -8.3520   21.3140 C   0  0  0  0  0  0  0  0  0  0  0  0
  -22.2710   -9.3140   20.3520 C   0  0  0  0  0  3  0  0  0  0  0  0
  -23.0600  -10.4600   20.1580 C   0  0  0  0  0  3  0  0  0  0  0  0
  -21.8150   -7.2500   21.4140 O   0  0  0  0  0  0  0  0  0  0  0  0
  -21.7080   -6.5390   22.5820 C   0  0  0  0  0  0  0  0  0  0  0  0
  -21.3060   -7.1470   23.7920 C   0  0  0  0  0  3  0  0  0  0  0  0
  -21.1410   -6.3660   24.9530 C   0  0  0  0  0  3  0  0  0  0  0  0
  -21.3690   -4.9780   24.9060 C   0  0  0  0  0  0  0  0  0  0  0  0
  -21.7640   -4.3690   23.7010 C   0  0  0  0  0  3  0  0  0  0  0  0
  -21.9300   -5.1480   22.5420 C   0  0  0  0  0  0  0  0  0  0  0  0
  -22.2900   -4.5530   21.3790 F   0  0  0  0  0  0  0  0  0  0  0  0
  -21.2040   -4.2250   26.0180 F   0  0  0  0  0  0  0  0  0  0  0  0
  -23.2590  -13.8190   21.0150 C   0  0  0  0  0  0  0  0  0  0  0  0
  -22.5040  -13.1790   21.9020 N   0  0  0  0  0  0  0  0  0  0  0  0
  -22.8690  -14.8550   20.4790 O   0  0  0  0  0  0  0  0  0  0  0  0
  -22.8310  -12.3400   22.3560 H   0  0  0  0  0  0  0  0  0  0  0  0
  -21.5860  -13.5330   22.1290 H   0  0  0  0  0  0  0  0  0  0  0  0
  -25.9730  -15.3300   20.1690 N   0  0  0  0  0  0  0  0  0  0  0  0
  -25.2450  -16.0280   20.2720 H   0  0  0  0  0  0  0  0  0  0  0  0
  -26.8520  -15.7170   19.8470 H   0  0  0  0  0  0  0  0  0  0  0  0
  -26.4790  -22.6410   17.2110 C   0  0  0  0  0  2  0  0  0  0  0  0
  -22.3900  -24.0850   17.0070 C   0  0  0  0  0  3  0  0  0  0  0  0
  -22.7360  -22.8580   16.4080 C   0  0  0  0  0  3  0  0  0  0  0  0
  -23.3510  -24.8000   17.7480 C   0  0  0  0  0  3  0  0  0  0  0  0
  -24.0510  -22.3670   16.5160 C   0  0  0  0  0  3  0  0  0  0  0  0
  -24.6700  -24.3150   17.8480 C   0  0  0  0  0  3  0  0  0  0  0  0
  -25.0320  -23.1090   17.2130 C   0  0  0  0  0  0  0  0  0  0  0  0
  1 95  1  0
  1  2  1  0
  2  3  1  0
  3  4  1  0
  4  5  1  0
  6  7  1  0
  6  5  1  0
  8  7  1  0
  9  8  1  0
 10 12  1  0
 10  9  1  0
 11 22  2  0
 12 17  1  0
 13 21  1  0
 13 23  1  0
 14 20  1  0
 14 16  1  0
 15 21  1  0
 16 15  1  0
 17 16  2  0
 18 19  1  0
 18 12  2  0
 19 14  2  0
 20 13  1  0
 21 11  1  0
 23 25  2  0
 24 23  1  0
 26 24  1  0
 27 36  2  0
 27 32  1  0
 28 24  1  0
 28 32  1  0
 29 28  1  0
 30 31  1  0
 30 29  1  0
 31 27  1  0
 32 33  2  0
 33 34  1  0
 35 34  2  0
 36 35  1  0
 37 11  1  0
 37 38  1  0
 37 47  1  0
 38 41  1  0
 39 43  1  0
 39 38  1  0
 40 39  2  0
 43 42  1  0
 45 43  1  0
 45 46  1  0
 45 44  1  0
 47 50  1  1
 47 48  1  0
 49 47  1  0
 51  1  1  0
 51 52  1  0
 53 52  1  0
 53 54  1  0
 55 54  1  0
 55 56  1  0
 57 65  1  0
 58 63  1  0
 59 60  1  0
 59 58  1  0
 61 60  1  0
 61 70  1  0
 61 62  1  0
 63 57  1  0
 63 62  1  0
 64 57  2  0
 65 56  1  0
 65 66  1  0
 67 68  2  0
 68 87  1  0
 69 68  1  0
 69 72  1  0
 70 67  1  0
 70 71  1  0
 71 69  2  0
 72 73  1  0
 73 74  2  0
 75 78  1  0
 75 74  1  0
 76 75  2  0
 77 76  1  0
 77 72  2  0
 78 79  1  0
 79 80  1  0
 80 81  2  0
 82 81  1  0
 82 86  1  0
 83 82  2  0
 84 79  2  0
 84 83  1  0
 85 84  1  0
 87 88  1  0
 88 91  1  0
 88 90  1  0
 89 87  2  0
 92 93  1  0
 92 67  1  0
 94 92  1  0
 95101  1  0
 96 98  1  0
 97 99  1  0
 97 96  2  0
 98100  2  0
 99101  2  0
101100  1  0
M  ISO  4   9 101  10 101  57 100  65 100
M  END
>  <TORSDO>  (24) 
F 32

>  <SCORE>  (24) 
-9.817

>  <name>  (24) 
23

>  <ligand_id>  (24) 
23

>  <original_smiles>  (24) 
[H]c1c([H])c([H])c(C([H])([H])C([H])(C([H])([H])C([H])([H])C([H])([H])C([H])([H])C([H])([H])C([H])([H])N([H])C(=O)N2C([H])([H])C([H])([H])C([H])([H])C([H])(n3nc(-c4c([H])c([H])c(Oc5c([H])c([H])c(F)c([H])c5F)c([H])c4[H])c(C(=O)N([H])[H])c3N([H])[H])C2([H])[H])C([H])([H])C([H])([H])C([H])([H])C([H])([H])C([H])([H])C([H])([H])C([H])([H])C([H])([H])Oc2c([H])c([H])c3c(c2[H])C([H])([H])N(C(=O)C([H])(N([H])C(=O)C([H])(N([H])C([H])([H])[H])C([H])([H])[H])C(C([H])([H])[H])(C([H])([H])[H])C([H])([H])[H])C([H])(C(=O)N([H])C2([H])c4c([H])c([H])c([H])c([H])c4C([H])([H])C([H])([H])C2([H])[H])C3([H])[H])c([H])c1[H]

>  <smiles>  (24) 
[H]c1c([H])c([H])c(C([H])([H])C([H])(C([H])([H])C([H])([H])C([H])([H])C([H])([H])C([H])([H])C([H])([H])N([H])C(=O)N2C([H])([H])C([H])([H])C([H])([H])C([H])(n3nc(-c4c([H])c([H])c(Oc5c([H])c([H])c(F)c([H])c5F)c([H])c4[H])c(C(=O)N([H])[H])c3N([H])[H])C2([H])[H])C([H])([H])C([H])([H])C([H])([H])C([H])([H])C([H])([H])C([H])([H])C([H])([H])C([H])([H])Oc2c([H])c([H])c3c(c2[H])C([H])([H])N(C(=O)C([H])(N([H])C(=O)C([H])(N([H])C([H])([H])[H])C([H])([H])[H])C(C([H])([H])[H])(C([H])([H])[H])C([H])([H])[H])C([H])(C(=O)N([H])C2([H])c4c([H])c([H])c([H])c([H])c4C([H])([H])C([H])([H])C2([H])[H])C3([H])[H])c([H])c1[H]

$$$$
24:0:0
     RDKit          3D

 91 98  0  0  1  0  0  0  0  0999 V2000
  -28.9890  -22.7550   21.4780 C   0  0  0  0  0  3  0  0  0  0  0  0
  -28.8350  -21.3920   20.7910 N   0  0  0  0  0  4  0  0  0  0  0  0
  -27.8970  -21.0880   20.9730 H   0  0  0  0  0  0  0  0  0  0  0  0
  -28.9060  -21.5590   19.8010 H   0  0  0  0  0  0  0  0  0  0  0  0
  -29.7350  -20.1960   21.1080 C   0  0  0  0  0  3  0  0  0  0  0  0
  -29.2140  -18.7470   20.6550 C   0  0  0  0  0  3  0  0  0  0  0  0
  -30.2240  -17.4970   20.7080 C   0  0  0  0  0  2  0  0  0  0  0  0
  -29.6690  -16.0010   20.8560 C   0  0  0  0  0  2  0  0  0  0  0  0
  -30.5260  -14.7360   20.3730 C   0  0  0  0  0  0  0  0  0  0  0  0
  -30.3680  -12.4900   19.2840 C   0  0  0  0  0  2  0  0  0  0  0  0
  -29.4280  -12.5950   18.0610 C   0  0  0  0  0  2  0  0  0  0  0  0
  -27.9530  -12.4250   18.4770 C   0  0  0  0  0  2  0  0  0  0  0  0
  -27.5860  -13.2770   19.7200 C   0  0  0  0  0  3  0  0  0  0  0  0
  -28.6370  -13.1420   20.8430 C   0  0  0  0  0  2  0  0  0  0  0  0
  -29.9420  -13.4980   20.2770 N   0  0  0  0  0  0  0  0  0  0  0  0
  -31.6790  -14.9050   19.9610 O   0  0  0  0  0  0  0  0  0  0  0  0
  -25.2040  -13.8820   20.4490 C   0  0  0  0  0  0  0  0  0  0  0  0
  -24.1410  -13.1150   20.8250 C   0  0  0  0  0  0  0  0  0  0  0  0
  -24.6010  -11.7590   20.8020 C   0  0  0  0  0  0  0  0  0  0  0  0
  -26.2440  -12.9970   20.2080 N   0  0  0  0  0  0  0  0  0  0  0  0
  -25.8880  -11.7150   20.4840 N   0  0  0  0  0  0  0  0  0  0  0  0
  -23.8750  -10.5010   21.0040 C   0  0  0  0  0  0  0  0  0  0  0  0
  -24.3180   -9.5330   21.9330 C   0  0  0  0  0  3  0  0  0  0  0  0
  -23.5910   -8.3380   22.1250 C   0  0  0  0  0  3  0  0  0  0  0  0
  -22.4100   -8.0990   21.3800 C   0  0  0  0  0  0  0  0  0  0  0  0
  -21.9890   -9.0540   20.4370 C   0  0  0  0  0  3  0  0  0  0  0  0
  -22.7160  -10.2390   20.2440 C   0  0  0  0  0  3  0  0  0  0  0  0
  -21.6560   -6.9540   21.4780 O   0  0  0  0  0  0  0  0  0  0  0  0
  -21.6200   -6.2130   22.6330 C   0  0  0  0  0  0  0  0  0  0  0  0
  -21.2190   -6.7700   23.8670 C   0  0  0  0  0  3  0  0  0  0  0  0
  -21.1300   -5.9550   25.0110 C   0  0  0  0  0  3  0  0  0  0  0  0
  -21.4340   -4.5830   24.9240 C   0  0  0  0  0  0  0  0  0  0  0  0
  -21.8280   -4.0240   23.6980 C   0  0  0  0  0  3  0  0  0  0  0  0
  -21.9190   -4.8360   22.5540 C   0  0  0  0  0  0  0  0  0  0  0  0
  -22.2780   -4.2890   21.3670 F   0  0  0  0  0  0  0  0  0  0  0  0
  -21.3400   -3.7980   26.0240 F   0  0  0  0  0  0  0  0  0  0  0  0
  -22.7450  -13.5900   21.1090 C   0  0  0  0  0  0  0  0  0  0  0  0
  -22.0300  -12.9000   21.9850 N   0  0  0  0  0  0  0  0  0  0  0  0
  -22.3030  -14.6150   20.5840 O   0  0  0  0  0  0  0  0  0  0  0  0
  -22.4060  -12.0710   22.4210 H   0  0  0  0  0  0  0  0  0  0  0  0
  -21.0930  -13.1920   22.2230 H   0  0  0  0  0  0  0  0  0  0  0  0
  -25.3820  -15.2530   20.2640 N   0  0  0  0  0  0  0  0  0  0  0  0
  -24.6320  -15.9230   20.3720 H   0  0  0  0  0  0  0  0  0  0  0  0
  -26.2430  -15.6690   19.9370 H   0  0  0  0  0  0  0  0  0  0  0  0
  -28.3650  -23.9910   20.6510 C   0  0  0  0  0  2  0  0  0  0  0  0
  -28.3610  -25.4690   21.2480 C   0  0  0  0  0  2  0  0  0  0  0  0
  -28.3640  -26.5760   20.2750 O   0  0  0  0  0  0  0  0  0  0  0  0
  -24.6020  -31.9000   23.2420 C   0  0  0  0  0  0  0  0  0  0  0  0
  -27.2370  -27.3870   20.2290 C   0  0  0  0  0  0  0  0  0  0  0  0
  -23.4090  -30.4970   21.5910 C   0  0  0  0  0  3  0  0  0  0  0  0
  -24.8680  -28.9470   20.1810 C   0  0  0  0  0  0  0  0  0  0  0  0
  -25.9370  -30.8400   21.4110 C   0  0  0  0  0  2  0  0  0  0  0  0
  -26.0230  -29.4600   20.7820 C   0  0  0  0  0  0  0  0  0  0  0  0
  -27.2120  -28.6860   20.8030 C   0  0  0  0  0  3  0  0  0  0  0  0
  -26.0700  -26.9160   19.5900 C   0  0  0  0  0  3  0  0  0  0  0  0
  -24.8850  -27.6820   19.5740 C   0  0  0  0  0  3  0  0  0  0  0  0
  -23.6300  -29.8090   20.2150 C   0  0  0  0  0  2  0  0  0  0  0  0
  -24.6680  -31.0980   22.1390 N   0  0  0  0  0  0  0  0  0  0  0  0
  -23.5180  -32.1670   23.7810 O   0  0  0  0  0  0  0  0  0  0  0  0
  -22.7520  -29.4790   22.5520 C   0  0  0  0  0  0  0  0  0  0  0  0
  -21.4250  -29.3110   22.4340 N   0  0  0  0  0  0  0  0  0  0  0  0
  -23.4340  -28.8430   23.3610 O   0  0  0  0  0  0  0  0  0  0  0  0
  -20.9420  -29.8760   21.7490 H   0  0  0  0  0  0  0  0  0  0  0  0
  -18.0420  -28.1330   22.9400 C   0  0  0  0  0  0  0  0  0  0  0  0
  -20.6030  -28.3720   23.2000 C   0  0  0  0  0  3  0  0  0  0  0  0
  -20.6920  -26.9430   22.6130 C   0  0  0  0  0  2  0  0  0  0  0  0
  -19.5830  -26.6340   21.6050 C   0  0  0  0  0  2  0  0  0  0  0  0
  -18.2050  -26.7850   22.2560 C   0  0  0  0  0  2  0  0  0  0  0  0
  -19.1680  -28.8850   23.3680 C   0  0  0  0  0  0  0  0  0  0  0  0
  -18.9600  -30.1450   23.9690 C   0  0  0  0  0  3  0  0  0  0  0  0
  -17.6590  -30.6550   24.1450 C   0  0  0  0  0  3  0  0  0  0  0  0
  -16.5480  -29.8990   23.7320 C   0  0  0  0  0  3  0  0  0  0  0  0
  -16.7400  -28.6410   23.1340 C   0  0  0  0  0  3  0  0  0  0  0  0
  -25.8830  -32.5360   23.8660 C   0  0  0  0  0  3  0  0  0  0  0  0
  -26.3940  -31.7700   25.1450 C   0  0  1  0  0  0  0  0  0  0  0  0
  -25.2980  -31.5360   26.2130 C   0  0  0  0  0  1  0  0  0  0  0  0
  -26.9750  -30.3930   24.7500 C   0  0  0  0  0  1  0  0  0  0  0  0
  -27.5420  -32.5660   25.8090 C   0  0  0  0  0  1  0  0  0  0  0  0
  -25.5730  -33.9350   24.1920 N   0  0  0  0  0  0  0  0  0  0  0  0
  -25.9130  -34.9870   23.4340 C   0  0  0  0  0  0  0  0  0  0  0  0
  -26.5870  -34.8810   22.4060 O   0  0  0  0  0  0  0  0  0  0  0  0
  -24.9840  -34.0920   24.9940 H   0  0  0  0  0  0  0  0  0  0  0  0
  -24.1870  -36.7790   23.0720 C   0  0  0  0  0  1  0  0  0  0  0  0
  -25.4260  -36.3780   23.8880 C   0  0  0  0  0  3  0  0  0  0  0  0
  -27.5620  -37.2590   24.7230 C   0  0  0  0  0  1  0  0  0  0  0  0
  -26.4630  -37.4300   23.7760 N   0  0  0  0  0  0  0  0  0  0  0  0
  -26.0590  -38.3510   23.9190 H   0  0  0  0  0  0  0  0  0  0  0  0
  -30.4440  -23.0220   21.9350 C   0  0  0  0  0  2  0  0  0  0  0  0
  -31.3850  -23.2340   20.7440 C   0  0  0  0  0  2  0  0  0  0  0  0
  -31.9210  -24.5350   20.7400 O   0  0  0  0  0  0  0  0  0  0  0  0
  -32.4590  -24.6080   19.9560 H   0  0  0  0  0  0  0  0  0  0  0  0
  1 45  1  0
  1 88  1  0
  2  3  1  0
  2  5  1  0
  2  1  1  0
  4  2  1  0
  6  7  1  0
  6  5  2  0
  7  8  1  0
  9  8  1  0
 10 15  1  0
 11 12  1  0
 11 10  1  0
 13 12  1  0
 13 20  1  0
 13 14  1  0
 15  9  1  0
 15 14  1  0
 16  9  2  0
 17 18  2  0
 18 37  1  0
 19 18  1  0
 19 22  1  0
 20 17  1  0
 20 21  1  0
 21 19  2  0
 22 23  1  0
 23 24  2  0
 25 28  1  0
 25 24  1  0
 26 25  2  0
 27 26  1  0
 27 22  2  0
 28 29  1  0
 29 30  1  0
 30 31  2  0
 32 31  1  0
 32 36  1  0
 33 32  2  0
 34 29  2  0
 34 33  1  0
 35 34  1  0
 37 38  1  0
 38 41  1  0
 38 40  1  0
 39 37  2  0
 42 43  1  0
 42 17  1  0
 44 42  1  0
 45 46  1  0
 47 46  1  0
 48 59  2  0
 49 47  1  0
 49 54  1  0
 50 58  1  0
 50 60  1  0
 51 57  1  0
 51 53  1  0
 52 58  1  0
 53 54  2  0
 53 52  1  0
 55 49  2  0
 56 55  1  0
 56 51  2  0
 57 50  1  0
 58 48  1  0
 60 62  2  0
 61 60  1  0
 63 61  1  0
 64 73  2  0
 64 69  1  0
 65 61  1  0
 65 69  1  0
 66 65  1  0
 67 68  1  0
 67 66  1  0
 68 64  1  0
 69 70  2  0
 70 71  1  0
 72 71  2  0
 73 72  1  0
 74 48  1  0
 74 79  1  0
 74 75  1  0
 75 78  1  1
 75 76  1  0
 77 75  1  0
 79 82  1  0
 80 84  1  0
 80 79  1  0
 81 80  2  0
 84 83  1  0
 86 84  1  0
 86 87  1  0
 86 85  1  0
 89 88  1  0
 90 89  1  0
 91 90  1  0
M  ISO  4   8 100   9 100  46 101  47 101
M  END
>  <TORSDO>  (25) 
F 26

>  <SCORE>  (25) 
-12.133

>  <name>  (25) 
24

>  <ligand_id>  (25) 
24

>  <original_smiles>  (25) 
[H]OC([H])([H])C([H])([H])C([H])(C([H])([H])C([H])([H])Oc1c([H])c([H])c2c(c1[H])C([H])([H])N(C(=O)C([H])(N([H])C(=O)C([H])(N([H])C([H])([H])[H])C([H])([H])[H])C(C([H])([H])[H])(C([H])([H])[H])C([H])([H])[H])C([H])(C(=O)N([H])C1([H])c3c([H])c([H])c([H])c([H])c3C([H])([H])C([H])([H])C1([H])[H])C2([H])[H])[N+]([H])([H])C([H])([H])C([H])([H])C([H])([H])C([H])([H])C(=O)N1C([H])([H])C([H])([H])C([H])([H])C([H])(n2nc(-c3c([H])c([H])c(Oc4c([H])c([H])c(F)c([H])c4F)c([H])c3[H])c(C(=O)N([H])[H])c2N([H])[H])C1([H])[H]

>  <smiles>  (25) 
[H]OC([H])([H])C([H])([H])C([H])(C([H])([H])C([H])([H])Oc1c([H])c([H])c2c(c1[H])C([H])([H])N(C(=O)C([H])(N([H])C(=O)C([H])(N([H])C([H])([H])[H])C([H])([H])[H])C(C([H])([H])[H])(C([H])([H])[H])C([H])([H])[H])C([H])(C(=O)N([H])C1([H])c3c([H])c([H])c([H])c([H])c3C([H])([H])C([H])([H])C1([H])[H])C2([H])[H])[N+]([H])([H])C([H])([H])C([H])([H])C([H])([H])C([H])([H])C(=O)N1C([H])([H])C([H])([H])C([H])([H])C([H])(n2nc(-c3c([H])c([H])c(Oc4c([H])c([H])c(F)c([H])c4F)c([H])c3[H])c(C(=O)N([H])[H])c2N([H])[H])C1([H])[H]

$$$$
25:0:0
     RDKit          3D

 90 97  0  0  1  0  0  0  0  0999 V2000
  -30.4490  -21.6680   22.9140 C   0  0  0  0  0  2  0  0  0  0  0  0
  -30.7420  -22.9790   22.1800 C   0  0  0  0  0  2  0  0  0  0  0  0
  -29.4400  -23.5780   21.6430 C   0  0  0  0  0  2  0  0  0  0  0  0
  -29.6250  -24.9300   20.9540 C   0  0  0  0  0  2  0  0  0  0  0  0
  -28.3010  -25.4150   20.3660 C   0  0  0  0  0  2  0  0  0  0  0  0
  -28.4180  -26.7940   20.0680 O   0  0  0  0  0  0  0  0  0  0  0  0
  -24.6100  -31.8720   23.2140 C   0  0  0  0  0  0  0  0  0  0  0  0
  -27.2340  -27.4870   20.0760 C   0  0  0  0  0  0  0  0  0  0  0  0
  -23.3940  -30.4960   21.5550 C   0  0  0  0  0  3  0  0  0  0  0  0
  -24.8380  -28.9680   20.1160 C   0  0  0  0  0  0  0  0  0  0  0  0
  -25.9180  -30.8520   21.3580 C   0  0  0  0  0  2  0  0  0  0  0  0
  -25.9960  -29.4910   20.7040 C   0  0  0  0  0  0  0  0  0  0  0  0
  -27.1980  -28.7570   20.6810 C   0  0  0  0  0  3  0  0  0  0  0  0
  -26.0590  -26.9630   19.4900 C   0  0  0  0  0  3  0  0  0  0  0  0
  -24.8610  -27.7000   19.5090 C   0  0  0  0  0  3  0  0  0  0  0  0
  -23.5970  -29.8270   20.1690 C   0  0  0  0  0  2  0  0  0  0  0  0
  -24.6590  -31.0850   22.1020 N   0  0  0  0  0  0  0  0  0  0  0  0
  -23.5300  -32.1450   23.7570 O   0  0  0  0  0  0  0  0  0  0  0  0
  -22.7380  -29.4670   22.5030 C   0  0  0  0  0  0  0  0  0  0  0  0
  -21.4110  -29.3020   22.3770 N   0  0  0  0  0  0  0  0  0  0  0  0
  -23.4170  -28.8220   23.3050 O   0  0  0  0  0  0  0  0  0  0  0  0
  -20.9260  -29.8750   21.7010 H   0  0  0  0  0  0  0  0  0  0  0  0
  -18.0260  -28.1380   22.8500 C   0  0  0  0  0  0  0  0  0  0  0  0
  -20.5850  -28.3650   23.1350 C   0  0  0  0  0  3  0  0  0  0  0  0
  -20.6760  -26.9390   22.5430 C   0  0  0  0  0  2  0  0  0  0  0  0
  -19.5730  -26.6380   21.5230 C   0  0  0  0  0  2  0  0  0  0  0  0
  -18.1910  -26.7920   22.1630 C   0  0  0  0  0  2  0  0  0  0  0  0
  -19.1510  -28.8830   23.2920 C   0  0  0  0  0  0  0  0  0  0  0  0
  -18.9440  -30.1440   23.8930 C   0  0  0  0  0  3  0  0  0  0  0  0
  -17.6450  -30.6580   24.0570 C   0  0  0  0  0  3  0  0  0  0  0  0
  -16.5340  -29.9090   23.6330 C   0  0  0  0  0  3  0  0  0  0  0  0
  -16.7250  -28.6510   23.0350 C   0  0  0  0  0  3  0  0  0  0  0  0
  -25.9010  -32.4840   23.8410 C   0  0  0  0  0  3  0  0  0  0  0  0
  -26.4460  -31.6610   25.0720 C   0  0  1  0  0  0  0  0  0  0  0  0
  -25.3750  -31.3710   26.1480 C   0  0  0  0  0  1  0  0  0  0  0  0
  -27.0280  -30.3060   24.6050 C   0  0  0  0  0  1  0  0  0  0  0  0
  -27.6040  -32.4320   25.7480 C   0  0  0  0  0  1  0  0  0  0  0  0
  -25.5890  -33.8640   24.2350 N   0  0  0  0  0  0  0  0  0  0  0  0
  -25.9030  -34.9490   23.5140 C   0  0  0  0  0  0  0  0  0  0  0  0
  -26.5580  -34.8930   22.4690 O   0  0  0  0  0  0  0  0  0  0  0  0
  -25.0060  -33.9810   25.0510 H   0  0  0  0  0  0  0  0  0  0  0  0
  -24.1490  -36.7320   23.2640 C   0  0  0  0  0  1  0  0  0  0  0  0
  -25.4110  -36.3120   24.0340 C   0  0  0  0  0  3  0  0  0  0  0  0
  -27.5580  -37.1810   24.8460 C   0  0  0  0  0  1  0  0  0  0  0  0
  -26.4300  -37.3800   23.9410 N   0  0  0  0  0  0  0  0  0  0  0  0
  -26.0200  -38.2880   24.1410 H   0  0  0  0  0  0  0  0  0  0  0  0
  -31.6870  -20.7880   23.1040 C   0  0  0  0  0  2  0  0  0  0  0  0
  -31.2900  -19.3860   23.5780 C   0  0  0  0  0  2  0  0  0  0  0  0
  -32.3760  -18.3410   23.3120 C   0  0  0  0  0  2  0  0  0  0  0  0
  -31.8190  -16.9170   23.4140 C   0  0  0  0  0  2  0  0  0  0  0  0
  -32.8010  -15.8810   22.8620 C   0  0  0  0  0  2  0  0  0  0  0  0
  -32.2480  -14.4490   22.8830 C   0  0  0  0  0  2  0  0  0  0  0  0
  -30.9030  -14.1820   20.8060 C   0  0  0  0  0  0  0  0  0  0  0  0
  -30.3980  -12.2840   19.3420 C   0  0  0  0  0  2  0  0  0  0  0  0
  -29.4530  -12.5420   18.1620 C   0  0  0  0  0  2  0  0  0  0  0  0
  -27.9920  -12.3770   18.6060 C   0  0  0  0  0  2  0  0  0  0  0  0
  -27.6630  -13.2070   19.8730 C   0  0  0  0  0  3  0  0  0  0  0  0
  -28.7080  -12.9780   20.9880 C   0  0  0  0  0  2  0  0  0  0  0  0
  -30.0580  -13.1960   20.4390 N   0  0  0  0  0  0  0  0  0  0  0  0
  -31.7550  -14.6750   20.0600 O   0  0  0  0  0  0  0  0  0  0  0  0
  -30.9990  -14.2650   22.1390 N   0  0  0  0  0  0  0  0  0  0  0  0
  -30.2580  -13.7970   22.6410 H   0  0  0  0  0  0  0  0  0  0  0  0
  -25.2590  -13.8180   20.5690 C   0  0  0  0  0  0  0  0  0  0  0  0
  -24.1840  -13.0450   20.9170 C   0  0  0  0  0  0  0  0  0  0  0  0
  -24.6400  -11.6910   20.8720 C   0  0  0  0  0  0  0  0  0  0  0  0
  -26.3040  -12.9350   20.3400 N   0  0  0  0  0  0  0  0  0  0  0  0
  -25.9330  -11.6510   20.5770 N   0  0  0  0  0  0  0  0  0  0  0  0
  -23.9060  -10.4300   21.0390 C   0  0  0  0  0  0  0  0  0  0  0  0
  -24.3610   -9.4210   21.9170 C   0  0  0  0  0  3  0  0  0  0  0  0
  -23.6290   -8.2250   22.0750 C   0  0  0  0  0  3  0  0  0  0  0  0
  -22.4270   -8.0280   21.3540 C   0  0  0  0  0  0  0  0  0  0  0  0
  -21.9900   -9.0250   20.4640 C   0  0  0  0  0  3  0  0  0  0  0  0
  -22.7230  -10.2130   20.3050 C   0  0  0  0  0  3  0  0  0  0  0  0
  -21.6640   -6.8880   21.4240 O   0  0  0  0  0  0  0  0  0  0  0  0
  -21.6850   -6.0730   22.5280 C   0  0  0  0  0  0  0  0  0  0  0  0
  -21.4010   -6.5640   23.8210 C   0  0  0  0  0  3  0  0  0  0  0  0
  -21.3660   -5.6790   24.9180 C   0  0  0  0  0  3  0  0  0  0  0  0
  -21.6040   -4.3060   24.7230 C   0  0  0  0  0  0  0  0  0  0  0  0
  -21.8820   -3.8140   23.4350 C   0  0  0  0  0  3  0  0  0  0  0  0
  -21.9190   -4.6960   22.3400 C   0  0  0  0  0  0  0  0  0  0  0  0
  -22.1660   -4.2140   21.0980 F   0  0  0  0  0  0  0  0  0  0  0  0
  -21.5630   -3.4540   25.7740 F   0  0  0  0  0  0  0  0  0  0  0  0
  -22.7870  -13.5240   21.1840 C   0  0  0  0  0  0  0  0  0  0  0  0
  -22.0510  -12.8230   22.0400 N   0  0  0  0  0  0  0  0  0  0  0  0
  -22.3550  -14.5550   20.6700 O   0  0  0  0  0  0  0  0  0  0  0  0
  -22.4130  -11.9880   22.4770 H   0  0  0  0  0  0  0  0  0  0  0  0
  -21.1130  -13.1260   22.2620 H   0  0  0  0  0  0  0  0  0  0  0  0
  -25.4330  -15.1890   20.4100 N   0  0  0  0  0  0  0  0  0  0  0  0
  -24.6740  -15.8520   20.5240 H   0  0  0  0  0  0  0  0  0  0  0  0
  -26.2990  -15.6250   20.1160 H   0  0  0  0  0  0  0  0  0  0  0  0
  1 47  1  0
  2  1  1  0
  3  2  1  0
  4  3  1  0
  5  4  1  0
  6  8  1  0
  6  5  1  0
  7 18  2  0
  8 13  1  0
  9 17  1  0
  9 19  1  0
 10 16  1  0
 10 12  1  0
 11 17  1  0
 12 11  1  0
 13 12  2  0
 14 15  1  0
 14  8  2  0
 15 10  2  0
 16  9  1  0
 17  7  1  0
 19 21  2  0
 20 19  1  0
 22 20  1  0
 23 32  2  0
 23 28  1  0
 24 20  1  0
 24 28  1  0
 25 24  1  0
 26 27  1  0
 26 25  1  0
 27 23  1  0
 28 29  2  0
 29 30  1  0
 31 30  2  0
 32 31  1  0
 33  7  1  0
 33 38  1  0
 33 34  1  0
 34 37  1  1
 34 35  1  0
 36 34  1  0
 38 41  1  0
 39 43  1  0
 39 38  1  0
 40 39  2  0
 43 42  1  0
 45 43  1  0
 45 46  1  0
 45 44  1  0
 47 48  1  0
 49 50  1  0
 49 48  1  0
 51 52  1  0
 51 50  1  0
 53 61  1  0
 54 59  1  0
 55 56  1  0
 55 54  1  0
 57 56  1  0
 57 66  1  0
 57 58  1  0
 59 53  1  0
 59 58  1  0
 60 53  2  0
 61 62  1  0
 61 52  1  0
 63 64  2  0
 64 83  1  0
 65 64  1  0
 65 68  1  0
 66 63  1  0
 66 67  1  0
 67 65  2  0
 68 69  1  0
 69 70  2  0
 71 74  1  0
 71 70  1  0
 72 71  2  0
 73 72  1  0
 73 68  2  0
 74 75  1  0
 75 76  1  0
 76 77  2  0
 78 77  1  0
 78 82  1  0
 79 78  2  0
 80 75  2  0
 80 79  1  0
 81 80  1  0
 83 84  1  0
 84 87  1  0
 84 86  1  0
 85 83  2  0
 88 89  1  0
 88 63  1  0
 90 88  1  0
M  ISO  4   5 101   6 101  53 100  61 100
M  END
>  <TORSDO>  (26) 
F 26

>  <SCORE>  (26) 
-0.764

>  <name>  (26) 
25

>  <ligand_id>  (26) 
25

>  <original_smiles>  (26) 
[H]c1c([H])c([H])c2c(c1[H])C([H])([H])C([H])([H])C([H])([H])C2([H])N([H])C(=O)C1([H])N(C(=O)C([H])(N([H])C(=O)C([H])(N([H])C([H])([H])[H])C([H])([H])[H])C(C([H])([H])[H])(C([H])([H])[H])C([H])([H])[H])C([H])([H])c2c([H])c(OC([H])([H])C([H])([H])C([H])([H])C([H])([H])C([H])([H])C([H])([H])C([H])([H])C([H])([H])C([H])([H])C([H])([H])C([H])([H])N([H])C(=O)N3C([H])([H])C([H])([H])C([H])([H])C([H])(n4nc(-c5c([H])c([H])c(Oc6c([H])c([H])c(F)c([H])c6F)c([H])c5[H])c(C(=O)N([H])[H])c4N([H])[H])C3([H])[H])c([H])c([H])c2C1([H])[H]

>  <smiles>  (26) 
[H]c1c([H])c([H])c2c(c1[H])C([H])([H])C([H])([H])C([H])([H])C2([H])N([H])C(=O)C1([H])N(C(=O)C([H])(N([H])C(=O)C([H])(N([H])C([H])([H])[H])C([H])([H])[H])C(C([H])([H])[H])(C([H])([H])[H])C([H])([H])[H])C([H])([H])c2c([H])c(OC([H])([H])C([H])([H])C([H])([H])C([H])([H])C([H])([H])C([H])([H])C([H])([H])C([H])([H])C([H])([H])C([H])([H])C([H])([H])N([H])C(=O)N3C([H])([H])C([H])([H])C([H])([H])C([H])(n4nc(-c5c([H])c([H])c(Oc6c([H])c([H])c(F)c([H])c6F)c([H])c5[H])c(C(=O)N([H])[H])c4N([H])[H])C3([H])[H])c([H])c([H])c2C1([H])[H]

$$$$
26:0:0
     RDKit          3D

 97105  0  0  1  0  0  0  0  0999 V2000
  -32.3620  -24.9990   16.8050 C   0  0  0  0  0  3  0  0  0  0  0  0
  -33.5160  -24.2360   17.0640 C   0  0  0  0  0  3  0  0  0  0  0  0
  -31.6970  -25.6640   17.8530 C   0  0  0  0  0  3  0  0  0  0  0  0
  -33.3390  -24.8080   19.4290 C   0  0  0  0  0  3  0  0  0  0  0  0
  -34.0100  -24.1390   18.3830 C   0  0  0  0  0  0  0  0  0  0  0  0
  -32.1750  -25.5680   19.1770 C   0  0  0  0  0  0  0  0  0  0  0  0
  -32.2920  -26.6300   21.5090 C   0  0  0  0  0  1  0  0  0  0  0  0
  -31.4150  -26.2750   20.2980 C   0  0  0  0  0  3  0  0  0  0  0  0
  -30.1890  -25.4490   20.7480 C   0  0  0  0  0  2  0  0  0  0  0  0
  -28.9760  -26.3050   21.1470 C   0  0  0  0  0  2  0  0  0  0  0  0
  -28.3930  -26.7670   19.9450 O   0  0  0  0  0  0  0  0  0  0  0  0
  -24.6080  -31.8720   23.2130 C   0  0  0  0  0  0  0  0  0  0  0  0
  -27.2350  -27.4810   20.0740 C   0  0  0  0  0  0  0  0  0  0  0  0
  -23.3940  -30.4920   21.5580 C   0  0  0  0  0  3  0  0  0  0  0  0
  -24.8370  -28.9570   20.1260 C   0  0  0  0  0  0  0  0  0  0  0  0
  -25.9180  -30.8410   21.3670 C   0  0  0  0  0  2  0  0  0  0  0  0
  -25.9940  -29.4770   20.7210 C   0  0  0  0  0  0  0  0  0  0  0  0
  -27.1980  -28.7430   20.7040 C   0  0  0  0  0  3  0  0  0  0  0  0
  -26.0670  -26.9630   19.4790 C   0  0  0  0  0  3  0  0  0  0  0  0
  -24.8640  -27.6930   19.5110 C   0  0  0  0  0  3  0  0  0  0  0  0
  -23.5980  -29.8210   20.1730 C   0  0  0  0  0  2  0  0  0  0  0  0
  -24.6570  -31.0850   22.1020 N   0  0  0  0  0  0  0  0  0  0  0  0
  -23.5290  -32.1480   23.7530 O   0  0  0  0  0  0  0  0  0  0  0  0
  -22.7400  -29.4640   22.5080 C   0  0  0  0  0  0  0  0  0  0  0  0
  -21.4130  -29.2970   22.3790 N   0  0  0  0  0  0  0  0  0  0  0  0
  -23.4220  -28.8190   23.3100 O   0  0  0  0  0  0  0  0  0  0  0  0
  -20.9290  -29.8760   21.7090 H   0  0  0  0  0  0  0  0  0  0  0  0
  -18.0280  -28.1310   22.8510 C   0  0  0  0  0  0  0  0  0  0  0  0
  -20.5870  -28.3570   23.1350 C   0  0  0  0  0  3  0  0  0  0  0  0
  -20.6760  -26.9320   22.5420 C   0  0  0  0  0  2  0  0  0  0  0  0
  -19.5720  -26.6330   21.5200 C   0  0  0  0  0  2  0  0  0  0  0  0
  -18.1910  -26.7850   22.1630 C   0  0  0  0  0  2  0  0  0  0  0  0
  -19.1530  -28.8770   23.2920 C   0  0  0  0  0  0  0  0  0  0  0  0
  -18.9450  -30.1400   23.8880 C   0  0  0  0  0  3  0  0  0  0  0  0
  -17.6450  -30.6540   24.0550 C   0  0  0  0  0  3  0  0  0  0  0  0
  -16.5350  -29.9020   23.6330 C   0  0  0  0  0  3  0  0  0  0  0  0
  -16.7270  -28.6450   23.0330 C   0  0  0  0  0  3  0  0  0  0  0  0
  -25.9000  -32.4840   23.8420 C   0  0  0  0  0  3  0  0  0  0  0  0
  -26.4420  -31.6640   25.0770 C   0  0  1  0  0  0  0  0  0  0  0  0
  -25.3720  -31.3820   26.1590 C   0  0  0  0  0  1  0  0  0  0  0  0
  -27.0230  -30.3070   24.6140 C   0  0  0  0  0  1  0  0  0  0  0  0
  -27.6040  -32.4380   25.7450 C   0  0  0  0  0  1  0  0  0  0  0  0
  -25.5850  -33.8640   24.2340 N   0  0  0  0  0  0  0  0  0  0  0  0
  -25.8990  -34.9500   23.5140 C   0  0  0  0  0  0  0  0  0  0  0  0
  -26.5580  -34.8960   22.4720 O   0  0  0  0  0  0  0  0  0  0  0  0
  -24.9960  -33.9800   25.0450 H   0  0  0  0  0  0  0  0  0  0  0  0
  -24.1480  -36.7360   23.2650 C   0  0  0  0  0  1  0  0  0  0  0  0
  -25.4080  -36.3120   24.0350 C   0  0  0  0  0  3  0  0  0  0  0  0
  -27.5590  -37.1820   24.8450 C   0  0  0  0  0  1  0  0  0  0  0  0
  -26.4290  -37.3800   23.9410 N   0  0  0  0  0  0  0  0  0  0  0  0
  -26.0170  -38.2880   24.1400 H   0  0  0  0  0  0  0  0  0  0  0  0
  -35.2510  -23.3110   18.6820 C   0  0  0  0  0  2  0  0  0  0  0  0
  -35.0650  -22.3030   19.8330 C   0  0  0  0  0  2  0  0  0  0  0  0
  -33.8680  -21.3570   19.6450 C   0  0  0  0  0  2  0  0  0  0  0  0
  -33.7540  -20.3360   20.7820 C   0  0  0  0  0  2  0  0  0  0  0  0
  -32.5230  -19.4360   20.6210 C   0  0  0  0  0  2  0  0  0  0  0  0
  -32.4530  -18.3390   21.6890 C   0  0  0  0  0  2  0  0  0  0  0  0
  -31.2920  -17.3690   21.4340 C   0  0  0  0  0  2  0  0  0  0  0  0
  -31.3950  -16.0900   22.2850 C   0  0  0  0  0  2  0  0  0  0  0  0
  -30.8240  -14.3130   20.6780 C   0  0  0  0  0  0  0  0  0  0  0  0
  -30.3980  -12.2590   19.3990 C   0  0  0  0  0  2  0  0  0  0  0  0
  -29.4740  -12.4960   18.1940 C   0  0  0  0  0  2  0  0  0  0  0  0
  -28.0030  -12.3560   18.6190 C   0  0  0  0  0  2  0  0  0  0  0  0
  -27.6640  -13.2030   19.8730 C   0  0  0  0  0  3  0  0  0  0  0  0
  -28.7020  -12.9820   20.9970 C   0  0  0  0  0  2  0  0  0  0  0  0
  -30.0520  -13.2220   20.4550 N   0  0  0  0  0  0  0  0  0  0  0  0
  -31.8040  -14.5980   19.9850 O   0  0  0  0  0  0  0  0  0  0  0  0
  -30.5360  -15.0230   21.7740 N   0  0  0  0  0  0  0  0  0  0  0  0
  -29.7390  -14.7400   22.3260 H   0  0  0  0  0  0  0  0  0  0  0  0
  -25.2610  -13.8180   20.5680 C   0  0  0  0  0  0  0  0  0  0  0  0
  -24.1840  -13.0450   20.9170 C   0  0  0  0  0  0  0  0  0  0  0  0
  -24.6390  -11.6920   20.8730 C   0  0  0  0  0  0  0  0  0  0  0  0
  -26.3040  -12.9330   20.3380 N   0  0  0  0  0  0  0  0  0  0  0  0
  -25.9310  -11.6490   20.5770 N   0  0  0  0  0  0  0  0  0  0  0  0
  -23.9050  -10.4300   21.0410 C   0  0  0  0  0  0  0  0  0  0  0  0
  -24.3610   -9.4210   21.9180 C   0  0  0  0  0  3  0  0  0  0  0  0
  -23.6290   -8.2240   22.0750 C   0  0  0  0  0  3  0  0  0  0  0  0
  -22.4270   -8.0280   21.3540 C   0  0  0  0  0  0  0  0  0  0  0  0
  -21.9890   -9.0260   20.4650 C   0  0  0  0  0  3  0  0  0  0  0  0
  -22.7220  -10.2140   20.3060 C   0  0  0  0  0  3  0  0  0  0  0  0
  -21.6640   -6.8880   21.4240 O   0  0  0  0  0  0  0  0  0  0  0  0
  -21.6850   -6.0740   22.5280 C   0  0  0  0  0  0  0  0  0  0  0  0
  -21.4010   -6.5640   23.8210 C   0  0  0  0  0  3  0  0  0  0  0  0
  -21.3660   -5.6790   24.9180 C   0  0  0  0  0  3  0  0  0  0  0  0
  -21.6040   -4.3060   24.7230 C   0  0  0  0  0  0  0  0  0  0  0  0
  -21.8820   -3.8150   23.4350 C   0  0  0  0  0  3  0  0  0  0  0  0
  -21.9190   -4.6960   22.3410 C   0  0  0  0  0  0  0  0  0  0  0  0
  -22.1660   -4.2150   21.0980 F   0  0  0  0  0  0  0  0  0  0  0  0
  -21.5630   -3.4540   25.7740 F   0  0  0  0  0  0  0  0  0  0  0  0
  -22.7870  -13.5250   21.1830 C   0  0  0  0  0  0  0  0  0  0  0  0
  -22.0510  -12.8260   22.0420 N   0  0  0  0  0  0  0  0  0  0  0  0
  -22.3540  -14.5560   20.6690 O   0  0  0  0  0  0  0  0  0  0  0  0
  -22.4130  -11.9930   22.4840 H   0  0  0  0  0  0  0  0  0  0  0  0
  -21.1140  -13.1300   22.2640 H   0  0  0  0  0  0  0  0  0  0  0  0
  -25.4340  -15.1890   20.4110 N   0  0  0  0  0  0  0  0  0  0  0  0
  -24.6770  -15.8520   20.5340 H   0  0  0  0  0  0  0  0  0  0  0  0
  -26.3010  -15.6250   20.1210 H   0  0  0  0  0  0  0  0  0  0  0  0
  1  2  2  0
  1  3  1  0
  2  5  1  0
  3  6  2  0
  5 52  1  0
  5  4  2  0
  6  4  1  0
  6  8  1  0
  8  9  1  0
  8  7  1  0
  9 10  1  0
 11 13  1  0
 11 10  1  0
 12 23  2  0
 13 18  1  0
 14 22  1  0
 14 24  1  0
 15 21  1  0
 15 17  1  0
 16 22  1  0
 17 16  1  0
 18 17  2  0
 19 20  1  0
 19 13  2  0
 20 15  2  0
 21 14  1  0
 22 12  1  0
 24 26  2  0
 25 24  1  0
 27 25  1  0
 28 37  2  0
 28 33  1  0
 29 25  1  0
 29 33  1  0
 30 29  1  0
 31 32  1  0
 31 30  1  0
 32 28  1  0
 33 34  2  0
 34 35  1  0
 36 35  2  0
 37 36  1  0
 38 12  1  0
 38 43  1  0
 38 39  1  0
 39 42  1  1
 39 40  1  0
 41 39  1  0
 43 46  1  0
 44 48  1  0
 44 43  1  0
 45 44  2  0
 48 47  1  0
 50 48  1  0
 50 51  1  0
 50 49  1  0
 52 53  1  0
 54 53  1  0
 54 55  1  0
 56 55  1  0
 56 57  1  0
 58 57  1  0
 58 59  1  0
 60 68  1  0
 61 66  1  0
 62 63  1  0
 62 61  1  0
 64 63  1  0
 64 73  1  0
 64 65  1  0
 66 60  1  0
 66 65  1  0
 67 60  2  0
 68 59  1  0
 68 69  1  0
 70 71  2  0
 71 90  1  0
 72 71  1  0
 72 75  1  0
 73 70  1  0
 73 74  1  0
 74 72  2  0
 75 76  1  0
 76 77  2  0
 78 81  1  0
 78 77  1  0
 79 78  2  0
 80 79  1  0
 80 75  2  0
 81 82  1  0
 82 83  1  0
 83 84  2  0
 85 84  1  0
 85 89  1  0
 86 85  2  0
 87 82  2  0
 87 86  1  0
 88 87  1  0
 90 91  1  0
 91 94  1  0
 91 93  1  0
 92 90  2  0
 95 96  1  0
 95 70  1  0
 97 95  1  0
M  ISO  4  10 101  11 101  60 100  68 100
M  END
>  <TORSDO>  (27) 
F 27

>  <SCORE>  (27) 
-10.564

>  <name>  (27) 
26

>  <ligand_id>  (27) 
26

>  <original_smiles>  (27) 
[H]c1c([H])c([H])c2c(c1[H])C([H])([H])C([H])([H])C([H])([H])C2([H])N([H])C(=O)C1([H])N(C(=O)C([H])(N([H])C(=O)C([H])(N([H])C([H])([H])[H])C([H])([H])[H])C(C([H])([H])[H])(C([H])([H])[H])C([H])([H])[H])C([H])([H])c2c([H])c(OC([H])([H])C([H])([H])C([H])(c3c([H])c([H])c([H])c(C([H])([H])C([H])([H])C([H])([H])C([H])([H])C([H])([H])C([H])([H])C([H])([H])C([H])([H])N([H])C(=O)N4C([H])([H])C([H])([H])C([H])([H])C([H])(n5nc(-c6c([H])c([H])c(Oc7c([H])c([H])c(F)c([H])c7F)c([H])c6[H])c(C(=O)N([H])[H])c5N([H])[H])C4([H])[H])c3[H])C([H])([H])[H])c([H])c([H])c2C1([H])[H]

>  <smiles>  (27) 
[H]c1c([H])c([H])c2c(c1[H])C([H])([H])C([H])([H])C([H])([H])C2([H])N([H])C(=O)C1([H])N(C(=O)C([H])(N([H])C(=O)C([H])(N([H])C([H])([H])[H])C([H])([H])[H])C(C([H])([H])[H])(C([H])([H])[H])C([H])([H])[H])C([H])([H])c2c([H])c(OC([H])([H])C([H])([H])C([H])(c3c([H])c([H])c([H])c(C([H])([H])C([H])([H])C([H])([H])C([H])([H])C([H])([H])C([H])([H])C([H])([H])C([H])([H])N([H])C(=O)N4C([H])([H])C([H])([H])C([H])([H])C([H])(n5nc(-c6c([H])c([H])c(Oc7c([H])c([H])c(F)c([H])c7F)c([H])c6[H])c(C(=O)N([H])[H])c5N([H])[H])C4([H])[H])c3[H])C([H])([H])[H])c([H])c([H])c2C1([H])[H]

$$$$
27:0:0
     RDKit          3D

 94101  0  0  1  0  0  0  0  0999 V2000
  -23.2850  -21.6210   23.5930 C   0  0  0  0  0  2  0  0  0  0  0  0
  -24.0400  -22.2740   22.4200 C   0  0  0  0  0  2  0  0  0  0  0  0
  -24.7620  -23.5690   22.8310 C   0  0  0  0  0  2  0  0  0  0  0  0
  -26.0490  -23.8160   22.0280 C   0  0  0  0  0  2  0  0  0  0  0  0
  -26.8210  -25.0590   22.5090 C   0  0  0  0  0  2  0  0  0  0  0  0
  -28.2620  -25.1490   21.9640 C   0  0  0  0  0  2  0  0  0  0  0  0
  -28.4000  -25.3820   20.4430 C   0  0  0  0  0  2  0  0  0  0  0  0
  -28.4250  -26.7700   20.1070 O   0  0  0  0  0  0  0  0  0  0  0  0
  -24.6100  -31.8720   23.2100 C   0  0  0  0  0  0  0  0  0  0  0  0
  -27.2370  -27.4590   20.1110 C   0  0  0  0  0  0  0  0  0  0  0  0
  -23.3990  -30.4920   21.5490 C   0  0  0  0  0  3  0  0  0  0  0  0
  -24.8470  -28.9570   20.1180 C   0  0  0  0  0  0  0  0  0  0  0  0
  -25.9220  -30.8490   21.3550 C   0  0  0  0  0  2  0  0  0  0  0  0
  -26.0010  -29.4800   20.7120 C   0  0  0  0  0  0  0  0  0  0  0  0
  -27.2010  -28.7390   20.7020 C   0  0  0  0  0  3  0  0  0  0  0  0
  -26.0680  -26.9440   19.5070 C   0  0  0  0  0  3  0  0  0  0  0  0
  -24.8740  -27.6890   19.5100 C   0  0  0  0  0  3  0  0  0  0  0  0
  -23.6050  -29.8170   20.1650 C   0  0  0  0  0  2  0  0  0  0  0  0
  -24.6620  -31.0860   22.0970 N   0  0  0  0  0  0  0  0  0  0  0  0
  -23.5300  -32.1450   23.7510 O   0  0  0  0  0  0  0  0  0  0  0  0
  -22.7400  -29.4670   22.5000 C   0  0  0  0  0  0  0  0  0  0  0  0
  -21.4130  -29.3040   22.3730 N   0  0  0  0  0  0  0  0  0  0  0  0
  -23.4170  -28.8230   23.3040 O   0  0  0  0  0  0  0  0  0  0  0  0
  -20.9330  -29.8700   21.6860 H   0  0  0  0  0  0  0  0  0  0  0  0
  -18.0290  -28.1390   22.8490 C   0  0  0  0  0  0  0  0  0  0  0  0
  -20.5860  -28.3710   23.1370 C   0  0  0  0  0  3  0  0  0  0  0  0
  -20.6800  -26.9420   22.5520 C   0  0  0  0  0  2  0  0  0  0  0  0
  -19.5820  -26.6370   21.5290 C   0  0  0  0  0  2  0  0  0  0  0  0
  -18.1950  -26.7950   22.1600 C   0  0  0  0  0  2  0  0  0  0  0  0
  -19.1510  -28.8870   23.2910 C   0  0  0  0  0  0  0  0  0  0  0  0
  -18.9410  -30.1480   23.8930 C   0  0  0  0  0  3  0  0  0  0  0  0
  -17.6400  -30.6590   24.0580 C   0  0  0  0  0  3  0  0  0  0  0  0
  -16.5310  -29.9090   23.6290 C   0  0  0  0  0  3  0  0  0  0  0  0
  -16.7260  -28.6520   23.0310 C   0  0  0  0  0  3  0  0  0  0  0  0
  -25.9010  -32.4850   23.8410 C   0  0  0  0  0  3  0  0  0  0  0  0
  -25.5870  -33.8640   24.2340 N   0  0  0  0  0  0  0  0  0  0  0  0
  -25.9030  -34.9490   23.5140 C   0  0  0  0  0  0  0  0  0  0  0  0
  -26.5590  -34.8940   22.4700 O   0  0  0  0  0  0  0  0  0  0  0  0
  -24.9970  -33.9810   25.0460 H   0  0  0  0  0  0  0  0  0  0  0  0
  -24.1490  -36.7330   23.2640 C   0  0  0  0  0  1  0  0  0  0  0  0
  -25.4100  -36.3120   24.0350 C   0  0  0  0  0  3  0  0  0  0  0  0
  -27.5580  -37.1810   24.8460 C   0  0  0  0  0  1  0  0  0  0  0  0
  -26.4300  -37.3800   23.9400 N   0  0  0  0  0  0  0  0  0  0  0  0
  -26.0200  -38.2880   24.1370 H   0  0  0  0  0  0  0  0  0  0  0  0
  -26.4440  -31.6600   25.0710 C   0  0  1  0  0  0  0  0  0  0  0  0
  -25.3720  -31.3700   26.1470 C   0  0  0  0  0  1  0  0  0  0  0  0
  -27.0250  -30.3050   24.6040 C   0  0  0  0  0  1  0  0  0  0  0  0
  -27.6040  -32.4290   25.7460 C   0  0  0  0  0  1  0  0  0  0  0  0
  -22.6360  -20.2600   23.2700 C   0  0  0  0  0  2  0  0  0  0  0  0
  -23.5680  -19.1820   22.6780 C   0  0  0  0  0  2  0  0  0  0  0  0
  -24.8180  -18.8700   23.5220 C   0  0  0  0  0  2  0  0  0  0  0  0
  -25.6410  -17.7040   22.9450 C   0  0  0  0  0  2  0  0  0  0  0  0
  -27.0310  -17.5610   23.5860 C   0  0  0  0  0  2  0  0  0  0  0  0
  -27.8610  -16.4230   22.9650 C   0  0  0  0  0  2  0  0  0  0  0  0
  -29.3270  -16.4450   23.4390 C   0  0  0  0  0  2  0  0  0  0  0  0
  -30.2060  -15.3220   22.8590 C   0  0  0  0  0  2  0  0  0  0  0  0
  -30.7540  -14.3830   20.6520 C   0  0  0  0  0  0  0  0  0  0  0  0
  -30.4130  -12.2750   19.4190 C   0  0  0  0  0  2  0  0  0  0  0  0
  -29.4910  -12.4970   18.2050 C   0  0  0  0  0  2  0  0  0  0  0  0
  -28.0130  -12.3580   18.6140 C   0  0  0  0  0  2  0  0  0  0  0  0
  -27.6630  -13.1990   19.8690 C   0  0  0  0  0  3  0  0  0  0  0  0
  -28.6920  -12.9580   20.9920 C   0  0  0  0  0  2  0  0  0  0  0  0
  -30.0410  -13.2390   20.4660 N   0  0  0  0  0  0  0  0  0  0  0  0
  -31.8010  -14.6340   20.0500 O   0  0  0  0  0  0  0  0  0  0  0  0
  -30.1850  -15.3360   21.3970 N   0  0  0  0  0  0  0  0  0  0  0  0
  -30.4260  -16.2520   21.0460 H   0  0  0  0  0  0  0  0  0  0  0  0
  -25.2610  -13.8160   20.5640 C   0  0  0  0  0  0  0  0  0  0  0  0
  -24.1860  -13.0450   20.9160 C   0  0  0  0  0  0  0  0  0  0  0  0
  -24.6390  -11.6910   20.8730 C   0  0  0  0  0  0  0  0  0  0  0  0
  -26.3020  -12.9300   20.3290 N   0  0  0  0  0  0  0  0  0  0  0  0
  -25.9300  -11.6470   20.5720 N   0  0  0  0  0  0  0  0  0  0  0  0
  -23.9060  -10.4300   21.0420 C   0  0  0  0  0  0  0  0  0  0  0  0
  -24.3620   -9.4220   21.9200 C   0  0  0  0  0  3  0  0  0  0  0  0
  -23.6300   -8.2250   22.0750 C   0  0  0  0  0  3  0  0  0  0  0  0
  -22.4290   -8.0280   21.3540 C   0  0  0  0  0  0  0  0  0  0  0  0
  -21.9920   -9.0270   20.4650 C   0  0  0  0  0  3  0  0  0  0  0  0
  -22.7250  -10.2140   20.3070 C   0  0  0  0  0  3  0  0  0  0  0  0
  -21.6640   -6.8880   21.4250 O   0  0  0  0  0  0  0  0  0  0  0  0
  -21.6860   -6.0740   22.5290 C   0  0  0  0  0  0  0  0  0  0  0  0
  -21.4020   -6.5640   23.8220 C   0  0  0  0  0  3  0  0  0  0  0  0
  -21.3650   -5.6800   24.9180 C   0  0  0  0  0  3  0  0  0  0  0  0
  -21.6050   -4.3070   24.7250 C   0  0  0  0  0  0  0  0  0  0  0  0
  -21.8820   -3.8150   23.4370 C   0  0  0  0  0  3  0  0  0  0  0  0
  -21.9190   -4.6960   22.3420 C   0  0  0  0  0  0  0  0  0  0  0  0
  -22.1650   -4.2150   21.1000 F   0  0  0  0  0  0  0  0  0  0  0  0
  -21.5630   -3.4550   25.7760 F   0  0  0  0  0  0  0  0  0  0  0  0
  -22.7890  -13.5250   21.1840 C   0  0  0  0  0  0  0  0  0  0  0  0
  -22.0540  -12.8220   22.0390 N   0  0  0  0  0  0  0  0  0  0  0  0
  -22.3540  -14.5560   20.6720 O   0  0  0  0  0  0  0  0  0  0  0  0
  -22.4170  -11.9880   22.4780 H   0  0  0  0  0  0  0  0  0  0  0  0
  -21.1190  -13.1270   22.2650 H   0  0  0  0  0  0  0  0  0  0  0  0
  -25.4410  -15.1850   20.4000 N   0  0  0  0  0  0  0  0  0  0  0  0
  -24.7000  -15.8620   20.5410 H   0  0  0  0  0  0  0  0  0  0  0  0
  -26.3220  -15.6050   20.1360 H   0  0  0  0  0  0  0  0  0  0  0  0
  2  3  1  0
  2  1  1  0
  4  5  1  0
  4  3  1  0
  6  5  1  0
  7  6  1  0
  8 10  1  0
  8  7  1  0
  9 20  2  0
 10 15  1  0
 11 19  1  0
 11 21  1  0
 12 18  1  0
 12 14  1  0
 13 19  1  0
 14 13  1  0
 15 14  2  0
 16 17  1  0
 16 10  2  0
 17 12  2  0
 18 11  1  0
 19  9  1  0
 21 23  2  0
 22 21  1  0
 24 22  1  0
 25 34  2  0
 25 30  1  0
 26 22  1  0
 26 30  1  0
 27 26  1  0
 28 29  1  0
 28 27  1  0
 29 25  1  0
 30 31  2  0
 31 32  1  0
 33 32  2  0
 34 33  1  0
 35  9  1  0
 35 36  1  0
 35 45  1  0
 36 39  1  0
 37 41  1  0
 37 36  1  0
 38 37  2  0
 41 40  1  0
 43 41  1  0
 43 44  1  0
 43 42  1  0
 45 48  1  1
 45 46  1  0
 47 45  1  0
 49  1  1  0
 50 49  1  0
 50 51  1  0
 52 51  1  0
 52 53  1  0
 54 55  1  0
 54 53  1  0
 56 55  1  0
 57 65  1  0
 58 63  1  0
 59 60  1  0
 59 58  1  0
 61 60  1  0
 61 70  1  0
 61 62  1  0
 63 57  1  0
 63 62  1  0
 64 57  2  0
 65 56  1  0
 66 65  1  0
 67 68  2  0
 68 87  1  0
 69 68  1  0
 69 72  1  0
 70 67  1  0
 70 71  1  0
 71 69  2  0
 72 73  1  0
 73 74  2  0
 75 78  1  0
 75 74  1  0
 76 75  2  0
 77 76  1  0
 77 72  2  0
 78 79  1  0
 79 80  1  0
 80 81  2  0
 82 81  1  0
 82 86  1  0
 83 82  2  0
 84 79  2  0
 84 83  1  0
 85 84  1  0
 87 88  1  0
 88 91  1  0
 88 90  1  0
 89 87  2  0
 92 93  1  0
 92 67  1  0
 94 92  1  0
M  ISO  4   7 101   8 101  57 100  65 100
M  END
>  <TORSDO>  (28) 
F 30

>  <SCORE>  (28) 
47.470

>  <name>  (28) 
27

>  <ligand_id>  (28) 
27

>  <original_smiles>  (28) 
[H]c1c([H])c([H])c2c(c1[H])C([H])([H])C([H])([H])C([H])([H])C2([H])N([H])C(=O)C1([H])N(C(=O)C([H])(N([H])C(=O)C([H])(N([H])C([H])([H])[H])C([H])([H])[H])C(C([H])([H])[H])(C([H])([H])[H])C([H])([H])[H])C([H])([H])c2c([H])c(OC([H])([H])C([H])([H])C([H])([H])C([H])([H])C([H])([H])C([H])([H])C([H])([H])C([H])([H])C([H])([H])C([H])([H])C([H])([H])C([H])([H])C([H])([H])C([H])([H])C([H])([H])N([H])C(=O)N3C([H])([H])C([H])([H])C([H])([H])C([H])(n4nc(-c5c([H])c([H])c(Oc6c([H])c([H])c(F)c([H])c6F)c([H])c5[H])c(C(=O)N([H])[H])c4N([H])[H])C3([H])[H])c([H])c([H])c2C1([H])[H]

>  <smiles>  (28) 
[H]c1c([H])c([H])c2c(c1[H])C([H])([H])C([H])([H])C([H])([H])C2([H])N([H])C(=O)C1([H])N(C(=O)C([H])(N([H])C(=O)C([H])(N([H])C([H])([H])[H])C([H])([H])[H])C(C([H])([H])[H])(C([H])([H])[H])C([H])([H])[H])C([H])([H])c2c([H])c(OC([H])([H])C([H])([H])C([H])([H])C([H])([H])C([H])([H])C([H])([H])C([H])([H])C([H])([H])C([H])([H])C([H])([H])C([H])([H])C([H])([H])C([H])([H])C([H])([H])C([H])([H])N([H])C(=O)N3C([H])([H])C([H])([H])C([H])([H])C([H])(n4nc(-c5c([H])c([H])c(Oc6c([H])c([H])c(F)c([H])c6F)c([H])c5[H])c(C(=O)N([H])[H])c4N([H])[H])C3([H])[H])c([H])c([H])c2C1([H])[H]

$$$$
28:0:0
     RDKit          3D

 92 99  0  0  1  0  0  0  0  0999 V2000
  -29.4790  -23.2320   17.6090 C   0  0  0  0  0  2  0  0  0  0  0  0
  -29.4370  -24.6880   17.1740 C   0  0  0  0  0  3  0  0  0  0  0  0
  -29.1020  -25.7390   17.9510 C   0  0  0  0  0  0  0  0  0  0  0  0
  -29.1580  -27.1570   17.4030 C   0  0  0  0  0  1  0  0  0  0  0  0
  -28.6900  -25.5760   19.4170 C   0  0  0  0  0  2  0  0  0  0  0  0
  -28.4870  -26.8030   20.1130 O   0  0  0  0  0  0  0  0  0  0  0  0
  -24.6160  -31.8600   23.2210 C   0  0  0  0  0  0  0  0  0  0  0  0
  -27.2590  -27.4300   20.1250 C   0  0  0  0  0  0  0  0  0  0  0  0
  -23.3960  -30.4520   21.5910 C   0  0  0  0  0  3  0  0  0  0  0  0
  -24.8400  -28.8960   20.1740 C   0  0  0  0  0  0  0  0  0  0  0  0
  -25.9140  -30.8080   21.3760 C   0  0  0  0  0  2  0  0  0  0  0  0
  -25.9950  -29.4320   20.7530 C   0  0  0  0  0  0  0  0  0  0  0  0
  -27.2000  -28.7000   20.7360 C   0  0  0  0  0  3  0  0  0  0  0  0
  -26.0810  -26.8950   19.5510 C   0  0  0  0  0  3  0  0  0  0  0  0
  -24.8750  -27.6220   19.5770 C   0  0  0  0  0  3  0  0  0  0  0  0
  -23.5960  -29.7520   20.2180 C   0  0  0  0  0  2  0  0  0  0  0  0
  -24.6600  -31.0550   22.1210 N   0  0  0  0  0  0  0  0  0  0  0  0
  -23.5420  -32.1390   23.7700 O   0  0  0  0  0  0  0  0  0  0  0  0
  -22.7500  -29.4400   22.5640 C   0  0  0  0  0  0  0  0  0  0  0  0
  -21.4230  -29.2660   22.4490 N   0  0  0  0  0  0  0  0  0  0  0  0
  -23.4370  -28.8140   23.3740 O   0  0  0  0  0  0  0  0  0  0  0  0
  -20.9270  -29.8240   21.7670 H   0  0  0  0  0  0  0  0  0  0  0  0
  -18.0500  -28.0900   22.9780 C   0  0  0  0  0  0  0  0  0  0  0  0
  -20.6100  -28.3360   23.2320 C   0  0  0  0  0  3  0  0  0  0  0  0
  -20.7010  -26.9020   22.6630 C   0  0  0  0  0  2  0  0  0  0  0  0
  -19.5910  -26.5780   21.6550 C   0  0  0  0  0  2  0  0  0  0  0  0
  -18.2160  -26.7340   22.3090 C   0  0  0  0  0  2  0  0  0  0  0  0
  -19.1750  -28.8480   23.3970 C   0  0  0  0  0  0  0  0  0  0  0  0
  -18.9650  -30.1170   23.9780 C   0  0  0  0  0  3  0  0  0  0  0  0
  -17.6650  -30.6280   24.1440 C   0  0  0  0  0  3  0  0  0  0  0  0
  -16.5550  -29.8690   23.7400 C   0  0  0  0  0  3  0  0  0  0  0  0
  -16.7480  -28.6000   23.1640 C   0  0  0  0  0  3  0  0  0  0  0  0
  -25.9120  -32.4890   23.8280 C   0  0  0  0  0  3  0  0  0  0  0  0
  -26.4560  -31.7060   25.0860 C   0  0  1  0  0  0  0  0  0  0  0  0
  -25.3840  -31.4560   26.1710 C   0  0  0  0  0  1  0  0  0  0  0  0
  -27.0320  -30.3340   24.6660 C   0  0  0  0  0  1  0  0  0  0  0  0
  -27.6170  -32.4960   25.7340 C   0  0  0  0  0  1  0  0  0  0  0  0
  -25.6050  -33.8830   24.1740 N   0  0  0  0  0  0  0  0  0  0  0  0
  -25.9230  -34.9400   23.4150 C   0  0  0  0  0  0  0  0  0  0  0  0
  -26.5760  -34.8470   22.3720 O   0  0  0  0  0  0  0  0  0  0  0  0
  -25.0230  -34.0310   24.9870 H   0  0  0  0  0  0  0  0  0  0  0  0
  -24.1770  -36.7210   23.1060 C   0  0  0  0  0  1  0  0  0  0  0  0
  -25.4380  -36.3230   23.8890 C   0  0  0  0  0  3  0  0  0  0  0  0
  -27.5900  -37.2130   24.6720 C   0  0  0  0  0  1  0  0  0  0  0  0
  -26.4620  -37.3830   23.7580 N   0  0  0  0  0  0  0  0  0  0  0  0
  -26.0530  -38.2980   23.9270 H   0  0  0  0  0  0  0  0  0  0  0  0
  -28.6580  -22.3040   16.6970 C   0  0  0  0  0  2  0  0  0  0  0  0
  -28.8050  -20.8100   17.0410 C   0  0  0  0  0  2  0  0  0  0  0  0
  -28.2910  -20.4370   18.4440 C   0  0  0  0  0  2  0  0  0  0  0  0
  -28.5840  -18.9800   18.8170 C   0  0  0  0  0  2  0  0  0  0  0  0
  -28.3090  -18.6890   20.3040 C   0  0  0  0  0  2  0  0  0  0  0  0
  -28.9020  -17.3550   20.7760 C   0  0  0  0  0  2  0  0  0  0  0  0
  -30.4460  -17.3560   20.8120 C   0  0  0  0  0  2  0  0  0  0  0  0
  -31.0430  -16.1870   21.6120 C   0  0  0  0  0  2  0  0  0  0  0  0
  -30.8820  -14.1160   20.2200 C   0  0  0  0  0  0  0  0  0  0  0  0
  -30.3940  -12.0640   18.9400 C   0  0  0  0  0  2  0  0  0  0  0  0
  -29.4140  -12.3520   17.7870 C   0  0  0  0  0  2  0  0  0  0  0  0
  -27.9550  -12.2670   18.2740 C   0  0  0  0  0  2  0  0  0  0  0  0
  -27.7110  -13.0930   19.5650 C   0  0  0  0  0  3  0  0  0  0  0  0
  -28.7870  -12.7730   20.6230 C   0  0  0  0  0  2  0  0  0  0  0  0
  -30.1160  -13.0130   20.0260 N   0  0  0  0  0  0  0  0  0  0  0  0
  -31.8910  -14.3770   19.5560 O   0  0  0  0  0  0  0  0  0  0  0  0
  -30.4660  -14.9090   21.2140 N   0  0  0  0  0  0  0  0  0  0  0  0
  -29.6350  -14.6070   21.7030 H   0  0  0  0  0  0  0  0  0  0  0  0
  -25.3630  -13.8070   20.3540 C   0  0  0  0  0  0  0  0  0  0  0  0
  -24.2790  -13.0810   20.7670 C   0  0  0  0  0  0  0  0  0  0  0  0
  -24.6820  -11.7110   20.7250 C   0  0  0  0  0  0  0  0  0  0  0  0
  -26.3630  -12.8810   20.0900 N   0  0  0  0  0  0  0  0  0  0  0  0
  -25.9560  -11.6170   20.3670 N   0  0  0  0  0  0  0  0  0  0  0  0
  -23.9120  -10.4810   20.9510 C   0  0  0  0  0  0  0  0  0  0  0  0
  -24.3500   -9.4930   21.8600 C   0  0  0  0  0  3  0  0  0  0  0  0
  -23.5840   -8.3260   22.0730 C   0  0  0  0  0  3  0  0  0  0  0  0
  -22.3660   -8.1390   21.3750 C   0  0  0  0  0  0  0  0  0  0  0  0
  -21.9470   -9.1160   20.4560 C   0  0  0  0  0  3  0  0  0  0  0  0
  -22.7120  -10.2740   20.2410 C   0  0  0  0  0  3  0  0  0  0  0  0
  -21.5690   -7.0270   21.4980 O   0  0  0  0  0  0  0  0  0  0  0  0
  -21.5540   -6.2750   22.6460 C   0  0  0  0  0  0  0  0  0  0  0  0
  -21.2520   -6.8410   23.9040 C   0  0  0  0  0  3  0  0  0  0  0  0
  -21.1800   -6.0190   25.0460 C   0  0  0  0  0  3  0  0  0  0  0  0
  -21.3990   -4.6340   24.9330 C   0  0  0  0  0  0  0  0  0  0  0  0
  -21.6960   -4.0680   23.6800 C   0  0  0  0  0  3  0  0  0  0  0  0
  -21.7700   -4.8860   22.5400 C   0  0  0  0  0  0  0  0  0  0  0  0
  -22.0340   -4.3320   21.3320 F   0  0  0  0  0  0  0  0  0  0  0  0
  -21.3230   -3.8420   26.0290 F   0  0  0  0  0  0  0  0  0  0  0  0
  -22.9130  -13.6160   21.0920 C   0  0  0  0  0  0  0  0  0  0  0  0
  -22.1950  -12.9560   21.9920 N   0  0  0  0  0  0  0  0  0  0  0  0
  -22.4960  -14.6550   20.5810 O   0  0  0  0  0  0  0  0  0  0  0  0
  -22.5460  -12.1150   22.4260 H   0  0  0  0  0  0  0  0  0  0  0  0
  -21.2800  -13.2960   22.2510 H   0  0  0  0  0  0  0  0  0  0  0  0
  -25.5770  -15.1690   20.1630 N   0  0  0  0  0  0  0  0  0  0  0  0
  -24.8430  -15.8540   20.3000 H   0  0  0  0  0  0  0  0  0  0  0  0
  -26.4370  -15.5720   19.8130 H   0  0  0  0  0  0  0  0  0  0  0  0
  2  1  1  0
  2  3  2  0
  3  5  1  0
  4  3  1  0
  5  6  1  0
  6  8  1  0
  7 18  2  0
  8 13  1  0
  9 17  1  0
  9 19  1  0
 10 16  1  0
 10 12  1  0
 11 17  1  0
 12 11  1  0
 13 12  2  0
 14 15  1  0
 14  8  2  0
 15 10  2  0
 16  9  1  0
 17  7  1  0
 19 21  2  0
 20 19  1  0
 22 20  1  0
 23 32  2  0
 23 28  1  0
 24 20  1  0
 24 28  1  0
 25 24  1  0
 26 27  1  0
 26 25  1  0
 27 23  1  0
 28 29  2  0
 29 30  1  0
 31 30  2  0
 32 31  1  0
 33  7  1  0
 33 38  1  0
 33 34  1  0
 34 37  1  1
 34 35  1  0
 36 34  1  0
 38 41  1  0
 39 43  1  0
 39 38  1  0
 40 39  2  0
 43 42  1  0
 45 43  1  0
 45 46  1  0
 45 44  1  0
 47 48  1  0
 47  1  1  0
 48 49  1  0
 49 50  1  0
 50 51  1  0
 51 52  1  0
 52 53  1  0
 53 54  1  0
 55 63  1  0
 56 61  1  0
 57 58  1  0
 57 56  1  0
 59 58  1  0
 59 68  1  0
 59 60  1  0
 61 55  1  0
 61 60  1  0
 62 55  2  0
 63 54  1  0
 63 64  1  0
 65 66  2  0
 66 85  1  0
 67 66  1  0
 67 70  1  0
 68 65  1  0
 68 69  1  0
 69 67  2  0
 70 71  1  0
 71 72  2  0
 73 76  1  0
 73 72  1  0
 74 73  2  0
 75 74  1  0
 75 70  2  0
 76 77  1  0
 77 78  1  0
 78 79  2  0
 80 79  1  0
 80 84  1  0
 81 80  2  0
 82 77  2  0
 82 81  1  0
 83 82  1  0
 85 86  1  0
 86 89  1  0
 86 88  1  0
 87 85  2  0
 90 91  1  0
 90 65  1  0
 92 90  1  0
M  ISO  4   5 101   6 101  55 100  63 100
M  END
>  <TORSDO>  (29) 
F 26

>  <SCORE>  (29) 
-11.594

>  <name>  (29) 
28

>  <ligand_id>  (29) 
28

>  <original_smiles>  (29) 
[H]C(=C(C([H])([H])[H])C([H])([H])Oc1c([H])c([H])c2c(c1[H])C([H])([H])N(C(=O)C([H])(N([H])C(=O)C([H])(N([H])C([H])([H])[H])C([H])([H])[H])C(C([H])([H])[H])(C([H])([H])[H])C([H])([H])[H])C([H])(C(=O)N([H])C1([H])c3c([H])c([H])c([H])c([H])c3C([H])([H])C([H])([H])C1([H])[H])C2([H])[H])C([H])([H])C([H])([H])C([H])([H])C([H])([H])C([H])([H])C([H])([H])C([H])([H])C([H])([H])C([H])([H])N([H])C(=O)N1C([H])([H])C([H])([H])C([H])([H])C([H])(n2nc(-c3c([H])c([H])c(Oc4c([H])c([H])c(F)c([H])c4F)c([H])c3[H])c(C(=O)N([H])[H])c2N([H])[H])C1([H])[H]

>  <smiles>  (29) 
[H]C(=C(C([H])([H])[H])C([H])([H])Oc1c([H])c([H])c2c(c1[H])C([H])([H])N(C(=O)C([H])(N([H])C(=O)C([H])(N([H])C([H])([H])[H])C([H])([H])[H])C(C([H])([H])[H])(C([H])([H])[H])C([H])([H])[H])C([H])(C(=O)N([H])C1([H])c3c([H])c([H])c([H])c([H])c3C([H])([H])C([H])([H])C1([H])[H])C2([H])[H])C([H])([H])C([H])([H])C([H])([H])C([H])([H])C([H])([H])C([H])([H])C([H])([H])C([H])([H])C([H])([H])N([H])C(=O)N1C([H])([H])C([H])([H])C([H])([H])C([H])(n2nc(-c3c([H])c([H])c(Oc4c([H])c([H])c(F)c([H])c4F)c([H])c3[H])c(C(=O)N([H])[H])c2N([H])[H])C1([H])[H]

$$$$
29:0:0
     RDKit          3D

 95 99  0  0  1  0  0  0  0  0999 V2000
  -27.1550  -17.7960   17.5720 C   0  0  0  0  0  3  0  0  0  0  0  0
  -28.1190  -16.6140   17.1650 C   0  0  0  0  0  3  0  0  0  0  0  0
  -27.8170  -15.1840   17.7610 C   0  0  0  0  0  3  0  0  0  0  0  0
  -28.7580  -14.0020   17.2760 C   0  0  0  0  0  3  0  0  0  0  0  0
  -28.4000  -12.5070   17.7100 C   0  0  0  0  0  2  0  0  0  0  0  0
  -29.5780  -11.5820   17.9740 N   0  0  0  0  0  4  0  0  0  0  0  0
  -30.4150  -12.1400   17.9550 H   0  0  0  0  0  0  0  0  0  0  0  0
  -29.6470  -10.9510   17.1900 H   0  0  0  0  0  0  0  0  0  0  0  0
  -29.5960  -10.7320   19.2380 C   0  0  0  0  0  2  0  0  0  0  0  0
  -31.0070  -10.4690   19.9730 C   0  0  0  0  0  2  0  0  0  0  0  0
  -32.8420  -12.3100   21.5650 C   0  0  2  0  0  0  0  0  0  0  0  0
  -33.8050  -11.2320   20.8650 C   0  0  0  0  0  1  0  0  0  0  0  0
  -33.1130  -12.0370   19.2510 C   0  0  0  0  0  1  0  0  0  0  0  0
  -31.7430  -13.2390   19.4630 C   0  0  0  0  0  2  0  0  0  0  0  0
  -31.0210  -13.7290   20.9960 C   0  0  0  0  0  2  0  0  0  0  0  0
  -31.7710  -13.0380   22.5520 C   0  0  0  0  0  1  0  0  0  0  0  0
  -33.0430  -11.8200   22.3940 N   0  0  0  0  0  1  0  0  0  0  0  0
  -33.7060  -13.3770   21.3440 O   0  0  0  0  0  1  0  0  0  0  0  0
  -31.5980  -11.2740   21.1560 N   0  0  0  0  0  2  0  0  0  0  0  0
  -31.3370  -10.8060   22.0120 H   0  0  0  0  0  0  0  0  0  0  0  0
  -28.8260  -15.0060   21.0730 C   0  0  0  0  0  0  0  0  0  0  0  0
  -27.5010  -14.6810   21.1270 C   0  0  0  0  0  0  0  0  0  0  0  0
  -27.4270  -13.2610   20.9870 C   0  0  0  0  0  0  0  0  0  0  0  0
  -29.5350  -13.8250   20.9980 N   0  0  0  0  0  0  0  0  0  0  0  0
  -28.6720  -12.7520   20.9560 N   0  0  0  0  0  0  0  0  0  0  0  0
  -26.2250  -12.4000   20.8650 C   0  0  0  0  0  0  0  0  0  0  0  0
  -26.0310  -11.2630   21.6810 C   0  0  0  0  0  3  0  0  0  0  0  0
  -24.8500  -10.4890   21.5790 C   0  0  0  0  0  3  0  0  0  0  0  0
  -23.8370  -10.8450   20.6560 C   0  0  0  0  0  0  0  0  0  0  0  0
  -24.0380  -11.9690   19.8340 C   0  0  0  0  0  3  0  0  0  0  0  0
  -25.2150  -12.7340   19.9340 C   0  0  0  0  0  3  0  0  0  0  0  0
  -22.6770  -10.1310   20.4630 O   0  0  0  0  0  0  0  0  0  0  0  0
  -22.1190   -9.3710   21.4620 C   0  0  0  0  0  0  0  0  0  0  0  0
  -21.7350   -9.9350   22.6980 C   0  0  0  0  0  3  0  0  0  0  0  0
  -21.0960   -9.1390   23.6700 C   0  0  0  0  0  3  0  0  0  0  0  0
  -20.8370   -7.7810   23.4090 C   0  0  0  0  0  0  0  0  0  0  0  0
  -21.2140   -7.2150   22.1780 C   0  0  0  0  0  3  0  0  0  0  0  0
  -21.8480   -8.0100   21.2060 C   0  0  0  0  0  0  0  0  0  0  0  0
  -22.1850   -7.4660   20.0120 F   0  0  0  0  0  0  0  0  0  0  0  0
  -20.2230   -7.0140   24.3410 F   0  0  0  0  0  0  0  0  0  0  0  0
  -26.3690  -15.6610   21.2420 C   0  0  0  0  0  0  0  0  0  0  0  0
  -25.2860  -15.2750   21.9040 N   0  0  0  0  0  0  0  0  0  0  0  0
  -26.4750  -16.8050   20.8020 O   0  0  0  0  0  0  0  0  0  0  0  0
  -25.2130  -14.3430   22.2840 H   0  0  0  0  0  0  0  0  0  0  0  0
  -24.5170  -15.9180   22.0290 H   0  0  0  0  0  0  0  0  0  0  0  0
  -29.4970  -16.2230   21.1020 N   0  0  0  0  0  0  0  0  0  0  0  0
  -29.0060  -17.1110   21.1100 H   0  0  0  0  0  0  0  0  0  0  0  0
  -30.5030  -16.3260   21.0360 H   0  0  0  0  0  0  0  0  0  0  0  0
  -27.6730  -19.2580   17.2890 C   0  0  0  0  0  3  0  0  0  0  0  0
  -27.0220  -20.4310   18.1190 C   0  0  0  0  0  3  0  0  0  0  0  0
  -27.6190  -21.8780   17.9180 C   0  0  0  0  0  3  0  0  0  0  0  0
  -27.2980  -22.9280   19.0470 C   0  0  0  0  0  3  0  0  0  0  0  0
  -27.8550  -24.3960   18.8790 C   0  0  0  0  0  2  0  0  0  0  0  0
  -27.8600  -25.2590   20.1980 C   0  0  0  0  0  2  0  0  0  0  0  0
  -28.0560  -26.7120   20.1270 O   0  0  0  0  0  0  0  0  0  0  0  0
  -24.3080  -31.9720   23.3770 C   0  0  0  0  0  0  0  0  0  0  0  0
  -26.9200  -27.5100   20.1920 C   0  0  0  0  0  0  0  0  0  0  0  0
  -23.0980  -30.5680   21.7500 C   0  0  0  0  0  3  0  0  0  0  0  0
  -24.5380  -29.0540   20.2940 C   0  0  0  0  0  0  0  0  0  0  0  0
  -25.6300  -30.9260   21.5290 C   0  0  0  0  0  2  0  0  0  0  0  0
  -25.7130  -29.5600   20.8640 C   0  0  0  0  0  0  0  0  0  0  0  0
  -26.9140  -28.7970   20.8060 C   0  0  0  0  0  3  0  0  0  0  0  0
  -25.7170  -27.0420   19.6260 C   0  0  0  0  0  3  0  0  0  0  0  0
  -24.5360  -27.7950   19.6770 C   0  0  0  0  0  3  0  0  0  0  0  0
  -23.2960  -29.9110   20.3620 C   0  0  0  0  0  2  0  0  0  0  0  0
  -24.3650  -31.1710   22.2740 N   0  0  0  0  0  0  0  0  0  0  0  0
  -23.2270  -32.2300   23.9280 O   0  0  0  0  0  0  0  0  0  0  0  0
  -22.4690  -29.5300   22.7100 C   0  0  0  0  0  0  0  0  0  0  0  0
  -21.1640  -29.2630   22.5360 N   0  0  0  0  0  0  0  0  0  0  0  0
  -23.1550  -28.9670   23.5670 O   0  0  0  0  0  0  0  0  0  0  0  0
  -20.6680  -29.7740   21.8190 H   0  0  0  0  0  0  0  0  0  0  0  0
  -17.8750  -27.8000   22.8700 C   0  0  0  0  0  0  0  0  0  0  0  0
  -20.3750  -28.2970   23.3010 C   0  0  0  0  0  3  0  0  0  0  0  0
  -20.6400  -26.8530   22.8150 C   0  0  0  0  0  2  0  0  0  0  0  0
  -19.6460  -26.3820   21.7500 C   0  0  0  0  0  2  0  0  0  0  0  0
  -18.2130  -26.4370   22.2900 C   0  0  0  0  0  2  0  0  0  0  0  0
  -18.8900  -28.6790   23.3310 C   0  0  0  0  0  0  0  0  0  0  0  0
  -18.5220  -29.9470   23.8320 C   0  0  0  0  0  3  0  0  0  0  0  0
  -17.1710  -30.3390   23.8780 C   0  0  0  0  0  3  0  0  0  0  0  0
  -16.1690  -29.4590   23.4330 C   0  0  0  0  0  3  0  0  0  0  0  0
  -16.5200  -28.1920   22.9360 C   0  0  0  0  0  3  0  0  0  0  0  0
  -25.5900  -32.6190   23.9840 C   0  0  0  0  0  3  0  0  0  0  0  0
  -26.0770  -31.9080   25.3070 C   0  0  1  0  0  0  0  0  0  0  0  0
  -24.9650  -31.7390   26.3680 C   0  0  0  0  0  1  0  0  0  0  0  0
  -26.6480  -30.5040   24.9960 C   0  0  0  0  0  1  0  0  0  0  0  0
  -27.2260  -32.7220   25.9450 C   0  0  0  0  0  1  0  0  0  0  0  0
  -25.2920  -34.0350   24.2370 N   0  0  0  0  0  0  0  0  0  0  0  0
  -25.6690  -35.0460   23.4430 C   0  0  0  0  0  0  0  0  0  0  0  0
  -26.3740  -34.8840   22.4430 O   0  0  0  0  0  0  0  0  0  0  0  0
  -24.6720  -34.2360   25.0080 H   0  0  0  0  0  0  0  0  0  0  0  0
  -23.9970  -36.8550   22.9320 C   0  0  0  0  0  1  0  0  0  0  0  0
  -25.1900  -36.4620   23.8180 C   0  0  0  0  0  3  0  0  0  0  0  0
  -27.3010  -37.3430   24.7100 C   0  0  0  0  0  1  0  0  0  0  0  0
  -26.2490  -37.4880   23.7080 N   0  0  0  0  0  0  0  0  0  0  0  0
  -25.8570  -38.4220   23.7940 H   0  0  0  0  0  0  0  0  0  0  0  0
  2  1  2  0
  2  3  1  0
  4  5  1  0
  4  3  2  0
  5  6  1  0
  6  9  1  0
  7  6  1  0
  8  6  1  0
  9 10  1  0
 10 19  1  0
 11 17  1  0
 11 16  1  6
 12 11  1  0
 13 14  1  0
 14 15  1  0
 15 24  1  0
 18 11  1  0
 19 20  1  0
 21 46  1  0
 21 22  2  0
 22 41  1  0
 23 22  1  0
 24 21  1  0
 25 23  2  0
 25 24  1  0
 26 23  1  0
 26 27  1  0
 28 27  2  0
 29 28  1  0
 30 31  1  0
 30 29  2  0
 31 26  2  0
 32 29  1  0
 32 33  1  0
 33 34  1  0
 34 35  2  0
 36 35  1  0
 36 40  1  0
 37 36  2  0
 38 33  2  0
 38 37  1  0
 39 38  1  0
 41 42  1  0
 42 45  1  0
 42 44  1  0
 43 41  2  0
 46 47  1  0
 48 46  1  0
 49  1  1  0
 49 50  2  0
 51 50  1  0
 51 52  2  0
 53 52  1  0
 53 54  1  0
 55 57  1  0
 55 54  1  0
 56 67  2  0
 57 62  1  0
 58 66  1  0
 58 68  1  0
 59 65  1  0
 59 61  1  0
 60 66  1  0
 61 60  1  0
 62 61  2  0
 63 64  1  0
 63 57  2  0
 64 59  2  0
 65 58  1  0
 66 56  1  0
 68 70  2  0
 69 68  1  0
 71 69  1  0
 72 81  2  0
 72 77  1  0
 73 69  1  0
 73 77  1  0
 74 73  1  0
 75 76  1  0
 75 74  1  0
 76 72  1  0
 77 78  2  0
 78 79  1  0
 80 79  2  0
 81 80  1  0
 82 56  1  0
 82 87  1  0
 82 83  1  0
 83 86  1  1
 83 84  1  0
 85 83  1  0
 87 90  1  0
 88 92  1  0
 88 87  1  0
 89 88  2  0
 92 91  1  0
 94 95  1  0
 94 92  1  0
 94 93  1  0
M  ISO  4  11 100  19 100  54 101  55 101
M  END
>  <TORSDO>  (30) 
F 29

>  <SCORE>  (30) 
2.576

>  <name>  (30) 
29

>  <ligand_id>  (30) 
29

>  <original_smiles>  (30) 
[H]c1c([H])c([H])c2c(c1[H])C([H])([H])C([H])([H])C([H])([H])C2([H])N([H])C(=O)C1([H])N(C(=O)C([H])(N([H])C(=O)C([H])(N([H])C([H])([H])[H])C([H])([H])[H])C(C([H])([H])[H])(C([H])([H])[H])C([H])([H])[H])C([H])([H])c2c([H])c(OC([H])([H])C([H])([H])C([H])([H])C([H])([H])C([H])([H])C([H])([H])C([H])([H])C([H])([H])C([H])([H])C([H])([H])C([H])([H])[N+]([H])([H])C([H])([H])C([H])([H])N([H])C(=O)N3C([H])([H])C([H])([H])C([H])([H])C([H])(n4nc(-c5c([H])c([H])c(Oc6c([H])c([H])c(F)c([H])c6F)c([H])c5[H])c(C(=O)N([H])[H])c4N([H])[H])C3([H])[H])c([H])c([H])c2C1([H])[H]

>  <smiles>  (30) 
[H]c1c([H])c([H])c2c(c1[H])C([H])([H])C([H])([H])C([H])([H])C2([H])N([H])C(=O)C1([H])N(C(=O)C([H])(N([H])C(=O)C([H])(N([H])C([H])([H])[H])C([H])([H])[H])C(C([H])([H])[H])(C([H])([H])[H])C([H])([H])[H])C([H])([H])c2c([H])c(OC([H])([H])C([H])([H])C([H])([H])C([H])([H])C([H])([H])C([H])([H])C([H])([H])C([H])([H])C([H])([H])C([H])([H])C([H])([H])[N+]([H])([H])C([H])([H])C([H])([H])N([H])C(=O)N3C([H])([H])C([H])([H])C([H])([H])C([H])(n4nc(-c5c([H])c([H])c(Oc6c([H])c([H])c(F)c([H])c6F)c([H])c5[H])c(C(=O)N([H])[H])c4N([H])[H])C3([H])[H])c([H])c([H])c2C1([H])[H]

$$$$
30:0:0
     RDKit          3D

100108  0  0  1  0  0  0  0  0999 V2000
  -29.5580  -25.8810   16.3910 C   0  0  0  0  0  0  0  0  0  0  0  0
  -27.7570  -27.5790   16.8360 C   0  0  0  0  0  2  0  0  0  0  0  0
  -28.0220  -28.0060   15.3730 C   0  0  0  0  0  2  0  0  0  0  0  0
  -28.6240  -25.5590   15.1960 C   0  0  0  0  0  3  0  0  0  0  0  0
  -28.9290  -26.7730   17.4920 C   0  0  2  0  0  0  0  0  0  0  0  0
  -29.9830  -27.7610   18.0500 C   0  0  0  0  0  1  0  0  0  0  0  0
  -28.3530  -26.8460   14.4990 N   0  0  0  0  0  4  0  0  0  0  0  0
  -30.7350  -25.5190   16.4670 O   0  0  0  0  0  0  0  0  0  0  0  0
  -29.1660  -27.0980   13.9610 H   0  0  0  0  0  0  0  0  0  0  0  0
  -27.6000  -26.7110   13.8420 H   0  0  0  0  0  0  0  0  0  0  0  0
  -29.1590  -24.4720   14.2290 C   0  0  0  0  0  2  0  0  0  0  0  0
  -29.5320  -23.1370   14.9120 C   0  0  0  0  0  2  0  0  0  0  0  0
  -30.1700  -22.1090   13.9560 C   0  0  0  0  0  2  0  0  0  0  0  0
  -31.0070  -21.0460   14.6920 C   0  0  0  0  0  2  0  0  0  0  0  0
  -30.2190  -20.1310   15.6500 C   0  0  0  0  0  2  0  0  0  0  0  0
  -31.1440  -19.4490   16.6690 C   0  0  0  0  0  2  0  0  0  0  0  0
  -30.4180  -18.4720   17.6040 C   0  0  0  0  0  2  0  0  0  0  0  0
  -31.3310  -17.9710   18.7340 C   0  0  0  0  0  2  0  0  0  0  0  0
  -30.7140  -16.8140   19.5300 C   0  0  0  0  0  2  0  0  0  0  0  0
  -31.6340  -16.2950   20.6540 C   0  0  0  0  0  2  0  0  0  0  0  0
  -31.8760  -13.8480   20.4140 C   0  0  0  0  0  0  0  0  0  0  0  0
  -31.2540  -11.8770   19.0900 C   0  0  0  0  0  2  0  0  0  0  0  0
  -30.3680  -12.3590   17.9220 C   0  0  0  0  0  2  0  0  0  0  0  0
  -28.8870  -12.4370   18.3490 C   0  0  0  0  0  2  0  0  0  0  0  0
  -28.6830  -13.1820   19.6950 C   0  0  0  0  0  3  0  0  0  0  0  0
  -29.6790  -12.6730   20.7630 C   0  0  0  0  0  2  0  0  0  0  0  0
  -31.0420  -12.7970   20.2130 N   0  0  0  0  0  0  0  0  0  0  0  0
  -33.0150  -13.9180   19.9380 O   0  0  0  0  0  0  0  0  0  0  0  0
  -31.2880  -14.9120   20.9740 N   0  0  0  0  0  0  0  0  0  0  0  0
  -30.3690  -14.7520   21.3630 H   0  0  0  0  0  0  0  0  0  0  0  0
  -26.3950  -14.1030   20.4290 C   0  0  0  0  0  0  0  0  0  0  0  0
  -25.2220  -13.4790   20.7600 C   0  0  0  0  0  0  0  0  0  0  0  0
  -25.4790  -12.0770   20.6600 C   0  0  0  0  0  0  0  0  0  0  0  0
  -27.3000  -13.0890   20.1560 N   0  0  0  0  0  0  0  0  0  0  0  0
  -26.7510  -11.8620   20.3470 N   0  0  0  0  0  0  0  0  0  0  0  0
  -24.5770  -10.9270   20.7890 C   0  0  0  0  0  0  0  0  0  0  0  0
  -24.8820   -9.8390   21.6360 C   0  0  0  0  0  3  0  0  0  0  0  0
  -23.9910   -8.7530   21.7540 C   0  0  0  0  0  3  0  0  0  0  0  0
  -22.7780   -8.7480   21.0260 C   0  0  0  0  0  0  0  0  0  0  0  0
  -22.4890   -9.8220   20.1670 C   0  0  0  0  0  3  0  0  0  0  0  0
  -23.3790  -10.9010   20.0450 C   0  0  0  0  0  3  0  0  0  0  0  0
  -21.8620   -7.7230   21.0590 O   0  0  0  0  0  0  0  0  0  0  0  0
  -21.7320   -6.9100   22.1560 C   0  0  0  0  0  0  0  0  0  0  0  0
  -21.4560   -7.4290   23.4390 C   0  0  0  0  0  3  0  0  0  0  0  0
  -21.2620   -6.5520   24.5260 C   0  0  0  0  0  3  0  0  0  0  0  0
  -21.3340   -5.1600   24.3290 C   0  0  0  0  0  0  0  0  0  0  0  0
  -21.6060   -4.6410   23.0510 C   0  0  0  0  0  3  0  0  0  0  0  0
  -21.8010   -5.5150   21.9670 C   0  0  0  0  0  0  0  0  0  0  0  0
  -22.0390   -5.0100   20.7320 F   0  0  0  0  0  0  0  0  0  0  0  0
  -21.1410   -4.3170   25.3710 F   0  0  0  0  0  0  0  0  0  0  0  0
  -23.9100  -14.1410   21.0630 C   0  0  0  0  0  0  0  0  0  0  0  0
  -23.0920  -13.5200   21.9090 N   0  0  0  0  0  0  0  0  0  0  0  0
  -23.6200  -15.2390   20.5900 O   0  0  0  0  0  0  0  0  0  0  0  0
  -23.3390  -12.6280   22.3120 H   0  0  0  0  0  0  0  0  0  0  0  0
  -22.2080  -13.9410   22.1550 H   0  0  0  0  0  0  0  0  0  0  0  0
  -26.7600  -15.4420   20.3190 N   0  0  0  0  0  0  0  0  0  0  0  0
  -26.0970  -16.1970   20.4540 H   0  0  0  0  0  0  0  0  0  0  0  0
  -27.6640  -15.7640   20.0010 H   0  0  0  0  0  0  0  0  0  0  0  0
  -28.4670  -25.8340   18.6500 C   0  0  0  0  0  2  0  0  0  0  0  0
  -28.1720  -26.5090   19.8800 O   0  0  0  0  0  0  0  0  0  0  0  0
  -24.5050  -31.6690   23.1320 C   0  0  0  0  0  0  0  0  0  0  0  0
  -26.9790  -27.1880   19.9820 C   0  0  0  0  0  0  0  0  0  0  0  0
  -23.2370  -30.3150   21.4930 C   0  0  0  0  0  3  0  0  0  0  0  0
  -24.6230  -28.7400   20.0580 C   0  0  0  0  0  0  0  0  0  0  0  0
  -25.7680  -30.6040   21.2640 C   0  0  0  0  0  2  0  0  0  0  0  0
  -25.8030  -29.2320   20.6280 C   0  0  0  0  0  0  0  0  0  0  0  0
  -26.9820  -28.4580   20.5950 C   0  0  0  0  0  3  0  0  0  0  0  0
  -25.7610  -26.6790   19.4710 C   0  0  0  0  0  3  0  0  0  0  0  0
  -24.5910  -27.4560   19.4910 C   0  0  0  0  0  3  0  0  0  0  0  0
  -23.4100  -29.6400   20.1100 C   0  0  0  0  0  2  0  0  0  0  0  0
  -24.5220  -30.8770   22.0220 N   0  0  0  0  0  0  0  0  0  0  0  0
  -23.4380  -31.9710   23.6820 O   0  0  0  0  0  0  0  0  0  0  0  0
  -22.5670  -29.3070   22.4540 C   0  0  0  0  0  0  0  0  0  0  0  0
  -21.2360  -29.1820   22.3500 N   0  0  0  0  0  0  0  0  0  0  0  0
  -23.2420  -28.6410   23.2440 O   0  0  0  0  0  0  0  0  0  0  0  0
  -20.7580  -29.7700   21.6830 H   0  0  0  0  0  0  0  0  0  0  0  0
  -17.8230  -28.1360   22.9140 C   0  0  0  0  0  0  0  0  0  0  0  0
  -20.3950  -28.2680   23.1220 C   0  0  0  0  0  3  0  0  0  0  0  0
  -20.4160  -26.8450   22.5210 C   0  0  0  0  0  2  0  0  0  0  0  0
  -19.2760  -26.5940   21.5290 C   0  0  0  0  0  2  0  0  0  0  0  0
  -17.9190  -26.7920   22.2110 C   0  0  0  0  0  2  0  0  0  0  0  0
  -18.9860  -28.8370   23.3260 C   0  0  0  0  0  0  0  0  0  0  0  0
  -18.8440  -30.0970   23.9470 C   0  0  0  0  0  3  0  0  0  0  0  0
  -17.5700  -30.6610   24.1510 C   0  0  0  0  0  3  0  0  0  0  0  0
  -16.4200  -29.9570   23.7530 C   0  0  0  0  0  3  0  0  0  0  0  0
  -16.5470  -28.6960   23.1420 C   0  0  0  0  0  3  0  0  0  0  0  0
  -25.8190  -32.2550   23.7410 C   0  0  0  0  0  3  0  0  0  0  0  0
  -26.3280  -31.4540   25.0020 C   0  0  1  0  0  0  0  0  0  0  0  0
  -25.2440  -31.2340   26.0830 C   0  0  0  0  0  1  0  0  0  0  0  0
  -26.8640  -30.0680   24.5790 C   0  0  0  0  0  1  0  0  0  0  0  0
  -27.5130  -32.2050   25.6520 C   0  0  0  0  0  1  0  0  0  0  0  0
  -25.5610  -33.6600   24.0840 N   0  0  0  0  0  0  0  0  0  0  0  0
  -25.9240  -34.7040   23.3280 C   0  0  0  0  0  0  0  0  0  0  0  0
  -26.5870  -34.5840   22.2940 O   0  0  0  0  0  0  0  0  0  0  0  0
  -24.9770  -33.8300   24.8890 H   0  0  0  0  0  0  0  0  0  0  0  0
  -24.2470  -36.5450   22.9950 C   0  0  0  0  0  1  0  0  0  0  0  0
  -25.4820  -36.1040   23.7950 C   0  0  0  0  0  3  0  0  0  0  0  0
  -27.6530  -36.9170   24.6030 C   0  0  0  0  0  1  0  0  0  0  0  0
  -26.5440  -37.1250   23.6750 N   0  0  0  0  0  0  0  0  0  0  0  0
  -26.1700  -38.0590   23.8290 H   0  0  0  0  0  0  0  0  0  0  0  0
  1  8  2  0
  1  5  1  0
  2  5  1  0
  3  2  1  0
  4 11  1  0
  4  1  1  0
  5  6  1  1
  5 59  1  0
  7  4  1  0
  7  3  1  0
  9  7  1  0
 10  7  1  0
 11 12  1  0
 13 14  1  0
 13 12  1  0
 14 15  1  0
 15 16  1  0
 16 17  1  0
 17 18  1  0
 18 19  1  0
 19 20  1  0
 20 29  1  0
 21 29  1  0
 22 27  1  0
 23 24  1  0
 23 22  1  0
 25 24  1  0
 25 34  1  0
 25 26  1  0
 27 21  1  0
 27 26  1  0
 28 21  2  0
 29 30  1  0
 31 32  2  0
 32 51  1  0
 33 32  1  0
 33 36  1  0
 34 35  1  0
 34 31  1  0
 35 33  2  0
 36 37  1  0
 37 38  2  0
 39 42  1  0
 39 38  1  0
 40 39  2  0
 41 40  1  0
 41 36  2  0
 42 43  1  0
 43 44  1  0
 44 45  2  0
 46 45  1  0
 46 50  1  0
 47 46  2  0
 48 43  2  0
 48 47  1  0
 49 48  1  0
 51 52  1  0
 52 55  1  0
 52 54  1  0
 53 51  2  0
 56 31  1  0
 56 57  1  0
 58 56  1  0
 59 60  1  0
 60 62  1  0
 61 72  2  0
 62 67  1  0
 63 71  1  0
 63 73  1  0
 64 70  1  0
 64 66  1  0
 65 71  1  0
 66 65  1  0
 67 66  2  0
 68 69  1  0
 68 62  2  0
 69 64  2  0
 70 63  1  0
 71 61  1  0
 73 75  2  0
 74 73  1  0
 76 74  1  0
 77 86  2  0
 77 82  1  0
 78 74  1  0
 78 82  1  0
 79 78  1  0
 80 81  1  0
 80 79  1  0
 81 77  1  0
 82 83  2  0
 83 84  1  0
 85 84  2  0
 86 85  1  0
 87 61  1  0
 87 92  1  0
 87 88  1  0
 88 91  1  1
 88 89  1  0
 90 88  1  0
 92 95  1  0
 93 97  1  0
 93 92  1  0
 94 93  2  0
 97 96  1  0
 99 97  1  0
 99100  1  0
 99 98  1  0
M  ISO  4  21 100  29 100  59 101  60 101
M  END
>  <TORSDO>  (31) 
F 27

>  <SCORE>  (31) 
-10.528

>  <name>  (31) 
30

>  <ligand_id>  (31) 
30

>  <original_smiles>  (31) 
[H]c1c([H])c([H])c2c(c1[H])C([H])([H])C([H])([H])C([H])([H])C2([H])N([H])C(=O)C1([H])N(C(=O)C([H])(N([H])C(=O)C([H])(N([H])C([H])([H])[H])C([H])([H])[H])C(C([H])([H])[H])(C([H])([H])[H])C([H])([H])[H])C([H])([H])c2c([H])c(OC([H])([H])C3(C([H])([H])[H])C(=O)C([H])(C([H])([H])C([H])([H])C([H])([H])C([H])([H])C([H])([H])C([H])([H])C([H])([H])C([H])([H])C([H])([H])C([H])([H])N([H])C(=O)N4C([H])([H])C([H])([H])C([H])([H])C([H])(n5nc(-c6c([H])c([H])c(Oc7c([H])c([H])c(F)c([H])c7F)c([H])c6[H])c(C(=O)N([H])[H])c5N([H])[H])C4([H])[H])[N+]([H])([H])C([H])([H])C3([H])[H])c([H])c([H])c2C1([H])[H]

>  <smiles>  (31) 
[H]c1c([H])c([H])c2c(c1[H])C([H])([H])C([H])([H])C([H])([H])C2([H])N([H])C(=O)C1([H])N(C(=O)C([H])(N([H])C(=O)C([H])(N([H])C([H])([H])[H])C([H])([H])[H])C(C([H])([H])[H])(C([H])([H])[H])C([H])([H])[H])C([H])([H])c2c([H])c(OC([H])([H])C3(C([H])([H])[H])C(=O)C([H])(C([H])([H])C([H])([H])C([H])([H])C([H])([H])C([H])([H])C([H])([H])C([H])([H])C([H])([H])C([H])([H])C([H])([H])N([H])C(=O)N4C([H])([H])C([H])([H])C([H])([H])C([H])(n5nc(-c6c([H])c([H])c(Oc7c([H])c([H])c(F)c([H])c7F)c([H])c6[H])c(C(=O)N([H])[H])c5N([H])[H])C4([H])[H])[N+]([H])([H])C([H])([H])C3([H])[H])c([H])c([H])c2C1([H])[H]

$$$$
31:0:0
     RDKit          3D

105112  0  0  1  0  0  0  0  0999 V2000
  -28.5580  -24.0730   17.8670 C   0  0  0  0  0  2  0  0  0  0  0  0
  -29.2290  -24.8150   19.0370 C   0  0  0  0  0  2  0  0  0  0  0  0
  -29.2530  -26.3570   18.8900 C   0  0  0  0  0  3  0  0  0  0  0  0
  -30.5830  -26.7860   18.3960 N   0  0  0  0  0  4  0  0  0  0  0  0
  -31.0110  -27.3260   19.1330 H   0  0  0  0  0  0  0  0  0  0  0  0
  -31.1620  -25.9750   18.2350 H   0  0  0  0  0  0  0  0  0  0  0  0
  -30.5850  -27.6240   17.1750 C   0  0  0  0  0  2  0  0  0  0  0  0
  -31.2780  -26.9060   16.0100 C   0  0  0  0  0  2  0  0  0  0  0  0
  -32.0060  -25.7900   16.5240 O   0  0  0  0  0  0  0  0  0  0  0  0
  -37.6800  -29.8840   17.8140 C   0  0  0  0  0  0  0  0  0  0  0  0
  -33.3690  -25.9230   16.4710 C   0  0  0  0  0  0  0  0  0  0  0  0
  -38.1000  -27.8410   16.4830 C   0  0  0  0  0  3  0  0  0  0  0  0
  -36.1740  -26.1720   16.3810 C   0  0  0  0  0  0  0  0  0  0  0  0
  -36.1690  -27.9350   18.1550 C   0  0  0  0  0  2  0  0  0  0  0  0
  -35.4270  -26.9670   17.2610 C   0  0  0  0  0  0  0  0  0  0  0  0
  -34.0220  -26.8550   17.3030 C   0  0  0  0  0  3  0  0  0  0  0  0
  -34.1260  -25.1420   15.5730 C   0  0  0  0  0  3  0  0  0  0  0  0
  -35.5280  -25.2630   15.5260 C   0  0  0  0  0  3  0  0  0  0  0  0
  -37.6760  -26.3490   16.4070 C   0  0  0  0  0  2  0  0  0  0  0  0
  -37.3040  -28.6150   17.4900 N   0  0  0  0  0  0  0  0  0  0  0  0
  -38.6960  -30.3960   17.3230 O   0  0  0  0  0  0  0  0  0  0  0  0
  -38.0400  -28.4420   15.0610 C   0  0  0  0  0  0  0  0  0  0  0  0
  -36.9680  -29.1990   14.7760 N   0  0  0  0  0  0  0  0  0  0  0  0
  -38.9550  -28.2500   14.2550 O   0  0  0  0  0  0  0  0  0  0  0  0
  -36.2590  -29.3000   15.4890 H   0  0  0  0  0  0  0  0  0  0  0  0
  -36.7780  -28.7580   11.1970 C   0  0  0  0  0  0  0  0  0  0  0  0
  -36.7170  -29.8960   13.5160 C   0  0  0  0  0  3  0  0  0  0  0  0
  -35.2020  -30.0780   13.2740 C   0  0  0  0  0  2  0  0  0  0  0  0
  -34.5830  -28.9510   12.4410 C   0  0  0  0  0  2  0  0  0  0  0  0
  -35.2670  -28.8570   11.0740 C   0  0  0  0  0  2  0  0  0  0  0  0
  -37.4580  -29.2310   12.3500 C   0  0  0  0  0  0  0  0  0  0  0  0
  -38.8600  -29.0830   12.4300 C   0  0  0  0  0  3  0  0  0  0  0  0
  -39.5800  -28.4790   11.3820 C   0  0  0  0  0  3  0  0  0  0  0  0
  -38.9050  -28.0250   10.2350 C   0  0  0  0  0  3  0  0  0  0  0  0
  -37.5090  -28.1700   10.1430 C   0  0  0  0  0  3  0  0  0  0  0  0
  -36.8680  -30.7430   18.8340 C   0  0  0  0  0  3  0  0  0  0  0  0
  -37.8130  -31.2400   19.8420 N   0  0  0  0  0  0  0  0  0  0  0  0
  -37.7530  -30.9500   21.1490 C   0  0  0  0  0  0  0  0  0  0  0  0
  -36.8410  -30.2830   21.6460 O   0  0  0  0  0  0  0  0  0  0  0  0
  -38.6170  -31.7470   19.4990 H   0  0  0  0  0  0  0  0  0  0  0  0
  -39.7960  -30.3200   22.4740 C   0  0  0  0  0  1  0  0  0  0  0  0
  -38.8850  -31.4830   22.0470 C   0  0  0  0  0  3  0  0  0  0  0  0
  -37.7440  -33.4670   22.9350 C   0  0  0  0  0  1  0  0  0  0  0  0
  -38.3970  -32.1980   23.2460 N   0  0  0  0  0  0  0  0  0  0  0  0
  -39.1610  -32.3850   23.8900 H   0  0  0  0  0  0  0  0  0  0  0  0
  -36.0880  -31.9370   18.1600 C   0  0  1  0  0  0  0  0  0  0  0  0
  -36.9640  -32.8040   17.2280 C   0  0  0  0  0  1  0  0  0  0  0  0
  -34.8940  -31.4090   17.3310 C   0  0  0  0  0  1  0  0  0  0  0  0
  -35.4940  -32.8590   19.2520 C   0  0  0  0  0  1  0  0  0  0  0  0
  -28.0970  -26.9230   18.0170 C   0  0  0  0  0  2  0  0  0  0  0  0
  -26.6900  -26.3730   18.3280 C   0  0  0  0  0  2  0  0  0  0  0  0
  -26.1930  -26.8900   19.5520 O   0  0  0  0  0  0  0  0  0  0  0  0
  -26.5480  -26.3730   20.2690 H   0  0  0  0  0  0  0  0  0  0  0  0
  -28.5210  -22.5520   18.0610 C   0  0  0  0  0  2  0  0  0  0  0  0
  -29.7710  -21.8990   17.4610 C   0  0  0  0  0  2  0  0  0  0  0  0
  -29.5950  -21.4670   16.0020 C   0  0  0  0  0  2  0  0  0  0  0  0
  -29.9510  -22.6110   15.0390 C   0  0  0  0  0  2  0  0  0  0  0  0
  -30.7400  -22.1550   13.8010 C   0  0  0  0  0  2  0  0  0  0  0  0
  -31.2460  -23.3160   12.9210 C   0  0  0  0  0  2  0  0  0  0  0  0
  -32.3460  -22.8860   11.9280 C   0  0  0  0  0  2  0  0  0  0  0  0
  -33.7290  -23.5160   12.1890 C   0  0  0  0  0  2  0  0  0  0  0  0
  -34.8740  -22.7330   11.5130 C   0  0  0  0  0  2  0  0  0  0  0  0
  -35.2350  -21.4520   12.2830 C   0  0  0  0  0  2  0  0  0  0  0  0
  -34.1870  -20.9970   13.3120 C   0  0  0  0  0  2  0  0  0  0  0  0
  -34.8190  -20.3920   14.5780 C   0  0  0  0  0  2  0  0  0  0  0  0
  -34.3350  -21.0690   15.8710 C   0  0  0  0  0  2  0  0  0  0  0  0
  -33.0350  -21.8740   15.6920 C   0  0  0  0  0  2  0  0  0  0  0  0
  -32.4260  -22.2990   17.0410 C   0  0  0  0  0  2  0  0  0  0  0  0
  -33.3270  -22.0710   18.2720 C   0  0  0  0  0  2  0  0  0  0  0  0
  -32.7990  -21.0880   19.3310 C   0  0  0  0  0  0  0  0  0  0  0  0
  -32.5840  -20.5450   21.7340 C   0  0  0  0  0  2  0  0  0  0  0  0
  -31.1330  -20.5290   22.2430 C   0  0  0  0  0  2  0  0  0  0  0  0
  -30.6750  -21.9450   22.6400 C   0  0  0  0  0  2  0  0  0  0  0  0
  -30.9620  -22.9810   21.5240 C   0  0  0  0  0  3  0  0  0  0  0  0
  -32.4320  -22.8810   21.0560 C   0  0  0  0  0  2  0  0  0  0  0  0
  -32.6860  -21.4980   20.6190 N   0  0  0  0  0  0  0  0  0  0  0  0
  -32.6500  -19.9080   18.9950 O   0  0  0  0  0  0  0  0  0  0  0  0
  -31.2030  -25.5460   21.6080 C   0  0  0  0  0  0  0  0  0  0  0  0
  -30.4750  -26.5060   22.2610 C   0  0  0  0  0  0  0  0  0  0  0  0
  -29.4600  -25.8130   22.9860 C   0  0  0  0  0  0  0  0  0  0  0  0
  -30.6270  -24.3330   21.9630 N   0  0  0  0  0  0  0  0  0  0  0  0
  -29.6020  -24.5010   22.8370 N   0  0  0  0  0  0  0  0  0  0  0  0
  -28.3210  -26.3220   23.7630 C   0  0  0  0  0  0  0  0  0  0  0  0
  -28.1530  -26.0010   25.1270 C   0  0  0  0  0  3  0  0  0  0  0  0
  -27.0600  -26.5150   25.8570 C   0  0  0  0  0  3  0  0  0  0  0  0
  -26.1220  -27.3650   25.2230 C   0  0  0  0  0  0  0  0  0  0  0  0
  -26.2790  -27.6630   23.8580 C   0  0  0  0  0  3  0  0  0  0  0  0
  -27.3650  -27.1460   23.1330 C   0  0  0  0  0  3  0  0  0  0  0  0
  -25.0170  -27.8890   25.8470 O   0  0  0  0  0  0  0  0  0  0  0  0
  -25.0730  -28.3600   27.1370 C   0  0  0  0  0  0  0  0  0  0  0  0
  -26.1540  -29.1390   27.6030 C   0  0  0  0  0  3  0  0  0  0  0  0
  -26.1340  -29.6560   28.9140 C   0  0  0  0  0  3  0  0  0  0  0  0
  -25.0340  -29.4050   29.7550 C   0  0  0  0  0  0  0  0  0  0  0  0
  -23.9530  -28.6380   29.2900 C   0  0  0  0  0  3  0  0  0  0  0  0
  -23.9710  -28.1180   27.9830 C   0  0  0  0  0  0  0  0  0  0  0  0
  -22.9170  -27.3940   27.5360 F   0  0  0  0  0  0  0  0  0  0  0  0
  -25.0140  -29.9140   31.0090 F   0  0  0  0  0  0  0  0  0  0  0  0
  -30.6410  -27.9940   22.1350 C   0  0  0  0  0  0  0  0  0  0  0  0
  -30.2970  -28.7420   23.1790 N   0  0  0  0  0  0  0  0  0  0  0  0
  -31.1160  -28.4950   21.1200 O   0  0  0  0  0  0  0  0  0  0  0  0
  -29.9400  -28.3300   24.0270 H   0  0  0  0  0  0  0  0  0  0  0  0
  -30.3950  -29.7460   23.1250 H   0  0  0  0  0  0  0  0  0  0  0  0
  -32.2860  -25.5980   20.7340 N   0  0  0  0  0  0  0  0  0  0  0  0
  -32.7060  -26.4730   20.4440 H   0  0  0  0  0  0  0  0  0  0  0  0
  -32.6980  -24.7930   20.2810 H   0  0  0  0  0  0  0  0  0  0  0  0
  1 54  1  0
  1  2  1  0
  3 50  1  0
  3  2  1  0
  4  3  1  0
  4  5  1  0
  6  4  1  0
  7  4  1  0
  8  9  1  0
  8  7  1  0
 11  9  1  0
 11 16  1  0
 12 22  1  0
 12 20  1  0
 13 19  1  0
 13 15  1  0
 15 16  2  0
 15 14  1  0
 17 11  2  0
 18 17  1  0
 18 13  2  0
 19 12  1  0
 20 10  1  0
 20 14  1  0
 21 10  2  0
 23 22  1  0
 23 25  1  0
 24 22  2  0
 26 31  1  0
 27 23  1  0
 28 27  1  0
 29 28  1  0
 30 26  1  0
 30 29  1  0
 31 32  2  0
 31 27  1  0
 33 32  1  0
 34 33  2  0
 35 34  1  0
 35 26  2  0
 36 10  1  0
 36 37  1  0
 37 38  1  0
 38 39  2  0
 38 42  1  0
 40 37  1  0
 42 41  1  0
 42 44  1  0
 43 44  1  0
 44 45  1  0
 46 36  1  0
 46 49  1  1
 47 46  1  0
 48 46  1  0
 50 51  1  0
 51 52  1  0
 52 53  1  0
 55 54  1  0
 56 55  1  0
 57 56  1  0
 58 57  1  0
 59 58  1  0
 60 61  1  0
 60 59  1  0
 62 61  1  0
 62 63  1  0
 63 64  1  0
 64 65  1  0
 65 66  1  0
 67 66  1  0
 67 68  1  0
 68 69  1  0
 69 70  1  0
 70 76  1  0
 71 72  1  0
 72 73  1  0
 74 75  1  0
 74 81  1  0
 74 73  1  0
 76 75  1  0
 76 71  1  0
 77 70  2  0
 78 81  1  0
 78 79  2  0
 79 80  1  0
 80 83  1  0
 81 82  1  0
 82 80  2  0
 83 84  1  0
 84 85  2  0
 86 89  1  0
 86 85  1  0
 87 86  2  0
 88 83  2  0
 88 87  1  0
 89 90  1  0
 90 91  2  0
 90 95  1  0
 91 92  1  0
 92 93  2  0
 93 97  1  0
 94 93  1  0
 95 94  2  0
 96 95  1  0
 98 79  1  0
 98 99  1  0
 99101  1  0
100 98  2  0
102 99  1  0
103 78  1  0
104103  1  0
105103  1  0
M  ISO  4   8 101   9 101  69 100  70 100
M  END
>  <TORSDO>  (32) 
F 40

>  <SCORE>  (32) 
-1.440

>  <name>  (32) 
31

>  <ligand_id>  (32) 
31

>  <original_smiles>  (32) 
[H]OC([H])([H])C([H])([H])C([H])(C([H])([H])C([H])([H])C([H])([H])C([H])([H])C([H])([H])C([H])([H])C([H])([H])C([H])([H])C([H])([H])C([H])([H])C([H])([H])C([H])([H])C([H])([H])C([H])([H])C([H])([H])C([H])([H])C([H])([H])C([H])([H])C(=O)N1C([H])([H])C([H])([H])C([H])([H])C([H])(n2nc(-c3c([H])c([H])c(Oc4c([H])c([H])c(F)c([H])c4F)c([H])c3[H])c(C(=O)N([H])[H])c2N([H])[H])C1([H])[H])[N+]([H])([H])C([H])([H])C([H])([H])Oc1c([H])c([H])c2c(c1[H])C([H])([H])N(C(=O)C([H])(N([H])C(=O)C([H])(N([H])C([H])([H])[H])C([H])([H])[H])C(C([H])([H])[H])(C([H])([H])[H])C([H])([H])[H])C([H])(C(=O)N([H])C1([H])c3c([H])c([H])c([H])c([H])c3C([H])([H])C([H])([H])C1([H])[H])C2([H])[H]

>  <smiles>  (32) 
[H]OC([H])([H])C([H])([H])C([H])(C([H])([H])C([H])([H])C([H])([H])C([H])([H])C([H])([H])C([H])([H])C([H])([H])C([H])([H])C([H])([H])C([H])([H])C([H])([H])C([H])([H])C([H])([H])C([H])([H])C([H])([H])C([H])([H])C([H])([H])C([H])([H])C(=O)N1C([H])([H])C([H])([H])C([H])([H])C([H])(n2nc(-c3c([H])c([H])c(Oc4c([H])c([H])c(F)c([H])c4F)c([H])c3[H])c(C(=O)N([H])[H])c2N([H])[H])C1([H])[H])[N+]([H])([H])C([H])([H])C([H])([H])Oc1c([H])c([H])c2c(c1[H])C([H])([H])N(C(=O)C([H])(N([H])C(=O)C([H])(N([H])C([H])([H])[H])C([H])([H])[H])C(C([H])([H])[H])(C([H])([H])[H])C([H])([H])[H])C([H])(C(=O)N([H])C1([H])c3c([H])c([H])c([H])c([H])c3C([H])([H])C([H])([H])C1([H])[H])C2([H])[H]

$$$$
32:0:0
     RDKit          3D

 93101  0  0  1  0  0  0  0  0999 V2000
  -34.4890  -22.3540    7.9710 C   0  0  0  0  0  3  0  0  0  0  0  0
  -35.1320  -21.1150    7.7740 C   0  0  0  0  0  3  0  0  0  0  0  0
  -33.1610  -22.5400    7.5400 C   0  0  0  0  0  3  0  0  0  0  0  0
  -33.1210  -20.2510    6.6970 C   0  0  0  0  0  3  0  0  0  0  0  0
  -34.4440  -20.0640    7.1340 C   0  0  0  0  0  0  0  0  0  0  0  0
  -32.4760  -21.4820    6.9060 C   0  0  0  0  0  0  0  0  0  0  0  0
  -35.1190  -18.7440    6.8480 C   0  0  0  0  0  2  0  0  0  0  0  0
  -36.1430  -18.3010    7.9120 C   0  0  0  0  0  2  0  0  0  0  0  0
  -35.9510  -16.8010    8.1690 C   0  0  0  0  0  2  0  0  0  0  0  0
  -35.6900  -16.3270    9.6150 C   0  0  0  0  0  2  0  0  0  0  0  0
  -34.3900  -17.0170   10.0490 C   0  0  0  0  0  2  0  0  0  0  0  0
  -32.8920  -16.5940   11.8710 C   0  0  0  0  0  0  0  0  0  0  0  0
  -30.9370  -16.9160   13.3050 C   0  0  0  0  0  2  0  0  0  0  0  0
  -30.3570  -18.3170   13.0510 C   0  0  0  0  0  2  0  0  0  0  0  0
  -31.0260  -19.3410   13.9860 C   0  0  0  0  0  2  0  0  0  0  0  0
  -32.5770  -19.2430   13.9880 C   0  0  0  0  0  3  0  0  0  0  0  0
  -33.0670  -17.7800   14.1020 C   0  0  0  0  0  2  0  0  0  0  0  0
  -32.3880  -16.9880   13.0670 N   0  0  0  0  0  0  0  0  0  0  0  0
  -32.2310  -15.9220   11.0750 O   0  0  0  0  0  0  0  0  0  0  0  0
  -34.0720  -17.1000   11.4780 N   0  0  0  0  0  0  0  0  0  0  0  0
  -34.6060  -17.6960   12.0950 H   0  0  0  0  0  0  0  0  0  0  0  0
  -33.3770  -21.4610   15.0140 C   0  0  0  0  0  0  0  0  0  0  0  0
  -33.8670  -21.7720   16.2550 C   0  0  0  0  0  0  0  0  0  0  0  0
  -33.9110  -20.5420   16.9820 C   0  0  0  0  0  0  0  0  0  0  0  0
  -33.1550  -20.0930   15.0270 N   0  0  0  0  0  0  0  0  0  0  0  0
  -33.5330  -19.5350   16.2070 N   0  0  0  0  0  0  0  0  0  0  0  0
  -34.2390  -20.2760   18.3900 C   0  0  0  0  0  0  0  0  0  0  0  0
  -33.3360  -20.5920   19.4290 C   0  0  0  0  0  3  0  0  0  0  0  0
  -33.6630  -20.3090   20.7720 C   0  0  0  0  0  3  0  0  0  0  0  0
  -34.9010  -19.6990   21.0880 C   0  0  0  0  0  0  0  0  0  0  0  0
  -35.8050  -19.4060   20.0520 C   0  0  0  0  0  3  0  0  0  0  0  0
  -35.4800  -19.6940   18.7160 C   0  0  0  0  0  3  0  0  0  0  0  0
  -35.3170  -19.4120   22.3650 O   0  0  0  0  0  0  0  0  0  0  0  0
  -36.4020  -20.0380   22.9270 C   0  0  0  0  0  0  0  0  0  0  0  0
  -36.4460  -21.4390   23.1000 C   0  0  0  0  0  3  0  0  0  0  0  0
  -37.5500  -22.0340   23.7450 C   0  0  0  0  0  3  0  0  0  0  0  0
  -38.6040  -21.2320   24.2240 C   0  0  0  0  0  0  0  0  0  0  0  0
  -38.5580  -19.8370   24.0560 C   0  0  0  0  0  3  0  0  0  0  0  0
  -37.4590  -19.2420   23.4120 C   0  0  0  0  0  0  0  0  0  0  0  0
  -37.4100  -17.8950   23.2730 F   0  0  0  0  0  0  0  0  0  0  0  0
  -39.6610  -21.8010   24.8460 F   0  0  0  0  0  0  0  0  0  0  0  0
  -34.1840  -23.1460   16.7710 C   0  0  0  0  0  0  0  0  0  0  0  0
  -35.3810  -23.3320   17.3160 N   0  0  0  0  0  0  0  0  0  0  0  0
  -33.3880  -24.0760   16.6500 O   0  0  0  0  0  0  0  0  0  0  0  0
  -36.0430  -22.5740   17.3940 H   0  0  0  0  0  0  0  0  0  0  0  0
  -35.6400  -24.2460   17.6580 H   0  0  0  0  0  0  0  0  0  0  0  0
  -33.0820  -22.2250   13.8890 N   0  0  0  0  0  0  0  0  0  0  0  0
  -33.1860  -23.2350   13.8760 H   0  0  0  0  0  0  0  0  0  0  0  0
  -32.6700  -21.8590   13.0390 H   0  0  0  0  0  0  0  0  0  0  0  0
  -31.0240  -21.6240    6.5080 C   0  0  0  0  0  2  0  0  0  0  0  0
  -30.1680  -21.8730    7.7530 C   0  0  0  0  0  2  0  0  0  0  0  0
  -29.1080  -20.8030    7.9700 C   0  0  0  0  0  2  0  0  0  0  0  0
  -27.8500  -21.1820    7.4040 O   0  0  0  0  0  0  0  0  0  0  0  0
  -27.4650  -28.0880    8.8540 C   0  0  0  0  0  0  0  0  0  0  0  0
  -27.2220  -22.1620    8.1330 C   0  0  0  0  0  0  0  0  0  0  0  0
  -26.3400  -26.5910   10.4770 C   0  0  0  0  0  3  0  0  0  0  0  0
  -26.0570  -24.1680    9.7350 C   0  0  0  0  0  0  0  0  0  0  0  0
  -26.5510  -25.9310    8.0240 C   0  0  0  0  0  2  0  0  0  0  0  0
  -26.5930  -24.4940    8.4860 C   0  0  0  0  0  0  0  0  0  0  0  0
  -27.1640  -23.4980    7.6810 C   0  0  0  0  0  3  0  0  0  0  0  0
  -26.6630  -21.8350    9.3870 C   0  0  0  0  0  3  0  0  0  0  0  0
  -26.0850  -22.8370   10.1930 C   0  0  0  0  0  3  0  0  0  0  0  0
  -25.4640  -25.3090   10.5280 C   0  0  0  0  0  2  0  0  0  0  0  0
  -26.8390  -26.9030    9.0980 N   0  0  0  0  0  0  0  0  0  0  0  0
  -27.5870  -28.9420    9.7440 O   0  0  0  0  0  0  0  0  0  0  0  0
  -27.4720  -26.4520   11.5200 C   0  0  0  0  0  0  0  0  0  0  0  0
  -27.6920  -27.5200   12.3020 N   0  0  0  0  0  0  0  0  0  0  0  0
  -28.1020  -25.3980   11.6340 O   0  0  0  0  0  0  0  0  0  0  0  0
  -27.1340  -28.3470   12.1380 H   0  0  0  0  0  0  0  0  0  0  0  0
  -30.1890  -29.6650   13.7820 C   0  0  0  0  0  0  0  0  0  0  0  0
  -28.6740  -27.6100   13.3790 C   0  0  0  0  0  3  0  0  0  0  0  0
  -27.9970  -27.9740   14.7210 C   0  0  0  0  0  2  0  0  0  0  0  0
  -27.9780  -29.4800   14.9980 C   0  0  0  0  0  2  0  0  0  0  0  0
  -29.4030  -30.0390   15.0280 C   0  0  0  0  0  2  0  0  0  0  0  0
  -29.8370  -28.5340   12.9990 C   0  0  0  0  0  0  0  0  0  0  0  0
  -30.5780  -28.2520   11.8310 C   0  0  0  0  0  3  0  0  0  0  0  0
  -31.6530  -29.0750   11.4450 C   0  0  0  0  0  3  0  0  0  0  0  0
  -32.0080  -30.1830   12.2330 C   0  0  0  0  0  3  0  0  0  0  0  0
  -31.2800  -30.4740   13.4000 C   0  0  0  0  0  3  0  0  0  0  0  0
  -28.0330  -28.4420    7.4430 C   0  0  0  0  0  3  0  0  0  0  0  0
  -27.6060  -29.8110    7.1270 N   0  0  0  0  0  0  0  0  0  0  0  0
  -27.0600  -30.1850    5.9630 C   0  0  0  0  0  0  0  0  0  0  0  0
  -26.9260  -29.4150    5.0070 O   0  0  0  0  0  0  0  0  0  0  0  0
  -27.6300  -30.4750    7.8860 H   0  0  0  0  0  0  0  0  0  0  0  0
  -25.2570  -31.6890    5.0610 C   0  0  0  0  0  1  0  0  0  0  0  0
  -26.5830  -31.6440    5.8380 C   0  0  0  0  0  3  0  0  0  0  0  0
  -28.5070  -33.1390    6.1330 C   0  0  0  0  0  1  0  0  0  0  0  0
  -27.5710  -32.5330    5.1900 N   0  0  0  0  0  0  0  0  0  0  0  0
  -27.1070  -33.2800    4.6810 H   0  0  0  0  0  0  0  0  0  0  0  0
  -29.6020  -28.3080    7.3520 C   0  0  1  0  0  0  0  0  0  0  0  0
  -30.3580  -29.6030    7.7370 C   0  0  0  0  0  1  0  0  0  0  0  0
  -30.1070  -27.1730    8.2720 C   0  0  0  0  0  1  0  0  0  0  0  0
  -30.0110  -27.9230    5.9110 C   0  0  0  0  0  1  0  0  0  0  0  0
  2  1  1  0
  3  1  2  0
  4  6  2  0
  4  5  1  0
  5  2  2  0
  6  3  1  0
  7  5  1  0
  7  8  1  0
  8  9  1  0
  9 10  1  0
 10 11  1  0
 11 20  1  0
 12 18  1  0
 14 13  1  0
 14 15  1  0
 16 15  1  0
 16 17  1  0
 16 25  1  0
 18 13  1  0
 18 17  1  0
 19 12  2  0
 20 12  1  0
 20 21  1  0
 22 25  1  0
 22 23  2  0
 23 42  1  0
 23 24  1  0
 24 27  1  0
 25 26  1  0
 26 24  2  0
 27 32  2  0
 27 28  1  0
 28 29  2  0
 29 30  1  0
 30 33  1  0
 31 30  2  0
 32 31  1  0
 33 34  1  0
 34 35  2  0
 34 39  1  0
 35 36  1  0
 36 37  2  0
 37 41  1  0
 38 37  1  0
 39 38  2  0
 40 39  1  0
 42 43  1  0
 43 45  1  0
 43 46  1  0
 44 42  2  0
 47 22  1  0
 48 47  1  0
 49 47  1  0
 50  6  1  0
 50 51  1  0
 51 52  1  0
 53 52  1  0
 53 55  1  0
 54 64  1  0
 54 65  2  0
 55 61  1  0
 56 63  1  0
 56 66  1  0
 57 62  1  0
 57 63  1  0
 58 59  1  0
 58 64  1  0
 59 57  2  0
 60 55  2  0
 60 59  1  0
 61 62  2  0
 64 56  1  0
 66 68  2  0
 66 67  1  0
 69 67  1  0
 70 74  1  0
 71 67  1  0
 71 72  1  0
 72 73  1  0
 73 74  1  0
 75 71  1  0
 75 70  2  0
 76 75  1  0
 77 76  2  0
 77 78  1  0
 78 79  2  0
 79 70  1  0
 80 54  1  0
 81 80  1  0
 81 84  1  0
 82 81  1  0
 83 82  2  0
 86 85  1  0
 86 82  1  0
 88 86  1  0
 88 87  1  0
 89 88  1  0
 90 80  1  0
 90 91  1  1
 90 92  1  0
 93 90  1  0
M  ISO  4  12 100  20 100  52 101  53 101
M  END
>  <TORSDO>  (33) 
F 24

>  <SCORE>  (33) 
-4.234

>  <name>  (33) 
32

>  <ligand_id>  (33) 
32

>  <original_smiles>  (33) 
[H]c1c([H])c([H])c2c(c1[H])C([H])([H])C([H])([H])C([H])([H])C2([H])N([H])C(=O)C1([H])N(C(=O)C([H])(N([H])C(=O)C([H])(N([H])C([H])([H])[H])C([H])([H])[H])C(C([H])([H])[H])(C([H])([H])[H])C([H])([H])[H])C([H])([H])c2c([H])c(OC([H])([H])C([H])([H])C([H])([H])c3c([H])c([H])c([H])c(C([H])([H])C([H])([H])C([H])([H])C([H])([H])C([H])([H])N([H])C(=O)N4C([H])([H])C([H])([H])C([H])([H])C([H])(n5nc(-c6c([H])c([H])c(Oc7c([H])c([H])c(F)c([H])c7F)c([H])c6[H])c(C(=O)N([H])[H])c5N([H])[H])C4([H])[H])c3[H])c([H])c([H])c2C1([H])[H]

>  <smiles>  (33) 
[H]c1c([H])c([H])c2c(c1[H])C([H])([H])C([H])([H])C([H])([H])C2([H])N([H])C(=O)C1([H])N(C(=O)C([H])(N([H])C(=O)C([H])(N([H])C([H])([H])[H])C([H])([H])[H])C(C([H])([H])[H])(C([H])([H])[H])C([H])([H])[H])C([H])([H])c2c([H])c(OC([H])([H])C([H])([H])C([H])([H])c3c([H])c([H])c([H])c(C([H])([H])C([H])([H])C([H])([H])C([H])([H])C([H])([H])N([H])C(=O)N4C([H])([H])C([H])([H])C([H])([H])C([H])(n5nc(-c6c([H])c([H])c(Oc7c([H])c([H])c(F)c([H])c7F)c([H])c6[H])c(C(=O)N([H])[H])c5N([H])[H])C4([H])[H])c3[H])c([H])c([H])c2C1([H])[H]

$$$$
33:0:0
     RDKit          3D

 99108  0  0  1  0  0  0  0  0999 V2000
  -26.9120  -20.2740   19.5050 C   0  0  0  0  0  3  0  0  0  0  0  0
  -28.9050  -21.4140   18.6660 C   0  0  0  0  0  3  0  0  0  0  0  0
  -27.0950  -19.2570   18.5450 C   0  0  0  0  0  3  0  0  0  0  0  0
  -29.0720  -20.4140   17.6940 C   0  0  0  0  0  3  0  0  0  0  0  0
  -27.8420  -21.3330   19.5890 C   0  0  0  0  0  0  0  0  0  0  0  0
  -28.1970  -19.3070   17.6650 C   0  0  0  0  0  0  0  0  0  0  0  0
  -28.7480  -22.8050   21.3390 C   0  0  0  0  0  3  0  0  0  0  0  0
  -27.6990  -22.3750   20.6110 C   0  0  0  0  0  0  0  0  0  0  0  0
  -28.6450  -24.0010   22.2750 C   0  0  0  0  0  2  0  0  0  0  0  0
  -26.4270  -23.1800   20.6890 C   0  0  0  0  0  2  0  0  0  0  0  0
  -26.8030  -24.6590   20.6010 C   0  0  0  0  0  2  0  0  0  0  0  0
  -27.7850  -25.1810   21.7020 C   0  0  1  0  0  0  0  0  0  0  0  0
  -26.9320  -25.7650   22.8490 C   0  0  0  0  0  1  0  0  0  0  0  0
  -28.7630  -26.3090   21.1880 C   0  0  0  0  0  2  0  0  0  0  0  0
  -28.3920  -27.1020   20.0580 O   0  0  0  0  0  0  0  0  0  0  0  0
  -24.6470  -32.1040   23.5250 C   0  0  0  0  0  0  0  0  0  0  0  0
  -27.2590  -27.8650   20.1730 C   0  0  0  0  0  0  0  0  0  0  0  0
  -23.4210  -30.7700   21.8410 C   0  0  0  0  0  3  0  0  0  0  0  0
  -24.8620  -29.3360   20.3060 C   0  0  0  0  0  0  0  0  0  0  0  0
  -25.9410  -31.1630   21.6210 C   0  0  0  0  0  2  0  0  0  0  0  0
  -26.0210  -29.8230   20.9250 C   0  0  0  0  0  0  0  0  0  0  0  0
  -27.2220  -29.0800   20.8890 C   0  0  0  0  0  3  0  0  0  0  0  0
  -26.1120  -27.4420   19.4740 C   0  0  0  0  0  3  0  0  0  0  0  0
  -24.8980  -28.1370   19.5840 C   0  0  0  0  0  3  0  0  0  0  0  0
  -23.6070  -30.1700   20.4240 C   0  0  0  0  0  2  0  0  0  0  0  0
  -24.6870  -31.3620   22.3840 N   0  0  0  0  0  0  0  0  0  0  0  0
  -23.5750  -32.3390   24.1000 O   0  0  0  0  0  0  0  0  0  0  0  0
  -22.8080  -29.6860   22.7600 C   0  0  0  0  0  0  0  0  0  0  0  0
  -21.5040  -29.4260   22.5840 N   0  0  0  0  0  0  0  0  0  0  0  0
  -23.5000  -29.0860   23.5880 O   0  0  0  0  0  0  0  0  0  0  0  0
  -21.0030  -29.9710   21.8960 H   0  0  0  0  0  0  0  0  0  0  0  0
  -18.2090  -27.9760   22.8900 C   0  0  0  0  0  0  0  0  0  0  0  0
  -20.7190  -28.4290   23.3100 C   0  0  0  0  0  3  0  0  0  0  0  0
  -20.9630  -27.0090   22.7480 C   0  0  0  0  0  2  0  0  0  0  0  0
  -19.9500  -26.6010   21.6750 C   0  0  0  0  0  2  0  0  0  0  0  0
  -18.5270  -26.6410   22.2370 C   0  0  0  0  0  2  0  0  0  0  0  0
  -19.2410  -28.8220   23.3780 C   0  0  0  0  0  0  0  0  0  0  0  0
  -18.8920  -30.0670   23.9450 C   0  0  0  0  0  3  0  0  0  0  0  0
  -17.5450  -30.4680   24.0260 C   0  0  0  0  0  3  0  0  0  0  0  0
  -16.5280  -29.6220   23.5530 C   0  0  0  0  0  3  0  0  0  0  0  0
  -16.8600  -28.3790   22.9880 C   0  0  0  0  0  3  0  0  0  0  0  0
  -25.9410  -32.7160   24.1450 C   0  0  0  0  0  3  0  0  0  0  0  0
  -25.6580  -34.1250   24.4430 N   0  0  0  0  0  0  0  0  0  0  0  0
  -26.0140  -35.1540   23.6640 C   0  0  0  0  0  0  0  0  0  0  0  0
  -26.6920  -35.0190   22.6400 O   0  0  0  0  0  0  0  0  0  0  0  0
  -25.0560  -34.3090   25.2330 H   0  0  0  0  0  0  0  0  0  0  0  0
  -24.3070  -36.9630   23.2730 C   0  0  0  0  0  1  0  0  0  0  0  0
  -25.5450  -36.5600   24.0880 C   0  0  0  0  0  3  0  0  0  0  0  0
  -27.6980  -37.4320   24.8870 C   0  0  0  0  0  1  0  0  0  0  0  0
  -26.5920  -37.5940   23.9470 N   0  0  0  0  0  0  0  0  0  0  0  0
  -26.2000  -38.5220   24.0780 H   0  0  0  0  0  0  0  0  0  0  0  0
  -26.4330  -31.9550   25.4380 C   0  0  1  0  0  0  0  0  0  0  0  0
  -25.3210  -31.7340   26.4900 C   0  0  0  0  0  1  0  0  0  0  0  0
  -27.0190  -30.5700   25.0720 C   0  0  0  0  0  1  0  0  0  0  0  0
  -27.5700  -32.7560   26.1170 C   0  0  0  0  0  1  0  0  0  0  0  0
  -28.5260  -18.1200   16.7850 C   0  0  0  0  0  2  0  0  0  0  0  0
  -29.1740  -16.9600   17.5740 C   0  0  0  0  0  2  0  0  0  0  0  0
  -30.3980  -17.3270   18.4460 C   0  0  0  0  0  2  0  0  0  0  0  0
  -30.0570  -17.8320   19.8680 C   0  0  0  0  0  2  0  0  0  0  0  0
  -31.2430  -17.8290   20.8490 C   0  0  0  0  0  2  0  0  0  0  0  0
  -31.0830  -16.8450   22.0290 C   0  0  0  0  0  2  0  0  0  0  0  0
  -31.1250  -14.6750   20.7930 C   0  0  0  0  0  0  0  0  0  0  0  0
  -30.7560  -12.6660   19.4180 C   0  0  0  0  0  2  0  0  0  0  0  0
  -29.8550  -12.9910   18.2130 C   0  0  0  0  0  2  0  0  0  0  0  0
  -28.3680  -12.8640   18.5970 C   0  0  0  0  0  2  0  0  0  0  0  0
  -28.0210  -13.6200   19.9070 C   0  0  0  0  0  3  0  0  0  0  0  0
  -29.0320  -13.2800   21.0230 C   0  0  0  0  0  2  0  0  0  0  0  0
  -30.3890  -13.5690   20.5180 N   0  0  0  0  0  0  0  0  0  0  0  0
  -32.2200  -14.9090   20.2720 O   0  0  0  0  0  0  0  0  0  0  0  0
  -30.5570  -15.5370   21.6390 N   0  0  0  0  0  0  0  0  0  0  0  0
  -29.6530  -15.2740   22.0070 H   0  0  0  0  0  0  0  0  0  0  0  0
  -25.5990  -14.2350   20.5320 C   0  0  0  0  0  0  0  0  0  0  0  0
  -24.5100  -13.4640   20.8420 C   0  0  0  0  0  0  0  0  0  0  0  0
  -24.9610  -12.1100   20.7980 C   0  0  0  0  0  0  0  0  0  0  0  0
  -26.6460  -13.3510   20.3240 N   0  0  0  0  0  0  0  0  0  0  0  0
  -26.2610  -12.0650   20.5360 N   0  0  0  0  0  0  0  0  0  0  0  0
  -24.2180  -10.8500   20.9320 C   0  0  0  0  0  0  0  0  0  0  0  0
  -24.5950   -9.8670   21.8740 C   0  0  0  0  0  3  0  0  0  0  0  0
  -23.8550   -8.6710   21.9970 C   0  0  0  0  0  3  0  0  0  0  0  0
  -22.7240   -8.4490   21.1750 C   0  0  0  0  0  0  0  0  0  0  0  0
  -22.3680   -9.4210   20.2220 C   0  0  0  0  0  3  0  0  0  0  0  0
  -23.1090  -10.6080   20.0990 C   0  0  0  0  0  3  0  0  0  0  0  0
  -21.9610   -7.3060   21.2060 O   0  0  0  0  0  0  0  0  0  0  0  0
  -21.8080   -6.5740   22.3550 C   0  0  0  0  0  0  0  0  0  0  0  0
  -21.2730   -7.1410   23.5330 C   0  0  0  0  0  3  0  0  0  0  0  0
  -21.0660   -6.3350   24.6690 C   0  0  0  0  0  3  0  0  0  0  0  0
  -21.3840   -4.9650   24.6300 C   0  0  0  0  0  0  0  0  0  0  0  0
  -21.9120   -4.3980   23.4560 C   0  0  0  0  0  3  0  0  0  0  0  0
  -22.1200   -5.2010   22.3220 C   0  0  0  0  0  0  0  0  0  0  0  0
  -22.6080   -4.6450   21.1860 F   0  0  0  0  0  0  0  0  0  0  0  0
  -21.1790   -4.1880   25.7200 F   0  0  0  0  0  0  0  0  0  0  0  0
  -23.1080  -13.9470   21.0760 C   0  0  0  0  0  0  0  0  0  0  0  0
  -22.3500  -13.2460   21.9130 N   0  0  0  0  0  0  0  0  0  0  0  0
  -22.6920  -14.9800   20.5530 O   0  0  0  0  0  0  0  0  0  0  0  0
  -22.7000  -12.4100   22.3570 H   0  0  0  0  0  0  0  0  0  0  0  0
  -21.4080  -13.5520   22.1110 H   0  0  0  0  0  0  0  0  0  0  0  0
  -25.7820  -15.6070   20.3940 N   0  0  0  0  0  0  0  0  0  0  0  0
  -25.0200  -16.2680   20.4940 H   0  0  0  0  0  0  0  0  0  0  0  0
  -26.6530  -16.0440   20.1210 H   0  0  0  0  0  0  0  0  0  0  0  0
  1  5  1  0
  2  5  2  0
  3  1  2  0
  4  2  1  0
  5  8  1  0
  6  4  2  0
  6  3  1  0
  7  9  1  0
  8 10  1  0
  8  7  2  0
 11 10  1  0
 11 12  1  0
 12  9  1  0
 12 13  1  1
 14 12  1  0
 15 17  1  0
 15 14  1  0
 16 27  2  0
 17 22  1  0
 18 26  1  0
 18 28  1  0
 19 25  1  0
 19 21  1  0
 20 26  1  0
 21 20  1  0
 22 21  2  0
 23 24  1  0
 23 17  2  0
 24 19  2  0
 25 18  1  0
 26 16  1  0
 28 30  2  0
 29 28  1  0
 31 29  1  0
 32 41  2  0
 32 37  1  0
 33 29  1  0
 33 37  1  0
 34 33  1  0
 35 36  1  0
 35 34  1  0
 36 32  1  0
 37 38  2  0
 38 39  1  0
 40 39  2  0
 41 40  1  0
 42 16  1  0
 42 43  1  0
 42 52  1  0
 43 46  1  0
 44 48  1  0
 44 43  1  0
 45 44  2  0
 48 47  1  0
 50 51  1  0
 50 48  1  0
 50 49  1  0
 52 55  1  1
 52 53  1  0
 54 52  1  0
 56 57  1  0
 56  6  1  0
 57 58  1  0
 58 59  1  0
 59 60  1  0
 60 61  1  0
 62 70  1  0
 63 68  1  0
 64 65  1  0
 64 63  1  0
 66 65  1  0
 66 75  1  0
 66 67  1  0
 68 62  1  0
 68 67  1  0
 69 62  2  0
 70 71  1  0
 70 61  1  0
 72 73  2  0
 73 92  1  0
 74 73  1  0
 74 77  1  0
 75 72  1  0
 75 76  1  0
 76 74  2  0
 77 78  1  0
 78 79  2  0
 80 83  1  0
 80 79  1  0
 81 80  2  0
 82 81  1  0
 82 77  2  0
 83 84  1  0
 84 85  1  0
 85 86  2  0
 87 86  1  0
 87 91  1  0
 88 87  2  0
 89 84  2  0
 89 88  1  0
 90 89  1  0
 92 93  1  0
 93 96  1  0
 93 95  1  0
 94 92  2  0
 97 98  1  0
 97 72  1  0
 99 97  1  0
M  ISO  4  14 101  15 101  62 100  70 100
M  END
>  <TORSDO>  (34) 
F 24

>  <SCORE>  (34) 
-10.811

>  <name>  (34) 
33

>  <ligand_id>  (34) 
33

>  <original_smiles>  (34) 
[H]C1=C(c2c([H])c([H])c(C([H])([H])C([H])([H])C([H])([H])C([H])([H])C([H])([H])C([H])([H])N([H])C(=O)N3C([H])([H])C([H])([H])C([H])([H])C([H])(n4nc(-c5c([H])c([H])c(Oc6c([H])c([H])c(F)c([H])c6F)c([H])c5[H])c(C(=O)N([H])[H])c4N([H])[H])C3([H])[H])c([H])c2[H])C([H])([H])C([H])([H])C(C([H])([H])[H])(C([H])([H])Oc2c([H])c([H])c3c(c2[H])C([H])([H])N(C(=O)C([H])(N([H])C(=O)C([H])(N([H])C([H])([H])[H])C([H])([H])[H])C(C([H])([H])[H])(C([H])([H])[H])C([H])([H])[H])C([H])(C(=O)N([H])C2([H])c4c([H])c([H])c([H])c([H])c4C([H])([H])C([H])([H])C2([H])[H])C3([H])[H])C1([H])[H]

>  <smiles>  (34) 
[H]C1=C(c2c([H])c([H])c(C([H])([H])C([H])([H])C([H])([H])C([H])([H])C([H])([H])C([H])([H])N([H])C(=O)N3C([H])([H])C([H])([H])C([H])([H])C([H])(n4nc(-c5c([H])c([H])c(Oc6c([H])c([H])c(F)c([H])c6F)c([H])c5[H])c(C(=O)N([H])[H])c4N([H])[H])C3([H])[H])c([H])c2[H])C([H])([H])C([H])([H])C(C([H])([H])[H])(C([H])([H])Oc2c([H])c([H])c3c(c2[H])C([H])([H])N(C(=O)C([H])(N([H])C(=O)C([H])(N([H])C([H])([H])[H])C([H])([H])[H])C(C([H])([H])[H])(C([H])([H])[H])C([H])([H])[H])C([H])(C(=O)N([H])C2([H])c4c([H])c([H])c([H])c([H])c4C([H])([H])C([H])([H])C2([H])[H])C3([H])[H])C1([H])[H]

$$$$
34:0:0
     RDKit          3D

 89 96  0  0  1  0  0  0  0  0999 V2000
  -28.9110  -20.6020   21.1460 C   0  0  0  0  0  3  0  0  0  0  0  0
  -29.0790  -21.7220   20.4000 C   0  0  0  0  0  3  0  0  0  0  0  0
  -30.0030  -19.7600   21.7900 C   0  0  0  0  0  2  0  0  0  0  0  0
  -29.8360  -18.2830   21.3720 C   0  0  0  0  0  2  0  0  0  0  0  0
  -30.8410  -17.2830   21.9830 C   0  0  0  0  0  2  0  0  0  0  0  0
  -32.1500  -17.0640   21.1970 C   0  0  0  0  0  2  0  0  0  0  0  0
  -32.0420  -16.3080   19.8550 C   0  0  0  0  0  2  0  0  0  0  0  0
  -31.5140  -14.0160   19.1090 C   0  0  0  0  0  0  0  0  0  0  0  0
  -30.9880  -11.6740   18.5270 C   0  0  0  0  0  2  0  0  0  0  0  0
  -29.9060  -11.5850   17.4340 C   0  0  0  0  0  2  0  0  0  0  0  0
  -28.5030  -11.5950   18.0680 C   0  0  0  0  0  2  0  0  0  0  0  0
  -28.3240  -12.7540   19.0830 C   0  0  0  0  0  3  0  0  0  0  0  0
  -29.5040  -12.8290   20.0770 C   0  0  0  0  0  2  0  0  0  0  0  0
  -30.7620  -12.9010   19.3100 N   0  0  0  0  0  0  0  0  0  0  0  0
  -32.4250  -14.0660   18.2740 O   0  0  0  0  0  0  0  0  0  0  0  0
  -31.2650  -15.0650   19.9090 N   0  0  0  0  0  0  0  0  0  0  0  0
  -30.5170  -14.9850   20.5820 H   0  0  0  0  0  0  0  0  0  0  0  0
  -26.2170  -13.6600   20.2510 C   0  0  0  0  0  0  0  0  0  0  0  0
  -25.1100  -13.0310   20.7570 C   0  0  0  0  0  0  0  0  0  0  0  0
  -25.3230  -11.6330   20.5570 C   0  0  0  0  0  0  0  0  0  0  0  0
  -27.0420  -12.6520   19.7800 N   0  0  0  0  0  0  0  0  0  0  0  0
  -26.5160  -11.4220   20.0180 N   0  0  0  0  0  0  0  0  0  0  0  0
  -24.4330  -10.4870   20.7950 C   0  0  0  0  0  0  0  0  0  0  0  0
  -24.8020   -9.4370   21.6650 C   0  0  0  0  0  3  0  0  0  0  0  0
  -23.9240   -8.3560   21.8930 C   0  0  0  0  0  3  0  0  0  0  0  0
  -22.6630   -8.3190   21.2530 C   0  0  0  0  0  0  0  0  0  0  0  0
  -22.3100   -9.3550   20.3720 C   0  0  0  0  0  3  0  0  0  0  0  0
  -23.1870  -10.4290   20.1420 C   0  0  0  0  0  3  0  0  0  0  0  0
  -21.7570   -7.2960   21.3950 O   0  0  0  0  0  0  0  0  0  0  0  0
  -21.6340   -6.6010   22.5710 C   0  0  0  0  0  0  0  0  0  0  0  0
  -21.3150   -7.2450   23.7860 C   0  0  0  0  0  3  0  0  0  0  0  0
  -21.1300   -6.4840   24.9590 C   0  0  0  0  0  3  0  0  0  0  0  0
  -21.2500   -5.0820   24.9160 C   0  0  0  0  0  0  0  0  0  0  0  0
  -21.5610   -4.4390   23.7040 C   0  0  0  0  0  3  0  0  0  0  0  0
  -21.7460   -5.1970   22.5350 C   0  0  0  0  0  0  0  0  0  0  0  0
  -22.0260   -4.5710   21.3670 F   0  0  0  0  0  0  0  0  0  0  0  0
  -21.0640   -4.3500   26.0390 F   0  0  0  0  0  0  0  0  0  0  0  0
  -23.8830  -13.6930   21.3120 C   0  0  0  0  0  0  0  0  0  0  0  0
  -23.2300  -13.0600   22.2810 N   0  0  0  0  0  0  0  0  0  0  0  0
  -23.5210  -14.8020   20.9210 O   0  0  0  0  0  0  0  0  0  0  0  0
  -23.5390  -12.1600   22.6180 H   0  0  0  0  0  0  0  0  0  0  0  0
  -22.4110  -13.4810   22.6960 H   0  0  0  0  0  0  0  0  0  0  0  0
  -26.5810  -14.9980   20.1350 N   0  0  0  0  0  0  0  0  0  0  0  0
  -25.9660  -15.7540   20.4210 H   0  0  0  0  0  0  0  0  0  0  0  0
  -27.4420  -15.3230   19.7110 H   0  0  0  0  0  0  0  0  0  0  0  0
  -28.3390  -22.9450   19.8380 C   0  0  0  0  0  2  0  0  0  0  0  0
  -28.9420  -24.3480   20.1310 C   0  0  0  0  0  2  0  0  0  0  0  0
  -27.8930  -25.4100   19.7330 C   0  0  0  0  0  2  0  0  0  0  0  0
  -28.1810  -26.8020   19.9550 O   0  0  0  0  0  0  0  0  0  0  0  0
  -24.7420  -31.9640   23.4630 C   0  0  0  0  0  0  0  0  0  0  0  0
  -27.0640  -27.6270   19.9890 C   0  0  0  0  0  0  0  0  0  0  0  0
  -23.4090  -30.7130   21.8000 C   0  0  0  0  0  3  0  0  0  0  0  0
  -24.7390  -29.2390   20.2070 C   0  0  0  0  0  0  0  0  0  0  0  0
  -25.9420  -30.9900   21.5130 C   0  0  0  0  0  2  0  0  0  0  0  0
  -25.9460  -29.6670   20.7780 C   0  0  0  0  0  0  0  0  0  0  0  0
  -27.1080  -28.8630   20.6800 C   0  0  0  0  0  3  0  0  0  0  0  0
  -25.8380  -27.2520   19.3760 C   0  0  0  0  0  3  0  0  0  0  0  0
  -24.6790  -28.0300   19.5080 C   0  0  0  0  0  3  0  0  0  0  0  0
  -23.5350  -30.1380   20.3690 C   0  0  0  0  0  2  0  0  0  0  0  0
  -24.7190  -31.2320   22.3160 N   0  0  0  0  0  0  0  0  0  0  0  0
  -23.7000  -32.2370   24.0720 O   0  0  0  0  0  0  0  0  0  0  0  0
  -22.7730  -29.6460   22.7200 C   0  0  0  0  0  0  0  0  0  0  0  0
  -21.4600  -29.4160   22.5570 N   0  0  0  0  0  0  0  0  0  0  0  0
  -23.4600  -29.0300   23.5380 O   0  0  0  0  0  0  0  0  0  0  0  0
  -20.9610  -29.9700   21.8750 H   0  0  0  0  0  0  0  0  0  0  0  0
  -18.1500  -27.9980   22.8490 C   0  0  0  0  0  0  0  0  0  0  0  0
  -20.6580  -28.4410   23.2950 C   0  0  0  0  0  3  0  0  0  0  0  0
  -20.9020  -27.0070   22.7710 C   0  0  0  0  0  2  0  0  0  0  0  0
  -19.9030  -26.5840   21.6910 C   0  0  0  0  0  2  0  0  0  0  0  0
  -18.4680  -26.6480   22.2280 C   0  0  0  0  0  2  0  0  0  0  0  0
  -19.1790  -28.8460   23.3360 C   0  0  0  0  0  0  0  0  0  0  0  0
  -18.8320  -30.1070   23.8700 C   0  0  0  0  0  3  0  0  0  0  0  0
  -17.4880  -30.5190   23.9270 C   0  0  0  0  0  3  0  0  0  0  0  0
  -16.4720  -29.6690   23.4570 C   0  0  0  0  0  3  0  0  0  0  0  0
  -16.8030  -28.4110   22.9200 C   0  0  0  0  0  3  0  0  0  0  0  0
  -26.0790  -32.5150   24.0490 C   0  0  0  0  0  3  0  0  0  0  0  0
  -25.8490  -33.9130   24.4300 N   0  0  0  0  0  0  0  0  0  0  0  0
  -26.2050  -34.9700   23.6890 C   0  0  0  0  0  0  0  0  0  0  0  0
  -26.8360  -34.8670   22.6320 O   0  0  0  0  0  0  0  0  0  0  0  0
  -25.2890  -34.0710   25.2550 H   0  0  0  0  0  0  0  0  0  0  0  0
  -24.5560  -36.8550   23.4330 C   0  0  0  0  0  1  0  0  0  0  0  0
  -25.7940  -36.3640   24.2010 C   0  0  0  0  0  3  0  0  0  0  0  0
  -27.9890  -37.1240   25.0000 C   0  0  0  0  0  1  0  0  0  0  0  0
  -26.8720  -37.3710   24.0930 N   0  0  0  0  0  0  0  0  0  0  0  0
  -26.5110  -38.3030   24.2820 H   0  0  0  0  0  0  0  0  0  0  0  0
  -26.6110  -31.6790   25.2780 C   0  0  1  0  0  0  0  0  0  0  0  0
  -25.5440  -31.4340   26.3690 C   0  0  0  0  0  1  0  0  0  0  0  0
  -27.1420  -30.3010   24.8140 C   0  0  0  0  0  1  0  0  0  0  0  0
  -27.7990  -32.4160   25.9390 C   0  0  0  0  0  1  0  0  0  0  0  0
  1  3  1  0
  2  1  2  0
  4  3  1  0
  4  5  1  0
  6  5  1  0
  7 16  1  0
  7  6  1  0
  8 14  1  0
  8 16  1  0
  9 14  1  0
 10 11  1  0
 10  9  1  0
 12 11  1  0
 12 21  1  0
 12 13  1  0
 14 13  1  0
 15  8  2  0
 16 17  1  0
 18 19  2  0
 19 38  1  0
 20 19  1  0
 20 23  1  0
 21 22  1  0
 21 18  1  0
 22 20  2  0
 23 24  1  0
 24 25  2  0
 26 29  1  0
 26 25  1  0
 27 26  2  0
 28 27  1  0
 28 23  2  0
 29 30  1  0
 30 31  1  0
 31 32  2  0
 33 32  1  0
 33 37  1  0
 34 33  2  0
 35 30  2  0
 35 34  1  0
 36 35  1  0
 38 39  1  0
 39 41  1  0
 39 42  1  0
 40 38  2  0
 43 18  1  0
 43 44  1  0
 45 43  1  0
 46 47  1  0
 46  2  1  0
 48 49  1  0
 48 47  1  0
 49 51  1  0
 50 61  2  0
 51 56  1  0
 52 60  1  0
 52 62  1  0
 53 59  1  0
 53 55  1  0
 54 60  1  0
 55 54  1  0
 56 55  2  0
 57 58  1  0
 57 51  2  0
 58 53  2  0
 59 52  1  0
 60 50  1  0
 62 64  2  0
 63 62  1  0
 65 63  1  0
 66 75  2  0
 66 71  1  0
 67 63  1  0
 67 71  1  0
 68 67  1  0
 69 70  1  0
 69 68  1  0
 70 66  1  0
 71 72  2  0
 72 73  1  0
 74 73  2  0
 75 74  1  0
 76 50  1  0
 76 77  1  0
 76 86  1  0
 77 80  1  0
 78 82  1  0
 78 77  1  0
 79 78  2  0
 82 81  1  0
 84 82  1  0
 84 85  1  0
 84 83  1  0
 86 89  1  1
 86 87  1  0
 88 86  1  0
M  ISO  4   8 100  16 100  48 101  49 101
M  END
>  <TORSDO>  (35) 
F 24

>  <SCORE>  (35) 
-10.150

>  <name>  (35) 
34

>  <ligand_id>  (35) 
34

>  <original_smiles>  (35) 
[H]C(=C([H])C([H])([H])C([H])([H])C([H])([H])C([H])([H])C([H])([H])N([H])C(=O)N1C([H])([H])C([H])([H])C([H])([H])C([H])(n2nc(-c3c([H])c([H])c(Oc4c([H])c([H])c(F)c([H])c4F)c([H])c3[H])c(C(=O)N([H])[H])c2N([H])[H])C1([H])[H])C([H])([H])C([H])([H])C([H])([H])Oc1c([H])c([H])c2c(c1[H])C([H])([H])N(C(=O)C([H])(N([H])C(=O)C([H])(N([H])C([H])([H])[H])C([H])([H])[H])C(C([H])([H])[H])(C([H])([H])[H])C([H])([H])[H])C([H])(C(=O)N([H])C1([H])c3c([H])c([H])c([H])c([H])c3C([H])([H])C([H])([H])C1([H])[H])C2([H])[H]

>  <smiles>  (35) 
[H]C(=C([H])C([H])([H])C([H])([H])C([H])([H])C([H])([H])C([H])([H])N([H])C(=O)N1C([H])([H])C([H])([H])C([H])([H])C([H])(n2nc(-c3c([H])c([H])c(Oc4c([H])c([H])c(F)c([H])c4F)c([H])c3[H])c(C(=O)N([H])[H])c2N([H])[H])C1([H])[H])C([H])([H])C([H])([H])C([H])([H])Oc1c([H])c([H])c2c(c1[H])C([H])([H])N(C(=O)C([H])(N([H])C(=O)C([H])(N([H])C([H])([H])[H])C([H])([H])[H])C(C([H])([H])[H])(C([H])([H])[H])C([H])([H])[H])C([H])(C(=O)N([H])C1([H])c3c([H])c([H])c([H])c([H])c3C([H])([H])C([H])([H])C1([H])[H])C2([H])[H]

$$$$
35:0:0
     RDKit          3D

 95103  0  0  1  0  0  0  0  0999 V2000
  -24.8260  -15.3430   22.0000 C   0  0  0  0  0  3  0  0  0  0  0  0
  -24.0650  -16.5910   20.7190 C   0  0  0  0  0  3  0  0  0  0  0  0
  -26.5740  -14.6570   21.6680 C   0  0  0  0  0  2  0  0  0  0  0  0
  -26.6640  -16.4270   18.9120 C   0  0  0  0  0  2  0  0  0  0  0  0
  -25.0790  -17.2800   19.2590 C   0  0  0  0  0  3  0  0  0  0  0  0
  -27.5080  -15.2800   20.1190 C   0  0  0  0  0  3  0  0  0  0  0  0
  -25.2120  -19.0510   19.0480 C   0  0  0  0  0  0  0  0  0  0  0  0
  -26.1040  -20.2370   19.5400 N   0  0  0  0  0  0  0  0  0  0  0  0
  -24.3510  -19.4800   18.2730 O   0  0  0  0  0  0  0  0  0  0  0  0
  -26.8190  -19.8610   20.1550 H   0  0  0  0  0  0  0  0  0  0  0  0
  -26.3460  -21.9920   19.2640 C   0  0  0  0  0  2  0  0  0  0  0  0
  -26.7990  -23.6960   20.1370 C   0  0  0  0  0  2  0  0  0  0  0  0
  -27.5510  -25.3060   20.0000 O   0  0  0  0  0  0  0  0  0  0  0  0
  -24.7220  -31.6880   23.3360 C   0  0  0  0  0  0  0  0  0  0  0  0
  -26.9360  -26.7020   20.0620 C   0  0  0  0  0  0  0  0  0  0  0  0
  -23.5670  -30.4460   21.5770 C   0  0  0  0  0  3  0  0  0  0  0  0
  -24.9820  -28.9190   20.0520 C   0  0  0  0  0  0  0  0  0  0  0  0
  -26.1500  -30.4940   21.5620 C   0  0  0  0  0  2  0  0  0  0  0  0
  -26.1550  -29.1190   20.7920 C   0  0  0  0  0  0  0  0  0  0  0  0
  -27.1560  -28.0180   20.7810 C   0  0  0  0  0  3  0  0  0  0  0  0
  -25.8140  -26.7580   19.2480 C   0  0  0  0  0  3  0  0  0  0  0  0
  -24.8600  -27.7840   19.2520 C   0  0  0  0  0  3  0  0  0  0  0  0
  -23.8260  -29.9070   20.1500 C   0  0  0  0  0  2  0  0  0  0  0  0
  -24.8390  -30.9090   22.2110 N   0  0  0  0  0  0  0  0  0  0  0  0
  -23.6160  -31.9710   23.8250 O   0  0  0  0  0  0  0  0  0  0  0  0
  -22.8350  -29.3740   22.4260 C   0  0  0  0  0  0  0  0  0  0  0  0
  -21.5020  -29.2680   22.2810 N   0  0  0  0  0  0  0  0  0  0  0  0
  -23.4730  -28.6540   23.1960 O   0  0  0  0  0  0  0  0  0  0  0  0
  -21.0430  -29.9000   21.6410 H   0  0  0  0  0  0  0  0  0  0  0  0
  -18.0730  -28.1510   22.6870 C   0  0  0  0  0  0  0  0  0  0  0  0
  -20.6420  -28.2920   22.9600 C   0  0  0  0  0  3  0  0  0  0  0  0
  -20.6870  -26.9190   22.2470 C   0  0  0  0  0  2  0  0  0  0  0  0
  -19.5700  -26.7400   21.2150 C   0  0  0  0  0  2  0  0  0  0  0  0
  -18.1950  -26.8720   21.8770 C   0  0  0  0  0  2  0  0  0  0  0  0
  -19.2210  -28.8260   23.1820 C   0  0  0  0  0  0  0  0  0  0  0  0
  -19.0470  -30.0270   23.9020 C   0  0  0  0  0  3  0  0  0  0  0  0
  -17.7600  -30.5500   24.1320 C   0  0  0  0  0  3  0  0  0  0  0  0
  -16.6280  -29.8690   23.6490 C   0  0  0  0  0  3  0  0  0  0  0  0
  -16.7860  -28.6720   22.9320 C   0  0  0  0  0  3  0  0  0  0  0  0
  -25.9640  -32.2850   24.0560 C   0  0  0  0  0  3  0  0  0  0  0  0
  -25.6500  -33.6770   24.4360 N   0  0  0  0  0  0  0  0  0  0  0  0
  -26.0480  -34.7690   23.7730 C   0  0  0  0  0  0  0  0  0  0  0  0
  -26.7820  -34.7140   22.7850 O   0  0  0  0  0  0  0  0  0  0  0  0
  -24.9990  -33.7930   25.1980 H   0  0  0  0  0  0  0  0  0  0  0  0
  -24.3870  -36.6370   23.4200 C   0  0  0  0  0  1  0  0  0  0  0  0
  -25.5570  -36.1380   24.2860 C   0  0  0  0  0  3  0  0  0  0  0  0
  -27.6430  -36.9200   25.3290 C   0  0  0  0  0  1  0  0  0  0  0  0
  -26.6150  -37.1730   24.3230 N   0  0  0  0  0  0  0  0  0  0  0  0
  -26.2150  -38.0920   24.5040 H   0  0  0  0  0  0  0  0  0  0  0  0
  -26.3820  -31.4640   25.3400 C   0  0  1  0  0  0  0  0  0  0  0  0
  -25.2140  -31.2370   26.3310 C   0  0  0  0  0  1  0  0  0  0  0  0
  -26.9450  -30.0770   24.9550 C   0  0  0  0  0  1  0  0  0  0  0  0
  -27.5180  -32.2040   26.0870 C   0  0  0  0  0  1  0  0  0  0  0  0
  -28.9430  -15.8130   20.1190 C   0  0  0  0  0  2  0  0  0  0  0  0
  -29.9040  -15.8200   21.3540 C   0  0  0  0  0  2  0  0  0  0  0  0
  -31.3450  -16.2050   20.9090 C   0  0  0  0  0  2  0  0  0  0  0  0
  -32.2970  -14.9660   20.8010 C   0  0  0  0  0  2  0  0  0  0  0  0
  -31.3080  -12.9330   19.5850 C   0  0  0  0  0  0  0  0  0  0  0  0
  -30.5780  -10.6750   18.9890 C   0  0  0  0  0  2  0  0  0  0  0  0
  -29.4820  -10.5040   17.9320 C   0  0  0  0  0  2  0  0  0  0  0  0
  -28.0580  -10.6690   18.5260 C   0  0  0  0  0  2  0  0  0  0  0  0
  -27.9280  -12.0050   19.3130 C   0  0  0  0  0  3  0  0  0  0  0  0
  -29.0880  -12.0310   20.4030 C   0  0  0  0  0  2  0  0  0  0  0  0
  -30.4030  -11.9240   19.7420 N   0  0  0  0  0  0  0  0  0  0  0  0
  -31.8690  -13.1450   18.5110 O   0  0  0  0  0  0  0  0  0  0  0  0
  -31.5980  -13.6480   20.7070 N   0  0  0  0  0  0  0  0  0  0  0  0
  -31.0170  -13.3890   21.4970 H   0  0  0  0  0  0  0  0  0  0  0  0
  -25.7540  -13.6540   20.1700 C   0  0  0  0  0  2  0  0  0  0  0  0
  -24.5170  -12.7110   20.3360 C   0  0  0  0  0  0  0  0  0  0  0  0
  -24.7180  -11.2410   20.4220 C   0  0  0  0  0  0  0  0  0  0  0  0
  -26.5080  -12.3250   19.7880 N   0  0  0  0  0  0  0  0  0  0  0  0
  -25.9500  -11.0760   20.0970 N   0  0  0  0  0  2  0  0  0  0  0  0
  -23.8240   -9.9670   20.7640 C   0  0  0  0  0  0  0  0  0  0  0  0
  -24.1850   -8.9130   21.6800 C   0  0  0  0  0  3  0  0  0  0  0  0
  -23.3320   -7.7920   21.9870 C   0  0  0  0  0  3  0  0  0  0  0  0
  -22.0530   -7.6600   21.3810 C   0  0  0  0  0  0  0  0  0  0  0  0
  -21.6960   -8.6660   20.4590 C   0  0  0  0  0  3  0  0  0  0  0  0
  -22.5500   -9.7640   20.1670 C   0  0  0  0  0  3  0  0  0  0  0  0
  -21.1700   -6.6000   21.5670 O   0  0  0  0  0  0  0  0  0  0  0  0
  -21.1790   -5.7750   22.6720 C   0  0  0  0  0  0  0  0  0  0  0  0
  -20.9280   -6.2640   23.9760 C   0  0  0  0  0  3  0  0  0  0  0  0
  -20.8830   -5.3790   25.0750 C   0  0  0  0  0  3  0  0  0  0  0  0
  -21.0790   -3.9990   24.8840 C   0  0  0  0  0  0  0  0  0  0  0  0
  -21.3050   -3.5000   23.5920 C   0  0  0  0  0  3  0  0  0  0  0  0
  -21.3460   -4.3780   22.4920 C   0  0  0  0  0  0  0  0  0  0  0  0
  -21.5420   -3.8740   21.2510 F   0  0  0  0  0  0  0  0  0  0  0  0
  -21.0440   -3.1510   25.9420 F   0  0  0  0  0  0  0  0  0  0  0  0
  -23.0490  -13.0550   20.6530 C   0  0  0  0  0  0  0  0  0  0  0  0
  -22.4340  -12.5060   21.7110 N   0  0  0  0  0  0  0  0  0  0  0  0
  -22.4290  -13.8710   19.9920 O   0  0  0  0  0  0  0  0  0  0  0  0
  -22.9030  -11.8540   22.3310 H   0  0  0  0  0  0  0  0  0  0  0  0
  -21.4850  -12.7700   21.9440 H   0  0  0  0  0  0  0  0  0  0  0  0
  -26.5720  -15.8940   21.2880 N   0  0  0  0  0  4  0  0  0  0  0  0
  -25.9500  -16.3030   21.9780 H   0  0  0  0  0  0  0  0  0  0  0  0
  -27.5510  -15.9820   21.5270 H   0  0  0  0  0  0  0  0  0  0  0  0
  2  1  2  0
  3  1  1  0
  4  5  1  0
  4  6  1  0
  5  7  1  0
  5  2  1  0
  6 54  1  0
  6 93  1  0
  7  8  1  0
  8 10  1  0
  9  7  2  0
 11  8  1  0
 11 12  1  0
 13 15  1  0
 13 12  1  0
 14 25  2  0
 15 20  1  0
 16 24  1  0
 16 26  1  0
 17 23  1  0
 17 19  1  0
 18 24  1  0
 19 18  1  0
 20 19  2  0
 21 22  1  0
 21 15  2  0
 22 17  2  0
 23 16  1  0
 24 14  1  0
 26 28  2  0
 27 26  1  0
 29 27  1  0
 30 39  2  0
 30 35  1  0
 31 27  1  0
 31 35  1  0
 32 31  1  0
 33 34  1  0
 33 32  1  0
 34 30  1  0
 35 36  2  0
 36 37  1  0
 38 37  2  0
 39 38  1  0
 40 14  1  0
 40 41  1  0
 40 50  1  0
 41 44  1  0
 42 46  1  0
 42 41  1  0
 43 42  2  0
 46 45  1  0
 46 48  1  0
 48 49  1  0
 48 47  1  0
 50 53  1  1
 50 51  1  0
 52 50  1  0
 54 55  1  0
 56 55  1  0
 57 56  1  0
 58 64  1  0
 58 66  1  0
 59 64  1  0
 60 61  1  0
 60 59  1  0
 62 61  1  0
 62 71  1  0
 62 63  1  0
 64 63  1  0
 65 58  2  0
 66 57  1  0
 66 67  1  0
 68 69  1  0
 69 70  2  0
 69 88  1  0
 70 73  1  0
 71 72  1  0
 71 68  1  0
 72 70  1  0
 73 74  1  0
 74 75  2  0
 76 79  1  0
 76 75  1  0
 77 76  2  0
 78 77  1  0
 78 73  2  0
 79 80  1  0
 80 81  1  0
 81 82  2  0
 83 82  1  0
 83 87  1  0
 84 83  2  0
 85 80  2  0
 85 84  1  0
 86 85  1  0
 88 89  1  0
 89 92  1  0
 89 91  1  0
 90 88  2  0
 93 95  1  0
 93  3  1  0
 93 94  1  0
M  ISO  4  12 101  13 101  58 100  66 100
M  END
>  <TORSDO>  (36) 
F 23

>  <SCORE>  (36) 
-3.583

>  <name>  (36) 
35

>  <ligand_id>  (36) 
35

>  <original_smiles>  (36) 
[H]c1c([H])c(C(=O)N([H])C([H])([H])C([H])([H])Oc2c([H])c([H])c3c(c2[H])C([H])([H])N(C(=O)C([H])(N([H])C(=O)C([H])(N([H])C([H])([H])[H])C([H])([H])[H])C(C([H])([H])[H])(C([H])([H])[H])C([H])([H])[H])C([H])(C(=O)N([H])C2([H])c4c([H])c([H])c([H])c([H])c4C([H])([H])C([H])([H])C2([H])[H])C3([H])[H])c([H])c(C([H])([H])C([H])([H])C([H])([H])C([H])([H])N([H])C(=O)N2C([H])([H])C([H])([H])C([H])([H])C([H])(n3nc(-c4c([H])c([H])c(Oc5c([H])c([H])c(F)c([H])c5F)c([H])c4[H])c(C(=O)N([H])[H])c3N([H])[H])C2([H])[H])c1[H]

>  <smiles>  (36) 
[H]c1c([H])c(C(=O)N([H])C([H])([H])C([H])([H])Oc2c([H])c([H])c3c(c2[H])C([H])([H])N(C(=O)C([H])(N([H])C(=O)C([H])(N([H])C([H])([H])[H])C([H])([H])[H])C(C([H])([H])[H])(C([H])([H])[H])C([H])([H])[H])C([H])(C(=O)N([H])C2([H])c4c([H])c([H])c([H])c([H])c4C([H])([H])C([H])([H])C2([H])[H])C3([H])[H])c([H])c(C([H])([H])C([H])([H])C([H])([H])C([H])([H])N([H])C(=O)N2C([H])([H])C([H])([H])C([H])([H])C([H])(n3nc(-c4c([H])c([H])c(Oc5c([H])c([H])c(F)c([H])c5F)c([H])c4[H])c(C(=O)N([H])[H])c3N([H])[H])C2([H])[H])c1[H]

$$$$
36:0:0
     RDKit          3D

 92 99  0  0  1  0  0  0  0  0999 V2000
  -30.5860  -23.3210   23.9950 C   0  0  0  0  0  0  0  0  0  0  0  0
  -29.4560  -23.9290   23.6090 N   0  0  0  0  0  0  0  0  0  0  0  0
  -31.6790  -23.8890   23.9950 O   0  0  0  0  0  0  0  0  0  0  0  0
  -28.5970  -23.3990   23.6790 H   0  0  0  0  0  0  0  0  0  0  0  0
  -29.3710  -25.2630   23.0170 C   0  0  0  0  0  2  0  0  0  0  0  0
  -28.4490  -25.2560   21.7860 C   0  0  0  0  0  2  0  0  0  0  0  0
  -28.7080  -26.4450   20.8510 C   0  0  0  0  0  2  0  0  0  0  0  0
  -27.7240  -26.4570   19.8140 O   0  0  0  0  0  0  0  0  0  0  0  0
  -24.2080  -31.6890   23.1840 C   0  0  0  0  0  0  0  0  0  0  0  0
  -26.6090  -27.2520   19.9490 C   0  0  0  0  0  0  0  0  0  0  0  0
  -22.8970  -30.3750   21.5440 C   0  0  0  0  0  3  0  0  0  0  0  0
  -24.2500  -28.8100   20.0530 C   0  0  0  0  0  0  0  0  0  0  0  0
  -25.4200  -30.6520   21.2770 C   0  0  0  0  0  2  0  0  0  0  0  0
  -25.4360  -29.2900   20.6200 C   0  0  0  0  0  0  0  0  0  0  0  0
  -26.6150  -28.5240   20.5680 C   0  0  0  0  0  3  0  0  0  0  0  0
  -25.4080  -26.7810   19.3760 C   0  0  0  0  0  3  0  0  0  0  0  0
  -24.2270  -27.5490   19.4300 C   0  0  0  0  0  3  0  0  0  0  0  0
  -23.0400  -29.7120   20.1470 C   0  0  0  0  0  2  0  0  0  0  0  0
  -24.1940  -30.9170   22.0620 N   0  0  0  0  0  0  0  0  0  0  0  0
  -23.1560  -31.9920   23.7650 O   0  0  0  0  0  0  0  0  0  0  0  0
  -22.2310  -29.3610   22.5000 C   0  0  0  0  0  0  0  0  0  0  0  0
  -20.9100  -29.1790   22.3510 N   0  0  0  0  0  0  0  0  0  0  0  0
  -22.9020  -28.7400   23.3290 O   0  0  0  0  0  0  0  0  0  0  0  0
  -20.4310  -29.7340   21.6550 H   0  0  0  0  0  0  0  0  0  0  0  0
  -17.5400  -27.9440   22.7470 C   0  0  0  0  0  0  0  0  0  0  0  0
  -20.0800  -28.2470   23.1110 C   0  0  0  0  0  3  0  0  0  0  0  0
  -20.2260  -26.8040   22.5730 C   0  0  0  0  0  2  0  0  0  0  0  0
  -19.1710  -26.4430   21.5230 C   0  0  0  0  0  2  0  0  0  0  0  0
  -17.7630  -26.5830   22.1090 C   0  0  0  0  0  2  0  0  0  0  0  0
  -18.6310  -28.7320   23.2030 C   0  0  0  0  0  0  0  0  0  0  0  0
  -18.3740  -30.0070   23.7530 C   0  0  0  0  0  3  0  0  0  0  0  0
  -17.0580  -30.4950   23.8520 C   0  0  0  0  0  3  0  0  0  0  0  0
  -15.9810  -29.7070   23.4140 C   0  0  0  0  0  3  0  0  0  0  0  0
  -16.2230  -28.4320   22.8700 C   0  0  0  0  0  3  0  0  0  0  0  0
  -25.5380  -32.2490   23.7820 C   0  0  0  0  0  3  0  0  0  0  0  0
  -26.0470  -31.4370   25.0360 C   0  0  1  0  0  0  0  0  0  0  0  0
  -24.9620  -31.2130   26.1150 C   0  0  0  0  0  1  0  0  0  0  0  0
  -26.5810  -30.0510   24.6050 C   0  0  0  0  0  1  0  0  0  0  0  0
  -27.2290  -32.1830   25.6980 C   0  0  0  0  0  1  0  0  0  0  0  0
  -25.3090  -33.6560   24.1280 N   0  0  0  0  0  0  0  0  0  0  0  0
  -25.7180  -34.6970   23.3900 C   0  0  0  0  0  0  0  0  0  0  0  0
  -26.4000  -34.5680   22.3690 O   0  0  0  0  0  0  0  0  0  0  0  0
  -24.7130  -33.8350   24.9230 H   0  0  0  0  0  0  0  0  0  0  0  0
  -24.1140  -36.5980   23.0210 C   0  0  0  0  0  1  0  0  0  0  0  0
  -25.3040  -36.1050   23.8580 C   0  0  0  0  0  3  0  0  0  0  0  0
  -27.4650  -36.8420   24.7620 C   0  0  0  0  0  1  0  0  0  0  0  0
  -26.4020  -37.0950   23.7930 N   0  0  0  0  0  0  0  0  0  0  0  0
  -26.0490  -38.0350   23.9470 H   0  0  0  0  0  0  0  0  0  0  0  0
  -30.4680  -21.8480   24.4160 C   0  0  0  0  0  2  0  0  0  0  0  0
  -32.7080  -20.8820   23.6280 C   0  0  0  0  0  1  0  0  0  0  0  0
  -31.1780  -20.8630   23.4460 C   0  0  0  0  0  3  0  0  0  0  0  0
  -30.6060  -19.4340   23.5730 C   0  0  0  0  0  2  0  0  0  0  0  0
  -31.0340  -18.4940   22.4330 C   0  0  0  0  0  2  0  0  0  0  0  0
  -30.2940  -17.1490   22.4770 C   0  0  0  0  0  2  0  0  0  0  0  0
  -30.7540  -16.1870   21.3710 C   0  0  0  0  0  2  0  0  0  0  0  0
  -29.9650  -14.8610   21.3760 C   0  0  0  0  0  2  0  0  0  0  0  0
  -30.4510  -13.8420   20.3310 C   0  0  0  0  0  0  0  0  0  0  0  0
  -30.1340  -11.6880   19.1610 C   0  0  0  0  0  2  0  0  0  0  0  0
  -29.1260  -11.8230   18.0050 C   0  0  0  0  0  2  0  0  0  0  0  0
  -27.6840  -11.6400   18.5140 C   0  0  0  0  0  2  0  0  0  0  0  0
  -27.3770  -12.5130   19.7590 C   0  0  0  0  0  3  0  0  0  0  0  0
  -28.4860  -12.3550   20.8230 C   0  0  0  0  0  2  0  0  0  0  0  0
  -29.7790  -12.6710   20.1920 N   0  0  0  0  0  0  0  0  0  0  0  0
  -31.4390  -14.1210   19.6440 O   0  0  0  0  0  0  0  0  0  0  0  0
  -25.0070  -13.0730   20.6040 C   0  0  0  0  0  0  0  0  0  0  0  0
  -23.9730  -12.2770   21.0190 C   0  0  0  0  0  0  0  0  0  0  0  0
  -24.4550  -10.9340   20.9430 C   0  0  0  0  0  0  0  0  0  0  0  0
  -26.0540  -12.2130   20.3070 N   0  0  0  0  0  0  0  0  0  0  0  0
  -25.7260  -10.9210   20.5630 N   0  0  0  0  0  0  0  0  0  0  0  0
  -23.7630   -9.6560   21.1550 C   0  0  0  0  0  0  0  0  0  0  0  0
  -24.2120   -8.7240   22.1150 C   0  0  0  0  0  3  0  0  0  0  0  0
  -23.5180   -7.5090   22.3120 C   0  0  0  0  0  3  0  0  0  0  0  0
  -22.3610   -7.2210   21.5500 C   0  0  0  0  0  0  0  0  0  0  0  0
  -21.9330   -8.1430   20.5790 C   0  0  0  0  0  3  0  0  0  0  0  0
  -22.6270   -9.3480   20.3800 C   0  0  0  0  0  3  0  0  0  0  0  0
  -21.6390   -6.0570   21.6550 O   0  0  0  0  0  0  0  0  0  0  0  0
  -21.5480   -5.3710   22.8400 C   0  0  0  0  0  0  0  0  0  0  0  0
  -21.0120   -5.9640   24.0050 C   0  0  0  0  0  3  0  0  0  0  0  0
  -20.8720   -5.2020   25.1820 C   0  0  0  0  0  3  0  0  0  0  0  0
  -21.2590   -3.8480   25.1950 C   0  0  0  0  0  0  0  0  0  0  0  0
  -21.7870   -3.2550   24.0350 C   0  0  0  0  0  3  0  0  0  0  0  0
  -21.9280   -4.0150   22.8600 C   0  0  0  0  0  0  0  0  0  0  0  0
  -22.4190   -3.4330   21.7390 F   0  0  0  0  0  0  0  0  0  0  0  0
  -21.1170   -3.1130   26.3230 F   0  0  0  0  0  0  0  0  0  0  0  0
  -22.5850  -12.7240   21.3770 C   0  0  0  0  0  0  0  0  0  0  0  0
  -21.9200  -12.0040   22.2740 N   0  0  0  0  0  0  0  0  0  0  0  0
  -22.1000  -13.7480   20.8970 O   0  0  0  0  0  0  0  0  0  0  0  0
  -22.3260  -11.1740   22.6820 H   0  0  0  0  0  0  0  0  0  0  0  0
  -20.9930  -12.2850   22.5560 H   0  0  0  0  0  0  0  0  0  0  0  0
  -25.1370  -14.4490   20.4350 N   0  0  0  0  0  0  0  0  0  0  0  0
  -24.3660  -15.0880   20.5970 H   0  0  0  0  0  0  0  0  0  0  0  0
  -25.9690  -14.9100   20.0880 H   0  0  0  0  0  0  0  0  0  0  0  0
  1  3  2  0
  1 49  1  0
  2  4  1  0
  2  1  1  0
  5  2  1  0
  6  5  1  0
  7  6  1  0
  8 10  1  0
  8  7  1  0
  9 20  2  0
 10 15  1  0
 11 19  1  0
 11 21  1  0
 12 18  1  0
 12 14  1  0
 13 19  1  0
 14 13  1  0
 15 14  2  0
 16 17  1  0
 16 10  2  0
 17 12  2  0
 18 11  1  0
 19  9  1  0
 21 23  2  0
 22 21  1  0
 24 22  1  0
 25 34  2  0
 25 30  1  0
 26 22  1  0
 26 30  1  0
 27 26  1  0
 28 29  1  0
 28 27  1  0
 29 25  1  0
 30 31  2  0
 31 32  1  0
 33 32  2  0
 34 33  1  0
 35  9  1  0
 35 40  1  0
 35 36  1  0
 36 39  1  1
 36 37  1  0
 38 36  1  0
 40 43  1  0
 41 45  1  0
 41 40  1  0
 42 41  2  0
 45 44  1  0
 47 45  1  0
 47 48  1  0
 47 46  1  0
 51 52  1  0
 51 50  1  0
 51 49  1  0
 53 54  1  0
 53 52  1  0
 55 56  1  0
 55 54  1  0
 57 56  1  0
 58 63  1  0
 59 60  1  0
 59 58  1  0
 61 60  1  0
 61 68  1  0
 61 62  1  0
 63 57  1  0
 63 62  1  0
 64 57  2  0
 65 66  2  0
 66 85  1  0
 67 66  1  0
 67 70  1  0
 68 69  1  0
 68 65  1  0
 69 67  2  0
 70 71  1  0
 71 72  2  0
 73 76  1  0
 73 72  1  0
 74 73  2  0
 75 74  1  0
 75 70  2  0
 76 77  1  0
 77 82  2  0
 77 78  1  0
 78 79  2  0
 79 80  1  0
 80 84  1  0
 81 80  2  0
 82 81  1  0
 83 82  1  0
 85 86  1  0
 86 89  1  0
 86 88  1  0
 87 85  2  0
 90 91  1  0
 90 65  1  0
 92 90  1  0
M  ISO  4   7 101   8 101  56 100  57 100
M  END
>  <TORSDO>  (37) 
F 26

>  <SCORE>  (37) 
-6.084

>  <name>  (37) 
36

>  <ligand_id>  (37) 
36

>  <original_smiles>  (37) 
[H]c1c([H])c([H])c2c(c1[H])C([H])([H])C([H])([H])C([H])([H])C2([H])N([H])C(=O)C1([H])N(C(=O)C([H])(N([H])C(=O)C([H])(N([H])C([H])([H])[H])C([H])([H])[H])C(C([H])([H])[H])(C([H])([H])[H])C([H])([H])[H])C([H])([H])c2c([H])c(OC([H])([H])C([H])([H])C([H])([H])N([H])C(=O)C([H])([H])C([H])(C([H])([H])[H])C([H])([H])C([H])([H])C([H])([H])C([H])([H])C([H])([H])C(=O)N3C([H])([H])C([H])([H])C([H])([H])C([H])(n4nc(-c5c([H])c([H])c(Oc6c([H])c([H])c(F)c([H])c6F)c([H])c5[H])c(C(=O)N([H])[H])c4N([H])[H])C3([H])[H])c([H])c([H])c2C1([H])[H]

>  <smiles>  (37) 
[H]c1c([H])c([H])c2c(c1[H])C([H])([H])C([H])([H])C([H])([H])C2([H])N([H])C(=O)C1([H])N(C(=O)C([H])(N([H])C(=O)C([H])(N([H])C([H])([H])[H])C([H])([H])[H])C(C([H])([H])[H])(C([H])([H])[H])C([H])([H])[H])C([H])([H])c2c([H])c(OC([H])([H])C([H])([H])C([H])([H])N([H])C(=O)C([H])([H])C([H])(C([H])([H])[H])C([H])([H])C([H])([H])C([H])([H])C([H])([H])C([H])([H])C(=O)N3C([H])([H])C([H])([H])C([H])([H])C([H])(n4nc(-c5c([H])c([H])c(Oc6c([H])c([H])c(F)c([H])c6F)c([H])c5[H])c(C(=O)N([H])[H])c4N([H])[H])C3([H])[H])c([H])c([H])c2C1([H])[H]

$$$$
37:0:0
     RDKit          3D

 89 96  0  0  1  0  0  0  0  0999 V2000
  -30.5680  -25.5020   21.7860 C   0  0  0  0  0  0  0  0  0  0  0  0
  -29.9280  -25.8470   22.7820 O   0  0  0  0  0  0  0  0  0  0  0  0
  -30.5960  -26.3250   20.4950 C   0  0  0  0  0  2  0  0  0  0  0  0
  -29.5080  -27.4080   20.4210 C   0  0  0  0  0  2  0  0  0  0  0  0
  -28.2580  -26.8130   20.0680 O   0  0  0  0  0  0  0  0  0  0  0  0
  -24.4850  -31.9770   23.2400 C   0  0  0  0  0  0  0  0  0  0  0  0
  -27.1160  -27.5820   20.1290 C   0  0  0  0  0  0  0  0  0  0  0  0
  -23.2510  -30.5760   21.6090 C   0  0  0  0  0  3  0  0  0  0  0  0
  -24.6890  -29.0380   20.1690 C   0  0  0  0  0  0  0  0  0  0  0  0
  -25.7630  -30.9550   21.3690 C   0  0  0  0  0  2  0  0  0  0  0  0
  -25.8450  -29.5840   20.7350 C   0  0  0  0  0  0  0  0  0  0  0  0
  -27.0560  -28.8700   20.7140 C   0  0  0  0  0  3  0  0  0  0  0  0
  -25.9390  -27.0370   19.5740 C   0  0  0  0  0  3  0  0  0  0  0  0
  -24.7280  -27.7580   19.5850 C   0  0  0  0  0  3  0  0  0  0  0  0
  -23.4390  -29.8870   20.2290 C   0  0  0  0  0  2  0  0  0  0  0  0
  -24.5180  -31.1830   22.1330 N   0  0  0  0  0  0  0  0  0  0  0  0
  -23.4130  -32.2510   23.7970 O   0  0  0  0  0  0  0  0  0  0  0  0
  -22.6140  -29.5580   22.5810 C   0  0  0  0  0  0  0  0  0  0  0  0
  -21.2900  -29.3750   22.4660 N   0  0  0  0  0  0  0  0  0  0  0  0
  -23.3070  -28.9350   23.3890 O   0  0  0  0  0  0  0  0  0  0  0  0
  -20.7940  -29.9320   21.7830 H   0  0  0  0  0  0  0  0  0  0  0  0
  -17.9240  -28.1730   22.9740 C   0  0  0  0  0  0  0  0  0  0  0  0
  -20.4800  -28.4390   23.2430 C   0  0  0  0  0  3  0  0  0  0  0  0
  -20.5870  -27.0060   22.6740 C   0  0  0  0  0  2  0  0  0  0  0  0
  -19.4850  -26.6740   21.6620 C   0  0  0  0  0  2  0  0  0  0  0  0
  -18.1040  -26.8200   22.3070 C   0  0  0  0  0  2  0  0  0  0  0  0
  -19.0410  -28.9410   23.4000 C   0  0  0  0  0  0  0  0  0  0  0  0
  -18.8200  -30.2070   23.9810 C   0  0  0  0  0  3  0  0  0  0  0  0
  -17.5150  -30.7090   24.1430 C   0  0  0  0  0  3  0  0  0  0  0  0
  -16.4120  -29.9390   23.7350 C   0  0  0  0  0  3  0  0  0  0  0  0
  -16.6180  -28.6720   23.1580 C   0  0  0  0  0  3  0  0  0  0  0  0
  -25.7840  -32.6010   23.8420 C   0  0  0  0  0  3  0  0  0  0  0  0
  -26.3230  -31.8220   25.1050 C   0  0  1  0  0  0  0  0  0  0  0  0
  -25.2480  -31.5810   26.1910 C   0  0  0  0  0  1  0  0  0  0  0  0
  -26.8950  -30.4460   24.6910 C   0  0  0  0  0  1  0  0  0  0  0  0
  -27.4850  -32.6110   25.7540 C   0  0  0  0  0  1  0  0  0  0  0  0
  -25.4870  -33.9990   24.1810 N   0  0  0  0  0  0  0  0  0  0  0  0
  -25.8200  -35.0510   23.4210 C   0  0  0  0  0  0  0  0  0  0  0  0
  -26.4810  -34.9480   22.3840 O   0  0  0  0  0  0  0  0  0  0  0  0
  -24.9040  -34.1550   24.9900 H   0  0  0  0  0  0  0  0  0  0  0  0
  -24.0970  -36.8500   23.0820 C   0  0  0  0  0  1  0  0  0  0  0  0
  -25.3410  -36.4400   23.8850 C   0  0  0  0  0  3  0  0  0  0  0  0
  -27.4850  -37.3110   24.7040 C   0  0  0  0  0  1  0  0  0  0  0  0
  -26.3770  -37.4890   23.7690 N   0  0  0  0  0  0  0  0  0  0  0  0
  -25.9770  -38.4100   23.9240 H   0  0  0  0  0  0  0  0  0  0  0  0
  -31.3970  -24.2210   21.8040 C   0  0  0  0  0  2  0  0  0  0  0  0
  -30.5310  -22.9820   22.0770 C   0  0  0  0  0  2  0  0  0  0  0  0
  -31.3370  -21.6830   21.9810 C   0  0  0  0  0  2  0  0  0  0  0  0
  -30.4570  -20.4340   22.1260 C   0  0  0  0  0  2  0  0  0  0  0  0
  -31.2310  -19.1530   21.7980 C   0  0  0  0  0  2  0  0  0  0  0  0
  -30.3600  -17.8910   21.8690 C   0  0  0  0  0  2  0  0  0  0  0  0
  -31.0430  -16.7030   21.1810 C   0  0  0  0  0  2  0  0  0  0  0  0
  -30.1990  -15.4110   21.1920 C   0  0  0  0  0  2  0  0  0  0  0  0
  -30.7140  -14.3380   20.2160 C   0  0  0  0  0  0  0  0  0  0  0  0
  -30.3280  -12.2390   18.9760 C   0  0  0  0  0  2  0  0  0  0  0  0
  -29.3500  -12.4720   17.8110 C   0  0  0  0  0  2  0  0  0  0  0  0
  -27.8910  -12.3350   18.2880 C   0  0  0  0  0  2  0  0  0  0  0  0
  -27.6020  -13.1620   19.5700 C   0  0  0  0  0  3  0  0  0  0  0  0
  -28.6880  -12.9160   20.6400 C   0  0  0  0  0  2  0  0  0  0  0  0
  -30.0010  -13.1980   20.0390 N   0  0  0  0  0  0  0  0  0  0  0  0
  -31.7520  -14.5650   19.5850 O   0  0  0  0  0  0  0  0  0  0  0  0
  -25.2170  -13.7710   20.3320 C   0  0  0  0  0  0  0  0  0  0  0  0
  -24.1620  -12.9990   20.7380 C   0  0  0  0  0  0  0  0  0  0  0  0
  -24.6270  -11.6490   20.7100 C   0  0  0  0  0  0  0  0  0  0  0  0
  -26.2600  -12.8910   20.0860 N   0  0  0  0  0  0  0  0  0  0  0  0
  -25.9090  -11.6100   20.3670 N   0  0  0  0  0  0  0  0  0  0  0  0
  -23.9130  -10.3860   20.9340 C   0  0  0  0  0  0  0  0  0  0  0  0
  -24.3580   -9.4430   21.8870 C   0  0  0  0  0  3  0  0  0  0  0  0
  -23.6430   -8.2440   22.0980 C   0  0  0  0  0  3  0  0  0  0  0  0
  -22.4680   -7.9790   21.3560 C   0  0  0  0  0  0  0  0  0  0  0  0
  -22.0410   -8.9100   20.3920 C   0  0  0  0  0  3  0  0  0  0  0  0
  -22.7570  -10.1000   20.1800 C   0  0  0  0  0  3  0  0  0  0  0  0
  -21.7240   -6.8310   21.4740 O   0  0  0  0  0  0  0  0  0  0  0  0
  -21.6720   -6.1240   22.6490 C   0  0  0  0  0  0  0  0  0  0  0  0
  -21.2430   -6.7170   23.8560 C   0  0  0  0  0  3  0  0  0  0  0  0
  -21.1400   -5.9360   25.0260 C   0  0  0  0  0  3  0  0  0  0  0  0
  -21.4540   -4.5650   24.9880 C   0  0  0  0  0  0  0  0  0  0  0  0
  -21.8760   -3.9720   23.7850 C   0  0  0  0  0  3  0  0  0  0  0  0
  -21.9820   -4.7500   22.6180 C   0  0  0  0  0  0  0  0  0  0  0  0
  -22.3680   -4.1680   21.4570 F   0  0  0  0  0  0  0  0  0  0  0  0
  -21.3470   -3.8130   26.1090 F   0  0  0  0  0  0  0  0  0  0  0  0
  -22.7700  -13.4730   21.0450 C   0  0  0  0  0  0  0  0  0  0  0  0
  -22.0700  -12.7830   21.9390 N   0  0  0  0  0  0  0  0  0  0  0  0
  -22.3130  -14.4910   20.5260 O   0  0  0  0  0  0  0  0  0  0  0  0
  -22.4520  -11.9590   22.3780 H   0  0  0  0  0  0  0  0  0  0  0  0
  -21.1370  -13.0840   22.1850 H   0  0  0  0  0  0  0  0  0  0  0  0
  -25.3720  -15.1400   20.1340 N   0  0  0  0  0  0  0  0  0  0  0  0
  -24.6090  -15.7970   20.2580 H   0  0  0  0  0  0  0  0  0  0  0  0
  -26.2200  -15.5780   19.7950 H   0  0  0  0  0  0  0  0  0  0  0  0
  1 46  1  0
  1  2  2  0
  3  1  1  0
  4  3  1  0
  5  7  1  0
  5  4  1  0
  6 17  2  0
  7 12  1  0
  8 16  1  0
  8 18  1  0
  9 15  1  0
  9 11  1  0
 10 16  1  0
 11 10  1  0
 12 11  2  0
 13 14  1  0
 13  7  2  0
 14  9  2  0
 15  8  1  0
 16  6  1  0
 18 20  2  0
 19 18  1  0
 21 19  1  0
 22 31  2  0
 22 27  1  0
 23 19  1  0
 23 27  1  0
 24 23  1  0
 25 26  1  0
 25 24  1  0
 26 22  1  0
 27 28  2  0
 28 29  1  0
 30 29  2  0
 31 30  1  0
 32  6  1  0
 32 37  1  0
 32 33  1  0
 33 36  1  1
 33 34  1  0
 35 33  1  0
 37 40  1  0
 38 42  1  0
 38 37  1  0
 39 38  2  0
 42 41  1  0
 44 42  1  0
 44 45  1  0
 44 43  1  0
 46 47  1  0
 48 47  1  0
 48 49  1  0
 50 51  1  0
 50 49  1  0
 52 53  1  0
 52 51  1  0
 54 53  1  0
 55 60  1  0
 56 57  1  0
 56 55  1  0
 58 57  1  0
 58 65  1  0
 58 59  1  0
 60 54  1  0
 60 59  1  0
 61 54  2  0
 62 63  2  0
 63 82  1  0
 64 63  1  0
 64 67  1  0
 65 62  1  0
 65 66  1  0
 66 64  2  0
 67 68  1  0
 68 69  2  0
 70 73  1  0
 70 69  1  0
 71 70  2  0
 72 71  1  0
 72 67  2  0
 73 74  1  0
 74 75  1  0
 75 76  2  0
 77 76  1  0
 77 81  1  0
 78 77  2  0
 79 74  2  0
 79 78  1  0
 80 79  1  0
 82 83  1  0
 83 86  1  0
 83 85  1  0
 84 82  2  0
 87 88  1  0
 87 62  1  0
 89 87  1  0
M  ISO  4   4 101   5 101  53 100  54 100
M  END
>  <TORSDO>  (38) 
F 26

>  <SCORE>  (38) 
-10.778

>  <name>  (38) 
37

>  <ligand_id>  (38) 
37

>  <original_smiles>  (38) 
[H]c1c([H])c([H])c2c(c1[H])C([H])([H])C([H])([H])C([H])([H])C2([H])N([H])C(=O)C1([H])N(C(=O)C([H])(N([H])C(=O)C([H])(N([H])C([H])([H])[H])C([H])([H])[H])C(C([H])([H])[H])(C([H])([H])[H])C([H])([H])[H])C([H])([H])c2c([H])c(OC([H])([H])C([H])([H])C(=O)C([H])([H])C([H])([H])C([H])([H])C([H])([H])C([H])([H])C([H])([H])C([H])([H])C([H])([H])C(=O)N3C([H])([H])C([H])([H])C([H])([H])C([H])(n4nc(-c5c([H])c([H])c(Oc6c([H])c([H])c(F)c([H])c6F)c([H])c5[H])c(C(=O)N([H])[H])c4N([H])[H])C3([H])[H])c([H])c([H])c2C1([H])[H]

>  <smiles>  (38) 
[H]c1c([H])c([H])c2c(c1[H])C([H])([H])C([H])([H])C([H])([H])C2([H])N([H])C(=O)C1([H])N(C(=O)C([H])(N([H])C(=O)C([H])(N([H])C([H])([H])[H])C([H])([H])[H])C(C([H])([H])[H])(C([H])([H])[H])C([H])([H])[H])C([H])([H])c2c([H])c(OC([H])([H])C([H])([H])C(=O)C([H])([H])C([H])([H])C([H])([H])C([H])([H])C([H])([H])C([H])([H])C([H])([H])C([H])([H])C(=O)N3C([H])([H])C([H])([H])C([H])([H])C([H])(n4nc(-c5c([H])c([H])c(Oc6c([H])c([H])c(F)c([H])c6F)c([H])c5[H])c(C(=O)N([H])[H])c4N([H])[H])C3([H])[H])c([H])c([H])c2C1([H])[H]

$$$$
38:0:0
     RDKit          3D

 96103  0  0  1  0  0  0  0  0999 V2000
  -23.4230  -22.1280   17.7760 C   0  0  0  0  0  2  0  0  0  0  0  0
  -24.4630  -23.2690   17.7510 C   0  0  0  0  0  2  0  0  0  0  0  0
  -25.1020  -23.5760   19.1190 C   0  0  0  0  0  2  0  0  0  0  0  0
  -26.0070  -22.4300   19.6050 C   0  0  0  0  0  2  0  0  0  0  0  0
  -27.0320  -22.7660   20.7070 C   0  0  0  0  0  2  0  0  0  0  0  0
  -28.4800  -22.9990   20.2160 C   0  0  0  0  0  2  0  0  0  0  0  0
  -28.7640  -24.3880   19.6160 C   0  0  0  0  0  2  0  0  0  0  0  0
  -28.7110  -25.5210   20.6540 C   0  0  0  0  0  2  0  0  0  0  0  0
  -28.7090  -26.7990   20.0220 O   0  0  0  0  0  0  0  0  0  0  0  0
  -24.5230  -31.5820   23.1740 C   0  0  0  0  0  0  0  0  0  0  0  0
  -27.4900  -27.4290   20.0230 C   0  0  0  0  0  0  0  0  0  0  0  0
  -23.4280  -30.1470   21.4790 C   0  0  0  0  0  3  0  0  0  0  0  0
  -24.9950  -28.7440   20.0400 C   0  0  0  0  0  0  0  0  0  0  0  0
  -25.9220  -30.6820   21.3210 C   0  0  0  0  0  2  0  0  0  0  0  0
  -26.1070  -29.3380   20.6510 C   0  0  0  0  0  0  0  0  0  0  0  0
  -27.3590  -28.6890   20.6360 C   0  0  0  0  0  3  0  0  0  0  0  0
  -26.3620  -26.8350   19.4170 C   0  0  0  0  0  3  0  0  0  0  0  0
  -25.1150  -27.4870   19.4220 C   0  0  0  0  0  3  0  0  0  0  0  0
  -23.6980  -29.5130   20.0880 C   0  0  0  0  0  2  0  0  0  0  0  0
  -24.6420  -30.8170   22.0520 N   0  0  0  0  0  0  0  0  0  0  0  0
  -23.4210  -31.7710   23.7050 O   0  0  0  0  0  0  0  0  0  0  0  0
  -22.8320  -29.0630   22.4050 C   0  0  0  0  0  0  0  0  0  0  0  0
  -21.5410  -28.7540   22.2040 N   0  0  0  0  0  0  0  0  0  0  0  0
  -23.5290  -28.5030   23.2560 O   0  0  0  0  0  0  0  0  0  0  0  0
  -21.0360  -29.2660   21.4930 H   0  0  0  0  0  0  0  0  0  0  0  0
  -18.2930  -27.1960   22.4670 C   0  0  0  0  0  0  0  0  0  0  0  0
  -20.7770  -27.7380   22.9280 C   0  0  0  0  0  3  0  0  0  0  0  0
  -21.0810  -26.3210   22.3880 C   0  0  0  0  0  2  0  0  0  0  0  0
  -20.1050  -25.8670   21.2980 C   0  0  0  0  0  2  0  0  0  0  0  0
  -18.6700  -25.8670   21.8320 C   0  0  0  0  0  2  0  0  0  0  0  0
  -19.2840  -28.0800   22.9660 C   0  0  0  0  0  0  0  0  0  0  0  0
  -18.8830  -29.3200   23.5110 C   0  0  0  0  0  3  0  0  0  0  0  0
  -17.5230  -29.6760   23.5680 C   0  0  0  0  0  3  0  0  0  0  0  0
  -16.5440  -28.7890   23.0870 C   0  0  0  0  0  3  0  0  0  0  0  0
  -16.9290  -27.5490   22.5440 C   0  0  0  0  0  3  0  0  0  0  0  0
  -25.7610  -32.2720   23.8290 C   0  0  0  0  0  3  0  0  0  0  0  0
  -25.3860  -33.6610   24.1220 N   0  0  0  0  0  0  0  0  0  0  0  0
  -25.7130  -34.7140   23.3580 C   0  0  0  0  0  0  0  0  0  0  0  0
  -26.4310  -34.6190   22.3580 O   0  0  0  0  0  0  0  0  0  0  0  0
  -24.7510  -33.8060   24.8930 H   0  0  0  0  0  0  0  0  0  0  0  0
  -23.9360  -36.4300   22.8960 C   0  0  0  0  0  1  0  0  0  0  0  0
  -25.1540  -36.0880   23.7690 C   0  0  0  0  0  3  0  0  0  0  0  0
  -27.2160  -37.0650   24.6730 C   0  0  0  0  0  1  0  0  0  0  0  0
  -26.1500  -37.1770   23.6820 N   0  0  0  0  0  0  0  0  0  0  0  0
  -25.7040  -38.0840   23.7970 H   0  0  0  0  0  0  0  0  0  0  0  0
  -26.2660  -31.5410   25.1330 C   0  0  1  0  0  0  0  0  0  0  0  0
  -25.1450  -31.2590   26.1600 C   0  0  0  0  0  1  0  0  0  0  0  0
  -26.9340  -30.1930   24.7760 C   0  0  0  0  0  1  0  0  0  0  0  0
  -27.3480  -32.3980   25.8300 C   0  0  0  0  0  1  0  0  0  0  0  0
  -23.6450  -21.0490   16.6900 C   0  0  0  0  0  2  0  0  0  0  0  0
  -23.7600  -19.6060   17.2220 C   0  0  0  0  0  2  0  0  0  0  0  0
  -24.8140  -19.3900   18.3350 C   0  0  0  0  0  2  0  0  0  0  0  0
  -26.2840  -19.5250   17.8930 C   0  0  0  0  0  2  0  0  0  0  0  0
  -27.2540  -19.2740   19.0610 C   0  0  0  0  0  2  0  0  0  0  0  0
  -28.7130  -19.0700   18.6220 C   0  0  0  0  0  2  0  0  0  0  0  0
  -29.5910  -18.5420   19.7700 C   0  0  0  0  0  2  0  0  0  0  0  0
  -31.0200  -18.1730   19.3390 C   0  0  0  0  0  2  0  0  0  0  0  0
  -31.8650  -17.5330   20.4640 C   0  0  0  0  0  2  0  0  0  0  0  0
  -32.1260  -15.0520   20.3950 C   0  0  0  0  0  0  0  0  0  0  0  0
  -31.7630  -12.7860   19.5190 C   0  0  0  0  0  2  0  0  0  0  0  0
  -30.9330  -12.8960   18.2240 C   0  0  0  0  0  2  0  0  0  0  0  0
  -29.4220  -12.9290   18.5360 C   0  0  0  0  0  2  0  0  0  0  0  0
  -29.0540  -13.9420   19.6530 C   0  0  0  0  0  3  0  0  0  0  0  0
  -30.0010  -13.7840   20.8670 C   0  0  0  0  0  2  0  0  0  0  0  0
  -31.3880  -13.9140   20.3830 N   0  0  0  0  0  0  0  0  0  0  0  0
  -33.2860  -15.1180   19.9760 O   0  0  0  0  0  0  0  0  0  0  0  0
  -31.4460  -16.1560   20.7340 N   0  0  0  0  0  0  0  0  0  0  0  0
  -30.5010  -16.0190   21.0600 H   0  0  0  0  0  0  0  0  0  0  0  0
  -26.6880  -14.8180   20.1760 C   0  0  0  0  0  0  0  0  0  0  0  0
  -25.5210  -14.1780   20.4830 C   0  0  0  0  0  0  0  0  0  0  0  0
  -25.8330  -12.7850   20.5070 C   0  0  0  0  0  0  0  0  0  0  0  0
  -27.6480  -13.8280   20.0360 N   0  0  0  0  0  0  0  0  0  0  0  0
  -27.1300  -12.5990   20.2910 N   0  0  0  0  0  0  0  0  0  0  0  0
  -24.9640  -11.6130   20.6650 C   0  0  0  0  0  0  0  0  0  0  0  0
  -25.2040  -10.6480   21.6670 C   0  0  0  0  0  3  0  0  0  0  0  0
  -24.3470   -9.5350   21.8080 C   0  0  0  0  0  3  0  0  0  0  0  0
  -23.2340   -9.3860   20.9470 C   0  0  0  0  0  0  0  0  0  0  0  0
  -23.0110  -10.3390   19.9380 C   0  0  0  0  0  3  0  0  0  0  0  0
  -23.8680  -11.4420   19.7950 C   0  0  0  0  0  3  0  0  0  0  0  0
  -22.3580   -8.3300   20.9970 O   0  0  0  0  0  0  0  0  0  0  0  0
  -22.0650   -7.6940   22.1750 C   0  0  0  0  0  0  0  0  0  0  0  0
  -21.5300   -8.3880   23.2840 C   0  0  0  0  0  3  0  0  0  0  0  0
  -21.1790   -7.6820   24.4520 C   0  0  0  0  0  3  0  0  0  0  0  0
  -21.3510   -6.2880   24.5110 C   0  0  0  0  0  0  0  0  0  0  0  0
  -21.8770   -5.5930   23.4070 C   0  0  0  0  0  3  0  0  0  0  0  0
  -22.2300   -6.2960   22.2420 C   0  0  0  0  0  0  0  0  0  0  0  0
  -22.7160   -5.6200   21.1730 F   0  0  0  0  0  0  0  0  0  0  0  0
  -21.0080   -5.6090   25.6310 F   0  0  0  0  0  0  0  0  0  0  0  0
  -24.1680  -14.8120   20.6490 C   0  0  0  0  0  0  0  0  0  0  0  0
  -23.3130  -14.2260   21.4800 N   0  0  0  0  0  0  0  0  0  0  0  0
  -23.8780  -15.8620   20.0770 O   0  0  0  0  0  0  0  0  0  0  0  0
  -23.5530  -13.3730   21.9630 H   0  0  0  0  0  0  0  0  0  0  0  0
  -22.4020  -14.6360   21.6330 H   0  0  0  0  0  0  0  0  0  0  0  0
  -27.0090  -16.1540   19.9860 N   0  0  0  0  0  0  0  0  0  0  0  0
  -26.3190  -16.8920   20.0460 H   0  0  0  0  0  0  0  0  0  0  0  0
  -27.9210  -16.4850   19.7030 H   0  0  0  0  0  0  0  0  0  0  0  0
  2  1  1  0
  2  3  1  0
  3  4  1  0
  4  5  1  0
  6  5  1  0
  7  6  1  0
  7  8  1  0
  9 11  1  0
  9  8  1  0
 10 21  2  0
 11 16  1  0
 12 20  1  0
 12 22  1  0
 13 19  1  0
 13 15  1  0
 14 20  1  0
 15 14  1  0
 16 15  2  0
 17 18  1  0
 17 11  2  0
 18 13  2  0
 19 12  1  0
 20 10  1  0
 22 24  2  0
 23 22  1  0
 25 23  1  0
 26 35  2  0
 26 31  1  0
 27 23  1  0
 27 31  1  0
 28 27  1  0
 29 30  1  0
 29 28  1  0
 30 26  1  0
 31 32  2  0
 32 33  1  0
 34 33  2  0
 35 34  1  0
 36 10  1  0
 36 37  1  0
 36 46  1  0
 37 40  1  0
 38 42  1  0
 38 37  1  0
 39 38  2  0
 42 41  1  0
 44 42  1  0
 44 45  1  0
 44 43  1  0
 46 49  1  1
 46 47  1  0
 48 46  1  0
 50 51  1  0
 50  1  1  0
 51 52  1  0
 53 52  1  0
 53 54  1  0
 55 54  1  0
 55 56  1  0
 57 56  1  0
 57 58  1  0
 58 67  1  0
 59 67  1  0
 60 65  1  0
 61 62  1  0
 61 60  1  0
 63 62  1  0
 63 72  1  0
 63 64  1  0
 65 59  1  0
 65 64  1  0
 66 59  2  0
 67 68  1  0
 69 70  2  0
 70 71  1  0
 70 89  1  0
 71 74  1  0
 72 69  1  0
 72 73  1  0
 73 71  2  0
 74 75  1  0
 75 76  2  0
 77 80  1  0
 77 76  1  0
 78 77  2  0
 79 78  1  0
 79 74  2  0
 80 81  1  0
 81 86  2  0
 81 82  1  0
 82 83  2  0
 83 84  1  0
 84 88  1  0
 85 84  2  0
 86 85  1  0
 87 86  1  0
 89 90  1  0
 90 93  1  0
 90 92  1  0
 91 89  2  0
 94 95  1  0
 94 69  1  0
 96 94  1  0
M  ISO  4   8 101   9 101  59 100  67 100
M  END
>  <TORSDO>  (39) 
F 32

>  <SCORE>  (39) 
-6.146

>  <name>  (39) 
38

>  <ligand_id>  (39) 
38

>  <original_smiles>  (39) 
[H]c1c([H])c([H])c2c(c1[H])C([H])([H])C([H])([H])C([H])([H])C2([H])N([H])C(=O)C1([H])N(C(=O)C([H])(N([H])C(=O)C([H])(N([H])C([H])([H])[H])C([H])([H])[H])C(C([H])([H])[H])(C([H])([H])[H])C([H])([H])[H])C([H])([H])c2c([H])c(OC([H])([H])C([H])([H])C([H])([H])C([H])([H])C([H])([H])C([H])([H])C([H])([H])C([H])([H])C([H])([H])C([H])([H])C([H])([H])C([H])([H])C([H])([H])C([H])([H])C([H])([H])C([H])([H])C([H])([H])N([H])C(=O)N3C([H])([H])C([H])([H])C([H])([H])C([H])(n4nc(-c5c([H])c([H])c(Oc6c([H])c([H])c(F)c([H])c6F)c([H])c5[H])c(C(=O)N([H])[H])c4N([H])[H])C3([H])[H])c([H])c([H])c2C1([H])[H]

>  <smiles>  (39) 
[H]c1c([H])c([H])c2c(c1[H])C([H])([H])C([H])([H])C([H])([H])C2([H])N([H])C(=O)C1([H])N(C(=O)C([H])(N([H])C(=O)C([H])(N([H])C([H])([H])[H])C([H])([H])[H])C(C([H])([H])[H])(C([H])([H])[H])C([H])([H])[H])C([H])([H])c2c([H])c(OC([H])([H])C([H])([H])C([H])([H])C([H])([H])C([H])([H])C([H])([H])C([H])([H])C([H])([H])C([H])([H])C([H])([H])C([H])([H])C([H])([H])C([H])([H])C([H])([H])C([H])([H])C([H])([H])C([H])([H])N([H])C(=O)N3C([H])([H])C([H])([H])C([H])([H])C([H])(n4nc(-c5c([H])c([H])c(Oc6c([H])c([H])c(F)c([H])c6F)c([H])c5[H])c(C(=O)N([H])[H])c4N([H])[H])C3([H])[H])c([H])c([H])c2C1([H])[H]

$$$$
39:0:0
     RDKit          3D

 92 99  0  0  1  0  0  0  0  0999 V2000
  -31.0870  -22.8680   16.4710 N   0  0  0  0  0  4  0  0  0  0  0  0
  -31.8940  -23.3900   16.1650 H   0  0  0  0  0  0  0  0  0  0  0  0
  -30.5790  -22.5840   15.6440 H   0  0  0  0  0  0  0  0  0  0  0  0
  -30.7850  -20.4160   16.7380 C   0  0  0  0  0  1  0  0  0  0  0  0
  -31.5590  -21.6660   17.2090 C   0  0  0  0  0  3  0  0  0  0  0  0
  -33.1170  -21.5440   17.2430 C   0  0  0  0  0  2  0  0  0  0  0  0
  -33.8950  -21.6520   15.9030 C   0  0  0  0  0  2  0  0  0  0  0  0
  -33.8280  -20.4610   15.1100 O   0  0  0  0  0  0  0  0  0  0  0  0
  -33.5210  -17.5190    8.6310 C   0  0  0  0  0  0  0  0  0  0  0  0
  -33.6190  -20.6450   13.7630 C   0  0  0  0  0  0  0  0  0  0  0  0
  -33.4430  -19.9970    8.6990 C   0  0  0  0  0  3  0  0  0  0  0  0
  -33.1090  -21.0360   11.0090 C   0  0  0  0  0  0  0  0  0  0  0  0
  -32.5870  -18.6110   10.6680 C   0  0  0  0  0  2  0  0  0  0  0  0
  -32.9910  -19.7560   11.5720 C   0  0  0  0  0  0  0  0  0  0  0  0
  -33.2400  -19.5570   12.9480 C   0  0  0  0  0  3  0  0  0  0  0  0
  -33.7030  -21.9340   13.1870 C   0  0  0  0  0  3  0  0  0  0  0  0
  -33.4650  -22.1350   11.8150 C   0  0  0  0  0  3  0  0  0  0  0  0
  -32.8420  -21.1650    9.5240 C   0  0  0  0  0  2  0  0  0  0  0  0
  -33.2210  -18.6530    9.3290 N   0  0  0  0  0  0  0  0  0  0  0  0
  -33.9470  -17.5820    7.4690 O   0  0  0  0  0  0  0  0  0  0  0  0
  -34.9340  -20.3090    8.4400 C   0  0  0  0  0  0  0  0  0  0  0  0
  -35.2140  -21.0070    7.3280 N   0  0  0  0  0  0  0  0  0  0  0  0
  -35.8010  -19.9520    9.2400 O   0  0  0  0  0  0  0  0  0  0  0  0
  -34.4460  -21.2220    6.7040 H   0  0  0  0  0  0  0  0  0  0  0  0
  -37.1670  -22.0640    4.4760 C   0  0  0  0  0  0  0  0  0  0  0  0
  -36.5360  -21.4760    6.9130 C   0  0  0  0  0  3  0  0  0  0  0  0
  -36.7110  -22.9840    7.2150 C   0  0  0  0  0  2  0  0  0  0  0  0
  -36.3430  -23.8870    6.0320 C   0  0  0  0  0  2  0  0  0  0  0  0
  -37.1930  -23.5480    4.8050 C   0  0  0  0  0  2  0  0  0  0  0  0
  -36.8370  -21.0960    5.4590 C   0  0  0  0  0  0  0  0  0  0  0  0
  -36.7730  -19.7380    5.0850 C   0  0  0  0  0  3  0  0  0  0  0  0
  -37.0400  -19.3380    3.7650 C   0  0  0  0  0  3  0  0  0  0  0  0
  -37.3930  -20.2960    2.7990 C   0  0  0  0  0  3  0  0  0  0  0  0
  -37.4500  -21.6570    3.1540 C   0  0  0  0  0  3  0  0  0  0  0  0
  -33.3380  -16.0990    9.2530 C   0  0  0  0  0  3  0  0  0  0  0  0
  -34.6910  -15.4610    9.7540 C   0  0  1  0  0  0  0  0  0  0  0  0
  -35.4700  -14.7090    8.6520 C   0  0  0  0  0  1  0  0  0  0  0  0
  -35.6210  -16.5490   10.3340 C   0  0  0  0  0  1  0  0  0  0  0  0
  -34.4090  -14.4660   10.9070 C   0  0  0  0  0  1  0  0  0  0  0  0
  -32.7130  -15.2450    8.2340 N   0  0  0  0  0  0  0  0  0  0  0  0
  -31.3930  -15.0410    8.1100 C   0  0  0  0  0  0  0  0  0  0  0  0
  -30.5680  -15.5020    8.9070 O   0  0  0  0  0  0  0  0  0  0  0  0
  -33.3280  -14.8550    7.5360 H   0  0  0  0  0  0  0  0  0  0  0  0
  -29.7180  -14.9040    6.2410 C   0  0  0  0  0  1  0  0  0  0  0  0
  -30.9040  -14.1990    6.9170 C   0  0  0  0  0  3  0  0  0  0  0  0
  -31.6350  -11.8800    7.2600 C   0  0  0  0  0  1  0  0  0  0  0  0
  -30.5170  -12.8200    7.2890 N   0  0  0  0  0  0  0  0  0  0  0  0
  -29.7870  -12.4700    6.6750 H   0  0  0  0  0  0  0  0  0  0  0  0
  -30.2470  -23.7770   17.2940 C   0  0  0  0  0  2  0  0  0  0  0  0
  -30.7980  -24.0350   18.7190 C   0  0  0  0  0  2  0  0  0  0  0  0
  -31.4460  -25.4400   18.7830 C   0  0  0  0  0  2  0  0  0  0  0  0
  -31.1750  -26.3980   17.6060 C   0  0  0  0  0  2  0  0  0  0  0  0
  -32.1990  -27.5480   17.4650 C   0  0  0  0  0  2  0  0  0  0  0  0
  -31.5990  -28.9400   17.7640 C   0  0  0  0  0  2  0  0  0  0  0  0
  -33.1000  -30.8070   16.6300 C   0  0  0  0  0  0  0  0  0  0  0  0
  -33.5060  -31.3650   14.2520 C   0  0  0  0  0  2  0  0  0  0  0  0
  -32.3030  -32.1410   13.6710 C   0  0  0  0  0  2  0  0  0  0  0  0
  -31.1730  -31.1890   13.2160 C   0  0  0  0  0  2  0  0  0  0  0  0
  -30.8590  -30.0910   14.2740 C   0  0  0  0  0  3  0  0  0  0  0  0
  -32.1930  -29.4280   14.6760 C   0  0  0  0  0  2  0  0  0  0  0  0
  -33.0150  -30.4610   15.3120 N   0  0  0  0  0  0  0  0  0  0  0  0
  -33.7200  -31.8180   16.9810 O   0  0  0  0  0  0  0  0  0  0  0  0
  -32.6070  -30.0140   17.6140 N   0  0  0  0  0  0  0  0  0  0  0  0
  -32.8830  -30.3840   18.5130 H   0  0  0  0  0  0  0  0  0  0  0  0
  -28.5360  -29.2690   13.5270 C   0  0  0  0  0  0  0  0  0  0  0  0
  -28.1130  -28.0630   13.0270 C   0  0  0  0  0  0  0  0  0  0  0  0
  -29.2690  -27.2300   12.9790 C   0  0  0  0  0  0  0  0  0  0  0  0
  -29.8910  -29.1160   13.7790 N   0  0  0  0  0  0  0  0  0  0  0  0
  -30.3210  -27.8670   13.4780 N   0  0  0  0  0  0  0  0  0  0  0  0
  -29.4580  -25.8820   12.4280 C   0  0  0  0  0  0  0  0  0  0  0  0
  -29.3300  -24.7360   13.2390 C   0  0  0  0  0  3  0  0  0  0  0  0
  -29.5030  -23.4470   12.6920 C   0  0  0  0  0  3  0  0  0  0  0  0
  -29.8000  -23.2940   11.3170 C   0  0  0  0  0  0  0  0  0  0  0  0
  -29.9450  -24.4400   10.5170 C   0  0  0  0  0  3  0  0  0  0  0  0
  -29.7770  -25.7250   11.0640 C   0  0  0  0  0  3  0  0  0  0  0  0
  -30.0030  -22.0860   10.6990 O   0  0  0  0  0  0  0  0  0  0  0  0
  -28.9580  -21.3340   10.2230 C   0  0  0  0  0  0  0  0  0  0  0  0
  -28.0970  -21.8140    9.2120 C   0  0  0  0  0  3  0  0  0  0  0  0
  -27.0770  -20.9830    8.7080 C   0  0  0  0  0  3  0  0  0  0  0  0
  -26.9270  -19.6730    9.1970 C   0  0  0  0  0  0  0  0  0  0  0  0
  -27.7850  -19.1950   10.2020 C   0  0  0  0  0  3  0  0  0  0  0  0
  -28.8000  -20.0200   10.7100 C   0  0  0  0  0  0  0  0  0  0  0  0
  -29.6420  -19.5500   11.6630 F   0  0  0  0  0  0  0  0  0  0  0  0
  -25.9520  -18.8700    8.7080 F   0  0  0  0  0  0  0  0  0  0  0  0
  -26.7330  -27.7340   12.5360 C   0  0  0  0  0  0  0  0  0  0  0  0
  -26.1680  -26.6130   12.9810 N   0  0  0  0  0  0  0  0  0  0  0  0
  -26.1250  -28.4890   11.7800 O   0  0  0  0  0  0  0  0  0  0  0  0
  -26.6480  -26.0000   13.6230 H   0  0  0  0  0  0  0  0  0  0  0  0
  -25.2390  -26.3710   12.6680 H   0  0  0  0  0  0  0  0  0  0  0  0
  -27.8960  -30.4770   13.7680 N   0  0  0  0  0  0  0  0  0  0  0  0
  -26.9270  -30.6460   13.5300 H   0  0  0  0  0  0  0  0  0  0  0  0
  -28.3770  -31.3190   14.0590 H   0  0  0  0  0  0  0  0  0  0  0  0
  1  5  1  0
  1 49  1  0
  2  1  1  0
  3  1  1  0
  5  4  1  0
  5  6  1  0
  7  6  1  0
  8  7  1  0
  9 19  1  0
 10  8  1  0
 11 21  1  0
 11 19  1  0
 11 18  1  0
 12 14  2  0
 12 17  1  0
 13 14  1  0
 14 15  1  0
 15 10  2  0
 16 10  1  0
 17 16  2  0
 18 12  1  0
 19 13  1  0
 20  9  2  0
 21 23  2  0
 22 21  1  0
 24 22  1  0
 25 29  1  0
 25 30  1  0
 26 27  1  0
 26 22  1  0
 28 27  1  0
 29 28  1  0
 30 26  1  0
 31 30  2  0
 32 31  1  0
 33 34  1  0
 33 32  2  0
 34 25  2  0
 35  9  1  0
 35 36  1  0
 36 38  1  1
 36 39  1  0
 37 36  1  0
 40 35  1  0
 41 40  1  0
 41 42  2  0
 43 40  1  0
 45 44  1  0
 45 47  1  0
 45 41  1  0
 46 47  1  0
 48 47  1  0
 49 50  1  0
 50 51  1  0
 52 51  1  0
 53 52  1  0
 53 54  1  0
 55 62  2  0
 55 63  1  0
 56 61  1  0
 57 56  1  0
 58 57  1  0
 59 58  1  0
 59 60  1  0
 60 61  1  0
 61 55  1  0
 63 54  1  0
 63 64  1  0
 65 90  1  0
 65 68  1  0
 66 65  2  0
 67 66  1  0
 67 69  2  0
 68 59  1  0
 69 68  1  0
 70 67  1  0
 70 71  1  0
 72 71  2  0
 73 72  1  0
 74 75  1  0
 74 73  2  0
 75 70  2  0
 76 73  1  0
 77 76  1  0
 77 82  1  0
 78 77  2  0
 79 80  2  0
 79 78  1  0
 80 81  1  0
 81 82  2  0
 82 83  1  0
 84 80  1  0
 85 86  1  0
 85 66  1  0
 86 88  1  0
 87 85  2  0
 89 86  1  0
 90 92  1  0
 91 90  1  0
M  ISO  4   7 101   8 101  55 100  63 100
M  END
>  <TORSDO>  (40) 
F 25

>  <SCORE>  (40) 
-2.915

>  <name>  (40) 
39

>  <ligand_id>  (40) 
39

>  <original_smiles>  (40) 
[H]c1c([H])c([H])c2c(c1[H])C([H])([H])C([H])([H])C([H])([H])C2([H])N([H])C(=O)C1([H])N(C(=O)C([H])(N([H])C(=O)C([H])(N([H])C([H])([H])[H])C([H])([H])[H])C(C([H])([H])[H])(C([H])([H])[H])C([H])([H])[H])C([H])([H])c2c([H])c(OC([H])([H])C([H])([H])C([H])(C([H])([H])[H])[N+]([H])([H])C([H])([H])C([H])([H])C([H])([H])C([H])([H])C([H])([H])C([H])([H])N([H])C(=O)N3C([H])([H])C([H])([H])C([H])([H])C([H])(n4nc(-c5c([H])c([H])c(Oc6c([H])c([H])c(F)c([H])c6F)c([H])c5[H])c(C(=O)N([H])[H])c4N([H])[H])C3([H])[H])c([H])c([H])c2C1([H])[H]

>  <smiles>  (40) 
[H]c1c([H])c([H])c2c(c1[H])C([H])([H])C([H])([H])C([H])([H])C2([H])N([H])C(=O)C1([H])N(C(=O)C([H])(N([H])C(=O)C([H])(N([H])C([H])([H])[H])C([H])([H])[H])C(C([H])([H])[H])(C([H])([H])[H])C([H])([H])[H])C([H])([H])c2c([H])c(OC([H])([H])C([H])([H])C([H])(C([H])([H])[H])[N+]([H])([H])C([H])([H])C([H])([H])C([H])([H])C([H])([H])C([H])([H])C([H])([H])N([H])C(=O)N3C([H])([H])C([H])([H])C([H])([H])C([H])(n4nc(-c5c([H])c([H])c(Oc6c([H])c([H])c(F)c([H])c6F)c([H])c5[H])c(C(=O)N([H])[H])c4N([H])[H])C3([H])[H])c([H])c([H])c2C1([H])[H]

$$$$
40:0:0
     RDKit          3D

 94103  0  0  1  0  0  0  0  0999 V2000
  -29.7130  -22.5140   23.3930 C   0  0  0  0  0  3  0  0  0  0  0  0
  -28.8580  -21.5830   21.3110 C   0  0  0  0  0  3  0  0  0  0  0  0
  -29.2080  -23.7820   23.0370 C   0  0  0  0  0  3  0  0  0  0  0  0
  -28.3690  -22.8510   20.9470 C   0  0  0  0  0  3  0  0  0  0  0  0
  -29.5430  -21.4090   22.5310 C   0  0  0  0  0  0  0  0  0  0  0  0
  -28.5370  -23.9570   21.8060 C   0  0  0  0  0  0  0  0  0  0  0  0
  -30.0930  -20.0420   22.9140 C   0  0  0  0  0  2  0  0  0  0  0  0
  -31.0740  -19.2650   20.6420 C   0  0  0  0  0  2  0  0  0  0  0  0
  -32.1640  -18.5200   22.8090 C   0  0  0  0  0  2  0  0  0  0  0  0
  -30.4280  -17.8760   20.4970 C   0  0  0  0  0  2  0  0  0  0  0  0
  -31.5230  -17.1260   22.6480 C   0  0  0  0  0  2  0  0  0  0  0  0
  -31.3590  -19.6430   22.1160 C   0  0  0  0  0  3  0  0  0  0  0  0
  -31.3030  -16.7970   21.1600 C   0  0  0  0  0  3  0  0  0  0  0  0
  -31.0990  -14.5850   20.0480 C   0  0  0  0  0  0  0  0  0  0  0  0
  -30.6610  -12.4300   18.9370 C   0  0  0  0  0  2  0  0  0  0  0  0
  -29.6830  -12.6060   17.7620 C   0  0  0  0  0  2  0  0  0  0  0  0
  -28.2270  -12.5020   18.2510 C   0  0  0  0  0  2  0  0  0  0  0  0
  -27.9460  -13.4050   19.4820 C   0  0  0  0  0  3  0  0  0  0  0  0
  -29.0340  -13.2220   20.5660 C   0  0  0  0  0  2  0  0  0  0  0  0
  -30.3570  -13.4510   19.9520 N   0  0  0  0  0  0  0  0  0  0  0  0
  -32.0820  -14.8050   19.3350 O   0  0  0  0  0  0  0  0  0  0  0  0
  -30.7120  -15.4680   20.9800 N   0  0  0  0  0  0  0  0  0  0  0  0
  -29.9280  -15.2090   21.5600 H   0  0  0  0  0  0  0  0  0  0  0  0
  -25.5990  -14.0810   20.2980 C   0  0  0  0  0  0  0  0  0  0  0  0
  -24.5230  -13.3390   20.7060 C   0  0  0  0  0  0  0  0  0  0  0  0
  -24.9390  -11.9730   20.6400 C   0  0  0  0  0  0  0  0  0  0  0  0
  -26.6050  -13.1700   20.0150 N   0  0  0  0  0  0  0  0  0  0  0  0
  -26.2120  -11.8960   20.2730 N   0  0  0  0  0  0  0  0  0  0  0  0
  -24.1810  -10.7310   20.8500 C   0  0  0  0  0  0  0  0  0  0  0  0
  -24.5740   -9.7820   21.8180 C   0  0  0  0  0  3  0  0  0  0  0  0
  -23.8200   -8.6050   22.0140 C   0  0  0  0  0  3  0  0  0  0  0  0
  -22.6570   -8.3700   21.2420 C   0  0  0  0  0  0  0  0  0  0  0  0
  -22.2840   -9.3080   20.2640 C   0  0  0  0  0  3  0  0  0  0  0  0
  -23.0380  -10.4770   20.0660 C   0  0  0  0  0  3  0  0  0  0  0  0
  -21.8770   -7.2440   21.3460 O   0  0  0  0  0  0  0  0  0  0  0  0
  -21.7210   -6.5840   22.5370 C   0  0  0  0  0  0  0  0  0  0  0  0
  -21.2090   -7.2270   23.6850 C   0  0  0  0  0  3  0  0  0  0  0  0
  -21.0000   -6.4930   24.8700 C   0  0  0  0  0  3  0  0  0  0  0  0
  -21.2930   -5.1160   24.9070 C   0  0  0  0  0  0  0  0  0  0  0  0
  -21.7980   -4.4730   23.7630 C   0  0  0  0  0  3  0  0  0  0  0  0
  -22.0080   -5.2040   22.5820 C   0  0  0  0  0  0  0  0  0  0  0  0
  -22.4750   -4.5740   21.4760 F   0  0  0  0  0  0  0  0  0  0  0  0
  -21.0850   -4.4100   26.0430 F   0  0  0  0  0  0  0  0  0  0  0  0
  -23.1560  -13.8560   21.0490 C   0  0  0  0  0  0  0  0  0  0  0  0
  -22.4530  -13.1810   21.9530 N   0  0  0  0  0  0  0  0  0  0  0  0
  -22.7210  -14.8940   20.5510 O   0  0  0  0  0  0  0  0  0  0  0  0
  -22.8200  -12.3430   22.3770 H   0  0  0  0  0  0  0  0  0  0  0  0
  -21.5380  -13.5070   22.2240 H   0  0  0  0  0  0  0  0  0  0  0  0
  -25.8000  -15.4470   20.1270 N   0  0  0  0  0  0  0  0  0  0  0  0
  -25.0660  -16.1300   20.2810 H   0  0  0  0  0  0  0  0  0  0  0  0
  -26.6600  -15.8600   19.7860 H   0  0  0  0  0  0  0  0  0  0  0  0
  -27.9860  -25.3140   21.3950 C   0  0  0  0  0  2  0  0  0  0  0  0
  -29.0690  -26.3730   21.0850 C   0  0  0  0  0  2  0  0  0  0  0  0
  -28.7590  -27.2050   19.9650 O   0  0  0  0  0  0  0  0  0  0  0  0
  -24.5980  -31.9680   23.2490 C   0  0  0  0  0  0  0  0  0  0  0  0
  -27.5600  -27.8670   20.0270 C   0  0  0  0  0  0  0  0  0  0  0  0
  -23.5090  -30.5770   21.5160 C   0  0  0  0  0  3  0  0  0  0  0  0
  -25.0820  -29.2040   20.0550 C   0  0  0  0  0  0  0  0  0  0  0  0
  -26.0080  -31.1010   21.3910 C   0  0  0  0  0  2  0  0  0  0  0  0
  -26.1890  -29.7660   20.7020 C   0  0  0  0  0  0  0  0  0  0  0  0
  -27.4320  -29.1000   20.6990 C   0  0  0  0  0  3  0  0  0  0  0  0
  -26.4470  -27.3190   19.3600 C   0  0  0  0  0  3  0  0  0  0  0  0
  -25.2010  -27.9740   19.3840 C   0  0  0  0  0  3  0  0  0  0  0  0
  -23.7860  -29.9810   20.1090 C   0  0  0  0  0  2  0  0  0  0  0  0
  -24.7200  -31.2290   22.1120 N   0  0  0  0  0  0  0  0  0  0  0  0
  -23.4920  -32.1500   23.7770 O   0  0  0  0  0  0  0  0  0  0  0  0
  -22.9060  -29.4720   22.4130 C   0  0  0  0  0  0  0  0  0  0  0  0
  -21.5990  -29.2150   22.2460 N   0  0  0  0  0  0  0  0  0  0  0  0
  -23.6120  -28.8510   23.2110 O   0  0  0  0  0  0  0  0  0  0  0  0
  -21.0930  -29.7760   21.5750 H   0  0  0  0  0  0  0  0  0  0  0  0
  -18.2870  -27.8210   22.6230 C   0  0  0  0  0  0  0  0  0  0  0  0
  -20.8230  -28.1940   22.9490 C   0  0  0  0  0  3  0  0  0  0  0  0
  -21.0090  -26.8060   22.2970 C   0  0  0  0  0  2  0  0  0  0  0  0
  -19.9400  -26.4830   21.2490 C   0  0  0  0  0  2  0  0  0  0  0  0
  -18.5430  -26.5200   21.8770 C   0  0  0  0  0  2  0  0  0  0  0  0
  -19.3580  -28.6150   23.1110 C   0  0  0  0  0  0  0  0  0  0  0  0
  -19.0670  -29.8320   23.7640 C   0  0  0  0  0  3  0  0  0  0  0  0
  -17.7360  -30.2570   23.9340 C   0  0  0  0  0  3  0  0  0  0  0  0
  -16.6780  -29.4600   23.4630 C   0  0  0  0  0  3  0  0  0  0  0  0
  -16.9540  -28.2430   22.8130 C   0  0  0  0  0  3  0  0  0  0  0  0
  -25.8330  -32.6420   23.9260 C   0  0  0  0  0  3  0  0  0  0  0  0
  -26.3040  -31.9000   25.2360 C   0  0  1  0  0  0  0  0  0  0  0  0
  -25.1620  -31.6450   26.2480 C   0  0  0  0  0  1  0  0  0  0  0  0
  -26.9420  -30.5360   24.8870 C   0  0  0  0  0  1  0  0  0  0  0  0
  -27.3990  -32.7320   25.9440 C   0  0  0  0  0  1  0  0  0  0  0  0
  -25.4740  -34.0350   24.2160 N   0  0  0  0  0  0  0  0  0  0  0  0
  -25.8190  -35.0830   23.4550 C   0  0  0  0  0  0  0  0  0  0  0  0
  -26.5450  -34.9810   22.4630 O   0  0  0  0  0  0  0  0  0  0  0  0
  -24.8360  -34.1890   24.9830 H   0  0  0  0  0  0  0  0  0  0  0  0
  -24.0610  -36.8140   22.9790 C   0  0  0  0  0  1  0  0  0  0  0  0
  -25.2710  -36.4630   23.8590 C   0  0  0  0  0  3  0  0  0  0  0  0
  -27.3330  -37.4260   24.7770 C   0  0  0  0  0  1  0  0  0  0  0  0
  -26.2780  -37.5430   23.7740 N   0  0  0  0  0  0  0  0  0  0  0  0
  -25.8390  -38.4540   23.8830 H   0  0  0  0  0  0  0  0  0  0  0  0
  2  5  1  0
  3  1  1  0
  4  2  2  0
  4  6  1  0
  5  7  1  0
  5  1  2  0
  6  3  2  0
  8 12  1  0
 10  8  1  0
 10 13  1  0
 11  9  1  0
 12  9  1  0
 12  7  1  0
 13 22  1  0
 13 11  1  0
 14 22  1  0
 15 20  1  0
 16 17  1  0
 16 15  1  0
 18 17  1  0
 18 27  1  0
 18 19  1  0
 20 14  1  0
 20 19  1  0
 21 14  2  0
 22 23  1  0
 24 25  2  0
 25 44  1  0
 26 25  1  0
 26 29  1  0
 27 28  1  0
 27 24  1  0
 28 26  2  0
 29 30  1  0
 30 31  2  0
 32 35  1  0
 32 31  1  0
 33 32  2  0
 34 33  1  0
 34 29  2  0
 35 36  1  0
 36 41  2  0
 36 37  1  0
 37 38  2  0
 38 39  1  0
 39 43  1  0
 40 39  2  0
 41 40  1  0
 42 41  1  0
 44 45  1  0
 45 48  1  0
 45 47  1  0
 46 44  2  0
 49 50  1  0
 49 24  1  0
 51 49  1  0
 52  6  1  0
 53 52  1  0
 54 56  1  0
 54 53  1  0
 55 66  2  0
 56 61  1  0
 57 65  1  0
 57 67  1  0
 58 64  1  0
 58 60  1  0
 59 65  1  0
 60 59  1  0
 61 60  2  0
 62 63  1  0
 62 56  2  0
 63 58  2  0
 64 57  1  0
 65 55  1  0
 67 69  2  0
 68 67  1  0
 70 68  1  0
 71 80  2  0
 71 76  1  0
 72 68  1  0
 72 76  1  0
 73 72  1  0
 74 75  1  0
 74 73  1  0
 75 71  1  0
 76 77  2  0
 77 78  1  0
 79 78  2  0
 80 79  1  0
 81 55  1  0
 81 86  1  0
 81 82  1  0
 82 85  1  1
 82 83  1  0
 84 82  1  0
 86 89  1  0
 87 91  1  0
 87 86  1  0
 88 87  2  0
 91 90  1  0
 93 91  1  0
 93 94  1  0
 93 92  1  0
M  ISO  4  14 100  22 100  53 101  54 101
M  END
>  <TORSDO>  (41) 
F 20

>  <SCORE>  (41) 
-11.329

>  <name>  (41) 
40

>  <ligand_id>  (41) 
40

>  <original_smiles>  (41) 
[H]c1c([H])c([H])c2c(c1[H])C([H])([H])C([H])([H])C([H])([H])C2([H])N([H])C(=O)C1([H])N(C(=O)C([H])(N([H])C(=O)C([H])(N([H])C([H])([H])[H])C([H])([H])[H])C(C([H])([H])[H])(C([H])([H])[H])C([H])([H])[H])C([H])([H])c2c([H])c(OC([H])([H])C([H])([H])c3c([H])c([H])c(C([H])([H])C4([H])C([H])([H])C([H])([H])C([H])(N([H])C(=O)N5C([H])([H])C([H])([H])C([H])([H])C([H])(n6nc(-c7c([H])c([H])c(Oc8c([H])c([H])c(F)c([H])c8F)c([H])c7[H])c(C(=O)N([H])[H])c6N([H])[H])C5([H])[H])C([H])([H])C4([H])[H])c([H])c3[H])c([H])c([H])c2C1([H])[H]

>  <smiles>  (41) 
[H]c1c([H])c([H])c2c(c1[H])C([H])([H])C([H])([H])C([H])([H])C2([H])N([H])C(=O)C1([H])N(C(=O)C([H])(N([H])C(=O)C([H])(N([H])C([H])([H])[H])C([H])([H])[H])C(C([H])([H])[H])(C([H])([H])[H])C([H])([H])[H])C([H])([H])c2c([H])c(OC([H])([H])C([H])([H])c3c([H])c([H])c(C([H])([H])C4([H])C([H])([H])C([H])([H])C([H])(N([H])C(=O)N5C([H])([H])C([H])([H])C([H])([H])C([H])(n6nc(-c7c([H])c([H])c(Oc8c([H])c([H])c(F)c([H])c8F)c([H])c7[H])c(C(=O)N([H])[H])c6N([H])[H])C5([H])[H])C([H])([H])C4([H])[H])c([H])c3[H])c([H])c([H])c2C1([H])[H]

$$$$
41:0:0
     RDKit          3D

 96105  0  0  1  0  0  0  0  0999 V2000
  -24.7730  -20.6350   19.5480 C   0  0  0  0  0  3  0  0  0  0  0  0
  -24.5340  -21.9850   19.8440 C   0  0  0  0  0  3  0  0  0  0  0  0
  -25.9240  -21.2940   17.4980 C   0  0  0  0  0  3  0  0  0  0  0  0
  -25.5900  -20.3120   18.4480 C   0  0  0  0  0  0  0  0  0  0  0  0
  -25.1050  -22.9870   19.0370 C   0  0  0  0  0  0  0  0  0  0  0  0
  -25.6680  -22.6470   17.7790 C   0  0  0  0  0  0  0  0  0  0  0  0
  -26.1560  -23.6770   16.7780 C   0  0  0  0  0  1  0  0  0  0  0  0
  -26.3520  -19.0100   18.4570 C   0  0  0  0  0  2  0  0  0  0  0  0
  -27.2560  -19.0010   19.7200 C   0  0  0  0  0  2  0  0  0  0  0  0
  -31.2630  -15.0450   20.0740 C   0  0  0  0  0  0  0  0  0  0  0  0
  -31.0430  -12.7520   19.2450 C   0  0  0  0  0  2  0  0  0  0  0  0
  -30.1100  -12.7650   18.0170 C   0  0  0  0  0  2  0  0  0  0  0  0
  -28.6310  -12.6630   18.4390 C   0  0  0  0  0  2  0  0  0  0  0  0
  -28.2580  -13.6450   19.5820 C   0  0  0  0  0  3  0  0  0  0  0  0
  -29.3040  -13.6180   20.7210 C   0  0  0  0  0  2  0  0  0  0  0  0
  -30.6280  -13.8490   20.1230 N   0  0  0  0  0  0  0  0  0  0  0  0
  -32.4420  -15.1880   19.7360 O   0  0  0  0  0  0  0  0  0  0  0  0
  -28.8480  -17.3330   18.5350 C   0  0  0  0  0  2  0  0  0  0  0  0
  -29.0870  -17.8530   21.0240 C   0  0  0  0  0  2  0  0  0  0  0  0
  -30.2080  -16.6280   18.6320 C   0  0  0  0  0  2  0  0  0  0  0  0
  -30.4490  -17.1520   20.9800 C   0  0  0  0  0  2  0  0  0  0  0  0
  -28.6690  -18.3880   19.6360 C   0  0  0  0  0  3  0  0  0  0  0  0
  -30.4140  -16.0850   19.9800 N   0  0  0  0  0  0  0  0  0  0  0  0
  -25.8900  -14.3110   20.3500 C   0  0  0  0  0  0  0  0  0  0  0  0
  -24.8040  -13.5560   20.7000 C   0  0  0  0  0  0  0  0  0  0  0  0
  -25.2320  -12.1980   20.6310 C   0  0  0  0  0  0  0  0  0  0  0  0
  -26.9080  -13.4070   20.0810 N   0  0  0  0  0  0  0  0  0  0  0  0
  -26.5190  -12.1300   20.3130 N   0  0  0  0  0  0  0  0  0  0  0  0
  -24.4790  -10.9510   20.7980 C   0  0  0  0  0  0  0  0  0  0  0  0
  -24.8070  -10.0190   21.8070 C   0  0  0  0  0  3  0  0  0  0  0  0
  -24.0550   -8.8360   21.9580 C   0  0  0  0  0  3  0  0  0  0  0  0
  -22.9660   -8.5710   21.0930 C   0  0  0  0  0  0  0  0  0  0  0  0
  -22.6570   -9.4930   20.0780 C   0  0  0  0  0  3  0  0  0  0  0  0
  -23.4070  -10.6700   19.9280 C   0  0  0  0  0  3  0  0  0  0  0  0
  -22.1980   -7.4320   21.1490 O   0  0  0  0  0  0  0  0  0  0  0  0
  -21.9190   -6.8110   22.3410 C   0  0  0  0  0  0  0  0  0  0  0  0
  -21.2330   -7.4750   23.3830 C   0  0  0  0  0  3  0  0  0  0  0  0
  -20.8970   -6.7770   24.5600 C   0  0  0  0  0  3  0  0  0  0  0  0
  -21.2410   -5.4200   24.6990 C   0  0  0  0  0  0  0  0  0  0  0  0
  -21.9230   -4.7560   23.6620 C   0  0  0  0  0  3  0  0  0  0  0  0
  -22.2540   -5.4490   22.4860 C   0  0  0  0  0  0  0  0  0  0  0  0
  -22.8870   -4.7990   21.4790 F   0  0  0  0  0  0  0  0  0  0  0  0
  -20.9140   -4.7510   25.8280 F   0  0  0  0  0  0  0  0  0  0  0  0
  -23.4260  -14.0700   21.0120 C   0  0  0  0  0  0  0  0  0  0  0  0
  -22.6960  -13.3730   21.8800 N   0  0  0  0  0  0  0  0  0  0  0  0
  -23.0100  -15.1150   20.5200 O   0  0  0  0  0  0  0  0  0  0  0  0
  -23.0550  -12.5350   22.3070 H   0  0  0  0  0  0  0  0  0  0  0  0
  -21.7720  -13.6920   22.1410 H   0  0  0  0  0  0  0  0  0  0  0  0
  -26.0800  -15.6800   20.2290 N   0  0  0  0  0  0  0  0  0  0  0  0
  -25.3340  -16.3350   20.4390 H   0  0  0  0  0  0  0  0  0  0  0  0
  -26.9740  -16.1220   20.0510 H   0  0  0  0  0  0  0  0  0  0  0  0
  -25.3650  -24.3280   19.6900 C   0  0  0  0  0  2  0  0  0  0  0  0
  -26.6290  -24.1990   20.5870 C   0  0  0  0  0  2  0  0  0  0  0  0
  -27.4820  -25.4570   20.7890 C   0  0  0  0  0  2  0  0  0  0  0  0
  -28.1290  -25.9570   19.4780 C   0  0  0  0  0  2  0  0  0  0  0  0
  -28.3050  -27.3680   19.5180 O   0  0  0  0  0  0  0  0  0  0  0  0
  -24.6780  -31.9590   23.5350 C   0  0  0  0  0  0  0  0  0  0  0  0
  -27.1540  -28.1080   19.6440 C   0  0  0  0  0  0  0  0  0  0  0  0
  -23.3950  -30.8550   21.7310 C   0  0  0  0  0  3  0  0  0  0  0  0
  -24.7810  -29.5870   20.0130 C   0  0  0  0  0  0  0  0  0  0  0  0
  -25.9200  -31.2220   21.5110 C   0  0  0  0  0  2  0  0  0  0  0  0
  -25.9610  -29.9770   20.6590 C   0  0  0  0  0  0  0  0  0  0  0  0
  -27.1430  -29.2240   20.5000 C   0  0  0  0  0  3  0  0  0  0  0  0
  -25.9780  -27.7860   18.9300 C   0  0  0  0  0  3  0  0  0  0  0  0
  -24.7820  -28.4850   19.1490 C   0  0  0  0  0  3  0  0  0  0  0  0
  -23.5490  -30.4250   20.2500 C   0  0  0  0  0  2  0  0  0  0  0  0
  -24.6850  -31.3490   22.3170 N   0  0  0  0  0  0  0  0  0  0  0  0
  -23.6200  -32.1450   24.1500 O   0  0  0  0  0  0  0  0  0  0  0  0
  -22.7670  -29.6880   22.5310 C   0  0  0  0  0  0  0  0  0  0  0  0
  -21.4440  -29.5020   22.3810 N   0  0  0  0  0  0  0  0  0  0  0  0
  -23.4620  -28.9670   23.2490 O   0  0  0  0  0  0  0  0  0  0  0  0
  -20.9390  -30.1390   21.7800 H   0  0  0  0  0  0  0  0  0  0  0  0
  -18.1100  -28.1520   22.6510 C   0  0  0  0  0  0  0  0  0  0  0  0
  -20.6480  -28.4540   23.0170 C   0  0  0  0  0  3  0  0  0  0  0  0
  -20.8080  -27.1030   22.2850 C   0  0  0  0  0  2  0  0  0  0  0  0
  -19.7440  -26.8760   21.2070 C   0  0  0  0  0  2  0  0  0  0  0  0
  -18.3470  -26.8990   21.8240 C   0  0  0  0  0  2  0  0  0  0  0  0
  -19.1910  -28.8900   23.1970 C   0  0  0  0  0  0  0  0  0  0  0  0
  -18.9110  -30.0670   23.9270 C   0  0  0  0  0  3  0  0  0  0  0  0
  -17.5840  -30.5010   24.1130 C   0  0  0  0  0  3  0  0  0  0  0  0
  -16.5190  -29.7520   23.5820 C   0  0  0  0  0  3  0  0  0  0  0  0
  -16.7830  -28.5800   22.8520 C   0  0  0  0  0  3  0  0  0  0  0  0
  -25.9960  -32.4740   24.1950 C   0  0  0  0  0  3  0  0  0  0  0  0
  -25.7530  -33.8480   24.6500 N   0  0  0  0  0  0  0  0  0  0  0  0
  -26.1460  -34.9450   23.9920 C   0  0  0  0  0  0  0  0  0  0  0  0
  -26.8260  -34.9000   22.9620 O   0  0  0  0  0  0  0  0  0  0  0  0
  -25.1690  -33.9650   25.4650 H   0  0  0  0  0  0  0  0  0  0  0  0
  -24.5310  -36.8570   23.7680 C   0  0  0  0  0  1  0  0  0  0  0  0
  -25.7240  -36.3090   24.5660 C   0  0  0  0  0  3  0  0  0  0  0  0
  -27.8780  -36.9960   25.5270 C   0  0  0  0  0  1  0  0  0  0  0  0
  -26.8130  -37.3090   24.5770 N   0  0  0  0  0  0  0  0  0  0  0  0
  -26.4550  -38.2350   24.7920 H   0  0  0  0  0  0  0  0  0  0  0  0
  -26.4870  -31.5670   25.3900 C   0  0  1  0  0  0  0  0  0  0  0  0
  -25.3940  -31.2860   26.4450 C   0  0  0  0  0  1  0  0  0  0  0  0
  -27.0010  -30.2040   24.8690 C   0  0  0  0  0  1  0  0  0  0  0  0
  -27.6850  -32.2380   26.1010 C   0  0  0  0  0  1  0  0  0  0  0  0
  1  2  1  0
  3  6  2  0
  3  4  1  0
  4  8  1  0
  4  1  2  0
  5 52  1  0
  5  2  2  0
  6  5  1  0
  7  6  1  0
  8  9  1  0
 10 16  1  0
 11 16  1  0
 12 13  1  0
 12 11  1  0
 14 13  1  0
 14 27  1  0
 14 15  1  0
 16 15  1  0
 17 10  2  0
 18 20  1  0
 18 22  1  0
 20 23  1  0
 21 19  1  0
 22  9  1  0
 22 19  1  0
 23 10  1  0
 23 21  1  0
 24 25  2  0
 25 44  1  0
 26 25  1  0
 26 29  1  0
 27 28  1  0
 27 24  1  0
 28 26  2  0
 29 30  1  0
 30 31  2  0
 32 35  1  0
 32 31  1  0
 33 32  2  0
 34 33  1  0
 34 29  2  0
 35 36  1  0
 36 41  2  0
 36 37  1  0
 37 38  2  0
 38 39  1  0
 39 43  1  0
 40 39  2  0
 41 40  1  0
 42 41  1  0
 44 45  1  0
 45 48  1  0
 45 47  1  0
 46 44  2  0
 49 24  1  0
 49 50  1  0
 51 49  1  0
 52 53  1  0
 53 54  1  0
 55 56  1  0
 55 54  1  0
 56 58  1  0
 57 68  2  0
 58 63  1  0
 59 67  1  0
 59 69  1  0
 60 66  1  0
 60 62  1  0
 61 67  1  0
 62 61  1  0
 63 62  2  0
 64 65  1  0
 64 58  2  0
 65 60  2  0
 66 59  1  0
 67 57  1  0
 69 71  2  0
 70 69  1  0
 72 70  1  0
 73 82  2  0
 73 78  1  0
 74 70  1  0
 74 78  1  0
 75 74  1  0
 76 77  1  0
 76 75  1  0
 77 73  1  0
 78 79  2  0
 79 80  1  0
 81 80  2  0
 82 81  1  0
 83 57  1  0
 83 84  1  0
 83 93  1  0
 84 87  1  0
 85 89  1  0
 85 84  1  0
 86 85  2  0
 89 88  1  0
 89 91  1  0
 91 92  1  0
 91 90  1  0
 93 96  1  1
 93 94  1  0
 95 93  1  0
M  ISO  4  10 100  23 100  55 101  56 101
M  END
>  <TORSDO>  (42) 
F 22

>  <SCORE>  (42) 
-8.349

>  <name>  (42) 
41

>  <ligand_id>  (42) 
41

>  <original_smiles>  (42) 
[H]c1c([H])c([H])c2c(c1[H])C([H])([H])C([H])([H])C([H])([H])C2([H])N([H])C(=O)C1([H])N(C(=O)C([H])(N([H])C(=O)C([H])(N([H])C([H])([H])[H])C([H])([H])[H])C(C([H])([H])[H])(C([H])([H])[H])C([H])([H])[H])C([H])([H])c2c([H])c(OC([H])([H])C([H])([H])C([H])([H])C([H])([H])c3c([H])c([H])c(C([H])([H])C([H])([H])C4([H])C([H])([H])C([H])([H])N(C(=O)N5C([H])([H])C([H])([H])C([H])([H])C([H])(n6nc(-c7c([H])c([H])c(Oc8c([H])c([H])c(F)c([H])c8F)c([H])c7[H])c(C(=O)N([H])[H])c6N([H])[H])C5([H])[H])C([H])([H])C4([H])[H])c([H])c3C([H])([H])[H])c([H])c([H])c2C1([H])[H]

>  <smiles>  (42) 
[H]c1c([H])c([H])c2c(c1[H])C([H])([H])C([H])([H])C([H])([H])C2([H])N([H])C(=O)C1([H])N(C(=O)C([H])(N([H])C(=O)C([H])(N([H])C([H])([H])[H])C([H])([H])[H])C(C([H])([H])[H])(C([H])([H])[H])C([H])([H])[H])C([H])([H])c2c([H])c(OC([H])([H])C([H])([H])C([H])([H])C([H])([H])c3c([H])c([H])c(C([H])([H])C([H])([H])C4([H])C([H])([H])C([H])([H])N(C(=O)N5C([H])([H])C([H])([H])C([H])([H])C([H])(n6nc(-c7c([H])c([H])c(Oc8c([H])c([H])c(F)c([H])c8F)c([H])c7[H])c(C(=O)N([H])[H])c6N([H])[H])C5([H])[H])C([H])([H])C4([H])[H])c([H])c3C([H])([H])[H])c([H])c([H])c2C1([H])[H]

$$$$
42:0:0
     RDKit          3D

 94101  0  0  1  0  0  0  0  0999 V2000
  -28.8040  -24.8980   15.8420 C   0  0  0  0  0  3  0  0  0  0  0  0
  -28.2000  -26.1510   16.3730 N   0  0  0  0  0  4  0  0  0  0  0  0
  -27.2080  -26.0050   16.4830 H   0  0  0  0  0  0  0  0  0  0  0  0
  -28.5710  -26.2770   17.3040 H   0  0  0  0  0  0  0  0  0  0  0  0
  -28.4250  -27.4030   15.6050 C   0  0  0  0  0  2  0  0  0  0  0  0
  -29.5220  -28.2860   16.2490 C   0  0  0  0  0  2  0  0  0  0  0  0
  -29.9190  -29.3650   15.3980 O   0  0  0  0  0  0  0  0  0  0  0  0
  -36.1860  -30.1610   12.1700 C   0  0  0  0  0  0  0  0  0  0  0  0
  -30.6360  -29.1130   14.2430 C   0  0  0  0  0  0  0  0  0  0  0  0
  -34.3570  -29.3060   10.7390 C   0  0  0  0  0  3  0  0  0  0  0  0
  -32.2300  -28.6060   11.9600 C   0  0  0  0  0  0  0  0  0  0  0  0
  -34.3490  -28.8730   13.2600 C   0  0  0  0  0  2  0  0  0  0  0  0
  -32.8380  -28.8690   13.1930 C   0  0  0  0  0  0  0  0  0  0  0  0
  -32.0440  -29.1200   14.3330 C   0  0  0  0  0  3  0  0  0  0  0  0
  -30.0390  -28.8490   12.9870 C   0  0  0  0  0  3  0  0  0  0  0  0
  -30.8300  -28.6040   11.8480 C   0  0  0  0  0  3  0  0  0  0  0  0
  -33.1470  -28.3340   10.7880 C   0  0  0  0  0  2  0  0  0  0  0  0
  -35.0010  -29.4920   12.0800 N   0  0  0  0  0  0  0  0  0  0  0  0
  -36.7620  -30.5820   11.1570 O   0  0  0  0  0  0  0  0  0  0  0  0
  -33.8960  -30.6310   10.0940 C   0  0  0  0  0  0  0  0  0  0  0  0
  -33.8490  -30.6590    8.7520 N   0  0  0  0  0  0  0  0  0  0  0  0
  -33.5640  -31.5930   10.7940 O   0  0  0  0  0  0  0  0  0  0  0  0
  -34.1440  -29.8290    8.2540 H   0  0  0  0  0  0  0  0  0  0  0  0
  -34.4260  -32.3840    5.6310 C   0  0  0  0  0  0  0  0  0  0  0  0
  -33.4080  -31.7860    7.9300 C   0  0  0  0  0  3  0  0  0  0  0  0
  -32.1180  -31.4360    7.1520 C   0  0  0  0  0  2  0  0  0  0  0  0
  -32.3920  -30.8870    5.7490 C   0  0  0  0  0  2  0  0  0  0  0  0
  -33.1730  -31.9070    4.9160 C   0  0  0  0  0  2  0  0  0  0  0  0
  -34.5420  -32.3130    7.0430 C   0  0  0  0  0  0  0  0  0  0  0  0
  -35.7420  -32.7390    7.6550 C   0  0  0  0  0  3  0  0  0  0  0  0
  -36.8120  -33.2240    6.8800 C   0  0  0  0  0  3  0  0  0  0  0  0
  -36.6870  -33.3020    5.4820 C   0  0  0  0  0  3  0  0  0  0  0  0
  -35.4960  -32.8900    4.8620 C   0  0  0  0  0  3  0  0  0  0  0  0
  -36.8810  -30.4070   13.5460 C   0  0  0  0  0  3  0  0  0  0  0  0
  -36.6410  -31.8600   14.1120 C   0  0  1  0  0  0  0  0  0  0  0  0
  -37.5810  -32.9280   13.5060 C   0  0  0  0  0  1  0  0  0  0  0  0
  -35.1850  -32.3100   13.8560 C   0  0  0  0  0  1  0  0  0  0  0  0
  -36.8410  -31.8630   15.6470 C   0  0  0  0  0  1  0  0  0  0  0  0
  -38.3160  -30.1500   13.3680 N   0  0  0  0  0  0  0  0  0  0  0  0
  -38.9470  -29.0450   13.7900 C   0  0  0  0  0  0  0  0  0  0  0  0
  -38.3860  -28.1620   14.4440 O   0  0  0  0  0  0  0  0  0  0  0  0
  -38.8260  -30.8060   12.7950 H   0  0  0  0  0  0  0  0  0  0  0  0
  -40.6260  -27.6950   12.4910 C   0  0  0  0  0  1  0  0  0  0  0  0
  -40.4380  -28.8970   13.4300 C   0  0  0  0  0  3  0  0  0  0  0  0
  -41.4240  -29.9660   15.4090 C   0  0  0  0  0  1  0  0  0  0  0  0
  -41.3150  -28.7470   14.6120 N   0  0  0  0  0  0  0  0  0  0  0  0
  -42.2510  -28.4640   14.3330 H   0  0  0  0  0  0  0  0  0  0  0  0
  -29.7820  -25.1280   14.6640 C   0  0  0  0  0  2  0  0  0  0  0  0
  -29.6370  -24.1190   13.5020 C   0  0  0  0  0  2  0  0  0  0  0  0
  -30.7440  -23.0480   13.4580 C   0  0  0  0  0  2  0  0  0  0  0  0
  -30.2160  -21.6400   13.0890 C   0  0  0  0  0  2  0  0  0  0  0  0
  -30.8520  -21.0730   11.8050 C   0  0  0  0  0  2  0  0  0  0  0  0
  -30.1080  -21.4800   10.5200 C   0  0  0  0  0  2  0  0  0  0  0  0
  -27.7830  -21.1160    9.7950 C   0  0  0  0  0  0  0  0  0  0  0  0
  -26.4420  -21.8220    7.8440 C   0  0  0  0  0  2  0  0  0  0  0  0
  -27.1980  -21.5890    6.5210 C   0  0  0  0  0  2  0  0  0  0  0  0
  -28.1180  -22.7820    6.1950 C   0  0  0  0  0  2  0  0  0  0  0  0
  -29.0020  -23.1910    7.4030 C   0  0  0  0  0  3  0  0  0  0  0  0
  -28.1350  -23.3480    8.6710 C   0  0  0  0  0  2  0  0  0  0  0  0
  -27.4300  -22.0770    8.9010 N   0  0  0  0  0  0  0  0  0  0  0  0
  -27.2480  -20.0030    9.8390 O   0  0  0  0  0  0  0  0  0  0  0  0
  -28.6580  -21.4820   10.7430 N   0  0  0  0  0  0  0  0  0  0  0  0
  -28.4440  -21.0450   11.6280 H   0  0  0  0  0  0  0  0  0  0  0  0
  -31.1350  -24.5910    7.0670 C   0  0  0  0  0  0  0  0  0  0  0  0
  -31.3200  -25.9000    6.7080 C   0  0  0  0  0  0  0  0  0  0  0  0
  -30.0140  -26.4550    6.5560 C   0  0  0  0  0  0  0  0  0  0  0  0
  -29.7630  -24.4060    7.1260 N   0  0  0  0  0  0  0  0  0  0  0  0
  -29.0900  -25.5550    6.8650 N   0  0  0  0  0  0  0  0  0  0  0  0
  -29.5840  -27.7750    6.0780 C   0  0  0  0  0  0  0  0  0  0  0  0
  -28.9680  -28.7080    6.9400 C   0  0  0  0  0  3  0  0  0  0  0  0
  -28.5790  -29.9770    6.4580 C   0  0  0  0  0  3  0  0  0  0  0  0
  -28.8090  -30.3230    5.1050 C   0  0  0  0  0  0  0  0  0  0  0  0
  -29.4010  -29.3790    4.2470 C   0  0  0  0  0  3  0  0  0  0  0  0
  -29.7810  -28.1150    4.7260 C   0  0  0  0  0  3  0  0  0  0  0  0
  -28.4460  -31.5220    4.5440 O   0  0  0  0  0  0  0  0  0  0  0  0
  -29.3650  -32.5140    4.3090 C   0  0  0  0  0  0  0  0  0  0  0  0
  -29.9610  -32.6950    3.0420 C   0  0  0  0  0  3  0  0  0  0  0  0
  -30.8470  -33.7700    2.8290 C   0  0  0  0  0  3  0  0  0  0  0  0
  -31.1300  -34.6680    3.8740 C   0  0  0  0  0  0  0  0  0  0  0  0
  -30.5350  -34.4920    5.1350 C   0  0  0  0  0  3  0  0  0  0  0  0
  -29.6530  -33.4190    5.3520 C   0  0  0  0  0  0  0  0  0  0  0  0
  -29.0650  -33.2660    6.5630 F   0  0  0  0  0  0  0  0  0  0  0  0
  -31.9770  -35.7050    3.6670 F   0  0  0  0  0  0  0  0  0  0  0  0
  -32.6310  -26.5750    6.4300 C   0  0  0  0  0  0  0  0  0  0  0  0
  -32.9490  -27.6210    7.1840 N   0  0  0  0  0  0  0  0  0  0  0  0
  -33.4030  -26.1450    5.5750 O   0  0  0  0  0  0  0  0  0  0  0  0
  -32.3180  -27.9580    7.8950 H   0  0  0  0  0  0  0  0  0  0  0  0
  -33.8340  -28.0910    7.0490 H   0  0  0  0  0  0  0  0  0  0  0  0
  -32.0140  -23.5460    7.3290 N   0  0  0  0  0  0  0  0  0  0  0  0
  -33.0170  -23.6500    7.2220 H   0  0  0  0  0  0  0  0  0  0  0  0
  -31.7360  -22.5940    7.5330 H   0  0  0  0  0  0  0  0  0  0  0  0
  -29.4330  -24.0330   16.9650 C   0  0  0  0  0  2  0  0  0  0  0  0
  -29.0280  -22.6770   16.8660 O   0  0  0  0  0  0  0  0  0  0  0  0
  -29.4960  -22.1810   17.5320 H   0  0  0  0  0  0  0  0  0  0  0  0
  1 48  1  0
  1  2  1  0
  1 92  1  0
  2  3  1  0
  2  4  1  0
  5  6  1  0
  5  2  1  0
  7  6  1  0
  9 14  1  0
  9  7  1  0
 10 20  1  0
 10 17  1  0
 10 18  1  0
 11 13  1  0
 13 12  1  0
 13 14  2  0
 15  9  2  0
 16 11  2  0
 16 15  1  0
 17 11  1  0
 18  8  1  0
 18 12  1  0
 19  8  2  0
 20 22  2  0
 21 20  1  0
 23 21  1  0
 24 29  1  0
 25 21  1  0
 26 25  1  0
 27 26  1  0
 28 24  1  0
 28 27  1  0
 29 30  2  0
 29 25  1  0
 31 30  1  0
 32 31  2  0
 33 32  1  0
 33 24  2  0
 34  8  1  0
 34 35  1  0
 35 38  1  1
 36 35  1  0
 37 35  1  0
 39 34  1  0
 39 40  1  0
 40 41  2  0
 42 39  1  0
 44 43  1  0
 44 40  1  0
 44 46  1  0
 46 45  1  0
 47 46  1  0
 49 48  1  0
 50 49  1  0
 51 50  1  0
 52 51  1  0
 53 62  1  0
 53 52  1  0
 54 61  2  0
 54 62  1  0
 55 60  1  0
 56 55  1  0
 57 56  1  0
 58 57  1  0
 58 59  1  0
 59 60  1  0
 60 54  1  0
 62 63  1  0
 64 67  1  0
 64 89  1  0
 65 64  2  0
 66 65  1  0
 66 68  2  0
 67 58  1  0
 68 67  1  0
 69 66  1  0
 69 70  1  0
 71 70  2  0
 72 71  1  0
 73 74  1  0
 73 72  2  0
 74 69  2  0
 75 72  1  0
 76 75  1  0
 76 81  1  0
 77 76  2  0
 78 77  1  0
 78 79  2  0
 79 80  1  0
 80 81  2  0
 81 82  1  0
 83 79  1  0
 84 65  1  0
 84 85  1  0
 85 87  1  0
 86 84  2  0
 88 85  1  0
 89 91  1  0
 90 89  1  0
 93 92  1  0
 93 94  1  0
M  ISO  4   6 101   7 101  54 100  62 100
M  END
>  <TORSDO>  (43) 
F 27

>  <SCORE>  (43) 
-2.828

>  <name>  (43) 
42

>  <ligand_id>  (43) 
42

>  <original_smiles>  (43) 
[H]OC([H])([H])C([H])(C([H])([H])C([H])([H])C([H])([H])C([H])([H])C([H])([H])C([H])([H])N([H])C(=O)N1C([H])([H])C([H])([H])C([H])([H])C([H])(n2nc(-c3c([H])c([H])c(Oc4c([H])c([H])c(F)c([H])c4F)c([H])c3[H])c(C(=O)N([H])[H])c2N([H])[H])C1([H])[H])[N+]([H])([H])C([H])([H])C([H])([H])Oc1c([H])c([H])c2c(c1[H])C([H])([H])N(C(=O)C([H])(N([H])C(=O)C([H])(N([H])C([H])([H])[H])C([H])([H])[H])C(C([H])([H])[H])(C([H])([H])[H])C([H])([H])[H])C([H])(C(=O)N([H])C1([H])c3c([H])c([H])c([H])c([H])c3C([H])([H])C([H])([H])C1([H])[H])C2([H])[H]

>  <smiles>  (43) 
[H]OC([H])([H])C([H])(C([H])([H])C([H])([H])C([H])([H])C([H])([H])C([H])([H])C([H])([H])N([H])C(=O)N1C([H])([H])C([H])([H])C([H])([H])C([H])(n2nc(-c3c([H])c([H])c(Oc4c([H])c([H])c(F)c([H])c4F)c([H])c3[H])c(C(=O)N([H])[H])c2N([H])[H])C1([H])[H])[N+]([H])([H])C([H])([H])C([H])([H])Oc1c([H])c([H])c2c(c1[H])C([H])([H])N(C(=O)C([H])(N([H])C(=O)C([H])(N([H])C([H])([H])[H])C([H])([H])[H])C(C([H])([H])[H])(C([H])([H])[H])C([H])([H])[H])C([H])(C(=O)N([H])C1([H])c3c([H])c([H])c([H])c([H])c3C([H])([H])C([H])([H])C1([H])[H])C2([H])[H]

$$$$
43:0:0
     RDKit          3D

 97105  0  0  1  0  0  0  0  0999 V2000
  -28.0170  -23.5290   25.3660 C   0  0  0  0  0  3  0  0  0  0  0  0
  -26.8200  -22.8290   25.1180 C   0  0  0  0  0  3  0  0  0  0  0  0
  -28.3960  -24.5990   24.5310 C   0  0  0  0  0  3  0  0  0  0  0  0
  -26.3630  -24.2830   23.2220 C   0  0  0  0  0  3  0  0  0  0  0  0
  -25.9970  -23.1860   24.0280 C   0  0  0  0  0  0  0  0  0  0  0  0
  -27.5720  -24.9710   23.4510 C   0  0  0  0  0  0  0  0  0  0  0  0
  -24.7520  -22.4250   23.7540 C   0  0  0  0  0  0  0  0  0  0  0  0
  -24.0180  -21.9810   24.6410 O   0  0  0  0  0  0  0  0  0  0  0  0
  -24.4410  -22.1130   22.2840 C   0  0  0  0  0  2  0  0  0  0  0  0
  -25.0010  -20.7520   21.8080 C   0  0  0  0  0  2  0  0  0  0  0  0
  -26.5350  -20.5870   21.9120 C   0  0  0  0  0  2  0  0  0  0  0  0
  -27.0600  -19.3160   21.2200 C   0  0  0  0  0  2  0  0  0  0  0  0
  -28.5590  -19.0770   21.4750 C   0  0  0  0  0  2  0  0  0  0  0  0
  -29.1280  -17.9230   20.6310 C   0  0  0  0  0  2  0  0  0  0  0  0
  -30.5970  -17.5860   20.9570 C   0  0  0  0  0  2  0  0  0  0  0  0
  -30.7940  -16.4840   22.0200 C   0  0  0  0  0  2  0  0  0  0  0  0
  -30.7560  -14.3710   20.6790 C   0  0  0  0  0  0  0  0  0  0  0  0
  -30.4170  -12.2890   19.3950 C   0  0  0  0  0  2  0  0  0  0  0  0
  -29.4820  -12.5230   18.1920 C   0  0  0  0  0  2  0  0  0  0  0  0
  -28.0060  -12.3830   18.6100 C   0  0  0  0  0  2  0  0  0  0  0  0
  -27.6660  -13.2020   19.8830 C   0  0  0  0  0  3  0  0  0  0  0  0
  -28.7050  -12.9360   20.9940 C   0  0  0  0  0  2  0  0  0  0  0  0
  -30.0460  -13.2350   20.4580 N   0  0  0  0  0  0  0  0  0  0  0  0
  -31.7990  -14.6460   20.0780 O   0  0  0  0  0  0  0  0  0  0  0  0
  -30.2440  -15.1920   21.6050 N   0  0  0  0  0  0  0  0  0  0  0  0
  -29.4060  -14.8760   22.0710 H   0  0  0  0  0  0  0  0  0  0  0  0
  -25.2600  -13.8150   20.5680 C   0  0  0  0  0  0  0  0  0  0  0  0
  -24.1840  -13.0440   20.9150 C   0  0  0  0  0  0  0  0  0  0  0  0
  -24.6390  -11.6910   20.8720 C   0  0  0  0  0  0  0  0  0  0  0  0
  -26.3040  -12.9320   20.3400 N   0  0  0  0  0  0  0  0  0  0  0  0
  -25.9310  -11.6480   20.5760 N   0  0  0  0  0  0  0  0  0  0  0  0
  -23.9050  -10.4290   21.0400 C   0  0  0  0  0  0  0  0  0  0  0  0
  -24.3600   -9.4210   21.9180 C   0  0  0  0  0  3  0  0  0  0  0  0
  -23.6280   -8.2240   22.0760 C   0  0  0  0  0  3  0  0  0  0  0  0
  -22.4270   -8.0270   21.3540 C   0  0  0  0  0  0  0  0  0  0  0  0
  -21.9890   -9.0250   20.4640 C   0  0  0  0  0  3  0  0  0  0  0  0
  -22.7220  -10.2140   20.3050 C   0  0  0  0  0  3  0  0  0  0  0  0
  -21.6630   -6.8860   21.4240 O   0  0  0  0  0  0  0  0  0  0  0  0
  -21.6860   -6.0720   22.5270 C   0  0  0  0  0  0  0  0  0  0  0  0
  -21.4010   -6.5630   23.8210 C   0  0  0  0  0  3  0  0  0  0  0  0
  -21.3660   -5.6790   24.9170 C   0  0  0  0  0  3  0  0  0  0  0  0
  -21.6050   -4.3050   24.7220 C   0  0  0  0  0  0  0  0  0  0  0  0
  -21.8820   -3.8140   23.4340 C   0  0  0  0  0  3  0  0  0  0  0  0
  -21.9190   -4.6950   22.3390 C   0  0  0  0  0  0  0  0  0  0  0  0
  -22.1660   -4.2130   21.0980 F   0  0  0  0  0  0  0  0  0  0  0  0
  -21.5630   -3.4540   25.7740 F   0  0  0  0  0  0  0  0  0  0  0  0
  -22.7870  -13.5240   21.1830 C   0  0  0  0  0  0  0  0  0  0  0  0
  -22.0510  -12.8240   22.0380 N   0  0  0  0  0  0  0  0  0  0  0  0
  -22.3550  -14.5540   20.6670 O   0  0  0  0  0  0  0  0  0  0  0  0
  -22.4130  -11.9900   22.4770 H   0  0  0  0  0  0  0  0  0  0  0  0
  -21.1130  -13.1270   22.2590 H   0  0  0  0  0  0  0  0  0  0  0  0
  -25.4350  -15.1870   20.4090 N   0  0  0  0  0  0  0  0  0  0  0  0
  -24.6750  -15.8470   20.5230 H   0  0  0  0  0  0  0  0  0  0  0  0
  -26.2960  -15.6210   20.1040 H   0  0  0  0  0  0  0  0  0  0  0  0
  -27.9490  -26.1120   22.5290 C   0  0  0  0  0  2  0  0  0  0  0  0
  -28.2360  -25.6440   21.0780 C   0  0  0  0  0  2  0  0  0  0  0  0
  -28.3750  -26.7330   20.1610 O   0  0  0  0  0  0  0  0  0  0  0  0
  -24.6130  -31.8690   23.2090 C   0  0  0  0  0  0  0  0  0  0  0  0
  -27.2350  -27.4860   20.0730 C   0  0  0  0  0  0  0  0  0  0  0  0
  -23.3960  -30.4890   21.5520 C   0  0  0  0  0  3  0  0  0  0  0  0
  -24.8410  -28.9630   20.1070 C   0  0  0  0  0  0  0  0  0  0  0  0
  -25.9180  -30.8520   21.3490 C   0  0  0  0  0  2  0  0  0  0  0  0
  -26.0000  -29.4950   20.6860 C   0  0  0  0  0  0  0  0  0  0  0  0
  -27.2030  -28.7660   20.6610 C   0  0  0  0  0  3  0  0  0  0  0  0
  -26.0670  -26.9570   19.4850 C   0  0  0  0  0  3  0  0  0  0  0  0
  -24.8680  -27.6940   19.5020 C   0  0  0  0  0  3  0  0  0  0  0  0
  -23.5980  -29.8190   20.1650 C   0  0  0  0  0  2  0  0  0  0  0  0
  -24.6600  -31.0850   22.0940 N   0  0  0  0  0  0  0  0  0  0  0  0
  -23.5330  -32.1380   23.7530 O   0  0  0  0  0  0  0  0  0  0  0  0
  -22.7420  -29.4620   22.5020 C   0  0  0  0  0  0  0  0  0  0  0  0
  -21.4150  -29.3010   22.3780 N   0  0  0  0  0  0  0  0  0  0  0  0
  -23.4230  -28.8160   23.3020 O   0  0  0  0  0  0  0  0  0  0  0  0
  -20.9330  -29.8850   21.7090 H   0  0  0  0  0  0  0  0  0  0  0  0
  -18.0270  -28.1370   22.8500 C   0  0  0  0  0  0  0  0  0  0  0  0
  -20.5860  -28.3620   23.1350 C   0  0  0  0  0  3  0  0  0  0  0  0
  -20.6740  -26.9360   22.5450 C   0  0  0  0  0  2  0  0  0  0  0  0
  -19.5730  -26.6370   21.5230 C   0  0  0  0  0  2  0  0  0  0  0  0
  -18.1900  -26.7920   22.1630 C   0  0  0  0  0  2  0  0  0  0  0  0
  -19.1530  -28.8820   23.2910 C   0  0  0  0  0  0  0  0  0  0  0  0
  -18.9480  -30.1440   23.8890 C   0  0  0  0  0  3  0  0  0  0  0  0
  -17.6490  -30.6580   24.0560 C   0  0  0  0  0  3  0  0  0  0  0  0
  -16.5360  -29.9090   23.6330 C   0  0  0  0  0  3  0  0  0  0  0  0
  -16.7270  -28.6520   23.0320 C   0  0  0  0  0  3  0  0  0  0  0  0
  -25.9050  -32.4830   23.8350 C   0  0  0  0  0  3  0  0  0  0  0  0
  -26.4480  -31.6600   25.0680 C   0  0  1  0  0  0  0  0  0  0  0  0
  -25.3760  -31.3740   26.1450 C   0  0  0  0  0  1  0  0  0  0  0  0
  -27.0330  -30.3030   24.6080 C   0  0  0  0  0  1  0  0  0  0  0  0
  -27.6030  -32.4340   25.7470 C   0  0  0  0  0  1  0  0  0  0  0  0
  -25.5940  -33.8610   24.2290 N   0  0  0  0  0  0  0  0  0  0  0  0
  -25.9070  -34.9470   23.5100 C   0  0  0  0  0  0  0  0  0  0  0  0
  -26.5620  -34.8940   22.4670 O   0  0  0  0  0  0  0  0  0  0  0  0
  -25.0100  -33.9750   25.0440 H   0  0  0  0  0  0  0  0  0  0  0  0
  -24.1520  -36.7310   23.2630 C   0  0  0  0  0  1  0  0  0  0  0  0
  -25.4140  -36.3110   24.0320 C   0  0  0  0  0  3  0  0  0  0  0  0
  -27.5600  -37.1800   24.8460 C   0  0  0  0  0  1  0  0  0  0  0  0
  -26.4320  -37.3800   23.9420 N   0  0  0  0  0  0  0  0  0  0  0  0
  -26.0220  -38.2890   24.1390 H   0  0  0  0  0  0  0  0  0  0  0  0
  2  1  1  0
  3  1  2  0
  4  6  2  0
  4  5  1  0
  5  2  2  0
  6  3  1  0
  7  5  1  0
  7  8  2  0
  9  7  1  0
 10 11  1  0
 10  9  1  0
 12 13  1  0
 12 11  1  0
 14 15  1  0
 14 13  1  0
 15 16  1  0
 17 25  1  0
 18 23  1  0
 19 20  1  0
 19 18  1  0
 21 20  1  0
 21 30  1  0
 21 22  1  0
 23 17  1  0
 23 22  1  0
 24 17  2  0
 25 16  1  0
 25 26  1  0
 27 28  2  0
 28 47  1  0
 29 28  1  0
 29 32  1  0
 30 27  1  0
 30 31  1  0
 31 29  2  0
 32 33  1  0
 33 34  2  0
 35 38  1  0
 35 34  1  0
 36 35  2  0
 37 36  1  0
 37 32  2  0
 38 39  1  0
 39 40  1  0
 40 41  2  0
 42 41  1  0
 42 46  1  0
 43 42  2  0
 44 39  2  0
 44 43  1  0
 45 44  1  0
 47 48  1  0
 48 51  1  0
 48 50  1  0
 49 47  2  0
 52 53  1  0
 52 27  1  0
 54 52  1  0
 55  6  1  0
 56 55  1  0
 57 56  1  0
 58 69  2  0
 59 57  1  0
 59 64  1  0
 60 68  1  0
 60 70  1  0
 61 67  1  0
 61 63  1  0
 62 68  1  0
 63 62  1  0
 64 63  2  0
 65 66  1  0
 65 59  2  0
 66 61  2  0
 67 60  1  0
 68 58  1  0
 70 72  2  0
 71 70  1  0
 73 71  1  0
 74 83  2  0
 74 79  1  0
 75 71  1  0
 75 79  1  0
 76 75  1  0
 77 78  1  0
 77 76  1  0
 78 74  1  0
 79 80  2  0
 80 81  1  0
 82 81  2  0
 83 82  1  0
 84 58  1  0
 84 89  1  0
 84 85  1  0
 85 88  1  1
 85 86  1  0
 87 85  1  0
 89 92  1  0
 90 94  1  0
 90 89  1  0
 91 90  2  0
 94 93  1  0
 96 94  1  0
 96 97  1  0
 96 95  1  0
M  ISO  4  17 100  25 100  56 101  57 101
M  END
>  <TORSDO>  (44) 
F 27

>  <SCORE>  (44) 
29.658

>  <name>  (44) 
43

>  <ligand_id>  (44) 
43

>  <original_smiles>  (44) 
[H]c1c([H])c(C(=O)C([H])([H])C([H])([H])C([H])([H])C([H])([H])C([H])([H])C([H])([H])C([H])([H])C([H])([H])N([H])C(=O)N2C([H])([H])C([H])([H])C([H])([H])C([H])(n3nc(-c4c([H])c([H])c(Oc5c([H])c([H])c(F)c([H])c5F)c([H])c4[H])c(C(=O)N([H])[H])c3N([H])[H])C2([H])[H])c([H])c(C([H])([H])C([H])([H])Oc2c([H])c([H])c3c(c2[H])C([H])([H])N(C(=O)C([H])(N([H])C(=O)C([H])(N([H])C([H])([H])[H])C([H])([H])[H])C(C([H])([H])[H])(C([H])([H])[H])C([H])([H])[H])C([H])(C(=O)N([H])C2([H])c4c([H])c([H])c([H])c([H])c4C([H])([H])C([H])([H])C2([H])[H])C3([H])[H])c1[H]

>  <smiles>  (44) 
[H]c1c([H])c(C(=O)C([H])([H])C([H])([H])C([H])([H])C([H])([H])C([H])([H])C([H])([H])C([H])([H])C([H])([H])N([H])C(=O)N2C([H])([H])C([H])([H])C([H])([H])C([H])(n3nc(-c4c([H])c([H])c(Oc5c([H])c([H])c(F)c([H])c5F)c([H])c4[H])c(C(=O)N([H])[H])c3N([H])[H])C2([H])[H])c([H])c(C([H])([H])C([H])([H])Oc2c([H])c([H])c3c(c2[H])C([H])([H])N(C(=O)C([H])(N([H])C(=O)C([H])(N([H])C([H])([H])[H])C([H])([H])[H])C(C([H])([H])[H])(C([H])([H])[H])C([H])([H])[H])C([H])(C(=O)N([H])C2([H])c4c([H])c([H])c([H])c([H])c4C([H])([H])C([H])([H])C2([H])[H])C3([H])[H])c1[H]

$$$$
44:0:0
     RDKit          3D

 95104  0  0  1  0  0  0  0  0999 V2000
  -27.3360  -22.0550   21.6290 C   0  0  0  0  0  3  0  0  0  0  0  0
  -26.4160  -22.8590   20.9290 C   0  0  0  0  0  3  0  0  0  0  0  0
  -29.1200  -22.7040   20.0870 C   0  0  0  0  0  3  0  0  0  0  0  0
  -28.6690  -21.9340   21.1890 C   0  0  0  0  0  0  0  0  0  0  0  0
  -28.1900  -23.4450   19.3380 C   0  0  0  0  0  0  0  0  0  0  0  0
  -26.8390  -23.5150   19.7630 C   0  0  0  0  0  0  0  0  0  0  0  0
  -25.9050  -24.0860   18.9660 F   0  0  0  0  0  0  0  0  0  0  0  0
  -29.4620  -20.7020   21.6600 C   0  0  0  0  0  2  0  0  0  0  0  0
  -29.9900  -20.0230   20.3750 C   0  0  0  0  0  2  0  0  0  0  0  0
  -31.8240  -14.7980   20.0060 C   0  0  0  0  0  0  0  0  0  0  0  0
  -31.5040  -12.5730   19.0980 C   0  0  0  0  0  2  0  0  0  0  0  0
  -30.5110  -12.6850   17.9260 C   0  0  0  0  0  2  0  0  0  0  0  0
  -29.0450  -12.6190   18.4050 C   0  0  0  0  0  2  0  0  0  0  0  0
  -28.7580  -13.5610   19.6040 C   0  0  0  0  0  3  0  0  0  0  0  0
  -29.8510  -13.3820   20.6800 C   0  0  0  0  0  2  0  0  0  0  0  0
  -31.1600  -13.6250   20.0510 N   0  0  0  0  0  0  0  0  0  0  0  0
  -32.9510  -14.9420   19.5160 O   0  0  0  0  0  0  0  0  0  0  0  0
  -30.2870  -18.0030   18.9740 C   0  0  0  0  0  2  0  0  0  0  0  0
  -29.9940  -17.6950   21.4080 C   0  0  0  0  0  2  0  0  0  0  0  0
  -30.9470  -16.6470   18.8380 C   0  0  0  0  0  2  0  0  0  0  0  0
  -30.8330  -16.4310   21.4370 C   0  0  0  0  0  2  0  0  0  0  0  0
  -30.5570  -18.6130   20.3520 C   0  0  0  0  0  3  0  0  0  0  0  0
  -31.0070  -15.8490   20.0910 N   0  0  0  0  0  0  0  0  0  0  0  0
  -26.4450  -14.2930   20.4940 C   0  0  0  0  0  0  0  0  0  0  0  0
  -25.3570  -13.5750   20.8920 C   0  0  0  0  0  0  0  0  0  0  0  0
  -25.7230  -12.1970   20.7530 C   0  0  0  0  0  0  0  0  0  0  0  0
  -27.4150  -13.3610   20.1510 N   0  0  0  0  0  0  0  0  0  0  0  0
  -26.9840  -12.0920   20.3580 N   0  0  0  0  0  0  0  0  0  0  0  0
  -24.9330  -10.9760   20.9220 C   0  0  0  0  0  0  0  0  0  0  0  0
  -25.2500  -10.0260   21.9180 C   0  0  0  0  0  3  0  0  0  0  0  0
  -24.4680   -8.8620   22.0710 C   0  0  0  0  0  3  0  0  0  0  0  0
  -23.3510   -8.6410   21.2290 C   0  0  0  0  0  0  0  0  0  0  0  0
  -23.0580   -9.5770   20.2210 C   0  0  0  0  0  3  0  0  0  0  0  0
  -23.8400  -10.7330   20.0670 C   0  0  0  0  0  3  0  0  0  0  0  0
  -22.5520   -7.5250   21.2860 O   0  0  0  0  0  0  0  0  0  0  0  0
  -22.2220   -6.9340   22.4790 C   0  0  0  0  0  0  0  0  0  0  0  0
  -21.5560   -7.6440   23.5010 C   0  0  0  0  0  3  0  0  0  0  0  0
  -21.1740   -6.9810   24.6850 C   0  0  0  0  0  3  0  0  0  0  0  0
  -21.4500   -5.6100   24.8460 C   0  0  0  0  0  0  0  0  0  0  0  0
  -22.1080   -4.9000   23.8270 C   0  0  0  0  0  3  0  0  0  0  0  0
  -22.4920   -5.5610   22.6460 C   0  0  0  0  0  0  0  0  0  0  0  0
  -23.1060   -4.8680   21.6570 F   0  0  0  0  0  0  0  0  0  0  0  0
  -21.0770   -4.9700   25.9780 F   0  0  0  0  0  0  0  0  0  0  0  0
  -24.0090  -14.1120   21.2830 C   0  0  0  0  0  0  0  0  0  0  0  0
  -23.3220  -13.4450   22.1970 N   0  0  0  0  0  0  0  0  0  0  0  0
  -23.5850  -15.1700   20.8090 O   0  0  0  0  0  0  0  0  0  0  0  0
  -23.6800  -12.5900   22.6000 H   0  0  0  0  0  0  0  0  0  0  0  0
  -22.4190  -13.7850   22.4970 H   0  0  0  0  0  0  0  0  0  0  0  0
  -26.6910  -15.6650   20.3820 N   0  0  0  0  0  0  0  0  0  0  0  0
  -25.9760  -16.3540   20.5880 H   0  0  0  0  0  0  0  0  0  0  0  0
  -27.5590  -16.0750   20.0680 H   0  0  0  0  0  0  0  0  0  0  0  0
  -28.5670  -23.8360   17.9200 C   0  0  0  0  0  2  0  0  0  0  0  0
  -29.9790  -24.4620   17.7220 C   0  0  0  0  0  2  0  0  0  0  0  0
  -30.0530  -25.9590   17.3620 C   0  0  0  0  0  2  0  0  0  0  0  0
  -30.0510  -26.8050   18.5260 O   0  0  0  0  0  0  0  0  0  0  0  0
  -26.4520  -29.4890   24.0560 C   0  0  0  0  0  0  0  0  0  0  0  0
  -28.8520  -27.3070   18.9810 C   0  0  0  0  0  0  0  0  0  0  0  0
  -25.1110  -28.9800   22.0470 C   0  0  0  0  0  3  0  0  0  0  0  0
  -26.4320  -28.4210   19.9440 C   0  0  0  0  0  0  0  0  0  0  0  0
  -27.5960  -29.5570   21.8390 C   0  0  0  0  0  2  0  0  0  0  0  0
  -27.6430  -28.6880   20.5950 C   0  0  0  0  0  0  0  0  0  0  0  0
  -28.8550  -28.1520   20.1130 C   0  0  0  0  0  3  0  0  0  0  0  0
  -27.6230  -26.9770   18.3880 C   0  0  0  0  0  3  0  0  0  0  0  0
  -26.4190  -27.5430   18.8520 C   0  0  0  0  0  3  0  0  0  0  0  0
  -25.1930  -29.0860   20.5020 C   0  0  0  0  0  2  0  0  0  0  0  0
  -26.4100  -29.3280   22.7020 N   0  0  0  0  0  0  0  0  0  0  0  0
  -25.4300  -29.3810   24.7460 O   0  0  0  0  0  0  0  0  0  0  0  0
  -24.5960  -27.5730   22.4260 C   0  0  0  0  0  0  0  0  0  0  0  0
  -23.3560  -27.2450   22.0230 N   0  0  0  0  0  0  0  0  0  0  0  0
  -25.3100  -26.7880   23.0580 O   0  0  0  0  0  0  0  0  0  0  0  0
  -22.7830  -27.9860   21.6460 H   0  0  0  0  0  0  0  0  0  0  0  0
  -20.5520  -25.2100   20.9480 C   0  0  0  0  0  0  0  0  0  0  0  0
  -22.7040  -25.9410   22.2010 C   0  0  0  0  0  3  0  0  0  0  0  0
  -23.4330  -24.8300   21.3850 C   0  0  0  0  0  2  0  0  0  0  0  0
  -22.8120  -24.5830   20.0130 C   0  0  0  0  0  2  0  0  0  0  0  0
  -21.3350  -24.1830   20.1560 C   0  0  0  0  0  2  0  0  0  0  0  0
  -21.1990  -26.0400   21.9050 C   0  0  0  0  0  0  0  0  0  0  0  0
  -20.4190  -26.9860   22.6130 C   0  0  0  0  0  3  0  0  0  0  0  0
  -19.0330  -27.1070   22.3800 C   0  0  0  0  0  3  0  0  0  0  0  0
  -18.4120  -26.2960   21.4170 C   0  0  0  0  0  3  0  0  0  0  0  0
  -19.1600  -25.3380   20.7160 C   0  0  0  0  0  3  0  0  0  0  0  0
  -27.7790  -29.8430   24.7890 C   0  0  0  0  0  3  0  0  0  0  0  0
  -27.5220  -31.0140   25.6340 N   0  0  0  0  0  0  0  0  0  0  0  0
  -27.8600  -32.2790   25.3290 C   0  0  0  0  0  0  0  0  0  0  0  0
  -28.5140  -32.5650   24.3220 O   0  0  0  0  0  0  0  0  0  0  0  0
  -26.9640  -30.8550   26.4590 H   0  0  0  0  0  0  0  0  0  0  0  0
  -26.1890  -34.1160   25.7100 C   0  0  0  0  0  1  0  0  0  0  0  0
  -27.4130  -33.3910   26.2890 C   0  0  0  0  0  3  0  0  0  0  0  0
  -29.5710  -33.8250   27.3900 C   0  0  0  0  0  1  0  0  0  0  0  0
  -28.4750  -34.3770   26.5910 N   0  0  0  0  0  0  0  0  0  0  0  0
  -28.0940  -35.1790   27.0890 H   0  0  0  0  0  0  0  0  0  0  0  0
  -28.3470  -28.6540   25.6570 C   0  0  1  0  0  0  0  0  0  0  0  0
  -27.3010  -28.0230   26.6000 C   0  0  0  0  0  1  0  0  0  0  0  0
  -28.9030  -27.5340   24.7550 C   0  0  0  0  0  1  0  0  0  0  0  0
  -29.5240  -29.1500   26.5250 C   0  0  0  0  0  1  0  0  0  0  0  0
  2  1  2  0
  3  4  2  0
  4  1  1  0
  4  8  1  0
  5  6  2  0
  5  3  1  0
  6  2  1  0
  7  6  1  0
  9  8  1  0
 10 16  1  0
 10 23  1  0
 11 16  1  0
 12 13  1  0
 12 11  1  0
 14 13  1  0
 14 27  1  0
 14 15  1  0
 16 15  1  0
 17 10  2  0
 18 22  1  0
 19 21  1  0
 20 18  1  0
 20 23  1  0
 22  9  1  0
 22 19  1  0
 23 21  1  0
 24 25  2  0
 25 44  1  0
 26 25  1  0
 26 29  1  0
 27 28  1  0
 27 24  1  0
 28 26  2  0
 29 30  1  0
 30 31  2  0
 32 35  1  0
 32 31  1  0
 33 32  2  0
 34 33  1  0
 34 29  2  0
 35 36  1  0
 36 41  2  0
 36 37  1  0
 37 38  2  0
 38 39  1  0
 39 43  1  0
 40 39  2  0
 41 40  1  0
 42 41  1  0
 44 45  1  0
 45 48  1  0
 45 47  1  0
 46 44  2  0
 49 24  1  0
 49 50  1  0
 51 49  1  0
 52  5  1  0
 53 52  1  0
 54 53  1  0
 54 55  1  0
 55 57  1  0
 56 67  2  0
 57 62  1  0
 58 68  1  0
 58 66  1  0
 59 65  1  0
 59 61  1  0
 60 66  1  0
 61 60  1  0
 62 61  2  0
 63 64  1  0
 63 57  2  0
 64 59  2  0
 65 58  1  0
 66 56  1  0
 68 70  2  0
 69 68  1  0
 71 69  1  0
 72 77  1  0
 73 69  1  0
 74 73  1  0
 75 76  1  0
 75 74  1  0
 76 72  1  0
 77 73  1  0
 77 78  2  0
 79 78  1  0
 80 79  2  0
 81 72  2  0
 81 80  1  0
 82 56  1  0
 82 83  1  0
 82 92  1  0
 83 86  1  0
 84 83  1  0
 84 88  1  0
 85 84  2  0
 88 87  1  0
 88 90  1  0
 90 91  1  0
 90 89  1  0
 92 95  1  1
 92 93  1  0
 94 92  1  0
M  ISO  4  10 100  23 100  54 101  55 101
M  END
>  <TORSDO>  (45) 
F 21

>  <SCORE>  (45) 
-8.834

>  <name>  (45) 
44

>  <ligand_id>  (45) 
44

>  <original_smiles>  (45) 
[H]c1c([H])c([H])c2c(c1[H])C([H])([H])C([H])([H])C([H])([H])C2([H])N([H])C(=O)C1([H])N(C(=O)C([H])(N([H])C(=O)C([H])(N([H])C([H])([H])[H])C([H])([H])[H])C(C([H])([H])[H])(C([H])([H])[H])C([H])([H])[H])C([H])([H])c2c([H])c(OC([H])([H])C([H])([H])C([H])([H])c3c([H])c(C([H])([H])C([H])([H])C4([H])C([H])([H])C([H])([H])N(C(=O)N5C([H])([H])C([H])([H])C([H])([H])C([H])(n6nc(-c7c([H])c([H])c(Oc8c([H])c([H])c(F)c([H])c8F)c([H])c7[H])c(C(=O)N([H])[H])c6N([H])[H])C5([H])[H])C([H])([H])C4([H])[H])c([H])c([H])c3F)c([H])c([H])c2C1([H])[H]

>  <smiles>  (45) 
[H]c1c([H])c([H])c2c(c1[H])C([H])([H])C([H])([H])C([H])([H])C2([H])N([H])C(=O)C1([H])N(C(=O)C([H])(N([H])C(=O)C([H])(N([H])C([H])([H])[H])C([H])([H])[H])C(C([H])([H])[H])(C([H])([H])[H])C([H])([H])[H])C([H])([H])c2c([H])c(OC([H])([H])C([H])([H])C([H])([H])c3c([H])c(C([H])([H])C([H])([H])C4([H])C([H])([H])C([H])([H])N(C(=O)N5C([H])([H])C([H])([H])C([H])([H])C([H])(n6nc(-c7c([H])c([H])c(Oc8c([H])c([H])c(F)c([H])c8F)c([H])c7[H])c(C(=O)N([H])[H])c6N([H])[H])C5([H])[H])C([H])([H])C4([H])[H])c([H])c([H])c3F)c([H])c([H])c2C1([H])[H]

$$$$
45:0:0
     RDKit          3D

101110  0  0  1  0  0  0  0  0999 V2000
  -34.0880  -27.0530   23.0440 C   0  0  0  0  0  2  0  0  0  0  0  0
  -32.1730  -26.8610   18.6960 C   0  0  0  0  0  2  0  0  0  0  0  0
  -32.9800  -27.7600   22.2540 C   0  0  0  0  0  2  0  0  0  0  0  0
  -32.3240  -27.9340   19.7530 C   0  0  0  0  0  2  0  0  0  0  0  0
  -35.2270  -26.7530   22.0400 C   0  0  0  0  0  3  0  0  0  0  0  0
  -34.6400  -27.0700   20.6390 C   0  0  0  0  0  3  0  0  0  0  0  0
  -31.9660  -25.5980   19.5370 C   0  0  0  0  0  3  0  0  0  0  0  0
  -33.1100  -27.1960   20.8430 C   0  0  1  0  0  0  0  0  0  0  0  0
  -32.5280  -25.8940   20.8150 O   0  0  0  0  0  0  0  0  0  0  0  0
  -35.7370  -25.3010   22.1460 C   0  0  0  0  0  0  0  0  0  0  0  0
  -34.8250  -24.3290   22.0220 N   0  0  0  0  0  0  0  0  0  0  0  0
  -36.9320  -25.0600   22.3330 O   0  0  0  0  0  0  0  0  0  0  0  0
  -33.8660  -24.6070   21.8590 H   0  0  0  0  0  0  0  0  0  0  0  0
  -35.0940  -22.8930   22.0720 C   0  0  0  0  0  2  0  0  0  0  0  0
  -34.2700  -22.1000   21.0400 C   0  0  0  0  0  2  0  0  0  0  0  0
  -35.1180  -21.4620   19.9250 C   0  0  0  0  0  2  0  0  0  0  0  0
  -36.3470  -22.3080   19.5520 C   0  0  0  0  0  2  0  0  0  0  0  0
  -36.4430  -22.5740   18.0420 C   0  0  0  0  0  2  0  0  0  0  0  0
  -35.3040  -21.9180   17.2470 C   0  0  0  0  0  2  0  0  0  0  0  0
  -35.6220  -21.8040   15.7470 C   0  0  0  0  0  2  0  0  0  0  0  0
  -37.1340  -21.8800   15.4510 C   0  0  0  0  0  2  0  0  0  0  0  0
  -37.5390  -21.3220   14.0730 C   0  0  0  0  0  0  0  0  0  0  0  0
  -37.4250  -21.4920   11.6080 C   0  0  0  0  0  2  0  0  0  0  0  0
  -38.3360  -22.6220   11.0920 C   0  0  0  0  0  2  0  0  0  0  0  0
  -37.5990  -23.9760   11.1210 C   0  0  0  0  0  2  0  0  0  0  0  0
  -36.9150  -24.2500   12.4860 C   0  0  0  0  0  3  0  0  0  0  0  0
  -36.0860  -23.0280   12.9380 C   0  0  0  0  0  2  0  0  0  0  0  0
  -36.9730  -21.8530   12.9580 N   0  0  0  0  0  0  0  0  0  0  0  0
  -38.3870  -20.4260   14.0180 O   0  0  0  0  0  0  0  0  0  0  0  0
  -36.4920  -26.7900   12.5910 C   0  0  0  0  0  0  0  0  0  0  0  0
  -35.3620  -27.5370   12.3910 C   0  0  0  0  0  0  0  0  0  0  0  0
  -34.3160  -26.6030   12.1160 C   0  0  0  0  0  0  0  0  0  0  0  0
  -36.1050  -25.4660   12.4420 N   0  0  0  0  0  0  0  0  0  0  0  0
  -34.7720  -25.3600   12.2060 N   0  0  0  0  0  0  0  0  0  0  0  0
  -32.9190  -26.8220   11.7180 C   0  0  0  0  0  0  0  0  0  0  0  0
  -31.8480  -26.2490   12.4390 C   0  0  0  0  0  3  0  0  0  0  0  0
  -30.5130  -26.4870   12.0470 C   0  0  0  0  0  3  0  0  0  0  0  0
  -30.2390  -27.3080   10.9270 C   0  0  0  0  0  0  0  0  0  0  0  0
  -31.3090  -27.8580   10.2010 C   0  0  0  0  0  3  0  0  0  0  0  0
  -32.6370  -27.6150   10.5880 C   0  0  0  0  0  3  0  0  0  0  0  0
  -28.9740  -27.5740   10.4580 O   0  0  0  0  0  0  0  0  0  0  0  0
  -27.9140  -27.7570   11.3090 C   0  0  0  0  0  0  0  0  0  0  0  0
  -27.9330  -28.7400   12.3220 C   0  0  0  0  0  3  0  0  0  0  0  0
  -26.7950  -28.9400   13.1280 C   0  0  0  0  0  3  0  0  0  0  0  0
  -25.6360  -28.1680   12.9200 C   0  0  0  0  0  0  0  0  0  0  0  0
  -25.6160  -27.1920   11.9080 C   0  0  0  0  0  3  0  0  0  0  0  0
  -26.7500  -26.9890   11.1030 C   0  0  0  0  0  0  0  0  0  0  0  0
  -26.7170  -26.0620   10.1150 F   0  0  0  0  0  0  0  0  0  0  0  0
  -24.5410  -28.3650   13.6890 F   0  0  0  0  0  0  0  0  0  0  0  0
  -35.2720  -29.0350   12.3620 C   0  0  0  0  0  0  0  0  0  0  0  0
  -34.1110  -29.5860   12.6980 N   0  0  0  0  0  0  0  0  0  0  0  0
  -36.2500  -29.7300   12.0870 O   0  0  0  0  0  0  0  0  0  0  0  0
  -33.3140  -29.0170   12.9440 H   0  0  0  0  0  0  0  0  0  0  0  0
  -34.0160  -30.5920   12.7110 H   0  0  0  0  0  0  0  0  0  0  0  0
  -37.8150  -27.1240   12.8650 N   0  0  0  0  0  0  0  0  0  0  0  0
  -38.1320  -28.0840   12.9270 H   0  0  0  0  0  0  0  0  0  0  0  0
  -38.5660  -26.4520   12.9600 H   0  0  0  0  0  0  0  0  0  0  0  0
  -35.1970  -28.2840   20.1510 O   0  0  0  0  0  0  0  0  0  0  0  0
  -34.7650  -28.4840   19.3270 H   0  0  0  0  0  0  0  0  0  0  0  0
  -32.6470  -24.3420   18.9670 C   0  0  0  0  0  2  0  0  0  0  0  0
  -31.7690  -23.5950   18.1320 O   0  0  0  0  0  0  0  0  0  0  0  0
  -24.9130  -25.6120   17.9790 C   0  0  0  0  0  0  0  0  0  0  0  0
  -30.7380  -24.2590   17.5100 C   0  0  0  0  0  0  0  0  0  0  0  0
  -26.1950  -25.9180   15.8820 C   0  0  0  0  0  3  0  0  0  0  0  0
  -28.7190  -25.6200   16.0780 C   0  0  0  0  0  0  0  0  0  0  0  0
  -27.3670  -25.9820   18.1510 C   0  0  0  0  0  2  0  0  0  0  0  0
  -28.5950  -25.4340   17.4600 C   0  0  0  0  0  0  0  0  0  0  0  0
  -29.5960  -24.7530   18.1820 C   0  0  0  0  0  3  0  0  0  0  0  0
  -30.8550  -24.4600   16.1210 C   0  0  0  0  0  3  0  0  0  0  0  0
  -29.8480  -25.1290   15.3990 C   0  0  0  0  0  3  0  0  0  0  0  0
  -27.5990  -26.3600   15.3870 C   0  0  0  0  0  2  0  0  0  0  0  0
  -26.1190  -25.8040   17.3750 N   0  0  0  0  0  0  0  0  0  0  0  0
  -23.8660  -25.5740   17.3180 O   0  0  0  0  0  0  0  0  0  0  0  0
  -25.8020  -24.6150   15.1500 C   0  0  0  0  0  0  0  0  0  0  0  0
  -25.1270  -24.7590   13.9990 N   0  0  0  0  0  0  0  0  0  0  0  0
  -26.1280  -23.5130   15.6000 O   0  0  0  0  0  0  0  0  0  0  0  0
  -24.8930  -25.6950   13.7010 H   0  0  0  0  0  0  0  0  0  0  0  0
  -23.3680  -24.0450   10.9260 C   0  0  0  0  0  0  0  0  0  0  0  0
  -24.6870  -23.6780   13.1180 C   0  0  0  0  0  3  0  0  0  0  0  0
  -25.8450  -23.1860   12.2200 C   0  0  0  0  0  2  0  0  0  0  0  0
  -25.8930  -23.8870   10.8590 C   0  0  0  0  0  2  0  0  0  0  0  0
  -24.5840  -23.6690   10.0950 C   0  0  0  0  0  2  0  0  0  0  0  0
  -23.4210  -24.0650   12.3450 C   0  0  0  0  0  0  0  0  0  0  0  0
  -22.2740  -24.4560   13.0680 C   0  0  0  0  0  3  0  0  0  0  0  0
  -21.0910  -24.8200   12.4000 C   0  0  0  0  0  3  0  0  0  0  0  0
  -21.0380  -24.7830   10.9960 C   0  0  0  0  0  3  0  0  0  0  0  0
  -22.1730  -24.3920   10.2630 C   0  0  0  0  0  3  0  0  0  0  0  0
  -24.7880  -25.4560   19.5280 C   0  0  0  0  0  3  0  0  0  0  0  0
  -23.3760  -25.1890   19.8310 N   0  0  0  0  0  0  0  0  0  0  0  0
  -22.5010  -26.1170   20.2420 C   0  0  0  0  0  0  0  0  0  0  0  0
  -22.8220  -27.2860   20.4750 O   0  0  0  0  0  0  0  0  0  0  0  0
  -23.0310  -24.2660   19.6110 H   0  0  0  0  0  0  0  0  0  0  0  0
  -20.2310  -26.0430   19.1630 C   0  0  0  0  0  1  0  0  0  0  0  0
  -21.0350  -25.6790   20.4210 C   0  0  0  0  0  3  0  0  0  0  0  0
  -20.9840  -25.8240   22.8730 C   0  0  0  0  0  1  0  0  0  0  0  0
  -20.3880  -26.2670   21.6140 N   0  0  0  0  0  0  0  0  0  0  0  0
  -19.3970  -26.0400   21.6360 H   0  0  0  0  0  0  0  0  0  0  0  0
  -25.7110  -24.3200   20.1150 C   0  0  1  0  0  0  0  0  0  0  0  0
  -25.6520  -22.9970   19.3170 C   0  0  0  0  0  1  0  0  0  0  0  0
  -27.1870  -24.7840   20.1550 C   0  0  0  0  0  1  0  0  0  0  0  0
  -25.3020  -24.0150   21.5750 C   0  0  0  0  0  1  0  0  0  0  0  0
  2  7  1  0
  2  4  1  0
  3  1  1  0
  5 10  1  0
  5  1  1  0
  6 58  1  0
  6  8  1  0
  6  5  1  0
  7 60  1  0
  7  9  1  0
  8  4  1  6
  8  3  1  0
  9  8  1  0
 10 12  2  0
 11 14  1  0
 11 10  1  0
 13 11  1  0
 15 14  1  0
 16 15  1  0
 17 16  1  0
 18 17  1  0
 19 18  1  0
 20 19  1  0
 21 20  1  0
 22 21  1  0
 23 28  1  0
 24 25  1  0
 24 23  1  0
 26 25  1  0
 26 27  1  0
 27 28  1  0
 28 22  1  0
 29 22  2  0
 30 55  1  0
 31 30  2  0
 32 34  2  0
 32 31  1  0
 33 26  1  0
 33 30  1  0
 34 33  1  0
 35 32  1  0
 35 36  1  0
 37 36  2  0
 38 37  1  0
 39 40  1  0
 39 38  2  0
 40 35  2  0
 41 38  1  0
 41 42  1  0
 42 43  1  0
 43 44  2  0
 45 44  1  0
 45 49  1  0
 46 45  2  0
 47 42  2  0
 47 46  1  0
 48 47  1  0
 50 31  1  0
 50 51  1  0
 51 54  1  0
 51 53  1  0
 52 50  2  0
 55 56  1  0
 55 57  1  0
 59 58  1  0
 61 60  1  0
 63 61  1  0
 63 68  1  0
 64 74  1  0
 64 72  1  0
 65 67  1  0
 67 66  1  0
 67 68  2  0
 69 63  2  0
 70 65  2  0
 70 69  1  0
 71 64  1  0
 71 65  1  0
 72 62  1  0
 72 66  1  0
 73 62  2  0
 74 76  2  0
 75 74  1  0
 77 75  1  0
 78 83  1  0
 79 75  1  0
 80 79  1  0
 81 80  1  0
 82 81  1  0
 82 78  1  0
 83 84  2  0
 83 79  1  0
 85 84  1  0
 86 85  2  0
 87 78  2  0
 87 86  1  0
 88 62  1  0
 88 89  1  0
 88 98  1  0
 89 90  1  0
 90 94  1  0
 90 91  2  0
 92 89  1  0
 94 93  1  0
 94 96  1  0
 96 97  1  0
 96 95  1  0
 98100  1  1
 98101  1  0
 99 98  1  0
M  ISO  4  21 100  22 100  60 101  61 101
M  END
>  <TORSDO>  (46) 
F 27

>  <SCORE>  (46) 
4.367

>  <name>  (46) 
45

>  <ligand_id>  (46) 
45

>  <original_smiles>  (46) 
[H]OC1([H])C([H])(C(=O)N([H])C([H])([H])C([H])([H])C([H])([H])C([H])([H])C([H])([H])C([H])([H])C([H])([H])C([H])([H])C(=O)N2C([H])([H])C([H])([H])C([H])([H])C([H])(n3nc(-c4c([H])c([H])c(Oc5c([H])c([H])c(F)c([H])c5F)c([H])c4[H])c(C(=O)N([H])[H])c3N([H])[H])C2([H])[H])C([H])([H])C([H])([H])C12OC([H])(C([H])([H])Oc1c([H])c([H])c3c(c1[H])C([H])([H])N(C(=O)C([H])(N([H])C(=O)C([H])(N([H])C([H])([H])[H])C([H])([H])[H])C(C([H])([H])[H])(C([H])([H])[H])C([H])([H])[H])C([H])(C(=O)N([H])C1([H])c4c([H])c([H])c([H])c([H])c4C([H])([H])C([H])([H])C1([H])[H])C3([H])[H])C([H])([H])C2([H])[H]

>  <smiles>  (46) 
[H]OC1([H])C([H])(C(=O)N([H])C([H])([H])C([H])([H])C([H])([H])C([H])([H])C([H])([H])C([H])([H])C([H])([H])C([H])([H])C(=O)N2C([H])([H])C([H])([H])C([H])([H])C([H])(n3nc(-c4c([H])c([H])c(Oc5c([H])c([H])c(F)c([H])c5F)c([H])c4[H])c(C(=O)N([H])[H])c3N([H])[H])C2([H])[H])C([H])([H])C([H])([H])C12OC([H])(C([H])([H])Oc1c([H])c([H])c3c(c1[H])C([H])([H])N(C(=O)C([H])(N([H])C(=O)C([H])(N([H])C([H])([H])[H])C([H])([H])[H])C(C([H])([H])[H])(C([H])([H])[H])C([H])([H])[H])C([H])(C(=O)N([H])C1([H])c4c([H])c([H])c([H])c([H])c4C([H])([H])C([H])([H])C1([H])[H])C3([H])[H])C([H])([H])C2([H])[H]

$$$$
46:0:0
     RDKit          3D

 94102  0  0  1  0  0  0  0  0999 V2000
  -27.3200  -21.7070   19.7000 C   0  0  0  0  0  3  0  0  0  0  0  0
  -28.3950  -20.7900   17.7120 C   0  0  0  0  0  3  0  0  0  0  0  0
  -27.3720  -22.9930   19.1320 C   0  0  0  0  0  3  0  0  0  0  0  0
  -28.4480  -22.0770   17.1420 C   0  0  0  0  0  3  0  0  0  0  0  0
  -27.8480  -20.6060   18.9990 C   0  0  0  0  0  0  0  0  0  0  0  0
  -27.9500  -23.1830   17.8590 C   0  0  0  0  0  0  0  0  0  0  0  0
  -27.9050  -19.2450   19.6620 C   0  0  0  0  0  2  0  0  0  0  0  0
  -29.3310  -18.9560   20.1490 C   0  0  0  0  0  2  0  0  0  0  0  0
  -29.4820  -17.6100   20.8620 C   0  0  0  0  0  2  0  0  0  0  0  0
  -30.9600  -17.3160   21.1750 C   0  0  0  0  0  2  0  0  0  0  0  0
  -31.1920  -16.0310   21.9870 C   0  0  0  0  0  2  0  0  0  0  0  0
  -30.8020  -14.2330   20.2940 C   0  0  0  0  0  0  0  0  0  0  0  0
  -30.3110  -12.2380   18.9300 C   0  0  0  0  0  2  0  0  0  0  0  0
  -29.3250  -12.5360   17.7860 C   0  0  0  0  0  2  0  0  0  0  0  0
  -27.8700  -12.4140   18.2750 C   0  0  0  0  0  2  0  0  0  0  0  0
  -27.6150  -13.2130   19.5790 C   0  0  0  0  0  3  0  0  0  0  0  0
  -28.6950  -12.8930   20.6340 C   0  0  0  0  0  2  0  0  0  0  0  0
  -30.0240  -13.1510   20.0440 N   0  0  0  0  0  0  0  0  0  0  0  0
  -31.7640  -14.5630   19.5920 O   0  0  0  0  0  0  0  0  0  0  0  0
  -30.4990  -14.8770   21.4270 N   0  0  0  0  0  0  0  0  0  0  0  0
  -29.7240  -14.5050   21.9560 H   0  0  0  0  0  0  0  0  0  0  0  0
  -25.2450  -13.8680   20.3490 C   0  0  0  0  0  0  0  0  0  0  0  0
  -24.1760  -13.1160   20.7550 C   0  0  0  0  0  0  0  0  0  0  0  0
  -24.6140  -11.7570   20.7190 C   0  0  0  0  0  0  0  0  0  0  0  0
  -26.2690  -12.9690   20.0960 N   0  0  0  0  0  0  0  0  0  0  0  0
  -25.8920  -11.6940   20.3710 N   0  0  0  0  0  0  0  0  0  0  0  0
  -23.8740  -10.5070   20.9410 C   0  0  0  0  0  0  0  0  0  0  0  0
  -24.3230   -9.5360   21.8630 C   0  0  0  0  0  3  0  0  0  0  0  0
  -23.5860   -8.3510   22.0700 C   0  0  0  0  0  3  0  0  0  0  0  0
  -22.3840   -8.1280   21.3560 C   0  0  0  0  0  0  0  0  0  0  0  0
  -21.9540   -9.0880   20.4230 C   0  0  0  0  0  3  0  0  0  0  0  0
  -22.6910  -10.2650   20.2140 C   0  0  0  0  0  3  0  0  0  0  0  0
  -21.6160   -6.9950   21.4750 O   0  0  0  0  0  0  0  0  0  0  0  0
  -21.6010   -6.2530   22.6280 C   0  0  0  0  0  0  0  0  0  0  0  0
  -21.2540   -6.8180   23.8740 C   0  0  0  0  0  3  0  0  0  0  0  0
  -21.1840   -6.0020   25.0220 C   0  0  0  0  0  3  0  0  0  0  0  0
  -21.4510   -4.6240   24.9250 C   0  0  0  0  0  0  0  0  0  0  0  0
  -21.7920   -4.0590   23.6830 C   0  0  0  0  0  3  0  0  0  0  0  0
  -21.8640   -4.8700   22.5380 C   0  0  0  0  0  0  0  0  0  0  0  0
  -22.1720   -4.3170   21.3400 F   0  0  0  0  0  0  0  0  0  0  0  0
  -21.3770   -3.8390   26.0250 F   0  0  0  0  0  0  0  0  0  0  0  0
  -22.7940  -13.6170   21.0690 C   0  0  0  0  0  0  0  0  0  0  0  0
  -22.0850  -12.9380   21.9630 N   0  0  0  0  0  0  0  0  0  0  0  0
  -22.3560  -14.6450   20.5550 O   0  0  0  0  0  0  0  0  0  0  0  0
  -22.4530  -12.1050   22.3990 H   0  0  0  0  0  0  0  0  0  0  0  0
  -21.1590  -13.2570   22.2160 H   0  0  0  0  0  0  0  0  0  0  0  0
  -25.4270  -15.2350   20.1590 N   0  0  0  0  0  0  0  0  0  0  0  0
  -24.6780  -15.9060   20.2910 H   0  0  0  0  0  0  0  0  0  0  0  0
  -26.2820  -15.6560   19.8180 H   0  0  0  0  0  0  0  0  0  0  0  0
  -28.0880  -24.5880   17.3070 C   0  0  0  0  0  2  0  0  0  0  0  0
  -29.3530  -25.2740   17.8560 C   0  0  0  0  0  2  0  0  0  0  0  0
  -29.2640  -26.8120   17.9190 C   0  0  0  0  0  2  0  0  0  0  0  0
  -29.4310  -27.3500   19.3510 C   0  0  0  0  0  2  0  0  0  0  0  0
  -28.4090  -26.8110   20.1860 O   0  0  0  0  0  0  0  0  0  0  0  0
  -24.5610  -31.9440   23.2640 C   0  0  0  0  0  0  0  0  0  0  0  0
  -27.2430  -27.5300   20.2150 C   0  0  0  0  0  0  0  0  0  0  0  0
  -23.3630  -30.5200   21.6330 C   0  0  0  0  0  3  0  0  0  0  0  0
  -24.8260  -28.9770   20.2300 C   0  0  0  0  0  0  0  0  0  0  0  0
  -25.8820  -30.9030   21.4290 C   0  0  0  0  0  2  0  0  0  0  0  0
  -25.9780  -29.5300   20.8050 C   0  0  0  0  0  0  0  0  0  0  0  0
  -27.1920  -28.8130   20.7980 C   0  0  0  0  0  3  0  0  0  0  0  0
  -26.0720  -26.9650   19.6730 C   0  0  0  0  0  3  0  0  0  0  0  0
  -24.8650  -27.6890   19.6660 C   0  0  0  0  0  3  0  0  0  0  0  0
  -23.5750  -29.8240   20.2620 C   0  0  0  0  0  2  0  0  0  0  0  0
  -24.6200  -31.1370   22.1680 N   0  0  0  0  0  0  0  0  0  0  0  0
  -23.4790  -32.2160   23.8020 O   0  0  0  0  0  0  0  0  0  0  0  0
  -22.7170  -29.5050   22.6020 C   0  0  0  0  0  0  0  0  0  0  0  0
  -21.3950  -29.3140   22.4730 N   0  0  0  0  0  0  0  0  0  0  0  0
  -23.4030  -28.8910   23.4240 O   0  0  0  0  0  0  0  0  0  0  0  0
  -20.9040  -29.8590   21.7780 H   0  0  0  0  0  0  0  0  0  0  0  0
  -18.0260  -28.1120   22.9680 C   0  0  0  0  0  0  0  0  0  0  0  0
  -20.5800  -28.3820   23.2500 C   0  0  0  0  0  3  0  0  0  0  0  0
  -20.6920  -26.9450   22.6880 C   0  0  0  0  0  2  0  0  0  0  0  0
  -19.5960  -26.6080   21.6730 C   0  0  0  0  0  2  0  0  0  0  0  0
  -18.2110  -26.7560   22.3080 C   0  0  0  0  0  2  0  0  0  0  0  0
  -19.1390  -28.8820   23.3960 C   0  0  0  0  0  0  0  0  0  0  0  0
  -18.9140  -30.1520   23.9700 C   0  0  0  0  0  3  0  0  0  0  0  0
  -17.6070  -30.6500   24.1240 C   0  0  0  0  0  3  0  0  0  0  0  0
  -16.5070  -29.8760   23.7140 C   0  0  0  0  0  3  0  0  0  0  0  0
  -16.7180  -28.6090   23.1410 C   0  0  0  0  0  3  0  0  0  0  0  0
  -25.8460  -32.5830   23.8780 C   0  0  0  0  0  3  0  0  0  0  0  0
  -26.3740  -31.8170   25.1530 C   0  0  1  0  0  0  0  0  0  0  0  0
  -25.2870  -31.5740   26.2260 C   0  0  0  0  0  1  0  0  0  0  0  0
  -26.9640  -30.4430   24.7590 C   0  0  0  0  0  1  0  0  0  0  0  0
  -27.5230  -32.6200   25.8080 C   0  0  0  0  0  1  0  0  0  0  0  0
  -25.5310  -33.9810   24.2020 N   0  0  0  0  0  0  0  0  0  0  0  0
  -25.8630  -35.0300   23.4380 C   0  0  0  0  0  0  0  0  0  0  0  0
  -26.5400  -34.9230   22.4110 O   0  0  0  0  0  0  0  0  0  0  0  0
  -24.9330  -34.1380   24.9990 H   0  0  0  0  0  0  0  0  0  0  0  0
  -24.1310  -36.8120   23.0630 C   0  0  0  0  0  1  0  0  0  0  0  0
  -25.3680  -36.4180   23.8850 C   0  0  0  0  0  3  0  0  0  0  0  0
  -27.4960  -37.3130   24.7210 C   0  0  0  0  0  1  0  0  0  0  0  0
  -26.3970  -37.4740   23.7730 N   0  0  0  0  0  0  0  0  0  0  0  0
  -25.9880  -38.3930   23.9160 H   0  0  0  0  0  0  0  0  0  0  0  0
  2  5  1  0
  3  1  1  0
  4  2  2  0
  4  6  1  0
  5  7  1  0
  5  1  2  0
  6  3  2  0
  7  8  1  0
  8  9  1  0
  9 10  1  0
 10 11  1  0
 12 20  1  0
 13 18  1  0
 14 15  1  0
 14 13  1  0
 16 15  1  0
 16 25  1  0
 16 17  1  0
 18 12  1  0
 18 17  1  0
 19 12  2  0
 20 21  1  0
 20 11  1  0
 22 23  2  0
 23 42  1  0
 24 23  1  0
 24 27  1  0
 25 22  1  0
 25 26  1  0
 26 24  2  0
 27 28  1  0
 28 29  2  0
 30 33  1  0
 30 29  1  0
 31 30  2  0
 32 31  1  0
 32 27  2  0
 33 34  1  0
 34 35  1  0
 35 36  2  0
 37 36  1  0
 37 41  1  0
 38 37  2  0
 39 34  2  0
 39 38  1  0
 40 39  1  0
 42 43  1  0
 43 46  1  0
 43 45  1  0
 44 42  2  0
 47 48  1  0
 47 22  1  0
 49 47  1  0
 50 51  1  0
 50  6  1  0
 51 52  1  0
 52 53  1  0
 53 54  1  0
 54 56  1  0
 55 66  2  0
 56 61  1  0
 57 65  1  0
 57 67  1  0
 58 64  1  0
 58 60  1  0
 59 65  1  0
 60 59  1  0
 61 60  2  0
 62 56  2  0
 63 62  1  0
 63 58  2  0
 64 57  1  0
 65 55  1  0
 67 69  2  0
 68 67  1  0
 70 68  1  0
 71 80  2  0
 71 76  1  0
 72 68  1  0
 72 76  1  0
 73 72  1  0
 74 75  1  0
 74 73  1  0
 75 71  1  0
 76 77  2  0
 77 78  1  0
 79 78  2  0
 80 79  1  0
 81 55  1  0
 81 86  1  0
 81 82  1  0
 82 85  1  1
 82 83  1  0
 84 82  1  0
 86 89  1  0
 87 91  1  0
 87 86  1  0
 88 87  2  0
 91 90  1  0
 93 91  1  0
 93 94  1  0
 93 92  1  0
M  ISO  4  12 100  20 100  53 101  54 101
M  END
>  <TORSDO>  (47) 
F 25

>  <SCORE>  (47) 
-11.980

>  <name>  (47) 
46

>  <ligand_id>  (47) 
46

>  <original_smiles>  (47) 
[H]c1c([H])c([H])c2c(c1[H])C([H])([H])C([H])([H])C([H])([H])C2([H])N([H])C(=O)C1([H])N(C(=O)C([H])(N([H])C(=O)C([H])(N([H])C([H])([H])[H])C([H])([H])[H])C(C([H])([H])[H])(C([H])([H])[H])C([H])([H])[H])C([H])([H])c2c([H])c(OC([H])([H])C([H])([H])C([H])([H])C([H])([H])c3c([H])c([H])c(C([H])([H])C([H])([H])C([H])([H])C([H])([H])C([H])([H])N([H])C(=O)N4C([H])([H])C([H])([H])C([H])([H])C([H])(n5nc(-c6c([H])c([H])c(Oc7c([H])c([H])c(F)c([H])c7F)c([H])c6[H])c(C(=O)N([H])[H])c5N([H])[H])C4([H])[H])c([H])c3[H])c([H])c([H])c2C1([H])[H]

>  <smiles>  (47) 
[H]c1c([H])c([H])c2c(c1[H])C([H])([H])C([H])([H])C([H])([H])C2([H])N([H])C(=O)C1([H])N(C(=O)C([H])(N([H])C(=O)C([H])(N([H])C([H])([H])[H])C([H])([H])[H])C(C([H])([H])[H])(C([H])([H])[H])C([H])([H])[H])C([H])([H])c2c([H])c(OC([H])([H])C([H])([H])C([H])([H])C([H])([H])c3c([H])c([H])c(C([H])([H])C([H])([H])C([H])([H])C([H])([H])C([H])([H])N([H])C(=O)N4C([H])([H])C([H])([H])C([H])([H])C([H])(n5nc(-c6c([H])c([H])c(Oc7c([H])c([H])c(F)c([H])c7F)c([H])c6[H])c(C(=O)N([H])[H])c5N([H])[H])C4([H])[H])c([H])c3[H])c([H])c([H])c2C1([H])[H]

$$$$
47:0:0
     RDKit          3D

 97105  0  0  1  0  0  0  0  0999 V2000
  -32.5430  -20.5420   16.6410 C   0  0  0  0  0  3  0  0  0  0  0  0
  -31.1710  -20.5470   16.3310 C   0  0  0  0  0  3  0  0  0  0  0  0
  -33.0710  -21.5160   17.5100 C   0  0  0  0  0  3  0  0  0  0  0  0
  -30.8520  -22.4860   17.7770 C   0  0  0  0  0  3  0  0  0  0  0  0
  -30.3230  -21.5200   16.8960 C   0  0  0  0  0  0  0  0  0  0  0  0
  -32.2330  -22.5010   18.0790 C   0  0  0  0  0  0  0  0  0  0  0  0
  -32.8470  -23.5740   18.9760 C   0  0  0  0  0  2  0  0  0  0  0  0
  -32.0060  -23.9740   20.2050 C   0  0  0  0  0  2  0  0  0  0  0  0
  -31.1580  -25.2500   20.0200 C   0  0  0  0  0  2  0  0  0  0  0  0
  -30.2930  -25.5420   21.2560 C   0  0  0  0  0  2  0  0  0  0  0  0
  -29.4260  -26.8060   21.1450 C   0  0  0  0  0  2  0  0  0  0  0  0
  -28.4390  -26.6090   20.1370 O   0  0  0  0  0  0  0  0  0  0  0  0
  -24.6710  -31.8360   23.2420 C   0  0  0  0  0  0  0  0  0  0  0  0
  -27.3060  -27.3900   20.1900 C   0  0  0  0  0  0  0  0  0  0  0  0
  -23.4510  -30.4270   21.6100 C   0  0  0  0  0  3  0  0  0  0  0  0
  -24.8980  -28.8700   20.1990 C   0  0  0  0  0  0  0  0  0  0  0  0
  -25.9740  -30.7830   21.4010 C   0  0  0  0  0  2  0  0  0  0  0  0
  -26.0550  -29.4070   20.7780 C   0  0  0  0  0  0  0  0  0  0  0  0
  -27.2610  -28.6760   20.7780 C   0  0  0  0  0  3  0  0  0  0  0  0
  -26.1330  -26.8610   19.6130 C   0  0  0  0  0  3  0  0  0  0  0  0
  -24.9270  -27.5890   19.6200 C   0  0  0  0  0  3  0  0  0  0  0  0
  -23.6550  -29.7280   20.2390 C   0  0  0  0  0  2  0  0  0  0  0  0
  -24.7170  -31.0300   22.1420 N   0  0  0  0  0  0  0  0  0  0  0  0
  -23.5940  -32.1180   23.7840 O   0  0  0  0  0  0  0  0  0  0  0  0
  -22.7990  -29.4180   22.5820 C   0  0  0  0  0  0  0  0  0  0  0  0
  -21.4740  -29.2440   22.4580 N   0  0  0  0  0  0  0  0  0  0  0  0
  -23.4810  -28.7940   23.3980 O   0  0  0  0  0  0  0  0  0  0  0  0
  -20.9870  -29.8010   21.7720 H   0  0  0  0  0  0  0  0  0  0  0  0
  -18.0940  -28.0700   22.9630 C   0  0  0  0  0  0  0  0  0  0  0  0
  -20.6520  -28.3160   23.2340 C   0  0  0  0  0  3  0  0  0  0  0  0
  -20.7480  -26.8810   22.6680 C   0  0  0  0  0  2  0  0  0  0  0  0
  -19.6450  -26.5540   21.6570 C   0  0  0  0  0  2  0  0  0  0  0  0
  -18.2630  -26.7130   22.2990 C   0  0  0  0  0  2  0  0  0  0  0  0
  -19.2160  -28.8290   23.3880 C   0  0  0  0  0  0  0  0  0  0  0  0
  -19.0050  -30.1000   23.9660 C   0  0  0  0  0  3  0  0  0  0  0  0
  -17.7040  -30.6110   24.1270 C   0  0  0  0  0  3  0  0  0  0  0  0
  -16.5960  -29.8490   23.7190 C   0  0  0  0  0  3  0  0  0  0  0  0
  -16.7910  -28.5820   23.1420 C   0  0  0  0  0  3  0  0  0  0  0  0
  -25.9640  -32.4630   23.8530 C   0  0  0  0  0  3  0  0  0  0  0  0
  -26.4950  -31.6850   25.1210 C   0  0  1  0  0  0  0  0  0  0  0  0
  -25.4140  -31.4470   26.2010 C   0  0  0  0  0  1  0  0  0  0  0  0
  -27.0700  -30.3080   24.7160 C   0  0  0  0  0  1  0  0  0  0  0  0
  -27.6550  -32.4740   25.7730 C   0  0  0  0  0  1  0  0  0  0  0  0
  -25.6620  -33.8600   24.1890 N   0  0  0  0  0  0  0  0  0  0  0  0
  -25.9910  -34.9130   23.4280 C   0  0  0  0  0  0  0  0  0  0  0  0
  -26.6530  -34.8090   22.3910 O   0  0  0  0  0  0  0  0  0  0  0  0
  -25.0740  -34.0150   24.9950 H   0  0  0  0  0  0  0  0  0  0  0  0
  -24.2630  -36.7080   23.0890 C   0  0  0  0  0  1  0  0  0  0  0  0
  -25.5100  -36.3010   23.8910 C   0  0  0  0  0  3  0  0  0  0  0  0
  -27.6530  -37.1790   24.7030 C   0  0  0  0  0  1  0  0  0  0  0  0
  -26.5420  -37.3530   23.7700 N   0  0  0  0  0  0  0  0  0  0  0  0
  -26.1390  -38.2740   23.9240 H   0  0  0  0  0  0  0  0  0  0  0  0
  -28.8550  -21.5520   16.5130 C   0  0  0  0  0  2  0  0  0  0  0  0
  -28.0610  -20.2950   16.9090 C   0  0  0  0  0  2  0  0  0  0  0  0
  -27.8650  -20.0630   18.4220 C   0  0  0  0  0  2  0  0  0  0  0  0
  -29.0260  -19.3240   19.1180 C   0  0  0  0  0  2  0  0  0  0  0  0
  -28.5830  -18.6500   20.4360 C   0  0  0  0  0  2  0  0  0  0  0  0
  -29.6250  -17.7330   21.1140 C   0  0  0  0  0  2  0  0  0  0  0  0
  -30.1630  -16.6050   20.2110 C   0  0  0  0  0  2  0  0  0  0  0  0
  -30.7500  -14.2260   20.3570 C   0  0  0  0  0  0  0  0  0  0  0  0
  -30.3550  -12.1080   19.1890 C   0  0  0  0  0  2  0  0  0  0  0  0
  -29.4140  -12.4210   18.0060 C   0  0  0  0  0  2  0  0  0  0  0  0
  -27.9380  -12.3280   18.4450 C   0  0  0  0  0  2  0  0  0  0  0  0
  -27.6510  -13.1210   19.7500 C   0  0  0  0  0  3  0  0  0  0  0  0
  -28.7160  -12.8190   20.8340 C   0  0  0  0  0  2  0  0  0  0  0  0
  -30.0470  -13.0700   20.2560 N   0  0  0  0  0  0  0  0  0  0  0  0
  -31.8690  -14.3890   19.8680 O   0  0  0  0  0  0  0  0  0  0  0  0
  -30.0350  -15.2710   20.7990 N   0  0  0  0  0  0  0  0  0  0  0  0
  -29.1510  -15.0450   21.2290 H   0  0  0  0  0  0  0  0  0  0  0  0
  -25.2680  -13.7730   20.4770 C   0  0  0  0  0  0  0  0  0  0  0  0
  -24.1910  -13.0200   20.8600 C   0  0  0  0  0  0  0  0  0  0  0  0
  -24.6280  -11.6610   20.8300 C   0  0  0  0  0  0  0  0  0  0  0  0
  -26.2960  -12.8730   20.2400 N   0  0  0  0  0  0  0  0  0  0  0  0
  -25.9140  -11.5980   20.5070 N   0  0  0  0  0  0  0  0  0  0  0  0
  -23.8800  -10.4120   21.0340 C   0  0  0  0  0  0  0  0  0  0  0  0
  -24.3200   -9.4320   21.9520 C   0  0  0  0  0  3  0  0  0  0  0  0
  -23.5760   -8.2480   22.1460 C   0  0  0  0  0  3  0  0  0  0  0  0
  -22.3810   -8.0360   21.4220 C   0  0  0  0  0  0  0  0  0  0  0  0
  -21.9580   -9.0040   20.4950 C   0  0  0  0  0  3  0  0  0  0  0  0
  -22.7010  -10.1810   20.2990 C   0  0  0  0  0  3  0  0  0  0  0  0
  -21.6070   -6.9050   21.5250 O   0  0  0  0  0  0  0  0  0  0  0  0
  -21.5930   -6.1450   22.6660 C   0  0  0  0  0  0  0  0  0  0  0  0
  -21.2470   -6.6920   23.9210 C   0  0  0  0  0  3  0  0  0  0  0  0
  -21.1760   -5.8600   25.0560 C   0  0  0  0  0  3  0  0  0  0  0  0
  -21.4400   -4.4830   24.9380 C   0  0  0  0  0  0  0  0  0  0  0  0
  -21.7790   -3.9350   23.6890 C   0  0  0  0  0  3  0  0  0  0  0  0
  -21.8510   -4.7640   22.5550 C   0  0  0  0  0  0  0  0  0  0  0  0
  -22.1580   -4.2270   21.3490 F   0  0  0  0  0  0  0  0  0  0  0  0
  -21.3640   -3.6820   26.0270 F   0  0  0  0  0  0  0  0  0  0  0  0
  -22.8050  -13.5220   21.1470 C   0  0  0  0  0  0  0  0  0  0  0  0
  -22.0790  -12.8450   22.0290 N   0  0  0  0  0  0  0  0  0  0  0  0
  -22.3760  -14.5510   20.6250 O   0  0  0  0  0  0  0  0  0  0  0  0
  -22.4390  -12.0140   22.4730 H   0  0  0  0  0  0  0  0  0  0  0  0
  -21.1500  -13.1640   22.2650 H   0  0  0  0  0  0  0  0  0  0  0  0
  -25.4520  -15.1400   20.2990 N   0  0  0  0  0  0  0  0  0  0  0  0
  -24.7010  -15.8070   20.4370 H   0  0  0  0  0  0  0  0  0  0  0  0
  -26.3080  -15.5720   19.9760 H   0  0  0  0  0  0  0  0  0  0  0  0
  1  3  1  0
  2  1  2  0
  2  5  1  0
  3  6  2  0
  4  6  1  0
  5  4  2  0
  6  7  1  0
  7  8  1  0
  9  8  1  0
  9 10  1  0
 11 10  1  0
 12 14  1  0
 12 11  1  0
 13 24  2  0
 14 19  1  0
 15 23  1  0
 15 25  1  0
 16 22  1  0
 16 18  1  0
 17 23  1  0
 18 17  1  0
 19 18  2  0
 20 21  1  0
 20 14  2  0
 21 16  2  0
 22 15  1  0
 23 13  1  0
 25 27  2  0
 26 25  1  0
 28 26  1  0
 29 38  2  0
 29 34  1  0
 30 26  1  0
 30 34  1  0
 31 30  1  0
 32 33  1  0
 32 31  1  0
 33 29  1  0
 34 35  2  0
 35 36  1  0
 37 36  2  0
 38 37  1  0
 39 13  1  0
 39 44  1  0
 39 40  1  0
 40 43  1  1
 40 41  1  0
 42 40  1  0
 44 47  1  0
 45 49  1  0
 45 44  1  0
 46 45  2  0
 49 48  1  0
 51 49  1  0
 51 52  1  0
 51 50  1  0
 53  5  1  0
 53 54  1  0
 54 55  1  0
 55 56  1  0
 56 57  1  0
 57 58  1  0
 59 68  1  0
 59 58  1  0
 60 68  1  0
 61 66  1  0
 62 63  1  0
 62 61  1  0
 64 63  1  0
 64 73  1  0
 64 65  1  0
 66 60  1  0
 66 65  1  0
 67 60  2  0
 68 69  1  0
 70 71  2  0
 71 90  1  0
 72 71  1  0
 72 75  1  0
 73 70  1  0
 73 74  1  0
 74 72  2  0
 75 76  1  0
 76 77  2  0
 78 81  1  0
 78 77  1  0
 79 78  2  0
 80 79  1  0
 80 75  2  0
 81 82  1  0
 82 83  1  0
 83 84  2  0
 85 84  1  0
 85 89  1  0
 86 85  2  0
 87 82  2  0
 87 86  1  0
 88 87  1  0
 90 91  1  0
 91 94  1  0
 91 93  1  0
 92 90  2  0
 95 96  1  0
 95 70  1  0
 97 95  1  0
M  ISO  4  11 101  12 101  60 100  68 100
M  END
>  <TORSDO>  (48) 
F 28

>  <SCORE>  (48) 
-11.020

>  <name>  (48) 
47

>  <ligand_id>  (48) 
47

>  <original_smiles>  (48) 
[H]c1c([H])c([H])c2c(c1[H])C([H])([H])C([H])([H])C([H])([H])C2([H])N([H])C(=O)C1([H])N(C(=O)C([H])(N([H])C(=O)C([H])(N([H])C([H])([H])[H])C([H])([H])[H])C(C([H])([H])[H])(C([H])([H])[H])C([H])([H])[H])C([H])([H])c2c([H])c(OC([H])([H])C([H])([H])C([H])([H])C([H])([H])C([H])([H])c3c([H])c([H])c([H])c(C([H])([H])C([H])([H])C([H])([H])C([H])([H])C([H])([H])C([H])([H])C([H])([H])N([H])C(=O)N4C([H])([H])C([H])([H])C([H])([H])C([H])(n5nc(-c6c([H])c([H])c(Oc7c([H])c([H])c(F)c([H])c7F)c([H])c6[H])c(C(=O)N([H])[H])c5N([H])[H])C4([H])[H])c3[H])c([H])c([H])c2C1([H])[H]

>  <smiles>  (48) 
[H]c1c([H])c([H])c2c(c1[H])C([H])([H])C([H])([H])C([H])([H])C2([H])N([H])C(=O)C1([H])N(C(=O)C([H])(N([H])C(=O)C([H])(N([H])C([H])([H])[H])C([H])([H])[H])C(C([H])([H])[H])(C([H])([H])[H])C([H])([H])[H])C([H])([H])c2c([H])c(OC([H])([H])C([H])([H])C([H])([H])C([H])([H])C([H])([H])c3c([H])c([H])c([H])c(C([H])([H])C([H])([H])C([H])([H])C([H])([H])C([H])([H])C([H])([H])C([H])([H])N([H])C(=O)N4C([H])([H])C([H])([H])C([H])([H])C([H])(n5nc(-c6c([H])c([H])c(Oc7c([H])c([H])c(F)c([H])c7F)c([H])c6[H])c(C(=O)N([H])[H])c5N([H])[H])C4([H])[H])c3[H])c([H])c([H])c2C1([H])[H]

$$$$
48:0:0
     RDKit          3D

 94103  0  0  1  0  0  0  0  0999 V2000
  -27.0860  -23.1730   21.8720 C   0  0  0  0  0  3  0  0  0  0  0  0
  -27.6450  -22.0150   21.2970 C   0  0  0  0  0  3  0  0  0  0  0  0
  -26.5160  -24.1670   21.0520 C   0  0  0  0  0  3  0  0  0  0  0  0
  -27.0260  -22.8280   19.0850 C   0  0  0  0  0  3  0  0  0  0  0  0
  -27.6200  -21.8420   19.8990 C   0  0  0  0  0  0  0  0  0  0  0  0
  -26.4900  -24.0060   19.6500 C   0  0  0  0  0  0  0  0  0  0  0  0
  -28.2700  -20.6290   19.2560 C   0  0  0  0  0  2  0  0  0  0  0  0
  -27.9910  -19.2960   19.9810 C   0  0  0  0  0  2  0  0  0  0  0  0
  -31.2390  -14.6370   19.2880 C   0  0  0  0  0  0  0  0  0  0  0  0
  -31.1680  -12.1720   19.2340 C   0  0  0  0  0  2  0  0  0  0  0  0
  -30.2200  -11.6720   18.1270 C   0  0  0  0  0  2  0  0  0  0  0  0
  -28.7800  -11.5660   18.6600 C   0  0  0  0  0  2  0  0  0  0  0  0
  -28.3220  -12.8540   19.3910 C   0  0  0  0  0  3  0  0  0  0  0  0
  -29.3820  -13.3150   20.4100 C   0  0  0  0  0  2  0  0  0  0  0  0
  -30.6710  -13.4740   19.7130 N   0  0  0  0  0  0  0  0  0  0  0  0
  -32.2450  -14.6510   18.5660 O   0  0  0  0  0  0  0  0  0  0  0  0
  -29.3890  -17.7390   18.5370 C   0  0  0  0  0  2  0  0  0  0  0  0
  -29.1930  -17.2350   20.9880 C   0  0  0  0  0  2  0  0  0  0  0  0
  -30.6220  -16.8320   18.4810 C   0  0  0  0  0  2  0  0  0  0  0  0
  -30.4650  -16.3660   20.8630 C   0  0  0  0  0  2  0  0  0  0  0  0
  -29.2150  -18.3590   19.9350 C   0  0  0  0  0  3  0  0  0  0  0  0
  -30.5540  -15.7840   19.5140 N   0  0  0  0  0  0  0  0  0  0  0  0
  -26.1090  -13.6320   20.4520 C   0  0  0  0  0  0  0  0  0  0  0  0
  -25.0210  -12.9380   20.9100 C   0  0  0  0  0  0  0  0  0  0  0  0
  -25.3320  -11.5560   20.7310 C   0  0  0  0  0  0  0  0  0  0  0  0
  -27.0170  -12.6760   20.0250 N   0  0  0  0  0  0  0  0  0  0  0  0
  -26.5600  -11.4180   20.2490 N   0  0  0  0  0  0  0  0  0  0  0  0
  -24.5100  -10.3570   20.9360 C   0  0  0  0  0  0  0  0  0  0  0  0
  -24.7530   -9.4680   22.0070 C   0  0  0  0  0  3  0  0  0  0  0  0
  -23.9360   -8.3320   22.1930 C   0  0  0  0  0  3  0  0  0  0  0  0
  -22.8640   -8.0740   21.3060 C   0  0  0  0  0  0  0  0  0  0  0  0
  -22.6410   -8.9490   20.2280 C   0  0  0  0  0  3  0  0  0  0  0  0
  -23.4570  -10.0790   20.0420 C   0  0  0  0  0  3  0  0  0  0  0  0
  -22.0360   -6.9810   21.3930 O   0  0  0  0  0  0  0  0  0  0  0  0
  -21.4340   -6.6260   22.5730 C   0  0  0  0  0  0  0  0  0  0  0  0
  -20.7010   -7.5550   23.3440 C   0  0  0  0  0  3  0  0  0  0  0  0
  -20.0400   -7.1310   24.5140 C   0  0  0  0  0  3  0  0  0  0  0  0
  -20.1030   -5.7810   24.9100 C   0  0  0  0  0  0  0  0  0  0  0  0
  -20.8280   -4.8550   24.1420 C   0  0  0  0  0  3  0  0  0  0  0  0
  -21.4890   -5.2760   22.9740 C   0  0  0  0  0  0  0  0  0  0  0  0
  -22.1690   -4.3750   22.2250 F   0  0  0  0  0  0  0  0  0  0  0  0
  -19.4620   -5.3720   26.0310 F   0  0  0  0  0  0  0  0  0  0  0  0
  -23.7270  -13.5220   21.4000 C   0  0  0  0  0  0  0  0  0  0  0  0
  -23.0400  -12.8220   22.2960 N   0  0  0  0  0  0  0  0  0  0  0  0
  -23.3420  -14.6280   21.0240 O   0  0  0  0  0  0  0  0  0  0  0  0
  -23.3670  -11.9230   22.6190 H   0  0  0  0  0  0  0  0  0  0  0  0
  -22.1750  -13.1910   22.6640 H   0  0  0  0  0  0  0  0  0  0  0  0
  -26.3940  -14.9900   20.3440 N   0  0  0  0  0  0  0  0  0  0  0  0
  -25.7320  -15.7090   20.6130 H   0  0  0  0  0  0  0  0  0  0  0  0
  -27.2530  -15.3640   19.9630 H   0  0  0  0  0  0  0  0  0  0  0  0
  -25.8990  -25.1030   18.7680 C   0  0  0  0  0  2  0  0  0  0  0  0
  -26.5900  -25.2340   17.3940 C   0  0  0  0  0  2  0  0  0  0  0  0
  -26.1470  -26.4310   16.5320 C   0  0  0  0  0  2  0  0  0  0  0  0
  -26.4670  -27.6850   17.1330 O   0  0  0  0  0  0  0  0  0  0  0  0
  -25.9170  -29.2430   24.0280 C   0  0  0  0  0  0  0  0  0  0  0  0
  -25.6610  -28.2440   18.1010 C   0  0  0  0  0  0  0  0  0  0  0  0
  -23.8620  -29.5830   22.6940 C   0  0  0  0  0  3  0  0  0  0  0  0
  -24.1470  -29.4490   20.1650 C   0  0  0  0  0  0  0  0  0  0  0  0
  -26.1680  -29.7610   21.6030 C   0  0  0  0  0  2  0  0  0  0  0  0
  -25.5280  -29.2830   20.3170 C   0  0  0  0  0  0  0  0  0  0  0  0
  -26.2850  -28.6840   19.2880 C   0  0  0  0  0  3  0  0  0  0  0  0
  -24.2630  -28.4170   17.9650 C   0  0  0  0  0  3  0  0  0  0  0  0
  -23.5080  -29.0120   18.9920 C   0  0  0  0  0  3  0  0  0  0  0  0
  -23.4050  -30.1050   21.3060 C   0  0  0  0  0  2  0  0  0  0  0  0
  -25.3540  -29.4950   22.8120 N   0  0  0  0  0  0  0  0  0  0  0  0
  -25.2190  -29.1270   25.0440 O   0  0  0  0  0  0  0  0  0  0  0  0
  -23.1470  -28.2430   22.9740 C   0  0  0  0  0  0  0  0  0  0  0  0
  -21.8350  -28.1970   22.6900 N   0  0  0  0  0  0  0  0  0  0  0  0
  -23.7690  -27.2710   23.4090 O   0  0  0  0  0  0  0  0  0  0  0  0
  -21.3970  -29.0380   22.3410 H   0  0  0  0  0  0  0  0  0  0  0  0
  -18.6840  -26.7710   21.6490 C   0  0  0  0  0  0  0  0  0  0  0  0
  -20.9620  -27.0330   22.8400 C   0  0  0  0  0  3  0  0  0  0  0  0
  -21.4470  -25.8610   21.9540 C   0  0  0  0  0  2  0  0  0  0  0  0
  -20.7750  -25.8280   20.5770 C   0  0  0  0  0  2  0  0  0  0  0  0
  -19.2550  -25.7100   20.7240 C   0  0  0  0  0  2  0  0  0  0  0  0
  -19.4900  -27.4040   22.6320 C   0  0  0  0  0  0  0  0  0  0  0  0
  -18.9190  -28.4090   23.4430 C   0  0  0  0  0  3  0  0  0  0  0  0
  -17.5710  -28.7820   23.2840 C   0  0  0  0  0  3  0  0  0  0  0  0
  -16.7730  -28.1400   22.3220 C   0  0  0  0  0  3  0  0  0  0  0  0
  -17.3280  -27.1350   21.5100 C   0  0  0  0  0  3  0  0  0  0  0  0
  -27.4630  -29.1130   24.2010 C   0  0  0  0  0  3  0  0  0  0  0  0
  -27.8850  -30.1350   25.1680 N   0  0  0  0  0  0  0  0  0  0  0  0
  -28.5370  -31.2610   24.8470 C   0  0  0  0  0  0  0  0  0  0  0  0
  -28.9130  -31.5140   23.7000 O   0  0  0  0  0  0  0  0  0  0  0  0
  -27.5610  -30.0210   26.1170 H   0  0  0  0  0  0  0  0  0  0  0  0
  -27.8330  -33.4420   25.8800 C   0  0  0  0  0  1  0  0  0  0  0  0
  -28.8150  -32.2650   25.9810 C   0  0  0  0  0  3  0  0  0  0  0  0
  -31.1900  -31.7570   26.3510 C   0  0  0  0  0  1  0  0  0  0  0  0
  -30.2050  -32.7740   25.9890 N   0  0  0  0  0  0  0  0  0  0  0  0
  -30.2990  -33.5490   26.6390 H   0  0  0  0  0  0  0  0  0  0  0  0
  -27.9180  -27.6770   24.6700 C   0  0  1  0  0  0  0  0  0  0  0  0
  -27.1480  -27.1520   25.9040 C   0  0  0  0  0  1  0  0  0  0  0  0
  -27.7390  -26.6490   23.5280 C   0  0  0  0  0  1  0  0  0  0  0  0
  -29.4260  -27.6920   25.0150 C   0  0  0  0  0  1  0  0  0  0  0  0
  2  1  1  0
  3  1  2  0
  4  6  2  0
  4  5  1  0
  5  2  2  0
  6  3  1  0
  7  5  1  0
  7  8  1  0
  9 22  1  0
  9 15  1  0
 10 15  1  0
 11 12  1  0
 11 10  1  0
 13 12  1  0
 13 26  1  0
 13 14  1  0
 15 14  1  0
 16  9  2  0
 17 21  1  0
 19 17  1  0
 19 22  1  0
 20 18  1  0
 21  8  1  0
 21 18  1  0
 22 20  1  0
 23 24  2  0
 24 43  1  0
 25 24  1  0
 25 28  1  0
 26 27  1  0
 26 23  1  0
 27 25  2  0
 28 29  1  0
 29 30  2  0
 31 34  1  0
 31 30  1  0
 32 31  2  0
 33 32  1  0
 33 28  2  0
 34 35  1  0
 35 40  2  0
 35 36  1  0
 36 37  2  0
 37 38  1  0
 38 42  1  0
 39 38  2  0
 40 39  1  0
 41 40  1  0
 43 44  1  0
 44 46  1  0
 44 47  1  0
 45 43  2  0
 48 23  1  0
 48 49  1  0
 50 48  1  0
 51  6  1  0
 52 51  1  0
 53 54  1  0
 53 52  1  0
 54 56  1  0
 55 66  2  0
 56 61  1  0
 57 65  1  0
 57 67  1  0
 58 60  1  0
 58 64  1  0
 59 65  1  0
 60 59  1  0
 61 60  2  0
 62 56  2  0
 62 63  1  0
 63 58  2  0
 64 57  1  0
 65 55  1  0
 67 69  2  0
 68 67  1  0
 70 68  1  0
 71 76  1  0
 72 68  1  0
 73 72  1  0
 74 75  1  0
 74 73  1  0
 75 71  1  0
 76 72  1  0
 76 77  2  0
 78 77  1  0
 79 78  2  0
 80 71  2  0
 80 79  1  0
 81 55  1  0
 81 91  1  0
 81 82  1  0
 82 85  1  0
 83 82  1  0
 83 87  1  0
 84 83  2  0
 87 86  1  0
 87 89  1  0
 89 88  1  0
 89 90  1  0
 91 94  1  1
 91 92  1  0
 93 91  1  0
M  ISO  4   9 100  22 100  53 101  54 101
M  END
>  <TORSDO>  (49) 
F 21

>  <SCORE>  (49) 
-9.420

>  <name>  (49) 
48

>  <ligand_id>  (49) 
48

>  <original_smiles>  (49) 
[H]c1c([H])c([H])c2c(c1[H])C([H])([H])C([H])([H])C([H])([H])C2([H])N([H])C(=O)C1([H])N(C(=O)C([H])(N([H])C(=O)C([H])(N([H])C([H])([H])[H])C([H])([H])[H])C(C([H])([H])[H])(C([H])([H])[H])C([H])([H])[H])C([H])([H])c2c([H])c(OC([H])([H])C([H])([H])C([H])([H])c3c([H])c([H])c([H])c(C([H])([H])C([H])([H])C4([H])C([H])([H])C([H])([H])N(C(=O)N5C([H])([H])C([H])([H])C([H])([H])C([H])(n6nc(-c7c([H])c([H])c(Oc8c([H])c([H])c(F)c([H])c8F)c([H])c7[H])c(C(=O)N([H])[H])c6N([H])[H])C5([H])[H])C([H])([H])C4([H])[H])c3[H])c([H])c([H])c2C1([H])[H]

>  <smiles>  (49) 
[H]c1c([H])c([H])c2c(c1[H])C([H])([H])C([H])([H])C([H])([H])C2([H])N([H])C(=O)C1([H])N(C(=O)C([H])(N([H])C(=O)C([H])(N([H])C([H])([H])[H])C([H])([H])[H])C(C([H])([H])[H])(C([H])([H])[H])C([H])([H])[H])C([H])([H])c2c([H])c(OC([H])([H])C([H])([H])C([H])([H])c3c([H])c([H])c([H])c(C([H])([H])C([H])([H])C4([H])C([H])([H])C([H])([H])N(C(=O)N5C([H])([H])C([H])([H])C([H])([H])C([H])(n6nc(-c7c([H])c([H])c(Oc8c([H])c([H])c(F)c([H])c8F)c([H])c7[H])c(C(=O)N([H])[H])c6N([H])[H])C5([H])[H])C([H])([H])C4([H])[H])c3[H])c([H])c([H])c2C1([H])[H]

$$$$
49:0:0
     RDKit          3D

 95103  0  0  1  0  0  0  0  0999 V2000
  -24.7940  -22.9380   21.4010 C   0  0  0  0  0  3  0  0  0  0  0  0
  -25.1760  -21.9390   20.4800 C   0  0  0  0  0  3  0  0  0  0  0  0
  -25.7320  -23.8900   21.8490 C   0  0  0  0  0  3  0  0  0  0  0  0
  -27.4120  -22.9040   20.3850 C   0  0  0  0  0  3  0  0  0  0  0  0
  -26.4920  -21.9230   19.9640 C   0  0  0  0  0  0  0  0  0  0  0  0
  -27.0540  -23.8620   21.3540 C   0  0  0  0  0  0  0  0  0  0  0  0
  -26.9660  -20.8390   19.0020 C   0  0  0  0  0  2  0  0  0  0  0  0
  -27.5470  -19.6170   19.7540 C   0  0  0  0  0  2  0  0  0  0  0  0
  -28.9060  -19.1130   19.2130 C   0  0  0  0  0  2  0  0  0  0  0  0
  -29.9060  -18.7500   20.3370 C   0  0  0  0  0  2  0  0  0  0  0  0
  -31.1080  -17.8870   19.8820 C   0  0  0  0  0  2  0  0  0  0  0  0
  -31.7340  -15.4380   19.9110 C   0  0  0  0  0  0  0  0  0  0  0  0
  -31.8410  -12.9640   19.8600 C   0  0  0  0  0  2  0  0  0  0  0  0
  -31.0100  -12.4260   18.6770 C   0  0  0  0  0  2  0  0  0  0  0  0
  -29.5180  -12.3020   19.0450 C   0  0  0  0  0  2  0  0  0  0  0  0
  -28.9610  -13.5860   19.7160 C   0  0  0  0  0  3  0  0  0  0  0  0
  -29.8950  -14.0170   20.8640 C   0  0  0  0  0  2  0  0  0  0  0  0
  -31.2350  -14.2330   20.2920 N   0  0  0  0  0  0  0  0  0  0  0  0
  -32.8520  -15.5820   19.4030 O   0  0  0  0  0  0  0  0  0  0  0  0
  -30.8650  -16.4560   20.0700 N   0  0  0  0  0  0  0  0  0  0  0  0
  -29.9520  -16.2000   20.4140 H   0  0  0  0  0  0  0  0  0  0  0  0
  -26.6210  -14.3590   20.4630 C   0  0  0  0  0  0  0  0  0  0  0  0
  -25.4970  -13.6580   20.8130 C   0  0  0  0  0  0  0  0  0  0  0  0
  -25.8490  -12.2770   20.7260 C   0  0  0  0  0  0  0  0  0  0  0  0
  -27.5890  -13.4050   20.1870 N   0  0  0  0  0  0  0  0  0  0  0  0
  -27.1280  -12.1460   20.3980 N   0  0  0  0  0  0  0  0  0  0  0  0
  -25.0290  -11.0710   20.8730 C   0  0  0  0  0  0  0  0  0  0  0  0
  -25.3180  -10.0940   21.8520 C   0  0  0  0  0  3  0  0  0  0  0  0
  -24.5020   -8.9500   21.9820 C   0  0  0  0  0  3  0  0  0  0  0  0
  -23.3880   -8.7720   21.1290 C   0  0  0  0  0  0  0  0  0  0  0  0
  -23.1160   -9.7360   20.1450 C   0  0  0  0  0  3  0  0  0  0  0  0
  -23.9300  -10.8730   20.0140 C   0  0  0  0  0  3  0  0  0  0  0  0
  -22.5580   -7.6760   21.1640 O   0  0  0  0  0  0  0  0  0  0  0  0
  -22.2550   -7.0410   22.3440 C   0  0  0  0  0  0  0  0  0  0  0  0
  -21.6470   -7.7220   23.4210 C   0  0  0  0  0  3  0  0  0  0  0  0
  -21.2910   -7.0170   24.5860 C   0  0  0  0  0  3  0  0  0  0  0  0
  -21.5310   -5.6310   24.6750 C   0  0  0  0  0  0  0  0  0  0  0  0
  -22.1320   -4.9510   23.6010 C   0  0  0  0  0  3  0  0  0  0  0  0
  -22.4900   -5.6550   22.4370 C   0  0  0  0  0  0  0  0  0  0  0  0
  -23.0500   -4.9900   21.3970 F   0  0  0  0  0  0  0  0  0  0  0  0
  -21.1810   -4.9540   25.7930 F   0  0  0  0  0  0  0  0  0  0  0  0
  -24.1410  -14.2360   21.1140 C   0  0  0  0  0  0  0  0  0  0  0  0
  -23.3760  -13.5850   21.9850 N   0  0  0  0  0  0  0  0  0  0  0  0
  -23.7770  -15.2960   20.6140 O   0  0  0  0  0  0  0  0  0  0  0  0
  -23.6770  -12.7210   22.4090 H   0  0  0  0  0  0  0  0  0  0  0  0
  -22.4690  -13.9590   22.2320 H   0  0  0  0  0  0  0  0  0  0  0  0
  -26.8900  -15.7180   20.3340 N   0  0  0  0  0  0  0  0  0  0  0  0
  -26.1700  -16.4170   20.4780 H   0  0  0  0  0  0  0  0  0  0  0  0
  -27.7400  -16.0960   19.9340 H   0  0  0  0  0  0  0  0  0  0  0  0
  -28.1040  -24.8250   21.8860 C   0  0  0  0  0  2  0  0  0  0  0  0
  -28.1460  -26.1740   21.1460 C   0  0  0  0  0  2  0  0  0  0  0  0
  -30.3930  -26.9830   22.0400 C   0  0  0  0  0  1  0  0  0  0  0  0
  -29.5910  -26.6020   20.7830 C   0  0  0  0  0  3  0  0  0  0  0  0
  -29.6920  -27.7380   19.7400 C   0  0  0  0  0  2  0  0  0  0  0  0
  -28.6820  -27.6550   18.7290 O   0  0  0  0  0  0  0  0  0  0  0  0
  -24.5680  -31.3310   23.2260 C   0  0  0  0  0  0  0  0  0  0  0  0
  -27.4480  -28.1990   19.0180 C   0  0  0  0  0  0  0  0  0  0  0  0
  -23.3790  -30.1680   21.3890 C   0  0  0  0  0  3  0  0  0  0  0  0
  -24.8660  -29.2240   19.5410 C   0  0  0  0  0  0  0  0  0  0  0  0
  -25.7880  -30.9570   21.0960 C   0  0  0  0  0  2  0  0  0  0  0  0
  -25.9860  -29.7930   20.1530 C   0  0  0  0  0  0  0  0  0  0  0  0
  -27.2720  -29.2930   19.8930 C   0  0  0  0  0  3  0  0  0  0  0  0
  -26.3180  -27.6500   18.3810 C   0  0  0  0  0  3  0  0  0  0  0  0
  -25.0240  -28.1460   18.6480 C   0  0  0  0  0  3  0  0  0  0  0  0
  -23.5290  -29.8450   19.8760 C   0  0  0  0  0  2  0  0  0  0  0  0
  -24.5990  -30.8250   21.9620 N   0  0  0  0  0  0  0  0  0  0  0  0
  -23.5300  -31.3070   23.9020 O   0  0  0  0  0  0  0  0  0  0  0  0
  -22.9820  -28.8710   22.1270 C   0  0  0  0  0  0  0  0  0  0  0  0
  -21.7330  -28.4280   21.9130 N   0  0  0  0  0  0  0  0  0  0  0  0
  -23.7870  -28.2750   22.8450 O   0  0  0  0  0  0  0  0  0  0  0  0
  -21.1370  -28.9780   21.3100 H   0  0  0  0  0  0  0  0  0  0  0  0
  -18.7750  -26.3510   21.8790 C   0  0  0  0  0  0  0  0  0  0  0  0
  -21.1420  -27.2100   22.4620 C   0  0  0  0  0  3  0  0  0  0  0  0
  -21.6710  -25.9580   21.7280 C   0  0  0  0  0  2  0  0  0  0  0  0
  -20.7710  -25.5060   20.5730 C   0  0  0  0  0  2  0  0  0  0  0  0
  -19.3590  -25.1980   21.0810 C   0  0  0  0  0  2  0  0  0  0  0  0
  -19.6150  -27.3050   22.5140 C   0  0  0  0  0  0  0  0  0  0  0  0
  -19.0240  -28.3800   23.2130 C   0  0  0  0  0  3  0  0  0  0  0  0
  -17.6240  -28.5050   23.2920 C   0  0  0  0  0  3  0  0  0  0  0  0
  -16.7990  -27.5450   22.6800 C   0  0  0  0  0  3  0  0  0  0  0  0
  -17.3740  -26.4710   21.9790 C   0  0  0  0  0  3  0  0  0  0  0  0
  -25.8270  -31.9890   23.8750 C   0  0  0  0  0  3  0  0  0  0  0  0
  -26.4010  -31.1680   25.0920 C   0  0  1  0  0  0  0  0  0  0  0  0
  -25.3290  -30.8010   26.1430 C   0  0  0  0  0  1  0  0  0  0  0  0
  -27.0570  -29.8570   24.6000 C   0  0  0  0  0  1  0  0  0  0  0  0
  -27.5110  -31.9820   25.7980 C   0  0  0  0  0  1  0  0  0  0  0  0
  -25.4530  -33.3470   24.2890 N   0  0  0  0  0  0  0  0  0  0  0  0
  -25.7990  -34.4630   23.6350 C   0  0  0  0  0  0  0  0  0  0  0  0
  -26.5370  -34.4620   22.6450 O   0  0  0  0  0  0  0  0  0  0  0  0
  -24.8070  -33.4190   25.0640 H   0  0  0  0  0  0  0  0  0  0  0  0
  -24.0480  -36.2240   23.2800 C   0  0  0  0  0  1  0  0  0  0  0  0
  -25.2330  -35.7950   24.1580 C   0  0  0  0  0  3  0  0  0  0  0  0
  -27.2740  -36.6550   25.2150 C   0  0  0  0  0  1  0  0  0  0  0  0
  -26.2380  -36.8780   24.2100 N   0  0  0  0  0  0  0  0  0  0  0  0
  -25.7970  -37.7710   24.4080 H   0  0  0  0  0  0  0  0  0  0  0  0
  1  3  1  0
  2  1  2  0
  4  6  1  0
  5  4  2  0
  5  2  1  0
  6  3  2  0
  6 50  1  0
  7  8  1  0
  7  5  1  0
  9  8  1  0
  9 10  1  0
 11 20  1  0
 11 10  1  0
 12 20  1  0
 12 18  1  0
 13 18  1  0
 14 15  1  0
 14 13  1  0
 16 15  1  0
 16 25  1  0
 16 17  1  0
 18 17  1  0
 19 12  2  0
 20 21  1  0
 22 23  2  0
 23 42  1  0
 24 23  1  0
 24 27  1  0
 25 26  1  0
 25 22  1  0
 26 24  2  0
 27 28  1  0
 28 29  2  0
 30 33  1  0
 30 29  1  0
 31 30  2  0
 32 31  1  0
 32 27  2  0
 33 34  1  0
 34 39  2  0
 34 35  1  0
 35 36  2  0
 36 37  1  0
 37 41  1  0
 38 37  2  0
 39 38  1  0
 40 39  1  0
 42 43  1  0
 43 46  1  0
 43 45  1  0
 44 42  2  0
 47 22  1  0
 47 48  1  0
 49 47  1  0
 51 50  1  0
 53 51  1  0
 53 52  1  0
 54 53  1  0
 55 57  1  0
 55 54  1  0
 56 67  2  0
 57 62  1  0
 58 66  1  0
 58 68  1  0
 59 65  1  0
 59 61  1  0
 60 66  1  0
 61 60  1  0
 62 61  2  0
 63 64  1  0
 63 57  2  0
 64 59  2  0
 65 58  1  0
 66 56  1  0
 68 70  2  0
 69 68  1  0
 71 69  1  0
 72 81  2  0
 72 77  1  0
 73 69  1  0
 73 77  1  0
 74 73  1  0
 75 76  1  0
 75 74  1  0
 76 72  1  0
 77 78  2  0
 78 79  1  0
 80 79  2  0
 81 80  1  0
 82 56  1  0
 82 87  1  0
 82 83  1  0
 83 86  1  1
 83 84  1  0
 85 83  1  0
 87 90  1  0
 88 92  1  0
 88 87  1  0
 89 88  2  0
 92 91  1  0
 92 94  1  0
 94 95  1  0
 94 93  1  0
M  ISO  4  12 100  20 100  54 101  55 101
M  END
>  <TORSDO>  (50) 
F 25

>  <SCORE>  (50) 
-5.949

>  <name>  (50) 
49

>  <ligand_id>  (50) 
49

>  <original_smiles>  (50) 
[H]c1c([H])c([H])c2c(c1[H])C([H])([H])C([H])([H])C([H])([H])C2([H])N([H])C(=O)C1([H])N(C(=O)C([H])(N([H])C(=O)C([H])(N([H])C([H])([H])[H])C([H])([H])[H])C(C([H])([H])[H])(C([H])([H])[H])C([H])([H])[H])C([H])([H])c2c([H])c(OC([H])([H])C([H])(C([H])([H])[H])C([H])([H])C([H])([H])c3c([H])c([H])c([H])c(C([H])([H])C([H])([H])C([H])([H])C([H])([H])C([H])([H])N([H])C(=O)N4C([H])([H])C([H])([H])C([H])([H])C([H])(n5nc(-c6c([H])c([H])c(Oc7c([H])c([H])c(F)c([H])c7F)c([H])c6[H])c(C(=O)N([H])[H])c5N([H])[H])C4([H])[H])c3[H])c([H])c([H])c2C1([H])[H]

>  <smiles>  (50) 
[H]c1c([H])c([H])c2c(c1[H])C([H])([H])C([H])([H])C([H])([H])C2([H])N([H])C(=O)C1([H])N(C(=O)C([H])(N([H])C(=O)C([H])(N([H])C([H])([H])[H])C([H])([H])[H])C(C([H])([H])[H])(C([H])([H])[H])C([H])([H])[H])C([H])([H])c2c([H])c(OC([H])([H])C([H])(C([H])([H])[H])C([H])([H])C([H])([H])c3c([H])c([H])c([H])c(C([H])([H])C([H])([H])C([H])([H])C([H])([H])C([H])([H])N([H])C(=O)N4C([H])([H])C([H])([H])C([H])([H])C([H])(n5nc(-c6c([H])c([H])c(Oc7c([H])c([H])c(F)c([H])c7F)c([H])c6[H])c(C(=O)N([H])[H])c5N([H])[H])C4([H])[H])c3[H])c([H])c([H])c2C1([H])[H]

$$$$
50:0:0
     RDKit          3D

 95102  0  0  1  0  0  0  0  0999 V2000
  -27.1590  -23.9270   22.2600 C   0  0  0  0  0  3  0  0  0  0  0  0
  -28.1260  -22.8520   21.9620 N   0  0  0  0  0  4  0  0  0  0  0  0
  -28.2210  -22.6970   20.9730 H   0  0  0  0  0  0  0  0  0  0  0  0
  -27.8310  -21.9920   22.3860 H   0  0  0  0  0  0  0  0  0  0  0  0
  -29.0350  -23.0730   22.3350 H   0  0  0  0  0  0  0  0  0  0  0  0
  -27.5390  -25.2330   21.5210 C   0  0  0  0  0  2  0  0  0  0  0  0
  -28.8110  -25.9730   22.0270 C   0  0  0  0  0  2  0  0  0  0  0  0
  -29.4240  -26.8590   21.0730 O   0  0  0  0  0  0  0  0  0  0  0  0
  -23.7620  -31.1570   20.9250 C   0  0  0  0  0  0  0  0  0  0  0  0
  -28.5370  -27.5730   20.3120 C   0  0  0  0  0  0  0  0  0  0  0  0
  -24.3360  -30.0270   18.8000 C   0  0  0  0  0  3  0  0  0  0  0  0
  -26.6180  -28.8920   18.7290 C   0  0  0  0  0  0  0  0  0  0  0  0
  -26.1460  -30.5640   20.5260 C   0  0  0  0  0  2  0  0  0  0  0  0
  -26.8970  -29.3500   20.0240 C   0  0  0  0  0  0  0  0  0  0  0  0
  -27.8530  -28.6920   20.8280 C   0  0  0  0  0  3  0  0  0  0  0  0
  -28.2900  -27.1540   18.9880 C   0  0  0  0  0  3  0  0  0  0  0  0
  -27.3090  -27.7860   18.2060 C   0  0  0  0  0  3  0  0  0  0  0  0
  -25.5720  -29.6520   17.9420 C   0  0  0  0  0  2  0  0  0  0  0  0
  -24.7170  -30.5890   20.1370 N   0  0  0  0  0  0  0  0  0  0  0  0
  -22.5900  -31.2620   20.5400 O   0  0  0  0  0  0  0  0  0  0  0  0
  -23.4010  -28.8010   18.8960 C   0  0  0  0  0  0  0  0  0  0  0  0
  -22.7810  -28.4330   17.7620 N   0  0  0  0  0  0  0  0  0  0  0  0
  -23.2620  -28.1910   19.9590 O   0  0  0  0  0  0  0  0  0  0  0  0
  -22.9360  -28.9960   16.9380 H   0  0  0  0  0  0  0  0  0  0  0  0
  -20.8850  -26.5190   15.3500 C   0  0  0  0  0  0  0  0  0  0  0  0
  -21.8810  -27.2900   17.6070 C   0  0  0  0  0  3  0  0  0  0  0  0
  -22.6610  -25.9550   17.6040 C   0  0  0  0  0  2  0  0  0  0  0  0
  -23.0300  -25.4720   16.1980 C   0  0  0  0  0  2  0  0  0  0  0  0
  -21.7700  -25.2820   15.3490 C   0  0  0  0  0  2  0  0  0  0  0  0
  -20.9490  -27.4690   16.4040 C   0  0  0  0  0  0  0  0  0  0  0  0
  -20.1290  -28.6160   16.3430 C   0  0  0  0  0  3  0  0  0  0  0  0
  -19.2610  -28.8240   15.2590 C   0  0  0  0  0  3  0  0  0  0  0  0
  -19.1920  -27.8760   14.2220 C   0  0  0  0  0  3  0  0  0  0  0  0
  -19.9960  -26.7240   14.2740 C   0  0  0  0  0  3  0  0  0  0  0  0
  -24.1050  -31.7330   22.3360 C   0  0  0  0  0  3  0  0  0  0  0  0
  -23.5880  -30.8240   23.5160 C   0  0  1  0  0  0  0  0  0  0  0  0
  -22.0940  -30.4480   23.4040 C   0  0  0  0  0  1  0  0  0  0  0  0
  -24.4040  -29.5120   23.5890 C   0  0  0  0  0  1  0  0  0  0  0  0
  -23.7950  -31.5540   24.8640 C   0  0  0  0  0  1  0  0  0  0  0  0
  -23.5150  -33.0760   22.4190 N   0  0  0  0  0  0  0  0  0  0  0  0
  -24.1990  -34.2170   22.2530 C   0  0  0  0  0  0  0  0  0  0  0  0
  -25.4220  -34.2470   22.0930 O   0  0  0  0  0  0  0  0  0  0  0  0
  -22.5100  -33.1260   22.5000 H   0  0  0  0  0  0  0  0  0  0  0  0
  -23.1630  -36.0160   20.8360 C   0  0  0  0  0  1  0  0  0  0  0  0
  -23.3990  -35.5360   22.2770 C   0  0  0  0  0  3  0  0  0  0  0  0
  -24.0920  -36.3320   24.4940 C   0  0  0  0  0  1  0  0  0  0  0  0
  -24.0550  -36.6070   23.0590 N   0  0  0  0  0  0  0  0  0  0  0  0
  -23.5830  -37.4950   22.9190 H   0  0  0  0  0  0  0  0  0  0  0  0
  -25.7010  -23.4850   21.9160 C   0  0  0  0  0  2  0  0  0  0  0  0
  -24.9940  -22.6140   22.9860 C   0  0  0  0  0  2  0  0  0  0  0  0
  -25.2180  -21.0960   22.8720 C   0  0  0  0  0  2  0  0  0  0  0  0
  -26.6740  -20.6480   23.0830 C   0  0  0  0  0  2  0  0  0  0  0  0
  -27.5530  -20.8850   21.8490 C   0  0  0  0  0  2  0  0  0  0  0  0
  -29.0500  -20.6800   22.1250 C   0  0  0  0  0  2  0  0  0  0  0  0
  -29.8870  -21.1040   20.9180 C   0  0  0  0  0  2  0  0  0  0  0  0
  -31.3650  -20.6950   20.9900 C   0  0  0  0  0  2  0  0  0  0  0  0
  -32.0130  -20.9420   19.6250 C   0  0  0  0  0  2  0  0  0  0  0  0
  -34.4150  -20.9010   19.0150 C   0  0  0  0  0  0  0  0  0  0  0  0
  -35.6330  -21.7770   17.0630 C   0  0  0  0  0  2  0  0  0  0  0  0
  -35.5870  -23.3170   17.0290 C   0  0  0  0  0  2  0  0  0  0  0  0
  -34.3230  -23.8200   16.3080 C   0  0  0  0  0  2  0  0  0  0  0  0
  -33.0370  -23.1300   16.8280 C   0  0  0  0  0  3  0  0  0  0  0  0
  -33.2410  -21.5970   16.8580 C   0  0  0  0  0  2  0  0  0  0  0  0
  -34.4060  -21.2910   17.7100 N   0  0  0  0  0  0  0  0  0  0  0  0
  -35.4360  -20.8790   19.7040 O   0  0  0  0  0  0  0  0  0  0  0  0
  -33.3190  -20.3090   19.5010 N   0  0  0  0  0  0  0  0  0  0  0  0
  -33.5470  -19.7250   20.2890 H   0  0  0  0  0  0  0  0  0  0  0  0
  -30.9380  -24.5170   16.2650 C   0  0  0  0  0  0  0  0  0  0  0  0
  -30.0910  -24.4930   15.1890 C   0  0  0  0  0  0  0  0  0  0  0  0
  -30.5700  -23.4530   14.3340 C   0  0  0  0  0  0  0  0  0  0  0  0
  -31.8670  -23.5120   16.0400 N   0  0  0  0  0  0  0  0  0  0  0  0
  -31.6080  -22.8430   14.8880 N   0  0  0  0  0  0  0  0  0  0  0  0
  -30.1320  -23.0420   12.9920 C   0  0  0  0  0  0  0  0  0  0  0  0
  -29.6490  -21.7390   12.7480 C   0  0  0  0  0  3  0  0  0  0  0  0
  -29.2210  -21.3650   11.4570 C   0  0  0  0  0  3  0  0  0  0  0  0
  -29.2620  -22.2990   10.3940 C   0  0  0  0  0  0  0  0  0  0  0  0
  -29.7620  -23.5900   10.6390 C   0  0  0  0  0  3  0  0  0  0  0  0
  -30.1940  -23.9590   11.9250 C   0  0  0  0  0  3  0  0  0  0  0  0
  -28.8910  -22.0190    9.1020 O   0  0  0  0  0  0  0  0  0  0  0  0
  -27.8290  -21.1960    8.8200 C   0  0  0  0  0  0  0  0  0  0  0  0
  -26.5310  -21.4660    9.3040 C   0  0  0  0  0  3  0  0  0  0  0  0
  -25.4540  -20.6360    8.9360 C   0  0  0  0  0  3  0  0  0  0  0  0
  -25.6700  -19.5420    8.0740 C   0  0  0  0  0  0  0  0  0  0  0  0
  -26.9610  -19.2760    7.5850 C   0  0  0  0  0  3  0  0  0  0  0  0
  -28.0370  -20.1020    7.9570 C   0  0  0  0  0  0  0  0  0  0  0  0
  -29.2750  -19.8530    7.4670 F   0  0  0  0  0  0  0  0  0  0  0  0
  -24.6360  -18.7480    7.7130 F   0  0  0  0  0  0  0  0  0  0  0  0
  -28.9620  -25.4430   14.9150 C   0  0  0  0  0  0  0  0  0  0  0  0
  -27.9220  -24.9800   14.2320 N   0  0  0  0  0  0  0  0  0  0  0  0
  -28.9760  -26.5930   15.3490 O   0  0  0  0  0  0  0  0  0  0  0  0
  -27.8950  -24.0310   13.8910 H   0  0  0  0  0  0  0  0  0  0  0  0
  -27.1370  -25.5860   14.0450 H   0  0  0  0  0  0  0  0  0  0  0  0
  -30.9990  -25.3180   17.4010 N   0  0  0  0  0  0  0  0  0  0  0  0
  -30.3400  -26.0730   17.5600 H   0  0  0  0  0  0  0  0  0  0  0  0
  -31.7100  -25.2540   18.1160 H   0  0  0  0  0  0  0  0  0  0  0  0
  1  6  1  0
  2  1  1  0
  2  5  1  0
  2  4  1  0
  3  2  1  0
  6  7  1  0
  8  7  1  0
 10 15  1  0
 10  8  1  0
 11 21  1  0
 11 19  1  0
 12 14  1  0
 14 13  1  0
 14 15  2  0
 16 10  2  0
 17 12  2  0
 17 16  1  0
 18 12  1  0
 18 11  1  0
 19 13  1  0
 19  9  1  0
 20  9  2  0
 21 23  2  0
 22 21  1  0
 24 22  1  0
 25 30  1  0
 26 22  1  0
 27 26  1  0
 28 27  1  0
 29 25  1  0
 29 28  1  0
 30 26  1  0
 31 30  2  0
 32 31  1  0
 33 34  1  0
 33 32  2  0
 34 25  2  0
 35  9  1  0
 35 40  1  0
 35 36  1  0
 36 38  1  1
 36 39  1  0
 37 36  1  0
 40 43  1  0
 41 45  1  0
 41 40  1  0
 42 41  2  0
 45 44  1  0
 45 47  1  0
 47 46  1  0
 48 47  1  0
 49  1  1  0
 49 50  1  0
 51 50  1  0
 51 52  1  0
 53 54  1  0
 53 52  1  0
 55 56  1  0
 55 54  1  0
 57 56  1  0
 58 66  1  0
 58 65  2  0
 59 64  1  0
 60 59  1  0
 61 62  1  0
 61 60  1  0
 62 71  1  0
 62 63  1  0
 63 64  1  0
 64 58  1  0
 66 57  1  0
 66 67  1  0
 68 93  1  0
 69 68  2  0
 70 72  2  0
 70 69  1  0
 71 68  1  0
 72 71  1  0
 73 70  1  0
 74 73  1  0
 75 74  2  0
 76 77  2  0
 76 75  1  0
 77 78  1  0
 78 73  2  0
 79 76  1  0
 80 79  1  0
 80 81  1  0
 82 81  2  0
 83 82  1  0
 84 85  1  0
 84 83  2  0
 85 80  2  0
 86 85  1  0
 87 83  1  0
 88 69  1  0
 88 90  2  0
 89 88  1  0
 91 89  1  0
 92 89  1  0
 93 94  1  0
 93 95  1  0
M  ISO  4   7 101   8 101  58 100  66 100
M  END
>  <TORSDO>  (51) 
F 28

>  <SCORE>  (51) 
28.336

>  <name>  (51) 
50

>  <ligand_id>  (51) 
50

>  <original_smiles>  (51) 
[H]c1c([H])c([H])c2c(c1[H])C([H])([H])C([H])([H])C([H])([H])C2([H])N([H])C(=O)C1([H])N(C(=O)C([H])(N([H])C(=O)C([H])(N([H])C([H])([H])[H])C([H])([H])[H])C(C([H])([H])[H])(C([H])([H])[H])C([H])([H])[H])C([H])([H])c2c([H])c(OC([H])([H])C([H])([H])C([H])(C([H])([H])C([H])([H])C([H])([H])C([H])([H])C([H])([H])C([H])([H])C([H])([H])C([H])([H])C([H])([H])N([H])C(=O)N3C([H])([H])C([H])([H])C([H])([H])C([H])(n4nc(-c5c([H])c([H])c(Oc6c([H])c([H])c(F)c([H])c6F)c([H])c5[H])c(C(=O)N([H])[H])c4N([H])[H])C3([H])[H])[N+]([H])([H])[H])c([H])c([H])c2C1([H])[H]

>  <smiles>  (51) 
[H]c1c([H])c([H])c2c(c1[H])C([H])([H])C([H])([H])C([H])([H])C2([H])N([H])C(=O)C1([H])N(C(=O)C([H])(N([H])C(=O)C([H])(N([H])C([H])([H])[H])C([H])([H])[H])C(C([H])([H])[H])(C([H])([H])[H])C([H])([H])[H])C([H])([H])c2c([H])c(OC([H])([H])C([H])([H])C([H])(C([H])([H])C([H])([H])C([H])([H])C([H])([H])C([H])([H])C([H])([H])C([H])([H])C([H])([H])C([H])([H])N([H])C(=O)N3C([H])([H])C([H])([H])C([H])([H])C([H])(n4nc(-c5c([H])c([H])c(Oc6c([H])c([H])c(F)c([H])c6F)c([H])c5[H])c(C(=O)N([H])[H])c4N([H])[H])C3([H])[H])[N+]([H])([H])[H])c([H])c([H])c2C1([H])[H]

$$$$
51:0:0
     RDKit          3D

 93101  0  0  1  0  0  0  0  0999 V2000
  -34.4890  -22.3540    7.9710 C   0  0  0  0  0  3  0  0  0  0  0  0
  -35.1320  -21.1150    7.7740 C   0  0  0  0  0  3  0  0  0  0  0  0
  -33.1610  -22.5400    7.5400 C   0  0  0  0  0  3  0  0  0  0  0  0
  -33.1210  -20.2510    6.6970 C   0  0  0  0  0  3  0  0  0  0  0  0
  -34.4440  -20.0640    7.1340 C   0  0  0  0  0  0  0  0  0  0  0  0
  -32.4760  -21.4820    6.9060 C   0  0  0  0  0  0  0  0  0  0  0  0
  -35.1190  -18.7440    6.8480 C   0  0  0  0  0  2  0  0  0  0  0  0
  -36.1430  -18.3010    7.9120 C   0  0  0  0  0  2  0  0  0  0  0  0
  -35.9510  -16.8010    8.1690 C   0  0  0  0  0  2  0  0  0  0  0  0
  -35.6900  -16.3270    9.6150 C   0  0  0  0  0  2  0  0  0  0  0  0
  -34.3900  -17.0170   10.0490 C   0  0  0  0  0  2  0  0  0  0  0  0
  -32.8920  -16.5940   11.8710 C   0  0  0  0  0  0  0  0  0  0  0  0
  -30.9370  -16.9160   13.3050 C   0  0  0  0  0  2  0  0  0  0  0  0
  -30.3570  -18.3170   13.0510 C   0  0  0  0  0  2  0  0  0  0  0  0
  -31.0260  -19.3410   13.9860 C   0  0  0  0  0  2  0  0  0  0  0  0
  -32.5770  -19.2430   13.9880 C   0  0  0  0  0  3  0  0  0  0  0  0
  -33.0670  -17.7800   14.1020 C   0  0  0  0  0  2  0  0  0  0  0  0
  -32.3880  -16.9880   13.0670 N   0  0  0  0  0  0  0  0  0  0  0  0
  -32.2310  -15.9220   11.0750 O   0  0  0  0  0  0  0  0  0  0  0  0
  -34.0720  -17.1000   11.4780 N   0  0  0  0  0  0  0  0  0  0  0  0
  -34.6060  -17.6960   12.0950 H   0  0  0  0  0  0  0  0  0  0  0  0
  -33.3770  -21.4610   15.0140 C   0  0  0  0  0  0  0  0  0  0  0  0
  -33.8670  -21.7720   16.2550 C   0  0  0  0  0  0  0  0  0  0  0  0
  -33.9110  -20.5420   16.9820 C   0  0  0  0  0  0  0  0  0  0  0  0
  -33.1550  -20.0930   15.0270 N   0  0  0  0  0  0  0  0  0  0  0  0
  -33.5330  -19.5350   16.2070 N   0  0  0  0  0  0  0  0  0  0  0  0
  -34.2390  -20.2760   18.3900 C   0  0  0  0  0  0  0  0  0  0  0  0
  -33.3360  -20.5920   19.4290 C   0  0  0  0  0  3  0  0  0  0  0  0
  -33.6630  -20.3090   20.7720 C   0  0  0  0  0  3  0  0  0  0  0  0
  -34.9010  -19.6990   21.0880 C   0  0  0  0  0  0  0  0  0  0  0  0
  -35.8050  -19.4060   20.0520 C   0  0  0  0  0  3  0  0  0  0  0  0
  -35.4800  -19.6940   18.7160 C   0  0  0  0  0  3  0  0  0  0  0  0
  -35.3170  -19.4120   22.3650 O   0  0  0  0  0  0  0  0  0  0  0  0
  -36.4020  -20.0380   22.9270 C   0  0  0  0  0  0  0  0  0  0  0  0
  -36.4460  -21.4390   23.1000 C   0  0  0  0  0  3  0  0  0  0  0  0
  -37.5500  -22.0340   23.7450 C   0  0  0  0  0  3  0  0  0  0  0  0
  -38.6040  -21.2320   24.2240 C   0  0  0  0  0  0  0  0  0  0  0  0
  -38.5580  -19.8370   24.0560 C   0  0  0  0  0  3  0  0  0  0  0  0
  -37.4590  -19.2420   23.4120 C   0  0  0  0  0  0  0  0  0  0  0  0
  -37.4100  -17.8950   23.2730 F   0  0  0  0  0  0  0  0  0  0  0  0
  -39.6610  -21.8010   24.8460 F   0  0  0  0  0  0  0  0  0  0  0  0
  -34.1840  -23.1460   16.7710 C   0  0  0  0  0  0  0  0  0  0  0  0
  -35.3810  -23.3320   17.3160 N   0  0  0  0  0  0  0  0  0  0  0  0
  -33.3880  -24.0760   16.6500 O   0  0  0  0  0  0  0  0  0  0  0  0
  -36.0430  -22.5740   17.3940 H   0  0  0  0  0  0  0  0  0  0  0  0
  -35.6400  -24.2460   17.6580 H   0  0  0  0  0  0  0  0  0  0  0  0
  -33.0820  -22.2250   13.8890 N   0  0  0  0  0  0  0  0  0  0  0  0
  -33.1860  -23.2350   13.8760 H   0  0  0  0  0  0  0  0  0  0  0  0
  -32.6700  -21.8590   13.0390 H   0  0  0  0  0  0  0  0  0  0  0  0
  -31.0240  -21.6240    6.5080 C   0  0  0  0  0  2  0  0  0  0  0  0
  -30.1680  -21.8730    7.7530 C   0  0  0  0  0  2  0  0  0  0  0  0
  -29.1080  -20.8030    7.9700 C   0  0  0  0  0  2  0  0  0  0  0  0
  -27.8500  -21.1820    7.4040 O   0  0  0  0  0  0  0  0  0  0  0  0
  -27.4650  -28.0880    8.8540 C   0  0  0  0  0  0  0  0  0  0  0  0
  -27.2220  -22.1620    8.1330 C   0  0  0  0  0  0  0  0  0  0  0  0
  -26.3400  -26.5910   10.4770 C   0  0  0  0  0  3  0  0  0  0  0  0
  -26.0570  -24.1680    9.7350 C   0  0  0  0  0  0  0  0  0  0  0  0
  -26.5510  -25.9310    8.0240 C   0  0  0  0  0  2  0  0  0  0  0  0
  -26.5930  -24.4940    8.4860 C   0  0  0  0  0  0  0  0  0  0  0  0
  -27.1640  -23.4980    7.6810 C   0  0  0  0  0  3  0  0  0  0  0  0
  -26.6630  -21.8350    9.3870 C   0  0  0  0  0  3  0  0  0  0  0  0
  -26.0850  -22.8370   10.1930 C   0  0  0  0  0  3  0  0  0  0  0  0
  -25.4640  -25.3090   10.5280 C   0  0  0  0  0  2  0  0  0  0  0  0
  -26.8390  -26.9030    9.0980 N   0  0  0  0  0  0  0  0  0  0  0  0
  -27.5870  -28.9420    9.7440 O   0  0  0  0  0  0  0  0  0  0  0  0
  -27.4720  -26.4520   11.5200 C   0  0  0  0  0  0  0  0  0  0  0  0
  -27.6920  -27.5200   12.3020 N   0  0  0  0  0  0  0  0  0  0  0  0
  -28.1020  -25.3980   11.6340 O   0  0  0  0  0  0  0  0  0  0  0  0
  -27.1340  -28.3470   12.1380 H   0  0  0  0  0  0  0  0  0  0  0  0
  -30.1890  -29.6650   13.7820 C   0  0  0  0  0  0  0  0  0  0  0  0
  -28.6740  -27.6100   13.3790 C   0  0  0  0  0  3  0  0  0  0  0  0
  -27.9970  -27.9740   14.7210 C   0  0  0  0  0  2  0  0  0  0  0  0
  -27.9780  -29.4800   14.9980 C   0  0  0  0  0  2  0  0  0  0  0  0
  -29.4030  -30.0390   15.0280 C   0  0  0  0  0  2  0  0  0  0  0  0
  -29.8370  -28.5340   12.9990 C   0  0  0  0  0  0  0  0  0  0  0  0
  -30.5780  -28.2520   11.8310 C   0  0  0  0  0  3  0  0  0  0  0  0
  -31.6530  -29.0750   11.4450 C   0  0  0  0  0  3  0  0  0  0  0  0
  -32.0080  -30.1830   12.2330 C   0  0  0  0  0  3  0  0  0  0  0  0
  -31.2800  -30.4740   13.4000 C   0  0  0  0  0  3  0  0  0  0  0  0
  -28.0330  -28.4420    7.4430 C   0  0  0  0  0  3  0  0  0  0  0  0
  -27.6060  -29.8110    7.1270 N   0  0  0  0  0  0  0  0  0  0  0  0
  -27.0600  -30.1850    5.9630 C   0  0  0  0  0  0  0  0  0  0  0  0
  -26.9260  -29.4150    5.0070 O   0  0  0  0  0  0  0  0  0  0  0  0
  -27.6300  -30.4750    7.8860 H   0  0  0  0  0  0  0  0  0  0  0  0
  -25.2570  -31.6890    5.0610 C   0  0  0  0  0  1  0  0  0  0  0  0
  -26.5830  -31.6440    5.8380 C   0  0  0  0  0  3  0  0  0  0  0  0
  -28.5070  -33.1390    6.1330 C   0  0  0  0  0  1  0  0  0  0  0  0
  -27.5710  -32.5330    5.1900 N   0  0  0  0  0  0  0  0  0  0  0  0
  -27.1070  -33.2800    4.6810 H   0  0  0  0  0  0  0  0  0  0  0  0
  -29.6020  -28.3080    7.3520 C   0  0  1  0  0  0  0  0  0  0  0  0
  -30.3580  -29.6030    7.7370 C   0  0  0  0  0  1  0  0  0  0  0  0
  -30.1070  -27.1730    8.2720 C   0  0  0  0  0  1  0  0  0  0  0  0
  -30.0110  -27.9230    5.9110 C   0  0  0  0  0  1  0  0  0  0  0  0
  2  1  1  0
  3  1  2  0
  4  6  2  0
  4  5  1  0
  5  2  2  0
  6  3  1  0
  7  5  1  0
  7  8  1  0
  8  9  1  0
  9 10  1  0
 10 11  1  0
 11 20  1  0
 12 18  1  0
 14 13  1  0
 14 15  1  0
 16 15  1  0
 16 17  1  0
 16 25  1  0
 18 13  1  0
 18 17  1  0
 19 12  2  0
 20 12  1  0
 20 21  1  0
 22 25  1  0
 22 23  2  0
 23 42  1  0
 23 24  1  0
 24 27  1  0
 25 26  1  0
 26 24  2  0
 27 32  2  0
 27 28  1  0
 28 29  2  0
 29 30  1  0
 30 33  1  0
 31 30  2  0
 32 31  1  0
 33 34  1  0
 34 35  2  0
 34 39  1  0
 35 36  1  0
 36 37  2  0
 37 41  1  0
 38 37  1  0
 39 38  2  0
 40 39  1  0
 42 43  1  0
 43 45  1  0
 43 46  1  0
 44 42  2  0
 47 22  1  0
 48 47  1  0
 49 47  1  0
 50  6  1  0
 50 51  1  0
 51 52  1  0
 53 52  1  0
 53 55  1  0
 54 64  1  0
 54 65  2  0
 55 61  1  0
 56 63  1  0
 56 66  1  0
 57 62  1  0
 57 63  1  0
 58 59  1  0
 58 64  1  0
 59 57  2  0
 60 55  2  0
 60 59  1  0
 61 62  2  0
 64 56  1  0
 66 68  2  0
 66 67  1  0
 69 67  1  0
 70 74  1  0
 71 67  1  0
 71 72  1  0
 72 73  1  0
 73 74  1  0
 75 71  1  0
 75 70  2  0
 76 75  1  0
 77 76  2  0
 77 78  1  0
 78 79  2  0
 79 70  1  0
 80 54  1  0
 81 80  1  0
 81 84  1  0
 82 81  1  0
 83 82  2  0
 86 85  1  0
 86 82  1  0
 88 86  1  0
 88 87  1  0
 89 88  1  0
 90 80  1  0
 90 91  1  1
 90 92  1  0
 93 90  1  0
M  ISO  4  12 100  20 100  52 101  53 101
M  END
>  <TORSDO>  (52) 
F 24

>  <SCORE>  (52) 
-4.234

>  <name>  (52) 
51

>  <ligand_id>  (52) 
51

>  <original_smiles>  (52) 
[H]c1c([H])c([H])c2c(c1[H])C([H])([H])C([H])([H])C([H])([H])C2([H])N([H])C(=O)C1([H])N(C(=O)C([H])(N([H])C(=O)C([H])(N([H])C([H])([H])[H])C([H])([H])[H])C(C([H])([H])[H])(C([H])([H])[H])C([H])([H])[H])C([H])([H])c2c([H])c(OC([H])([H])C([H])([H])C([H])([H])c3c([H])c([H])c([H])c(C([H])([H])C([H])([H])C([H])([H])C([H])([H])C([H])([H])N([H])C(=O)N4C([H])([H])C([H])([H])C([H])([H])C([H])(n5nc(-c6c([H])c([H])c(Oc7c([H])c([H])c(F)c([H])c7F)c([H])c6[H])c(C(=O)N([H])[H])c5N([H])[H])C4([H])[H])c3[H])c([H])c([H])c2C1([H])[H]

>  <smiles>  (52) 
[H]c1c([H])c([H])c2c(c1[H])C([H])([H])C([H])([H])C([H])([H])C2([H])N([H])C(=O)C1([H])N(C(=O)C([H])(N([H])C(=O)C([H])(N([H])C([H])([H])[H])C([H])([H])[H])C(C([H])([H])[H])(C([H])([H])[H])C([H])([H])[H])C([H])([H])c2c([H])c(OC([H])([H])C([H])([H])C([H])([H])c3c([H])c([H])c([H])c(C([H])([H])C([H])([H])C([H])([H])C([H])([H])C([H])([H])N([H])C(=O)N4C([H])([H])C([H])([H])C([H])([H])C([H])(n5nc(-c6c([H])c([H])c(Oc7c([H])c([H])c(F)c([H])c7F)c([H])c6[H])c(C(=O)N([H])[H])c5N([H])[H])C4([H])[H])c3[H])c([H])c([H])c2C1([H])[H]

$$$$
52:0:0
     RDKit          3D

 98106  0  0  1  0  0  0  0  0999 V2000
  -28.9450  -22.7810   16.1890 C   0  0  0  0  0  3  0  0  0  0  0  0
  -29.1630  -24.0360   16.7760 C   0  0  0  0  0  3  0  0  0  0  0  0
  -30.3720  -21.7560   17.8780 C   0  0  0  0  0  3  0  0  0  0  0  0
  -29.4850  -21.6250   16.7840 C   0  0  0  0  0  0  0  0  0  0  0  0
  -29.9430  -24.1580   17.9460 C   0  0  0  0  0  0  0  0  0  0  0  0
  -30.6040  -23.0180   18.4690 C   0  0  0  0  0  0  0  0  0  0  0  0
  -29.1020  -20.2940   16.2550 C   0  0  0  0  0  0  0  0  0  0  0  0
  -29.0420  -20.0240   15.0510 O   0  0  0  0  0  0  0  0  0  0  0  0
  -28.6110  -19.2940   17.3100 C   0  0  0  0  0  2  0  0  0  0  0  0
  -29.1150  -17.8550   17.1180 C   0  0  0  0  0  2  0  0  0  0  0  0
  -30.5640  -17.6470   17.5980 C   0  0  0  0  0  2  0  0  0  0  0  0
  -30.6910  -16.9790   18.9750 C   0  0  0  0  0  2  0  0  0  0  0  0
  -30.2180  -17.7830   20.2060 C   0  0  0  0  0  2  0  0  0  0  0  0
  -30.6060  -17.1350   21.5600 C   0  0  0  0  0  2  0  0  0  0  0  0
  -30.9980  -14.6970   21.2370 C   0  0  0  0  0  0  0  0  0  0  0  0
  -30.7650  -12.5740   20.0210 C   0  0  0  0  0  2  0  0  0  0  0  0
  -29.9750  -12.8450   18.7280 C   0  0  0  0  0  2  0  0  0  0  0  0
  -28.4570  -12.7440   18.9810 C   0  0  0  0  0  2  0  0  0  0  0  0
  -28.0050  -13.5560   20.2290 C   0  0  0  0  0  3  0  0  0  0  0  0
  -28.9270  -13.2760   21.4360 C   0  0  0  0  0  2  0  0  0  0  0  0
  -30.3140  -13.5450   21.0260 N   0  0  0  0  0  0  0  0  0  0  0  0
  -32.1730  -14.8670   20.9040 O   0  0  0  0  0  0  0  0  0  0  0  0
  -30.2300  -15.7200   21.6410 N   0  0  0  0  0  0  0  0  0  0  0  0
  -29.2740  -15.4980   21.8770 H   0  0  0  0  0  0  0  0  0  0  0  0
  -25.5580  -14.1960   20.7300 C   0  0  0  0  0  0  0  0  0  0  0  0
  -24.4430  -13.4400   20.9580 C   0  0  0  0  0  0  0  0  0  0  0  0
  -24.8780  -12.0790   20.9210 C   0  0  0  0  0  0  0  0  0  0  0  0
  -26.6020  -13.3010   20.5610 N   0  0  0  0  0  0  0  0  0  0  0  0
  -26.1900  -12.0190   20.7350 N   0  0  0  0  0  0  0  0  0  0  0  0
  -24.1140  -10.8300   20.9950 C   0  0  0  0  0  0  0  0  0  0  0  0
  -24.4550   -9.8050   21.9070 C   0  0  0  0  0  3  0  0  0  0  0  0
  -23.6930   -8.6180   21.9670 C   0  0  0  0  0  3  0  0  0  0  0  0
  -22.5760   -8.4480   21.1160 C   0  0  0  0  0  0  0  0  0  0  0  0
  -22.2550   -9.4610   20.1960 C   0  0  0  0  0  3  0  0  0  0  0  0
  -23.0180  -10.6380   20.1310 C   0  0  0  0  0  3  0  0  0  0  0  0
  -21.7950   -7.3170   21.0850 O   0  0  0  0  0  0  0  0  0  0  0  0
  -21.6520   -6.5140   22.1880 C   0  0  0  0  0  0  0  0  0  0  0  0
  -21.1670   -7.0130   23.4180 C   0  0  0  0  0  3  0  0  0  0  0  0
  -20.9660   -6.1350   24.5040 C   0  0  0  0  0  3  0  0  0  0  0  0
  -21.2420   -4.7620   24.3600 C   0  0  0  0  0  0  0  0  0  0  0  0
  -21.7210   -4.2650   23.1340 C   0  0  0  0  0  3  0  0  0  0  0  0
  -21.9210   -5.1370   22.0520 C   0  0  0  0  0  0  0  0  0  0  0  0
  -22.3620   -4.6500   20.8680 F   0  0  0  0  0  0  0  0  0  0  0  0
  -21.0430   -3.9150   25.3980 F   0  0  0  0  0  0  0  0  0  0  0  0
  -23.0350  -13.9400   21.1110 C   0  0  0  0  0  0  0  0  0  0  0  0
  -22.2150  -13.2350   21.8790 N   0  0  0  0  0  0  0  0  0  0  0  0
  -22.6710  -14.9900   20.5840 O   0  0  0  0  0  0  0  0  0  0  0  0
  -22.5190  -12.3760   22.3130 H   0  0  0  0  0  0  0  0  0  0  0  0
  -21.2700  -13.5600   22.0320 H   0  0  0  0  0  0  0  0  0  0  0  0
  -25.7600  -15.5690   20.6300 N   0  0  0  0  0  0  0  0  0  0  0  0
  -24.9850  -16.2190   20.7000 H   0  0  0  0  0  0  0  0  0  0  0  0
  -26.6400  -16.0240   20.4130 H   0  0  0  0  0  0  0  0  0  0  0  0
  -29.9680  -25.5190   18.6390 C   0  0  0  0  0  2  0  0  0  0  0  0
  -28.5570  -25.8720   19.1210 C   0  0  0  0  0  2  0  0  0  0  0  0
  -28.5220  -27.0300   19.9500 O   0  0  0  0  0  0  0  0  0  0  0  0
  -24.6190  -31.9900   23.2610 C   0  0  0  0  0  0  0  0  0  0  0  0
  -27.3030  -27.6740   20.0400 C   0  0  0  0  0  0  0  0  0  0  0  0
  -23.4150  -30.6020   21.6100 C   0  0  0  0  0  3  0  0  0  0  0  0
  -24.8740  -29.1200   20.1450 C   0  0  0  0  0  0  0  0  0  0  0  0
  -25.9350  -31.0130   21.3790 C   0  0  0  0  0  2  0  0  0  0  0  0
  -26.0320  -29.6550   20.7190 C   0  0  0  0  0  0  0  0  0  0  0  0
  -27.2490  -28.9390   20.6680 C   0  0  0  0  0  3  0  0  0  0  0  0
  -26.1070  -27.1340   19.5080 C   0  0  0  0  0  3  0  0  0  0  0  0
  -24.9010  -27.8510   19.5520 C   0  0  0  0  0  3  0  0  0  0  0  0
  -23.6170  -29.9520   20.2160 C   0  0  0  0  0  2  0  0  0  0  0  0
  -24.6750  -31.2170   22.1390 N   0  0  0  0  0  0  0  0  0  0  0  0
  -23.5410  -32.2250   23.8230 O   0  0  0  0  0  0  0  0  0  0  0  0
  -22.7990  -29.5460   22.5540 C   0  0  0  0  0  0  0  0  0  0  0  0
  -21.4790  -29.3320   22.4360 N   0  0  0  0  0  0  0  0  0  0  0  0
  -23.5050  -28.9210   23.3500 O   0  0  0  0  0  0  0  0  0  0  0  0
  -20.9690  -29.8920   21.7680 H   0  0  0  0  0  0  0  0  0  0  0  0
  -18.1400  -28.0310   22.9190 C   0  0  0  0  0  0  0  0  0  0  0  0
  -20.6910  -28.3620   23.1950 C   0  0  0  0  0  3  0  0  0  0  0  0
  -20.8330  -26.9390   22.6070 C   0  0  0  0  0  2  0  0  0  0  0  0
  -19.7410  -26.5910   21.5910 C   0  0  0  0  0  2  0  0  0  0  0  0
  -18.3560  -26.6910   22.2340 C   0  0  0  0  0  2  0  0  0  0  0  0
  -19.2370  -28.8210   23.3570 C   0  0  0  0  0  0  0  0  0  0  0  0
  -18.9820  -30.0730   23.9560 C   0  0  0  0  0  3  0  0  0  0  0  0
  -17.6650  -30.5380   24.1230 C   0  0  0  0  0  3  0  0  0  0  0  0
  -16.5840  -29.7460   23.7030 C   0  0  0  0  0  3  0  0  0  0  0  0
  -16.8200  -28.4950   23.1070 C   0  0  0  0  0  3  0  0  0  0  0  0
  -25.9000  -32.6340   23.8740 C   0  0  0  0  0  3  0  0  0  0  0  0
  -26.4270  -31.8740   25.1520 C   0  0  1  0  0  0  0  0  0  0  0  0
  -25.3380  -31.6290   26.2230 C   0  0  0  0  0  1  0  0  0  0  0  0
  -27.0210  -30.5030   24.7530 C   0  0  0  0  0  1  0  0  0  0  0  0
  -27.5720  -32.6840   25.8020 C   0  0  0  0  0  1  0  0  0  0  0  0
  -25.5780  -34.0300   24.1960 N   0  0  0  0  0  0  0  0  0  0  0  0
  -25.9110  -35.0810   23.4370 C   0  0  0  0  0  0  0  0  0  0  0  0
  -26.5920  -34.9800   22.4120 O   0  0  0  0  0  0  0  0  0  0  0  0
  -24.9680  -34.1820   24.9850 H   0  0  0  0  0  0  0  0  0  0  0  0
  -24.1690  -36.8590   23.0620 C   0  0  0  0  0  1  0  0  0  0  0  0
  -25.4050  -36.4660   23.8850 C   0  0  0  0  0  3  0  0  0  0  0  0
  -27.5280  -37.3640   24.7270 C   0  0  0  0  0  1  0  0  0  0  0  0
  -26.4280  -37.5280   23.7800 N   0  0  0  0  0  0  0  0  0  0  0  0
  -26.0140  -38.4430   23.9290 H   0  0  0  0  0  0  0  0  0  0  0  0
  -31.5570  -23.1220   19.6520 C   0  0  0  0  0  2  0  0  0  0  0  0
  -32.7100  -23.8810   19.3280 O   0  0  0  0  0  0  0  0  0  0  0  0
  -33.2250  -24.0020   20.1180 H   0  0  0  0  0  0  0  0  0  0  0  0
  1  2  2  0
  1  4  1  0
  2  5  1  0
  3  6  1  0
  4  3  2  0
  5  6  2  0
  5 53  1  0
  6 96  1  0
  7  4  1  0
  7  9  1  0
  8  7  2  0
 10  9  1  0
 10 11  1  0
 11 12  1  0
 12 13  1  0
 13 14  1  0
 14 23  1  0
 15 23  1  0
 16 21  1  0
 17 18  1  0
 17 16  1  0
 19 18  1  0
 19 28  1  0
 19 20  1  0
 21 15  1  0
 21 20  1  0
 22 15  2  0
 23 24  1  0
 25 26  2  0
 26 45  1  0
 27 26  1  0
 27 30  1  0
 28 25  1  0
 28 29  1  0
 29 27  2  0
 30 31  1  0
 31 32  2  0
 33 32  1  0
 34 33  2  0
 35 34  1  0
 35 30  2  0
 36 33  1  0
 36 37  1  0
 37 38  1  0
 38 39  2  0
 40 39  1  0
 40 44  1  0
 41 40  2  0
 42 37  2  0
 42 41  1  0
 43 42  1  0
 45 46  1  0
 46 49  1  0
 46 48  1  0
 47 45  2  0
 50 51  1  0
 50 25  1  0
 52 50  1  0
 53 54  1  0
 54 55  1  0
 55 57  1  0
 56 67  2  0
 57 62  1  0
 58 66  1  0
 58 68  1  0
 59 65  1  0
 59 61  1  0
 60 66  1  0
 61 60  1  0
 62 61  2  0
 63 64  1  0
 63 57  2  0
 64 59  2  0
 65 58  1  0
 66 56  1  0
 68 70  2  0
 69 68  1  0
 71 69  1  0
 72 81  2  0
 72 77  1  0
 73 69  1  0
 73 77  1  0
 74 73  1  0
 75 76  1  0
 75 74  1  0
 76 72  1  0
 77 78  2  0
 78 79  1  0
 80 79  2  0
 81 80  1  0
 82 56  1  0
 82 87  1  0
 82 83  1  0
 83 86  1  1
 83 84  1  0
 85 83  1  0
 87 90  1  0
 88 92  1  0
 88 87  1  0
 89 88  2  0
 92 91  1  0
 94 92  1  0
 94 95  1  0
 94 93  1  0
 97 96  1  0
 97 98  1  0
M  ISO  4  15 100  23 100  54 101  55 101
M  END
>  <TORSDO>  (53) 
F 27

>  <SCORE>  (53) 
-10.421

>  <name>  (53) 
52

>  <ligand_id>  (53) 
52

>  <original_smiles>  (53) 
[H]OC([H])([H])c1c([H])c(C(=O)C([H])([H])C([H])([H])C([H])([H])C([H])([H])C([H])([H])C([H])([H])N([H])C(=O)N2C([H])([H])C([H])([H])C([H])([H])C([H])(n3nc(-c4c([H])c([H])c(Oc5c([H])c([H])c(F)c([H])c5F)c([H])c4[H])c(C(=O)N([H])[H])c3N([H])[H])C2([H])[H])c([H])c([H])c1C([H])([H])C([H])([H])Oc1c([H])c([H])c2c(c1[H])C([H])([H])N(C(=O)C([H])(N([H])C(=O)C([H])(N([H])C([H])([H])[H])C([H])([H])[H])C(C([H])([H])[H])(C([H])([H])[H])C([H])([H])[H])C([H])(C(=O)N([H])C1([H])c3c([H])c([H])c([H])c([H])c3C([H])([H])C([H])([H])C1([H])[H])C2([H])[H]

>  <smiles>  (53) 
[H]OC([H])([H])c1c([H])c(C(=O)C([H])([H])C([H])([H])C([H])([H])C([H])([H])C([H])([H])C([H])([H])N([H])C(=O)N2C([H])([H])C([H])([H])C([H])([H])C([H])(n3nc(-c4c([H])c([H])c(Oc5c([H])c([H])c(F)c([H])c5F)c([H])c4[H])c(C(=O)N([H])[H])c3N([H])[H])C2([H])[H])c([H])c([H])c1C([H])([H])C([H])([H])Oc1c([H])c([H])c2c(c1[H])C([H])([H])N(C(=O)C([H])(N([H])C(=O)C([H])(N([H])C([H])([H])[H])C([H])([H])[H])C(C([H])([H])[H])(C([H])([H])[H])C([H])([H])[H])C([H])(C(=O)N([H])C1([H])c3c([H])c([H])c([H])c([H])c3C([H])([H])C([H])([H])C1([H])[H])C2([H])[H]

$$$$
53:0:0
     RDKit          3D

 95103  0  0  1  0  0  0  0  0999 V2000
  -28.1860  -25.1630   25.1320 C   0  0  0  0  0  3  0  0  0  0  0  0
  -27.2870  -26.1830   24.7720 C   0  0  0  0  0  3  0  0  0  0  0  0
  -28.8750  -24.4490   24.1340 C   0  0  0  0  0  3  0  0  0  0  0  0
  -27.0920  -26.4940   23.4170 C   0  0  0  0  0  3  0  0  0  0  0  0
  -28.6910  -24.7520   22.7670 C   0  0  0  0  0  0  0  0  0  0  0  0
  -27.7940  -25.7980   22.4070 C   0  0  0  0  0  0  0  0  0  0  0  0
  -27.5560  -26.2140   20.9610 C   0  0  0  0  0  2  0  0  0  0  0  0
  -28.0460  -27.6380   20.6420 C   0  0  0  0  0  2  0  0  0  0  0  0
  -29.5290  -27.9230   20.9690 C   0  0  0  0  0  2  0  0  0  0  0  0
  -29.8240  -28.3050   22.4360 C   0  0  0  0  0  2  0  0  0  0  0  0
  -29.3530  -29.6190   22.7320 O   0  0  0  0  0  0  0  0  0  0  0  0
  -24.2210  -28.3990   27.5100 C   0  0  0  0  0  0  0  0  0  0  0  0
  -28.0240  -29.7150   23.0550 C   0  0  0  0  0  0  0  0  0  0  0  0
  -23.4680  -29.1670   25.2820 C   0  0  0  0  0  3  0  0  0  0  0  0
  -25.3000  -30.0020   23.7200 C   0  0  0  0  0  0  0  0  0  0  0  0
  -25.7800  -29.8000   26.1660 C   0  0  0  0  0  2  0  0  0  0  0  0
  -26.2540  -29.8200   24.7300 C   0  0  0  0  0  0  0  0  0  0  0  0
  -27.6170  -29.6730   24.4040 C   0  0  0  0  0  3  0  0  0  0  0  0
  -27.0620  -29.9210   22.0460 C   0  0  0  0  0  3  0  0  0  0  0  0
  -25.6980  -30.0460   22.3710 C   0  0  0  0  0  3  0  0  0  0  0  0
  -23.8610  -30.1600   24.1570 C   0  0  0  0  0  2  0  0  0  0  0  0
  -24.5020  -29.0800   26.3630 N   0  0  0  0  0  0  0  0  0  0  0  0
  -23.1060  -27.8920   27.6980 O   0  0  0  0  0  0  0  0  0  0  0  0
  -23.1410  -27.8010   24.6390 C   0  0  0  0  0  0  0  0  0  0  0  0
  -22.1810  -27.7980   23.6980 N   0  0  0  0  0  0  0  0  0  0  0  0
  -23.7590  -26.7850   24.9670 O   0  0  0  0  0  0  0  0  0  0  0  0
  -21.7170  -28.6720   23.4910 H   0  0  0  0  0  0  0  0  0  0  0  0
  -20.2310  -26.7850   20.8310 C   0  0  0  0  0  0  0  0  0  0  0  0
  -21.7340  -26.6380   22.9300 C   0  0  0  0  0  3  0  0  0  0  0  0
  -22.8450  -26.1430   21.9750 C   0  0  0  0  0  2  0  0  0  0  0  0
  -22.7470  -26.7470   20.5710 C   0  0  0  0  0  2  0  0  0  0  0  0
  -21.3970  -26.4090   19.9330 C   0  0  0  0  0  2  0  0  0  0  0  0
  -20.3940  -26.9090   22.2370 C   0  0  0  0  0  0  0  0  0  0  0  0
  -19.2840  -27.2970   23.0200 C   0  0  0  0  0  3  0  0  0  0  0  0
  -18.0340  -27.5510   22.4240 C   0  0  0  0  0  3  0  0  0  0  0  0
  -17.8780  -27.4130   21.0360 C   0  0  0  0  0  3  0  0  0  0  0  0
  -18.9740  -27.0270   20.2430 C   0  0  0  0  0  3  0  0  0  0  0  0
  -25.2740  -28.2480   28.6530 C   0  0  0  0  0  3  0  0  0  0  0  0
  -26.2850  -27.0620   28.4170 C   0  0  1  0  0  0  0  0  0  0  0  0
  -25.6040  -25.7160   28.0710 C   0  0  0  0  0  1  0  0  0  0  0  0
  -27.2650  -27.4050   27.2700 C   0  0  0  0  0  1  0  0  0  0  0  0
  -27.1470  -26.8510   29.6840 C   0  0  0  0  0  1  0  0  0  0  0  0
  -24.5390  -28.0680   29.9110 N   0  0  0  0  0  0  0  0  0  0  0  0
  -24.3850  -29.0200   30.8400 C   0  0  0  0  0  0  0  0  0  0  0  0
  -24.9190  -30.1300   30.7570 O   0  0  0  0  0  0  0  0  0  0  0  0
  -24.0350  -27.2000   30.0220 H   0  0  0  0  0  0  0  0  0  0  0  0
  -22.1060  -29.3110   31.8650 C   0  0  0  0  0  1  0  0  0  0  0  0
  -23.4990  -28.6910   32.0560 C   0  0  0  0  0  3  0  0  0  0  0  0
  -25.2700  -28.4120   33.7390 C   0  0  0  0  0  1  0  0  0  0  0  0
  -24.0720  -29.1480   33.3420 N   0  0  0  0  0  0  0  0  0  0  0  0
  -23.3860  -29.0700   34.0880 H   0  0  0  0  0  0  0  0  0  0  0  0
  -29.4490  -23.9360   21.7190 C   0  0  0  0  0  2  0  0  0  0  0  0
  -28.5070  -23.0830   20.8470 C   0  0  0  0  0  2  0  0  0  0  0  0
  -29.0070  -22.7980   19.4170 C   0  0  0  0  0  2  0  0  0  0  0  0
  -29.8830  -21.5430   19.2250 C   0  0  0  0  0  2  0  0  0  0  0  0
  -30.0950  -21.2660   17.7210 C   0  0  0  0  0  2  0  0  0  0  0  0
  -30.6720  -19.8850   17.3550 C   0  0  0  0  0  2  0  0  0  0  0  0
  -31.6580  -19.4300   15.0810 C   0  0  0  0  0  0  0  0  0  0  0  0
  -32.3320  -19.1390   12.7190 C   0  0  0  0  0  2  0  0  0  0  0  0
  -32.9630  -20.4160   12.1360 C   0  0  0  0  0  2  0  0  0  0  0  0
  -31.8770  -21.3570   11.5810 C   0  0  0  0  0  2  0  0  0  0  0  0
  -30.7330  -21.6020   12.6010 C   0  0  0  0  0  3  0  0  0  0  0  0
  -30.2210  -20.2640   13.1820 C   0  0  0  0  0  2  0  0  0  0  0  0
  -31.3630  -19.5230   13.7570 N   0  0  0  0  0  0  0  0  0  0  0  0
  -32.7530  -19.0580   15.5130 O   0  0  0  0  0  0  0  0  0  0  0  0
  -30.6400  -19.7200   15.8990 N   0  0  0  0  0  0  0  0  0  0  0  0
  -29.7620  -19.9140   15.4370 H   0  0  0  0  0  0  0  0  0  0  0  0
  -29.1250  -23.6060   12.3910 C   0  0  0  0  0  0  0  0  0  0  0  0
  -28.1750  -23.9230   11.4560 C   0  0  0  0  0  0  0  0  0  0  0  0
  -28.1760  -22.8500   10.5140 C   0  0  0  0  0  0  0  0  0  0  0  0
  -29.6480  -22.3810   12.0020 N   0  0  0  0  0  0  0  0  0  0  0  0
  -29.0290  -21.9060   10.8910 N   0  0  0  0  0  0  0  0  0  0  0  0
  -27.4530  -22.6920    9.2450 C   0  0  0  0  0  0  0  0  0  0  0  0
  -26.6340  -21.5680    8.9980 C   0  0  0  0  0  3  0  0  0  0  0  0
  -25.9340  -21.4470    7.7780 C   0  0  0  0  0  3  0  0  0  0  0  0
  -26.0460  -22.4570    6.7930 C   0  0  0  0  0  0  0  0  0  0  0  0
  -26.8820  -23.5610    7.0340 C   0  0  0  0  0  3  0  0  0  0  0  0
  -27.5810  -23.6800    8.2460 C   0  0  0  0  0  3  0  0  0  0  0  0
  -25.4240  -22.4120    5.5680 O   0  0  0  0  0  0  0  0  0  0  0  0
  -24.2380  -21.7480    5.3880 C   0  0  0  0  0  0  0  0  0  0  0  0
  -23.0820  -22.0720    6.1330 C   0  0  0  0  0  3  0  0  0  0  0  0
  -21.8660  -21.4110    5.8670 C   0  0  0  0  0  3  0  0  0  0  0  0
  -21.7990  -20.4360    4.8520 C   0  0  0  0  0  0  0  0  0  0  0  0
  -22.9480  -20.1170    4.1070 C   0  0  0  0  0  3  0  0  0  0  0  0
  -24.1620  -20.7730    4.3730 C   0  0  0  0  0  0  0  0  0  0  0  0
  -25.2620  -20.4770    3.6380 F   0  0  0  0  0  0  0  0  0  0  0  0
  -20.6290  -19.8080    4.5900 F   0  0  0  0  0  0  0  0  0  0  0  0
  -27.3780  -25.1940   11.3860 C   0  0  0  0  0  0  0  0  0  0  0  0
  -26.1620  -25.1260   10.8550 N   0  0  0  0  0  0  0  0  0  0  0  0
  -27.8120  -26.2470   11.8470 O   0  0  0  0  0  0  0  0  0  0  0  0
  -25.7990  -24.2540   10.4940 H   0  0  0  0  0  0  0  0  0  0  0  0
  -25.5860  -25.9530   10.8070 H   0  0  0  0  0  0  0  0  0  0  0  0
  -29.5960  -24.2610   13.5270 N   0  0  0  0  0  0  0  0  0  0  0  0
  -29.2570  -25.1780   13.7980 H   0  0  0  0  0  0  0  0  0  0  0  0
  -30.3390  -23.9180   14.1230 H   0  0  0  0  0  0  0  0  0  0  0  0
  2  1  1  0
  3  1  2  0
  4  2  2  0
  5  3  1  0
  6  5  2  0
  6  4  1  0
  7  6  1  0
  8  7  1  0
  8  9  1  0
  9 10  1  0
 10 11  1  0
 11 13  1  0
 12 23  2  0
 13 18  1  0
 14 24  1  0
 14 22  1  0
 15 21  1  0
 15 17  1  0
 16 22  1  0
 17 16  1  0
 18 17  2  0
 19 20  1  0
 19 13  2  0
 20 15  2  0
 21 14  1  0
 22 12  1  0
 24 26  2  0
 25 24  1  0
 27 25  1  0
 28 33  1  0
 29 25  1  0
 30 29  1  0
 31 30  1  0
 32 31  1  0
 32 28  1  0
 33 29  1  0
 33 34  2  0
 35 34  1  0
 36 35  2  0
 37 28  2  0
 37 36  1  0
 38 12  1  0
 38 43  1  0
 39 38  1  0
 39 42  1  1
 40 39  1  0
 41 39  1  0
 43 46  1  0
 43 44  1  0
 44 48  1  0
 45 44  2  0
 48 47  1  0
 48 50  1  0
 50 49  1  0
 50 51  1  0
 52  5  1  0
 53 52  1  0
 54 53  1  0
 55 54  1  0
 56 55  1  0
 57 56  1  0
 58 65  2  0
 58 66  1  0
 59 64  1  0
 60 59  1  0
 61 60  1  0
 62 61  1  0
 62 63  1  0
 63 64  1  0
 64 58  1  0
 66 57  1  0
 67 66  1  0
 68 93  1  0
 69 68  2  0
 70 72  2  0
 70 69  1  0
 71 68  1  0
 71 62  1  0
 72 71  1  0
 73 70  1  0
 74 73  1  0
 75 74  2  0
 76 77  2  0
 76 75  1  0
 77 78  1  0
 78 73  2  0
 79 76  1  0
 80 79  1  0
 80 81  1  0
 82 81  2  0
 83 82  1  0
 84 85  1  0
 84 83  2  0
 85 80  2  0
 86 85  1  0
 87 83  1  0
 88 69  1  0
 88 90  2  0
 89 88  1  0
 91 89  1  0
 92 89  1  0
 93 94  1  0
 93 95  1  0
M  ISO  4  10 101  11 101  58 100  66 100
M  END
>  <TORSDO>  (54) 
F 26

>  <SCORE>  (54) 
-3.466

>  <name>  (54) 
53

>  <ligand_id>  (54) 
53

>  <original_smiles>  (54) 
[H]c1c([H])c([H])c(C([H])([H])C([H])([H])C([H])([H])C([H])([H])C([H])([H])C([H])([H])N([H])C(=O)N2C([H])([H])C([H])([H])C([H])([H])C([H])(n3nc(-c4c([H])c([H])c(Oc5c([H])c([H])c(F)c([H])c5F)c([H])c4[H])c(C(=O)N([H])[H])c3N([H])[H])C2([H])[H])c(C([H])([H])C([H])([H])C([H])([H])C([H])([H])Oc2c([H])c([H])c3c(c2[H])C([H])([H])N(C(=O)C([H])(N([H])C(=O)C([H])(N([H])C([H])([H])[H])C([H])([H])[H])C(C([H])([H])[H])(C([H])([H])[H])C([H])([H])[H])C([H])(C(=O)N([H])C2([H])c4c([H])c([H])c([H])c([H])c4C([H])([H])C([H])([H])C2([H])[H])C3([H])[H])c1[H]

>  <smiles>  (54) 
[H]c1c([H])c([H])c(C([H])([H])C([H])([H])C([H])([H])C([H])([H])C([H])([H])C([H])([H])N([H])C(=O)N2C([H])([H])C([H])([H])C([H])([H])C([H])(n3nc(-c4c([H])c([H])c(Oc5c([H])c([H])c(F)c([H])c5F)c([H])c4[H])c(C(=O)N([H])[H])c3N([H])[H])C2([H])[H])c(C([H])([H])C([H])([H])C([H])([H])C([H])([H])Oc2c([H])c([H])c3c(c2[H])C([H])([H])N(C(=O)C([H])(N([H])C(=O)C([H])(N([H])C([H])([H])[H])C([H])([H])[H])C(C([H])([H])[H])(C([H])([H])[H])C([H])([H])[H])C([H])(C(=O)N([H])C2([H])c4c([H])c([H])c([H])c([H])c4C([H])([H])C([H])([H])C2([H])[H])C3([H])[H])c1[H]

$$$$
54:0:0
     RDKit          3D

 98105  0  0  1  0  0  0  0  0999 V2000
  -31.6340  -19.2920   23.6470 C   0  0  0  0  0  2  0  0  0  0  0  0
  -30.9340  -17.9300   23.6600 C   0  0  0  0  0  2  0  0  0  0  0  0
  -31.8000  -16.8680   22.9780 C   0  0  0  0  0  2  0  0  0  0  0  0
  -31.1250  -15.4940   22.9220 C   0  0  0  0  0  2  0  0  0  0  0  0
  -32.0340  -14.4230   22.3000 C   0  0  0  0  0  2  0  0  0  0  0  0
  -31.9690  -14.3110   20.7530 C   0  0  0  0  0  3  0  0  0  0  0  0
  -30.1360  -14.0730   19.0680 C   0  0  0  0  0  0  0  0  0  0  0  0
  -29.4430  -12.0660   17.8540 C   0  0  0  0  0  2  0  0  0  0  0  0
  -28.2290  -12.1600   16.9250 C   0  0  0  0  0  2  0  0  0  0  0  0
  -26.9320  -11.9430   17.7200 C   0  0  0  0  0  2  0  0  0  0  0  0
  -26.8430  -12.8550   18.9700 C   0  0  0  0  0  3  0  0  0  0  0  0
  -28.1320  -12.7770   19.8140 C   0  0  0  0  0  2  0  0  0  0  0  0
  -29.2870  -13.0360   18.9400 N   0  0  0  0  0  0  0  0  0  0  0  0
  -30.7480  -14.5980   18.1300 O   0  0  0  0  0  0  0  0  0  0  0  0
  -30.5760  -14.1280   20.3310 N   0  0  0  0  0  0  0  0  0  0  0  0
  -29.9840  -13.6440   20.9900 H   0  0  0  0  0  0  0  0  0  0  0  0
  -24.7180  -13.4010   20.3170 C   0  0  0  0  0  0  0  0  0  0  0  0
  -23.7720  -12.5970   20.8960 C   0  0  0  0  0  0  0  0  0  0  0  0
  -24.1950  -11.2530   20.6580 C   0  0  0  0  0  0  0  0  0  0  0  0
  -25.6590  -12.5430   19.7670 N   0  0  0  0  0  0  0  0  0  0  0  0
  -25.3620  -11.2430   20.0280 N   0  0  0  0  0  0  0  0  0  0  0  0
  -23.5300   -9.9760   20.9460 C   0  0  0  0  0  0  0  0  0  0  0  0
  -24.1000   -9.0260   21.8210 C   0  0  0  0  0  3  0  0  0  0  0  0
  -23.4310   -7.8130   22.0950 C   0  0  0  0  0  3  0  0  0  0  0  0
  -22.1790   -7.5420   21.4960 C   0  0  0  0  0  0  0  0  0  0  0  0
  -21.6260   -8.4810   20.6080 C   0  0  0  0  0  3  0  0  0  0  0  0
  -22.2960   -9.6850   20.3310 C   0  0  0  0  0  3  0  0  0  0  0  0
  -21.4710   -6.3800   21.6830 O   0  0  0  0  0  0  0  0  0  0  0  0
  -21.5030   -5.7000   22.8750 C   0  0  0  0  0  0  0  0  0  0  0  0
  -21.1220   -6.3090   24.0900 C   0  0  0  0  0  3  0  0  0  0  0  0
  -21.1050   -5.5550   25.2800 C   0  0  0  0  0  3  0  0  0  0  0  0
  -21.4580   -4.1930   25.2550 C   0  0  0  0  0  0  0  0  0  0  0  0
  -21.8320   -3.5840   24.0460 C   0  0  0  0  0  3  0  0  0  0  0  0
  -21.8510   -4.3350   22.8590 C   0  0  0  0  0  0  0  0  0  0  0  0
  -22.1920   -3.7370   21.6910 F   0  0  0  0  0  0  0  0  0  0  0  0
  -21.4340   -3.4650   26.3960 F   0  0  0  0  0  0  0  0  0  0  0  0
  -22.4960  -13.0470   21.5490 C   0  0  0  0  0  0  0  0  0  0  0  0
  -22.0180  -12.2980   22.5370 N   0  0  0  0  0  0  0  0  0  0  0  0
  -21.9410  -14.0910   21.2150 O   0  0  0  0  0  0  0  0  0  0  0  0
  -22.4820  -11.4490   22.8240 H   0  0  0  0  0  0  0  0  0  0  0  0
  -21.1720  -12.5810   23.0140 H   0  0  0  0  0  0  0  0  0  0  0  0
  -24.8470  -14.7810   20.1920 N   0  0  0  0  0  0  0  0  0  0  0  0
  -24.1430  -15.4240   20.5360 H   0  0  0  0  0  0  0  0  0  0  0  0
  -25.6060  -15.2450   19.7090 H   0  0  0  0  0  0  0  0  0  0  0  0
  -32.8260  -13.1170   20.2460 C   0  0  0  0  0  2  0  0  0  0  0  0
  -34.3370  -13.3050   20.4140 C   0  0  0  0  0  0  0  0  0  0  0  0
  -36.3960  -12.4720   21.5080 C   0  0  0  0  0  1  0  0  0  0  0  0
  -34.9660  -12.4550   21.2330 N   0  0  0  0  0  0  0  0  0  0  0  0
  -34.9280  -14.1990   19.8050 O   0  0  0  0  0  0  0  0  0  0  0  0
  -34.4130  -11.7460   21.7000 H   0  0  0  0  0  0  0  0  0  0  0  0
  -30.6490  -20.4630   23.6270 C   0  0  0  0  0  2  0  0  0  0  0  0
  -31.2280  -21.6640   22.8730 C   0  0  0  0  0  2  0  0  0  0  0  0
  -30.1570  -22.7060   22.5400 C   0  0  0  0  0  2  0  0  0  0  0  0
  -30.6210  -23.6790   21.4490 C   0  0  0  0  0  2  0  0  0  0  0  0
  -29.5910  -24.7850   21.2050 C   0  0  0  0  0  2  0  0  0  0  0  0
  -30.0380  -25.7970   20.1390 C   0  0  0  0  0  2  0  0  0  0  0  0
  -29.0970  -27.0030   20.0770 C   0  0  0  0  0  2  0  0  0  0  0  0
  -27.8440  -26.5800   19.5490 O   0  0  0  0  0  0  0  0  0  0  0  0
  -24.4650  -31.7490   23.1480 C   0  0  0  0  0  0  0  0  0  0  0  0
  -26.7490  -27.4000   19.7080 C   0  0  0  0  0  0  0  0  0  0  0  0
  -23.1030  -30.4910   21.5060 C   0  0  0  0  0  3  0  0  0  0  0  0
  -24.4040  -28.9640   19.9340 C   0  0  0  0  0  0  0  0  0  0  0  0
  -25.6210  -30.7640   21.1780 C   0  0  0  0  0  2  0  0  0  0  0  0
  -25.6100  -29.4250   20.4740 C   0  0  0  0  0  0  0  0  0  0  0  0
  -26.7830  -28.6560   20.3610 C   0  0  0  0  0  3  0  0  0  0  0  0
  -25.5240  -26.9420   19.1780 C   0  0  0  0  0  3  0  0  0  0  0  0
  -24.3510  -27.7150   19.2880 C   0  0  0  0  0  3  0  0  0  0  0  0
  -23.2040  -29.8680   20.0870 C   0  0  0  0  0  2  0  0  0  0  0  0
  -24.4190  -31.0110   22.0030 N   0  0  0  0  0  0  0  0  0  0  0  0
  -23.4300  -32.0410   23.7630 O   0  0  0  0  0  0  0  0  0  0  0  0
  -22.4580  -29.4540   22.4520 C   0  0  0  0  0  0  0  0  0  0  0  0
  -21.1270  -29.3050   22.3530 N   0  0  0  0  0  0  0  0  0  0  0  0
  -23.1490  -28.7880   23.2280 O   0  0  0  0  0  0  0  0  0  0  0  0
  -20.6330  -29.8900   21.6940 H   0  0  0  0  0  0  0  0  0  0  0  0
  -17.7480  -28.1330   22.8560 C   0  0  0  0  0  0  0  0  0  0  0  0
  -20.3090  -28.3630   23.1150 C   0  0  0  0  0  3  0  0  0  0  0  0
  -20.3960  -26.9410   22.5140 C   0  0  0  0  0  2  0  0  0  0  0  0
  -19.2850  -26.6460   21.5020 C   0  0  0  0  0  2  0  0  0  0  0  0
  -17.9080  -26.7930   22.1570 C   0  0  0  0  0  2  0  0  0  0  0  0
  -18.8770  -28.8760   23.2920 C   0  0  0  0  0  0  0  0  0  0  0  0
  -18.6740  -30.1310   23.9040 C   0  0  0  0  0  3  0  0  0  0  0  0
  -17.3760  -30.6430   24.0860 C   0  0  0  0  0  3  0  0  0  0  0  0
  -16.2620  -29.8970   23.6650 C   0  0  0  0  0  3  0  0  0  0  0  0
  -16.4490  -28.6420   23.0570 C   0  0  0  0  0  3  0  0  0  0  0  0
  -25.8140  -32.2830   23.7250 C   0  0  0  0  0  3  0  0  0  0  0  0
  -25.5930  -33.6720   24.1490 N   0  0  0  0  0  0  0  0  0  0  0  0
  -25.9640  -34.7490   23.4440 C   0  0  0  0  0  0  0  0  0  0  0  0
  -26.6010  -34.6740   22.3900 O   0  0  0  0  0  0  0  0  0  0  0  0
  -25.0200  -33.8090   24.9690 H   0  0  0  0  0  0  0  0  0  0  0  0
  -24.3270  -36.6490   23.2450 C   0  0  0  0  0  1  0  0  0  0  0  0
  -25.5640  -36.1310   23.9970 C   0  0  0  0  0  3  0  0  0  0  0  0
  -27.7670  -36.8400   24.8160 C   0  0  0  0  0  1  0  0  0  0  0  0
  -26.6490  -37.1330   23.9220 N   0  0  0  0  0  0  0  0  0  0  0  0
  -26.2980  -38.0600   24.1470 H   0  0  0  0  0  0  0  0  0  0  0  0
  -26.3700  -31.4110   24.9190 C   0  0  1  0  0  0  0  0  0  0  0  0
  -25.3280  -31.1410   26.0290 C   0  0  0  0  0  1  0  0  0  0  0  0
  -26.8790  -30.0440   24.4050 C   0  0  0  0  0  1  0  0  0  0  0  0
  -27.5840  -32.1210   25.5630 C   0  0  0  0  0  1  0  0  0  0  0  0
  1  2  1  0
  3  2  1  0
  4  3  1  0
  5  4  1  0
  6 45  1  0
  6  5  1  0
  7 15  1  0
  8 13  1  0
  9 10  1  0
  9  8  1  0
 11 10  1  0
 11 20  1  0
 11 12  1  0
 13  7  1  0
 13 12  1  0
 14  7  2  0
 15  6  1  0
 15 16  1  0
 17 18  2  0
 18 37  1  0
 19 18  1  0
 19 22  1  0
 20 21  1  0
 20 17  1  0
 21 19  2  0
 22 23  1  0
 23 24  2  0
 25 28  1  0
 25 24  1  0
 26 25  2  0
 27 26  1  0
 27 22  2  0
 28 29  1  0
 29 30  1  0
 30 31  2  0
 32 31  1  0
 32 36  1  0
 33 32  2  0
 34 29  2  0
 34 33  1  0
 35 34  1  0
 37 38  1  0
 38 40  1  0
 38 41  1  0
 39 37  2  0
 42 17  1  0
 42 43  1  0
 44 42  1  0
 45 46  1  0
 46 48  1  0
 48 47  1  0
 48 50  1  0
 49 46  2  0
 51  1  1  0
 52 51  1  0
 53 52  1  0
 54 53  1  0
 55 54  1  0
 56 55  1  0
 57 56  1  0
 58 60  1  0
 58 57  1  0
 59 70  2  0
 60 65  1  0
 61 69  1  0
 61 71  1  0
 62 68  1  0
 62 64  1  0
 63 69  1  0
 64 63  1  0
 65 64  2  0
 66 67  1  0
 66 60  2  0
 67 62  2  0
 68 61  1  0
 69 59  1  0
 71 73  2  0
 72 71  1  0
 74 72  1  0
 75 84  2  0
 75 80  1  0
 76 72  1  0
 76 80  1  0
 77 76  1  0
 78 79  1  0
 78 77  1  0
 79 75  1  0
 80 81  2  0
 81 82  1  0
 83 82  2  0
 84 83  1  0
 85 59  1  0
 85 86  1  0
 85 95  1  0
 86 89  1  0
 87 91  1  0
 87 86  1  0
 88 87  2  0
 91 90  1  0
 93 91  1  0
 93 94  1  0
 93 92  1  0
 95 98  1  1
 95 96  1  0
 97 95  1  0
M  ISO  4   7 100  15 100  57 101  58 101
M  END
>  <TORSDO>  (55) 
F 30

>  <SCORE>  (55) 
-4.069

>  <name>  (55) 
54

>  <ligand_id>  (55) 
54

>  <original_smiles>  (55) 
[H]c1c([H])c([H])c2c(c1[H])C([H])([H])C([H])([H])C([H])([H])C2([H])N([H])C(=O)C1([H])N(C(=O)C([H])(N([H])C(=O)C([H])(N([H])C([H])([H])[H])C([H])([H])[H])C(C([H])([H])[H])(C([H])([H])[H])C([H])([H])[H])C([H])([H])c2c([H])c(OC([H])([H])C([H])([H])C([H])([H])C([H])([H])C([H])([H])C([H])([H])C([H])([H])C([H])([H])C([H])([H])C([H])([H])C([H])([H])C([H])([H])C([H])(N([H])C(=O)N3C([H])([H])C([H])([H])C([H])([H])C([H])(n4nc(-c5c([H])c([H])c(Oc6c([H])c([H])c(F)c([H])c6F)c([H])c5[H])c(C(=O)N([H])[H])c4N([H])[H])C3([H])[H])C([H])([H])C(=O)N([H])C([H])([H])[H])c([H])c([H])c2C1([H])[H]

>  <smiles>  (55) 
[H]c1c([H])c([H])c2c(c1[H])C([H])([H])C([H])([H])C([H])([H])C2([H])N([H])C(=O)C1([H])N(C(=O)C([H])(N([H])C(=O)C([H])(N([H])C([H])([H])[H])C([H])([H])[H])C(C([H])([H])[H])(C([H])([H])[H])C([H])([H])[H])C([H])([H])c2c([H])c(OC([H])([H])C([H])([H])C([H])([H])C([H])([H])C([H])([H])C([H])([H])C([H])([H])C([H])([H])C([H])([H])C([H])([H])C([H])([H])C([H])([H])C([H])(N([H])C(=O)N3C([H])([H])C([H])([H])C([H])([H])C([H])(n4nc(-c5c([H])c([H])c(Oc6c([H])c([H])c(F)c([H])c6F)c([H])c5[H])c(C(=O)N([H])[H])c4N([H])[H])C3([H])[H])C([H])([H])C(=O)N([H])C([H])([H])[H])c([H])c([H])c2C1([H])[H]

$$$$
55:0:0
     RDKit          3D

 99 99  0  0  1  0  0  0  0  0999 V2000
  -20.1480  -27.8860   19.9230 C   0  0  0  0  0  1  0  0  0  0  0  0
  -19.6380  -26.7080   20.3600 C   0  0  0  0  0  2  0  0  0  0  0  0
  -20.7130  -24.8150   20.6230 C   0  0  0  0  0  2  0  0  0  0  0  0
  -20.3980  -26.9490   20.8710 C   0  0  1  0  0  0  0  0  0  0  0  0
  -20.1370  -24.6840   20.1040 C   0  0  0  0  0  2  0  0  0  0  0  0
  -21.3170  -23.9180   19.6960 C   0  0  0  0  0  1  0  0  0  0  0  0
  -19.2000  -23.1830   19.9810 C   0  0  0  0  0  1  0  0  0  0  0  0
  -20.6270  -28.3790   21.9960 C   0  0  0  0  0  0  0  0  0  0  0  0
  -19.8140  -28.5080   22.9140 O   0  0  0  0  0  0  0  0  0  0  0  0
  -21.7590  -29.7160   22.0530 C   0  0  0  0  0  2  0  0  0  0  0  0
  -23.4950  -29.9300   22.6480 C   0  0  0  0  0  1  0  0  0  0  0  0
  -25.5390  -27.7270   22.5130 C   0  0  0  0  0  1  0  0  0  0  0  0
  -26.8230  -27.5480   21.5120 O   0  0  0  0  0  0  0  0  0  0  0  0
  -24.1510  -27.9030   25.7400 C   0  0  0  0  0  0  0  0  0  0  0  0
  -27.4420  -28.6010   20.9450 C   0  0  0  0  0  3  0  0  0  0  0  0
  -23.3260  -27.8680   23.3150 C   0  0  0  0  0  2  0  0  0  0  0  0
  -25.0400  -29.5130   21.0860 C   0  0  0  0  0  3  0  0  0  0  0  0
  -25.7240  -29.5250   24.1030 C   0  0  0  0  0  2  0  0  0  0  0  0
  -26.0570  -29.9570   22.3110 C   0  0  0  0  0  3  0  0  0  0  0  0
  -27.3660  -29.5360   21.9750 C   0  0  0  0  0  2  0  0  0  0  0  0
  -26.7760  -28.8170   19.7270 C   0  0  0  0  0  2  0  0  0  0  0  0
  -25.4670  -29.2720   19.8060 C   0  0  0  0  0  2  0  0  0  0  0  0
  -23.6630  -28.3790   21.3900 C   0  0  0  0  0  1  0  0  0  0  0  0
  -24.4180  -28.4140   24.5220 N   0  0  0  0  0  0  0  0  0  0  0  0
  -23.0000  -27.5770   26.0720 O   0  0  0  0  0  0  0  0  0  0  0  0
  -22.7990  -26.5800   23.3460 C   0  0  0  0  0  0  0  0  0  0  0  0
  -21.5310  -26.6010   23.4250 N   0  0  0  0  0  0  0  0  0  0  0  0
  -23.4610  -25.6180   23.0420 O   0  0  0  0  0  0  0  0  0  0  0  0
  -21.0480  -27.4110   23.8030 H   0  0  0  0  0  0  0  0  0  0  0  0
  -17.6100  -26.6210   21.1800 C   0  0  0  0  0  3  0  0  0  0  0  0
  -21.0130  -26.0540   22.3130 C   0  0  0  0  0  2  0  0  0  0  0  0
  -21.8900  -26.4590   19.9290 C   0  0  0  0  0  1  0  0  0  0  0  0
  -20.1820  -26.9590   18.2390 C   0  0  0  0  0 15  0  0  0  0  0  0
  -17.8380  -26.9960   18.9650 C   0  0  0  0  0 15  0  0  0  0  0  0
  -18.8630  -26.3370   22.4490 C   0  0  0  0  0  3  0  0  0  0  0  0
  -18.4210  -26.4460   23.7660 C   0  0  0  0  0  3  0  0  0  0  0  0
  -17.0770  -26.6960   24.0540 C   0  0  0  0  0  3  0  0  0  0  0  0
  -16.0840  -26.8040   23.0640 C   0  0  0  0  0  3  0  0  0  0  0  0
  -16.3300  -26.7630   21.6840 C   0  0  0  0  0  3  0  0  0  0  0  0
  -25.2930  -27.6430   26.7230 C   0  0  0  0  0  3  0  0  0  0  0  0
  -25.8440  -26.1690   26.6100 C   0  0  1  0  0  0  0  0  0  0  0  0
  -24.7530  -25.0690   26.6370 C   0  0  0  0  0  1  0  0  0  0  0  0
  -26.6510  -25.9690   25.3110 C   0  0  0  0  0  1  0  0  0  0  0  0
  -26.8220  -25.9110   27.7760 C   0  0  0  0  0  1  0  0  0  0  0  0
  -24.7420  -27.8850   28.0570 N   0  0  0  0  0  0  0  0  0  0  0  0
  -24.8880  -29.0290   28.7280 C   0  0  0  0  0  0  0  0  0  0  0  0
  -25.5820  -29.9600   28.3130 O   0  0  0  0  0  0  0  0  0  0  0  0
  -24.1220  -27.1800   28.4280 H   0  0  0  0  0  0  0  0  0  0  0  0
  -22.8930  -29.9950   29.9130 C   0  0  0  0  0  1  0  0  0  0  0  0
  -24.1630  -29.1460   30.0790 C   0  0  0  0  0  3  0  0  0  0  0  0
  -26.1090  -28.8290   31.5380 C   0  0  0  0  0  1  0  0  0  0  0  0
  -25.0130  -29.7120   31.1470 N   0  0  0  0  0  0  0  0  0  0  0  0
  -24.4610  -29.9190   31.9750 H   0  0  0  0  0  0  0  0  0  0  0  0
  -22.1750  -23.8070   18.2290 C   0  0  0  0  0  1  0  0  0  0  0  0
  -23.7630  -24.2390   17.7890 C   0  0  0  0  0  2  0  0  0  0  0  0
  -24.2780  -24.5610   16.2100 C   0  0  0  0  0  3  0  0  0  0  0  0
  -25.7690  -25.1870   15.7280 C   0  0  0  0  0  3  0  0  0  0  0  0
  -26.1600  -25.8110   14.2120 C   0  0  0  0  0  3  0  0  0  0  0  0
  -27.6940  -26.2390   13.6560 C   0  0  0  0  0  3  0  0  0  0  0  0
  -28.0520  -26.9950   12.1930 C   0  0  0  0  0  3  0  0  0  0  0  0
  -29.5650  -27.1410   11.4490 C   0  0  0  0  0  3  0  0  0  0  0  0
  -30.9250  -27.9660    9.1500 C   0  0  0  0  0  0  0  0  0  0  0  0
  -31.3860  -27.2260    6.7710 C   0  0  0  0  0  2  0  0  0  0  0  0
  -30.0290  -26.9520    6.0780 C   0  0  0  0  0  2  0  0  0  0  0  0
  -29.5030  -25.5470    6.4420 C   0  0  0  0  0  2  0  0  0  0  0  0
  -29.6150  -25.2520    7.9610 C   0  0  0  0  0  3  0  0  0  0  0  0
  -31.0160  -25.5720    8.4910 C   0  0  0  0  0  2  0  0  0  0  0  0
  -31.2050  -26.9830    8.2300 N   0  0  0  0  0  0  0  0  0  0  0  0
  -31.3470  -29.1040    8.8630 O   0  0  0  0  0  0  0  0  0  0  0  0
  -28.6820  -28.6880    9.7380 C   0  0  0  0  0  1  0  0  0  0  0  0
  -29.7920  -27.7720   10.0180 N   0  0  0  0  0  0  0  0  0  0  0  0
  -28.3060  -23.4650    9.2210 C   0  0  0  0  0  0  0  0  0  0  0  0
  -28.3000  -22.1030    9.1280 C   0  0  0  0  0  0  0  0  0  0  0  0
  -29.2770  -21.7750    8.1380 C   0  0  0  0  0  0  0  0  0  0  0  0
  -29.2460  -23.8970    8.3050 N   0  0  0  0  0  0  0  0  0  0  0  0
  -29.8800  -22.8680    7.6970 N   0  0  0  0  0  0  0  0  0  0  0  0
  -29.6300  -20.4880    7.5360 C   0  0  0  0  0  0  0  0  0  0  0  0
  -30.9640  -20.0290    7.5050 C   0  0  0  0  0  3  0  0  0  0  0  0
  -31.2740  -18.7760    6.9330 C   0  0  0  0  0  3  0  0  0  0  0  0
  -30.2440  -17.9720    6.3910 C   0  0  0  0  0  0  0  0  0  0  0  0
  -28.9210  -18.4460    6.4030 C   0  0  0  0  0  3  0  0  0  0  0  0
  -28.6150  -19.6950    6.9680 C   0  0  0  0  0  3  0  0  0  0  0  0
  -30.4530  -16.7540    5.7920 O   0  0  0  0  0  0  0  0  0  0  0  0
  -31.5040  -15.9500    6.1490 C   0  0  0  0  0  0  0  0  0  0  0  0
  -31.7120  -15.5430    7.4850 C   0  0  0  0  0  3  0  0  0  0  0  0
  -32.7650  -14.6600    7.7960 C   0  0  0  0  0  3  0  0  0  0  0  0
  -33.6040  -14.1770    6.7750 C   0  0  0  0  0  0  0  0  0  0  0  0
  -33.3960  -14.5780    5.4430 C   0  0  0  0  0  3  0  0  0  0  0  0
  -32.3470  -15.4600    5.1310 C   0  0  0  0  0  0  0  0  0  0  0  0
  -32.1380  -15.8280    3.8440 F   0  0  0  0  0  0  0  0  0  0  0  0
  -34.6110  -13.3220    7.0710 F   0  0  0  0  0  0  0  0  0  0  0  0
  -27.3750  -21.1670    9.8450 C   0  0  0  0  0  0  0  0  0  0  0  0
  -27.8340  -19.9530   10.1260 N   0  0  0  0  0  0  0  0  0  0  0  0
  -26.2530  -21.5240   10.2050 O   0  0  0  0  0  0  0  0  0  0  0  0
  -28.7630  -19.6700    9.8480 H   0  0  0  0  0  0  0  0  0  0  0  0
  -27.2500  -19.2960   10.6240 H   0  0  0  0  0  0  0  0  0  0  0  0
  -27.5830  -24.3670    9.9900 N   0  0  0  0  0  0  0  0  0  0  0  0
  -26.8830  -24.0710   10.6620 H   0  0  0  0  0  0  0  0  0  0  0  0
  -27.7260  -25.3680    9.9760 H   0  0  0  0  0  0  0  0  0  0  0  0
  1  2  1  0
  2  4  1  0
  4 32  1  6
  4  8  1  0
  4 31  1  0
  5  3  1  0
  6  3  1  0
  7  5  1  0
  8 10  1  0
  8  9  2  0
 10 11  1  0
 13 12  1  0
 14 25  2  0
 15 13  1  0
 15 20  1  0
 16 26  1  0
 16 24  1  0
 17 23  1  0
 17 19  1  0
 18 24  1  0
 19 18  1  0
 20 19  1  0
 21 22  1  0
 21 15  1  0
 22 17  1  0
 24 14  1  0
 26 27  1  0
 27 29  1  0
 28 26  2  0
 30 39  2  0
 30 35  1  0
 31 27  1  0
 35 36  2  0
 36 37  1  0
 38 37  2  0
 39 38  1  0
 40 14  1  0
 40 45  1  0
 41 42  1  6
 41 40  1  0
 41 44  1  0
 43 41  1  0
 45 48  1  0
 45 46  1  0
 46 50  1  0
 47 46  2  0
 50 49  1  0
 50 52  1  0
 52 51  1  0
 52 53  1  0
 55 54  1  0
 56 55  1  0
 57 56  2  0
 58 57  1  0
 59 58  2  0
 60 59  1  0
 61 60  2  0
 62 71  1  0
 63 68  1  0
 64 65  1  0
 64 63  1  0
 66 65  1  0
 66 75  1  0
 66 67  1  0
 68 67  1  0
 68 62  1  0
 69 62  2  0
 70 71  1  0
 71 61  1  0
 72 97  1  0
 73 72  2  0
 73 92  1  0
 74 73  1  0
 75 72  1  0
 76 74  2  0
 76 75  1  0
 77 74  1  0
 78 77  1  0
 79 78  2  0
 80 81  2  0
 80 79  1  0
 81 82  1  0
 82 77  2  0
 83 84  1  0
 83 80  1  0
 84 85  1  0
 85 86  2  0
 87 91  1  0
 87 86  1  0
 88 87  2  0
 89 88  1  0
 89 84  2  0
 90 89  1  0
 92 93  1  0
 92 94  2  0
 93 96  1  0
 95 93  1  0
 97 98  1  0
 99 97  1  0
M  ISO  4  12 101  13 101  62 100  71 100
M  END
>  <TORSDO>  (56) 
F 28

>  <SCORE>  (56) 
-2.028

>  <name>  (56) 
55

>  <ligand_id>  (56) 
55

>  <original_smiles>  (56) 
[H]c1c([H])c([H])c2c(c1[H])C([H])([H])C([H])([H])C([H])([H])C2([H])N([H])C(=O)C1([H])N(C(=O)C([H])(N([H])C(=O)C([H])(N([H])C([H])([H])[H])C([H])([H])[H])C(C([H])([H])[H])(C([H])([H])[H])C([H])([H])[H])C([H])([H])c2c([H])c(OC([H])([H])C([H])([H])C([H])([H])C(=O)c3c([H])c([H])c(C([H])([H])[H])c(C([H])([H])C([H])([H])C([H])([H])C([H])([H])C([H])([H])C([H])([H])C([H])([H])C([H])([H])N(C(=O)N4C([H])([H])C([H])([H])C([H])([H])C([H])(n5nc(-c6c([H])c([H])c(Oc7c([H])c([H])c(F)c([H])c7F)c([H])c6[H])c(C(=O)N([H])[H])c5N([H])[H])C4([H])[H])C([H])([H])[H])c3[H])c([H])c([H])c2C1([H])[H]

>  <smiles>  (56) 
[H]c1c([H])c([H])c2c(c1[H])C([H])([H])C([H])([H])C([H])([H])C2([H])N([H])C(=O)C1([H])N(C(=O)C([H])(N([H])C(=O)C([H])(N([H])C([H])([H])[H])C([H])([H])[H])C(C([H])([H])[H])(C([H])([H])[H])C([H])([H])[H])C([H])([H])c2c([H])c(OC([H])([H])C([H])([H])C([H])([H])C(=O)c3c([H])c([H])c(C([H])([H])[H])c(C([H])([H])C([H])([H])C([H])([H])C([H])([H])C([H])([H])C([H])([H])C([H])([H])C([H])([H])N(C(=O)N4C([H])([H])C([H])([H])C([H])([H])C([H])(n5nc(-c6c([H])c([H])c(Oc7c([H])c([H])c(F)c([H])c7F)c([H])c6[H])c(C(=O)N([H])[H])c5N([H])[H])C4([H])[H])C([H])([H])[H])c3[H])c([H])c([H])c2C1([H])[H]

$$$$
56:0:0
     RDKit          3D

103111  0  0  1  0  0  0  0  0999 V2000
  -36.9180  -26.2620   18.5440 C   0  0  0  0  0  3  0  0  0  0  0  0
  -36.3920  -27.5180   18.1800 C   0  0  0  0  0  3  0  0  0  0  0  0
  -35.1150  -25.9830   20.1560 C   0  0  0  0  0  3  0  0  0  0  0  0
  -36.2860  -25.4940   19.5440 C   0  0  0  0  0  0  0  0  0  0  0  0
  -34.5610  -27.2240   19.7750 C   0  0  0  0  0  0  0  0  0  0  0  0
  -35.2190  -28.0050   18.7930 C   0  0  0  0  0  0  0  0  0  0  0  0
  -34.7280  -29.2520   18.4100 N   0  0  0  0  0  0  0  0  0  0  0  0
  -35.3690  -29.9120   17.9810 H   0  0  0  0  0  0  0  0  0  0  0  0
  -34.0510  -29.7040   19.0170 H   0  0  0  0  0  0  0  0  0  0  0  0
  -33.2550  -27.6660   20.4250 C   0  0  0  0  0  2  0  0  0  0  0  0
  -32.0360  -27.3640   19.5330 C   0  0  0  0  0  2  0  0  0  0  0  0
  -30.6950  -27.4640   20.2770 C   0  0  0  0  0  2  0  0  0  0  0  0
  -29.4900  -27.2840   19.3410 C   0  0  0  0  0  2  0  0  0  0  0  0
  -28.3880  -26.7240   20.0460 O   0  0  0  0  0  0  0  0  0  0  0  0
  -24.6110  -31.8710   23.2120 C   0  0  0  0  0  0  0  0  0  0  0  0
  -27.2450  -27.4820   20.0820 C   0  0  0  0  0  0  0  0  0  0  0  0
  -23.3970  -30.4940   21.5530 C   0  0  0  0  0  3  0  0  0  0  0  0
  -24.8460  -28.9600   20.1230 C   0  0  0  0  0  0  0  0  0  0  0  0
  -25.9210  -30.8480   21.3590 C   0  0  0  0  0  2  0  0  0  0  0  0
  -26.0040  -29.4860   20.7110 C   0  0  0  0  0  0  0  0  0  0  0  0
  -27.2100  -28.7550   20.6880 C   0  0  0  0  0  3  0  0  0  0  0  0
  -26.0710  -26.9480   19.5190 C   0  0  0  0  0  3  0  0  0  0  0  0
  -24.8720  -27.6870   19.5260 C   0  0  0  0  0  3  0  0  0  0  0  0
  -23.6040  -29.8220   20.1710 C   0  0  0  0  0  2  0  0  0  0  0  0
  -24.6620  -31.0820   22.1030 N   0  0  0  0  0  0  0  0  0  0  0  0
  -23.5300  -32.1430   23.7530 O   0  0  0  0  0  0  0  0  0  0  0  0
  -22.7380  -29.4660   22.5010 C   0  0  0  0  0  0  0  0  0  0  0  0
  -21.4110  -29.3020   22.3760 N   0  0  0  0  0  0  0  0  0  0  0  0
  -23.4170  -28.8200   23.3030 O   0  0  0  0  0  0  0  0  0  0  0  0
  -20.9220  -29.8840   21.7100 H   0  0  0  0  0  0  0  0  0  0  0  0
  -18.0260  -28.1280   22.8480 C   0  0  0  0  0  0  0  0  0  0  0  0
  -20.5850  -28.3590   23.1310 C   0  0  0  0  0  3  0  0  0  0  0  0
  -20.6750  -26.9330   22.5380 C   0  0  0  0  0  2  0  0  0  0  0  0
  -19.5740  -26.6320   21.5170 C   0  0  0  0  0  2  0  0  0  0  0  0
  -18.1920  -26.7830   22.1570 C   0  0  0  0  0  2  0  0  0  0  0  0
  -19.1510  -28.8750   23.2890 C   0  0  0  0  0  0  0  0  0  0  0  0
  -18.9450  -30.1370   23.8880 C   0  0  0  0  0  3  0  0  0  0  0  0
  -17.6470  -30.6520   24.0550 C   0  0  0  0  0  3  0  0  0  0  0  0
  -16.5350  -29.9020   23.6320 C   0  0  0  0  0  3  0  0  0  0  0  0
  -16.7260  -28.6420   23.0340 C   0  0  0  0  0  3  0  0  0  0  0  0
  -25.9000  -32.4850   23.8440 C   0  0  0  0  0  3  0  0  0  0  0  0
  -25.5890  -33.8660   24.2400 N   0  0  0  0  0  0  0  0  0  0  0  0
  -25.9030  -34.9500   23.5170 C   0  0  0  0  0  0  0  0  0  0  0  0
  -26.5550  -34.8940   22.4700 O   0  0  0  0  0  0  0  0  0  0  0  0
  -25.0130  -33.9850   25.0600 H   0  0  0  0  0  0  0  0  0  0  0  0
  -24.1490  -36.7310   23.2640 C   0  0  0  0  0  1  0  0  0  0  0  0
  -25.4110  -36.3140   24.0350 C   0  0  0  0  0  3  0  0  0  0  0  0
  -27.5590  -37.1810   24.8470 C   0  0  0  0  0  1  0  0  0  0  0  0
  -26.4300  -37.3820   23.9430 N   0  0  0  0  0  0  0  0  0  0  0  0
  -26.0200  -38.2900   24.1420 H   0  0  0  0  0  0  0  0  0  0  0  0
  -26.4430  -31.6590   25.0750 C   0  0  1  0  0  0  0  0  0  0  0  0
  -25.3690  -31.3650   26.1490 C   0  0  0  0  0  1  0  0  0  0  0  0
  -27.0340  -30.3100   24.6040 C   0  0  0  0  0  1  0  0  0  0  0  0
  -27.6050  -32.4280   25.7480 C   0  0  0  0  0  1  0  0  0  0  0  0
  -36.8610  -24.1490   19.9600 C   0  0  0  0  0  2  0  0  0  0  0  0
  -36.2600  -22.9570   19.1950 C   0  0  0  0  0  2  0  0  0  0  0  0
  -34.7580  -22.7570   19.4560 C   0  0  0  0  0  2  0  0  0  0  0  0
  -34.2030  -21.4610   18.8540 C   0  0  0  0  0  2  0  0  0  0  0  0
  -32.7140  -21.2960   19.1840 C   0  0  0  0  0  2  0  0  0  0  0  0
  -32.1230  -19.9780   18.6660 C   0  0  0  0  0  2  0  0  0  0  0  0
  -30.5940  -19.8990   18.8250 C   0  0  0  0  0  2  0  0  0  0  0  0
  -30.0760  -20.0370   20.2730 C   0  0  0  0  0  2  0  0  0  0  0  0
  -30.6190  -18.9930   21.2670 C   0  0  0  0  0  2  0  0  0  0  0  0
  -30.1690  -17.5600   20.9450 C   0  0  0  0  0  2  0  0  0  0  0  0
  -30.6960  -16.5180   21.9470 C   0  0  0  0  0  2  0  0  0  0  0  0
  -30.7490  -14.3670   20.6810 C   0  0  0  0  0  0  0  0  0  0  0  0
  -30.4210  -12.2880   19.3930 C   0  0  0  0  0  2  0  0  0  0  0  0
  -29.4870  -12.5330   18.1920 C   0  0  0  0  0  2  0  0  0  0  0  0
  -28.0090  -12.3940   18.6040 C   0  0  0  0  0  2  0  0  0  0  0  0
  -27.6690  -13.2020   19.8840 C   0  0  0  0  0  3  0  0  0  0  0  0
  -28.7050  -12.9250   20.9940 C   0  0  0  0  0  2  0  0  0  0  0  0
  -30.0470  -13.2250   20.4620 N   0  0  0  0  0  0  0  0  0  0  0  0
  -31.7900  -14.6530   20.0810 O   0  0  0  0  0  0  0  0  0  0  0  0
  -30.2180  -15.1840   21.5990 N   0  0  0  0  0  0  0  0  0  0  0  0
  -29.3770  -14.8600   22.0540 H   0  0  0  0  0  0  0  0  0  0  0  0
  -25.2610  -13.8150   20.5670 C   0  0  0  0  0  0  0  0  0  0  0  0
  -24.1850  -13.0430   20.9160 C   0  0  0  0  0  0  0  0  0  0  0  0
  -24.6400  -11.6900   20.8720 C   0  0  0  0  0  0  0  0  0  0  0  0
  -26.3060  -12.9320   20.3400 N   0  0  0  0  0  0  0  0  0  0  0  0
  -25.9330  -11.6480   20.5750 N   0  0  0  0  0  0  0  0  0  0  0  0
  -23.9070  -10.4290   21.0400 C   0  0  0  0  0  0  0  0  0  0  0  0
  -24.3610   -9.4210   21.9180 C   0  0  0  0  0  3  0  0  0  0  0  0
  -23.6290   -8.2250   22.0760 C   0  0  0  0  0  3  0  0  0  0  0  0
  -22.4270   -8.0280   21.3540 C   0  0  0  0  0  0  0  0  0  0  0  0
  -21.9910   -9.0250   20.4640 C   0  0  0  0  0  3  0  0  0  0  0  0
  -22.7240  -10.2130   20.3050 C   0  0  0  0  0  3  0  0  0  0  0  0
  -21.6630   -6.8880   21.4240 O   0  0  0  0  0  0  0  0  0  0  0  0
  -21.6860   -6.0740   22.5280 C   0  0  0  0  0  0  0  0  0  0  0  0
  -21.4020   -6.5640   23.8220 C   0  0  0  0  0  3  0  0  0  0  0  0
  -21.3660   -5.6790   24.9170 C   0  0  0  0  0  3  0  0  0  0  0  0
  -21.6050   -4.3050   24.7230 C   0  0  0  0  0  0  0  0  0  0  0  0
  -21.8820   -3.8150   23.4340 C   0  0  0  0  0  3  0  0  0  0  0  0
  -21.9190   -4.6970   22.3400 C   0  0  0  0  0  0  0  0  0  0  0  0
  -22.1660   -4.2150   21.0980 F   0  0  0  0  0  0  0  0  0  0  0  0
  -21.5630   -3.4540   25.7740 F   0  0  0  0  0  0  0  0  0  0  0  0
  -22.7870  -13.5240   21.1820 C   0  0  0  0  0  0  0  0  0  0  0  0
  -22.0500  -12.8220   22.0360 N   0  0  0  0  0  0  0  0  0  0  0  0
  -22.3560  -14.5550   20.6690 O   0  0  0  0  0  0  0  0  0  0  0  0
  -22.4100  -11.9850   22.4710 H   0  0  0  0  0  0  0  0  0  0  0  0
  -21.1120  -13.1240   22.2570 H   0  0  0  0  0  0  0  0  0  0  0  0
  -25.4340  -15.1880   20.4100 N   0  0  0  0  0  0  0  0  0  0  0  0
  -24.6730  -15.8480   20.5220 H   0  0  0  0  0  0  0  0  0  0  0  0
  -26.2970  -15.6250   20.1100 H   0  0  0  0  0  0  0  0  0  0  0  0
  1  4  1  0
  2  1  2  0
  2  6  1  0
  4 55  1  0
  4  3  2  0
  5  3  1  0
  5 10  1  0
  6  5  2  0
  7  6  1  0
  7  9  1  0
  8  7  1  0
 11 12  1  0
 11 10  1  0
 13 14  1  0
 13 12  1  0
 14 16  1  0
 15 26  2  0
 16 21  1  0
 17 25  1  0
 17 27  1  0
 18 24  1  0
 18 20  1  0
 19 25  1  0
 20 19  1  0
 21 20  2  0
 22 23  1  0
 22 16  2  0
 23 18  2  0
 24 17  1  0
 25 15  1  0
 27 29  2  0
 28 27  1  0
 30 28  1  0
 31 40  2  0
 31 36  1  0
 32 28  1  0
 32 36  1  0
 33 32  1  0
 34 35  1  0
 34 33  1  0
 35 31  1  0
 36 37  2  0
 37 38  1  0
 39 38  2  0
 40 39  1  0
 41 15  1  0
 41 42  1  0
 41 51  1  0
 42 45  1  0
 43 47  1  0
 43 42  1  0
 44 43  2  0
 47 46  1  0
 49 47  1  0
 49 50  1  0
 49 48  1  0
 51 54  1  1
 51 52  1  0
 53 51  1  0
 56 57  1  0
 56 55  1  0
 58 59  1  0
 58 57  1  0
 60 61  1  0
 60 59  1  0
 61 62  1  0
 62 63  1  0
 64 63  1  0
 64 65  1  0
 66 74  1  0
 67 72  1  0
 68 69  1  0
 68 67  1  0
 70 69  1  0
 70 79  1  0
 70 71  1  0
 72 66  1  0
 72 71  1  0
 73 66  2  0
 74 65  1  0
 74 75  1  0
 76 77  2  0
 77 96  1  0
 78 77  1  0
 78 81  1  0
 79 76  1  0
 79 80  1  0
 80 78  2  0
 81 82  1  0
 82 83  2  0
 84 87  1  0
 84 83  1  0
 85 84  2  0
 86 85  1  0
 86 81  2  0
 87 88  1  0
 88 89  1  0
 89 90  2  0
 91 90  1  0
 91 95  1  0
 92 91  2  0
 93 88  2  0
 93 92  1  0
 94 93  1  0
 96 97  1  0
 97100  1  0
 97 99  1  0
 98 96  2  0
101102  1  0
101 76  1  0
103101  1  0
M  ISO  4  13 101  14 101  66 100  74 100
M  END
>  <TORSDO>  (57) 
F 32

>  <SCORE>  (57) 
-10.585

>  <name>  (57) 
56

>  <ligand_id>  (57) 
56

>  <original_smiles>  (57) 
[H]c1c([H])c([H])c2c(c1[H])C([H])([H])C([H])([H])C([H])([H])C2([H])N([H])C(=O)C1([H])N(C(=O)C([H])(N([H])C(=O)C([H])(N([H])C([H])([H])[H])C([H])([H])[H])C(C([H])([H])[H])(C([H])([H])[H])C([H])([H])[H])C([H])([H])c2c([H])c(OC([H])([H])C([H])([H])C([H])([H])C([H])([H])c3c([H])c(C([H])([H])C([H])([H])C([H])([H])C([H])([H])C([H])([H])C([H])([H])C([H])([H])C([H])([H])C([H])([H])C([H])([H])C([H])([H])N([H])C(=O)N4C([H])([H])C([H])([H])C([H])([H])C([H])(n5nc(-c6c([H])c([H])c(Oc7c([H])c([H])c(F)c([H])c7F)c([H])c6[H])c(C(=O)N([H])[H])c5N([H])[H])C4([H])[H])c([H])c([H])c3N([H])[H])c([H])c([H])c2C1([H])[H]

>  <smiles>  (57) 
[H]c1c([H])c([H])c2c(c1[H])C([H])([H])C([H])([H])C([H])([H])C2([H])N([H])C(=O)C1([H])N(C(=O)C([H])(N([H])C(=O)C([H])(N([H])C([H])([H])[H])C([H])([H])[H])C(C([H])([H])[H])(C([H])([H])[H])C([H])([H])[H])C([H])([H])c2c([H])c(OC([H])([H])C([H])([H])C([H])([H])C([H])([H])c3c([H])c(C([H])([H])C([H])([H])C([H])([H])C([H])([H])C([H])([H])C([H])([H])C([H])([H])C([H])([H])C([H])([H])C([H])([H])C([H])([H])N([H])C(=O)N4C([H])([H])C([H])([H])C([H])([H])C([H])(n5nc(-c6c([H])c([H])c(Oc7c([H])c([H])c(F)c([H])c7F)c([H])c6[H])c(C(=O)N([H])[H])c5N([H])[H])C4([H])[H])c([H])c([H])c3N([H])[H])c([H])c([H])c2C1([H])[H]

$$$$
57:0:0
     RDKit          3D

 91 98  0  0  1  0  0  0  0  0999 V2000
  -28.8030  -23.7410   20.4950 C   0  0  0  0  0  3  0  0  0  0  0  0
  -29.0690  -22.5360   19.8680 C   0  0  0  0  0  0  0  0  0  0  0  0
  -27.9220  -24.9470   19.9760 C   0  0  0  0  0  2  0  0  0  0  0  0
  -28.2250  -26.3730   20.2920 O   0  0  0  0  0  0  0  0  0  0  0  0
  -24.6070  -31.8850   23.2390 C   0  0  0  0  0  0  0  0  0  0  0  0
  -27.1540  -27.2870   20.1820 C   0  0  0  0  0  0  0  0  0  0  0  0
  -23.3880  -30.4950   21.6100 C   0  0  0  0  0  3  0  0  0  0  0  0
  -24.8220  -28.9580   20.1460 C   0  0  0  0  0  0  0  0  0  0  0  0
  -25.9300  -30.7880   21.4160 C   0  0  0  0  0  2  0  0  0  0  0  0
  -25.9950  -29.4140   20.7620 C   0  0  0  0  0  0  0  0  0  0  0  0
  -27.1620  -28.5920   20.7780 C   0  0  0  0  0  3  0  0  0  0  0  0
  -25.9670  -26.9120   19.5030 C   0  0  0  0  0  3  0  0  0  0  0  0
  -24.8180  -27.7170   19.4970 C   0  0  0  0  0  3  0  0  0  0  0  0
  -23.5890  -29.8400   20.2200 C   0  0  0  0  0  2  0  0  0  0  0  0
  -24.6620  -31.0720   22.1440 N   0  0  0  0  0  0  0  0  0  0  0  0
  -23.5280  -32.1640   23.7790 O   0  0  0  0  0  0  0  0  0  0  0  0
  -22.7340  -29.4690   22.5670 C   0  0  0  0  0  0  0  0  0  0  0  0
  -21.4080  -29.2820   22.4410 N   0  0  0  0  0  0  0  0  0  0  0  0
  -23.4150  -28.8460   23.3860 O   0  0  0  0  0  0  0  0  0  0  0  0
  -20.9200  -29.8300   21.7470 H   0  0  0  0  0  0  0  0  0  0  0  0
  -18.0390  -28.0670   22.9470 C   0  0  0  0  0  0  0  0  0  0  0  0
  -20.5950  -28.3470   23.2200 C   0  0  0  0  0  3  0  0  0  0  0  0
  -20.7110  -26.9160   22.6520 C   0  0  0  0  0  2  0  0  0  0  0  0
  -19.6110  -26.5760   21.6420 C   0  0  0  0  0  2  0  0  0  0  0  0
  -18.2270  -26.7140   22.2820 C   0  0  0  0  0  2  0  0  0  0  0  0
  -19.1510  -28.8390   23.3740 C   0  0  0  0  0  0  0  0  0  0  0  0
  -18.9220  -30.1030   23.9610 C   0  0  0  0  0  3  0  0  0  0  0  0
  -17.6140  -30.5940   24.1240 C   0  0  0  0  0  3  0  0  0  0  0  0
  -16.5160  -29.8200   23.7110 C   0  0  0  0  0  3  0  0  0  0  0  0
  -16.7290  -28.5570   23.1300 C   0  0  0  0  0  3  0  0  0  0  0  0
  -25.8930  -32.5150   23.8510 C   0  0  0  0  0  3  0  0  0  0  0  0
  -26.4170  -31.7450   25.1240 C   0  0  1  0  0  0  0  0  0  0  0  0
  -25.3310  -31.5090   26.2000 C   0  0  0  0  0  1  0  0  0  0  0  0
  -26.9930  -30.3650   24.7310 C   0  0  0  0  0  1  0  0  0  0  0  0
  -27.5740  -32.5410   25.7720 C   0  0  0  0  0  1  0  0  0  0  0  0
  -25.5850  -33.9130   24.1820 N   0  0  0  0  0  0  0  0  0  0  0  0
  -25.9100  -34.9640   23.4190 C   0  0  0  0  0  0  0  0  0  0  0  0
  -26.5680  -34.8600   22.3820 O   0  0  0  0  0  0  0  0  0  0  0  0
  -25.0040  -34.0740   24.9910 H   0  0  0  0  0  0  0  0  0  0  0  0
  -24.1760  -36.7560   23.0860 C   0  0  0  0  0  1  0  0  0  0  0  0
  -25.4290  -36.3550   23.8820 C   0  0  0  0  0  3  0  0  0  0  0  0
  -27.5760  -37.2370   24.6810 C   0  0  0  0  0  1  0  0  0  0  0  0
  -26.4590  -37.4080   23.7550 N   0  0  0  0  0  0  0  0  0  0  0  0
  -26.0590  -38.3310   23.9070 H   0  0  0  0  0  0  0  0  0  0  0  0
  -30.0060  -21.3960   20.4810 C   0  0  0  0  0  2  0  0  0  0  0  0
  -29.5490  -19.8740   20.7710 C   0  0  0  0  0  2  0  0  0  0  0  0
  -29.9460  -18.4490   20.1040 C   0  0  0  0  0  2  0  0  0  0  0  0
  -30.3660  -17.2240   21.0400 C   0  0  0  0  0  2  0  0  0  0  0  0
  -30.6620  -14.7040   20.4070 C   0  0  0  0  0  0  0  0  0  0  0  0
  -30.4000  -12.4560   19.3620 C   0  0  0  0  0  2  0  0  0  0  0  0
  -29.4490  -12.5060   18.1490 C   0  0  0  0  0  2  0  0  0  0  0  0
  -27.9830  -12.3690   18.5870 C   0  0  0  0  0  2  0  0  0  0  0  0
  -27.6200  -13.2870   19.7780 C   0  0  0  0  0  3  0  0  0  0  0  0
  -28.6790  -13.2040   20.8990 C   0  0  0  0  0  2  0  0  0  0  0  0
  -29.9860  -13.5190   20.2990 N   0  0  0  0  0  0  0  0  0  0  0  0
  -31.8610  -14.7840   20.1210 O   0  0  0  0  0  0  0  0  0  0  0  0
  -29.9270  -15.8340   20.6520 N   0  0  0  0  0  0  0  0  0  0  0  0
  -28.9310  -15.6790   20.7000 H   0  0  0  0  0  0  0  0  0  0  0  0
  -25.2170  -13.8970   20.4630 C   0  0  0  0  0  0  0  0  0  0  0  0
  -24.1420  -13.1240   20.8280 C   0  0  0  0  0  0  0  0  0  0  0  0
  -24.6110  -11.7710   20.8310 C   0  0  0  0  0  0  0  0  0  0  0  0
  -26.2670  -13.0140   20.2660 N   0  0  0  0  0  0  0  0  0  0  0  0
  -25.9060  -11.7330   20.5490 N   0  0  0  0  0  0  0  0  0  0  0  0
  -23.8850  -10.5090   21.0170 C   0  0  0  0  0  0  0  0  0  0  0  0
  -24.3110   -9.5430   21.9560 C   0  0  0  0  0  3  0  0  0  0  0  0
  -23.5770   -8.3510   22.1360 C   0  0  0  0  0  3  0  0  0  0  0  0
  -22.4110   -8.1110   21.3720 C   0  0  0  0  0  0  0  0  0  0  0  0
  -22.0080   -9.0640   20.4160 C   0  0  0  0  0  3  0  0  0  0  0  0
  -22.7460  -10.2460   20.2350 C   0  0  0  0  0  3  0  0  0  0  0  0
  -21.6490   -6.9700   21.4630 O   0  0  0  0  0  0  0  0  0  0  0  0
  -21.5900   -6.2270   22.6170 C   0  0  0  0  0  0  0  0  0  0  0  0
  -21.1610   -6.7870   23.8400 C   0  0  0  0  0  3  0  0  0  0  0  0
  -21.0510   -5.9740   24.9880 C   0  0  0  0  0  3  0  0  0  0  0  0
  -21.3660   -4.6040   24.9100 C   0  0  0  0  0  0  0  0  0  0  0  0
  -21.7880   -4.0430   23.6930 C   0  0  0  0  0  3  0  0  0  0  0  0
  -21.8980   -4.8540   22.5470 C   0  0  0  0  0  0  0  0  0  0  0  0
  -22.2830   -4.3030   21.3710 F   0  0  0  0  0  0  0  0  0  0  0  0
  -21.2500   -3.8230   26.0090 F   0  0  0  0  0  0  0  0  0  0  0  0
  -22.7410  -13.5970   21.0670 C   0  0  0  0  0  0  0  0  0  0  0  0
  -22.0050  -12.9070   21.9320 N   0  0  0  0  0  0  0  0  0  0  0  0
  -22.3040  -14.6130   20.5280 O   0  0  0  0  0  0  0  0  0  0  0  0
  -22.3730  -12.0800   22.3820 H   0  0  0  0  0  0  0  0  0  0  0  0
  -21.0660  -13.2060   22.1600 H   0  0  0  0  0  0  0  0  0  0  0  0
  -25.3910  -15.2640   20.2580 N   0  0  0  0  0  0  0  0  0  0  0  0
  -24.6380  -15.9450   20.3300 H   0  0  0  0  0  0  0  0  0  0  0  0
  -26.2490  -15.6640   19.8950 H   0  0  0  0  0  0  0  0  0  0  0  0
  -28.5730  -22.2660   18.4270 C   0  0  0  0  0  2  0  0  0  0  0  0
  -27.5920  -21.1630   18.3000 N   0  0  0  0  0  4  0  0  0  0  0  0
  -26.7010  -21.4120   18.6960 H   0  0  0  0  0  0  0  0  0  0  0  0
  -27.9240  -20.3360   18.7620 H   0  0  0  0  0  0  0  0  0  0  0  0
  -27.4550  -20.9460   17.3210 H   0  0  0  0  0  0  0  0  0  0  0  0
  2 45  1  0
  2  1  2  0
  3  4  1  0
  3  1  1  0
  5 16  2  0
  6  4  1  0
  6 11  1  0
  7 15  1  0
  7 17  1  0
  8 14  1  0
  8 10  1  0
  9 15  1  0
 10 11  2  0
 10  9  1  0
 12  6  2  0
 13 12  1  0
 13  8  2  0
 14  7  1  0
 15  5  1  0
 17 19  2  0
 18 17  1  0
 20 18  1  0
 21 30  2  0
 21 26  1  0
 22 18  1  0
 22 26  1  0
 23 22  1  0
 24 25  1  0
 24 23  1  0
 25 21  1  0
 26 27  2  0
 27 28  1  0
 29 28  2  0
 30 29  1  0
 31  5  1  0
 31 36  1  0
 31 32  1  0
 32 35  1  1
 32 33  1  0
 34 32  1  0
 36 39  1  0
 37 41  1  0
 37 36  1  0
 38 37  2  0
 41 40  1  0
 43 41  1  0
 43 44  1  0
 43 42  1  0
 45 46  1  0
 47 46  1  0
 47 48  1  0
 49 57  1  0
 50 55  1  0
 51 52  1  0
 51 50  1  0
 53 52  1  0
 53 62  1  0
 53 54  1  0
 55 49  1  0
 55 54  1  0
 56 49  2  0
 57 58  1  0
 57 48  1  0
 59 60  2  0
 60 61  1  0
 60 79  1  0
 61 64  1  0
 62 59  1  0
 62 63  1  0
 63 61  2  0
 64 65  1  0
 65 66  2  0
 67 70  1  0
 67 66  1  0
 68 67  2  0
 69 68  1  0
 69 64  2  0
 70 71  1  0
 71 72  1  0
 72 73  2  0
 74 73  1  0
 74 78  1  0
 75 74  2  0
 76 71  2  0
 76 75  1  0
 77 76  1  0
 79 80  1  0
 80 83  1  0
 80 82  1  0
 81 79  2  0
 84 85  1  0
 84 59  1  0
 86 84  1  0
 87  2  1  0
 88 87  1  0
 88 89  1  0
 88 90  1  0
 91 88  1  0
M  ISO  4   3 101   4 101  49 100  57 100
M  END
>  <TORSDO>  (58) 
F 23

>  <SCORE>  (58) 
-12.785

>  <name>  (58) 
57

>  <ligand_id>  (58) 
57

>  <original_smiles>  (58) 
[H]C(=C(C([H])([H])C([H])([H])C([H])([H])C([H])([H])N([H])C(=O)N1C([H])([H])C([H])([H])C([H])([H])C([H])(n2nc(-c3c([H])c([H])c(Oc4c([H])c([H])c(F)c([H])c4F)c([H])c3[H])c(C(=O)N([H])[H])c2N([H])[H])C1([H])[H])C([H])([H])[N+]([H])([H])[H])C([H])([H])Oc1c([H])c([H])c2c(c1[H])C([H])([H])N(C(=O)C([H])(N([H])C(=O)C([H])(N([H])C([H])([H])[H])C([H])([H])[H])C(C([H])([H])[H])(C([H])([H])[H])C([H])([H])[H])C([H])(C(=O)N([H])C1([H])c3c([H])c([H])c([H])c([H])c3C([H])([H])C([H])([H])C1([H])[H])C2([H])[H]

>  <smiles>  (58) 
[H]C(=C(C([H])([H])C([H])([H])C([H])([H])C([H])([H])N([H])C(=O)N1C([H])([H])C([H])([H])C([H])([H])C([H])(n2nc(-c3c([H])c([H])c(Oc4c([H])c([H])c(F)c([H])c4F)c([H])c3[H])c(C(=O)N([H])[H])c2N([H])[H])C1([H])[H])C([H])([H])[N+]([H])([H])[H])C([H])([H])Oc1c([H])c([H])c2c(c1[H])C([H])([H])N(C(=O)C([H])(N([H])C(=O)C([H])(N([H])C([H])([H])[H])C([H])([H])[H])C(C([H])([H])[H])(C([H])([H])[H])C([H])([H])[H])C([H])(C(=O)N([H])C1([H])c3c([H])c([H])c([H])c([H])c3C([H])([H])C([H])([H])C1([H])[H])C2([H])[H]

$$$$
58:0:0
     RDKit          3D

 98106  0  0  1  0  0  0  0  0999 V2000
  -25.3780  -23.0510   20.8750 C   0  0  0  0  0  3  0  0  0  0  0  0
  -26.4350  -23.8030   21.4170 C   0  0  0  0  0  3  0  0  0  0  0  0
  -25.5850  -22.2580   19.7320 C   0  0  0  0  0  3  0  0  0  0  0  0
  -27.9200  -22.9500   19.6820 C   0  0  0  0  0  3  0  0  0  0  0  0
  -27.7140  -23.7730   20.8140 C   0  0  0  0  0  0  0  0  0  0  0  0
  -26.8620  -22.1900   19.1350 C   0  0  0  0  0  0  0  0  0  0  0  0
  -28.8670  -24.5880   21.3960 C   0  0  0  0  0  2  0  0  0  0  0  0
  -28.6120  -26.1070   21.5110 C   0  0  0  0  0  2  0  0  0  0  0  0
  -28.4290  -26.7180   20.2300 O   0  0  0  0  0  0  0  0  0  0  0  0
  -24.6210  -31.9000   23.2360 C   0  0  0  0  0  0  0  0  0  0  0  0
  -27.2990  -27.4870   20.1790 C   0  0  0  0  0  0  0  0  0  0  0  0
  -23.4310  -30.4860   21.5880 C   0  0  0  0  0  3  0  0  0  0  0  0
  -24.9040  -28.9660   20.1610 C   0  0  0  0  0  0  0  0  0  0  0  0
  -25.9520  -30.8700   21.4030 C   0  0  0  0  0  2  0  0  0  0  0  0
  -26.0490  -29.5010   20.7640 C   0  0  0  0  0  0  0  0  0  0  0  0
  -27.2500  -28.7640   20.7780 C   0  0  0  0  0  3  0  0  0  0  0  0
  -26.1500  -26.9660   19.5590 C   0  0  0  0  0  3  0  0  0  0  0  0
  -24.9500  -27.6980   19.5530 C   0  0  0  0  0  3  0  0  0  0  0  0
  -23.6490  -29.8080   20.2090 C   0  0  0  0  0  2  0  0  0  0  0  0
  -24.6850  -31.1000   22.1340 N   0  0  0  0  0  0  0  0  0  0  0  0
  -23.5370  -32.1640   23.7730 O   0  0  0  0  0  0  0  0  0  0  0  0
  -22.7860  -29.4590   22.5470 C   0  0  0  0  0  0  0  0  0  0  0  0
  -21.4610  -29.2750   22.4220 N   0  0  0  0  0  0  0  0  0  0  0  0
  -23.4700  -28.8350   23.3600 O   0  0  0  0  0  0  0  0  0  0  0  0
  -20.9690  -29.8360   21.7400 H   0  0  0  0  0  0  0  0  0  0  0  0
  -18.0860  -28.0820   22.9130 C   0  0  0  0  0  0  0  0  0  0  0  0
  -20.6440  -28.3360   23.1890 C   0  0  0  0  0  3  0  0  0  0  0  0
  -20.7460  -26.9060   22.6120 C   0  0  0  0  0  2  0  0  0  0  0  0
  -19.6450  -26.5840   21.5980 C   0  0  0  0  0  2  0  0  0  0  0  0
  -18.2620  -26.7310   22.2390 C   0  0  0  0  0  2  0  0  0  0  0  0
  -19.2060  -28.8420   23.3440 C   0  0  0  0  0  0  0  0  0  0  0  0
  -18.9880  -30.1040   23.9350 C   0  0  0  0  0  3  0  0  0  0  0  0
  -17.6850  -30.6090   24.0990 C   0  0  0  0  0  3  0  0  0  0  0  0
  -16.5790  -29.8420   23.6910 C   0  0  0  0  0  3  0  0  0  0  0  0
  -16.7810  -28.5820   23.1030 C   0  0  0  0  0  3  0  0  0  0  0  0
  -25.9010  -32.5410   23.8580 C   0  0  0  0  0  3  0  0  0  0  0  0
  -26.4180  -31.7810   25.1410 C   0  0  1  0  0  0  0  0  0  0  0  0
  -25.3200  -31.5430   26.2040 C   0  0  0  0  0  1  0  0  0  0  0  0
  -27.0150  -30.4080   24.7540 C   0  0  0  0  0  1  0  0  0  0  0  0
  -27.5620  -32.5870   25.8030 C   0  0  0  0  0  1  0  0  0  0  0  0
  -25.5880  -33.9390   24.1770 N   0  0  0  0  0  0  0  0  0  0  0  0
  -25.9120  -34.9860   23.4070 C   0  0  0  0  0  0  0  0  0  0  0  0
  -26.5780  -34.8770   22.3740 O   0  0  0  0  0  0  0  0  0  0  0  0
  -25.0140  -34.0990   24.9900 H   0  0  0  0  0  0  0  0  0  0  0  0
  -24.1620  -36.7530   23.0430 C   0  0  0  0  0  1  0  0  0  0  0  0
  -25.4110  -36.3730   23.8540 C   0  0  0  0  0  3  0  0  0  0  0  0
  -27.5400  -37.2790   24.6690 C   0  0  0  0  0  1  0  0  0  0  0  0
  -26.4320  -37.4360   23.7320 N   0  0  0  0  0  0  0  0  0  0  0  0
  -26.0160  -38.3520   23.8850 H   0  0  0  0  0  0  0  0  0  0  0  0
  -27.0660  -21.3430   17.8840 C   0  0  0  0  0  2  0  0  0  0  0  0
  -27.4930  -19.9590   18.1850 N   0  0  0  0  0  4  0  0  0  0  0  0
  -27.0490  -19.3690   17.5020 H   0  0  0  0  0  0  0  0  0  0  0  0
  -27.1220  -19.6950   19.0810 H   0  0  0  0  0  0  0  0  0  0  0  0
  -28.9510  -19.6870   18.1370 C   0  0  0  0  0  3  0  0  0  0  0  0
  -29.2890  -19.2500   15.6200 C   0  0  0  0  0  1  0  0  0  0  0  0
  -29.2910  -18.6570   17.0350 C   0  0  0  0  0  2  0  0  0  0  0  0
  -29.4800  -19.2390   19.5160 C   0  0  0  0  0  2  0  0  0  0  0  0
  -28.9320  -17.8890   20.0250 C   0  0  0  0  0  2  0  0  0  0  0  0
  -29.5060  -17.5100   21.4040 C   0  0  0  0  0  2  0  0  0  0  0  0
  -30.7910  -16.6620   21.3180 C   0  0  0  0  0  2  0  0  0  0  0  0
  -31.0600  -14.4090   20.2180 C   0  0  0  0  0  0  0  0  0  0  0  0
  -30.7190  -12.2680   19.0340 C   0  0  0  0  0  2  0  0  0  0  0  0
  -29.7520  -12.4790   17.8510 C   0  0  0  0  0  2  0  0  0  0  0  0
  -28.2810  -12.3870   18.3080 C   0  0  0  0  0  2  0  0  0  0  0  0
  -27.9920  -13.2520   19.5640 C   0  0  0  0  0  3  0  0  0  0  0  0
  -29.0490  -12.9630   20.6500 C   0  0  0  0  0  2  0  0  0  0  0  0
  -30.3790  -13.2450   20.0740 N   0  0  0  0  0  0  0  0  0  0  0  0
  -32.1160  -14.6680   19.6310 O   0  0  0  0  0  0  0  0  0  0  0  0
  -30.4480  -15.2770   21.0310 N   0  0  0  0  0  0  0  0  0  0  0  0
  -29.5980  -14.9300   21.4540 H   0  0  0  0  0  0  0  0  0  0  0  0
  -25.6330  -13.9630   20.3110 C   0  0  0  0  0  0  0  0  0  0  0  0
  -24.5420  -13.2350   20.7040 C   0  0  0  0  0  0  0  0  0  0  0  0
  -24.9480  -11.8660   20.6670 C   0  0  0  0  0  0  0  0  0  0  0  0
  -26.6370  -13.0400   20.0630 N   0  0  0  0  0  0  0  0  0  0  0  0
  -26.2270  -11.7740   20.3280 N   0  0  0  0  0  0  0  0  0  0  0  0
  -24.1800  -10.6350   20.8800 C   0  0  0  0  0  0  0  0  0  0  0  0
  -24.5730   -9.6750   21.8370 C   0  0  0  0  0  3  0  0  0  0  0  0
  -23.8100   -8.5030   22.0340 C   0  0  0  0  0  3  0  0  0  0  0  0
  -22.6370   -8.2830   21.2720 C   0  0  0  0  0  0  0  0  0  0  0  0
  -22.2590   -9.2320   20.3050 C   0  0  0  0  0  3  0  0  0  0  0  0
  -23.0230  -10.3940   20.1090 C   0  0  0  0  0  3  0  0  0  0  0  0
  -21.8480   -7.1640   21.3760 O   0  0  0  0  0  0  0  0  0  0  0  0
  -21.7300   -6.4750   22.5570 C   0  0  0  0  0  0  0  0  0  0  0  0
  -21.2810   -7.0970   23.7410 C   0  0  0  0  0  3  0  0  0  0  0  0
  -21.1090   -6.3360   24.9140 C   0  0  0  0  0  3  0  0  0  0  0  0
  -21.3740   -4.9540   24.9030 C   0  0  0  0  0  0  0  0  0  0  0  0
  -21.8120   -4.3320   23.7220 C   0  0  0  0  0  3  0  0  0  0  0  0
  -21.9870   -5.0890   22.5520 C   0  0  0  0  0  0  0  0  0  0  0  0
  -22.3940   -4.4820   21.4110 F   0  0  0  0  0  0  0  0  0  0  0  0
  -21.1970   -4.2200   26.0270 F   0  0  0  0  0  0  0  0  0  0  0  0
  -23.1720  -13.7660   21.0080 C   0  0  0  0  0  0  0  0  0  0  0  0
  -22.4470  -13.1080   21.9060 N   0  0  0  0  0  0  0  0  0  0  0  0
  -22.7550  -14.7980   20.4840 O   0  0  0  0  0  0  0  0  0  0  0  0
  -22.7990  -12.2720   22.3510 H   0  0  0  0  0  0  0  0  0  0  0  0
  -21.5250  -13.4450   22.1500 H   0  0  0  0  0  0  0  0  0  0  0  0
  -25.8500  -15.3250   20.1280 N   0  0  0  0  0  0  0  0  0  0  0  0
  -25.1160  -16.0120   20.2640 H   0  0  0  0  0  0  0  0  0  0  0  0
  -26.7240  -15.7290   19.8190 H   0  0  0  0  0  0  0  0  0  0  0  0
  1  2  1  0
  3  1  2  0
  4  5  1  0
  5  7  1  0
  5  2  2  0
  6  4  2  0
  6  3  1  0
  7  8  1  0
  9  8  1  0
 10 21  2  0
 11  9  1  0
 11 16  1  0
 12 20  1  0
 12 22  1  0
 13 19  1  0
 13 15  1  0
 14 20  1  0
 15 16  2  0
 15 14  1  0
 17 11  2  0
 18 17  1  0
 18 13  2  0
 19 12  1  0
 20 10  1  0
 22 24  2  0
 23 22  1  0
 25 23  1  0
 26 35  2  0
 26 31  1  0
 27 23  1  0
 27 31  1  0
 28 27  1  0
 29 30  1  0
 29 28  1  0
 30 26  1  0
 31 32  2  0
 32 33  1  0
 34 33  2  0
 35 34  1  0
 36 10  1  0
 36 41  1  0
 36 37  1  0
 37 40  1  1
 37 38  1  0
 39 37  1  0
 41 44  1  0
 42 46  1  0
 42 41  1  0
 43 42  2  0
 46 45  1  0
 48 46  1  0
 48 49  1  0
 48 47  1  0
 50 51  1  0
 50  6  1  0
 51 53  1  0
 52 51  1  0
 54 56  1  0
 54 51  1  0
 54 57  1  0
 55 56  1  0
 57 58  1  0
 58 59  1  0
 60 59  1  0
 61 69  1  0
 62 67  1  0
 63 64  1  0
 63 62  1  0
 65 64  1  0
 65 74  1  0
 65 66  1  0
 67 61  1  0
 67 66  1  0
 68 61  2  0
 69 60  1  0
 69 70  1  0
 71 72  2  0
 72 91  1  0
 73 72  1  0
 73 76  1  0
 74 71  1  0
 74 75  1  0
 75 73  2  0
 76 77  1  0
 77 78  2  0
 79 82  1  0
 79 78  1  0
 80 79  2  0
 81 80  1  0
 81 76  2  0
 82 83  1  0
 83 84  1  0
 84 85  2  0
 86 85  1  0
 86 90  1  0
 87 86  2  0
 88 83  2  0
 88 87  1  0
 89 88  1  0
 91 92  1  0
 92 95  1  0
 92 94  1  0
 93 91  2  0
 96 97  1  0
 96 71  1  0
 98 96  1  0
M  ISO  4   8 101   9 101  61 100  69 100
M  END
>  <TORSDO>  (59) 
F 26

>  <SCORE>  (59) 
-11.703

>  <name>  (59) 
58

>  <ligand_id>  (59) 
58

>  <original_smiles>  (59) 
[H]c1c([H])c([H])c2c(c1[H])C([H])([H])C([H])([H])C([H])([H])C2([H])N([H])C(=O)C1([H])N(C(=O)C([H])(N([H])C(=O)C([H])(N([H])C([H])([H])[H])C([H])([H])[H])C(C([H])([H])[H])(C([H])([H])[H])C([H])([H])[H])C([H])([H])c2c([H])c(OC([H])([H])C([H])([H])c3c([H])c([H])c([H])c(C([H])([H])[N+]([H])([H])C([H])(C([H])([H])C([H])([H])[H])C([H])([H])C([H])([H])C([H])([H])C([H])([H])N([H])C(=O)N4C([H])([H])C([H])([H])C([H])([H])C([H])(n5nc(-c6c([H])c([H])c(Oc7c([H])c([H])c(F)c([H])c7F)c([H])c6[H])c(C(=O)N([H])[H])c5N([H])[H])C4([H])[H])c3[H])c([H])c([H])c2C1([H])[H]

>  <smiles>  (59) 
[H]c1c([H])c([H])c2c(c1[H])C([H])([H])C([H])([H])C([H])([H])C2([H])N([H])C(=O)C1([H])N(C(=O)C([H])(N([H])C(=O)C([H])(N([H])C([H])([H])[H])C([H])([H])[H])C(C([H])([H])[H])(C([H])([H])[H])C([H])([H])[H])C([H])([H])c2c([H])c(OC([H])([H])C([H])([H])c3c([H])c([H])c([H])c(C([H])([H])[N+]([H])([H])C([H])(C([H])([H])C([H])([H])[H])C([H])([H])C([H])([H])C([H])([H])C([H])([H])N([H])C(=O)N4C([H])([H])C([H])([H])C([H])([H])C([H])(n5nc(-c6c([H])c([H])c(Oc7c([H])c([H])c(F)c([H])c7F)c([H])c6[H])c(C(=O)N([H])[H])c5N([H])[H])C4([H])[H])c3[H])c([H])c([H])c2C1([H])[H]

$$$$
59:0:0
     RDKit          3D

 93100  0  0  1  0  0  0  0  0999 V2000
  -28.6440  -23.4460   20.2370 C   0  0  0  0  0  3  0  0  0  0  0  0
  -28.5220  -22.6770   18.9050 C   0  0  0  0  0  2  0  0  0  0  0  0
  -27.3390  -21.6920   18.9390 C   0  0  0  0  0  2  0  0  0  0  0  0
  -27.5800  -20.4210   18.1160 C   0  0  0  0  0  2  0  0  0  0  0  0
  -28.4260  -19.3690   18.8530 C   0  0  0  0  0  2  0  0  0  0  0  0
  -27.6250  -18.5570   19.8910 C   0  0  0  0  0  2  0  0  0  0  0  0
  -28.4950  -17.6740   20.8020 C   0  0  0  0  0  2  0  0  0  0  0  0
  -29.4610  -16.7790   20.0160 C   0  0  0  0  0  2  0  0  0  0  0  0
  -30.6360  -14.7120   20.1900 C   0  0  0  0  0  0  0  0  0  0  0  0
  -30.3070  -12.6290   18.9300 C   0  0  0  0  0  2  0  0  0  0  0  0
  -29.3060  -12.8930   17.7910 C   0  0  0  0  0  2  0  0  0  0  0  0
  -27.8580  -12.6970   18.2820 C   0  0  0  0  0  2  0  0  0  0  0  0
  -27.5660  -13.4560   19.6060 C   0  0  0  0  0  3  0  0  0  0  0  0
  -28.6790  -13.1950   20.6460 C   0  0  0  0  0  2  0  0  0  0  0  0
  -29.9720  -13.5410   20.0290 N   0  0  0  0  0  0  0  0  0  0  0  0
  -31.7060  -14.9800   19.6400 O   0  0  0  0  0  0  0  0  0  0  0  0
  -29.9460  -15.6650   20.8190 N   0  0  0  0  0  0  0  0  0  0  0  0
  -30.4120  -15.9800   21.6590 H   0  0  0  0  0  0  0  0  0  0  0  0
  -25.1700  -13.9610   20.4040 C   0  0  0  0  0  0  0  0  0  0  0  0
  -24.1520  -13.1420   20.8140 C   0  0  0  0  0  0  0  0  0  0  0  0
  -24.6700  -11.8120   20.7600 C   0  0  0  0  0  0  0  0  0  0  0  0
  -26.2430  -13.1270   20.1330 N   0  0  0  0  0  0  0  0  0  0  0  0
  -25.9460  -11.8290   20.3980 N   0  0  0  0  0  0  0  0  0  0  0  0
  -24.0100  -10.5180   20.9750 C   0  0  0  0  0  0  0  0  0  0  0  0
  -24.4680   -9.6090   21.9540 C   0  0  0  0  0  3  0  0  0  0  0  0
  -23.8050   -8.3790   22.1540 C   0  0  0  0  0  3  0  0  0  0  0  0
  -22.6700   -8.0500   21.3760 C   0  0  0  0  0  0  0  0  0  0  0  0
  -22.2320   -8.9490   20.3880 C   0  0  0  0  0  3  0  0  0  0  0  0
  -22.8960  -10.1700   20.1850 C   0  0  0  0  0  3  0  0  0  0  0  0
  -21.9760   -6.8680   21.4830 O   0  0  0  0  0  0  0  0  0  0  0  0
  -21.8670   -6.2040   22.6790 C   0  0  0  0  0  0  0  0  0  0  0  0
  -21.2940   -6.8100   23.8190 C   0  0  0  0  0  3  0  0  0  0  0  0
  -21.1390   -6.0690   25.0070 C   0  0  0  0  0  3  0  0  0  0  0  0
  -21.5460   -4.7220   25.0550 C   0  0  0  0  0  0  0  0  0  0  0  0
  -22.1110   -4.1150   23.9190 C   0  0  0  0  0  3  0  0  0  0  0  0
  -22.2700   -4.8540   22.7350 C   0  0  0  0  0  0  0  0  0  0  0  0
  -22.7970   -4.2590   21.6370 F   0  0  0  0  0  0  0  0  0  0  0  0
  -21.3890   -4.0070   26.1930 F   0  0  0  0  0  0  0  0  0  0  0  0
  -22.7480  -13.5570   21.1460 C   0  0  0  0  0  0  0  0  0  0  0  0
  -22.0900  -12.8330   22.0440 N   0  0  0  0  0  0  0  0  0  0  0  0
  -22.2410  -14.5590   20.6440 O   0  0  0  0  0  0  0  0  0  0  0  0
  -22.5090  -12.0200   22.4730 H   0  0  0  0  0  0  0  0  0  0  0  0
  -21.1490  -13.0920   22.3070 H   0  0  0  0  0  0  0  0  0  0  0  0
  -25.2670  -15.3380   20.2240 N   0  0  0  0  0  0  0  0  0  0  0  0
  -24.4820  -15.9630   20.3750 H   0  0  0  0  0  0  0  0  0  0  0  0
  -26.0990  -15.8150   19.9070 H   0  0  0  0  0  0  0  0  0  0  0  0
  -29.1690  -24.8880   20.0830 C   0  0  0  0  0  2  0  0  0  0  0  0
  -28.5660  -25.6650   18.9010 C   0  0  0  0  0  2  0  0  0  0  0  0
  -28.4440  -27.0320   19.2630 O   0  0  0  0  0  0  0  0  0  0  0  0
  -24.7310  -31.7220   23.0610 C   0  0  0  0  0  0  0  0  0  0  0  0
  -27.2050  -27.6170   19.4350 C   0  0  0  0  0  0  0  0  0  0  0  0
  -23.4220  -30.4280   21.4090 C   0  0  0  0  0  3  0  0  0  0  0  0
  -24.7810  -29.0370   19.7650 C   0  0  0  0  0  0  0  0  0  0  0  0
  -25.9150  -30.8590   21.0460 C   0  0  0  0  0  2  0  0  0  0  0  0
  -25.9680  -29.5440   20.3020 C   0  0  0  0  0  0  0  0  0  0  0  0
  -27.1770  -28.8380   20.1390 C   0  0  0  0  0  3  0  0  0  0  0  0
  -25.9880  -27.1050   18.9190 C   0  0  0  0  0  3  0  0  0  0  0  0
  -24.7830  -27.8140   19.0750 C   0  0  0  0  0  3  0  0  0  0  0  0
  -23.5310  -29.8630   19.9670 C   0  0  0  0  0  2  0  0  0  0  0  0
  -24.7130  -31.0130   21.8960 N   0  0  0  0  0  0  0  0  0  0  0  0
  -23.6920  -31.9290   23.7000 O   0  0  0  0  0  0  0  0  0  0  0  0
  -22.8650  -29.3200   22.3280 C   0  0  0  0  0  0  0  0  0  0  0  0
  -21.5500  -29.0680   22.2260 N   0  0  0  0  0  0  0  0  0  0  0  0
  -23.6070  -28.6930   23.0880 O   0  0  0  0  0  0  0  0  0  0  0  0
  -21.0090  -29.6290   21.5830 H   0  0  0  0  0  0  0  0  0  0  0  0
  -18.2800  -27.6030   22.6750 C   0  0  0  0  0  0  0  0  0  0  0  0
  -20.8100  -28.0460   22.9630 C   0  0  0  0  0  3  0  0  0  0  0  0
  -21.0230  -26.6460   22.3400 C   0  0  0  0  0  2  0  0  0  0  0  0
  -19.9490  -26.2730   21.3150 C   0  0  0  0  0  2  0  0  0  0  0  0
  -18.5610  -26.2920   21.9590 C   0  0  0  0  0  2  0  0  0  0  0  0
  -19.3360  -28.4340   23.1320 C   0  0  0  0  0  0  0  0  0  0  0  0
  -19.0220  -29.6600   23.7580 C   0  0  0  0  0  3  0  0  0  0  0  0
  -17.6830  -30.0550   23.9350 C   0  0  0  0  0  3  0  0  0  0  0  0
  -16.6410  -29.2200   23.4960 C   0  0  0  0  0  3  0  0  0  0  0  0
  -16.9390  -27.9960   22.8720 C   0  0  0  0  0  3  0  0  0  0  0  0
  -26.0530  -32.3250   23.6310 C   0  0  0  0  0  3  0  0  0  0  0  0
  -26.6800  -31.4640   24.7960 C   0  0  1  0  0  0  0  0  0  0  0  0
  -25.6770  -31.1180   25.9210 C   0  0  0  0  0  1  0  0  0  0  0  0
  -27.2470  -30.1360   24.2440 C   0  0  0  0  0  1  0  0  0  0  0  0
  -27.8680  -32.2230   25.4300 C   0  0  0  0  0  1  0  0  0  0  0  0
  -25.7510  -33.6860   24.0930 N   0  0  0  0  0  0  0  0  0  0  0  0
  -26.0310  -34.8010   23.4060 C   0  0  0  0  0  0  0  0  0  0  0  0
  -26.6460  -34.7930   22.3350 O   0  0  0  0  0  0  0  0  0  0  0  0
  -25.2040  -33.7680   24.9370 H   0  0  0  0  0  0  0  0  0  0  0  0
  -24.2730  -36.5940   23.2880 C   0  0  0  0  0  1  0  0  0  0  0  0
  -25.5570  -36.1410   24.0010 C   0  0  0  0  0  3  0  0  0  0  0  0
  -27.7230  -36.9780   24.7980 C   0  0  0  0  0  1  0  0  0  0  0  0
  -26.5750  -37.2120   23.9270 N   0  0  0  0  0  0  0  0  0  0  0  0
  -26.1690  -38.1110   24.1730 H   0  0  0  0  0  0  0  0  0  0  0  0
  -29.5270  -22.6380   21.2190 C   0  0  0  0  0  2  0  0  0  0  0  0
  -28.4820  -23.4030   23.4070 C   0  0  0  0  0  1  0  0  0  0  0  0
  -30.8530  -22.5430   23.3710 C   0  0  0  0  0  1  0  0  0  0  0  0
  -29.7780  -23.3060   22.5840 C   0  0  0  0  0  3  0  0  0  0  0  0
  1  2  1  0
  1 90  1  0
  2  3  1  0
  4  5  1  0
  4  3  1  0
  5  6  1  0
  6  7  1  0
  8  7  1  0
  8 17  1  0
  9 17  1  0
 10 15  1  0
 11 12  1  0
 11 10  1  0
 13 12  1  0
 13 22  1  0
 13 14  1  0
 15  9  1  0
 15 14  1  0
 16  9  2  0
 17 18  1  0
 19 20  2  0
 20 39  1  0
 21 20  1  0
 21 24  1  0
 22 23  1  0
 22 19  1  0
 23 21  2  0
 24 25  1  0
 25 26  2  0
 27 30  1  0
 27 26  1  0
 28 27  2  0
 29 28  1  0
 29 24  2  0
 30 31  1  0
 31 36  2  0
 31 32  1  0
 32 33  2  0
 33 34  1  0
 34 38  1  0
 35 34  2  0
 36 35  1  0
 37 36  1  0
 39 40  1  0
 40 43  1  0
 40 42  1  0
 41 39  2  0
 44 45  1  0
 44 19  1  0
 46 44  1  0
 47  1  1  0
 48 49  1  0
 48 47  1  0
 49 51  1  0
 50 61  2  0
 51 56  1  0
 52 60  1  0
 52 62  1  0
 53 59  1  0
 53 55  1  0
 54 60  1  0
 55 54  1  0
 56 55  2  0
 57 58  1  0
 57 51  2  0
 58 53  2  0
 59 52  1  0
 60 50  1  0
 62 64  2  0
 63 62  1  0
 65 63  1  0
 66 75  2  0
 66 71  1  0
 67 63  1  0
 67 71  1  0
 68 67  1  0
 69 70  1  0
 69 68  1  0
 70 66  1  0
 71 72  2  0
 72 73  1  0
 74 73  2  0
 75 74  1  0
 76 50  1  0
 76 81  1  0
 76 77  1  0
 77 80  1  1
 77 78  1  0
 79 77  1  0
 81 84  1  0
 82 86  1  0
 82 81  1  0
 83 82  2  0
 86 85  1  0
 88 86  1  0
 88 89  1  0
 88 87  1  0
 90 93  1  0
 93 92  1  0
 93 91  1  0
M  ISO  4   9 100  17 100  48 101  49 101
M  END
>  <TORSDO>  (60) 
F 27

>  <SCORE>  (60) 
-9.844

>  <name>  (60) 
59

>  <ligand_id>  (60) 
59

>  <original_smiles>  (60) 
[H]c1c([H])c([H])c2c(c1[H])C([H])([H])C([H])([H])C([H])([H])C2([H])N([H])C(=O)C1([H])N(C(=O)C([H])(N([H])C(=O)C([H])(N([H])C([H])([H])[H])C([H])([H])[H])C(C([H])([H])[H])(C([H])([H])[H])C([H])([H])[H])C([H])([H])c2c([H])c(OC([H])([H])C([H])([H])C([H])(C([H])([H])C([H])([H])C([H])([H])C([H])([H])C([H])([H])C([H])([H])C([H])([H])N([H])C(=O)N3C([H])([H])C([H])([H])C([H])([H])C([H])(n4nc(-c5c([H])c([H])c(Oc6c([H])c([H])c(F)c([H])c6F)c([H])c5[H])c(C(=O)N([H])[H])c4N([H])[H])C3([H])[H])C([H])([H])C([H])(C([H])([H])[H])C([H])([H])[H])c([H])c([H])c2C1([H])[H]

>  <smiles>  (60) 
[H]c1c([H])c([H])c2c(c1[H])C([H])([H])C([H])([H])C([H])([H])C2([H])N([H])C(=O)C1([H])N(C(=O)C([H])(N([H])C(=O)C([H])(N([H])C([H])([H])[H])C([H])([H])[H])C(C([H])([H])[H])(C([H])([H])[H])C([H])([H])[H])C([H])([H])c2c([H])c(OC([H])([H])C([H])([H])C([H])(C([H])([H])C([H])([H])C([H])([H])C([H])([H])C([H])([H])C([H])([H])C([H])([H])N([H])C(=O)N3C([H])([H])C([H])([H])C([H])([H])C([H])(n4nc(-c5c([H])c([H])c(Oc6c([H])c([H])c(F)c([H])c6F)c([H])c5[H])c(C(=O)N([H])[H])c4N([H])[H])C3([H])[H])C([H])([H])C([H])(C([H])([H])[H])C([H])([H])[H])c([H])c([H])c2C1([H])[H]

$$$$
60:0:0
     RDKit          3D

 97101  0  0  1  0  0  0  0  0999 V2000
  -21.0390  -24.6040   22.0990 C   0  0  0  0  0  3  0  0  0  0  0  0
  -19.5440  -24.2040   21.0070 C   0  0  0  0  0  1  0  0  0  0  0  0
  -23.2480  -23.9900   19.7960 C   0  0  0  0  0  2  0  0  0  0  0  0
  -22.7890  -24.4860   21.4600 C   0  0  0  0  0  0  0  0  0  0  0  0
  -20.1910  -23.5010   18.5960 C   0  0  0  0  0  1  0  0  0  0  0  0
  -22.1580  -23.5830   18.3760 C   0  0  0  0  0  2  0  0  0  0  0  0
  -18.1150  -22.9740   16.7820 C   0  0  0  0  0  1  0  0  0  0  0  0
  -19.5610  -22.8230   17.3190 C   0  0  0  0  0  2  0  0  0  0  0  0
  -24.1020  -24.9200   22.3290 C   0  0  0  0  0  3  0  0  0  0  0  0
  -25.6560  -24.9930   21.7110 C   0  0  0  0  0  2  0  0  0  0  0  0
  -27.0430  -24.4550   22.4680 C   0  0  0  0  0  3  0  0  0  0  0  0
  -28.5050  -24.2320   21.7050 C   0  0  0  0  0  3  0  0  0  0  0  0
  -29.7780  -23.3060   22.2540 C   0  0  0  0  0  2  0  0  0  0  0  0
  -30.6830  -22.2670   21.3250 C   0  0  0  0  0  2  0  0  0  0  0  0
  -32.2650  -21.8310   21.5910 C   0  0  0  0  0  2  0  0  0  0  0  0
  -33.9680  -19.6870   21.0410 C   0  0  0  0  0  0  0  0  0  0  0  0
  -34.6390  -17.5390   19.8710 C   0  0  0  0  0  2  0  0  0  0  0  0
  -34.0350  -17.5410   18.4420 C   0  0  0  0  0  2  0  0  0  0  0  0
  -32.5420  -17.1430   18.4450 C   0  0  0  0  0  2  0  0  0  0  0  0
  -31.7610  -17.8760   19.5620 C   0  0  0  0  0  3  0  0  0  0  0  0
  -32.4760  -17.7130   20.9160 C   0  0  0  0  0  2  0  0  0  0  0  0
  -33.7710  -18.3630   20.7480 N   0  0  0  0  0  0  0  0  0  0  0  0
  -35.1220  -20.1470   20.9900 O   0  0  0  0  0  0  0  0  0  0  0  0
  -32.7680  -20.4050   21.2450 N   0  0  0  0  0  0  0  0  0  0  0  0
  -32.0000  -19.7520   21.2110 H   0  0  0  0  0  0  0  0  0  0  0  0
  -29.2290  -18.2240   19.5880 C   0  0  0  0  0  0  0  0  0  0  0  0
  -28.1910  -17.3440   19.6910 C   0  0  0  0  0  0  0  0  0  0  0  0
  -28.7870  -16.0510   19.8120 C   0  0  0  0  0  0  0  0  0  0  0  0
  -30.3790  -17.4570   19.6550 N   0  0  0  0  0  0  0  0  0  0  0  0
  -30.1070  -16.1480   19.8520 N   0  0  0  0  0  0  0  0  0  0  0  0
  -28.1830  -14.7170   19.8260 C   0  0  0  0  0  0  0  0  0  0  0  0
  -28.5040  -13.7740   20.8260 C   0  0  0  0  0  3  0  0  0  0  0  0
  -27.8960  -12.5010   20.8230 C   0  0  0  0  0  3  0  0  0  0  0  0
  -26.9560  -12.1660   19.8200 C   0  0  0  0  0  0  0  0  0  0  0  0
  -26.6620  -13.1030   18.8130 C   0  0  0  0  0  3  0  0  0  0  0  0
  -27.2720  -14.3660   18.8130 C   0  0  0  0  0  3  0  0  0  0  0  0
  -26.3370  -10.9440   19.7240 O   0  0  0  0  0  0  0  0  0  0  0  0
  -25.8530  -10.2960   20.8300 C   0  0  0  0  0  0  0  0  0  0  0  0
  -24.7490  -10.7890   21.5590 C   0  0  0  0  0  3  0  0  0  0  0  0
  -24.2410  -10.0530   22.6470 C   0  0  0  0  0  3  0  0  0  0  0  0
  -24.8280   -8.8240   23.0030 C   0  0  0  0  0  0  0  0  0  0  0  0
  -25.9250   -8.3310   22.2760 C   0  0  0  0  0  3  0  0  0  0  0  0
  -26.4330   -9.0630   21.1890 C   0  0  0  0  0  0  0  0  0  0  0  0
  -27.4780   -8.5740   20.4770 F   0  0  0  0  0  0  0  0  0  0  0  0
  -24.3360   -8.1120   24.0430 F   0  0  0  0  0  0  0  0  0  0  0  0
  -26.7310  -17.6690   19.5770 C   0  0  0  0  0  0  0  0  0  0  0  0
  -25.8690  -16.7650   20.0300 N   0  0  0  0  0  0  0  0  0  0  0  0
  -26.3480  -18.7470   19.1240 O   0  0  0  0  0  0  0  0  0  0  0  0
  -26.1870  -15.8920   20.4230 H   0  0  0  0  0  0  0  0  0  0  0  0
  -24.8770  -16.9530   19.9870 H   0  0  0  0  0  0  0  0  0  0  0  0
  -29.2910  -19.6010   19.4250 N   0  0  0  0  0  0  0  0  0  0  0  0
  -28.4540  -20.1610   19.3160 H   0  0  0  0  0  0  0  0  0  0  0  0
  -30.1440  -20.1320   19.3160 H   0  0  0  0  0  0  0  0  0  0  0  0
  -22.9650  -24.2080   17.1900 C   0  0  0  0  0  2  0  0  0  0  0  0
  -24.3220  -25.1830   17.3840 C   0  0  0  0  0  2  0  0  0  0  0  0
  -24.6870  -26.1830   18.6820 C   0  0  0  0  0  2  0  0  0  0  0  0
  -26.0680  -26.7270   19.1480 O   0  0  0  0  0  0  0  0  0  0  0  0
  -24.6730  -32.0730   23.1010 C   0  0  0  0  0  0  0  0  0  0  0  0
  -26.1000  -28.0450   18.8790 C   0  0  0  0  0  0  0  0  0  0  0  0
  -23.1260  -31.1100   21.4640 C   0  0  0  0  0  3  0  0  0  0  0  0
  -24.1820  -29.9290   19.4530 C   0  0  0  0  0  0  0  0  0  0  0  0
  -25.6320  -31.1860   20.9990 C   0  0  0  0  0  2  0  0  0  0  0  0
  -25.4210  -30.0100   20.0910 C   0  0  0  0  0  0  0  0  0  0  0  0
  -26.3960  -29.0140   19.8660 C   0  0  0  0  0  3  0  0  0  0  0  0
  -25.1240  -28.2960   17.9420 C   0  0  0  0  0  3  0  0  0  0  0  0
  -24.0750  -29.1450   18.3080 C   0  0  0  0  0  3  0  0  0  0  0  0
  -23.0580  -30.8120   19.9440 C   0  0  0  0  0  2  0  0  0  0  0  0
  -24.4980  -31.4810   21.8930 N   0  0  0  0  0  0  0  0  0  0  0  0
  -23.7120  -32.3560   23.8280 O   0  0  0  0  0  0  0  0  0  0  0  0
  -22.6230  -29.9370   22.3260 C   0  0  0  0  0  0  0  0  0  0  0  0
  -21.4800  -30.1160   22.9350 N   0  0  0  0  0  0  0  0  0  0  0  0
  -23.2780  -28.9110   22.5020 O   0  0  0  0  0  0  0  0  0  0  0  0
  -20.9730  -30.9760   22.7860 H   0  0  0  0  0  0  0  0  0  0  0  0
  -17.8860  -28.7470   22.8820 C   0  0  0  0  0  0  0  0  0  0  0  0
  -20.8060  -29.1170   23.7430 C   0  0  0  0  0  2  0  0  0  0  0  0
  -21.4020  -27.2340   23.2790 C   0  0  0  0  0 15  0  0  0  0  0  0
  -19.7630  -26.0320   22.2530 C   0  0  0  0  0  1  0  0  0  0  0  0
  -17.9920  -27.0470   22.1580 C   0  0  0  0  0  1  0  0  0  0  0  0
  -19.0790  -29.5990   23.5310 C   0  0  0  0  0  0  0  0  0  0  0  0
  -18.7600  -30.8290   24.1470 C   0  0  0  0  0  3  0  0  0  0  0  0
  -17.4370  -31.2790   24.2690 C   0  0  0  0  0  3  0  0  0  0  0  0
  -16.3720  -30.4980   23.7870 C   0  0  0  0  0  3  0  0  0  0  0  0
  -16.5910  -29.2700   23.1210 C   0  0  0  0  0  3  0  0  0  0  0  0
  -26.0980  -32.4390   23.6000 C   0  0  0  0  0  3  0  0  0  0  0  0
  -26.7820  -31.2840   24.4250 C   0  0  1  0  0  0  0  0  0  0  0  0
  -25.8940  -30.7340   25.5650 C   0  0  0  0  0  1  0  0  0  0  0  0
  -27.1700  -30.0940   23.5150 C   0  0  0  0  0  1  0  0  0  0  0  0
  -28.0950  -31.8100   25.0480 C   0  0  0  0  0  1  0  0  0  0  0  0
  -25.9650  -33.6580   24.4020 N   0  0  0  0  0  0  0  0  0  0  0  0
  -26.2680  -34.8860   23.9620 C   0  0  0  0  0  0  0  0  0  0  0  0
  -26.7730  -35.0990   22.8560 O   0  0  0  0  0  0  0  0  0  0  0  0
  -25.5080  -33.5690   25.2990 H   0  0  0  0  0  0  0  0  0  0  0  0
  -24.7190  -36.8150   24.4140 C   0  0  0  0  0  1  0  0  0  0  0  0
  -25.9650  -36.0640   24.9060 C   0  0  0  0  0  3  0  0  0  0  0  0
  -28.2400  -36.4370   25.7470 C   0  0  0  0  0  1  0  0  0  0  0  0
  -27.0930  -37.0070   25.0450 N   0  0  0  0  0  0  0  0  0  0  0  0
  -26.8010  -37.8420   25.5430 H   0  0  0  0  0  0  0  0  0  0  0  0
  1 77  1  0
  2  1  1  0
  3  4  1  0
  4  1  1  0
  4  9  2  0
  6  3  1  0
  7  8  1  0
  8  5  1  0
 10  9  1  0
 10 11  1  0
 12 13  1  0
 12 11  2  0
 14 15  1  0
 14 13  1  0
 16 24  1  0
 17 22  1  0
 18 19  1  0
 18 17  1  0
 20 19  1  0
 20 29  1  0
 20 21  1  0
 22 21  1  0
 22 16  1  0
 23 16  2  0
 24 15  1  0
 25 24  1  0
 26 29  1  0
 26 27  2  0
 27 28  1  0
 28 31  1  0
 28 30  2  0
 29 30  1  0
 31 32  1  0
 33 32  2  0
 34 33  1  0
 35 34  2  0
 36 35  1  0
 36 31  2  0
 37 34  1  0
 37 38  1  0
 38 43  2  0
 38 39  1  0
 39 40  2  0
 40 41  1  0
 41 45  1  0
 42 41  2  0
 43 42  1  0
 44 43  1  0
 46 27  1  0
 46 47  1  0
 47 49  1  0
 48 46  2  0
 50 47  1  0
 51 26  1  0
 52 51  1  0
 53 51  1  0
 54 55  1  0
 54  6  1  0
 55 56  1  0
 56 57  1  0
 58 69  2  0
 59 57  1  0
 59 64  1  0
 60 68  1  0
 60 70  1  0
 61 67  1  0
 61 63  1  0
 62 68  1  0
 63 62  1  0
 64 63  2  0
 65 66  1  0
 65 59  2  0
 66 61  2  0
 67 60  1  0
 68 58  1  0
 70 72  2  0
 70 71  1  0
 71 75  1  0
 73 71  1  0
 74 83  2  0
 74 79  1  0
 78 74  1  0
 79 75  1  0
 79 80  2  0
 80 81  1  0
 82 81  2  0
 83 82  1  0
 84 58  1  0
 84 89  1  0
 84 85  1  0
 85 88  1  1
 85 86  1  0
 87 85  1  0
 89 92  1  0
 90 89  1  0
 90 94  1  0
 91 90  2  0
 94 93  1  0
 94 96  1  0
 96 97  1  0
 96 95  1  0
M  ISO  4  16 100  24 100  56 101  57 101
M  END
>  <TORSDO>  (61) 
F 27

>  <SCORE>  (61) 
-4.736

>  <name>  (61) 
60

>  <ligand_id>  (61) 
60

>  <original_smiles>  (61) 
[H]c1c([H])c([H])c2c(c1[H])C([H])([H])C([H])([H])C([H])([H])C2([H])N([H])C(=O)C1([H])N(C(=O)C([H])(N([H])C(=O)C([H])(N([H])C([H])([H])[H])C([H])([H])[H])C(C([H])([H])[H])(C([H])([H])[H])C([H])([H])[H])C([H])([H])c2c([H])c(OC([H])([H])C([H])([H])C([H])([H])c3c([H])c(C([H])([H])C([H])([H])C([H])([H])C([H])([H])C([H])([H])C([H])([H])C([H])([H])N([H])C(=O)N4C([H])([H])C([H])([H])C([H])([H])C([H])(n5nc(-c6c([H])c([H])c(Oc7c([H])c([H])c(F)c([H])c7F)c([H])c6[H])c(C(=O)N([H])[H])c5N([H])[H])C4([H])[H])c([H])c([H])c3C([H])([H])C([H])([H])[H])c([H])c([H])c2C1([H])[H]

>  <smiles>  (61) 
[H]c1c([H])c([H])c2c(c1[H])C([H])([H])C([H])([H])C([H])([H])C2([H])N([H])C(=O)C1([H])N(C(=O)C([H])(N([H])C(=O)C([H])(N([H])C([H])([H])[H])C([H])([H])[H])C(C([H])([H])[H])(C([H])([H])[H])C([H])([H])[H])C([H])([H])c2c([H])c(OC([H])([H])C([H])([H])C([H])([H])c3c([H])c(C([H])([H])C([H])([H])C([H])([H])C([H])([H])C([H])([H])C([H])([H])C([H])([H])N([H])C(=O)N4C([H])([H])C([H])([H])C([H])([H])C([H])(n5nc(-c6c([H])c([H])c(Oc7c([H])c([H])c(F)c([H])c7F)c([H])c6[H])c(C(=O)N([H])[H])c5N([H])[H])C4([H])[H])c([H])c([H])c3C([H])([H])C([H])([H])[H])c([H])c([H])c2C1([H])[H]

$$$$
61:0:0
     RDKit          3D

 94101  0  0  1  0  0  0  0  0999 V2000
  -28.6650  -22.5720   22.7500 C   0  0  0  0  0  2  0  0  0  0  0  0
  -27.6480  -22.3790   21.6100 C   0  0  0  0  0  2  0  0  0  0  0  0
  -25.5500  -23.6420   21.6730 C   0  0  0  0  0  1  0  0  0  0  0  0
  -26.9760  -23.6590   21.2560 N   0  0  2  0  0  4  0  0  0  0  0  0
  -27.4400  -24.3780   21.7920 H   0  0  0  0  0  0  0  0  0  0  0  0
  -27.1450  -24.0280   19.8250 C   0  0  0  0  0  2  0  0  0  0  0  0
  -27.7790  -25.4180   19.6210 C   0  0  0  0  0  2  0  0  0  0  0  0
  -27.0770  -26.0780   18.5770 O   0  0  0  0  0  0  0  0  0  0  0  0
  -25.1470  -30.6600   23.6470 C   0  0  0  0  0  0  0  0  0  0  0  0
  -26.1520  -26.9770   19.0270 C   0  0  0  0  0  0  0  0  0  0  0  0
  -23.4440  -30.1890   21.9200 C   0  0  0  0  0  3  0  0  0  0  0  0
  -24.2620  -28.8750   19.8890 C   0  0  0  0  0  0  0  0  0  0  0  0
  -25.9360  -29.9790   21.3900 C   0  0  0  0  0  2  0  0  0  0  0  0
  -25.5690  -28.9050   20.3940 C   0  0  0  0  0  0  0  0  0  0  0  0
  -26.5160  -27.9570   19.9720 C   0  0  0  0  0  3  0  0  0  0  0  0
  -24.8340  -26.9460   18.5260 C   0  0  0  0  0  3  0  0  0  0  0  0
  -23.8820  -27.8860   18.9620 C   0  0  0  0  0  3  0  0  0  0  0  0
  -23.3150  -29.9430   20.3920 C   0  0  0  0  0  2  0  0  0  0  0  0
  -24.8700  -30.2640   22.3760 N   0  0  0  0  0  0  0  0  0  0  0  0
  -24.2440  -31.0000   24.4240 O   0  0  0  0  0  0  0  0  0  0  0  0
  -22.6250  -29.1050   22.6550 C   0  0  0  0  0  0  0  0  0  0  0  0
  -21.2910  -29.1700   22.5160 N   0  0  0  0  0  0  0  0  0  0  0  0
  -23.1850  -28.2160   23.3010 O   0  0  0  0  0  0  0  0  0  0  0  0
  -20.9020  -29.9310   21.9760 H   0  0  0  0  0  0  0  0  0  0  0  0
  -17.7840  -28.3240   22.6050 C   0  0  0  0  0  0  0  0  0  0  0  0
  -20.3230  -28.2360   23.0840 C   0  0  0  0  0  3  0  0  0  0  0  0
  -20.3210  -26.8960   22.3090 C   0  0  0  0  0  2  0  0  0  0  0  0
  -19.2770  -26.8490   21.1910 C   0  0  0  0  0  2  0  0  0  0  0  0
  -17.8690  -27.0710   21.7560 C   0  0  0  0  0  2  0  0  0  0  0  0
  -18.9380  -28.8800   23.2170 C   0  0  0  0  0  0  0  0  0  0  0  0
  -18.8090  -30.0680   23.9690 C   0  0  0  0  0  3  0  0  0  0  0  0
  -17.5560  -30.6900   24.1210 C   0  0  0  0  0  3  0  0  0  0  0  0
  -16.4150  -30.1250   23.5280 C   0  0  0  0  0  3  0  0  0  0  0  0
  -16.5290  -28.9430   22.7730 C   0  0  0  0  0  3  0  0  0  0  0  0
  -26.6130  -30.7290   24.1810 C   0  0  0  0  0  3  0  0  0  0  0  0
  -27.0330  -29.4530   25.0090 C   0  0  1  0  0  0  0  0  0  0  0  0
  -26.0340  -29.0840   26.1280 C   0  0  0  0  0  1  0  0  0  0  0  0
  -27.1760  -28.2240   24.0810 C   0  0  0  0  0  1  0  0  0  0  0  0
  -28.4180  -29.6800   25.6580 C   0  0  0  0  0  1  0  0  0  0  0  0
  -26.7300  -31.9410   25.0010 N   0  0  0  0  0  0  0  0  0  0  0  0
  -27.4030  -33.0440   24.6400 C   0  0  0  0  0  0  0  0  0  0  0  0
  -28.0590  -33.1150   23.5980 O   0  0  0  0  0  0  0  0  0  0  0  0
  -26.1730  -31.9710   25.8410 H   0  0  0  0  0  0  0  0  0  0  0  0
  -26.3710  -35.3080   25.0170 C   0  0  0  0  0  1  0  0  0  0  0  0
  -27.3340  -34.2570   25.5890 C   0  0  0  0  0  3  0  0  0  0  0  0
  -29.5490  -34.0330   26.6270 C   0  0  0  0  0  1  0  0  0  0  0  0
  -28.6510  -34.8790   25.8430 N   0  0  0  0  0  0  0  0  0  0  0  0
  -28.5440  -35.7660   26.3270 H   0  0  0  0  0  0  0  0  0  0  0  0
  -29.5720  -21.3490   22.9920 C   0  0  0  0  0  2  0  0  0  0  0  0
  -31.0580  -21.7000   22.8060 C   0  0  0  0  0  2  0  0  0  0  0  0
  -31.9960  -20.5000   22.9950 C   0  0  0  0  0  2  0  0  0  0  0  0
  -33.2740  -20.5980   22.1400 C   0  0  0  0  0  2  0  0  0  0  0  0
  -33.0960  -20.1930   20.6640 C   0  0  0  0  0  2  0  0  0  0  0  0
  -32.8170  -18.6900   20.4340 C   0  0  0  0  0  2  0  0  0  0  0  0
  -31.5610  -18.4090   19.5800 C   0  0  0  0  0  2  0  0  0  0  0  0
  -31.7770  -17.3360   18.4940 C   0  0  0  0  0  2  0  0  0  0  0  0
  -31.5310  -14.8600   18.3490 C   0  0  0  0  0  0  0  0  0  0  0  0
  -31.5550  -12.4350   18.8050 C   0  0  0  0  0  2  0  0  0  0  0  0
  -30.5830  -11.6390   17.9190 C   0  0  0  0  0  2  0  0  0  0  0  0
  -29.1820  -11.6030   18.5460 C   0  0  0  0  0  2  0  0  0  0  0  0
  -28.6820  -13.0120   18.9540 C   0  0  0  0  0  3  0  0  0  0  0  0
  -29.7520  -13.7770   19.7670 C   0  0  0  0  0  2  0  0  0  0  0  0
  -31.0180  -13.7900   19.0060 N   0  0  0  0  0  0  0  0  0  0  0  0
  -32.3540  -14.7690   17.4310 O   0  0  0  0  0  0  0  0  0  0  0  0
  -31.2150  -16.0440   18.8880 N   0  0  0  0  0  0  0  0  0  0  0  0
  -30.6200  -16.0200   19.7040 H   0  0  0  0  0  0  0  0  0  0  0  0
  -26.6480  -13.9450   20.2340 C   0  0  0  0  0  0  0  0  0  0  0  0
  -25.5160  -13.3420   20.7170 C   0  0  0  0  0  0  0  0  0  0  0  0
  -25.6470  -11.9530   20.4120 C   0  0  0  0  0  0  0  0  0  0  0  0
  -27.4100  -12.9310   19.6720 N   0  0  0  0  0  0  0  0  0  0  0  0
  -26.8190  -11.7180   19.8330 N   0  0  0  0  0  0  0  0  0  0  0  0
  -24.7020  -10.8420   20.5870 C   0  0  0  0  0  0  0  0  0  0  0  0
  -25.0170   -9.7230   21.3900 C   0  0  0  0  0  3  0  0  0  0  0  0
  -24.0840   -8.6780   21.5570 C   0  0  0  0  0  3  0  0  0  0  0  0
  -22.8220   -8.7440   20.9210 C   0  0  0  0  0  0  0  0  0  0  0  0
  -22.5230   -9.8490   20.1040 C   0  0  0  0  0  3  0  0  0  0  0  0
  -23.4540  -10.8860   19.9340 C   0  0  0  0  0  3  0  0  0  0  0  0
  -21.8650   -7.7640   21.0040 O   0  0  0  0  0  0  0  0  0  0  0  0
  -21.6320   -7.0810   22.1710 C   0  0  0  0  0  0  0  0  0  0  0  0
  -21.3140   -7.7500   23.3740 C   0  0  0  0  0  3  0  0  0  0  0  0
  -21.0140   -7.0090   24.5340 C   0  0  0  0  0  3  0  0  0  0  0  0
  -21.0240   -5.6010   24.4940 C   0  0  0  0  0  0  0  0  0  0  0  0
  -21.3330   -4.9340   23.2960 C   0  0  0  0  0  3  0  0  0  0  0  0
  -21.6350   -5.6720   22.1370 C   0  0  0  0  0  0  0  0  0  0  0  0
  -21.9120   -5.0230   20.9810 F   0  0  0  0  0  0  0  0  0  0  0  0
  -20.7280   -4.8880   25.6060 F   0  0  0  0  0  0  0  0  0  0  0  0
  -24.3360  -14.0270   21.3440 C   0  0  0  0  0  0  0  0  0  0  0  0
  -23.6730  -13.3660   22.2860 N   0  0  0  0  0  0  0  0  0  0  0  0
  -24.0270  -15.1780   21.0380 O   0  0  0  0  0  0  0  0  0  0  0  0
  -23.9380  -12.4310   22.5530 H   0  0  0  0  0  0  0  0  0  0  0  0
  -22.8840  -13.8020   22.7440 H   0  0  0  0  0  0  0  0  0  0  0  0
  -27.0810  -15.2680   20.2030 N   0  0  0  0  0  0  0  0  0  0  0  0
  -26.5190  -16.0290   20.5710 H   0  0  0  0  0  0  0  0  0  0  0  0
  -27.9480  -15.5780   19.7820 H   0  0  0  0  0  0  0  0  0  0  0  0
  1 49  1  0
  2  1  1  0
  4  2  1  0
  4  3  1  0
  4  5  1  1
  6  4  1  0
  7  6  1  0
  8 10  1  0
  8  7  1  0
  9 20  2  0
 10 15  1  0
 11 19  1  0
 11 21  1  0
 12 18  1  0
 12 14  1  0
 13 19  1  0
 14 13  1  0
 15 14  2  0
 16 17  1  0
 16 10  2  0
 17 12  2  0
 18 11  1  0
 19  9  1  0
 21 23  2  0
 22 21  1  0
 24 22  1  0
 25 34  2  0
 25 30  1  0
 26 22  1  0
 26 30  1  0
 27 26  1  0
 28 29  1  0
 28 27  1  0
 29 25  1  0
 30 31  2  0
 31 32  1  0
 33 32  2  0
 34 33  1  0
 35  9  1  0
 35 40  1  0
 35 36  1  0
 36 39  1  1
 36 37  1  0
 38 36  1  0
 40 43  1  0
 41 40  1  0
 41 45  1  0
 42 41  2  0
 45 44  1  0
 45 47  1  0
 47 48  1  0
 47 46  1  0
 50 49  1  0
 50 51  1  0
 52 51  1  0
 53 52  1  0
 54 53  1  0
 55 54  1  0
 56 65  1  0
 56 55  1  0
 57 65  1  0
 57 63  1  0
 58 63  1  0
 59 60  1  0
 59 58  1  0
 61 60  1  0
 61 70  1  0
 61 62  1  0
 63 62  1  0
 64 57  2  0
 65 66  1  0
 67 68  2  0
 68 87  1  0
 69 72  1  0
 69 68  1  0
 70 71  1  0
 70 67  1  0
 71 69  2  0
 72 73  1  0
 73 74  2  0
 75 78  1  0
 75 74  1  0
 76 75  2  0
 77 76  1  0
 77 72  2  0
 78 79  1  0
 79 80  1  0
 80 81  2  0
 82 81  1  0
 82 86  1  0
 83 82  2  0
 84 79  2  0
 84 83  1  0
 85 84  1  0
 87 88  1  0
 88 90  1  0
 88 91  1  0
 89 87  2  0
 92 67  1  0
 92 93  1  0
 94 92  1  0
M  ISO  4   7 101   8 101  57 100  65 100
M  END
>  <TORSDO>  (62) 
F 28

>  <SCORE>  (62) 
-8.859

>  <name>  (62) 
61

>  <ligand_id>  (62) 
61

>  <original_smiles>  (62) 
[H]c1c([H])c([H])c2c(c1[H])C([H])([H])C([H])([H])C([H])([H])C2([H])N([H])C(=O)C1([H])N(C(=O)C([H])(N([H])C(=O)C([H])(N([H])C([H])([H])[H])C([H])([H])[H])C(C([H])([H])[H])(C([H])([H])[H])C([H])([H])[H])C([H])([H])c2c([H])c(OC([H])([H])C([H])([H])[N+]([H])(C([H])([H])[H])C([H])([H])C([H])([H])C([H])([H])C([H])([H])C([H])([H])C([H])([H])C([H])([H])C([H])([H])C([H])([H])C([H])([H])N([H])C(=O)N3C([H])([H])C([H])([H])C([H])([H])C([H])(n4nc(-c5c([H])c([H])c(Oc6c([H])c([H])c(F)c([H])c6F)c([H])c5[H])c(C(=O)N([H])[H])c4N([H])[H])C3([H])[H])c([H])c([H])c2C1([H])[H]

>  <smiles>  (62) 
[H]c1c([H])c([H])c2c(c1[H])C([H])([H])C([H])([H])C([H])([H])C2([H])N([H])C(=O)C1([H])N(C(=O)C([H])(N([H])C(=O)C([H])(N([H])C([H])([H])[H])C([H])([H])[H])C(C([H])([H])[H])(C([H])([H])[H])C([H])([H])[H])C([H])([H])c2c([H])c(OC([H])([H])C([H])([H])[N+]([H])(C([H])([H])[H])C([H])([H])C([H])([H])C([H])([H])C([H])([H])C([H])([H])C([H])([H])C([H])([H])C([H])([H])C([H])([H])C([H])([H])N([H])C(=O)N3C([H])([H])C([H])([H])C([H])([H])C([H])(n4nc(-c5c([H])c([H])c(Oc6c([H])c([H])c(F)c([H])c6F)c([H])c5[H])c(C(=O)N([H])[H])c4N([H])[H])C3([H])[H])c([H])c([H])c2C1([H])[H]

$$$$
62:0:0
     RDKit          3D

 96104  0  0  1  0  0  0  0  0999 V2000
  -29.9300  -22.7580   20.0300 C   0  0  0  0  0  3  0  0  0  0  0  0
  -29.3390  -21.4860   20.0510 C   0  0  0  0  0  3  0  0  0  0  0  0
  -29.4720  -22.9160   17.6510 C   0  0  0  0  0  3  0  0  0  0  0  0
  -29.8720  -23.5230   18.8530 C   0  0  0  0  0  0  0  0  0  0  0  0
  -28.7160  -20.9500   18.8980 C   0  0  0  0  0  0  0  0  0  0  0  0
  -28.9060  -21.6280   17.6520 C   0  0  0  0  0  0  0  0  0  0  0  0
  -28.4570  -21.0920   16.3010 C   0  0  0  0  0  1  0  0  0  0  0  0
  -30.0260  -25.0230   18.9190 C   0  0  0  0  0  2  0  0  0  0  0  0
  -29.0160  -25.5480   19.9640 C   0  0  0  0  0  2  0  0  0  0  0  0
  -28.9550  -26.9680   20.0330 O   0  0  0  0  0  0  0  0  0  0  0  0
  -24.7530  -31.7640   23.1710 C   0  0  0  0  0  0  0  0  0  0  0  0
  -27.7170  -27.5660   20.0420 C   0  0  0  0  0  0  0  0  0  0  0  0
  -23.6670  -30.3510   21.4590 C   0  0  0  0  0  3  0  0  0  0  0  0
  -25.2340  -28.9260   20.0370 C   0  0  0  0  0  0  0  0  0  0  0  0
  -26.1770  -30.8330   21.3460 C   0  0  0  0  0  2  0  0  0  0  0  0
  -26.3460  -29.4910   20.6710 C   0  0  0  0  0  0  0  0  0  0  0  0
  -27.5880  -28.8240   20.6670 C   0  0  0  0  0  3  0  0  0  0  0  0
  -26.5870  -27.0020   19.4020 C   0  0  0  0  0  3  0  0  0  0  0  0
  -25.3480  -27.6750   19.4060 C   0  0  0  0  0  3  0  0  0  0  0  0
  -23.9480  -29.7270   20.0680 C   0  0  0  0  0  2  0  0  0  0  0  0
  -24.8820  -30.9970   22.0510 N   0  0  0  0  0  0  0  0  0  0  0  0
  -23.6440  -31.9740   23.6830 O   0  0  0  0  0  0  0  0  0  0  0  0
  -23.0320  -29.2750   22.3650 C   0  0  0  0  0  0  0  0  0  0  0  0
  -21.7100  -29.0880   22.2320 N   0  0  0  0  0  0  0  0  0  0  0  0
  -23.7250  -28.6110   23.1400 O   0  0  0  0  0  0  0  0  0  0  0  0
  -21.2180  -29.6680   21.5640 H   0  0  0  0  0  0  0  0  0  0  0  0
  -18.3340  -27.8890   22.7430 C   0  0  0  0  0  0  0  0  0  0  0  0
  -20.9050  -28.0990   22.9460 C   0  0  0  0  0  3  0  0  0  0  0  0
  -20.9800  -26.7160   22.2510 C   0  0  0  0  0  2  0  0  0  0  0  0
  -19.8230  -26.4480   21.2800 C   0  0  0  0  0  2  0  0  0  0  0  0
  -18.4650  -26.5840   21.9750 C   0  0  0  0  0  2  0  0  0  0  0  0
  -19.4770  -28.6030   23.1910 C   0  0  0  0  0  0  0  0  0  0  0  0
  -19.2960  -29.8250   23.8760 C   0  0  0  0  0  3  0  0  0  0  0  0
  -18.0050  -30.3310   24.1150 C   0  0  0  0  0  3  0  0  0  0  0  0
  -16.8760  -29.6110   23.6780 C   0  0  0  0  0  3  0  0  0  0  0  0
  -17.0420  -28.3890   23.0060 C   0  0  0  0  0  3  0  0  0  0  0  0
  -25.9880  -32.4350   23.8480 C   0  0  0  0  0  3  0  0  0  0  0  0
  -25.6190  -33.8190   24.1710 N   0  0  0  0  0  0  0  0  0  0  0  0
  -25.9490  -34.8850   23.4330 C   0  0  0  0  0  0  0  0  0  0  0  0
  -26.6680  -34.8120   22.4330 O   0  0  0  0  0  0  0  0  0  0  0  0
  -24.9870  -33.9500   24.9470 H   0  0  0  0  0  0  0  0  0  0  0  0
  -24.1730  -36.6090   23.0040 C   0  0  0  0  0  1  0  0  0  0  0  0
  -25.3930  -36.2510   23.8710 C   0  0  0  0  0  3  0  0  0  0  0  0
  -27.4600  -37.2070   24.7880 C   0  0  0  0  0  1  0  0  0  0  0  0
  -26.3890  -37.3430   23.8030 N   0  0  0  0  0  0  0  0  0  0  0  0
  -25.9470  -38.2500   23.9320 H   0  0  0  0  0  0  0  0  0  0  0  0
  -26.4770  -31.6700   25.1380 C   0  0  1  0  0  0  0  0  0  0  0  0
  -25.3480  -31.3880   26.1620 C   0  0  0  0  0  1  0  0  0  0  0  0
  -27.1240  -30.3160   24.7590 C   0  0  0  0  0  1  0  0  0  0  0  0
  -27.5730  -32.5000   25.8500 C   0  0  0  0  0  1  0  0  0  0  0  0
  -27.7400  -19.7790   19.1340 C   0  0  0  0  0  3  0  0  0  0  0  0
  -28.3940  -18.3830   19.1210 C   0  0  0  0  0  0  0  0  0  0  0  0
  -28.7510  -17.8600   20.3070 N   0  0  0  0  0  0  0  0  0  0  0  0
  -28.4980  -17.7620   18.0670 O   0  0  0  0  0  0  0  0  0  0  0  0
  -28.5730  -18.4270   21.1270 H   0  0  0  0  0  0  0  0  0  0  0  0
  -29.2180  -16.4900   20.5600 C   0  0  0  0  0  2  0  0  0  0  0  0
  -30.2240  -15.9940   19.5070 C   0  0  0  0  0  2  0  0  0  0  0  0
  -31.0750  -14.7570   19.8340 C   0  0  0  0  0  0  0  0  0  0  0  0
  -30.8830  -12.3790   19.2940 C   0  0  0  0  0  2  0  0  0  0  0  0
  -29.9650  -12.2720   18.0530 C   0  0  0  0  0  2  0  0  0  0  0  0
  -28.4840  -12.1770   18.4770 C   0  0  0  0  0  2  0  0  0  0  0  0
  -28.0810  -13.2850   19.4830 C   0  0  0  0  0  3  0  0  0  0  0  0
  -29.1250  -13.3600   20.6240 C   0  0  0  0  0  2  0  0  0  0  0  0
  -30.4590  -13.5650   20.0460 N   0  0  0  0  0  0  0  0  0  0  0  0
  -32.2700  -14.8430   19.5450 O   0  0  0  0  0  0  0  0  0  0  0  0
  -25.7430  -14.0380   20.2590 C   0  0  0  0  0  0  0  0  0  0  0  0
  -24.6410  -13.3270   20.6470 C   0  0  0  0  0  0  0  0  0  0  0  0
  -25.0290  -11.9520   20.6170 C   0  0  0  0  0  0  0  0  0  0  0  0
  -26.7280  -13.0970   19.9970 N   0  0  0  0  0  0  0  0  0  0  0  0
  -26.3070  -11.8410   20.2840 N   0  0  0  0  0  0  0  0  0  0  0  0
  -24.2440  -10.7320   20.8310 C   0  0  0  0  0  0  0  0  0  0  0  0
  -24.6510   -9.7460   21.7560 C   0  0  0  0  0  3  0  0  0  0  0  0
  -23.8690   -8.5900   21.9590 C   0  0  0  0  0  3  0  0  0  0  0  0
  -22.6660   -8.4140   21.2350 C   0  0  0  0  0  0  0  0  0  0  0  0
  -22.2810   -9.3840   20.2940 C   0  0  0  0  0  3  0  0  0  0  0  0
  -23.0620  -10.5340   20.0910 C   0  0  0  0  0  3  0  0  0  0  0  0
  -21.8550   -7.3100   21.3440 O   0  0  0  0  0  0  0  0  0  0  0  0
  -21.8000   -6.5710   22.4950 C   0  0  0  0  0  0  0  0  0  0  0  0
  -21.4400   -7.1450   23.7340 C   0  0  0  0  0  3  0  0  0  0  0  0
  -21.3280   -6.3340   24.8790 C   0  0  0  0  0  3  0  0  0  0  0  0
  -21.5610   -4.9480   24.7890 C   0  0  0  0  0  0  0  0  0  0  0  0
  -21.9080   -4.3730   23.5550 C   0  0  0  0  0  3  0  0  0  0  0  0
  -22.0250   -5.1810   22.4100 C   0  0  0  0  0  0  0  0  0  0  0  0
  -22.3420   -4.6200   21.2200 F   0  0  0  0  0  0  0  0  0  0  0  0
  -21.4420   -4.1650   25.8870 F   0  0  0  0  0  0  0  0  0  0  0  0
  -23.2730  -13.8790   20.9340 C   0  0  0  0  0  0  0  0  0  0  0  0
  -22.5310  -13.2410   21.8290 N   0  0  0  0  0  0  0  0  0  0  0  0
  -22.8780  -14.9190   20.4030 O   0  0  0  0  0  0  0  0  0  0  0  0
  -22.8640  -12.4020   22.2820 H   0  0  0  0  0  0  0  0  0  0  0  0
  -21.6200  -13.6060   22.0670 H   0  0  0  0  0  0  0  0  0  0  0  0
  -25.9750  -15.4010   20.0810 N   0  0  0  0  0  0  0  0  0  0  0  0
  -25.2310  -16.0750   20.2300 H   0  0  0  0  0  0  0  0  0  0  0  0
  -26.8330  -15.8320   19.7590 H   0  0  0  0  0  0  0  0  0  0  0  0
  -26.4510  -19.7980   18.2890 C   0  0  0  0  0  2  0  0  0  0  0  0
  -24.5620  -21.1850   17.2630 C   0  0  0  0  0  1  0  0  0  0  0  0
  -25.8620  -21.2030   18.0750 C   0  0  0  0  0  2  0  0  0  0  0  0
  1  2  1  0
  3  6  2  0
  3  4  1  0
  4  8  1  0
  4  1  2  0
  5 51  1  0
  5  2  2  0
  6  5  1  0
  7  6  1  0
  8  9  1  0
  9 10  1  0
 10 12  1  0
 11 22  2  0
 12 17  1  0
 13 21  1  0
 13 23  1  0
 14 20  1  0
 14 16  1  0
 15 21  1  0
 16 15  1  0
 17 16  2  0
 18 19  1  0
 18 12  2  0
 19 14  2  0
 20 13  1  0
 21 11  1  0
 23 25  2  0
 24 23  1  0
 26 24  1  0
 27 36  2  0
 27 32  1  0
 28 24  1  0
 28 32  1  0
 29 28  1  0
 30 31  1  0
 30 29  1  0
 31 27  1  0
 32 33  2  0
 33 34  1  0
 35 34  2  0
 36 35  1  0
 37 11  1  0
 37 38  1  0
 37 47  1  0
 38 41  1  0
 39 43  1  0
 39 38  1  0
 40 39  2  0
 43 42  1  0
 45 43  1  0
 45 46  1  0
 45 44  1  0
 47 50  1  1
 47 48  1  0
 49 47  1  0
 51 94  1  0
 52 51  1  0
 52 53  1  0
 53 56  1  0
 53 55  1  0
 54 52  2  0
 57 58  1  0
 57 56  1  0
 58 64  1  0
 59 64  1  0
 60 61  1  0
 60 59  1  0
 62 61  1  0
 62 69  1  0
 62 63  1  0
 64 63  1  0
 65 58  2  0
 66 67  2  0
 67 86  1  0
 68 67  1  0
 68 71  1  0
 69 66  1  0
 69 70  1  0
 70 68  2  0
 71 72  1  0
 72 73  2  0
 74 77  1  0
 74 73  1  0
 75 74  2  0
 76 75  1  0
 76 71  2  0
 77 78  1  0
 78 79  1  0
 79 80  2  0
 81 80  1  0
 81 85  1  0
 82 81  2  0
 83 78  2  0
 83 82  1  0
 84 83  1  0
 86 87  1  0
 87 90  1  0
 87 89  1  0
 88 86  2  0
 91 92  1  0
 91 66  1  0
 93 91  1  0
 95 96  1  0
 96 94  1  0
M  ISO  4   9 101  10 101  57 100  58 100
M  END
>  <TORSDO>  (63) 
F 24

>  <SCORE>  (63) 
-11.695

>  <name>  (63) 
62

>  <ligand_id>  (63) 
62

>  <original_smiles>  (63) 
[H]c1c([H])c([H])c2c(c1[H])C([H])([H])C([H])([H])C([H])([H])C2([H])N([H])C(=O)C1([H])N(C(=O)C([H])(N([H])C(=O)C([H])(N([H])C([H])([H])[H])C([H])([H])[H])C(C([H])([H])[H])(C([H])([H])[H])C([H])([H])[H])C([H])([H])c2c([H])c(OC([H])([H])C([H])([H])c3c([H])c([H])c(C([H])(C(=O)N([H])C([H])([H])C([H])([H])C(=O)N4C([H])([H])C([H])([H])C([H])([H])C([H])(n5nc(-c6c([H])c([H])c(Oc7c([H])c([H])c(F)c([H])c7F)c([H])c6[H])c(C(=O)N([H])[H])c5N([H])[H])C4([H])[H])C([H])([H])C([H])([H])C([H])([H])[H])c(C([H])([H])[H])c3[H])c([H])c([H])c2C1([H])[H]

>  <smiles>  (63) 
[H]c1c([H])c([H])c2c(c1[H])C([H])([H])C([H])([H])C([H])([H])C2([H])N([H])C(=O)C1([H])N(C(=O)C([H])(N([H])C(=O)C([H])(N([H])C([H])([H])[H])C([H])([H])[H])C(C([H])([H])[H])(C([H])([H])[H])C([H])([H])[H])C([H])([H])c2c([H])c(OC([H])([H])C([H])([H])c3c([H])c([H])c(C([H])(C(=O)N([H])C([H])([H])C([H])([H])C(=O)N4C([H])([H])C([H])([H])C([H])([H])C([H])(n5nc(-c6c([H])c([H])c(Oc7c([H])c([H])c(F)c([H])c7F)c([H])c6[H])c(C(=O)N([H])[H])c5N([H])[H])C4([H])[H])C([H])([H])C([H])([H])C([H])([H])[H])c(C([H])([H])[H])c3[H])c([H])c([H])c2C1([H])[H]

$$$$
63:0:0
     RDKit          3D

 98106  0  0  1  0  0  0  0  0999 V2000
  -33.1380  -23.8450   15.4910 C   0  0  0  0  0  3  0  0  0  0  0  0
  -32.7820  -25.1090   16.0170 C   0  0  0  0  0  3  0  0  0  0  0  0
  -32.4360  -22.7080   15.9090 C   0  0  0  0  0  3  0  0  0  0  0  0
  -31.6040  -25.2880   16.7870 C   0  0  0  0  0  0  0  0  0  0  0  0
  -31.3050  -22.8820   16.7380 C   0  0  0  0  0  0  0  0  0  0  0  0
  -30.7400  -24.1600   16.9450 C   0  0  0  0  0  0  0  0  0  0  0  0
  -29.3050  -24.2020   17.4720 C   0  0  0  0  0  1  0  0  0  0  0  0
  -31.3510  -26.6470   17.4820 C   0  0  0  0  0  2  0  0  0  0  0  0
  -31.7480  -26.6960   18.9970 C   0  0  0  0  0  2  0  0  0  0  0  0
  -31.0900  -25.6590   19.9510 C   0  0  0  0  0  2  0  0  0  0  0  0
  -30.3970  -26.1740   21.2260 C   0  0  0  0  0  0  0  0  0  0  0  0
  -31.0220  -26.1900   22.2900 O   0  0  0  0  0  0  0  0  0  0  0  0
  -28.8920  -26.5440   21.2380 C   0  0  0  0  0  2  0  0  0  0  0  0
  -28.2900  -26.7350   19.9490 O   0  0  0  0  0  0  0  0  0  0  0  0
  -24.4690  -31.8830   23.1180 C   0  0  0  0  0  0  0  0  0  0  0  0
  -27.1320  -27.4890   19.9680 C   0  0  0  0  0  0  0  0  0  0  0  0
  -23.4070  -30.2300   21.6140 C   0  0  0  0  0  3  0  0  0  0  0  0
  -24.7190  -28.9780   19.9380 C   0  0  0  0  0  0  0  0  0  0  0  0
  -25.7830  -30.9010   21.2030 C   0  0  0  0  0  2  0  0  0  0  0  0
  -25.8850  -29.5390   20.4940 C   0  0  0  0  0  0  0  0  0  0  0  0
  -27.0880  -28.8000   20.5090 C   0  0  0  0  0  3  0  0  0  0  0  0
  -25.9450  -26.9340   19.4300 C   0  0  0  0  0  3  0  0  0  0  0  0
  -24.7390  -27.6660   19.4280 C   0  0  0  0  0  3  0  0  0  0  0  0
  -23.4330  -29.7600   20.1440 C   0  0  0  0  0  2  0  0  0  0  0  0
  -24.5250  -31.1240   21.9880 N   0  0  0  0  0  0  0  0  0  0  0  0
  -23.3920  -32.1220   23.6840 O   0  0  0  0  0  0  0  0  0  0  0  0
  -22.5390  -29.4570   22.6270 C   0  0  0  0  0  0  0  0  0  0  0  0
  -21.2380  -29.3050   22.3800 N   0  0  0  0  0  0  0  0  0  0  0  0
  -23.0710  -28.8680   23.5860 O   0  0  0  0  0  0  0  0  0  0  0  0
  -20.8270  -29.7910   21.5910 H   0  0  0  0  0  0  0  0  0  0  0  0
  -17.8500  -28.1460   22.9180 C   0  0  0  0  0  0  0  0  0  0  0  0
  -20.4020  -28.3720   23.1430 C   0  0  0  0  0  3  0  0  0  0  0  0
  -20.4980  -26.9470   22.5580 C   0  0  0  0  0  2  0  0  0  0  0  0
  -19.3770  -26.6330   21.5650 C   0  0  0  0  0  2  0  0  0  0  0  0
  -18.0050  -26.7990   22.2340 C   0  0  0  0  0  2  0  0  0  0  0  0
  -18.9850  -28.8920   23.3360 C   0  0  0  0  0  0  0  0  0  0  0  0
  -18.8160  -30.1460   23.9510 C   0  0  0  0  0  3  0  0  0  0  0  0
  -17.5280  -30.6710   24.1620 C   0  0  0  0  0  3  0  0  0  0  0  0
  -16.4000  -29.9200   23.7780 C   0  0  0  0  0  3  0  0  0  0  0  0
  -16.5610  -28.6680   23.1600 C   0  0  0  0  0  3  0  0  0  0  0  0
  -25.7480  -32.5180   23.7290 C   0  0  0  0  0  3  0  0  0  0  0  0
  -26.3020  -31.7300   24.9830 C   0  0  1  0  0  0  0  0  0  0  0  0
  -25.2530  -31.4550   26.0900 C   0  0  0  0  0  1  0  0  0  0  0  0
  -26.8820  -30.3690   24.5360 C   0  0  0  0  0  1  0  0  0  0  0  0
  -27.4650  -32.5170   25.6370 C   0  0  0  0  0  1  0  0  0  0  0  0
  -25.4250  -33.9020   24.0850 N   0  0  0  0  0  0  0  0  0  0  0  0
  -25.7760  -34.9750   23.3600 C   0  0  0  0  0  0  0  0  0  0  0  0
  -26.4630  -34.8950   22.3370 O   0  0  0  0  0  0  0  0  0  0  0  0
  -24.8110  -34.0200   24.8770 H   0  0  0  0  0  0  0  0  0  0  0  0
  -24.0680  -36.7890   23.0230 C   0  0  0  0  0  1  0  0  0  0  0  0
  -25.2880  -36.3510   23.8500 C   0  0  0  0  0  3  0  0  0  0  0  0
  -27.4120  -37.1960   24.7410 C   0  0  0  0  0  1  0  0  0  0  0  0
  -26.3300  -37.3950   23.7800 N   0  0  0  0  0  0  0  0  0  0  0  0
  -25.9400  -38.3220   23.9160 H   0  0  0  0  0  0  0  0  0  0  0  0
  -31.1570  -21.9080   17.8830 C   0  0  0  0  0  2  0  0  0  0  0  0
  -30.0610  -20.8440   17.8730 C   0  0  0  0  0  2  0  0  0  0  0  0
  -30.5730  -19.7800   18.8560 C   0  0  0  0  0  2  0  0  0  0  0  0
  -29.5210  -18.7750   19.2980 C   0  0  0  0  0  2  0  0  0  0  0  0
  -30.0750  -17.7450   20.2970 C   0  0  0  0  0  2  0  0  0  0  0  0
  -29.1760  -16.5030   20.3400 C   0  0  0  0  0  2  0  0  0  0  0  0
  -30.5410  -14.4820   20.5000 C   0  0  0  0  0  0  0  0  0  0  0  0
  -30.3520  -12.3740   19.2470 C   0  0  0  0  0  2  0  0  0  0  0  0
  -29.3850  -12.6450   18.0730 C   0  0  0  0  0  2  0  0  0  0  0  0
  -27.9100  -12.4990   18.5000 C   0  0  0  0  0  2  0  0  0  0  0  0
  -27.5860  -13.2380   19.8260 C   0  0  0  0  0  3  0  0  0  0  0  0
  -28.6440  -12.8840   20.8910 C   0  0  0  0  0  2  0  0  0  0  0  0
  -29.9750  -13.2580   20.3590 N   0  0  0  0  0  0  0  0  0  0  0  0
  -31.6080  -14.8190   19.9530 O   0  0  0  0  0  0  0  0  0  0  0  0
  -29.7290  -15.3640   21.0860 N   0  0  0  0  0  0  0  0  0  0  0  0
  -29.0650  -14.9250   21.7120 H   0  0  0  0  0  0  0  0  0  0  0  0
  -25.1730  -13.8440   20.5030 C   0  0  0  0  0  0  0  0  0  0  0  0
  -24.1090  -13.0640   20.8870 C   0  0  0  0  0  0  0  0  0  0  0  0
  -24.5860  -11.7170   20.8570 C   0  0  0  0  0  0  0  0  0  0  0  0
  -26.2280  -12.9680   20.2890 N   0  0  0  0  0  0  0  0  0  0  0  0
  -25.8760  -11.6830   20.5460 N   0  0  0  0  0  0  0  0  0  0  0  0
  -23.8710  -10.4470   21.0420 C   0  0  0  0  0  0  0  0  0  0  0  0
  -24.3150   -9.4910   21.9790 C   0  0  0  0  0  3  0  0  0  0  0  0
  -23.6060   -8.2840   22.1620 C   0  0  0  0  0  3  0  0  0  0  0  0
  -22.4370   -8.0300   21.4010 C   0  0  0  0  0  0  0  0  0  0  0  0
  -22.0110   -8.9750   20.4500 C   0  0  0  0  0  3  0  0  0  0  0  0
  -22.7260  -10.1740   20.2700 C   0  0  0  0  0  3  0  0  0  0  0  0
  -21.6980   -6.8720   21.4930 O   0  0  0  0  0  0  0  0  0  0  0  0
  -21.6560   -6.1330   22.6450 C   0  0  0  0  0  0  0  0  0  0  0  0
  -21.2140   -6.6820   23.8720 C   0  0  0  0  0  3  0  0  0  0  0  0
  -21.1280   -5.8670   25.0160 C   0  0  0  0  0  3  0  0  0  0  0  0
  -21.4690   -4.5030   24.9380 C   0  0  0  0  0  0  0  0  0  0  0  0
  -21.9020   -3.9550   23.7180 C   0  0  0  0  0  3  0  0  0  0  0  0
  -21.9950   -4.7670   22.5770 C   0  0  0  0  0  0  0  0  0  0  0  0
  -22.3920   -4.2280   21.3970 F   0  0  0  0  0  0  0  0  0  0  0  0
  -21.3730   -3.7170   26.0350 F   0  0  0  0  0  0  0  0  0  0  0  0
  -22.7050  -13.5320   21.1540 C   0  0  0  0  0  0  0  0  0  0  0  0
  -21.9800  -12.8230   22.0150 N   0  0  0  0  0  0  0  0  0  0  0  0
  -22.2580  -14.5500   20.6350 O   0  0  0  0  0  0  0  0  0  0  0  0
  -22.3520  -12.0040   22.4730 H   0  0  0  0  0  0  0  0  0  0  0  0
  -21.0370  -13.1060   22.2240 H   0  0  0  0  0  0  0  0  0  0  0  0
  -25.3130  -15.2130   20.3100 N   0  0  0  0  0  0  0  0  0  0  0  0
  -24.5270  -15.8440   20.4160 H   0  0  0  0  0  0  0  0  0  0  0  0
  -26.1350  -15.6680   19.9390 H   0  0  0  0  0  0  0  0  0  0  0  0
  1  3  2  0
  1  2  1  0
  2  4  2  0
  3  5  1  0
  4  6  1  0
  4  8  1  0
  5  6  2  0
  5 55  1  0
  6  7  1  0
  8  9  1  0
  9 10  1  0
 10 11  1  0
 11 13  1  0
 11 12  2  0
 14 16  1  0
 14 13  1  0
 15 26  2  0
 16 21  1  0
 17 25  1  0
 17 27  1  0
 18 24  1  0
 18 20  1  0
 19 25  1  0
 20 21  2  0
 20 19  1  0
 22 16  2  0
 23 22  1  0
 23 18  2  0
 24 17  1  0
 25 15  1  0
 27 29  2  0
 28 27  1  0
 30 28  1  0
 31 40  2  0
 31 36  1  0
 32 28  1  0
 32 36  1  0
 33 32  1  0
 34 35  1  0
 34 33  1  0
 35 31  1  0
 36 37  2  0
 37 38  1  0
 39 38  2  0
 40 39  1  0
 41 15  1  0
 41 46  1  0
 41 42  1  0
 42 45  1  1
 42 43  1  0
 44 42  1  0
 46 49  1  0
 47 51  1  0
 47 46  1  0
 48 47  2  0
 51 50  1  0
 53 51  1  0
 53 54  1  0
 53 52  1  0
 56 55  1  0
 56 57  1  0
 57 58  1  0
 58 59  1  0
 59 60  1  0
 60 69  1  0
 61 69  1  0
 62 67  1  0
 63 64  1  0
 63 62  1  0
 65 64  1  0
 65 74  1  0
 65 66  1  0
 67 61  1  0
 67 66  1  0
 68 61  2  0
 69 70  1  0
 71 72  2  0
 72 91  1  0
 73 72  1  0
 73 76  1  0
 74 71  1  0
 74 75  1  0
 75 73  2  0
 76 77  1  0
 77 78  2  0
 79 82  1  0
 79 78  1  0
 80 79  2  0
 81 80  1  0
 81 76  2  0
 82 83  1  0
 83 84  1  0
 84 85  2  0
 86 85  1  0
 86 90  1  0
 87 86  2  0
 88 83  2  0
 88 87  1  0
 89 88  1  0
 91 92  1  0
 92 95  1  0
 92 94  1  0
 93 91  2  0
 96 97  1  0
 96 71  1  0
 98 96  1  0
M  ISO  4  13 101  14 101  61 100  69 100
M  END
>  <TORSDO>  (64) 
F 27

>  <SCORE>  (64) 
-11.483

>  <name>  (64) 
63

>  <ligand_id>  (64) 
63

>  <original_smiles>  (64) 
[H]c1c([H])c([H])c2c(c1[H])C([H])([H])C([H])([H])C([H])([H])C2([H])N([H])C(=O)C1([H])N(C(=O)C([H])(N([H])C(=O)C([H])(N([H])C([H])([H])[H])C([H])([H])[H])C(C([H])([H])[H])(C([H])([H])[H])C([H])([H])[H])C([H])([H])c2c([H])c(OC([H])([H])C(=O)C([H])([H])C([H])([H])C([H])([H])c3c([H])c([H])c([H])c(C([H])([H])C([H])([H])C([H])([H])C([H])([H])C([H])([H])C([H])([H])N([H])C(=O)N4C([H])([H])C([H])([H])C([H])([H])C([H])(n5nc(-c6c([H])c([H])c(Oc7c([H])c([H])c(F)c([H])c7F)c([H])c6[H])c(C(=O)N([H])[H])c5N([H])[H])C4([H])[H])c3C([H])([H])[H])c([H])c([H])c2C1([H])[H]

>  <smiles>  (64) 
[H]c1c([H])c([H])c2c(c1[H])C([H])([H])C([H])([H])C([H])([H])C2([H])N([H])C(=O)C1([H])N(C(=O)C([H])(N([H])C(=O)C([H])(N([H])C([H])([H])[H])C([H])([H])[H])C(C([H])([H])[H])(C([H])([H])[H])C([H])([H])[H])C([H])([H])c2c([H])c(OC([H])([H])C(=O)C([H])([H])C([H])([H])C([H])([H])c3c([H])c([H])c([H])c(C([H])([H])C([H])([H])C([H])([H])C([H])([H])C([H])([H])C([H])([H])N([H])C(=O)N4C([H])([H])C([H])([H])C([H])([H])C([H])(n5nc(-c6c([H])c([H])c(Oc7c([H])c([H])c(F)c([H])c7F)c([H])c6[H])c(C(=O)N([H])[H])c5N([H])[H])C4([H])[H])c3C([H])([H])[H])c([H])c([H])c2C1([H])[H]

$$$$
64:0:0
     RDKit          3D

 99106  0  0  1  0  0  0  0  0999 V2000
  -27.9150  -20.9980   18.0840 C   0  0  0  0  0  2  0  0  0  0  0  0
  -26.7440  -21.6910   17.3620 C   0  0  0  0  0  2  0  0  0  0  0  0
  -26.6470  -23.1970   17.6720 C   0  0  0  0  0  2  0  0  0  0  0  0
  -27.7400  -24.0160   16.9490 C   0  0  0  0  0  2  0  0  0  0  0  0
  -27.7160  -25.4560   17.2870 N   0  0  0  0  0  4  0  0  0  0  0  0
  -26.8140  -25.7260   17.6440 H   0  0  0  0  0  0  0  0  0  0  0  0
  -27.8220  -25.9470   16.4120 H   0  0  0  0  0  0  0  0  0  0  0  0
  -28.8210  -25.9390   18.1550 C   0  0  0  0  0  2  0  0  0  0  0  0
  -28.6650  -25.6090   19.6570 C   0  0  0  0  0  2  0  0  0  0  0  0
  -28.4900  -26.8020   20.4240 O   0  0  0  0  0  0  0  0  0  0  0  0
  -24.5860  -31.9650   23.3170 C   0  0  0  0  0  0  0  0  0  0  0  0
  -27.2860  -27.4730   20.3810 C   0  0  0  0  0  0  0  0  0  0  0  0
  -23.4080  -30.5290   21.6850 C   0  0  0  0  0  3  0  0  0  0  0  0
  -24.8850  -28.9660   20.3200 C   0  0  0  0  0  0  0  0  0  0  0  0
  -25.9330  -30.8900   21.5200 C   0  0  0  0  0  2  0  0  0  0  0  0
  -26.0300  -29.5060   20.9140 C   0  0  0  0  0  0  0  0  0  0  0  0
  -27.2310  -28.7650   20.9480 C   0  0  0  0  0  3  0  0  0  0  0  0
  -26.1070  -26.9290   19.8130 C   0  0  0  0  0  3  0  0  0  0  0  0
  -24.9160  -27.6740   19.7710 C   0  0  0  0  0  3  0  0  0  0  0  0
  -23.6410  -29.8230   20.3240 C   0  0  0  0  0  2  0  0  0  0  0  0
  -24.6610  -31.1420   22.2340 N   0  0  0  0  0  0  0  0  0  0  0  0
  -23.4940  -32.2500   23.8310 O   0  0  0  0  0  0  0  0  0  0  0  0
  -22.7420  -29.5260   22.6520 C   0  0  0  0  0  0  0  0  0  0  0  0
  -21.4220  -29.3360   22.5010 N   0  0  0  0  0  0  0  0  0  0  0  0
  -23.4100  -28.9210   23.4950 O   0  0  0  0  0  0  0  0  0  0  0  0
  -20.9480  -29.8730   21.7890 H   0  0  0  0  0  0  0  0  0  0  0  0
  -18.0440  -28.1350   22.9440 C   0  0  0  0  0  0  0  0  0  0  0  0
  -20.5920  -28.4160   23.2760 C   0  0  0  0  0  3  0  0  0  0  0  0
  -20.7180  -26.9690   22.7440 C   0  0  0  0  0  2  0  0  0  0  0  0
  -19.6470  -26.6110   21.7100 C   0  0  0  0  0  2  0  0  0  0  0  0
  -18.2470  -26.7670   22.3140 C   0  0  0  0  0  2  0  0  0  0  0  0
  -19.1470  -28.9150   23.3830 C   0  0  0  0  0  0  0  0  0  0  0  0
  -18.9080  -30.1950   23.9330 C   0  0  0  0  0  3  0  0  0  0  0  0
  -17.5960  -30.6940   24.0450 C   0  0  0  0  0  3  0  0  0  0  0  0
  -16.5060  -29.9110   23.6220 C   0  0  0  0  0  3  0  0  0  0  0  0
  -16.7320  -28.6330   23.0790 C   0  0  0  0  0  3  0  0  0  0  0  0
  -25.8610  -32.6120   23.9440 C   0  0  0  0  0  3  0  0  0  0  0  0
  -26.3740  -31.8560   25.2300 C   0  0  1  0  0  0  0  0  0  0  0  0
  -25.2710  -31.6110   26.2870 C   0  0  0  0  0  1  0  0  0  0  0  0
  -26.9750  -30.4820   24.8510 C   0  0  0  0  0  1  0  0  0  0  0  0
  -27.5100  -32.6650   25.9010 C   0  0  0  0  0  1  0  0  0  0  0  0
  -25.5380  -34.0100   24.2550 N   0  0  0  0  0  0  0  0  0  0  0  0
  -25.8770  -35.0570   23.4890 C   0  0  0  0  0  0  0  0  0  0  0  0
  -26.5650  -34.9450   22.4710 O   0  0  0  0  0  0  0  0  0  0  0  0
  -24.9290  -34.1700   25.0440 H   0  0  0  0  0  0  0  0  0  0  0  0
  -24.1480  -36.8370   23.0830 C   0  0  0  0  0  1  0  0  0  0  0  0
  -25.3740  -36.4470   23.9210 C   0  0  0  0  0  3  0  0  0  0  0  0
  -27.4920  -37.3460   24.7780 C   0  0  0  0  0  1  0  0  0  0  0  0
  -26.4020  -37.5040   23.8180 N   0  0  0  0  0  0  0  0  0  0  0  0
  -25.9910  -38.4230   23.9520 H   0  0  0  0  0  0  0  0  0  0  0  0
  -28.4200  -19.7400   17.3580 C   0  0  0  0  0  2  0  0  0  0  0  0
  -29.7580  -19.2550   17.9360 C   0  0  0  0  0  2  0  0  0  0  0  0
  -30.3180  -18.0120   17.2280 C   0  0  0  0  0  2  0  0  0  0  0  0
  -31.6700  -17.5870   17.8230 C   0  0  0  0  0  2  0  0  0  0  0  0
  -32.1660  -16.2260   17.3080 C   0  0  0  0  0  2  0  0  0  0  0  0
  -33.3010  -15.6480   18.1890 C   0  0  0  0  0  2  0  0  0  0  0  0
  -33.3470  -14.0950   18.2560 C   0  0  0  0  0  3  0  0  0  0  0  0
  -31.1070  -13.8210   19.5140 C   0  0  0  0  0  0  0  0  0  0  0  0
  -30.0100  -11.8360   18.6370 C   0  0  0  0  0  2  0  0  0  0  0  0
  -29.0850  -12.3450   17.5360 C   0  0  0  0  0  2  0  0  0  0  0  0
  -27.6760  -12.4050   18.1260 C   0  0  0  0  0  2  0  0  0  0  0  0
  -27.5910  -13.1880   19.4660 C   0  0  0  0  0  3  0  0  0  0  0  0
  -28.8240  -12.9640   20.4110 C   0  0  0  0  0  2  0  0  0  0  0  0
  -30.0930  -12.9100   19.6290 N   0  0  0  0  0  0  0  0  0  0  0  0
  -31.2110  -14.8910   20.0460 O   0  0  0  0  0  0  0  0  0  0  0  0
  -32.0930  -13.4460   18.6730 N   0  0  0  0  0  0  0  0  0  0  0  0
  -31.9310  -12.5410   18.2570 H   0  0  0  0  0  0  0  0  0  0  0  0
  -25.2660  -13.8230   20.4090 C   0  0  0  0  0  0  0  0  0  0  0  0
  -24.2130  -13.0680   20.8590 C   0  0  0  0  0  0  0  0  0  0  0  0
  -24.6410  -11.7080   20.7850 C   0  0  0  0  0  0  0  0  0  0  0  0
  -26.2840  -12.9310   20.1010 N   0  0  0  0  0  0  0  0  0  0  0  0
  -25.9080  -11.6510   20.3810 N   0  0  0  0  0  0  0  0  0  0  0  0
  -23.8980  -10.4590   21.0260 C   0  0  0  0  0  0  0  0  0  0  0  0
  -24.3740   -9.4770   21.9220 C   0  0  0  0  0  3  0  0  0  0  0  0
  -23.6330   -8.2970   22.1570 C   0  0  0  0  0  3  0  0  0  0  0  0
  -22.4000   -8.0890   21.4950 C   0  0  0  0  0  0  0  0  0  0  0  0
  -21.9400   -9.0590   20.5860 C   0  0  0  0  0  3  0  0  0  0  0  0
  -22.6820  -10.2300   20.3500 C   0  0  0  0  0  3  0  0  0  0  0  0
  -21.6250   -6.9630   21.6420 O   0  0  0  0  0  0  0  0  0  0  0  0
  -21.6430   -6.2220   22.7980 C   0  0  0  0  0  0  0  0  0  0  0  0
  -21.3400   -6.7920   24.0530 C   0  0  0  0  0  3  0  0  0  0  0  0
  -21.3020   -5.9810   25.2050 C   0  0  0  0  0  3  0  0  0  0  0  0
  -21.5570   -4.6000   25.1030 C   0  0  0  0  0  0  0  0  0  0  0  0
  -21.8540   -4.0290   23.8540 C   0  0  0  0  0  3  0  0  0  0  0  0
  -21.8940   -4.8380   22.7040 C   0  0  0  0  0  0  0  0  0  0  0  0
  -22.1590   -4.2760   21.5000 F   0  0  0  0  0  0  0  0  0  0  0  0
  -21.5140   -3.8190   26.2090 F   0  0  0  0  0  0  0  0  0  0  0  0
  -22.8510  -13.5710   21.2490 C   0  0  0  0  0  0  0  0  0  0  0  0
  -22.1890  -12.8930   22.1820 N   0  0  0  0  0  0  0  0  0  0  0  0
  -22.3860  -14.6020   20.7660 O   0  0  0  0  0  0  0  0  0  0  0  0
  -22.5780  -12.0560   22.5910 H   0  0  0  0  0  0  0  0  0  0  0  0
  -21.2820  -13.2140   22.4880 H   0  0  0  0  0  0  0  0  0  0  0  0
  -25.4320  -15.1910   20.2170 N   0  0  0  0  0  0  0  0  0  0  0  0
  -24.6910  -15.8590   20.3920 H   0  0  0  0  0  0  0  0  0  0  0  0
  -26.2770  -15.6190   19.8580 H   0  0  0  0  0  0  0  0  0  0  0  0
  -34.4030  -13.7020   20.5910 C   0  0  0  0  0  1  0  0  0  0  0  0
  -34.5330  -13.5030   19.0660 C   0  0  0  0  0  3  0  0  0  0  0  0
  -37.0750  -13.0980   18.9900 C   0  0  0  0  0  1  0  0  0  0  0  0
  -35.9030  -13.9870   18.5430 C   0  0  0  0  0  2  0  0  0  0  0  0
  2  3  1  0
  2  1  1  0
  4  5  1  0
  4  3  1  0
  5  6  1  0
  5  8  1  0
  7  5  1  0
  8  9  1  0
  9 10  1  0
 11 22  2  0
 12 10  1  0
 12 17  1  0
 13 21  1  0
 13 23  1  0
 14 20  1  0
 14 16  1  0
 15 21  1  0
 16 17  2  0
 16 15  1  0
 18 12  2  0
 19 18  1  0
 19 14  2  0
 20 13  1  0
 21 11  1  0
 23 25  2  0
 24 23  1  0
 26 24  1  0
 27 36  2  0
 27 32  1  0
 28 24  1  0
 28 32  1  0
 29 28  1  0
 30 31  1  0
 30 29  1  0
 31 27  1  0
 32 33  2  0
 33 34  1  0
 35 34  2  0
 36 35  1  0
 37 11  1  0
 37 42  1  0
 37 38  1  0
 38 41  1  1
 38 39  1  0
 40 38  1  0
 42 45  1  0
 43 47  1  0
 43 42  1  0
 44 43  2  0
 47 46  1  0
 49 47  1  0
 49 50  1  0
 49 48  1  0
 51 52  1  0
 51  1  1  0
 53 54  1  0
 53 52  1  0
 55 54  1  0
 55 56  1  0
 57 56  1  0
 57 66  1  0
 57 97  1  0
 58 64  1  0
 58 65  2  0
 59 64  1  0
 60 61  1  0
 60 59  1  0
 62 61  1  0
 62 71  1  0
 62 63  1  0
 64 63  1  0
 66 58  1  0
 67 66  1  0
 68 69  2  0
 69 88  1  0
 70 69  1  0
 70 73  1  0
 71 72  1  0
 71 68  1  0
 72 70  2  0
 73 74  1  0
 74 75  2  0
 76 79  1  0
 76 75  1  0
 77 76  2  0
 78 77  1  0
 78 73  2  0
 79 80  1  0
 80 81  1  0
 81 82  2  0
 83 82  1  0
 83 87  1  0
 84 83  2  0
 85 80  2  0
 85 84  1  0
 86 85  1  0
 88 89  1  0
 89 92  1  0
 89 91  1  0
 90 88  2  0
 93 94  1  0
 93 68  1  0
 95 93  1  0
 97 96  1  0
 99 98  1  0
 99 97  1  0
M  ISO  4   9 101  10 101  58 100  66 100
M  END
>  <TORSDO>  (65) 
F 31

>  <SCORE>  (65) 
-9.575

>  <name>  (65) 
64

>  <ligand_id>  (65) 
64

>  <original_smiles>  (65) 
[H]c1c([H])c([H])c2c(c1[H])C([H])([H])C([H])([H])C([H])([H])C2([H])N([H])C(=O)C1([H])N(C(=O)C([H])(N([H])C(=O)C([H])(N([H])C([H])([H])[H])C([H])([H])[H])C(C([H])([H])[H])(C([H])([H])[H])C([H])([H])[H])C([H])([H])c2c([H])c(OC([H])([H])C([H])([H])[N+]([H])([H])C([H])([H])C([H])([H])C([H])([H])C([H])([H])C([H])([H])C([H])([H])C([H])([H])C([H])([H])C([H])([H])C([H])([H])C([H])(N([H])C(=O)N3C([H])([H])C([H])([H])C([H])([H])C([H])(n4nc(-c5c([H])c([H])c(Oc6c([H])c([H])c(F)c([H])c6F)c([H])c5[H])c(C(=O)N([H])[H])c4N([H])[H])C3([H])[H])C([H])(C([H])([H])[H])C([H])([H])C([H])([H])[H])c([H])c([H])c2C1([H])[H]

>  <smiles>  (65) 
[H]c1c([H])c([H])c2c(c1[H])C([H])([H])C([H])([H])C([H])([H])C2([H])N([H])C(=O)C1([H])N(C(=O)C([H])(N([H])C(=O)C([H])(N([H])C([H])([H])[H])C([H])([H])[H])C(C([H])([H])[H])(C([H])([H])[H])C([H])([H])[H])C([H])([H])c2c([H])c(OC([H])([H])C([H])([H])[N+]([H])([H])C([H])([H])C([H])([H])C([H])([H])C([H])([H])C([H])([H])C([H])([H])C([H])([H])C([H])([H])C([H])([H])C([H])([H])C([H])(N([H])C(=O)N3C([H])([H])C([H])([H])C([H])([H])C([H])(n4nc(-c5c([H])c([H])c(Oc6c([H])c([H])c(F)c([H])c6F)c([H])c5[H])c(C(=O)N([H])[H])c4N([H])[H])C3([H])[H])C([H])(C([H])([H])[H])C([H])([H])C([H])([H])[H])c([H])c([H])c2C1([H])[H]

$$$$
65:0:0
     RDKit          3D

 93100  0  0  1  0  0  0  0  0999 V2000
  -28.6540  -21.9490   20.9030 C   0  0  0  0  0  3  0  0  0  0  0  0
  -29.1010  -23.3030   21.3760 N   0  0  0  0  0  4  0  0  0  0  0  0
  -30.0230  -23.2080   21.7750 H   0  0  0  0  0  0  0  0  0  0  0  0
  -28.4910  -23.5060   22.1530 H   0  0  0  0  0  0  0  0  0  0  0  0
  -29.0660  -24.5210   20.4940 C   0  0  0  0  0  2  0  0  0  0  0  0
  -29.1480  -25.8350   21.3330 C   0  0  0  0  0  2  0  0  0  0  0  0
  -29.0830  -27.0660   20.5850 O   0  0  0  0  0  0  0  0  0  0  0  0
  -24.7960  -32.0190   23.4820 C   0  0  0  0  0  0  0  0  0  0  0  0
  -27.8740  -27.7300   20.5800 C   0  0  0  0  0  0  0  0  0  0  0  0
  -23.7790  -30.5660   21.7550 C   0  0  0  0  0  3  0  0  0  0  0  0
  -25.4070  -29.1120   20.4320 C   0  0  0  0  0  0  0  0  0  0  0  0
  -26.2900  -31.0570   21.7300 C   0  0  0  0  0  2  0  0  0  0  0  0
  -26.4930  -29.6920   21.1000 C   0  0  0  0  0  0  0  0  0  0  0  0
  -27.7320  -29.0100   21.1690 C   0  0  0  0  0  3  0  0  0  0  0  0
  -26.7720  -27.1620   19.9090 C   0  0  0  0  0  3  0  0  0  0  0  0
  -25.5410  -27.8470   19.8330 C   0  0  0  0  0  3  0  0  0  0  0  0
  -24.1180  -29.9060   20.3920 C   0  0  0  0  0  2  0  0  0  0  0  0
  -24.9680  -31.2320   22.3820 N   0  0  0  0  0  0  0  0  0  0  0  0
  -23.6680  -32.2280   23.9500 O   0  0  0  0  0  0  0  0  0  0  0  0
  -23.1180  -29.5070   22.6670 C   0  0  0  0  0  0  0  0  0  0  0  0
  -21.8130  -29.2690   22.4640 N   0  0  0  0  0  0  0  0  0  0  0  0
  -23.7820  -28.9020   23.5130 O   0  0  0  0  0  0  0  0  0  0  0  0
  -21.3380  -29.8140   21.7580 H   0  0  0  0  0  0  0  0  0  0  0  0
  -18.4510  -27.9970   22.8310 C   0  0  0  0  0  0  0  0  0  0  0  0
  -20.9940  -28.2880   23.1770 C   0  0  0  0  0  3  0  0  0  0  0  0
  -21.1390  -26.8840   22.5450 C   0  0  0  0  0  2  0  0  0  0  0  0
  -20.0670  -26.5820   21.4910 C   0  0  0  0  0  2  0  0  0  0  0  0
  -18.6690  -26.6790   22.1060 C   0  0  0  0  0  2  0  0  0  0  0  0
  -19.5440  -28.7610   23.3190 C   0  0  0  0  0  0  0  0  0  0  0  0
  -19.2870  -29.9950   23.9530 C   0  0  0  0  0  3  0  0  0  0  0  0
  -17.9700  -30.4670   24.1050 C   0  0  0  0  0  3  0  0  0  0  0  0
  -16.8910  -29.6990   23.6320 C   0  0  0  0  0  3  0  0  0  0  0  0
  -17.1320  -28.4660   23.0020 C   0  0  0  0  0  3  0  0  0  0  0  0
  -26.0010  -32.7110   24.1900 C   0  0  0  0  0  3  0  0  0  0  0  0
  -26.4090  -32.0200   25.5490 C   0  0  1  0  0  0  0  0  0  0  0  0
  -25.2180  -31.7800   26.5030 C   0  0  0  0  0  1  0  0  0  0  0  0
  -27.0850  -30.6560   25.2840 C   0  0  0  0  0  1  0  0  0  0  0  0
  -27.4470  -32.8950   26.2920 C   0  0  0  0  0  1  0  0  0  0  0  0
  -25.6370  -34.1180   24.4110 N   0  0  0  0  0  0  0  0  0  0  0  0
  -26.0150  -35.1340   23.6240 C   0  0  0  0  0  0  0  0  0  0  0  0
  -26.7750  -34.9910   22.6610 O   0  0  0  0  0  0  0  0  0  0  0  0
  -24.9740  -34.3040   25.1480 H   0  0  0  0  0  0  0  0  0  0  0  0
  -24.2780  -36.8530   23.0270 C   0  0  0  0  0  1  0  0  0  0  0  0
  -25.4590  -36.5320   23.9550 C   0  0  0  0  0  3  0  0  0  0  0  0
  -27.4930  -37.5280   24.9030 C   0  0  0  0  0  1  0  0  0  0  0  0
  -26.4720  -37.6050   23.8620 N   0  0  0  0  0  0  0  0  0  0  0  0
  -26.0320  -38.5200   23.9180 H   0  0  0  0  0  0  0  0  0  0  0  0
  -27.6020  -21.9870   19.7560 C   0  0  0  0  0  2  0  0  0  0  0  0
  -26.7840  -20.7830   19.7170 N   0  0  0  0  0  0  0  0  0  0  0  0
  -26.0340  -20.9120   19.0440 H   0  0  0  0  0  0  0  0  0  0  0  0
  -26.3000  -20.6660   20.6010 H   0  0  0  0  0  0  0  0  0  0  0  0
  -29.8010  -20.9010   20.6800 C   0  0  0  0  0  2  0  0  0  0  0  0
  -29.4080  -19.4400   21.1000 C   0  0  0  0  0  2  0  0  0  0  0  0
  -30.3940  -18.2580   20.7380 C   0  0  0  0  0  2  0  0  0  0  0  0
  -30.0420  -16.7620   20.3540 C   0  0  0  0  0  2  0  0  0  0  0  0
  -31.4620  -14.7090   20.3370 C   0  0  0  0  0  0  0  0  0  0  0  0
  -31.0630  -12.4860   19.3380 C   0  0  0  0  0  2  0  0  0  0  0  0
  -30.1490  -12.6070   18.1030 C   0  0  0  0  0  2  0  0  0  0  0  0
  -28.6690  -12.5400   18.5250 C   0  0  0  0  0  2  0  0  0  0  0  0
  -28.3340  -13.4960   19.7000 C   0  0  0  0  0  3  0  0  0  0  0  0
  -29.3710  -13.3760   20.8400 C   0  0  0  0  0  2  0  0  0  0  0  0
  -30.7110  -13.5740   20.2650 N   0  0  0  0  0  0  0  0  0  0  0  0
  -32.5830  -14.7960   19.8380 O   0  0  0  0  0  0  0  0  0  0  0  0
  -30.9530  -15.7760   20.9810 N   0  0  0  0  0  0  0  0  0  0  0  0
  -31.7040  -16.2710   21.4400 H   0  0  0  0  0  0  0  0  0  0  0  0
  -25.9840  -14.2300   20.4540 C   0  0  0  0  0  0  0  0  0  0  0  0
  -24.8660  -13.5180   20.7960 C   0  0  0  0  0  0  0  0  0  0  0  0
  -25.2350  -12.1410   20.7050 C   0  0  0  0  0  0  0  0  0  0  0  0
  -26.9680  -13.2920   20.1800 N   0  0  0  0  0  0  0  0  0  0  0  0
  -26.5200  -12.0270   20.3910 N   0  0  0  0  0  0  0  0  0  0  0  0
  -24.4220  -10.9240   20.8440 C   0  0  0  0  0  0  0  0  0  0  0  0
  -24.7590   -9.9160   21.7750 C   0  0  0  0  0  3  0  0  0  0  0  0
  -23.9550   -8.7630   21.9060 C   0  0  0  0  0  3  0  0  0  0  0  0
  -22.7950   -8.6140   21.1080 C   0  0  0  0  0  0  0  0  0  0  0  0
  -22.4760   -9.6110   20.1680 C   0  0  0  0  0  3  0  0  0  0  0  0
  -23.2820  -10.7530   20.0350 C   0  0  0  0  0  3  0  0  0  0  0  0
  -21.9650   -7.5200   21.1490 O   0  0  0  0  0  0  0  0  0  0  0  0
  -21.7820   -6.7990   22.3010 C   0  0  0  0  0  0  0  0  0  0  0  0
  -21.2720   -7.3890   23.4780 C   0  0  0  0  0  3  0  0  0  0  0  0
  -21.0340   -6.5970   24.6170 C   0  0  0  0  0  3  0  0  0  0  0  0
  -21.2990   -5.2130   24.5800 C   0  0  0  0  0  0  0  0  0  0  0  0
  -21.8010   -4.6230   23.4090 C   0  0  0  0  0  3  0  0  0  0  0  0
  -22.0400   -5.4140   22.2700 C   0  0  0  0  0  0  0  0  0  0  0  0
  -22.5040   -4.8370   21.1370 F   0  0  0  0  0  0  0  0  0  0  0  0
  -21.0620   -4.4490   25.6710 F   0  0  0  0  0  0  0  0  0  0  0  0
  -23.5070  -14.0790   21.0930 C   0  0  0  0  0  0  0  0  0  0  0  0
  -22.7360  -13.4060   21.9390 N   0  0  0  0  0  0  0  0  0  0  0  0
  -23.1350  -15.1480   20.6080 O   0  0  0  0  0  0  0  0  0  0  0  0
  -23.0450  -12.5380   22.3510 H   0  0  0  0  0  0  0  0  0  0  0  0
  -21.8230  -13.7660   22.1770 H   0  0  0  0  0  0  0  0  0  0  0  0
  -26.2390  -15.5920   20.3310 N   0  0  0  0  0  0  0  0  0  0  0  0
  -25.5140  -16.2890   20.4610 H   0  0  0  0  0  0  0  0  0  0  0  0
  -27.1130  -15.9830   20.0040 H   0  0  0  0  0  0  0  0  0  0  0  0
  1 48  1  0
  1  2  1  0
  2  3  1  0
  2  4  1  0
  5  6  1  0
  5  2  1  0
  7  6  1  0
  8 19  2  0
  9  7  1  0
  9 14  1  0
 10 18  1  0
 10 20  1  0
 11 13  1  0
 12 18  1  0
 13 14  2  0
 13 12  1  0
 15  9  2  0
 16 15  1  0
 16 11  2  0
 17 11  1  0
 17 10  1  0
 18  8  1  0
 20 22  2  0
 21 20  1  0
 23 21  1  0
 24 33  2  0
 24 29  1  0
 25 21  1  0
 25 29  1  0
 26 25  1  0
 27 28  1  0
 27 26  1  0
 28 24  1  0
 29 30  2  0
 30 31  1  0
 32 31  2  0
 33 32  1  0
 34  8  1  0
 34 39  1  0
 34 35  1  0
 35 38  1  1
 35 36  1  0
 37 35  1  0
 39 42  1  0
 40 44  1  0
 40 39  1  0
 41 40  2  0
 44 43  1  0
 46 47  1  0
 46 44  1  0
 46 45  1  0
 49 48  1  0
 49 51  1  0
 50 49  1  0
 52  1  1  0
 52 53  1  0
 54 53  1  0
 55 54  1  0
 55 64  1  0
 56 64  1  0
 57 62  1  0
 58 59  1  0
 58 57  1  0
 60 59  1  0
 60 69  1  0
 60 61  1  0
 62 56  1  0
 62 61  1  0
 63 56  2  0
 64 65  1  0
 66 67  2  0
 67 86  1  0
 68 67  1  0
 68 71  1  0
 69 70  1  0
 69 66  1  0
 70 68  2  0
 71 72  1  0
 72 73  2  0
 74 77  1  0
 74 73  1  0
 75 74  2  0
 76 75  1  0
 76 71  2  0
 77 78  1  0
 78 79  1  0
 79 80  2  0
 81 80  1  0
 81 85  1  0
 82 81  2  0
 83 78  2  0
 83 82  1  0
 84 83  1  0
 86 87  1  0
 87 90  1  0
 87 89  1  0
 88 86  2  0
 91 66  1  0
 91 92  1  0
 93 91  1  0
M  ISO  4   6 101   7 101  56 100  64 100
M  END
>  <TORSDO>  (66) 
F 25

>  <SCORE>  (66) 
-11.048

>  <name>  (66) 
65

>  <ligand_id>  (66) 
65

>  <original_smiles>  (66) 
[H]c1c([H])c([H])c2c(c1[H])C([H])([H])C([H])([H])C([H])([H])C2([H])N([H])C(=O)C1([H])N(C(=O)C([H])(N([H])C(=O)C([H])(N([H])C([H])([H])[H])C([H])([H])[H])C(C([H])([H])[H])(C([H])([H])[H])C([H])([H])[H])C([H])([H])c2c([H])c(OC([H])([H])C([H])([H])[N+]([H])([H])C([H])(C([H])([H])N([H])[H])C([H])([H])C([H])([H])C([H])([H])C([H])([H])N([H])C(=O)N3C([H])([H])C([H])([H])C([H])([H])C([H])(n4nc(-c5c([H])c([H])c(Oc6c([H])c([H])c(F)c([H])c6F)c([H])c5[H])c(C(=O)N([H])[H])c4N([H])[H])C3([H])[H])c([H])c([H])c2C1([H])[H]

>  <smiles>  (66) 
[H]c1c([H])c([H])c2c(c1[H])C([H])([H])C([H])([H])C([H])([H])C2([H])N([H])C(=O)C1([H])N(C(=O)C([H])(N([H])C(=O)C([H])(N([H])C([H])([H])[H])C([H])([H])[H])C(C([H])([H])[H])(C([H])([H])[H])C([H])([H])[H])C([H])([H])c2c([H])c(OC([H])([H])C([H])([H])[N+]([H])([H])C([H])(C([H])([H])N([H])[H])C([H])([H])C([H])([H])C([H])([H])C([H])([H])N([H])C(=O)N3C([H])([H])C([H])([H])C([H])([H])C([H])(n4nc(-c5c([H])c([H])c(Oc6c([H])c([H])c(F)c([H])c6F)c([H])c5[H])c(C(=O)N([H])[H])c4N([H])[H])C3([H])[H])c([H])c([H])c2C1([H])[H]

$$$$
66:0:0
     RDKit          3D

 93100  0  0  1  0  0  0  0  0999 V2000
  -27.1020  -18.0620   18.0190 C   0  0  0  0  0  3  0  0  0  0  0  0
  -27.1760  -16.5250   18.6390 C   0  0  0  0  0  3  0  0  0  0  0  0
  -27.6660  -15.1550   17.8300 C   0  0  0  0  0  2  0  0  0  0  0  0
  -27.3010  -13.5830   18.2870 C   0  0  0  0  0  2  0  0  0  0  0  0
  -28.1090  -12.1730   17.8330 C   0  0  0  0  0  2  0  0  0  0  0  0
  -28.4690  -10.8200   18.7700 C   0  0  0  0  0  2  0  0  0  0  0  0
  -29.9650  -10.2670   19.2770 C   0  0  0  0  0  2  0  0  0  0  0  0
  -30.8150   -9.9040   20.6700 C   0  0  0  0  0  2  0  0  0  0  0  0
  -32.4800  -10.1080   20.9070 C   0  0  0  0  0  2  0  0  0  0  0  0
  -33.7260  -12.3920   21.7390 C   0  0  0  0  0  0  0  0  0  0  0  0
  -33.3580  -12.6200   19.6920 C   0  0  0  0  0  2  0  0  0  0  0  0
  -32.3530  -12.4770   18.6720 C   0  0  0  0  0  2  0  0  0  0  0  0
  -31.1840  -13.3630   19.1010 C   0  0  0  0  0  2  0  0  0  0  0  0
  -30.5760  -13.4630   20.5350 C   0  0  0  0  0  3  0  0  0  0  0  0
  -31.4720  -12.9810   21.6070 C   0  0  0  0  0  2  0  0  0  0  0  0
  -32.8220  -12.8770   21.0410 N   0  0  0  0  0  0  0  0  0  0  0  0
  -34.8320  -12.9780   21.7970 O   0  0  0  0  0  0  0  0  0  0  0  0
  -33.3420  -11.0460   21.8680 N   0  0  0  0  0  0  0  0  0  0  0  0
  -34.0020  -10.5290   22.4300 H   0  0  0  0  0  0  0  0  0  0  0  0
  -28.2380  -14.3590   21.0210 C   0  0  0  0  0  0  0  0  0  0  0  0
  -27.0120  -13.8000   21.2190 C   0  0  0  0  0  0  0  0  0  0  0  0
  -27.2010  -12.3880   21.1580 C   0  0  0  0  0  0  0  0  0  0  0  0
  -29.1290  -13.3230   20.8140 N   0  0  0  0  0  0  0  0  0  0  0  0
  -28.5020  -12.1260   21.0310 N   0  0  0  0  0  0  0  0  0  0  0  0
  -26.2000  -11.3000   21.1870 C   0  0  0  0  0  0  0  0  0  0  0  0
  -26.2650  -10.2540   22.1330 C   0  0  0  0  0  3  0  0  0  0  0  0
  -25.2670   -9.2530   22.1740 C   0  0  0  0  0  3  0  0  0  0  0  0
  -24.1830   -9.2900   21.2650 C   0  0  0  0  0  0  0  0  0  0  0  0
  -24.1340  -10.3170   20.3060 C   0  0  0  0  0  3  0  0  0  0  0  0
  -25.1290  -11.3080   20.2650 C   0  0  0  0  0  3  0  0  0  0  0  0
  -23.1790   -8.3520   21.2190 O   0  0  0  0  0  0  0  0  0  0  0  0
  -22.6740   -7.7780   22.3600 C   0  0  0  0  0  0  0  0  0  0  0  0
  -22.1360   -8.5530   23.4100 C   0  0  0  0  0  3  0  0  0  0  0  0
  -21.5680   -7.9190   24.5340 C   0  0  0  0  0  3  0  0  0  0  0  0
  -21.5290   -6.5140   24.6050 C   0  0  0  0  0  0  0  0  0  0  0  0
  -22.0560   -5.7400   23.5570 C   0  0  0  0  0  3  0  0  0  0  0  0
  -22.6240   -6.3710   22.4360 C   0  0  0  0  0  0  0  0  0  0  0  0
  -23.1140   -5.6210   21.4200 F   0  0  0  0  0  0  0  0  0  0  0  0
  -20.9790   -5.9040   25.6810 F   0  0  0  0  0  0  0  0  0  0  0  0
  -25.7300  -14.5530   21.3840 C   0  0  0  0  0  0  0  0  0  0  0  0
  -24.8080  -14.0200   22.1760 N   0  0  0  0  0  0  0  0  0  0  0  0
  -25.5650  -15.6520   20.8550 O   0  0  0  0  0  0  0  0  0  0  0  0
  -24.9600  -13.1270   22.6220 H   0  0  0  0  0  0  0  0  0  0  0  0
  -23.9390  -14.5070   22.3390 H   0  0  0  0  0  0  0  0  0  0  0  0
  -28.6570  -15.6810   20.9870 N   0  0  0  0  0  0  0  0  0  0  0  0
  -28.0020  -16.4520   21.0230 H   0  0  0  0  0  0  0  0  0  0  0  0
  -29.6000  -15.9710   20.7630 H   0  0  0  0  0  0  0  0  0  0  0  0
  -27.0020  -19.4420   18.9430 C   0  0  0  0  0  3  0  0  0  0  0  0
  -27.0830  -20.9880   18.3400 C   0  0  0  0  0  3  0  0  0  0  0  0
  -27.3380  -22.3060   19.2560 C   0  0  0  0  0  3  0  0  0  0  0  0
  -27.3910  -23.6820   18.9490 C   0  0  0  0  0  3  0  0  0  0  0  0
  -27.6740  -24.9340   19.9440 C   0  0  0  0  0  2  0  0  0  0  0  0
  -27.9400  -26.3920   19.5240 O   0  0  0  0  0  0  0  0  0  0  0  0
  -24.5710  -31.8300   23.2360 C   0  0  0  0  0  0  0  0  0  0  0  0
  -26.9230  -27.3550   19.7240 C   0  0  0  0  0  0  0  0  0  0  0  0
  -23.2690  -30.4560   21.6690 C   0  0  0  0  0  3  0  0  0  0  0  0
  -24.6030  -29.0050   20.0490 C   0  0  0  0  0  0  0  0  0  0  0  0
  -25.7900  -30.8120   21.2790 C   0  0  0  0  0  2  0  0  0  0  0  0
  -25.8290  -29.4590   20.5540 C   0  0  0  0  0  0  0  0  0  0  0  0
  -27.0060  -28.6450   20.3770 C   0  0  0  0  0  3  0  0  0  0  0  0
  -25.6700  -26.9880   19.2130 C   0  0  0  0  0  3  0  0  0  0  0  0
  -24.5310  -27.7830   19.3730 C   0  0  0  0  0  3  0  0  0  0  0  0
  -23.3710  -29.8600   20.2460 C   0  0  0  0  0  2  0  0  0  0  0  0
  -24.5680  -31.0510   22.1130 N   0  0  0  0  0  0  0  0  0  0  0  0
  -23.5290  -32.0560   23.8710 O   0  0  0  0  0  0  0  0  0  0  0  0
  -22.7240  -29.3770   22.6370 C   0  0  0  0  0  0  0  0  0  0  0  0
  -21.4070  -29.1130   22.5780 N   0  0  0  0  0  0  0  0  0  0  0  0
  -23.4840  -28.7850   23.4090 O   0  0  0  0  0  0  0  0  0  0  0  0
  -20.8460  -29.6470   21.9290 H   0  0  0  0  0  0  0  0  0  0  0  0
  -18.1610  -27.6280   23.1810 C   0  0  0  0  0  0  0  0  0  0  0  0
  -20.6930  -28.1130   23.3760 C   0  0  0  0  0  3  0  0  0  0  0  0
  -20.9050  -26.6910   22.8050 C   0  0  0  0  0  2  0  0  0  0  0  0
  -19.8070  -26.2670   21.8240 C   0  0  0  0  0  2  0  0  0  0  0  0
  -18.4360  -26.2950   22.5060 C   0  0  0  0  0  2  0  0  0  0  0  0
  -19.2200  -28.4890   23.5750 C   0  0  0  0  0  0  0  0  0  0  0  0
  -18.9070  -29.7300   24.1680 C   0  0  0  0  0  3  0  0  0  0  0  0
  -17.5690  -30.1160   24.3700 C   0  0  0  0  0  3  0  0  0  0  0  0
  -16.5250  -29.2550   23.9900 C   0  0  0  0  0  3  0  0  0  0  0  0
  -16.8220  -28.0130   23.4020 C   0  0  0  0  0  3  0  0  0  0  0  0
  -25.8790  -32.4890   23.7660 C   0  0  0  0  0  3  0  0  0  0  0  0
  -26.5020  -31.7250   24.9990 C   0  0  1  0  0  0  0  0  0  0  0  0
  -25.4950  -31.4640   26.1430 C   0  0  0  0  0  1  0  0  0  0  0  0
  -27.0820  -30.3580   24.5650 C   0  0  0  0  0  1  0  0  0  0  0  0
  -27.6810  -32.5410   25.5790 C   0  0  0  0  0  1  0  0  0  0  0  0
  -25.5590  -33.8780   24.1320 N   0  0  0  0  0  0  0  0  0  0  0  0
  -25.8480  -34.9510   23.3850 C   0  0  0  0  0  0  0  0  0  0  0  0
  -26.4830  -34.8790   22.3300 O   0  0  0  0  0  0  0  0  0  0  0  0
  -24.9920  -34.0070   24.9570 H   0  0  0  0  0  0  0  0  0  0  0  0
  -24.0990  -36.7400   23.1120 C   0  0  0  0  0  1  0  0  0  0  0  0
  -25.3570  -36.3230   23.8890 C   0  0  0  0  0  3  0  0  0  0  0  0
  -27.5000  -37.2030   24.7040 C   0  0  0  0  0  1  0  0  0  0  0  0
  -26.3780  -37.3890   23.7880 N   0  0  0  0  0  0  0  0  0  0  0  0
  -25.9670  -38.3000   23.9720 H   0  0  0  0  0  0  0  0  0  0  0  0
  1  2  2  0
  1 48  1  0
  3  4  1  0
  3  2  1  0
  5  4  1  0
  5  6  1  0
  6  7  1  0
  7  8  1  0
  8  9  1  0
  9 18  1  0
 10 17  2  0
 10 18  1  0
 11 16  1  0
 12 13  1  0
 12 11  1  0
 14 13  1  0
 14 23  1  0
 14 15  1  0
 16 15  1  0
 16 10  1  0
 18 19  1  0
 20 21  2  0
 21 40  1  0
 22 25  1  0
 22 21  1  0
 23 20  1  0
 23 24  1  0
 24 22  2  0
 25 26  1  0
 26 27  2  0
 28 27  1  0
 29 28  2  0
 30 29  1  0
 30 25  2  0
 31 28  1  0
 31 32  1  0
 32 37  2  0
 32 33  1  0
 33 34  2  0
 34 35  1  0
 35 39  1  0
 36 35  2  0
 37 36  1  0
 38 37  1  0
 40 41  1  0
 41 44  1  0
 41 43  1  0
 42 40  2  0
 45 20  1  0
 45 46  1  0
 47 45  1  0
 49 48  2  0
 49 50  1  0
 51 50  2  0
 51 52  1  0
 53 55  1  0
 53 52  1  0
 54 65  2  0
 55 60  1  0
 56 64  1  0
 56 66  1  0
 57 63  1  0
 57 59  1  0
 58 64  1  0
 59 58  1  0
 60 59  2  0
 61 62  1  0
 61 55  2  0
 62 57  2  0
 63 56  1  0
 64 54  1  0
 66 68  2  0
 67 66  1  0
 69 67  1  0
 70 79  2  0
 70 75  1  0
 71 67  1  0
 71 75  1  0
 72 71  1  0
 73 74  1  0
 73 72  1  0
 74 70  1  0
 75 76  2  0
 76 77  1  0
 78 77  2  0
 79 78  1  0
 80 54  1  0
 80 85  1  0
 80 81  1  0
 81 84  1  1
 81 82  1  0
 83 81  1  0
 85 88  1  0
 86 90  1  0
 86 85  1  0
 87 86  2  0
 90 89  1  0
 92 90  1  0
 92 93  1  0
 92 91  1  0
M  ISO  4  10 100  18 100  52 101  53 101
M  END
>  <TORSDO>  (67) 
F 28

>  <SCORE>  (67) 
-5.228

>  <name>  (67) 
66

>  <ligand_id>  (67) 
66

>  <original_smiles>  (67) 
[H]C(=C([H])C([H])([H])C([H])([H])C([H])([H])C([H])([H])C([H])([H])C([H])([H])C([H])([H])C([H])([H])C([H])([H])C([H])([H])C([H])([H])N([H])C(=O)N1C([H])([H])C([H])([H])C([H])([H])C([H])(n2nc(-c3c([H])c([H])c(Oc4c([H])c([H])c(F)c([H])c4F)c([H])c3[H])c(C(=O)N([H])[H])c2N([H])[H])C1([H])[H])C([H])([H])Oc1c([H])c([H])c2c(c1[H])C([H])([H])N(C(=O)C([H])(N([H])C(=O)C([H])(N([H])C([H])([H])[H])C([H])([H])[H])C(C([H])([H])[H])(C([H])([H])[H])C([H])([H])[H])C([H])(C(=O)N([H])C1([H])c3c([H])c([H])c([H])c([H])c3C([H])([H])C([H])([H])C1([H])[H])C2([H])[H]

>  <smiles>  (67) 
[H]C(=C([H])C([H])([H])C([H])([H])C([H])([H])C([H])([H])C([H])([H])C([H])([H])C([H])([H])C([H])([H])C([H])([H])C([H])([H])C([H])([H])N([H])C(=O)N1C([H])([H])C([H])([H])C([H])([H])C([H])(n2nc(-c3c([H])c([H])c(Oc4c([H])c([H])c(F)c([H])c4F)c([H])c3[H])c(C(=O)N([H])[H])c2N([H])[H])C1([H])[H])C([H])([H])Oc1c([H])c([H])c2c(c1[H])C([H])([H])N(C(=O)C([H])(N([H])C(=O)C([H])(N([H])C([H])([H])[H])C([H])([H])[H])C(C([H])([H])[H])(C([H])([H])[H])C([H])([H])[H])C([H])(C(=O)N([H])C1([H])c3c([H])c([H])c([H])c([H])c3C([H])([H])C([H])([H])C1([H])[H])C2([H])[H]

$$$$
67:0:0
     RDKit          3D

 96104  0  0  1  0  0  0  0  0999 V2000
  -28.4550  -21.7860   21.5510 C   0  0  0  0  0  3  0  0  0  0  0  0
  -29.2380  -20.6200   21.5500 C   0  0  0  0  0  3  0  0  0  0  0  0
  -28.8990  -22.9410   22.2220 C   0  0  0  0  0  0  0  0  0  0  0  0
  -30.4680  -20.5850   22.2340 C   0  0  0  0  0  0  0  0  0  0  0  0
  -30.1080  -22.9100   22.9700 C   0  0  0  0  0  0  0  0  0  0  0  0
  -30.8890  -21.7180   22.9880 C   0  0  0  0  0  0  0  0  0  0  0  0
  -30.5430  -24.1570   23.7520 C   0  0  0  0  0  1  0  0  0  0  0  0
  -32.1840  -21.6600   23.7980 C   0  0  0  0  0  1  0  0  0  0  0  0
  -28.0350  -24.1440   22.1310 C   0  0  0  0  0  0  0  0  0  0  0  0
  -26.8990  -24.2000   22.6120 O   0  0  0  0  0  0  0  0  0  0  0  0
  -28.6020  -25.3270   21.3510 C   0  0  0  0  0  2  0  0  0  0  0  0
  -28.1030  -25.3830   19.8980 C   0  0  0  0  0  2  0  0  0  0  0  0
  -28.0480  -26.7510   19.4910 O   0  0  0  0  0  0  0  0  0  0  0  0
  -24.5060  -31.7140   23.1750 C   0  0  0  0  0  0  0  0  0  0  0  0
  -26.8610  -27.4190   19.6780 C   0  0  0  0  0  0  0  0  0  0  0  0
  -23.1620  -30.3970   21.5670 C   0  0  0  0  0  3  0  0  0  0  0  0
  -24.4830  -28.9140   19.9730 C   0  0  0  0  0  0  0  0  0  0  0  0
  -25.6700  -30.7440   21.2000 C   0  0  0  0  0  2  0  0  0  0  0  0
  -25.6880  -29.4060   20.4910 C   0  0  0  0  0  0  0  0  0  0  0  0
  -26.8780  -28.6630   20.3450 C   0  0  0  0  0  3  0  0  0  0  0  0
  -25.6380  -26.9360   19.1590 C   0  0  0  0  0  3  0  0  0  0  0  0
  -24.4490  -27.6720   19.3140 C   0  0  0  0  0  3  0  0  0  0  0  0
  -23.2600  -29.7800   20.1460 C   0  0  0  0  0  2  0  0  0  0  0  0
  -24.4680  -30.9650   22.0360 N   0  0  0  0  0  0  0  0  0  0  0  0
  -23.4720  -31.9670   23.8080 O   0  0  0  0  0  0  0  0  0  0  0  0
  -22.5780  -29.3360   22.5260 C   0  0  0  0  0  0  0  0  0  0  0  0
  -21.2750  -29.0490   22.3780 N   0  0  0  0  0  0  0  0  0  0  0  0
  -23.2950  -28.7710   23.3560 O   0  0  0  0  0  0  0  0  0  0  0  0
  -20.7520  -29.5690   21.6880 H   0  0  0  0  0  0  0  0  0  0  0  0
  -18.0450  -27.4600   22.6950 C   0  0  0  0  0  0  0  0  0  0  0  0
  -20.5200  -28.0550   23.1420 C   0  0  0  0  0  3  0  0  0  0  0  0
  -20.8440  -26.6190   22.6670 C   0  0  0  0  0  2  0  0  0  0  0  0
  -19.8790  -26.1060   21.5950 C   0  0  0  0  0  2  0  0  0  0  0  0
  -18.4410  -26.1080   22.1230 C   0  0  0  0  0  2  0  0  0  0  0  0
  -19.0230  -28.3800   23.1580 C   0  0  0  0  0  0  0  0  0  0  0  0
  -18.6020  -29.6370   23.6450 C   0  0  0  0  0  3  0  0  0  0  0  0
  -17.2380  -29.9770   23.6760 C   0  0  0  0  0  3  0  0  0  0  0  0
  -16.2720  -29.0570   23.2300 C   0  0  0  0  0  3  0  0  0  0  0  0
  -16.6780  -27.8000   22.7470 C   0  0  0  0  0  3  0  0  0  0  0  0
  -25.8430  -32.3060   23.7200 C   0  0  0  0  0  3  0  0  0  0  0  0
  -25.5830  -33.6970   24.1150 N   0  0  0  0  0  0  0  0  0  0  0  0
  -25.8980  -34.7680   23.3750 C   0  0  0  0  0  0  0  0  0  0  0  0
  -26.5090  -34.6890   22.3060 O   0  0  0  0  0  0  0  0  0  0  0  0
  -25.0450  -33.8350   24.9570 H   0  0  0  0  0  0  0  0  0  0  0  0
  -24.1920  -36.6040   23.1660 C   0  0  0  0  0  1  0  0  0  0  0  0
  -25.4620  -36.1480   23.9020 C   0  0  0  0  0  3  0  0  0  0  0  0
  -27.6540  -36.9610   24.6540 C   0  0  0  0  0  1  0  0  0  0  0  0
  -26.5090  -37.1840   23.7740 N   0  0  0  0  0  0  0  0  0  0  0  0
  -26.1320  -38.1060   23.9750 H   0  0  0  0  0  0  0  0  0  0  0  0
  -26.4390  -31.4860   24.9300 C   0  0  1  0  0  0  0  0  0  0  0  0
  -25.4260  -31.2280   26.0700 C   0  0  0  0  0  1  0  0  0  0  0  0
  -26.9730  -30.1160   24.4520 C   0  0  0  0  0  1  0  0  0  0  0  0
  -27.6410  -32.2480   25.5380 C   0  0  0  0  0  1  0  0  0  0  0  0
  -31.3500  -19.3490   22.0620 C   0  0  0  0  0  2  0  0  0  0  0  0
  -31.1160  -18.2160   23.0870 C   0  0  0  0  0  2  0  0  0  0  0  0
  -29.9580  -17.2490   22.7660 C   0  0  0  0  0  2  0  0  0  0  0  0
  -30.1110  -16.4340   21.4650 C   0  0  0  0  0  2  0  0  0  0  0  0
  -31.3280  -15.4860   21.3950 C   0  0  0  0  0  2  0  0  0  0  0  0
  -31.9550  -13.7490   19.7310 C   0  0  0  0  0  0  0  0  0  0  0  0
  -31.3010  -11.4990   18.9640 C   0  0  0  0  0  2  0  0  0  0  0  0
  -30.3130  -11.5920   17.7830 C   0  0  0  0  0  2  0  0  0  0  0  0
  -28.8640  -11.7290   18.2980 C   0  0  0  0  0  2  0  0  0  0  0  0
  -28.7100  -12.8200   19.3910 C   0  0  0  0  0  3  0  0  0  0  0  0
  -29.7970  -12.6610   20.4730 C   0  0  0  0  0  2  0  0  0  0  0  0
  -31.1120  -12.6860   19.8150 N   0  0  0  0  0  0  0  0  0  0  0  0
  -33.0310  -13.7160   19.1310 O   0  0  0  0  0  0  0  0  0  0  0  0
  -31.4420  -14.9420   20.0450 N   0  0  0  0  0  0  0  0  0  0  0  0
  -31.8670  -15.6350   19.4470 H   0  0  0  0  0  0  0  0  0  0  0  0
  -26.5570  -13.8620   20.3500 C   0  0  0  0  0  0  0  0  0  0  0  0
  -25.3820  -13.3060   20.7730 C   0  0  0  0  0  0  0  0  0  0  0  0
  -25.5370  -11.8930   20.6270 C   0  0  0  0  0  0  0  0  0  0  0  0
  -27.3690  -12.8050   19.9730 N   0  0  0  0  0  0  0  0  0  0  0  0
  -26.7610  -11.6100   20.1970 N   0  0  0  0  0  0  0  0  0  0  0  0
  -24.5750  -10.8000   20.8110 C   0  0  0  0  0  0  0  0  0  0  0  0
  -24.8810   -9.6780   21.6140 C   0  0  0  0  0  3  0  0  0  0  0  0
  -23.9360   -8.6460   21.7900 C   0  0  0  0  0  3  0  0  0  0  0  0
  -22.6690   -8.7280   21.1670 C   0  0  0  0  0  0  0  0  0  0  0  0
  -22.3760   -9.8350   20.3510 C   0  0  0  0  0  3  0  0  0  0  0  0
  -23.3190  -10.8600   20.1700 C   0  0  0  0  0  3  0  0  0  0  0  0
  -21.6970   -7.7630   21.2640 O   0  0  0  0  0  0  0  0  0  0  0  0
  -21.5850   -6.9650   22.3740 C   0  0  0  0  0  0  0  0  0  0  0  0
  -21.4150   -7.5040   23.6670 C   0  0  0  0  0  3  0  0  0  0  0  0
  -21.2300   -6.6460   24.7690 C   0  0  0  0  0  3  0  0  0  0  0  0
  -21.2040   -5.2510   24.5790 C   0  0  0  0  0  0  0  0  0  0  0  0
  -21.3670   -4.7130   23.2920 C   0  0  0  0  0  3  0  0  0  0  0  0
  -21.5560   -5.5670   22.1910 C   0  0  0  0  0  0  0  0  0  0  0  0
  -21.6920   -5.0430   20.9480 F   0  0  0  0  0  0  0  0  0  0  0  0
  -21.0200   -4.4250   25.6380 F   0  0  0  0  0  0  0  0  0  0  0  0
  -24.1430  -14.0430   21.1980 C   0  0  0  0  0  0  0  0  0  0  0  0
  -23.3720  -13.4690   22.1150 N   0  0  0  0  0  0  0  0  0  0  0  0
  -23.8790  -15.1600   20.7520 O   0  0  0  0  0  0  0  0  0  0  0  0
  -23.6010  -12.5620   22.4920 H   0  0  0  0  0  0  0  0  0  0  0  0
  -22.5350  -13.9360   22.4360 H   0  0  0  0  0  0  0  0  0  0  0  0
  -26.9960  -15.1780   20.2380 N   0  0  0  0  0  0  0  0  0  0  0  0
  -26.3930  -15.9610   20.4630 H   0  0  0  0  0  0  0  0  0  0  0  0
  -27.9020  -15.4600   19.8840 H   0  0  0  0  0  0  0  0  0  0  0  0
  1  3  1  0
  2  1  2  0
  2  4  1  0
  3  5  2  0
  4  6  2  0
  5  6  1  0
  5  7  1  0
  6  8  1  0
  9  3  1  0
  9 10  2  0
 11  9  1  0
 12 11  1  0
 13 15  1  0
 13 12  1  0
 14 25  2  0
 15 20  1  0
 16 24  1  0
 16 26  1  0
 17 23  1  0
 17 19  1  0
 18 24  1  0
 19 18  1  0
 20 19  2  0
 21 22  1  0
 21 15  2  0
 22 17  2  0
 23 16  1  0
 24 14  1  0
 26 28  2  0
 27 26  1  0
 29 27  1  0
 30 39  2  0
 30 35  1  0
 31 27  1  0
 31 35  1  0
 32 31  1  0
 33 34  1  0
 33 32  1  0
 34 30  1  0
 35 36  2  0
 36 37  1  0
 38 37  2  0
 39 38  1  0
 40 14  1  0
 40 41  1  0
 40 50  1  0
 41 44  1  0
 42 46  1  0
 42 41  1  0
 43 42  2  0
 46 45  1  0
 48 46  1  0
 48 49  1  0
 48 47  1  0
 50 53  1  1
 50 51  1  0
 52 50  1  0
 54  4  1  0
 54 55  1  0
 56 55  1  0
 57 56  1  0
 58 57  1  0
 59 65  1  0
 59 67  1  0
 60 65  1  0
 61 62  1  0
 61 60  1  0
 63 62  1  0
 63 72  1  0
 63 64  1  0
 65 64  1  0
 66 59  2  0
 67 58  1  0
 68 67  1  0
 69 70  2  0
 70 89  1  0
 71 70  1  0
 71 74  1  0
 72 73  1  0
 72 69  1  0
 73 71  2  0
 74 75  1  0
 75 76  2  0
 77 80  1  0
 77 76  1  0
 78 77  2  0
 79 78  1  0
 79 74  2  0
 80 81  1  0
 81 82  1  0
 82 83  2  0
 84 83  1  0
 84 88  1  0
 85 84  2  0
 86 81  2  0
 86 85  1  0
 87 86  1  0
 89 90  1  0
 90 93  1  0
 90 92  1  0
 91 89  2  0
 94 69  1  0
 94 95  1  0
 96 94  1  0
M  ISO  4  12 101  13 101  59 100  67 100
M  END
>  <TORSDO>  (68) 
F 24

>  <SCORE>  (68) 
-8.837

>  <name>  (68) 
67

>  <ligand_id>  (68) 
67

>  <original_smiles>  (68) 
[H]c1c([H])c([H])c2c(c1[H])C([H])([H])C([H])([H])C([H])([H])C2([H])N([H])C(=O)C1([H])N(C(=O)C([H])(N([H])C(=O)C([H])(N([H])C([H])([H])[H])C([H])([H])[H])C(C([H])([H])[H])(C([H])([H])[H])C([H])([H])[H])C([H])([H])c2c([H])c(OC([H])([H])C([H])([H])C(=O)c3c([H])c([H])c(C([H])([H])C([H])([H])C([H])([H])C([H])([H])C([H])([H])N([H])C(=O)N4C([H])([H])C([H])([H])C([H])([H])C([H])(n5nc(-c6c([H])c([H])c(Oc7c([H])c([H])c(F)c([H])c7F)c([H])c6[H])c(C(=O)N([H])[H])c5N([H])[H])C4([H])[H])c(C([H])([H])[H])c3C([H])([H])[H])c([H])c([H])c2C1([H])[H]

>  <smiles>  (68) 
[H]c1c([H])c([H])c2c(c1[H])C([H])([H])C([H])([H])C([H])([H])C2([H])N([H])C(=O)C1([H])N(C(=O)C([H])(N([H])C(=O)C([H])(N([H])C([H])([H])[H])C([H])([H])[H])C(C([H])([H])[H])(C([H])([H])[H])C([H])([H])[H])C([H])([H])c2c([H])c(OC([H])([H])C([H])([H])C(=O)c3c([H])c([H])c(C([H])([H])C([H])([H])C([H])([H])C([H])([H])C([H])([H])N([H])C(=O)N4C([H])([H])C([H])([H])C([H])([H])C([H])(n5nc(-c6c([H])c([H])c(Oc7c([H])c([H])c(F)c([H])c7F)c([H])c6[H])c(C(=O)N([H])[H])c5N([H])[H])C4([H])[H])c(C([H])([H])[H])c3C([H])([H])[H])c([H])c([H])c2C1([H])[H]

$$$$
68:0:0
     RDKit          3D

 93100  0  0  1  0  0  0  0  0999 V2000
  -31.4280  -25.2930   22.8290 C   0  0  0  0  0  2  0  0  0  0  0  0
  -31.9710  -26.4460   21.9680 C   0  0  0  0  0  2  0  0  0  0  0  0
  -31.6090  -28.5480   20.6500 C   0  0  0  0  0  1  0  0  0  0  0  0
  -30.9020  -27.4050   21.4010 C   0  0  0  0  0  3  0  0  0  0  0  0
  -29.8000  -26.7350   20.5270 C   0  0  0  0  0  2  0  0  0  0  0  0
  -28.5760  -27.6490   20.3880 C   0  0  0  0  0  2  0  0  0  0  0  0
  -27.4380  -27.0930   19.7100 O   0  0  0  0  0  0  0  0  0  0  0  0
  -23.8080  -31.9490   23.4080 C   0  0  0  0  0  0  0  0  0  0  0  0
  -26.2620  -27.8140   19.8470 C   0  0  0  0  0  0  0  0  0  0  0  0
  -22.4710  -30.6490   21.7710 C   0  0  0  0  0  3  0  0  0  0  0  0
  -23.8150  -29.2260   20.1290 C   0  0  0  0  0  0  0  0  0  0  0  0
  -24.9510  -31.0780   21.3810 C   0  0  0  0  0  2  0  0  0  0  0  0
  -24.9950  -29.7560   20.6530 C   0  0  0  0  0  0  0  0  0  0  0  0
  -26.2060  -29.0690   20.5030 C   0  0  0  0  0  3  0  0  0  0  0  0
  -25.0610  -27.2890   19.3190 C   0  0  0  0  0  3  0  0  0  0  0  0
  -23.8400  -27.9880   19.4560 C   0  0  0  0  0  3  0  0  0  0  0  0
  -22.5660  -30.0540   20.3340 C   0  0  0  0  0  2  0  0  0  0  0  0
  -23.7660  -31.2360   22.2470 N   0  0  0  0  0  0  0  0  0  0  0  0
  -22.7770  -32.1720   24.0570 O   0  0  0  0  0  0  0  0  0  0  0  0
  -21.9120  -29.5630   22.7120 C   0  0  0  0  0  0  0  0  0  0  0  0
  -20.5980  -29.3130   22.6130 N   0  0  0  0  0  0  0  0  0  0  0  0
  -22.6550  -28.9470   23.4830 O   0  0  0  0  0  0  0  0  0  0  0  0
  -20.0600  -29.8650   21.9610 H   0  0  0  0  0  0  0  0  0  0  0  0
  -17.3280  -27.8590   23.0720 C   0  0  0  0  0  0  0  0  0  0  0  0
  -19.8570  -28.3020   23.3650 C   0  0  0  0  0  3  0  0  0  0  0  0
  -20.0720  -26.8940   22.7650 C   0  0  0  0  0  2  0  0  0  0  0  0
  -19.0020  -26.5050   21.7400 C   0  0  0  0  0  2  0  0  0  0  0  0
  -17.6100  -26.5360   22.3780 C   0  0  0  0  0  2  0  0  0  0  0  0
  -18.3850  -28.6940   23.5220 C   0  0  0  0  0  0  0  0  0  0  0  0
  -18.0680  -29.9290   24.1290 C   0  0  0  0  0  3  0  0  0  0  0  0
  -16.7290  -30.3320   24.2890 C   0  0  0  0  0  3  0  0  0  0  0  0
  -15.6870  -29.4930   23.8560 C   0  0  0  0  0  3  0  0  0  0  0  0
  -15.9880  -28.2580   23.2560 C   0  0  0  0  0  3  0  0  0  0  0  0
  -25.1430  -32.5430   23.9600 C   0  0  0  0  0  3  0  0  0  0  0  0
  -25.7300  -31.7330   25.1810 C   0  0  1  0  0  0  0  0  0  0  0  0
  -24.7000  -31.4730   26.3060 C   0  0  0  0  0  1  0  0  0  0  0  0
  -26.2760  -30.3650   24.7100 C   0  0  0  0  0  1  0  0  0  0  0  0
  -26.9210  -32.5050   25.7960 C   0  0  0  0  0  1  0  0  0  0  0  0
  -24.8810  -33.9370   24.3380 N   0  0  0  0  0  0  0  0  0  0  0  0
  -25.2440  -35.0020   23.6100 C   0  0  0  0  0  0  0  0  0  0  0  0
  -25.9050  -34.9120   22.5720 O   0  0  0  0  0  0  0  0  0  0  0  0
  -24.2950  -34.0820   25.1460 H   0  0  0  0  0  0  0  0  0  0  0  0
  -23.5770  -36.8590   23.3130 C   0  0  0  0  0  1  0  0  0  0  0  0
  -24.8010  -36.3890   24.1150 C   0  0  0  0  0  3  0  0  0  0  0  0
  -26.9570  -37.1770   24.9860 C   0  0  0  0  0  1  0  0  0  0  0  0
  -25.8670  -37.4100   24.0410 N   0  0  0  0  0  0  0  0  0  0  0  0
  -25.4900  -38.3370   24.2150 H   0  0  0  0  0  0  0  0  0  0  0  0
  -31.2730  -24.0240   21.9880 C   0  0  0  0  0  2  0  0  0  0  0  0
  -30.6020  -22.8510   22.7080 C   0  0  0  0  0  2  0  0  0  0  0  0
  -30.6260  -21.6400   21.7740 C   0  0  0  0  0  2  0  0  0  0  0  0
  -30.3280  -20.2910   22.4310 C   0  0  0  0  0  2  0  0  0  0  0  0
  -30.5150  -19.1940   21.3760 C   0  0  0  0  0  2  0  0  0  0  0  0
  -30.3650  -17.8250   21.9000 N   0  0  0  0  0  4  0  0  0  0  0  0
  -30.9460  -17.7120   22.7150 H   0  0  0  0  0  0  0  0  0  0  0  0
  -29.4070  -17.6830   22.1760 H   0  0  0  0  0  0  0  0  0  0  0  0
  -30.7690  -16.8340   20.8810 C   0  0  0  0  0  2  0  0  0  0  0  0
  -30.2620  -15.4110   21.1550 C   0  0  0  0  0  2  0  0  0  0  0  0
  -30.6700  -14.4590   20.0190 C   0  0  0  0  0  0  0  0  0  0  0  0
  -30.2270  -12.4440   18.6680 C   0  0  0  0  0  2  0  0  0  0  0  0
  -29.1850  -12.7360   17.5740 C   0  0  0  0  0  2  0  0  0  0  0  0
  -27.7520  -12.5800   18.1180 C   0  0  0  0  0  2  0  0  0  0  0  0
  -27.5370  -13.3290   19.4610 C   0  0  0  0  0  3  0  0  0  0  0  0
  -28.6740  -12.9960   20.4530 C   0  0  0  0  0  2  0  0  0  0  0  0
  -29.9520  -13.3310   19.8050 N   0  0  0  0  0  0  0  0  0  0  0  0
  -31.6420  -14.7590   19.3170 O   0  0  0  0  0  0  0  0  0  0  0  0
  -25.1810  -13.9030   20.3330 C   0  0  0  0  0  0  0  0  0  0  0  0
  -24.1520  -13.1120   20.7710 C   0  0  0  0  0  0  0  0  0  0  0  0
  -24.6280  -11.7680   20.6970 C   0  0  0  0  0  0  0  0  0  0  0  0
  -26.2210  -13.0370   20.0270 N   0  0  0  0  0  0  0  0  0  0  0  0
  -25.8940  -11.7480   20.2970 N   0  0  0  0  0  0  0  0  0  0  0  0
  -23.9380  -10.4930   20.9310 C   0  0  0  0  0  0  0  0  0  0  0  0
  -24.3770   -9.5880   21.9220 C   0  0  0  0  0  3  0  0  0  0  0  0
  -23.6870   -8.3760   22.1400 C   0  0  0  0  0  3  0  0  0  0  0  0
  -22.5450   -8.0610   21.3670 C   0  0  0  0  0  0  0  0  0  0  0  0
  -22.1260   -8.9560   20.3670 C   0  0  0  0  0  3  0  0  0  0  0  0
  -22.8160  -10.1600   20.1470 C   0  0  0  0  0  3  0  0  0  0  0  0
  -21.8270   -6.8960   21.4910 O   0  0  0  0  0  0  0  0  0  0  0  0
  -21.6810   -6.2650   22.7000 C   0  0  0  0  0  0  0  0  0  0  0  0
  -21.0760   -6.9040   23.8040 C   0  0  0  0  0  3  0  0  0  0  0  0
  -20.8820   -6.1960   25.0080 C   0  0  0  0  0  3  0  0  0  0  0  0
  -21.2840   -4.8500   25.1060 C   0  0  0  0  0  0  0  0  0  0  0  0
  -21.8840   -4.2110   24.0060 C   0  0  0  0  0  3  0  0  0  0  0  0
  -22.0780   -4.9170   22.8060 C   0  0  0  0  0  0  0  0  0  0  0  0
  -22.6350   -4.2910   21.7420 F   0  0  0  0  0  0  0  0  0  0  0  0
  -21.0920   -4.1680   26.2590 F   0  0  0  0  0  0  0  0  0  0  0  0
  -22.7710  -13.5670   21.1470 C   0  0  0  0  0  0  0  0  0  0  0  0
  -22.1210  -12.8550   22.0610 N   0  0  0  0  0  0  0  0  0  0  0  0
  -22.2790  -14.5860   20.6670 O   0  0  0  0  0  0  0  0  0  0  0  0
  -22.5330  -12.0300   22.4710 H   0  0  0  0  0  0  0  0  0  0  0  0
  -21.1970  -13.1400   22.3530 H   0  0  0  0  0  0  0  0  0  0  0  0
  -25.3160  -15.2770   20.1520 N   0  0  0  0  0  0  0  0  0  0  0  0
  -24.5530  -15.9250   20.3180 H   0  0  0  0  0  0  0  0  0  0  0  0
  -26.1360  -15.7240   19.7610 H   0  0  0  0  0  0  0  0  0  0  0  0
  2  1  1  0
  4  3  1  0
  4  2  1  0
  5  4  1  0
  6  5  1  0
  7  9  1  0
  7  6  1  0
  8 19  2  0
  9 14  1  0
 10 18  1  0
 10 20  1  0
 11 17  1  0
 11 13  1  0
 12 18  1  0
 13 12  1  0
 14 13  2  0
 15 16  1  0
 15  9  2  0
 16 11  2  0
 17 10  1  0
 18  8  1  0
 20 22  2  0
 21 20  1  0
 23 21  1  0
 24 33  2  0
 24 29  1  0
 25 21  1  0
 25 29  1  0
 26 25  1  0
 27 28  1  0
 27 26  1  0
 28 24  1  0
 29 30  2  0
 30 31  1  0
 32 31  2  0
 33 32  1  0
 34  8  1  0
 34 39  1  0
 34 35  1  0
 35 38  1  1
 35 36  1  0
 37 35  1  0
 39 42  1  0
 40 44  1  0
 40 39  1  0
 41 40  2  0
 44 43  1  0
 46 44  1  0
 46 47  1  0
 46 45  1  0
 48 49  1  0
 48  1  1  0
 50 51  1  0
 50 49  1  0
 52 53  1  0
 52 51  1  0
 53 55  1  0
 53 54  1  0
 56 57  1  0
 56 53  1  0
 58 57  1  0
 59 64  1  0
 60 61  1  0
 60 59  1  0
 62 61  1  0
 62 69  1  0
 62 63  1  0
 64 58  1  0
 64 63  1  0
 65 58  2  0
 66 67  2  0
 67 86  1  0
 68 67  1  0
 68 71  1  0
 69 70  1  0
 69 66  1  0
 70 68  2  0
 71 72  1  0
 72 73  2  0
 74 77  1  0
 74 73  1  0
 75 74  2  0
 76 75  1  0
 76 71  2  0
 77 78  1  0
 78 83  2  0
 78 79  1  0
 79 80  2  0
 80 81  1  0
 81 85  1  0
 82 81  2  0
 83 82  1  0
 84 83  1  0
 86 87  1  0
 87 90  1  0
 87 89  1  0
 88 86  2  0
 91 92  1  0
 91 66  1  0
 93 91  1  0
M  ISO  4   6 101   7 101  57 100  58 100
M  END
>  <TORSDO>  (69) 
F 28

>  <SCORE>  (69) 
-5.033

>  <name>  (69) 
68

>  <ligand_id>  (69) 
68

>  <original_smiles>  (69) 
[H]c1c([H])c([H])c2c(c1[H])C([H])([H])C([H])([H])C([H])([H])C2([H])N([H])C(=O)C1([H])N(C(=O)C([H])(N([H])C(=O)C([H])(N([H])C([H])([H])[H])C([H])([H])[H])C(C([H])([H])[H])(C([H])([H])[H])C([H])([H])[H])C([H])([H])c2c([H])c(OC([H])([H])C([H])([H])C([H])(C([H])([H])[H])C([H])([H])C([H])([H])C([H])([H])C([H])([H])C([H])([H])C([H])([H])C([H])([H])[N+]([H])([H])C([H])([H])C([H])([H])C(=O)N3C([H])([H])C([H])([H])C([H])([H])C([H])(n4nc(-c5c([H])c([H])c(Oc6c([H])c([H])c(F)c([H])c6F)c([H])c5[H])c(C(=O)N([H])[H])c4N([H])[H])C3([H])[H])c([H])c([H])c2C1([H])[H]

>  <smiles>  (69) 
[H]c1c([H])c([H])c2c(c1[H])C([H])([H])C([H])([H])C([H])([H])C2([H])N([H])C(=O)C1([H])N(C(=O)C([H])(N([H])C(=O)C([H])(N([H])C([H])([H])[H])C([H])([H])[H])C(C([H])([H])[H])(C([H])([H])[H])C([H])([H])[H])C([H])([H])c2c([H])c(OC([H])([H])C([H])([H])C([H])(C([H])([H])[H])C([H])([H])C([H])([H])C([H])([H])C([H])([H])C([H])([H])C([H])([H])C([H])([H])[N+]([H])([H])C([H])([H])C([H])([H])C(=O)N3C([H])([H])C([H])([H])C([H])([H])C([H])(n4nc(-c5c([H])c([H])c(Oc6c([H])c([H])c(F)c([H])c6F)c([H])c5[H])c(C(=O)N([H])[H])c4N([H])[H])C3([H])[H])c([H])c([H])c2C1([H])[H]

$$$$
69:0:0
     RDKit          3D

100109  0  0  1  0  0  0  0  0999 V2000
  -29.5250  -21.6160   24.2330 C   0  0  0  0  0  3  0  0  0  0  0  0
  -29.1960  -22.9890   24.2460 C   0  0  0  0  0  3  0  0  0  0  0  0
  -28.5970  -20.6760   23.7370 C   0  0  0  0  0  0  0  0  0  0  0  0
  -27.2970  -21.1120   23.4090 C   0  0  0  0  0  0  0  0  0  0  0  0
  -26.9710  -22.4590   23.4270 C   0  0  0  0  0  0  0  0  0  0  0  0
  -27.9350  -23.4310   23.7760 C   0  0  0  0  0  0  0  0  0  0  0  0
  -26.1480  -20.2980   22.8670 C   0  0  0  0  0  2  0  0  0  0  0  0
  -25.5670  -22.6600   22.8950 C   0  0  0  0  0  2  0  0  0  0  0  0
  -24.2280  -21.0840   21.4980 C   0  0  0  0  0  1  0  0  0  0  0  0
  -25.0410  -21.2780   22.7200 N   0  0  1  0  0  4  0  0  0  0  0  0
  -24.4390  -21.1110   23.5120 H   0  0  0  0  0  0  0  0  0  0  0  0
  -29.0530  -19.3290   23.3630 C   0  0  0  0  0  0  0  0  0  0  0  0
  -29.2360  -18.3920   24.1430 O   0  0  0  0  0  0  0  0  0  0  0  0
  -29.3170  -19.2240   21.8590 C   0  0  0  0  0  2  0  0  0  0  0  0
  -30.7700  -18.8890   21.5000 C   0  0  0  0  0  2  0  0  0  0  0  0
  -30.9680  -17.3780   21.3680 C   0  0  0  0  0  2  0  0  0  0  0  0
  -32.0130  -16.7680   22.3220 C   0  0  0  0  0  2  0  0  0  0  0  0
  -31.6610  -15.3670   22.8720 C   0  0  0  0  0  2  0  0  0  0  0  0
  -30.8800  -14.2000   20.7740 C   0  0  0  0  0  0  0  0  0  0  0  0
  -30.4010  -12.2640   19.3440 C   0  0  0  0  0  2  0  0  0  0  0  0
  -29.4580  -12.5320   18.1620 C   0  0  0  0  0  2  0  0  0  0  0  0
  -27.9920  -12.3770   18.6010 C   0  0  0  0  0  2  0  0  0  0  0  0
  -27.6660  -13.2000   19.8720 C   0  0  0  0  0  3  0  0  0  0  0  0
  -28.7090  -12.9460   20.9820 C   0  0  0  0  0  2  0  0  0  0  0  0
  -30.0630  -13.1780   20.4400 N   0  0  0  0  0  0  0  0  0  0  0  0
  -31.7930  -14.6180   20.0560 O   0  0  0  0  0  0  0  0  0  0  0  0
  -30.7530  -14.5600   22.0560 N   0  0  0  0  0  0  0  0  0  0  0  0
  -30.0000  -14.1050   22.5520 H   0  0  0  0  0  0  0  0  0  0  0  0
  -25.2620  -13.8180   20.5670 C   0  0  0  0  0  0  0  0  0  0  0  0
  -24.1850  -13.0460   20.9170 C   0  0  0  0  0  0  0  0  0  0  0  0
  -24.6390  -11.6930   20.8740 C   0  0  0  0  0  0  0  0  0  0  0  0
  -26.3050  -12.9330   20.3380 N   0  0  0  0  0  0  0  0  0  0  0  0
  -25.9320  -11.6490   20.5760 N   0  0  0  0  0  0  0  0  0  0  0  0
  -23.9060  -10.4300   21.0410 C   0  0  0  0  0  0  0  0  0  0  0  0
  -24.3610   -9.4220   21.9180 C   0  0  0  0  0  3  0  0  0  0  0  0
  -23.6290   -8.2250   22.0750 C   0  0  0  0  0  3  0  0  0  0  0  0
  -22.4270   -8.0290   21.3550 C   0  0  0  0  0  0  0  0  0  0  0  0
  -21.9900   -9.0260   20.4650 C   0  0  0  0  0  3  0  0  0  0  0  0
  -22.7230  -10.2140   20.3050 C   0  0  0  0  0  3  0  0  0  0  0  0
  -21.6640   -6.8880   21.4250 O   0  0  0  0  0  0  0  0  0  0  0  0
  -21.6850   -6.0740   22.5280 C   0  0  0  0  0  0  0  0  0  0  0  0
  -21.4010   -6.5640   23.8220 C   0  0  0  0  0  3  0  0  0  0  0  0
  -21.3660   -5.6790   24.9180 C   0  0  0  0  0  3  0  0  0  0  0  0
  -21.6040   -4.3060   24.7220 C   0  0  0  0  0  0  0  0  0  0  0  0
  -21.8820   -3.8150   23.4340 C   0  0  0  0  0  3  0  0  0  0  0  0
  -21.9190   -4.6970   22.3400 C   0  0  0  0  0  0  0  0  0  0  0  0
  -22.1660   -4.2150   21.0970 F   0  0  0  0  0  0  0  0  0  0  0  0
  -21.5630   -3.4530   25.7730 F   0  0  0  0  0  0  0  0  0  0  0  0
  -22.7880  -13.5270   21.1840 C   0  0  0  0  0  0  0  0  0  0  0  0
  -22.0510  -12.8250   22.0400 N   0  0  0  0  0  0  0  0  0  0  0  0
  -22.3570  -14.5570   20.6710 O   0  0  0  0  0  0  0  0  0  0  0  0
  -22.4090  -11.9890   22.4760 H   0  0  0  0  0  0  0  0  0  0  0  0
  -21.1140  -13.1300   22.2620 H   0  0  0  0  0  0  0  0  0  0  0  0
  -25.4370  -15.1880   20.4080 N   0  0  0  0  0  0  0  0  0  0  0  0
  -24.6760  -15.8500   20.5160 H   0  0  0  0  0  0  0  0  0  0  0  0
  -26.2990  -15.6200   20.0970 H   0  0  0  0  0  0  0  0  0  0  0  0
  -27.7010  -24.9110   23.5180 C   0  0  0  0  0  2  0  0  0  0  0  0
  -27.6600  -25.2200   22.0030 C   0  0  0  0  0  2  0  0  0  0  0  0
  -28.6600  -26.2960   21.5180 C   0  0  0  0  0  2  0  0  0  0  0  0
  -28.3590  -26.6960   20.1720 O   0  0  0  0  0  0  0  0  0  0  0  0
  -24.6090  -31.8710   23.2050 C   0  0  0  0  0  0  0  0  0  0  0  0
  -27.2330  -27.4770   20.0990 C   0  0  0  0  0  0  0  0  0  0  0  0
  -23.3960  -30.4900   21.5420 C   0  0  0  0  0  3  0  0  0  0  0  0
  -24.8450  -28.9610   20.1080 C   0  0  0  0  0  0  0  0  0  0  0  0
  -25.9170  -30.8520   21.3490 C   0  0  0  0  0  2  0  0  0  0  0  0
  -25.9980  -29.4900   20.6990 C   0  0  0  0  0  0  0  0  0  0  0  0
  -27.1960  -28.7530   20.6970 C   0  0  0  0  0  3  0  0  0  0  0  0
  -26.0780  -26.9610   19.4820 C   0  0  0  0  0  3  0  0  0  0  0  0
  -24.8740  -27.6940   19.4970 C   0  0  0  0  0  3  0  0  0  0  0  0
  -23.6030  -29.8190   20.1560 C   0  0  0  0  0  2  0  0  0  0  0  0
  -24.6570  -31.0880   22.0890 N   0  0  0  0  0  0  0  0  0  0  0  0
  -23.5300  -32.1400   23.7500 O   0  0  0  0  0  0  0  0  0  0  0  0
  -22.7430  -29.4640   22.4950 C   0  0  0  0  0  0  0  0  0  0  0  0
  -21.4160  -29.3020   22.3770 N   0  0  0  0  0  0  0  0  0  0  0  0
  -23.4240  -28.8200   23.2990 O   0  0  0  0  0  0  0  0  0  0  0  0
  -20.9300  -29.8800   21.7060 H   0  0  0  0  0  0  0  0  0  0  0  0
  -18.0290  -28.1390   22.8450 C   0  0  0  0  0  0  0  0  0  0  0  0
  -20.5880  -28.3650   23.1320 C   0  0  0  0  0  3  0  0  0  0  0  0
  -20.6760  -26.9380   22.5410 C   0  0  0  0  0  2  0  0  0  0  0  0
  -19.5760  -26.6370   21.5190 C   0  0  0  0  0  2  0  0  0  0  0  0
  -18.1930  -26.7930   22.1600 C   0  0  0  0  0  2  0  0  0  0  0  0
  -19.1540  -28.8840   23.2870 C   0  0  0  0  0  0  0  0  0  0  0  0
  -18.9450  -30.1450   23.8890 C   0  0  0  0  0  3  0  0  0  0  0  0
  -17.6440  -30.6570   24.0560 C   0  0  0  0  0  3  0  0  0  0  0  0
  -16.5330  -29.9070   23.6330 C   0  0  0  0  0  3  0  0  0  0  0  0
  -16.7270  -28.6500   23.0330 C   0  0  0  0  0  3  0  0  0  0  0  0
  -25.8990  -32.4820   23.8380 C   0  0  0  0  0  3  0  0  0  0  0  0
  -26.4410  -31.6560   25.0700 C   0  0  1  0  0  0  0  0  0  0  0  0
  -25.3690  -31.3650   26.1470 C   0  0  0  0  0  1  0  0  0  0  0  0
  -27.0180  -30.2980   24.6010 C   0  0  0  0  0  1  0  0  0  0  0  0
  -27.6010  -32.4260   25.7440 C   0  0  0  0  0  1  0  0  0  0  0  0
  -25.5870  -33.8630   24.2330 N   0  0  0  0  0  0  0  0  0  0  0  0
  -25.9000  -34.9480   23.5120 C   0  0  0  0  0  0  0  0  0  0  0  0
  -26.5590  -34.8920   22.4680 O   0  0  0  0  0  0  0  0  0  0  0  0
  -25.0060  -33.9780   25.0490 H   0  0  0  0  0  0  0  0  0  0  0  0
  -24.1480  -36.7370   23.2640 C   0  0  0  0  0  1  0  0  0  0  0  0
  -25.4080  -36.3120   24.0330 C   0  0  0  0  0  3  0  0  0  0  0  0
  -27.5560  -37.1820   24.8450 C   0  0  0  0  0  1  0  0  0  0  0  0
  -26.4270  -37.3820   23.9410 N   0  0  0  0  0  0  0  0  0  0  0  0
  -26.0160  -38.2900   24.1390 H   0  0  0  0  0  0  0  0  0  0  0  0
  1  2  1  0
  3  1  2  0
  4  5  2  0
  4  3  1  0
  5  6  1  0
  6  2  2  0
  7  4  1  0
  8  5  1  0
  9 10  1  0
 10  7  1  0
 10  8  1  0
 10 11  1  1
 12  3  1  0
 12 13  2  0
 14 12  1  0
 15 14  1  0
 16 15  1  0
 16 17  1  0
 17 18  1  0
 19 27  1  0
 20 25  1  0
 21 22  1  0
 21 20  1  0
 23 22  1  0
 23 32  1  0
 23 24  1  0
 25 19  1  0
 25 24  1  0
 26 19  2  0
 27 28  1  0
 27 18  1  0
 29 30  2  0
 30 49  1  0
 31 30  1  0
 31 34  1  0
 32 29  1  0
 32 33  1  0
 33 31  2  0
 34 35  1  0
 35 36  2  0
 37 40  1  0
 37 36  1  0
 38 37  2  0
 39 38  1  0
 39 34  2  0
 40 41  1  0
 41 42  1  0
 42 43  2  0
 44 43  1  0
 44 48  1  0
 45 44  2  0
 46 41  2  0
 46 45  1  0
 47 46  1  0
 49 50  1  0
 50 53  1  0
 50 52  1  0
 51 49  2  0
 54 55  1  0
 54 29  1  0
 56 54  1  0
 57  6  1  0
 58 57  1  0
 59 58  1  0
 60 59  1  0
 61 72  2  0
 62 60  1  0
 62 67  1  0
 63 71  1  0
 63 73  1  0
 64 70  1  0
 64 66  1  0
 65 71  1  0
 66 65  1  0
 67 66  2  0
 68 69  1  0
 68 62  2  0
 69 64  2  0
 70 63  1  0
 71 61  1  0
 73 75  2  0
 74 73  1  0
 76 74  1  0
 77 86  2  0
 77 82  1  0
 78 74  1  0
 78 82  1  0
 79 78  1  0
 80 81  1  0
 80 79  1  0
 81 77  1  0
 82 83  2  0
 83 84  1  0
 85 84  2  0
 86 85  1  0
 87 61  1  0
 87 92  1  0
 87 88  1  0
 88 91  1  1
 88 89  1  0
 90 88  1  0
 92 95  1  0
 93 97  1  0
 93 92  1  0
 94 93  2  0
 97 96  1  0
 99 97  1  0
 99100  1  0
 99 98  1  0
M  ISO  4  19 100  27 100  59 101  60 101
M  END
>  <TORSDO>  (70) 
F 25

>  <SCORE>  (70) 
38.218

>  <name>  (70) 
69

>  <ligand_id>  (70) 
69

>  <original_smiles>  (70) 
[H]c1c([H])c([H])c2c(c1[H])C([H])([H])C([H])([H])C([H])([H])C2([H])N([H])C(=O)C1([H])N(C(=O)C([H])(N([H])C(=O)C([H])(N([H])C([H])([H])[H])C([H])([H])[H])C(C([H])([H])[H])(C([H])([H])[H])C([H])([H])[H])C([H])([H])c2c([H])c(OC([H])([H])C([H])([H])C([H])([H])c3c([H])c([H])c(C(=O)C([H])([H])C([H])([H])C([H])([H])C([H])([H])C([H])([H])N([H])C(=O)N4C([H])([H])C([H])([H])C([H])([H])C([H])(n5nc(-c6c([H])c([H])c(Oc7c([H])c([H])c(F)c([H])c7F)c([H])c6[H])c(C(=O)N([H])[H])c5N([H])[H])C4([H])[H])c4c3C([H])([H])[N+]([H])(C([H])([H])[H])C4([H])[H])c([H])c([H])c2C1([H])[H]

>  <smiles>  (70) 
[H]c1c([H])c([H])c2c(c1[H])C([H])([H])C([H])([H])C([H])([H])C2([H])N([H])C(=O)C1([H])N(C(=O)C([H])(N([H])C(=O)C([H])(N([H])C([H])([H])[H])C([H])([H])[H])C(C([H])([H])[H])(C([H])([H])[H])C([H])([H])[H])C([H])([H])c2c([H])c(OC([H])([H])C([H])([H])C([H])([H])c3c([H])c([H])c(C(=O)C([H])([H])C([H])([H])C([H])([H])C([H])([H])C([H])([H])N([H])C(=O)N4C([H])([H])C([H])([H])C([H])([H])C([H])(n5nc(-c6c([H])c([H])c(Oc7c([H])c([H])c(F)c([H])c7F)c([H])c6[H])c(C(=O)N([H])[H])c5N([H])[H])C4([H])[H])c4c3C([H])([H])[N+]([H])(C([H])([H])[H])C4([H])[H])c([H])c([H])c2C1([H])[H]

$$$$
70:0:0
     RDKit          3D

 98105  0  0  1  0  0  0  0  0999 V2000
  -25.1740  -26.5510   15.4860 C   0  0  0  0  0  2  0  0  0  0  0  0
  -26.6860  -26.4970   15.2070 C   0  0  0  0  0  0  0  0  0  0  0  0
  -27.1160  -26.9990   14.1670 O   0  0  0  0  0  0  0  0  0  0  0  0
  -27.6450  -25.8050   16.1960 C   0  0  0  0  0  2  0  0  0  0  0  0
  -29.6470  -27.4010   15.9810 C   0  0  0  0  0  1  0  0  0  0  0  0
  -28.6410  -26.7310   16.9420 C   0  0  0  0  0  3  0  0  0  0  0  0
  -29.4170  -25.9440   18.0270 C   0  0  0  0  0  2  0  0  0  0  0  0
  -28.6050  -25.5160   19.2620 C   0  0  0  0  0  2  0  0  0  0  0  0
  -28.3810  -26.6470   20.1060 O   0  0  0  0  0  0  0  0  0  0  0  0
  -24.6110  -31.7760   23.2230 C   0  0  0  0  0  0  0  0  0  0  0  0
  -27.1900  -27.3400   20.0820 C   0  0  0  0  0  0  0  0  0  0  0  0
  -23.3840  -30.4130   21.5630 C   0  0  0  0  0  3  0  0  0  0  0  0
  -24.8100  -28.8740   20.1180 C   0  0  0  0  0  0  0  0  0  0  0  0
  -25.9160  -30.7320   21.3780 C   0  0  0  0  0  2  0  0  0  0  0  0
  -25.9740  -29.3730   20.7140 C   0  0  0  0  0  0  0  0  0  0  0  0
  -27.1620  -28.6100   20.6980 C   0  0  0  0  0  3  0  0  0  0  0  0
  -25.9960  -26.8400   19.5110 C   0  0  0  0  0  3  0  0  0  0  0  0
  -24.8140  -27.6020   19.5220 C   0  0  0  0  0  3  0  0  0  0  0  0
  -23.5820  -29.7520   20.1740 C   0  0  0  0  0  2  0  0  0  0  0  0
  -24.6540  -30.9890   22.1120 N   0  0  0  0  0  0  0  0  0  0  0  0
  -23.5340  -32.0620   23.7630 O   0  0  0  0  0  0  0  0  0  0  0  0
  -22.7170  -29.3890   22.5070 C   0  0  0  0  0  0  0  0  0  0  0  0
  -21.3910  -29.2260   22.3680 N   0  0  0  0  0  0  0  0  0  0  0  0
  -23.3870  -28.7460   23.3200 O   0  0  0  0  0  0  0  0  0  0  0  0
  -20.9140  -29.7910   21.6800 H   0  0  0  0  0  0  0  0  0  0  0  0
  -18.0000  -28.0790   22.8340 C   0  0  0  0  0  0  0  0  0  0  0  0
  -20.5570  -28.2940   23.1250 C   0  0  0  0  0  3  0  0  0  0  0  0
  -20.6440  -26.8690   22.5360 C   0  0  0  0  0  2  0  0  0  0  0  0
  -19.5460  -26.5710   21.5110 C   0  0  0  0  0  2  0  0  0  0  0  0
  -18.1620  -26.7330   22.1450 C   0  0  0  0  0  2  0  0  0  0  0  0
  -19.1260  -28.8190   23.2790 C   0  0  0  0  0  0  0  0  0  0  0  0
  -18.9240  -30.0800   23.8820 C   0  0  0  0  0  3  0  0  0  0  0  0
  -17.6260  -30.6010   24.0430 C   0  0  0  0  0  3  0  0  0  0  0  0
  -16.5140  -29.8560   23.6160 C   0  0  0  0  0  3  0  0  0  0  0  0
  -16.7010  -28.5970   23.0180 C   0  0  0  0  0  3  0  0  0  0  0  0
  -25.9090  -32.3750   23.8510 C   0  0  0  0  0  3  0  0  0  0  0  0
  -25.6230  -33.7750   24.1970 N   0  0  0  0  0  0  0  0  0  0  0  0
  -25.9830  -34.8300   23.4560 C   0  0  0  0  0  0  0  0  0  0  0  0
  -26.6620  -34.7300   22.4310 O   0  0  0  0  0  0  0  0  0  0  0  0
  -25.0200  -33.9320   24.9920 H   0  0  0  0  0  0  0  0  0  0  0  0
  -24.2870  -36.6540   23.1180 C   0  0  0  0  0  1  0  0  0  0  0  0
  -25.5150  -36.2170   23.9320 C   0  0  0  0  0  3  0  0  0  0  0  0
  -27.6540  -37.0500   24.8010 C   0  0  0  0  0  1  0  0  0  0  0  0
  -26.5660  -37.2530   23.8490 N   0  0  0  0  0  0  0  0  0  0  0  0
  -26.1720  -38.1770   24.0060 H   0  0  0  0  0  0  0  0  0  0  0  0
  -26.4200  -31.5790   25.1150 C   0  0  1  0  0  0  0  0  0  0  0  0
  -25.3240  -31.3390   26.1780 C   0  0  0  0  0  1  0  0  0  0  0  0
  -26.9860  -30.2000   24.7050 C   0  0  0  0  0  1  0  0  0  0  0  0
  -27.5820  -32.3520   25.7870 C   0  0  0  0  0  1  0  0  0  0  0  0
  -24.6110  -25.5730   16.5330 C   0  0  0  0  0  2  0  0  0  0  0  0
  -24.6140  -24.0910   16.1110 C   0  0  0  0  0  2  0  0  0  0  0  0
  -24.6880  -23.1460   17.3250 C   0  0  0  0  0  2  0  0  0  0  0  0
  -25.7390  -22.0420   17.1530 C   0  0  0  0  0  2  0  0  0  0  0  0
  -25.9270  -21.2310   18.4430 C   0  0  0  0  0  2  0  0  0  0  0  0
  -27.2110  -20.3980   18.4140 C   0  0  0  0  0  2  0  0  0  0  0  0
  -27.4290  -19.5690   19.6880 C   0  0  0  0  0  2  0  0  0  0  0  0
  -28.8670  -19.0430   19.7440 C   0  0  0  0  0  2  0  0  0  0  0  0
  -29.1270  -18.0350   20.8710 C   0  0  0  0  0  2  0  0  0  0  0  0
  -30.6250  -17.6940   20.9650 C   0  0  0  0  0  2  0  0  0  0  0  0
  -30.9470  -16.4980   21.8790 C   0  0  0  0  0  2  0  0  0  0  0  0
  -30.7970  -14.5180   20.3690 C   0  0  0  0  0  0  0  0  0  0  0  0
  -30.3740  -12.5220   18.9840 C   0  0  0  0  0  2  0  0  0  0  0  0
  -29.3940  -12.8390   17.8390 C   0  0  0  0  0  2  0  0  0  0  0  0
  -27.9350  -12.6870   18.3090 C   0  0  0  0  0  2  0  0  0  0  0  0
  -27.6590  -13.4410   19.6350 C   0  0  0  0  0  3  0  0  0  0  0  0
  -28.7360  -13.0990   20.6870 C   0  0  0  0  0  2  0  0  0  0  0  0
  -30.0600  -13.4070   20.1130 N   0  0  0  0  0  0  0  0  0  0  0  0
  -31.8050  -14.8300   19.7280 O   0  0  0  0  0  0  0  0  0  0  0  0
  -30.3570  -15.2560   21.3960 N   0  0  0  0  0  0  0  0  0  0  0  0
  -29.5360  -14.9160   21.8750 H   0  0  0  0  0  0  0  0  0  0  0  0
  -25.2680  -14.0390   20.3870 C   0  0  0  0  0  0  0  0  0  0  0  0
  -24.2110  -13.2590   20.7750 C   0  0  0  0  0  0  0  0  0  0  0  0
  -24.6790  -11.9100   20.7310 C   0  0  0  0  0  0  0  0  0  0  0  0
  -26.3140  -13.1630   20.1350 N   0  0  0  0  0  0  0  0  0  0  0  0
  -25.9620  -11.8780   20.3960 N   0  0  0  0  0  0  0  0  0  0  0  0
  -23.9640  -10.6430   20.9340 C   0  0  0  0  0  0  0  0  0  0  0  0
  -24.4080   -9.6880   21.8740 C   0  0  0  0  0  3  0  0  0  0  0  0
  -23.6950   -8.4850   22.0640 C   0  0  0  0  0  3  0  0  0  0  0  0
  -22.5230   -8.2290   21.3130 C   0  0  0  0  0  0  0  0  0  0  0  0
  -22.0970   -9.1750   20.3630 C   0  0  0  0  0  3  0  0  0  0  0  0
  -22.8120  -10.3690   20.1720 C   0  0  0  0  0  3  0  0  0  0  0  0
  -21.7800   -7.0770   21.4120 O   0  0  0  0  0  0  0  0  0  0  0  0
  -21.7270   -6.3530   22.5740 C   0  0  0  0  0  0  0  0  0  0  0  0
  -21.2750   -6.9180   23.7860 C   0  0  0  0  0  3  0  0  0  0  0  0
  -21.1720   -6.1180   24.9420 C   0  0  0  0  0  3  0  0  0  0  0  0
  -21.5090   -4.7520   24.8860 C   0  0  0  0  0  0  0  0  0  0  0  0
  -21.9530   -4.1860   23.6780 C   0  0  0  0  0  3  0  0  0  0  0  0
  -22.0590   -4.9830   22.5250 C   0  0  0  0  0  0  0  0  0  0  0  0
  -22.4670   -4.4270   21.3590 F   0  0  0  0  0  0  0  0  0  0  0  0
  -21.4020   -3.9810   25.9930 F   0  0  0  0  0  0  0  0  0  0  0  0
  -22.8170  -13.7280   21.0790 C   0  0  0  0  0  0  0  0  0  0  0  0
  -22.1100  -13.0210   21.9550 N   0  0  0  0  0  0  0  0  0  0  0  0
  -22.3630  -14.7550   20.5750 O   0  0  0  0  0  0  0  0  0  0  0  0
  -22.4890  -12.1890   22.3810 H   0  0  0  0  0  0  0  0  0  0  0  0
  -21.1750  -13.3160   22.1990 H   0  0  0  0  0  0  0  0  0  0  0  0
  -25.4240  -15.4100   20.2090 N   0  0  0  0  0  0  0  0  0  0  0  0
  -24.6590  -16.0640   20.3360 H   0  0  0  0  0  0  0  0  0  0  0  0
  -26.2730  -15.8520   19.8800 H   0  0  0  0  0  0  0  0  0  0  0  0
  1 50  1  0
  2  1  1  0
  2  4  1  0
  3  2  2  0
  4  6  1  0
  6  5  1  0
  6  7  1  0
  7  8  1  0
  8  9  1  0
 10 21  2  0
 11  9  1  0
 11 16  1  0
 12 20  1  0
 12 22  1  0
 13 19  1  0
 13 15  1  0
 14 20  1  0
 15 14  1  0
 16 15  2  0
 17 18  1  0
 17 11  2  0
 18 13  2  0
 19 12  1  0
 20 10  1  0
 22 24  2  0
 23 22  1  0
 25 23  1  0
 26 35  2  0
 26 31  1  0
 27 23  1  0
 27 31  1  0
 28 27  1  0
 29 30  1  0
 29 28  1  0
 30 26  1  0
 31 32  2  0
 32 33  1  0
 34 33  2  0
 35 34  1  0
 36 10  1  0
 36 37  1  0
 36 46  1  0
 37 40  1  0
 38 42  1  0
 38 37  1  0
 39 38  2  0
 42 41  1  0
 44 42  1  0
 44 45  1  0
 44 43  1  0
 46 49  1  1
 46 47  1  0
 48 46  1  0
 51 50  1  0
 51 52  1  0
 53 52  1  0
 53 54  1  0
 55 54  1  0
 55 56  1  0
 56 57  1  0
 57 58  1  0
 58 59  1  0
 59 60  1  0
 61 69  1  0
 62 67  1  0
 63 64  1  0
 63 62  1  0
 65 64  1  0
 65 74  1  0
 65 66  1  0
 67 61  1  0
 67 66  1  0
 68 61  2  0
 69 70  1  0
 69 60  1  0
 71 72  2  0
 72 91  1  0
 73 72  1  0
 73 76  1  0
 74 71  1  0
 74 75  1  0
 75 73  2  0
 76 77  1  0
 77 78  2  0
 79 82  1  0
 79 78  1  0
 80 79  2  0
 81 80  1  0
 81 76  2  0
 82 83  1  0
 83 84  1  0
 84 85  2  0
 86 85  1  0
 86 90  1  0
 87 86  2  0
 88 83  2  0
 88 87  1  0
 89 88  1  0
 91 92  1  0
 92 95  1  0
 92 94  1  0
 93 91  2  0
 96 97  1  0
 96 71  1  0
 98 96  1  0
M  ISO  4   8 101   9 101  61 100  69 100
M  END
>  <TORSDO>  (71) 
F 32

>  <SCORE>  (71) 
-10.271

>  <name>  (71) 
70

>  <ligand_id>  (71) 
70

>  <original_smiles>  (71) 
[H]c1c([H])c([H])c2c(c1[H])C([H])([H])C([H])([H])C([H])([H])C2([H])N([H])C(=O)C1([H])N(C(=O)C([H])(N([H])C(=O)C([H])(N([H])C([H])([H])[H])C([H])([H])[H])C(C([H])([H])[H])(C([H])([H])[H])C([H])([H])[H])C([H])([H])c2c([H])c(OC([H])([H])C([H])([H])C([H])(C([H])([H])[H])C([H])([H])C(=O)C([H])([H])C([H])([H])C([H])([H])C([H])([H])C([H])([H])C([H])([H])C([H])([H])C([H])([H])C([H])([H])C([H])([H])C([H])([H])C([H])([H])N([H])C(=O)N3C([H])([H])C([H])([H])C([H])([H])C([H])(n4nc(-c5c([H])c([H])c(Oc6c([H])c([H])c(F)c([H])c6F)c([H])c5[H])c(C(=O)N([H])[H])c4N([H])[H])C3([H])[H])c([H])c([H])c2C1([H])[H]

>  <smiles>  (71) 
[H]c1c([H])c([H])c2c(c1[H])C([H])([H])C([H])([H])C([H])([H])C2([H])N([H])C(=O)C1([H])N(C(=O)C([H])(N([H])C(=O)C([H])(N([H])C([H])([H])[H])C([H])([H])[H])C(C([H])([H])[H])(C([H])([H])[H])C([H])([H])[H])C([H])([H])c2c([H])c(OC([H])([H])C([H])([H])C([H])(C([H])([H])[H])C([H])([H])C(=O)C([H])([H])C([H])([H])C([H])([H])C([H])([H])C([H])([H])C([H])([H])C([H])([H])C([H])([H])C([H])([H])C([H])([H])C([H])([H])C([H])([H])N([H])C(=O)N3C([H])([H])C([H])([H])C([H])([H])C([H])(n4nc(-c5c([H])c([H])c(Oc6c([H])c([H])c(F)c([H])c6F)c([H])c5[H])c(C(=O)N([H])[H])c4N([H])[H])C3([H])[H])c([H])c([H])c2C1([H])[H]

$$$$
71:0:0
     RDKit          3D

101109  0  0  1  0  0  0  0  0999 V2000
  -33.2310  -22.3050   25.7570 C   0  0  0  0  0  3  0  0  0  0  0  0
  -31.3110  -23.0960   24.4850 C   0  0  0  0  0  3  0  0  0  0  0  0
  -33.3570  -21.2070   24.8750 C   0  0  0  0  0  3  0  0  0  0  0  0
  -31.4380  -22.0040   23.6090 C   0  0  0  0  0  3  0  0  0  0  0  0
  -32.2140  -23.2680   25.5580 C   0  0  0  0  0  0  0  0  0  0  0  0
  -32.4610  -21.0560   23.7930 C   0  0  0  0  0  0  0  0  0  0  0  0
  -32.0620  -24.4620   26.4600 C   0  0  0  0  0  0  0  0  0  0  0  0
  -32.5650  -25.5870   25.9410 N   0  0  0  0  0  0  0  0  0  0  0  0
  -31.5110  -24.3880   27.5620 O   0  0  0  0  0  0  0  0  0  0  0  0
  -33.0720  -25.4740   25.0750 H   0  0  0  0  0  0  0  0  0  0  0  0
  -32.3380  -26.9620   26.3780 C   0  0  0  0  0  2  0  0  0  0  0  0
  -33.0950  -27.9340   25.4480 C   0  0  0  0  0  2  0  0  0  0  0  0
  -34.2300  -27.2770   24.6240 C   0  0  0  0  0  2  0  0  0  0  0  0
  -34.6080  -28.1170   23.3990 C   0  0  0  0  0  2  0  0  0  0  0  0
  -34.4070  -27.4020   22.0510 C   0  0  0  0  0  2  0  0  0  0  0  0
  -35.3090  -28.0370   20.9830 C   0  0  0  0  0  2  0  0  0  0  0  0
  -34.7010  -28.1800   19.5640 C   0  0  0  0  0  2  0  0  0  0  0  0
  -35.6190  -27.5300   18.5120 C   0  0  0  0  0  0  0  0  0  0  0  0
  -35.9010  -26.3880   16.3460 C   0  0  0  0  0  2  0  0  0  0  0  0
  -36.6440  -27.2550   15.3180 C   0  0  0  0  0  2  0  0  0  0  0  0
  -35.6440  -28.1300   14.5460 C   0  0  0  0  0  2  0  0  0  0  0  0
  -34.7000  -28.9180   15.4930 C   0  0  0  0  0  3  0  0  0  0  0  0
  -34.0790  -27.9970   16.5740 C   0  0  0  0  0  2  0  0  0  0  0  0
  -35.1660  -27.2770   17.2570 N   0  0  0  0  0  0  0  0  0  0  0  0
  -36.7350  -27.1530   18.8850 O   0  0  0  0  0  0  0  0  0  0  0  0
  -33.8020  -30.7310   13.8970 C   0  0  0  0  0  0  0  0  0  0  0  0
  -32.5530  -30.9590   13.3800 C   0  0  0  0  0  0  0  0  0  0  0  0
  -31.7070  -29.9520   13.9360 C   0  0  0  0  0  0  0  0  0  0  0  0
  -33.6730  -29.6330   14.7350 N   0  0  0  0  0  0  0  0  0  0  0  0
  -32.3870  -29.1980   14.7910 N   0  0  0  0  0  0  0  0  0  0  0  0
  -30.3000  -29.6300   13.6630 C   0  0  0  0  0  0  0  0  0  0  0  0
  -29.4030  -29.3020   14.7030 C   0  0  0  0  0  3  0  0  0  0  0  0
  -28.0500  -29.0130   14.4180 C   0  0  0  0  0  3  0  0  0  0  0  0
  -27.5820  -29.0560   13.0820 C   0  0  0  0  0  0  0  0  0  0  0  0
  -28.4850  -29.3580   12.0480 C   0  0  0  0  0  3  0  0  0  0  0  0
  -29.8310  -29.6400   12.3330 C   0  0  0  0  0  3  0  0  0  0  0  0
  -26.2910  -28.7630   12.7070 O   0  0  0  0  0  0  0  0  0  0  0  0
  -25.2570  -28.8070   13.6040 C   0  0  0  0  0  0  0  0  0  0  0  0
  -25.2130  -29.7580   14.6490 C   0  0  0  0  0  3  0  0  0  0  0  0
  -24.0950  -29.8120   15.5050 C   0  0  0  0  0  3  0  0  0  0  0  0
  -23.0170  -28.9270   15.3150 C   0  0  0  0  0  0  0  0  0  0  0  0
  -23.0540  -27.9860   14.2710 C   0  0  0  0  0  3  0  0  0  0  0  0
  -24.1700  -27.9280   13.4180 C   0  0  0  0  0  0  0  0  0  0  0  0
  -24.1920  -27.0320   12.4020 F   0  0  0  0  0  0  0  0  0  0  0  0
  -21.9400  -28.9850   16.1310 F   0  0  0  0  0  0  0  0  0  0  0  0
  -32.1860  -31.9930   12.3540 C   0  0  0  0  0  0  0  0  0  0  0  0
  -30.9510  -32.4820   12.3950 N   0  0  0  0  0  0  0  0  0  0  0  0
  -33.0100  -32.4090   11.5420 O   0  0  0  0  0  0  0  0  0  0  0  0
  -30.2810  -32.1540   13.0730 H   0  0  0  0  0  0  0  0  0  0  0  0
  -30.6720  -33.1950   11.7350 H   0  0  0  0  0  0  0  0  0  0  0  0
  -35.0330  -31.3510   13.7140 N   0  0  0  0  0  0  0  0  0  0  0  0
  -35.1630  -32.1230   13.0680 H   0  0  0  0  0  0  0  0  0  0  0  0
  -35.8960  -31.0570   14.1560 H   0  0  0  0  0  0  0  0  0  0  0  0
  -32.5540  -19.8770   22.8360 C   0  0  0  0  0  2  0  0  0  0  0  0
  -31.4700  -19.8730   21.7430 C   0  0  0  0  0  2  0  0  0  0  0  0
  -31.8560  -19.0870   20.4840 C   0  0  0  0  0  0  0  0  0  0  0  0
  -32.5530  -18.0760   20.5770 O   0  0  0  0  0  0  0  0  0  0  0  0
  -31.3760  -19.5750   19.1150 C   0  0  0  0  0  2  0  0  0  0  0  0
  -32.3870  -20.5320   18.4500 C   0  0  0  0  0  2  0  0  0  0  0  0
  -33.8670  -20.1220   18.6300 C   0  0  0  0  0  2  0  0  0  0  0  0
  -34.7990  -20.7360   17.7360 O   0  0  0  0  0  0  0  0  0  0  0  0
  -36.9610  -14.2710   15.9600 C   0  0  0  0  0  0  0  0  0  0  0  0
  -35.2770  -19.9640   16.7080 C   0  0  0  0  0  0  0  0  0  0  0  0
  -37.4790  -16.0480   14.3170 C   0  0  0  0  0  3  0  0  0  0  0  0
  -36.3170  -18.2820   14.6970 C   0  0  0  0  0  0  0  0  0  0  0  0
  -35.4360  -16.2380   15.8390 C   0  0  0  0  0  2  0  0  0  0  0  0
  -35.6100  -17.7360   15.7750 C   0  0  0  0  0  0  0  0  0  0  0  0
  -35.0850  -18.5710   16.7780 C   0  0  0  0  0  3  0  0  0  0  0  0
  -35.9740  -20.5150   15.6070 C   0  0  0  0  0  3  0  0  0  0  0  0
  -36.5050  -19.6730   14.6090 C   0  0  0  0  0  3  0  0  0  0  0  0
  -36.8420  -17.3040   13.6680 C   0  0  0  0  0  2  0  0  0  0  0  0
  -36.6390  -15.4800   15.4200 N   0  0  0  0  0  0  0  0  0  0  0  0
  -37.9060  -13.6060   15.5170 O   0  0  0  0  0  0  0  0  0  0  0  0
  -38.9230  -16.3940   14.7540 C   0  0  0  0  0  0  0  0  0  0  0  0
  -39.5660  -17.3070   14.0070 N   0  0  0  0  0  0  0  0  0  0  0  0
  -39.4290  -15.8630   15.7450 O   0  0  0  0  0  0  0  0  0  0  0  0
  -39.0890  -17.6740   13.1980 H   0  0  0  0  0  0  0  0  0  0  0  0
  -42.0100  -19.6910   12.8380 C   0  0  0  0  0  0  0  0  0  0  0  0
  -40.9150  -17.8230   14.2470 C   0  0  0  0  0  3  0  0  0  0  0  0
  -40.9280  -18.8360   15.4170 C   0  0  0  0  0  2  0  0  0  0  0  0
  -40.7650  -20.2870   14.9570 C   0  0  0  0  0  2  0  0  0  0  0  0
  -41.8750  -20.6810   13.9840 C   0  0  0  0  0  2  0  0  0  0  0  0
  -41.5410  -18.3560   12.9560 C   0  0  0  0  0  0  0  0  0  0  0  0
  -41.6480  -17.4950   11.8380 C   0  0  0  0  0  3  0  0  0  0  0  0
  -42.2170  -17.9410   10.6310 C   0  0  0  0  0  3  0  0  0  0  0  0
  -42.7000  -19.2570   10.5280 C   0  0  0  0  0  3  0  0  0  0  0  0
  -42.6010  -20.1250   11.6310 C   0  0  0  0  0  3  0  0  0  0  0  0
  -36.1410  -13.6530   17.1350 C   0  0  0  0  0  3  0  0  0  0  0  0
  -36.6690  -12.3040   17.3790 N   0  0  0  0  0  0  0  0  0  0  0  0
  -35.9950  -11.1690   17.1550 C   0  0  0  0  0  0  0  0  0  0  0  0
  -34.8170  -11.1490   16.7880 O   0  0  0  0  0  0  0  0  0  0  0  0
  -37.6480  -12.2380   17.6180 H   0  0  0  0  0  0  0  0  0  0  0  0
  -37.0820   -9.2070   16.0150 C   0  0  0  0  0  1  0  0  0  0  0  0
  -36.7490   -9.8420   17.3740 C   0  0  0  0  0  3  0  0  0  0  0  0
  -35.8470   -9.3050   19.5930 C   0  0  0  0  0  1  0  0  0  0  0  0
  -36.0030   -8.8720   18.2060 N   0  0  0  0  0  0  0  0  0  0  0  0
  -36.4640   -7.9650   18.2040 H   0  0  0  0  0  0  0  0  0  0  0  0
  -36.1750  -14.5240   18.4510 C   0  0  1  0  0  0  0  0  0  0  0  0
  -37.6020  -14.9040   18.9090 C   0  0  0  0  0  1  0  0  0  0  0  0
  -35.3650  -15.8290   18.2510 C   0  0  0  0  0  1  0  0  0  0  0  0
  -35.4870  -13.7570   19.6050 C   0  0  0  0  0  1  0  0  0  0  0  0
  2  5  2  0
  3  1  2  0
  4  6  2  0
  4  2  1  0
  5  1  1  0
  5  7  1  0
  6  3  1  0
  7  9  2  0
  8 11  1  0
  8  7  1  0
 10  8  1  0
 12 11  1  0
 13 12  1  0
 14 13  1  0
 15 14  1  0
 16 15  1  0
 17 16  1  0
 18 25  2  0
 18 17  1  0
 19 24  1  0
 20 19  1  0
 21 20  1  0
 22 21  1  0
 22 23  1  0
 23 24  1  0
 24 18  1  0
 26 29  1  0
 27 26  2  0
 27 28  1  0
 28 30  2  0
 29 30  1  0
 29 22  1  0
 31 28  1  0
 31 32  1  0
 33 32  2  0
 34 33  1  0
 35 36  1  0
 35 34  2  0
 36 31  2  0
 37 34  1  0
 37 38  1  0
 38 39  1  0
 39 40  2  0
 41 40  1  0
 41 45  1  0
 42 41  2  0
 43 38  2  0
 43 42  1  0
 44 43  1  0
 46 47  1  0
 46 27  1  0
 47 49  1  0
 48 46  2  0
 50 47  1  0
 51 26  1  0
 51 53  1  0
 52 51  1  0
 54  6  1  0
 55 54  1  0
 56 57  2  0
 56 55  1  0
 58 56  1  0
 59 60  1  0
 59 58  1  0
 61 60  1  0
 63 68  1  0
 63 61  1  0
 64 74  1  0
 64 72  1  0
 65 67  1  0
 67 66  1  0
 67 68  2  0
 69 63  2  0
 70 65  2  0
 70 69  1  0
 71 64  1  0
 71 65  1  0
 72 66  1  0
 72 62  1  0
 73 62  2  0
 74 76  2  0
 75 74  1  0
 77 75  1  0
 78 83  1  0
 78 82  1  0
 79 75  1  0
 79 80  1  0
 81 80  1  0
 82 81  1  0
 83 79  1  0
 84 83  2  0
 85 84  1  0
 86 85  2  0
 86 87  1  0
 87 78  2  0
 88 62  1  0
 88 89  1  0
 88 98  1  0
 89 92  1  0
 90 94  1  0
 90 89  1  0
 91 90  2  0
 94 93  1  0
 94 96  1  0
 96 95  1  0
 97 96  1  0
 98 99  1  1
 98101  1  0
100 98  1  0
M  ISO  4  17 100  18 100  60 101  61 101
M  END
>  <TORSDO>  (72) 
F 30

>  <SCORE>  (72) 
39.176

>  <name>  (72) 
71

>  <ligand_id>  (72) 
71

>  <original_smiles>  (72) 
[H]c1c([H])c([H])c2c(c1[H])C([H])([H])C([H])([H])C([H])([H])C2([H])N([H])C(=O)C1([H])N(C(=O)C([H])(N([H])C(=O)C([H])(N([H])C([H])([H])[H])C([H])([H])[H])C(C([H])([H])[H])(C([H])([H])[H])C([H])([H])[H])C([H])([H])c2c([H])c(OC([H])([H])C([H])([H])C([H])([H])C(=O)C([H])([H])C([H])([H])c3c([H])c([H])c(C(=O)N([H])C([H])([H])C([H])([H])C([H])([H])C([H])([H])C([H])([H])C([H])([H])C([H])([H])C(=O)N4C([H])([H])C([H])([H])C([H])([H])C([H])(n5nc(-c6c([H])c([H])c(Oc7c([H])c([H])c(F)c([H])c7F)c([H])c6[H])c(C(=O)N([H])[H])c5N([H])[H])C4([H])[H])c([H])c3[H])c([H])c([H])c2C1([H])[H]

>  <smiles>  (72) 
[H]c1c([H])c([H])c2c(c1[H])C([H])([H])C([H])([H])C([H])([H])C2([H])N([H])C(=O)C1([H])N(C(=O)C([H])(N([H])C(=O)C([H])(N([H])C([H])([H])[H])C([H])([H])[H])C(C([H])([H])[H])(C([H])([H])[H])C([H])([H])[H])C([H])([H])c2c([H])c(OC([H])([H])C([H])([H])C([H])([H])C(=O)C([H])([H])C([H])([H])c3c([H])c([H])c(C(=O)N([H])C([H])([H])C([H])([H])C([H])([H])C([H])([H])C([H])([H])C([H])([H])C([H])([H])C(=O)N4C([H])([H])C([H])([H])C([H])([H])C([H])(n5nc(-c6c([H])c([H])c(Oc7c([H])c([H])c(F)c([H])c7F)c([H])c6[H])c(C(=O)N([H])[H])c5N([H])[H])C4([H])[H])c([H])c3[H])c([H])c([H])c2C1([H])[H]

$$$$
72:0:0
     RDKit          3D

 89 96  0  0  1  0  0  0  0  0999 V2000
  -28.5680  -22.6090   18.4350 C   0  0  0  0  0  2  0  0  0  0  0  0
  -29.3330  -21.2970   18.2110 C   0  0  0  0  0  2  0  0  0  0  0  0
  -28.8690  -20.1740   19.1510 C   0  0  0  0  0  2  0  0  0  0  0  0
  -29.6720  -18.8800   18.9500 C   0  0  0  0  0  2  0  0  0  0  0  0
  -29.5000  -17.8660   20.0970 C   0  0  0  0  0  2  0  0  0  0  0  0
  -30.8310  -17.5950   20.8270 C   0  0  0  0  0  2  0  0  0  0  0  0
  -30.7540  -16.5140   21.9230 C   0  0  0  0  0  2  0  0  0  0  0  0
  -30.7330  -14.3890   20.5950 C   0  0  0  0  0  0  0  0  0  0  0  0
  -30.3820  -12.3060   19.3220 C   0  0  0  0  0  2  0  0  0  0  0  0
  -29.4290  -12.5310   18.1340 C   0  0  0  0  0  2  0  0  0  0  0  0
  -27.9580  -12.3960   18.5700 C   0  0  0  0  0  2  0  0  0  0  0  0
  -27.6340  -13.2230   19.8440 C   0  0  0  0  0  3  0  0  0  0  0  0
  -28.6870  -12.9530   20.9410 C   0  0  0  0  0  2  0  0  0  0  0  0
  -30.0190  -13.2550   20.3830 N   0  0  0  0  0  0  0  0  0  0  0  0
  -31.8000  -14.6340   20.0270 O   0  0  0  0  0  0  0  0  0  0  0  0
  -30.1810  -15.2490   21.4630 N   0  0  0  0  0  0  0  0  0  0  0  0
  -29.2880  -14.9800   21.8520 H   0  0  0  0  0  0  0  0  0  0  0  0
  -25.2350  -13.8440   20.5450 C   0  0  0  0  0  0  0  0  0  0  0  0
  -24.1640  -13.0760   20.9170 C   0  0  0  0  0  0  0  0  0  0  0  0
  -24.6200  -11.7230   20.8930 C   0  0  0  0  0  0  0  0  0  0  0  0
  -26.2780  -12.9580   20.3190 N   0  0  0  0  0  0  0  0  0  0  0  0
  -25.9090  -11.6790   20.5840 N   0  0  0  0  0  0  0  0  0  0  0  0
  -23.8910  -10.4630   21.0860 C   0  0  0  0  0  0  0  0  0  0  0  0
  -24.3410   -9.4840   22.0000 C   0  0  0  0  0  3  0  0  0  0  0  0
  -23.6130   -8.2870   22.1830 C   0  0  0  0  0  3  0  0  0  0  0  0
  -22.4220   -8.0630   21.4520 C   0  0  0  0  0  0  0  0  0  0  0  0
  -21.9900   -9.0320   20.5290 C   0  0  0  0  0  3  0  0  0  0  0  0
  -22.7190  -10.2190   20.3440 C   0  0  0  0  0  3  0  0  0  0  0  0
  -21.6650   -6.9200   21.5450 O   0  0  0  0  0  0  0  0  0  0  0  0
  -21.6610   -6.1490   22.6780 C   0  0  0  0  0  0  0  0  0  0  0  0
  -21.3070   -6.6800   23.9390 C   0  0  0  0  0  3  0  0  0  0  0  0
  -21.2480   -5.8370   25.0660 C   0  0  0  0  0  3  0  0  0  0  0  0
  -21.5350   -4.4650   24.9370 C   0  0  0  0  0  0  0  0  0  0  0  0
  -21.8820   -3.9340   23.6810 C   0  0  0  0  0  3  0  0  0  0  0  0
  -21.9420   -4.7740   22.5560 C   0  0  0  0  0  0  0  0  0  0  0  0
  -22.2570   -4.2530   21.3460 F   0  0  0  0  0  0  0  0  0  0  0  0
  -21.4710   -3.6530   26.0170 F   0  0  0  0  0  0  0  0  0  0  0  0
  -22.7670  -13.5590   21.1890 C   0  0  0  0  0  0  0  0  0  0  0  0
  -22.0370  -12.8670   22.0570 N   0  0  0  0  0  0  0  0  0  0  0  0
  -22.3300  -14.5820   20.6640 O   0  0  0  0  0  0  0  0  0  0  0  0
  -22.4010  -12.0390   22.5040 H   0  0  0  0  0  0  0  0  0  0  0  0
  -21.0990  -13.1710   22.2790 H   0  0  0  0  0  0  0  0  0  0  0  0
  -25.4060  -15.2130   20.3660 N   0  0  0  0  0  0  0  0  0  0  0  0
  -24.6470  -15.8770   20.4840 H   0  0  0  0  0  0  0  0  0  0  0  0
  -26.2640  -15.6450   20.0480 H   0  0  0  0  0  0  0  0  0  0  0  0
  -29.3090  -23.8400   17.8750 C   0  0  0  0  0  2  0  0  0  0  0  0
  -28.6550  -25.1890   18.2350 C   0  0  0  0  0  2  0  0  0  0  0  0
  -28.5340  -25.4360   19.7550 C   0  0  0  0  0  2  0  0  0  0  0  0
  -28.4440  -26.8150   20.0940 O   0  0  0  0  0  0  0  0  0  0  0  0
  -24.5840  -31.8740   23.2200 C   0  0  0  0  0  0  0  0  0  0  0  0
  -27.2260  -27.4590   20.1100 C   0  0  0  0  0  0  0  0  0  0  0  0
  -23.3630  -30.4780   21.5810 C   0  0  0  0  0  3  0  0  0  0  0  0
  -24.8110  -28.9350   20.1510 C   0  0  0  0  0  0  0  0  0  0  0  0
  -25.8850  -30.8370   21.3670 C   0  0  0  0  0  2  0  0  0  0  0  0
  -25.9680  -29.4670   20.7310 C   0  0  0  0  0  0  0  0  0  0  0  0
  -27.1730  -28.7360   20.7090 C   0  0  0  0  0  3  0  0  0  0  0  0
  -26.0440  -26.9220   19.5510 C   0  0  0  0  0  3  0  0  0  0  0  0
  -24.8410  -27.6560   19.5630 C   0  0  0  0  0  3  0  0  0  0  0  0
  -23.5660  -29.7930   20.2010 C   0  0  0  0  0  2  0  0  0  0  0  0
  -24.6290  -31.0770   22.1130 N   0  0  0  0  0  0  0  0  0  0  0  0
  -23.5090  -32.1460   23.7710 O   0  0  0  0  0  0  0  0  0  0  0  0
  -22.7210  -29.4570   22.5470 C   0  0  0  0  0  0  0  0  0  0  0  0
  -21.3940  -29.2770   22.4260 N   0  0  0  0  0  0  0  0  0  0  0  0
  -23.4090  -28.8320   23.3570 O   0  0  0  0  0  0  0  0  0  0  0  0
  -20.9030  -29.8380   21.7440 H   0  0  0  0  0  0  0  0  0  0  0  0
  -18.0220  -28.0820   22.9250 C   0  0  0  0  0  0  0  0  0  0  0  0
  -20.5790  -28.3380   23.1980 C   0  0  0  0  0  3  0  0  0  0  0  0
  -20.6810  -26.9080   22.6230 C   0  0  0  0  0  2  0  0  0  0  0  0
  -19.5790  -26.5830   21.6100 C   0  0  0  0  0  2  0  0  0  0  0  0
  -18.1970  -26.7300   22.2540 C   0  0  0  0  0  2  0  0  0  0  0  0
  -19.1410  -28.8420   23.3540 C   0  0  0  0  0  0  0  0  0  0  0  0
  -18.9260  -30.1090   23.9400 C   0  0  0  0  0  3  0  0  0  0  0  0
  -17.6210  -30.6110   24.1080 C   0  0  0  0  0  3  0  0  0  0  0  0
  -16.5160  -29.8470   23.6960 C   0  0  0  0  0  3  0  0  0  0  0  0
  -16.7170  -28.5850   23.1080 C   0  0  0  0  0  3  0  0  0  0  0  0
  -25.8770  -32.5010   23.8290 C   0  0  0  0  0  3  0  0  0  0  0  0
  -26.4090  -31.7220   25.0970 C   0  0  1  0  0  0  0  0  0  0  0  0
  -25.3290  -31.4730   26.1750 C   0  0  0  0  0  1  0  0  0  0  0  0
  -26.9910  -30.3480   24.6880 C   0  0  0  0  0  1  0  0  0  0  0  0
  -27.5620  -32.5150   25.7530 C   0  0  0  0  0  1  0  0  0  0  0  0
  -25.5680  -33.8970   24.1710 N   0  0  0  0  0  0  0  0  0  0  0  0
  -25.8980  -34.9540   23.4160 C   0  0  0  0  0  0  0  0  0  0  0  0
  -26.5640  -34.8580   22.3830 O   0  0  0  0  0  0  0  0  0  0  0  0
  -24.9770  -34.0400   24.9760 H   0  0  0  0  0  0  0  0  0  0  0  0
  -24.1640  -36.7470   23.0800 C   0  0  0  0  0  1  0  0  0  0  0  0
  -25.4090  -36.3390   23.8840 C   0  0  0  0  0  3  0  0  0  0  0  0
  -27.5470  -37.2190   24.7110 C   0  0  0  0  0  1  0  0  0  0  0  0
  -26.4390  -37.3960   23.7750 N   0  0  0  0  0  0  0  0  0  0  0  0
  -26.0310  -38.3140   23.9360 H   0  0  0  0  0  0  0  0  0  0  0  0
  2  1  1  0
  2  3  1  0
  4  3  1  0
  4  5  1  0
  5  6  1  0
  6  7  1  0
  8 16  1  0
  9 14  1  0
 10 11  1  0
 10  9  1  0
 12 11  1  0
 12 21  1  0
 12 13  1  0
 14  8  1  0
 14 13  1  0
 15  8  2  0
 16 17  1  0
 16  7  1  0
 18 19  2  0
 19 38  1  0
 20 19  1  0
 20 23  1  0
 21 18  1  0
 21 22  1  0
 22 20  2  0
 23 24  1  0
 24 25  2  0
 26 29  1  0
 26 25  1  0
 27 26  2  0
 28 27  1  0
 28 23  2  0
 29 30  1  0
 30 31  1  0
 31 32  2  0
 33 32  1  0
 33 37  1  0
 34 33  2  0
 35 30  2  0
 35 34  1  0
 36 35  1  0
 38 39  1  0
 39 42  1  0
 39 41  1  0
 40 38  2  0
 43 44  1  0
 43 18  1  0
 45 43  1  0
 46 47  1  0
 46  1  1  0
 47 48  1  0
 48 49  1  0
 49 51  1  0
 50 61  2  0
 51 56  1  0
 52 60  1  0
 52 62  1  0
 53 59  1  0
 53 55  1  0
 54 60  1  0
 55 54  1  0
 56 55  2  0
 57 58  1  0
 57 51  2  0
 58 53  2  0
 59 52  1  0
 60 50  1  0
 62 64  2  0
 63 62  1  0
 65 63  1  0
 66 75  2  0
 66 71  1  0
 67 63  1  0
 67 71  1  0
 68 67  1  0
 69 70  1  0
 69 68  1  0
 70 66  1  0
 71 72  2  0
 72 73  1  0
 74 73  2  0
 75 74  1  0
 76 50  1  0
 76 81  1  0
 76 77  1  0
 77 80  1  1
 77 78  1  0
 79 77  1  0
 81 84  1  0
 82 86  1  0
 82 81  1  0
 83 82  2  0
 86 85  1  0
 88 86  1  0
 88 89  1  0
 88 87  1  0
M  ISO  4   8 100  16 100  48 101  49 101
M  END
>  <TORSDO>  (73) 
F 25

>  <SCORE>  (73) 
-12.107

>  <name>  (73) 
72

>  <ligand_id>  (73) 
72

>  <original_smiles>  (73) 
[H]c1c([H])c([H])c2c(c1[H])C([H])([H])C([H])([H])C([H])([H])C2([H])N([H])C(=O)C1([H])N(C(=O)C([H])(N([H])C(=O)C([H])(N([H])C([H])([H])[H])C([H])([H])[H])C(C([H])([H])[H])(C([H])([H])[H])C([H])([H])[H])C([H])([H])c2c([H])c(OC([H])([H])C([H])([H])C([H])([H])C([H])([H])C([H])([H])C([H])([H])C([H])([H])C([H])([H])C([H])([H])C([H])([H])N([H])C(=O)N3C([H])([H])C([H])([H])C([H])([H])C([H])(n4nc(-c5c([H])c([H])c(Oc6c([H])c([H])c(F)c([H])c6F)c([H])c5[H])c(C(=O)N([H])[H])c4N([H])[H])C3([H])[H])c([H])c([H])c2C1([H])[H]

>  <smiles>  (73) 
[H]c1c([H])c([H])c2c(c1[H])C([H])([H])C([H])([H])C([H])([H])C2([H])N([H])C(=O)C1([H])N(C(=O)C([H])(N([H])C(=O)C([H])(N([H])C([H])([H])[H])C([H])([H])[H])C(C([H])([H])[H])(C([H])([H])[H])C([H])([H])[H])C([H])([H])c2c([H])c(OC([H])([H])C([H])([H])C([H])([H])C([H])([H])C([H])([H])C([H])([H])C([H])([H])C([H])([H])C([H])([H])C([H])([H])N([H])C(=O)N3C([H])([H])C([H])([H])C([H])([H])C([H])(n4nc(-c5c([H])c([H])c(Oc6c([H])c([H])c(F)c([H])c6F)c([H])c5[H])c(C(=O)N([H])[H])c4N([H])[H])C3([H])[H])c([H])c([H])c2C1([H])[H]

$$$$
73:0:0
     RDKit          3D

 92 99  0  0  1  0  0  0  0  0999 V2000
  -29.1050  -21.3030   20.4530 C   0  0  0  0  0  2  0  0  0  0  0  0
  -28.8550  -19.8360   20.5380 N   0  0  0  0  0  4  0  0  0  0  0  0
  -27.8610  -19.6680   20.5710 H   0  0  0  0  0  0  0  0  0  0  0  0
  -29.2140  -19.5620   21.4400 H   0  0  0  0  0  0  0  0  0  0  0  0
  -29.4940  -18.9420   19.5280 C   0  0  0  0  0  3  0  0  0  0  0  0
  -29.2820  -18.2450   16.9840 C   0  0  0  0  0  1  0  0  0  0  0  0
  -28.9320  -19.2420   18.1060 C   0  0  0  0  0  2  0  0  0  0  0  0
  -29.3190  -17.4400   19.9250 C   0  0  0  0  0  2  0  0  0  0  0  0
  -30.2210  -16.8790   21.0510 C   0  0  0  0  0  2  0  0  0  0  0  0
  -30.6800  -14.4730   20.4920 C   0  0  0  0  0  0  0  0  0  0  0  0
  -30.3680  -12.3590   19.2600 C   0  0  0  0  0  2  0  0  0  0  0  0
  -29.4130  -12.5980   18.0720 C   0  0  0  0  0  2  0  0  0  0  0  0
  -27.9390  -12.4630   18.5020 C   0  0  0  0  0  2  0  0  0  0  0  0
  -27.6190  -13.2650   19.7900 C   0  0  0  0  0  3  0  0  0  0  0  0
  -28.6780  -12.9970   20.8870 C   0  0  0  0  0  2  0  0  0  0  0  0
  -30.0060  -13.3030   20.3300 N   0  0  0  0  0  0  0  0  0  0  0  0
  -31.7600  -14.7120   19.9450 O   0  0  0  0  0  0  0  0  0  0  0  0
  -30.0120  -15.4260   21.1670 N   0  0  0  0  0  0  0  0  0  0  0  0
  -29.1650  -15.1230   21.6260 H   0  0  0  0  0  0  0  0  0  0  0  0
  -25.2140  -13.8650   20.4850 C   0  0  0  0  0  0  0  0  0  0  0  0
  -24.1480  -13.0920   20.8570 C   0  0  0  0  0  0  0  0  0  0  0  0
  -24.6140  -11.7410   20.8330 C   0  0  0  0  0  0  0  0  0  0  0  0
  -26.2640  -12.9880   20.2640 N   0  0  0  0  0  0  0  0  0  0  0  0
  -25.9050  -11.7050   20.5290 N   0  0  0  0  0  0  0  0  0  0  0  0
  -23.8930  -10.4790   21.0340 C   0  0  0  0  0  0  0  0  0  0  0  0
  -24.3350   -9.5140   21.9650 C   0  0  0  0  0  3  0  0  0  0  0  0
  -23.6150   -8.3140   22.1520 C   0  0  0  0  0  3  0  0  0  0  0  0
  -22.4370   -8.0730   21.4040 C   0  0  0  0  0  0  0  0  0  0  0  0
  -22.0160   -9.0260   20.4600 C   0  0  0  0  0  3  0  0  0  0  0  0
  -22.7370  -10.2170   20.2740 C   0  0  0  0  0  3  0  0  0  0  0  0
  -21.6860   -6.9260   21.4970 O   0  0  0  0  0  0  0  0  0  0  0  0
  -21.6530   -6.1810   22.6480 C   0  0  0  0  0  0  0  0  0  0  0  0
  -21.2470   -6.7340   23.8840 C   0  0  0  0  0  3  0  0  0  0  0  0
  -21.1590   -5.9130   25.0250 C   0  0  0  0  0  3  0  0  0  0  0  0
  -21.4700   -4.5440   24.9340 C   0  0  0  0  0  0  0  0  0  0  0  0
  -21.8710   -3.9910   23.7050 C   0  0  0  0  0  3  0  0  0  0  0  0
  -21.9590   -4.8070   22.5650 C   0  0  0  0  0  0  0  0  0  0  0  0
  -22.3240   -4.2650   21.3780 F   0  0  0  0  0  0  0  0  0  0  0  0
  -21.3820   -3.7560   26.0310 F   0  0  0  0  0  0  0  0  0  0  0  0
  -22.7510  -13.5650   21.1330 C   0  0  0  0  0  0  0  0  0  0  0  0
  -22.0340  -12.8680   22.0050 N   0  0  0  0  0  0  0  0  0  0  0  0
  -22.3070  -14.5880   20.6130 O   0  0  0  0  0  0  0  0  0  0  0  0
  -22.4090  -12.0400   22.4430 H   0  0  0  0  0  0  0  0  0  0  0  0
  -21.0970  -13.1640   22.2380 H   0  0  0  0  0  0  0  0  0  0  0  0
  -25.3710  -15.2370   20.2980 N   0  0  0  0  0  0  0  0  0  0  0  0
  -24.5950  -15.8850   20.3940 H   0  0  0  0  0  0  0  0  0  0  0  0
  -26.2160  -15.6760   19.9600 H   0  0  0  0  0  0  0  0  0  0  0  0
  -28.0350  -22.0750   19.6340 C   0  0  0  0  0  2  0  0  0  0  0  0
  -27.9220  -23.5970   19.9080 C   0  0  0  0  0  2  0  0  0  0  0  0
  -29.0790  -24.4550   19.3490 C   0  0  0  0  0  2  0  0  0  0  0  0
  -28.7150  -25.9230   19.0160 C   0  0  0  0  0  2  0  0  0  0  0  0
  -28.4210  -26.7480   20.1590 O   0  0  0  0  0  0  0  0  0  0  0  0
  -24.5800  -31.9220   23.2530 C   0  0  0  0  0  0  0  0  0  0  0  0
  -27.2370  -27.4640   20.1700 C   0  0  0  0  0  0  0  0  0  0  0  0
  -23.3810  -30.5110   21.6160 C   0  0  0  0  0  3  0  0  0  0  0  0
  -24.8350  -28.9680   20.2030 C   0  0  0  0  0  0  0  0  0  0  0  0
  -25.9090  -30.8650   21.4260 C   0  0  0  0  0  2  0  0  0  0  0  0
  -25.9930  -29.4900   20.7910 C   0  0  0  0  0  0  0  0  0  0  0  0
  -27.1950  -28.7400   20.7820 C   0  0  0  0  0  3  0  0  0  0  0  0
  -26.0460  -26.9460   19.6110 C   0  0  0  0  0  3  0  0  0  0  0  0
  -24.8540  -27.6900   19.6200 C   0  0  0  0  0  3  0  0  0  0  0  0
  -23.5920  -29.8250   20.2410 C   0  0  0  0  0  2  0  0  0  0  0  0
  -24.6410  -31.1160   22.1550 N   0  0  0  0  0  0  0  0  0  0  0  0
  -23.4970  -32.1960   23.7880 O   0  0  0  0  0  0  0  0  0  0  0  0
  -22.7290  -29.4920   22.5780 C   0  0  0  0  0  0  0  0  0  0  0  0
  -21.4070  -29.3010   22.4420 N   0  0  0  0  0  0  0  0  0  0  0  0
  -23.4100  -28.8750   23.4020 O   0  0  0  0  0  0  0  0  0  0  0  0
  -20.9180  -29.8500   21.7480 H   0  0  0  0  0  0  0  0  0  0  0  0
  -18.0380  -28.0850   22.9110 C   0  0  0  0  0  0  0  0  0  0  0  0
  -20.5900  -28.3650   23.2130 C   0  0  0  0  0  3  0  0  0  0  0  0
  -20.7120  -26.9300   22.6470 C   0  0  0  0  0  2  0  0  0  0  0  0
  -19.6240  -26.5900   21.6240 C   0  0  0  0  0  2  0  0  0  0  0  0
  -18.2330  -26.7320   22.2510 C   0  0  0  0  0  2  0  0  0  0  0  0
  -19.1460  -28.8600   23.3480 C   0  0  0  0  0  0  0  0  0  0  0  0
  -18.9100  -30.1280   23.9230 C   0  0  0  0  0  3  0  0  0  0  0  0
  -17.6000  -30.6210   24.0680 C   0  0  0  0  0  3  0  0  0  0  0  0
  -16.5060  -29.8430   23.6500 C   0  0  0  0  0  3  0  0  0  0  0  0
  -16.7270  -28.5770   23.0770 C   0  0  0  0  0  3  0  0  0  0  0  0
  -25.8630  -32.5570   23.8720 C   0  0  0  0  0  3  0  0  0  0  0  0
  -26.3790  -31.7930   25.1530 C   0  0  1  0  0  0  0  0  0  0  0  0
  -25.2820  -31.5600   26.2180 C   0  0  0  0  0  1  0  0  0  0  0  0
  -26.9610  -30.4140   24.7680 C   0  0  0  0  0  1  0  0  0  0  0  0
  -27.5280  -32.5910   25.8130 C   0  0  0  0  0  1  0  0  0  0  0  0
  -25.5560  -33.9580   24.1910 N   0  0  0  0  0  0  0  0  0  0  0  0
  -25.8960  -35.0040   23.4280 C   0  0  0  0  0  0  0  0  0  0  0  0
  -26.5760  -34.8930   22.4030 O   0  0  0  0  0  0  0  0  0  0  0  0
  -24.9540  -34.1180   24.9850 H   0  0  0  0  0  0  0  0  0  0  0  0
  -24.1770  -36.7970   23.0410 C   0  0  0  0  0  1  0  0  0  0  0  0
  -25.4070  -36.3960   23.8720 C   0  0  0  0  0  3  0  0  0  0  0  0
  -27.5310  -37.2790   24.7250 C   0  0  0  0  0  1  0  0  0  0  0  0
  -26.4410  -37.4460   23.7680 N   0  0  0  0  0  0  0  0  0  0  0  0
  -26.0350  -38.3670   23.9090 H   0  0  0  0  0  0  0  0  0  0  0  0
  1  2  1  0
  2  3  1  0
  2  4  1  0
  5  7  1  0
  5  8  1  0
  5  2  1  0
  6  7  1  0
  8  9  1  0
  9 18  1  0
 10 18  1  0
 11 16  1  0
 12 13  1  0
 12 11  1  0
 14 13  1  0
 14 23  1  0
 14 15  1  0
 16 10  1  0
 16 15  1  0
 17 10  2  0
 18 19  1  0
 20 21  2  0
 21 40  1  0
 22 21  1  0
 22 25  1  0
 23 20  1  0
 23 24  1  0
 24 22  2  0
 25 26  1  0
 26 27  2  0
 28 31  1  0
 28 27  1  0
 29 28  2  0
 30 29  1  0
 30 25  2  0
 31 32  1  0
 32 33  1  0
 33 34  2  0
 35 34  1  0
 35 39  1  0
 36 35  2  0
 37 32  2  0
 37 36  1  0
 38 37  1  0
 40 41  1  0
 41 44  1  0
 41 43  1  0
 42 40  2  0
 45 46  1  0
 45 20  1  0
 47 45  1  0
 48 49  1  0
 48  1  1  0
 50 49  1  0
 51 50  1  0
 51 52  1  0
 52 54  1  0
 53 64  2  0
 54 59  1  0
 55 63  1  0
 55 65  1  0
 56 62  1  0
 56 58  1  0
 57 63  1  0
 58 57  1  0
 59 58  2  0
 60 61  1  0
 60 54  2  0
 61 56  2  0
 62 55  1  0
 63 53  1  0
 65 67  2  0
 66 65  1  0
 68 66  1  0
 69 78  2  0
 69 74  1  0
 70 66  1  0
 70 74  1  0
 71 70  1  0
 72 73  1  0
 72 71  1  0
 73 69  1  0
 74 75  2  0
 75 76  1  0
 77 76  2  0
 78 77  1  0
 79 53  1  0
 79 84  1  0
 79 80  1  0
 80 83  1  1
 80 81  1  0
 82 80  1  0
 84 87  1  0
 85 89  1  0
 85 84  1  0
 86 85  2  0
 89 88  1  0
 91 89  1  0
 91 92  1  0
 91 90  1  0
M  ISO  4  10 100  18 100  51 101  52 101
M  END
>  <TORSDO>  (74) 
F 25

>  <SCORE>  (74) 
-12.211

>  <name>  (74) 
73

>  <ligand_id>  (74) 
73

>  <original_smiles>  (74) 
[H]c1c([H])c([H])c2c(c1[H])C([H])([H])C([H])([H])C([H])([H])C2([H])N([H])C(=O)C1([H])N(C(=O)C([H])(N([H])C(=O)C([H])(N([H])C([H])([H])[H])C([H])([H])[H])C(C([H])([H])[H])(C([H])([H])[H])C([H])([H])[H])C([H])([H])c2c([H])c(OC([H])([H])C([H])([H])C([H])([H])C([H])([H])C([H])([H])[N+]([H])([H])C([H])(C([H])([H])C([H])([H])[H])C([H])([H])C([H])([H])N([H])C(=O)N3C([H])([H])C([H])([H])C([H])([H])C([H])(n4nc(-c5c([H])c([H])c(Oc6c([H])c([H])c(F)c([H])c6F)c([H])c5[H])c(C(=O)N([H])[H])c4N([H])[H])C3([H])[H])c([H])c([H])c2C1([H])[H]

>  <smiles>  (74) 
[H]c1c([H])c([H])c2c(c1[H])C([H])([H])C([H])([H])C([H])([H])C2([H])N([H])C(=O)C1([H])N(C(=O)C([H])(N([H])C(=O)C([H])(N([H])C([H])([H])[H])C([H])([H])[H])C(C([H])([H])[H])(C([H])([H])[H])C([H])([H])[H])C([H])([H])c2c([H])c(OC([H])([H])C([H])([H])C([H])([H])C([H])([H])C([H])([H])[N+]([H])([H])C([H])(C([H])([H])C([H])([H])[H])C([H])([H])C([H])([H])N([H])C(=O)N3C([H])([H])C([H])([H])C([H])([H])C([H])(n4nc(-c5c([H])c([H])c(Oc6c([H])c([H])c(F)c([H])c6F)c([H])c5[H])c(C(=O)N([H])[H])c4N([H])[H])C3([H])[H])c([H])c([H])c2C1([H])[H]

$$$$
74:0:0
     RDKit          3D

103110  0  0  1  0  0  0  0  0999 V2000
  -25.5610  -24.4570   22.6920 C   0  0  0  0  0  3  0  0  0  0  0  0
  -26.0530  -23.1720   23.2460 N   0  0  0  0  0  4  0  0  0  0  0  0
  -26.8840  -22.9060   22.7400 H   0  0  0  0  0  0  0  0  0  0  0  0
  -26.3220  -23.3240   24.2060 H   0  0  0  0  0  0  0  0  0  0  0  0
  -25.1100  -22.0300   23.1970 C   0  0  0  0  0  2  0  0  0  0  0  0
  -25.1960  -21.1640   24.4750 C   0  0  0  0  0  2  0  0  0  0  0  0
  -25.6420  -19.7260   24.1880 C   0  0  0  0  0  2  0  0  0  0  0  0
  -27.1440  -19.6120   23.9020 C   0  0  0  0  0  2  0  0  0  0  0  0
  -27.4670  -18.2470   23.3000 C   0  0  0  0  0  2  0  0  0  0  0  0
  -28.9680  -17.9590   23.1720 C   0  0  0  0  0  2  0  0  0  0  0  0
  -29.1620  -16.5650   22.5810 C   0  0  0  0  0  2  0  0  0  0  0  0
  -30.6170  -16.1390   22.3620 C   0  0  0  0  0  2  0  0  0  0  0  0
  -30.8100  -14.2590   20.7480 C   0  0  0  0  0  0  0  0  0  0  0  0
  -30.4270  -12.2660   19.3570 C   0  0  0  0  0  2  0  0  0  0  0  0
  -29.4790  -12.5350   18.1770 C   0  0  0  0  0  2  0  0  0  0  0  0
  -28.0050  -12.3890   18.6010 C   0  0  0  0  0  2  0  0  0  0  0  0
  -27.6750  -13.1920   19.8840 C   0  0  0  0  0  3  0  0  0  0  0  0
  -28.7140  -12.8940   20.9880 C   0  0  0  0  0  2  0  0  0  0  0  0
  -30.0770  -13.1580   20.4660 N   0  0  0  0  0  0  0  0  0  0  0  0
  -31.7010  -14.7150   20.0230 O   0  0  0  0  0  0  0  0  0  0  0  0
  -30.5660  -14.7430   21.9650 N   0  0  0  0  0  0  0  0  0  0  0  0
  -29.9890  -14.1430   22.5390 H   0  0  0  0  0  0  0  0  0  0  0  0
  -25.2590  -13.8100   20.5630 C   0  0  0  0  0  0  0  0  0  0  0  0
  -24.1830  -13.0400   20.9110 C   0  0  0  0  0  0  0  0  0  0  0  0
  -24.6400  -11.6870   20.8690 C   0  0  0  0  0  0  0  0  0  0  0  0
  -26.3070  -12.9270   20.3360 N   0  0  0  0  0  0  0  0  0  0  0  0
  -25.9350  -11.6460   20.5790 N   0  0  0  0  0  0  0  0  0  0  0  0
  -23.9060  -10.4270   21.0410 C   0  0  0  0  0  0  0  0  0  0  0  0
  -24.3600   -9.4200   21.9200 C   0  0  0  0  0  3  0  0  0  0  0  0
  -23.6260   -8.2240   22.0760 C   0  0  0  0  0  3  0  0  0  0  0  0
  -22.4250   -8.0290   21.3540 C   0  0  0  0  0  0  0  0  0  0  0  0
  -21.9910   -9.0260   20.4600 C   0  0  0  0  0  3  0  0  0  0  0  0
  -22.7220  -10.2130   20.3050 C   0  0  0  0  0  3  0  0  0  0  0  0
  -21.6620   -6.8900   21.4210 O   0  0  0  0  0  0  0  0  0  0  0  0
  -21.6810   -6.0760   22.5250 C   0  0  0  0  0  0  0  0  0  0  0  0
  -21.3980   -6.5660   23.8170 C   0  0  0  0  0  3  0  0  0  0  0  0
  -21.3680   -5.6810   24.9150 C   0  0  0  0  0  3  0  0  0  0  0  0
  -21.6070   -4.3090   24.7160 C   0  0  0  0  0  0  0  0  0  0  0  0
  -21.8800   -3.8170   23.4280 C   0  0  0  0  0  3  0  0  0  0  0  0
  -21.9160   -4.7000   22.3350 C   0  0  0  0  0  0  0  0  0  0  0  0
  -22.1580   -4.2190   21.0930 F   0  0  0  0  0  0  0  0  0  0  0  0
  -21.5700   -3.4570   25.7680 F   0  0  0  0  0  0  0  0  0  0  0  0
  -22.7870  -13.5240   21.1830 C   0  0  0  0  0  0  0  0  0  0  0  0
  -22.0520  -12.8220   22.0390 N   0  0  0  0  0  0  0  0  0  0  0  0
  -22.3560  -14.5570   20.6730 O   0  0  0  0  0  0  0  0  0  0  0  0
  -22.4050  -11.9730   22.4530 H   0  0  0  0  0  0  0  0  0  0  0  0
  -21.1160  -13.1220   22.2730 H   0  0  0  0  0  0  0  0  0  0  0  0
  -25.4220  -15.1830   20.4080 N   0  0  0  0  0  0  0  0  0  0  0  0
  -24.6470  -15.8270   20.5170 H   0  0  0  0  0  0  0  0  0  0  0  0
  -26.2860  -15.6340   20.1270 H   0  0  0  0  0  0  0  0  0  0  0  0
  -26.6850  -25.5180   22.6640 C   0  0  0  0  0  2  0  0  0  0  0  0
  -27.9290  -25.1020   21.8420 C   0  0  0  0  0  2  0  0  0  0  0  0
  -28.8100  -26.2680   21.3430 C   0  0  0  0  0  2  0  0  0  0  0  0
  -28.3820  -26.7340   20.0640 O   0  0  0  0  0  0  0  0  0  0  0  0
  -24.6100  -31.8720   23.2150 C   0  0  0  0  0  0  0  0  0  0  0  0
  -27.2420  -27.4910   20.0810 C   0  0  0  0  0  0  0  0  0  0  0  0
  -23.3970  -30.4930   21.5530 C   0  0  0  0  0  3  0  0  0  0  0  0
  -24.8470  -28.9680   20.1150 C   0  0  0  0  0  0  0  0  0  0  0  0
  -25.9200  -30.8520   21.3650 C   0  0  0  0  0  2  0  0  0  0  0  0
  -26.0010  -29.4910   20.7120 C   0  0  0  0  0  0  0  0  0  0  0  0
  -27.2020  -28.7550   20.7050 C   0  0  0  0  0  3  0  0  0  0  0  0
  -26.0840  -26.9790   19.4640 C   0  0  0  0  0  3  0  0  0  0  0  0
  -24.8800  -27.7060   19.4920 C   0  0  0  0  0  3  0  0  0  0  0  0
  -23.6050  -29.8270   20.1670 C   0  0  0  0  0  2  0  0  0  0  0  0
  -24.6600  -31.0840   22.1040 N   0  0  0  0  0  0  0  0  0  0  0  0
  -23.5300  -32.1500   23.7550 O   0  0  0  0  0  0  0  0  0  0  0  0
  -22.7390  -29.4660   22.5020 C   0  0  0  0  0  0  0  0  0  0  0  0
  -21.4120  -29.3000   22.3760 N   0  0  0  0  0  0  0  0  0  0  0  0
  -23.4170  -28.8220   23.3060 O   0  0  0  0  0  0  0  0  0  0  0  0
  -20.9280  -29.8740   21.6990 H   0  0  0  0  0  0  0  0  0  0  0  0
  -18.0280  -28.1360   22.8490 C   0  0  0  0  0  0  0  0  0  0  0  0
  -20.5850  -28.3640   23.1340 C   0  0  0  0  0  3  0  0  0  0  0  0
  -20.6770  -26.9380   22.5450 C   0  0  0  0  0  2  0  0  0  0  0  0
  -19.5770  -26.6350   21.5220 C   0  0  0  0  0  2  0  0  0  0  0  0
  -18.1940  -26.7890   22.1620 C   0  0  0  0  0  2  0  0  0  0  0  0
  -19.1520  -28.8810   23.2920 C   0  0  0  0  0  0  0  0  0  0  0  0
  -18.9450  -30.1400   23.8950 C   0  0  0  0  0  3  0  0  0  0  0  0
  -17.6460  -30.6570   24.0560 C   0  0  0  0  0  3  0  0  0  0  0  0
  -16.5350  -29.9070   23.6310 C   0  0  0  0  0  3  0  0  0  0  0  0
  -16.7260  -28.6470   23.0370 C   0  0  0  0  0  3  0  0  0  0  0  0
  -25.9020  -32.4840   23.8430 C   0  0  0  0  0  3  0  0  0  0  0  0
  -25.5920  -33.8650   24.2370 N   0  0  0  0  0  0  0  0  0  0  0  0
  -25.9030  -34.9480   23.5150 C   0  0  0  0  0  0  0  0  0  0  0  0
  -26.5560  -34.8940   22.4690 O   0  0  0  0  0  0  0  0  0  0  0  0
  -25.0130  -33.9810   25.0560 H   0  0  0  0  0  0  0  0  0  0  0  0
  -24.1490  -36.7300   23.2640 C   0  0  0  0  0  1  0  0  0  0  0  0
  -25.4100  -36.3120   24.0350 C   0  0  0  0  0  3  0  0  0  0  0  0
  -27.5580  -37.1800   24.8460 C   0  0  0  0  0  1  0  0  0  0  0  0
  -26.4300  -37.3790   23.9400 N   0  0  0  0  0  0  0  0  0  0  0  0
  -26.0200  -38.2870   24.1400 H   0  0  0  0  0  0  0  0  0  0  0  0
  -26.4480  -31.6600   25.0720 C   0  0  1  0  0  0  0  0  0  0  0  0
  -25.3740  -31.3710   26.1470 C   0  0  0  0  0  1  0  0  0  0  0  0
  -27.0300  -30.3050   24.6070 C   0  0  0  0  0  1  0  0  0  0  0  0
  -27.6070  -32.4320   25.7470 C   0  0  0  0  0  1  0  0  0  0  0  0
  -24.2930  -24.9860   23.4200 C   0  0  0  0  0  2  0  0  0  0  0  0
  -24.3100  -24.9080   24.9650 C   0  0  0  0  0  2  0  0  0  0  0  0
  -22.8920  -25.0140   25.5590 C   0  0  0  0  0  2  0  0  0  0  0  0
  -22.8070  -24.5010   27.0070 C   0  0  0  0  0  2  0  0  0  0  0  0
  -21.3510  -24.3250   27.4830 C   0  0  0  0  0  2  0  0  0  0  0  0
  -21.2600  -23.7190   28.8230 N   0  0  0  0  0  4  0  0  0  0  0  0
  -21.7090  -22.8210   28.8510 H   0  0  0  0  0  0  0  0  0  0  0  0
  -20.2960  -23.5850   29.0690 H   0  0  0  0  0  0  0  0  0  0  0  0
  -21.6800  -24.3140   29.5140 H   0  0  0  0  0  0  0  0  0  0  0  0
  1 51  1  0
  1  2  1  0
  1 95  1  0
  2  4  1  0
  3  2  1  0
  5  2  1  0
  5  6  1  0
  7  6  1  0
  8  7  1  0
  9  8  1  0
 10  9  1  0
 11 10  1  0
 12 11  1  0
 13 21  1  0
 14 19  1  0
 15 16  1  0
 15 14  1  0
 17 16  1  0
 17 26  1  0
 17 18  1  0
 19 13  1  0
 19 18  1  0
 20 13  2  0
 21 12  1  0
 21 22  1  0
 23 24  2  0
 24 43  1  0
 25 24  1  0
 25 28  1  0
 26 23  1  0
 26 27  1  0
 27 25  2  0
 28 29  1  0
 29 30  2  0
 31 34  1  0
 31 30  1  0
 32 31  2  0
 33 32  1  0
 33 28  2  0
 34 35  1  0
 35 36  1  0
 36 37  2  0
 38 37  1  0
 38 42  1  0
 39 38  2  0
 40 35  2  0
 40 39  1  0
 41 40  1  0
 43 44  1  0
 44 47  1  0
 44 46  1  0
 45 43  2  0
 48 49  1  0
 48 23  1  0
 50 48  1  0
 52 51  1  0
 53 52  1  0
 54 56  1  0
 54 53  1  0
 55 66  2  0
 56 61  1  0
 57 65  1  0
 57 67  1  0
 58 64  1  0
 58 60  1  0
 59 65  1  0
 60 59  1  0
 61 60  2  0
 62 63  1  0
 62 56  2  0
 63 58  2  0
 64 57  1  0
 65 55  1  0
 67 69  2  0
 68 67  1  0
 70 68  1  0
 71 80  2  0
 71 76  1  0
 72 68  1  0
 72 76  1  0
 73 72  1  0
 74 75  1  0
 74 73  1  0
 75 71  1  0
 76 77  2  0
 77 78  1  0
 79 78  2  0
 80 79  1  0
 81 55  1  0
 81 82  1  0
 81 91  1  0
 82 85  1  0
 83 87  1  0
 83 82  1  0
 84 83  2  0
 87 86  1  0
 89 87  1  0
 89 90  1  0
 89 88  1  0
 91 94  1  1
 91 92  1  0
 93 91  1  0
 95 96  1  0
 96 97  1  0
 97 98  1  0
 98 99  1  0
 99100  1  0
100101  1  0
100102  1  0
100103  1  0
M  ISO  4  13 100  21 100  53 101  54 101
M  END
>  <TORSDO>  (75) 
F 34

>  <SCORE>  (75) 
56.744

>  <name>  (75) 
74

>  <ligand_id>  (75) 
74

>  <original_smiles>  (75) 
[H]c1c([H])c([H])c2c(c1[H])C([H])([H])C([H])([H])C([H])([H])C2([H])N([H])C(=O)C1([H])N(C(=O)C([H])(N([H])C(=O)C([H])(N([H])C([H])([H])[H])C([H])([H])[H])C(C([H])([H])[H])(C([H])([H])[H])C([H])([H])[H])C([H])([H])c2c([H])c(OC([H])([H])C([H])([H])C([H])([H])C([H])(C([H])([H])C([H])([H])C([H])([H])C([H])([H])C([H])([H])[N+]([H])([H])[H])[N+]([H])([H])C([H])([H])C([H])([H])C([H])([H])C([H])([H])C([H])([H])C([H])([H])C([H])([H])C([H])([H])N([H])C(=O)N3C([H])([H])C([H])([H])C([H])([H])C([H])(n4nc(-c5c([H])c([H])c(Oc6c([H])c([H])c(F)c([H])c6F)c([H])c5[H])c(C(=O)N([H])[H])c4N([H])[H])C3([H])[H])c([H])c([H])c2C1([H])[H]

>  <smiles>  (75) 
[H]c1c([H])c([H])c2c(c1[H])C([H])([H])C([H])([H])C([H])([H])C2([H])N([H])C(=O)C1([H])N(C(=O)C([H])(N([H])C(=O)C([H])(N([H])C([H])([H])[H])C([H])([H])[H])C(C([H])([H])[H])(C([H])([H])[H])C([H])([H])[H])C([H])([H])c2c([H])c(OC([H])([H])C([H])([H])C([H])([H])C([H])(C([H])([H])C([H])([H])C([H])([H])C([H])([H])C([H])([H])[N+]([H])([H])[H])[N+]([H])([H])C([H])([H])C([H])([H])C([H])([H])C([H])([H])C([H])([H])C([H])([H])C([H])([H])C([H])([H])N([H])C(=O)N3C([H])([H])C([H])([H])C([H])([H])C([H])(n4nc(-c5c([H])c([H])c(Oc6c([H])c([H])c(F)c([H])c6F)c([H])c5[H])c(C(=O)N([H])[H])c4N([H])[H])C3([H])[H])c([H])c([H])c2C1([H])[H]

$$$$
75:0:0
     RDKit          3D

 99108  0  0  1  0  0  0  0  0999 V2000
  -25.6150  -25.0280   19.1520 C   0  0  0  0  0  3  0  0  0  0  0  0
  -25.0260  -24.7670   20.4220 C   0  0  0  0  0  3  0  0  0  0  0  0
  -27.8890  -25.4890   20.1120 C   0  0  0  0  0  3  0  0  0  0  0  0
  -26.9900  -25.4240   19.0030 C   0  0  0  0  0  0  0  0  0  0  0  0
  -25.9090  -24.8970   21.4900 C   0  0  0  0  0  0  0  0  0  0  0  0
  -27.3030  -25.1700   21.3390 C   0  0  0  0  0  0  0  0  0  0  0  0
  -26.0660  -24.4520   22.9190 C   0  0  0  0  0  2  0  0  0  0  0  0
  -27.6600  -24.6400   22.7180 C   0  0  2  0  0  0  0  0  0  0  0  0
  -27.5390  -25.5920   17.6420 C   0  0  0  0  0  0  0  0  0  0  0  0
  -27.4180  -24.7380   16.7590 O   0  0  0  0  0  0  0  0  0  0  0  0
  -28.1460  -26.9580   17.3220 C   0  0  0  0  0  2  0  0  0  0  0  0
  -27.3070  -27.6190   16.3770 O   0  0  0  0  0  0  0  0  0  0  0  0
  -24.2580  -30.4840   22.0650 C   0  0  0  0  0  0  0  0  0  0  0  0
  -26.1250  -28.0200   16.9440 C   0  0  0  0  0  0  0  0  0  0  0  0
  -22.7160  -29.3540   20.4870 C   0  0  0  0  0  3  0  0  0  0  0  0
  -23.7290  -28.7330   18.2260 C   0  0  0  0  0  0  0  0  0  0  0  0
  -24.9060  -30.4010   19.6760 C   0  0  0  0  0  2  0  0  0  0  0  0
  -24.9290  -29.3530   18.5930 C   0  0  0  0  0  0  0  0  0  0  0  0
  -26.1370  -28.9960   17.9640 C   0  0  0  0  0  3  0  0  0  0  0  0
  -24.9020  -27.4580   16.5350 C   0  0  0  0  0  3  0  0  0  0  0  0
  -23.7010  -27.7790   17.2000 C   0  0  0  0  0  3  0  0  0  0  0  0
  -22.4870  -29.1780   18.9610 C   0  0  0  0  0  2  0  0  0  0  0  0
  -23.9960  -30.0760   20.7950 N   0  0  0  0  0  0  0  0  0  0  0  0
  -23.4410  -30.3000   22.9760 O   0  0  0  0  0  0  0  0  0  0  0  0
  -22.6320  -27.9660   21.1610 C   0  0  0  0  0  0  0  0  0  0  0  0
  -21.4200  -27.3760   21.1630 N   0  0  0  0  0  0  0  0  0  0  0  0
  -23.6350  -27.4340   21.6410 O   0  0  0  0  0  0  0  0  0  0  0  0
  -20.6440  -27.8820   20.7550 H   0  0  0  0  0  0  0  0  0  0  0  0
  -18.8060  -24.9250   21.4850 C   0  0  0  0  0  0  0  0  0  0  0  0
  -21.1150  -26.0670   21.7330 C   0  0  0  0  0  3  0  0  0  0  0  0
  -21.6650  -24.9230   20.8580 C   0  0  0  0  0  2  0  0  0  0  0  0
  -20.6600  -24.4110   19.8170 C   0  0  0  0  0  2  0  0  0  0  0  0
  -19.3720  -23.9230   20.5000 C   0  0  0  0  0  2  0  0  0  0  0  0
  -19.6270  -25.9410   22.0480 C   0  0  0  0  0  0  0  0  0  0  0  0
  -19.0430  -26.8840   22.9150 C   0  0  0  0  0  3  0  0  0  0  0  0
  -17.6790  -26.8180   23.2330 C   0  0  0  0  0  3  0  0  0  0  0  0
  -16.8790  -25.7970   22.7010 C   0  0  0  0  0  3  0  0  0  0  0  0
  -17.4420  -24.8490   21.8290 C   0  0  0  0  0  3  0  0  0  0  0  0
  -25.5940  -31.2100   22.4330 C   0  0  0  0  0  3  0  0  0  0  0  0
  -26.6550  -30.2640   23.1120 C   0  0  1  0  0  0  0  0  0  0  0  0
  -26.1000  -29.4770   24.3180 C   0  0  0  0  0  1  0  0  0  0  0  0
  -27.2060  -29.2360   22.0970 C   0  0  0  0  0  1  0  0  0  0  0  0
  -27.8630  -31.1000   23.5960 C   0  0  0  0  0  1  0  0  0  0  0  0
  -25.2500  -32.3350   23.3090 N   0  0  0  0  0  0  0  0  0  0  0  0
  -25.2580  -33.6210   22.9300 C   0  0  0  0  0  0  0  0  0  0  0  0
  -25.6310  -33.9900   21.8140 O   0  0  0  0  0  0  0  0  0  0  0  0
  -24.8750  -32.1070   24.2170 H   0  0  0  0  0  0  0  0  0  0  0  0
  -23.3560  -35.1260   23.5900 C   0  0  0  0  0  1  0  0  0  0  0  0
  -24.7750  -34.6620   23.9580 C   0  0  0  0  0  3  0  0  0  0  0  0
  -26.9610  -35.5170   24.6710 C   0  0  0  0  0  1  0  0  0  0  0  0
  -25.6680  -35.8380   24.0690 N   0  0  0  0  0  0  0  0  0  0  0  0
  -25.2340  -36.5740   24.6230 H   0  0  0  0  0  0  0  0  0  0  0  0
  -28.4260  -25.6760   23.5590 C   0  0  0  0  0  2  0  0  0  0  0  0
  -27.8970  -27.1250   23.5220 C   0  0  0  0  0  2  0  0  0  0  0  0
  -28.8030  -27.9340   24.0780 F   0  0  0  0  0  0  0  0  0  0  0  0
  -28.4480  -23.2930   22.6690 C   0  0  0  0  0  2  0  0  0  0  0  0
  -28.5240  -22.5570   21.3030 C   0  0  0  0  0  2  0  0  0  0  0  0
  -28.6900  -21.0270   21.4290 C   0  0  0  0  0  2  0  0  0  0  0  0
  -29.2790  -20.3330   20.1680 C   0  0  0  0  0  2  0  0  0  0  0  0
  -29.4710  -18.8050   20.3720 C   0  0  0  0  0  2  0  0  0  0  0  0
  -30.5900  -18.0900   19.5530 C   0  0  0  0  0  2  0  0  0  0  0  0
  -31.5640  -15.6970   19.7180 C   0  0  0  0  0  0  0  0  0  0  0  0
  -31.4780  -13.2630   19.2620 C   0  0  0  0  0  2  0  0  0  0  0  0
  -30.5490  -13.0410   18.0470 C   0  0  0  0  0  2  0  0  0  0  0  0
  -29.0620  -13.0000   18.4610 C   0  0  0  0  0  2  0  0  0  0  0  0
  -28.6740  -14.1630   19.4120 C   0  0  0  0  0  3  0  0  0  0  0  0
  -29.6960  -14.2560   20.5650 C   0  0  0  0  0  2  0  0  0  0  0  0
  -31.0250  -14.4730   19.9620 N   0  0  0  0  0  0  0  0  0  0  0  0
  -32.6600  -15.8640   19.1660 O   0  0  0  0  0  0  0  0  0  0  0  0
  -30.6990  -16.6980   20.0080 N   0  0  0  0  0  0  0  0  0  0  0  0
  -29.8790  -16.3660   20.4920 H   0  0  0  0  0  0  0  0  0  0  0  0
  -26.3680  -15.0130   20.1870 C   0  0  0  0  0  0  0  0  0  0  0  0
  -25.2370  -14.3530   20.5790 C   0  0  0  0  0  0  0  0  0  0  0  0
  -25.5500  -12.9610   20.4990 C   0  0  0  0  0  0  0  0  0  0  0  0
  -27.3100  -14.0300   19.9110 N   0  0  0  0  0  0  0  0  0  0  0  0
  -26.8170  -12.7890   20.1490 N   0  0  0  0  0  0  0  0  0  0  0  0
  -24.6990  -11.7780   20.6800 C   0  0  0  0  0  0  0  0  0  0  0  0
  -24.9990  -10.7960   21.6470 C   0  0  0  0  0  3  0  0  0  0  0  0
  -24.1580   -9.6750   21.8140 C   0  0  0  0  0  3  0  0  0  0  0  0
  -22.9990   -9.5330   21.0130 C   0  0  0  0  0  0  0  0  0  0  0  0
  -22.7180  -10.5040   20.0360 C   0  0  0  0  0  3  0  0  0  0  0  0
  -23.5590  -11.6150   19.8680 C   0  0  0  0  0  3  0  0  0  0  0  0
  -22.1370   -8.4650   21.0870 O   0  0  0  0  0  0  0  0  0  0  0  0
  -21.8250   -7.8750   22.2840 C   0  0  0  0  0  0  0  0  0  0  0  0
  -21.2440   -8.6030   23.3460 C   0  0  0  0  0  3  0  0  0  0  0  0
  -20.8750   -7.9410   24.5330 C   0  0  0  0  0  3  0  0  0  0  0  0
  -21.0770   -6.5550   24.6600 C   0  0  0  0  0  0  0  0  0  0  0  0
  -21.6500   -5.8260   23.6020 C   0  0  0  0  0  3  0  0  0  0  0  0
  -22.0200   -6.4840   22.4160 C   0  0  0  0  0  0  0  0  0  0  0  0
  -22.5530   -5.7760   21.3930 F   0  0  0  0  0  0  0  0  0  0  0  0
  -20.7140   -5.9170   25.7970 F   0  0  0  0  0  0  0  0  0  0  0  0
  -23.9070  -14.9670   20.9060 C   0  0  0  0  0  0  0  0  0  0  0  0
  -23.1380  -14.3330   21.7810 N   0  0  0  0  0  0  0  0  0  0  0  0
  -23.5650  -16.0460   20.4210 O   0  0  0  0  0  0  0  0  0  0  0  0
  -23.4280  -13.4600   22.1940 H   0  0  0  0  0  0  0  0  0  0  0  0
  -22.2480  -14.7260   22.0440 H   0  0  0  0  0  0  0  0  0  0  0  0
  -26.6720  -16.3630   20.0340 N   0  0  0  0  0  0  0  0  0  0  0  0
  -25.9700  -17.0860   20.1630 H   0  0  0  0  0  0  0  0  0  0  0  0
  -27.5390  -16.7170   19.6460 H   0  0  0  0  0  0  0  0  0  0  0  0
  1  2  1  0
  2  5  2  0
  3  6  2  0
  4  1  2  0
  4  3  1  0
  5  7  1  0
  6  5  1  0
  6  8  1  0
  8 56  1  6
  8  7  1  0
  8 53  1  0
  9  4  1  0
 10  9  2  0
 11  9  1  0
 12 14  1  0
 12 11  1  0
 13 24  2  0
 14 19  1  0
 15 23  1  0
 15 25  1  0
 16 18  1  0
 16 22  1  0
 17 23  1  0
 18 17  1  0
 19 18  2  0
 20 14  2  0
 20 21  1  0
 21 16  2  0
 22 15  1  0
 23 13  1  0
 25 26  1  0
 25 27  2  0
 28 26  1  0
 29 38  2  0
 29 34  1  0
 30 26  1  0
 30 34  1  0
 31 30  1  0
 32 33  1  0
 32 31  1  0
 33 29  1  0
 34 35  2  0
 35 36  1  0
 37 36  2  0
 38 37  1  0
 39 13  1  0
 39 40  1  0
 39 44  1  0
 40 43  1  1
 40 41  1  0
 42 40  1  0
 44 47  1  0
 45 44  1  0
 45 49  1  0
 46 45  2  0
 49 48  1  0
 49 51  1  0
 51 52  1  0
 51 50  1  0
 54 53  1  0
 54 55  1  0
 57 58  1  0
 57 56  1  0
 59 60  1  0
 59 58  1  0
 61 70  1  0
 61 60  1  0
 62 68  1  0
 62 70  1  0
 63 68  1  0
 64 65  1  0
 64 63  1  0
 66 65  1  0
 66 75  1  0
 66 67  1  0
 68 67  1  0
 69 62  2  0
 70 71  1  0
 72 73  2  0
 73 92  1  0
 74 73  1  0
 74 77  1  0
 75 76  1  0
 75 72  1  0
 76 74  2  0
 77 78  1  0
 78 79  2  0
 80 83  1  0
 80 79  1  0
 81 80  2  0
 82 81  1  0
 82 77  2  0
 83 84  1  0
 84 89  2  0
 84 85  1  0
 85 86  2  0
 86 87  1  0
 87 91  1  0
 88 87  2  0
 89 88  1  0
 90 89  1  0
 92 93  1  0
 93 96  1  0
 93 95  1  0
 94 92  2  0
 97 98  1  0
 97 72  1  0
 99 97  1  0
M  ISO  4  11 101  12 101  62 100  70 100
M  END
>  <TORSDO>  (76) 
F 26

>  <SCORE>  (76) 
-4.414

>  <name>  (76) 
75

>  <ligand_id>  (76) 
75

>  <original_smiles>  (76) 
[H]c1c([H])c([H])c2c(c1[H])C([H])([H])C([H])([H])C([H])([H])C2([H])N([H])C(=O)C1([H])N(C(=O)C([H])(N([H])C(=O)C([H])(N([H])C([H])([H])[H])C([H])([H])[H])C(C([H])([H])[H])(C([H])([H])[H])C([H])([H])[H])C([H])([H])c2c([H])c(OC([H])([H])C(=O)c3c([H])c([H])c4c(c3[H])C(C([H])([H])C([H])([H])F)(C([H])([H])C([H])([H])C([H])([H])C([H])([H])C([H])([H])C([H])([H])N([H])C(=O)N3C([H])([H])C([H])([H])C([H])([H])C([H])(n5nc(-c6c([H])c([H])c(Oc7c([H])c([H])c(F)c([H])c7F)c([H])c6[H])c(C(=O)N([H])[H])c5N([H])[H])C3([H])[H])C4([H])[H])c([H])c([H])c2C1([H])[H]

>  <smiles>  (76) 
[H]c1c([H])c([H])c2c(c1[H])C([H])([H])C([H])([H])C([H])([H])C2([H])N([H])C(=O)C1([H])N(C(=O)C([H])(N([H])C(=O)C([H])(N([H])C([H])([H])[H])C([H])([H])[H])C(C([H])([H])[H])(C([H])([H])[H])C([H])([H])[H])C([H])([H])c2c([H])c(OC([H])([H])C(=O)c3c([H])c([H])c4c(c3[H])C(C([H])([H])C([H])([H])F)(C([H])([H])C([H])([H])C([H])([H])C([H])([H])C([H])([H])C([H])([H])N([H])C(=O)N3C([H])([H])C([H])([H])C([H])([H])C([H])(n5nc(-c6c([H])c([H])c(Oc7c([H])c([H])c(F)c([H])c7F)c([H])c6[H])c(C(=O)N([H])[H])c5N([H])[H])C3([H])[H])C4([H])[H])c([H])c([H])c2C1([H])[H]

$$$$
76:0:0
     RDKit          3D

 94101  0  0  1  0  0  0  0  0999 V2000
  -23.2850  -21.6210   23.5930 C   0  0  0  0  0  2  0  0  0  0  0  0
  -24.0400  -22.2740   22.4200 C   0  0  0  0  0  2  0  0  0  0  0  0
  -24.7620  -23.5690   22.8310 C   0  0  0  0  0  2  0  0  0  0  0  0
  -26.0490  -23.8160   22.0280 C   0  0  0  0  0  2  0  0  0  0  0  0
  -26.8210  -25.0590   22.5090 C   0  0  0  0  0  2  0  0  0  0  0  0
  -28.2620  -25.1490   21.9640 C   0  0  0  0  0  2  0  0  0  0  0  0
  -28.4000  -25.3820   20.4430 C   0  0  0  0  0  2  0  0  0  0  0  0
  -28.4250  -26.7700   20.1070 O   0  0  0  0  0  0  0  0  0  0  0  0
  -24.6100  -31.8720   23.2100 C   0  0  0  0  0  0  0  0  0  0  0  0
  -27.2370  -27.4590   20.1110 C   0  0  0  0  0  0  0  0  0  0  0  0
  -23.3990  -30.4920   21.5490 C   0  0  0  0  0  3  0  0  0  0  0  0
  -24.8470  -28.9570   20.1180 C   0  0  0  0  0  0  0  0  0  0  0  0
  -25.9220  -30.8490   21.3550 C   0  0  0  0  0  2  0  0  0  0  0  0
  -26.0010  -29.4800   20.7120 C   0  0  0  0  0  0  0  0  0  0  0  0
  -27.2010  -28.7390   20.7020 C   0  0  0  0  0  3  0  0  0  0  0  0
  -26.0680  -26.9440   19.5070 C   0  0  0  0  0  3  0  0  0  0  0  0
  -24.8740  -27.6890   19.5100 C   0  0  0  0  0  3  0  0  0  0  0  0
  -23.6050  -29.8170   20.1650 C   0  0  0  0  0  2  0  0  0  0  0  0
  -24.6620  -31.0860   22.0970 N   0  0  0  0  0  0  0  0  0  0  0  0
  -23.5300  -32.1450   23.7510 O   0  0  0  0  0  0  0  0  0  0  0  0
  -22.7400  -29.4670   22.5000 C   0  0  0  0  0  0  0  0  0  0  0  0
  -21.4130  -29.3040   22.3730 N   0  0  0  0  0  0  0  0  0  0  0  0
  -23.4170  -28.8230   23.3040 O   0  0  0  0  0  0  0  0  0  0  0  0
  -20.9330  -29.8700   21.6860 H   0  0  0  0  0  0  0  0  0  0  0  0
  -18.0290  -28.1390   22.8490 C   0  0  0  0  0  0  0  0  0  0  0  0
  -20.5860  -28.3710   23.1370 C   0  0  0  0  0  3  0  0  0  0  0  0
  -20.6800  -26.9420   22.5520 C   0  0  0  0  0  2  0  0  0  0  0  0
  -19.5820  -26.6370   21.5290 C   0  0  0  0  0  2  0  0  0  0  0  0
  -18.1950  -26.7950   22.1600 C   0  0  0  0  0  2  0  0  0  0  0  0
  -19.1510  -28.8870   23.2910 C   0  0  0  0  0  0  0  0  0  0  0  0
  -18.9410  -30.1480   23.8930 C   0  0  0  0  0  3  0  0  0  0  0  0
  -17.6400  -30.6590   24.0580 C   0  0  0  0  0  3  0  0  0  0  0  0
  -16.5310  -29.9090   23.6290 C   0  0  0  0  0  3  0  0  0  0  0  0
  -16.7260  -28.6520   23.0310 C   0  0  0  0  0  3  0  0  0  0  0  0
  -25.9010  -32.4850   23.8410 C   0  0  0  0  0  3  0  0  0  0  0  0
  -25.5870  -33.8640   24.2340 N   0  0  0  0  0  0  0  0  0  0  0  0
  -25.9030  -34.9490   23.5140 C   0  0  0  0  0  0  0  0  0  0  0  0
  -26.5590  -34.8940   22.4700 O   0  0  0  0  0  0  0  0  0  0  0  0
  -24.9970  -33.9810   25.0460 H   0  0  0  0  0  0  0  0  0  0  0  0
  -24.1490  -36.7330   23.2640 C   0  0  0  0  0  1  0  0  0  0  0  0
  -25.4100  -36.3120   24.0350 C   0  0  0  0  0  3  0  0  0  0  0  0
  -27.5580  -37.1810   24.8460 C   0  0  0  0  0  1  0  0  0  0  0  0
  -26.4300  -37.3800   23.9400 N   0  0  0  0  0  0  0  0  0  0  0  0
  -26.0200  -38.2880   24.1370 H   0  0  0  0  0  0  0  0  0  0  0  0
  -26.4440  -31.6600   25.0710 C   0  0  1  0  0  0  0  0  0  0  0  0
  -25.3720  -31.3700   26.1470 C   0  0  0  0  0  1  0  0  0  0  0  0
  -27.0250  -30.3050   24.6040 C   0  0  0  0  0  1  0  0  0  0  0  0
  -27.6040  -32.4290   25.7460 C   0  0  0  0  0  1  0  0  0  0  0  0
  -22.6360  -20.2600   23.2700 C   0  0  0  0  0  2  0  0  0  0  0  0
  -23.5680  -19.1820   22.6780 C   0  0  0  0  0  2  0  0  0  0  0  0
  -24.8180  -18.8700   23.5220 C   0  0  0  0  0  2  0  0  0  0  0  0
  -25.6410  -17.7040   22.9450 C   0  0  0  0  0  2  0  0  0  0  0  0
  -27.0310  -17.5610   23.5860 C   0  0  0  0  0  2  0  0  0  0  0  0
  -27.8610  -16.4230   22.9650 C   0  0  0  0  0  2  0  0  0  0  0  0
  -29.3270  -16.4450   23.4390 C   0  0  0  0  0  2  0  0  0  0  0  0
  -30.2060  -15.3220   22.8590 C   0  0  0  0  0  2  0  0  0  0  0  0
  -30.7540  -14.3830   20.6520 C   0  0  0  0  0  0  0  0  0  0  0  0
  -30.4130  -12.2750   19.4190 C   0  0  0  0  0  2  0  0  0  0  0  0
  -29.4910  -12.4970   18.2050 C   0  0  0  0  0  2  0  0  0  0  0  0
  -28.0130  -12.3580   18.6140 C   0  0  0  0  0  2  0  0  0  0  0  0
  -27.6630  -13.1990   19.8690 C   0  0  0  0  0  3  0  0  0  0  0  0
  -28.6920  -12.9580   20.9920 C   0  0  0  0  0  2  0  0  0  0  0  0
  -30.0410  -13.2390   20.4660 N   0  0  0  0  0  0  0  0  0  0  0  0
  -31.8010  -14.6340   20.0500 O   0  0  0  0  0  0  0  0  0  0  0  0
  -30.1850  -15.3360   21.3970 N   0  0  0  0  0  0  0  0  0  0  0  0
  -30.4260  -16.2520   21.0460 H   0  0  0  0  0  0  0  0  0  0  0  0
  -25.2610  -13.8160   20.5640 C   0  0  0  0  0  0  0  0  0  0  0  0
  -24.1860  -13.0450   20.9160 C   0  0  0  0  0  0  0  0  0  0  0  0
  -24.6390  -11.6910   20.8730 C   0  0  0  0  0  0  0  0  0  0  0  0
  -26.3020  -12.9300   20.3290 N   0  0  0  0  0  0  0  0  0  0  0  0
  -25.9300  -11.6470   20.5720 N   0  0  0  0  0  0  0  0  0  0  0  0
  -23.9060  -10.4300   21.0420 C   0  0  0  0  0  0  0  0  0  0  0  0
  -24.3620   -9.4220   21.9200 C   0  0  0  0  0  3  0  0  0  0  0  0
  -23.6300   -8.2250   22.0750 C   0  0  0  0  0  3  0  0  0  0  0  0
  -22.4290   -8.0280   21.3540 C   0  0  0  0  0  0  0  0  0  0  0  0
  -21.9920   -9.0270   20.4650 C   0  0  0  0  0  3  0  0  0  0  0  0
  -22.7250  -10.2140   20.3070 C   0  0  0  0  0  3  0  0  0  0  0  0
  -21.6640   -6.8880   21.4250 O   0  0  0  0  0  0  0  0  0  0  0  0
  -21.6860   -6.0740   22.5290 C   0  0  0  0  0  0  0  0  0  0  0  0
  -21.4020   -6.5640   23.8220 C   0  0  0  0  0  3  0  0  0  0  0  0
  -21.3650   -5.6800   24.9180 C   0  0  0  0  0  3  0  0  0  0  0  0
  -21.6050   -4.3070   24.7250 C   0  0  0  0  0  0  0  0  0  0  0  0
  -21.8820   -3.8150   23.4370 C   0  0  0  0  0  3  0  0  0  0  0  0
  -21.9190   -4.6960   22.3420 C   0  0  0  0  0  0  0  0  0  0  0  0
  -22.1650   -4.2150   21.1000 F   0  0  0  0  0  0  0  0  0  0  0  0
  -21.5630   -3.4550   25.7760 F   0  0  0  0  0  0  0  0  0  0  0  0
  -22.7890  -13.5250   21.1840 C   0  0  0  0  0  0  0  0  0  0  0  0
  -22.0540  -12.8220   22.0390 N   0  0  0  0  0  0  0  0  0  0  0  0
  -22.3540  -14.5560   20.6720 O   0  0  0  0  0  0  0  0  0  0  0  0
  -22.4170  -11.9880   22.4780 H   0  0  0  0  0  0  0  0  0  0  0  0
  -21.1190  -13.1270   22.2650 H   0  0  0  0  0  0  0  0  0  0  0  0
  -25.4410  -15.1850   20.4000 N   0  0  0  0  0  0  0  0  0  0  0  0
  -24.7000  -15.8620   20.5410 H   0  0  0  0  0  0  0  0  0  0  0  0
  -26.3220  -15.6050   20.1360 H   0  0  0  0  0  0  0  0  0  0  0  0
  2  3  1  0
  2  1  1  0
  4  5  1  0
  4  3  1  0
  6  5  1  0
  7  6  1  0
  8 10  1  0
  8  7  1  0
  9 20  2  0
 10 15  1  0
 11 19  1  0
 11 21  1  0
 12 18  1  0
 12 14  1  0
 13 19  1  0
 14 13  1  0
 15 14  2  0
 16 17  1  0
 16 10  2  0
 17 12  2  0
 18 11  1  0
 19  9  1  0
 21 23  2  0
 22 21  1  0
 24 22  1  0
 25 34  2  0
 25 30  1  0
 26 22  1  0
 26 30  1  0
 27 26  1  0
 28 29  1  0
 28 27  1  0
 29 25  1  0
 30 31  2  0
 31 32  1  0
 33 32  2  0
 34 33  1  0
 35  9  1  0
 35 36  1  0
 35 45  1  0
 36 39  1  0
 37 41  1  0
 37 36  1  0
 38 37  2  0
 41 40  1  0
 43 41  1  0
 43 44  1  0
 43 42  1  0
 45 48  1  1
 45 46  1  0
 47 45  1  0
 49  1  1  0
 50 49  1  0
 50 51  1  0
 52 51  1  0
 52 53  1  0
 54 55  1  0
 54 53  1  0
 56 55  1  0
 57 65  1  0
 58 63  1  0
 59 60  1  0
 59 58  1  0
 61 60  1  0
 61 70  1  0
 61 62  1  0
 63 57  1  0
 63 62  1  0
 64 57  2  0
 65 56  1  0
 66 65  1  0
 67 68  2  0
 68 87  1  0
 69 68  1  0
 69 72  1  0
 70 67  1  0
 70 71  1  0
 71 69  2  0
 72 73  1  0
 73 74  2  0
 75 78  1  0
 75 74  1  0
 76 75  2  0
 77 76  1  0
 77 72  2  0
 78 79  1  0
 79 80  1  0
 80 81  2  0
 82 81  1  0
 82 86  1  0
 83 82  2  0
 84 79  2  0
 84 83  1  0
 85 84  1  0
 87 88  1  0
 88 91  1  0
 88 90  1  0
 89 87  2  0
 92 93  1  0
 92 67  1  0
 94 92  1  0
M  ISO  4   7 101   8 101  57 100  65 100
M  END
>  <TORSDO>  (77) 
F 30

>  <SCORE>  (77) 
47.470

>  <name>  (77) 
76

>  <ligand_id>  (77) 
76

>  <original_smiles>  (77) 
[H]c1c([H])c([H])c2c(c1[H])C([H])([H])C([H])([H])C([H])([H])C2([H])N([H])C(=O)C1([H])N(C(=O)C([H])(N([H])C(=O)C([H])(N([H])C([H])([H])[H])C([H])([H])[H])C(C([H])([H])[H])(C([H])([H])[H])C([H])([H])[H])C([H])([H])c2c([H])c(OC([H])([H])C([H])([H])C([H])([H])C([H])([H])C([H])([H])C([H])([H])C([H])([H])C([H])([H])C([H])([H])C([H])([H])C([H])([H])C([H])([H])C([H])([H])C([H])([H])C([H])([H])N([H])C(=O)N3C([H])([H])C([H])([H])C([H])([H])C([H])(n4nc(-c5c([H])c([H])c(Oc6c([H])c([H])c(F)c([H])c6F)c([H])c5[H])c(C(=O)N([H])[H])c4N([H])[H])C3([H])[H])c([H])c([H])c2C1([H])[H]

>  <smiles>  (77) 
[H]c1c([H])c([H])c2c(c1[H])C([H])([H])C([H])([H])C([H])([H])C2([H])N([H])C(=O)C1([H])N(C(=O)C([H])(N([H])C(=O)C([H])(N([H])C([H])([H])[H])C([H])([H])[H])C(C([H])([H])[H])(C([H])([H])[H])C([H])([H])[H])C([H])([H])c2c([H])c(OC([H])([H])C([H])([H])C([H])([H])C([H])([H])C([H])([H])C([H])([H])C([H])([H])C([H])([H])C([H])([H])C([H])([H])C([H])([H])C([H])([H])C([H])([H])C([H])([H])C([H])([H])N([H])C(=O)N3C([H])([H])C([H])([H])C([H])([H])C([H])(n4nc(-c5c([H])c([H])c(Oc6c([H])c([H])c(F)c([H])c6F)c([H])c5[H])c(C(=O)N([H])[H])c4N([H])[H])C3([H])[H])c([H])c([H])c2C1([H])[H]

$$$$
77:0:0
     RDKit          3D

 93102  0  0  1  0  0  0  0  0999 V2000
  -30.7600  -14.5170   20.4270 C   0  0  0  0  0  0  0  0  0  0  0  0
  -30.3980  -12.3010   19.4690 C   0  0  0  0  0  2  0  0  0  0  0  0
  -29.4900  -12.3390   18.2220 C   0  0  0  0  0  2  0  0  0  0  0  0
  -27.9870  -12.4740   18.5870 C   0  0  0  0  0  2  0  0  0  0  0  0
  -27.6430  -13.3390   19.8430 C   0  0  0  0  0  3  0  0  0  0  0  0
  -28.6870  -13.1790   20.9660 C   0  0  0  0  0  2  0  0  0  0  0  0
  -30.0130  -13.3840   20.3770 N   0  0  0  0  0  0  0  0  0  0  0  0
  -31.9920  -14.4920   20.4220 O   0  0  0  0  0  0  0  0  0  0  0  0
  -30.0490  -20.5470   21.2180 C   0  0  0  0  0  3  0  0  0  0  0  0
  -30.3860  -19.1870   21.3550 C   0  0  0  0  0  3  0  0  0  0  0  0
  -29.3830  -20.1260   18.9230 C   0  0  0  0  0  3  0  0  0  0  0  0
  -29.5630  -21.0210   19.9810 C   0  0  0  0  0  0  0  0  0  0  0  0
  -30.2550  -18.2870   20.2720 C   0  0  0  0  0  0  0  0  0  0  0  0
  -29.7220  -18.7780   19.0480 C   0  0  0  0  0  0  0  0  0  0  0  0
  -29.4930  -17.9630   17.8050 C   0  0  0  0  0  2  0  0  0  0  0  0
  -30.8680  -16.8940   20.4580 C   0  0  0  0  0  2  0  0  0  0  0  0
  -28.7990  -16.6710   18.1350 C   0  0  0  0  0  2  0  0  0  0  0  0
  -29.8400  -15.6780   18.6010 C   0  0  0  0  0  2  0  0  0  0  0  0
  -30.1450  -15.6720   20.0410 N   0  0  0  0  0  0  0  0  0  0  0  0
  -25.2340  -13.9740   20.4870 C   0  0  0  0  0  0  0  0  0  0  0  0
  -24.1500  -13.2120   20.8310 C   0  0  0  0  0  0  0  0  0  0  0  0
  -24.6100  -11.8600   20.8480 C   0  0  0  0  0  0  0  0  0  0  0  0
  -26.2820  -13.0840   20.3100 N   0  0  0  0  0  0  0  0  0  0  0  0
  -25.9100  -11.8110   20.5970 N   0  0  0  0  0  0  0  0  0  0  0  0
  -23.8760  -10.6020   21.0310 C   0  0  0  0  0  0  0  0  0  0  0  0
  -24.2850   -9.6420   21.9840 C   0  0  0  0  0  3  0  0  0  0  0  0
  -23.5530   -8.4480   22.1540 C   0  0  0  0  0  3  0  0  0  0  0  0
  -22.3990   -8.2040   21.3720 C   0  0  0  0  0  0  0  0  0  0  0  0
  -22.0110   -9.1510   20.4100 C   0  0  0  0  0  3  0  0  0  0  0  0
  -22.7440  -10.3380   20.2370 C   0  0  0  0  0  3  0  0  0  0  0  0
  -21.6410   -7.0610   21.4530 O   0  0  0  0  0  0  0  0  0  0  0  0
  -21.5700   -6.3250   22.6080 C   0  0  0  0  0  0  0  0  0  0  0  0
  -21.1430   -6.8940   23.8280 C   0  0  0  0  0  3  0  0  0  0  0  0
  -21.0160   -6.0870   24.9760 C   0  0  0  0  0  3  0  0  0  0  0  0
  -21.3100   -4.7120   24.9060 C   0  0  0  0  0  0  0  0  0  0  0  0
  -21.7320   -4.1420   23.6920 C   0  0  0  0  0  3  0  0  0  0  0  0
  -21.8590   -4.9470   22.5450 C   0  0  0  0  0  0  0  0  0  0  0  0
  -22.2450   -4.3890   21.3720 F   0  0  0  0  0  0  0  0  0  0  0  0
  -21.1820   -3.9350   26.0070 F   0  0  0  0  0  0  0  0  0  0  0  0
  -22.7460  -13.6960   21.0410 C   0  0  0  0  0  0  0  0  0  0  0  0
  -21.9880  -13.0200   21.8980 N   0  0  0  0  0  0  0  0  0  0  0  0
  -22.3270  -14.7100   20.4840 O   0  0  0  0  0  0  0  0  0  0  0  0
  -22.3400  -12.2000   22.3690 H   0  0  0  0  0  0  0  0  0  0  0  0
  -21.0460  -13.3320   22.0910 H   0  0  0  0  0  0  0  0  0  0  0  0
  -25.4090  -15.3400   20.2860 N   0  0  0  0  0  0  0  0  0  0  0  0
  -24.6460  -16.0030   20.3620 H   0  0  0  0  0  0  0  0  0  0  0  0
  -26.2860  -15.7710   20.0180 H   0  0  0  0  0  0  0  0  0  0  0  0
  -29.2680  -22.4330   19.6950 C   0  0  0  0  0  0  0  0  0  0  0  0
  -29.0490  -22.8410   18.5470 O   0  0  0  0  0  0  0  0  0  0  0  0
  -29.2300  -23.3950   20.8720 C   0  0  0  0  0  2  0  0  0  0  0  0
  -28.6430  -24.7210   20.4110 C   0  0  0  0  0  2  0  0  0  0  0  0
  -28.7390  -25.8250   21.4360 C   0  0  0  0  0  2  0  0  0  0  0  0
  -28.6880  -27.0010   20.6600 O   0  0  0  0  0  0  0  0  0  0  0  0
  -24.6170  -32.0190   23.4180 C   0  0  0  0  0  0  0  0  0  0  0  0
  -27.4680  -27.6050   20.6000 C   0  0  0  0  0  0  0  0  0  0  0  0
  -23.5010  -30.5580   21.7570 C   0  0  0  0  0  3  0  0  0  0  0  0
  -25.0370  -29.0020   20.4540 C   0  0  0  0  0  0  0  0  0  0  0  0
  -26.0150  -30.9700   21.6550 C   0  0  0  0  0  2  0  0  0  0  0  0
  -26.1500  -29.5850   21.0720 C   0  0  0  0  0  0  0  0  0  0  0  0
  -27.3670  -28.8900   21.1450 C   0  0  0  0  0  3  0  0  0  0  0  0
  -26.3460  -27.0110   19.9780 C   0  0  0  0  0  3  0  0  0  0  0  0
  -25.1240  -27.7090   19.9080 C   0  0  0  0  0  3  0  0  0  0  0  0
  -23.7780  -29.8360   20.4110 C   0  0  0  0  0  2  0  0  0  0  0  0
  -24.7250  -31.1970   22.3370 N   0  0  0  0  0  0  0  0  0  0  0  0
  -23.5120  -32.2910   23.9030 O   0  0  0  0  0  0  0  0  0  0  0  0
  -22.8200  -29.5570   22.7150 C   0  0  0  0  0  0  0  0  0  0  0  0
  -21.5080  -29.3500   22.5220 N   0  0  0  0  0  0  0  0  0  0  0  0
  -23.4700  -28.9650   23.5800 O   0  0  0  0  0  0  0  0  0  0  0  0
  -21.0490  -29.8780   21.7940 H   0  0  0  0  0  0  0  0  0  0  0  0
  -18.1310  -28.1220   22.8640 C   0  0  0  0  0  0  0  0  0  0  0  0
  -20.6640  -28.4250   23.2760 C   0  0  0  0  0  3  0  0  0  0  0  0
  -20.8180  -26.9780   22.7530 C   0  0  0  0  0  2  0  0  0  0  0  0
  -19.7810  -26.6070   21.6890 C   0  0  0  0  0  2  0  0  0  0  0  0
  -18.3630  -26.7530   22.2460 C   0  0  0  0  0  2  0  0  0  0  0  0
  -19.2130  -28.9140   23.3320 C   0  0  0  0  0  0  0  0  0  0  0  0
  -18.9450  -30.1950   23.8630 C   0  0  0  0  0  3  0  0  0  0  0  0
  -17.6270  -30.6830   23.9360 C   0  0  0  0  0  3  0  0  0  0  0  0
  -16.5580  -29.8880   23.4850 C   0  0  0  0  0  3  0  0  0  0  0  0
  -16.8110  -28.6110   22.9550 C   0  0  0  0  0  3  0  0  0  0  0  0
  -25.8710  -32.6750   24.0790 C   0  0  0  0  0  3  0  0  0  0  0  0
  -26.3340  -31.9450   25.4000 C   0  0  1  0  0  0  0  0  0  0  0  0
  -25.1910  -31.7160   26.4170 C   0  0  0  0  0  1  0  0  0  0  0  0
  -26.9570  -30.5690   25.0690 C   0  0  0  0  0  1  0  0  0  0  0  0
  -27.4400  -32.7740   26.0960 C   0  0  0  0  0  1  0  0  0  0  0  0
  -25.5400  -34.0800   24.3470 N   0  0  0  0  0  0  0  0  0  0  0  0
  -25.8990  -35.1070   23.5640 C   0  0  0  0  0  0  0  0  0  0  0  0
  -26.6160  -34.9730   22.5680 O   0  0  0  0  0  0  0  0  0  0  0  0
  -24.9090  -34.2580   25.1140 H   0  0  0  0  0  0  0  0  0  0  0  0
  -24.1720  -36.8650   23.0750 C   0  0  0  0  0  1  0  0  0  0  0  0
  -25.3830  -36.5060   23.9490 C   0  0  0  0  0  3  0  0  0  0  0  0
  -27.4780  -37.4400   24.8280 C   0  0  0  0  0  1  0  0  0  0  0  0
  -26.4100  -37.5640   23.8370 N   0  0  0  0  0  0  0  0  0  0  0  0
  -25.9910  -38.4840   23.9370 H   0  0  0  0  0  0  0  0  0  0  0  0
  2  7  1  0
  3  4  1  0
  3  2  1  0
  5  4  1  0
  5 23  1  0
  5  6  1  0
  7  1  1  0
  7  6  1  0
  8  1  2  0
  9 10  1  0
 11 14  2  0
 11 12  1  0
 12  9  2  0
 13 16  1  0
 13 10  2  0
 14 13  1  0
 15 17  1  0
 15 14  1  0
 17 18  1  0
 18 19  1  0
 19  1  1  0
 19 16  1  0
 20 21  2  0
 21 22  1  0
 21 40  1  0
 22 25  1  0
 23 20  1  0
 23 24  1  0
 24 22  2  0
 25 26  1  0
 26 27  2  0
 28 31  1  0
 28 27  1  0
 29 28  2  0
 30 29  1  0
 30 25  2  0
 31 32  1  0
 32 33  1  0
 33 34  2  0
 35 34  1  0
 35 39  1  0
 36 35  2  0
 37 32  2  0
 37 36  1  0
 38 37  1  0
 40 41  1  0
 41 44  1  0
 41 43  1  0
 42 40  2  0
 45 46  1  0
 45 20  1  0
 47 45  1  0
 48 12  1  0
 48 50  1  0
 49 48  2  0
 51 50  1  0
 51 52  1  0
 53 52  1  0
 54 65  2  0
 55 53  1  0
 55 60  1  0
 56 64  1  0
 56 66  1  0
 57 59  1  0
 58 64  1  0
 59 60  2  0
 59 58  1  0
 61 55  2  0
 62 61  1  0
 62 57  2  0
 63 57  1  0
 63 56  1  0
 64 54  1  0
 66 68  2  0
 67 66  1  0
 69 67  1  0
 70 79  2  0
 70 75  1  0
 71 67  1  0
 71 75  1  0
 72 71  1  0
 73 74  1  0
 73 72  1  0
 74 70  1  0
 75 76  2  0
 76 77  1  0
 78 77  2  0
 79 78  1  0
 80 54  1  0
 80 85  1  0
 80 81  1  0
 81 84  1  1
 81 82  1  0
 83 81  1  0
 85 88  1  0
 86 90  1  0
 86 85  1  0
 87 86  2  0
 90 89  1  0
 92 93  1  0
 92 90  1  0
 92 91  1  0
M  ISO  4   1 100  19 100  52 101  53 101
M  END
>  <TORSDO>  (78) 
F 19

>  <SCORE>  (78) 
-13.129

>  <name>  (78) 
77

>  <ligand_id>  (78) 
77

>  <original_smiles>  (78) 
[H]c1c([H])c([H])c2c(c1[H])C([H])([H])C([H])([H])C([H])([H])C2([H])N([H])C(=O)C1([H])N(C(=O)C([H])(N([H])C(=O)C([H])(N([H])C([H])([H])[H])C([H])([H])[H])C(C([H])([H])[H])(C([H])([H])[H])C([H])([H])[H])C([H])([H])c2c([H])c(OC([H])([H])C([H])([H])C([H])([H])C(=O)c3c([H])c([H])c4c(c3[H])C([H])([H])C([H])([H])C([H])([H])N(C(=O)N3C([H])([H])C([H])([H])C([H])([H])C([H])(n5nc(-c6c([H])c([H])c(Oc7c([H])c([H])c(F)c([H])c7F)c([H])c6[H])c(C(=O)N([H])[H])c5N([H])[H])C3([H])[H])C4([H])[H])c([H])c([H])c2C1([H])[H]

>  <smiles>  (78) 
[H]c1c([H])c([H])c2c(c1[H])C([H])([H])C([H])([H])C([H])([H])C2([H])N([H])C(=O)C1([H])N(C(=O)C([H])(N([H])C(=O)C([H])(N([H])C([H])([H])[H])C([H])([H])[H])C(C([H])([H])[H])(C([H])([H])[H])C([H])([H])[H])C([H])([H])c2c([H])c(OC([H])([H])C([H])([H])C([H])([H])C(=O)c3c([H])c([H])c4c(c3[H])C([H])([H])C([H])([H])C([H])([H])N(C(=O)N3C([H])([H])C([H])([H])C([H])([H])C([H])(n5nc(-c6c([H])c([H])c(Oc7c([H])c([H])c(F)c([H])c7F)c([H])c6[H])c(C(=O)N([H])[H])c5N([H])[H])C3([H])[H])C4([H])[H])c([H])c([H])c2C1([H])[H]

$$$$
78:0:0
     RDKit          3D

 95104  0  0  1  0  0  0  0  0999 V2000
  -29.6040  -21.9550   21.9770 C   0  0  0  0  0  3  0  0  0  0  0  0
  -29.6070  -23.3560   21.8170 C   0  0  0  0  0  3  0  0  0  0  0  0
  -27.3670  -21.8550   21.0360 C   0  0  0  0  0  3  0  0  0  0  0  0
  -28.4800  -21.1980   21.5950 C   0  0  0  0  0  0  0  0  0  0  0  0
  -28.4780  -24.0280   21.2850 C   0  0  0  0  0  0  0  0  0  0  0  0
  -27.3600  -23.2570   20.8780 C   0  0  0  0  0  0  0  0  0  0  0  0
  -26.1290  -23.9140   20.2720 C   0  0  0  0  0  1  0  0  0  0  0  0
  -28.4620  -19.6860   21.7640 C   0  0  0  0  0  2  0  0  0  0  0  0
  -28.4550  -18.9450   20.4130 C   0  0  0  0  0  2  0  0  0  0  0  0
  -31.9830  -14.7060   19.1710 C   0  0  0  0  0  0  0  0  0  0  0  0
  -31.7080  -12.2660   18.9230 C   0  0  0  0  0  2  0  0  0  0  0  0
  -30.6590  -11.9720   17.8320 C   0  0  0  0  0  2  0  0  0  0  0  0
  -29.2360  -11.9730   18.4260 C   0  0  0  0  0  2  0  0  0  0  0  0
  -28.9530  -13.2250   19.2990 C   0  0  0  0  0  3  0  0  0  0  0  0
  -30.1030  -13.4550   20.3040 C   0  0  0  0  0  2  0  0  0  0  0  0
  -31.3640  -13.5540   19.5450 N   0  0  0  0  0  0  0  0  0  0  0  0
  -32.9770  -14.7270   18.4350 O   0  0  0  0  0  0  0  0  0  0  0  0
  -29.7020  -17.5240   18.7080 C   0  0  0  0  0  2  0  0  0  0  0  0
  -30.2890  -17.3180   21.1590 C   0  0  0  0  0  2  0  0  0  0  0  0
  -31.0150  -16.7920   18.3880 C   0  0  0  0  0  2  0  0  0  0  0  0
  -31.5470  -16.5270   20.7420 C   0  0  0  0  0  2  0  0  0  0  0  0
  -29.7980  -18.2740   20.0470 C   0  0  0  0  0  3  0  0  0  0  0  0
  -31.3160  -15.8420   19.4630 N   0  0  0  0  0  0  0  0  0  0  0  0
  -26.8800  -14.1200   20.5410 C   0  0  0  0  0  0  0  0  0  0  0  0
  -25.7380  -13.5040   20.9730 C   0  0  0  0  0  0  0  0  0  0  0  0
  -25.8770  -12.1260   20.6240 C   0  0  0  0  0  0  0  0  0  0  0  0
  -27.6590  -13.1240   19.9710 N   0  0  0  0  0  0  0  0  0  0  0  0
  -27.0630  -11.9080   20.0690 N   0  0  0  0  0  0  0  0  0  0  0  0
  -24.9260  -11.0130   20.7340 C   0  0  0  0  0  0  0  0  0  0  0  0
  -25.2390   -9.8440   21.4610 C   0  0  0  0  0  3  0  0  0  0  0  0
  -24.3020   -8.7930   21.5660 C   0  0  0  0  0  3  0  0  0  0  0  0
  -23.0350   -8.9070   20.9450 C   0  0  0  0  0  0  0  0  0  0  0  0
  -22.7370  -10.0640   20.2030 C   0  0  0  0  0  3  0  0  0  0  0  0
  -23.6730  -11.1050   20.0950 C   0  0  0  0  0  3  0  0  0  0  0  0
  -22.0720   -7.9280   20.9730 O   0  0  0  0  0  0  0  0  0  0  0  0
  -21.8780   -7.1400   22.0790 C   0  0  0  0  0  0  0  0  0  0  0  0
  -21.5890   -7.6930   23.3460 C   0  0  0  0  0  3  0  0  0  0  0  0
  -21.3280   -6.8450   24.4420 C   0  0  0  0  0  3  0  0  0  0  0  0
  -21.3450   -5.4480   24.2710 C   0  0  0  0  0  0  0  0  0  0  0  0
  -21.6280   -4.8970   23.0090 C   0  0  0  0  0  3  0  0  0  0  0  0
  -21.8900   -5.7400   21.9150 C   0  0  0  0  0  0  0  0  0  0  0  0
  -22.1400   -5.2030   20.6970 F   0  0  0  0  0  0  0  0  0  0  0  0
  -21.0870   -4.6340   25.3200 F   0  0  0  0  0  0  0  0  0  0  0  0
  -24.5420  -14.1690   21.5910 C   0  0  0  0  0  0  0  0  0  0  0  0
  -23.8390  -13.4690   22.4740 N   0  0  0  0  0  0  0  0  0  0  0  0
  -24.2510  -15.3360   21.3280 O   0  0  0  0  0  0  0  0  0  0  0  0
  -24.0890  -12.5180   22.7050 H   0  0  0  0  0  0  0  0  0  0  0  0
  -23.0390  -13.8890   22.9260 H   0  0  0  0  0  0  0  0  0  0  0  0
  -27.3130  -15.4420   20.5660 N   0  0  0  0  0  0  0  0  0  0  0  0
  -26.7420  -16.1910   20.9390 H   0  0  0  0  0  0  0  0  0  0  0  0
  -28.1870  -15.7630   20.1740 H   0  0  0  0  0  0  0  0  0  0  0  0
  -28.4060  -25.5600   21.1870 C   0  0  0  0  0  2  0  0  0  0  0  0
  -29.7260  -26.3610   21.1200 C   0  0  0  0  0  2  0  0  0  0  0  0
  -30.1710  -26.7560   19.6920 C   0  0  0  0  0  2  0  0  0  0  0  0
  -29.7990  -28.1080   19.3950 O   0  0  0  0  0  0  0  0  0  0  0  0
  -24.9110  -31.2900   23.4490 C   0  0  0  0  0  0  0  0  0  0  0  0
  -28.4690  -28.4270   19.5470 C   0  0  0  0  0  0  0  0  0  0  0  0
  -24.0320  -29.9090   21.5930 C   0  0  0  0  0  3  0  0  0  0  0  0
  -25.7550  -29.1330   19.8800 C   0  0  0  0  0  0  0  0  0  0  0  0
  -26.3320  -31.0170   21.4210 C   0  0  0  0  0  2  0  0  0  0  0  0
  -26.7530  -29.8630   20.5340 C   0  0  0  0  0  0  0  0  0  0  0  0
  -28.1120  -29.5200   20.3650 C   0  0  0  0  0  3  0  0  0  0  0  0
  -27.4540  -27.7000   18.8870 C   0  0  0  0  0  3  0  0  0  0  0  0
  -26.0990  -28.0490   19.0530 C   0  0  0  0  0  3  0  0  0  0  0  0
  -24.3260  -29.5700   20.1060 C   0  0  0  0  0  2  0  0  0  0  0  0
  -25.1090  -30.7480   22.2140 N   0  0  0  0  0  0  0  0  0  0  0  0
  -23.8380  -31.1400   24.0500 O   0  0  0  0  0  0  0  0  0  0  0  0
  -23.7660  -28.5910   22.3550 C   0  0  0  0  0  0  0  0  0  0  0  0
  -22.6170  -27.9580   22.0670 N   0  0  0  0  0  0  0  0  0  0  0  0
  -24.5890  -28.1470   23.1600 O   0  0  0  0  0  0  0  0  0  0  0  0
  -21.9960  -28.3920   21.4000 H   0  0  0  0  0  0  0  0  0  0  0  0
  -20.0300  -25.4430   21.8850 C   0  0  0  0  0  0  0  0  0  0  0  0
  -22.1720  -26.6840   22.6300 C   0  0  0  0  0  3  0  0  0  0  0  0
  -22.9530  -25.5010   22.0120 C   0  0  0  0  0  2  0  0  0  0  0  0
  -22.2480  -24.8820   20.8000 C   0  0  0  0  0  2  0  0  0  0  0  0
  -20.8560  -24.3740   21.1900 C   0  0  0  0  0  2  0  0  0  0  0  0
  -20.6490  -26.5360   22.5480 C   0  0  0  0  0  0  0  0  0  0  0  0
  -19.8360  -27.5220   23.1500 C   0  0  0  0  0  3  0  0  0  0  0  0
  -18.4340  -27.4260   23.1000 C   0  0  0  0  0  3  0  0  0  0  0  0
  -17.8270  -26.3330   22.4570 C   0  0  0  0  0  3  0  0  0  0  0  0
  -18.6240  -25.3430   21.8550 C   0  0  0  0  0  3  0  0  0  0  0  0
  -26.0120  -32.1440   24.1550 C   0  0  0  0  0  3  0  0  0  0  0  0
  -25.4610  -33.4890   24.3620 N   0  0  0  0  0  0  0  0  0  0  0  0
  -25.7650  -34.5580   23.6120 C   0  0  0  0  0  0  0  0  0  0  0  0
  -26.6040  -34.5250   22.7070 O   0  0  0  0  0  0  0  0  0  0  0  0
  -24.7240  -33.5770   25.0470 H   0  0  0  0  0  0  0  0  0  0  0  0
  -23.8830  -36.0650   22.8980 C   0  0  0  0  0  1  0  0  0  0  0  0
  -25.0200  -35.8710   23.9130 C   0  0  0  0  0  3  0  0  0  0  0  0
  -26.8670  -37.0680   25.0010 C   0  0  0  0  0  1  0  0  0  0  0  0
  -25.9000  -37.0600   23.9060 N   0  0  0  0  0  0  0  0  0  0  0  0
  -25.3520  -37.9140   23.9630 H   0  0  0  0  0  0  0  0  0  0  0  0
  -26.5020  -31.5230   25.5210 C   0  0  1  0  0  0  0  0  0  0  0  0
  -25.3500  -31.1640   26.4890 C   0  0  0  0  0  1  0  0  0  0  0  0
  -27.3250  -30.2370   25.2710 C   0  0  0  0  0  1  0  0  0  0  0  0
  -27.4430  -32.5170   26.2410 C   0  0  0  0  0  1  0  0  0  0  0  0
  2  1  1  0
  3  4  1  0
  4  8  1  0
  4  1  2  0
  5  2  2  0
  6  3  2  0
  6  5  1  0
  7  6  1  0
  9  8  1  0
 10 23  1  0
 10 16  1  0
 11 16  1  0
 12 13  1  0
 12 11  1  0
 14 13  1  0
 14 27  1  0
 14 15  1  0
 16 15  1  0
 17 10  2  0
 18 22  1  0
 20 18  1  0
 20 23  1  0
 21 19  1  0
 22  9  1  0
 22 19  1  0
 23 21  1  0
 24 49  1  0
 24 25  2  0
 25 44  1  0
 26 29  1  0
 26 25  1  0
 27 28  1  0
 27 24  1  0
 28 26  2  0
 29 30  1  0
 30 31  2  0
 32 35  1  0
 32 31  1  0
 33 32  2  0
 34 33  1  0
 34 29  2  0
 35 36  1  0
 36 37  1  0
 37 38  2  0
 39 38  1  0
 39 43  1  0
 40 39  2  0
 41 36  2  0
 41 40  1  0
 42 41  1  0
 44 45  1  0
 45 47  1  0
 45 48  1  0
 46 44  2  0
 49 50  1  0
 51 49  1  0
 52  5  1  0
 53 52  1  0
 54 53  1  0
 55 57  1  0
 55 54  1  0
 56 67  2  0
 57 62  1  0
 58 66  1  0
 58 68  1  0
 59 65  1  0
 59 61  1  0
 60 66  1  0
 61 60  1  0
 62 61  2  0
 63 64  1  0
 63 57  2  0
 64 59  2  0
 65 58  1  0
 66 56  1  0
 68 70  2  0
 69 68  1  0
 71 69  1  0
 72 77  1  0
 73 69  1  0
 74 73  1  0
 75 76  1  0
 75 74  1  0
 76 72  1  0
 77 73  1  0
 77 78  2  0
 79 78  1  0
 80 79  2  0
 81 72  2  0
 81 80  1  0
 82 56  1  0
 82 83  1  0
 82 92  1  0
 83 86  1  0
 84 88  1  0
 84 83  1  0
 85 84  2  0
 88 87  1  0
 90 88  1  0
 90 91  1  0
 90 89  1  0
 92 95  1  1
 92 93  1  0
 94 92  1  0
M  ISO  4  10 100  23 100  54 101  55 101
M  END
>  <TORSDO>  (79) 
F 21

>  <SCORE>  (79) 
-5.661

>  <name>  (79) 
78

>  <ligand_id>  (79) 
78

>  <original_smiles>  (79) 
[H]c1c([H])c([H])c2c(c1[H])C([H])([H])C([H])([H])C([H])([H])C2([H])N([H])C(=O)C1([H])N(C(=O)C([H])(N([H])C(=O)C([H])(N([H])C([H])([H])[H])C([H])([H])[H])C(C([H])([H])[H])(C([H])([H])[H])C([H])([H])[H])C([H])([H])c2c([H])c(OC([H])([H])C([H])([H])C([H])([H])c3c([H])c([H])c(C([H])([H])C([H])([H])C4([H])C([H])([H])C([H])([H])N(C(=O)N5C([H])([H])C([H])([H])C([H])([H])C([H])(n6nc(-c7c([H])c([H])c(Oc8c([H])c([H])c(F)c([H])c8F)c([H])c7[H])c(C(=O)N([H])[H])c6N([H])[H])C5([H])[H])C([H])([H])C4([H])[H])c([H])c3C([H])([H])[H])c([H])c([H])c2C1([H])[H]

>  <smiles>  (79) 
[H]c1c([H])c([H])c2c(c1[H])C([H])([H])C([H])([H])C([H])([H])C2([H])N([H])C(=O)C1([H])N(C(=O)C([H])(N([H])C(=O)C([H])(N([H])C([H])([H])[H])C([H])([H])[H])C(C([H])([H])[H])(C([H])([H])[H])C([H])([H])[H])C([H])([H])c2c([H])c(OC([H])([H])C([H])([H])C([H])([H])c3c([H])c([H])c(C([H])([H])C([H])([H])C4([H])C([H])([H])C([H])([H])N(C(=O)N5C([H])([H])C([H])([H])C([H])([H])C([H])(n6nc(-c7c([H])c([H])c(Oc8c([H])c([H])c(F)c([H])c8F)c([H])c7[H])c(C(=O)N([H])[H])c6N([H])[H])C5([H])[H])C([H])([H])C4([H])[H])c([H])c3C([H])([H])[H])c([H])c([H])c2C1([H])[H]

$$$$
79:0:0
     RDKit          3D

 93101  0  0  1  0  0  0  0  0999 V2000
  -30.6420  -20.7940   23.5240 C   0  0  0  0  0  3  0  0  0  0  0  0
  -30.7150  -19.3900   23.5130 C   0  0  0  0  0  3  0  0  0  0  0  0
  -30.1120  -20.7770   21.1470 C   0  0  0  0  0  3  0  0  0  0  0  0
  -30.3340  -21.4970   22.3430 C   0  0  0  0  0  0  0  0  0  0  0  0
  -30.4750  -18.6720   22.3240 C   0  0  0  0  0  0  0  0  0  0  0  0
  -30.1710  -19.3700   21.1300 C   0  0  0  0  0  0  0  0  0  0  0  0
  -29.8910  -18.6430   19.8230 C   0  0  0  0  0  1  0  0  0  0  0  0
  -30.2510  -23.0150   22.3920 C   0  0  0  0  0  2  0  0  0  0  0  0
  -29.6560  -23.6670   21.1330 C   0  0  0  0  0  2  0  0  0  0  0  0
  -29.5070  -25.1820   21.2720 C   0  0  0  0  0  2  0  0  0  0  0  0
  -28.9900  -25.8160   19.9800 C   0  0  0  0  0  2  0  0  0  0  0  0
  -28.8590  -27.2100   20.2210 O   0  0  0  0  0  0  0  0  0  0  0  0
  -24.6530  -31.9440   23.4000 C   0  0  0  0  0  0  0  0  0  0  0  0
  -27.6090  -27.7800   20.2400 C   0  0  0  0  0  0  0  0  0  0  0  0
  -23.5570  -30.5250   21.6950 C   0  0  0  0  0  3  0  0  0  0  0  0
  -25.1190  -29.1140   20.2610 C   0  0  0  0  0  0  0  0  0  0  0  0
  -26.0570  -31.0380   21.5550 C   0  0  0  0  0  2  0  0  0  0  0  0
  -26.2310  -29.6940   20.8830 C   0  0  0  0  0  0  0  0  0  0  0  0
  -27.4740  -29.0330   20.8720 C   0  0  0  0  0  3  0  0  0  0  0  0
  -26.4790  -27.2060   19.6090 C   0  0  0  0  0  3  0  0  0  0  0  0
  -25.2360  -27.8650   19.6260 C   0  0  0  0  0  3  0  0  0  0  0  0
  -23.8280  -29.8970   20.3020 C   0  0  0  0  0  2  0  0  0  0  0  0
  -24.7720  -31.1840   22.2770 N   0  0  0  0  0  0  0  0  0  0  0  0
  -23.5490  -32.1390   23.9270 O   0  0  0  0  0  0  0  0  0  0  0  0
  -22.9510  -29.4400   22.6120 C   0  0  0  0  0  0  0  0  0  0  0  0
  -21.6580  -29.1390   22.4050 N   0  0  0  0  0  0  0  0  0  0  0  0
  -23.6410  -28.8720   23.4620 O   0  0  0  0  0  0  0  0  0  0  0  0
  -21.1610  -29.6580   21.6950 H   0  0  0  0  0  0  0  0  0  0  0  0
  -18.3990  -27.6040   22.6530 C   0  0  0  0  0  0  0  0  0  0  0  0
  -20.8870  -28.1250   23.1210 C   0  0  0  0  0  3  0  0  0  0  0  0
  -21.1810  -26.7090   22.5730 C   0  0  0  0  0  2  0  0  0  0  0  0
  -20.2020  -26.2710   21.4790 C   0  0  0  0  0  2  0  0  0  0  0  0
  -18.7660  -26.2760   22.0110 C   0  0  0  0  0  2  0  0  0  0  0  0
  -19.3960  -28.4780   23.1610 C   0  0  0  0  0  0  0  0  0  0  0  0
  -19.0050  -29.7160   23.7150 C   0  0  0  0  0  3  0  0  0  0  0  0
  -17.6470  -30.0830   23.7670 C   0  0  0  0  0  3  0  0  0  0  0  0
  -16.6630  -29.2070   23.2810 C   0  0  0  0  0  3  0  0  0  0  0  0
  -17.0390  -27.9680   22.7290 C   0  0  0  0  0  3  0  0  0  0  0  0
  -25.8900  -32.6280   24.0620 C   0  0  0  0  0  3  0  0  0  0  0  0
  -25.5340  -34.0260   24.3280 N   0  0  0  0  0  0  0  0  0  0  0  0
  -25.8630  -35.0570   23.5380 C   0  0  0  0  0  0  0  0  0  0  0  0
  -26.5740  -34.9340   22.5370 O   0  0  0  0  0  0  0  0  0  0  0  0
  -24.9090  -34.1930   25.1030 H   0  0  0  0  0  0  0  0  0  0  0  0
  -24.1000  -36.7810   23.0530 C   0  0  0  0  0  1  0  0  0  0  0  0
  -25.3210  -36.4470   23.9230 C   0  0  0  0  0  3  0  0  0  0  0  0
  -27.3970  -37.4290   24.7930 C   0  0  0  0  0  1  0  0  0  0  0  0
  -26.3280  -37.5250   23.8040 N   0  0  0  0  0  0  0  0  0  0  0  0
  -25.8910  -38.4380   23.8990 H   0  0  0  0  0  0  0  0  0  0  0  0
  -26.3630  -31.9090   25.3850 C   0  0  1  0  0  0  0  0  0  0  0  0
  -25.2160  -31.6330   26.3860 C   0  0  0  0  0  1  0  0  0  0  0  0
  -27.0420  -30.5590   25.0590 C   0  0  0  0  0  1  0  0  0  0  0  0
  -27.4230  -32.7770   26.1040 C   0  0  0  0  0  1  0  0  0  0  0  0
  -30.5610  -17.1600   22.3540 C   0  0  0  0  0  2  0  0  0  0  0  0
  -31.7710  -16.6410   21.5600 C   0  0  0  0  0  2  0  0  0  0  0  0
  -31.9160  -15.1160   21.6110 C   0  0  0  0  0  2  0  0  0  0  0  0
  -30.5860  -14.1790   19.7130 C   0  0  0  0  0  0  0  0  0  0  0  0
  -29.9660  -12.2010   18.3960 C   0  0  0  0  0  2  0  0  0  0  0  0
  -28.8510  -12.3950   17.3610 C   0  0  0  0  0  2  0  0  0  0  0  0
  -27.4730  -12.2050   18.0120 C   0  0  0  0  0  2  0  0  0  0  0  0
  -27.3040  -13.0630   19.2920 C   0  0  0  0  0  3  0  0  0  0  0  0
  -28.5050  -12.8840   20.2480 C   0  0  0  0  0  2  0  0  0  0  0  0
  -29.7580  -13.1330   19.5100 N   0  0  0  0  0  0  0  0  0  0  0  0
  -31.3150  -14.6680   18.8430 O   0  0  0  0  0  0  0  0  0  0  0  0
  -30.7790  -14.4170   21.0150 N   0  0  0  0  0  0  0  0  0  0  0  0
  -30.1860  -13.8960   21.6460 H   0  0  0  0  0  0  0  0  0  0  0  0
  -25.0290  -13.6380   20.3580 C   0  0  0  0  0  0  0  0  0  0  0  0
  -24.0290  -12.8490   20.8600 C   0  0  0  0  0  0  0  0  0  0  0  0
  -24.4860  -11.5010   20.7300 C   0  0  0  0  0  0  0  0  0  0  0  0
  -26.0360  -12.7710   19.9590 N   0  0  0  0  0  0  0  0  0  0  0  0
  -25.7180  -11.4800   20.2360 N   0  0  0  0  0  0  0  0  0  0  0  0
  -23.8020  -10.2290   20.9930 C   0  0  0  0  0  0  0  0  0  0  0  0
  -24.3100   -9.2950   21.9240 C   0  0  0  0  0  3  0  0  0  0  0  0
  -23.6230   -8.0880   22.1730 C   0  0  0  0  0  3  0  0  0  0  0  0
  -22.4160   -7.8040   21.4910 C   0  0  0  0  0  0  0  0  0  0  0  0
  -21.9270   -8.7250   20.5490 C   0  0  0  0  0  3  0  0  0  0  0  0
  -22.6140   -9.9250   20.2980 C   0  0  0  0  0  3  0  0  0  0  0  0
  -21.6950   -6.6440   21.6510 O   0  0  0  0  0  0  0  0  0  0  0  0
  -21.6640   -5.9740   22.8470 C   0  0  0  0  0  0  0  0  0  0  0  0
  -21.2020   -6.5860   24.0330 C   0  0  0  0  0  3  0  0  0  0  0  0
  -21.1230   -5.8390   25.2260 C   0  0  0  0  0  3  0  0  0  0  0  0
  -21.4950   -4.4810   25.2330 C   0  0  0  0  0  0  0  0  0  0  0  0
  -21.9500   -3.8690   24.0520 C   0  0  0  0  0  3  0  0  0  0  0  0
  -22.0310   -4.6130   22.8620 C   0  0  0  0  0  0  0  0  0  0  0  0
  -22.4500   -4.0120   21.7220 F   0  0  0  0  0  0  0  0  0  0  0  0
  -21.4110   -3.7620   26.3770 F   0  0  0  0  0  0  0  0  0  0  0  0
  -22.6830  -13.3070   21.3440 C   0  0  0  0  0  0  0  0  0  0  0  0
  -22.0990  -12.5900   22.2980 N   0  0  0  0  0  0  0  0  0  0  0  0
  -22.1640  -14.3340   20.9110 O   0  0  0  0  0  0  0  0  0  0  0  0
  -22.5360  -11.7580   22.6680 H   0  0  0  0  0  0  0  0  0  0  0  0
  -21.2030  -12.8790   22.6640 H   0  0  0  0  0  0  0  0  0  0  0  0
  -25.1610  -15.0130   20.1920 N   0  0  0  0  0  0  0  0  0  0  0  0
  -24.4230  -15.6650   20.4340 H   0  0  0  0  0  0  0  0  0  0  0  0
  -25.9630  -15.4630   19.7650 H   0  0  0  0  0  0  0  0  0  0  0  0
  2  1  1  0
  3  4  1  0
  4  8  1  0
  4  1  2  0
  5 53  1  0
  5  2  2  0
  6  3  2  0
  6  5  1  0
  7  6  1  0
  9 10  1  0
  9  8  1  0
 11 12  1  0
 11 10  1  0
 12 14  1  0
 13 24  2  0
 14 19  1  0
 15 23  1  0
 15 25  1  0
 16 22  1  0
 16 18  1  0
 17 23  1  0
 18 17  1  0
 19 18  2  0
 20 21  1  0
 20 14  2  0
 21 16  2  0
 22 15  1  0
 23 13  1  0
 25 27  2  0
 26 25  1  0
 28 26  1  0
 29 38  2  0
 29 34  1  0
 30 26  1  0
 30 34  1  0
 31 30  1  0
 32 33  1  0
 32 31  1  0
 33 29  1  0
 34 35  2  0
 35 36  1  0
 37 36  2  0
 38 37  1  0
 39 13  1  0
 39 40  1  0
 39 49  1  0
 40 43  1  0
 41 45  1  0
 41 40  1  0
 42 41  2  0
 45 44  1  0
 47 48  1  0
 47 45  1  0
 47 46  1  0
 49 52  1  1
 49 50  1  0
 51 49  1  0
 54 55  1  0
 54 53  1  0
 56 64  1  0
 57 62  1  0
 58 59  1  0
 58 57  1  0
 60 59  1  0
 60 69  1  0
 60 61  1  0
 62 56  1  0
 62 61  1  0
 63 56  2  0
 64 55  1  0
 64 65  1  0
 66 67  2  0
 67 86  1  0
 68 67  1  0
 68 71  1  0
 69 70  1  0
 69 66  1  0
 70 68  2  0
 71 72  1  0
 72 73  2  0
 74 77  1  0
 74 73  1  0
 75 74  2  0
 76 75  1  0
 76 71  2  0
 77 78  1  0
 78 83  2  0
 78 79  1  0
 79 80  2  0
 80 81  1  0
 81 85  1  0
 82 81  2  0
 83 82  1  0
 84 83  1  0
 86 87  1  0
 87 90  1  0
 87 89  1  0
 88 86  2  0
 91 66  1  0
 91 92  1  0
 93 91  1  0
M  ISO  4  11 101  12 101  56 100  64 100
M  END
>  <TORSDO>  (80) 
F 23

>  <SCORE>  (80) 
-10.422

>  <name>  (80) 
79

>  <ligand_id>  (80) 
79

>  <original_smiles>  (80) 
[H]c1c([H])c([H])c2c(c1[H])C([H])([H])C([H])([H])C([H])([H])C2([H])N([H])C(=O)C1([H])N(C(=O)C([H])(N([H])C(=O)C([H])(N([H])C([H])([H])[H])C([H])([H])[H])C(C([H])([H])[H])(C([H])([H])[H])C([H])([H])[H])C([H])([H])c2c([H])c(OC([H])([H])C([H])([H])C([H])([H])C([H])([H])c3c([H])c([H])c(C([H])([H])C([H])([H])C([H])([H])N([H])C(=O)N4C([H])([H])C([H])([H])C([H])([H])C([H])(n5nc(-c6c([H])c([H])c(Oc7c([H])c([H])c(F)c([H])c7F)c([H])c6[H])c(C(=O)N([H])[H])c5N([H])[H])C4([H])[H])c(C([H])([H])[H])c3[H])c([H])c([H])c2C1([H])[H]

>  <smiles>  (80) 
[H]c1c([H])c([H])c2c(c1[H])C([H])([H])C([H])([H])C([H])([H])C2([H])N([H])C(=O)C1([H])N(C(=O)C([H])(N([H])C(=O)C([H])(N([H])C([H])([H])[H])C([H])([H])[H])C(C([H])([H])[H])(C([H])([H])[H])C([H])([H])[H])C([H])([H])c2c([H])c(OC([H])([H])C([H])([H])C([H])([H])C([H])([H])c3c([H])c([H])c(C([H])([H])C([H])([H])C([H])([H])N([H])C(=O)N4C([H])([H])C([H])([H])C([H])([H])C([H])(n5nc(-c6c([H])c([H])c(Oc7c([H])c([H])c(F)c([H])c7F)c([H])c6[H])c(C(=O)N([H])[H])c5N([H])[H])C4([H])[H])c(C([H])([H])[H])c3[H])c([H])c([H])c2C1([H])[H]

$$$$
80:0:0
     RDKit          3D

 95104  0  0  1  0  0  0  0  0999 V2000
  -29.7040  -23.7070   17.3060 C   0  0  0  0  0  3  0  0  0  0  0  0
  -31.2160  -22.8300   19.0060 C   0  0  0  0  0  3  0  0  0  0  0  0
  -29.8360  -24.9960   17.8560 C   0  0  0  0  0  3  0  0  0  0  0  0
  -31.3410  -24.1150   19.5610 C   0  0  0  0  0  3  0  0  0  0  0  0
  -30.3960  -22.6210   17.8800 C   0  0  0  0  0  0  0  0  0  0  0  0
  -30.6490  -25.2060   18.9940 C   0  0  0  0  0  0  0  0  0  0  0  0
  -30.2980  -21.2370   17.2720 C   0  0  0  0  0  2  0  0  0  0  0  0
  -29.5060  -20.2420   18.1420 C   0  0  0  0  0  2  0  0  0  0  0  0
  -28.3480  -17.9440   17.9620 C   0  0  0  0  0  2  0  0  0  0  0  0
  -30.9140  -18.1090   17.8690 C   0  0  0  0  0  2  0  0  0  0  0  0
  -28.4840  -17.2910   19.3480 C   0  0  0  0  0  2  0  0  0  0  0  0
  -30.9710  -17.4740   19.2730 C   0  0  0  0  0  2  0  0  0  0  0  0
  -29.5670  -18.8140   17.5640 C   0  0  0  0  0  3  0  0  0  0  0  0
  -29.7940  -16.4910   19.4050 C   0  0  0  0  0  3  0  0  0  0  0  0
  -30.6370  -14.4640   20.4760 C   0  0  0  0  0  0  0  0  0  0  0  0
  -30.3370  -12.2780   19.4340 C   0  0  0  0  0  2  0  0  0  0  0  0
  -29.4250  -12.5030   18.2070 C   0  0  0  0  0  2  0  0  0  0  0  0
  -27.9400  -12.3890   18.6070 C   0  0  0  0  0  2  0  0  0  0  0  0
  -27.5880  -13.2280   19.8630 C   0  0  0  0  0  3  0  0  0  0  0  0
  -28.6290  -13.0300   20.9940 C   0  0  0  0  0  2  0  0  0  0  0  0
  -29.9680  -13.2840   20.4400 N   0  0  0  0  0  0  0  0  0  0  0  0
  -31.8110  -14.5880   20.1250 O   0  0  0  0  0  0  0  0  0  0  0  0
  -29.8320  -15.5380   20.5270 N   0  0  0  0  0  0  0  0  0  0  0  0
  -28.9370  -15.3560   20.9510 H   0  0  0  0  0  0  0  0  0  0  0  0
  -25.1780  -13.8440   20.5250 C   0  0  0  0  0  0  0  0  0  0  0  0
  -24.1040  -13.0760   20.8850 C   0  0  0  0  0  0  0  0  0  0  0  0
  -24.5660  -11.7240   20.8760 C   0  0  0  0  0  0  0  0  0  0  0  0
  -26.2270  -12.9610   20.3240 N   0  0  0  0  0  0  0  0  0  0  0  0
  -25.8620  -11.6810   20.5930 N   0  0  0  0  0  0  0  0  0  0  0  0
  -23.8380  -10.4650   21.0700 C   0  0  0  0  0  0  0  0  0  0  0  0
  -24.2720   -9.4970   22.0030 C   0  0  0  0  0  3  0  0  0  0  0  0
  -23.5480   -8.2990   22.1830 C   0  0  0  0  0  3  0  0  0  0  0  0
  -22.3740   -8.0610   21.4300 C   0  0  0  0  0  0  0  0  0  0  0  0
  -21.9580   -9.0180   20.4870 C   0  0  0  0  0  3  0  0  0  0  0  0
  -22.6830  -10.2070   20.3050 C   0  0  0  0  0  3  0  0  0  0  0  0
  -21.6190   -6.9170   21.5200 O   0  0  0  0  0  0  0  0  0  0  0  0
  -21.5890   -6.1610   22.6640 C   0  0  0  0  0  0  0  0  0  0  0  0
  -21.2030   -6.7090   23.9070 C   0  0  0  0  0  3  0  0  0  0  0  0
  -21.1210   -5.8810   25.0450 C   0  0  0  0  0  3  0  0  0  0  0  0
  -21.4120   -4.5090   24.9410 C   0  0  0  0  0  0  0  0  0  0  0  0
  -21.7900   -3.9610   23.7030 C   0  0  0  0  0  3  0  0  0  0  0  0
  -21.8750   -4.7850   22.5670 C   0  0  0  0  0  0  0  0  0  0  0  0
  -22.2200   -4.2490   21.3720 F   0  0  0  0  0  0  0  0  0  0  0  0
  -21.3250   -3.7120   26.0320 F   0  0  0  0  0  0  0  0  0  0  0  0
  -22.7020  -13.5550   21.1280 C   0  0  0  0  0  0  0  0  0  0  0  0
  -21.9600  -12.8680   21.9890 N   0  0  0  0  0  0  0  0  0  0  0  0
  -22.2730  -14.5760   20.5910 O   0  0  0  0  0  0  0  0  0  0  0  0
  -22.3200  -12.0430   22.4470 H   0  0  0  0  0  0  0  0  0  0  0  0
  -21.0190  -13.1720   22.1980 H   0  0  0  0  0  0  0  0  0  0  0  0
  -25.3430  -15.2130   20.3340 N   0  0  0  0  0  0  0  0  0  0  0  0
  -24.5740  -15.8690   20.4170 H   0  0  0  0  0  0  0  0  0  0  0  0
  -26.1930  -15.6420   19.9990 H   0  0  0  0  0  0  0  0  0  0  0  0
  -30.8090  -26.5830   19.6240 C   0  0  0  0  0  2  0  0  0  0  0  0
  -29.5580  -27.4730   19.5810 C   0  0  0  0  0  2  0  0  0  0  0  0
  -28.4290  -26.7670   20.0950 O   0  0  0  0  0  0  0  0  0  0  0  0
  -24.6040  -31.8930   23.2340 C   0  0  0  0  0  0  0  0  0  0  0  0
  -27.2660  -27.4900   20.1540 C   0  0  0  0  0  0  0  0  0  0  0  0
  -23.3880  -30.4750   21.6070 C   0  0  0  0  0  3  0  0  0  0  0  0
  -24.8400  -28.9330   20.1860 C   0  0  0  0  0  0  0  0  0  0  0  0
  -25.9030  -30.8580   21.3820 C   0  0  0  0  0  2  0  0  0  0  0  0
  -25.9930  -29.4840   20.7590 C   0  0  0  0  0  0  0  0  0  0  0  0
  -27.2040  -28.7680   20.7520 C   0  0  0  0  0  3  0  0  0  0  0  0
  -26.0960  -26.9300   19.6030 C   0  0  0  0  0  3  0  0  0  0  0  0
  -24.8830  -27.6490   19.6110 C   0  0  0  0  0  3  0  0  0  0  0  0
  -23.5900  -29.7800   20.2320 C   0  0  0  0  0  2  0  0  0  0  0  0
  -24.6500  -31.0900   22.1340 N   0  0  0  0  0  0  0  0  0  0  0  0
  -23.5270  -32.1640   23.7840 O   0  0  0  0  0  0  0  0  0  0  0  0
  -22.7510  -29.4590   22.5790 C   0  0  0  0  0  0  0  0  0  0  0  0
  -21.4260  -29.2720   22.4600 N   0  0  0  0  0  0  0  0  0  0  0  0
  -23.4420  -28.8400   23.3930 O   0  0  0  0  0  0  0  0  0  0  0  0
  -20.9310  -29.8240   21.7730 H   0  0  0  0  0  0  0  0  0  0  0  0
  -18.0600  -28.0700   22.9700 C   0  0  0  0  0  0  0  0  0  0  0  0
  -20.6160  -28.3380   23.2390 C   0  0  0  0  0  3  0  0  0  0  0  0
  -20.7240  -26.9020   22.6740 C   0  0  0  0  0  2  0  0  0  0  0  0
  -19.6230  -26.5680   21.6630 C   0  0  0  0  0  2  0  0  0  0  0  0
  -18.2410  -26.7150   22.3070 C   0  0  0  0  0  2  0  0  0  0  0  0
  -19.1760  -28.8390   23.3930 C   0  0  0  0  0  0  0  0  0  0  0  0
  -18.9540  -30.1080   23.9700 C   0  0  0  0  0  3  0  0  0  0  0  0
  -17.6490  -30.6080   24.1290 C   0  0  0  0  0  3  0  0  0  0  0  0
  -16.5460  -29.8360   23.7240 C   0  0  0  0  0  3  0  0  0  0  0  0
  -16.7530  -28.5690   23.1500 C   0  0  0  0  0  3  0  0  0  0  0  0
  -25.8960  -32.5280   23.8410 C   0  0  0  0  0  3  0  0  0  0  0  0
  -25.5850  -33.9240   24.1750 N   0  0  0  0  0  0  0  0  0  0  0  0
  -25.9120  -34.9780   23.4140 C   0  0  0  0  0  0  0  0  0  0  0  0
  -26.5770  -34.8770   22.3790 O   0  0  0  0  0  0  0  0  0  0  0  0
  -24.9980  -34.0770   24.9810 H   0  0  0  0  0  0  0  0  0  0  0  0
  -24.1770  -36.7640   23.0650 C   0  0  0  0  0  1  0  0  0  0  0  0
  -25.4210  -36.3640   23.8740 C   0  0  0  0  0  3  0  0  0  0  0  0
  -27.5580  -37.2510   24.6970 C   0  0  0  0  0  1  0  0  0  0  0  0
  -26.4510  -37.4200   23.7600 N   0  0  0  0  0  0  0  0  0  0  0  0
  -26.0440  -38.3380   23.9130 H   0  0  0  0  0  0  0  0  0  0  0  0
  -26.4350  -31.7560   25.1070 C   0  0  1  0  0  0  0  0  0  0  0  0
  -25.3580  -31.5100   26.1900 C   0  0  0  0  0  1  0  0  0  0  0  0
  -27.0170  -30.3840   24.6970 C   0  0  0  0  0  1  0  0  0  0  0  0
  -27.5920  -32.5520   25.7550 C   0  0  0  0  0  1  0  0  0  0  0  0
  1  3  2  0
  1  5  1  0
  2  4  1  0
  3  6  1  0
  5  2  2  0
  6  4  2  0
  6 53  1  0
  7  5  1  0
  7  8  1  0
  9 11  1  0
 10 12  1  0
 11 14  1  0
 12 14  1  0
 13 10  1  0
 13  9  1  0
 13  8  1  0
 14 23  1  0
 15 23  1  0
 16 21  1  0
 17 18  1  0
 17 16  1  0
 19 18  1  0
 19 28  1  0
 19 20  1  0
 21 15  1  0
 21 20  1  0
 22 15  2  0
 23 24  1  0
 25 26  2  0
 26 45  1  0
 27 26  1  0
 27 30  1  0
 28 25  1  0
 28 29  1  0
 29 27  2  0
 30 31  1  0
 31 32  2  0
 33 36  1  0
 33 32  1  0
 34 33  2  0
 35 34  1  0
 35 30  2  0
 36 37  1  0
 37 38  1  0
 38 39  2  0
 40 39  1  0
 40 44  1  0
 41 40  2  0
 42 37  2  0
 42 41  1  0
 43 42  1  0
 45 46  1  0
 46 49  1  0
 46 48  1  0
 47 45  2  0
 50 51  1  0
 50 25  1  0
 52 50  1  0
 54 53  1  0
 54 55  1  0
 55 57  1  0
 56 67  2  0
 57 62  1  0
 58 66  1  0
 58 68  1  0
 59 65  1  0
 59 61  1  0
 60 66  1  0
 61 60  1  0
 62 61  2  0
 63 64  1  0
 63 57  2  0
 64 59  2  0
 65 58  1  0
 66 56  1  0
 68 70  2  0
 69 68  1  0
 71 69  1  0
 72 81  2  0
 72 77  1  0
 73 69  1  0
 73 77  1  0
 74 73  1  0
 75 76  1  0
 75 74  1  0
 76 72  1  0
 77 78  2  0
 78 79  1  0
 80 79  2  0
 81 80  1  0
 82 56  1  0
 82 83  1  0
 82 92  1  0
 83 86  1  0
 84 88  1  0
 84 83  1  0
 85 84  2  0
 88 87  1  0
 90 88  1  0
 90 91  1  0
 90 89  1  0
 92 95  1  1
 92 93  1  0
 94 92  1  0
M  ISO  4  15 100  23 100  54 101  55 101
M  END
>  <TORSDO>  (81) 
F 21

>  <SCORE>  (81) 
-13.543

>  <name>  (81) 
80

>  <ligand_id>  (81) 
80

>  <original_smiles>  (81) 
[H]c1c([H])c([H])c2c(c1[H])C([H])([H])C([H])([H])C([H])([H])C2([H])N([H])C(=O)C1([H])N(C(=O)C([H])(N([H])C(=O)C([H])(N([H])C([H])([H])[H])C([H])([H])[H])C(C([H])([H])[H])(C([H])([H])[H])C([H])([H])[H])C([H])([H])c2c([H])c(OC([H])([H])C([H])([H])c3c([H])c([H])c(C([H])([H])C([H])([H])C4([H])C([H])([H])C([H])([H])C([H])(N([H])C(=O)N5C([H])([H])C([H])([H])C([H])([H])C([H])(n6nc(-c7c([H])c([H])c(Oc8c([H])c([H])c(F)c([H])c8F)c([H])c7[H])c(C(=O)N([H])[H])c6N([H])[H])C5([H])[H])C([H])([H])C4([H])[H])c([H])c3[H])c([H])c([H])c2C1([H])[H]

>  <smiles>  (81) 
[H]c1c([H])c([H])c2c(c1[H])C([H])([H])C([H])([H])C([H])([H])C2([H])N([H])C(=O)C1([H])N(C(=O)C([H])(N([H])C(=O)C([H])(N([H])C([H])([H])[H])C([H])([H])[H])C(C([H])([H])[H])(C([H])([H])[H])C([H])([H])[H])C([H])([H])c2c([H])c(OC([H])([H])C([H])([H])c3c([H])c([H])c(C([H])([H])C([H])([H])C4([H])C([H])([H])C([H])([H])C([H])(N([H])C(=O)N5C([H])([H])C([H])([H])C([H])([H])C([H])(n6nc(-c7c([H])c([H])c(Oc8c([H])c([H])c(F)c([H])c8F)c([H])c7[H])c(C(=O)N([H])[H])c6N([H])[H])C5([H])[H])C([H])([H])C4([H])[H])c([H])c3[H])c([H])c([H])c2C1([H])[H]

$$$$
81:0:0
     RDKit          3D

 97104  0  0  1  0  0  0  0  0999 V2000
  -30.7410  -22.5750   21.6210 C   0  0  0  0  0  2  0  0  0  0  0  0
  -32.2830  -20.6690   22.3550 C   0  0  0  0  0  1  0  0  0  0  0  0
  -31.0980  -21.5810   22.7560 C   0  0  1  0  0  0  0  0  0  0  0  0
  -31.4330  -22.2990   24.0120 N   0  0  0  0  0  4  0  0  0  0  0  0
  -32.2630  -22.8610   23.9140 H   0  0  0  0  0  0  0  0  0  0  0  0
  -31.6110  -21.6420   24.7550 H   0  0  0  0  0  0  0  0  0  0  0  0
  -30.6840  -22.9040   24.3060 H   0  0  0  0  0  0  0  0  0  0  0  0
  -29.8170  -20.7270   22.9600 C   0  0  0  0  0  2  0  0  0  0  0  0
  -29.2060  -20.3950   21.7190 O   0  0  0  0  0  0  0  0  0  0  0  0
  -34.4260  -21.2970   16.9940 C   0  0  0  0  0  0  0  0  0  0  0  0
  -29.6490  -21.0860   20.6220 C   0  0  0  0  0  0  0  0  0  0  0  0
  -32.6200  -22.9810   16.9430 C   0  0  0  0  0  3  0  0  0  0  0  0
  -30.5510  -22.4300   18.3150 C   0  0  0  0  0  0  0  0  0  0  0  0
  -32.1690  -20.6030   17.7750 C   0  0  0  0  0  2  0  0  0  0  0  0
  -31.0900  -21.1850   18.6590 C   0  0  0  0  0  0  0  0  0  0  0  0
  -30.6410  -20.5060   19.8090 C   0  0  0  0  0  3  0  0  0  0  0  0
  -29.1150  -22.3490   20.2700 C   0  0  0  0  0  3  0  0  0  0  0  0
  -29.5670  -23.0210   19.1220 C   0  0  0  0  0  3  0  0  0  0  0  0
  -31.0780  -23.0810   17.0550 C   0  0  0  0  0  2  0  0  0  0  0  0
  -33.1250  -21.6060   17.2540 N   0  0  0  0  0  0  0  0  0  0  0  0
  -35.1880  -22.1220   16.4730 O   0  0  0  0  0  0  0  0  0  0  0  0
  -33.2540  -24.0790   17.8230 C   0  0  0  0  0  0  0  0  0  0  0  0
  -32.8510  -25.3360   17.5880 N   0  0  0  0  0  0  0  0  0  0  0  0
  -34.0670  -23.7900   18.7080 O   0  0  0  0  0  0  0  0  0  0  0  0
  -32.1980  -25.4920   16.8320 H   0  0  0  0  0  0  0  0  0  0  0  0
  -32.1300  -28.8340   18.1200 C   0  0  0  0  0  0  0  0  0  0  0  0
  -33.2900  -26.5310   18.3080 C   0  0  0  0  0  3  0  0  0  0  0  0
  -32.7950  -26.5150   19.7720 C   0  0  0  0  0  2  0  0  0  0  0  0
  -31.4580  -27.2390   19.9650 C   0  0  0  0  0  2  0  0  0  0  0  0
  -31.5700  -28.7020   19.5250 C   0  0  0  0  0  2  0  0  0  0  0  0
  -32.9240  -27.8080   17.5430 C   0  0  0  0  0  0  0  0  0  0  0  0
  -33.3840  -27.9610   16.2170 C   0  0  0  0  0  3  0  0  0  0  0  0
  -33.0810  -29.1200   15.4790 C   0  0  0  0  0  3  0  0  0  0  0  0
  -32.3140  -30.1430   16.0630 C   0  0  0  0  0  3  0  0  0  0  0  0
  -31.8390  -29.9970   17.3780 C   0  0  0  0  0  3  0  0  0  0  0  0
  -35.0090  -19.8870   17.3200 C   0  0  0  0  0  3  0  0  0  0  0  0
  -35.6590  -19.8000   18.7550 C   0  0  1  0  0  0  0  0  0  0  0  0
  -36.6540  -20.9450   19.0600 C   0  0  0  0  0  1  0  0  0  0  0  0
  -34.5690  -19.8230   19.8510 C   0  0  0  0  0  1  0  0  0  0  0  0
  -36.4160  -18.4620   18.9020 C   0  0  0  0  0  1  0  0  0  0  0  0
  -35.9970  -19.5730   16.2800 N   0  0  0  0  0  0  0  0  0  0  0  0
  -35.7880  -18.7340   15.2580 C   0  0  0  0  0  0  0  0  0  0  0  0
  -34.7500  -18.0780   15.1280 O   0  0  0  0  0  0  0  0  0  0  0  0
  -36.8460  -20.1180   16.2850 H   0  0  0  0  0  0  0  0  0  0  0  0
  -36.5590  -19.4210   12.9620 C   0  0  0  0  0  1  0  0  0  0  0  0
  -36.9110  -18.6010   14.2130 C   0  0  0  0  0  3  0  0  0  0  0  0
  -37.7690  -16.4100   14.9130 C   0  0  0  0  0  1  0  0  0  0  0  0
  -37.1950  -17.2020   13.8260 N   0  0  0  0  0  0  0  0  0  0  0  0
  -37.8390  -17.1710   13.0410 H   0  0  0  0  0  0  0  0  0  0  0  0
  -31.1340  -24.0540   21.7840 C   0  0  0  0  0  2  0  0  0  0  0  0
  -29.8890  -24.9040   22.0880 C   0  0  0  0  0  2  0  0  0  0  0  0
  -29.5020  -24.9270   23.5730 C   0  0  0  0  0  2  0  0  0  0  0  0
  -28.3120  -25.8600   23.8390 C   0  0  0  0  0  2  0  0  0  0  0  0
  -28.6040  -27.3170   23.4560 C   0  0  0  0  0  2  0  0  0  0  0  0
  -27.4290  -28.0350   22.7690 C   0  0  0  0  0  2  0  0  0  0  0  0
  -27.6210  -28.3790   21.2770 C   0  0  0  0  0  2  0  0  0  0  0  0
  -27.7010  -27.1890   20.3010 C   0  0  0  0  0  2  0  0  0  0  0  0
  -26.3360  -26.6470   19.8180 C   0  0  0  0  0  2  0  0  0  0  0  0
  -25.3030  -26.5680   20.9630 C   0  0  0  0  0  2  0  0  0  0  0  0
  -23.6090  -25.5000   19.4500 C   0  0  0  0  0  0  0  0  0  0  0  0
  -22.3020  -23.5470   18.7130 C   0  0  0  0  0  2  0  0  0  0  0  0
  -21.0820  -23.8840   17.8410 C   0  0  0  0  0  2  0  0  0  0  0  0
  -19.8590  -24.2000   18.7180 C   0  0  0  0  0  2  0  0  0  0  0  0
  -20.1770  -25.2360   19.8240 C   0  0  0  0  0  3  0  0  0  0  0  0
  -21.4600  -24.8600   20.5950 C   0  0  0  0  0  2  0  0  0  0  0  0
  -22.5570  -24.6680   19.6260 N   0  0  0  0  0  0  0  0  0  0  0  0
  -24.3120  -25.5000   18.4340 O   0  0  0  0  0  0  0  0  0  0  0  0
  -23.9570  -26.1560   20.5660 N   0  0  0  0  0  0  0  0  0  0  0  0
  -23.2880  -26.0800   21.3200 H   0  0  0  0  0  0  0  0  0  0  0  0
  -18.5620  -26.5700   21.3180 C   0  0  0  0  0  0  0  0  0  0  0  0
  -17.4380  -26.2010   22.0100 C   0  0  0  0  0  0  0  0  0  0  0  0
  -17.2840  -24.7970   21.7920 C   0  0  0  0  0  0  0  0  0  0  0  0
  -19.0390  -25.4110   20.7270 N   0  0  0  0  0  0  0  0  0  0  0  0
  -18.2900  -24.3290   21.0640 N   0  0  0  0  0  0  0  0  0  0  0  0
  -16.2080  -23.8790   22.1900 C   0  0  0  0  0  0  0  0  0  0  0  0
  -16.4550  -22.5090   22.4240 C   0  0  0  0  0  3  0  0  0  0  0  0
  -15.4070  -21.6500   22.8220 C   0  0  0  0  0  3  0  0  0  0  0  0
  -14.0990  -22.1590   22.9950 C   0  0  0  0  0  0  0  0  0  0  0  0
  -13.8530  -23.5210   22.7390 C   0  0  0  0  0  3  0  0  0  0  0  0
  -14.8960  -24.3730   22.3370 C   0  0  0  0  0  3  0  0  0  0  0  0
  -13.0150  -21.3960   23.3540 O   0  0  0  0  0  0  0  0  0  0  0  0
  -13.1420  -20.0660   23.6650 C   0  0  0  0  0  0  0  0  0  0  0  0
  -14.1950  -19.5860   24.4750 C   0  0  0  0  0  3  0  0  0  0  0  0
  -14.2490  -18.2230   24.8250 C   0  0  0  0  0  3  0  0  0  0  0  0
  -13.2490  -17.3390   24.3750 C   0  0  0  0  0  0  0  0  0  0  0  0
  -12.1980  -17.8160   23.5720 C   0  0  0  0  0  3  0  0  0  0  0  0
  -12.1440  -19.1760   23.2200 C   0  0  0  0  0  0  0  0  0  0  0  0
  -11.1170  -19.6330   22.4640 F   0  0  0  0  0  0  0  0  0  0  0  0
  -13.2950  -16.0310   24.7180 F   0  0  0  0  0  0  0  0  0  0  0  0
  -16.5070  -27.1120   22.7530 C   0  0  0  0  0  0  0  0  0  0  0  0
  -15.9180  -26.6280   23.8420 N   0  0  0  0  0  0  0  0  0  0  0  0
  -16.3310  -28.2760   22.3990 O   0  0  0  0  0  0  0  0  0  0  0  0
  -16.0760  -25.6770   24.1410 H   0  0  0  0  0  0  0  0  0  0  0  0
  -15.3030  -27.2170   24.3840 H   0  0  0  0  0  0  0  0  0  0  0  0
  -19.2070  -27.7870   21.1230 N   0  0  0  0  0  0  0  0  0  0  0  0
  -18.8560  -28.6650   21.4920 H   0  0  0  0  0  0  0  0  0  0  0  0
  -20.0380  -27.8990   20.5540 H   0  0  0  0  0  0  0  0  0  0  0  0
  1 50  1  0
  1  3  1  0
  3  2  1  6
  3  8  1  0
  3  4  1  0
  4  7  1  0
  4  6  1  0
  5  4  1  0
  9  8  1  0
 10 20  1  0
 11  9  1  0
 12 19  1  0
 12 20  1  0
 12 22  1  0
 13 15  2  0
 13 18  1  0
 14 15  1  0
 15 16  1  0
 16 11  2  0
 17 11  1  0
 18 17  2  0
 19 13  1  0
 20 14  1  0
 21 10  2  0
 22 24  2  0
 23 22  1  0
 25 23  1  0
 26 30  1  0
 27 23  1  0
 27 28  1  0
 28 29  1  0
 30 29  1  0
 31 26  1  0
 31 27  1  0
 32 31  2  0
 33 34  2  0
 33 32  1  0
 34 35  1  0
 35 26  2  0
 36 10  1  0
 36 37  1  0
 37 40  1  6
 37 38  1  0
 37 39  1  0
 41 44  1  0
 41 36  1  0
 42 41  1  0
 43 42  2  0
 46 45  1  0
 46 42  1  0
 48 46  1  0
 48 47  1  0
 49 48  1  0
 50 51  1  0
 51 52  1  0
 52 53  1  0
 54 53  1  0
 55 54  1  0
 56 55  1  0
 57 56  1  0
 58 57  1  0
 58 59  1  0
 60 66  1  0
 60 68  1  0
 61 66  1  0
 62 61  1  0
 62 63  1  0
 64 63  1  0
 64 65  1  0
 64 73  1  0
 66 65  1  0
 67 60  2  0
 68 59  1  0
 68 69  1  0
 70 71  2  0
 71 90  1  0
 72 71  1  0
 72 75  1  0
 73 74  1  0
 73 70  1  0
 74 72  2  0
 75 80  2  0
 75 76  1  0
 76 77  2  0
 77 78  1  0
 78 81  1  0
 79 78  2  0
 80 79  1  0
 81 82  1  0
 82 83  1  0
 83 84  2  0
 85 89  1  0
 85 84  1  0
 86 85  2  0
 87 86  1  0
 87 82  2  0
 88 87  1  0
 90 91  1  0
 91 93  1  0
 91 94  1  0
 92 90  2  0
 95 70  1  0
 95 96  1  0
 97 95  1  0
M  ISO  4   8 101   9 101  60 100  68 100
M  END
>  <TORSDO>  (82) 
F 29

>  <SCORE>  (82) 
-3.390

>  <name>  (82) 
81

>  <ligand_id>  (82) 
81

>  <original_smiles>  (82) 
[H]c1c([H])c([H])c2c(c1[H])C([H])([H])C([H])([H])C([H])([H])C2([H])N([H])C(=O)C1([H])N(C(=O)C([H])(N([H])C(=O)C([H])(N([H])C([H])([H])[H])C([H])([H])[H])C(C([H])([H])[H])(C([H])([H])[H])C([H])([H])[H])C([H])([H])c2c([H])c(OC([H])([H])C(C([H])([H])[H])(C([H])([H])C([H])([H])C([H])([H])C([H])([H])C([H])([H])C([H])([H])C([H])([H])C([H])([H])C([H])([H])C([H])([H])C([H])([H])N([H])C(=O)N3C([H])([H])C([H])([H])C([H])([H])C([H])(n4nc(-c5c([H])c([H])c(Oc6c([H])c([H])c(F)c([H])c6F)c([H])c5[H])c(C(=O)N([H])[H])c4N([H])[H])C3([H])[H])[N+]([H])([H])[H])c([H])c([H])c2C1([H])[H]

>  <smiles>  (82) 
[H]c1c([H])c([H])c2c(c1[H])C([H])([H])C([H])([H])C([H])([H])C2([H])N([H])C(=O)C1([H])N(C(=O)C([H])(N([H])C(=O)C([H])(N([H])C([H])([H])[H])C([H])([H])[H])C(C([H])([H])[H])(C([H])([H])[H])C([H])([H])[H])C([H])([H])c2c([H])c(OC([H])([H])C(C([H])([H])[H])(C([H])([H])C([H])([H])C([H])([H])C([H])([H])C([H])([H])C([H])([H])C([H])([H])C([H])([H])C([H])([H])C([H])([H])C([H])([H])N([H])C(=O)N3C([H])([H])C([H])([H])C([H])([H])C([H])(n4nc(-c5c([H])c([H])c(Oc6c([H])c([H])c(F)c([H])c6F)c([H])c5[H])c(C(=O)N([H])[H])c4N([H])[H])C3([H])[H])[N+]([H])([H])[H])c([H])c([H])c2C1([H])[H]

$$$$
82:0:0
     RDKit          3D

103111  0  0  1  0  0  0  0  0999 V2000
  -28.0500  -21.3900   24.4710 C   0  0  0  0  0  3  0  0  0  0  0  0
  -27.8830  -22.2650   23.3820 C   0  0  0  0  0  3  0  0  0  0  0  0
  -29.1680  -20.5390   24.5330 C   0  0  0  0  0  3  0  0  0  0  0  0
  -29.9300  -21.3940   22.3860 C   0  0  0  0  0  3  0  0  0  0  0  0
  -28.8290  -22.2780   22.3310 C   0  0  0  0  0  0  0  0  0  0  0  0
  -30.1190  -20.5330   23.4880 C   0  0  0  0  0  0  0  0  0  0  0  0
  -31.2550  -19.7110   23.5020 N   0  0  0  0  0  0  0  0  0  0  0  0
  -32.1710  -20.1490   23.5390 H   0  0  0  0  0  0  0  0  0  0  0  0
  -31.1780  -18.2790   23.7850 C   0  0  0  0  0  2  0  0  0  0  0  0
  -31.0910  -17.3930   22.5260 C   0  0  0  0  0  2  0  0  0  0  0  0
  -31.8450  -17.9590   21.3060 C   0  0  0  0  0  2  0  0  0  0  0  0
  -31.0220  -19.0270   20.5650 C   0  0  0  0  0  2  0  0  0  0  0  0
  -31.6440  -19.4720   19.2350 C   0  0  0  0  0  2  0  0  0  0  0  0
  -30.8890  -18.8740   18.0380 C   0  0  0  0  0  2  0  0  0  0  0  0
  -31.8260  -18.3690   16.9330 C   0  0  0  0  0  2  0  0  0  0  0  0
  -31.8970  -16.8350   16.8770 C   0  0  0  0  0  2  0  0  0  0  0  0
  -32.5920  -15.6060   18.9200 C   0  0  0  0  0  0  0  0  0  0  0  0
  -32.9390  -14.0370   20.7830 C   0  0  0  0  0  2  0  0  0  0  0  0
  -32.4320  -12.6390   20.3790 C   0  0  0  0  0  2  0  0  0  0  0  0
  -30.9260  -12.4990   20.6790 C   0  0  0  0  0  2  0  0  0  0  0  0
  -30.0920  -13.6890   20.1320 C   0  0  0  0  0  3  0  0  0  0  0  0
  -30.7380  -15.0350   20.5310 C   0  0  0  0  0  2  0  0  0  0  0  0
  -32.1340  -15.0310   20.0610 N   0  0  0  0  0  0  0  0  0  0  0  0
  -33.7570  -15.5030   18.5250 O   0  0  0  0  0  0  0  0  0  0  0  0
  -31.6680  -16.2430   18.1920 N   0  0  0  0  0  0  0  0  0  0  0  0
  -30.7290  -16.2650   18.5620 H   0  0  0  0  0  0  0  0  0  0  0  0
  -27.8190  -14.6250   20.9000 C   0  0  0  0  0  0  0  0  0  0  0  0
  -26.6230  -14.0150   21.1670 C   0  0  0  0  0  0  0  0  0  0  0  0
  -26.8400  -12.6160   20.9690 C   0  0  0  0  0  0  0  0  0  0  0  0
  -28.7000  -13.6060   20.5670 N   0  0  0  0  0  0  0  0  0  0  0  0
  -28.1090  -12.3880   20.6610 N   0  0  0  0  0  0  0  0  0  0  0  0
  -25.9000  -11.4890   20.9970 C   0  0  0  0  0  0  0  0  0  0  0  0
  -25.9450  -10.5150   22.0190 C   0  0  0  0  0  3  0  0  0  0  0  0
  -25.0180   -9.4500   22.0360 C   0  0  0  0  0  3  0  0  0  0  0  0
  -24.0320   -9.3530   21.0260 C   0  0  0  0  0  0  0  0  0  0  0  0
  -24.0050  -10.3130   19.9980 C   0  0  0  0  0  3  0  0  0  0  0  0
  -24.9320  -11.3680   19.9800 C   0  0  0  0  0  3  0  0  0  0  0  0
  -23.1070   -8.3400   20.9460 O   0  0  0  0  0  0  0  0  0  0  0  0
  -22.4750   -7.8540   22.0630 C   0  0  0  0  0  0  0  0  0  0  0  0
  -21.7700   -8.7000   22.9470 C   0  0  0  0  0  3  0  0  0  0  0  0
  -21.0750   -8.1500   24.0430 C   0  0  0  0  0  3  0  0  0  0  0  0
  -21.0750   -6.7590   24.2500 C   0  0  0  0  0  0  0  0  0  0  0  0
  -21.7710   -5.9130   23.3690 C   0  0  0  0  0  3  0  0  0  0  0  0
  -22.4670   -6.4600   22.2750 C   0  0  0  0  0  0  0  0  0  0  0  0
  -23.1180   -5.6410   21.4160 F   0  0  0  0  0  0  0  0  0  0  0  0
  -20.4020   -6.2290   25.2990 F   0  0  0  0  0  0  0  0  0  0  0  0
  -25.3240  -14.6940   21.4960 C   0  0  0  0  0  0  0  0  0  0  0  0
  -24.4820  -14.0530   22.2980 N   0  0  0  0  0  0  0  0  0  0  0  0
  -25.0710  -15.8240   21.0810 O   0  0  0  0  0  0  0  0  0  0  0  0
  -24.6990  -13.1330   22.6550 H   0  0  0  0  0  0  0  0  0  0  0  0
  -23.6090  -14.4860   22.5590 H   0  0  0  0  0  0  0  0  0  0  0  0
  -28.2270  -15.9550   20.8960 N   0  0  0  0  0  0  0  0  0  0  0  0
  -27.5870  -16.7200   21.0830 H   0  0  0  0  0  0  0  0  0  0  0  0
  -29.1530  -16.2690   20.6340 H   0  0  0  0  0  0  0  0  0  0  0  0
  -28.7120  -23.2760   21.1820 C   0  0  0  0  0  2  0  0  0  0  0  0
  -27.6500  -22.9210   20.1240 C   0  0  0  0  0  2  0  0  0  0  0  0
  -27.8790  -23.6420   18.8540 N   0  0  0  0  0  4  0  0  0  0  0  0
  -27.1590  -22.9750   18.6100 H   0  0  0  0  0  0  0  0  0  0  0  0
  -27.9320  -24.4230   19.4900 H   0  0  0  0  0  0  0  0  0  0  0  0
  -25.7610  -23.5950   17.5820 C   0  0  0  0  0  1  0  0  0  0  0  0
  -26.8730  -24.4930   18.1730 C   0  0  0  0  0  3  0  0  0  0  0  0
  -27.5850  -25.4180   17.1410 C   0  0  0  0  0  2  0  0  0  0  0  0
  -26.7080  -26.3720   16.5390 O   0  0  0  0  0  0  0  0  0  0  0  0
  -26.3000  -29.2370   23.0590 C   0  0  0  0  0  0  0  0  0  0  0  0
  -26.1000  -27.2530   17.3960 C   0  0  0  0  0  0  0  0  0  0  0  0
  -24.4030  -29.7000   21.5310 C   0  0  0  0  0  3  0  0  0  0  0  0
  -24.7640  -29.0540   19.0940 C   0  0  0  0  0  0  0  0  0  0  0  0
  -26.7460  -29.2560   20.6110 C   0  0  0  0  0  2  0  0  0  0  0  0
  -26.0780  -28.6680   19.3850 C   0  0  0  0  0  0  0  0  0  0  0  0
  -26.7490  -27.7570   18.5460 C   0  0  0  0  0  3  0  0  0  0  0  0
  -24.7930  -27.6830   17.0890 C   0  0  0  0  0  3  0  0  0  0  0  0
  -24.1110  -28.5600   17.9520 C   0  0  0  0  0  3  0  0  0  0  0  0
  -24.1190  -30.0350   20.0420 C   0  0  0  0  0  2  0  0  0  0  0  0
  -25.8440  -29.3630   21.7800 N   0  0  0  0  0  0  0  0  0  0  0  0
  -25.5530  -29.4380   24.0250 O   0  0  0  0  0  0  0  0  0  0  0  0
  -23.4320  -28.5860   21.9850 C   0  0  0  0  0  0  0  0  0  0  0  0
  -22.1280  -28.9010   21.9900 N   0  0  0  0  0  0  0  0  0  0  0  0
  -23.8510  -27.4670   22.2980 O   0  0  0  0  0  0  0  0  0  0  0  0
  -21.8790  -29.8440   21.7300 H   0  0  0  0  0  0  0  0  0  0  0  0
  -18.5240  -28.6420   22.1220 C   0  0  0  0  0  0  0  0  0  0  0  0
  -21.0220  -28.0090   22.3330 C   0  0  0  0  0  3  0  0  0  0  0  0
  -20.7520  -26.9870   21.2040 C   0  0  0  0  0  2  0  0  0  0  0  0
  -19.6810  -27.4500   20.2120 C   0  0  0  0  0  2  0  0  0  0  0  0
  -18.3570  -27.7080   20.9350 C   0  0  0  0  0  2  0  0  0  0  0  0
  -19.7800  -28.7950   22.7670 C   0  0  0  0  0  0  0  0  0  0  0  0
  -19.8900  -29.7030   23.8430 C   0  0  0  0  0  3  0  0  0  0  0  0
  -18.7760  -30.4460   24.2750 C   0  0  0  0  0  3  0  0  0  0  0  0
  -17.5320  -30.2780   23.6440 C   0  0  0  0  0  3  0  0  0  0  0  0
  -17.4060  -29.3730   22.5750 C   0  0  0  0  0  3  0  0  0  0  0  0
  -27.7840  -28.8540   23.3640 C   0  0  0  0  0  3  0  0  0  0  0  0
  -28.2990  -29.8310   24.3330 N   0  0  0  0  0  0  0  0  0  0  0  0
  -29.1890  -30.7900   24.0430 C   0  0  0  0  0  0  0  0  0  0  0  0
  -29.7200  -30.8980   22.9340 O   0  0  0  0  0  0  0  0  0  0  0  0
  -27.8630  -29.8410   25.2440 H   0  0  0  0  0  0  0  0  0  0  0  0
  -28.8440  -33.1290   24.8940 C   0  0  0  0  0  1  0  0  0  0  0  0
  -29.5450  -31.7870   25.1610 C   0  0  0  0  0  3  0  0  0  0  0  0
  -31.7070  -30.8350   25.8290 C   0  0  0  0  0  1  0  0  0  0  0  0
  -31.0000  -32.0050   25.3130 N   0  0  0  0  0  0  0  0  0  0  0  0
  -31.1840  -32.7890   25.9360 H   0  0  0  0  0  0  0  0  0  0  0  0
  -27.9470  -27.3830   23.9080 C   0  0  1  0  0  0  0  0  0  0  0  0
  -27.0080  -27.0500   25.0910 C   0  0  0  0  0  1  0  0  0  0  0  0
  -27.6790  -26.3580   22.7810 C   0  0  0  0  0  1  0  0  0  0  0  0
  -29.4050  -27.1590   24.3770 C   0  0  0  0  0  1  0  0  0  0  0  0
  1  3  1  0
  2  1  2  0
  4  6  1  0
  5  4  2  0
  5  2  1  0
  6  7  1  0
  6  3  2  0
  7  8  1  0
  7  9  1  0
 10  9  1  0
 11 10  1  0
 12 11  1  0
 13 12  1  0
 14 13  1  0
 15 14  1  0
 16 15  1  0
 16 25  1  0
 17 23  1  0
 19 20  1  0
 19 18  1  0
 21 22  1  0
 21 30  1  0
 21 20  1  0
 23 22  1  0
 23 18  1  0
 24 17  2  0
 25 26  1  0
 25 17  1  0
 27 28  2  0
 28 47  1  0
 29 32  1  0
 29 28  1  0
 30 31  1  0
 30 27  1  0
 31 29  2  0
 32 33  1  0
 33 34  2  0
 35 34  1  0
 36 35  2  0
 37 36  1  0
 37 32  2  0
 38 35  1  0
 38 39  1  0
 39 44  2  0
 39 40  1  0
 40 41  2  0
 41 42  1  0
 42 46  1  0
 43 42  2  0
 44 43  1  0
 45 44  1  0
 47 48  1  0
 48 51  1  0
 48 50  1  0
 49 47  2  0
 52 27  1  0
 52 53  1  0
 54 52  1  0
 55  5  1  0
 56 55  1  0
 57 59  1  0
 57 56  1  0
 58 57  1  0
 61 60  1  0
 61 57  1  0
 62 61  1  0
 63 62  1  0
 63 65  1  0
 64 75  2  0
 65 70  1  0
 66 74  1  0
 66 76  1  0
 67 69  1  0
 67 73  1  0
 68 74  1  0
 69 68  1  0
 70 69  2  0
 71 65  2  0
 71 72  1  0
 72 67  2  0
 73 66  1  0
 74 64  1  0
 76 77  1  0
 76 78  2  0
 79 77  1  0
 80 89  2  0
 80 85  1  0
 81 77  1  0
 81 85  1  0
 82 81  1  0
 83 84  1  0
 83 82  1  0
 84 80  1  0
 85 86  2  0
 86 87  1  0
 88 87  2  0
 89 88  1  0
 90 64  1  0
 90100  1  0
 90 91  1  0
 91 94  1  0
 92 91  1  0
 92 96  1  0
 93 92  2  0
 96 95  1  0
 96 98  1  0
 98 97  1  0
 98 99  1  0
100103  1  1
100101  1  0
102100  1  0
M  ISO  4  17 100  25 100  62 101  63 101
M  END
>  <TORSDO>  (83) 
F 30

>  <SCORE>  (83) 
2.750

>  <name>  (83) 
82

>  <ligand_id>  (83) 
82

>  <original_smiles>  (83) 
[H]c1c([H])c([H])c2c(c1[H])C([H])([H])C([H])([H])C([H])([H])C2([H])N([H])C(=O)C1([H])N(C(=O)C([H])(N([H])C(=O)C([H])(N([H])C([H])([H])[H])C([H])([H])[H])C(C([H])([H])[H])(C([H])([H])[H])C([H])([H])[H])C([H])([H])c2c([H])c(OC([H])([H])C([H])(C([H])([H])[H])[N+]([H])([H])C([H])([H])C([H])([H])c3c([H])c([H])c([H])c(N([H])C([H])([H])C([H])([H])C([H])([H])C([H])([H])C([H])([H])C([H])([H])C([H])([H])C([H])([H])N([H])C(=O)N4C([H])([H])C([H])([H])C([H])([H])C([H])(n5nc(-c6c([H])c([H])c(Oc7c([H])c([H])c(F)c([H])c7F)c([H])c6[H])c(C(=O)N([H])[H])c5N([H])[H])C4([H])[H])c3[H])c([H])c([H])c2C1([H])[H]

>  <smiles>  (83) 
[H]c1c([H])c([H])c2c(c1[H])C([H])([H])C([H])([H])C([H])([H])C2([H])N([H])C(=O)C1([H])N(C(=O)C([H])(N([H])C(=O)C([H])(N([H])C([H])([H])[H])C([H])([H])[H])C(C([H])([H])[H])(C([H])([H])[H])C([H])([H])[H])C([H])([H])c2c([H])c(OC([H])([H])C([H])(C([H])([H])[H])[N+]([H])([H])C([H])([H])C([H])([H])c3c([H])c([H])c([H])c(N([H])C([H])([H])C([H])([H])C([H])([H])C([H])([H])C([H])([H])C([H])([H])C([H])([H])C([H])([H])N([H])C(=O)N4C([H])([H])C([H])([H])C([H])([H])C([H])(n5nc(-c6c([H])c([H])c(Oc7c([H])c([H])c(F)c([H])c7F)c([H])c6[H])c(C(=O)N([H])[H])c5N([H])[H])C4([H])[H])c3[H])c([H])c([H])c2C1([H])[H]

$$$$
83:0:0
     RDKit          3D

 96104  0  0  1  0  0  0  0  0999 V2000
  -24.4730  -24.5240   21.8940 C   0  0  0  0  0  3  0  0  0  0  0  0
  -24.1470  -23.5540   20.9260 C   0  0  0  0  0  3  0  0  0  0  0  0
  -25.8050  -24.9690   22.0250 C   0  0  0  0  0  3  0  0  0  0  0  0
  -26.4490  -23.5450   20.1550 C   0  0  0  0  0  3  0  0  0  0  0  0
  -25.1330  -23.0500   20.0490 C   0  0  0  0  0  0  0  0  0  0  0  0
  -26.8000  -24.4670   21.1600 C   0  0  0  0  0  0  0  0  0  0  0  0
  -24.7600  -21.9370   19.0690 C   0  0  0  0  0  2  0  0  0  0  0  0
  -25.6660  -21.7590   17.8230 C   0  0  0  0  0  2  0  0  0  0  0  0
  -26.6520  -20.5700   17.8900 C   0  0  0  0  0  2  0  0  0  0  0  0
  -27.7790  -20.7330   18.9230 C   0  0  0  0  0  2  0  0  0  0  0  0
  -28.4290  -19.4080   19.3250 C   0  0  0  0  0  2  0  0  0  0  0  0
  -29.5220  -19.5920   20.3980 C   0  0  0  0  0  2  0  0  0  0  0  0
  -29.7610  -18.3670   21.1920 N   0  0  0  0  0  4  0  0  0  0  0  0
  -30.4140  -18.6020   21.9240 H   0  0  0  0  0  0  0  0  0  0  0  0
  -28.8990  -18.1040   21.6400 H   0  0  0  0  0  0  0  0  0  0  0  0
  -30.3070  -17.2100   20.4530 C   0  0  0  0  0  2  0  0  0  0  0  0
  -29.8320  -15.8640   21.0480 C   0  0  0  0  0  2  0  0  0  0  0  0
  -30.4650  -14.6750   20.3090 C   0  0  0  0  0  0  0  0  0  0  0  0
  -30.2090  -12.4810   19.2210 C   0  0  0  0  0  2  0  0  0  0  0  0
  -29.2290  -12.5930   18.0360 C   0  0  0  0  0  2  0  0  0  0  0  0
  -27.7740  -12.4070   18.5070 C   0  0  0  0  0  2  0  0  0  0  0  0
  -27.4290  -13.2820   19.7430 C   0  0  0  0  0  3  0  0  0  0  0  0
  -28.5210  -13.1500   20.8310 C   0  0  0  0  0  2  0  0  0  0  0  0
  -29.8200  -13.4820   20.2230 N   0  0  0  0  0  0  0  0  0  0  0  0
  -31.5390  -14.8780   19.7340 O   0  0  0  0  0  0  0  0  0  0  0  0
  -25.0410  -13.8150   20.5400 C   0  0  0  0  0  0  0  0  0  0  0  0
  -24.0060  -13.0120   20.9360 C   0  0  0  0  0  0  0  0  0  0  0  0
  -24.4990  -11.6720   20.8670 C   0  0  0  0  0  0  0  0  0  0  0  0
  -26.1010  -12.9660   20.2640 N   0  0  0  0  0  0  0  0  0  0  0  0
  -25.7770  -11.6700   20.5130 N   0  0  0  0  0  0  0  0  0  0  0  0
  -23.8120  -10.3890   21.0570 C   0  0  0  0  0  0  0  0  0  0  0  0
  -24.2940   -9.4210   21.9660 C   0  0  0  0  0  3  0  0  0  0  0  0
  -23.6060   -8.2020   22.1450 C   0  0  0  0  0  3  0  0  0  0  0  0
  -22.4210   -7.9420   21.4170 C   0  0  0  0  0  0  0  0  0  0  0  0
  -21.9590   -8.8990   20.4970 C   0  0  0  0  0  3  0  0  0  0  0  0
  -22.6480  -10.1090   20.3150 C   0  0  0  0  0  3  0  0  0  0  0  0
  -21.6990   -6.7770   21.5090 O   0  0  0  0  0  0  0  0  0  0  0  0
  -21.6840   -6.0290   22.6600 C   0  0  0  0  0  0  0  0  0  0  0  0
  -21.2650   -6.5700   23.8950 C   0  0  0  0  0  3  0  0  0  0  0  0
  -21.2030   -5.7480   25.0390 C   0  0  0  0  0  3  0  0  0  0  0  0
  -21.5440   -4.3860   24.9470 C   0  0  0  0  0  0  0  0  0  0  0  0
  -21.9540   -3.8440   23.7160 C   0  0  0  0  0  3  0  0  0  0  0  0
  -22.0220   -4.6630   22.5750 C   0  0  0  0  0  0  0  0  0  0  0  0
  -22.3980   -4.1310   21.3870 F   0  0  0  0  0  0  0  0  0  0  0  0
  -21.4740   -3.5940   26.0420 F   0  0  0  0  0  0  0  0  0  0  0  0
  -22.6080  -13.4500   21.2640 C   0  0  0  0  0  0  0  0  0  0  0  0
  -21.9290  -12.7270   22.1490 N   0  0  0  0  0  0  0  0  0  0  0  0
  -22.1230  -14.4660   20.7680 O   0  0  0  0  0  0  0  0  0  0  0  0
  -22.3360  -11.9080   22.5770 H   0  0  0  0  0  0  0  0  0  0  0  0
  -20.9900  -13.0000   22.4050 H   0  0  0  0  0  0  0  0  0  0  0  0
  -25.1630  -15.1910   20.3650 N   0  0  0  0  0  0  0  0  0  0  0  0
  -24.3700  -15.8130   20.4700 H   0  0  0  0  0  0  0  0  0  0  0  0
  -25.9480  -15.6260   19.8990 H   0  0  0  0  0  0  0  0  0  0  0  0
  -28.2640  -24.8490   21.3170 C   0  0  0  0  0  2  0  0  0  0  0  0
  -28.8360  -25.6980   20.1680 C   0  0  0  0  0  2  0  0  0  0  0  0
  -28.7440  -27.0910   20.4500 O   0  0  0  0  0  0  0  0  0  0  0  0
  -24.6600  -32.0150   23.5000 C   0  0  0  0  0  0  0  0  0  0  0  0
  -27.5240  -27.7230   20.4190 C   0  0  0  0  0  0  0  0  0  0  0  0
  -23.5530  -30.6360   21.7650 C   0  0  0  0  0  3  0  0  0  0  0  0
  -25.0950  -29.1640   20.3740 C   0  0  0  0  0  0  0  0  0  0  0  0
  -26.0770  -31.0450   21.6970 C   0  0  0  0  0  2  0  0  0  0  0  0
  -26.2110  -29.6970   21.0300 C   0  0  0  0  0  0  0  0  0  0  0  0
  -27.4250  -28.9790   21.0550 C   0  0  0  0  0  3  0  0  0  0  0  0
  -26.3880  -27.1990   19.7590 C   0  0  0  0  0  3  0  0  0  0  0  0
  -25.1760  -27.9130   19.7400 C   0  0  0  0  0  3  0  0  0  0  0  0
  -23.8360  -29.9980   20.3790 C   0  0  0  0  0  2  0  0  0  0  0  0
  -24.7780  -31.2460   22.3800 N   0  0  0  0  0  0  0  0  0  0  0  0
  -23.5520  -32.2540   23.9970 O   0  0  0  0  0  0  0  0  0  0  0  0
  -22.8770  -29.5770   22.6650 C   0  0  0  0  0  0  0  0  0  0  0  0
  -21.5650  -29.3730   22.4590 N   0  0  0  0  0  0  0  0  0  0  0  0
  -23.5280  -28.9470   23.5030 O   0  0  0  0  0  0  0  0  0  0  0  0
  -21.1020  -29.9260   21.7500 H   0  0  0  0  0  0  0  0  0  0  0  0
  -18.1930  -28.1220   22.7590 C   0  0  0  0  0  0  0  0  0  0  0  0
  -20.7290  -28.4100   23.1720 C   0  0  0  0  0  3  0  0  0  0  0  0
  -20.8840  -26.9880   22.5850 C   0  0  0  0  0  2  0  0  0  0  0  0
  -19.8520  -26.6710   21.4990 C   0  0  0  0  0  2  0  0  0  0  0  0
  -18.4240  -26.8050   22.0410 C   0  0  0  0  0  2  0  0  0  0  0  0
  -19.2750  -28.8860   23.2700 C   0  0  0  0  0  0  0  0  0  0  0  0
  -19.0100  -30.1300   23.8850 C   0  0  0  0  0  3  0  0  0  0  0  0
  -17.6910  -30.6080   23.9960 C   0  0  0  0  0  3  0  0  0  0  0  0
  -16.6200  -29.8390   23.5060 C   0  0  0  0  0  3  0  0  0  0  0  0
  -16.8720  -28.5980   22.8940 C   0  0  0  0  0  3  0  0  0  0  0  0
  -25.9090  -32.6470   24.1930 C   0  0  0  0  0  3  0  0  0  0  0  0
  -25.6010  -34.0580   24.4650 N   0  0  0  0  0  0  0  0  0  0  0  0
  -25.9900  -35.0800   23.6900 C   0  0  0  0  0  0  0  0  0  0  0  0
  -26.7160  -34.9360   22.7020 O   0  0  0  0  0  0  0  0  0  0  0  0
  -24.9750  -34.2430   25.2350 H   0  0  0  0  0  0  0  0  0  0  0  0
  -24.2970  -36.8640   23.1760 C   0  0  0  0  0  1  0  0  0  0  0  0
  -25.4890  -36.4880   24.0710 C   0  0  0  0  0  3  0  0  0  0  0  0
  -27.5840  -37.3870   24.9820 C   0  0  0  0  0  1  0  0  0  0  0  0
  -26.5370  -37.5290   23.9740 N   0  0  0  0  0  0  0  0  0  0  0  0
  -26.1330  -38.4570   24.0720 H   0  0  0  0  0  0  0  0  0  0  0  0
  -26.3300  -31.9010   25.5170 C   0  0  1  0  0  0  0  0  0  0  0  0
  -25.1590  -31.6800   26.5020 C   0  0  0  0  0  1  0  0  0  0  0  0
  -26.9420  -30.5170   25.1970 C   0  0  0  0  0  1  0  0  0  0  0  0
  -27.4360  -32.7020   26.2440 C   0  0  0  0  0  1  0  0  0  0  0  0
  1  3  1  0
  2  1  2  0
  4  6  1  0
  5  4  2  0
  5  2  1  0
  6 54  1  0
  6  3  2  0
  7  5  1  0
  8  9  1  0
  8  7  1  0
  9 10  1  0
 10 11  1  0
 11 12  1  0
 12 13  1  0
 13 15  1  0
 13 14  1  0
 16 17  1  0
 16 13  1  0
 18 17  1  0
 19 24  1  0
 20 21  1  0
 20 19  1  0
 22 21  1  0
 22 29  1  0
 22 23  1  0
 24 18  1  0
 24 23  1  0
 25 18  2  0
 26 27  2  0
 27 46  1  0
 28 27  1  0
 28 31  1  0
 29 30  1  0
 29 26  1  0
 30 28  2  0
 31 32  1  0
 32 33  2  0
 34 37  1  0
 34 33  1  0
 35 34  2  0
 36 35  1  0
 36 31  2  0
 37 38  1  0
 38 39  1  0
 39 40  2  0
 41 40  1  0
 41 45  1  0
 42 41  2  0
 43 38  2  0
 43 42  1  0
 44 43  1  0
 46 47  1  0
 47 50  1  0
 47 49  1  0
 48 46  2  0
 51 52  1  0
 51 26  1  0
 53 51  1  0
 55 56  1  0
 55 54  1  0
 57 68  2  0
 58 56  1  0
 58 63  1  0
 59 67  1  0
 59 69  1  0
 60 66  1  0
 60 62  1  0
 61 67  1  0
 62 63  2  0
 62 61  1  0
 64 58  2  0
 65 64  1  0
 65 60  2  0
 66 59  1  0
 67 57  1  0
 69 71  2  0
 70 69  1  0
 72 70  1  0
 73 82  2  0
 73 78  1  0
 74 70  1  0
 74 78  1  0
 75 74  1  0
 76 77  1  0
 76 75  1  0
 77 73  1  0
 78 79  2  0
 79 80  1  0
 81 80  2  0
 82 81  1  0
 83 57  1  0
 83 84  1  0
 83 93  1  0
 84 87  1  0
 85 89  1  0
 85 84  1  0
 86 85  2  0
 89 88  1  0
 91 89  1  0
 91 92  1  0
 91 90  1  0
 93 96  1  1
 93 94  1  0
 95 93  1  0
M  ISO  4  17 100  18 100  55 101  56 101
M  END
>  <TORSDO>  (84) 
F 27

>  <SCORE>  (84) 
-11.852

>  <name>  (84) 
83

>  <ligand_id>  (84) 
83

>  <original_smiles>  (84) 
[H]c1c([H])c([H])c2c(c1[H])C([H])([H])C([H])([H])C([H])([H])C2([H])N([H])C(=O)C1([H])N(C(=O)C([H])(N([H])C(=O)C([H])(N([H])C([H])([H])[H])C([H])([H])[H])C(C([H])([H])[H])(C([H])([H])[H])C([H])([H])[H])C([H])([H])c2c([H])c(OC([H])([H])C([H])([H])c3c([H])c([H])c([H])c(C([H])([H])C([H])([H])C([H])([H])C([H])([H])C([H])([H])C([H])([H])[N+]([H])([H])C([H])([H])C([H])([H])C(=O)N4C([H])([H])C([H])([H])C([H])([H])C([H])(n5nc(-c6c([H])c([H])c(Oc7c([H])c([H])c(F)c([H])c7F)c([H])c6[H])c(C(=O)N([H])[H])c5N([H])[H])C4([H])[H])c3[H])c([H])c([H])c2C1([H])[H]

>  <smiles>  (84) 
[H]c1c([H])c([H])c2c(c1[H])C([H])([H])C([H])([H])C([H])([H])C2([H])N([H])C(=O)C1([H])N(C(=O)C([H])(N([H])C(=O)C([H])(N([H])C([H])([H])[H])C([H])([H])[H])C(C([H])([H])[H])(C([H])([H])[H])C([H])([H])[H])C([H])([H])c2c([H])c(OC([H])([H])C([H])([H])c3c([H])c([H])c([H])c(C([H])([H])C([H])([H])C([H])([H])C([H])([H])C([H])([H])C([H])([H])[N+]([H])([H])C([H])([H])C([H])([H])C(=O)N4C([H])([H])C([H])([H])C([H])([H])C([H])(n5nc(-c6c([H])c([H])c(Oc7c([H])c([H])c(F)c([H])c7F)c([H])c6[H])c(C(=O)N([H])[H])c5N([H])[H])C4([H])[H])c3[H])c([H])c([H])c2C1([H])[H]

$$$$
84:0:0
     RDKit          3D

 94102  0  0  1  0  0  0  0  0999 V2000
  -26.9520  -21.7040   17.9470 C   0  0  0  0  0  3  0  0  0  0  0  0
  -27.0990  -23.0000   18.4650 C   0  0  0  0  0  3  0  0  0  0  0  0
  -28.3280  -20.8390   19.7490 C   0  0  0  0  0  3  0  0  0  0  0  0
  -27.5350  -20.5970   18.6050 C   0  0  0  0  0  0  0  0  0  0  0  0
  -27.8620  -23.2320   19.6340 C   0  0  0  0  0  0  0  0  0  0  0  0
  -28.5200  -22.1450   20.2570 C   0  0  0  0  0  0  0  0  0  0  0  0
  -29.4450  -21.3550   22.3000 C   0  0  0  0  0  1  0  0  0  0  0  0
  -29.3370  -22.3950   21.3380 O   0  0  0  0  0  0  0  0  0  0  0  0
  -27.2410  -19.1760   18.1100 C   0  0  0  0  0  2  0  0  0  0  0  0
  -27.9340  -18.0280   18.8590 C   0  0  0  0  0  2  0  0  0  0  0  0
  -29.4290  -18.0130   18.5190 C   0  0  0  0  0  2  0  0  0  0  0  0
  -30.1870  -16.8060   19.0320 C   0  0  0  0  0  2  0  0  0  0  0  0
  -30.4180  -16.8290   20.5690 C   0  0  0  0  0  2  0  0  0  0  0  0
  -31.1240  -14.4900   20.6390 C   0  0  0  0  0  0  0  0  0  0  0  0
  -30.7650  -12.4220   19.3990 C   0  0  0  0  0  2  0  0  0  0  0  0
  -29.8610  -12.7730   18.1990 C   0  0  0  0  0  2  0  0  0  0  0  0
  -28.3780  -12.6450   18.5860 C   0  0  0  0  0  2  0  0  0  0  0  0
  -28.0500  -13.4460   19.8710 C   0  0  0  0  0  3  0  0  0  0  0  0
  -29.0490  -13.1190   20.9980 C   0  0  0  0  0  2  0  0  0  0  0  0
  -30.4190  -13.3460   20.4850 N   0  0  0  0  0  0  0  0  0  0  0  0
  -32.2420  -14.7060   20.1640 O   0  0  0  0  0  0  0  0  0  0  0  0
  -30.3950  -15.4900   21.1260 N   0  0  0  0  0  0  0  0  0  0  0  0
  -29.5490  -15.2140   21.5960 H   0  0  0  0  0  0  0  0  0  0  0  0
  -25.6420  -14.1430   20.5000 C   0  0  0  0  0  0  0  0  0  0  0  0
  -24.5370  -13.4080   20.8130 C   0  0  0  0  0  0  0  0  0  0  0  0
  -24.9470  -12.0380   20.7510 C   0  0  0  0  0  0  0  0  0  0  0  0
  -26.6670  -13.2300   20.2880 N   0  0  0  0  0  0  0  0  0  0  0  0
  -26.2480  -11.9570   20.4960 N   0  0  0  0  0  0  0  0  0  0  0  0
  -24.1680  -10.8030   20.8880 C   0  0  0  0  0  0  0  0  0  0  0  0
  -24.5420   -9.8060   21.8200 C   0  0  0  0  0  3  0  0  0  0  0  0
  -23.7870   -8.6210   21.9450 C   0  0  0  0  0  3  0  0  0  0  0  0
  -22.6400   -8.4270   21.1390 C   0  0  0  0  0  0  0  0  0  0  0  0
  -22.2800   -9.4100   20.2010 C   0  0  0  0  0  3  0  0  0  0  0  0
  -23.0350  -10.5900   20.0740 C   0  0  0  0  0  3  0  0  0  0  0  0
  -21.8540   -7.3030   21.1780 O   0  0  0  0  0  0  0  0  0  0  0  0
  -21.7050   -6.5670   22.3270 C   0  0  0  0  0  0  0  0  0  0  0  0
  -21.2030   -7.1390   23.5150 C   0  0  0  0  0  3  0  0  0  0  0  0
  -20.9940   -6.3320   24.6510 C   0  0  0  0  0  3  0  0  0  0  0  0
  -21.2770   -4.9550   24.5960 C   0  0  0  0  0  0  0  0  0  0  0  0
  -21.7680   -4.3810   23.4100 C   0  0  0  0  0  3  0  0  0  0  0  0
  -21.9790   -5.1860   22.2750 C   0  0  0  0  0  0  0  0  0  0  0  0
  -22.4320   -4.6260   21.1280 F   0  0  0  0  0  0  0  0  0  0  0  0
  -21.0730   -4.1760   25.6830 F   0  0  0  0  0  0  0  0  0  0  0  0
  -23.1440  -13.9180   21.0670 C   0  0  0  0  0  0  0  0  0  0  0  0
  -22.3720  -13.2350   21.9020 N   0  0  0  0  0  0  0  0  0  0  0  0
  -22.7460  -14.9640   20.5500 O   0  0  0  0  0  0  0  0  0  0  0  0
  -22.7020  -12.3850   22.3310 H   0  0  0  0  0  0  0  0  0  0  0  0
  -21.4380  -13.5640   22.1190 H   0  0  0  0  0  0  0  0  0  0  0  0
  -25.8720  -15.5080   20.3650 N   0  0  0  0  0  0  0  0  0  0  0  0
  -25.1340  -16.1970   20.4670 H   0  0  0  0  0  0  0  0  0  0  0  0
  -26.7670  -15.8920   20.0920 H   0  0  0  0  0  0  0  0  0  0  0  0
  -27.9020  -24.6350   20.2270 C   0  0  0  0  0  2  0  0  0  0  0  0
  -28.4570  -25.7020   19.2520 C   0  0  0  0  0  2  0  0  0  0  0  0
  -28.4280  -27.0460   19.7430 O   0  0  0  0  0  0  0  0  0  0  0  0
  -24.4930  -31.8190   23.1640 C   0  0  0  0  0  0  0  0  0  0  0  0
  -27.2390  -27.7380   19.7240 C   0  0  0  0  0  0  0  0  0  0  0  0
  -23.4680  -30.2210   21.5750 C   0  0  0  0  0  3  0  0  0  0  0  0
  -24.8050  -29.1410   19.8060 C   0  0  0  0  0  0  0  0  0  0  0  0
  -25.8070  -31.0310   21.1780 C   0  0  0  0  0  2  0  0  0  0  0  0
  -25.9590  -29.7100   20.4000 C   0  0  0  0  0  0  0  0  0  0  0  0
  -27.1770  -28.9960   20.3710 C   0  0  0  0  0  3  0  0  0  0  0  0
  -26.0780  -27.2240   19.0970 C   0  0  0  0  0  3  0  0  0  0  0  0
  -24.8580  -27.8960   19.1650 C   0  0  0  0  0  3  0  0  0  0  0  0
  -23.4820  -29.8210   20.0840 C   0  0  0  0  0  2  0  0  0  0  0  0
  -24.5500  -31.1500   21.9830 N   0  0  0  0  0  0  0  0  0  0  0  0
  -23.4170  -31.9820   23.7550 O   0  0  0  0  0  0  0  0  0  0  0  0
  -22.6330  -29.3520   22.5380 C   0  0  0  0  0  0  0  0  0  0  0  0
  -21.3390  -29.1520   22.2730 N   0  0  0  0  0  0  0  0  0  0  0  0
  -23.1850  -28.7350   23.4630 O   0  0  0  0  0  0  0  0  0  0  0  0
  -20.9000  -29.6490   21.5120 H   0  0  0  0  0  0  0  0  0  0  0  0
  -18.0320  -27.7710   22.6850 C   0  0  0  0  0  0  0  0  0  0  0  0
  -20.5550  -28.1400   22.9800 C   0  0  0  0  0  3  0  0  0  0  0  0
  -20.7510  -26.7460   22.3420 C   0  0  0  0  0  2  0  0  0  0  0  0
  -19.6710  -26.4100   21.3120 C   0  0  0  0  0  2  0  0  0  0  0  0
  -18.2810  -26.4590   21.9570 C   0  0  0  0  0  2  0  0  0  0  0  0
  -19.1060  -28.5680   23.1510 C   0  0  0  0  0  0  0  0  0  0  0  0
  -18.8350  -29.7870   23.8010 C   0  0  0  0  0  3  0  0  0  0  0  0
  -17.5100  -30.2190   23.9920 C   0  0  0  0  0  3  0  0  0  0  0  0
  -16.4440  -29.4220   23.5370 C   0  0  0  0  0  3  0  0  0  0  0  0
  -16.7060  -28.2020   22.8880 C   0  0  0  0  0  3  0  0  0  0  0  0
  -25.7680  -32.4470   23.7980 C   0  0  0  0  0  3  0  0  0  0  0  0
  -25.4440  -33.8380   24.1400 N   0  0  0  0  0  0  0  0  0  0  0  0
  -25.8000  -34.8970   23.4030 C   0  0  0  0  0  0  0  0  0  0  0  0
  -26.4990  -34.8040   22.3890 O   0  0  0  0  0  0  0  0  0  0  0  0
  -24.8160  -33.9840   24.9160 H   0  0  0  0  0  0  0  0  0  0  0  0
  -24.0880  -36.6930   23.0180 C   0  0  0  0  0  1  0  0  0  0  0  0
  -25.3020  -36.2750   23.8610 C   0  0  0  0  0  3  0  0  0  0  0  0
  -27.4120  -37.1430   24.7710 C   0  0  0  0  0  1  0  0  0  0  0  0
  -26.3400  -37.3260   23.7930 N   0  0  0  0  0  0  0  0  0  0  0  0
  -25.9270  -38.2430   23.9400 H   0  0  0  0  0  0  0  0  0  0  0  0
  -26.2780  -31.6580   25.0650 C   0  0  1  0  0  0  0  0  0  0  0  0
  -25.1840  -31.4300   26.1300 C   0  0  0  0  0  1  0  0  0  0  0  0
  -26.8440  -30.2740   24.6610 C   0  0  0  0  0  1  0  0  0  0  0  0
  -27.4390  -32.4360   25.7260 C   0  0  0  0  0  1  0  0  0  0  0  0
  1  2  2  0
  1  4  1  0
  2  5  1  0
  3  6  1  0
  4  3  2  0
  5 52  1  0
  5  6  2  0
  6  8  1  0
  8  7  1  0
  9  4  1  0
  9 10  1  0
 11 10  1  0
 11 12  1  0
 12 13  1  0
 13 22  1  0
 14 22  1  0
 15 20  1  0
 16 17  1  0
 16 15  1  0
 18 17  1  0
 18 27  1  0
 18 19  1  0
 20 14  1  0
 20 19  1  0
 21 14  2  0
 22 23  1  0
 24 25  2  0
 25 44  1  0
 26 25  1  0
 26 29  1  0
 27 28  1  0
 27 24  1  0
 28 26  2  0
 29 30  1  0
 30 31  2  0
 32 35  1  0
 32 31  1  0
 33 32  2  0
 34 33  1  0
 34 29  2  0
 35 36  1  0
 36 37  1  0
 37 38  2  0
 39 38  1  0
 39 43  1  0
 40 39  2  0
 41 36  2  0
 41 40  1  0
 42 41  1  0
 44 45  1  0
 45 48  1  0
 45 47  1  0
 46 44  2  0
 49 50  1  0
 49 24  1  0
 51 49  1  0
 53 54  1  0
 53 52  1  0
 55 66  2  0
 56 54  1  0
 56 61  1  0
 57 65  1  0
 57 67  1  0
 58 64  1  0
 58 60  1  0
 59 65  1  0
 60 59  1  0
 61 60  2  0
 62 63  1  0
 62 56  2  0
 63 58  2  0
 64 57  1  0
 65 55  1  0
 67 69  2  0
 68 67  1  0
 70 68  1  0
 71 80  2  0
 71 76  1  0
 72 68  1  0
 72 76  1  0
 73 72  1  0
 74 75  1  0
 74 73  1  0
 75 71  1  0
 76 77  2  0
 77 78  1  0
 79 78  2  0
 80 79  1  0
 81 55  1  0
 81 82  1  0
 81 91  1  0
 82 85  1  0
 83 87  1  0
 83 82  1  0
 84 83  2  0
 87 86  1  0
 89 87  1  0
 89 90  1  0
 89 88  1  0
 91 94  1  1
 91 92  1  0
 93 91  1  0
M  ISO  4  14 100  22 100  53 101  54 101
M  END
>  <TORSDO>  (85) 
F 24

>  <SCORE>  (85) 
-12.134

>  <name>  (85) 
84

>  <ligand_id>  (85) 
84

>  <original_smiles>  (85) 
[H]c1c([H])c([H])c2c(c1[H])C([H])([H])C([H])([H])C([H])([H])C2([H])N([H])C(=O)C1([H])N(C(=O)C([H])(N([H])C(=O)C([H])(N([H])C([H])([H])[H])C([H])([H])[H])C(C([H])([H])[H])(C([H])([H])[H])C([H])([H])[H])C([H])([H])c2c([H])c(OC([H])([H])C([H])([H])c3c([H])c([H])c(C([H])([H])C([H])([H])C([H])([H])C([H])([H])C([H])([H])N([H])C(=O)N4C([H])([H])C([H])([H])C([H])([H])C([H])(n5nc(-c6c([H])c([H])c(Oc7c([H])c([H])c(F)c([H])c7F)c([H])c6[H])c(C(=O)N([H])[H])c5N([H])[H])C4([H])[H])c([H])c3OC([H])([H])[H])c([H])c([H])c2C1([H])[H]

>  <smiles>  (85) 
[H]c1c([H])c([H])c2c(c1[H])C([H])([H])C([H])([H])C([H])([H])C2([H])N([H])C(=O)C1([H])N(C(=O)C([H])(N([H])C(=O)C([H])(N([H])C([H])([H])[H])C([H])([H])[H])C(C([H])([H])[H])(C([H])([H])[H])C([H])([H])[H])C([H])([H])c2c([H])c(OC([H])([H])C([H])([H])c3c([H])c([H])c(C([H])([H])C([H])([H])C([H])([H])C([H])([H])C([H])([H])N([H])C(=O)N4C([H])([H])C([H])([H])C([H])([H])C([H])(n5nc(-c6c([H])c([H])c(Oc7c([H])c([H])c(F)c([H])c7F)c([H])c6[H])c(C(=O)N([H])[H])c5N([H])[H])C4([H])[H])c([H])c3OC([H])([H])[H])c([H])c([H])c2C1([H])[H]

$$$$
85:0:0
     RDKit          3D

 96105  0  0  1  0  0  0  0  0999 V2000
  -30.1370  -23.7000   24.1280 C   0  0  0  0  0  3  0  0  0  0  0  0
  -29.1930  -24.7340   24.0100 C   0  0  0  0  0  3  0  0  0  0  0  0
  -29.7420  -23.0770   21.8060 C   0  0  0  0  0  3  0  0  0  0  0  0
  -30.4340  -22.8740   23.0230 C   0  0  0  0  0  0  0  0  0  0  0  0
  -28.7680  -24.0990   21.6890 C   0  0  0  0  0  0  0  0  0  0  0  0
  -28.5130  -24.9410   22.7980 C   0  0  0  0  0  0  0  0  0  0  0  0
  -27.6130  -25.9600   22.7260 O   0  0  0  0  0  0  0  0  0  0  0  0
  -27.5060  -26.2720   21.8300 H   0  0  0  0  0  0  0  0  0  0  0  0
  -31.5520  -21.8420   23.1520 C   0  0  0  0  0  2  0  0  0  0  0  0
  -31.1620  -20.3590   22.9520 C   0  0  0  0  0  2  0  0  0  0  0  0
  -31.2850  -19.8670   21.4960 C   0  0  0  0  0  2  0  0  0  0  0  0
  -31.0840  -14.6480   20.0390 C   0  0  0  0  0  0  0  0  0  0  0  0
  -30.6850  -12.5220   18.8550 C   0  0  0  0  0  2  0  0  0  0  0  0
  -29.7000  -12.7920   17.6970 C   0  0  0  0  0  2  0  0  0  0  0  0
  -28.2390  -12.6890   18.1870 C   0  0  0  0  0  2  0  0  0  0  0  0
  -27.9850  -13.4950   19.4880 C   0  0  0  0  0  3  0  0  0  0  0  0
  -29.0790  -13.1830   20.5340 C   0  0  0  0  0  2  0  0  0  0  0  0
  -30.3780  -13.4890   19.9210 N   0  0  0  0  0  0  0  0  0  0  0  0
  -32.2130  -14.7740   19.5520 O   0  0  0  0  0  0  0  0  0  0  0  0
  -31.3030  -18.0110   19.7770 C   0  0  0  0  0  2  0  0  0  0  0  0
  -29.9410  -17.6860   21.8930 C   0  0  0  0  0  2  0  0  0  0  0  0
  -30.3720  -16.8710   19.3200 C   0  0  0  0  0  2  0  0  0  0  0  0
  -29.8580  -16.1560   21.6200 C   0  0  0  0  0  2  0  0  0  0  0  0
  -31.2030  -18.3340   21.2870 C   0  0  0  0  0  3  0  0  0  0  0  0
  -30.3360  -15.7590   20.2790 N   0  0  0  0  0  0  0  0  0  0  0  0
  -25.6420  -14.1590   20.3210 C   0  0  0  0  0  0  0  0  0  0  0  0
  -24.5640  -13.4080   20.7100 C   0  0  0  0  0  0  0  0  0  0  0  0
  -24.9760  -12.0440   20.6110 C   0  0  0  0  0  0  0  0  0  0  0  0
  -26.6450  -13.2520   20.0150 N   0  0  0  0  0  0  0  0  0  0  0  0
  -26.2490  -11.9740   20.2450 N   0  0  0  0  0  0  0  0  0  0  0  0
  -24.2160  -10.8010   20.7870 C   0  0  0  0  0  0  0  0  0  0  0  0
  -24.6220   -9.8130   21.7110 C   0  0  0  0  0  3  0  0  0  0  0  0
  -23.8650   -8.6340   21.8770 C   0  0  0  0  0  3  0  0  0  0  0  0
  -22.6860   -8.4350   21.1190 C   0  0  0  0  0  0  0  0  0  0  0  0
  -22.3000   -9.4120   20.1840 C   0  0  0  0  0  3  0  0  0  0  0  0
  -23.0580  -10.5820   20.0170 C   0  0  0  0  0  3  0  0  0  0  0  0
  -21.9020   -7.3090   21.1950 O   0  0  0  0  0  0  0  0  0  0  0  0
  -21.7750   -6.5980   22.3610 C   0  0  0  0  0  0  0  0  0  0  0  0
  -21.3120   -7.1960   23.5530 C   0  0  0  0  0  3  0  0  0  0  0  0
  -21.1330   -6.4130   24.7110 C   0  0  0  0  0  3  0  0  0  0  0  0
  -21.4060   -5.0320   24.6750 C   0  0  0  0  0  0  0  0  0  0  0  0
  -21.8630   -4.4340   23.4870 C   0  0  0  0  0  3  0  0  0  0  0  0
  -22.0440   -5.2150   22.3330 C   0  0  0  0  0  0  0  0  0  0  0  0
  -22.4650   -4.6300   21.1850 F   0  0  0  0  0  0  0  0  0  0  0  0
  -21.2270   -4.2770   25.7840 F   0  0  0  0  0  0  0  0  0  0  0  0
  -23.1980  -13.9210   21.0640 C   0  0  0  0  0  0  0  0  0  0  0  0
  -22.4980  -13.2300   21.9560 N   0  0  0  0  0  0  0  0  0  0  0  0
  -22.7650  -14.9680   20.5860 O   0  0  0  0  0  0  0  0  0  0  0  0
  -22.8600  -12.3790   22.3610 H   0  0  0  0  0  0  0  0  0  0  0  0
  -21.5860  -13.5580   22.2410 H   0  0  0  0  0  0  0  0  0  0  0  0
  -25.8450  -15.5290   20.1840 N   0  0  0  0  0  0  0  0  0  0  0  0
  -25.1080  -16.2000   20.3650 H   0  0  0  0  0  0  0  0  0  0  0  0
  -26.7010  -15.9560   19.8580 H   0  0  0  0  0  0  0  0  0  0  0  0
  -27.9710  -24.2470   20.3950 C   0  0  0  0  0  2  0  0  0  0  0  0
  -28.4880  -25.3410   19.4320 C   0  0  0  0  0  2  0  0  0  0  0  0
  -28.4310  -26.6720   19.9640 O   0  0  0  0  0  0  0  0  0  0  0  0
  -24.6090  -31.6650   23.2520 C   0  0  0  0  0  0  0  0  0  0  0  0
  -27.2400  -27.3730   19.9540 C   0  0  0  0  0  0  0  0  0  0  0  0
  -23.4030  -30.3660   21.5280 C   0  0  0  0  0  3  0  0  0  0  0  0
  -24.8540  -28.8900   20.0400 C   0  0  0  0  0  0  0  0  0  0  0  0
  -25.9350  -30.7150   21.3610 C   0  0  0  0  0  2  0  0  0  0  0  0
  -26.0120  -29.3770   20.6570 C   0  0  0  0  0  0  0  0  0  0  0  0
  -27.2040  -28.6240   20.6150 C   0  0  0  0  0  3  0  0  0  0  0  0
  -26.0550  -26.8940   19.3460 C   0  0  0  0  0  3  0  0  0  0  0  0
  -24.8680  -27.6460   19.3920 C   0  0  0  0  0  3  0  0  0  0  0  0
  -23.6160  -29.7530   20.1190 C   0  0  0  0  0  2  0  0  0  0  0  0
  -24.6690  -30.9270   22.1080 N   0  0  0  0  0  0  0  0  0  0  0  0
  -23.5260  -31.9210   23.7940 O   0  0  0  0  0  0  0  0  0  0  0  0
  -22.7340  -29.3040   22.4260 C   0  0  0  0  0  0  0  0  0  0  0  0
  -21.4060  -29.1570   22.2930 N   0  0  0  0  0  0  0  0  0  0  0  0
  -23.4030  -28.6130   23.2000 O   0  0  0  0  0  0  0  0  0  0  0  0
  -20.9250  -29.7600   21.6410 H   0  0  0  0  0  0  0  0  0  0  0  0
  -18.0040  -28.0250   22.7530 C   0  0  0  0  0  0  0  0  0  0  0  0
  -20.5720  -28.1910   23.0080 C   0  0  0  0  0  3  0  0  0  0  0  0
  -20.6250  -26.8000   22.3340 C   0  0  0  0  0  2  0  0  0  0  0  0
  -19.5030  -26.5790   21.3160 C   0  0  0  0  0  2  0  0  0  0  0  0
  -18.1320  -26.7210   21.9830 C   0  0  0  0  0  2  0  0  0  0  0  0
  -19.1500  -28.7220   23.2190 C   0  0  0  0  0  0  0  0  0  0  0  0
  -18.9740  -29.9480   23.8980 C   0  0  0  0  0  3  0  0  0  0  0  0
  -17.6870  -30.4760   24.1120 C   0  0  0  0  0  3  0  0  0  0  0  0
  -16.5560  -29.7720   23.6640 C   0  0  0  0  0  3  0  0  0  0  0  0
  -16.7150  -28.5480   22.9900 C   0  0  0  0  0  3  0  0  0  0  0  0
  -25.8960  -32.2490   23.9150 C   0  0  0  0  0  3  0  0  0  0  0  0
  -25.5980  -33.6260   24.3240 N   0  0  0  0  0  0  0  0  0  0  0  0
  -25.9480  -34.7190   23.6320 C   0  0  0  0  0  0  0  0  0  0  0  0
  -26.6340  -34.6720   22.6080 O   0  0  0  0  0  0  0  0  0  0  0  0
  -25.0120  -33.7370   25.1380 H   0  0  0  0  0  0  0  0  0  0  0  0
  -24.2500  -36.5490   23.3390 C   0  0  0  0  0  1  0  0  0  0  0  0
  -25.4600  -36.0810   24.1630 C   0  0  0  0  0  3  0  0  0  0  0  0
  -27.5740  -36.8870   25.1120 C   0  0  0  0  0  1  0  0  0  0  0  0
  -26.5040  -37.1260   24.1470 N   0  0  0  0  0  0  0  0  0  0  0  0
  -26.0990  -38.0380   24.3430 H   0  0  0  0  0  0  0  0  0  0  0  0
  -26.4010  -31.4030   25.1460 C   0  0  1  0  0  0  0  0  0  0  0  0
  -25.2990  -31.1120   26.1900 C   0  0  0  0  0  1  0  0  0  0  0  0
  -26.9750  -30.0500   24.6680 C   0  0  0  0  0  1  0  0  0  0  0  0
  -27.5550  -32.1470   25.8590 C   0  0  0  0  0  1  0  0  0  0  0  0
  2  1  1  0
  3  4  1  0
  4  9  1  0
  4  1  2  0
  5  3  2  0
  5  6  1  0
  6  2  2  0
  7  6  1  0
  8  7  1  0
 10  9  1  0
 11 10  1  0
 12 25  1  0
 13 18  1  0
 14 15  1  0
 14 13  1  0
 16 15  1  0
 16 29  1  0
 16 17  1  0
 18 12  1  0
 18 17  1  0
 19 12  2  0
 20 24  1  0
 22 20  1  0
 22 25  1  0
 23 21  1  0
 24 11  1  0
 24 21  1  0
 25 23  1  0
 26 27  2  0
 27 46  1  0
 28 27  1  0
 28 31  1  0
 29 30  1  0
 29 26  1  0
 30 28  2  0
 31 32  1  0
 32 33  2  0
 34 37  1  0
 34 33  1  0
 35 34  2  0
 36 35  1  0
 36 31  2  0
 37 38  1  0
 38 39  1  0
 39 40  2  0
 41 40  1  0
 41 45  1  0
 42 41  2  0
 43 38  2  0
 43 42  1  0
 44 43  1  0
 46 47  1  0
 47 50  1  0
 47 49  1  0
 48 46  2  0
 51 26  1  0
 51 52  1  0
 53 51  1  0
 54  5  1  0
 55 56  1  0
 55 54  1  0
 57 68  2  0
 58 56  1  0
 58 63  1  0
 59 67  1  0
 59 69  1  0
 60 66  1  0
 60 62  1  0
 61 67  1  0
 62 61  1  0
 63 62  2  0
 64 65  1  0
 64 58  2  0
 65 60  2  0
 66 59  1  0
 67 57  1  0
 69 71  2  0
 70 69  1  0
 72 70  1  0
 73 82  2  0
 73 78  1  0
 74 70  1  0
 74 78  1  0
 75 74  1  0
 76 77  1  0
 76 75  1  0
 77 73  1  0
 78 79  2  0
 79 80  1  0
 81 80  2  0
 82 81  1  0
 83 57  1  0
 83 84  1  0
 83 93  1  0
 84 87  1  0
 85 89  1  0
 85 84  1  0
 86 85  2  0
 89 88  1  0
 91 89  1  0
 91 92  1  0
 91 90  1  0
 93 96  1  1
 93 94  1  0
 95 93  1  0
M  ISO  4  12 100  25 100  55 101  56 101
M  END
>  <TORSDO>  (86) 
F 22

>  <SCORE>  (86) 
-11.641

>  <name>  (86) 
85

>  <ligand_id>  (86) 
85

>  <original_smiles>  (86) 
[H]Oc1c([H])c([H])c(C([H])([H])C([H])([H])C([H])([H])C2([H])C([H])([H])C([H])([H])N(C(=O)N3C([H])([H])C([H])([H])C([H])([H])C([H])(n4nc(-c5c([H])c([H])c(Oc6c([H])c([H])c(F)c([H])c6F)c([H])c5[H])c(C(=O)N([H])[H])c4N([H])[H])C3([H])[H])C([H])([H])C2([H])[H])c([H])c1C([H])([H])C([H])([H])Oc1c([H])c([H])c2c(c1[H])C([H])([H])N(C(=O)C([H])(N([H])C(=O)C([H])(N([H])C([H])([H])[H])C([H])([H])[H])C(C([H])([H])[H])(C([H])([H])[H])C([H])([H])[H])C([H])(C(=O)N([H])C1([H])c3c([H])c([H])c([H])c([H])c3C([H])([H])C([H])([H])C1([H])[H])C2([H])[H]

>  <smiles>  (86) 
[H]Oc1c([H])c([H])c(C([H])([H])C([H])([H])C([H])([H])C2([H])C([H])([H])C([H])([H])N(C(=O)N3C([H])([H])C([H])([H])C([H])([H])C([H])(n4nc(-c5c([H])c([H])c(Oc6c([H])c([H])c(F)c([H])c6F)c([H])c5[H])c(C(=O)N([H])[H])c4N([H])[H])C3([H])[H])C([H])([H])C2([H])[H])c([H])c1C([H])([H])C([H])([H])Oc1c([H])c([H])c2c(c1[H])C([H])([H])N(C(=O)C([H])(N([H])C(=O)C([H])(N([H])C([H])([H])[H])C([H])([H])[H])C(C([H])([H])[H])(C([H])([H])[H])C([H])([H])[H])C([H])(C(=O)N([H])C1([H])c3c([H])c([H])c([H])c([H])c3C([H])([H])C([H])([H])C1([H])[H])C2([H])[H]

$$$$
86:0:0
     RDKit          3D

 99106  0  0  1  0  0  0  0  0999 V2000
  -28.5520  -23.9570   20.4380 C   0  0  0  0  0  3  0  0  0  0  0  0
  -29.0140  -23.9840   19.0280 N   0  0  0  0  0  4  0  0  0  0  0  0
  -28.7700  -24.8800   18.6320 H   0  0  0  0  0  0  0  0  0  0  0  0
  -30.0180  -23.9370   19.0140 H   0  0  0  0  0  0  0  0  0  0  0  0
  -28.5190  -22.8960   18.1490 C   0  0  0  0  0  2  0  0  0  0  0  0
  -29.6560  -21.9690   17.6770 C   0  0  0  0  0  2  0  0  0  0  0  0
  -30.3060  -21.1040   18.7790 C   0  0  0  0  0  2  0  0  0  0  0  0
  -29.4840  -19.8620   19.1850 C   0  0  0  0  0  2  0  0  0  0  0  0
  -30.1450  -19.0230   20.3000 C   0  0  0  0  0  2  0  0  0  0  0  0
  -29.6040  -17.5810   20.3880 C   0  0  0  0  0  2  0  0  0  0  0  0
  -30.3620  -16.7010   21.4090 C   0  0  0  0  0  2  0  0  0  0  0  0
  -30.6640  -14.3470   20.5690 C   0  0  0  0  0  0  0  0  0  0  0  0
  -30.3600  -12.2500   19.3070 C   0  0  0  0  0  2  0  0  0  0  0  0
  -29.3920  -12.4690   18.1260 C   0  0  0  0  0  2  0  0  0  0  0  0
  -27.9260  -12.3200   18.5720 C   0  0  0  0  0  2  0  0  0  0  0  0
  -27.6050  -13.1350   19.8520 C   0  0  0  0  0  3  0  0  0  0  0  0
  -28.6620  -12.8680   20.9450 C   0  0  0  0  0  2  0  0  0  0  0  0
  -29.9900  -13.1820   20.3850 N   0  0  0  0  0  0  0  0  0  0  0  0
  -31.7530  -14.5880   20.0370 O   0  0  0  0  0  0  0  0  0  0  0  0
  -30.0030  -15.2830   21.2740 N   0  0  0  0  0  0  0  0  0  0  0  0
  -29.1210  -14.9960   21.6750 H   0  0  0  0  0  0  0  0  0  0  0  0
  -25.2110  -13.7580   20.5610 C   0  0  0  0  0  0  0  0  0  0  0  0
  -24.1400  -12.9900   20.9390 C   0  0  0  0  0  0  0  0  0  0  0  0
  -24.5950  -11.6380   20.9110 C   0  0  0  0  0  0  0  0  0  0  0  0
  -26.2510  -12.8690   20.3320 N   0  0  0  0  0  0  0  0  0  0  0  0
  -25.8820  -11.5910   20.5950 N   0  0  0  0  0  0  0  0  0  0  0  0
  -23.8650  -10.3810   21.1070 C   0  0  0  0  0  0  0  0  0  0  0  0
  -24.3090   -9.4070   22.0290 C   0  0  0  0  0  3  0  0  0  0  0  0
  -23.5820   -8.2120   22.2130 C   0  0  0  0  0  3  0  0  0  0  0  0
  -22.3940   -7.9830   21.4760 C   0  0  0  0  0  0  0  0  0  0  0  0
  -21.9700   -8.9460   20.5430 C   0  0  0  0  0  3  0  0  0  0  0  0
  -22.7000  -10.1330   20.3570 C   0  0  0  0  0  3  0  0  0  0  0  0
  -21.6360   -6.8410   21.5730 O   0  0  0  0  0  0  0  0  0  0  0  0
  -21.6100   -6.0870   22.7190 C   0  0  0  0  0  0  0  0  0  0  0  0
  -21.2230   -6.6340   23.9630 C   0  0  0  0  0  3  0  0  0  0  0  0
  -21.1430   -5.8090   25.1010 C   0  0  0  0  0  3  0  0  0  0  0  0
  -21.4390   -4.4360   24.9990 C   0  0  0  0  0  0  0  0  0  0  0  0
  -21.8200   -3.8880   23.7610 C   0  0  0  0  0  3  0  0  0  0  0  0
  -21.9010   -4.7120   22.6230 C   0  0  0  0  0  0  0  0  0  0  0  0
  -22.2470   -4.1740   21.4290 F   0  0  0  0  0  0  0  0  0  0  0  0
  -21.3570   -3.6400   26.0900 F   0  0  0  0  0  0  0  0  0  0  0  0
  -22.7450  -13.4760   21.2190 C   0  0  0  0  0  0  0  0  0  0  0  0
  -22.0200  -12.7850   22.0930 N   0  0  0  0  0  0  0  0  0  0  0  0
  -22.3040  -14.4980   20.6950 O   0  0  0  0  0  0  0  0  0  0  0  0
  -22.3910  -11.9590   22.5380 H   0  0  0  0  0  0  0  0  0  0  0  0
  -21.0820  -13.0840   22.3190 H   0  0  0  0  0  0  0  0  0  0  0  0
  -25.3830  -15.1270   20.3770 N   0  0  0  0  0  0  0  0  0  0  0  0
  -24.6220  -15.7890   20.4880 H   0  0  0  0  0  0  0  0  0  0  0  0
  -26.2380  -15.5580   20.0520 H   0  0  0  0  0  0  0  0  0  0  0  0
  -29.4710  -24.8590   21.3010 C   0  0  0  0  0  2  0  0  0  0  0  0
  -29.1400  -26.3710   21.3340 C   0  0  0  0  0  2  0  0  0  0  0  0
  -28.7900  -26.8950   20.0470 O   0  0  0  0  0  0  0  0  0  0  0  0
  -24.7620  -31.7800   23.3150 C   0  0  0  0  0  0  0  0  0  0  0  0
  -27.6230  -27.6230   20.0570 C   0  0  0  0  0  0  0  0  0  0  0  0
  -23.6370  -30.4310   21.5710 C   0  0  0  0  0  3  0  0  0  0  0  0
  -25.1730  -29.0250   20.0970 C   0  0  0  0  0  0  0  0  0  0  0  0
  -26.1500  -30.8900   21.4480 C   0  0  0  0  0  2  0  0  0  0  0  0
  -26.3000  -29.5640   20.7350 C   0  0  0  0  0  0  0  0  0  0  0  0
  -27.5280  -28.8670   20.7180 C   0  0  0  0  0  3  0  0  0  0  0  0
  -26.4850  -27.0950   19.4100 C   0  0  0  0  0  3  0  0  0  0  0  0
  -25.2600  -27.7880   19.4370 C   0  0  0  0  0  3  0  0  0  0  0  0
  -23.8970  -29.8330   20.1610 C   0  0  0  0  0  2  0  0  0  0  0  0
  -24.8660  -31.0440   22.1720 N   0  0  0  0  0  0  0  0  0  0  0  0
  -23.6610  -31.9860   23.8430 O   0  0  0  0  0  0  0  0  0  0  0  0
  -22.9990  -29.3390   22.4590 C   0  0  0  0  0  0  0  0  0  0  0  0
  -21.6860  -29.1190   22.2870 N   0  0  0  0  0  0  0  0  0  0  0  0
  -23.6880  -28.6960   23.2570 O   0  0  0  0  0  0  0  0  0  0  0  0
  -21.1950  -29.6950   21.6160 H   0  0  0  0  0  0  0  0  0  0  0  0
  -18.3470  -27.7820   22.6240 C   0  0  0  0  0  0  0  0  0  0  0  0
  -20.8850  -28.1130   22.9840 C   0  0  0  0  0  3  0  0  0  0  0  0
  -21.0560  -26.7190   22.3370 C   0  0  0  0  0  2  0  0  0  0  0  0
  -19.9940  -26.4110   21.2770 C   0  0  0  0  0  2  0  0  0  0  0  0
  -18.5920  -26.4760   21.8870 C   0  0  0  0  0  2  0  0  0  0  0  0
  -19.4250  -28.5580   23.1260 C   0  0  0  0  0  0  0  0  0  0  0  0
  -19.1470  -29.7810   23.7720 C   0  0  0  0  0  3  0  0  0  0  0  0
  -17.8210  -30.2290   23.9260 C   0  0  0  0  0  3  0  0  0  0  0  0
  -16.7560  -29.4490   23.4420 C   0  0  0  0  0  3  0  0  0  0  0  0
  -17.0200  -28.2280   22.7960 C   0  0  0  0  0  3  0  0  0  0  0  0
  -26.0130  -32.4150   23.9970 C   0  0  0  0  0  3  0  0  0  0  0  0
  -25.6610  -33.7890   24.3760 N   0  0  0  0  0  0  0  0  0  0  0  0
  -25.9800  -34.8790   23.6650 C   0  0  0  0  0  0  0  0  0  0  0  0
  -26.6720  -34.8340   22.6440 O   0  0  0  0  0  0  0  0  0  0  0  0
  -25.0460  -33.8940   25.1700 H   0  0  0  0  0  0  0  0  0  0  0  0
  -24.2010  -36.6290   23.3530 C   0  0  0  0  0  1  0  0  0  0  0  0
  -25.4450  -36.2350   24.1650 C   0  0  0  0  0  3  0  0  0  0  0  0
  -27.5440  -37.1510   25.0510 C   0  0  0  0  0  1  0  0  0  0  0  0
  -26.4470  -37.3220   24.1010 N   0  0  0  0  0  0  0  0  0  0  0  0
  -26.0130  -38.2250   24.2760 H   0  0  0  0  0  0  0  0  0  0  0  0
  -26.5180  -31.6010   25.2510 C   0  0  1  0  0  0  0  0  0  0  0  0
  -25.4060  -31.2930   26.2800 C   0  0  0  0  0  1  0  0  0  0  0  0
  -27.1440  -30.2570   24.8160 C   0  0  0  0  0  1  0  0  0  0  0  0
  -27.6330  -32.3920   25.9750 C   0  0  0  0  0  1  0  0  0  0  0  0
  -27.0370  -24.2730   20.5700 C   0  0  0  0  0  2  0  0  0  0  0  0
  -26.3600  -23.6620   21.8140 C   0  0  0  0  0  2  0  0  0  0  0  0
  -24.9400  -24.2000   22.0340 C   0  0  0  0  0  0  0  0  0  0  0  0
  -24.3910  -24.0350   23.2320 N   0  0  0  0  0  0  0  0  0  0  0  0
  -24.3230  -24.7650   21.1330 O   0  0  0  0  0  0  0  0  0  0  0  0
  -24.8750  -23.5380   23.9670 H   0  0  0  0  0  0  0  0  0  0  0  0
  -23.4670  -24.4050   23.4150 H   0  0  0  0  0  0  0  0  0  0  0  0
  1 93  1  0
  1 50  1  0
  2  1  1  0
  3  2  1  0
  4  2  1  0
  5  2  1  0
  6  5  1  0
  6  7  1  0
  7  8  1  0
  8  9  1  0
  9 10  1  0
 10 11  1  0
 12 20  1  0
 13 18  1  0
 14 15  1  0
 14 13  1  0
 16 15  1  0
 16 25  1  0
 16 17  1  0
 18 12  1  0
 18 17  1  0
 19 12  2  0
 20 11  1  0
 20 21  1  0
 22 23  2  0
 23 42  1  0
 24 23  1  0
 24 27  1  0
 25 22  1  0
 25 26  1  0
 26 24  2  0
 27 28  1  0
 28 29  2  0
 30 33  1  0
 30 29  1  0
 31 30  2  0
 32 31  1  0
 32 27  2  0
 33 34  1  0
 34 35  1  0
 35 36  2  0
 37 36  1  0
 37 41  1  0
 38 37  2  0
 39 34  2  0
 39 38  1  0
 40 39  1  0
 42 43  1  0
 43 46  1  0
 43 45  1  0
 44 42  2  0
 47 48  1  0
 47 22  1  0
 49 47  1  0
 50 51  1  0
 52 54  1  0
 52 51  1  0
 53 64  2  0
 54 59  1  0
 55 63  1  0
 55 65  1  0
 56 62  1  0
 56 58  1  0
 57 63  1  0
 58 57  1  0
 59 58  2  0
 60 61  1  0
 60 54  2  0
 61 56  2  0
 62 55  1  0
 63 53  1  0
 65 67  2  0
 66 65  1  0
 68 66  1  0
 69 78  2  0
 69 74  1  0
 70 66  1  0
 70 74  1  0
 71 70  1  0
 72 73  1  0
 72 71  1  0
 73 69  1  0
 74 75  2  0
 75 76  1  0
 77 76  2  0
 78 77  1  0
 79 53  1  0
 79 80  1  0
 79 89  1  0
 80 83  1  0
 81 85  1  0
 81 80  1  0
 82 81  2  0
 85 84  1  0
 87 85  1  0
 87 88  1  0
 87 86  1  0
 89 92  1  1
 89 90  1  0
 91 89  1  0
 93 94  1  0
 94 95  1  0
 95 96  1  0
 96 99  1  0
 96 98  1  0
 97 95  2  0
M  ISO  4  12 100  20 100  51 101  52 101
M  END
>  <TORSDO>  (87) 
F 29

>  <SCORE>  (87) 
-11.155

>  <name>  (87) 
86

>  <ligand_id>  (87) 
86

>  <original_smiles>  (87) 
[H]c1c([H])c([H])c2c(c1[H])C([H])([H])C([H])([H])C([H])([H])C2([H])N([H])C(=O)C1([H])N(C(=O)C([H])(N([H])C(=O)C([H])(N([H])C([H])([H])[H])C([H])([H])[H])C(C([H])([H])[H])(C([H])([H])[H])C([H])([H])[H])C([H])([H])c2c([H])c(OC([H])([H])C([H])([H])C([H])(C([H])([H])C([H])([H])C(=O)N([H])[H])[N+]([H])([H])C([H])([H])C([H])([H])C([H])([H])C([H])([H])C([H])([H])C([H])([H])C([H])([H])N([H])C(=O)N3C([H])([H])C([H])([H])C([H])([H])C([H])(n4nc(-c5c([H])c([H])c(Oc6c([H])c([H])c(F)c([H])c6F)c([H])c5[H])c(C(=O)N([H])[H])c4N([H])[H])C3([H])[H])c([H])c([H])c2C1([H])[H]

>  <smiles>  (87) 
[H]c1c([H])c([H])c2c(c1[H])C([H])([H])C([H])([H])C([H])([H])C2([H])N([H])C(=O)C1([H])N(C(=O)C([H])(N([H])C(=O)C([H])(N([H])C([H])([H])[H])C([H])([H])[H])C(C([H])([H])[H])(C([H])([H])[H])C([H])([H])[H])C([H])([H])c2c([H])c(OC([H])([H])C([H])([H])C([H])(C([H])([H])C([H])([H])C(=O)N([H])[H])[N+]([H])([H])C([H])([H])C([H])([H])C([H])([H])C([H])([H])C([H])([H])C([H])([H])C([H])([H])N([H])C(=O)N3C([H])([H])C([H])([H])C([H])([H])C([H])(n4nc(-c5c([H])c([H])c(Oc6c([H])c([H])c(F)c([H])c6F)c([H])c5[H])c(C(=O)N([H])[H])c4N([H])[H])C3([H])[H])c([H])c([H])c2C1([H])[H]

$$$$
87:0:0
     RDKit          3D

 95103  0  0  1  0  0  0  0  0999 V2000
  -25.0740  -22.8440   20.8560 C   0  0  0  0  0  3  0  0  0  0  0  0
  -25.8800  -21.8160   20.3310 C   0  0  0  0  0  3  0  0  0  0  0  0
  -25.6640  -24.0250   21.3450 C   0  0  0  0  0  3  0  0  0  0  0  0
  -27.8690  -23.1230   20.8350 C   0  0  0  0  0  3  0  0  0  0  0  0
  -27.2880  -21.9500   20.2990 C   0  0  0  0  0  0  0  0  0  0  0  0
  -27.0650  -24.1710   21.3310 C   0  0  0  0  0  0  0  0  0  0  0  0
  -28.1250  -20.8690   19.6960 C   0  0  0  0  0  0  0  0  0  0  0  0
  -27.6470  -19.8290   19.2360 O   0  0  0  0  0  0  0  0  0  0  0  0
  -29.6440  -21.1160   19.6420 C   0  0  0  0  0  2  0  0  0  0  0  0
  -30.5240  -19.9370   19.1850 C   0  0  0  0  0  2  0  0  0  0  0  0
  -30.5730  -18.7400   20.1510 C   0  0  0  0  0  2  0  0  0  0  0  0
  -31.8490  -17.9150   19.9550 C   0  0  0  0  0  2  0  0  0  0  0  0
  -31.9580  -16.7040   20.8990 C   0  0  0  0  0  2  0  0  0  0  0  0
  -31.3070  -14.7000   19.5740 C   0  0  0  0  0  0  0  0  0  0  0  0
  -30.9520  -12.3520   18.9170 C   0  0  0  0  0  2  0  0  0  0  0  0
  -29.9660  -12.1820   17.7500 C   0  0  0  0  0  2  0  0  0  0  0  0
  -28.5190  -12.1110   18.2700 C   0  0  0  0  0  2  0  0  0  0  0  0
  -28.1840  -13.2690   19.2440 C   0  0  0  0  0  3  0  0  0  0  0  0
  -29.2710  -13.4170   20.3310 C   0  0  0  0  0  2  0  0  0  0  0  0
  -30.5840  -13.5570   19.6740 N   0  0  0  0  0  0  0  0  0  0  0  0
  -32.2260  -14.8510   18.7640 O   0  0  0  0  0  0  0  0  0  0  0  0
  -31.0700  -15.5990   20.5380 N   0  0  0  0  0  0  0  0  0  0  0  0
  -30.3150  -15.3860   21.1740 H   0  0  0  0  0  0  0  0  0  0  0  0
  -25.9160  -14.0620   20.1770 C   0  0  0  0  0  0  0  0  0  0  0  0
  -24.8180  -13.3730   20.6160 C   0  0  0  0  0  0  0  0  0  0  0  0
  -25.1500  -11.9870   20.5050 C   0  0  0  0  0  0  0  0  0  0  0  0
  -26.8550  -13.1010   19.8310 N   0  0  0  0  0  0  0  0  0  0  0  0
  -26.4000  -11.8460   20.0820 N   0  0  0  0  0  0  0  0  0  0  0  0
  -24.3300  -10.7880   20.7210 C   0  0  0  0  0  0  0  0  0  0  0  0
  -24.7100   -9.7910   21.6460 C   0  0  0  0  0  3  0  0  0  0  0  0
  -23.8970   -8.6550   21.8500 C   0  0  0  0  0  3  0  0  0  0  0  0
  -22.6880   -8.5100   21.1290 C   0  0  0  0  0  0  0  0  0  0  0  0
  -22.3260   -9.4940   20.1930 C   0  0  0  0  0  3  0  0  0  0  0  0
  -23.1390  -10.6210   19.9880 C   0  0  0  0  0  3  0  0  0  0  0  0
  -21.8480   -7.4280   21.2430 O   0  0  0  0  0  0  0  0  0  0  0  0
  -21.7240   -6.7330   22.4180 C   0  0  0  0  0  0  0  0  0  0  0  0
  -21.3200   -7.3610   23.6170 C   0  0  0  0  0  3  0  0  0  0  0  0
  -21.1380   -6.5950   24.7860 C   0  0  0  0  0  3  0  0  0  0  0  0
  -21.3530   -5.2050   24.7580 C   0  0  0  0  0  0  0  0  0  0  0  0
  -21.7510   -4.5770   23.5650 C   0  0  0  0  0  3  0  0  0  0  0  0
  -21.9330   -5.3400   22.3980 C   0  0  0  0  0  0  0  0  0  0  0  0
  -22.2970   -4.7270   21.2450 F   0  0  0  0  0  0  0  0  0  0  0  0
  -21.1710   -4.4670   25.8790 F   0  0  0  0  0  0  0  0  0  0  0  0
  -23.4990  -13.9610   21.0280 C   0  0  0  0  0  0  0  0  0  0  0  0
  -22.8000  -13.3100   21.9510 N   0  0  0  0  0  0  0  0  0  0  0  0
  -23.1020  -15.0290   20.5640 O   0  0  0  0  0  0  0  0  0  0  0  0
  -23.1350  -12.4460   22.3490 H   0  0  0  0  0  0  0  0  0  0  0  0
  -21.9160  -13.6850   22.2680 H   0  0  0  0  0  0  0  0  0  0  0  0
  -26.1900  -15.4180   20.0270 N   0  0  0  0  0  0  0  0  0  0  0  0
  -25.5030  -16.1370   20.2260 H   0  0  0  0  0  0  0  0  0  0  0  0
  -27.0590  -15.7920   19.6640 H   0  0  0  0  0  0  0  0  0  0  0  0
  -27.7120  -25.4640   21.8000 C   0  0  0  0  0  2  0  0  0  0  0  0
  -28.8270  -25.9670   20.8590 C   0  0  0  0  0  2  0  0  0  0  0  0
  -28.4420  -26.0390   19.3630 C   0  0  0  0  0  2  0  0  0  0  0  0
  -28.2810  -27.3900   18.9500 O   0  0  0  0  0  0  0  0  0  0  0  0
  -24.5990  -31.8370   23.0730 C   0  0  0  0  0  0  0  0  0  0  0  0
  -27.0670  -27.9770   19.2010 C   0  0  0  0  0  0  0  0  0  0  0  0
  -23.2730  -30.5780   21.4050 C   0  0  0  0  0  3  0  0  0  0  0  0
  -24.6220  -29.3040   19.6570 C   0  0  0  0  0  0  0  0  0  0  0  0
  -25.7380  -31.1070   20.9830 C   0  0  0  0  0  2  0  0  0  0  0  0
  -25.8100  -29.8280   20.1760 C   0  0  0  0  0  0  0  0  0  0  0  0
  -27.0360  -29.1710   19.9480 C   0  0  0  0  0  3  0  0  0  0  0  0
  -25.8630  -27.4490   18.6870 C   0  0  0  0  0  3  0  0  0  0  0  0
  -24.6390  -28.1090   18.9110 C   0  0  0  0  0  3  0  0  0  0  0  0
  -23.3540  -30.0790   19.9370 C   0  0  0  0  0  2  0  0  0  0  0  0
  -24.5610  -31.1820   21.8790 N   0  0  0  0  0  0  0  0  0  0  0  0
  -23.5770  -31.9810   23.7570 O   0  0  0  0  0  0  0  0  0  0  0  0
  -22.7790  -29.4140   22.2930 C   0  0  0  0  0  0  0  0  0  0  0  0
  -21.4660  -29.1390   22.2410 N   0  0  0  0  0  0  0  0  0  0  0  0
  -23.5690  -28.7670   22.9840 O   0  0  0  0  0  0  0  0  0  0  0  0
  -20.8830  -29.7220   21.6550 H   0  0  0  0  0  0  0  0  0  0  0  0
  -18.2500  -27.5710   22.7500 C   0  0  0  0  0  0  0  0  0  0  0  0
  -20.7800  -28.0650   22.9590 C   0  0  0  0  0  3  0  0  0  0  0  0
  -21.0000  -26.7010   22.2620 C   0  0  0  0  0  2  0  0  0  0  0  0
  -19.8940  -26.3490   21.2630 C   0  0  0  0  0  2  0  0  0  0  0  0
  -18.5320  -26.3030   21.9630 C   0  0  0  0  0  2  0  0  0  0  0  0
  -19.3060  -28.4070   23.2030 C   0  0  0  0  0  0  0  0  0  0  0  0
  -18.9870  -29.5930   23.9000 C   0  0  0  0  0  3  0  0  0  0  0  0
  -17.6470  -29.9450   24.1470 C   0  0  0  0  0  3  0  0  0  0  0  0
  -16.6070  -29.1060   23.7120 C   0  0  0  0  0  3  0  0  0  0  0  0
  -16.9110  -27.9210   23.0180 C   0  0  0  0  0  3  0  0  0  0  0  0
  -25.9210  -32.4550   23.6260 C   0  0  0  0  0  3  0  0  0  0  0  0
  -26.5890  -31.5820   24.7580 C   0  0  1  0  0  0  0  0  0  0  0  0
  -25.6240  -31.2020   25.9050 C   0  0  0  0  0  1  0  0  0  0  0  0
  -27.1600  -30.2720   24.1650 C   0  0  0  0  0  1  0  0  0  0  0  0
  -27.7840  -32.3480   25.3730 C   0  0  0  0  0  1  0  0  0  0  0  0
  -25.6060  -33.8000   24.1240 N   0  0  0  0  0  0  0  0  0  0  0  0
  -25.8460  -34.9350   23.4510 C   0  0  0  0  0  0  0  0  0  0  0  0
  -26.4290  -34.9580   22.3630 O   0  0  0  0  0  0  0  0  0  0  0  0
  -25.0800  -33.8540   24.9840 H   0  0  0  0  0  0  0  0  0  0  0  0
  -24.0510  -36.6940   23.4150 C   0  0  0  0  0  1  0  0  0  0  0  0
  -25.3620  -36.2520   24.0840 C   0  0  0  0  0  3  0  0  0  0  0  0
  -27.5350  -37.1170   24.8310 C   0  0  0  0  0  1  0  0  0  0  0  0
  -26.3550  -37.3440   24.0000 N   0  0  0  0  0  0  0  0  0  0  0  0
  -25.9410  -38.2320   24.2740 H   0  0  0  0  0  0  0  0  0  0  0  0
  1  3  1  0
  2  1  2  0
  4  6  1  0
  5  2  1  0
  5  4  2  0
  6  3  2  0
  6 52  1  0
  7  5  1  0
  8  7  2  0
  9  7  1  0
 10  9  1  0
 10 11  1  0
 12 11  1  0
 12 13  1  0
 14 20  1  0
 14 22  1  0
 15 20  1  0
 16 17  1  0
 16 15  1  0
 18 17  1  0
 18 27  1  0
 18 19  1  0
 20 19  1  0
 21 14  2  0
 22 13  1  0
 22 23  1  0
 24 25  2  0
 25 44  1  0
 26 25  1  0
 26 29  1  0
 27 28  1  0
 27 24  1  0
 28 26  2  0
 29 30  1  0
 30 31  2  0
 32 35  1  0
 32 31  1  0
 33 32  2  0
 34 33  1  0
 34 29  2  0
 35 36  1  0
 36 37  1  0
 37 38  2  0
 39 38  1  0
 39 43  1  0
 40 39  2  0
 41 36  2  0
 41 40  1  0
 42 41  1  0
 44 45  1  0
 45 48  1  0
 45 47  1  0
 46 44  2  0
 49 24  1  0
 49 50  1  0
 51 49  1  0
 53 52  1  0
 54 53  1  0
 55 57  1  0
 55 54  1  0
 56 67  2  0
 57 62  1  0
 58 66  1  0
 58 68  1  0
 59 65  1  0
 59 61  1  0
 60 66  1  0
 61 60  1  0
 62 61  2  0
 63 64  1  0
 63 57  2  0
 64 59  2  0
 65 58  1  0
 66 56  1  0
 68 70  2  0
 69 68  1  0
 71 69  1  0
 72 81  2  0
 72 77  1  0
 73 69  1  0
 73 77  1  0
 74 73  1  0
 75 76  1  0
 75 74  1  0
 76 72  1  0
 77 78  2  0
 78 79  1  0
 80 79  2  0
 81 80  1  0
 82 56  1  0
 82 87  1  0
 82 83  1  0
 83 86  1  1
 83 84  1  0
 85 83  1  0
 87 90  1  0
 88 92  1  0
 88 87  1  0
 89 88  2  0
 92 91  1  0
 94 92  1  0
 94 95  1  0
 94 93  1  0
M  ISO  4  14 100  22 100  54 101  55 101
M  END
>  <TORSDO>  (88) 
F 25

>  <SCORE>  (88) 
-9.281

>  <name>  (88) 
87

>  <ligand_id>  (88) 
87

>  <original_smiles>  (88) 
[H]c1c([H])c(C(=O)C([H])([H])C([H])([H])C([H])([H])C([H])([H])C([H])([H])N([H])C(=O)N2C([H])([H])C([H])([H])C([H])([H])C([H])(n3nc(-c4c([H])c([H])c(Oc5c([H])c([H])c(F)c([H])c5F)c([H])c4[H])c(C(=O)N([H])[H])c3N([H])[H])C2([H])[H])c([H])c(C([H])([H])C([H])([H])C([H])([H])Oc2c([H])c([H])c3c(c2[H])C([H])([H])N(C(=O)C([H])(N([H])C(=O)C([H])(N([H])C([H])([H])[H])C([H])([H])[H])C(C([H])([H])[H])(C([H])([H])[H])C([H])([H])[H])C([H])(C(=O)N([H])C2([H])c4c([H])c([H])c([H])c([H])c4C([H])([H])C([H])([H])C2([H])[H])C3([H])[H])c1[H]

>  <smiles>  (88) 
[H]c1c([H])c(C(=O)C([H])([H])C([H])([H])C([H])([H])C([H])([H])C([H])([H])N([H])C(=O)N2C([H])([H])C([H])([H])C([H])([H])C([H])(n3nc(-c4c([H])c([H])c(Oc5c([H])c([H])c(F)c([H])c5F)c([H])c4[H])c(C(=O)N([H])[H])c3N([H])[H])C2([H])[H])c([H])c(C([H])([H])C([H])([H])C([H])([H])Oc2c([H])c([H])c3c(c2[H])C([H])([H])N(C(=O)C([H])(N([H])C(=O)C([H])(N([H])C([H])([H])[H])C([H])([H])[H])C(C([H])([H])[H])(C([H])([H])[H])C([H])([H])[H])C([H])(C(=O)N([H])C2([H])c4c([H])c([H])c([H])c([H])c4C([H])([H])C([H])([H])C2([H])[H])C3([H])[H])c1[H]

$$$$
88:0:0
     RDKit          3D

 92 99  0  0  1  0  0  0  0  0999 V2000
  -31.7310  -23.5960   18.6490 C   0  0  0  0  0  2  0  0  0  0  0  0
  -29.8310  -23.8670   17.1000 C   0  0  0  0  0  1  0  0  0  0  0  0
  -30.3150  -24.0130   18.4960 N   0  0  2  0  0  4  0  0  0  0  0  0
  -29.7880  -23.3630   19.0600 H   0  0  0  0  0  0  0  0  0  0  0  0
  -30.0620  -25.3600   19.0760 C   0  0  0  0  0  2  0  0  0  0  0  0
  -28.5700  -25.6980   19.1850 C   0  0  0  0  0  2  0  0  0  0  0  0
  -28.4370  -26.8170   20.0500 O   0  0  0  0  0  0  0  0  0  0  0  0
  -24.6120  -31.8710   23.2120 C   0  0  0  0  0  0  0  0  0  0  0  0
  -27.2310  -27.4770   20.0710 C   0  0  0  0  0  0  0  0  0  0  0  0
  -23.3950  -30.5000   21.5530 C   0  0  0  0  0  3  0  0  0  0  0  0
  -24.8350  -28.9710   20.1150 C   0  0  0  0  0  0  0  0  0  0  0  0
  -25.9180  -30.8510   21.3550 C   0  0  0  0  0  2  0  0  0  0  0  0
  -25.9920  -29.4860   20.7080 C   0  0  0  0  0  0  0  0  0  0  0  0
  -27.1880  -28.7410   20.6950 C   0  0  0  0  0  3  0  0  0  0  0  0
  -26.0470  -26.9590   19.4900 C   0  0  0  0  0  3  0  0  0  0  0  0
  -24.8530  -27.7030   19.5100 C   0  0  0  0  0  3  0  0  0  0  0  0
  -23.5960  -29.8350   20.1660 C   0  0  0  0  0  2  0  0  0  0  0  0
  -24.6610  -31.0870   22.1000 N   0  0  0  0  0  0  0  0  0  0  0  0
  -23.5340  -32.1420   23.7580 O   0  0  0  0  0  0  0  0  0  0  0  0
  -22.7390  -29.4710   22.4990 C   0  0  0  0  0  0  0  0  0  0  0  0
  -21.4120  -29.3040   22.3720 N   0  0  0  0  0  0  0  0  0  0  0  0
  -23.4180  -28.8220   23.3010 O   0  0  0  0  0  0  0  0  0  0  0  0
  -20.9270  -29.8750   21.6920 H   0  0  0  0  0  0  0  0  0  0  0  0
  -18.0280  -28.1400   22.8520 C   0  0  0  0  0  0  0  0  0  0  0  0
  -20.5870  -28.3680   23.1320 C   0  0  0  0  0  3  0  0  0  0  0  0
  -20.6760  -26.9410   22.5420 C   0  0  0  0  0  2  0  0  0  0  0  0
  -19.5730  -26.6410   21.5220 C   0  0  0  0  0  2  0  0  0  0  0  0
  -18.1920  -26.7950   22.1640 C   0  0  0  0  0  2  0  0  0  0  0  0
  -19.1530  -28.8850   23.2930 C   0  0  0  0  0  0  0  0  0  0  0  0
  -18.9460  -30.1470   23.8930 C   0  0  0  0  0  3  0  0  0  0  0  0
  -17.6460  -30.6600   24.0600 C   0  0  0  0  0  3  0  0  0  0  0  0
  -16.5350  -29.9110   23.6340 C   0  0  0  0  0  3  0  0  0  0  0  0
  -16.7270  -28.6540   23.0350 C   0  0  0  0  0  3  0  0  0  0  0  0
  -25.9040  -32.4830   23.8400 C   0  0  0  0  0  3  0  0  0  0  0  0
  -26.4490  -31.6580   25.0700 C   0  0  1  0  0  0  0  0  0  0  0  0
  -25.3790  -31.3660   26.1470 C   0  0  0  0  0  1  0  0  0  0  0  0
  -27.0290  -30.3040   24.6010 C   0  0  0  0  0  1  0  0  0  0  0  0
  -27.6090  -32.4280   25.7450 C   0  0  0  0  0  1  0  0  0  0  0  0
  -25.5910  -33.8620   24.2340 N   0  0  0  0  0  0  0  0  0  0  0  0
  -25.9030  -34.9480   23.5130 C   0  0  0  0  0  0  0  0  0  0  0  0
  -26.5590  -34.8930   22.4690 O   0  0  0  0  0  0  0  0  0  0  0  0
  -25.0090  -33.9780   25.0510 H   0  0  0  0  0  0  0  0  0  0  0  0
  -24.1480  -36.7310   23.2640 C   0  0  0  0  0  1  0  0  0  0  0  0
  -25.4090  -36.3100   24.0350 C   0  0  0  0  0  3  0  0  0  0  0  0
  -27.5560  -37.1800   24.8480 C   0  0  0  0  0  1  0  0  0  0  0  0
  -26.4280  -37.3780   23.9430 N   0  0  0  0  0  0  0  0  0  0  0  0
  -26.0160  -38.2850   24.1450 H   0  0  0  0  0  0  0  0  0  0  0  0
  -31.8820  -22.0660   18.7120 C   0  0  0  0  0  2  0  0  0  0  0  0
  -31.2050  -21.4440   19.9460 C   0  0  0  0  0  2  0  0  0  0  0  0
  -31.4060  -19.9290   20.0000 C   0  0  0  0  0  2  0  0  0  0  0  0
  -30.9880  -19.3170   21.3430 C   0  0  0  0  0  2  0  0  0  0  0  0
  -31.2280  -17.8050   21.3450 C   0  0  0  0  0  2  0  0  0  0  0  0
  -31.0220  -17.1570   22.7190 C   0  0  0  0  0  2  0  0  0  0  0  0
  -31.4890  -15.6940   22.7520 C   0  0  0  0  0  2  0  0  0  0  0  0
  -30.8310  -14.3020   20.7720 C   0  0  0  0  0  0  0  0  0  0  0  0
  -30.4230  -12.3130   19.3770 C   0  0  0  0  0  2  0  0  0  0  0  0
  -29.4830  -12.5640   18.1880 C   0  0  0  0  0  2  0  0  0  0  0  0
  -28.0140  -12.3940   18.6130 C   0  0  0  0  0  2  0  0  0  0  0  0
  -27.6710  -13.2110   19.8840 C   0  0  0  0  0  3  0  0  0  0  0  0
  -28.7100  -12.9610   20.9990 C   0  0  0  0  0  2  0  0  0  0  0  0
  -30.0620  -13.2290   20.4680 N   0  0  0  0  0  0  0  0  0  0  0  0
  -31.7720  -14.6880   20.0710 O   0  0  0  0  0  0  0  0  0  0  0  0
  -30.6120  -14.7990   21.9980 N   0  0  0  0  0  0  0  0  0  0  0  0
  -29.8430  -14.3910   22.5090 H   0  0  0  0  0  0  0  0  0  0  0  0
  -25.2610  -13.8170   20.5680 C   0  0  0  0  0  0  0  0  0  0  0  0
  -24.1860  -13.0440   20.9170 C   0  0  0  0  0  0  0  0  0  0  0  0
  -24.6420  -11.6910   20.8720 C   0  0  0  0  0  0  0  0  0  0  0  0
  -26.3080  -12.9360   20.3410 N   0  0  0  0  0  0  0  0  0  0  0  0
  -25.9360  -11.6500   20.5790 N   0  0  0  0  0  0  0  0  0  0  0  0
  -23.9090  -10.4280   21.0400 C   0  0  0  0  0  0  0  0  0  0  0  0
  -24.3630   -9.4200   21.9190 C   0  0  0  0  0  3  0  0  0  0  0  0
  -23.6300   -8.2240   22.0760 C   0  0  0  0  0  3  0  0  0  0  0  0
  -22.4290   -8.0270   21.3540 C   0  0  0  0  0  0  0  0  0  0  0  0
  -21.9920   -9.0250   20.4650 C   0  0  0  0  0  3  0  0  0  0  0  0
  -22.7270  -10.2130   20.3060 C   0  0  0  0  0  3  0  0  0  0  0  0
  -21.6650   -6.8870   21.4230 O   0  0  0  0  0  0  0  0  0  0  0  0
  -21.6860   -6.0720   22.5260 C   0  0  0  0  0  0  0  0  0  0  0  0
  -21.4010   -6.5620   23.8190 C   0  0  0  0  0  3  0  0  0  0  0  0
  -21.3670   -5.6780   24.9160 C   0  0  0  0  0  3  0  0  0  0  0  0
  -21.6050   -4.3040   24.7210 C   0  0  0  0  0  0  0  0  0  0  0  0
  -21.8830   -3.8130   23.4330 C   0  0  0  0  0  3  0  0  0  0  0  0
  -21.9190   -4.6950   22.3390 C   0  0  0  0  0  0  0  0  0  0  0  0
  -22.1660   -4.2130   21.0970 F   0  0  0  0  0  0  0  0  0  0  0  0
  -21.5640   -3.4540   25.7730 F   0  0  0  0  0  0  0  0  0  0  0  0
  -22.7880  -13.5230   21.1830 C   0  0  0  0  0  0  0  0  0  0  0  0
  -22.0520  -12.8230   22.0390 N   0  0  0  0  0  0  0  0  0  0  0  0
  -22.3560  -14.5510   20.6650 O   0  0  0  0  0  0  0  0  0  0  0  0
  -22.4120  -11.9920   22.4830 H   0  0  0  0  0  0  0  0  0  0  0  0
  -21.1120  -13.1250   22.2540 H   0  0  0  0  0  0  0  0  0  0  0  0
  -25.4300  -15.1900   20.4100 N   0  0  0  0  0  0  0  0  0  0  0  0
  -24.6640  -15.8440   20.5240 H   0  0  0  0  0  0  0  0  0  0  0  0
  -26.2930  -15.6350   20.1210 H   0  0  0  0  0  0  0  0  0  0  0  0
  1 48  1  0
  2  3  1  0
  3  1  1  0
  3  4  1  1
  3  5  1  0
  5  6  1  0
  6  7  1  0
  7  9  1  0
  8 19  2  0
  9 14  1  0
 10 18  1  0
 10 20  1  0
 11 17  1  0
 11 13  1  0
 12 18  1  0
 13 12  1  0
 14 13  2  0
 15 16  1  0
 15  9  2  0
 16 11  2  0
 17 10  1  0
 18  8  1  0
 20 22  2  0
 21 20  1  0
 23 21  1  0
 24 33  2  0
 24 29  1  0
 25 21  1  0
 25 29  1  0
 26 25  1  0
 27 28  1  0
 27 26  1  0
 28 24  1  0
 29 30  2  0
 30 31  1  0
 32 31  2  0
 33 32  1  0
 34  8  1  0
 34 39  1  0
 34 35  1  0
 35 38  1  1
 35 36  1  0
 37 35  1  0
 39 42  1  0
 40 44  1  0
 40 39  1  0
 41 40  2  0
 44 43  1  0
 46 44  1  0
 46 47  1  0
 46 45  1  0
 48 49  1  0
 49 50  1  0
 50 51  1  0
 51 52  1  0
 52 53  1  0
 53 54  1  0
 55 63  1  0
 56 61  1  0
 57 58  1  0
 57 56  1  0
 59 58  1  0
 59 68  1  0
 59 60  1  0
 61 55  1  0
 61 60  1  0
 62 55  2  0
 63 64  1  0
 63 54  1  0
 65 66  2  0
 66 85  1  0
 67 66  1  0
 67 70  1  0
 68 65  1  0
 68 69  1  0
 69 67  2  0
 70 71  1  0
 71 72  2  0
 73 76  1  0
 73 72  1  0
 74 73  2  0
 75 74  1  0
 75 70  2  0
 76 77  1  0
 77 78  1  0
 78 79  2  0
 80 79  1  0
 80 84  1  0
 81 80  2  0
 82 77  2  0
 82 81  1  0
 83 82  1  0
 85 86  1  0
 86 89  1  0
 86 88  1  0
 87 85  2  0
 90 91  1  0
 90 65  1  0
 92 90  1  0
M  ISO  4   6 101   7 101  55 100  63 100
M  END
>  <TORSDO>  (89) 
F 26

>  <SCORE>  (89) 
-10.042

>  <name>  (89) 
88

>  <ligand_id>  (89) 
88

>  <original_smiles>  (89) 
[H]c1c([H])c([H])c2c(c1[H])C([H])([H])C([H])([H])C([H])([H])C2([H])N([H])C(=O)C1([H])N(C(=O)C([H])(N([H])C(=O)C([H])(N([H])C([H])([H])[H])C([H])([H])[H])C(C([H])([H])[H])(C([H])([H])[H])C([H])([H])[H])C([H])([H])c2c([H])c(OC([H])([H])C([H])([H])[N+]([H])(C([H])([H])[H])C([H])([H])C([H])([H])C([H])([H])C([H])([H])C([H])([H])C([H])([H])C([H])([H])C([H])([H])N([H])C(=O)N3C([H])([H])C([H])([H])C([H])([H])C([H])(n4nc(-c5c([H])c([H])c(Oc6c([H])c([H])c(F)c([H])c6F)c([H])c5[H])c(C(=O)N([H])[H])c4N([H])[H])C3([H])[H])c([H])c([H])c2C1([H])[H]

>  <smiles>  (89) 
[H]c1c([H])c([H])c2c(c1[H])C([H])([H])C([H])([H])C([H])([H])C2([H])N([H])C(=O)C1([H])N(C(=O)C([H])(N([H])C(=O)C([H])(N([H])C([H])([H])[H])C([H])([H])[H])C(C([H])([H])[H])(C([H])([H])[H])C([H])([H])[H])C([H])([H])c2c([H])c(OC([H])([H])C([H])([H])[N+]([H])(C([H])([H])[H])C([H])([H])C([H])([H])C([H])([H])C([H])([H])C([H])([H])C([H])([H])C([H])([H])C([H])([H])N([H])C(=O)N3C([H])([H])C([H])([H])C([H])([H])C([H])(n4nc(-c5c([H])c([H])c(Oc6c([H])c([H])c(F)c([H])c6F)c([H])c5[H])c(C(=O)N([H])[H])c4N([H])[H])C3([H])[H])c([H])c([H])c2C1([H])[H]

$$$$
89:0:0
     RDKit          3D

 89 96  0  0  1  0  0  0  0  0999 V2000
  -30.0410  -21.9480   20.7180 C   0  0  0  0  0  2  0  0  0  0  0  0
  -28.9910  -23.0320   21.0300 C   0  0  0  0  0  2  0  0  0  0  0  0
  -29.2610  -24.4010   20.3710 C   0  0  0  0  0  2  0  0  0  0  0  0
  -28.2190  -25.4410   20.8170 C   0  0  0  0  0  2  0  0  0  0  0  0
  -28.3780  -26.7080   20.1630 O   0  0  0  0  0  0  0  0  0  0  0  0
  -24.5970  -31.8940   23.2420 C   0  0  0  0  0  0  0  0  0  0  0  0
  -27.2270  -27.4620   20.1510 C   0  0  0  0  0  0  0  0  0  0  0  0
  -23.3830  -30.4890   21.6070 C   0  0  0  0  0  3  0  0  0  0  0  0
  -24.8310  -28.9560   20.1750 C   0  0  0  0  0  0  0  0  0  0  0  0
  -25.9060  -30.8580   21.3910 C   0  0  0  0  0  2  0  0  0  0  0  0
  -25.9930  -29.4860   20.7530 C   0  0  0  0  0  0  0  0  0  0  0  0
  -27.1980  -28.7470   20.7370 C   0  0  0  0  0  3  0  0  0  0  0  0
  -26.0540  -26.9530   19.5530 C   0  0  0  0  0  3  0  0  0  0  0  0
  -24.8560  -27.6880   19.5710 C   0  0  0  0  0  3  0  0  0  0  0  0
  -23.5860  -29.8100   20.2270 C   0  0  0  0  0  2  0  0  0  0  0  0
  -24.6480  -31.0940   22.1400 N   0  0  0  0  0  0  0  0  0  0  0  0
  -23.5190  -32.1650   23.7880 O   0  0  0  0  0  0  0  0  0  0  0  0
  -22.7400  -29.4660   22.5720 C   0  0  0  0  0  0  0  0  0  0  0  0
  -21.4150  -29.2820   22.4480 N   0  0  0  0  0  0  0  0  0  0  0  0
  -23.4280  -28.8410   23.3830 O   0  0  0  0  0  0  0  0  0  0  0  0
  -20.9210  -29.8390   21.7660 H   0  0  0  0  0  0  0  0  0  0  0  0
  -18.0450  -28.0750   22.9510 C   0  0  0  0  0  0  0  0  0  0  0  0
  -20.6020  -28.3420   23.2210 C   0  0  0  0  0  3  0  0  0  0  0  0
  -20.7090  -26.9090   22.6470 C   0  0  0  0  0  2  0  0  0  0  0  0
  -19.6080  -26.5820   21.6350 C   0  0  0  0  0  2  0  0  0  0  0  0
  -18.2260  -26.7240   22.2810 C   0  0  0  0  0  2  0  0  0  0  0  0
  -19.1620  -28.8410   23.3790 C   0  0  0  0  0  0  0  0  0  0  0  0
  -18.9410  -30.1070   23.9640 C   0  0  0  0  0  3  0  0  0  0  0  0
  -17.6360  -30.6070   24.1240 C   0  0  0  0  0  3  0  0  0  0  0  0
  -16.5330  -29.8380   23.7140 C   0  0  0  0  0  3  0  0  0  0  0  0
  -16.7380  -28.5720   23.1360 C   0  0  0  0  0  3  0  0  0  0  0  0
  -25.8860  -32.5250   23.8540 C   0  0  0  0  0  3  0  0  0  0  0  0
  -26.4170  -31.7510   25.1230 C   0  0  1  0  0  0  0  0  0  0  0  0
  -25.3330  -31.4990   26.1960 C   0  0  0  0  0  1  0  0  0  0  0  0
  -27.0050  -30.3790   24.7170 C   0  0  0  0  0  1  0  0  0  0  0  0
  -27.5680  -32.5470   25.7810 C   0  0  0  0  0  1  0  0  0  0  0  0
  -25.5780  -33.9220   24.1870 N   0  0  0  0  0  0  0  0  0  0  0  0
  -25.9090  -34.9750   23.4260 C   0  0  0  0  0  0  0  0  0  0  0  0
  -26.5780  -34.8730   22.3940 O   0  0  0  0  0  0  0  0  0  0  0  0
  -24.9850  -34.0760   24.9890 H   0  0  0  0  0  0  0  0  0  0  0  0
  -24.1810  -36.7650   23.0690 C   0  0  0  0  0  1  0  0  0  0  0  0
  -25.4200  -36.3620   23.8830 C   0  0  0  0  0  3  0  0  0  0  0  0
  -27.5540  -37.2450   24.7180 C   0  0  0  0  0  1  0  0  0  0  0  0
  -26.4530  -37.4150   23.7730 N   0  0  0  0  0  0  0  0  0  0  0  0
  -26.0470  -38.3350   23.9220 H   0  0  0  0  0  0  0  0  0  0  0  0
  -29.6920  -20.5940   21.3800 C   0  0  0  0  0  2  0  0  0  0  0  0
  -32.0660  -19.7280   21.7830 C   0  0  0  0  0  1  0  0  0  0  0  0
  -30.7030  -19.4520   21.1140 C   0  0  0  0  0  3  0  0  0  0  0  0
  -30.1410  -18.1450   21.5560 N   0  0  0  0  0  4  0  0  0  0  0  0
  -30.1600  -18.0930   22.5630 H   0  0  0  0  0  0  0  0  0  0  0  0
  -29.1760  -18.1210   21.2740 H   0  0  0  0  0  0  0  0  0  0  0  0
  -30.8110  -16.9530   20.9770 C   0  0  0  0  0  2  0  0  0  0  0  0
  -30.0980  -15.6100   21.2890 C   0  0  0  0  0  2  0  0  0  0  0  0
  -30.7090  -14.4360   20.4950 C   0  0  0  0  0  0  0  0  0  0  0  0
  -30.3670  -12.3230   19.2710 C   0  0  0  0  0  2  0  0  0  0  0  0
  -29.4270  -12.5720   18.0750 C   0  0  0  0  0  2  0  0  0  0  0  0
  -27.9520  -12.4400   18.5040 C   0  0  0  0  0  2  0  0  0  0  0  0
  -27.6260  -13.2530   19.7860 C   0  0  0  0  0  3  0  0  0  0  0  0
  -28.6810  -13.0010   20.8870 C   0  0  0  0  0  2  0  0  0  0  0  0
  -30.0100  -13.2840   20.3250 N   0  0  0  0  0  0  0  0  0  0  0  0
  -31.8050  -14.6170   19.9550 O   0  0  0  0  0  0  0  0  0  0  0  0
  -25.2200  -13.8610   20.4720 C   0  0  0  0  0  0  0  0  0  0  0  0
  -24.1520  -13.0890   20.8430 C   0  0  0  0  0  0  0  0  0  0  0  0
  -24.6160  -11.7380   20.8240 C   0  0  0  0  0  0  0  0  0  0  0  0
  -26.2700  -12.9800   20.2580 N   0  0  0  0  0  0  0  0  0  0  0  0
  -25.9070  -11.6990   20.5240 N   0  0  0  0  0  0  0  0  0  0  0  0
  -23.8910  -10.4760   21.0220 C   0  0  0  0  0  0  0  0  0  0  0  0
  -24.3320   -9.5100   21.9530 C   0  0  0  0  0  3  0  0  0  0  0  0
  -23.6100   -8.3120   22.1390 C   0  0  0  0  0  3  0  0  0  0  0  0
  -22.4310   -8.0710   21.3930 C   0  0  0  0  0  0  0  0  0  0  0  0
  -22.0080   -9.0260   20.4520 C   0  0  0  0  0  3  0  0  0  0  0  0
  -22.7310  -10.2170   20.2650 C   0  0  0  0  0  3  0  0  0  0  0  0
  -21.6790   -6.9260   21.4880 O   0  0  0  0  0  0  0  0  0  0  0  0
  -21.6530   -6.1740   22.6350 C   0  0  0  0  0  0  0  0  0  0  0  0
  -21.2650   -6.7230   23.8770 C   0  0  0  0  0  3  0  0  0  0  0  0
  -21.1860   -5.8970   25.0170 C   0  0  0  0  0  3  0  0  0  0  0  0
  -21.4870   -4.5260   24.9170 C   0  0  0  0  0  0  0  0  0  0  0  0
  -21.8680   -3.9770   23.6800 C   0  0  0  0  0  3  0  0  0  0  0  0
  -21.9490   -4.7980   22.5420 C   0  0  0  0  0  0  0  0  0  0  0  0
  -22.2960   -4.2610   21.3480 F   0  0  0  0  0  0  0  0  0  0  0  0
  -21.4050   -3.7310   26.0100 F   0  0  0  0  0  0  0  0  0  0  0  0
  -22.7510  -13.5650   21.1060 C   0  0  0  0  0  0  0  0  0  0  0  0
  -22.0210  -12.8720   21.9720 N   0  0  0  0  0  0  0  0  0  0  0  0
  -22.3130  -14.5850   20.5760 O   0  0  0  0  0  0  0  0  0  0  0  0
  -22.3870  -12.0440   22.4180 H   0  0  0  0  0  0  0  0  0  0  0  0
  -21.0800  -13.1690   22.1880 H   0  0  0  0  0  0  0  0  0  0  0  0
  -25.3850  -15.2300   20.2810 N   0  0  0  0  0  0  0  0  0  0  0  0
  -24.6170  -15.8860   20.3700 H   0  0  0  0  0  0  0  0  0  0  0  0
  -26.2320  -15.6580   19.9340 H   0  0  0  0  0  0  0  0  0  0  0  0
  1  2  1  0
  1 46  1  0
  3  4  1  0
  3  2  1  0
  5  4  1  0
  6 17  2  0
  7  5  1  0
  7 12  1  0
  8 16  1  0
  8 18  1  0
  9 15  1  0
  9 11  1  0
 10 16  1  0
 11 10  1  0
 12 11  2  0
 13 14  1  0
 13  7  2  0
 14  9  2  0
 15  8  1  0
 16  6  1  0
 18 20  2  0
 19 18  1  0
 21 19  1  0
 22 31  2  0
 22 27  1  0
 23 19  1  0
 23 27  1  0
 24 23  1  0
 25 26  1  0
 25 24  1  0
 26 22  1  0
 27 28  2  0
 28 29  1  0
 30 29  2  0
 31 30  1  0
 32  6  1  0
 32 37  1  0
 32 33  1  0
 33 36  1  1
 33 34  1  0
 35 33  1  0
 37 40  1  0
 38 42  1  0
 38 37  1  0
 39 38  2  0
 42 41  1  0
 44 42  1  0
 44 45  1  0
 44 43  1  0
 48 46  1  0
 48 49  1  0
 48 47  1  0
 49 50  1  0
 51 49  1  0
 52 53  1  0
 52 49  1  0
 54 53  1  0
 55 60  1  0
 56 57  1  0
 56 55  1  0
 58 57  1  0
 58 65  1  0
 58 59  1  0
 60 54  1  0
 60 59  1  0
 61 54  2  0
 62 63  2  0
 63 82  1  0
 64 63  1  0
 64 67  1  0
 65 62  1  0
 65 66  1  0
 66 64  2  0
 67 68  1  0
 68 69  2  0
 70 73  1  0
 70 69  1  0
 71 70  2  0
 72 71  1  0
 72 67  2  0
 73 74  1  0
 74 75  1  0
 75 76  2  0
 77 76  1  0
 77 81  1  0
 78 77  2  0
 79 74  2  0
 79 78  1  0
 80 79  1  0
 82 83  1  0
 83 86  1  0
 83 85  1  0
 84 82  2  0
 87 88  1  0
 87 62  1  0
 89 87  1  0
M  ISO  4   4 101   5 101  53 100  54 100
M  END
>  <TORSDO>  (90) 
F 24

>  <SCORE>  (90) 
-12.525

>  <name>  (90) 
89

>  <ligand_id>  (90) 
89

>  <original_smiles>  (90) 
[H]c1c([H])c([H])c2c(c1[H])C([H])([H])C([H])([H])C([H])([H])C2([H])N([H])C(=O)C1([H])N(C(=O)C([H])(N([H])C(=O)C([H])(N([H])C([H])([H])[H])C([H])([H])[H])C(C([H])([H])[H])(C([H])([H])[H])C([H])([H])[H])C([H])([H])c2c([H])c(OC([H])([H])C([H])([H])C([H])([H])C([H])([H])C([H])([H])C([H])(C([H])([H])[H])[N+]([H])([H])C([H])([H])C([H])([H])C(=O)N3C([H])([H])C([H])([H])C([H])([H])C([H])(n4nc(-c5c([H])c([H])c(Oc6c([H])c([H])c(F)c([H])c6F)c([H])c5[H])c(C(=O)N([H])[H])c4N([H])[H])C3([H])[H])c([H])c([H])c2C1([H])[H]

>  <smiles>  (90) 
[H]c1c([H])c([H])c2c(c1[H])C([H])([H])C([H])([H])C([H])([H])C2([H])N([H])C(=O)C1([H])N(C(=O)C([H])(N([H])C(=O)C([H])(N([H])C([H])([H])[H])C([H])([H])[H])C(C([H])([H])[H])(C([H])([H])[H])C([H])([H])[H])C([H])([H])c2c([H])c(OC([H])([H])C([H])([H])C([H])([H])C([H])([H])C([H])([H])C([H])(C([H])([H])[H])[N+]([H])([H])C([H])([H])C([H])([H])C(=O)N3C([H])([H])C([H])([H])C([H])([H])C([H])(n4nc(-c5c([H])c([H])c(Oc6c([H])c([H])c(F)c([H])c6F)c([H])c5[H])c(C(=O)N([H])[H])c4N([H])[H])C3([H])[H])c([H])c([H])c2C1([H])[H]

$$$$
90:0:0
     RDKit          3D

 94101  0  0  1  0  0  0  0  0999 V2000
  -29.0660  -22.1660   18.7100 C   0  0  0  0  0  2  0  0  0  0  0  0
  -29.0830  -22.2150   20.2540 C   0  0  0  0  0  2  0  0  0  0  0  0
  -29.7390  -23.2710   22.4300 C   0  0  0  0  0  1  0  0  0  0  0  0
  -31.4730  -22.9030   20.6880 C   0  0  0  0  0  1  0  0  0  0  0  0
  -29.9940  -23.2870   20.9080 C   0  0  1  0  0  0  0  0  0  0  0  0
  -29.7610  -24.7190   20.3480 C   0  0  0  0  0  2  0  0  0  0  0  0
  -28.3400  -25.2970   20.4960 C   0  0  0  0  0  2  0  0  0  0  0  0
  -28.3870  -26.6800   20.1460 O   0  0  0  0  0  0  0  0  0  0  0  0
  -24.5940  -31.8390   23.2340 C   0  0  0  0  0  0  0  0  0  0  0  0
  -27.1960  -27.3690   20.1800 C   0  0  0  0  0  0  0  0  0  0  0  0
  -23.3700  -30.4370   21.6040 C   0  0  0  0  0  3  0  0  0  0  0  0
  -24.8060  -28.8730   20.1940 C   0  0  0  0  0  0  0  0  0  0  0  0
  -25.8950  -30.7790   21.3920 C   0  0  0  0  0  2  0  0  0  0  0  0
  -25.9680  -29.4020   20.7670 C   0  0  0  0  0  0  0  0  0  0  0  0
  -27.1670  -28.6580   20.7540 C   0  0  0  0  0  3  0  0  0  0  0  0
  -26.0150  -26.8450   19.6090 C   0  0  0  0  0  3  0  0  0  0  0  0
  -24.8230  -27.5930   19.6130 C   0  0  0  0  0  3  0  0  0  0  0  0
  -23.5670  -29.7390   20.2320 C   0  0  0  0  0  2  0  0  0  0  0  0
  -24.6390  -31.0330   22.1360 N   0  0  0  0  0  0  0  0  0  0  0  0
  -23.5160  -32.1240   23.7760 O   0  0  0  0  0  0  0  0  0  0  0  0
  -22.7120  -29.4290   22.5740 C   0  0  0  0  0  0  0  0  0  0  0  0
  -21.3850  -29.2680   22.4550 N   0  0  0  0  0  0  0  0  0  0  0  0
  -23.3920  -28.7950   23.3840 O   0  0  0  0  0  0  0  0  0  0  0  0
  -20.8990  -29.8310   21.7710 H   0  0  0  0  0  0  0  0  0  0  0  0
  -17.9950  -28.1310   22.9720 C   0  0  0  0  0  0  0  0  0  0  0  0
  -20.5580  -28.3450   23.2320 C   0  0  0  0  0  3  0  0  0  0  0  0
  -20.6350  -26.9110   22.6590 C   0  0  0  0  0  2  0  0  0  0  0  0
  -19.5220  -26.6050   21.6510 C   0  0  0  0  0  2  0  0  0  0  0  0
  -18.1470  -26.7760   22.3010 C   0  0  0  0  0  2  0  0  0  0  0  0
  -19.1290  -28.8750   23.3950 C   0  0  0  0  0  0  0  0  0  0  0  0
  -18.9350  -30.1450   23.9810 C   0  0  0  0  0  3  0  0  0  0  0  0
  -17.6410  -30.6690   24.1490 C   0  0  0  0  0  3  0  0  0  0  0  0
  -16.5220  -29.9220   23.7440 C   0  0  0  0  0  3  0  0  0  0  0  0
  -16.7000  -28.6550   23.1610 C   0  0  0  0  0  3  0  0  0  0  0  0
  -25.8870  -32.4590   23.8480 C   0  0  0  0  0  3  0  0  0  0  0  0
  -26.4160  -31.6730   25.1110 C   0  0  1  0  0  0  0  0  0  0  0  0
  -25.3330  -31.4290   26.1880 C   0  0  0  0  0  1  0  0  0  0  0  0
  -26.9890  -30.2990   24.6960 C   0  0  0  0  0  1  0  0  0  0  0  0
  -27.5760  -32.4570   25.7700 C   0  0  0  0  0  1  0  0  0  0  0  0
  -25.5880  -33.8550   24.1920 N   0  0  0  0  0  0  0  0  0  0  0  0
  -25.9180  -34.9110   23.4370 C   0  0  0  0  0  0  0  0  0  0  0  0
  -26.5810  -34.8130   22.4010 O   0  0  0  0  0  0  0  0  0  0  0  0
  -24.9980  -34.0050   24.9980 H   0  0  0  0  0  0  0  0  0  0  0  0
  -24.1860  -36.7070   23.1150 C   0  0  0  0  0  1  0  0  0  0  0  0
  -25.4380  -36.2980   23.9080 C   0  0  0  0  0  3  0  0  0  0  0  0
  -27.5880  -37.1730   24.7100 C   0  0  0  0  0  1  0  0  0  0  0  0
  -26.4700  -37.3510   23.7870 N   0  0  0  0  0  0  0  0  0  0  0  0
  -26.0680  -38.2690   23.9490 H   0  0  0  0  0  0  0  0  0  0  0  0
  -28.5730  -20.8120   18.1720 C   0  0  0  0  0  2  0  0  0  0  0  0
  -27.0710  -20.5510   18.3860 C   0  0  0  0  0  2  0  0  0  0  0  0
  -26.6980  -19.0640   18.2460 C   0  0  0  0  0  2  0  0  0  0  0  0
  -26.3910  -18.3500   19.5810 C   0  0  0  0  0  2  0  0  0  0  0  0
  -27.5480  -18.2600   20.5980 C   0  0  0  0  0  2  0  0  0  0  0  0
  -28.7070  -17.3250   20.2000 C   0  0  0  0  0  2  0  0  0  0  0  0
  -29.8450  -17.3280   21.2420 C   0  0  0  0  0  2  0  0  0  0  0  0
  -31.0120  -16.3690   20.9260 C   0  0  0  0  0  2  0  0  0  0  0  0
  -31.1620  -13.9920   20.1540 C   0  0  0  0  0  0  0  0  0  0  0  0
  -30.7660  -11.8090   19.0780 C   0  0  0  0  0  2  0  0  0  0  0  0
  -29.8080  -11.9690   17.8810 C   0  0  0  0  0  2  0  0  0  0  0  0
  -28.3410  -11.9030   18.3390 C   0  0  0  0  0  2  0  0  0  0  0  0
  -28.0510  -12.8390   19.5400 C   0  0  0  0  0  3  0  0  0  0  0  0
  -29.1030  -12.6230   20.6520 C   0  0  0  0  0  2  0  0  0  0  0  0
  -30.4390  -12.8460   20.0650 N   0  0  0  0  0  0  0  0  0  0  0  0
  -32.2440  -14.1620   19.5830 O   0  0  0  0  0  0  0  0  0  0  0  0
  -30.5670  -14.9780   20.8410 N   0  0  0  0  0  0  0  0  0  0  0  0
  -29.6870  -14.7480   21.2750 H   0  0  0  0  0  0  0  0  0  0  0  0
  -25.6890  -13.5930   20.2340 C   0  0  0  0  0  0  0  0  0  0  0  0
  -24.5880  -12.8950   20.6480 C   0  0  0  0  0  0  0  0  0  0  0  0
  -24.9820  -11.5240   20.6730 C   0  0  0  0  0  0  0  0  0  0  0  0
  -26.6890  -12.6540   20.0360 N   0  0  0  0  0  0  0  0  0  0  0  0
  -26.2670  -11.4050   20.3560 N   0  0  0  0  0  0  0  0  0  0  0  0
  -24.1990  -10.3080   20.9220 C   0  0  0  0  0  0  0  0  0  0  0  0
  -24.6020   -9.3540   21.8810 C   0  0  0  0  0  3  0  0  0  0  0  0
  -23.8210   -8.2010   22.1150 C   0  0  0  0  0  3  0  0  0  0  0  0
  -22.6220   -7.9980   21.3890 C   0  0  0  0  0  0  0  0  0  0  0  0
  -22.2390   -8.9410   20.4200 C   0  0  0  0  0  3  0  0  0  0  0  0
  -23.0220  -10.0850   20.1850 C   0  0  0  0  0  3  0  0  0  0  0  0
  -21.8160   -6.8970   21.5330 O   0  0  0  0  0  0  0  0  0  0  0  0
  -21.7620   -6.1940   22.7110 C   0  0  0  0  0  0  0  0  0  0  0  0
  -21.4230   -6.8120   23.9340 C   0  0  0  0  0  3  0  0  0  0  0  0
  -21.3090   -6.0390   25.1050 C   0  0  0  0  0  3  0  0  0  0  0  0
  -21.5270   -4.6500   25.0570 C   0  0  0  0  0  0  0  0  0  0  0  0
  -21.8610   -4.0300   23.8400 C   0  0  0  0  0  3  0  0  0  0  0  0
  -21.9760   -4.8010   22.6700 C   0  0  0  0  0  0  0  0  0  0  0  0
  -22.2750   -4.1970   21.4950 F   0  0  0  0  0  0  0  0  0  0  0  0
  -21.4140   -3.9040   26.1810 F   0  0  0  0  0  0  0  0  0  0  0  0
  -23.2190  -13.4560   20.9130 C   0  0  0  0  0  0  0  0  0  0  0  0
  -22.4710  -12.8420   21.8210 N   0  0  0  0  0  0  0  0  0  0  0  0
  -22.8240  -14.4780   20.3510 O   0  0  0  0  0  0  0  0  0  0  0  0
  -22.8020  -12.0180   22.3010 H   0  0  0  0  0  0  0  0  0  0  0  0
  -21.5530  -13.2040   22.0390 H   0  0  0  0  0  0  0  0  0  0  0  0
  -25.9200  -14.9390   19.9980 N   0  0  0  0  0  0  0  0  0  0  0  0
  -25.2050  -15.6450   20.1300 H   0  0  0  0  0  0  0  0  0  0  0  0
  -26.8000  -15.3180   19.6770 H   0  0  0  0  0  0  0  0  0  0  0  0
  1  2  1  0
  2  5  1  0
  5  4  1  1
  5  3  1  0
  6  7  1  0
  6  5  1  0
  8 10  1  0
  8  7  1  0
  9 20  2  0
 10 15  1  0
 11 19  1  0
 11 21  1  0
 12 18  1  0
 12 14  1  0
 13 19  1  0
 14 13  1  0
 15 14  2  0
 16 17  1  0
 16 10  2  0
 17 12  2  0
 18 11  1  0
 19  9  1  0
 21 23  2  0
 22 21  1  0
 24 22  1  0
 25 34  2  0
 25 30  1  0
 26 22  1  0
 26 30  1  0
 27 26  1  0
 28 29  1  0
 28 27  1  0
 29 25  1  0
 30 31  2  0
 31 32  1  0
 33 32  2  0
 34 33  1  0
 35  9  1  0
 35 40  1  0
 35 36  1  0
 36 39  1  1
 36 37  1  0
 38 36  1  0
 40 43  1  0
 41 45  1  0
 41 40  1  0
 42 41  2  0
 45 44  1  0
 47 45  1  0
 47 48  1  0
 47 46  1  0
 49 50  1  0
 49  1  1  0
 51 50  1  0
 51 52  1  0
 52 53  1  0
 54 53  1  0
 54 55  1  0
 56 55  1  0
 57 65  1  0
 58 63  1  0
 59 60  1  0
 59 58  1  0
 61 60  1  0
 61 70  1  0
 61 62  1  0
 63 57  1  0
 63 62  1  0
 64 57  2  0
 65 56  1  0
 65 66  1  0
 67 68  2  0
 68 69  1  0
 68 87  1  0
 69 72  1  0
 70 67  1  0
 70 71  1  0
 71 69  2  0
 72 73  1  0
 73 74  2  0
 75 78  1  0
 75 74  1  0
 76 75  2  0
 77 76  1  0
 77 72  2  0
 78 79  1  0
 79 80  1  0
 80 81  2  0
 82 81  1  0
 82 86  1  0
 83 82  2  0
 84 79  2  0
 84 83  1  0
 85 84  1  0
 87 88  1  0
 88 91  1  0
 88 90  1  0
 89 87  2  0
 92 93  1  0
 92 67  1  0
 94 92  1  0
M  ISO  4   7 101   8 101  57 100  65 100
M  END
>  <TORSDO>  (91) 
F 28

>  <SCORE>  (91) 
-10.763

>  <name>  (91) 
90

>  <ligand_id>  (91) 
90

>  <original_smiles>  (91) 
[H]c1c([H])c([H])c2c(c1[H])C([H])([H])C([H])([H])C([H])([H])C2([H])N([H])C(=O)C1([H])N(C(=O)C([H])(N([H])C(=O)C([H])(N([H])C([H])([H])[H])C([H])([H])[H])C(C([H])([H])[H])(C([H])([H])[H])C([H])([H])[H])C([H])([H])c2c([H])c(OC([H])([H])C([H])([H])C(C([H])([H])[H])(C([H])([H])[H])C([H])([H])C([H])([H])C([H])([H])C([H])([H])C([H])([H])C([H])([H])C([H])([H])C([H])([H])C([H])([H])C([H])([H])N([H])C(=O)N3C([H])([H])C([H])([H])C([H])([H])C([H])(n4nc(-c5c([H])c([H])c(Oc6c([H])c([H])c(F)c([H])c6F)c([H])c5[H])c(C(=O)N([H])[H])c4N([H])[H])C3([H])[H])c([H])c([H])c2C1([H])[H]

>  <smiles>  (91) 
[H]c1c([H])c([H])c2c(c1[H])C([H])([H])C([H])([H])C([H])([H])C2([H])N([H])C(=O)C1([H])N(C(=O)C([H])(N([H])C(=O)C([H])(N([H])C([H])([H])[H])C([H])([H])[H])C(C([H])([H])[H])(C([H])([H])[H])C([H])([H])[H])C([H])([H])c2c([H])c(OC([H])([H])C([H])([H])C(C([H])([H])[H])(C([H])([H])[H])C([H])([H])C([H])([H])C([H])([H])C([H])([H])C([H])([H])C([H])([H])C([H])([H])C([H])([H])C([H])([H])C([H])([H])N([H])C(=O)N3C([H])([H])C([H])([H])C([H])([H])C([H])(n4nc(-c5c([H])c([H])c(Oc6c([H])c([H])c(F)c([H])c6F)c([H])c5[H])c(C(=O)N([H])[H])c4N([H])[H])C3([H])[H])c([H])c([H])c2C1([H])[H]

$$$$
91:0:0
     RDKit          3D

 98106  0  0  1  0  0  0  0  0999 V2000
  -23.9400  -22.3880   19.8250 C   0  0  0  0  0  3  0  0  0  0  0  0
  -26.2640  -22.8990   19.2990 C   0  0  0  0  0  3  0  0  0  0  0  0
  -25.1520  -24.0550   21.1270 C   0  0  0  0  0  3  0  0  0  0  0  0
  -25.0920  -22.1400   19.0490 C   0  0  0  0  0  0  0  0  0  0  0  0
  -23.9660  -23.3470   20.8570 C   0  0  0  0  0  0  0  0  0  0  0  0
  -26.3080  -23.8410   20.3470 C   0  0  0  0  0  0  0  0  0  0  0  0
  -22.7130  -23.6290   21.6570 C   0  0  0  0  0  1  0  0  0  0  0  0
  -25.0460  -21.0770   18.0000 C   0  0  0  0  0  0  0  0  0  0  0  0
  -24.0050  -20.7230   17.4360 O   0  0  0  0  0  0  0  0  0  0  0  0
  -26.3530  -20.3710   17.6440 C   0  0  0  0  0  2  0  0  0  0  0  0
  -26.7750  -19.3480   18.7110 C   0  0  0  0  0  2  0  0  0  0  0  0
  -28.2070  -18.8550   18.4760 C   0  0  0  0  0  2  0  0  0  0  0  0
  -28.8380  -18.3280   19.7650 C   0  0  0  0  0  2  0  0  0  0  0  0
  -30.3290  -18.0130   19.6090 C   0  0  0  0  0  2  0  0  0  0  0  0
  -31.0780  -18.1130   20.9510 C   0  0  0  0  0  2  0  0  0  0  0  0
  -32.0040  -16.9180   21.2240 C   0  0  0  0  0  2  0  0  0  0  0  0
  -31.5530  -14.5950   20.4420 C   0  0  0  0  0  0  0  0  0  0  0  0
  -31.3880  -12.1480   20.4040 C   0  0  0  0  0  2  0  0  0  0  0  0
  -30.6160  -11.5950   19.1970 C   0  0  0  0  0  2  0  0  0  0  0  0
  -29.1190  -11.5140   19.5280 C   0  0  0  0  0  2  0  0  0  0  0  0
  -28.5630  -12.8520   20.0770 C   0  0  0  0  0  3  0  0  0  0  0  0
  -29.4570  -13.4240   21.2010 C   0  0  0  0  0  2  0  0  0  0  0  0
  -30.8580  -13.4730   20.7440 N   0  0  0  0  0  0  0  0  0  0  0  0
  -32.5090  -14.6130   19.6630 O   0  0  0  0  0  0  0  0  0  0  0  0
  -31.2680  -15.6480   21.2160 N   0  0  0  0  0  0  0  0  0  0  0  0
  -30.5190  -15.5350   21.8820 H   0  0  0  0  0  0  0  0  0  0  0  0
  -26.2410  -13.6910   20.7990 C   0  0  0  0  0  0  0  0  0  0  0  0
  -25.0770  -13.0360   21.0870 C   0  0  0  0  0  0  0  0  0  0  0  0
  -25.3640  -11.6440   20.9420 C   0  0  0  0  0  0  0  0  0  0  0  0
  -27.1740  -12.7090   20.5120 N   0  0  0  0  0  0  0  0  0  0  0  0
  -26.6460  -11.4650   20.6480 N   0  0  0  0  0  0  0  0  0  0  0  0
  -24.4770  -10.4750   21.0070 C   0  0  0  0  0  0  0  0  0  0  0  0
  -24.6390   -9.4820   21.9990 C   0  0  0  0  0  3  0  0  0  0  0  0
  -23.7610   -8.3800   22.0560 C   0  0  0  0  0  3  0  0  0  0  0  0
  -22.7070   -8.2620   21.1190 C   0  0  0  0  0  0  0  0  0  0  0  0
  -22.5650   -9.2420   20.1190 C   0  0  0  0  0  3  0  0  0  0  0  0
  -23.4450  -10.3350   20.0620 C   0  0  0  0  0  3  0  0  0  0  0  0
  -21.8210   -7.2120   21.0840 O   0  0  0  0  0  0  0  0  0  0  0  0
  -21.3680   -6.6110   22.2330 C   0  0  0  0  0  0  0  0  0  0  0  0
  -20.6540   -7.3290   23.2180 C   0  0  0  0  0  3  0  0  0  0  0  0
  -20.1450   -6.6590   24.3470 C   0  0  0  0  0  3  0  0  0  0  0  0
  -20.3370   -5.2720   24.4890 C   0  0  0  0  0  0  0  0  0  0  0  0
  -21.0420   -4.5540   23.5090 C   0  0  0  0  0  3  0  0  0  0  0  0
  -21.5540   -5.2220   22.3800 C   0  0  0  0  0  0  0  0  0  0  0  0
  -22.2130   -4.5200   21.4280 F   0  0  0  0  0  0  0  0  0  0  0  0
  -19.8410   -4.6300   25.5720 F   0  0  0  0  0  0  0  0  0  0  0  0
  -23.7440  -13.6620   21.3830 C   0  0  0  0  0  0  0  0  0  0  0  0
  -22.9320  -13.0120   22.2050 N   0  0  0  0  0  0  0  0  0  0  0  0
  -23.4310  -14.7600   20.9200 O   0  0  0  0  0  0  0  0  0  0  0  0
  -23.2040  -12.1350   22.6250 H   0  0  0  0  0  0  0  0  0  0  0  0
  -22.0310  -13.4100   22.4240 H   0  0  0  0  0  0  0  0  0  0  0  0
  -26.5770  -15.0370   20.7330 N   0  0  0  0  0  0  0  0  0  0  0  0
  -25.8870  -15.7650   20.8790 H   0  0  0  0  0  0  0  0  0  0  0  0
  -27.4940  -15.3900   20.4940 H   0  0  0  0  0  0  0  0  0  0  0  0
  -27.5720  -24.6540   20.6090 C   0  0  0  0  0  2  0  0  0  0  0  0
  -27.4410  -26.0460   19.9740 C   0  0  0  0  0  2  0  0  0  0  0  0
  -28.5880  -27.0600   20.2170 C   0  0  0  0  0  2  0  0  0  0  0  0
  -28.4300  -28.3030   19.5070 O   0  0  0  0  0  0  0  0  0  0  0  0
  -24.8160  -32.1010   24.3240 C   0  0  0  0  0  0  0  0  0  0  0  0
  -27.2830  -28.9950   19.8130 C   0  0  0  0  0  0  0  0  0  0  0  0
  -23.5090  -31.2190   22.4180 C   0  0  0  0  0  3  0  0  0  0  0  0
  -24.8700  -30.2930   20.4760 C   0  0  0  0  0  0  0  0  0  0  0  0
  -26.0020  -31.7480   22.1640 C   0  0  0  0  0  2  0  0  0  0  0  0
  -26.0610  -30.6540   21.1220 C   0  0  0  0  0  0  0  0  0  0  0  0
  -27.2730  -30.0010   20.8010 C   0  0  0  0  0  3  0  0  0  0  0  0
  -26.0900  -28.6990   19.1190 C   0  0  0  0  0  3  0  0  0  0  0  0
  -24.8770  -29.3110   19.4720 C   0  0  0  0  0  3  0  0  0  0  0  0
  -23.6150  -31.0220   20.8830 C   0  0  0  0  0  2  0  0  0  0  0  0
  -24.7980  -31.6870   23.0270 N   0  0  0  0  0  0  0  0  0  0  0  0
  -23.7780  -32.1390   24.9970 O   0  0  0  0  0  0  0  0  0  0  0  0
  -22.9700  -29.9170   23.0510 C   0  0  0  0  0  0  0  0  0  0  0  0
  -21.6900  -29.6060   22.7850 N   0  0  0  0  0  0  0  0  0  0  0  0
  -23.6990  -29.1990   23.7390 O   0  0  0  0  0  0  0  0  0  0  0  0
  -21.1580  -30.2510   22.2170 H   0  0  0  0  0  0  0  0  0  0  0  0
  -18.6390  -27.7220   22.3970 C   0  0  0  0  0  0  0  0  0  0  0  0
  -20.9790  -28.4110   23.2440 C   0  0  0  0  0  3  0  0  0  0  0  0
  -21.4920  -27.1470   22.5200 C   0  0  0  0  0  2  0  0  0  0  0  0
  -20.6980  -26.8280   21.2490 C   0  0  0  0  0  2  0  0  0  0  0  0
  -19.2330  -26.5730   21.6020 C   0  0  0  0  0  2  0  0  0  0  0  0
  -19.4600  -28.5980   23.1540 C   0  0  0  0  0  0  0  0  0  0  0  0
  -18.8600  -29.6740   23.8430 C   0  0  0  0  0  3  0  0  0  0  0  0
  -17.4680  -29.8780   23.7880 C   0  0  0  0  0  3  0  0  0  0  0  0
  -16.6580  -28.9940   23.0550 C   0  0  0  0  0  3  0  0  0  0  0  0
  -17.2420  -27.9190   22.3630 C   0  0  0  0  0  3  0  0  0  0  0  0
  -26.1370  -32.5680   25.0120 C   0  0  0  0  0  3  0  0  0  0  0  0
  -26.4780  -31.7540   26.3190 C   0  0  1  0  0  0  0  0  0  0  0  0
  -25.3150  -31.6900   27.3350 C   0  0  0  0  0  1  0  0  0  0  0  0
  -26.8760  -30.3010   25.9690 C   0  0  0  0  0  1  0  0  0  0  0  0
  -27.6980  -32.3880   27.0280 C   0  0  0  0  0  1  0  0  0  0  0  0
  -25.9990  -33.9990   25.3100 N   0  0  0  0  0  0  0  0  0  0  0  0
  -26.5830  -34.9810   24.6090 C   0  0  0  0  0  0  0  0  0  0  0  0
  -27.3620  -34.7660   23.6770 O   0  0  0  0  0  0  0  0  0  0  0  0
  -25.3320  -34.2520   26.0250 H   0  0  0  0  0  0  0  0  0  0  0  0
  -25.2410  -37.0190   24.0010 C   0  0  0  0  0  1  0  0  0  0  0  0
  -26.2460  -36.4310   25.0040 C   0  0  0  0  0  3  0  0  0  0  0  0
  -28.3200  -36.9690   26.2060 C   0  0  0  0  0  1  0  0  0  0  0  0
  -27.4360  -37.3070   25.0920 N   0  0  0  0  0  0  0  0  0  0  0  0
  -27.1580  -38.2800   25.1900 H   0  0  0  0  0  0  0  0  0  0  0  0
  1  5  1  0
  2  6  2  0
  4  2  1  0
  4  1  2  0
  5  3  2  0
  5  7  1  0
  6 55  1  0
  6  3  1  0
  8  4  1  0
  9  8  2  0
 10  8  1  0
 10 11  1  0
 12 11  1  0
 12 13  1  0
 14 13  1  0
 14 15  1  0
 15 16  1  0
 17 23  1  0
 17 25  1  0
 18 23  1  0
 19 20  1  0
 19 18  1  0
 21 20  1  0
 21 30  1  0
 21 22  1  0
 23 22  1  0
 24 17  2  0
 25 16  1  0
 25 26  1  0
 27 28  2  0
 28 47  1  0
 29 32  1  0
 29 28  1  0
 30 31  1  0
 30 27  1  0
 31 29  2  0
 32 33  1  0
 33 34  2  0
 35 34  1  0
 36 35  2  0
 37 36  1  0
 37 32  2  0
 38 35  1  0
 38 39  1  0
 39 44  2  0
 39 40  1  0
 40 41  2  0
 41 42  1  0
 42 46  1  0
 43 42  2  0
 44 43  1  0
 45 44  1  0
 47 48  1  0
 48 51  1  0
 48 50  1  0
 49 47  2  0
 52 27  1  0
 52 53  1  0
 54 52  1  0
 56 57  1  0
 56 55  1  0
 58 60  1  0
 58 57  1  0
 59 70  2  0
 60 65  1  0
 61 69  1  0
 61 71  1  0
 62 68  1  0
 62 64  1  0
 63 69  1  0
 64 63  1  0
 65 64  2  0
 66 67  1  0
 66 60  2  0
 67 62  2  0
 68 61  1  0
 69 59  1  0
 71 73  2  0
 72 71  1  0
 74 72  1  0
 75 80  1  0
 76 72  1  0
 77 76  1  0
 78 79  1  0
 78 77  1  0
 79 75  1  0
 80 76  1  0
 80 81  2  0
 82 81  1  0
 83 82  2  0
 84 75  2  0
 84 83  1  0
 85 59  1  0
 85 90  1  0
 85 86  1  0
 86 89  1  1
 86 87  1  0
 88 86  1  0
 90 93  1  0
 91 95  1  0
 91 90  1  0
 92 91  2  0
 95 94  1  0
 95 97  1  0
 97 98  1  0
 97 96  1  0
M  ISO  4  17 100  25 100  57 101  58 101
M  END
>  <TORSDO>  (92) 
F 27

>  <SCORE>  (92) 
-5.751

>  <name>  (92) 
91

>  <ligand_id>  (92) 
91

>  <original_smiles>  (92) 
[H]c1c([H])c([H])c2c(c1[H])C([H])([H])C([H])([H])C([H])([H])C2([H])N([H])C(=O)C1([H])N(C(=O)C([H])(N([H])C(=O)C([H])(N([H])C([H])([H])[H])C([H])([H])[H])C(C([H])([H])[H])(C([H])([H])[H])C([H])([H])[H])C([H])([H])c2c([H])c(OC([H])([H])C([H])([H])C([H])([H])c3c([H])c(C(=O)C([H])([H])C([H])([H])C([H])([H])C([H])([H])C([H])([H])C([H])([H])C([H])([H])N([H])C(=O)N4C([H])([H])C([H])([H])C([H])([H])C([H])(n5nc(-c6c([H])c([H])c(Oc7c([H])c([H])c(F)c([H])c7F)c([H])c6[H])c(C(=O)N([H])[H])c5N([H])[H])C4([H])[H])c([H])c(C([H])([H])[H])c3[H])c([H])c([H])c2C1([H])[H]

>  <smiles>  (92) 
[H]c1c([H])c([H])c2c(c1[H])C([H])([H])C([H])([H])C([H])([H])C2([H])N([H])C(=O)C1([H])N(C(=O)C([H])(N([H])C(=O)C([H])(N([H])C([H])([H])[H])C([H])([H])[H])C(C([H])([H])[H])(C([H])([H])[H])C([H])([H])[H])C([H])([H])c2c([H])c(OC([H])([H])C([H])([H])C([H])([H])c3c([H])c(C(=O)C([H])([H])C([H])([H])C([H])([H])C([H])([H])C([H])([H])C([H])([H])C([H])([H])N([H])C(=O)N4C([H])([H])C([H])([H])C([H])([H])C([H])(n5nc(-c6c([H])c([H])c(Oc7c([H])c([H])c(F)c([H])c7F)c([H])c6[H])c(C(=O)N([H])[H])c5N([H])[H])C4([H])[H])c([H])c(C([H])([H])[H])c3[H])c([H])c([H])c2C1([H])[H]

$$$$
92:0:0
     RDKit          3D

 98106  0  0  1  0  0  0  0  0999 V2000
  -29.1220  -21.2960   16.5480 C   0  0  0  0  0  3  0  0  0  0  0  0
  -29.3910  -20.2390   15.6610 C   0  0  0  0  0  3  0  0  0  0  0  0
  -31.1650  -20.7820   17.7710 C   0  0  0  0  0  3  0  0  0  0  0  0
  -30.0020  -21.5620   17.6140 C   0  0  0  0  0  0  0  0  0  0  0  0
  -30.5360  -19.4300   15.8340 C   0  0  0  0  0  0  0  0  0  0  0  0
  -31.4330  -19.6980   16.9020 C   0  0  0  0  0  0  0  0  0  0  0  0
  -30.7790  -18.3000   14.8470 C   0  0  0  0  0  1  0  0  0  0  0  0
  -32.6850  -18.8550   17.1460 C   0  0  0  0  0  2  0  0  0  0  0  0
  -32.5600  -17.8720   18.3340 C   0  0  0  0  0  2  0  0  0  0  0  0
  -32.4110  -18.5720   19.6330 N   0  0  0  0  0  4  0  0  0  0  0  0
  -31.5510  -19.1000   19.6370 H   0  0  0  0  0  0  0  0  0  0  0  0
  -33.1710  -19.2290   19.6960 H   0  0  0  0  0  0  0  0  0  0  0  0
  -32.4940  -17.7260   20.8480 C   0  0  0  0  0  2  0  0  0  0  0  0
  -31.1550  -17.6100   21.6090 C   0  0  0  0  0  2  0  0  0  0  0  0
  -30.0290  -16.8380   20.8900 C   0  0  0  0  0  2  0  0  0  0  0  0
  -30.6400  -14.4720   20.4050 C   0  0  0  0  0  0  0  0  0  0  0  0
  -30.3200  -12.3750   19.1660 C   0  0  0  0  0  2  0  0  0  0  0  0
  -29.3630  -12.6480   17.9900 C   0  0  0  0  0  2  0  0  0  0  0  0
  -27.8910  -12.5170   18.4290 C   0  0  0  0  0  2  0  0  0  0  0  0
  -27.5830  -13.2940   19.7390 C   0  0  0  0  0  3  0  0  0  0  0  0
  -28.6460  -12.9880   20.8190 C   0  0  0  0  0  2  0  0  0  0  0  0
  -29.9750  -13.2980   20.2570 N   0  0  0  0  0  0  0  0  0  0  0  0
  -31.6830  -14.7420   19.8060 O   0  0  0  0  0  0  0  0  0  0  0  0
  -29.9970  -15.3930   21.1320 N   0  0  0  0  0  0  0  0  0  0  0  0
  -29.2030  -15.0500   21.6530 H   0  0  0  0  0  0  0  0  0  0  0  0
  -25.1760  -13.8930   20.4460 C   0  0  0  0  0  0  0  0  0  0  0  0
  -24.1130  -13.1150   20.8250 C   0  0  0  0  0  0  0  0  0  0  0  0
  -24.5840  -11.7660   20.7990 C   0  0  0  0  0  0  0  0  0  0  0  0
  -26.2270  -13.0190   20.2180 N   0  0  0  0  0  0  0  0  0  0  0  0
  -25.8720  -11.7350   20.4830 N   0  0  0  0  0  0  0  0  0  0  0  0
  -23.8690  -10.4990   21.0000 C   0  0  0  0  0  0  0  0  0  0  0  0
  -24.3180   -9.5380   21.9330 C   0  0  0  0  0  3  0  0  0  0  0  0
  -23.6050   -8.3350   22.1210 C   0  0  0  0  0  3  0  0  0  0  0  0
  -22.4260   -8.0840   21.3780 C   0  0  0  0  0  0  0  0  0  0  0  0
  -21.9960   -9.0350   20.4360 C   0  0  0  0  0  3  0  0  0  0  0  0
  -22.7100  -10.2300   20.2450 C   0  0  0  0  0  3  0  0  0  0  0  0
  -21.6810   -6.9340   21.4770 O   0  0  0  0  0  0  0  0  0  0  0  0
  -21.6550   -6.1910   22.6300 C   0  0  0  0  0  0  0  0  0  0  0  0
  -21.2510   -6.7430   23.8650 C   0  0  0  0  0  3  0  0  0  0  0  0
  -21.1710   -5.9250   25.0110 C   0  0  0  0  0  3  0  0  0  0  0  0
  -21.4850   -4.5560   24.9220 C   0  0  0  0  0  0  0  0  0  0  0  0
  -21.8840   -4.0030   23.6920 C   0  0  0  0  0  3  0  0  0  0  0  0
  -21.9640   -4.8170   22.5490 C   0  0  0  0  0  0  0  0  0  0  0  0
  -22.3270   -4.2740   21.3610 F   0  0  0  0  0  0  0  0  0  0  0  0
  -21.4020   -3.7680   26.0210 F   0  0  0  0  0  0  0  0  0  0  0  0
  -22.7140  -13.5840   21.1050 C   0  0  0  0  0  0  0  0  0  0  0  0
  -21.9950  -12.8880   21.9790 N   0  0  0  0  0  0  0  0  0  0  0  0
  -22.2660  -14.6040   20.5830 O   0  0  0  0  0  0  0  0  0  0  0  0
  -22.3690  -12.0660   22.4300 H   0  0  0  0  0  0  0  0  0  0  0  0
  -21.0570  -13.1830   22.2030 H   0  0  0  0  0  0  0  0  0  0  0  0
  -25.3320  -15.2640   20.2590 N   0  0  0  0  0  0  0  0  0  0  0  0
  -24.5620  -15.9180   20.3600 H   0  0  0  0  0  0  0  0  0  0  0  0
  -26.1830  -15.6990   19.9250 H   0  0  0  0  0  0  0  0  0  0  0  0
  -29.6950  -22.6780   18.5960 C   0  0  0  0  0  2  0  0  0  0  0  0
  -30.1850  -24.0480   18.0990 C   0  0  0  0  0  2  0  0  0  0  0  0
  -29.9620  -25.1870   19.1120 C   0  0  0  0  0  2  0  0  0  0  0  0
  -28.4920  -25.6080   19.2510 C   0  0  0  0  0  2  0  0  0  0  0  0
  -28.3960  -26.7630   20.0850 O   0  0  0  0  0  0  0  0  0  0  0  0
  -24.5720  -31.8700   23.2260 C   0  0  0  0  0  0  0  0  0  0  0  0
  -27.1940  -27.4390   20.1140 C   0  0  0  0  0  0  0  0  0  0  0  0
  -23.3530  -30.4780   21.5850 C   0  0  0  0  0  3  0  0  0  0  0  0
  -24.7940  -28.9390   20.1540 C   0  0  0  0  0  0  0  0  0  0  0  0
  -25.8780  -30.8280   21.3800 C   0  0  0  0  0  2  0  0  0  0  0  0
  -25.9530  -29.4570   20.7440 C   0  0  0  0  0  0  0  0  0  0  0  0
  -27.1520  -28.7090   20.7310 C   0  0  0  0  0  3  0  0  0  0  0  0
  -26.0060  -26.9220   19.5440 C   0  0  0  0  0  3  0  0  0  0  0  0
  -24.8140  -27.6680   19.5560 C   0  0  0  0  0  3  0  0  0  0  0  0
  -23.5530  -29.8010   20.2020 C   0  0  0  0  0  2  0  0  0  0  0  0
  -24.6190  -31.0750   22.1210 N   0  0  0  0  0  0  0  0  0  0  0  0
  -23.4940  -32.1460   23.7700 O   0  0  0  0  0  0  0  0  0  0  0  0
  -22.7040  -29.4570   22.5430 C   0  0  0  0  0  0  0  0  0  0  0  0
  -21.3760  -29.2850   22.4230 N   0  0  0  0  0  0  0  0  0  0  0  0
  -23.3880  -28.8230   23.3510 O   0  0  0  0  0  0  0  0  0  0  0  0
  -20.8890  -29.8500   21.7430 H   0  0  0  0  0  0  0  0  0  0  0  0
  -17.9920  -28.1270   22.9350 C   0  0  0  0  0  0  0  0  0  0  0  0
  -20.5550  -28.3510   23.1910 C   0  0  0  0  0  3  0  0  0  0  0  0
  -20.6360  -26.9230   22.6050 C   0  0  0  0  0  2  0  0  0  0  0  0
  -19.5230  -26.6200   21.5970 C   0  0  0  0  0  2  0  0  0  0  0  0
  -18.1470  -26.7780   22.2500 C   0  0  0  0  0  2  0  0  0  0  0  0
  -19.1240  -28.8720   23.3610 C   0  0  0  0  0  0  0  0  0  0  0  0
  -18.9260  -30.1340   23.9620 C   0  0  0  0  0  3  0  0  0  0  0  0
  -17.6280  -30.6520   24.1370 C   0  0  0  0  0  3  0  0  0  0  0  0
  -16.5120  -29.9050   23.7270 C   0  0  0  0  0  3  0  0  0  0  0  0
  -16.6950  -28.6430   23.1320 C   0  0  0  0  0  3  0  0  0  0  0  0
  -25.8630  -32.4940   23.8430 C   0  0  0  0  0  3  0  0  0  0  0  0
  -26.3820  -31.7150   25.1140 C   0  0  1  0  0  0  0  0  0  0  0  0
  -25.2940  -31.4820   26.1870 C   0  0  0  0  0  1  0  0  0  0  0  0
  -26.9540  -30.3380   24.7110 C   0  0  0  0  0  1  0  0  0  0  0  0
  -27.5380  -32.5040   25.7740 C   0  0  0  0  0  1  0  0  0  0  0  0
  -25.5640  -33.8910   24.1770 N   0  0  0  0  0  0  0  0  0  0  0  0
  -25.9010  -34.9450   23.4210 C   0  0  0  0  0  0  0  0  0  0  0  0
  -26.5710  -34.8400   22.3890 O   0  0  0  0  0  0  0  0  0  0  0  0
  -24.9770  -34.0470   24.9840 H   0  0  0  0  0  0  0  0  0  0  0  0
  -24.1850  -36.7460   23.0600 C   0  0  0  0  0  1  0  0  0  0  0  0
  -25.4180  -36.3340   23.8790 C   0  0  0  0  0  3  0  0  0  0  0  0
  -27.5530  -37.2010   24.7230 C   0  0  0  0  0  1  0  0  0  0  0  0
  -26.4560  -37.3820   23.7750 N   0  0  0  0  0  0  0  0  0  0  0  0
  -26.0560  -38.3050   23.9260 H   0  0  0  0  0  0  0  0  0  0  0  0
  1  4  1  0
  2  5  1  0
  2  1  2  0
  4  3  2  0
  4 54  1  0
  5  6  2  0
  6  8  1  0
  6  3  1  0
  7  5  1  0
  8  9  1  0
  9 10  1  0
 10 11  1  0
 10 12  1  0
 10 13  1  0
 13 14  1  0
 15 24  1  0
 15 14  1  0
 16 24  1  0
 17 22  1  0
 18 19  1  0
 18 17  1  0
 20 19  1  0
 20 29  1  0
 20 21  1  0
 22 16  1  0
 22 21  1  0
 23 16  2  0
 24 25  1  0
 26 27  2  0
 27 46  1  0
 28 27  1  0
 28 31  1  0
 29 26  1  0
 29 30  1  0
 30 28  2  0
 31 32  1  0
 32 33  2  0
 34 37  1  0
 34 33  1  0
 35 34  2  0
 36 35  1  0
 36 31  2  0
 37 38  1  0
 38 39  1  0
 39 40  2  0
 41 40  1  0
 41 45  1  0
 42 41  2  0
 43 38  2  0
 43 42  1  0
 44 43  1  0
 46 47  1  0
 47 50  1  0
 47 49  1  0
 48 46  2  0
 51 52  1  0
 51 26  1  0
 53 51  1  0
 55 54  1  0
 55 56  1  0
 56 57  1  0
 57 58  1  0
 58 60  1  0
 59 70  2  0
 60 65  1  0
 61 69  1  0
 61 71  1  0
 62 68  1  0
 62 64  1  0
 63 69  1  0
 64 63  1  0
 65 64  2  0
 66 67  1  0
 66 60  2  0
 67 62  2  0
 68 61  1  0
 69 59  1  0
 71 73  2  0
 72 71  1  0
 74 72  1  0
 75 84  2  0
 75 80  1  0
 76 72  1  0
 76 80  1  0
 77 76  1  0
 78 79  1  0
 78 77  1  0
 79 75  1  0
 80 81  2  0
 81 82  1  0
 83 82  2  0
 84 83  1  0
 85 59  1  0
 85 90  1  0
 85 86  1  0
 86 89  1  1
 86 87  1  0
 88 86  1  0
 90 93  1  0
 91 95  1  0
 91 90  1  0
 92 91  2  0
 95 94  1  0
 97 95  1  0
 97 98  1  0
 97 96  1  0
M  ISO  4  16 100  24 100  57 101  58 101
M  END
>  <TORSDO>  (93) 
F 26

>  <SCORE>  (93) 
-11.775

>  <name>  (93) 
92

>  <ligand_id>  (93) 
92

>  <original_smiles>  (93) 
[H]c1c([H])c([H])c2c(c1[H])C([H])([H])C([H])([H])C([H])([H])C2([H])N([H])C(=O)C1([H])N(C(=O)C([H])(N([H])C(=O)C([H])(N([H])C([H])([H])[H])C([H])([H])[H])C(C([H])([H])[H])(C([H])([H])[H])C([H])([H])[H])C([H])([H])c2c([H])c(OC([H])([H])C([H])([H])C([H])([H])C([H])([H])c3c([H])c([H])c(C([H])([H])[H])c(C([H])([H])C([H])([H])[N+]([H])([H])C([H])([H])C([H])([H])C([H])([H])N([H])C(=O)N4C([H])([H])C([H])([H])C([H])([H])C([H])(n5nc(-c6c([H])c([H])c(Oc7c([H])c([H])c(F)c([H])c7F)c([H])c6[H])c(C(=O)N([H])[H])c5N([H])[H])C4([H])[H])c3[H])c([H])c([H])c2C1([H])[H]

>  <smiles>  (93) 
[H]c1c([H])c([H])c2c(c1[H])C([H])([H])C([H])([H])C([H])([H])C2([H])N([H])C(=O)C1([H])N(C(=O)C([H])(N([H])C(=O)C([H])(N([H])C([H])([H])[H])C([H])([H])[H])C(C([H])([H])[H])(C([H])([H])[H])C([H])([H])[H])C([H])([H])c2c([H])c(OC([H])([H])C([H])([H])C([H])([H])C([H])([H])c3c([H])c([H])c(C([H])([H])[H])c(C([H])([H])C([H])([H])[N+]([H])([H])C([H])([H])C([H])([H])C([H])([H])N([H])C(=O)N4C([H])([H])C([H])([H])C([H])([H])C([H])(n5nc(-c6c([H])c([H])c(Oc7c([H])c([H])c(F)c([H])c7F)c([H])c6[H])c(C(=O)N([H])[H])c5N([H])[H])C4([H])[H])c3[H])c([H])c([H])c2C1([H])[H]

$$$$
93:0:0
     RDKit          3D

 91 98  0  0  1  0  0  0  0  0999 V2000
  -26.1080  -23.5770   19.8480 C   0  0  0  0  0  2  0  0  0  0  0  0
  -26.0590  -25.1600   17.8810 C   0  0  0  0  0  1  0  0  0  0  0  0
  -26.0350  -25.0600   19.4180 C   0  0  0  0  0  3  0  0  0  0  0  0
  -24.7680  -25.7110   20.0190 C   0  0  0  0  0  3  0  0  0  0  0  0
  -24.8430  -26.1360   21.4980 C   0  0  0  0  0  3  0  0  0  0  0  0
  -23.4880  -26.4490   22.1650 C   0  0  0  0  0  2  0  0  0  0  0  0
  -23.2670  -27.9690   22.2310 C   0  0  0  0  0  2  0  0  0  0  0  0
  -22.0590  -28.4430   23.0620 C   0  0  0  0  0  2  0  0  0  0  0  0
  -19.6800  -28.2000   22.3330 C   0  0  0  0  0  0  0  0  0  0  0  0
  -17.7470  -27.1320   21.2270 C   0  0  0  0  0  2  0  0  0  0  0  0
  -17.8960  -25.5970   21.2580 C   0  0  0  0  0  2  0  0  0  0  0  0
  -18.7510  -25.0910   20.0800 C   0  0  0  0  0  2  0  0  0  0  0  0
  -20.0790  -25.8770   19.9320 C   0  0  0  0  0  3  0  0  0  0  0  0
  -19.7980  -27.3960   19.9490 C   0  0  0  0  0  2  0  0  0  0  0  0
  -19.0880  -27.7300   21.2050 N   0  0  0  0  0  0  0  0  0  0  0  0
  -19.1360  -28.2270   23.4420 O   0  0  0  0  0  0  0  0  0  0  0  0
  -20.9400  -28.6020   22.1400 N   0  0  0  0  0  0  0  0  0  0  0  0
  -21.1960  -28.6770   21.1670 H   0  0  0  0  0  0  0  0  0  0  0  0
  -21.4260  -24.2740   18.4270 C   0  0  0  0  0  0  0  0  0  0  0  0
  -21.9020  -24.4020   17.1480 C   0  0  0  0  0  0  0  0  0  0  0  0
  -21.5240  -25.7100   16.7190 C   0  0  0  0  0  0  0  0  0  0  0  0
  -20.8060  -25.4770   18.7260 N   0  0  0  0  0  0  0  0  0  0  0  0
  -20.9120  -26.3600   17.7010 N   0  0  0  0  0  0  0  0  0  0  0  0
  -21.6590  -26.3630   15.4110 C   0  0  0  0  0  0  0  0  0  0  0  0
  -22.8980  -26.8730   14.9650 C   0  0  0  0  0  3  0  0  0  0  0  0
  -23.0060  -27.4830   13.6960 C   0  0  0  0  0  3  0  0  0  0  0  0
  -21.8700  -27.5840   12.8590 C   0  0  0  0  0  0  0  0  0  0  0  0
  -20.6340  -27.0940   13.3180 C   0  0  0  0  0  3  0  0  0  0  0  0
  -20.5270  -26.4940   14.5820 C   0  0  0  0  0  3  0  0  0  0  0  0
  -21.8740  -28.1820   11.6230 O   0  0  0  0  0  0  0  0  0  0  0  0
  -22.7250  -27.7730   10.6270 C   0  0  0  0  0  0  0  0  0  0  0  0
  -22.5300  -26.5580    9.9340 C   0  0  0  0  0  3  0  0  0  0  0  0
  -23.3870  -26.2090    8.8710 C   0  0  0  0  0  3  0  0  0  0  0  0
  -24.4330  -27.0740    8.4950 C   0  0  0  0  0  0  0  0  0  0  0  0
  -24.6260  -28.2850    9.1810 C   0  0  0  0  0  3  0  0  0  0  0  0
  -23.7720  -28.6340   10.2420 C   0  0  0  0  0  0  0  0  0  0  0  0
  -23.9500  -29.8130   10.8860 F   0  0  0  0  0  0  0  0  0  0  0  0
  -25.2520  -26.7420    7.4700 F   0  0  0  0  0  0  0  0  0  0  0  0
  -22.5860  -23.3400   16.3350 C   0  0  0  0  0  0  0  0  0  0  0  0
  -23.7270  -23.6660   15.7360 N   0  0  0  0  0  0  0  0  0  0  0  0
  -22.1350  -22.1980   16.2640 O   0  0  0  0  0  0  0  0  0  0  0  0
  -24.1080  -24.5980   15.8110 H   0  0  0  0  0  0  0  0  0  0  0  0
  -24.2270  -22.9730   15.1980 H   0  0  0  0  0  0  0  0  0  0  0  0
  -21.4540  -23.2320   19.3470 N   0  0  0  0  0  0  0  0  0  0  0  0
  -21.8530  -22.3260   19.1290 H   0  0  0  0  0  0  0  0  0  0  0  0
  -21.0110  -23.2630   20.2570 H   0  0  0  0  0  0  0  0  0  0  0  0
  -26.6720  -23.3800   21.2650 C   0  0  0  0  0  2  0  0  0  0  0  0
  -28.1720  -23.0630   21.2520 C   0  0  0  0  0  2  0  0  0  0  0  0
  -28.4630  -21.5980   21.5970 C   0  0  0  0  0  2  0  0  0  0  0  0
  -29.9270  -21.2010   21.3530 C   0  0  0  0  0  2  0  0  0  0  0  0
  -30.0640  -20.6000   20.0730 O   0  0  0  0  0  0  0  0  0  0  0  0
  -32.4600  -26.9190   17.8430 C   0  0  0  0  0  0  0  0  0  0  0  0
  -30.2810  -21.4560   19.0270 C   0  0  0  0  0  0  0  0  0  0  0  0
  -31.3750  -25.5060   16.1230 C   0  0  0  0  0  3  0  0  0  0  0  0
  -30.8750  -23.1060   16.8200 C   0  0  0  0  0  0  0  0  0  0  0  0
  -32.5150  -24.4510   18.1510 C   0  0  0  0  0  2  0  0  0  0  0  0
  -31.5110  -23.3240   18.0510 C   0  0  0  0  0  0  0  0  0  0  0  0
  -31.2190  -22.5010   19.1560 C   0  0  0  0  0  3  0  0  0  0  0  0
  -29.6400  -21.2470   17.7890 C   0  0  0  0  0  3  0  0  0  0  0  0
  -29.9300  -22.0710   16.6840 C   0  0  0  0  0  3  0  0  0  0  0  0
  -31.2640  -24.0220   15.6830 C   0  0  0  0  0  2  0  0  0  0  0  0
  -32.1170  -25.6720   17.4150 N   0  0  0  0  0  0  0  0  0  0  0  0
  -32.2120  -27.9210   17.1590 O   0  0  0  0  0  0  0  0  0  0  0  0
  -29.9550  -26.1160   16.1500 C   0  0  0  0  0  0  0  0  0  0  0  0
  -29.4750  -26.5610   14.9770 N   0  0  0  0  0  0  0  0  0  0  0  0
  -29.3030  -26.1540   17.1960 O   0  0  0  0  0  0  0  0  0  0  0  0
  -30.0750  -26.4980   14.1660 H   0  0  0  0  0  0  0  0  0  0  0  0
  -27.3370  -28.0500   12.4780 C   0  0  0  0  0  0  0  0  0  0  0  0
  -28.1500  -27.1370   14.7550 C   0  0  0  0  0  3  0  0  0  0  0  0
  -27.0860  -26.0300   14.5760 C   0  0  0  0  0  2  0  0  0  0  0  0
  -26.8540  -25.6460   13.1100 C   0  0  0  0  0  2  0  0  0  0  0  0
  -26.4020  -26.8660   12.3020 C   0  0  0  0  0  2  0  0  0  0  0  0
  -28.1710  -28.1680   13.6210 C   0  0  0  0  0  0  0  0  0  0  0  0
  -29.0500  -29.2680   13.7180 C   0  0  0  0  0  3  0  0  0  0  0  0
  -29.1020  -30.2390   12.7000 C   0  0  0  0  0  3  0  0  0  0  0  0
  -28.2630  -30.1270   11.5790 C   0  0  0  0  0  3  0  0  0  0  0  0
  -27.3800  -29.0370   11.4720 C   0  0  0  0  0  3  0  0  0  0  0  0
  -33.2030  -27.1450   19.1980 C   0  0  0  0  0  3  0  0  0  0  0  0
  -32.3230  -27.8910   20.2740 C   0  0  1  0  0  0  0  0  0  0  0  0
  -32.3860  -29.4320   20.1680 C   0  0  0  0  0  1  0  0  0  0  0  0
  -30.8390  -27.4680   20.1530 C   0  0  0  0  0  1  0  0  0  0  0  0
  -32.7810  -27.4890   21.6970 C   0  0  0  0  0  1  0  0  0  0  0  0
  -34.4260  -27.9040   18.9090 N   0  0  0  0  0  0  0  0  0  0  0  0
  -35.6280  -27.3530   18.6910 C   0  0  0  0  0  0  0  0  0  0  0  0
  -35.8370  -26.1410   18.7860 O   0  0  0  0  0  0  0  0  0  0  0  0
  -34.3200  -28.8980   18.7630 H   0  0  0  0  0  0  0  0  0  0  0  0
  -37.1170  -28.1250   16.8190 C   0  0  0  0  0  1  0  0  0  0  0  0
  -36.7830  -28.2980   18.3080 C   0  0  0  0  0  3  0  0  0  0  0  0
  -37.8640  -28.5600   20.4970 C   0  0  0  0  0  1  0  0  0  0  0  0
  -38.0030  -28.0950   19.1200 N   0  0  0  0  0  0  0  0  0  0  0  0
  -38.7980  -28.5710   18.7020 H   0  0  0  0  0  0  0  0  0  0  0  0
  1 47  1  0
  3  2  1  0
  3  1  1  0
  3  4  1  0
  4  5  2  0
  5  6  1  0
  6  7  1  0
  7  8  1  0
  9 16  2  0
 10 11  1  0
 12 11  1  0
 13 22  1  0
 13 14  1  0
 13 12  1  0
 14 15  1  0
 15 10  1  0
 15  9  1  0
 17  9  1  0
 17  8  1  0
 18 17  1  0
 19 22  1  0
 19 44  1  0
 20 19  2  0
 21 20  1  0
 21 23  2  0
 23 22  1  0
 24 21  1  0
 25 24  1  0
 26 25  2  0
 27 28  2  0
 27 26  1  0
 28 29  1  0
 29 24  2  0
 30 27  1  0
 31 30  1  0
 32 31  2  0
 33 32  1  0
 34 33  2  0
 34 35  1  0
 35 36  2  0
 36 31  1  0
 36 37  1  0
 38 34  1  0
 39 20  1  0
 40 42  1  0
 40 39  1  0
 41 39  2  0
 43 40  1  0
 44 46  1  0
 45 44  1  0
 48 47  1  0
 48 49  1  0
 50 49  1  0
 51 50  1  0
 53 58  1  0
 53 51  1  0
 54 64  1  0
 54 62  1  0
 55 57  1  0
 57 56  1  0
 57 58  2  0
 59 53  2  0
 60 55  2  0
 60 59  1  0
 61 54  1  0
 61 55  1  0
 62 52  1  0
 62 56  1  0
 63 52  2  0
 64 66  2  0
 65 64  1  0
 67 65  1  0
 68 73  1  0
 69 65  1  0
 70 69  1  0
 71 70  1  0
 72 68  1  0
 72 71  1  0
 73 74  2  0
 73 69  1  0
 75 74  1  0
 76 75  2  0
 77 76  1  0
 77 68  2  0
 78 52  1  0
 78 79  1  0
 79 82  1  1
 80 79  1  0
 81 79  1  0
 83 78  1  0
 84 85  2  0
 84 83  1  0
 86 83  1  0
 88 87  1  0
 88 84  1  0
 88 90  1  0
 90 89  1  0
 91 90  1  0
M  ISO  4   9 100  17 100  50 101  51 101
M  END
>  <TORSDO>  (94) 
F 26

>  <SCORE>  (94) 
-6.006

>  <name>  (94) 
93

>  <ligand_id>  (94) 
93

>  <original_smiles>  (94) 
[H]c1c([H])c([H])c2c(c1[H])C([H])([H])C([H])([H])C([H])([H])C2([H])N([H])C(=O)C1([H])N(C(=O)C([H])(N([H])C(=O)C([H])(N([H])C([H])([H])[H])C([H])([H])[H])C(C([H])([H])[H])(C([H])([H])[H])C([H])([H])[H])C([H])([H])c2c([H])c(OC([H])([H])C([H])([H])C([H])([H])C([H])([H])C([H])([H])C([H])(C([H])([H])[H])C([H])([H])C([H])([H])C([H])([H])C([H])([H])C([H])([H])N([H])C(=O)N3C([H])([H])C([H])([H])C([H])([H])C([H])(n4nc(-c5c([H])c([H])c(Oc6c([H])c([H])c(F)c([H])c6F)c([H])c5[H])c(C(=O)N([H])[H])c4N([H])[H])C3([H])[H])c([H])c([H])c2C1([H])[H]

>  <smiles>  (94) 
[H]c1c([H])c([H])c2c(c1[H])C([H])([H])C([H])([H])C([H])([H])C2([H])N([H])C(=O)C1([H])N(C(=O)C([H])(N([H])C(=O)C([H])(N([H])C([H])([H])[H])C([H])([H])[H])C(C([H])([H])[H])(C([H])([H])[H])C([H])([H])[H])C([H])([H])c2c([H])c(OC([H])([H])C([H])([H])C([H])([H])C([H])([H])C([H])([H])C([H])(C([H])([H])[H])C([H])([H])C([H])([H])C([H])([H])C([H])([H])C([H])([H])N([H])C(=O)N3C([H])([H])C([H])([H])C([H])([H])C([H])(n4nc(-c5c([H])c([H])c(Oc6c([H])c([H])c(F)c([H])c6F)c([H])c5[H])c(C(=O)N([H])[H])c4N([H])[H])C3([H])[H])c([H])c([H])c2C1([H])[H]

$$$$
94:0:0
     RDKit          3D

 99107  0  0  1  0  0  0  0  0999 V2000
  -26.8640  -22.3930   21.3390 C   0  0  0  0  0  3  0  0  0  0  0  0
  -26.6430  -23.5270   22.1450 C   0  0  0  0  0  3  0  0  0  0  0  0
  -27.4370  -23.8500   19.4780 C   0  0  0  0  0  3  0  0  0  0  0  0
  -27.2690  -22.5550   20.0010 C   0  0  0  0  0  0  0  0  0  0  0  0
  -26.7890  -24.8290   21.6190 C   0  0  0  0  0  0  0  0  0  0  0  0
  -27.1920  -25.0020   20.2640 C   0  0  0  0  0  0  0  0  0  0  0  0
  -27.5250  -21.3480   19.1130 C   0  0  0  0  0  2  0  0  0  0  0  0
  -28.3880  -21.6780   17.8790 C   0  0  0  0  0  2  0  0  0  0  0  0
  -29.9020  -21.5130   18.0940 C   0  0  0  0  0  2  0  0  0  0  0  0
  -30.3540  -20.0440   18.2020 C   0  0  0  0  0  2  0  0  0  0  0  0
  -31.2600  -19.7680   19.4120 C   0  0  0  0  0  2  0  0  0  0  0  0
  -32.6980  -19.3360   19.0680 C   0  0  0  0  0  2  0  0  0  0  0  0
  -33.1150  -18.0170   19.7360 C   0  0  0  0  0  2  0  0  0  0  0  0
  -33.1520  -16.8200   18.7730 C   0  0  0  0  0  2  0  0  0  0  0  0
  -33.9060  -15.6170   19.3600 C   0  0  0  0  0  2  0  0  0  0  0  0
  -33.2540  -13.2340   19.6760 C   0  0  0  0  0  0  0  0  0  0  0  0
  -32.9530  -11.0950   20.8520 C   0  0  0  0  0  2  0  0  0  0  0  0
  -32.1730  -10.0450   20.0460 C   0  0  0  0  0  2  0  0  0  0  0  0
  -30.6640  -10.2070   20.2830 C   0  0  0  0  0  2  0  0  0  0  0  0
  -30.1860  -11.6670   20.0700 C   0  0  0  0  0  3  0  0  0  0  0  0
  -31.0830  -12.6720   20.8290 C   0  0  0  0  0  2  0  0  0  0  0  0
  -32.4940  -12.4380   20.4660 N   0  0  0  0  0  0  0  0  0  0  0  0
  -34.2460  -12.8330   19.0600 O   0  0  0  0  0  0  0  0  0  0  0  0
  -33.0010  -14.5460   19.7890 N   0  0  0  0  0  0  0  0  0  0  0  0
  -32.2010  -14.8080   20.3460 H   0  0  0  0  0  0  0  0  0  0  0  0
  -28.0110  -12.9700   20.5250 C   0  0  0  0  0  0  0  0  0  0  0  0
  -26.7400  -12.5540   20.8210 C   0  0  0  0  0  0  0  0  0  0  0  0
  -26.7940  -11.1290   20.8820 C   0  0  0  0  0  0  0  0  0  0  0  0
  -28.7760  -11.8180   20.4300 N   0  0  0  0  0  0  0  0  0  0  0  0
  -28.0400  -10.7070   20.6960 N   0  0  0  0  0  0  0  0  0  0  0  0
  -25.7220  -10.1370   21.0470 C   0  0  0  0  0  0  0  0  0  0  0  0
  -25.6760   -9.2820   22.1710 C   0  0  0  0  0  3  0  0  0  0  0  0
  -24.6250   -8.3500   22.3180 C   0  0  0  0  0  3  0  0  0  0  0  0
  -23.6080   -8.2670   21.3390 C   0  0  0  0  0  0  0  0  0  0  0  0
  -23.6710   -9.1040   20.2100 C   0  0  0  0  0  3  0  0  0  0  0  0
  -24.7200  -10.0280   20.0630 C   0  0  0  0  0  3  0  0  0  0  0  0
  -22.5630   -7.3750   21.3860 O   0  0  0  0  0  0  0  0  0  0  0  0
  -21.9560   -7.0380   22.5690 C   0  0  0  0  0  0  0  0  0  0  0  0
  -21.3380   -8.0040   23.3910 C   0  0  0  0  0  3  0  0  0  0  0  0
  -20.6650   -7.6060   24.5630 C   0  0  0  0  0  3  0  0  0  0  0  0
  -20.6020   -6.2440   24.9110 C   0  0  0  0  0  0  0  0  0  0  0  0
  -21.2130   -5.2780   24.0910 C   0  0  0  0  0  3  0  0  0  0  0  0
  -21.8860   -5.6750   22.9220 C   0  0  0  0  0  0  0  0  0  0  0  0
  -22.4560   -4.7390   22.1240 F   0  0  0  0  0  0  0  0  0  0  0  0
  -19.9500   -5.8590   26.0320 F   0  0  0  0  0  0  0  0  0  0  0  0
  -25.5200  -13.4210   20.9480 C   0  0  0  0  0  0  0  0  0  0  0  0
  -24.5830  -13.0400   21.8100 N   0  0  0  0  0  0  0  0  0  0  0  0
  -25.4150  -14.4730   20.3190 O   0  0  0  0  0  0  0  0  0  0  0  0
  -24.6780  -12.1870   22.3420 H   0  0  0  0  0  0  0  0  0  0  0  0
  -23.7570  -13.6060   21.9370 H   0  0  0  0  0  0  0  0  0  0  0  0
  -28.5750  -14.2250   20.3110 N   0  0  0  0  0  0  0  0  0  0  0  0
  -28.0260  -15.0770   20.3270 H   0  0  0  0  0  0  0  0  0  0  0  0
  -29.5460  -14.3800   20.0730 H   0  0  0  0  0  0  0  0  0  0  0  0
  -27.2890  -26.4040   19.6540 C   0  0  0  0  0  2  0  0  0  0  0  0
  -27.5640  -26.5050   18.1240 C   0  0  0  0  0  2  0  0  0  0  0  0
  -27.3320  -27.8290   17.6340 O   0  0  0  0  0  0  0  0  0  0  0  0
  -24.3070  -31.5070   22.8640 C   0  0  0  0  0  0  0  0  0  0  0  0
  -26.1670  -28.4130   18.0760 C   0  0  0  0  0  0  0  0  0  0  0  0
  -22.7450  -30.4840   21.2440 C   0  0  0  0  0  3  0  0  0  0  0  0
  -23.8070  -29.5620   19.1170 C   0  0  0  0  0  0  0  0  0  0  0  0
  -25.1070  -31.1560   20.5370 C   0  0  0  0  0  2  0  0  0  0  0  0
  -25.0600  -30.0340   19.5260 C   0  0  0  0  0  0  0  0  0  0  0  0
  -26.2420  -29.4720   19.0030 C   0  0  0  0  0  3  0  0  0  0  0  0
  -24.8960  -27.9550   17.6590 C   0  0  0  0  0  3  0  0  0  0  0  0
  -23.7170  -28.5210   18.1790 C   0  0  0  0  0  3  0  0  0  0  0  0
  -22.5920  -30.2350   19.7180 C   0  0  0  0  0  2  0  0  0  0  0  0
  -24.0840  -31.0480   21.6020 N   0  0  0  0  0  0  0  0  0  0  0  0
  -23.4080  -31.5000   23.7160 O   0  0  0  0  0  0  0  0  0  0  0  0
  -22.4150  -29.1740   21.9970 C   0  0  0  0  0  0  0  0  0  0  0  0
  -21.1350  -28.7760   21.9710 N   0  0  0  0  0  0  0  0  0  0  0  0
  -23.3040  -28.5340   22.5650 O   0  0  0  0  0  0  0  0  0  0  0  0
  -20.4660  -29.3590   21.4850 H   0  0  0  0  0  0  0  0  0  0  0  0
  -18.1480  -26.7840   22.3560 C   0  0  0  0  0  0  0  0  0  0  0  0
  -20.6020  -27.5610   22.5870 C   0  0  0  0  0  3  0  0  0  0  0  0
  -20.9690  -26.3110   21.7540 C   0  0  0  0  0  2  0  0  0  0  0  0
  -19.8900  -25.9290   20.7350 C   0  0  0  0  0  2  0  0  0  0  0  0
  -18.5610  -25.6460   21.4400 C   0  0  0  0  0  2  0  0  0  0  0  0
  -19.1030  -27.6920   22.8850 C   0  0  0  0  0  0  0  0  0  0  0  0
  -18.6600  -28.7570   23.7000 C   0  0  0  0  0  3  0  0  0  0  0  0
  -17.2920  -28.9110   23.9990 C   0  0  0  0  0  3  0  0  0  0  0  0
  -16.3520  -28.0010   23.4830 C   0  0  0  0  0  3  0  0  0  0  0  0
  -16.7820  -26.9420   22.6660 C   0  0  0  0  0  3  0  0  0  0  0  0
  -25.6940  -32.0800   23.2910 C   0  0  0  0  0  3  0  0  0  0  0  0
  -25.4490  -33.3670   23.9540 N   0  0  0  0  0  0  0  0  0  0  0  0
  -25.6500  -34.5640   23.3890 C   0  0  0  0  0  0  0  0  0  0  0  0
  -26.1360  -34.7010   22.2620 O   0  0  0  0  0  0  0  0  0  0  0  0
  -24.9940  -33.3330   24.8550 H   0  0  0  0  0  0  0  0  0  0  0  0
  -23.8930  -36.3380   23.7000 C   0  0  0  0  0  1  0  0  0  0  0  0
  -25.2460  -35.8090   24.2030 C   0  0  0  0  0  3  0  0  0  0  0  0
  -27.4920  -36.5590   24.8490 C   0  0  0  0  0  1  0  0  0  0  0  0
  -26.2490  -36.8950   24.1570 N   0  0  0  0  0  0  0  0  0  0  0  0
  -25.8790  -37.7470   24.5680 H   0  0  0  0  0  0  0  0  0  0  0  0
  -26.5040  -31.1090   24.2340 C   0  0  1  0  0  0  0  0  0  0  0  0
  -25.6970  -30.6060   25.4530 C   0  0  0  0  0  1  0  0  0  0  0  0
  -26.9980  -29.8690   23.4530 C   0  0  0  0  0  1  0  0  0  0  0  0
  -27.7680  -31.8270   24.7630 C   0  0  0  0  0  1  0  0  0  0  0  0
  -26.4750  -26.0180   22.5240 C   0  0  0  0  0  2  0  0  0  0  0  0
  -27.6330  -26.6330   23.0520 O   0  0  0  0  0  0  0  0  0  0  0  0
  -27.9550  -26.0870   23.7640 H   0  0  0  0  0  0  0  0  0  0  0  0
  1  2  1  0
  3  4  1  0
  3  6  2  0
  4  1  2  0
  5  2  2  0
  5 97  1  0
  6  5  1  0
  7  4  1  0
  8  9  1  0
  8  7  1  0
  9 10  1  0
 10 11  1  0
 12 11  1  0
 12 13  1  0
 14 15  1  0
 14 13  1  0
 15 24  1  0
 16 24  1  0
 16 22  1  0
 18 19  1  0
 18 17  1  0
 20 19  1  0
 20 29  1  0
 20 21  1  0
 22 21  1  0
 22 17  1  0
 23 16  2  0
 24 25  1  0
 26 27  2  0
 27 28  1  0
 27 46  1  0
 28 31  1  0
 29 26  1  0
 29 30  1  0
 30 28  2  0
 31 32  1  0
 32 33  2  0
 34 37  1  0
 34 33  1  0
 35 34  2  0
 36 35  1  0
 36 31  2  0
 37 38  1  0
 38 43  2  0
 38 39  1  0
 39 40  2  0
 40 41  1  0
 41 45  1  0
 42 41  2  0
 43 42  1  0
 44 43  1  0
 46 47  1  0
 47 50  1  0
 47 49  1  0
 48 46  2  0
 51 52  1  0
 51 26  1  0
 53 51  1  0
 54  6  1  0
 55 54  1  0
 56 58  1  0
 56 55  1  0
 57 68  2  0
 58 63  1  0
 59 67  1  0
 59 69  1  0
 60 62  1  0
 60 66  1  0
 61 67  1  0
 62 61  1  0
 63 62  2  0
 64 58  2  0
 64 65  1  0
 65 60  2  0
 66 59  1  0
 67 57  1  0
 69 71  2  0
 70 69  1  0
 72 70  1  0
 73 82  2  0
 73 78  1  0
 74 70  1  0
 74 78  1  0
 75 74  1  0
 76 77  1  0
 76 75  1  0
 77 73  1  0
 78 79  2  0
 79 80  1  0
 81 80  2  0
 82 81  1  0
 83 57  1  0
 83 84  1  0
 83 93  1  0
 84 87  1  0
 85 84  1  0
 85 89  1  0
 86 85  2  0
 89 88  1  0
 91 89  1  0
 91 92  1  0
 91 90  1  0
 93 96  1  1
 93 94  1  0
 95 93  1  0
 97 98  1  0
 98 99  1  0
M  ISO  4  16 100  24 100  55 101  56 101
M  END
>  <TORSDO>  (95) 
F 29

>  <SCORE>  (95) 
-6.000

>  <name>  (95) 
94

>  <ligand_id>  (95) 
94

>  <original_smiles>  (95) 
[H]OC([H])([H])c1c([H])c([H])c(C([H])([H])C([H])([H])C([H])([H])C([H])([H])C([H])([H])C([H])([H])C([H])([H])C([H])([H])C([H])([H])N([H])C(=O)N2C([H])([H])C([H])([H])C([H])([H])C([H])(n3nc(-c4c([H])c([H])c(Oc5c([H])c([H])c(F)c([H])c5F)c([H])c4[H])c(C(=O)N([H])[H])c3N([H])[H])C2([H])[H])c([H])c1C([H])([H])C([H])([H])Oc1c([H])c([H])c2c(c1[H])C([H])([H])N(C(=O)C([H])(N([H])C(=O)C([H])(N([H])C([H])([H])[H])C([H])([H])[H])C(C([H])([H])[H])(C([H])([H])[H])C([H])([H])[H])C([H])(C(=O)N([H])C1([H])c3c([H])c([H])c([H])c([H])c3C([H])([H])C([H])([H])C1([H])[H])C2([H])[H]

>  <smiles>  (95) 
[H]OC([H])([H])c1c([H])c([H])c(C([H])([H])C([H])([H])C([H])([H])C([H])([H])C([H])([H])C([H])([H])C([H])([H])C([H])([H])C([H])([H])N([H])C(=O)N2C([H])([H])C([H])([H])C([H])([H])C([H])(n3nc(-c4c([H])c([H])c(Oc5c([H])c([H])c(F)c([H])c5F)c([H])c4[H])c(C(=O)N([H])[H])c3N([H])[H])C2([H])[H])c([H])c1C([H])([H])C([H])([H])Oc1c([H])c([H])c2c(c1[H])C([H])([H])N(C(=O)C([H])(N([H])C(=O)C([H])(N([H])C([H])([H])[H])C([H])([H])[H])C(C([H])([H])[H])(C([H])([H])[H])C([H])([H])[H])C([H])(C(=O)N([H])C1([H])c3c([H])c([H])c([H])c([H])c3C([H])([H])C([H])([H])C1([H])[H])C2([H])[H]

$$$$
95:0:0
     RDKit          3D

 94101  0  0  1  0  0  0  0  0999 V2000
  -27.9660  -29.5360   26.0400 C   0  0  0  0  0  3  0  0  0  0  0  0
  -28.7780  -30.5150   24.7920 C   0  0  0  0  0  3  0  0  0  0  0  0
  -26.8390  -28.5880   25.3520 C   0  0  0  0  0  3  0  0  0  0  0  0
  -28.0190  -30.1750   23.3760 C   0  0  0  0  0  3  0  0  0  0  0  0
  -26.0400  -28.1600   22.9460 C   0  0  0  0  0  1  0  0  0  0  0  0
  -26.7620  -29.0720   23.7800 N   0  0  0  0  0  0  0  0  0  0  0  0
  -26.7990  -26.8230   25.5130 C   0  0  0  0  0  2  0  0  0  0  0  0
  -27.0500  -25.3820   24.4030 C   0  0  0  0  0  2  0  0  0  0  0  0
  -28.0890  -23.9060   24.2620 C   0  0  0  0  0  3  0  0  0  0  0  0
  -27.8930  -22.2880   23.4630 C   0  0  0  0  0  3  0  0  0  0  0  0
  -28.9930  -20.9200   23.0050 C   0  0  0  0  0  2  0  0  0  0  0  0
  -28.7570  -19.2140   22.4280 C   0  0  0  0  0  3  0  0  0  0  0  0
  -29.8630  -17.9100   21.8220 C   0  0  0  0  0  3  0  0  0  0  0  0
  -30.4030  -15.1680   20.8050 C   0  0  0  0  0  0  0  0  0  0  0  0
  -30.4430  -12.8130   19.6300 C   0  0  0  0  0  2  0  0  0  0  0  0
  -29.5590  -12.6420   18.3580 C   0  0  0  0  0  2  0  0  0  0  0  0
  -28.1000  -12.3410   18.7330 C   0  0  0  0  0  2  0  0  0  0  0  0
  -27.6210  -13.2650   19.8780 C   0  0  0  0  0  3  0  0  0  0  0  0
  -28.6100  -13.3220   21.0630 C   0  0  0  0  0  2  0  0  0  0  0  0
  -29.8710  -13.8700   20.5590 N   0  0  0  0  0  0  0  0  0  0  0  0
  -31.5670  -15.2900   20.3850 O   0  0  0  0  0  0  0  0  0  0  0  0
  -29.6420  -16.3010   21.4040 N   0  0  0  0  0  0  0  0  0  0  0  0
  -28.7080  -15.9900   21.6390 H   0  0  0  0  0  0  0  0  0  0  0  0
  -25.2350  -13.8230   20.5720 C   0  0  0  0  0  0  0  0  0  0  0  0
  -24.1700  -13.0430   20.9200 C   0  0  0  0  0  0  0  0  0  0  0  0
  -24.6340  -11.6910   20.8720 C   0  0  0  0  0  0  0  0  0  0  0  0
  -26.2760  -12.9470   20.3270 N   0  0  0  0  0  0  0  0  0  0  0  0
  -25.9260  -11.6580   20.5700 N   0  0  0  0  0  0  0  0  0  0  0  0
  -23.9050  -10.4280   21.0390 C   0  0  0  0  0  0  0  0  0  0  0  0
  -24.3620   -9.4210   21.9170 C   0  0  0  0  0  3  0  0  0  0  0  0
  -23.6290   -8.2240   22.0750 C   0  0  0  0  0  3  0  0  0  0  0  0
  -22.4270   -8.0270   21.3550 C   0  0  0  0  0  0  0  0  0  0  0  0
  -21.9900   -9.0240   20.4640 C   0  0  0  0  0  3  0  0  0  0  0  0
  -22.7230  -10.2120   20.3040 C   0  0  0  0  0  3  0  0  0  0  0  0
  -21.6640   -6.8870   21.4240 O   0  0  0  0  0  0  0  0  0  0  0  0
  -21.6860   -6.0730   22.5280 C   0  0  0  0  0  0  0  0  0  0  0  0
  -21.4010   -6.5640   23.8210 C   0  0  0  0  0  3  0  0  0  0  0  0
  -21.3660   -5.6790   24.9170 C   0  0  0  0  0  3  0  0  0  0  0  0
  -21.6040   -4.3050   24.7230 C   0  0  0  0  0  0  0  0  0  0  0  0
  -21.8820   -3.8140   23.4350 C   0  0  0  0  0  3  0  0  0  0  0  0
  -21.9190   -4.6960   22.3400 C   0  0  0  0  0  0  0  0  0  0  0  0
  -22.1660   -4.2140   21.0980 F   0  0  0  0  0  0  0  0  0  0  0  0
  -21.5630   -3.4540   25.7740 F   0  0  0  0  0  0  0  0  0  0  0  0
  -22.7730  -13.5190   21.1880 C   0  0  0  0  0  0  0  0  0  0  0  0
  -22.0400  -12.8180   22.0450 N   0  0  0  0  0  0  0  0  0  0  0  0
  -22.3410  -14.5500   20.6740 O   0  0  0  0  0  0  0  0  0  0  0  0
  -22.4040  -11.9840   22.4820 H   0  0  0  0  0  0  0  0  0  0  0  0
  -21.1020  -13.1190   22.2670 H   0  0  0  0  0  0  0  0  0  0  0  0
  -25.4040  -15.1970   20.4220 N   0  0  0  0  0  0  0  0  0  0  0  0
  -24.6370  -15.8500   20.5350 H   0  0  0  0  0  0  0  0  0  0  0  0
  -26.2510  -15.6370   20.0860 H   0  0  0  0  0  0  0  0  0  0  0  0
  -28.8570  -29.9530   22.0440 C   0  0  0  0  0  2  0  0  0  0  0  0
  -29.2780  -28.4790   21.3080 C   0  0  0  0  0  2  0  0  0  0  0  0
  -28.5020  -27.4130   20.5190 O   0  0  0  0  0  0  0  0  0  0  0  0
  -24.6560  -31.7450   23.1730 C   0  0  0  0  0  0  0  0  0  0  0  0
  -27.2770  -27.8010   20.0320 C   0  0  0  0  0  0  0  0  0  0  0  0
  -23.3190  -30.4580   21.5230 C   0  0  0  0  0  3  0  0  0  0  0  0
  -24.7280  -28.9600   20.0030 C   0  0  0  0  0  0  0  0  0  0  0  0
  -25.7120  -31.0480   21.0200 C   0  0  0  0  0  2  0  0  0  0  0  0
  -25.8470  -29.7080   20.3260 C   0  0  0  0  0  0  0  0  0  0  0  0
  -27.0760  -29.1650   20.0670 C   0  0  0  0  0  3  0  0  0  0  0  0
  -26.1610  -26.9920   19.6900 C   0  0  0  0  0  3  0  0  0  0  0  0
  -24.8770  -27.6080   19.5960 C   0  0  0  0  0  3  0  0  0  0  0  0
  -23.4380  -29.7250   20.1490 C   0  0  0  0  0  2  0  0  0  0  0  0
  -24.6000  -31.0810   21.9860 N   0  0  0  0  0  0  0  0  0  0  0  0
  -23.6060  -32.0710   23.7560 O   0  0  0  0  0  0  0  0  0  0  0  0
  -22.6570  -29.4910   22.5220 C   0  0  0  0  0  0  0  0  0  0  0  0
  -21.3470  -29.2940   22.3610 N   0  0  0  0  0  0  0  0  0  0  0  0
  -23.2960  -28.8960   23.3870 O   0  0  0  0  0  0  0  0  0  0  0  0
  -20.8570  -29.8110   21.6450 H   0  0  0  0  0  0  0  0  0  0  0  0
  -18.0080  -28.1340   22.8490 C   0  0  0  0  0  0  0  0  0  0  0  0
  -20.5520  -28.3580   23.1390 C   0  0  0  0  0  3  0  0  0  0  0  0
  -20.6560  -26.9350   22.5490 C   0  0  0  0  0  2  0  0  0  0  0  0
  -19.5620  -26.6350   21.5220 C   0  0  0  0  0  2  0  0  0  0  0  0
  -18.1770  -26.7910   22.1580 C   0  0  0  0  0  2  0  0  0  0  0  0
  -19.1280  -28.8770   23.2980 C   0  0  0  0  0  0  0  0  0  0  0  0
  -18.9280  -30.1390   23.8980 C   0  0  0  0  0  3  0  0  0  0  0  0
  -17.6310  -30.6580   24.0600 C   0  0  0  0  0  3  0  0  0  0  0  0
  -16.5200  -29.9100   23.6320 C   0  0  0  0  0  3  0  0  0  0  0  0
  -16.7090  -28.6510   23.0320 C   0  0  0  0  0  3  0  0  0  0  0  0
  -26.0160  -32.1650   23.8230 C   0  0  0  0  0  3  0  0  0  0  0  0
  -26.5920  -31.0200   24.9910 C   0  0  0  0  0  3  0  0  0  0  0  0
  -25.3400  -30.8360   25.9590 C   0  0  0  0  0  1  0  0  0  0  0  0
  -28.8430  -28.3330   24.3410 C   0  0  0  0  0 15  0  0  0  0  0  0
  -27.2470  -32.2380   25.9270 C   0  0  0  0  0  1  0  0  0  0  0  0
  -25.7090  -33.6220   24.2320 N   0  0  0  0  0  0  0  0  0  0  0  0
  -25.9450  -34.7710   23.5290 C   0  0  0  0  0  0  0  0  0  0  0  0
  -26.5680  -34.7660   22.4660 O   0  0  0  0  0  0  0  0  0  0  0  0
  -25.1550  -33.7150   25.0700 H   0  0  0  0  0  0  0  0  0  0  0  0
  -24.1640  -36.5920   23.2940 C   0  0  0  0  0  1  0  0  0  0  0  0
  -25.4320  -36.1540   24.0550 C   0  0  0  0  0  3  0  0  0  0  0  0
  -27.5540  -37.1290   24.8540 C   0  0  0  0  0  1  0  0  0  0  0  0
  -26.4200  -37.2600   23.9470 N   0  0  0  0  0  0  0  0  0  0  0  0
  -25.9770  -38.1570   24.1240 H   0  0  0  0  0  0  0  0  0  0  0  0
  2  1  2  0
  3  7  1  0
  3  1  1  0
  4 52  1  0
  4  6  1  0
  4  2  1  0
  5  6  1  0
  6  3  1  0
  8  7  1  0
  9  8  1  0
 10  9  2  0
 11 10  1  0
 12 11  1  0
 13 12  2  0
 14 22  1  0
 15 20  1  0
 16 17  1  0
 16 15  1  0
 18 17  1  0
 18 27  1  0
 18 19  1  0
 20 14  1  0
 20 19  1  0
 21 14  2  0
 22 23  1  0
 22 13  1  0
 24 25  2  0
 25 44  1  0
 26 25  1  0
 26 29  1  0
 27 28  1  0
 27 24  1  0
 28 26  2  0
 29 30  1  0
 30 31  2  0
 32 35  1  0
 32 31  1  0
 33 32  2  0
 34 33  1  0
 34 29  2  0
 35 36  1  0
 36 37  1  0
 37 38  2  0
 39 38  1  0
 39 43  1  0
 40 39  2  0
 41 36  2  0
 41 40  1  0
 42 41  1  0
 44 45  1  0
 45 48  1  0
 45 47  1  0
 46 44  2  0
 49 50  1  0
 49 24  1  0
 51 49  1  0
 53 52  1  0
 54 53  1  0
 55 66  2  0
 56 61  1  0
 56 54  1  0
 57 65  1  0
 57 67  1  0
 58 64  1  0
 58 60  1  0
 59 65  1  0
 60 59  1  0
 61 60  2  0
 62 56  2  0
 63 62  1  0
 63 58  2  0
 64 57  1  0
 65 55  1  0
 67 69  2  0
 68 67  1  0
 70 68  1  0
 71 80  2  0
 71 76  1  0
 72 68  1  0
 72 76  1  0
 73 72  1  0
 74 75  1  0
 74 73  1  0
 75 71  1  0
 76 77  2  0
 77 78  1  0
 79 78  2  0
 80 79  1  0
 81 55  1  0
 81 86  1  0
 81 82  1  0
 82 85  1  0
 82 83  1  0
 86 89  1  0
 87 91  1  0
 87 86  1  0
 88 87  2  0
 91 90  1  0
 93 91  1  0
 93 94  1  0
 93 92  1  0
M  ISO  4  14 100  22 100  53 101  54 101
M  END
>  <TORSDO>  (96) 
F 25

>  <SCORE>  (96) 
-2.966

>  <name>  (96) 
95

>  <ligand_id>  (96) 
95

>  <original_smiles>  (96) 
[H]c1c([H])c([H])c2c(c1[H])C([H])([H])C([H])([H])C([H])([H])C2([H])N([H])C(=O)C1([H])N(C(=O)C([H])(N([H])C(=O)C([H])(N([H])C([H])([H])[H])C([H])([H])[H])C(C([H])([H])[H])(C([H])([H])[H])C([H])([H])[H])C([H])([H])c2c([H])c(OC([H])([H])C([H])([H])c3c([H])c([H])c(C([H])([H])C([H])([H])C([H])([H])C([H])([H])C([H])([H])C([H])([H])C([H])([H])N([H])C(=O)N4C([H])([H])C([H])([H])C([H])([H])C([H])(n5nc(-c6c([H])c([H])c(Oc7c([H])c([H])c(F)c([H])c7F)c([H])c6[H])c(C(=O)N([H])[H])c5N([H])[H])C4([H])[H])n3C([H])([H])[H])c([H])c([H])c2C1([H])[H]

>  <smiles>  (96) 
[H]c1c([H])c([H])c2c(c1[H])C([H])([H])C([H])([H])C([H])([H])C2([H])N([H])C(=O)C1([H])N(C(=O)C([H])(N([H])C(=O)C([H])(N([H])C([H])([H])[H])C([H])([H])[H])C(C([H])([H])[H])(C([H])([H])[H])C([H])([H])[H])C([H])([H])c2c([H])c(OC([H])([H])C([H])([H])c3c([H])c([H])c(C([H])([H])C([H])([H])C([H])([H])C([H])([H])C([H])([H])C([H])([H])C([H])([H])N([H])C(=O)N4C([H])([H])C([H])([H])C([H])([H])C([H])(n5nc(-c6c([H])c([H])c(Oc7c([H])c([H])c(F)c([H])c7F)c([H])c6[H])c(C(=O)N([H])[H])c5N([H])[H])C4([H])[H])n3C([H])([H])[H])c([H])c([H])c2C1([H])[H]

$$$$
