0:0:0
     RDKit          3D

 96101  0  0  1  0  0  0  0  0999 V2000
  -20.0830  -25.3160   21.1270 C   0  0  0  0  0  1  0  0  0  0  0  0
  -20.5600  -27.2660   20.5730 C   0  0  0  0  0  1  0  0  0  0  0  0
  -18.8910  -25.1140   18.7050 C   0  0  0  0  0  3  0  0  0  0  0  0
  -19.5270  -24.2620   20.0580 C   0  0  0  0  0  3  0  0  0  0  0  0
  -20.2660  -27.8250   19.1880 C   0  0  0  0  0  3  0  0  0  0  0  0
  -19.2730  -26.7680   18.2500 C   0  0  0  0  0  0  0  0  0  0  0  0
  -20.7670  -22.8690   19.8530 C   0  0  0  0  0  0  0  0  0  0  0  0
  -20.1910  -21.7790   19.8910 O   0  0  0  0  0  0  0  0  0  0  0  0
  -22.6070  -22.5410   19.5430 C   0  0  0  0  0  3  0  0  0  0  0  0
  -23.8290  -21.4190   18.5010 C   0  0  0  0  0  3  0  0  0  0  0  0
  -25.7000  -20.8430   18.3850 C   0  0  0  0  0  3  0  0  0  0  0  0
  -26.8350  -19.2510   18.2550 C   0  0  0  0  0  3  0  0  0  0  0  0
  -28.6610  -18.5940   18.5360 C   0  0  0  0  0  3  0  0  0  0  0  0
  -29.6030  -17.0250   19.2120 C   0  0  0  0  0  3  0  0  0  0  0  0
  -31.1740  -16.1670   19.8510 C   0  0  0  0  0  0  0  0  0  0  0  0
  -32.0940  -13.7200   20.4820 C   0  0  0  0  0  2  0  0  0  0  0  0
  -31.5300  -12.6520   19.4880 C   0  0  0  0  0  2  0  0  0  0  0  0
  -30.0180  -12.4020   19.6950 C   0  0  0  0  0  2  0  0  0  0  0  0
  -29.2990  -13.7370   19.9870 C   0  0  0  0  0  3  0  0  0  0  0  0
  -29.9600  -14.4660   21.1520 C   0  0  0  0  0  2  0  0  0  0  0  0
  -31.1670  -14.9310   20.5550 N   0  0  0  0  0  0  0  0  0  0  0  0
  -32.3890  -16.4210   19.6040 O   0  0  0  0  0  0  0  0  0  0  0  0
  -26.9750  -14.6680   20.3430 C   0  0  0  0  0  0  0  0  0  0  0  0
  -25.7950  -14.0560   20.6250 C   0  0  0  0  0  0  0  0  0  0  0  0
  -26.0860  -12.6600   20.6910 C   0  0  0  0  0  0  0  0  0  0  0  0
  -27.9010  -13.6450   20.2540 N   0  0  0  0  0  0  0  0  0  0  0  0
  -27.3780  -12.4360   20.5350 N   0  0  0  0  0  0  0  0  0  0  0  0
  -25.1960  -11.5130   20.8060 C   0  0  0  0  0  0  0  0  0  0  0  0
  -25.4190  -10.5000   21.7610 C   0  0  0  0  0  3  0  0  0  0  0  0
  -24.5300   -9.4110   21.8540 C   0  0  0  0  0  3  0  0  0  0  0  0
  -23.4110   -9.3350   20.9920 C   0  0  0  0  0  0  0  0  0  0  0  0
  -23.2140  -10.3360   20.0250 C   0  0  0  0  0  3  0  0  0  0  0  0
  -24.1020  -11.4160   19.9280 C   0  0  0  0  0  3  0  0  0  0  0  0
  -22.5050   -8.3050   20.9970 O   0  0  0  0  0  0  0  0  0  0  0  0
  -22.1540   -7.6680   22.1580 C   0  0  0  0  0  0  0  0  0  0  0  0
  -21.6520   -8.3730   23.2750 C   0  0  0  0  0  3  0  0  0  0  0  0
  -21.2370   -7.6680   24.4220 C   0  0  0  0  0  3  0  0  0  0  0  0
  -21.3160   -6.2620   24.4520 C   0  0  0  0  0  0  0  0  0  0  0  0
  -21.8130   -5.5600   23.3400 C   0  0  0  0  0  3  0  0  0  0  0  0
  -22.2280   -6.2620   22.1950 C   0  0  0  0  0  0  0  0  0  0  0  0
  -22.6870   -5.5820   21.1170 F   0  0  0  0  0  0  0  0  0  0  0  0
  -20.9100   -5.5830   25.5500 F   0  0  0  0  0  0  0  0  0  0  0  0
  -24.4610  -14.7280   20.7070 C   0  0  0  0  0  0  0  0  0  0  0  0
  -23.5840  -14.2330   21.5700 N   0  0  0  0  0  0  0  0  0  0  0  0
  -24.2100  -15.7310   20.0400 O   0  0  0  0  0  0  0  0  0  0  0  0
  -23.8020  -13.4230   22.1310 H   0  0  0  0  0  0  0  0  0  0  0  0
  -22.6780  -14.6700   21.6710 H   0  0  0  0  0  0  0  0  0  0  0  0
  -27.2980  -15.9990   20.1210 N   0  0  0  0  0  0  0  0  0  0  0  0
  -26.5880  -16.7220   20.1230 H   0  0  0  0  0  0  0  0  0  0  0  0
  -28.2050  -16.3430   19.8380 H   0  0  0  0  0  0  0  0  0  0  0  0
  -17.8920  -26.6290   16.3190 C   0  0  0  0  0  1  0  0  0  0  0  0
  -19.0070  -27.2130   16.9790 O   0  0  0  0  0  0  0  0  0  0  0  0
  -21.9590  -28.3120   19.0540 C   0  0  0  0  0  2  0  0  0  0  0  0
  -23.3440  -28.3460   20.2880 C   0  0  0  0  0  2  0  0  0  0  0  0
  -24.6710  -27.3930   21.1790 C   0  0  0  0  0  2  0  0  0  0  0  0
  -26.2880  -27.3640   21.7440 O   0  0  0  0  0  0  0  0  0  0  0  0
  -28.4130  -32.1420   25.2940 C   0  0  0  0  0  0  0  0  0  0  0  0
  -27.4340  -27.9090   21.1660 C   0  0  0  0  0  3  0  0  0  0  0  0
  -26.4280  -31.8470   23.9010 C   0  0  0  0  0  3  0  0  0  0  0  0
  -26.7390  -30.4500   21.7380 C   0  0  0  0  0  3  0  0  0  0  0  0
  -28.7020  -30.9780   23.1200 C   0  0  0  0  0  2  0  0  0  0  0  0
  -27.9270  -29.9870   22.2850 C   0  0  0  0  0  0  0  0  0  0  0  0
  -28.3290  -28.6680   21.9800 C   0  0  0  0  0  3  0  0  0  0  0  0
  -26.8300  -28.5900   20.1540 C   0  0  0  0  0  2  0  0  0  0  0  0
  -26.3000  -29.8310   20.5510 C   0  0  0  0  0  2  0  0  0  0  0  0
  -26.1050  -31.6700   22.3790 C   0  0  0  0  0  2  0  0  0  0  0  0
  -27.8880  -31.6970   24.1260 N   0  0  0  0  0  0  0  0  0  0  0  0
  -27.7120  -32.7180   26.1420 O   0  0  0  0  0  0  0  0  0  0  0  0
  -25.7330  -30.9140   24.9270 C   0  0  0  0  0  0  0  0  0  0  0  0
  -24.4180  -30.7230   24.8830 N   0  0  0  0  0  0  0  0  0  0  0  0
  -26.3750  -30.4660   25.8760 O   0  0  0  0  0  0  0  0  0  0  0  0
  -23.8600  -31.1770   24.1750 H   0  0  0  0  0  0  0  0  0  0  0  0
  -22.4560  -27.4490   23.8630 C   0  0  0  0  0  3  0  0  0  0  0  0
  -23.7960  -29.6410   25.6700 C   0  0  0  0  0  2  0  0  0  0  0  0
  -25.3860  -28.6010   26.3470 C   0  0  0  0  0  1  0  0  0  0  0  0
  -26.0290  -26.8740   25.7000 C   0  0  0  0  0  2  0  0  0  0  0  0
  -25.1040  -25.8430   24.5050 C   0  0  0  0  0  1  0  0  0  0  0  0
  -22.4530  -28.9760   24.5640 C   0  0  0  0  0  0  0  0  0  0  0  0
  -21.5690  -30.0150   24.1680 C   0  0  0  0  0  3  0  0  0  0  0  0
  -20.5460  -29.8110   23.2430 C   0  0  0  0  0  3  0  0  0  0  0  0
  -20.4020  -28.5210   22.6960 C   0  0  0  0  0  3  0  0  0  0  0  0
  -21.2970  -27.4140   22.9660 C   0  0  0  0  0  3  0  0  0  0  0  0
  -29.9230  -31.9800   25.5900 C   0  0  0  0  0  3  0  0  0  0  0  0
  -30.2590  -30.7000   26.4460 C   0  0  1  0  0  0  0  0  0  0  0  0
  -29.3500  -30.5180   27.6830 C   0  0  0  0  0  1  0  0  0  0  0  0
  -30.1580  -29.4060   25.6050 C   0  0  0  0  0  1  0  0  0  0  0  0
  -31.7250  -30.7900   26.9300 C   0  0  0  0  0  1  0  0  0  0  0  0
  -30.3270  -33.2030   26.2860 N   0  0  0  0  0  0  0  0  0  0  0  0
  -30.8220  -34.2860   25.6780 C   0  0  0  0  0  0  0  0  0  0  0  0
  -31.0800  -34.3180   24.4720 O   0  0  0  0  0  0  0  0  0  0  0  0
  -30.0960  -33.2650   27.2670 H   0  0  0  0  0  0  0  0  0  0  0  0
  -29.9660  -36.5600   26.3290 C   0  0  0  0  0  1  0  0  0  0  0  0
  -31.0810  -35.5270   26.5520 C   0  0  0  0  0  3  0  0  0  0  0  0
  -33.5140  -35.3660   26.8350 C   0  0  0  0  0  1  0  0  0  0  0  0
  -32.3990  -36.1480   26.3050 N   0  0  0  0  0  0  0  0  0  0  0  0
  -32.4410  -37.0770   26.7150 H   0  0  0  0  0  0  0  0  0  0  0  0
  3  4  1  0
  4  1  1  0
  5  2  1  0
  6  3  2  0
  6  5  1  0
  7  8  2  0
  7  4  1  0
  9  7  1  0
 10  9  2  0
 11 10  1  0
 12 11  2  0
 12 13  1  0
 13 14  2  0
 14 15  1  0
 15 21  1  0
 16 21  1  0
 17 18  1  0
 17 16  1  0
 19 18  1  0
 19 26  1  0
 19 20  1  0
 21 20  1  0
 22 15  2  0
 23 24  2  0
 24 25  1  0
 24 43  1  0
 25 28  1  0
 26 23  1  0
 26 27  1  0
 27 25  2  0
 28 29  1  0
 29 30  2  0
 31 34  1  0
 31 30  1  0
 32 31  2  0
 33 32  1  0
 33 28  2  0
 34 35  1  0
 35 40  2  0
 35 36  1  0
 36 37  2  0
 37 38  1  0
 38 42  1  0
 39 38  2  0
 40 39  1  0
 41 40  1  0
 43 44  1  0
 44 47  1  0
 44 46  1  0
 45 43  2  0
 48 49  1  0
 48 23  1  0
 50 48  1  0
 51 52  1  0
 52  6  1  0
 53  5  1  0
 53 54  1  0
 54 55  1  0
 55 56  1  0
 57 68  2  0
 58 56  1  0
 58 63  1  0
 59 67  1  0
 59 69  1  0
 60 65  1  0
 60 62  1  0
 60 66  1  0
 61 67  1  0
 62 61  1  0
 63 62  2  0
 64 65  1  0
 64 58  1  0
 66 59  1  0
 67 57  1  0
 69 71  2  0
 70 69  1  0
 70 74  1  0
 72 70  1  0
 73 78  1  0
 76 75  1  0
 77 76  1  0
 78 74  1  0
 79 78  2  0
 80 79  1  0
 81 82  1  0
 81 80  2  0
 82 73  2  0
 83 57  1  0
 83 88  1  0
 83 84  1  0
 84 87  1  1
 84 85  1  0
 86 84  1  0
 88 91  1  0
 89 88  1  0
 89 93  1  0
 90 89  2  0
 93 92  1  0
 95 93  1  0
 95 96  1  0
 95 94  1  0
M  ISO  4  14 100  15 100  55 101  56 101
M  END
>  <TORSDO>  (1) 
F 27

>  <SCORE>  (1) 
-6.698

>  <name>  (1) 
0

>  <ligand_id>  (1) 
0

>  <original_smiles>  (1) 
[H]c1c([H])c([H])c2c(c1[H])C([H])([H])C([H])([H])C([H])([H])C2([H])N([H])C(=O)C1([H])N(C(=O)C([H])(N([H])C(=O)C([H])(N([H])C([H])([H])[H])C([H])([H])[H])C(C([H])([H])[H])(C([H])([H])[H])C([H])([H])[H])C([H])([H])c2c([H])c(OC([H])([H])C([H])([H])C([H])([H])c3c([H])c([H])c(C(=O)C([H])([H])C([H])([H])C([H])([H])C([H])([H])C([H])([H])C([H])([H])C(=O)N4C([H])([H])C([H])([H])C([H])([H])C([H])(n5nc(-c6c([H])c([H])c(Oc7c([H])c([H])c(F)c([H])c7F)c([H])c6[H])c(C(=O)N([H])[H])c5N([H])[H])C4([H])[H])c([H])c3OC([H])([H])[H])c([H])c([H])c2C1([H])[H]

>  <smiles>  (1) 
[H]c1c([H])c([H])c2c(c1[H])C([H])([H])C([H])([H])C([H])([H])C2([H])N([H])C(=O)C1([H])N(C(=O)C([H])(N([H])C(=O)C([H])(N([H])C([H])([H])[H])C([H])([H])[H])C(C([H])([H])[H])(C([H])([H])[H])C([H])([H])[H])C([H])([H])c2c([H])c(OC([H])([H])C([H])([H])C([H])([H])c3c([H])c([H])c(C(=O)C([H])([H])C([H])([H])C([H])([H])C([H])([H])C([H])([H])C([H])([H])C(=O)N4C([H])([H])C([H])([H])C([H])([H])C([H])(n5nc(-c6c([H])c([H])c(Oc7c([H])c([H])c(F)c([H])c7F)c([H])c6[H])c(C(=O)N([H])[H])c5N([H])[H])C4([H])[H])c([H])c3OC([H])([H])[H])c([H])c([H])c2C1([H])[H]

$$$$
1:0:0
     RDKit          3D

 92100  0  0  1  0  0  0  0  0999 V2000
  -25.8650  -23.0780   21.3720 C   0  0  0  0  0  3  0  0  0  0  0  0
  -26.4970  -21.8690   21.7060 C   0  0  0  0  0  3  0  0  0  0  0  0
  -26.6290  -24.1460   20.8740 C   0  0  0  0  0  3  0  0  0  0  0  0
  -27.8860  -21.7330   21.5400 C   0  0  0  0  0  3  0  0  0  0  0  0
  -28.0260  -24.0250   20.6870 C   0  0  0  0  0  0  0  0  0  0  0  0
  -28.6740  -22.7980   21.0310 C   0  0  0  0  0  0  0  0  0  0  0  0
  -28.7650  -25.2400   20.2140 C   0  0  0  0  0  0  0  0  0  0  0  0
  -29.8080  -25.6470   20.7380 O   0  0  0  0  0  0  0  0  0  0  0  0
  -28.1990  -25.9810   18.9910 C   0  0  0  0  0  2  0  0  0  0  0  0
  -28.1680  -27.3960   19.2280 O   0  0  0  0  0  0  0  0  0  0  0  0
  -24.6870  -31.9970   23.3730 C   0  0  0  0  0  0  0  0  0  0  0  0
  -26.9680  -28.0420   19.4520 C   0  0  0  0  0  0  0  0  0  0  0  0
  -23.3040  -30.8250   21.6900 C   0  0  0  0  0  3  0  0  0  0  0  0
  -24.5900  -29.5060   19.9290 C   0  0  0  0  0  0  0  0  0  0  0  0
  -25.7980  -31.2250   21.2820 C   0  0  0  0  0  2  0  0  0  0  0  0
  -25.8050  -29.9530   20.4590 C   0  0  0  0  0  0  0  0  0  0  0  0
  -26.9920  -29.2270   20.2190 C   0  0  0  0  0  3  0  0  0  0  0  0
  -25.7300  -27.6090   18.9160 C   0  0  0  0  0  3  0  0  0  0  0  0
  -24.5470  -28.3330   19.1570 C   0  0  0  0  0  3  0  0  0  0  0  0
  -23.3630  -30.3410   20.2180 C   0  0  0  0  0  2  0  0  0  0  0  0
  -24.6210  -31.3550   22.1730 N   0  0  0  0  0  0  0  0  0  0  0  0
  -23.6700  -32.1860   24.0550 O   0  0  0  0  0  0  0  0  0  0  0  0
  -22.7500  -29.6780   22.5640 C   0  0  0  0  0  0  0  0  0  0  0  0
  -21.4360  -29.4250   22.4550 N   0  0  0  0  0  0  0  0  0  0  0  0
  -23.4970  -29.0190   23.2920 O   0  0  0  0  0  0  0  0  0  0  0  0
  -20.8920  -30.0120   21.8380 H   0  0  0  0  0  0  0  0  0  0  0  0
  -18.1940  -27.8690   22.7840 C   0  0  0  0  0  0  0  0  0  0  0  0
  -20.7030  -28.3700   23.1530 C   0  0  0  0  0  3  0  0  0  0  0  0
  -20.9700  -26.9890   22.5100 C   0  0  0  0  0  2  0  0  0  0  0  0
  -19.9350  -26.6110   21.4460 C   0  0  0  0  0  2  0  0  0  0  0  0
  -18.5280  -26.5810   22.0510 C   0  0  0  0  0  2  0  0  0  0  0  0
  -19.2150  -28.7170   23.2880 C   0  0  0  0  0  0  0  0  0  0  0  0
  -18.8510  -29.9200   23.9310 C   0  0  0  0  0  3  0  0  0  0  0  0
  -17.4970  -30.2760   24.0780 C   0  0  0  0  0  3  0  0  0  0  0  0
  -16.4900  -29.4250   23.5920 C   0  0  0  0  0  3  0  0  0  0  0  0
  -16.8390  -28.2240   22.9490 C   0  0  0  0  0  3  0  0  0  0  0  0
  -26.0340  -32.5450   23.9360 C   0  0  0  0  0  3  0  0  0  0  0  0
  -25.7890  -33.9060   24.4270 N   0  0  0  0  0  0  0  0  0  0  0  0
  -26.1100  -35.0240   23.7620 C   0  0  0  0  0  0  0  0  0  0  0  0
  -26.7160  -35.0140   22.6870 O   0  0  0  0  0  0  0  0  0  0  0  0
  -25.2460  -33.9900   25.2730 H   0  0  0  0  0  0  0  0  0  0  0  0
  -24.4190  -36.8830   23.6950 C   0  0  0  0  0  1  0  0  0  0  0  0
  -25.6890  -36.3680   24.3880 C   0  0  0  0  0  3  0  0  0  0  0  0
  -27.8930  -37.1050   25.1790 C   0  0  0  0  0  1  0  0  0  0  0  0
  -26.7450  -37.4020   24.3260 N   0  0  0  0  0  0  0  0  0  0  0  0
  -26.3770  -38.3100   24.5950 H   0  0  0  0  0  0  0  0  0  0  0  0
  -26.6450  -31.6410   25.0750 C   0  0  1  0  0  0  0  0  0  0  0  0
  -25.6470  -31.3160   26.2110 C   0  0  0  0  0  1  0  0  0  0  0  0
  -27.1520  -30.3010   24.4920 C   0  0  0  0  0  1  0  0  0  0  0  0
  -27.8720  -32.3440   25.7020 C   0  0  0  0  0  1  0  0  0  0  0  0
  -30.1940  -22.6260   20.8690 C   0  0  0  0  0  2  0  0  0  0  0  0
  -30.8240  -21.3090   21.3760 C   0  0  0  0  0  2  0  0  0  0  0  0
  -30.5740  -20.0770   20.4830 C   0  0  0  0  0  2  0  0  0  0  0  0
  -30.8260  -18.7610   21.2400 C   0  0  0  0  0  2  0  0  0  0  0  0
  -30.9480  -17.5280   20.3260 C   0  0  0  0  0  2  0  0  0  0  0  0
  -30.7930  -16.1960   21.0990 C   0  0  0  0  0  2  0  0  0  0  0  0
  -31.3800  -14.9790   20.3510 C   0  0  0  0  0  0  0  0  0  0  0  0
  -31.1460  -12.7000   19.4270 C   0  0  0  0  0  2  0  0  0  0  0  0
  -30.2400  -12.7240   18.1800 C   0  0  0  0  0  2  0  0  0  0  0  0
  -28.7530  -12.6210   18.5700 C   0  0  0  0  0  2  0  0  0  0  0  0
  -28.3620  -13.6080   19.7030 C   0  0  0  0  0  3  0  0  0  0  0  0
  -29.3780  -13.5250   20.8640 C   0  0  0  0  0  2  0  0  0  0  0  0
  -30.7160  -13.7920   20.3140 N   0  0  0  0  0  0  0  0  0  0  0  0
  -32.4600  -15.1360   19.7730 O   0  0  0  0  0  0  0  0  0  0  0  0
  -25.9800  -14.2940   20.4060 C   0  0  0  0  0  0  0  0  0  0  0  0
  -24.8780  -13.5540   20.7410 C   0  0  0  0  0  0  0  0  0  0  0  0
  -25.2820  -12.1860   20.6660 C   0  0  0  0  0  0  0  0  0  0  0  0
  -26.9920  -13.3780   20.1600 N   0  0  0  0  0  0  0  0  0  0  0  0
  -26.5730  -12.1030   20.3670 N   0  0  0  0  0  0  0  0  0  0  0  0
  -24.5030  -10.9490   20.8080 C   0  0  0  0  0  0  0  0  0  0  0  0
  -24.8510   -9.9620   21.7570 C   0  0  0  0  0  3  0  0  0  0  0  0
  -24.0760   -8.7890   21.8880 C   0  0  0  0  0  3  0  0  0  0  0  0
  -22.9380   -8.5970   21.0700 C   0  0  0  0  0  0  0  0  0  0  0  0
  -22.6080   -9.5730   20.1120 C   0  0  0  0  0  3  0  0  0  0  0  0
  -23.3840  -10.7360   19.9790 C   0  0  0  0  0  3  0  0  0  0  0  0
  -22.1400   -7.4790   21.1090 O   0  0  0  0  0  0  0  0  0  0  0  0
  -21.9410   -6.7780   22.2720 C   0  0  0  0  0  0  0  0  0  0  0  0
  -21.4050   -7.3880   23.4270 C   0  0  0  0  0  3  0  0  0  0  0  0
  -21.1510   -6.6150   24.5770 C   0  0  0  0  0  3  0  0  0  0  0  0
  -21.4220   -5.2330   24.5730 C   0  0  0  0  0  0  0  0  0  0  0  0
  -21.9490   -4.6230   23.4210 C   0  0  0  0  0  3  0  0  0  0  0  0
  -22.2040   -5.3940   22.2730 C   0  0  0  0  0  0  0  0  0  0  0  0
  -22.6930   -4.7970   21.1580 F   0  0  0  0  0  0  0  0  0  0  0  0
  -21.1710   -4.4890   25.6750 F   0  0  0  0  0  0  0  0  0  0  0  0
  -23.4980  -14.0780   21.0230 C   0  0  0  0  0  0  0  0  0  0  0  0
  -22.7430  -13.3910   21.8730 N   0  0  0  0  0  0  0  0  0  0  0  0
  -23.0990  -15.1300   20.5240 O   0  0  0  0  0  0  0  0  0  0  0  0
  -23.0790  -12.5400   22.2980 H   0  0  0  0  0  0  0  0  0  0  0  0
  -21.8170  -13.7230   22.1030 H   0  0  0  0  0  0  0  0  0  0  0  0
  -26.2010  -15.6610   20.2750 N   0  0  0  0  0  0  0  0  0  0  0  0
  -25.4620  -16.3450   20.4050 H   0  0  0  0  0  0  0  0  0  0  0  0
  -27.0800  -16.0760   19.9890 H   0  0  0  0  0  0  0  0  0  0  0  0
  1  2  1  0
  3  1  2  0
  4  2  2  0
  5  3  1  0
  5  6  2  0
  6  4  1  0
  7  5  1  0
  7  8  2  0
  9 10  1  0
  9  7  1  0
 10 12  1  0
 11 22  2  0
 12 17  1  0
 13 21  1  0
 13 23  1  0
 14 20  1  0
 14 16  1  0
 15 21  1  0
 16 15  1  0
 17 16  2  0
 18 19  1  0
 18 12  2  0
 19 14  2  0
 20 13  1  0
 21 11  1  0
 23 25  2  0
 24 23  1  0
 26 24  1  0
 27 36  2  0
 27 32  1  0
 28 24  1  0
 28 32  1  0
 29 28  1  0
 30 31  1  0
 30 29  1  0
 31 27  1  0
 32 33  2  0
 33 34  1  0
 35 34  2  0
 36 35  1  0
 37 11  1  0
 37 38  1  0
 37 47  1  0
 38 41  1  0
 39 43  1  0
 39 38  1  0
 40 39  2  0
 43 42  1  0
 45 43  1  0
 45 46  1  0
 45 44  1  0
 47 50  1  1
 47 48  1  0
 49 47  1  0
 51  6  1  0
 51 52  1  0
 53 54  1  0
 53 52  1  0
 55 56  1  0
 55 54  1  0
 57 56  1  0
 58 63  1  0
 59 60  1  0
 59 58  1  0
 61 60  1  0
 61 68  1  0
 61 62  1  0
 63 57  1  0
 63 62  1  0
 64 57  2  0
 65 66  2  0
 66 85  1  0
 67 66  1  0
 67 70  1  0
 68 69  1  0
 68 65  1  0
 69 67  2  0
 70 71  1  0
 71 72  2  0
 73 76  1  0
 73 72  1  0
 74 73  2  0
 75 74  1  0
 75 70  2  0
 76 77  1  0
 77 82  2  0
 77 78  1  0
 78 79  2  0
 80 79  1  0
 80 84  1  0
 81 80  2  0
 82 81  1  0
 83 82  1  0
 85 86  1  0
 86 89  1  0
 86 88  1  0
 87 85  2  0
 90 91  1  0
 90 65  1  0
 92 90  1  0
M  ISO  4   9 101  10 101  56 100  57 100
M  END
>  <TORSDO>  (2) 
F 24

>  <SCORE>  (2) 
-9.392

>  <name>  (2) 
1

>  <ligand_id>  (2) 
1

>  <original_smiles>  (2) 
[H]c1c([H])c([H])c(C([H])([H])C([H])([H])C([H])([H])C([H])([H])C([H])([H])C([H])([H])C(=O)N2C([H])([H])C([H])([H])C([H])([H])C([H])(n3nc(-c4c([H])c([H])c(Oc5c([H])c([H])c(F)c([H])c5F)c([H])c4[H])c(C(=O)N([H])[H])c3N([H])[H])C2([H])[H])c(C(=O)C([H])([H])Oc2c([H])c([H])c3c(c2[H])C([H])([H])N(C(=O)C([H])(N([H])C(=O)C([H])(N([H])C([H])([H])[H])C([H])([H])[H])C(C([H])([H])[H])(C([H])([H])[H])C([H])([H])[H])C([H])(C(=O)N([H])C2([H])c4c([H])c([H])c([H])c([H])c4C([H])([H])C([H])([H])C2([H])[H])C3([H])[H])c1[H]

>  <smiles>  (2) 
[H]c1c([H])c([H])c(C([H])([H])C([H])([H])C([H])([H])C([H])([H])C([H])([H])C([H])([H])C(=O)N2C([H])([H])C([H])([H])C([H])([H])C([H])(n3nc(-c4c([H])c([H])c(Oc5c([H])c([H])c(F)c([H])c5F)c([H])c4[H])c(C(=O)N([H])[H])c3N([H])[H])C2([H])[H])c(C(=O)C([H])([H])Oc2c([H])c([H])c3c(c2[H])C([H])([H])N(C(=O)C([H])(N([H])C(=O)C([H])(N([H])C([H])([H])[H])C([H])([H])[H])C(C([H])([H])[H])(C([H])([H])[H])C([H])([H])[H])C([H])(C(=O)N([H])C2([H])c4c([H])c([H])c([H])c([H])c4C([H])([H])C([H])([H])C2([H])[H])C3([H])[H])c1[H]

$$$$
2:0:0
     RDKit          3D

 94103  0  0  1  0  0  0  0  0999 V2000
  -27.1550  -21.3220   19.9420 C   0  0  0  0  0  3  0  0  0  0  0  0
  -27.0260  -22.3460   20.9040 C   0  0  0  0  0  3  0  0  0  0  0  0
  -29.2880  -22.2620   19.1770 C   0  0  0  0  0  3  0  0  0  0  0  0
  -28.2950  -21.2530   19.0960 C   0  0  0  0  0  0  0  0  0  0  0  0
  -28.0430  -23.3120   20.9880 C   0  0  0  0  0  0  0  0  0  0  0  0
  -29.1380  -23.2780   20.1360 C   0  0  0  0  0  0  0  0  0  0  0  0
  -28.1040  -24.4800   21.9320 C   0  0  0  0  0  2  0  0  0  0  0  0
  -30.0680  -24.4360   20.3740 C   0  0  0  0  0  2  0  0  0  0  0  0
  -29.4250  -25.2110   21.5580 C   0  0  0  0  0  3  0  0  0  0  0  0
  -28.3940  -20.1450   18.1100 C   0  0  0  0  0  0  0  0  0  0  0  0
  -27.4020  -19.5920   17.6260 O   0  0  0  0  0  0  0  0  0  0  0  0
  -29.7960  -19.6450   17.7350 C   0  0  0  0  0  2  0  0  0  0  0  0
  -29.9850  -18.1370   17.9920 C   0  0  0  0  0  2  0  0  0  0  0  0
  -30.3170  -17.7760   19.4590 C   0  0  0  0  0  2  0  0  0  0  0  0
  -29.4300  -16.6460   20.0190 C   0  0  0  0  0  2  0  0  0  0  0  0
  -30.0870  -15.7700   21.1140 C   0  0  0  0  0  2  0  0  0  0  0  0
  -30.7770  -14.5350   20.5030 C   0  0  0  0  0  0  0  0  0  0  0  0
  -30.4850  -12.3910   19.3320 C   0  0  0  0  0  2  0  0  0  0  0  0
  -29.5660  -12.6170   18.1130 C   0  0  0  0  0  2  0  0  0  0  0  0
  -28.0790  -12.4930   18.5080 C   0  0  0  0  0  2  0  0  0  0  0  0
  -27.7250  -13.3200   19.7730 C   0  0  0  0  0  3  0  0  0  0  0  0
  -28.7580  -13.0660   20.8920 C   0  0  0  0  0  2  0  0  0  0  0  0
  -30.1000  -13.3640   20.3640 N   0  0  0  0  0  0  0  0  0  0  0  0
  -31.9050  -14.7060   20.0320 O   0  0  0  0  0  0  0  0  0  0  0  0
  -25.3120  -13.9540   20.4120 C   0  0  0  0  0  0  0  0  0  0  0  0
  -24.2340  -13.1920   20.7760 C   0  0  0  0  0  0  0  0  0  0  0  0
  -24.6920  -11.8390   20.7830 C   0  0  0  0  0  0  0  0  0  0  0  0
  -26.3590  -13.0630   20.2240 N   0  0  0  0  0  0  0  0  0  0  0  0
  -25.9880  -11.7890   20.5020 N   0  0  0  0  0  0  0  0  0  0  0  0
  -23.9620  -10.5820   20.9860 C   0  0  0  0  0  0  0  0  0  0  0  0
  -24.3860   -9.6280   21.9370 C   0  0  0  0  0  3  0  0  0  0  0  0
  -23.6590   -8.4330   22.1260 C   0  0  0  0  0  3  0  0  0  0  0  0
  -22.4920   -8.1850   21.3640 C   0  0  0  0  0  0  0  0  0  0  0  0
  -22.0880   -9.1270   20.4020 C   0  0  0  0  0  3  0  0  0  0  0  0
  -22.8160  -10.3140   20.2110 C   0  0  0  0  0  3  0  0  0  0  0  0
  -21.7350   -7.0430   21.4610 O   0  0  0  0  0  0  0  0  0  0  0  0
  -21.6860   -6.3090   22.6180 C   0  0  0  0  0  0  0  0  0  0  0  0
  -21.2760   -6.8770   23.8450 C   0  0  0  0  0  3  0  0  0  0  0  0
  -21.1740   -6.0690   24.9950 C   0  0  0  0  0  3  0  0  0  0  0  0
  -21.4700   -4.6960   24.9210 C   0  0  0  0  0  0  0  0  0  0  0  0
  -21.8740   -4.1270   23.7000 C   0  0  0  0  0  3  0  0  0  0  0  0
  -21.9790   -4.9320   22.5520 C   0  0  0  0  0  0  0  0  0  0  0  0
  -22.3490   -4.3760   21.3740 F   0  0  0  0  0  0  0  0  0  0  0  0
  -21.3650   -3.9180   26.0250 F   0  0  0  0  0  0  0  0  0  0  0  0
  -22.8320  -13.6760   21.0120 C   0  0  0  0  0  0  0  0  0  0  0  0
  -22.0860  -12.9970   21.8770 N   0  0  0  0  0  0  0  0  0  0  0  0
  -22.4050  -14.6910   20.4650 O   0  0  0  0  0  0  0  0  0  0  0  0
  -22.4420  -12.1730   22.3400 H   0  0  0  0  0  0  0  0  0  0  0  0
  -21.1450  -13.3050   22.0790 H   0  0  0  0  0  0  0  0  0  0  0  0
  -25.4870  -15.3200   20.2090 N   0  0  0  0  0  0  0  0  0  0  0  0
  -24.7270  -15.9870   20.2950 H   0  0  0  0  0  0  0  0  0  0  0  0
  -26.3530  -15.7440   19.9020 H   0  0  0  0  0  0  0  0  0  0  0  0
  -29.2050  -26.7020   21.2550 C   0  0  0  0  0  2  0  0  0  0  0  0
  -28.4330  -26.8020   20.0600 O   0  0  0  0  0  0  0  0  0  0  0  0
  -24.6180  -31.9150   23.2240 C   0  0  0  0  0  0  0  0  0  0  0  0
  -27.2770  -27.5340   20.1240 C   0  0  0  0  0  0  0  0  0  0  0  0
  -23.4030  -30.5040   21.5880 C   0  0  0  0  0  3  0  0  0  0  0  0
  -24.8580  -28.9770   20.1540 C   0  0  0  0  0  0  0  0  0  0  0  0
  -25.9150  -30.8970   21.3630 C   0  0  0  0  0  2  0  0  0  0  0  0
  -26.0080  -29.5270   20.7320 C   0  0  0  0  0  0  0  0  0  0  0  0
  -27.2210  -28.8130   20.7230 C   0  0  0  0  0  3  0  0  0  0  0  0
  -26.1190  -26.9930   19.5360 C   0  0  0  0  0  3  0  0  0  0  0  0
  -24.9040  -27.7050   19.5560 C   0  0  0  0  0  3  0  0  0  0  0  0
  -23.6020  -29.8180   20.2090 C   0  0  0  0  0  2  0  0  0  0  0  0
  -24.6630  -31.1190   22.1180 N   0  0  0  0  0  0  0  0  0  0  0  0
  -23.5410  -32.1770   23.7770 O   0  0  0  0  0  0  0  0  0  0  0  0
  -22.7690  -29.4800   22.5560 C   0  0  0  0  0  0  0  0  0  0  0  0
  -21.4450  -29.2860   22.4350 N   0  0  0  0  0  0  0  0  0  0  0  0
  -23.4630  -28.8600   23.3670 O   0  0  0  0  0  0  0  0  0  0  0  0
  -20.9490  -29.8350   21.7470 H   0  0  0  0  0  0  0  0  0  0  0  0
  -18.0870  -28.0660   22.9440 C   0  0  0  0  0  0  0  0  0  0  0  0
  -20.6410  -28.3450   23.2100 C   0  0  0  0  0  3  0  0  0  0  0  0
  -20.7570  -26.9140   22.6370 C   0  0  0  0  0  2  0  0  0  0  0  0
  -19.6560  -26.5780   21.6260 C   0  0  0  0  0  2  0  0  0  0  0  0
  -18.2730  -26.7160   22.2710 C   0  0  0  0  0  2  0  0  0  0  0  0
  -19.1990  -28.8380   23.3700 C   0  0  0  0  0  0  0  0  0  0  0  0
  -18.9720  -30.1040   23.9530 C   0  0  0  0  0  3  0  0  0  0  0  0
  -17.6630  -30.5960   24.1190 C   0  0  0  0  0  3  0  0  0  0  0  0
  -16.5650  -29.8190   23.7110 C   0  0  0  0  0  3  0  0  0  0  0  0
  -16.7780  -28.5570   23.1300 C   0  0  0  0  0  3  0  0  0  0  0  0
  -25.9090  -32.5490   23.8320 C   0  0  0  0  0  3  0  0  0  0  0  0
  -25.6010  -33.9460   24.1620 N   0  0  0  0  0  0  0  0  0  0  0  0
  -25.9270  -34.9970   23.3960 C   0  0  0  0  0  0  0  0  0  0  0  0
  -26.5910  -34.8920   22.3610 O   0  0  0  0  0  0  0  0  0  0  0  0
  -25.0180  -34.1030   24.9690 H   0  0  0  0  0  0  0  0  0  0  0  0
  -24.1920  -36.7800   23.0390 C   0  0  0  0  0  1  0  0  0  0  0  0
  -25.4370  -36.3840   23.8500 C   0  0  0  0  0  3  0  0  0  0  0  0
  -27.5720  -37.2760   24.6700 C   0  0  0  0  0  1  0  0  0  0  0  0
  -26.4650  -37.4410   23.7310 N   0  0  0  0  0  0  0  0  0  0  0  0
  -26.0560  -38.3590   23.8840 H   0  0  0  0  0  0  0  0  0  0  0  0
  -26.4430  -31.7790   25.1010 C   0  0  1  0  0  0  0  0  0  0  0  0
  -25.3640  -31.5350   26.1810 C   0  0  0  0  0  1  0  0  0  0  0  0
  -27.0260  -30.4030   24.7000 C   0  0  0  0  0  1  0  0  0  0  0  0
  -27.5980  -32.5740   25.7550 C   0  0  0  0  0  1  0  0  0  0  0  0
  1  2  1  0
  2  5  2  0
  3  6  2  0
  4  3  1  0
  4  1  2  0
  5  7  1  0
  6  8  1  0
  6  5  1  0
  8  9  1  0
  9 53  1  0
  9  7  1  0
 10  4  1  0
 11 10  2  0
 12 13  1  0
 12 10  1  0
 13 14  1  0
 14 15  1  0
 15 16  1  0
 17 16  1  0
 18 23  1  0
 19 20  1  0
 19 18  1  0
 21 20  1  0
 21 28  1  0
 21 22  1  0
 23 17  1  0
 23 22  1  0
 24 17  2  0
 25 26  2  0
 26 27  1  0
 26 45  1  0
 27 30  1  0
 28 25  1  0
 28 29  1  0
 29 27  2  0
 30 31  1  0
 31 32  2  0
 33 36  1  0
 33 32  1  0
 34 33  2  0
 35 34  1  0
 35 30  2  0
 36 37  1  0
 37 38  1  0
 38 39  2  0
 40 39  1  0
 40 44  1  0
 41 40  2  0
 42 37  2  0
 42 41  1  0
 43 42  1  0
 45 46  1  0
 46 49  1  0
 46 48  1  0
 47 45  2  0
 50 51  1  0
 50 25  1  0
 52 50  1  0
 54 56  1  0
 54 53  1  0
 55 66  2  0
 56 61  1  0
 57 65  1  0
 57 67  1  0
 58 64  1  0
 58 60  1  0
 59 65  1  0
 60 59  1  0
 61 60  2  0
 62 63  1  0
 62 56  2  0
 63 58  2  0
 64 57  1  0
 65 55  1  0
 67 69  2  0
 68 67  1  0
 70 68  1  0
 71 80  2  0
 71 76  1  0
 72 68  1  0
 72 76  1  0
 73 72  1  0
 74 75  1  0
 74 73  1  0
 75 71  1  0
 76 77  2  0
 77 78  1  0
 79 78  2  0
 80 79  1  0
 81 55  1  0
 81 82  1  0
 81 91  1  0
 82 85  1  0
 83 87  1  0
 83 82  1  0
 84 83  2  0
 87 86  1  0
 89 87  1  0
 89 90  1  0
 89 88  1  0
 91 94  1  1
 91 92  1  0
 93 91  1  0
M  ISO  4  16 100  17 100  53 101  54 101
M  END
>  <TORSDO>  (3) 
F 23

>  <SCORE>  (3) 
-12.616

>  <name>  (3) 
2

>  <ligand_id>  (3) 
2

>  <original_smiles>  (3) 
[H]c1c([H])c([H])c2c(c1[H])C([H])([H])C([H])([H])C([H])([H])C2([H])N([H])C(=O)C1([H])N(C(=O)C([H])(N([H])C(=O)C([H])(N([H])C([H])([H])[H])C([H])([H])[H])C(C([H])([H])[H])(C([H])([H])[H])C([H])([H])[H])C([H])([H])c2c([H])c(OC([H])([H])C3([H])C([H])([H])c4c([H])c([H])c(C(=O)C([H])([H])C([H])([H])C([H])([H])C([H])([H])C([H])([H])C(=O)N5C([H])([H])C([H])([H])C([H])([H])C([H])(n6nc(-c7c([H])c([H])c(Oc8c([H])c([H])c(F)c([H])c8F)c([H])c7[H])c(C(=O)N([H])[H])c6N([H])[H])C5([H])[H])c([H])c4C3([H])[H])c([H])c([H])c2C1([H])[H]

>  <smiles>  (3) 
[H]c1c([H])c([H])c2c(c1[H])C([H])([H])C([H])([H])C([H])([H])C2([H])N([H])C(=O)C1([H])N(C(=O)C([H])(N([H])C(=O)C([H])(N([H])C([H])([H])[H])C([H])([H])[H])C(C([H])([H])[H])(C([H])([H])[H])C([H])([H])[H])C([H])([H])c2c([H])c(OC([H])([H])C3([H])C([H])([H])c4c([H])c([H])c(C(=O)C([H])([H])C([H])([H])C([H])([H])C([H])([H])C([H])([H])C(=O)N5C([H])([H])C([H])([H])C([H])([H])C([H])(n6nc(-c7c([H])c([H])c(Oc8c([H])c([H])c(F)c([H])c8F)c([H])c7[H])c(C(=O)N([H])[H])c6N([H])[H])C5([H])[H])c([H])c4C3([H])[H])c([H])c([H])c2C1([H])[H]

$$$$
3:0:0
     RDKit          3D

 94102  0  0  1  0  0  0  0  0999 V2000
  -29.7290  -23.6220   22.7510 C   0  0  0  0  0  3  0  0  0  0  0  0
  -31.1330  -24.4240   24.2990 C   0  0  0  0  0  3  0  0  0  0  0  0
  -30.7750  -23.2740   23.6490 C   0  0  0  0  0  0  0  0  0  0  0  0
  -29.4740  -24.9620   22.8590 C   0  0  0  0  0  0  0  0  0  0  0  0
  -30.3870  -26.8260   24.3190 C   0  0  0  0  0  1  0  0  0  0  0  0
  -30.3280  -25.4550   23.8380 N   0  0  0  0  0  0  0  0  0  0  0  0
  -31.4180  -21.9610   23.9050 C   0  0  0  0  0  0  0  0  0  0  0  0
  -32.4540  -21.8380   24.5650 O   0  0  0  0  0  0  0  0  0  0  0  0
  -30.7050  -20.7340   23.3340 C   0  0  0  0  0  2  0  0  0  0  0  0
  -30.9610  -20.5100   21.8290 C   0  0  0  0  0  2  0  0  0  0  0  0
  -31.8430  -19.2970   21.5030 C   0  0  0  0  0  2  0  0  0  0  0  0
  -31.1490  -17.9620   21.8150 C   0  0  0  0  0  2  0  0  0  0  0  0
  -31.8070  -16.7840   21.0870 C   0  0  0  0  0  2  0  0  0  0  0  0
  -30.9910  -15.4790   21.2050 C   0  0  0  0  0  2  0  0  0  0  0  0
  -31.4980  -14.3440   20.2990 C   0  0  0  0  0  0  0  0  0  0  0  0
  -31.1680  -12.1050   19.3110 C   0  0  0  0  0  2  0  0  0  0  0  0
  -30.2880  -12.1690   18.0510 C   0  0  0  0  0  2  0  0  0  0  0  0
  -28.7950  -12.1020   18.4240 C   0  0  0  0  0  2  0  0  0  0  0  0
  -28.4170  -13.1100   19.5420 C   0  0  0  0  0  3  0  0  0  0  0  0
  -29.4070  -13.0170   20.7240 C   0  0  0  0  0  2  0  0  0  0  0  0
  -30.7700  -13.2040   20.2010 N   0  0  0  0  0  0  0  0  0  0  0  0
  -32.5580  -14.5040   19.6830 O   0  0  0  0  0  0  0  0  0  0  0  0
  -26.0240  -13.8610   20.1320 C   0  0  0  0  0  0  0  0  0  0  0  0
  -24.9050  -13.1550   20.4880 C   0  0  0  0  0  0  0  0  0  0  0  0
  -25.2990  -11.7820   20.5220 C   0  0  0  0  0  0  0  0  0  0  0  0
  -27.0320  -12.9230   19.9770 N   0  0  0  0  0  0  0  0  0  0  0  0
  -26.5960  -11.6700   20.2640 N   0  0  0  0  0  0  0  0  0  0  0  0
  -24.5060  -10.5640   20.7300 C   0  0  0  0  0  0  0  0  0  0  0  0
  -24.7780   -9.6800   21.7970 C   0  0  0  0  0  3  0  0  0  0  0  0
  -23.9890   -8.5250   21.9880 C   0  0  0  0  0  3  0  0  0  0  0  0
  -22.9150   -8.2460   21.1100 C   0  0  0  0  0  0  0  0  0  0  0  0
  -22.6620   -9.1190   20.0360 C   0  0  0  0  0  3  0  0  0  0  0  0
  -23.4510  -10.2640   19.8450 C   0  0  0  0  0  3  0  0  0  0  0  0
  -22.1130   -7.1340   21.2020 O   0  0  0  0  0  0  0  0  0  0  0  0
  -21.7970   -6.5720   22.4130 C   0  0  0  0  0  0  0  0  0  0  0  0
  -21.1240   -7.3000   23.4190 C   0  0  0  0  0  3  0  0  0  0  0  0
  -20.7570   -6.6640   24.6210 C   0  0  0  0  0  3  0  0  0  0  0  0
  -21.0530   -5.3010   24.8170 C   0  0  0  0  0  0  0  0  0  0  0  0
  -21.7170   -4.5750   23.8130 C   0  0  0  0  0  3  0  0  0  0  0  0
  -22.0850   -5.2070   22.6140 C   0  0  0  0  0  0  0  0  0  0  0  0
  -22.7060   -4.4970   21.6430 F   0  0  0  0  0  0  0  0  0  0  0  0
  -20.6930   -4.6890   25.9690 F   0  0  0  0  0  0  0  0  0  0  0  0
  -23.5240  -13.7090   20.6940 C   0  0  0  0  0  0  0  0  0  0  0  0
  -22.7390  -13.0900   21.5680 N   0  0  0  0  0  0  0  0  0  0  0  0
  -23.1500  -14.7260   20.1120 O   0  0  0  0  0  0  0  0  0  0  0  0
  -23.0530  -12.2670   22.0600 H   0  0  0  0  0  0  0  0  0  0  0  0
  -21.8100  -13.4450   21.7490 H   0  0  0  0  0  0  0  0  0  0  0  0
  -26.2620  -15.2150   19.9130 N   0  0  0  0  0  0  0  0  0  0  0  0
  -25.5290  -15.9130   19.9740 H   0  0  0  0  0  0  0  0  0  0  0  0
  -27.1520  -15.5990   19.6210 H   0  0  0  0  0  0  0  0  0  0  0  0
  -28.4620  -25.8350   22.1460 C   0  0  0  0  0  2  0  0  0  0  0  0
  -27.9900  -25.3400   20.7400 C   0  0  0  0  0  2  0  0  0  0  0  0
  -26.5500  -25.2800   20.1520 C   0  0  0  0  0  2  0  0  0  0  0  0
  -26.3690  -26.1160   19.0050 O   0  0  0  0  0  0  0  0  0  0  0  0
  -23.8950  -31.3750   23.0340 C   0  0  0  0  0  0  0  0  0  0  0  0
  -25.3470  -27.0040   19.2030 C   0  0  0  0  0  0  0  0  0  0  0  0
  -22.2500  -30.3250   21.5090 C   0  0  0  0  0  3  0  0  0  0  0  0
  -23.2220  -28.7650   19.7390 C   0  0  0  0  0  0  0  0  0  0  0  0
  -24.7340  -30.3760   20.9160 C   0  0  0  0  0  2  0  0  0  0  0  0
  -24.5180  -29.0830   20.1630 C   0  0  0  0  0  0  0  0  0  0  0  0
  -25.5870  -28.2060   19.8940 C   0  0  0  0  0  3  0  0  0  0  0  0
  -24.0420  -26.6840   18.7800 C   0  0  0  0  0  3  0  0  0  0  0  0
  -22.9740  -27.5650   19.0460 C   0  0  0  0  0  3  0  0  0  0  0  0
  -22.1360  -29.7660   20.0640 C   0  0  0  0  0  2  0  0  0  0  0  0
  -23.6540  -30.6950   21.8760 N   0  0  0  0  0  0  0  0  0  0  0  0
  -22.9660  -31.7330   23.7700 O   0  0  0  0  0  0  0  0  0  0  0  0
  -21.6120  -29.3080   22.4820 C   0  0  0  0  0  0  0  0  0  0  0  0
  -20.2740  -29.2090   22.4470 N   0  0  0  0  0  0  0  0  0  0  0  0
  -22.3140  -28.6140   23.2220 O   0  0  0  0  0  0  0  0  0  0  0  0
  -19.7720  -29.8220   21.8210 H   0  0  0  0  0  0  0  0  0  0  0  0
  -16.8890  -28.0920   23.0300 C   0  0  0  0  0  0  0  0  0  0  0  0
  -19.4570  -28.2930   23.2430 C   0  0  0  0  0  3  0  0  0  0  0  0
  -19.5150  -26.8560   22.6730 C   0  0  0  0  0  2  0  0  0  0  0  0
  -18.3830  -26.5530   21.6870 C   0  0  0  0  0  2  0  0  0  0  0  0
  -17.0200  -26.7330   22.3620 C   0  0  0  0  0  2  0  0  0  0  0  0
  -18.0340  -28.8300   23.4290 C   0  0  0  0  0  0  0  0  0  0  0  0
  -17.8590  -30.1030   24.0140 C   0  0  0  0  0  3  0  0  0  0  0  0
  -16.5700  -30.6360   24.2060 C   0  0  0  0  0  3  0  0  0  0  0  0
  -15.4390  -29.8920   23.8260 C   0  0  0  0  0  3  0  0  0  0  0  0
  -15.5990  -28.6230   23.2410 C   0  0  0  0  0  3  0  0  0  0  0  0
  -25.3430  -31.7550   23.4750 C   0  0  0  0  0  3  0  0  0  0  0  0
  -25.9450  -30.7700   24.5530 C   0  0  1  0  0  0  0  0  0  0  0  0
  -25.0310  -30.5640   25.7830 C   0  0  0  0  0  1  0  0  0  0  0  0
  -26.2200  -29.3830   23.9270 C   0  0  0  0  0  1  0  0  0  0  0  0
  -27.3050  -31.3090   25.0540 C   0  0  0  0  0  1  0  0  0  0  0  0
  -25.3020  -33.1280   23.9900 N   0  0  0  0  0  0  0  0  0  0  0  0
  -25.7400  -34.2040   23.3210 C   0  0  0  0  0  0  0  0  0  0  0  0
  -26.2930  -34.1300   22.2200 O   0  0  0  0  0  0  0  0  0  0  0  0
  -24.8130  -33.2710   24.8620 H   0  0  0  0  0  0  0  0  0  0  0  0
  -24.3330  -36.2870   23.3200 C   0  0  0  0  0  1  0  0  0  0  0  0
  -25.5300  -35.5820   23.9780 C   0  0  0  0  0  3  0  0  0  0  0  0
  -27.8280  -35.9870   24.7390 C   0  0  0  0  0  1  0  0  0  0  0  0
  -26.7210  -36.4540   23.9070 N   0  0  0  0  0  0  0  0  0  0  0  0
  -26.4900  -37.4020   24.1930 H   0  0  0  0  0  0  0  0  0  0  0  0
  1  4  2  0
  1  3  1  0
  3  7  1  0
  3  2  2  0
  4  6  1  0
  6  2  1  0
  6  5  1  0
  7  8  2  0
  9  7  1  0
 10  9  1  0
 11 12  1  0
 11 10  1  0
 13 14  1  0
 13 12  1  0
 15 14  1  0
 16 21  1  0
 17 18  1  0
 17 16  1  0
 19 18  1  0
 19 26  1  0
 19 20  1  0
 21 15  1  0
 21 20  1  0
 22 15  2  0
 23 24  2  0
 24 25  1  0
 24 43  1  0
 25 28  1  0
 26 23  1  0
 26 27  1  0
 27 25  2  0
 28 29  1  0
 29 30  2  0
 31 34  1  0
 31 30  1  0
 32 31  2  0
 33 32  1  0
 33 28  2  0
 34 35  1  0
 35 40  2  0
 35 36  1  0
 36 37  2  0
 37 38  1  0
 38 42  1  0
 39 38  2  0
 40 39  1  0
 41 40  1  0
 43 44  1  0
 44 47  1  0
 44 46  1  0
 45 43  2  0
 48 49  1  0
 48 23  1  0
 50 48  1  0
 51  4  1  0
 52 51  1  0
 53 52  1  0
 54 56  1  0
 54 53  1  0
 55 66  2  0
 56 61  1  0
 57 65  1  0
 57 67  1  0
 58 64  1  0
 58 60  1  0
 59 65  1  0
 60 59  1  0
 61 60  2  0
 62 63  1  0
 62 56  2  0
 63 58  2  0
 64 57  1  0
 65 55  1  0
 67 69  2  0
 68 67  1  0
 70 68  1  0
 71 80  2  0
 71 76  1  0
 72 68  1  0
 72 76  1  0
 73 72  1  0
 74 75  1  0
 74 73  1  0
 75 71  1  0
 76 77  2  0
 77 78  1  0
 79 78  2  0
 80 79  1  0
 81 55  1  0
 81 86  1  0
 81 82  1  0
 82 85  1  1
 82 83  1  0
 84 82  1  0
 86 89  1  0
 87 91  1  0
 87 86  1  0
 88 87  2  0
 91 90  1  0
 93 91  1  0
 93 94  1  0
 93 92  1  0
M  ISO  4  14 100  15 100  53 101  54 101
M  END
>  <TORSDO>  (4) 
F 26

>  <SCORE>  (4) 
-3.260

>  <name>  (4) 
3

>  <ligand_id>  (4) 
3

>  <original_smiles>  (4) 
[H]c1c([H])c([H])c2c(c1[H])C([H])([H])C([H])([H])C([H])([H])C2([H])N([H])C(=O)C1([H])N(C(=O)C([H])(N([H])C(=O)C([H])(N([H])C([H])([H])[H])C([H])([H])[H])C(C([H])([H])[H])(C([H])([H])[H])C([H])([H])[H])C([H])([H])c2c([H])c(OC([H])([H])C([H])([H])C([H])([H])c3c([H])c(C(=O)C([H])([H])C([H])([H])C([H])([H])C([H])([H])C([H])([H])C([H])([H])C(=O)N4C([H])([H])C([H])([H])C([H])([H])C([H])(n5nc(-c6c([H])c([H])c(Oc7c([H])c([H])c(F)c([H])c7F)c([H])c6[H])c(C(=O)N([H])[H])c5N([H])[H])C4([H])[H])c([H])n3C([H])([H])[H])c([H])c([H])c2C1([H])[H]

>  <smiles>  (4) 
[H]c1c([H])c([H])c2c(c1[H])C([H])([H])C([H])([H])C([H])([H])C2([H])N([H])C(=O)C1([H])N(C(=O)C([H])(N([H])C(=O)C([H])(N([H])C([H])([H])[H])C([H])([H])[H])C(C([H])([H])[H])(C([H])([H])[H])C([H])([H])[H])C([H])([H])c2c([H])c(OC([H])([H])C([H])([H])C([H])([H])c3c([H])c(C(=O)C([H])([H])C([H])([H])C([H])([H])C([H])([H])C([H])([H])C([H])([H])C(=O)N4C([H])([H])C([H])([H])C([H])([H])C([H])(n5nc(-c6c([H])c([H])c(Oc7c([H])c([H])c(F)c([H])c7F)c([H])c6[H])c(C(=O)N([H])[H])c5N([H])[H])C4([H])[H])c([H])n3C([H])([H])[H])c([H])c([H])c2C1([H])[H]

$$$$
4:0:0
     RDKit          3D

 92100  0  0  1  0  0  0  0  0999 V2000
  -32.5510  -20.3720   20.7800 C   0  0  0  0  0  3  0  0  0  0  0  0
  -32.2300  -19.0910   21.2610 C   0  0  0  0  0  3  0  0  0  0  0  0
  -31.5270  -21.2560   20.4000 C   0  0  0  0  0  3  0  0  0  0  0  0
  -29.8560  -19.5710   20.9800 C   0  0  0  0  0  3  0  0  0  0  0  0
  -30.8860  -18.6620   21.3510 C   0  0  0  0  0  0  0  0  0  0  0  0
  -30.1740  -20.8740   20.5080 C   0  0  0  0  0  0  0  0  0  0  0  0
  -30.6430  -17.2810   21.8950 C   0  0  0  0  0  0  0  0  0  0  0  0
  -31.4650  -16.7050   22.6140 O   0  0  0  0  0  0  0  0  0  0  0  0
  -29.3790  -16.4970   21.4960 C   0  0  0  0  0  2  0  0  0  0  0  0
  -30.4060  -14.6810   20.1550 C   0  0  0  0  0  0  0  0  0  0  0  0
  -30.1300  -12.5070   19.0390 C   0  0  0  0  0  2  0  0  0  0  0  0
  -29.1360  -12.6890   17.8720 C   0  0  0  0  0  2  0  0  0  0  0  0
  -27.6820  -12.5290   18.3590 C   0  0  0  0  0  2  0  0  0  0  0  0
  -27.3760  -13.3520   19.6390 C   0  0  0  0  0  3  0  0  0  0  0  0
  -28.4800  -13.1560   20.7030 C   0  0  0  0  0  2  0  0  0  0  0  0
  -29.7700  -13.4820   20.0780 N   0  0  0  0  0  0  0  0  0  0  0  0
  -31.5560  -14.8570   19.7450 O   0  0  0  0  0  0  0  0  0  0  0  0
  -29.3500  -16.5450   19.0340 C   0  0  0  0  0  1  0  0  0  0  0  0
  -29.5640  -15.7410   20.2440 N   0  0  0  0  0  0  0  0  0  0  0  0
  -24.9930  -13.9090   20.4320 C   0  0  0  0  0  0  0  0  0  0  0  0
  -23.9580  -13.1130   20.8400 C   0  0  0  0  0  0  0  0  0  0  0  0
  -24.4500  -11.7720   20.7980 C   0  0  0  0  0  0  0  0  0  0  0  0
  -26.0500  -13.0510   20.1690 N   0  0  0  0  0  0  0  0  0  0  0  0
  -25.7290  -11.7620   20.4480 N   0  0  0  0  0  0  0  0  0  0  0  0
  -23.7630  -10.4930   21.0160 C   0  0  0  0  0  0  0  0  0  0  0  0
  -24.2470   -9.5440   21.9420 C   0  0  0  0  0  3  0  0  0  0  0  0
  -23.5580   -8.3290   22.1470 C   0  0  0  0  0  3  0  0  0  0  0  0
  -22.3710   -8.0550   21.4260 C   0  0  0  0  0  0  0  0  0  0  0  0
  -21.9070   -8.9950   20.4880 C   0  0  0  0  0  3  0  0  0  0  0  0
  -22.5960  -10.2010   20.2810 C   0  0  0  0  0  3  0  0  0  0  0  0
  -21.6490   -6.8920   21.5400 O   0  0  0  0  0  0  0  0  0  0  0  0
  -21.6490   -6.1580   22.6990 C   0  0  0  0  0  0  0  0  0  0  0  0
  -21.2390   -6.7110   23.9320 C   0  0  0  0  0  3  0  0  0  0  0  0
  -21.1860   -5.9030   25.0850 C   0  0  0  0  0  3  0  0  0  0  0  0
  -21.5340   -4.5400   25.0060 C   0  0  0  0  0  0  0  0  0  0  0  0
  -21.9370   -3.9860   23.7790 C   0  0  0  0  0  3  0  0  0  0  0  0
  -21.9910   -4.7910   22.6280 C   0  0  0  0  0  0  0  0  0  0  0  0
  -22.3590   -4.2470   21.4440 F   0  0  0  0  0  0  0  0  0  0  0  0
  -21.4760   -3.7610   26.1120 F   0  0  0  0  0  0  0  0  0  0  0  0
  -22.5590  -13.5560   21.1600 C   0  0  0  0  0  0  0  0  0  0  0  0
  -21.8800  -12.8460   22.0540 N   0  0  0  0  0  0  0  0  0  0  0  0
  -22.0770  -14.5690   20.6520 O   0  0  0  0  0  0  0  0  0  0  0  0
  -22.2840  -12.0290   22.4850 H   0  0  0  0  0  0  0  0  0  0  0  0
  -20.9450  -13.1260   22.3140 H   0  0  0  0  0  0  0  0  0  0  0  0
  -25.1220  -15.2830   20.2460 N   0  0  0  0  0  0  0  0  0  0  0  0
  -24.3500  -15.9260   20.3820 H   0  0  0  0  0  0  0  0  0  0  0  0
  -25.9590  -15.7340   19.9000 H   0  0  0  0  0  0  0  0  0  0  0  0
  -29.1020  -21.8720   20.0630 C   0  0  0  0  0  2  0  0  0  0  0  0
  -29.0700  -23.1880   20.8880 C   0  0  0  0  0  2  0  0  0  0  0  0
  -28.6070  -24.4390   20.0970 C   0  0  0  0  0  2  0  0  0  0  0  0
  -28.5850  -25.7310   20.9500 C   0  0  0  0  0  2  0  0  0  0  0  0
  -28.5260  -26.9260   20.1590 O   0  0  0  0  0  0  0  0  0  0  0  0
  -24.6120  -31.9810   23.3070 C   0  0  0  0  0  0  0  0  0  0  0  0
  -27.3400  -27.6200   20.2010 C   0  0  0  0  0  0  0  0  0  0  0  0
  -23.4320  -30.5740   21.6490 C   0  0  0  0  0  3  0  0  0  0  0  0
  -24.9160  -29.0690   20.2180 C   0  0  0  0  0  0  0  0  0  0  0  0
  -25.9500  -30.9830   21.4570 C   0  0  0  0  0  2  0  0  0  0  0  0
  -26.0620  -29.6170   20.8100 C   0  0  0  0  0  0  0  0  0  0  0  0
  -27.2790  -28.9000   20.7940 C   0  0  0  0  0  3  0  0  0  0  0  0
  -26.1800  -27.0770   19.6110 C   0  0  0  0  0  3  0  0  0  0  0  0
  -24.9680  -27.7980   19.6180 C   0  0  0  0  0  3  0  0  0  0  0  0
  -23.6560  -29.9060   20.2660 C   0  0  0  0  0  2  0  0  0  0  0  0
  -24.6820  -31.1950   22.1970 N   0  0  0  0  0  0  0  0  0  0  0  0
  -23.5250  -32.2300   23.8490 O   0  0  0  0  0  0  0  0  0  0  0  0
  -22.7980  -29.5340   22.6000 C   0  0  0  0  0  0  0  0  0  0  0  0
  -21.4780  -29.3290   22.4650 N   0  0  0  0  0  0  0  0  0  0  0  0
  -23.4890  -28.9160   23.4140 O   0  0  0  0  0  0  0  0  0  0  0  0
  -20.9790  -29.8810   21.7810 H   0  0  0  0  0  0  0  0  0  0  0  0
  -18.1250  -28.0640   22.9290 C   0  0  0  0  0  0  0  0  0  0  0  0
  -20.6750  -28.3700   23.2240 C   0  0  0  0  0  3  0  0  0  0  0  0
  -20.8100  -26.9450   22.6390 C   0  0  0  0  0  2  0  0  0  0  0  0
  -19.7240  -26.6070   21.6130 C   0  0  0  0  0  2  0  0  0  0  0  0
  -18.3340  -26.7220   22.2460 C   0  0  0  0  0  2  0  0  0  0  0  0
  -19.2250  -28.8450   23.3740 C   0  0  0  0  0  0  0  0  0  0  0  0
  -18.9770  -30.1000   23.9700 C   0  0  0  0  0  3  0  0  0  0  0  0
  -17.6610  -30.5750   24.1270 C   0  0  0  0  0  3  0  0  0  0  0  0
  -16.5760  -29.7910   23.7000 C   0  0  0  0  0  3  0  0  0  0  0  0
  -16.8080  -28.5380   23.1070 C   0  0  0  0  0  3  0  0  0  0  0  0
  -25.8870  -32.6280   23.9360 C   0  0  0  0  0  3  0  0  0  0  0  0
  -25.5650  -34.0260   24.2510 N   0  0  0  0  0  0  0  0  0  0  0  0
  -25.8970  -35.0740   23.4830 C   0  0  0  0  0  0  0  0  0  0  0  0
  -26.5780  -34.9650   22.4590 O   0  0  0  0  0  0  0  0  0  0  0  0
  -24.9600  -34.1840   25.0440 H   0  0  0  0  0  0  0  0  0  0  0  0
  -24.1560  -36.8470   23.0960 C   0  0  0  0  0  1  0  0  0  0  0  0
  -25.3940  -36.4630   23.9220 C   0  0  0  0  0  3  0  0  0  0  0  0
  -27.5150  -37.3730   24.7600 C   0  0  0  0  0  1  0  0  0  0  0  0
  -26.4190  -37.5230   23.8060 N   0  0  0  0  0  0  0  0  0  0  0  0
  -26.0040  -38.4410   23.9440 H   0  0  0  0  0  0  0  0  0  0  0  0
  -26.4000  -31.8710   25.2220 C   0  0  1  0  0  0  0  0  0  0  0  0
  -25.3000  -31.6300   26.2830 C   0  0  0  0  0  1  0  0  0  0  0  0
  -26.9980  -30.4960   24.8420 C   0  0  0  0  0  1  0  0  0  0  0  0
  -27.5380  -32.6800   25.8880 C   0  0  0  0  0  1  0  0  0  0  0  0
  1  2  1  0
  2  5  2  0
  3  6  1  0
  3  1  2  0
  4  5  1  0
  5  7  1  0
  6  4  2  0
  7  8  2  0
  9  7  1  0
 10 19  1  0
 11 16  1  0
 12 13  1  0
 12 11  1  0
 14 13  1  0
 14 23  1  0
 14 15  1  0
 16 10  1  0
 16 15  1  0
 17 10  2  0
 18 19  1  0
 19  9  1  0
 20 21  2  0
 21 40  1  0
 22 21  1  0
 22 25  1  0
 23 20  1  0
 23 24  1  0
 24 22  2  0
 25 26  1  0
 26 27  2  0
 28 31  1  0
 28 27  1  0
 29 28  2  0
 30 29  1  0
 30 25  2  0
 31 32  1  0
 32 33  1  0
 33 34  2  0
 35 34  1  0
 35 39  1  0
 36 35  2  0
 37 32  2  0
 37 36  1  0
 38 37  1  0
 40 41  1  0
 41 44  1  0
 41 43  1  0
 42 40  2  0
 45 46  1  0
 45 20  1  0
 47 45  1  0
 48  6  1  0
 48 49  1  0
 50 49  1  0
 50 51  1  0
 52 54  1  0
 52 51  1  0
 53 64  2  0
 54 59  1  0
 55 63  1  0
 55 65  1  0
 56 62  1  0
 56 58  1  0
 57 63  1  0
 58 57  1  0
 59 58  2  0
 60 61  1  0
 60 54  2  0
 61 56  2  0
 62 55  1  0
 63 53  1  0
 65 67  2  0
 66 65  1  0
 68 66  1  0
 69 78  2  0
 69 74  1  0
 70 66  1  0
 70 74  1  0
 71 70  1  0
 72 73  1  0
 72 71  1  0
 73 69  1  0
 74 75  2  0
 75 76  1  0
 77 76  2  0
 78 77  1  0
 79 53  1  0
 79 80  1  0
 79 89  1  0
 80 83  1  0
 81 85  1  0
 81 80  1  0
 82 81  2  0
 85 84  1  0
 87 85  1  0
 87 88  1  0
 87 86  1  0
 89 92  1  1
 89 90  1  0
 91 89  1  0
M  ISO  4  10 100  19 100  51 101  52 101
M  END
>  <TORSDO>  (5) 
F 22

>  <SCORE>  (5) 
-12.670

>  <name>  (5) 
4

>  <ligand_id>  (5) 
4

>  <original_smiles>  (5) 
[H]c1c([H])c(C(=O)C([H])([H])N(C(=O)N2C([H])([H])C([H])([H])C([H])([H])C([H])(n3nc(-c4c([H])c([H])c(Oc5c([H])c([H])c(F)c([H])c5F)c([H])c4[H])c(C(=O)N([H])[H])c3N([H])[H])C2([H])[H])C([H])([H])[H])c([H])c(C([H])([H])C([H])([H])C([H])([H])C([H])([H])Oc2c([H])c([H])c3c(c2[H])C([H])([H])N(C(=O)C([H])(N([H])C(=O)C([H])(N([H])C([H])([H])[H])C([H])([H])[H])C(C([H])([H])[H])(C([H])([H])[H])C([H])([H])[H])C([H])(C(=O)N([H])C2([H])c4c([H])c([H])c([H])c([H])c4C([H])([H])C([H])([H])C2([H])[H])C3([H])[H])c1[H]

>  <smiles>  (5) 
[H]c1c([H])c(C(=O)C([H])([H])N(C(=O)N2C([H])([H])C([H])([H])C([H])([H])C([H])(n3nc(-c4c([H])c([H])c(Oc5c([H])c([H])c(F)c([H])c5F)c([H])c4[H])c(C(=O)N([H])[H])c3N([H])[H])C2([H])[H])C([H])([H])[H])c([H])c(C([H])([H])C([H])([H])C([H])([H])C([H])([H])Oc2c([H])c([H])c3c(c2[H])C([H])([H])N(C(=O)C([H])(N([H])C(=O)C([H])(N([H])C([H])([H])[H])C([H])([H])[H])C(C([H])([H])[H])(C([H])([H])[H])C([H])([H])[H])C([H])(C(=O)N([H])C2([H])c4c([H])c([H])c([H])c([H])c4C([H])([H])C([H])([H])C2([H])[H])C3([H])[H])c1[H]

$$$$
5:0:0
     RDKit          3D

 85 92  0  0  1  0  0  0  0  0999 V2000
  -28.9730  -23.5700   20.3490 C   0  0  0  0  0  0  0  0  0  0  0  0
  -30.1370  -23.8610   20.6430 O   0  0  0  0  0  0  0  0  0  0  0  0
  -28.5560  -21.9890   20.3000 C   0  0  0  0  0  3  0  0  0  0  0  0
  -29.6160  -20.7090   20.3500 C   0  0  0  0  0  3  0  0  0  0  0  0
  -29.1430  -19.1220   20.4960 C   0  0  0  0  0  2  0  0  0  0  0  0
  -30.1520  -17.8020   20.3920 C   0  0  0  0  0  3  0  0  0  0  0  0
  -29.6760  -16.2450   20.7280 C   0  0  0  0  0  3  0  0  0  0  0  0
  -30.5280  -14.8840   20.3870 C   0  0  0  0  0  0  0  0  0  0  0  0
  -30.4050  -12.5680   19.3860 C   0  0  0  0  0  2  0  0  0  0  0  0
  -29.4680  -12.6010   18.1550 C   0  0  0  0  0  2  0  0  0  0  0  0
  -27.9990  -12.4000   18.5780 C   0  0  0  0  0  2  0  0  0  0  0  0
  -27.6070  -13.2950   19.7820 C   0  0  0  0  0  3  0  0  0  0  0  0
  -28.6610  -13.2390   20.9080 C   0  0  0  0  0  2  0  0  0  0  0  0
  -29.9550  -13.6220   20.3310 N   0  0  0  0  0  0  0  0  0  0  0  0
  -31.7090  -14.9930   20.0390 O   0  0  0  0  0  0  0  0  0  0  0  0
  -25.2170  -13.8780   20.5040 C   0  0  0  0  0  0  0  0  0  0  0  0
  -24.1520  -13.1020   20.8720 C   0  0  0  0  0  0  0  0  0  0  0  0
  -24.6220  -11.7530   20.8500 C   0  0  0  0  0  0  0  0  0  0  0  0
  -26.2640  -13.0010   20.2720 N   0  0  0  0  0  0  0  0  0  0  0  0
  -25.9130  -11.7180   20.5450 N   0  0  0  0  0  0  0  0  0  0  0  0
  -23.8980  -10.4880   21.0430 C   0  0  0  0  0  0  0  0  0  0  0  0
  -24.3360   -9.5210   21.9750 C   0  0  0  0  0  3  0  0  0  0  0  0
  -23.6120   -8.3230   22.1550 C   0  0  0  0  0  3  0  0  0  0  0  0
  -22.4380   -8.0820   21.4030 C   0  0  0  0  0  0  0  0  0  0  0  0
  -22.0190   -9.0390   20.4620 C   0  0  0  0  0  3  0  0  0  0  0  0
  -22.7430  -10.2280   20.2790 C   0  0  0  0  0  3  0  0  0  0  0  0
  -21.6850   -6.9360   21.4930 O   0  0  0  0  0  0  0  0  0  0  0  0
  -21.6500   -6.1860   22.6420 C   0  0  0  0  0  0  0  0  0  0  0  0
  -21.2480   -6.7360   23.8780 C   0  0  0  0  0  3  0  0  0  0  0  0
  -21.1610   -5.9120   25.0190 C   0  0  0  0  0  3  0  0  0  0  0  0
  -21.4660   -4.5420   24.9240 C   0  0  0  0  0  0  0  0  0  0  0  0
  -21.8600   -3.9910   23.6910 C   0  0  0  0  0  3  0  0  0  0  0  0
  -21.9500   -4.8120   22.5530 C   0  0  0  0  0  0  0  0  0  0  0  0
  -22.3110   -4.2720   21.3630 F   0  0  0  0  0  0  0  0  0  0  0  0
  -21.3740   -3.7480   26.0170 F   0  0  0  0  0  0  0  0  0  0  0  0
  -22.7530  -13.5750   21.1360 C   0  0  0  0  0  0  0  0  0  0  0  0
  -22.0260  -12.8840   22.0070 N   0  0  0  0  0  0  0  0  0  0  0  0
  -22.3110  -14.5930   20.6050 O   0  0  0  0  0  0  0  0  0  0  0  0
  -22.3980  -12.0600   22.4580 H   0  0  0  0  0  0  0  0  0  0  0  0
  -21.0870  -13.1820   22.2270 H   0  0  0  0  0  0  0  0  0  0  0  0
  -25.3780  -15.2490   20.3240 N   0  0  0  0  0  0  0  0  0  0  0  0
  -24.6110  -15.9030   20.4360 H   0  0  0  0  0  0  0  0  0  0  0  0
  -26.2320  -15.6910   20.0090 H   0  0  0  0  0  0  0  0  0  0  0  0
  -27.9120  -24.7690   20.0350 C   0  0  0  0  0  2  0  0  0  0  0  0
  -28.2490  -26.2550   20.2280 O   0  0  0  0  0  0  0  0  0  0  0  0
  -24.6330  -31.8810   23.2290 C   0  0  0  0  0  0  0  0  0  0  0  0
  -27.1870  -27.2150   20.1660 C   0  0  0  0  0  0  0  0  0  0  0  0
  -23.4150  -30.4880   21.5990 C   0  0  0  0  0  3  0  0  0  0  0  0
  -24.8510  -28.9250   20.1580 C   0  0  0  0  0  0  0  0  0  0  0  0
  -25.9650  -30.7670   21.4080 C   0  0  0  0  0  2  0  0  0  0  0  0
  -26.0330  -29.3800   20.7560 C   0  0  0  0  0  0  0  0  0  0  0  0
  -27.2030  -28.5390   20.7470 C   0  0  0  0  0  3  0  0  0  0  0  0
  -25.9790  -26.8530   19.5270 C   0  0  0  0  0  3  0  0  0  0  0  0
  -24.8350  -27.6740   19.5290 C   0  0  0  0  0  3  0  0  0  0  0  0
  -23.6210  -29.8150   20.2180 C   0  0  0  0  0  2  0  0  0  0  0  0
  -24.6910  -31.0650   22.1340 N   0  0  0  0  0  0  0  0  0  0  0  0
  -23.5530  -32.1660   23.7670 O   0  0  0  0  0  0  0  0  0  0  0  0
  -22.7480  -29.4770   22.5640 C   0  0  0  0  0  0  0  0  0  0  0  0
  -21.4200  -29.3060   22.4480 N   0  0  0  0  0  0  0  0  0  0  0  0
  -23.4280  -28.8500   23.3810 O   0  0  0  0  0  0  0  0  0  0  0  0
  -20.9300  -29.8660   21.7630 H   0  0  0  0  0  0  0  0  0  0  0  0
  -18.0430  -28.1030   22.9610 C   0  0  0  0  0  0  0  0  0  0  0  0
  -20.6020  -28.3710   23.2230 C   0  0  0  0  0  3  0  0  0  0  0  0
  -20.7060  -26.9370   22.6560 C   0  0  0  0  0  2  0  0  0  0  0  0
  -19.6020  -26.6060   21.6450 C   0  0  0  0  0  2  0  0  0  0  0  0
  -18.2210  -26.7520   22.2900 C   0  0  0  0  0  2  0  0  0  0  0  0
  -19.1600  -28.8710   23.3840 C   0  0  0  0  0  0  0  0  0  0  0  0
  -18.9400  -30.1350   23.9730 C   0  0  0  0  0  3  0  0  0  0  0  0
  -17.6340  -30.6330   24.1400 C   0  0  0  0  0  3  0  0  0  0  0  0
  -16.5310  -29.8620   23.7320 C   0  0  0  0  0  3  0  0  0  0  0  0
  -16.7370  -28.6000   23.1490 C   0  0  0  0  0  3  0  0  0  0  0  0
  -25.9190  -32.5130   23.8440 C   0  0  0  0  0  3  0  0  0  0  0  0
  -26.4430  -31.7370   25.1140 C   0  0  1  0  0  0  0  0  0  0  0  0
  -25.3590  -31.4990   26.1920 C   0  0  0  0  0  1  0  0  0  0  0  0
  -27.0200  -30.3600   24.7150 C   0  0  0  0  0  1  0  0  0  0  0  0
  -27.6030  -32.5260   25.7670 C   0  0  0  0  0  1  0  0  0  0  0  0
  -25.6080  -33.9100   24.1890 N   0  0  0  0  0  0  0  0  0  0  0  0
  -25.9150  -34.9690   23.4290 C   0  0  0  0  0  0  0  0  0  0  0  0
  -26.5560  -34.8740   22.3780 O   0  0  0  0  0  0  0  0  0  0  0  0
  -25.0380  -34.0570   25.0090 H   0  0  0  0  0  0  0  0  0  0  0  0
  -24.1590  -36.7500   23.1500 C   0  0  0  0  0  1  0  0  0  0  0  0
  -25.4360  -36.3540   23.9080 C   0  0  0  0  0  3  0  0  0  0  0  0
  -27.5980  -37.2530   24.6490 C   0  0  0  0  0  1  0  0  0  0  0  0
  -26.4550  -37.4150   23.7540 N   0  0  0  0  0  0  0  0  0  0  0  0
  -26.0480  -38.3320   23.9230 H   0  0  0  0  0  0  0  0  0  0  0  0
  1  2  2  0
  3  1  1  0
  3  4  2  0
  4  5  1  0
  6  5  1  0
  6  7  2  0
  8  7  1  0
  9 14  1  0
 10 11  1  0
 10  9  1  0
 12 11  1  0
 12 19  1  0
 12 13  1  0
 14  8  1  0
 14 13  1  0
 15  8  2  0
 16 17  2  0
 17 36  1  0
 18 17  1  0
 18 21  1  0
 19 16  1  0
 19 20  1  0
 20 18  2  0
 21 22  1  0
 22 23  2  0
 24 27  1  0
 24 23  1  0
 25 24  2  0
 26 25  1  0
 26 21  2  0
 27 28  1  0
 28 29  1  0
 29 30  2  0
 31 30  1  0
 31 35  1  0
 32 31  2  0
 33 28  2  0
 33 32  1  0
 34 33  1  0
 36 37  1  0
 37 40  1  0
 37 39  1  0
 38 36  2  0
 41 42  1  0
 41 16  1  0
 43 41  1  0
 44 45  1  0
 44  1  1  0
 46 57  2  0
 47 45  1  0
 47 52  1  0
 48 56  1  0
 48 58  1  0
 49 55  1  0
 49 51  1  0
 50 56  1  0
 51 50  1  0
 52 51  2  0
 53 54  1  0
 53 47  2  0
 54 49  2  0
 55 48  1  0
 56 46  1  0
 58 60  2  0
 59 58  1  0
 61 59  1  0
 62 71  2  0
 62 67  1  0
 63 59  1  0
 63 67  1  0
 64 63  1  0
 65 66  1  0
 65 64  1  0
 66 62  1  0
 67 68  2  0
 68 69  1  0
 70 69  2  0
 71 70  1  0
 72 46  1  0
 72 77  1  0
 72 73  1  0
 73 76  1  1
 73 74  1  0
 75 73  1  0
 77 80  1  0
 78 82  1  0
 78 77  1  0
 79 78  2  0
 82 81  1  0
 84 82  1  0
 84 85  1  0
 84 83  1  0
M  ISO  4   7 100   8 100  44 101  45 101
M  END
>  <TORSDO>  (6) 
F 22

>  <SCORE>  (6) 
-12.864

>  <name>  (6) 
5

>  <ligand_id>  (6) 
5

>  <original_smiles>  (6) 
[H]c1c([H])c([H])c2c(c1[H])C([H])([H])C([H])([H])C([H])([H])C2([H])N([H])C(=O)C1([H])N(C(=O)C([H])(N([H])C(=O)C([H])(N([H])C([H])([H])[H])C([H])([H])[H])C(C([H])([H])[H])(C([H])([H])[H])C([H])([H])[H])C([H])([H])c2c([H])c(OC([H])([H])C(=O)C([H])([H])C([H])([H])C([H])([H])C([H])([H])C([H])([H])C(=O)N3C([H])([H])C([H])([H])C([H])([H])C([H])(n4nc(-c5c([H])c([H])c(Oc6c([H])c([H])c(F)c([H])c6F)c([H])c5[H])c(C(=O)N([H])[H])c4N([H])[H])C3([H])[H])c([H])c([H])c2C1([H])[H]

>  <smiles>  (6) 
[H]c1c([H])c([H])c2c(c1[H])C([H])([H])C([H])([H])C([H])([H])C2([H])N([H])C(=O)C1([H])N(C(=O)C([H])(N([H])C(=O)C([H])(N([H])C([H])([H])[H])C([H])([H])[H])C(C([H])([H])[H])(C([H])([H])[H])C([H])([H])[H])C([H])([H])c2c([H])c(OC([H])([H])C(=O)C([H])([H])C([H])([H])C([H])([H])C([H])([H])C([H])([H])C(=O)N3C([H])([H])C([H])([H])C([H])([H])C([H])(n4nc(-c5c([H])c([H])c(Oc6c([H])c([H])c(F)c([H])c6F)c([H])c5[H])c(C(=O)N([H])[H])c4N([H])[H])C3([H])[H])c([H])c([H])c2C1([H])[H]

$$$$
6:0:0
     RDKit          3D

 95103  0  0  1  0  0  0  0  0999 V2000
  -35.0100  -23.9270   24.0370 C   0  0  0  0  0  3  0  0  0  0  0  0
  -35.1800  -22.5770   23.6710 C   0  0  0  0  0  3  0  0  0  0  0  0
  -34.2810  -24.8000   23.2060 C   0  0  0  0  0  3  0  0  0  0  0  0
  -33.9150  -22.9800   21.6260 C   0  0  0  0  0  3  0  0  0  0  0  0
  -34.6240  -22.0930   22.4640 C   0  0  0  0  0  0  0  0  0  0  0  0
  -33.7270  -24.3260   22.0000 C   0  0  0  0  0  0  0  0  0  0  0  0
  -34.7960  -20.6800   22.0390 C   0  0  0  0  0  0  0  0  0  0  0  0
  -34.8240  -20.3330   20.8540 O   0  0  0  0  0  0  0  0  0  0  0  0
  -34.8790  -19.6320   23.1540 C   0  0  0  0  0  2  0  0  0  0  0  0
  -34.3160  -18.2450   22.7800 C   0  0  0  0  0  2  0  0  0  0  0  0
  -32.8150  -18.2320   22.4300 C   0  0  0  0  0  2  0  0  0  0  0  0
  -32.2870  -16.8090   22.2160 C   0  0  0  0  0  2  0  0  0  0  0  0
  -30.8440  -16.7790   21.6780 C   0  0  0  0  0  2  0  0  0  0  0  0
  -30.1710  -15.3870   21.6720 C   0  0  0  0  0  2  0  0  0  0  0  0
  -30.7290  -14.3700   20.6600 C   0  0  0  0  0  0  0  0  0  0  0  0
  -30.4120  -12.2840   19.3750 C   0  0  0  0  0  2  0  0  0  0  0  0
  -29.4750  -12.5330   18.1780 C   0  0  0  0  0  2  0  0  0  0  0  0
  -27.9970  -12.3900   18.5970 C   0  0  0  0  0  2  0  0  0  0  0  0
  -27.6630  -13.1990   19.8780 C   0  0  0  0  0  3  0  0  0  0  0  0
  -28.7050  -12.9190   20.9840 C   0  0  0  0  0  2  0  0  0  0  0  0
  -30.0390  -13.2220   20.4400 N   0  0  0  0  0  0  0  0  0  0  0  0
  -31.7740  -14.6310   20.0550 O   0  0  0  0  0  0  0  0  0  0  0  0
  -25.2580  -13.8170   20.5660 C   0  0  0  0  0  0  0  0  0  0  0  0
  -24.1810  -13.0450   20.9140 C   0  0  0  0  0  0  0  0  0  0  0  0
  -24.6350  -11.6920   20.8700 C   0  0  0  0  0  0  0  0  0  0  0  0
  -26.3010  -12.9310   20.3380 N   0  0  0  0  0  0  0  0  0  0  0  0
  -25.9270  -11.6480   20.5720 N   0  0  0  0  0  0  0  0  0  0  0  0
  -23.9010  -10.4310   21.0380 C   0  0  0  0  0  0  0  0  0  0  0  0
  -24.3560   -9.4230   21.9170 C   0  0  0  0  0  3  0  0  0  0  0  0
  -23.6260   -8.2250   22.0750 C   0  0  0  0  0  3  0  0  0  0  0  0
  -22.4250   -8.0260   21.3540 C   0  0  0  0  0  0  0  0  0  0  0  0
  -21.9870   -9.0230   20.4640 C   0  0  0  0  0  3  0  0  0  0  0  0
  -22.7180  -10.2120   20.3050 C   0  0  0  0  0  3  0  0  0  0  0  0
  -21.6630   -6.8840   21.4230 O   0  0  0  0  0  0  0  0  0  0  0  0
  -21.6850   -6.0700   22.5260 C   0  0  0  0  0  0  0  0  0  0  0  0
  -21.4010   -6.5610   23.8190 C   0  0  0  0  0  3  0  0  0  0  0  0
  -21.3670   -5.6770   24.9160 C   0  0  0  0  0  3  0  0  0  0  0  0
  -21.6050   -4.3030   24.7220 C   0  0  0  0  0  0  0  0  0  0  0  0
  -21.8820   -3.8120   23.4340 C   0  0  0  0  0  3  0  0  0  0  0  0
  -21.9190   -4.6930   22.3400 C   0  0  0  0  0  0  0  0  0  0  0  0
  -22.1660   -4.2110   21.0970 F   0  0  0  0  0  0  0  0  0  0  0  0
  -21.5650   -3.4520   25.7740 F   0  0  0  0  0  0  0  0  0  0  0  0
  -22.7840  -13.5260   21.1800 C   0  0  0  0  0  0  0  0  0  0  0  0
  -22.0430  -12.8280   22.0350 N   0  0  0  0  0  0  0  0  0  0  0  0
  -22.3530  -14.5560   20.6620 O   0  0  0  0  0  0  0  0  0  0  0  0
  -22.4020  -11.9960   22.4800 H   0  0  0  0  0  0  0  0  0  0  0  0
  -21.1030  -13.1320   22.2470 H   0  0  0  0  0  0  0  0  0  0  0  0
  -25.4320  -15.1880   20.4060 N   0  0  0  0  0  0  0  0  0  0  0  0
  -24.6710  -15.8480   20.5200 H   0  0  0  0  0  0  0  0  0  0  0  0
  -26.2930  -15.6260   20.1040 H   0  0  0  0  0  0  0  0  0  0  0  0
  -32.9200  -25.2460   21.1060 C   0  0  0  0  0  2  0  0  0  0  0  0
  -31.5140  -25.5250   21.6620 C   0  0  0  0  0  2  0  0  0  0  0  0
  -30.5860  -26.1020   20.5850 C   0  0  0  0  0  2  0  0  0  0  0  0
  -29.2430  -26.6120   21.1210 C   0  0  0  0  0  2  0  0  0  0  0  0
  -28.3910  -26.7270   19.9890 O   0  0  0  0  0  0  0  0  0  0  0  0
  -24.6070  -31.8710   23.2150 C   0  0  0  0  0  0  0  0  0  0  0  0
  -27.2470  -27.4770   20.0990 C   0  0  0  0  0  0  0  0  0  0  0  0
  -23.3950  -30.4900   21.5540 C   0  0  0  0  0  3  0  0  0  0  0  0
  -24.8470  -28.9610   20.1220 C   0  0  0  0  0  0  0  0  0  0  0  0
  -25.9190  -30.8490   21.3640 C   0  0  0  0  0  2  0  0  0  0  0  0
  -26.0000  -29.4830   20.7210 C   0  0  0  0  0  0  0  0  0  0  0  0
  -27.2040  -28.7480   20.7160 C   0  0  0  0  0  3  0  0  0  0  0  0
  -26.0840  -26.9670   19.4900 C   0  0  0  0  0  3  0  0  0  0  0  0
  -24.8810  -27.6960   19.5080 C   0  0  0  0  0  3  0  0  0  0  0  0
  -23.6050  -29.8210   20.1690 C   0  0  0  0  0  2  0  0  0  0  0  0
  -24.6580  -31.0840   22.1030 N   0  0  0  0  0  0  0  0  0  0  0  0
  -23.5280  -32.1440   23.7560 O   0  0  0  0  0  0  0  0  0  0  0  0
  -22.7390  -29.4640   22.5030 C   0  0  0  0  0  0  0  0  0  0  0  0
  -21.4130  -29.3000   22.3780 N   0  0  0  0  0  0  0  0  0  0  0  0
  -23.4180  -28.8170   23.3050 O   0  0  0  0  0  0  0  0  0  0  0  0
  -20.9280  -29.8780   21.7060 H   0  0  0  0  0  0  0  0  0  0  0  0
  -18.0260  -28.1370   22.8490 C   0  0  0  0  0  0  0  0  0  0  0  0
  -20.5850  -28.3630   23.1340 C   0  0  0  0  0  3  0  0  0  0  0  0
  -20.6740  -26.9370   22.5430 C   0  0  0  0  0  2  0  0  0  0  0  0
  -19.5730  -26.6370   21.5210 C   0  0  0  0  0  2  0  0  0  0  0  0
  -18.1900  -26.7910   22.1620 C   0  0  0  0  0  2  0  0  0  0  0  0
  -19.1510  -28.8810   23.2910 C   0  0  0  0  0  0  0  0  0  0  0  0
  -18.9440  -30.1420   23.8920 C   0  0  0  0  0  3  0  0  0  0  0  0
  -17.6450  -30.6570   24.0560 C   0  0  0  0  0  3  0  0  0  0  0  0
  -16.5340  -29.9080   23.6320 C   0  0  0  0  0  3  0  0  0  0  0  0
  -16.7260  -28.6500   23.0340 C   0  0  0  0  0  3  0  0  0  0  0  0
  -25.9000  -32.4840   23.8420 C   0  0  0  0  0  3  0  0  0  0  0  0
  -26.4470  -31.6610   25.0720 C   0  0  1  0  0  0  0  0  0  0  0  0
  -25.3740  -31.3700   26.1470 C   0  0  0  0  0  1  0  0  0  0  0  0
  -27.0260  -30.3050   24.6040 C   0  0  0  0  0  1  0  0  0  0  0  0
  -27.6020  -32.4340   25.7510 C   0  0  0  0  0  1  0  0  0  0  0  0
  -25.5880  -33.8640   24.2340 N   0  0  0  0  0  0  0  0  0  0  0  0
  -25.9030  -34.9490   23.5130 C   0  0  0  0  0  0  0  0  0  0  0  0
  -26.5590  -34.8930   22.4690 O   0  0  0  0  0  0  0  0  0  0  0  0
  -25.0040  -33.9840   25.0490 H   0  0  0  0  0  0  0  0  0  0  0  0
  -24.1490  -36.7330   23.2640 C   0  0  0  0  0  1  0  0  0  0  0  0
  -25.4110  -36.3120   24.0330 C   0  0  0  0  0  3  0  0  0  0  0  0
  -27.5590  -37.1810   24.8460 C   0  0  0  0  0  1  0  0  0  0  0  0
  -26.4300  -37.3800   23.9400 N   0  0  0  0  0  0  0  0  0  0  0  0
  -26.0200  -38.2870   24.1430 H   0  0  0  0  0  0  0  0  0  0  0  0
  2  1  1  0
  3  1  2  0
  4  6  2  0
  4  5  1  0
  5  2  2  0
  6  3  1  0
  7  5  1  0
  7  9  1  0
  8  7  2  0
 10  9  1  0
 11 10  1  0
 12 11  1  0
 13 12  1  0
 14 13  1  0
 15 14  1  0
 16 21  1  0
 17 18  1  0
 17 16  1  0
 19 18  1  0
 19 26  1  0
 19 20  1  0
 21 15  1  0
 21 20  1  0
 22 15  2  0
 23 24  2  0
 24 43  1  0
 25 24  1  0
 25 28  1  0
 26 23  1  0
 26 27  1  0
 27 25  2  0
 28 29  1  0
 29 30  2  0
 31 34  1  0
 31 30  1  0
 32 31  2  0
 33 32  1  0
 33 28  2  0
 34 35  1  0
 35 36  1  0
 36 37  2  0
 38 37  1  0
 38 42  1  0
 39 38  2  0
 40 35  2  0
 40 39  1  0
 41 40  1  0
 43 44  1  0
 44 47  1  0
 44 46  1  0
 45 43  2  0
 48 49  1  0
 48 23  1  0
 50 48  1  0
 51 52  1  0
 51  6  1  0
 53 54  1  0
 53 52  1  0
 55 57  1  0
 55 54  1  0
 56 67  2  0
 57 62  1  0
 58 66  1  0
 58 68  1  0
 59 65  1  0
 59 61  1  0
 60 66  1  0
 61 60  1  0
 62 61  2  0
 63 64  1  0
 63 57  2  0
 64 59  2  0
 65 58  1  0
 66 56  1  0
 68 70  2  0
 69 68  1  0
 71 69  1  0
 72 81  2  0
 72 77  1  0
 73 69  1  0
 73 77  1  0
 74 73  1  0
 75 76  1  0
 75 74  1  0
 76 72  1  0
 77 78  2  0
 78 79  1  0
 80 79  2  0
 81 80  1  0
 82 56  1  0
 82 87  1  0
 82 83  1  0
 83 86  1  1
 83 84  1  0
 85 83  1  0
 87 90  1  0
 88 92  1  0
 88 87  1  0
 89 88  2  0
 92 91  1  0
 94 92  1  0
 94 95  1  0
 94 93  1  0
M  ISO  4  14 100  15 100  54 101  55 101
M  END
>  <TORSDO>  (7) 
F 27

>  <SCORE>  (7) 
15.229

>  <name>  (7) 
6

>  <ligand_id>  (7) 
6

>  <original_smiles>  (7) 
[H]c1c([H])c(C(=O)C([H])([H])C([H])([H])C([H])([H])C([H])([H])C([H])([H])C([H])([H])C(=O)N2C([H])([H])C([H])([H])C([H])([H])C([H])(n3nc(-c4c([H])c([H])c(Oc5c([H])c([H])c(F)c([H])c5F)c([H])c4[H])c(C(=O)N([H])[H])c3N([H])[H])C2([H])[H])c([H])c(C([H])([H])C([H])([H])C([H])([H])C([H])([H])Oc2c([H])c([H])c3c(c2[H])C([H])([H])N(C(=O)C([H])(N([H])C(=O)C([H])(N([H])C([H])([H])[H])C([H])([H])[H])C(C([H])([H])[H])(C([H])([H])[H])C([H])([H])[H])C([H])(C(=O)N([H])C2([H])c4c([H])c([H])c([H])c([H])c4C([H])([H])C([H])([H])C2([H])[H])C3([H])[H])c1[H]

>  <smiles>  (7) 
[H]c1c([H])c(C(=O)C([H])([H])C([H])([H])C([H])([H])C([H])([H])C([H])([H])C([H])([H])C(=O)N2C([H])([H])C([H])([H])C([H])([H])C([H])(n3nc(-c4c([H])c([H])c(Oc5c([H])c([H])c(F)c([H])c5F)c([H])c4[H])c(C(=O)N([H])[H])c3N([H])[H])C2([H])[H])c([H])c(C([H])([H])C([H])([H])C([H])([H])C([H])([H])Oc2c([H])c([H])c3c(c2[H])C([H])([H])N(C(=O)C([H])(N([H])C(=O)C([H])(N([H])C([H])([H])[H])C([H])([H])[H])C(C([H])([H])[H])(C([H])([H])[H])C([H])([H])[H])C([H])(C(=O)N([H])C2([H])c4c([H])c([H])c([H])c([H])c4C([H])([H])C([H])([H])C2([H])[H])C3([H])[H])c1[H]

$$$$
7:0:0
     RDKit          3D

 95103  0  0  1  0  0  0  0  0999 V2000
  -31.4340  -22.4090   21.1710 C   0  0  0  0  0  3  0  0  0  0  0  0
  -30.4580  -23.4220   21.2060 C   0  0  0  0  0  3  0  0  0  0  0  0
  -31.1000  -21.1090   20.7520 C   0  0  0  0  0  3  0  0  0  0  0  0
  -28.7920  -21.8140   20.4620 C   0  0  0  0  0  3  0  0  0  0  0  0
  -29.1170  -23.1390   20.8540 C   0  0  0  0  0  0  0  0  0  0  0  0
  -29.7800  -20.7950   20.3700 C   0  0  0  0  0  0  0  0  0  0  0  0
  -27.9970  -24.1970   20.8960 C   0  0  0  0  0  2  0  0  0  0  0  0
  -28.3280  -25.6570   21.3310 C   0  0  0  0  0  2  0  0  0  0  0  0
  -28.3430  -26.6130   20.2550 O   0  0  0  0  0  0  0  0  0  0  0  0
  -24.5630  -31.8470   23.2450 C   0  0  0  0  0  0  0  0  0  0  0  0
  -27.2050  -27.3850   20.2080 C   0  0  0  0  0  0  0  0  0  0  0  0
  -23.3620  -30.4420   21.5980 C   0  0  0  0  0  3  0  0  0  0  0  0
  -24.8200  -28.8930   20.1870 C   0  0  0  0  0  0  0  0  0  0  0  0
  -25.8890  -30.7930   21.4190 C   0  0  0  0  0  2  0  0  0  0  0  0
  -25.9740  -29.4200   20.7840 C   0  0  0  0  0  0  0  0  0  0  0  0
  -27.1720  -28.6690   20.7970 C   0  0  0  0  0  3  0  0  0  0  0  0
  -26.0420  -26.8720   19.6010 C   0  0  0  0  0  3  0  0  0  0  0  0
  -24.8470  -27.6180   19.5920 C   0  0  0  0  0  3  0  0  0  0  0  0
  -23.5780  -29.7560   20.2220 C   0  0  0  0  0  2  0  0  0  0  0  0
  -24.6220  -31.0420   22.1470 N   0  0  0  0  0  0  0  0  0  0  0  0
  -23.4790  -32.1280   23.7750 O   0  0  0  0  0  0  0  0  0  0  0  0
  -22.6990  -29.4280   22.5590 C   0  0  0  0  0  0  0  0  0  0  0  0
  -21.3750  -29.2550   22.4210 N   0  0  0  0  0  0  0  0  0  0  0  0
  -23.3720  -28.8020   23.3810 O   0  0  0  0  0  0  0  0  0  0  0  0
  -20.8950  -29.8140   21.7290 H   0  0  0  0  0  0  0  0  0  0  0  0
  -17.9860  -28.0880   22.8990 C   0  0  0  0  0  0  0  0  0  0  0  0
  -20.5440  -28.3250   23.1850 C   0  0  0  0  0  3  0  0  0  0  0  0
  -20.6390  -26.8930   22.6110 C   0  0  0  0  0  2  0  0  0  0  0  0
  -19.5400  -26.5780   21.5900 C   0  0  0  0  0  2  0  0  0  0  0  0
  -18.1550  -26.7360   22.2260 C   0  0  0  0  0  2  0  0  0  0  0  0
  -19.1090  -28.8400   23.3350 C   0  0  0  0  0  0  0  0  0  0  0  0
  -18.9010  -30.1070   23.9230 C   0  0  0  0  0  3  0  0  0  0  0  0
  -17.6010  -30.6230   24.0790 C   0  0  0  0  0  3  0  0  0  0  0  0
  -16.4910  -29.8660   23.6620 C   0  0  0  0  0  3  0  0  0  0  0  0
  -16.6850  -28.6020   23.0780 C   0  0  0  0  0  3  0  0  0  0  0  0
  -25.8500  -32.4720   23.8720 C   0  0  0  0  0  3  0  0  0  0  0  0
  -26.3530  -31.7050   25.1570 C   0  0  1  0  0  0  0  0  0  0  0  0
  -25.2500  -31.4800   26.2180 C   0  0  0  0  0  1  0  0  0  0  0  0
  -26.9290  -30.3220   24.7730 C   0  0  0  0  0  1  0  0  0  0  0  0
  -27.5060  -32.4940   25.8220 C   0  0  0  0  0  1  0  0  0  0  0  0
  -25.5500  -33.8750   24.1890 N   0  0  0  0  0  0  0  0  0  0  0  0
  -25.9040  -34.9190   23.4280 C   0  0  0  0  0  0  0  0  0  0  0  0
  -26.5890  -34.8020   22.4080 O   0  0  0  0  0  0  0  0  0  0  0  0
  -24.9500  -34.0420   24.9830 H   0  0  0  0  0  0  0  0  0  0  0  0
  -24.2010  -36.7260   23.0240 C   0  0  0  0  0  1  0  0  0  0  0  0
  -25.4200  -36.3150   23.8650 C   0  0  0  0  0  3  0  0  0  0  0  0
  -27.5480  -37.1780   24.7380 C   0  0  0  0  0  1  0  0  0  0  0  0
  -26.4650  -37.3570   23.7730 N   0  0  0  0  0  0  0  0  0  0  0  0
  -26.0660  -38.2810   23.9160 H   0  0  0  0  0  0  0  0  0  0  0  0
  -29.5050  -19.3840   19.8050 C   0  0  0  0  0  3  0  0  0  0  0  0
  -29.6480  -18.2420   20.8550 C   0  0  0  0  0  2  0  0  0  0  0  0
  -30.1300  -16.9000   20.2380 C   0  0  0  0  0  2  0  0  0  0  0  0
  -30.0840  -15.6620   21.1750 C   0  0  0  0  0  2  0  0  0  0  0  0
  -30.7580  -14.4230   20.5340 C   0  0  0  0  0  0  0  0  0  0  0  0
  -30.4450  -12.3050   19.3120 C   0  0  0  0  0  2  0  0  0  0  0  0
  -29.5080  -12.5740   18.1150 C   0  0  0  0  0  2  0  0  0  0  0  0
  -28.0300  -12.4460   18.5360 C   0  0  0  0  0  2  0  0  0  0  0  0
  -27.7050  -13.2360   19.8330 C   0  0  0  0  0  3  0  0  0  0  0  0
  -28.7560  -12.9410   20.9260 C   0  0  0  0  0  2  0  0  0  0  0  0
  -30.0820  -13.2520   20.3770 N   0  0  0  0  0  0  0  0  0  0  0  0
  -31.8880  -14.5850   20.0620 O   0  0  0  0  0  0  0  0  0  0  0  0
  -25.2990  -13.8470   20.5040 C   0  0  0  0  0  0  0  0  0  0  0  0
  -24.2260  -13.0750   20.8660 C   0  0  0  0  0  0  0  0  0  0  0  0
  -24.6890  -11.7240   20.8530 C   0  0  0  0  0  0  0  0  0  0  0  0
  -26.3480  -12.9640   20.2960 N   0  0  0  0  0  0  0  0  0  0  0  0
  -25.9820  -11.6830   20.5580 N   0  0  0  0  0  0  0  0  0  0  0  0
  -23.9620  -10.4630   21.0440 C   0  0  0  0  0  0  0  0  0  0  0  0
  -24.3930   -9.4980   21.9830 C   0  0  0  0  0  3  0  0  0  0  0  0
  -23.6670   -8.3000   22.1630 C   0  0  0  0  0  3  0  0  0  0  0  0
  -22.4980   -8.0590   21.4040 C   0  0  0  0  0  0  0  0  0  0  0  0
  -22.0860   -9.0120   20.4550 C   0  0  0  0  0  3  0  0  0  0  0  0
  -22.8110  -10.2000   20.2730 C   0  0  0  0  0  3  0  0  0  0  0  0
  -21.7440   -6.9130   21.4940 O   0  0  0  0  0  0  0  0  0  0  0  0
  -21.6970   -6.1710   22.6460 C   0  0  0  0  0  0  0  0  0  0  0  0
  -21.2740   -6.7240   23.8730 C   0  0  0  0  0  3  0  0  0  0  0  0
  -21.1770   -5.9080   25.0180 C   0  0  0  0  0  3  0  0  0  0  0  0
  -21.4910   -4.5380   24.9350 C   0  0  0  0  0  0  0  0  0  0  0  0
  -21.9080   -3.9840   23.7120 C   0  0  0  0  0  3  0  0  0  0  0  0
  -22.0080   -4.7970   22.5700 C   0  0  0  0  0  0  0  0  0  0  0  0
  -22.3890   -4.2540   21.3890 F   0  0  0  0  0  0  0  0  0  0  0  0
  -21.3890   -3.7510   26.0310 F   0  0  0  0  0  0  0  0  0  0  0  0
  -22.8250  -13.5530   21.1220 C   0  0  0  0  0  0  0  0  0  0  0  0
  -22.0910  -12.8620   21.9870 N   0  0  0  0  0  0  0  0  0  0  0  0
  -22.3900  -14.5740   20.5920 O   0  0  0  0  0  0  0  0  0  0  0  0
  -22.4550  -12.0360   22.4380 H   0  0  0  0  0  0  0  0  0  0  0  0
  -21.1500  -13.1630   22.2010 H   0  0  0  0  0  0  0  0  0  0  0  0
  -25.4650  -15.2150   20.3180 N   0  0  0  0  0  0  0  0  0  0  0  0
  -24.7000  -15.8740   20.4150 H   0  0  0  0  0  0  0  0  0  0  0  0
  -26.3270  -15.6500   20.0170 H   0  0  0  0  0  0  0  0  0  0  0  0
  -28.1970  -19.2650   18.9810 C   0  0  0  0  0  2  0  0  0  0  0  0
  -28.2310  -20.0470   17.6460 C   0  0  0  0  0  2  0  0  0  0  0  0
  -26.9420  -20.0120   16.9320 N   0  0  0  0  0  4  0  0  0  0  0  0
  -26.6530  -19.0680   16.7460 H   0  0  0  0  0  0  0  0  0  0  0  0
  -27.0320  -20.4850   16.0500 H   0  0  0  0  0  0  0  0  0  0  0  0
  -26.2260  -20.4770   17.4590 H   0  0  0  0  0  0  0  0  0  0  0  0
  1  2  1  0
  3  1  2  0
  4  5  1  0
  5  7  1  0
  5  2  2  0
  6  4  2  0
  6  3  1  0
  7  8  1  0
  9  8  1  0
 10 21  2  0
 11  9  1  0
 11 16  1  0
 12 20  1  0
 12 22  1  0
 13 19  1  0
 13 15  1  0
 14 20  1  0
 15 16  2  0
 15 14  1  0
 17 11  2  0
 18 17  1  0
 18 13  2  0
 19 12  1  0
 20 10  1  0
 22 24  2  0
 23 22  1  0
 25 23  1  0
 26 35  2  0
 26 31  1  0
 27 23  1  0
 27 31  1  0
 28 27  1  0
 29 30  1  0
 29 28  1  0
 30 26  1  0
 31 32  2  0
 32 33  1  0
 34 33  2  0
 35 34  1  0
 36 10  1  0
 36 41  1  0
 36 37  1  0
 37 40  1  1
 37 38  1  0
 39 37  1  0
 41 44  1  0
 42 46  1  0
 42 41  1  0
 43 42  2  0
 46 45  1  0
 48 46  1  0
 48 49  1  0
 48 47  1  0
 50 90  1  0
 50  6  1  0
 50 51  1  0
 52 51  1  0
 52 53  1  0
 54 53  1  0
 55 60  1  0
 56 57  1  0
 56 55  1  0
 58 57  1  0
 58 65  1  0
 58 59  1  0
 60 54  1  0
 60 59  1  0
 61 54  2  0
 62 63  2  0
 63 82  1  0
 64 63  1  0
 64 67  1  0
 65 62  1  0
 65 66  1  0
 66 64  2  0
 67 68  1  0
 68 69  2  0
 70 73  1  0
 70 69  1  0
 71 70  2  0
 72 71  1  0
 72 67  2  0
 73 74  1  0
 74 75  1  0
 75 76  2  0
 77 76  1  0
 77 81  1  0
 78 77  2  0
 79 74  2  0
 79 78  1  0
 80 79  1  0
 82 83  1  0
 83 86  1  0
 83 85  1  0
 84 82  2  0
 87 88  1  0
 87 62  1  0
 89 87  1  0
 91 90  1  0
 92 95  1  0
 92 91  1  0
 93 92  1  0
 94 92  1  0
M  ISO  4   8 101   9 101  53 100  54 100
M  END
>  <TORSDO>  (8) 
F 25

>  <SCORE>  (8) 
-12.470

>  <name>  (8) 
7

>  <ligand_id>  (8) 
7

>  <original_smiles>  (8) 
[H]c1c([H])c([H])c2c(c1[H])C([H])([H])C([H])([H])C([H])([H])C2([H])N([H])C(=O)C1([H])N(C(=O)C([H])(N([H])C(=O)C([H])(N([H])C([H])([H])[H])C([H])([H])[H])C(C([H])([H])[H])(C([H])([H])[H])C([H])([H])[H])C([H])([H])c2c([H])c(OC([H])([H])C([H])([H])c3c([H])c([H])c([H])c(C([H])(C([H])([H])C([H])([H])C([H])([H])C(=O)N4C([H])([H])C([H])([H])C([H])([H])C([H])(n5nc(-c6c([H])c([H])c(Oc7c([H])c([H])c(F)c([H])c7F)c([H])c6[H])c(C(=O)N([H])[H])c5N([H])[H])C4([H])[H])C([H])([H])C([H])([H])[N+]([H])([H])[H])c3[H])c([H])c([H])c2C1([H])[H]

>  <smiles>  (8) 
[H]c1c([H])c([H])c2c(c1[H])C([H])([H])C([H])([H])C([H])([H])C2([H])N([H])C(=O)C1([H])N(C(=O)C([H])(N([H])C(=O)C([H])(N([H])C([H])([H])[H])C([H])([H])[H])C(C([H])([H])[H])(C([H])([H])[H])C([H])([H])[H])C([H])([H])c2c([H])c(OC([H])([H])C([H])([H])c3c([H])c([H])c([H])c(C([H])(C([H])([H])C([H])([H])C([H])([H])C(=O)N4C([H])([H])C([H])([H])C([H])([H])C([H])(n5nc(-c6c([H])c([H])c(Oc7c([H])c([H])c(F)c([H])c7F)c([H])c6[H])c(C(=O)N([H])[H])c5N([H])[H])C4([H])[H])C([H])([H])C([H])([H])[N+]([H])([H])[H])c3[H])c([H])c([H])c2C1([H])[H]

$$$$
8:0:0
     RDKit          3D

101110  0  0  1  0  0  0  0  0999 V2000
  -31.6680  -26.4160   24.0870 C   0  0  0  0  0  3  0  0  0  0  0  0
  -32.0270  -27.5430   23.3260 C   0  0  0  0  0  3  0  0  0  0  0  0
  -30.7880  -25.3340   22.0870 C   0  0  0  0  0  3  0  0  0  0  0  0
  -31.0600  -25.2970   23.4740 C   0  0  0  0  0  0  0  0  0  0  0  0
  -31.1260  -26.4730   21.3200 C   0  0  0  0  0  0  0  0  0  0  0  0
  -31.7580  -27.5750   21.9440 C   0  0  0  0  0  0  0  0  0  0  0  0
  -30.6490  -24.1540   24.3290 C   0  0  0  0  0  0  0  0  0  0  0  0
  -30.2440  -24.3170   25.4850 O   0  0  0  0  0  0  0  0  0  0  0  0
  -30.8170  -22.7360   23.7560 C   0  0  0  0  0  2  0  0  0  0  0  0
  -30.3340  -21.6330   24.7230 C   0  0  0  0  0  2  0  0  0  0  0  0
  -30.3820  -19.1840   25.4050 C   0  0  0  0  0  2  0  0  0  0  0  0
  -30.7050  -17.8650   24.7200 C   0  0  0  0  0  2  0  0  0  0  0  0
  -30.4520  -19.6440   23.0390 C   0  0  0  0  0  2  0  0  0  0  0  0
  -30.8650  -20.2290   24.4000 C   0  0  0  0  0  3  0  0  0  0  0  0
  -30.4450  -18.1040   23.2160 C   0  0  0  0  0  3  0  0  0  0  0  0
  -31.4310  -17.4220   22.3400 N   0  0  0  0  0  4  0  0  0  0  0  0
  -32.3270  -17.8620   22.4870 H   0  0  0  0  0  0  0  0  0  0  0  0
  -31.1920  -17.5750   21.3730 H   0  0  0  0  0  0  0  0  0  0  0  0
  -31.6170  -15.9660   22.5670 C   0  0  0  0  0  2  0  0  0  0  0  0
  -30.4600  -15.0860   22.0310 C   0  0  0  0  0  2  0  0  0  0  0  0
  -30.7860  -14.3090   20.7440 C   0  0  0  0  0  0  0  0  0  0  0  0
  -30.4160  -12.2980   19.3580 C   0  0  0  0  0  2  0  0  0  0  0  0
  -29.4700  -12.5470   18.1720 C   0  0  0  0  0  2  0  0  0  0  0  0
  -27.9980  -12.3960   18.6000 C   0  0  0  0  0  2  0  0  0  0  0  0
  -27.6690  -13.2000   19.8820 C   0  0  0  0  0  3  0  0  0  0  0  0
  -28.7090  -12.9180   20.9870 C   0  0  0  0  0  2  0  0  0  0  0  0
  -30.0480  -13.2110   20.4470 N   0  0  0  0  0  0  0  0  0  0  0  0
  -31.7460  -14.6650   20.0510 O   0  0  0  0  0  0  0  0  0  0  0  0
  -25.2610  -13.8150   20.5690 C   0  0  0  0  0  0  0  0  0  0  0  0
  -24.1850  -13.0420   20.9170 C   0  0  0  0  0  0  0  0  0  0  0  0
  -24.6420  -11.6890   20.8730 C   0  0  0  0  0  0  0  0  0  0  0  0
  -26.3060  -12.9320   20.3410 N   0  0  0  0  0  0  0  0  0  0  0  0
  -25.9340  -11.6480   20.5750 N   0  0  0  0  0  0  0  0  0  0  0  0
  -23.9070  -10.4290   21.0400 C   0  0  0  0  0  0  0  0  0  0  0  0
  -24.3630   -9.4200   21.9180 C   0  0  0  0  0  3  0  0  0  0  0  0
  -23.6300   -8.2230   22.0760 C   0  0  0  0  0  3  0  0  0  0  0  0
  -22.4280   -8.0290   21.3540 C   0  0  0  0  0  0  0  0  0  0  0  0
  -21.9930   -9.0260   20.4630 C   0  0  0  0  0  3  0  0  0  0  0  0
  -22.7250  -10.2150   20.3040 C   0  0  0  0  0  3  0  0  0  0  0  0
  -21.6630   -6.8880   21.4250 O   0  0  0  0  0  0  0  0  0  0  0  0
  -21.6860   -6.0740   22.5290 C   0  0  0  0  0  0  0  0  0  0  0  0
  -21.4020   -6.5650   23.8220 C   0  0  0  0  0  3  0  0  0  0  0  0
  -21.3650   -5.6800   24.9180 C   0  0  0  0  0  3  0  0  0  0  0  0
  -21.6040   -4.3060   24.7220 C   0  0  0  0  0  0  0  0  0  0  0  0
  -21.8830   -3.8150   23.4340 C   0  0  0  0  0  3  0  0  0  0  0  0
  -21.9200   -4.6970   22.3400 C   0  0  0  0  0  0  0  0  0  0  0  0
  -22.1670   -4.2150   21.0980 F   0  0  0  0  0  0  0  0  0  0  0  0
  -21.5630   -3.4550   25.7730 F   0  0  0  0  0  0  0  0  0  0  0  0
  -22.7870  -13.5220   21.1850 C   0  0  0  0  0  0  0  0  0  0  0  0
  -22.0520  -12.8180   22.0390 N   0  0  0  0  0  0  0  0  0  0  0  0
  -22.3540  -14.5510   20.6700 O   0  0  0  0  0  0  0  0  0  0  0  0
  -22.4180  -11.9860   22.4770 H   0  0  0  0  0  0  0  0  0  0  0  0
  -21.1100  -13.1160   22.2580 H   0  0  0  0  0  0  0  0  0  0  0  0
  -25.4320  -15.1870   20.4110 N   0  0  0  0  0  0  0  0  0  0  0  0
  -24.6620  -15.8390   20.5100 H   0  0  0  0  0  0  0  0  0  0  0  0
  -26.2890  -15.6270   20.1010 H   0  0  0  0  0  0  0  0  0  0  0  0
  -32.1020  -28.6800   21.2190 O   0  0  0  0  0  0  0  0  0  0  0  0
  -32.5310  -29.3500   21.7420 H   0  0  0  0  0  0  0  0  0  0  0  0
  -30.8010  -26.5100   19.8330 C   0  0  0  0  0  2  0  0  0  0  0  0
  -29.5580  -27.3570   19.5120 C   0  0  0  0  0  2  0  0  0  0  0  0
  -28.3960  -26.7220   20.0430 O   0  0  0  0  0  0  0  0  0  0  0  0
  -24.6100  -31.8700   23.2120 C   0  0  0  0  0  0  0  0  0  0  0  0
  -27.2540  -27.4830   20.0820 C   0  0  0  0  0  0  0  0  0  0  0  0
  -23.3960  -30.4920   21.5510 C   0  0  0  0  0  3  0  0  0  0  0  0
  -24.8480  -28.9600   20.1180 C   0  0  0  0  0  0  0  0  0  0  0  0
  -25.9200  -30.8500   21.3590 C   0  0  0  0  0  2  0  0  0  0  0  0
  -26.0030  -29.4870   20.7090 C   0  0  0  0  0  0  0  0  0  0  0  0
  -27.2070  -28.7540   20.6980 C   0  0  0  0  0  3  0  0  0  0  0  0
  -26.0800  -26.9510   19.5130 C   0  0  0  0  0  3  0  0  0  0  0  0
  -24.8780  -27.6870   19.5210 C   0  0  0  0  0  3  0  0  0  0  0  0
  -23.6040  -29.8180   20.1670 C   0  0  0  0  0  2  0  0  0  0  0  0
  -24.6600  -31.0840   22.1000 N   0  0  0  0  0  0  0  0  0  0  0  0
  -23.5310  -32.1450   23.7540 O   0  0  0  0  0  0  0  0  0  0  0  0
  -22.7390  -29.4670   22.5010 C   0  0  0  0  0  0  0  0  0  0  0  0
  -21.4120  -29.3020   22.3740 N   0  0  0  0  0  0  0  0  0  0  0  0
  -23.4170  -28.8230   23.3050 O   0  0  0  0  0  0  0  0  0  0  0  0
  -20.9270  -29.8740   21.6960 H   0  0  0  0  0  0  0  0  0  0  0  0
  -18.0270  -28.1370   22.8490 C   0  0  0  0  0  0  0  0  0  0  0  0
  -20.5860  -28.3660   23.1330 C   0  0  0  0  0  3  0  0  0  0  0  0
  -20.6760  -26.9400   22.5430 C   0  0  0  0  0  2  0  0  0  0  0  0
  -19.5740  -26.6380   21.5220 C   0  0  0  0  0  2  0  0  0  0  0  0
  -18.1910  -26.7920   22.1620 C   0  0  0  0  0  2  0  0  0  0  0  0
  -19.1520  -28.8820   23.2910 C   0  0  0  0  0  0  0  0  0  0  0  0
  -18.9440  -30.1440   23.8920 C   0  0  0  0  0  3  0  0  0  0  0  0
  -17.6450  -30.6580   24.0560 C   0  0  0  0  0  3  0  0  0  0  0  0
  -16.5340  -29.9080   23.6330 C   0  0  0  0  0  3  0  0  0  0  0  0
  -16.7260  -28.6500   23.0350 C   0  0  0  0  0  3  0  0  0  0  0  0
  -25.9010  -32.4830   23.8400 C   0  0  0  0  0  3  0  0  0  0  0  0
  -26.4470  -31.6590   25.0710 C   0  0  1  0  0  0  0  0  0  0  0  0
  -25.3740  -31.3660   26.1460 C   0  0  0  0  0  1  0  0  0  0  0  0
  -27.0310  -30.3050   24.6040 C   0  0  0  0  0  1  0  0  0  0  0  0
  -27.6040  -32.4310   25.7480 C   0  0  0  0  0  1  0  0  0  0  0  0
  -25.5880  -33.8630   24.2340 N   0  0  0  0  0  0  0  0  0  0  0  0
  -25.9030  -34.9490   23.5140 C   0  0  0  0  0  0  0  0  0  0  0  0
  -26.5590  -34.8930   22.4700 O   0  0  0  0  0  0  0  0  0  0  0  0
  -25.0050  -33.9800   25.0490 H   0  0  0  0  0  0  0  0  0  0  0  0
  -24.1490  -36.7320   23.2640 C   0  0  0  0  0  1  0  0  0  0  0  0
  -25.4110  -36.3120   24.0340 C   0  0  0  0  0  3  0  0  0  0  0  0
  -27.5580  -37.1820   24.8460 C   0  0  0  0  0  1  0  0  0  0  0  0
  -26.4300  -37.3800   23.9410 N   0  0  0  0  0  0  0  0  0  0  0  0
  -26.0190  -38.2880   24.1400 H   0  0  0  0  0  0  0  0  0  0  0  0
  2  1  2  0
  3  4  2  0
  4  1  1  0
  4  7  1  0
  5  6  2  0
  5  3  1  0
  6  2  1  0
  7  8  2  0
  9  7  1  0
  9 10  1  0
 12 11  1  0
 13 15  1  0
 13 14  1  0
 14 10  1  0
 14 11  1  0
 15 16  1  0
 15 12  1  0
 16 17  1  0
 16 19  1  0
 18 16  1  0
 20 19  1  0
 21 20  1  0
 22 27  1  0
 23 24  1  0
 23 22  1  0
 25 24  1  0
 25 32  1  0
 25 26  1  0
 27 21  1  0
 27 26  1  0
 28 21  2  0
 29 30  2  0
 30 49  1  0
 31 30  1  0
 31 34  1  0
 32 29  1  0
 32 33  1  0
 33 31  2  0
 34 35  1  0
 35 36  2  0
 37 40  1  0
 37 36  1  0
 38 37  2  0
 39 38  1  0
 39 34  2  0
 40 41  1  0
 41 42  1  0
 42 43  2  0
 44 43  1  0
 44 48  1  0
 45 44  2  0
 46 41  2  0
 46 45  1  0
 47 46  1  0
 49 50  1  0
 50 53  1  0
 50 52  1  0
 51 49  2  0
 54 55  1  0
 54 29  1  0
 56 54  1  0
 57 58  1  0
 57  6  1  0
 59  5  1  0
 60 59  1  0
 60 61  1  0
 61 63  1  0
 62 73  2  0
 63 68  1  0
 64 72  1  0
 64 74  1  0
 65 71  1  0
 65 67  1  0
 66 72  1  0
 67 66  1  0
 68 67  2  0
 69 70  1  0
 69 63  2  0
 70 65  2  0
 71 64  1  0
 72 62  1  0
 74 76  2  0
 75 74  1  0
 77 75  1  0
 78 87  2  0
 78 83  1  0
 79 75  1  0
 79 83  1  0
 80 79  1  0
 81 82  1  0
 81 80  1  0
 82 78  1  0
 83 84  2  0
 84 85  1  0
 86 85  2  0
 87 86  1  0
 88 62  1  0
 88 93  1  0
 88 89  1  0
 89 92  1  1
 89 90  1  0
 91 89  1  0
 93 96  1  0
 94 98  1  0
 94 93  1  0
 95 94  2  0
 98 97  1  0
100 98  1  0
100101  1  0
100 99  1  0
M  ISO  4  20 100  21 100  60 101  61 101
M  END
>  <TORSDO>  (9) 
F 26

>  <SCORE>  (9) 
1.382

>  <name>  (9) 
8

>  <ligand_id>  (9) 
8

>  <original_smiles>  (9) 
[H]Oc1c([H])c([H])c(C(=O)C([H])([H])C([H])([H])C2([H])C([H])([H])C([H])([H])C([H])([N+]([H])([H])C([H])([H])C([H])([H])C(=O)N3C([H])([H])C([H])([H])C([H])([H])C([H])(n4nc(-c5c([H])c([H])c(Oc6c([H])c([H])c(F)c([H])c6F)c([H])c5[H])c(C(=O)N([H])[H])c4N([H])[H])C3([H])[H])C2([H])[H])c([H])c1C([H])([H])C([H])([H])Oc1c([H])c([H])c2c(c1[H])C([H])([H])N(C(=O)C([H])(N([H])C(=O)C([H])(N([H])C([H])([H])[H])C([H])([H])[H])C(C([H])([H])[H])(C([H])([H])[H])C([H])([H])[H])C([H])(C(=O)N([H])C1([H])c3c([H])c([H])c([H])c([H])c3C([H])([H])C([H])([H])C1([H])[H])C2([H])[H]

>  <smiles>  (9) 
[H]Oc1c([H])c([H])c(C(=O)C([H])([H])C([H])([H])C2([H])C([H])([H])C([H])([H])C([H])([N+]([H])([H])C([H])([H])C([H])([H])C(=O)N3C([H])([H])C([H])([H])C([H])([H])C([H])(n4nc(-c5c([H])c([H])c(Oc6c([H])c([H])c(F)c([H])c6F)c([H])c5[H])c(C(=O)N([H])[H])c4N([H])[H])C3([H])[H])C2([H])[H])c([H])c1C([H])([H])C([H])([H])Oc1c([H])c([H])c2c(c1[H])C([H])([H])N(C(=O)C([H])(N([H])C(=O)C([H])(N([H])C([H])([H])[H])C([H])([H])[H])C(C([H])([H])[H])(C([H])([H])[H])C([H])([H])[H])C([H])(C(=O)N([H])C1([H])c3c([H])c([H])c([H])c([H])c3C([H])([H])C([H])([H])C1([H])[H])C2([H])[H]

$$$$
9:0:0
     RDKit          3D

102101  0  0  1  0  0  0  0  0999 V2000
  -15.2730  -27.1040   22.4930 C   0  0  0  0  0  3  0  0  0  0  0  0
  -17.5970  -26.1560   24.4290 C   0  0  0  0  0  3  0  0  0  0  0  0
  -15.9150  -26.4570   23.9980 C   0  0  0  0  0  0  0  0  0  0  0  0
  -16.1380  -27.6120   21.0570 C   0  0  0  0  0  0  0  0  0  0  0  0
  -18.9530  -26.4670   23.3330 C   0  0  0  0  0  2  0  0  0  0  0  0
  -17.9020  -27.5080   20.9100 C   0  0  0  0  0  3  0  0  0  0  0  0
  -15.3000  -27.9780   19.8470 C   0  0  0  0  0  1  0  0  0  0  0  0
  -15.0650  -26.8370   26.3660 C   0  0  0  0  0  1  0  0  0  0  0  0
  -14.6800  -24.6150   25.1680 C   0  0  0  0  0  1  0  0  0  0  0  0
  -14.8440  -26.1300   25.0220 C   0  0  0  0  0  3  0  0  0  0  0  0
  -17.9950  -28.0440   18.2380 C   0  0  0  0  0  1  0  0  0  0  0  0
  -18.4210  -26.8780   19.1400 C   0  0  0  0  0  3  0  0  0  0  0  0
  -19.8390  -26.1780   18.2580 N   0  0  0  0  0  4  0  0  0  0  0  0
  -20.0380  -26.9050   17.5890 H   0  0  0  0  0  0  0  0  0  0  0  0
  -20.5190  -26.2800   18.9960 H   0  0  0  0  0  0  0  0  0  0  0  0
  -20.5620  -24.7290   17.4490 C   0  0  0  0  0  1  0  0  0  0  0  0
  -22.3550  -23.8720   17.3250 C   0  0  0  0  0 15  0  0  0  0  0  0
  -23.3310  -22.1530   17.4500 C   0  0  0  0  0 15  0  0  0  0  0  0
  -25.1280  -21.3230   17.3690 C   0  0  0  0  0 15  0  0  0  0  0  0
  -26.2590  -19.8730   18.1120 C   0  0  0  0  0 15  0  0  0  0  0  0
  -28.0250  -18.9800   17.9750 C   0  0  0  0  0 15  0  0  0  0  0  0
  -29.2710  -17.8030   18.9660 C   0  0  0  0  0  1  0  0  0  0  0  0
  -30.7580  -16.5990   18.9100 C   0  0  0  0  0  0  0  0  0  0  0  0
  -31.6970  -14.1000   18.8310 C   0  0  0  0  0  2  0  0  0  0  0  0
  -30.8450  -13.3000   17.8040 C   0  0  0  0  0  2  0  0  0  0  0  0
  -29.4620  -12.9470   18.3950 C   0  0  0  0  0  2  0  0  0  0  0  0
  -28.8860  -14.1290   19.2080 C   0  0  0  0  0  3  0  0  0  0  0  0
  -29.8770  -14.6550   20.2330 C   0  0  0  0  0  2  0  0  0  0  0  0
  -30.8610  -15.2500   19.3800 N   0  0  0  0  0  0  0  0  0  0  0  0
  -31.9170  -16.8680   18.4900 O   0  0  0  0  0  0  0  0  0  0  0  0
  -26.7600  -14.8060   20.3720 C   0  0  0  0  0  0  0  0  0  0  0  0
  -25.7110  -14.0790   20.8380 C   0  0  0  0  0  0  0  0  0  0  0  0
  -26.0380  -12.7090   20.5880 C   0  0  0  0  0  0  0  0  0  0  0  0
  -27.6400  -13.8760   19.8580 N   0  0  0  0  0  0  0  0  0  0  0  0
  -27.2460  -12.6020   20.0620 N   0  0  0  0  0  0  0  0  0  0  0  0
  -25.2380  -11.4990   20.7440 C   0  0  0  0  0  0  0  0  0  0  0  0
  -25.5720  -10.5100   21.6940 C   0  0  0  0  0  3  0  0  0  0  0  0
  -24.7690   -9.3600   21.8290 C   0  0  0  0  0  3  0  0  0  0  0  0
  -23.6240   -9.1960   21.0150 C   0  0  0  0  0  0  0  0  0  0  0  0
  -23.3150  -10.1730   20.0530 C   0  0  0  0  0  3  0  0  0  0  0  0
  -24.1170  -11.3150   19.9140 C   0  0  0  0  0  3  0  0  0  0  0  0
  -22.7950   -8.1030   21.0640 O   0  0  0  0  0  0  0  0  0  0  0  0
  -22.4290   -7.5340   22.2580 C   0  0  0  0  0  0  0  0  0  0  0  0
  -21.7370   -8.2630   23.2500 C   0  0  0  0  0  3  0  0  0  0  0  0
  -21.3150   -7.6190   24.4290 C   0  0  0  0  0  3  0  0  0  0  0  0
  -21.5780   -6.2480   24.6180 C   0  0  0  0  0  0  0  0  0  0  0  0
  -22.2620   -5.5200   23.6280 C   0  0  0  0  0  3  0  0  0  0  0  0
  -22.6840   -6.1630   22.4510 C   0  0  0  0  0  0  0  0  0  0  0  0
  -23.3250   -5.4530   21.4910 F   0  0  0  0  0  0  0  0  0  0  0  0
  -21.1660   -5.6260   25.7470 F   0  0  0  0  0  0  0  0  0  0  0  0
  -24.4290  -14.6350   21.3720 C   0  0  0  0  0  0  0  0  0  0  0  0
  -23.8040  -13.9360   22.3100 N   0  0  0  0  0  0  0  0  0  0  0  0
  -24.0000  -15.7250   20.9930 O   0  0  0  0  0  0  0  0  0  0  0  0
  -24.1670  -13.0520   22.6340 H   0  0  0  0  0  0  0  0  0  0  0  0
  -22.9470  -14.2920   22.7110 H   0  0  0  0  0  0  0  0  0  0  0  0
  -27.0080  -16.1730   20.3090 N   0  0  0  0  0  0  0  0  0  0  0  0
  -26.3060  -16.8470   20.5930 H   0  0  0  0  0  0  0  0  0  0  0  0
  -27.7960  -16.5970   19.8390 H   0  0  0  0  0  0  0  0  0  0  0  0
  -20.6920  -25.5700   23.6180 C   0  0  0  0  0 15  0  0  0  0  0  0
  -22.2890  -24.5180   22.7600 C   0  0  0  0  0 15  0  0  0  0  0  0
  -24.2240  -24.4770   22.0160 C   0  0  0  0  0  1  0  0  0  0  0  0
  -25.5390  -23.9930   20.8520 O   0  0  0  0  0  0  0  0  0  0  0  0
  -25.6270  -28.8460   23.1970 C   0  0  0  0  0  0  0  0  0  0  0  0
  -26.5550  -24.6140   20.0110 C   0  0  0  0  0  3  0  0  0  0  0  0
  -24.4760  -28.4580   21.0300 C   0  0  0  0  0  3  0  0  0  0  0  0
  -25.6690  -26.9820   19.3490 C   0  0  0  0  0  0  0  0  0  0  0  0
  -26.9450  -28.0560   21.2260 C   0  0  0  0  0  2  0  0  0  0  0  0
  -26.7190  -26.9050   20.2780 C   0  0  0  0  0  3  0  0  0  0  0  0
  -27.3350  -25.6750   20.4990 C   0  0  0  0  0  2  0  0  0  0  0  0
  -26.1310  -24.7190   18.6700 C   0  0  0  0  0  2  0  0  0  0  0  0
  -25.4500  -25.9250   18.4360 C   0  0  0  0  0  3  0  0  0  0  0  0
  -24.7760  -28.1770   19.5130 C   0  0  0  0  0  2  0  0  0  0  0  0
  -25.6940  -28.4560   21.8890 N   0  0  0  0  0  0  0  0  0  0  0  0
  -24.5630  -29.2280   23.7130 O   0  0  0  0  0  0  0  0  0  0  0  0
  -23.5220  -27.4190   21.5160 C   0  0  0  0  0  0  0  0  0  0  0  0
  -22.8460  -26.8130   20.5490 N   0  0  0  0  0  0  0  0  0  0  0  0
  -23.3860  -27.1910   22.7080 O   0  0  0  0  0  0  0  0  0  0  0  0
  -23.0310  -27.1170   19.6050 H   0  0  0  0  0  0  0  0  0  0  0  0
  -19.4590  -24.8410   21.0250 C   0  0  0  0  0  3  0  0  0  0  0  0
  -21.9400  -25.7640   20.7310 C   0  0  0  0  0  0  0  0  0  0  0  0
  -22.1430  -24.3470   20.2870 C   0  0  0  0  0  3  0  0  0  0  0  0
  -20.9560  -23.3540   20.3890 C   0  0  0  0  0  2  0  0  0  0  0  0
  -19.4910  -23.6540   20.3060 C   0  0  0  0  0  2  0  0  0  0  0  0
  -20.6840  -26.1080   21.0210 C   0  0  0  0  0  0  0  0  0  0  0  0
  -20.4800  -27.7150   21.5690 C   0  0  0  0  0  3  0  0  0  0  0  0
  -19.1330  -28.3740   22.1410 C   0  0  0  0  0  2  0  0  0  0  0  0
  -17.8330  -27.5060   22.2460 C   0  0  0  0  0  3  0  0  0  0  0  0
  -17.9270  -25.2170   21.5890 C   0  0  0  0  0  1  0  0  0  0  0  0
  -26.8970  -28.8850   24.0890 C   0  0  0  0  0  3  0  0  0  0  0  0
  -26.9670  -30.2430   24.6270 N   0  0  0  0  0  0  0  0  0  0  0  0
  -27.6550  -31.2340   24.0500 C   0  0  0  0  0  0  0  0  0  0  0  0
  -28.3730  -31.0620   23.0630 O   0  0  0  0  0  0  0  0  0  0  0  0
  -26.3580  -30.4610   25.4010 H   0  0  0  0  0  0  0  0  0  0  0  0
  -26.6140  -33.5070   23.8040 C   0  0  0  0  0  1  0  0  0  0  0  0
  -27.5300  -32.6320   24.6760 C   0  0  0  0  0  3  0  0  0  0  0  0
  -29.6600  -32.6720   25.8930 C   0  0  0  0  0  1  0  0  0  0  0  0
  -28.8330  -33.3020   24.8660 N   0  0  0  0  0  0  0  0  0  0  0  0
  -28.7040  -34.2790   25.1180 H   0  0  0  0  0  0  0  0  0  0  0  0
  -26.9150  -27.8190   25.2500 C   0  0  1  0  0  0  0  0  0  0  0  0
  -25.6400  -27.8150   26.1230 C   0  0  0  0  0  1  0  0  0  0  0  0
  -27.1080  -26.3990   24.6770 C   0  0  0  0  0  1  0  0  0  0  0  0
  -28.1310  -28.0890   26.1690 C   0  0  0  0  0  1  0  0  0  0  0  0
  1  3  1  0
  3  2  2  0
  3 10  1  0
  4  1  2  0
  5  2  1  0
  6 12  1  0
  6  4  1  0
  6 87  1  0
  7  4  1  0
 10  9  1  0
 10  8  1  0
 12 11  1  0
 13 15  1  0
 13 12  1  0
 14 13  1  0
 16 13  1  0
 23 22  1  0
 23 29  1  0
 24 29  1  0
 25 26  1  0
 25 24  1  0
 27 26  1  0
 27 34  1  0
 27 28  1  0
 29 28  1  0
 30 23  2  0
 31 32  2  0
 32 51  1  0
 33 36  1  0
 33 32  1  0
 34 35  1  0
 34 31  1  0
 35 33  2  0
 36 37  1  0
 37 38  2  0
 39 42  1  0
 39 38  1  0
 40 39  2  0
 41 40  1  0
 41 36  2  0
 42 43  1  0
 43 48  2  0
 43 44  1  0
 44 45  2  0
 45 46  1  0
 46 50  1  0
 47 46  2  0
 48 47  1  0
 49 48  1  0
 51 52  1  0
 52 54  1  0
 52 55  1  0
 53 51  2  0
 56 31  1  0
 56 57  1  0
 58 56  1  0
 62 61  1  0
 63 74  2  0
 64 69  1  0
 64 62  1  0
 65 75  1  0
 65 73  1  0
 66 72  1  0
 66 68  1  0
 67 73  1  0
 68 69  1  0
 68 67  1  0
 70 64  1  0
 71 70  1  0
 71 66  2  0
 72 65  1  0
 73 63  1  0
 75 77  2  0
 76 80  1  0
 76 75  1  0
 78 76  1  0
 79 88  1  0
 80 84  1  0
 81 82  1  0
 81 80  2  0
 83 82  1  0
 83 79  1  0
 84 79  1  0
 84 85  2  0
 85 86  1  0
 87 86  1  0
 87  5  1  0
 89 63  1  0
 89 90  1  0
 89 99  1  0
 90 93  1  0
 91 90  1  0
 91 95  1  0
 92 91  2  0
 95 94  1  0
 95 97  1  0
 97 98  1  0
 97 96  1  0
 99100  1  1
 99102  1  0
101 99  1  0
M  ISO  4  22 100  23 100  61 101  62 101
M  END
>  <TORSDO>  (10) 
F 29

>  <SCORE>  (10) 
1.280

>  <name>  (10) 
9

>  <ligand_id>  (10) 
9

>  <original_smiles>  (10) 
[H]c1c([H])c([H])c2c(c1[H])C([H])([H])C([H])([H])C([H])([H])C2([H])N([H])C(=O)C1([H])N(C(=O)C([H])(N([H])C(=O)C([H])(N([H])C([H])([H])[H])C([H])([H])[H])C(C([H])([H])[H])(C([H])([H])[H])C([H])([H])[H])C([H])([H])c2c([H])c(OC([H])([H])C([H])([H])C([H])([H])c3c([H])c(C([H])(C([H])([H])[H])C([H])([H])[H])c([H])c(C([H])([H])[H])c3C([H])(C([H])([H])[H])[N+]([H])([H])C([H])([H])C([H])([H])C([H])([H])C([H])([H])C([H])([H])C([H])([H])C([H])([H])C(=O)N3C([H])([H])C([H])([H])C([H])([H])C([H])(n4nc(-c5c([H])c([H])c(Oc6c([H])c([H])c(F)c([H])c6F)c([H])c5[H])c(C(=O)N([H])[H])c4N([H])[H])C3([H])[H])c([H])c([H])c2C1([H])[H]

>  <smiles>  (10) 
[H]c1c([H])c([H])c2c(c1[H])C([H])([H])C([H])([H])C([H])([H])C2([H])N([H])C(=O)C1([H])N(C(=O)C([H])(N([H])C(=O)C([H])(N([H])C([H])([H])[H])C([H])([H])[H])C(C([H])([H])[H])(C([H])([H])[H])C([H])([H])[H])C([H])([H])c2c([H])c(OC([H])([H])C([H])([H])C([H])([H])c3c([H])c(C([H])(C([H])([H])[H])C([H])([H])[H])c([H])c(C([H])([H])[H])c3C([H])(C([H])([H])[H])[N+]([H])([H])C([H])([H])C([H])([H])C([H])([H])C([H])([H])C([H])([H])C([H])([H])C([H])([H])C(=O)N3C([H])([H])C([H])([H])C([H])([H])C([H])(n4nc(-c5c([H])c([H])c(Oc6c([H])c([H])c(F)c([H])c6F)c([H])c5[H])c(C(=O)N([H])[H])c4N([H])[H])C3([H])[H])c([H])c([H])c2C1([H])[H]

$$$$
10:0:0
     RDKit          3D

 91 99  0  0  1  0  0  0  0  0999 V2000
  -30.4450  -21.1740   20.6600 C   0  0  0  0  0  3  0  0  0  0  0  0
  -28.2440  -20.2140   21.0350 C   0  0  0  0  0  3  0  0  0  0  0  0
  -29.8740  -22.4660   20.6390 C   0  0  0  0  0  3  0  0  0  0  0  0
  -27.6760  -21.4990   21.0050 C   0  0  0  0  0  3  0  0  0  0  0  0
  -29.6350  -20.0300   20.8720 C   0  0  0  0  0  0  0  0  0  0  0  0
  -28.4840  -22.6380   20.8220 C   0  0  0  0  0  0  0  0  0  0  0  0
  -30.1860  -18.6420   20.9730 C   0  0  0  0  0  0  0  0  0  0  0  0
  -29.6000  -17.7510   21.5940 O   0  0  0  0  0  0  0  0  0  0  0  0
  -31.5210  -18.3200   20.2730 C   0  0  0  0  0  2  0  0  0  0  0  0
  -32.2290  -17.0310   20.7670 C   0  0  0  0  0  2  0  0  0  0  0  0
  -31.3730  -15.7320   20.7430 C   0  0  0  0  0  2  0  0  0  0  0  0
  -31.7970  -14.6190   19.7620 C   0  0  0  0  0  0  0  0  0  0  0  0
  -31.3490  -12.3810   18.7970 C   0  0  0  0  0  2  0  0  0  0  0  0
  -30.3290  -12.4560   17.6450 C   0  0  0  0  0  2  0  0  0  0  0  0
  -28.8840  -12.4200   18.1810 C   0  0  0  0  0  2  0  0  0  0  0  0
  -28.6530  -13.4260   19.3390 C   0  0  0  0  0  3  0  0  0  0  0  0
  -29.7640  -13.2900   20.4020 C   0  0  0  0  0  2  0  0  0  0  0  0
  -31.0630  -13.4770   19.7330 N   0  0  0  0  0  0  0  0  0  0  0  0
  -32.7840  -14.7890   19.0370 O   0  0  0  0  0  0  0  0  0  0  0  0
  -26.4010  -14.2440   20.2910 C   0  0  0  0  0  0  0  0  0  0  0  0
  -25.2890  -13.5670   20.7160 C   0  0  0  0  0  0  0  0  0  0  0  0
  -25.5930  -12.1790   20.5710 C   0  0  0  0  0  0  0  0  0  0  0  0
  -27.3200  -13.2720   19.9210 N   0  0  0  0  0  0  0  0  0  0  0  0
  -26.8390  -12.0220   20.1420 N   0  0  0  0  0  0  0  0  0  0  0  0
  -24.7510  -10.9910   20.7620 C   0  0  0  0  0  0  0  0  0  0  0  0
  -25.0950   -9.9840   21.6910 C   0  0  0  0  0  3  0  0  0  0  0  0
  -24.2620   -8.8600   21.8690 C   0  0  0  0  0  3  0  0  0  0  0  0
  -23.0700   -8.7340   21.1180 C   0  0  0  0  0  0  0  0  0  0  0  0
  -22.7440   -9.7270   20.1780 C   0  0  0  0  0  3  0  0  0  0  0  0
  -23.5770  -10.8440   19.9970 C   0  0  0  0  0  3  0  0  0  0  0  0
  -22.2130   -7.6640   21.2040 O   0  0  0  0  0  0  0  0  0  0  0  0
  -21.9950   -7.0110   22.3910 C   0  0  0  0  0  0  0  0  0  0  0  0
  -21.4930   -7.6790   23.5280 C   0  0  0  0  0  3  0  0  0  0  0  0
  -21.2190   -6.9550   24.7070 C   0  0  0  0  0  3  0  0  0  0  0  0
  -21.4360   -5.5650   24.7460 C   0  0  0  0  0  0  0  0  0  0  0  0
  -21.9310   -4.8970   23.6120 C   0  0  0  0  0  3  0  0  0  0  0  0
  -22.2070   -5.6170   22.4370 C   0  0  0  0  0  0  0  0  0  0  0  0
  -22.6630   -4.9660   21.3400 F   0  0  0  0  0  0  0  0  0  0  0  0
  -21.1660   -4.8680   25.8740 F   0  0  0  0  0  0  0  0  0  0  0  0
  -23.9830  -14.1700   21.1440 C   0  0  0  0  0  0  0  0  0  0  0  0
  -23.2720  -13.5150   22.0560 N   0  0  0  0  0  0  0  0  0  0  0  0
  -23.6050  -15.2560   20.7050 O   0  0  0  0  0  0  0  0  0  0  0  0
  -23.5920  -12.6350   22.4320 H   0  0  0  0  0  0  0  0  0  0  0  0
  -22.3970  -13.9000   22.3810 H   0  0  0  0  0  0  0  0  0  0  0  0
  -26.7030  -15.5980   20.1710 N   0  0  0  0  0  0  0  0  0  0  0  0
  -26.0320  -16.3250   20.3920 H   0  0  0  0  0  0  0  0  0  0  0  0
  -27.5740  -15.9600   19.8050 H   0  0  0  0  0  0  0  0  0  0  0  0
  -27.7990  -24.0020   20.8400 C   0  0  0  0  0  2  0  0  0  0  0  0
  -28.6940  -25.2570   20.9070 C   0  0  0  0  0  2  0  0  0  0  0  0
  -29.0830  -25.8430   19.5340 C   0  0  0  0  0  2  0  0  0  0  0  0
  -28.9770  -27.2700   19.5510 O   0  0  0  0  0  0  0  0  0  0  0  0
  -24.5570  -31.6310   23.0170 C   0  0  0  0  0  0  0  0  0  0  0  0
  -27.7150  -27.8270   19.5930 C   0  0  0  0  0  0  0  0  0  0  0  0
  -23.5390  -30.2970   21.2000 C   0  0  0  0  0  3  0  0  0  0  0  0
  -25.1740  -29.0640   19.6830 C   0  0  0  0  0  0  0  0  0  0  0  0
  -26.0190  -30.9200   21.1290 C   0  0  0  0  0  2  0  0  0  0  0  0
  -26.2570  -29.6390   20.3580 C   0  0  0  0  0  0  0  0  0  0  0  0
  -27.5290  -29.0290   20.3080 C   0  0  0  0  0  3  0  0  0  0  0  0
  -26.6110  -27.2570   18.9170 C   0  0  0  0  0  3  0  0  0  0  0  0
  -25.3440  -27.8690   18.9610 C   0  0  0  0  0  3  0  0  0  0  0  0
  -23.8480  -29.7860   19.7680 C   0  0  0  0  0  2  0  0  0  0  0  0
  -24.7200  -30.9600   21.8420 N   0  0  0  0  0  0  0  0  0  0  0  0
  -23.4400  -31.7420   23.5410 O   0  0  0  0  0  0  0  0  0  0  0  0
  -22.9690  -29.1240   22.0290 C   0  0  0  0  0  0  0  0  0  0  0  0
  -21.6600  -28.8640   21.8750 N   0  0  0  0  0  0  0  0  0  0  0  0
  -23.7010  -28.4530   22.7610 O   0  0  0  0  0  0  0  0  0  0  0  0
  -21.1290  -29.4620   21.2570 H   0  0  0  0  0  0  0  0  0  0  0  0
  -18.3700  -27.4260   22.2600 C   0  0  0  0  0  0  0  0  0  0  0  0
  -20.9160  -27.7850   22.5210 C   0  0  0  0  0  3  0  0  0  0  0  0
  -21.0800  -26.4550   21.7500 C   0  0  0  0  0  2  0  0  0  0  0  0
  -19.9710  -26.2140   20.7200 C   0  0  0  0  0  2  0  0  0  0  0  0
  -18.6010  -26.1930   21.4020 C   0  0  0  0  0  2  0  0  0  0  0  0
  -19.4570  -28.1830   22.7720 C   0  0  0  0  0  0  0  0  0  0  0  0
  -19.1860  -29.3400   23.5340 C   0  0  0  0  0  3  0  0  0  0  0  0
  -17.8620  -29.7420   23.7880 C   0  0  0  0  0  3  0  0  0  0  0  0
  -16.7900  -28.9790   23.2930 C   0  0  0  0  0  3  0  0  0  0  0  0
  -17.0440  -27.8230   22.5340 C   0  0  0  0  0  3  0  0  0  0  0  0
  -25.7580  -32.3130   23.7430 C   0  0  0  0  0  3  0  0  0  0  0  0
  -25.3400  -33.6720   24.1080 N   0  0  0  0  0  0  0  0  0  0  0  0
  -25.6480  -34.7740   23.4120 C   0  0  0  0  0  0  0  0  0  0  0  0
  -26.3870  -34.7570   22.4220 O   0  0  0  0  0  0  0  0  0  0  0  0
  -24.6860  -33.7550   24.8720 H   0  0  0  0  0  0  0  0  0  0  0  0
  -23.8280  -36.4640   23.0190 C   0  0  0  0  0  1  0  0  0  0  0  0
  -25.0440  -36.1080   23.8880 C   0  0  0  0  0  3  0  0  0  0  0  0
  -27.0620  -37.0950   24.8800 C   0  0  0  0  0  1  0  0  0  0  0  0
  -26.0100  -37.2290   23.8760 N   0  0  0  0  0  0  0  0  0  0  0  0
  -25.5360  -38.1150   24.0290 H   0  0  0  0  0  0  0  0  0  0  0  0
  -26.2490  -31.5180   25.0160 C   0  0  1  0  0  0  0  0  0  0  0  0
  -25.1110  -31.1640   26.0030 C   0  0  0  0  0  1  0  0  0  0  0  0
  -26.9420  -30.1990   24.6000 C   0  0  0  0  0  1  0  0  0  0  0  0
  -27.3050  -32.3520   25.7790 C   0  0  0  0  0  1  0  0  0  0  0  0
  1  5  1  0
  3  1  2  0
  3  6  1  0
  4  2  1  0
  5  7  1  0
  5  2  2  0
  6 48  1  0
  6  4  2  0
  7  8  2  0
  9 10  1  0
  9  7  1  0
 11 10  1  0
 12 11  1  0
 13 18  1  0
 14 15  1  0
 14 13  1  0
 16 15  1  0
 16 23  1  0
 16 17  1  0
 18 12  1  0
 18 17  1  0
 19 12  2  0
 20 21  2  0
 21 40  1  0
 22 21  1  0
 22 25  1  0
 23 24  1  0
 23 20  1  0
 24 22  2  0
 25 26  1  0
 26 27  2  0
 28 31  1  0
 28 27  1  0
 29 28  2  0
 30 29  1  0
 30 25  2  0
 31 32  1  0
 32 37  2  0
 32 33  1  0
 33 34  2  0
 34 35  1  0
 35 39  1  0
 36 35  2  0
 37 36  1  0
 38 37  1  0
 40 41  1  0
 41 44  1  0
 41 43  1  0
 42 40  2  0
 45 20  1  0
 45 46  1  0
 47 45  1  0
 48 49  1  0
 50 51  1  0
 50 49  1  0
 51 53  1  0
 52 63  2  0
 53 58  1  0
 54 62  1  0
 54 64  1  0
 55 61  1  0
 55 57  1  0
 56 62  1  0
 57 56  1  0
 58 57  2  0
 59 60  1  0
 59 53  2  0
 60 55  2  0
 61 54  1  0
 62 52  1  0
 64 66  2  0
 65 64  1  0
 67 65  1  0
 68 77  2  0
 68 73  1  0
 69 65  1  0
 69 73  1  0
 70 69  1  0
 71 72  1  0
 71 70  1  0
 72 68  1  0
 73 74  2  0
 74 75  1  0
 76 75  2  0
 77 76  1  0
 78 52  1  0
 78 79  1  0
 78 88  1  0
 79 82  1  0
 80 84  1  0
 80 79  1  0
 81 80  2  0
 84 83  1  0
 86 84  1  0
 86 87  1  0
 86 85  1  0
 88 91  1  1
 88 89  1  0
 90 88  1  0
M  ISO  4  11 100  12 100  50 101  51 101
M  END
>  <TORSDO>  (11) 
F 23

>  <SCORE>  (11) 
-9.968

>  <name>  (11) 
10

>  <ligand_id>  (11) 
10

>  <original_smiles>  (11) 
[H]c1c([H])c([H])c2c(c1[H])C([H])([H])C([H])([H])C([H])([H])C2([H])N([H])C(=O)C1([H])N(C(=O)C([H])(N([H])C(=O)C([H])(N([H])C([H])([H])[H])C([H])([H])[H])C(C([H])([H])[H])(C([H])([H])[H])C([H])([H])[H])C([H])([H])c2c([H])c(OC([H])([H])C([H])([H])C([H])([H])c3c([H])c([H])c(C(=O)C([H])([H])C([H])([H])C([H])([H])C(=O)N4C([H])([H])C([H])([H])C([H])([H])C([H])(n5nc(-c6c([H])c([H])c(Oc7c([H])c([H])c(F)c([H])c7F)c([H])c6[H])c(C(=O)N([H])[H])c5N([H])[H])C4([H])[H])c([H])c3[H])c([H])c([H])c2C1([H])[H]

>  <smiles>  (11) 
[H]c1c([H])c([H])c2c(c1[H])C([H])([H])C([H])([H])C([H])([H])C2([H])N([H])C(=O)C1([H])N(C(=O)C([H])(N([H])C(=O)C([H])(N([H])C([H])([H])[H])C([H])([H])[H])C(C([H])([H])[H])(C([H])([H])[H])C([H])([H])[H])C([H])([H])c2c([H])c(OC([H])([H])C([H])([H])C([H])([H])c3c([H])c([H])c(C(=O)C([H])([H])C([H])([H])C([H])([H])C(=O)N4C([H])([H])C([H])([H])C([H])([H])C([H])(n5nc(-c6c([H])c([H])c(Oc7c([H])c([H])c(F)c([H])c7F)c([H])c6[H])c(C(=O)N([H])[H])c5N([H])[H])C4([H])[H])c([H])c3[H])c([H])c([H])c2C1([H])[H]

$$$$
11:0:0
     RDKit          3D

 87 94  0  0  1  0  0  0  0  0999 V2000
  -29.3230  -23.1930   19.9850 C   0  0  0  0  0  0  0  0  0  0  0  0
  -30.3360  -23.5740   19.3930 O   0  0  0  0  0  0  0  0  0  0  0  0
  -29.2620  -21.7940   20.6550 C   0  0  0  0  0  2  0  0  0  0  0  0
  -30.2070  -20.7130   20.0390 C   0  0  0  0  0  2  0  0  0  0  0  0
  -30.5930  -19.5200   20.9640 C   0  0  0  0  0  2  0  0  0  0  0  0
  -30.0470  -18.1170   20.5830 C   0  0  0  0  0  2  0  0  0  0  0  0
  -30.6530  -16.9870   21.4690 C   0  0  0  0  0  2  0  0  0  0  0  0
  -29.9740  -15.5830   21.3930 C   0  0  0  0  0  2  0  0  0  0  0  0
  -30.6420  -14.4820   20.5200 C   0  0  0  0  0  0  0  0  0  0  0  0
  -30.3570  -12.3500   19.2830 C   0  0  0  0  0  2  0  0  0  0  0  0
  -29.3940  -12.5640   18.0990 C   0  0  0  0  0  2  0  0  0  0  0  0
  -27.9230  -12.4200   18.5420 C   0  0  0  0  0  2  0  0  0  0  0  0
  -27.6050  -13.2330   19.8250 C   0  0  0  0  0  3  0  0  0  0  0  0
  -28.6720  -12.9750   20.9110 C   0  0  0  0  0  2  0  0  0  0  0  0
  -29.9870  -13.3030   20.3410 N   0  0  0  0  0  0  0  0  0  0  0  0
  -31.7210  -14.7180   19.9700 O   0  0  0  0  0  0  0  0  0  0  0  0
  -25.2130  -13.8480   20.5500 C   0  0  0  0  0  0  0  0  0  0  0  0
  -24.1460  -13.0780   20.9300 C   0  0  0  0  0  0  0  0  0  0  0  0
  -24.6040  -11.7260   20.8960 C   0  0  0  0  0  0  0  0  0  0  0  0
  -26.2550  -12.9640   20.3140 N   0  0  0  0  0  0  0  0  0  0  0  0
  -25.8920  -11.6830   20.5780 N   0  0  0  0  0  0  0  0  0  0  0  0
  -23.8790  -10.4650   21.0960 C   0  0  0  0  0  0  0  0  0  0  0  0
  -24.3360   -9.4890   22.0090 C   0  0  0  0  0  3  0  0  0  0  0  0
  -23.6130   -8.2920   22.1970 C   0  0  0  0  0  3  0  0  0  0  0  0
  -22.4190   -8.0620   21.4740 C   0  0  0  0  0  0  0  0  0  0  0  0
  -21.9810   -9.0260   20.5490 C   0  0  0  0  0  3  0  0  0  0  0  0
  -22.7030  -10.2160   20.3600 C   0  0  0  0  0  3  0  0  0  0  0  0
  -21.6660   -6.9170   21.5710 O   0  0  0  0  0  0  0  0  0  0  0  0
  -21.6650   -6.1510   22.7090 C   0  0  0  0  0  0  0  0  0  0  0  0
  -21.3080   -6.6850   23.9670 C   0  0  0  0  0  3  0  0  0  0  0  0
  -21.2540   -5.8460   25.0970 C   0  0  0  0  0  3  0  0  0  0  0  0
  -21.5450   -4.4740   24.9720 C   0  0  0  0  0  0  0  0  0  0  0  0
  -21.8950   -3.9410   23.7190 C   0  0  0  0  0  3  0  0  0  0  0  0
  -21.9520   -4.7760   22.5910 C   0  0  0  0  0  0  0  0  0  0  0  0
  -22.2700   -4.2520   21.3830 F   0  0  0  0  0  0  0  0  0  0  0  0
  -21.4840   -3.6670   26.0570 F   0  0  0  0  0  0  0  0  0  0  0  0
  -22.7520  -13.5570   21.2140 C   0  0  0  0  0  0  0  0  0  0  0  0
  -22.0330  -12.8640   22.0900 N   0  0  0  0  0  0  0  0  0  0  0  0
  -22.3090  -14.5810   20.6950 O   0  0  0  0  0  0  0  0  0  0  0  0
  -22.4060  -12.0380   22.5330 H   0  0  0  0  0  0  0  0  0  0  0  0
  -21.0970  -13.1650   22.3230 H   0  0  0  0  0  0  0  0  0  0  0  0
  -25.3810  -15.2170   20.3690 N   0  0  0  0  0  0  0  0  0  0  0  0
  -24.6230  -15.8810   20.4890 H   0  0  0  0  0  0  0  0  0  0  0  0
  -26.2360  -15.6490   20.0440 H   0  0  0  0  0  0  0  0  0  0  0  0
  -28.0870  -24.1130   20.0740 C   0  0  0  0  0  2  0  0  0  0  0  0
  -28.2880  -25.4230   20.8950 C   0  0  0  0  0  2  0  0  0  0  0  0
  -28.3720  -26.6530   20.1400 O   0  0  0  0  0  0  0  0  0  0  0  0
  -24.6160  -31.8780   23.2320 C   0  0  0  0  0  0  0  0  0  0  0  0
  -27.2210  -27.4160   20.1380 C   0  0  0  0  0  0  0  0  0  0  0  0
  -23.3950  -30.4840   21.5940 C   0  0  0  0  0  3  0  0  0  0  0  0
  -24.8350  -28.9380   20.1590 C   0  0  0  0  0  0  0  0  0  0  0  0
  -25.9230  -30.8290   21.3820 C   0  0  0  0  0  2  0  0  0  0  0  0
  -26.0000  -29.4580   20.7390 C   0  0  0  0  0  0  0  0  0  0  0  0
  -27.2000  -28.7060   20.7190 C   0  0  0  0  0  3  0  0  0  0  0  0
  -26.0400  -26.9100   19.5580 C   0  0  0  0  0  3  0  0  0  0  0  0
  -24.8500  -27.6640   19.5660 C   0  0  0  0  0  3  0  0  0  0  0  0
  -23.5940  -29.8040   20.2130 C   0  0  0  0  0  2  0  0  0  0  0  0
  -24.6630  -31.0800   22.1270 N   0  0  0  0  0  0  0  0  0  0  0  0
  -23.5380  -32.1540   23.7780 O   0  0  0  0  0  0  0  0  0  0  0  0
  -22.7460  -29.4650   22.5580 C   0  0  0  0  0  0  0  0  0  0  0  0
  -21.4200  -29.2850   22.4350 N   0  0  0  0  0  0  0  0  0  0  0  0
  -23.4310  -28.8390   23.3700 O   0  0  0  0  0  0  0  0  0  0  0  0
  -20.9300  -29.8440   21.7510 H   0  0  0  0  0  0  0  0  0  0  0  0
  -18.0450  -28.0930   22.9350 C   0  0  0  0  0  0  0  0  0  0  0  0
  -20.6030  -28.3480   23.2060 C   0  0  0  0  0  3  0  0  0  0  0  0
  -20.7040  -26.9170   22.6300 C   0  0  0  0  0  2  0  0  0  0  0  0
  -19.6000  -26.5930   21.6180 C   0  0  0  0  0  2  0  0  0  0  0  0
  -18.2190  -26.7420   22.2620 C   0  0  0  0  0  2  0  0  0  0  0  0
  -19.1650  -28.8540   23.3640 C   0  0  0  0  0  0  0  0  0  0  0  0
  -18.9480  -30.1190   23.9520 C   0  0  0  0  0  3  0  0  0  0  0  0
  -17.6450  -30.6220   24.1200 C   0  0  0  0  0  3  0  0  0  0  0  0
  -16.5390  -29.8570   23.7100 C   0  0  0  0  0  3  0  0  0  0  0  0
  -16.7400  -28.5960   23.1220 C   0  0  0  0  0  3  0  0  0  0  0  0
  -25.9060  -32.5050   23.8470 C   0  0  0  0  0  3  0  0  0  0  0  0
  -25.6050  -33.9030   24.1780 N   0  0  0  0  0  0  0  0  0  0  0  0
  -25.9370  -34.9550   23.4200 C   0  0  0  0  0  0  0  0  0  0  0  0
  -26.6050  -34.8510   22.3870 O   0  0  0  0  0  0  0  0  0  0  0  0
  -25.0160  -34.0600   24.9840 H   0  0  0  0  0  0  0  0  0  0  0  0
  -24.2150  -36.7530   23.0730 C   0  0  0  0  0  1  0  0  0  0  0  0
  -25.4560  -36.3430   23.8810 C   0  0  0  0  0  3  0  0  0  0  0  0
  -27.5990  -37.2150   24.7040 C   0  0  0  0  0  1  0  0  0  0  0  0
  -26.4910  -37.3940   23.7690 N   0  0  0  0  0  0  0  0  0  0  0  0
  -26.0870  -38.3130   23.9280 H   0  0  0  0  0  0  0  0  0  0  0  0
  -26.4300  -31.7300   25.1190 C   0  0  1  0  0  0  0  0  0  0  0  0
  -25.3440  -31.4960   26.1950 C   0  0  0  0  0  1  0  0  0  0  0  0
  -27.0070  -30.3510   24.7190 C   0  0  0  0  0  1  0  0  0  0  0  0
  -27.5880  -32.5210   25.7720 C   0  0  0  0  0  1  0  0  0  0  0  0
  1 45  1  0
  1  3  1  0
  2  1  2  0
  4  3  1  0
  4  5  1  0
  6  5  1  0
  6  7  1  0
  8  7  1  0
  9  8  1  0
 10 15  1  0
 11 12  1  0
 11 10  1  0
 13 12  1  0
 13 20  1  0
 13 14  1  0
 15  9  1  0
 15 14  1  0
 16  9  2  0
 17 18  2  0
 18 37  1  0
 19 18  1  0
 19 22  1  0
 20 17  1  0
 20 21  1  0
 21 19  2  0
 22 23  1  0
 23 24  2  0
 25 28  1  0
 25 24  1  0
 26 25  2  0
 27 26  1  0
 27 22  2  0
 28 29  1  0
 29 30  1  0
 30 31  2  0
 32 31  1  0
 32 36  1  0
 33 32  2  0
 34 29  2  0
 34 33  1  0
 35 34  1  0
 37 38  1  0
 38 41  1  0
 38 40  1  0
 39 37  2  0
 42 43  1  0
 42 17  1  0
 44 42  1  0
 45 46  1  0
 47 46  1  0
 48 59  2  0
 49 47  1  0
 49 54  1  0
 50 58  1  0
 50 60  1  0
 51 57  1  0
 51 53  1  0
 52 58  1  0
 53 52  1  0
 54 53  2  0
 55 56  1  0
 55 49  2  0
 56 51  2  0
 57 50  1  0
 58 48  1  0
 60 62  2  0
 61 60  1  0
 63 61  1  0
 64 73  2  0
 64 69  1  0
 65 61  1  0
 65 69  1  0
 66 65  1  0
 67 68  1  0
 67 66  1  0
 68 64  1  0
 69 70  2  0
 70 71  1  0
 72 71  2  0
 73 72  1  0
 74 48  1  0
 74 75  1  0
 74 84  1  0
 75 78  1  0
 76 80  1  0
 76 75  1  0
 77 76  2  0
 80 79  1  0
 82 80  1  0
 82 83  1  0
 82 81  1  0
 84 87  1  1
 84 85  1  0
 86 84  1  0
M  ISO  4   8 100   9 100  46 101  47 101
M  END
>  <TORSDO>  (12) 
F 24

>  <SCORE>  (12) 
-12.358

>  <name>  (12) 
11

>  <ligand_id>  (12) 
11

>  <original_smiles>  (12) 
[H]c1c([H])c([H])c2c(c1[H])C([H])([H])C([H])([H])C([H])([H])C2([H])N([H])C(=O)C1([H])N(C(=O)C([H])(N([H])C(=O)C([H])(N([H])C([H])([H])[H])C([H])([H])[H])C(C([H])([H])[H])(C([H])([H])[H])C([H])([H])[H])C([H])([H])c2c([H])c(OC([H])([H])C([H])([H])C(=O)C([H])([H])C([H])([H])C([H])([H])C([H])([H])C([H])([H])C([H])([H])C(=O)N3C([H])([H])C([H])([H])C([H])([H])C([H])(n4nc(-c5c([H])c([H])c(Oc6c([H])c([H])c(F)c([H])c6F)c([H])c5[H])c(C(=O)N([H])[H])c4N([H])[H])C3([H])[H])c([H])c([H])c2C1([H])[H]

>  <smiles>  (12) 
[H]c1c([H])c([H])c2c(c1[H])C([H])([H])C([H])([H])C([H])([H])C2([H])N([H])C(=O)C1([H])N(C(=O)C([H])(N([H])C(=O)C([H])(N([H])C([H])([H])[H])C([H])([H])[H])C(C([H])([H])[H])(C([H])([H])[H])C([H])([H])[H])C([H])([H])c2c([H])c(OC([H])([H])C([H])([H])C(=O)C([H])([H])C([H])([H])C([H])([H])C([H])([H])C([H])([H])C([H])([H])C(=O)N3C([H])([H])C([H])([H])C([H])([H])C([H])(n4nc(-c5c([H])c([H])c(Oc6c([H])c([H])c(F)c([H])c6F)c([H])c5[H])c(C(=O)N([H])[H])c4N([H])[H])C3([H])[H])c([H])c([H])c2C1([H])[H]

$$$$
12:0:0
     RDKit          3D

 88 95  0  0  1  0  0  0  0  0999 V2000
  -28.2990  -25.2250   20.6360 C   0  0  0  0  0  3  0  0  0  0  0  0
  -28.8720  -24.0950   20.1010 C   0  0  0  0  0  0  0  0  0  0  0  0
  -29.5060  -24.1600   18.9210 O   0  0  0  0  0  0  0  0  0  0  0  0
  -29.8780  -23.3040   18.7520 H   0  0  0  0  0  0  0  0  0  0  0  0
  -28.8750  -22.7330   20.8010 C   0  0  0  0  0  0  0  0  0  0  0  0
  -28.7450  -22.6670   22.0250 O   0  0  0  0  0  0  0  0  0  0  0  0
  -28.9880  -21.3580   20.0260 C   0  0  0  0  0  2  0  0  0  0  0  0
  -29.8270  -20.1520   20.6650 C   0  0  0  0  0  3  0  0  0  0  0  0
  -29.3670  -18.6500   20.3800 C   0  0  0  0  0  3  0  0  0  0  0  0
  -30.3830  -17.4440   20.6440 C   0  0  0  0  0  2  0  0  0  0  0  0
  -29.7780  -15.9730   20.7900 C   0  0  0  0  0  2  0  0  0  0  0  0
  -30.6390  -14.6850   20.4320 C   0  0  0  0  0  0  0  0  0  0  0  0
  -30.4660  -12.4410   19.3650 C   0  0  0  0  0  2  0  0  0  0  0  0
  -29.5270  -12.5680   18.1430 C   0  0  0  0  0  2  0  0  0  0  0  0
  -28.0520  -12.3900   18.5580 C   0  0  0  0  0  2  0  0  0  0  0  0
  -27.6760  -13.2490   19.7920 C   0  0  0  0  0  3  0  0  0  0  0  0
  -28.7280  -13.1100   20.9140 C   0  0  0  0  0  2  0  0  0  0  0  0
  -30.0430  -13.4520   20.3550 N   0  0  0  0  0  0  0  0  0  0  0  0
  -31.8080  -14.8370   20.0630 O   0  0  0  0  0  0  0  0  0  0  0  0
  -25.2750  -13.8370   20.4950 C   0  0  0  0  0  0  0  0  0  0  0  0
  -24.2110  -13.0570   20.8610 C   0  0  0  0  0  0  0  0  0  0  0  0
  -24.6840  -11.7100   20.8420 C   0  0  0  0  0  0  0  0  0  0  0  0
  -26.3270  -12.9610   20.2720 N   0  0  0  0  0  0  0  0  0  0  0  0
  -25.9770  -11.6780   20.5430 N   0  0  0  0  0  0  0  0  0  0  0  0
  -23.9660  -10.4430   21.0350 C   0  0  0  0  0  0  0  0  0  0  0  0
  -24.4010   -9.4850   21.9770 C   0  0  0  0  0  3  0  0  0  0  0  0
  -23.6840   -8.2820   22.1570 C   0  0  0  0  0  3  0  0  0  0  0  0
  -22.5190   -8.0290   21.3940 C   0  0  0  0  0  0  0  0  0  0  0  0
  -22.1040   -8.9770   20.4420 C   0  0  0  0  0  3  0  0  0  0  0  0
  -22.8210  -10.1710   20.2600 C   0  0  0  0  0  3  0  0  0  0  0  0
  -21.7750   -6.8790   21.4820 O   0  0  0  0  0  0  0  0  0  0  0  0
  -21.7250   -6.1400   22.6380 C   0  0  0  0  0  0  0  0  0  0  0  0
  -21.2860   -6.6970   23.8590 C   0  0  0  0  0  3  0  0  0  0  0  0
  -21.1830   -5.8850   25.0060 C   0  0  0  0  0  3  0  0  0  0  0  0
  -21.5100   -4.5180   24.9340 C   0  0  0  0  0  0  0  0  0  0  0  0
  -21.9420   -3.9610   23.7180 C   0  0  0  0  0  3  0  0  0  0  0  0
  -22.0470   -4.7690   22.5720 C   0  0  0  0  0  0  0  0  0  0  0  0
  -22.4440   -4.2230   21.3980 F   0  0  0  0  0  0  0  0  0  0  0  0
  -21.4040   -3.7370   26.0330 F   0  0  0  0  0  0  0  0  0  0  0  0
  -22.8080  -13.5260   21.1180 C   0  0  0  0  0  0  0  0  0  0  0  0
  -22.0770  -12.8280   21.9800 N   0  0  0  0  0  0  0  0  0  0  0  0
  -22.3670  -14.5450   20.5890 O   0  0  0  0  0  0  0  0  0  0  0  0
  -22.4470  -12.0030   22.4310 H   0  0  0  0  0  0  0  0  0  0  0  0
  -21.1350  -13.1230   22.1930 H   0  0  0  0  0  0  0  0  0  0  0  0
  -25.4300  -15.2070   20.3130 N   0  0  0  0  0  0  0  0  0  0  0  0
  -24.6600  -15.8580   20.4250 H   0  0  0  0  0  0  0  0  0  0  0  0
  -26.2840  -15.6540   20.0050 H   0  0  0  0  0  0  0  0  0  0  0  0
  -28.3610  -26.5290   20.1060 O   0  0  0  0  0  0  0  0  0  0  0  0
  -24.6200  -31.8910   23.1960 C   0  0  0  0  0  0  0  0  0  0  0  0
  -27.2300  -27.3460   20.1460 C   0  0  0  0  0  0  0  0  0  0  0  0
  -23.4100  -30.4890   21.5600 C   0  0  0  0  0  3  0  0  0  0  0  0
  -24.8570  -28.9310   20.1390 C   0  0  0  0  0  0  0  0  0  0  0  0
  -25.9450  -30.8140   21.3660 C   0  0  0  0  0  2  0  0  0  0  0  0
  -26.0250  -29.4340   20.7290 C   0  0  0  0  0  0  0  0  0  0  0  0
  -27.2160  -28.6520   20.7220 C   0  0  0  0  0  3  0  0  0  0  0  0
  -26.0410  -26.8840   19.5450 C   0  0  0  0  0  3  0  0  0  0  0  0
  -24.8650  -27.6600   19.5400 C   0  0  0  0  0  3  0  0  0  0  0  0
  -23.6200  -29.8050   20.1830 C   0  0  0  0  0  2  0  0  0  0  0  0
  -24.6770  -31.0820   22.0970 N   0  0  0  0  0  0  0  0  0  0  0  0
  -23.5400  -32.1680   23.7350 O   0  0  0  0  0  0  0  0  0  0  0  0
  -22.7510  -29.4760   22.5250 C   0  0  0  0  0  0  0  0  0  0  0  0
  -21.4240  -29.3020   22.4040 N   0  0  0  0  0  0  0  0  0  0  0  0
  -23.4310  -28.8490   23.3410 O   0  0  0  0  0  0  0  0  0  0  0  0
  -20.9340  -29.8600   21.7180 H   0  0  0  0  0  0  0  0  0  0  0  0
  -18.0470  -28.1130   22.9120 C   0  0  0  0  0  0  0  0  0  0  0  0
  -20.6060  -28.3670   23.1770 C   0  0  0  0  0  3  0  0  0  0  0  0
  -20.7040  -26.9330   22.6040 C   0  0  0  0  0  2  0  0  0  0  0  0
  -19.6000  -26.6120   21.5920 C   0  0  0  0  0  2  0  0  0  0  0  0
  -18.2190  -26.7610   22.2380 C   0  0  0  0  0  2  0  0  0  0  0  0
  -19.1670  -28.8720   23.3390 C   0  0  0  0  0  0  0  0  0  0  0  0
  -18.9510  -30.1380   23.9270 C   0  0  0  0  0  3  0  0  0  0  0  0
  -17.6480  -30.6420   24.0940 C   0  0  0  0  0  3  0  0  0  0  0  0
  -16.5410  -29.8780   23.6840 C   0  0  0  0  0  3  0  0  0  0  0  0
  -16.7410  -28.6160   23.0980 C   0  0  0  0  0  3  0  0  0  0  0  0
  -25.9070  -32.5210   23.8150 C   0  0  0  0  0  3  0  0  0  0  0  0
  -25.5990  -33.9190   24.1500 N   0  0  0  0  0  0  0  0  0  0  0  0
  -25.9350  -34.9750   23.3950 C   0  0  0  0  0  0  0  0  0  0  0  0
  -26.6040  -34.8730   22.3630 O   0  0  0  0  0  0  0  0  0  0  0  0
  -25.0060  -34.0720   24.9520 H   0  0  0  0  0  0  0  0  0  0  0  0
  -24.2140  -36.7750   23.0430 C   0  0  0  0  0  1  0  0  0  0  0  0
  -25.4510  -36.3620   23.8580 C   0  0  0  0  0  3  0  0  0  0  0  0
  -27.5840  -37.2350   24.7010 C   0  0  0  0  0  1  0  0  0  0  0  0
  -26.4860  -37.4120   23.7540 N   0  0  0  0  0  0  0  0  0  0  0  0
  -26.0830  -38.3320   23.9050 H   0  0  0  0  0  0  0  0  0  0  0  0
  -26.4300  -31.7460   25.0860 C   0  0  1  0  0  0  0  0  0  0  0  0
  -25.3420  -31.5090   26.1600 C   0  0  0  0  0  1  0  0  0  0  0  0
  -27.0080  -30.3690   24.6890 C   0  0  0  0  0  1  0  0  0  0  0  0
  -27.5840  -32.5380   25.7450 C   0  0  0  0  0  1  0  0  0  0  0  0
  2  1  2  0
  2  5  1  0
  3  2  1  0
  4  3  1  0
  5  6  2  0
  7  8  1  0
  7  5  1  0
  9 10  1  0
  9  8  2  0
 10 11  1  0
 12 11  1  0
 13 18  1  0
 14 15  1  0
 14 13  1  0
 16 15  1  0
 16 23  1  0
 16 17  1  0
 18 12  1  0
 18 17  1  0
 19 12  2  0
 20 21  2  0
 21 40  1  0
 22 21  1  0
 22 25  1  0
 23 20  1  0
 23 24  1  0
 24 22  2  0
 25 26  1  0
 26 27  2  0
 28 31  1  0
 28 27  1  0
 29 28  2  0
 30 29  1  0
 30 25  2  0
 31 32  1  0
 32 33  1  0
 33 34  2  0
 35 34  1  0
 35 39  1  0
 36 35  2  0
 37 32  2  0
 37 36  1  0
 38 37  1  0
 40 41  1  0
 41 44  1  0
 41 43  1  0
 42 40  2  0
 45 46  1  0
 45 20  1  0
 47 45  1  0
 48 50  1  0
 48  1  1  0
 49 60  2  0
 50 55  1  0
 51 59  1  0
 51 61  1  0
 52 58  1  0
 52 54  1  0
 53 59  1  0
 54 53  1  0
 55 54  2  0
 56 50  2  0
 57 56  1  0
 57 52  2  0
 58 51  1  0
 59 49  1  0
 61 63  2  0
 62 61  1  0
 64 62  1  0
 65 74  2  0
 65 70  1  0
 66 62  1  0
 66 70  1  0
 67 66  1  0
 68 69  1  0
 68 67  1  0
 69 65  1  0
 70 71  2  0
 71 72  1  0
 73 72  2  0
 74 73  1  0
 75 49  1  0
 75 76  1  0
 75 85  1  0
 76 79  1  0
 77 81  1  0
 77 76  1  0
 78 77  2  0
 81 80  1  0
 83 81  1  0
 83 84  1  0
 83 82  1  0
 85 88  1  1
 85 86  1  0
 87 85  1  0
M  ISO  4   1 101  11 100  12 100  48 101
M  END
>  <TORSDO>  (13) 
F 23

>  <SCORE>  (13) 
-12.864

>  <name>  (13) 
12

>  <ligand_id>  (13) 
12

>  <original_smiles>  (13) 
[H]OC(C(=O)C([H])([H])C([H])([H])C([H])([H])C([H])([H])C([H])([H])C(=O)N1C([H])([H])C([H])([H])C([H])([H])C([H])(n2nc(-c3c([H])c([H])c(Oc4c([H])c([H])c(F)c([H])c4F)c([H])c3[H])c(C(=O)N([H])[H])c2N([H])[H])C1([H])[H])=C([H])Oc1c([H])c([H])c2c(c1[H])C([H])([H])N(C(=O)C([H])(N([H])C(=O)C([H])(N([H])C([H])([H])[H])C([H])([H])[H])C(C([H])([H])[H])(C([H])([H])[H])C([H])([H])[H])C([H])(C(=O)N([H])C1([H])c3c([H])c([H])c([H])c([H])c3C([H])([H])C([H])([H])C1([H])[H])C2([H])[H]

>  <smiles>  (13) 
[H]OC(C(=O)C([H])([H])C([H])([H])C([H])([H])C([H])([H])C([H])([H])C(=O)N1C([H])([H])C([H])([H])C([H])([H])C([H])(n2nc(-c3c([H])c([H])c(Oc4c([H])c([H])c(F)c([H])c4F)c([H])c3[H])c(C(=O)N([H])[H])c2N([H])[H])C1([H])[H])=C([H])Oc1c([H])c([H])c2c(c1[H])C([H])([H])N(C(=O)C([H])(N([H])C(=O)C([H])(N([H])C([H])([H])[H])C([H])([H])[H])C(C([H])([H])[H])(C([H])([H])[H])C([H])([H])[H])C([H])(C(=O)N([H])C1([H])c3c([H])c([H])c([H])c([H])c3C([H])([H])C([H])([H])C1([H])[H])C2([H])[H]

$$$$
13:0:0
     RDKit          3D

 86 93  0  0  1  0  0  0  0  0999 V2000
  -28.8810  -21.2450   19.9460 C   0  0  0  0  0  0  0  0  0  0  0  0
  -28.4380  -21.2290   18.7970 O   0  0  0  0  0  0  0  0  0  0  0  0
  -29.3640  -19.7470   20.5810 C   0  0  0  0  0  3  0  0  0  0  0  0
  -29.4440  -18.3520   20.0970 C   0  0  0  0  0  0  0  0  0  0  0  0
  -30.1970  -17.7950   17.7180 C   0  0  0  0  0  1  0  0  0  0  0  0
  -29.0200  -18.0510   18.6640 C   0  0  0  0  0  2  0  0  0  0  0  0
  -29.8240  -16.8300   20.8420 C   0  0  0  0  0  2  0  0  0  0  0  0
  -30.5260  -15.2940   20.3850 C   0  0  0  0  0  0  0  0  0  0  0  0
  -30.5080  -12.8630   19.4870 C   0  0  0  0  0  2  0  0  0  0  0  0
  -29.6150  -12.7060   18.2320 C   0  0  0  0  0  2  0  0  0  0  0  0
  -28.1560  -12.4270   18.6280 C   0  0  0  0  0  2  0  0  0  0  0  0
  -27.6860  -13.3630   19.7700 C   0  0  0  0  0  3  0  0  0  0  0  0
  -28.7080  -13.4970   20.9180 C   0  0  0  0  0  2  0  0  0  0  0  0
  -29.9710  -13.9860   20.3400 N   0  0  0  0  0  0  0  0  0  0  0  0
  -31.7180  -15.2990   20.0510 O   0  0  0  0  0  0  0  0  0  0  0  0
  -25.2890  -13.8960   20.4530 C   0  0  0  0  0  0  0  0  0  0  0  0
  -24.2290  -13.1110   20.8100 C   0  0  0  0  0  0  0  0  0  0  0  0
  -24.7160  -11.7670   20.8160 C   0  0  0  0  0  0  0  0  0  0  0  0
  -26.3500  -13.0330   20.2510 N   0  0  0  0  0  0  0  0  0  0  0  0
  -26.0160  -11.7470   20.5340 N   0  0  0  0  0  0  0  0  0  0  0  0
  -24.0000  -10.4980   21.0120 C   0  0  0  0  0  0  0  0  0  0  0  0
  -24.4230   -9.5490   21.9670 C   0  0  0  0  0  3  0  0  0  0  0  0
  -23.7060   -8.3470   22.1520 C   0  0  0  0  0  3  0  0  0  0  0  0
  -22.5510   -8.0830   21.3790 C   0  0  0  0  0  0  0  0  0  0  0  0
  -22.1480   -9.0190   20.4110 C   0  0  0  0  0  3  0  0  0  0  0  0
  -22.8650  -10.2130   20.2260 C   0  0  0  0  0  3  0  0  0  0  0  0
  -21.8100   -6.9310   21.4690 O   0  0  0  0  0  0  0  0  0  0  0  0
  -21.7480   -6.2040   22.6300 C   0  0  0  0  0  0  0  0  0  0  0  0
  -21.2910   -6.7700   23.8410 C   0  0  0  0  0  3  0  0  0  0  0  0
  -21.1780   -5.9670   24.9950 C   0  0  0  0  0  3  0  0  0  0  0  0
  -21.5100   -4.5990   24.9390 C   0  0  0  0  0  0  0  0  0  0  0  0
  -21.9550   -4.0330   23.7320 C   0  0  0  0  0  3  0  0  0  0  0  0
  -22.0700   -4.8320   22.5810 C   0  0  0  0  0  0  0  0  0  0  0  0
  -22.4820   -4.2750   21.4150 F   0  0  0  0  0  0  0  0  0  0  0  0
  -21.3930   -3.8260   26.0450 F   0  0  0  0  0  0  0  0  0  0  0  0
  -22.8190  -13.5710   21.0360 C   0  0  0  0  0  0  0  0  0  0  0  0
  -22.0790  -12.8800   21.8940 N   0  0  0  0  0  0  0  0  0  0  0  0
  -22.3810  -14.5800   20.4840 O   0  0  0  0  0  0  0  0  0  0  0  0
  -22.4490  -12.0690   22.3650 H   0  0  0  0  0  0  0  0  0  0  0  0
  -21.1300  -13.1680   22.0820 H   0  0  0  0  0  0  0  0  0  0  0  0
  -25.4390  -15.2670   20.2560 N   0  0  0  0  0  0  0  0  0  0  0  0
  -24.6570  -15.9100   20.2980 H   0  0  0  0  0  0  0  0  0  0  0  0
  -26.2930  -15.7040   19.9330 H   0  0  0  0  0  0  0  0  0  0  0  0
  -28.8970  -22.8760   20.5520 C   0  0  0  0  0  3  0  0  0  0  0  0
  -28.0630  -24.3630   20.0010 C   0  0  0  0  0  3  0  0  0  0  0  0
  -28.2070  -25.9640   20.3190 O   0  0  0  0  0  0  0  0  0  0  0  0
  -24.5760  -31.8780   23.2060 C   0  0  0  0  0  0  0  0  0  0  0  0
  -27.1750  -27.0280   20.2200 C   0  0  0  0  0  0  0  0  0  0  0  0
  -23.3870  -30.4620   21.5780 C   0  0  0  0  0  3  0  0  0  0  0  0
  -24.8490  -28.8610   20.1660 C   0  0  0  0  0  0  0  0  0  0  0  0
  -25.9500  -30.7020   21.4240 C   0  0  0  0  0  2  0  0  0  0  0  0
  -26.0330  -29.2910   20.7810 C   0  0  0  0  0  0  0  0  0  0  0  0
  -27.1890  -28.3930   20.7850 C   0  0  0  0  0  3  0  0  0  0  0  0
  -25.9630  -26.7430   19.5540 C   0  0  0  0  0  3  0  0  0  0  0  0
  -24.8380  -27.6060   19.5340 C   0  0  0  0  0  3  0  0  0  0  0  0
  -23.6180  -29.7640   20.2090 C   0  0  0  0  0  2  0  0  0  0  0  0
  -24.6580  -31.0400   22.1220 N   0  0  0  0  0  0  0  0  0  0  0  0
  -23.4860  -32.1660   23.7270 O   0  0  0  0  0  0  0  0  0  0  0  0
  -22.6990  -29.4720   22.5520 C   0  0  0  0  0  0  0  0  0  0  0  0
  -21.3670  -29.3060   22.4340 N   0  0  0  0  0  0  0  0  0  0  0  0
  -23.3690  -28.8520   23.3820 O   0  0  0  0  0  0  0  0  0  0  0  0
  -20.8820  -29.8610   21.7430 H   0  0  0  0  0  0  0  0  0  0  0  0
  -17.9880  -28.1010   22.9600 C   0  0  0  0  0  0  0  0  0  0  0  0
  -20.5480  -28.3710   23.2130 C   0  0  0  0  0  3  0  0  0  0  0  0
  -20.6490  -26.9360   22.6460 C   0  0  0  0  0  2  0  0  0  0  0  0
  -19.5430  -26.6070   21.6380 C   0  0  0  0  0  2  0  0  0  0  0  0
  -18.1630  -26.7520   22.2860 C   0  0  0  0  0  2  0  0  0  0  0  0
  -19.1070  -28.8680   23.3830 C   0  0  0  0  0  0  0  0  0  0  0  0
  -18.8850  -30.1300   23.9760 C   0  0  0  0  0  3  0  0  0  0  0  0
  -17.5790  -30.6260   24.1480 C   0  0  0  0  0  3  0  0  0  0  0  0
  -16.4760  -29.8560   23.7420 C   0  0  0  0  0  3  0  0  0  0  0  0
  -16.6810  -28.5950   23.1550 C   0  0  0  0  0  3  0  0  0  0  0  0
  -25.8460  -32.5300   23.8340 C   0  0  0  0  0  3  0  0  0  0  0  0
  -25.5230  -33.9300   24.1580 N   0  0  0  0  0  0  0  0  0  0  0  0
  -25.8590  -34.9880   23.4080 C   0  0  0  0  0  0  0  0  0  0  0  0
  -26.5320  -34.8870   22.3790 O   0  0  0  0  0  0  0  0  0  0  0  0
  -24.9220  -34.0810   24.9550 H   0  0  0  0  0  0  0  0  0  0  0  0
  -24.1300  -36.7860   23.0550 C   0  0  0  0  0  1  0  0  0  0  0  0
  -25.3700  -36.3770   23.8680 C   0  0  0  0  0  3  0  0  0  0  0  0
  -27.5020  -37.2640   24.7090 C   0  0  0  0  0  1  0  0  0  0  0  0
  -26.4020  -37.4310   23.7610 N   0  0  0  0  0  0  0  0  0  0  0  0
  -25.9940  -38.3500   23.9080 H   0  0  0  0  0  0  0  0  0  0  0  0
  -26.3530  -31.7760   25.1260 C   0  0  1  0  0  0  0  0  0  0  0  0
  -25.2500  -31.5560   26.1870 C   0  0  0  0  0  1  0  0  0  0  0  0
  -26.9360  -30.3920   24.7660 C   0  0  0  0  0  1  0  0  0  0  0  0
  -27.4980  -32.5790   25.7860 C   0  0  0  0  0  1  0  0  0  0  0  0
  1 44  1  0
  1  3  1  0
  2  1  2  0
  4  3  2  0
  4  7  1  0
  5  6  1  0
  6  4  1  0
  8  7  1  0
  9 14  1  0
 10 11  1  0
 10  9  1  0
 12 11  1  0
 12 19  1  0
 12 13  1  0
 14  8  1  0
 14 13  1  0
 15  8  2  0
 16 17  2  0
 17 18  1  0
 17 36  1  0
 18 21  1  0
 19 16  1  0
 19 20  1  0
 20 18  2  0
 21 22  1  0
 22 23  2  0
 24 27  1  0
 24 23  1  0
 25 24  2  0
 26 25  1  0
 26 21  2  0
 27 28  1  0
 28 29  1  0
 29 30  2  0
 31 30  1  0
 31 35  1  0
 32 31  2  0
 33 28  2  0
 33 32  1  0
 34 33  1  0
 36 37  1  0
 37 40  1  0
 37 39  1  0
 38 36  2  0
 41 42  1  0
 41 16  1  0
 43 41  1  0
 45 46  1  0
 45 44  2  0
 47 58  2  0
 48 46  1  0
 48 53  1  0
 49 57  1  0
 49 59  1  0
 50 56  1  0
 50 52  1  0
 51 57  1  0
 52 53  2  0
 52 51  1  0
 54 48  2  0
 55 54  1  0
 55 50  2  0
 56 49  1  0
 57 47  1  0
 59 61  2  0
 60 59  1  0
 62 60  1  0
 63 72  2  0
 63 68  1  0
 64 60  1  0
 64 68  1  0
 65 64  1  0
 66 67  1  0
 66 65  1  0
 67 63  1  0
 68 69  2  0
 69 70  1  0
 71 70  2  0
 72 71  1  0
 73 47  1  0
 73 74  1  0
 73 83  1  0
 74 77  1  0
 75 79  1  0
 75 74  1  0
 76 75  2  0
 79 78  1  0
 81 79  1  0
 81 82  1  0
 81 80  1  0
 83 86  1  1
 83 84  1  0
 85 83  1  0
M  ISO  4   7 100   8 100  45 101  46 101
M  END
>  <TORSDO>  (14) 
F 21

>  <SCORE>  (14) 
-15.417

>  <name>  (14) 
13

>  <ligand_id>  (14) 
13

>  <original_smiles>  (14) 
[H]C(C(=O)C([H])([H])C([H])([H])Oc1c([H])c([H])c2c(c1[H])C([H])([H])N(C(=O)C([H])(N([H])C(=O)C([H])(N([H])C([H])([H])[H])C([H])([H])[H])C(C([H])([H])[H])(C([H])([H])[H])C([H])([H])[H])C([H])(C(=O)N([H])C1([H])c3c([H])c([H])c([H])c([H])c3C([H])([H])C([H])([H])C1([H])[H])C2([H])[H])=C(C([H])([H])C(=O)N1C([H])([H])C([H])([H])C([H])([H])C([H])(n2nc(-c3c([H])c([H])c(Oc4c([H])c([H])c(F)c([H])c4F)c([H])c3[H])c(C(=O)N([H])[H])c2N([H])[H])C1([H])[H])C([H])([H])C([H])([H])[H]

>  <smiles>  (14) 
[H]C(C(=O)C([H])([H])C([H])([H])Oc1c([H])c([H])c2c(c1[H])C([H])([H])N(C(=O)C([H])(N([H])C(=O)C([H])(N([H])C([H])([H])[H])C([H])([H])[H])C(C([H])([H])[H])(C([H])([H])[H])C([H])([H])[H])C([H])(C(=O)N([H])C1([H])c3c([H])c([H])c([H])c([H])c3C([H])([H])C([H])([H])C1([H])[H])C2([H])[H])=C(C([H])([H])C(=O)N1C([H])([H])C([H])([H])C([H])([H])C([H])(n2nc(-c3c([H])c([H])c(Oc4c([H])c([H])c(F)c([H])c4F)c([H])c3[H])c(C(=O)N([H])[H])c2N([H])[H])C1([H])[H])C([H])([H])C([H])([H])[H]

$$$$
14:0:0
     RDKit          3D

 94102  0  0  1  0  0  0  0  0999 V2000
  -32.5400  -21.8260   19.3860 C   0  0  0  0  0  3  0  0  0  0  0  0
  -32.6570  -23.1510   18.9260 C   0  0  0  0  0  3  0  0  0  0  0  0
  -31.1630  -21.2830   17.4550 C   0  0  0  0  0  3  0  0  0  0  0  0
  -31.7710  -20.8880   18.6670 C   0  0  0  0  0  0  0  0  0  0  0  0
  -32.0380  -23.5530   17.7220 C   0  0  0  0  0  0  0  0  0  0  0  0
  -31.3010  -22.6010   16.9690 C   0  0  0  0  0  0  0  0  0  0  0  0
  -30.6420  -22.9430   15.6420 C   0  0  0  0  0  1  0  0  0  0  0  0
  -31.6670  -19.4900   19.1620 C   0  0  0  0  0  0  0  0  0  0  0  0
  -32.6260  -18.8870   19.6550 O   0  0  0  0  0  0  0  0  0  0  0  0
  -30.2730  -18.8450   19.0990 C   0  0  0  0  0  2  0  0  0  0  0  0
  -30.1920  -17.3440   19.4520 C   0  0  0  0  0  2  0  0  0  0  0  0
  -30.4750  -16.9860   20.9310 C   0  0  0  0  0  2  0  0  0  0  0  0
  -30.0200  -15.5640   21.3350 C   0  0  0  0  0  2  0  0  0  0  0  0
  -30.6800  -14.4190   20.5410 C   0  0  0  0  0  0  0  0  0  0  0  0
  -30.3570  -12.3120   19.2950 C   0  0  0  0  0  2  0  0  0  0  0  0
  -29.4130  -12.5770   18.1050 C   0  0  0  0  0  2  0  0  0  0  0  0
  -27.9370  -12.4520   18.5340 C   0  0  0  0  0  2  0  0  0  0  0  0
  -27.6170  -13.2510   19.8260 C   0  0  0  0  0  3  0  0  0  0  0  0
  -28.6720  -12.9580   20.9180 C   0  0  0  0  0  2  0  0  0  0  0  0
  -29.9980  -13.2580   20.3600 N   0  0  0  0  0  0  0  0  0  0  0  0
  -31.7820  -14.6240   20.0220 O   0  0  0  0  0  0  0  0  0  0  0  0
  -25.2130  -13.8700   20.5160 C   0  0  0  0  0  0  0  0  0  0  0  0
  -24.1410  -13.1030   20.8830 C   0  0  0  0  0  0  0  0  0  0  0  0
  -24.5990  -11.7490   20.8610 C   0  0  0  0  0  0  0  0  0  0  0  0
  -26.2590  -12.9850   20.2970 N   0  0  0  0  0  0  0  0  0  0  0  0
  -25.8900  -11.7050   20.5580 N   0  0  0  0  0  0  0  0  0  0  0  0
  -23.8700  -10.4910   21.0560 C   0  0  0  0  0  0  0  0  0  0  0  0
  -24.3090   -9.5190   21.9810 C   0  0  0  0  0  3  0  0  0  0  0  0
  -23.5810   -8.3230   22.1630 C   0  0  0  0  0  3  0  0  0  0  0  0
  -22.3990   -8.0920   21.4200 C   0  0  0  0  0  0  0  0  0  0  0  0
  -21.9780   -9.0530   20.4840 C   0  0  0  0  0  3  0  0  0  0  0  0
  -22.7070  -10.2400   20.3000 C   0  0  0  0  0  3  0  0  0  0  0  0
  -21.6410   -6.9490   21.5120 O   0  0  0  0  0  0  0  0  0  0  0  0
  -21.6150   -6.1930   22.6570 C   0  0  0  0  0  0  0  0  0  0  0  0
  -21.2390   -6.7400   23.9040 C   0  0  0  0  0  3  0  0  0  0  0  0
  -21.1590   -5.9110   25.0400 C   0  0  0  0  0  3  0  0  0  0  0  0
  -21.4460   -4.5380   24.9320 C   0  0  0  0  0  0  0  0  0  0  0  0
  -21.8150   -3.9900   23.6920 C   0  0  0  0  0  3  0  0  0  0  0  0
  -21.8960   -4.8150   22.5560 C   0  0  0  0  0  0  0  0  0  0  0  0
  -22.2320   -4.2780   21.3570 F   0  0  0  0  0  0  0  0  0  0  0  0
  -21.3610   -3.7390   26.0220 F   0  0  0  0  0  0  0  0  0  0  0  0
  -22.7430  -13.5840   21.1480 C   0  0  0  0  0  0  0  0  0  0  0  0
  -22.0120  -12.8930   22.0170 N   0  0  0  0  0  0  0  0  0  0  0  0
  -22.3080  -14.6060   20.6200 O   0  0  0  0  0  0  0  0  0  0  0  0
  -22.3770  -12.0640   22.4630 H   0  0  0  0  0  0  0  0  0  0  0  0
  -21.0730  -13.1960   22.2360 H   0  0  0  0  0  0  0  0  0  0  0  0
  -25.3810  -15.2400   20.3330 N   0  0  0  0  0  0  0  0  0  0  0  0
  -24.6140  -15.8950   20.4310 H   0  0  0  0  0  0  0  0  0  0  0  0
  -26.2380  -15.6790   20.0210 H   0  0  0  0  0  0  0  0  0  0  0  0
  -32.1970  -25.0030   17.2730 C   0  0  0  0  0  2  0  0  0  0  0  0
  -30.8980  -25.8280   17.3520 C   0  0  0  0  0  2  0  0  0  0  0  0
  -30.3080  -25.9540   18.7690 C   0  0  0  0  0  2  0  0  0  0  0  0
  -28.8940  -26.5440   18.7430 C   0  0  0  0  0  2  0  0  0  0  0  0
  -28.4520  -26.8120   20.0690 O   0  0  0  0  0  0  0  0  0  0  0  0
  -24.6080  -31.8870   23.2420 C   0  0  0  0  0  0  0  0  0  0  0  0
  -27.2600  -27.4890   20.1270 C   0  0  0  0  0  0  0  0  0  0  0  0
  -23.3950  -30.4810   21.6060 C   0  0  0  0  0  3  0  0  0  0  0  0
  -24.8470  -28.9460   20.1780 C   0  0  0  0  0  0  0  0  0  0  0  0
  -25.9150  -30.8530   21.3950 C   0  0  0  0  0  2  0  0  0  0  0  0
  -26.0020  -29.4820   20.7630 C   0  0  0  0  0  0  0  0  0  0  0  0
  -27.2090  -28.7520   20.7510 C   0  0  0  0  0  3  0  0  0  0  0  0
  -26.0870  -26.9490   19.5570 C   0  0  0  0  0  3  0  0  0  0  0  0
  -24.8800  -27.6730   19.5810 C   0  0  0  0  0  3  0  0  0  0  0  0
  -23.5990  -29.7980   20.2280 C   0  0  0  0  0  2  0  0  0  0  0  0
  -24.6580  -31.0890   22.1390 N   0  0  0  0  0  0  0  0  0  0  0  0
  -23.5300  -32.1570   23.7890 O   0  0  0  0  0  0  0  0  0  0  0  0
  -22.7540  -29.4580   22.5710 C   0  0  0  0  0  0  0  0  0  0  0  0
  -21.4310  -29.2720   22.4490 N   0  0  0  0  0  0  0  0  0  0  0  0
  -23.4450  -28.8350   23.3830 O   0  0  0  0  0  0  0  0  0  0  0  0
  -20.9360  -29.8260   21.7650 H   0  0  0  0  0  0  0  0  0  0  0  0
  -18.0640  -28.0640   22.9510 C   0  0  0  0  0  0  0  0  0  0  0  0
  -20.6200  -28.3330   23.2230 C   0  0  0  0  0  3  0  0  0  0  0  0
  -20.7290  -26.9010   22.6480 C   0  0  0  0  0  2  0  0  0  0  0  0
  -19.6270  -26.5710   21.6350 C   0  0  0  0  0  2  0  0  0  0  0  0
  -18.2460  -26.7140   22.2790 C   0  0  0  0  0  2  0  0  0  0  0  0
  -19.1790  -28.8310   23.3790 C   0  0  0  0  0  0  0  0  0  0  0  0
  -18.9580  -30.0970   23.9650 C   0  0  0  0  0  3  0  0  0  0  0  0
  -17.6510  -30.5940   24.1280 C   0  0  0  0  0  3  0  0  0  0  0  0
  -16.5490  -29.8250   23.7170 C   0  0  0  0  0  3  0  0  0  0  0  0
  -16.7570  -28.5610   23.1350 C   0  0  0  0  0  3  0  0  0  0  0  0
  -25.8980  -32.5190   23.8540 C   0  0  0  0  0  3  0  0  0  0  0  0
  -26.4310  -31.7440   25.1220 C   0  0  1  0  0  0  0  0  0  0  0  0
  -25.3490  -31.4980   26.1980 C   0  0  0  0  0  1  0  0  0  0  0  0
  -27.0140  -30.3700   24.7160 C   0  0  0  0  0  1  0  0  0  0  0  0
  -27.5850  -32.5390   25.7770 C   0  0  0  0  0  1  0  0  0  0  0  0
  -25.5900  -33.9160   24.1890 N   0  0  0  0  0  0  0  0  0  0  0  0
  -25.9170  -34.9690   23.4280 C   0  0  0  0  0  0  0  0  0  0  0  0
  -26.5830  -34.8680   22.3940 O   0  0  0  0  0  0  0  0  0  0  0  0
  -24.9980  -34.0680   24.9920 H   0  0  0  0  0  0  0  0  0  0  0  0
  -24.1820  -36.7550   23.0830 C   0  0  0  0  0  1  0  0  0  0  0  0
  -25.4280  -36.3550   23.8890 C   0  0  0  0  0  3  0  0  0  0  0  0
  -27.5670  -37.2410   24.7060 C   0  0  0  0  0  1  0  0  0  0  0  0
  -26.4580  -37.4100   23.7720 N   0  0  0  0  0  0  0  0  0  0  0  0
  -26.0490  -38.3290   23.9270 H   0  0  0  0  0  0  0  0  0  0  0  0
  2  1  1  0
  3  4  1  0
  4  8  1  0
  4  1  2  0
  5  2  2  0
  6  3  2  0
  6  5  1  0
  7  6  1  0
  8  9  2  0
 10  8  1  0
 10 11  1  0
 11 12  1  0
 12 13  1  0
 14 13  1  0
 15 20  1  0
 16 17  1  0
 16 15  1  0
 18 17  1  0
 18 25  1  0
 18 19  1  0
 20 14  1  0
 20 19  1  0
 21 14  2  0
 22 23  2  0
 23 42  1  0
 24 23  1  0
 24 27  1  0
 25 22  1  0
 25 26  1  0
 26 24  2  0
 27 28  1  0
 28 29  2  0
 30 33  1  0
 30 29  1  0
 31 30  2  0
 32 31  1  0
 32 27  2  0
 33 34  1  0
 34 35  1  0
 35 36  2  0
 37 36  1  0
 37 41  1  0
 38 37  2  0
 39 34  2  0
 39 38  1  0
 40 39  1  0
 42 43  1  0
 43 46  1  0
 43 45  1  0
 44 42  2  0
 47 48  1  0
 47 22  1  0
 49 47  1  0
 50 51  1  0
 50  5  1  0
 51 52  1  0
 53 52  1  0
 53 54  1  0
 54 56  1  0
 55 66  2  0
 56 61  1  0
 57 65  1  0
 57 67  1  0
 58 64  1  0
 58 60  1  0
 59 65  1  0
 60 59  1  0
 61 60  2  0
 62 63  1  0
 62 56  2  0
 63 58  2  0
 64 57  1  0
 65 55  1  0
 67 69  2  0
 68 67  1  0
 70 68  1  0
 71 80  2  0
 71 76  1  0
 72 68  1  0
 72 76  1  0
 73 72  1  0
 74 75  1  0
 74 73  1  0
 75 71  1  0
 76 77  2  0
 77 78  1  0
 79 78  2  0
 80 79  1  0
 81 55  1  0
 81 86  1  0
 81 82  1  0
 82 85  1  1
 82 83  1  0
 84 82  1  0
 86 89  1  0
 87 91  1  0
 87 86  1  0
 88 87  2  0
 91 90  1  0
 93 91  1  0
 93 94  1  0
 93 92  1  0
M  ISO  4  13 100  14 100  53 101  54 101
M  END
>  <TORSDO>  (15) 
F 25

>  <SCORE>  (15) 
-12.054

>  <name>  (15) 
14

>  <ligand_id>  (15) 
14

>  <original_smiles>  (15) 
[H]c1c([H])c([H])c2c(c1[H])C([H])([H])C([H])([H])C([H])([H])C2([H])N([H])C(=O)C1([H])N(C(=O)C([H])(N([H])C(=O)C([H])(N([H])C([H])([H])[H])C([H])([H])[H])C(C([H])([H])[H])(C([H])([H])[H])C([H])([H])[H])C([H])([H])c2c([H])c(OC([H])([H])C([H])([H])C([H])([H])C([H])([H])c3c([H])c([H])c(C(=O)C([H])([H])C([H])([H])C([H])([H])C([H])([H])C(=O)N4C([H])([H])C([H])([H])C([H])([H])C([H])(n5nc(-c6c([H])c([H])c(Oc7c([H])c([H])c(F)c([H])c7F)c([H])c6[H])c(C(=O)N([H])[H])c5N([H])[H])C4([H])[H])c([H])c3C([H])([H])[H])c([H])c([H])c2C1([H])[H]

>  <smiles>  (15) 
[H]c1c([H])c([H])c2c(c1[H])C([H])([H])C([H])([H])C([H])([H])C2([H])N([H])C(=O)C1([H])N(C(=O)C([H])(N([H])C(=O)C([H])(N([H])C([H])([H])[H])C([H])([H])[H])C(C([H])([H])[H])(C([H])([H])[H])C([H])([H])[H])C([H])([H])c2c([H])c(OC([H])([H])C([H])([H])C([H])([H])C([H])([H])c3c([H])c([H])c(C(=O)C([H])([H])C([H])([H])C([H])([H])C([H])([H])C(=O)N4C([H])([H])C([H])([H])C([H])([H])C([H])(n5nc(-c6c([H])c([H])c(Oc7c([H])c([H])c(F)c([H])c7F)c([H])c6[H])c(C(=O)N([H])[H])c5N([H])[H])C4([H])[H])c([H])c3C([H])([H])[H])c([H])c([H])c2C1([H])[H]

$$$$
15:0:0
     RDKit          3D

 92101  0  0  1  0  0  0  0  0999 V2000
  -30.6070  -22.1750   24.0670 C   0  0  0  0  0  3  0  0  0  0  0  0
  -31.0680  -20.8750   23.7930 C   0  0  0  0  0  3  0  0  0  0  0  0
  -30.6340  -21.2290   21.4200 C   0  0  0  0  0  3  0  0  0  0  0  0
  -30.1610  -23.0080   23.0210 C   0  0  0  0  0  0  0  0  0  0  0  0
  -30.1620  -22.5270   21.6890 C   0  0  0  0  0  0  0  0  0  0  0  0
  -31.0970  -20.4080   22.4670 C   0  0  0  0  0  0  0  0  0  0  0  0
  -29.6960  -24.4130   23.3450 C   0  0  0  0  0  2  0  0  0  0  0  0
  -29.6520  -23.3680   20.5250 C   0  0  0  0  0  2  0  0  0  0  0  0
  -28.7410  -24.9610   22.2860 C   0  0  0  0  0  2  0  0  0  0  0  0
  -29.3390  -24.8350   20.8730 C   0  0  0  0  0  3  0  0  0  0  0  0
  -31.6590  -19.0400   22.1560 C   0  0  0  0  0  2  0  0  0  0  0  0
  -30.6170  -17.9180   22.2400 C   0  0  0  0  0  2  0  0  0  0  0  0
  -31.1830  -16.6550   21.5850 C   0  0  0  0  0  2  0  0  0  0  0  0
  -30.1970  -15.4740   21.4630 C   0  0  0  0  0  2  0  0  0  0  0  0
  -30.6760  -14.4260   20.4420 C   0  0  0  0  0  0  0  0  0  0  0  0
  -30.2760  -12.3690   19.1420 C   0  0  0  0  0  2  0  0  0  0  0  0
  -29.3130  -12.6510   17.9740 C   0  0  0  0  0  2  0  0  0  0  0  0
  -27.8520  -12.4980   18.4350 C   0  0  0  0  0  2  0  0  0  0  0  0
  -27.5530  -13.2880   19.7380 C   0  0  0  0  0  3  0  0  0  0  0  0
  -28.6280  -13.0170   20.8130 C   0  0  0  0  0  2  0  0  0  0  0  0
  -29.9470  -13.3010   20.2300 N   0  0  0  0  0  0  0  0  0  0  0  0
  -31.7100  -14.6560   19.8070 O   0  0  0  0  0  0  0  0  0  0  0  0
  -25.1590  -13.8700   20.4850 C   0  0  0  0  0  0  0  0  0  0  0  0
  -24.1030  -13.0850   20.8640 C   0  0  0  0  0  0  0  0  0  0  0  0
  -24.5760  -11.7370   20.8160 C   0  0  0  0  0  0  0  0  0  0  0  0
  -26.2090  -13.0000   20.2340 N   0  0  0  0  0  0  0  0  0  0  0  0
  -25.8600  -11.7130   20.4870 N   0  0  0  0  0  0  0  0  0  0  0  0
  -23.8650  -10.4680   21.0070 C   0  0  0  0  0  0  0  0  0  0  0  0
  -24.3260   -9.4930   21.9200 C   0  0  0  0  0  3  0  0  0  0  0  0
  -23.6150   -8.2880   22.1000 C   0  0  0  0  0  3  0  0  0  0  0  0
  -22.4280   -8.0470   21.3670 C   0  0  0  0  0  0  0  0  0  0  0  0
  -21.9860   -9.0110   20.4430 C   0  0  0  0  0  3  0  0  0  0  0  0
  -22.6980  -10.2080   20.2610 C   0  0  0  0  0  3  0  0  0  0  0  0
  -21.6860   -6.8950   21.4580 O   0  0  0  0  0  0  0  0  0  0  0  0
  -21.6740   -6.1330   22.5990 C   0  0  0  0  0  0  0  0  0  0  0  0
  -21.2920   -6.6690   23.8490 C   0  0  0  0  0  3  0  0  0  0  0  0
  -21.2290   -5.8350   24.9820 C   0  0  0  0  0  3  0  0  0  0  0  0
  -21.5360   -4.4660   24.8670 C   0  0  0  0  0  0  0  0  0  0  0  0
  -21.9130   -3.9300   23.6230 C   0  0  0  0  0  3  0  0  0  0  0  0
  -21.9780   -4.7610   22.4920 C   0  0  0  0  0  0  0  0  0  0  0  0
  -22.3210   -4.2360   21.2910 F   0  0  0  0  0  0  0  0  0  0  0  0
  -21.4690   -3.6620   25.9550 F   0  0  0  0  0  0  0  0  0  0  0  0
  -22.7060  -13.5460   21.1660 C   0  0  0  0  0  0  0  0  0  0  0  0
  -22.0030  -12.8360   22.0410 N   0  0  0  0  0  0  0  0  0  0  0  0
  -22.2490  -14.5720   20.6620 O   0  0  0  0  0  0  0  0  0  0  0  0
  -22.3850  -12.0070   22.4670 H   0  0  0  0  0  0  0  0  0  0  0  0
  -21.0660  -13.1270   22.2870 H   0  0  0  0  0  0  0  0  0  0  0  0
  -25.3080  -15.2430   20.3150 N   0  0  0  0  0  0  0  0  0  0  0  0
  -24.5370  -15.8900   20.4450 H   0  0  0  0  0  0  0  0  0  0  0  0
  -26.1540  -15.6950   19.9940 H   0  0  0  0  0  0  0  0  0  0  0  0
  -28.4060  -25.4630   19.8310 C   0  0  0  0  0  2  0  0  0  0  0  0
  -28.3570  -26.8590   20.1060 O   0  0  0  0  0  0  0  0  0  0  0  0
  -24.5390  -31.9360   23.2530 C   0  0  0  0  0  0  0  0  0  0  0  0
  -27.1450  -27.5110   20.1260 C   0  0  0  0  0  0  0  0  0  0  0  0
  -23.3110  -30.5370   21.6230 C   0  0  0  0  0  3  0  0  0  0  0  0
  -24.7450  -28.9980   20.1810 C   0  0  0  0  0  0  0  0  0  0  0  0
  -25.8320  -30.8890   21.4030 C   0  0  0  0  0  2  0  0  0  0  0  0
  -25.9050  -29.5200   20.7620 C   0  0  0  0  0  0  0  0  0  0  0  0
  -27.1050  -28.7810   20.7390 C   0  0  0  0  0  3  0  0  0  0  0  0
  -25.9660  -26.9970   19.5380 C   0  0  0  0  0  3  0  0  0  0  0  0
  -24.7660  -27.7320   19.5720 C   0  0  0  0  0  3  0  0  0  0  0  0
  -23.5040  -29.8590   20.2390 C   0  0  0  0  0  2  0  0  0  0  0  0
  -24.5800  -31.1350   22.1520 N   0  0  0  0  0  0  0  0  0  0  0  0
  -23.4650  -32.2150   23.8030 O   0  0  0  0  0  0  0  0  0  0  0  0
  -22.6720  -29.5130   22.5870 C   0  0  0  0  0  0  0  0  0  0  0  0
  -21.3480  -29.3290   22.4630 N   0  0  0  0  0  0  0  0  0  0  0  0
  -23.3610  -28.8930   23.4010 O   0  0  0  0  0  0  0  0  0  0  0  0
  -20.8560  -29.8840   21.7770 H   0  0  0  0  0  0  0  0  0  0  0  0
  -17.9810  -28.1150   22.9520 C   0  0  0  0  0  0  0  0  0  0  0  0
  -20.5350  -28.3910   23.2360 C   0  0  0  0  0  3  0  0  0  0  0  0
  -20.6520  -26.9570   22.6710 C   0  0  0  0  0  2  0  0  0  0  0  0
  -19.5570  -26.6170   21.6550 C   0  0  0  0  0  2  0  0  0  0  0  0
  -18.1700  -26.7600   22.2910 C   0  0  0  0  0  2  0  0  0  0  0  0
  -19.0920  -28.8870   23.3820 C   0  0  0  0  0  0  0  0  0  0  0  0
  -18.8660  -30.1560   23.9590 C   0  0  0  0  0  3  0  0  0  0  0  0
  -17.5570  -30.6540   24.1100 C   0  0  0  0  0  3  0  0  0  0  0  0
  -16.4600  -29.8770   23.6990 C   0  0  0  0  0  3  0  0  0  0  0  0
  -16.6720  -28.6110   23.1250 C   0  0  0  0  0  3  0  0  0  0  0  0
  -25.8360  -32.5590   23.8600 C   0  0  0  0  0  3  0  0  0  0  0  0
  -25.5350  -33.9560   24.1960 N   0  0  0  0  0  0  0  0  0  0  0  0
  -25.8590  -35.0090   23.4340 C   0  0  0  0  0  0  0  0  0  0  0  0
  -26.5180  -34.9090   22.3960 O   0  0  0  0  0  0  0  0  0  0  0  0
  -24.9520  -34.1110   25.0060 H   0  0  0  0  0  0  0  0  0  0  0  0
  -24.1280  -36.8030   23.1020 C   0  0  0  0  0  1  0  0  0  0  0  0
  -25.3770  -36.3960   23.9000 C   0  0  0  0  0  3  0  0  0  0  0  0
  -27.5200  -37.2770   24.7100 C   0  0  0  0  0  1  0  0  0  0  0  0
  -26.4080  -37.4480   23.7780 N   0  0  0  0  0  0  0  0  0  0  0  0
  -26.0050  -38.3670   23.9350 H   0  0  0  0  0  0  0  0  0  0  0  0
  -26.3690  -31.7800   25.1250 C   0  0  1  0  0  0  0  0  0  0  0  0
  -25.2890  -31.5380   26.2050 C   0  0  0  0  0  1  0  0  0  0  0  0
  -26.9460  -30.4050   24.7120 C   0  0  0  0  0  1  0  0  0  0  0  0
  -27.5270  -32.5710   25.7780 C   0  0  0  0  0  1  0  0  0  0  0  0
  2  1  1  0
  3  5  2  0
  3  6  1  0
  4  7  1  0
  4  1  2  0
  5  4  1  0
  6  2  2  0
  8 10  1  0
  8  5  1  0
  9  7  1  0
 10 51  1  0
 10  9  1  0
 11 12  1  0
 11  6  1  0
 13 12  1  0
 14 13  1  0
 15 14  1  0
 16 21  1  0
 17 18  1  0
 17 16  1  0
 19 18  1  0
 19 26  1  0
 19 20  1  0
 21 15  1  0
 21 20  1  0
 22 15  2  0
 23 24  2  0
 24 43  1  0
 25 24  1  0
 25 28  1  0
 26 23  1  0
 26 27  1  0
 27 25  2  0
 28 29  1  0
 29 30  2  0
 31 34  1  0
 31 30  1  0
 32 31  2  0
 33 32  1  0
 33 28  2  0
 34 35  1  0
 35 36  1  0
 36 37  2  0
 38 37  1  0
 38 42  1  0
 39 38  2  0
 40 35  2  0
 40 39  1  0
 41 40  1  0
 43 44  1  0
 44 47  1  0
 44 46  1  0
 45 43  2  0
 48 49  1  0
 48 23  1  0
 50 48  1  0
 51 52  1  0
 52 54  1  0
 53 64  2  0
 54 59  1  0
 55 63  1  0
 55 65  1  0
 56 62  1  0
 56 58  1  0
 57 63  1  0
 58 57  1  0
 59 58  2  0
 60 61  1  0
 60 54  2  0
 61 56  2  0
 62 55  1  0
 63 53  1  0
 65 67  2  0
 66 65  1  0
 68 66  1  0
 69 78  2  0
 69 74  1  0
 70 66  1  0
 70 74  1  0
 71 70  1  0
 72 73  1  0
 72 71  1  0
 73 69  1  0
 74 75  2  0
 75 76  1  0
 77 76  2  0
 78 77  1  0
 79 53  1  0
 79 80  1  0
 79 89  1  0
 80 83  1  0
 81 85  1  0
 81 80  1  0
 82 81  2  0
 85 84  1  0
 87 85  1  0
 87 88  1  0
 87 86  1  0
 89 92  1  1
 89 90  1  0
 91 89  1  0
M  ISO  4  14 100  15 100  51 101  52 101
M  END
>  <TORSDO>  (16) 
F 21

>  <SCORE>  (16) 
-13.825

>  <name>  (16) 
15

>  <ligand_id>  (16) 
15

>  <original_smiles>  (16) 
[H]c1c([H])c([H])c2c(c1[H])C([H])([H])C([H])([H])C([H])([H])C2([H])N([H])C(=O)C1([H])N(C(=O)C([H])(N([H])C(=O)C([H])(N([H])C([H])([H])[H])C([H])([H])[H])C(C([H])([H])[H])(C([H])([H])[H])C([H])([H])[H])C([H])([H])c2c([H])c(OC([H])([H])C3([H])C([H])([H])c4c([H])c(C([H])([H])C([H])([H])C([H])([H])C([H])([H])C(=O)N5C([H])([H])C([H])([H])C([H])([H])C([H])(n6nc(-c7c([H])c([H])c(Oc8c([H])c([H])c(F)c([H])c8F)c([H])c7[H])c(C(=O)N([H])[H])c6N([H])[H])C5([H])[H])c([H])c([H])c4C([H])([H])C3([H])[H])c([H])c([H])c2C1([H])[H]

>  <smiles>  (16) 
[H]c1c([H])c([H])c2c(c1[H])C([H])([H])C([H])([H])C([H])([H])C2([H])N([H])C(=O)C1([H])N(C(=O)C([H])(N([H])C(=O)C([H])(N([H])C([H])([H])[H])C([H])([H])[H])C(C([H])([H])[H])(C([H])([H])[H])C([H])([H])[H])C([H])([H])c2c([H])c(OC([H])([H])C3([H])C([H])([H])c4c([H])c(C([H])([H])C([H])([H])C([H])([H])C([H])([H])C(=O)N5C([H])([H])C([H])([H])C([H])([H])C([H])(n6nc(-c7c([H])c([H])c(Oc8c([H])c([H])c(F)c([H])c8F)c([H])c7[H])c(C(=O)N([H])[H])c6N([H])[H])C5([H])[H])c([H])c([H])c4C([H])([H])C3([H])[H])c([H])c([H])c2C1([H])[H]

$$$$
16:0:0
     RDKit          3D

 92100  0  0  1  0  0  0  0  0999 V2000
  -31.3940  -23.7920   21.3790 C   0  0  0  0  0  2  0  0  0  0  0  0
  -30.7110  -22.6450   21.2550 C   0  0  0  0  0  3  0  0  0  0  0  0
  -30.8230  -24.8210   20.5270 C   0  0  0  0  0  0  0  0  0  0  0  0
  -29.4690  -22.8580   20.4010 C   0  0  0  0  0  2  0  0  0  0  0  0
  -29.6250  -24.2820   19.7340 C   0  0  2  0  0  0  0  0  0  0  0  0
  -30.1050  -24.0490   18.2720 C   0  0  0  0  0  1  0  0  0  0  0  0
  -31.3020  -25.9490   20.3650 O   0  0  0  0  0  0  0  0  0  0  0  0
  -30.9580  -21.5640   22.1990 C   0  0  0  0  0  3  0  0  0  0  0  0
  -30.8160  -20.2150   22.1400 C   0  0  0  0  0  0  0  0  0  0  0  0
  -30.9560  -19.4720   23.4510 C   0  0  0  0  0  1  0  0  0  0  0  0
  -30.5040  -19.3340   20.9120 C   0  0  0  0  0  2  0  0  0  0  0  0
  -31.3800  -18.0380   20.7510 C   0  0  0  0  0  2  0  0  0  0  0  0
  -30.9830  -16.8020   21.6270 C   0  0  0  0  0  2  0  0  0  0  0  0
  -30.0080  -15.7400   21.0640 C   0  0  0  0  0  2  0  0  0  0  0  0
  -30.6930  -14.5160   20.4100 C   0  0  0  0  0  0  0  0  0  0  0  0
  -30.3790  -12.3790   19.2320 C   0  0  0  0  0  2  0  0  0  0  0  0
  -29.4270  -12.6490   18.0460 C   0  0  0  0  0  2  0  0  0  0  0  0
  -27.9530  -12.5090   18.4810 C   0  0  0  0  0  2  0  0  0  0  0  0
  -27.6390  -13.3010   19.7840 C   0  0  0  0  0  3  0  0  0  0  0  0
  -28.7070  -13.0140   20.8600 C   0  0  0  0  0  2  0  0  0  0  0  0
  -30.0320  -13.3310   20.2940 N   0  0  0  0  0  0  0  0  0  0  0  0
  -31.8030  -14.6900   19.8960 O   0  0  0  0  0  0  0  0  0  0  0  0
  -25.2410  -13.9090   20.5100 C   0  0  0  0  0  0  0  0  0  0  0  0
  -24.1760  -13.1310   20.8920 C   0  0  0  0  0  0  0  0  0  0  0  0
  -24.6410  -11.7840   20.8550 C   0  0  0  0  0  0  0  0  0  0  0  0
  -26.2880  -13.0280   20.2740 N   0  0  0  0  0  0  0  0  0  0  0  0
  -25.9290  -11.7450   20.5290 N   0  0  0  0  0  0  0  0  0  0  0  0
  -23.9210  -10.5170   21.0520 C   0  0  0  0  0  0  0  0  0  0  0  0
  -24.3690   -9.5480   21.9740 C   0  0  0  0  0  3  0  0  0  0  0  0
  -23.6460   -8.3490   22.1630 C   0  0  0  0  0  3  0  0  0  0  0  0
  -22.4630   -8.1110   21.4240 C   0  0  0  0  0  0  0  0  0  0  0  0
  -22.0300   -9.0720   20.4920 C   0  0  0  0  0  3  0  0  0  0  0  0
  -22.7530  -10.2630   20.3070 C   0  0  0  0  0  3  0  0  0  0  0  0
  -21.7090   -6.9680   21.5170 O   0  0  0  0  0  0  0  0  0  0  0  0
  -21.6880   -6.2110   22.6600 C   0  0  0  0  0  0  0  0  0  0  0  0
  -21.2950   -6.7510   23.9060 C   0  0  0  0  0  3  0  0  0  0  0  0
  -21.2200   -5.9190   25.0400 C   0  0  0  0  0  3  0  0  0  0  0  0
  -21.5310   -4.5510   24.9310 C   0  0  0  0  0  0  0  0  0  0  0  0
  -21.9220   -4.0110   23.6950 C   0  0  0  0  0  3  0  0  0  0  0  0
  -21.9940   -4.8380   22.5610 C   0  0  0  0  0  0  0  0  0  0  0  0
  -22.3470   -4.3100   21.3610 F   0  0  0  0  0  0  0  0  0  0  0  0
  -21.4500   -3.7500   26.0210 F   0  0  0  0  0  0  0  0  0  0  0  0
  -22.7830  -13.6070   21.1780 C   0  0  0  0  0  0  0  0  0  0  0  0
  -22.0650  -12.9100   22.0570 N   0  0  0  0  0  0  0  0  0  0  0  0
  -22.3370  -14.6300   20.6670 O   0  0  0  0  0  0  0  0  0  0  0  0
  -22.4300  -12.0780   22.4940 H   0  0  0  0  0  0  0  0  0  0  0  0
  -21.1320  -13.2140   22.2910 H   0  0  0  0  0  0  0  0  0  0  0  0
  -25.3840  -15.2780   20.3270 N   0  0  0  0  0  0  0  0  0  0  0  0
  -24.6000  -15.9110   20.4610 H   0  0  0  0  0  0  0  0  0  0  0  0
  -26.2370  -15.7560   20.0710 H   0  0  0  0  0  0  0  0  0  0  0  0
  -28.3090  -25.1920   19.7780 C   0  0  0  0  0  2  0  0  0  0  0  0
  -28.3580  -26.6030   20.1730 O   0  0  0  0  0  0  0  0  0  0  0  0
  -24.5180  -31.8790   23.2420 C   0  0  0  0  0  0  0  0  0  0  0  0
  -27.1750  -27.3580   20.1740 C   0  0  0  0  0  0  0  0  0  0  0  0
  -23.3070  -30.4640   21.6190 C   0  0  0  0  0  3  0  0  0  0  0  0
  -24.7590  -28.8980   20.2060 C   0  0  0  0  0  0  0  0  0  0  0  0
  -25.8430  -30.7930   21.4220 C   0  0  0  0  0  2  0  0  0  0  0  0
  -25.9250  -29.4100   20.7920 C   0  0  0  0  0  0  0  0  0  0  0  0
  -27.1280  -28.6510   20.7720 C   0  0  0  0  0  3  0  0  0  0  0  0
  -25.9810  -26.8800   19.5810 C   0  0  0  0  0  3  0  0  0  0  0  0
  -24.7870  -27.6280   19.6020 C   0  0  0  0  0  3  0  0  0  0  0  0
  -23.5140  -29.7620   20.2490 C   0  0  0  0  0  2  0  0  0  0  0  0
  -24.5750  -31.0640   22.1500 N   0  0  0  0  0  0  0  0  0  0  0  0
  -23.4360  -32.1660   23.7780 O   0  0  0  0  0  0  0  0  0  0  0  0
  -22.6400  -29.4640   22.5950 C   0  0  0  0  0  0  0  0  0  0  0  0
  -21.3170  -29.2760   22.4580 N   0  0  0  0  0  0  0  0  0  0  0  0
  -23.3130  -28.8540   23.4310 O   0  0  0  0  0  0  0  0  0  0  0  0
  -20.8330  -29.8140   21.7540 H   0  0  0  0  0  0  0  0  0  0  0  0
  -17.9440  -28.0540   22.9260 C   0  0  0  0  0  0  0  0  0  0  0  0
  -20.4940  -28.3510   23.2400 C   0  0  0  0  0  3  0  0  0  0  0  0
  -20.6270  -26.9090   22.7000 C   0  0  0  0  0  2  0  0  0  0  0  0
  -19.5470  -26.5490   21.6730 C   0  0  0  0  0  2  0  0  0  0  0  0
  -18.1500  -26.6910   22.2840 C   0  0  0  0  0  2  0  0  0  0  0  0
  -19.0460  -28.8400   23.3550 C   0  0  0  0  0  0  0  0  0  0  0  0
  -18.8030  -30.1140   23.9110 C   0  0  0  0  0  3  0  0  0  0  0  0
  -17.4920  -30.6040   24.0470 C   0  0  0  0  0  3  0  0  0  0  0  0
  -16.4020  -29.8180   23.6330 C   0  0  0  0  0  3  0  0  0  0  0  0
  -16.6290  -28.5450   23.0790 C   0  0  0  0  0  3  0  0  0  0  0  0
  -25.8050  -32.5110   23.8560 C   0  0  0  0  0  3  0  0  0  0  0  0
  -25.5080  -33.9130   24.1750 N   0  0  0  0  0  0  0  0  0  0  0  0
  -25.8530  -34.9580   23.4080 C   0  0  0  0  0  0  0  0  0  0  0  0
  -26.5270  -34.8390   22.3810 O   0  0  0  0  0  0  0  0  0  0  0  0
  -24.9180  -34.0820   24.9760 H   0  0  0  0  0  0  0  0  0  0  0  0
  -24.1470  -36.7640   23.0150 C   0  0  0  0  0  1  0  0  0  0  0  0
  -25.3710  -36.3530   23.8490 C   0  0  0  0  0  3  0  0  0  0  0  0
  -27.4990  -37.2240   24.7080 C   0  0  0  0  0  1  0  0  0  0  0  0
  -26.4140  -37.3960   23.7450 N   0  0  0  0  0  0  0  0  0  0  0  0
  -26.0140  -38.3200   23.8790 H   0  0  0  0  0  0  0  0  0  0  0  0
  -26.3200  -31.7490   25.1370 C   0  0  1  0  0  0  0  0  0  0  0  0
  -25.2300  -31.5280   26.2100 C   0  0  0  0  0  1  0  0  0  0  0  0
  -26.8980  -30.3650   24.7570 C   0  0  0  0  0  1  0  0  0  0  0  0
  -27.4750  -32.5440   25.7870 C   0  0  0  0  0  1  0  0  0  0  0  0
  2  1  1  0
  2  8  1  0
  3  1  1  0
  4  2  1  0
  5  6  1  6
  5 51  1  0
  5  4  1  0
  5  3  1  0
  7  3  2  0
  9  8  2  0
  9 10  1  0
 11  9  1  0
 12 11  1  0
 12 13  1  0
 14 13  1  0
 15 14  1  0
 16 21  1  0
 17 18  1  0
 17 16  1  0
 19 18  1  0
 19 26  1  0
 19 20  1  0
 21 15  1  0
 21 20  1  0
 22 15  2  0
 23 24  2  0
 24 43  1  0
 25 24  1  0
 25 28  1  0
 26 23  1  0
 26 27  1  0
 27 25  2  0
 28 29  1  0
 29 30  2  0
 31 34  1  0
 31 30  1  0
 32 31  2  0
 33 32  1  0
 33 28  2  0
 34 35  1  0
 35 36  1  0
 36 37  2  0
 38 37  1  0
 38 42  1  0
 39 38  2  0
 40 35  2  0
 40 39  1  0
 41 40  1  0
 43 44  1  0
 44 47  1  0
 44 46  1  0
 45 43  2  0
 48 49  1  0
 48 23  1  0
 50 48  1  0
 51 52  1  0
 52 54  1  0
 53 64  2  0
 54 59  1  0
 55 63  1  0
 55 65  1  0
 56 62  1  0
 56 58  1  0
 57 63  1  0
 58 57  1  0
 59 58  2  0
 60 61  1  0
 60 54  2  0
 61 56  2  0
 62 55  1  0
 63 53  1  0
 65 67  2  0
 66 65  1  0
 68 66  1  0
 69 78  2  0
 69 74  1  0
 70 66  1  0
 70 74  1  0
 71 70  1  0
 72 73  1  0
 72 71  1  0
 73 69  1  0
 74 75  2  0
 75 76  1  0
 77 76  2  0
 78 77  1  0
 79 53  1  0
 79 80  1  0
 79 89  1  0
 80 83  1  0
 81 85  1  0
 81 80  1  0
 82 81  2  0
 85 84  1  0
 87 85  1  0
 87 88  1  0
 87 86  1  0
 89 92  1  1
 89 90  1  0
 91 89  1  0
M  ISO  4  14 100  15 100  51 101  52 101
M  END
>  <TORSDO>  (17) 
F 22

>  <SCORE>  (17) 
-12.967

>  <name>  (17) 
16

>  <ligand_id>  (17) 
16

>  <original_smiles>  (17) 
[H]C(=C(C([H])([H])[H])C([H])([H])C([H])([H])C([H])([H])C([H])([H])C(=O)N1C([H])([H])C([H])([H])C([H])([H])C([H])(n2nc(-c3c([H])c([H])c(Oc4c([H])c([H])c(F)c([H])c4F)c([H])c3[H])c(C(=O)N([H])[H])c2N([H])[H])C1([H])[H])C1=C([H])C(=O)C(C([H])([H])[H])(C([H])([H])Oc2c([H])c([H])c3c(c2[H])C([H])([H])N(C(=O)C([H])(N([H])C(=O)C([H])(N([H])C([H])([H])[H])C([H])([H])[H])C(C([H])([H])[H])(C([H])([H])[H])C([H])([H])[H])C([H])(C(=O)N([H])C2([H])c4c([H])c([H])c([H])c([H])c4C([H])([H])C([H])([H])C2([H])[H])C3([H])[H])C1([H])[H]

>  <smiles>  (17) 
[H]C(=C(C([H])([H])[H])C([H])([H])C([H])([H])C([H])([H])C([H])([H])C(=O)N1C([H])([H])C([H])([H])C([H])([H])C([H])(n2nc(-c3c([H])c([H])c(Oc4c([H])c([H])c(F)c([H])c4F)c([H])c3[H])c(C(=O)N([H])[H])c2N([H])[H])C1([H])[H])C1=C([H])C(=O)C(C([H])([H])[H])(C([H])([H])Oc2c([H])c([H])c3c(c2[H])C([H])([H])N(C(=O)C([H])(N([H])C(=O)C([H])(N([H])C([H])([H])[H])C([H])([H])[H])C(C([H])([H])[H])(C([H])([H])[H])C([H])([H])[H])C([H])(C(=O)N([H])C2([H])c4c([H])c([H])c([H])c([H])c4C([H])([H])C([H])([H])C2([H])[H])C3([H])[H])C1([H])[H]

$$$$
17:0:0
     RDKit          3D

 95103  0  0  1  0  0  0  0  0999 V2000
  -27.8520  -21.3300   21.5410 C   0  0  0  0  0  3  0  0  0  0  0  0
  -26.9880  -22.4350   21.5300 C   0  0  0  0  0  3  0  0  0  0  0  0
  -28.8410  -22.1080   19.4540 C   0  0  0  0  0  3  0  0  0  0  0  0
  -28.7950  -21.1680   20.5140 C   0  0  0  0  0  0  0  0  0  0  0  0
  -27.0550  -23.3990   20.5020 C   0  0  0  0  0  0  0  0  0  0  0  0
  -27.9820  -23.2420   19.4340 C   0  0  0  0  0  0  0  0  0  0  0  0
  -26.1240  -24.5950   20.6120 C   0  0  0  0  0  1  0  0  0  0  0  0
  -29.8020  -20.0300   20.6360 C   0  0  0  0  0  2  0  0  0  0  0  0
  -29.4730  -18.7750   19.8020 C   0  0  0  0  0  2  0  0  0  0  0  0
  -30.2070  -18.6820   18.4560 C   0  0  0  0  0  2  0  0  0  0  0  0
  -31.7450  -18.8540   18.4790 C   0  0  0  0  0  2  0  0  0  0  0  0
  -32.6870  -18.9990   20.8990 C   0  0  0  0  0  1  0  0  0  0  0  0
  -32.5470  -18.1730   19.6150 C   0  0  0  0  0  3  0  0  0  0  0  0
  -32.6190  -15.7010   19.4910 C   0  0  0  0  0  0  0  0  0  0  0  0
  -32.5260  -13.2400   19.4790 C   0  0  0  0  0  2  0  0  0  0  0  0
  -31.6380  -12.7330   18.3300 C   0  0  0  0  0  2  0  0  0  0  0  0
  -30.1630  -12.6560   18.7730 C   0  0  0  0  0  2  0  0  0  0  0  0
  -29.6760  -13.9600   19.4580 C   0  0  0  0  0  3  0  0  0  0  0  0
  -30.6880  -14.4420   20.5270 C   0  0  0  0  0  2  0  0  0  0  0  0
  -32.0200  -14.5550   19.9000 N   0  0  0  0  0  0  0  0  0  0  0  0
  -33.6350  -15.7250   18.7870 O   0  0  0  0  0  0  0  0  0  0  0  0
  -32.0530  -16.8320   19.9170 N   0  0  0  0  0  0  0  0  0  0  0  0
  -31.2330  -16.7390   20.4950 H   0  0  0  0  0  0  0  0  0  0  0  0
  -27.4070  -14.7730   20.3780 C   0  0  0  0  0  0  0  0  0  0  0  0
  -26.2830  -14.0930   20.7690 C   0  0  0  0  0  0  0  0  0  0  0  0
  -26.5850  -12.7070   20.6070 C   0  0  0  0  0  0  0  0  0  0  0  0
  -28.3310  -13.8050   20.0120 N   0  0  0  0  0  0  0  0  0  0  0  0
  -27.8390  -12.5520   20.2050 N   0  0  0  0  0  0  0  0  0  0  0  0
  -25.7330  -11.5190   20.7550 C   0  0  0  0  0  0  0  0  0  0  0  0
  -25.9640  -10.5700   21.7740 C   0  0  0  0  0  3  0  0  0  0  0  0
  -25.1240   -9.4430   21.9080 C   0  0  0  0  0  3  0  0  0  0  0  0
  -24.0380   -9.2610   21.0190 C   0  0  0  0  0  0  0  0  0  0  0  0
  -23.8270  -10.1960   19.9920 C   0  0  0  0  0  3  0  0  0  0  0  0
  -24.6670  -11.3120   19.8580 C   0  0  0  0  0  3  0  0  0  0  0  0
  -23.1810   -8.1890   21.0560 O   0  0  0  0  0  0  0  0  0  0  0  0
  -22.7000   -7.6950   22.2410 C   0  0  0  0  0  0  0  0  0  0  0  0
  -21.9510   -8.5010   23.1260 C   0  0  0  0  0  3  0  0  0  0  0  0
  -21.4150   -7.9370   24.3010 C   0  0  0  0  0  3  0  0  0  0  0  0
  -21.6120   -6.5720   24.5810 C   0  0  0  0  0  0  0  0  0  0  0  0
  -22.3510   -5.7680   23.6950 C   0  0  0  0  0  3  0  0  0  0  0  0
  -22.8920   -6.3300   22.5260 C   0  0  0  0  0  0  0  0  0  0  0  0
  -23.5900   -5.5490   21.6650 F   0  0  0  0  0  0  0  0  0  0  0  0
  -21.0830   -6.0270   25.7030 F   0  0  0  0  0  0  0  0  0  0  0  0
  -24.9690  -14.6970   21.1770 C   0  0  0  0  0  0  0  0  0  0  0  0
  -24.2240  -14.0220   22.0460 N   0  0  0  0  0  0  0  0  0  0  0  0
  -24.6180  -15.7990   20.7640 O   0  0  0  0  0  0  0  0  0  0  0  0
  -24.5150  -13.1260   22.4060 H   0  0  0  0  0  0  0  0  0  0  0  0
  -23.3490  -14.4130   22.3610 H   0  0  0  0  0  0  0  0  0  0  0  0
  -27.7070  -16.1290   20.2890 N   0  0  0  0  0  0  0  0  0  0  0  0
  -27.0130  -16.8400   20.5000 H   0  0  0  0  0  0  0  0  0  0  0  0
  -28.5640  -16.5110   19.9050 H   0  0  0  0  0  0  0  0  0  0  0  0
  -28.1390  -24.2930   18.3110 C   0  0  0  0  0  3  0  0  0  0  0  0
  -26.8750  -24.5430   17.4390 C   0  0  0  0  0  3  0  0  0  0  0  0
  -27.0290  -25.5920   16.2910 C   0  0  0  0  0  2  0  0  0  0  0  0
  -27.3450  -26.9410   16.6870 O   0  0  0  0  0  0  0  0  0  0  0  0
  -25.7080  -29.3290   23.1650 C   0  0  0  0  0  0  0  0  0  0  0  0
  -26.4340  -27.6770   17.4280 C   0  0  0  0  0  0  0  0  0  0  0  0
  -23.8940  -29.4760   21.4840 C   0  0  0  0  0  3  0  0  0  0  0  0
  -24.5960  -29.0840   19.0640 C   0  0  0  0  0  0  0  0  0  0  0  0
  -26.3520  -29.5990   20.7740 C   0  0  0  0  0  2  0  0  0  0  0  0
  -25.9370  -28.9750   19.4540 C   0  0  0  0  0  0  0  0  0  0  0  0
  -26.8610  -28.2860   18.6320 C   0  0  0  0  0  3  0  0  0  0  0  0
  -25.0810  -27.8270   17.0430 C   0  0  0  0  0  3  0  0  0  0  0  0
  -24.1650  -28.5170   17.8540 C   0  0  0  0  0  3  0  0  0  0  0  0
  -23.6650  -29.8310   19.9900 C   0  0  0  0  0  2  0  0  0  0  0  0
  -25.3480  -29.4380   21.8550 N   0  0  0  0  0  0  0  0  0  0  0  0
  -24.8550  -29.3030   24.0630 O   0  0  0  0  0  0  0  0  0  0  0  0
  -23.1500  -28.1570   21.8000 C   0  0  0  0  0  0  0  0  0  0  0  0
  -21.8130  -28.1770   21.6720 N   0  0  0  0  0  0  0  0  0  0  0  0
  -23.7720  -27.1420   22.1190 O   0  0  0  0  0  0  0  0  0  0  0  0
  -21.3740  -29.0540   21.4320 H   0  0  0  0  0  0  0  0  0  0  0  0
  -18.3980  -27.0640   21.2730 C   0  0  0  0  0  0  0  0  0  0  0  0
  -20.9130  -27.0430   21.8720 C   0  0  0  0  0  3  0  0  0  0  0  0
  -21.0650  -25.9970   20.7440 C   0  0  0  0  0  2  0  0  0  0  0  0
  -20.0790  -26.2040   19.5880 C   0  0  0  0  0  2  0  0  0  0  0  0
  -18.6380  -26.1300   20.0970 C   0  0  0  0  0  2  0  0  0  0  0  0
  -19.4670  -27.5030   22.0970 C   0  0  0  0  0  0  0  0  0  0  0  0
  -19.1940  -28.3990   23.1550 C   0  0  0  0  0  3  0  0  0  0  0  0
  -17.8830  -28.8530   23.3930 C   0  0  0  0  0  3  0  0  0  0  0  0
  -16.8270  -28.4010   22.5850 C   0  0  0  0  0  3  0  0  0  0  0  0
  -17.0830  -27.5050   21.5310 C   0  0  0  0  0  3  0  0  0  0  0  0
  -27.2050  -29.2560   23.6020 C   0  0  0  0  0  3  0  0  0  0  0  0
  -27.3750  -30.1540   24.7520 N   0  0  0  0  0  0  0  0  0  0  0  0
  -27.9930  -31.3400   24.7040 C   0  0  0  0  0  0  0  0  0  0  0  0
  -28.5450  -31.7680   23.6860 O   0  0  0  0  0  0  0  0  0  0  0  0
  -26.8950  -29.8960   25.6030 H   0  0  0  0  0  0  0  0  0  0  0  0
  -26.9640  -33.3200   25.8630 C   0  0  0  0  0  1  0  0  0  0  0  0
  -27.9970  -32.1900   25.9890 C   0  0  0  0  0  3  0  0  0  0  0  0
  -30.3030  -31.7520   26.7110 C   0  0  0  0  0  1  0  0  0  0  0  0
  -29.3230  -32.7590   26.3140 N   0  0  0  0  0  0  0  0  0  0  0  0
  -29.2460  -33.4410   27.0640 H   0  0  0  0  0  0  0  0  0  0  0  0
  -27.6820  -27.7940   23.9570 C   0  0  1  0  0  0  0  0  0  0  0  0
  -26.7610  -27.0630   24.9610 C   0  0  0  0  0  1  0  0  0  0  0  0
  -27.7730  -26.9240   22.6810 C   0  0  0  0  0  1  0  0  0  0  0  0
  -29.1020  -27.8380   24.5690 C   0  0  0  0  0  1  0  0  0  0  0  0
  2  1  1  0
  3  4  1  0
  4  8  1  0
  4  1  2  0
  5  7  1  0
  5  2  2  0
  6  3  2  0
  6  5  1  0
  9  8  1  0
 10 11  1  0
 10  9  1  0
 11 13  1  0
 13 22  1  0
 13 12  1  0
 14 20  1  0
 14 22  1  0
 15 20  1  0
 16 17  1  0
 16 15  1  0
 18 17  1  0
 18 27  1  0
 18 19  1  0
 20 19  1  0
 21 14  2  0
 22 23  1  0
 24 25  2  0
 25 44  1  0
 26 29  1  0
 26 25  1  0
 27 28  1  0
 27 24  1  0
 28 26  2  0
 29 30  1  0
 30 31  2  0
 32 35  1  0
 32 31  1  0
 33 32  2  0
 34 33  1  0
 34 29  2  0
 35 36  1  0
 36 41  2  0
 36 37  1  0
 37 38  2  0
 38 39  1  0
 39 43  1  0
 40 39  2  0
 41 40  1  0
 42 41  1  0
 44 45  1  0
 45 48  1  0
 45 47  1  0
 46 44  2  0
 49 24  1  0
 49 50  1  0
 51 49  1  0
 52  6  1  0
 53 52  2  0
 54 55  1  0
 54 53  1  0
 55 57  1  0
 56 67  2  0
 57 62  1  0
 58 68  1  0
 58 66  1  0
 59 61  1  0
 59 65  1  0
 60 66  1  0
 61 60  1  0
 62 61  2  0
 63 57  2  0
 63 64  1  0
 64 59  2  0
 65 58  1  0
 66 56  1  0
 68 70  2  0
 69 68  1  0
 71 69  1  0
 72 81  2  0
 72 77  1  0
 73 69  1  0
 73 77  1  0
 74 73  1  0
 75 76  1  0
 75 74  1  0
 76 72  1  0
 77 78  2  0
 78 79  1  0
 80 79  2  0
 81 80  1  0
 82 56  1  0
 82 92  1  0
 82 83  1  0
 83 86  1  0
 84 83  1  0
 84 88  1  0
 85 84  2  0
 88 87  1  0
 88 90  1  0
 90 89  1  0
 90 91  1  0
 92 95  1  1
 92 93  1  0
 94 92  1  0
M  ISO  4  14 100  22 100  54 101  55 101
M  END
>  <TORSDO>  (18) 
F 24

>  <SCORE>  (18) 
-7.287

>  <name>  (18) 
17

>  <ligand_id>  (18) 
17

>  <original_smiles>  (18) 
[H]c1c([H])c([H])c2c(c1[H])C([H])([H])C([H])([H])C([H])([H])C2([H])N([H])C(=O)C1([H])N(C(=O)C([H])(N([H])C(=O)C([H])(N([H])C([H])([H])[H])C([H])([H])[H])C(C([H])([H])[H])(C([H])([H])[H])C([H])([H])[H])C([H])([H])c2c([H])c(OC([H])([H])C([H])([H])C([H])([H])c3c([H])c(C([H])([H])C([H])([H])C([H])([H])C([H])([H])C([H])(N([H])C(=O)N4C([H])([H])C([H])([H])C([H])([H])C([H])(n5nc(-c6c([H])c([H])c(Oc7c([H])c([H])c(F)c([H])c7F)c([H])c6[H])c(C(=O)N([H])[H])c5N([H])[H])C4([H])[H])C([H])([H])[H])c([H])c([H])c3C([H])([H])[H])c([H])c([H])c2C1([H])[H]

>  <smiles>  (18) 
[H]c1c([H])c([H])c2c(c1[H])C([H])([H])C([H])([H])C([H])([H])C2([H])N([H])C(=O)C1([H])N(C(=O)C([H])(N([H])C(=O)C([H])(N([H])C([H])([H])[H])C([H])([H])[H])C(C([H])([H])[H])(C([H])([H])[H])C([H])([H])[H])C([H])([H])c2c([H])c(OC([H])([H])C([H])([H])C([H])([H])c3c([H])c(C([H])([H])C([H])([H])C([H])([H])C([H])([H])C([H])(N([H])C(=O)N4C([H])([H])C([H])([H])C([H])([H])C([H])(n5nc(-c6c([H])c([H])c(Oc7c([H])c([H])c(F)c([H])c7F)c([H])c6[H])c(C(=O)N([H])[H])c5N([H])[H])C4([H])[H])C([H])([H])[H])c([H])c([H])c3C([H])([H])[H])c([H])c([H])c2C1([H])[H]

$$$$
18:0:0
     RDKit          3D

 95103  0  0  1  0  0  0  0  0999 V2000
  -31.1900  -23.6920   23.3010 C   0  0  0  0  0  3  0  0  0  0  0  0
  -31.2020  -25.0940   23.1670 C   0  0  0  0  0  3  0  0  0  0  0  0
  -29.9580  -23.5060   21.2170 C   0  0  0  0  0  3  0  0  0  0  0  0
  -29.9280  -24.9120   21.0980 C   0  0  0  0  0  0  0  0  0  0  0  0
  -30.5670  -22.8870   22.3260 C   0  0  0  0  0  0  0  0  0  0  0  0
  -30.5660  -25.7260   22.0690 C   0  0  0  0  0  0  0  0  0  0  0  0
  -29.2410  -25.4910   19.9180 C   0  0  0  0  0  0  0  0  0  0  0  0
  -29.2700  -24.9640   18.8000 O   0  0  0  0  0  0  0  0  0  0  0  0
  -28.3640  -26.7230   20.1600 C   0  0  0  0  0  2  0  0  0  0  0  0
  -27.1330  -26.5060   19.4830 O   0  0  0  0  0  0  0  0  0  0  0  0
  -24.0970  -31.8740   23.1260 C   0  0  0  0  0  0  0  0  0  0  0  0
  -26.0860  -27.3640   19.7060 C   0  0  0  0  0  0  0  0  0  0  0  0
  -22.6300  -30.6150   21.5820 C   0  0  0  0  0  3  0  0  0  0  0  0
  -23.8170  -29.0170   19.9930 C   0  0  0  0  0  0  0  0  0  0  0  0
  -25.1420  -30.7970   21.1450 C   0  0  0  0  0  2  0  0  0  0  0  0
  -25.0610  -29.4410   20.4790 C   0  0  0  0  0  0  0  0  0  0  0  0
  -26.2010  -28.6190   20.3460 C   0  0  0  0  0  3  0  0  0  0  0  0
  -24.8290  -26.9470   19.2300 C   0  0  0  0  0  3  0  0  0  0  0  0
  -23.6920  -27.7630   19.3720 C   0  0  0  0  0  3  0  0  0  0  0  0
  -22.6520  -29.9620   20.1740 C   0  0  0  0  0  2  0  0  0  0  0  0
  -23.9800  -31.1070   22.0080 N   0  0  0  0  0  0  0  0  0  0  0  0
  -23.0990  -32.2140   23.7760 O   0  0  0  0  0  0  0  0  0  0  0  0
  -22.0000  -29.6170   22.5790 C   0  0  0  0  0  0  0  0  0  0  0  0
  -20.6710  -29.4470   22.4940 N   0  0  0  0  0  0  0  0  0  0  0  0
  -22.7030  -28.9990   23.3830 O   0  0  0  0  0  0  0  0  0  0  0  0
  -20.1660  -29.9980   21.8140 H   0  0  0  0  0  0  0  0  0  0  0  0
  -17.3200  -28.2030   23.0030 C   0  0  0  0  0  0  0  0  0  0  0  0
  -19.8650  -28.5350   23.3050 C   0  0  0  0  0  3  0  0  0  0  0  0
  -20.0120  -27.0760   22.8110 C   0  0  0  0  0  2  0  0  0  0  0  0
  -18.9360  -26.6710   21.8010 C   0  0  0  0  0  2  0  0  0  0  0  0
  -17.5390  -26.8200   22.4110 C   0  0  0  0  0  2  0  0  0  0  0  0
  -18.4130  -29.0130   23.4080 C   0  0  0  0  0  0  0  0  0  0  0  0
  -18.1570  -30.3040   23.9190 C   0  0  0  0  0  3  0  0  0  0  0  0
  -16.8400  -30.7850   24.0330 C   0  0  0  0  0  3  0  0  0  0  0  0
  -15.7590  -29.9710   23.6480 C   0  0  0  0  0  3  0  0  0  0  0  0
  -16.0000  -28.6830   23.1370 C   0  0  0  0  0  3  0  0  0  0  0  0
  -25.4860  -32.3840   23.6250 C   0  0  0  0  0  3  0  0  0  0  0  0
  -26.0720  -31.5270   24.8120 C   0  0  1  0  0  0  0  0  0  0  0  0
  -25.0670  -31.3070   25.9680 C   0  0  0  0  0  1  0  0  0  0  0  0
  -26.5310  -30.1380   24.3060 C   0  0  0  0  0  1  0  0  0  0  0  0
  -27.3250  -32.2230   25.3920 C   0  0  0  0  0  1  0  0  0  0  0  0
  -25.3240  -33.7870   24.0250 N   0  0  0  0  0  0  0  0  0  0  0  0
  -25.7290  -34.8370   23.2970 C   0  0  0  0  0  0  0  0  0  0  0  0
  -26.3530  -34.7170   22.2390 O   0  0  0  0  0  0  0  0  0  0  0  0
  -24.7730  -33.9610   24.8520 H   0  0  0  0  0  0  0  0  0  0  0  0
  -24.1830  -36.8010   23.0560 C   0  0  0  0  0  1  0  0  0  0  0  0
  -25.3890  -36.2410   23.8280 C   0  0  0  0  0  3  0  0  0  0  0  0
  -27.6100  -36.8660   24.6630 C   0  0  0  0  0  1  0  0  0  0  0  0
  -26.5200  -37.1910   23.7470 N   0  0  0  0  0  0  0  0  0  0  0  0
  -26.2100  -38.1380   23.9480 H   0  0  0  0  0  0  0  0  0  0  0  0
  -31.1550  -27.9260   22.8670 C   0  0  0  0  0  1  0  0  0  0  0  0
  -30.5480  -27.0950   21.8860 O   0  0  0  0  0  0  0  0  0  0  0  0
  -30.4730  -21.3750   22.4830 C   0  0  0  0  0  2  0  0  0  0  0  0
  -31.8160  -20.6600   22.7150 C   0  0  0  0  0  2  0  0  0  0  0  0
  -31.6690  -19.1270   22.7020 C   0  0  0  0  0  2  0  0  0  0  0  0
  -31.6540  -18.5180   21.2900 C   0  0  0  0  0  2  0  0  0  0  0  0
  -31.4180  -16.9960   21.2950 C   0  0  0  0  0  2  0  0  0  0  0  0
  -29.9310  -16.6300   21.0990 C   0  0  0  0  0  2  0  0  0  0  0  0
  -29.5250  -15.1820   21.4660 C   0  0  0  0  0  2  0  0  0  0  0  0
  -30.1270  -14.0760   20.5760 C   0  0  0  0  0  0  0  0  0  0  0  0
  -29.9780  -11.8230   19.5760 C   0  0  0  0  0  2  0  0  0  0  0  0
  -29.0160  -11.8330   18.3760 C   0  0  0  0  0  2  0  0  0  0  0  0
  -27.5600  -11.6140   18.8360 C   0  0  0  0  0  2  0  0  0  0  0  0
  -27.1610  -12.5400   20.0160 C   0  0  0  0  0  3  0  0  0  0  0  0
  -28.2380  -12.5010   21.1270 C   0  0  0  0  0  2  0  0  0  0  0  0
  -29.5320  -12.8570   20.5210 N   0  0  0  0  0  0  0  0  0  0  0  0
  -31.1360  -14.3390   19.9140 O   0  0  0  0  0  0  0  0  0  0  0  0
  -24.7470  -13.0290   20.7730 C   0  0  0  0  0  0  0  0  0  0  0  0
  -23.7280  -12.2040   21.1640 C   0  0  0  0  0  0  0  0  0  0  0  0
  -24.2530  -10.8760   21.1190 C   0  0  0  0  0  0  0  0  0  0  0  0
  -25.8320  -12.2010   20.5240 N   0  0  0  0  0  0  0  0  0  0  0  0
  -25.5360  -10.9010   20.7820 N   0  0  0  0  0  0  0  0  0  0  0  0
  -23.5950   -9.5780   21.3250 C   0  0  0  0  0  0  0  0  0  0  0  0
  -24.0400   -8.6730   22.3140 C   0  0  0  0  0  3  0  0  0  0  0  0
  -23.3800   -7.4400   22.5040 C   0  0  0  0  0  3  0  0  0  0  0  0
  -22.2610   -7.1030   21.7070 C   0  0  0  0  0  0  0  0  0  0  0  0
  -21.8330   -7.9990   20.7120 C   0  0  0  0  0  3  0  0  0  0  0  0
  -22.4950   -9.2240   20.5190 C   0  0  0  0  0  3  0  0  0  0  0  0
  -21.5750   -5.9160   21.8050 O   0  0  0  0  0  0  0  0  0  0  0  0
  -21.4630   -5.2450   22.9960 C   0  0  0  0  0  0  0  0  0  0  0  0
  -20.8810   -5.8400   24.1360 C   0  0  0  0  0  3  0  0  0  0  0  0
  -20.7270   -5.0920   25.3200 C   0  0  0  0  0  3  0  0  0  0  0  0
  -21.1440   -3.7480   25.3630 C   0  0  0  0  0  0  0  0  0  0  0  0
  -21.7180   -3.1520   24.2270 C   0  0  0  0  0  3  0  0  0  0  0  0
  -21.8760   -3.8980   23.0460 C   0  0  0  0  0  0  0  0  0  0  0  0
  -22.4120   -3.3120   21.9480 F   0  0  0  0  0  0  0  0  0  0  0  0
  -20.9880   -3.0260   26.4980 F   0  0  0  0  0  0  0  0  0  0  0  0
  -22.3140  -12.6100   21.4740 C   0  0  0  0  0  0  0  0  0  0  0  0
  -21.6490  -11.8800   22.3610 N   0  0  0  0  0  0  0  0  0  0  0  0
  -21.8090  -13.6100   20.9650 O   0  0  0  0  0  0  0  0  0  0  0  0
  -22.0680  -11.0700   22.7930 H   0  0  0  0  0  0  0  0  0  0  0  0
  -20.7030  -12.1320   22.6110 H   0  0  0  0  0  0  0  0  0  0  0  0
  -24.8420  -14.4050   20.5890 N   0  0  0  0  0  0  0  0  0  0  0  0
  -24.0560  -15.0310   20.7280 H   0  0  0  0  0  0  0  0  0  0  0  0
  -25.6680  -14.8780   20.2430 H   0  0  0  0  0  0  0  0  0  0  0  0
  2  1  1  0
  3  5  1  0
  4  3  2  0
  4  6  1  0
  5 53  1  0
  5  1  2  0
  6  2  2  0
  7  9  1  0
  7  4  1  0
  8  7  2  0
 10 12  1  0
 10  9  1  0
 11 22  2  0
 12 17  1  0
 13 21  1  0
 13 23  1  0
 14 20  1  0
 14 16  1  0
 15 21  1  0
 16 15  1  0
 17 16  2  0
 18 19  1  0
 18 12  2  0
 19 14  2  0
 20 13  1  0
 21 11  1  0
 23 25  2  0
 24 23  1  0
 26 24  1  0
 27 36  2  0
 27 32  1  0
 28 24  1  0
 28 32  1  0
 29 28  1  0
 30 31  1  0
 30 29  1  0
 31 27  1  0
 32 33  2  0
 33 34  1  0
 35 34  2  0
 36 35  1  0
 37 11  1  0
 37 42  1  0
 37 38  1  0
 38 41  1  1
 38 39  1  0
 40 38  1  0
 42 45  1  0
 43 47  1  0
 43 42  1  0
 44 43  2  0
 47 46  1  0
 49 47  1  0
 49 50  1  0
 49 48  1  0
 52  6  1  0
 52 51  1  0
 53 54  1  0
 55 54  1  0
 56 57  1  0
 56 55  1  0
 58 57  1  0
 58 59  1  0
 60 59  1  0
 61 66  1  0
 62 63  1  0
 62 61  1  0
 64 63  1  0
 64 71  1  0
 64 65  1  0
 66 60  1  0
 66 65  1  0
 67 60  2  0
 68 69  2  0
 69 88  1  0
 70 69  1  0
 70 73  1  0
 71 68  1  0
 71 72  1  0
 72 70  2  0
 73 74  1  0
 74 75  2  0
 76 79  1  0
 76 75  1  0
 77 76  2  0
 78 77  1  0
 78 73  2  0
 79 80  1  0
 80 85  2  0
 80 81  1  0
 81 82  2  0
 82 83  1  0
 83 87  1  0
 84 83  2  0
 85 84  1  0
 86 85  1  0
 88 89  1  0
 89 92  1  0
 89 91  1  0
 90 88  2  0
 93 94  1  0
 93 68  1  0
 95 93  1  0
M  ISO  4   9 101  10 101  59 100  60 100
M  END
>  <TORSDO>  (19) 
F 26

>  <SCORE>  (19) 
-4.871

>  <name>  (19) 
18

>  <ligand_id>  (19) 
18

>  <original_smiles>  (19) 
[H]c1c([H])c([H])c2c(c1[H])C([H])([H])C([H])([H])C([H])([H])C2([H])N([H])C(=O)C1([H])N(C(=O)C([H])(N([H])C(=O)C([H])(N([H])C([H])([H])[H])C([H])([H])[H])C(C([H])([H])[H])(C([H])([H])[H])C([H])([H])[H])C([H])([H])c2c([H])c(OC([H])([H])C(=O)c3c([H])c(C([H])([H])C([H])([H])C([H])([H])C([H])([H])C([H])([H])C([H])([H])C([H])([H])C(=O)N4C([H])([H])C([H])([H])C([H])([H])C([H])(n5nc(-c6c([H])c([H])c(Oc7c([H])c([H])c(F)c([H])c7F)c([H])c6[H])c(C(=O)N([H])[H])c5N([H])[H])C4([H])[H])c([H])c([H])c3OC([H])([H])[H])c([H])c([H])c2C1([H])[H]

>  <smiles>  (19) 
[H]c1c([H])c([H])c2c(c1[H])C([H])([H])C([H])([H])C([H])([H])C2([H])N([H])C(=O)C1([H])N(C(=O)C([H])(N([H])C(=O)C([H])(N([H])C([H])([H])[H])C([H])([H])[H])C(C([H])([H])[H])(C([H])([H])[H])C([H])([H])[H])C([H])([H])c2c([H])c(OC([H])([H])C(=O)c3c([H])c(C([H])([H])C([H])([H])C([H])([H])C([H])([H])C([H])([H])C([H])([H])C([H])([H])C(=O)N4C([H])([H])C([H])([H])C([H])([H])C([H])(n5nc(-c6c([H])c([H])c(Oc7c([H])c([H])c(F)c([H])c7F)c([H])c6[H])c(C(=O)N([H])[H])c5N([H])[H])C4([H])[H])c([H])c([H])c3OC([H])([H])[H])c([H])c([H])c2C1([H])[H]

$$$$
19:0:0
     RDKit          3D

 95104  0  0  1  0  0  0  0  0999 V2000
  -29.6140  -20.0630   22.0830 C   0  0  0  0  0  3  0  0  0  0  0  0
  -29.9890  -18.7070   21.8950 C   0  0  0  0  0  3  0  0  0  0  0  0
  -30.0920  -20.5580   19.7350 C   0  0  0  0  0  3  0  0  0  0  0  0
  -29.7060  -21.0040   21.0200 C   0  0  0  0  0  0  0  0  0  0  0  0
  -30.4310  -18.3100   20.6180 C   0  0  0  0  0  0  0  0  0  0  0  0
  -30.4480  -19.2150   19.5660 C   0  0  0  0  0  0  0  0  0  0  0  0
  -30.8930  -18.5860   18.2810 C   0  0  0  0  0  2  0  0  0  0  0  0
  -31.0080  -16.9850   20.1700 C   0  0  0  0  0  3  0  0  0  0  0  0
  -30.9620  -17.0690   18.5990 C   0  0  2  0  0  0  0  0  0  0  0  0
  -32.2040  -16.4370   17.9430 C   0  0  0  0  0  1  0  0  0  0  0  0
  -29.6900  -16.4180   18.0210 C   0  0  0  0  0  1  0  0  0  0  0  0
  -31.1850  -14.6000   20.7300 C   0  0  0  0  0  0  0  0  0  0  0  0
  -30.8550  -12.4280   19.6530 C   0  0  0  0  0  2  0  0  0  0  0  0
  -30.0000  -12.6410   18.3890 C   0  0  0  0  0  2  0  0  0  0  0  0
  -28.4970  -12.6030   18.7340 C   0  0  0  0  0  2  0  0  0  0  0  0
  -28.1130  -13.4430   19.9850 C   0  0  0  0  0  3  0  0  0  0  0  0
  -29.1080  -13.2300   21.1470 C   0  0  0  0  0  2  0  0  0  0  0  0
  -30.4630  -13.4560   20.6260 N   0  0  0  0  0  0  0  0  0  0  0  0
  -32.3950  -14.6370   20.5000 O   0  0  0  0  0  0  0  0  0  0  0  0
  -30.4700  -15.7410   20.7530 N   0  0  0  0  0  0  0  0  0  0  0  0
  -29.4750  -15.6820   20.8990 H   0  0  0  0  0  0  0  0  0  0  0  0
  -25.6930  -14.1020   20.5500 C   0  0  0  0  0  0  0  0  0  0  0  0
  -24.5930  -13.3540   20.8690 C   0  0  0  0  0  0  0  0  0  0  0  0
  -25.0330  -11.9940   20.8890 C   0  0  0  0  0  0  0  0  0  0  0  0
  -26.7350  -13.1990   20.3950 N   0  0  0  0  0  0  0  0  0  0  0  0
  -26.3380  -11.9290   20.6590 N   0  0  0  0  0  0  0  0  0  0  0  0
  -24.2760  -10.7470   21.0560 C   0  0  0  0  0  0  0  0  0  0  0  0
  -24.6300   -9.7960   22.0380 C   0  0  0  0  0  3  0  0  0  0  0  0
  -23.8750   -8.6130   22.1920 C   0  0  0  0  0  3  0  0  0  0  0  0
  -22.7550   -8.3730   21.3620 C   0  0  0  0  0  0  0  0  0  0  0  0
  -22.4210   -9.3140   20.3710 C   0  0  0  0  0  3  0  0  0  0  0  0
  -23.1750  -10.4880   20.2160 C   0  0  0  0  0  3  0  0  0  0  0  0
  -21.9780   -7.2410   21.4230 O   0  0  0  0  0  0  0  0  0  0  0  0
  -21.8230   -6.5370   22.5900 C   0  0  0  0  0  0  0  0  0  0  0  0
  -21.2940   -7.1340   23.7550 C   0  0  0  0  0  3  0  0  0  0  0  0
  -21.0870   -6.3550   24.9130 C   0  0  0  0  0  3  0  0  0  0  0  0
  -21.3990   -4.9830   24.9030 C   0  0  0  0  0  0  0  0  0  0  0  0
  -21.9210   -4.3870   23.7420 C   0  0  0  0  0  3  0  0  0  0  0  0
  -22.1300   -5.1610   22.5870 C   0  0  0  0  0  0  0  0  0  0  0  0
  -22.6130   -4.5780   21.4650 F   0  0  0  0  0  0  0  0  0  0  0  0
  -21.1930   -4.2330   26.0110 F   0  0  0  0  0  0  0  0  0  0  0  0
  -23.1910  -13.8580   21.0510 C   0  0  0  0  0  0  0  0  0  0  0  0
  -22.4080  -13.1950   21.8930 N   0  0  0  0  0  0  0  0  0  0  0  0
  -22.7980  -14.8750   20.4810 O   0  0  0  0  0  0  0  0  0  0  0  0
  -22.7370  -12.3730   22.3770 H   0  0  0  0  0  0  0  0  0  0  0  0
  -21.4650  -13.5170   22.0590 H   0  0  0  0  0  0  0  0  0  0  0  0
  -25.8890  -15.4670   20.3580 N   0  0  0  0  0  0  0  0  0  0  0  0
  -25.1240  -16.1320   20.4120 H   0  0  0  0  0  0  0  0  0  0  0  0
  -26.7590  -15.8910   20.0620 H   0  0  0  0  0  0  0  0  0  0  0  0
  -29.3990  -22.4480   21.2360 C   0  0  0  0  0  0  0  0  0  0  0  0
  -28.6120  -22.8580   22.0940 O   0  0  0  0  0  0  0  0  0  0  0  0
  -30.2060  -23.4330   20.3710 C   0  0  0  0  0  2  0  0  0  0  0  0
  -29.9590  -24.9350   20.6110 C   0  0  0  0  0  2  0  0  0  0  0  0
  -28.6410  -25.4430   20.0130 C   0  0  0  0  0  2  0  0  0  0  0  0
  -28.6500  -26.8650   20.0860 O   0  0  0  0  0  0  0  0  0  0  0  0
  -24.6000  -31.7880   23.1570 C   0  0  0  0  0  0  0  0  0  0  0  0
  -27.4380  -27.5120   20.0470 C   0  0  0  0  0  0  0  0  0  0  0  0
  -23.4650  -30.3800   21.4680 C   0  0  0  0  0  3  0  0  0  0  0  0
  -24.9900  -28.9190   20.0390 C   0  0  0  0  0  0  0  0  0  0  0  0
  -25.9780  -30.8320   21.3150 C   0  0  0  0  0  2  0  0  0  0  0  0
  -26.1170  -29.4800   20.6520 C   0  0  0  0  0  0  0  0  0  0  0  0
  -27.3450  -28.7840   20.6480 C   0  0  0  0  0  3  0  0  0  0  0  0
  -26.2920  -26.9570   19.4310 C   0  0  0  0  0  3  0  0  0  0  0  0
  -25.0700  -27.6560   19.4270 C   0  0  0  0  0  3  0  0  0  0  0  0
  -23.7170  -29.7320   20.0800 C   0  0  0  0  0  2  0  0  0  0  0  0
  -24.6970  -31.0140   22.0390 N   0  0  0  0  0  0  0  0  0  0  0  0
  -23.5020  -32.0140   23.6850 O   0  0  0  0  0  0  0  0  0  0  0  0
  -22.8350  -29.3190   22.3970 C   0  0  0  0  0  0  0  0  0  0  0  0
  -21.5170  -29.1050   22.2510 N   0  0  0  0  0  0  0  0  0  0  0  0
  -23.5270  -28.6920   23.2040 O   0  0  0  0  0  0  0  0  0  0  0  0
  -21.0190  -29.6640   21.5720 H   0  0  0  0  0  0  0  0  0  0  0  0
  -18.1660  -27.8330   22.6950 C   0  0  0  0  0  0  0  0  0  0  0  0
  -20.7160  -28.1300   22.9890 C   0  0  0  0  0  3  0  0  0  0  0  0
  -20.8490  -26.7190   22.3710 C   0  0  0  0  0  2  0  0  0  0  0  0
  -19.7580  -26.4050   21.3430 C   0  0  0  0  0  2  0  0  0  0  0  0
  -18.3700  -26.5060   21.9830 C   0  0  0  0  0  2  0  0  0  0  0  0
  -19.2680  -28.6030   23.1530 C   0  0  0  0  0  0  0  0  0  0  0  0
  -19.0230  -29.8450   23.7770 C   0  0  0  0  0  3  0  0  0  0  0  0
  -17.7080  -30.3180   23.9510 C   0  0  0  0  0  3  0  0  0  0  0  0
  -16.6200  -29.5440   23.5110 C   0  0  0  0  0  3  0  0  0  0  0  0
  -16.8500  -28.3040   22.8890 C   0  0  0  0  0  3  0  0  0  0  0  0
  -25.8560  -32.4470   23.8090 C   0  0  0  0  0  3  0  0  0  0  0  0
  -26.3730  -31.6740   25.0840 C   0  0  1  0  0  0  0  0  0  0  0  0
  -25.2680  -31.3870   26.1280 C   0  0  0  0  0  1  0  0  0  0  0  0
  -27.0070  -30.3230   24.6830 C   0  0  0  0  0  1  0  0  0  0  0  0
  -27.4860  -32.4950   25.7790 C   0  0  0  0  0  1  0  0  0  0  0  0
  -25.5030  -33.8310   24.1470 N   0  0  0  0  0  0  0  0  0  0  0  0
  -25.8210  -34.9000   23.4040 C   0  0  0  0  0  0  0  0  0  0  0  0
  -26.5140  -34.8250   22.3850 O   0  0  0  0  0  0  0  0  0  0  0  0
  -24.8930  -33.9630   24.9410 H   0  0  0  0  0  0  0  0  0  0  0  0
  -24.0500  -36.6450   23.0280 C   0  0  0  0  0  1  0  0  0  0  0  0
  -25.2850  -36.2700   23.8620 C   0  0  0  0  0  3  0  0  0  0  0  0
  -27.3720  -37.2060   24.7530 C   0  0  0  0  0  1  0  0  0  0  0  0
  -26.2910  -37.3510   23.7820 N   0  0  0  0  0  0  0  0  0  0  0  0
  -25.8550  -38.2580   23.9260 H   0  0  0  0  0  0  0  0  0  0  0  0
  2  1  1  0
  3  4  1  0
  4 50  1  0
  4  1  2  0
  5  2  2  0
  6  3  2  0
  6  5  1  0
  7  9  1  0
  7  6  1  0
  8  5  1  0
  8 20  1  0
  9  8  1  0
  9 10  1  6
 11  9  1  0
 12 20  1  0
 13 18  1  0
 14 15  1  0
 14 13  1  0
 16 15  1  0
 16 25  1  0
 16 17  1  0
 18 12  1  0
 18 17  1  0
 19 12  2  0
 20 21  1  0
 22 23  2  0
 23 24  1  0
 23 42  1  0
 24 27  1  0
 25 22  1  0
 25 26  1  0
 26 24  2  0
 27 28  1  0
 28 29  2  0
 30 33  1  0
 30 29  1  0
 31 30  2  0
 32 31  1  0
 32 27  2  0
 33 34  1  0
 34 35  1  0
 35 36  2  0
 37 36  1  0
 37 41  1  0
 38 37  2  0
 39 34  2  0
 39 38  1  0
 40 39  1  0
 42 43  1  0
 43 46  1  0
 43 45  1  0
 44 42  2  0
 47 48  1  0
 47 22  1  0
 49 47  1  0
 50 51  2  0
 52 53  1  0
 52 50  1  0
 54 55  1  0
 54 53  1  0
 56 67  2  0
 57 55  1  0
 57 62  1  0
 58 66  1  0
 58 68  1  0
 59 65  1  0
 59 61  1  0
 60 66  1  0
 61 60  1  0
 62 61  2  0
 63 57  2  0
 64 63  1  0
 64 59  2  0
 65 58  1  0
 66 56  1  0
 68 70  2  0
 69 68  1  0
 71 69  1  0
 72 81  2  0
 72 77  1  0
 73 69  1  0
 73 77  1  0
 74 73  1  0
 75 76  1  0
 75 74  1  0
 76 72  1  0
 77 78  2  0
 78 79  1  0
 80 79  2  0
 81 80  1  0
 82 56  1  0
 82 87  1  0
 82 83  1  0
 83 86  1  1
 83 84  1  0
 85 83  1  0
 87 90  1  0
 88 92  1  0
 88 87  1  0
 89 88  2  0
 92 91  1  0
 94 92  1  0
 94 95  1  0
 94 93  1  0
M  ISO  4  12 100  20 100  54 101  55 101
M  END
>  <TORSDO>  (20) 
F 20

>  <SCORE>  (20) 
-11.939

>  <name>  (20) 
19

>  <ligand_id>  (20) 
19

>  <original_smiles>  (20) 
[H]c1c([H])c([H])c2c(c1[H])C([H])([H])C([H])([H])C([H])([H])C2([H])N([H])C(=O)C1([H])N(C(=O)C([H])(N([H])C(=O)C([H])(N([H])C([H])([H])[H])C([H])([H])[H])C(C([H])([H])[H])(C([H])([H])[H])C([H])([H])[H])C([H])([H])c2c([H])c(OC([H])([H])C([H])([H])C([H])([H])C(=O)c3c([H])c([H])c4c(c3[H])C([H])([H])C(C([H])([H])[H])(C([H])([H])[H])C4([H])N([H])C(=O)N3C([H])([H])C([H])([H])C([H])([H])C([H])(n4nc(-c5c([H])c([H])c(Oc6c([H])c([H])c(F)c([H])c6F)c([H])c5[H])c(C(=O)N([H])[H])c4N([H])[H])C3([H])[H])c([H])c([H])c2C1([H])[H]

>  <smiles>  (20) 
[H]c1c([H])c([H])c2c(c1[H])C([H])([H])C([H])([H])C([H])([H])C2([H])N([H])C(=O)C1([H])N(C(=O)C([H])(N([H])C(=O)C([H])(N([H])C([H])([H])[H])C([H])([H])[H])C(C([H])([H])[H])(C([H])([H])[H])C([H])([H])[H])C([H])([H])c2c([H])c(OC([H])([H])C([H])([H])C([H])([H])C(=O)c3c([H])c([H])c4c(c3[H])C([H])([H])C(C([H])([H])[H])(C([H])([H])[H])C4([H])N([H])C(=O)N3C([H])([H])C([H])([H])C([H])([H])C([H])(n4nc(-c5c([H])c([H])c(Oc6c([H])c([H])c(F)c([H])c6F)c([H])c5[H])c(C(=O)N([H])[H])c4N([H])[H])C3([H])[H])c([H])c([H])c2C1([H])[H]

$$$$
20:0:0
     RDKit          3D

 95104  0  0  1  0  0  0  0  0999 V2000
  -31.0720  -20.0680   19.4020 C   0  0  0  0  0  0  0  0  0  0  0  0
  -31.5730  -20.8520   18.5890 O   0  0  0  0  0  0  0  0  0  0  0  0
  -33.1370  -18.6250   19.5710 C   0  0  0  0  0  3  0  0  0  0  0  0
  -33.8530  -17.4510   19.9370 C   0  0  0  0  0  3  0  0  0  0  0  0
  -30.9640  -17.7850   20.4780 C   0  0  0  0  0  3  0  0  0  0  0  0
  -31.7320  -18.8050   19.8360 C   0  0  0  0  0  0  0  0  0  0  0  0
  -33.0800  -16.4940   20.5930 C   0  0  0  0  0  0  0  0  0  0  0  0
  -31.6910  -16.6620   20.8590 C   0  0  0  0  0  0  0  0  0  0  0  0
  -33.1080  -15.0840   21.1400 C   0  0  0  0  0  2  0  0  0  0  0  0
  -31.5410  -15.2910   21.4620 C   0  0  0  0  0  3  0  0  0  0  0  0
  -30.5410  -14.0810   19.4660 C   0  0  0  0  0  0  0  0  0  0  0  0
  -29.7150  -12.3360   17.9360 C   0  0  0  0  0  2  0  0  0  0  0  0
  -28.5790  -12.8100   17.0170 C   0  0  0  0  0  2  0  0  0  0  0  0
  -27.2180  -12.6370   17.7140 C   0  0  0  0  0  2  0  0  0  0  0  0
  -27.2010  -13.2670   19.1290 C   0  0  0  0  0  3  0  0  0  0  0  0
  -28.4230  -12.8100   19.9570 C   0  0  0  0  0  2  0  0  0  0  0  0
  -29.6560  -13.0910   19.1940 N   0  0  0  0  0  0  0  0  0  0  0  0
  -31.3160  -14.5430   18.6230 O   0  0  0  0  0  0  0  0  0  0  0  0
  -30.6230  -14.3840   20.7690 N   0  0  0  0  0  0  0  0  0  0  0  0
  -29.9810  -13.8820   21.3630 H   0  0  0  0  0  0  0  0  0  0  0  0
  -24.9470  -13.8490   20.2370 C   0  0  0  0  0  0  0  0  0  0  0  0
  -23.9590  -13.0620   20.7670 C   0  0  0  0  0  0  0  0  0  0  0  0
  -24.4140  -11.7150   20.6340 C   0  0  0  0  0  0  0  0  0  0  0  0
  -25.9440  -12.9800   19.8210 N   0  0  0  0  0  0  0  0  0  0  0  0
  -25.6340  -11.6900   20.1130 N   0  0  0  0  0  0  0  0  0  0  0  0
  -23.7360  -10.4450   20.9200 C   0  0  0  0  0  0  0  0  0  0  0  0
  -24.2560   -9.5240   21.8580 C   0  0  0  0  0  3  0  0  0  0  0  0
  -23.5760   -8.3170   22.1300 C   0  0  0  0  0  3  0  0  0  0  0  0
  -22.3630   -8.0210   21.4630 C   0  0  0  0  0  0  0  0  0  0  0  0
  -21.8610   -8.9300   20.5150 C   0  0  0  0  0  3  0  0  0  0  0  0
  -22.5420  -10.1290   20.2420 C   0  0  0  0  0  3  0  0  0  0  0  0
  -21.6470   -6.8620   21.6440 O   0  0  0  0  0  0  0  0  0  0  0  0
  -21.6450   -6.1970   22.8440 C   0  0  0  0  0  0  0  0  0  0  0  0
  -21.2280   -6.8190   24.0410 C   0  0  0  0  0  3  0  0  0  0  0  0
  -21.1760   -6.0770   25.2380 C   0  0  0  0  0  3  0  0  0  0  0  0
  -21.5320   -4.7160   25.2400 C   0  0  0  0  0  0  0  0  0  0  0  0
  -21.9410   -4.0930   24.0480 C   0  0  0  0  0  3  0  0  0  0  0  0
  -21.9950   -4.8320   22.8530 C   0  0  0  0  0  0  0  0  0  0  0  0
  -22.3710   -4.2220   21.7030 F   0  0  0  0  0  0  0  0  0  0  0  0
  -21.4740   -4.0010   26.3880 F   0  0  0  0  0  0  0  0  0  0  0  0
  -22.6260  -13.5240   21.2800 C   0  0  0  0  0  0  0  0  0  0  0  0
  -22.0850  -12.8400   22.2830 N   0  0  0  0  0  0  0  0  0  0  0  0
  -22.0770  -14.5280   20.8250 O   0  0  0  0  0  0  0  0  0  0  0  0
  -22.5450  -12.0300   22.6700 H   0  0  0  0  0  0  0  0  0  0  0  0
  -21.1980  -13.1320   22.6700 H   0  0  0  0  0  0  0  0  0  0  0  0
  -25.0740  -15.2240   20.0600 N   0  0  0  0  0  0  0  0  0  0  0  0
  -24.3360  -15.8730   20.3090 H   0  0  0  0  0  0  0  0  0  0  0  0
  -25.8680  -15.6740   19.6210 H   0  0  0  0  0  0  0  0  0  0  0  0
  -29.7260  -20.4060   20.0550 C   0  0  0  0  0  2  0  0  0  0  0  0
  -29.4660  -21.9130   20.1950 C   0  0  0  0  0  2  0  0  0  0  0  0
  -28.3950  -22.1980   21.2620 C   0  0  0  0  0  2  0  0  0  0  0  0
  -28.0010  -23.6760   21.3630 C   0  0  0  0  0  2  0  0  0  0  0  0
  -29.1650  -24.6100   21.7490 C   0  0  0  0  0  2  0  0  0  0  0  0
  -28.7520  -26.0840   21.7530 C   0  0  0  0  0  2  0  0  0  0  0  0
  -28.2850  -26.4030   20.4480 O   0  0  0  0  0  0  0  0  0  0  0  0
  -24.4430  -31.7030   23.2350 C   0  0  0  0  0  0  0  0  0  0  0  0
  -27.1340  -27.1410   20.4270 C   0  0  0  0  0  0  0  0  0  0  0  0
  -23.2660  -30.2370   21.6230 C   0  0  0  0  0  3  0  0  0  0  0  0
  -24.7440  -28.6240   20.3130 C   0  0  0  0  0  0  0  0  0  0  0  0
  -25.7930  -30.5750   21.4760 C   0  0  0  0  0  2  0  0  0  0  0  0
  -25.8830  -29.1750   20.9120 C   0  0  0  0  0  0  0  0  0  0  0  0
  -27.0820  -28.4370   20.9790 C   0  0  0  0  0  3  0  0  0  0  0  0
  -25.9870  -26.5920   19.8200 C   0  0  0  0  0  3  0  0  0  0  0  0
  -24.7860  -27.3260   19.7710 C   0  0  0  0  0  3  0  0  0  0  0  0
  -23.5050  -29.4890   20.2830 C   0  0  0  0  0  2  0  0  0  0  0  0
  -24.5170  -30.8550   22.1710 N   0  0  0  0  0  0  0  0  0  0  0  0
  -23.3520  -32.0090   23.7330 O   0  0  0  0  0  0  0  0  0  0  0  0
  -22.5800  -29.2680   22.6100 C   0  0  0  0  0  0  0  0  0  0  0  0
  -21.2650  -29.0630   22.4290 N   0  0  0  0  0  0  0  0  0  0  0  0
  -23.2280  -28.6990   23.4930 O   0  0  0  0  0  0  0  0  0  0  0  0
  -20.8060  -29.5690   21.6850 H   0  0  0  0  0  0  0  0  0  0  0  0
  -17.8870  -27.8450   22.8060 C   0  0  0  0  0  0  0  0  0  0  0  0
  -20.4190  -28.1660   23.2140 C   0  0  0  0  0  3  0  0  0  0  0  0
  -20.5780  -26.7020   22.7450 C   0  0  0  0  0  2  0  0  0  0  0  0
  -19.5440  -26.2910   21.6910 C   0  0  0  0  0  2  0  0  0  0  0  0
  -18.1230  -26.4550   22.2390 C   0  0  0  0  0  2  0  0  0  0  0  0
  -18.9660  -28.6540   23.2500 C   0  0  0  0  0  0  0  0  0  0  0  0
  -18.6960  -29.9520   23.7350 C   0  0  0  0  0  3  0  0  0  0  0  0
  -17.3760  -30.4400   23.7860 C   0  0  0  0  0  3  0  0  0  0  0  0
  -16.3100  -29.6290   23.3610 C   0  0  0  0  0  3  0  0  0  0  0  0
  -16.5650  -28.3330   22.8770 C   0  0  0  0  0  3  0  0  0  0  0  0
  -25.7220  -32.3460   23.8600 C   0  0  0  0  0  3  0  0  0  0  0  0
  -25.3980  -33.7400   24.1880 N   0  0  0  0  0  0  0  0  0  0  0  0
  -25.7320  -34.7950   23.4330 C   0  0  0  0  0  0  0  0  0  0  0  0
  -26.4150  -34.6970   22.4100 O   0  0  0  0  0  0  0  0  0  0  0  0
  -24.7930  -33.8890   24.9820 H   0  0  0  0  0  0  0  0  0  0  0  0
  -24.0000  -36.5760   23.0440 C   0  0  0  0  0  1  0  0  0  0  0  0
  -25.2260  -36.1780   23.8830 C   0  0  0  0  0  3  0  0  0  0  0  0
  -27.3360  -37.0720   24.7610 C   0  0  0  0  0  1  0  0  0  0  0  0
  -26.2530  -37.2380   23.7960 N   0  0  0  0  0  0  0  0  0  0  0  0
  -25.8390  -38.1550   23.9380 H   0  0  0  0  0  0  0  0  0  0  0  0
  -26.2460  -31.5760   25.1330 C   0  0  1  0  0  0  0  0  0  0  0  0
  -25.1510  -31.3060   26.1910 C   0  0  0  0  0  1  0  0  0  0  0  0
  -26.8610  -30.2150   24.7330 C   0  0  0  0  0  1  0  0  0  0  0  0
  -27.3770  -32.3890   25.8070 C   0  0  0  0  0  1  0  0  0  0  0  0
  1  6  1  0
  1 49  1  0
  2  1  2  0
  3  6  2  0
  3  4  1  0
  4  7  2  0
  5  8  2  0
  6  5  1  0
  7  8  1  0
  7  9  1  0
  8 10  1  0
  9 10  1  0
 10 19  1  0
 11 19  1  0
 12 17  1  0
 13 14  1  0
 13 12  1  0
 15 14  1  0
 15 24  1  0
 15 16  1  0
 17 11  1  0
 17 16  1  0
 18 11  2  0
 19 20  1  0
 21 22  2  0
 22 41  1  0
 23 22  1  0
 23 26  1  0
 24 25  1  0
 24 21  1  0
 25 23  2  0
 26 27  1  0
 27 28  2  0
 29 32  1  0
 29 28  1  0
 30 29  2  0
 31 30  1  0
 31 26  2  0
 32 33  1  0
 33 38  2  0
 33 34  1  0
 34 35  2  0
 35 36  1  0
 36 40  1  0
 37 36  2  0
 38 37  1  0
 39 38  1  0
 41 42  1  0
 42 45  1  0
 42 44  1  0
 43 41  2  0
 46 21  1  0
 46 47  1  0
 48 46  1  0
 49 50  1  0
 50 51  1  0
 51 52  1  0
 52 53  1  0
 53 54  1  0
 55 54  1  0
 56 67  2  0
 57 55  1  0
 57 62  1  0
 58 66  1  0
 58 68  1  0
 59 61  1  0
 60 66  1  0
 61 62  2  0
 61 60  1  0
 63 57  2  0
 64 63  1  0
 64 59  2  0
 65 59  1  0
 65 58  1  0
 66 56  1  0
 68 70  2  0
 69 68  1  0
 71 69  1  0
 72 81  2  0
 72 77  1  0
 73 69  1  0
 73 77  1  0
 74 73  1  0
 75 76  1  0
 75 74  1  0
 76 72  1  0
 77 78  2  0
 78 79  1  0
 80 79  2  0
 81 80  1  0
 82 56  1  0
 82 83  1  0
 82 92  1  0
 83 86  1  0
 84 88  1  0
 84 83  1  0
 85 84  2  0
 88 87  1  0
 90 88  1  0
 90 91  1  0
 90 89  1  0
 92 95  1  1
 92 93  1  0
 94 92  1  0
M  ISO  4  11 100  19 100  54 101  55 101
M  END
>  <TORSDO>  (21) 
F 23

>  <SCORE>  (21) 
-8.413

>  <name>  (21) 
20

>  <ligand_id>  (21) 
20

>  <original_smiles>  (21) 
[H]c1c([H])c([H])c2c(c1[H])C([H])([H])C([H])([H])C([H])([H])C2([H])N([H])C(=O)C1([H])N(C(=O)C([H])(N([H])C(=O)C([H])(N([H])C([H])([H])[H])C([H])([H])[H])C(C([H])([H])[H])(C([H])([H])[H])C([H])([H])[H])C([H])([H])c2c([H])c(OC([H])([H])C([H])([H])C([H])([H])C([H])([H])C([H])([H])C([H])([H])C(=O)c3c([H])c([H])c4c(c3[H])C([H])(N([H])C(=O)N3C([H])([H])C([H])([H])C([H])([H])C([H])(n5nc(-c6c([H])c([H])c(Oc7c([H])c([H])c(F)c([H])c7F)c([H])c6[H])c(C(=O)N([H])[H])c5N([H])[H])C3([H])[H])C4([H])[H])c([H])c([H])c2C1([H])[H]

>  <smiles>  (21) 
[H]c1c([H])c([H])c2c(c1[H])C([H])([H])C([H])([H])C([H])([H])C2([H])N([H])C(=O)C1([H])N(C(=O)C([H])(N([H])C(=O)C([H])(N([H])C([H])([H])[H])C([H])([H])[H])C(C([H])([H])[H])(C([H])([H])[H])C([H])([H])[H])C([H])([H])c2c([H])c(OC([H])([H])C([H])([H])C([H])([H])C([H])([H])C([H])([H])C([H])([H])C(=O)c3c([H])c([H])c4c(c3[H])C([H])(N([H])C(=O)N3C([H])([H])C([H])([H])C([H])([H])C([H])(n5nc(-c6c([H])c([H])c(Oc7c([H])c([H])c(F)c([H])c7F)c([H])c6[H])c(C(=O)N([H])[H])c5N([H])[H])C3([H])[H])C4([H])[H])c([H])c([H])c2C1([H])[H]

$$$$
21:0:0
     RDKit          3D

 94103  0  0  1  0  0  0  0  0999 V2000
  -33.1010  -21.9160   20.4620 C   0  0  0  0  0  3  0  0  0  0  0  0
  -32.5600  -20.6660   20.8240 C   0  0  0  0  0  3  0  0  0  0  0  0
  -32.2590  -23.0270   20.2530 C   0  0  0  0  0  3  0  0  0  0  0  0
  -30.3240  -21.6400   20.7570 C   0  0  0  0  0  3  0  0  0  0  0  0
  -31.1640  -20.5100   20.9680 C   0  0  0  0  0  0  0  0  0  0  0  0
  -30.8630  -22.9030   20.3970 C   0  0  0  0  0  0  0  0  0  0  0  0
  -30.5730  -19.1690   21.4390 C   0  0  0  0  0  2  0  0  0  0  0  0
  -29.6380  -18.0450   18.5870 C   0  0  0  0  0  2  0  0  0  0  0  0
  -31.0570  -18.0190   19.1500 C   0  0  0  0  0  2  0  0  0  0  0  0
  -28.8200  -17.1310   19.5030 C   0  0  0  0  0  2  0  0  0  0  0  0
  -30.8860  -17.8350   20.6660 C   0  0  0  0  0  3  0  0  0  0  0  0
  -29.6610  -16.8780   20.7750 C   0  0  0  0  0  3  0  0  0  0  0  0
  -30.6330  -14.4950   20.4590 C   0  0  0  0  0  0  0  0  0  0  0  0
  -30.3930  -12.3430   19.2830 C   0  0  0  0  0  2  0  0  0  0  0  0
  -29.4330  -12.5700   18.0920 C   0  0  0  0  0  2  0  0  0  0  0  0
  -27.9560  -12.4190   18.5220 C   0  0  0  0  0  2  0  0  0  0  0  0
  -27.6270  -13.2160   19.8130 C   0  0  0  0  0  3  0  0  0  0  0  0
  -28.6900  -12.9440   20.9010 C   0  0  0  0  0  2  0  0  0  0  0  0
  -30.0160  -13.2860   20.3440 N   0  0  0  0  0  0  0  0  0  0  0  0
  -31.7280  -14.7490   19.9520 O   0  0  0  0  0  0  0  0  0  0  0  0
  -29.8500  -15.4340   21.0200 N   0  0  0  0  0  0  0  0  0  0  0  0
  -29.0440  -15.0130   21.4570 H   0  0  0  0  0  0  0  0  0  0  0  0
  -25.2260  -13.8260   20.5190 C   0  0  0  0  0  0  0  0  0  0  0  0
  -24.1590  -13.0520   20.8890 C   0  0  0  0  0  0  0  0  0  0  0  0
  -24.6240  -11.7020   20.8560 C   0  0  0  0  0  0  0  0  0  0  0  0
  -26.2730  -12.9450   20.2880 N   0  0  0  0  0  0  0  0  0  0  0  0
  -25.9130  -11.6630   20.5480 N   0  0  0  0  0  0  0  0  0  0  0  0
  -23.9030  -10.4380   21.0490 C   0  0  0  0  0  0  0  0  0  0  0  0
  -24.3500   -9.4700   21.9750 C   0  0  0  0  0  3  0  0  0  0  0  0
  -23.6330   -8.2670   22.1550 C   0  0  0  0  0  3  0  0  0  0  0  0
  -22.4540   -8.0280   21.4120 C   0  0  0  0  0  0  0  0  0  0  0  0
  -22.0270   -8.9860   20.4740 C   0  0  0  0  0  3  0  0  0  0  0  0
  -22.7450  -10.1790   20.2920 C   0  0  0  0  0  3  0  0  0  0  0  0
  -21.7050   -6.8810   21.5020 O   0  0  0  0  0  0  0  0  0  0  0  0
  -21.6800   -6.1260   22.6470 C   0  0  0  0  0  0  0  0  0  0  0  0
  -21.2820   -6.6680   23.8890 C   0  0  0  0  0  3  0  0  0  0  0  0
  -21.2030   -5.8400   25.0250 C   0  0  0  0  0  3  0  0  0  0  0  0
  -21.5090   -4.4690   24.9230 C   0  0  0  0  0  0  0  0  0  0  0  0
  -21.8980   -3.9270   23.6850 C   0  0  0  0  0  3  0  0  0  0  0  0
  -21.9800   -4.7520   22.5510 C   0  0  0  0  0  0  0  0  0  0  0  0
  -22.3360   -4.2170   21.3560 F   0  0  0  0  0  0  0  0  0  0  0  0
  -21.4260   -3.6720   26.0130 F   0  0  0  0  0  0  0  0  0  0  0  0
  -22.7600  -13.5260   21.1640 C   0  0  0  0  0  0  0  0  0  0  0  0
  -22.0320  -12.8270   22.0280 N   0  0  0  0  0  0  0  0  0  0  0  0
  -22.3190  -14.5500   20.6420 O   0  0  0  0  0  0  0  0  0  0  0  0
  -22.4030  -12.0030   22.4780 H   0  0  0  0  0  0  0  0  0  0  0  0
  -21.0910  -13.1210   22.2450 H   0  0  0  0  0  0  0  0  0  0  0  0
  -25.3890  -15.1970   20.3420 N   0  0  0  0  0  0  0  0  0  0  0  0
  -24.6160  -15.8410   20.4600 H   0  0  0  0  0  0  0  0  0  0  0  0
  -26.2410  -15.6490   20.0370 H   0  0  0  0  0  0  0  0  0  0  0  0
  -29.9840  -24.1310   20.1140 C   0  0  0  0  0  2  0  0  0  0  0  0
  -29.7370  -25.0670   21.3270 C   0  0  0  0  0  2  0  0  0  0  0  0
  -29.3980  -26.5500   20.9820 C   0  0  0  0  0  2  0  0  0  0  0  0
  -28.3620  -26.6070   20.0080 O   0  0  0  0  0  0  0  0  0  0  0  0
  -24.6090  -31.8710   23.2410 C   0  0  0  0  0  0  0  0  0  0  0  0
  -27.2520  -27.4160   20.1540 C   0  0  0  0  0  0  0  0  0  0  0  0
  -23.3960  -30.4660   21.6050 C   0  0  0  0  0  3  0  0  0  0  0  0
  -24.8490  -28.9190   20.1880 C   0  0  0  0  0  0  0  0  0  0  0  0
  -25.9250  -30.8160   21.4060 C   0  0  0  0  0  2  0  0  0  0  0  0
  -26.0100  -29.4380   20.7810 C   0  0  0  0  0  0  0  0  0  0  0  0
  -27.2160  -28.6890   20.7790 C   0  0  0  0  0  3  0  0  0  0  0  0
  -26.0750  -26.9200   19.5610 C   0  0  0  0  0  3  0  0  0  0  0  0
  -24.8750  -27.6530   19.5820 C   0  0  0  0  0  3  0  0  0  0  0  0
  -23.6060  -29.7780   20.2300 C   0  0  0  0  0  2  0  0  0  0  0  0
  -24.6610  -31.0680   22.1400 N   0  0  0  0  0  0  0  0  0  0  0  0
  -23.5300  -32.1470   23.7840 O   0  0  0  0  0  0  0  0  0  0  0  0
  -22.7450  -29.4510   22.5720 C   0  0  0  0  0  0  0  0  0  0  0  0
  -21.4200  -29.2680   22.4480 N   0  0  0  0  0  0  0  0  0  0  0  0
  -23.4310  -28.8280   23.3870 O   0  0  0  0  0  0  0  0  0  0  0  0
  -20.9290  -29.8220   21.7590 H   0  0  0  0  0  0  0  0  0  0  0  0
  -18.0500  -28.0680   22.9580 C   0  0  0  0  0  0  0  0  0  0  0  0
  -20.6060  -28.3320   23.2230 C   0  0  0  0  0  3  0  0  0  0  0  0
  -20.7110  -26.9000   22.6530 C   0  0  0  0  0  2  0  0  0  0  0  0
  -19.6080  -26.5710   21.6410 C   0  0  0  0  0  2  0  0  0  0  0  0
  -18.2270  -26.7170   22.2880 C   0  0  0  0  0  2  0  0  0  0  0  0
  -19.1670  -28.8330   23.3840 C   0  0  0  0  0  0  0  0  0  0  0  0
  -18.9490  -30.1000   23.9700 C   0  0  0  0  0  3  0  0  0  0  0  0
  -17.6440  -30.5990   24.1370 C   0  0  0  0  0  3  0  0  0  0  0  0
  -16.5410  -29.8310   23.7300 C   0  0  0  0  0  3  0  0  0  0  0  0
  -16.7430  -28.5680   23.1450 C   0  0  0  0  0  3  0  0  0  0  0  0
  -25.9000  -32.5010   23.8540 C   0  0  0  0  0  3  0  0  0  0  0  0
  -25.5930  -33.9000   24.1860 N   0  0  0  0  0  0  0  0  0  0  0  0
  -25.9220  -34.9520   23.4240 C   0  0  0  0  0  0  0  0  0  0  0  0
  -26.5840  -34.8480   22.3890 O   0  0  0  0  0  0  0  0  0  0  0  0
  -25.0030  -34.0550   24.9900 H   0  0  0  0  0  0  0  0  0  0  0  0
  -24.1910  -36.7450   23.0820 C   0  0  0  0  0  1  0  0  0  0  0  0
  -25.4370  -36.3400   23.8850 C   0  0  0  0  0  3  0  0  0  0  0  0
  -27.5770  -37.2210   24.7030 C   0  0  0  0  0  1  0  0  0  0  0  0
  -26.4680  -37.3920   23.7690 N   0  0  0  0  0  0  0  0  0  0  0  0
  -26.0640  -38.3120   23.9210 H   0  0  0  0  0  0  0  0  0  0  0  0
  -26.4290  -31.7290   25.1230 C   0  0  1  0  0  0  0  0  0  0  0  0
  -25.3470  -31.4900   26.2010 C   0  0  0  0  0  1  0  0  0  0  0  0
  -27.0090  -30.3500   24.7260 C   0  0  0  0  0  1  0  0  0  0  0  0
  -27.5860  -32.5220   25.7770 C   0  0  0  0  0  1  0  0  0  0  0  0
  1  2  1  0
  2  5  2  0
  3  6  1  0
  3  1  2  0
  4  5  1  0
  5  7  1  0
  6  4  2  0
  8  9  1  0
  8 10  1  0
  9 11  1  0
 10 12  1  0
 11 12  1  0
 11  7  1  0
 12 21  1  0
 13 21  1  0
 14 19  1  0
 15 16  1  0
 15 14  1  0
 17 16  1  0
 17 26  1  0
 17 18  1  0
 19 13  1  0
 19 18  1  0
 20 13  2  0
 21 22  1  0
 23 24  2  0
 24 43  1  0
 25 24  1  0
 25 28  1  0
 26 23  1  0
 26 27  1  0
 27 25  2  0
 28 29  1  0
 29 30  2  0
 31 34  1  0
 31 30  1  0
 32 31  2  0
 33 32  1  0
 33 28  2  0
 34 35  1  0
 35 36  1  0
 36 37  2  0
 38 37  1  0
 38 42  1  0
 39 38  2  0
 40 35  2  0
 40 39  1  0
 41 40  1  0
 43 44  1  0
 44 47  1  0
 44 46  1  0
 45 43  2  0
 48 49  1  0
 48 23  1  0
 50 48  1  0
 51  6  1  0
 51 52  1  0
 53 52  1  0
 54 56  1  0
 54 53  1  0
 55 66  2  0
 56 61  1  0
 57 65  1  0
 57 67  1  0
 58 64  1  0
 58 60  1  0
 59 65  1  0
 60 59  1  0
 61 60  2  0
 62 63  1  0
 62 56  2  0
 63 58  2  0
 64 57  1  0
 65 55  1  0
 67 69  2  0
 68 67  1  0
 70 68  1  0
 71 80  2  0
 71 76  1  0
 72 68  1  0
 72 76  1  0
 73 72  1  0
 74 75  1  0
 74 73  1  0
 75 71  1  0
 76 77  2  0
 77 78  1  0
 79 78  2  0
 80 79  1  0
 81 55  1  0
 81 82  1  0
 81 91  1  0
 82 85  1  0
 83 87  1  0
 83 82  1  0
 84 83  2  0
 87 86  1  0
 89 87  1  0
 89 90  1  0
 89 88  1  0
 91 94  1  1
 91 92  1  0
 93 91  1  0
M  ISO  4  13 100  21 100  53 101  54 101
M  END
>  <TORSDO>  (22) 
F 21

>  <SCORE>  (22) 
-13.708

>  <name>  (22) 
21

>  <ligand_id>  (22) 
21

>  <original_smiles>  (22) 
[H]c1c([H])c([H])c2c(c1[H])C([H])([H])C([H])([H])C([H])([H])C2([H])N([H])C(=O)C1([H])N(C(=O)C([H])(N([H])C(=O)C([H])(N([H])C([H])([H])[H])C([H])([H])[H])C(C([H])([H])[H])(C([H])([H])[H])C([H])([H])[H])C([H])([H])c2c([H])c(OC([H])([H])C([H])([H])C([H])([H])c3c([H])c([H])c([H])c(C([H])([H])C4([H])C([H])([H])C([H])([H])C([H])([H])C4([H])N([H])C(=O)N4C([H])([H])C([H])([H])C([H])([H])C([H])(n5nc(-c6c([H])c([H])c(Oc7c([H])c([H])c(F)c([H])c7F)c([H])c6[H])c(C(=O)N([H])[H])c5N([H])[H])C4([H])[H])c3[H])c([H])c([H])c2C1([H])[H]

>  <smiles>  (22) 
[H]c1c([H])c([H])c2c(c1[H])C([H])([H])C([H])([H])C([H])([H])C2([H])N([H])C(=O)C1([H])N(C(=O)C([H])(N([H])C(=O)C([H])(N([H])C([H])([H])[H])C([H])([H])[H])C(C([H])([H])[H])(C([H])([H])[H])C([H])([H])[H])C([H])([H])c2c([H])c(OC([H])([H])C([H])([H])C([H])([H])c3c([H])c([H])c([H])c(C([H])([H])C4([H])C([H])([H])C([H])([H])C([H])([H])C4([H])N([H])C(=O)N4C([H])([H])C([H])([H])C([H])([H])C([H])(n5nc(-c6c([H])c([H])c(Oc7c([H])c([H])c(F)c([H])c7F)c([H])c6[H])c(C(=O)N([H])[H])c5N([H])[H])C4([H])[H])c3[H])c([H])c([H])c2C1([H])[H]

$$$$
22:0:0
     RDKit          3D

 90 97  0  0  1  0  0  0  0  0999 V2000
  -29.9420  -21.8120   20.3700 C   0  0  0  0  0  2  0  0  0  0  0  0
  -30.0640  -20.4870   21.1400 C   0  0  0  0  0  0  0  0  0  0  0  0
  -30.4290  -20.4760   22.3200 O   0  0  0  0  0  0  0  0  0  0  0  0
  -29.7460  -19.2700   20.3800 C   0  0  0  0  0  3  0  0  0  0  0  0
  -30.1240  -18.0290   20.7480 C   0  0  0  0  0  3  0  0  0  0  0  0
  -30.5460  -16.8360   18.5590 C   0  0  0  0  0  1  0  0  0  0  0  0
  -29.7870  -16.8130   19.9030 C   0  0  0  0  0  3  0  0  0  0  0  0
  -30.6490  -14.4880   20.4510 C   0  0  0  0  0  0  0  0  0  0  0  0
  -30.3680  -12.3120   19.3650 C   0  0  0  0  0  2  0  0  0  0  0  0
  -29.4410  -12.5370   18.1500 C   0  0  0  0  0  2  0  0  0  0  0  0
  -27.9590  -12.4220   18.5610 C   0  0  0  0  0  2  0  0  0  0  0  0
  -27.6170  -13.2640   19.8200 C   0  0  0  0  0  3  0  0  0  0  0  0
  -28.6590  -13.0290   20.9420 C   0  0  0  0  0  2  0  0  0  0  0  0
  -29.9970  -13.2980   20.3880 N   0  0  0  0  0  0  0  0  0  0  0  0
  -31.8170  -14.6420   20.0840 O   0  0  0  0  0  0  0  0  0  0  0  0
  -29.8210  -15.5320   20.6360 N   0  0  0  0  0  0  0  0  0  0  0  0
  -28.9330  -15.2630   21.0330 H   0  0  0  0  0  0  0  0  0  0  0  0
  -25.2120  -13.8980   20.4900 C   0  0  0  0  0  0  0  0  0  0  0  0
  -24.1350  -13.1360   20.8570 C   0  0  0  0  0  0  0  0  0  0  0  0
  -24.5880  -11.7830   20.8470 C   0  0  0  0  0  0  0  0  0  0  0  0
  -26.2550  -13.0080   20.2840 N   0  0  0  0  0  0  0  0  0  0  0  0
  -25.8820  -11.7310   20.5560 N   0  0  0  0  0  0  0  0  0  0  0  0
  -23.8540  -10.5260   21.0430 C   0  0  0  0  0  0  0  0  0  0  0  0
  -24.2800   -9.5610   21.9830 C   0  0  0  0  0  3  0  0  0  0  0  0
  -23.5470   -8.3690   22.1660 C   0  0  0  0  0  3  0  0  0  0  0  0
  -22.3750   -8.1340   21.4080 C   0  0  0  0  0  0  0  0  0  0  0  0
  -21.9690   -9.0870   20.4580 C   0  0  0  0  0  3  0  0  0  0  0  0
  -22.7030  -10.2700   20.2740 C   0  0  0  0  0  3  0  0  0  0  0  0
  -21.6140   -6.9930   21.5010 O   0  0  0  0  0  0  0  0  0  0  0  0
  -21.5670   -6.2510   22.6540 C   0  0  0  0  0  0  0  0  0  0  0  0
  -21.1590   -6.8120   23.8850 C   0  0  0  0  0  3  0  0  0  0  0  0
  -21.0560   -5.9970   25.0300 C   0  0  0  0  0  3  0  0  0  0  0  0
  -21.3520   -4.6230   24.9460 C   0  0  0  0  0  0  0  0  0  0  0  0
  -21.7540   -4.0620   23.7210 C   0  0  0  0  0  3  0  0  0  0  0  0
  -21.8580   -4.8740   22.5780 C   0  0  0  0  0  0  0  0  0  0  0  0
  -22.2240   -4.3240   21.3950 F   0  0  0  0  0  0  0  0  0  0  0  0
  -21.2460   -3.8380   26.0440 F   0  0  0  0  0  0  0  0  0  0  0  0
  -22.7370  -13.6240   21.1060 C   0  0  0  0  0  0  0  0  0  0  0  0
  -21.9940  -12.9430   21.9720 N   0  0  0  0  0  0  0  0  0  0  0  0
  -22.3100  -14.6440   20.5680 O   0  0  0  0  0  0  0  0  0  0  0  0
  -22.3510  -12.1200   22.4330 H   0  0  0  0  0  0  0  0  0  0  0  0
  -21.0550  -13.2520   22.1810 H   0  0  0  0  0  0  0  0  0  0  0  0
  -25.3860  -15.2660   20.2970 N   0  0  0  0  0  0  0  0  0  0  0  0
  -24.6210  -15.9250   20.3900 H   0  0  0  0  0  0  0  0  0  0  0  0
  -26.2350  -15.6960   19.9540 H   0  0  0  0  0  0  0  0  0  0  0  0
  -30.0220  -23.1010   21.2160 C   0  0  0  0  0  2  0  0  0  0  0  0
  -30.2620  -24.3430   20.3340 C   0  0  0  0  0  2  0  0  0  0  0  0
  -30.3270  -25.6770   21.1050 C   0  0  0  0  0  2  0  0  0  0  0  0
  -28.9660  -26.3560   21.3360 C   0  0  0  0  0  2  0  0  0  0  0  0
  -28.4190  -26.7470   20.0800 O   0  0  0  0  0  0  0  0  0  0  0  0
  -24.6030  -31.8930   23.2290 C   0  0  0  0  0  0  0  0  0  0  0  0
  -27.2650  -27.4850   20.1450 C   0  0  0  0  0  0  0  0  0  0  0  0
  -23.3990  -30.4960   21.5780 C   0  0  0  0  0  3  0  0  0  0  0  0
  -24.8600  -28.9610   20.1570 C   0  0  0  0  0  0  0  0  0  0  0  0
  -25.9220  -30.8630   21.3860 C   0  0  0  0  0  2  0  0  0  0  0  0
  -26.0110  -29.4920   20.7530 C   0  0  0  0  0  0  0  0  0  0  0  0
  -27.2170  -28.7580   20.7520 C   0  0  0  0  0  3  0  0  0  0  0  0
  -26.1040  -26.9640   19.5390 C   0  0  0  0  0  3  0  0  0  0  0  0
  -24.8980  -27.6930   19.5510 C   0  0  0  0  0  3  0  0  0  0  0  0
  -23.6140  -29.8170   20.1980 C   0  0  0  0  0  2  0  0  0  0  0  0
  -24.6600  -31.0990   22.1240 N   0  0  0  0  0  0  0  0  0  0  0  0
  -23.5210  -32.1640   23.7680 O   0  0  0  0  0  0  0  0  0  0  0  0
  -22.7470  -29.4720   22.5350 C   0  0  0  0  0  0  0  0  0  0  0  0
  -21.4220  -29.2960   22.4070 N   0  0  0  0  0  0  0  0  0  0  0  0
  -23.4300  -28.8400   23.3450 O   0  0  0  0  0  0  0  0  0  0  0  0
  -20.9350  -29.8600   21.7240 H   0  0  0  0  0  0  0  0  0  0  0  0
  -18.0430  -28.1200   22.8980 C   0  0  0  0  0  0  0  0  0  0  0  0
  -20.6020  -28.3590   23.1720 C   0  0  0  0  0  3  0  0  0  0  0  0
  -20.6950  -26.9300   22.5860 C   0  0  0  0  0  2  0  0  0  0  0  0
  -19.5900  -26.6220   21.5700 C   0  0  0  0  0  2  0  0  0  0  0  0
  -18.2100  -26.7730   22.2160 C   0  0  0  0  0  2  0  0  0  0  0  0
  -19.1670  -28.8710   23.3330 C   0  0  0  0  0  0  0  0  0  0  0  0
  -18.9570  -30.1330   23.9310 C   0  0  0  0  0  3  0  0  0  0  0  0
  -17.6560  -30.6430   24.0990 C   0  0  0  0  0  3  0  0  0  0  0  0
  -16.5460  -29.8880   23.6800 C   0  0  0  0  0  3  0  0  0  0  0  0
  -16.7410  -28.6290   23.0860 C   0  0  0  0  0  3  0  0  0  0  0  0
  -25.8900  -32.5200   23.8540 C   0  0  0  0  0  3  0  0  0  0  0  0
  -25.5800  -33.9140   24.1940 N   0  0  0  0  0  0  0  0  0  0  0  0
  -25.9140  -34.9720   23.4430 C   0  0  0  0  0  0  0  0  0  0  0  0
  -26.5860  -34.8760   22.4120 O   0  0  0  0  0  0  0  0  0  0  0  0
  -24.9830  -34.0630   24.9950 H   0  0  0  0  0  0  0  0  0  0  0  0
  -24.1870  -36.7660   23.0950 C   0  0  0  0  0  1  0  0  0  0  0  0
  -25.4250  -36.3560   23.9090 C   0  0  0  0  0  3  0  0  0  0  0  0
  -27.5570  -37.2340   24.7530 C   0  0  0  0  0  1  0  0  0  0  0  0
  -26.4580  -37.4100   23.8080 N   0  0  0  0  0  0  0  0  0  0  0  0
  -26.0510  -38.3290   23.9630 H   0  0  0  0  0  0  0  0  0  0  0  0
  -26.4130  -31.7360   25.1200 C   0  0  1  0  0  0  0  0  0  0  0  0
  -25.3240  -31.4860   26.1890 C   0  0  0  0  0  1  0  0  0  0  0  0
  -26.9970  -30.3640   24.7080 C   0  0  0  0  0  1  0  0  0  0  0  0
  -27.5650  -32.5250   25.7860 C   0  0  0  0  0  1  0  0  0  0  0  0
  1  2  1  0
  1 46  1  0
  2  3  2  0
  4  5  2  0
  4  2  1  0
  7  6  1  0
  7 16  1  0
  7  5  1  0
  8 16  1  0
  9 14  1  0
 10 11  1  0
 10  9  1  0
 12 11  1  0
 12 21  1  0
 12 13  1  0
 14  8  1  0
 14 13  1  0
 15  8  2  0
 16 17  1  0
 18 19  2  0
 19 38  1  0
 20 19  1  0
 20 23  1  0
 21 18  1  0
 21 22  1  0
 22 20  2  0
 23 24  1  0
 24 25  2  0
 26 29  1  0
 26 25  1  0
 27 26  2  0
 28 27  1  0
 28 23  2  0
 29 30  1  0
 30 31  1  0
 31 32  2  0
 33 32  1  0
 33 37  1  0
 34 33  2  0
 35 30  2  0
 35 34  1  0
 36 35  1  0
 38 39  1  0
 39 42  1  0
 39 41  1  0
 40 38  2  0
 43 44  1  0
 43 18  1  0
 45 43  1  0
 47 48  1  0
 47 46  1  0
 48 49  1  0
 50 52  1  0
 50 49  1  0
 51 62  2  0
 52 57  1  0
 53 61  1  0
 53 63  1  0
 54 60  1  0
 54 56  1  0
 55 61  1  0
 56 55  1  0
 57 56  2  0
 58 59  1  0
 58 52  2  0
 59 54  2  0
 60 53  1  0
 61 51  1  0
 63 65  2  0
 64 63  1  0
 66 64  1  0
 67 76  2  0
 67 72  1  0
 68 64  1  0
 68 72  1  0
 69 68  1  0
 70 71  1  0
 70 69  1  0
 71 67  1  0
 72 73  2  0
 73 74  1  0
 75 74  2  0
 76 75  1  0
 77 51  1  0
 77 78  1  0
 77 87  1  0
 78 81  1  0
 79 83  1  0
 79 78  1  0
 80 79  2  0
 83 82  1  0
 85 83  1  0
 85 86  1  0
 85 84  1  0
 87 90  1  1
 87 88  1  0
 89 87  1  0
M  ISO  4   8 100  16 100  49 101  50 101
M  END
>  <TORSDO>  (23) 
F 23

>  <SCORE>  (23) 
-12.759

>  <name>  (23) 
22

>  <ligand_id>  (23) 
22

>  <original_smiles>  (23) 
[H]C(C(=O)C([H])([H])C([H])([H])C([H])([H])C([H])([H])C([H])([H])Oc1c([H])c([H])c2c(c1[H])C([H])([H])N(C(=O)C([H])(N([H])C(=O)C([H])(N([H])C([H])([H])[H])C([H])([H])[H])C(C([H])([H])[H])(C([H])([H])[H])C([H])([H])[H])C([H])(C(=O)N([H])C1([H])c3c([H])c([H])c([H])c([H])c3C([H])([H])C([H])([H])C1([H])[H])C2([H])[H])=C([H])C([H])(N([H])C(=O)N1C([H])([H])C([H])([H])C([H])([H])C([H])(n2nc(-c3c([H])c([H])c(Oc4c([H])c([H])c(F)c([H])c4F)c([H])c3[H])c(C(=O)N([H])[H])c2N([H])[H])C1([H])[H])C([H])([H])[H]

>  <smiles>  (23) 
[H]C(C(=O)C([H])([H])C([H])([H])C([H])([H])C([H])([H])C([H])([H])Oc1c([H])c([H])c2c(c1[H])C([H])([H])N(C(=O)C([H])(N([H])C(=O)C([H])(N([H])C([H])([H])[H])C([H])([H])[H])C(C([H])([H])[H])(C([H])([H])[H])C([H])([H])[H])C([H])(C(=O)N([H])C1([H])c3c([H])c([H])c([H])c([H])c3C([H])([H])C([H])([H])C1([H])[H])C2([H])[H])=C([H])C([H])(N([H])C(=O)N1C([H])([H])C([H])([H])C([H])([H])C([H])(n2nc(-c3c([H])c([H])c(Oc4c([H])c([H])c(F)c([H])c4F)c([H])c3[H])c(C(=O)N([H])[H])c2N([H])[H])C1([H])[H])C([H])([H])[H]

$$$$
23:0:0
     RDKit          3D

 95103  0  0  1  0  0  0  0  0999 V2000
  -29.6750  -21.6600   22.1340 C   0  0  0  0  0  3  0  0  0  0  0  0
  -31.9870  -21.5770   21.4070 C   0  0  0  0  0  3  0  0  0  0  0  0
  -29.8010  -20.3750   22.6880 C   0  0  0  0  0  3  0  0  0  0  0  0
  -32.1210  -20.2940   21.9760 C   0  0  0  0  0  3  0  0  0  0  0  0
  -30.7730  -22.2880   21.5060 C   0  0  0  0  0  0  0  0  0  0  0  0
  -31.0320  -19.6860   22.6480 C   0  0  0  0  0  0  0  0  0  0  0  0
  -30.6700  -23.6730   20.9970 C   0  0  0  0  0  3  0  0  0  0  0  0
  -29.5950  -24.1970   20.3600 C   0  0  0  0  0  3  0  0  0  0  0  0
  -29.4970  -25.6260   19.9950 C   0  0  0  0  0  0  0  0  0  0  0  0
  -30.2210  -26.4920   20.4990 O   0  0  0  0  0  0  0  0  0  0  0  0
  -28.4080  -26.0310   18.9770 C   0  0  0  0  0  2  0  0  0  0  0  0
  -28.2720  -27.4590   18.9070 O   0  0  0  0  0  0  0  0  0  0  0  0
  -24.3980  -31.5670   23.1830 C   0  0  0  0  0  0  0  0  0  0  0  0
  -27.0220  -27.9910   19.1370 C   0  0  0  0  0  0  0  0  0  0  0  0
  -23.1120  -30.2800   21.5000 C   0  0  0  0  0  3  0  0  0  0  0  0
  -24.4970  -29.1530   19.6720 C   0  0  0  0  0  0  0  0  0  0  0  0
  -25.5280  -30.9830   21.0440 C   0  0  0  0  0  2  0  0  0  0  0  0
  -25.6620  -29.7420   20.1820 C   0  0  0  0  0  0  0  0  0  0  0  0
  -26.9250  -29.1710   19.9030 C   0  0  0  0  0  3  0  0  0  0  0  0
  -25.8410  -27.4150   18.6190 C   0  0  0  0  0  3  0  0  0  0  0  0
  -24.5820  -27.9910   18.8780 C   0  0  0  0  0  3  0  0  0  0  0  0
  -23.1860  -29.8280   20.0150 C   0  0  0  0  0  2  0  0  0  0  0  0
  -24.3700  -30.9500   21.9670 N   0  0  0  0  0  0  0  0  0  0  0  0
  -23.3820  -31.6280   23.8910 O   0  0  0  0  0  0  0  0  0  0  0  0
  -22.7050  -29.0680   22.3670 C   0  0  0  0  0  0  0  0  0  0  0  0
  -21.4480  -28.6230   22.2250 N   0  0  0  0  0  0  0  0  0  0  0  0
  -23.5220  -28.5320   23.1210 O   0  0  0  0  0  0  0  0  0  0  0  0
  -20.8390  -29.1270   21.5970 H   0  0  0  0  0  0  0  0  0  0  0  0
  -18.4610  -26.5970   22.4670 C   0  0  0  0  0  0  0  0  0  0  0  0
  -20.8580  -27.4630   22.8940 C   0  0  0  0  0  3  0  0  0  0  0  0
  -21.3410  -26.1400   22.2520 C   0  0  0  0  0  2  0  0  0  0  0  0
  -20.3990  -25.6180   21.1600 C   0  0  0  0  0  2  0  0  0  0  0  0
  -18.9980  -25.3770   21.7340 C   0  0  0  0  0  2  0  0  0  0  0  0
  -19.3350  -27.5840   22.9930 C   0  0  0  0  0  0  0  0  0  0  0  0
  -18.7860  -28.7180   23.6330 C   0  0  0  0  0  3  0  0  0  0  0  0
  -17.3930  -28.8680   23.7570 C   0  0  0  0  0  3  0  0  0  0  0  0
  -16.5310  -27.8790   23.2480 C   0  0  0  0  0  3  0  0  0  0  0  0
  -17.0650  -26.7460   22.6070 C   0  0  0  0  0  3  0  0  0  0  0  0
  -25.6920  -32.2500   23.7320 C   0  0  0  0  0  3  0  0  0  0  0  0
  -26.3270  -31.4830   24.9550 C   0  0  1  0  0  0  0  0  0  0  0  0
  -25.3050  -31.0910   26.0480 C   0  0  0  0  0  1  0  0  0  0  0  0
  -27.0340  -30.1920   24.4810 C   0  0  0  0  0  1  0  0  0  0  0  0
  -27.4130  -32.3650   25.6150 C   0  0  0  0  0  1  0  0  0  0  0  0
  -25.3400  -33.6250   24.1080 N   0  0  0  0  0  0  0  0  0  0  0  0
  -25.6030  -34.7080   23.3650 C   0  0  0  0  0  0  0  0  0  0  0  0
  -26.2360  -34.6580   22.3060 O   0  0  0  0  0  0  0  0  0  0  0  0
  -24.7800  -33.7370   24.9400 H   0  0  0  0  0  0  0  0  0  0  0  0
  -23.8110  -36.4530   23.0990 C   0  0  0  0  0  1  0  0  0  0  0  0
  -25.0810  -36.0650   23.8740 C   0  0  0  0  0  3  0  0  0  0  0  0
  -27.2050  -36.9870   24.6950 C   0  0  0  0  0  1  0  0  0  0  0  0
  -26.0790  -37.1540   23.7800 N   0  0  0  0  0  0  0  0  0  0  0  0
  -25.6460  -38.0520   23.9720 H   0  0  0  0  0  0  0  0  0  0  0  0
  -31.1300  -18.3540   23.3140 C   0  0  0  0  0  0  0  0  0  0  0  0
  -30.2150  -17.8640   23.9840 O   0  0  0  0  0  0  0  0  0  0  0  0
  -32.4420  -17.5730   23.1830 C   0  0  0  0  0  2  0  0  0  0  0  0
  -32.6340  -16.8990   21.8040 C   0  0  0  0  0  2  0  0  0  0  0  0
  -31.5890  -15.8000   21.5340 C   0  0  0  0  0  2  0  0  0  0  0  0
  -30.9890  -15.8120   20.1060 C   0  0  0  0  0  2  0  0  0  0  0  0
  -29.7410  -14.9010   19.9590 C   0  0  0  0  0  2  0  0  0  0  0  0
  -29.8190  -13.8500   18.8290 C   0  0  0  0  0  0  0  0  0  0  0  0
  -29.6960  -11.4430   18.2850 C   0  0  0  0  0  2  0  0  0  0  0  0
  -28.5570  -11.0320   17.3430 C   0  0  0  0  0  2  0  0  0  0  0  0
  -27.2720  -10.7660   18.1440 C   0  0  0  0  0  2  0  0  0  0  0  0
  -26.9270  -11.9320   19.1040 C   0  0  0  0  0  3  0  0  0  0  0  0
  -28.1530  -12.3410   19.9560 C   0  0  0  0  0  2  0  0  0  0  0  0
  -29.2840  -12.6230   19.0540 N   0  0  0  0  0  0  0  0  0  0  0  0
  -30.4790  -14.1120   17.8180 O   0  0  0  0  0  0  0  0  0  0  0  0
  -24.8370  -12.4460   20.5230 C   0  0  0  0  0  0  0  0  0  0  0  0
  -23.9160  -11.6320   21.1200 C   0  0  0  0  0  0  0  0  0  0  0  0
  -24.3300  -10.2920   20.8400 C   0  0  0  0  0  0  0  0  0  0  0  0
  -25.7640  -11.6020   19.9290 N   0  0  0  0  0  0  0  0  0  0  0  0
  -25.4750  -10.2970   20.1680 N   0  0  0  0  0  0  0  0  0  0  0  0
  -23.6770   -9.0100   21.1240 C   0  0  0  0  0  0  0  0  0  0  0  0
  -24.1660   -8.1390   22.1250 C   0  0  0  0  0  3  0  0  0  0  0  0
  -23.5110   -6.9190   22.3960 C   0  0  0  0  0  3  0  0  0  0  0  0
  -22.3520   -6.5580   21.6690 C   0  0  0  0  0  0  0  0  0  0  0  0
  -21.8830   -7.4170   20.6590 C   0  0  0  0  0  3  0  0  0  0  0  0
  -22.5370   -8.6290   20.3860 C   0  0  0  0  0  3  0  0  0  0  0  0
  -21.6680   -5.3810   21.8440 O   0  0  0  0  0  0  0  0  0  0  0  0
  -21.4900   -4.8290   23.0880 C   0  0  0  0  0  0  0  0  0  0  0  0
  -20.7930   -5.5060   24.1120 C   0  0  0  0  0  3  0  0  0  0  0  0
  -20.5750   -4.8740   25.3530 C   0  0  0  0  0  3  0  0  0  0  0  0
  -21.0460   -3.5640   25.5680 C   0  0  0  0  0  0  0  0  0  0  0  0
  -21.7360   -2.8870   24.5480 C   0  0  0  0  0  3  0  0  0  0  0  0
  -21.9540   -3.5170   23.3100 C   0  0  0  0  0  0  0  0  0  0  0  0
  -22.6020   -2.8500   22.3240 F   0  0  0  0  0  0  0  0  0  0  0  0
  -20.8290   -2.9550   26.7570 F   0  0  0  0  0  0  0  0  0  0  0  0
  -22.6660  -12.0620   21.8350 C   0  0  0  0  0  0  0  0  0  0  0  0
  -22.2290  -11.2900   22.8200 N   0  0  0  0  0  0  0  0  0  0  0  0
  -22.0970  -13.1160   21.5480 O   0  0  0  0  0  0  0  0  0  0  0  0
  -22.7080  -10.4350   23.0650 H   0  0  0  0  0  0  0  0  0  0  0  0
  -21.4060  -11.5560   23.3440 H   0  0  0  0  0  0  0  0  0  0  0  0
  -24.9630  -13.8290   20.4170 N   0  0  0  0  0  0  0  0  0  0  0  0
  -24.2790  -14.4750   20.7960 H   0  0  0  0  0  0  0  0  0  0  0  0
  -25.7060  -14.2900   19.9060 H   0  0  0  0  0  0  0  0  0  0  0  0
  1  3  1  0
  2  5  1  0
  2  4  2  0
  4  6  1  0
  5  1  2  0
  6  3  2  0
  6 53  1  0
  7  5  1  0
  8  7  2  0
  9  8  1  0
  9 10  2  0
 11  9  1  0
 12 11  1  0
 12 14  1  0
 13 24  2  0
 14 19  1  0
 15 23  1  0
 15 25  1  0
 16 22  1  0
 16 18  1  0
 17 23  1  0
 18 17  1  0
 19 18  2  0
 20 21  1  0
 20 14  2  0
 21 16  2  0
 22 15  1  0
 23 13  1  0
 25 27  2  0
 26 25  1  0
 28 26  1  0
 29 38  2  0
 29 34  1  0
 30 26  1  0
 30 34  1  0
 31 30  1  0
 32 33  1  0
 32 31  1  0
 33 29  1  0
 34 35  2  0
 35 36  1  0
 37 36  2  0
 38 37  1  0
 39 13  1  0
 39 44  1  0
 39 40  1  0
 40 43  1  1
 40 41  1  0
 42 40  1  0
 44 47  1  0
 45 49  1  0
 45 44  1  0
 46 45  2  0
 49 48  1  0
 51 49  1  0
 51 52  1  0
 51 50  1  0
 53 54  2  0
 55 53  1  0
 56 55  1  0
 57 56  1  0
 58 57  1  0
 59 58  1  0
 60 66  1  0
 60 59  1  0
 61 66  1  0
 62 63  1  0
 62 61  1  0
 64 63  1  0
 64 71  1  0
 64 65  1  0
 66 65  1  0
 67 60  2  0
 68 69  2  0
 69 88  1  0
 70 69  1  0
 70 73  1  0
 71 72  1  0
 71 68  1  0
 72 70  2  0
 73 74  1  0
 74 75  2  0
 76 79  1  0
 76 75  1  0
 77 76  2  0
 78 77  1  0
 78 73  2  0
 79 80  1  0
 80 85  2  0
 80 81  1  0
 81 82  2  0
 82 83  1  0
 83 87  1  0
 84 83  2  0
 85 84  1  0
 86 85  1  0
 88 89  1  0
 89 91  1  0
 89 92  1  0
 90 88  2  0
 93 68  1  0
 93 94  1  0
 95 93  1  0
M  ISO  4  11 101  12 101  59 100  60 100
M  END
>  <TORSDO>  (24) 
F 25

>  <SCORE>  (24) 
1.782

>  <name>  (24) 
23

>  <ligand_id>  (24) 
23

>  <original_smiles>  (24) 
[H]C(C(=O)C([H])([H])Oc1c([H])c([H])c2c(c1[H])C([H])([H])N(C(=O)C([H])(N([H])C(=O)C([H])(N([H])C([H])([H])[H])C([H])([H])[H])C(C([H])([H])[H])(C([H])([H])[H])C([H])([H])[H])C([H])(C(=O)N([H])C1([H])c3c([H])c([H])c([H])c([H])c3C([H])([H])C([H])([H])C1([H])[H])C2([H])[H])=C([H])c1c([H])c([H])c(C(=O)C([H])([H])C([H])([H])C([H])([H])C([H])([H])C([H])([H])C(=O)N2C([H])([H])C([H])([H])C([H])([H])C([H])(n3nc(-c4c([H])c([H])c(Oc5c([H])c([H])c(F)c([H])c5F)c([H])c4[H])c(C(=O)N([H])[H])c3N([H])[H])C2([H])[H])c([H])c1[H]

>  <smiles>  (24) 
[H]C(C(=O)C([H])([H])Oc1c([H])c([H])c2c(c1[H])C([H])([H])N(C(=O)C([H])(N([H])C(=O)C([H])(N([H])C([H])([H])[H])C([H])([H])[H])C(C([H])([H])[H])(C([H])([H])[H])C([H])([H])[H])C([H])(C(=O)N([H])C1([H])c3c([H])c([H])c([H])c([H])c3C([H])([H])C([H])([H])C1([H])[H])C2([H])[H])=C([H])c1c([H])c([H])c(C(=O)C([H])([H])C([H])([H])C([H])([H])C([H])([H])C([H])([H])C(=O)N2C([H])([H])C([H])([H])C([H])([H])C([H])(n3nc(-c4c([H])c([H])c(Oc5c([H])c([H])c(F)c([H])c5F)c([H])c4[H])c(C(=O)N([H])[H])c3N([H])[H])C2([H])[H])c([H])c1[H]

$$$$
24:0:0
     RDKit          3D

 91 98  0  0  1  0  0  0  0  0999 V2000
  -29.9090  -20.5380    8.6970 C   0  0  0  0  0  2  0  0  0  0  0  0
  -29.4760  -22.0240    8.7160 C   0  0  0  0  0  0  0  0  0  0  0  0
  -28.3940  -22.3610    8.2250 O   0  0  0  0  0  0  0  0  0  0  0  0
  -30.4100  -23.0830    9.3560 C   0  0  0  0  0  2  0  0  0  0  0  0
  -29.6710  -24.3390    9.9250 C   0  0  0  0  0  2  0  0  0  0  0  0
  -28.4070  -24.0590   10.7940 C   0  0  0  0  0  2  0  0  0  0  0  0
  -27.4380  -25.2780   10.8820 C   0  0  0  0  0  2  0  0  0  0  0  0
  -25.8810  -25.0630   10.9470 C   0  0  0  0  0  2  0  0  0  0  0  0
  -24.8230  -25.0220    9.7090 C   0  0  0  0  0  2  0  0  0  0  0  0
  -25.3080  -23.5000    8.8080 C   0  0  0  0  0  2  0  0  0  0  0  0
  -26.3360  -22.9370    7.4650 C   0  0  0  0  0  3  0  0  0  0  0  0
  -25.4550  -20.4980    7.6590 C   0  0  0  0  0  2  0  0  0  0  0  0
  -24.1170  -19.8920    7.1880 C   0  0  0  0  0  2  0  0  0  0  0  0
  -22.9660  -20.7290    7.7260 C   0  0  0  0  0  2  0  0  0  0  0  0
  -23.0590  -22.1160    7.1440 C   0  0  0  0  0  3  0  0  0  0  0  0
  -24.3800  -22.5030    6.6710 C   0  0  0  0  0  2  0  0  0  0  0  0
  -25.4280  -21.9780    7.4760 N   0  0  1  0  0  4  0  0  0  0  0  0
  -26.8770  -22.2500    6.5090 O   0  0  0  0  0  0  0  0  0  0  0  0
  -21.5500  -24.5120    7.7780 C   0  0  0  0  0  0  0  0  0  0  0  0
  -21.3880  -25.3290    9.2680 C   0  0  0  0  0  3  0  0  0  0  0  0
  -22.3870  -24.5070   10.5430 C   0  0  0  0  0  3  0  0  0  0  0  0
  -22.6730  -23.0600    8.0160 N   0  0  0  0  0  2  0  0  0  0  0  0
  -23.2150  -23.1020    9.8160 N   0  0  0  0  0  1  0  0  0  0  0  0
  -22.0330  -24.3020   11.9410 C   0  0  0  0  0  0  0  0  0  0  0  0
  -22.0950  -25.4350   12.7470 C   0  0  0  0  0  3  0  0  0  0  0  0
  -21.7440  -25.3570   14.0990 C   0  0  0  0  0  3  0  0  0  0  0  0
  -21.3310  -24.1330   14.6660 C   0  0  0  0  0  0  0  0  0  0  0  0
  -21.3500  -22.9640   13.8770 C   0  0  0  0  0  3  0  0  0  0  0  0
  -21.7130  -23.0410   12.5130 C   0  0  0  0  0  3  0  0  0  0  0  0
  -20.9390  -24.0340   15.9780 O   0  0  0  0  0  0  0  0  0  0  0  0
  -19.7780  -24.6360   16.4040 C   0  0  0  0  0  0  0  0  0  0  0  0
  -18.5100  -24.1050   16.0830 C   0  0  0  0  0  3  0  0  0  0  0  0
  -17.3420  -24.7200   16.5750 C   0  0  0  0  0  3  0  0  0  0  0  0
  -17.4370  -25.8590   17.3970 C   0  0  0  0  0  0  0  0  0  0  0  0
  -18.7000  -26.3900   17.7160 C   0  0  0  0  0  3  0  0  0  0  0  0
  -19.8670  -25.7810   17.2190 C   0  0  0  0  0  0  0  0  0  0  0  0
  -21.0800  -26.2910   17.5390 F   0  0  0  0  0  0  0  0  0  0  0  0
  -16.3170  -26.4410   17.8860 F   0  0  0  0  0  0  0  0  0  0  0  0
  -20.0710  -25.9600    9.6290 C   0  0  0  0  0  0  0  0  0  0  0  0
  -20.0340  -26.6720   10.7440 N   0  0  0  0  0  0  0  0  0  0  0  0
  -19.0650  -25.8020    8.9390 O   0  0  0  0  0  0  0  0  0  0  0  0
  -20.8630  -26.7990   11.3030 H   0  0  0  0  0  0  0  0  0  0  0  0
  -19.1710  -27.1120   11.0270 H   0  0  0  0  0  0  0  0  0  0  0  0
  -20.9210  -24.6590    6.5720 N   0  0  0  0  0  4  0  0  0  0  0  0
  -20.2560  -25.3960    6.3760 H   0  0  0  0  0  0  0  0  0  0  0  0
  -21.0410  -24.0210    5.7960 H   0  0  0  0  0  0  0  0  0  0  0  0
  -28.8900  -19.6090    7.9610 C   0  0  0  0  0  2  0  0  0  0  0  0
  -28.0410  -18.6590    8.8330 C   0  0  0  0  0  0  0  0  0  0  0  0
  -26.9310  -19.0020    9.2520 O   0  0  0  0  0  0  0  0  0  0  0  0
  -28.6300  -17.2560    9.1360 C   0  0  0  0  0  2  0  0  0  0  0  0
  -29.1810  -16.5640    7.9880 O   0  0  0  0  0  0  0  0  0  0  0  0
  -33.3480  -10.7660    8.0440 C   0  0  0  0  0  0  0  0  0  0  0  0
  -30.4290  -16.0310    8.2190 C   0  0  0  0  0  0  0  0  0  0  0  0
  -34.2060  -12.7480    9.2460 C   0  0  0  0  0  3  0  0  0  0  0  0
  -32.9640  -14.9350    8.8150 C   0  0  0  0  0  0  0  0  0  0  0  0
  -32.6350  -13.0180    7.2420 C   0  0  0  0  0  2  0  0  0  0  0  0
  -32.1350  -14.3010    7.8800 C   0  0  0  0  0  0  0  0  0  0  0  0
  -30.8690  -14.8530    7.5660 C   0  0  0  0  0  3  0  0  0  0  0  0
  -31.2830  -16.6590    9.1460 C   0  0  0  0  0  3  0  0  0  0  0  0
  -32.5440  -16.1160    9.4490 C   0  0  0  0  0  3  0  0  0  0  0  0
  -34.3020  -14.2900    9.1010 C   0  0  0  0  0  2  0  0  0  0  0  0
  -33.3660  -12.1230    8.1740 N   0  0  0  0  0  0  0  0  0  0  0  0
  -34.0450  -10.0440    8.7700 O   0  0  0  0  0  0  0  0  0  0  0  0
  -33.7230  -12.4140   10.6760 C   0  0  0  0  0  0  0  0  0  0  0  0
  -34.6530  -12.4470   11.6450 N   0  0  0  0  0  0  0  0  0  0  0  0
  -32.5360  -12.1630   10.9000 O   0  0  0  0  0  0  0  0  0  0  0  0
  -35.6050  -12.6550   11.3790 H   0  0  0  0  0  0  0  0  0  0  0  0
  -36.2980  -11.7350   14.7840 C   0  0  0  0  0  0  0  0  0  0  0  0
  -34.4210  -12.2040   13.0680 C   0  0  0  0  0  3  0  0  0  0  0  0
  -34.1980  -13.5310   13.8280 C   0  0  0  0  0  2  0  0  0  0  0  0
  -35.4840  -14.1050   14.4310 C   0  0  0  0  0  2  0  0  0  0  0  0
  -36.1120  -13.1070   15.4100 C   0  0  0  0  0  2  0  0  0  0  0  0
  -35.5150  -11.3170   13.6740 C   0  0  0  0  0  0  0  0  0  0  0  0
  -35.7530  -10.0460   13.1080 C   0  0  0  0  0  3  0  0  0  0  0  0
  -36.7470   -9.1990   13.6320 C   0  0  0  0  0  3  0  0  0  0  0  0
  -37.5080   -9.6100   14.7400 C   0  0  0  0  0  3  0  0  0  0  0  0
  -37.2790  -10.8730   15.3160 C   0  0  0  0  0  3  0  0  0  0  0  0
  -32.4720  -10.0600    6.9630 C   0  0  0  0  0  3  0  0  0  0  0  0
  -31.8630   -8.6900    7.4560 C   0  0  1  0  0  0  0  0  0  0  0  0
  -32.9070   -7.7360    8.0830 C   0  0  0  0  0  1  0  0  0  0  0  0
  -30.7540   -8.9300    8.5040 C   0  0  0  0  0  1  0  0  0  0  0  0
  -31.1970   -7.9570    6.2680 C   0  0  0  0  0  1  0  0  0  0  0  0
  -33.3140   -9.8570    5.7780 N   0  0  0  0  0  0  0  0  0  0  0  0
  -33.2880  -10.6330    4.6850 C   0  0  0  0  0  0  0  0  0  0  0  0
  -32.4900  -11.5630    4.5430 O   0  0  0  0  0  0  0  0  0  0  0  0
  -34.0310   -9.1490    5.8450 H   0  0  0  0  0  0  0  0  0  0  0  0
  -35.4590  -11.3450    3.6360 C   0  0  0  0  0  1  0  0  0  0  0  0
  -34.3090  -10.3280    3.5710 C   0  0  0  0  0  3  0  0  0  0  0  0
  -32.8610   -9.1740    1.9590 C   0  0  0  0  0  1  0  0  0  0  0  0
  -33.7180  -10.3280    2.2140 N   0  0  0  0  0  0  0  0  0  0  0  0
  -34.4480  -10.3440    1.5060 H   0  0  0  0  0  0  0  0  0  0  0  0
  1  2  1  0
  2  4  1  0
  3  2  2  0
  4  5  1  0
  5  6  1  0
  6  7  1  0
  7  8  1  0
  9  8  1  0
 10  9  1  0
 11 17  1  0
 11 10  1  0
 13 12  1  0
 13 14  1  0
 15 14  1  0
 15 22  1  0
 16 15  1  0
 17 16  1  1
 17 12  1  0
 18 11  1  0
 18 17  1  0
 19 22  1  0
 20 19  1  0
 20 39  1  0
 20 21  1  0
 21 23  1  0
 21 24  1  0
 24 29  2  0
 24 25  1  0
 25 26  2  0
 26 27  1  0
 27 30  1  0
 28 27  2  0
 29 28  1  0
 30 31  1  0
 31 36  1  0
 32 31  2  0
 32 33  1  0
 33 34  2  0
 34 35  1  0
 34 38  1  0
 36 37  1  0
 36 35  2  0
 39 40  1  0
 40 43  1  0
 40 42  1  0
 41 39  2  0
 44 19  2  0
 45 44  1  0
 46 44  1  0
 47  1  1  0
 47 48  1  0
 48 50  1  0
 48 49  2  0
 51 53  1  0
 51 50  1  0
 52 62  1  0
 52 63  2  0
 53 59  1  0
 54 64  1  0
 55 61  1  0
 55 60  1  0
 56 57  1  0
 56 62  1  0
 57 55  2  0
 58 57  1  0
 58 53  2  0
 59 60  2  0
 61 54  1  0
 62 54  1  0
 64 66  2  0
 64 65  1  0
 67 65  1  0
 68 77  1  0
 68 72  1  0
 69 65  1  0
 69 73  1  0
 69 70  1  0
 70 71  1  0
 71 72  1  0
 73 68  2  0
 74 75  2  0
 74 73  1  0
 75 76  1  0
 76 77  2  0
 78 79  1  0
 78 52  1  0
 79 80  1  1
 79 81  1  0
 82 79  1  0
 83 86  1  0
 83 78  1  0
 84 83  1  0
 85 84  2  0
 88 87  1  0
 88 84  1  0
 89 90  1  0
 90 88  1  0
 91 90  1  0
M  ISO  4  10 100  11 100  50 101  51 101
M  END
>  <TORSDO>  (25) 
F 27

>  <SCORE>  (25) 
-3.312

>  <name>  (25) 
24

>  <ligand_id>  (25) 
24

>  <original_smiles>  (25) 
[H]c1c([H])c([H])c2c(c1[H])C([H])([H])C([H])([H])C([H])([H])C2([H])N([H])C(=O)C1([H])N(C(=O)C([H])(N([H])C(=O)C([H])(N([H])C([H])([H])[H])C([H])([H])[H])C(C([H])([H])[H])(C([H])([H])[H])C([H])([H])[H])C([H])([H])c2c([H])c(OC([H])([H])C(=O)C([H])([H])C([H])([H])C(=O)C([H])([H])C([H])([H])C([H])([H])C([H])([H])C([H])([H])C([H])([H])C([H])([H])C(=O)N3C([H])([H])C([H])([H])C([H])([H])C([H])(n4nc(-c5c([H])c([H])c(Oc6c([H])c([H])c(F)c([H])c6F)c([H])c5[H])c(C(=O)N([H])[H])c4N([H])[H])C3([H])[H])c([H])c([H])c2C1([H])[H]

>  <smiles>  (25) 
[H]c1c([H])c([H])c2c(c1[H])C([H])([H])C([H])([H])C([H])([H])C2([H])N([H])C(=O)C1([H])N(C(=O)C([H])(N([H])C(=O)C([H])(N([H])C([H])([H])[H])C([H])([H])[H])C(C([H])([H])[H])(C([H])([H])[H])C([H])([H])[H])C([H])([H])c2c([H])c(OC([H])([H])C(=O)C([H])([H])C([H])([H])C(=O)C([H])([H])C([H])([H])C([H])([H])C([H])([H])C([H])([H])C([H])([H])C([H])([H])C(=O)N3C([H])([H])C([H])([H])C([H])([H])C([H])(n4nc(-c5c([H])c([H])c(Oc6c([H])c([H])c(F)c([H])c6F)c([H])c5[H])c(C(=O)N([H])[H])c4N([H])[H])C3([H])[H])c([H])c([H])c2C1([H])[H]

$$$$
25:0:0
     RDKit          3D

 95103  0  0  1  0  0  0  0  0999 V2000
  -35.2470  -21.4140   21.6960 C   0  0  0  0  0  3  0  0  0  0  0  0
  -34.1050  -20.6530   22.0150 C   0  0  0  0  0  3  0  0  0  0  0  0
  -35.1280  -22.5470   20.8710 C   0  0  0  0  0  3  0  0  0  0  0  0
  -32.7140  -22.1980   20.7370 C   0  0  0  0  0  3  0  0  0  0  0  0
  -32.8360  -21.0360   21.5260 C   0  0  0  0  0  0  0  0  0  0  0  0
  -33.8640  -22.9310   20.3800 C   0  0  0  0  0  0  0  0  0  0  0  0
  -31.6450  -20.1980   21.7960 C   0  0  0  0  0  0  0  0  0  0  0  0
  -30.6740  -20.5540   22.4700 O   0  0  0  0  0  0  0  0  0  0  0  0
  -31.6560  -18.8650   21.0520 C   0  0  0  0  0  2  0  0  0  0  0  0
  -30.8800  -17.6990   21.6940 C   0  0  0  0  0  2  0  0  0  0  0  0
  -31.2980  -16.4150   20.9640 C   0  0  0  0  0  2  0  0  0  0  0  0
  -30.4150  -15.1620   21.1490 C   0  0  0  0  0  2  0  0  0  0  0  0
  -30.8320  -14.0560   20.1590 C   0  0  0  0  0  0  0  0  0  0  0  0
  -30.3240  -12.0030   18.8950 C   0  0  0  0  0  2  0  0  0  0  0  0
  -29.3160  -12.3150   17.7750 C   0  0  0  0  0  2  0  0  0  0  0  0
  -27.8730  -12.1960   18.3030 C   0  0  0  0  0  2  0  0  0  0  0  0
  -27.6580  -12.9820   19.6250 C   0  0  0  0  0  3  0  0  0  0  0  0
  -28.7800  -12.6870   20.6470 C   0  0  0  0  0  2  0  0  0  0  0  0
  -30.0720  -12.9440   19.9970 N   0  0  0  0  0  0  0  0  0  0  0  0
  -31.8500  -14.2420   19.4850 O   0  0  0  0  0  0  0  0  0  0  0  0
  -25.3360  -13.6140   20.5410 C   0  0  0  0  0  0  0  0  0  0  0  0
  -24.2750  -12.8510   20.9490 C   0  0  0  0  0  0  0  0  0  0  0  0
  -24.6910  -11.4910   20.8120 C   0  0  0  0  0  0  0  0  0  0  0  0
  -26.3340  -12.7180   20.1880 N   0  0  0  0  0  0  0  0  0  0  0  0
  -25.9510  -11.4330   20.4040 N   0  0  0  0  0  0  0  0  0  0  0  0
  -23.9420  -10.2390   20.9940 C   0  0  0  0  0  0  0  0  0  0  0  0
  -24.4010   -9.2230   21.8620 C   0  0  0  0  0  3  0  0  0  0  0  0
  -23.6570   -8.0350   22.0300 C   0  0  0  0  0  3  0  0  0  0  0  0
  -22.4380   -7.8580   21.3330 C   0  0  0  0  0  0  0  0  0  0  0  0
  -21.9980   -8.8620   20.4530 C   0  0  0  0  0  3  0  0  0  0  0  0
  -22.7440  -10.0410   20.2810 C   0  0  0  0  0  3  0  0  0  0  0  0
  -21.6600   -6.7260   21.4140 O   0  0  0  0  0  0  0  0  0  0  0  0
  -21.6400   -5.9460   22.5410 C   0  0  0  0  0  0  0  0  0  0  0  0
  -21.2640   -6.4630   23.8000 C   0  0  0  0  0  3  0  0  0  0  0  0
  -21.1910   -5.6110   24.9190 C   0  0  0  0  0  3  0  0  0  0  0  0
  -21.4840   -4.2410   24.7820 C   0  0  0  0  0  0  0  0  0  0  0  0
  -21.8520   -3.7220   23.5280 C   0  0  0  0  0  3  0  0  0  0  0  0
  -21.9280   -4.5720   22.4100 C   0  0  0  0  0  0  0  0  0  0  0  0
  -22.2640   -4.0630   21.2010 F   0  0  0  0  0  0  0  0  0  0  0  0
  -21.4070   -3.4200   25.8550 F   0  0  0  0  0  0  0  0  0  0  0  0
  -22.9180  -13.3480   21.3560 C   0  0  0  0  0  0  0  0  0  0  0  0
  -22.2430  -12.6240   22.2430 N   0  0  0  0  0  0  0  0  0  0  0  0
  -22.4670  -14.4080   20.9220 O   0  0  0  0  0  0  0  0  0  0  0  0
  -22.6230  -11.7680   22.6170 H   0  0  0  0  0  0  0  0  0  0  0  0
  -21.3310  -12.9290   22.5530 H   0  0  0  0  0  0  0  0  0  0  0  0
  -25.5340  -14.9860   20.4230 N   0  0  0  0  0  0  0  0  0  0  0  0
  -24.8070  -15.6650   20.6210 H   0  0  0  0  0  0  0  0  0  0  0  0
  -26.3870  -15.4100   20.0810 H   0  0  0  0  0  0  0  0  0  0  0  0
  -33.7450  -24.1020   19.4270 C   0  0  0  0  0  2  0  0  0  0  0  0
  -33.8240  -25.4530   20.1460 C   0  0  0  0  0  2  0  0  0  0  0  0
  -33.3830  -26.6190   19.2480 C   0  0  0  0  0  2  0  0  0  0  0  0
  -31.9950  -27.1840   19.5900 C   0  0  0  0  0  2  0  0  0  0  0  0
  -30.7960  -26.2360   19.3720 C   0  0  0  0  0  2  0  0  0  0  0  0
  -29.5000  -26.9900   19.6810 C   0  0  0  0  0  2  0  0  0  0  0  0
  -28.2790  -26.2890   19.4100 O   0  0  0  0  0  0  0  0  0  0  0  0
  -24.7900  -31.4030   22.9430 C   0  0  0  0  0  0  0  0  0  0  0  0
  -27.1250  -27.0410   19.5640 C   0  0  0  0  0  0  0  0  0  0  0  0
  -23.4320  -30.1120   21.3150 C   0  0  0  0  0  3  0  0  0  0  0  0
  -24.7440  -28.5700   19.7620 C   0  0  0  0  0  0  0  0  0  0  0  0
  -25.9400  -30.4040   20.9800 C   0  0  0  0  0  2  0  0  0  0  0  0
  -25.9350  -29.0530   20.3060 C   0  0  0  0  0  0  0  0  0  0  0  0
  -27.1120  -28.2980   20.2210 C   0  0  0  0  0  3  0  0  0  0  0  0
  -25.9110  -26.5550   19.0270 C   0  0  0  0  0  3  0  0  0  0  0  0
  -24.7210  -27.3130   19.1250 C   0  0  0  0  0  3  0  0  0  0  0  0
  -23.5350  -29.4660   19.9030 C   0  0  0  0  0  2  0  0  0  0  0  0
  -24.7420  -30.6510   21.8070 N   0  0  0  0  0  0  0  0  0  0  0  0
  -23.7560  -31.6950   23.5580 O   0  0  0  0  0  0  0  0  0  0  0  0
  -22.7980  -29.0850   22.2770 C   0  0  0  0  0  0  0  0  0  0  0  0
  -21.4630  -28.9620   22.2170 N   0  0  0  0  0  0  0  0  0  0  0  0
  -23.4990  -28.4040   23.0280 O   0  0  0  0  0  0  0  0  0  0  0  0
  -20.9610  -29.5660   21.5810 H   0  0  0  0  0  0  0  0  0  0  0  0
  -18.0760  -27.8700   22.8200 C   0  0  0  0  0  0  0  0  0  0  0  0
  -20.6490  -28.0290   22.9940 C   0  0  0  0  0  3  0  0  0  0  0  0
  -20.6770  -26.6140   22.3730 C   0  0  0  0  0  2  0  0  0  0  0  0
  -19.5240  -26.3610   21.3970 C   0  0  0  0  0  2  0  0  0  0  0  0
  -18.1760  -26.5350   22.1020 C   0  0  0  0  0  2  0  0  0  0  0  0
  -19.2380  -28.5790   23.2250 C   0  0  0  0  0  0  0  0  0  0  0  0
  -19.0900  -29.8340   23.8560 C   0  0  0  0  0  3  0  0  0  0  0  0
  -17.8120  -30.3760   24.0890 C   0  0  0  0  0  3  0  0  0  0  0  0
  -16.6650  -29.6620   23.7010 C   0  0  0  0  0  3  0  0  0  0  0  0
  -16.7980  -28.4120   23.0710 C   0  0  0  0  0  3  0  0  0  0  0  0
  -26.1390  -31.9520   23.5110 C   0  0  0  0  0  3  0  0  0  0  0  0
  -26.7380  -31.0630   24.6690 C   0  0  1  0  0  0  0  0  0  0  0  0
  -25.7320  -30.7590   25.8020 C   0  0  0  0  0  1  0  0  0  0  0  0
  -27.2450  -29.7130   24.1090 C   0  0  0  0  0  1  0  0  0  0  0  0
  -27.9610  -31.7720   25.2980 C   0  0  0  0  0  1  0  0  0  0  0  0
  -25.8950  -33.3220   23.9770 N   0  0  0  0  0  0  0  0  0  0  0  0
  -26.2010  -34.4280   23.2840 C   0  0  0  0  0  0  0  0  0  0  0  0
  -26.7900  -34.3970   22.1990 O   0  0  0  0  0  0  0  0  0  0  0  0
  -25.3630  -33.4210   24.8300 H   0  0  0  0  0  0  0  0  0  0  0  0
  -24.4960  -36.2750   23.2130 C   0  0  0  0  0  1  0  0  0  0  0  0
  -25.7860  -35.7820   23.8890 C   0  0  0  0  0  3  0  0  0  0  0  0
  -27.9990  -36.5560   24.6180 C   0  0  0  0  0  1  0  0  0  0  0  0
  -26.8320  -36.8210   23.7800 N   0  0  0  0  0  0  0  0  0  0  0  0
  -26.4610  -37.7330   24.0320 H   0  0  0  0  0  0  0  0  0  0  0  0
  1  2  1  0
  3  1  2  0
  4  5  1  0
  5  7  1  0
  5  2  2  0
  6  4  2  0
  6  3  1  0
  7  8  2  0
  9 10  1  0
  9  7  1  0
 11 12  1  0
 11 10  1  0
 13 12  1  0
 14 19  1  0
 15 16  1  0
 15 14  1  0
 17 16  1  0
 17 24  1  0
 17 18  1  0
 19 13  1  0
 19 18  1  0
 20 13  2  0
 21 22  2  0
 22 41  1  0
 23 22  1  0
 23 26  1  0
 24 25  1  0
 24 21  1  0
 25 23  2  0
 26 27  1  0
 27 28  2  0
 29 32  1  0
 29 28  1  0
 30 29  2  0
 31 30  1  0
 31 26  2  0
 32 33  1  0
 33 34  1  0
 34 35  2  0
 36 35  1  0
 36 40  1  0
 37 36  2  0
 38 33  2  0
 38 37  1  0
 39 38  1  0
 41 42  1  0
 42 45  1  0
 42 44  1  0
 43 41  2  0
 46 21  1  0
 46 47  1  0
 48 46  1  0
 49 50  1  0
 49  6  1  0
 51 52  1  0
 51 50  1  0
 53 52  1  0
 53 54  1  0
 55 57  1  0
 55 54  1  0
 56 67  2  0
 57 62  1  0
 58 66  1  0
 58 68  1  0
 59 65  1  0
 59 61  1  0
 60 66  1  0
 61 60  1  0
 62 61  2  0
 63 64  1  0
 63 57  2  0
 64 59  2  0
 65 58  1  0
 66 56  1  0
 68 70  2  0
 69 68  1  0
 71 69  1  0
 72 81  2  0
 72 77  1  0
 73 69  1  0
 73 77  1  0
 74 73  1  0
 75 76  1  0
 75 74  1  0
 76 72  1  0
 77 78  2  0
 78 79  1  0
 80 79  2  0
 81 80  1  0
 82 56  1  0
 82 87  1  0
 82 83  1  0
 83 86  1  1
 83 84  1  0
 85 83  1  0
 87 90  1  0
 88 92  1  0
 88 87  1  0
 89 88  2  0
 92 91  1  0
 94 92  1  0
 94 95  1  0
 94 93  1  0
M  ISO  4  12 100  13 100  54 101  55 101
M  END
>  <TORSDO>  (26) 
F 27

>  <SCORE>  (26) 
-10.150

>  <name>  (26) 
25

>  <ligand_id>  (26) 
25

>  <original_smiles>  (26) 
[H]c1c([H])c([H])c2c(c1[H])C([H])([H])C([H])([H])C([H])([H])C2([H])N([H])C(=O)C1([H])N(C(=O)C([H])(N([H])C(=O)C([H])(N([H])C([H])([H])[H])C([H])([H])[H])C(C([H])([H])[H])(C([H])([H])[H])C([H])([H])[H])C([H])([H])c2c([H])c(OC([H])([H])C([H])([H])C([H])([H])C([H])([H])C([H])([H])C([H])([H])c3c([H])c([H])c([H])c(C(=O)C([H])([H])C([H])([H])C([H])([H])C([H])([H])C(=O)N4C([H])([H])C([H])([H])C([H])([H])C([H])(n5nc(-c6c([H])c([H])c(Oc7c([H])c([H])c(F)c([H])c7F)c([H])c6[H])c(C(=O)N([H])[H])c5N([H])[H])C4([H])[H])c3[H])c([H])c([H])c2C1([H])[H]

>  <smiles>  (26) 
[H]c1c([H])c([H])c2c(c1[H])C([H])([H])C([H])([H])C([H])([H])C2([H])N([H])C(=O)C1([H])N(C(=O)C([H])(N([H])C(=O)C([H])(N([H])C([H])([H])[H])C([H])([H])[H])C(C([H])([H])[H])(C([H])([H])[H])C([H])([H])[H])C([H])([H])c2c([H])c(OC([H])([H])C([H])([H])C([H])([H])C([H])([H])C([H])([H])C([H])([H])c3c([H])c([H])c([H])c(C(=O)C([H])([H])C([H])([H])C([H])([H])C([H])([H])C(=O)N4C([H])([H])C([H])([H])C([H])([H])C([H])(n5nc(-c6c([H])c([H])c(Oc7c([H])c([H])c(F)c([H])c7F)c([H])c6[H])c(C(=O)N([H])[H])c5N([H])[H])C4([H])[H])c3[H])c([H])c([H])c2C1([H])[H]

$$$$
26:0:0
     RDKit          3D

 93100  0  0  1  0  0  0  0  0999 V2000
  -27.2770  -23.8140   20.6840 C   0  0  0  0  0  2  0  0  0  0  0  0
  -27.2910  -22.2980   21.0730 C   0  0  0  0  0  2  0  0  0  0  0  0
  -27.3370  -21.4020   19.8310 C   0  0  0  0  0  0  0  0  0  0  0  0
  -28.1140  -20.3170   19.9010 N   0  0  0  0  0  0  0  0  0  0  0  0
  -26.6990  -21.7040   18.8210 O   0  0  0  0  0  0  0  0  0  0  0  0
  -28.5910  -20.1300   20.7720 H   0  0  0  0  0  0  0  0  0  0  0  0
  -28.3670  -19.4040   18.7960 C   0  0  0  0  0  2  0  0  0  0  0  0
  -29.6670  -18.6240   19.0320 C   0  0  0  0  0  2  0  0  0  0  0  0
  -29.6190  -17.7020   20.2640 C   0  0  0  0  0  2  0  0  0  0  0  0
  -30.8590  -16.8050   20.3420 C   0  0  0  0  0  2  0  0  0  0  0  0
  -30.7720  -15.7040   21.4190 C   0  0  0  0  0  2  0  0  0  0  0  0
  -31.4120  -14.4070   20.8970 C   0  0  0  0  0  0  0  0  0  0  0  0
  -31.1210  -12.1660   19.9220 C   0  0  0  0  0  2  0  0  0  0  0  0
  -30.2890  -12.2930   18.6290 C   0  0  0  0  0  2  0  0  0  0  0  0
  -28.7780  -12.2440   18.9350 C   0  0  0  0  0  2  0  0  0  0  0  0
  -28.3710  -13.2030   20.0860 C   0  0  0  0  0  3  0  0  0  0  0  0
  -29.3220  -13.0350   21.2910 C   0  0  0  0  0  2  0  0  0  0  0  0
  -30.7040  -13.2480   20.8260 N   0  0  0  0  0  0  0  0  0  0  0  0
  -32.5530  -14.5130   20.4380 O   0  0  0  0  0  0  0  0  0  0  0  0
  -25.9620  -13.9510   20.6140 C   0  0  0  0  0  0  0  0  0  0  0  0
  -24.8300  -13.2430   20.9200 C   0  0  0  0  0  0  0  0  0  0  0  0
  -25.2180  -11.8690   20.9350 C   0  0  0  0  0  0  0  0  0  0  0  0
  -26.9730  -13.0130   20.4700 N   0  0  0  0  0  0  0  0  0  0  0  0
  -26.5200  -11.7550   20.7120 N   0  0  0  0  0  0  0  0  0  0  0  0
  -24.4110  -10.6500   21.0910 C   0  0  0  0  0  0  0  0  0  0  0  0
  -24.7380   -9.6650   22.0490 C   0  0  0  0  0  3  0  0  0  0  0  0
  -23.9380   -8.5110   22.1910 C   0  0  0  0  0  3  0  0  0  0  0  0
  -22.7960   -8.3340   21.3740 C   0  0  0  0  0  0  0  0  0  0  0  0
  -22.4890   -9.3060   20.4060 C   0  0  0  0  0  3  0  0  0  0  0  0
  -23.2880  -10.4520   20.2630 C   0  0  0  0  0  3  0  0  0  0  0  0
  -21.9740   -7.2350   21.4240 O   0  0  0  0  0  0  0  0  0  0  0  0
  -21.7790   -6.5330   22.5880 C   0  0  0  0  0  0  0  0  0  0  0  0
  -21.2810   -7.1520   23.7550 C   0  0  0  0  0  3  0  0  0  0  0  0
  -21.0280   -6.3810   24.9060 C   0  0  0  0  0  3  0  0  0  0  0  0
  -21.2650   -4.9930   24.8920 C   0  0  0  0  0  0  0  0  0  0  0  0
  -21.7560   -4.3750   23.7290 C   0  0  0  0  0  3  0  0  0  0  0  0
  -22.0100   -5.1430   22.5790 C   0  0  0  0  0  0  0  0  0  0  0  0
  -22.4640   -4.5380   21.4550 F   0  0  0  0  0  0  0  0  0  0  0  0
  -21.0160   -4.2520   25.9970 F   0  0  0  0  0  0  0  0  0  0  0  0
  -23.4460  -13.8010   21.0920 C   0  0  0  0  0  0  0  0  0  0  0  0
  -22.6300  -13.1680   21.9280 N   0  0  0  0  0  0  0  0  0  0  0  0
  -23.0960  -14.8330   20.5230 O   0  0  0  0  0  0  0  0  0  0  0  0
  -22.9220  -12.3310   22.4120 H   0  0  0  0  0  0  0  0  0  0  0  0
  -21.6990  -13.5240   22.0850 H   0  0  0  0  0  0  0  0  0  0  0  0
  -26.2060  -15.3060   20.4260 N   0  0  0  0  0  0  0  0  0  0  0  0
  -25.4590  -15.9930   20.4570 H   0  0  0  0  0  0  0  0  0  0  0  0
  -27.0920  -15.6940   20.1290 H   0  0  0  0  0  0  0  0  0  0  0  0
  -28.2330  -24.9990   21.0630 C   0  0  0  0  0  3  0  0  0  0  0  0
  -29.4120  -24.6260   21.9990 C   0  0  0  0  0  2  0  0  0  0  0  0
  -28.9570  -24.3340   23.3100 O   0  0  0  0  0  0  0  0  0  0  0  0
  -29.7110  -24.0760   23.8350 H   0  0  0  0  0  0  0  0  0  0  0  0
  -28.7590  -25.7120   19.7810 C   0  0  0  0  0  2  0  0  0  0  0  0
  -28.7410  -27.1340   19.9060 O   0  0  0  0  0  0  0  0  0  0  0  0
  -24.7380  -31.7870   23.4430 C   0  0  0  0  0  0  0  0  0  0  0  0
  -27.5180  -27.7720   19.9470 C   0  0  0  0  0  0  0  0  0  0  0  0
  -23.5690  -30.5060   21.6790 C   0  0  0  0  0  3  0  0  0  0  0  0
  -25.0620  -29.1630   20.1110 C   0  0  0  0  0  0  0  0  0  0  0  0
  -26.0770  -30.9770   21.5040 C   0  0  0  0  0  2  0  0  0  0  0  0
  -26.2040  -29.6790   20.7370 C   0  0  0  0  0  0  0  0  0  0  0  0
  -27.4330  -28.9930   20.6470 C   0  0  0  0  0  3  0  0  0  0  0  0
  -26.3540  -27.2590   19.3250 C   0  0  0  0  0  3  0  0  0  0  0  0
  -25.1320  -27.9520   19.4040 C   0  0  0  0  0  3  0  0  0  0  0  0
  -23.7890  -29.9620   20.2420 C   0  0  0  0  0  2  0  0  0  0  0  0
  -24.8120  -31.0980   22.2690 N   0  0  0  0  0  0  0  0  0  0  0  0
  -23.6520  -31.9690   24.0100 O   0  0  0  0  0  0  0  0  0  0  0  0
  -22.9610  -29.3750   22.5400 C   0  0  0  0  0  0  0  0  0  0  0  0
  -21.6590  -29.1120   22.3460 N   0  0  0  0  0  0  0  0  0  0  0  0
  -23.6590  -28.7400   23.3340 O   0  0  0  0  0  0  0  0  0  0  0  0
  -21.1560  -29.6840   21.6820 H   0  0  0  0  0  0  0  0  0  0  0  0
  -18.3770  -27.6160   22.5630 C   0  0  0  0  0  0  0  0  0  0  0  0
  -20.8830  -28.0690   23.0130 C   0  0  0  0  0  3  0  0  0  0  0  0
  -21.1430  -26.6840   22.3750 C   0  0  0  0  0  2  0  0  0  0  0  0
  -20.1350  -26.3280   21.2770 C   0  0  0  0  0  2  0  0  0  0  0  0
  -18.7100  -26.3240   21.8370 C   0  0  0  0  0  2  0  0  0  0  0  0
  -19.3990  -28.4430   23.1030 C   0  0  0  0  0  0  0  0  0  0  0  0
  -19.0380  -29.6530   23.7360 C   0  0  0  0  0  3  0  0  0  0  0  0
  -17.6870  -30.0370   23.8370 C   0  0  0  0  0  3  0  0  0  0  0  0
  -16.6800  -29.2050   23.3190 C   0  0  0  0  0  3  0  0  0  0  0  0
  -17.0250  -27.9970   22.6870 C   0  0  0  0  0  3  0  0  0  0  0  0
  -26.0070  -32.3990   24.1160 C   0  0  0  0  0  3  0  0  0  0  0  0
  -26.4840  -31.5970   25.3880 C   0  0  1  0  0  0  0  0  0  0  0  0
  -25.3510  -31.3020   26.4000 C   0  0  0  0  0  1  0  0  0  0  0  0
  -27.1100  -30.2450   24.9750 C   0  0  0  0  0  1  0  0  0  0  0  0
  -27.5930  -32.3880   26.1220 C   0  0  0  0  0  1  0  0  0  0  0  0
  -25.6950  -33.7900   24.4660 N   0  0  0  0  0  0  0  0  0  0  0  0
  -26.0490  -34.8540   23.7330 C   0  0  0  0  0  0  0  0  0  0  0  0
  -26.7460  -34.7670   22.7180 O   0  0  0  0  0  0  0  0  0  0  0  0
  -25.0850  -33.9330   25.2590 H   0  0  0  0  0  0  0  0  0  0  0  0
  -24.3290  -36.6490   23.3700 C   0  0  0  0  0  1  0  0  0  0  0  0
  -25.5530  -36.2350   24.2030 C   0  0  0  0  0  3  0  0  0  0  0  0
  -27.6690  -37.1050   25.0910 C   0  0  0  0  0  1  0  0  0  0  0  0
  -26.5890  -37.2900   24.1260 N   0  0  0  0  0  0  0  0  0  0  0  0
  -26.1800  -38.2070   24.2790 H   0  0  0  0  0  0  0  0  0  0  0  0
  1 48  1  0
  1  2  1  0
  3  4  1  0
  3  2  1  0
  4  6  1  0
  5  3  2  0
  7  8  1  0
  7  4  1  0
  8  9  1  0
  9 10  1  0
 10 11  1  0
 12 11  1  0
 13 18  1  0
 14 15  1  0
 14 13  1  0
 16 15  1  0
 16 23  1  0
 16 17  1  0
 18 12  1  0
 18 17  1  0
 19 12  2  0
 20 21  2  0
 21 22  1  0
 21 40  1  0
 22 25  1  0
 23 20  1  0
 23 24  1  0
 24 22  2  0
 25 26  1  0
 26 27  2  0
 28 31  1  0
 28 27  1  0
 29 28  2  0
 30 29  1  0
 30 25  2  0
 31 32  1  0
 32 33  1  0
 33 34  2  0
 35 34  1  0
 35 39  1  0
 36 35  2  0
 37 32  2  0
 37 36  1  0
 38 37  1  0
 40 41  1  0
 41 44  1  0
 41 43  1  0
 42 40  2  0
 45 46  1  0
 45 20  1  0
 47 45  1  0
 48 52  1  0
 48 49  1  0
 49 50  1  0
 50 51  1  0
 52 53  1  0
 53 55  1  0
 54 65  2  0
 55 60  1  0
 56 64  1  0
 56 66  1  0
 57 63  1  0
 57 59  1  0
 58 64  1  0
 59 58  1  0
 60 59  2  0
 61 62  1  0
 61 55  2  0
 62 57  2  0
 63 56  1  0
 64 54  1  0
 66 68  2  0
 67 66  1  0
 69 67  1  0
 70 79  2  0
 70 75  1  0
 71 67  1  0
 71 75  1  0
 72 71  1  0
 73 74  1  0
 73 72  1  0
 74 70  1  0
 75 76  2  0
 76 77  1  0
 78 77  2  0
 79 78  1  0
 80 54  1  0
 80 85  1  0
 80 81  1  0
 81 84  1  1
 81 82  1  0
 83 81  1  0
 85 88  1  0
 86 90  1  0
 86 85  1  0
 87 86  2  0
 90 89  1  0
 92 90  1  0
 92 93  1  0
 92 91  1  0
M  ISO  4  11 100  12 100  52 101  53 101
M  END
>  <TORSDO>  (27) 
F 27

>  <SCORE>  (27) 
-10.942

>  <name>  (27) 
26

>  <ligand_id>  (27) 
26

>  <original_smiles>  (27) 
[H]OC([H])([H])C([H])(C([H])([H])Oc1c([H])c([H])c2c(c1[H])C([H])([H])N(C(=O)C([H])(N([H])C(=O)C([H])(N([H])C([H])([H])[H])C([H])([H])[H])C(C([H])([H])[H])(C([H])([H])[H])C([H])([H])[H])C([H])(C(=O)N([H])C1([H])c3c([H])c([H])c([H])c([H])c3C([H])([H])C([H])([H])C1([H])[H])C2([H])[H])C([H])([H])C([H])([H])C(=O)N([H])C([H])([H])C([H])([H])C([H])([H])C([H])([H])C([H])([H])C(=O)N1C([H])([H])C([H])([H])C([H])([H])C([H])(n2nc(-c3c([H])c([H])c(Oc4c([H])c([H])c(F)c([H])c4F)c([H])c3[H])c(C(=O)N([H])[H])c2N([H])[H])C1([H])[H]

>  <smiles>  (27) 
[H]OC([H])([H])C([H])(C([H])([H])Oc1c([H])c([H])c2c(c1[H])C([H])([H])N(C(=O)C([H])(N([H])C(=O)C([H])(N([H])C([H])([H])[H])C([H])([H])[H])C(C([H])([H])[H])(C([H])([H])[H])C([H])([H])[H])C([H])(C(=O)N([H])C1([H])c3c([H])c([H])c([H])c([H])c3C([H])([H])C([H])([H])C1([H])[H])C2([H])[H])C([H])([H])C([H])([H])C(=O)N([H])C([H])([H])C([H])([H])C([H])([H])C([H])([H])C([H])([H])C(=O)N1C([H])([H])C([H])([H])C([H])([H])C([H])(n2nc(-c3c([H])c([H])c(Oc4c([H])c([H])c(F)c([H])c4F)c([H])c3[H])c(C(=O)N([H])[H])c2N([H])[H])C1([H])[H]

$$$$
27:0:0
     RDKit          3D

 94103  0  0  1  0  0  0  0  0999 V2000
  -29.5290  -20.8830   17.4040 C   0  0  0  0  0  3  0  0  0  0  0  0
  -31.5350  -21.5880   18.5900 C   0  0  0  0  0  3  0  0  0  0  0  0
  -29.2070  -22.2310   17.1430 C   0  0  0  0  0  3  0  0  0  0  0  0
  -31.2080  -22.9370   18.3380 C   0  0  0  0  0  3  0  0  0  0  0  0
  -30.7030  -20.5520   18.1160 C   0  0  0  0  0  0  0  0  0  0  0  0
  -30.0500  -23.2640   17.6010 C   0  0  0  0  0  0  0  0  0  0  0  0
  -31.0950  -19.0930   18.3290 C   0  0  0  0  0  2  0  0  0  0  0  0
  -32.1330  -17.9000   20.3720 C   0  0  0  0  0  2  0  0  0  0  0  0
  -31.5960  -17.2050   21.6260 C   0  0  0  0  0  2  0  0  0  0  0  0
  -29.8120  -17.5120   19.9510 C   0  0  0  0  0  2  0  0  0  0  0  0
  -30.9000  -18.5860   19.7760 C   0  0  0  0  0  3  0  0  0  0  0  0
  -30.1640  -16.7650   21.2620 C   0  0  0  0  0  3  0  0  0  0  0  0
  -30.6070  -14.3940   20.4320 C   0  0  0  0  0  0  0  0  0  0  0  0
  -30.2640  -12.2920   19.1890 C   0  0  0  0  0  2  0  0  0  0  0  0
  -29.2940  -12.5530   18.0180 C   0  0  0  0  0  2  0  0  0  0  0  0
  -27.8300  -12.4150   18.4760 C   0  0  0  0  0  2  0  0  0  0  0  0
  -27.5320  -13.2040   19.7790 C   0  0  0  0  0  3  0  0  0  0  0  0
  -28.6070  -12.9130   20.8520 C   0  0  0  0  0  2  0  0  0  0  0  0
  -29.9290  -13.2260   20.2740 N   0  0  0  0  0  0  0  0  0  0  0  0
  -31.6710  -14.6380   19.8540 O   0  0  0  0  0  0  0  0  0  0  0  0
  -29.9630  -15.3120   21.1710 N   0  0  0  0  0  0  0  0  0  0  0  0
  -29.1270  -14.9670   21.6180 H   0  0  0  0  0  0  0  0  0  0  0  0
  -25.1440  -13.8100   20.5220 C   0  0  0  0  0  0  0  0  0  0  0  0
  -24.0800  -13.0350   20.9040 C   0  0  0  0  0  0  0  0  0  0  0  0
  -24.5410  -11.6850   20.8590 C   0  0  0  0  0  0  0  0  0  0  0  0
  -26.1850  -12.9300   20.2740 N   0  0  0  0  0  0  0  0  0  0  0  0
  -25.8260  -11.6450   20.5300 N   0  0  0  0  0  0  0  0  0  0  0  0
  -23.8220  -10.4190   21.0570 C   0  0  0  0  0  0  0  0  0  0  0  0
  -24.2820   -9.4440   21.9680 C   0  0  0  0  0  3  0  0  0  0  0  0
  -23.5640   -8.2430   22.1540 C   0  0  0  0  0  3  0  0  0  0  0  0
  -22.3710   -8.0100   21.4280 C   0  0  0  0  0  0  0  0  0  0  0  0
  -21.9300   -8.9760   20.5060 C   0  0  0  0  0  3  0  0  0  0  0  0
  -22.6480  -10.1670   20.3190 C   0  0  0  0  0  3  0  0  0  0  0  0
  -21.6210   -6.8630   21.5240 O   0  0  0  0  0  0  0  0  0  0  0  0
  -21.6180   -6.0990   22.6640 C   0  0  0  0  0  0  0  0  0  0  0  0
  -21.2500   -6.6320   23.9170 C   0  0  0  0  0  3  0  0  0  0  0  0
  -21.1920   -5.7950   25.0500 C   0  0  0  0  0  3  0  0  0  0  0  0
  -21.4930   -4.4250   24.9300 C   0  0  0  0  0  0  0  0  0  0  0  0
  -21.8520   -3.8910   23.6800 C   0  0  0  0  0  3  0  0  0  0  0  0
  -21.9120   -4.7240   22.5500 C   0  0  0  0  0  0  0  0  0  0  0  0
  -22.2390   -4.2010   21.3450 F   0  0  0  0  0  0  0  0  0  0  0  0
  -21.4300   -3.6180   26.0150 F   0  0  0  0  0  0  0  0  0  0  0  0
  -22.6870  -13.5080   21.2050 C   0  0  0  0  0  0  0  0  0  0  0  0
  -21.9800  -12.8040   22.0800 N   0  0  0  0  0  0  0  0  0  0  0  0
  -22.2350  -14.5340   20.7000 O   0  0  0  0  0  0  0  0  0  0  0  0
  -22.3610  -11.9760   22.5130 H   0  0  0  0  0  0  0  0  0  0  0  0
  -21.0440  -13.0940   22.3220 H   0  0  0  0  0  0  0  0  0  0  0  0
  -25.3130  -15.1820   20.3520 N   0  0  0  0  0  0  0  0  0  0  0  0
  -24.5660  -15.8520   20.5040 H   0  0  0  0  0  0  0  0  0  0  0  0
  -26.1740  -15.6140   20.0420 H   0  0  0  0  0  0  0  0  0  0  0  0
  -29.7090  -24.7170   17.3030 C   0  0  0  0  0  2  0  0  0  0  0  0
  -28.6550  -25.2810   18.2740 C   0  0  0  0  0  2  0  0  0  0  0  0
  -29.0970  -26.5700   18.9840 C   0  0  0  0  0  2  0  0  0  0  0  0
  -28.3900  -26.7570   20.2040 O   0  0  0  0  0  0  0  0  0  0  0  0
  -24.5720  -31.8760   23.2410 C   0  0  0  0  0  0  0  0  0  0  0  0
  -27.2220  -27.4720   20.1520 C   0  0  0  0  0  0  0  0  0  0  0  0
  -23.3600  -30.4740   21.6000 C   0  0  0  0  0  3  0  0  0  0  0  0
  -24.8130  -28.9390   20.1710 C   0  0  0  0  0  0  0  0  0  0  0  0
  -25.8790  -30.8450   21.3920 C   0  0  0  0  0  2  0  0  0  0  0  0
  -25.9660  -29.4740   20.7590 C   0  0  0  0  0  0  0  0  0  0  0  0
  -27.1690  -28.7420   20.7580 C   0  0  0  0  0  3  0  0  0  0  0  0
  -26.0530  -26.9320   19.5720 C   0  0  0  0  0  3  0  0  0  0  0  0
  -24.8490  -27.6620   19.5790 C   0  0  0  0  0  3  0  0  0  0  0  0
  -23.5640  -29.7900   20.2220 C   0  0  0  0  0  2  0  0  0  0  0  0
  -24.6220  -31.0780   22.1390 N   0  0  0  0  0  0  0  0  0  0  0  0
  -23.4920  -32.1520   23.7830 O   0  0  0  0  0  0  0  0  0  0  0  0
  -22.7110  -29.4560   22.5630 C   0  0  0  0  0  0  0  0  0  0  0  0
  -21.3870  -29.2750   22.4320 N   0  0  0  0  0  0  0  0  0  0  0  0
  -23.3930  -28.8340   23.3800 O   0  0  0  0  0  0  0  0  0  0  0  0
  -20.9000  -29.8290   21.7430 H   0  0  0  0  0  0  0  0  0  0  0  0
  -18.0110  -28.0850   22.9190 C   0  0  0  0  0  0  0  0  0  0  0  0
  -20.5680  -28.3390   23.2020 C   0  0  0  0  0  3  0  0  0  0  0  0
  -20.6710  -26.9080   22.6280 C   0  0  0  0  0  2  0  0  0  0  0  0
  -19.5740  -26.5850   21.6100 C   0  0  0  0  0  2  0  0  0  0  0  0
  -18.1890  -26.7340   22.2460 C   0  0  0  0  0  2  0  0  0  0  0  0
  -19.1290  -28.8470   23.3520 C   0  0  0  0  0  0  0  0  0  0  0  0
  -18.9090  -30.1120   23.9380 C   0  0  0  0  0  3  0  0  0  0  0  0
  -17.6040  -30.6170   24.0950 C   0  0  0  0  0  3  0  0  0  0  0  0
  -16.5020  -29.8530   23.6780 C   0  0  0  0  0  3  0  0  0  0  0  0
  -16.7060  -28.5880   23.0950 C   0  0  0  0  0  3  0  0  0  0  0  0
  -25.8620  -32.5020   23.8590 C   0  0  0  0  0  3  0  0  0  0  0  0
  -25.5610  -33.9000   24.1890 N   0  0  0  0  0  0  0  0  0  0  0  0
  -25.9000  -34.9490   23.4290 C   0  0  0  0  0  0  0  0  0  0  0  0
  -26.5700  -34.8420   22.3980 O   0  0  0  0  0  0  0  0  0  0  0  0
  -24.9700  -34.0610   24.9920 H   0  0  0  0  0  0  0  0  0  0  0  0
  -24.1780  -36.7460   23.0650 C   0  0  0  0  0  1  0  0  0  0  0  0
  -25.4150  -36.3400   23.8830 C   0  0  0  0  0  3  0  0  0  0  0  0
  -27.5520  -37.2130   24.7160 C   0  0  0  0  0  1  0  0  0  0  0  0
  -26.4520  -37.3890   23.7730 N   0  0  0  0  0  0  0  0  0  0  0  0
  -26.0490  -38.3110   23.9220 H   0  0  0  0  0  0  0  0  0  0  0  0
  -26.3830  -31.7260   25.1310 C   0  0  1  0  0  0  0  0  0  0  0  0
  -25.2950  -31.4870   26.2030 C   0  0  0  0  0  1  0  0  0  0  0  0
  -26.9610  -30.3480   24.7290 C   0  0  0  0  0  1  0  0  0  0  0  0
  -27.5420  -32.5140   25.7880 C   0  0  0  0  0  1  0  0  0  0  0  0
  1  5  1  0
  3  1  2  0
  3  6  1  0
  4  2  1  0
  5  7  1  0
  5  2  2  0
  6  4  2  0
  8  9  1  0
 10 12  1  0
 11  7  1  0
 11 10  1  0
 11  8  1  0
 12 21  1  0
 12  9  1  0
 13 21  1  0
 14 19  1  0
 15 16  1  0
 15 14  1  0
 17 16  1  0
 17 26  1  0
 17 18  1  0
 19 13  1  0
 19 18  1  0
 20 13  2  0
 21 22  1  0
 23 24  2  0
 24 43  1  0
 25 24  1  0
 25 28  1  0
 26 23  1  0
 26 27  1  0
 27 25  2  0
 28 29  1  0
 29 30  2  0
 31 34  1  0
 31 30  1  0
 32 31  2  0
 33 32  1  0
 33 28  2  0
 34 35  1  0
 35 36  1  0
 36 37  2  0
 38 37  1  0
 38 42  1  0
 39 38  2  0
 40 35  2  0
 40 39  1  0
 41 40  1  0
 43 44  1  0
 44 47  1  0
 44 46  1  0
 45 43  2  0
 48 49  1  0
 48 23  1  0
 50 48  1  0
 51  6  1  0
 51 52  1  0
 52 53  1  0
 53 54  1  0
 55 66  2  0
 56 54  1  0
 56 61  1  0
 57 65  1  0
 57 67  1  0
 58 64  1  0
 58 60  1  0
 59 65  1  0
 60 59  1  0
 61 60  2  0
 62 63  1  0
 62 56  2  0
 63 58  2  0
 64 57  1  0
 65 55  1  0
 67 69  2  0
 68 67  1  0
 70 68  1  0
 71 80  2  0
 71 76  1  0
 72 68  1  0
 72 76  1  0
 73 72  1  0
 74 75  1  0
 74 73  1  0
 75 71  1  0
 76 77  2  0
 77 78  1  0
 79 78  2  0
 80 79  1  0
 81 55  1  0
 81 82  1  0
 81 91  1  0
 82 85  1  0
 83 87  1  0
 83 82  1  0
 84 83  2  0
 87 86  1  0
 89 87  1  0
 89 90  1  0
 89 88  1  0
 91 94  1  1
 91 92  1  0
 93 91  1  0
M  ISO  4  13 100  21 100  53 101  54 101
M  END
>  <TORSDO>  (28) 
F 21

>  <SCORE>  (28) 
-13.342

>  <name>  (28) 
27

>  <ligand_id>  (28) 
27

>  <original_smiles>  (28) 
[H]c1c([H])c([H])c2c(c1[H])C([H])([H])C([H])([H])C([H])([H])C2([H])N([H])C(=O)C1([H])N(C(=O)C([H])(N([H])C(=O)C([H])(N([H])C([H])([H])[H])C([H])([H])[H])C(C([H])([H])[H])(C([H])([H])[H])C([H])([H])[H])C([H])([H])c2c([H])c(OC([H])([H])C([H])([H])C([H])([H])c3c([H])c([H])c(C([H])([H])C4([H])C([H])([H])C([H])([H])C([H])(N([H])C(=O)N5C([H])([H])C([H])([H])C([H])([H])C([H])(n6nc(-c7c([H])c([H])c(Oc8c([H])c([H])c(F)c([H])c8F)c([H])c7[H])c(C(=O)N([H])[H])c6N([H])[H])C5([H])[H])C4([H])[H])c([H])c3[H])c([H])c([H])c2C1([H])[H]

>  <smiles>  (28) 
[H]c1c([H])c([H])c2c(c1[H])C([H])([H])C([H])([H])C([H])([H])C2([H])N([H])C(=O)C1([H])N(C(=O)C([H])(N([H])C(=O)C([H])(N([H])C([H])([H])[H])C([H])([H])[H])C(C([H])([H])[H])(C([H])([H])[H])C([H])([H])[H])C([H])([H])c2c([H])c(OC([H])([H])C([H])([H])C([H])([H])c3c([H])c([H])c(C([H])([H])C4([H])C([H])([H])C([H])([H])C([H])(N([H])C(=O)N5C([H])([H])C([H])([H])C([H])([H])C([H])(n6nc(-c7c([H])c([H])c(Oc8c([H])c([H])c(F)c([H])c8F)c([H])c7[H])c(C(=O)N([H])[H])c6N([H])[H])C5([H])[H])C4([H])[H])c([H])c3[H])c([H])c([H])c2C1([H])[H]

$$$$
28:0:0
     RDKit          3D

 98106  0  0  1  0  0  0  0  0999 V2000
  -31.4330  -20.5150   24.7340 C   0  0  0  0  0  3  0  0  0  0  0  0
  -32.1980  -20.4150   23.5570 C   0  0  0  0  0  3  0  0  0  0  0  0
  -30.3740  -21.4230   24.7990 C   0  0  0  0  0  3  0  0  0  0  0  0
  -31.9130  -21.2100   22.4220 C   0  0  0  0  0  0  0  0  0  0  0  0
  -30.9200  -22.2470   22.5330 C   0  0  0  0  0  0  0  0  0  0  0  0
  -30.1160  -22.2710   23.7030 C   0  0  0  0  0  0  0  0  0  0  0  0
  -28.9930  -23.0850   23.7930 N   0  0  0  0  0  0  0  0  0  0  0  0
  -28.2970  -22.8000   24.4740 H   0  0  0  0  0  0  0  0  0  0  0  0
  -28.5830  -23.3250   22.9030 H   0  0  0  0  0  0  0  0  0  0  0  0
  -32.6940  -20.8920   21.1750 C   0  0  0  0  0  0  0  0  0  0  0  0
  -33.0800  -21.7330   20.3550 O   0  0  0  0  0  0  0  0  0  0  0  0
  -33.0290  -19.3970   20.9100 C   0  0  0  0  0  2  0  0  0  0  0  0
  -32.0170  -18.6170   20.0370 C   0  0  0  0  0  2  0  0  0  0  0  0
  -30.6300  -18.2600   20.6300 C   0  0  0  0  0  2  0  0  0  0  0  0
  -30.5710  -17.0740   21.6270 C   0  0  0  0  0  2  0  0  0  0  0  0
  -29.8160  -15.7980   21.1120 C   0  0  0  0  0  2  0  0  0  0  0  0
  -30.5760  -15.1930   19.9160 C   0  0  0  0  0  2  0  0  0  0  0  0
  -30.6720  -13.7070   19.5050 C   0  0  0  0  0  0  0  0  0  0  0  0
  -29.8840  -11.5700   18.6080 C   0  0  0  0  0  2  0  0  0  0  0  0
  -28.8920  -11.8570   17.4760 C   0  0  0  0  0  2  0  0  0  0  0  0
  -27.4820  -11.7730   18.0740 C   0  0  0  0  0  2  0  0  0  0  0  0
  -27.3190  -12.6530   19.3470 C   0  0  0  0  0  3  0  0  0  0  0  0
  -28.5170  -12.6180   20.3300 C   0  0  0  0  0  2  0  0  0  0  0  0
  -29.7760  -12.6770   19.5790 N   0  0  0  0  0  0  0  0  0  0  0  0
  -31.6910  -13.5430   18.8360 O   0  0  0  0  0  0  0  0  0  0  0  0
  -25.0710  -13.2650   20.4160 C   0  0  0  0  0  0  0  0  0  0  0  0
  -24.0520  -12.4960   20.9210 C   0  0  0  0  0  0  0  0  0  0  0  0
  -24.4810  -11.1350   20.8140 C   0  0  0  0  0  0  0  0  0  0  0  0
  -26.0570  -12.3740   20.0270 N   0  0  0  0  0  0  0  0  0  0  0  0
  -25.7200  -11.0950   20.3370 N   0  0  0  0  0  0  0  0  0  0  0  0
  -23.7710   -9.8760   21.0880 C   0  0  0  0  0  0  0  0  0  0  0  0
  -24.2950   -8.9120   21.9800 C   0  0  0  0  0  3  0  0  0  0  0  0
  -23.5770   -7.7270   22.2400 C   0  0  0  0  0  3  0  0  0  0  0  0
  -22.3300   -7.4980   21.6180 C   0  0  0  0  0  0  0  0  0  0  0  0
  -21.8230   -8.4520   20.7230 C   0  0  0  0  0  3  0  0  0  0  0  0
  -22.5350   -9.6300   20.4550 C   0  0  0  0  0  3  0  0  0  0  0  0
  -21.5710   -6.3660   21.7970 O   0  0  0  0  0  0  0  0  0  0  0  0
  -21.6170   -5.6450   22.9650 C   0  0  0  0  0  0  0  0  0  0  0  0
  -21.2780   -6.2170   24.2100 C   0  0  0  0  0  3  0  0  0  0  0  0
  -21.2720   -5.4230   25.3760 C   0  0  0  0  0  3  0  0  0  0  0  0
  -21.5930   -4.0550   25.2980 C   0  0  0  0  0  0  0  0  0  0  0  0
  -21.9250   -3.4780   24.0570 C   0  0  0  0  0  3  0  0  0  0  0  0
  -21.9330   -4.2720   22.8960 C   0  0  0  0  0  0  0  0  0  0  0  0
  -22.2340   -3.7030   21.7030 F   0  0  0  0  0  0  0  0  0  0  0  0
  -21.5800   -3.2900   26.4160 F   0  0  0  0  0  0  0  0  0  0  0  0
  -22.7070  -12.9810   21.3800 C   0  0  0  0  0  0  0  0  0  0  0  0
  -22.0990  -12.2910   22.3420 N   0  0  0  0  0  0  0  0  0  0  0  0
  -22.2210  -14.0230   20.9360 O   0  0  0  0  0  0  0  0  0  0  0  0
  -22.5130  -11.4520   22.7330 H   0  0  0  0  0  0  0  0  0  0  0  0
  -21.1960  -12.5960   22.6930 H   0  0  0  0  0  0  0  0  0  0  0  0
  -25.2110  -14.6320   20.2250 N   0  0  0  0  0  0  0  0  0  0  0  0
  -24.4590  -15.2740   20.4510 H   0  0  0  0  0  0  0  0  0  0  0  0
  -26.0290  -15.0830   19.8390 H   0  0  0  0  0  0  0  0  0  0  0  0
  -30.7050  -23.3690   21.4940 C   0  0  0  0  0  2  0  0  0  0  0  0
  -29.4090  -23.2920   20.6440 C   0  0  0  0  0  2  0  0  0  0  0  0
  -28.9380  -24.6910   20.1980 C   0  0  0  0  0  2  0  0  0  0  0  0
  -27.9070  -24.7450   19.0610 C   0  0  0  0  0  2  0  0  0  0  0  0
  -27.9180  -26.0990   18.5910 O   0  0  0  0  0  0  0  0  0  0  0  0
  -25.0260  -30.9810   22.8870 C   0  0  0  0  0  0  0  0  0  0  0  0
  -26.8430  -26.9070   18.8520 C   0  0  0  0  0  0  0  0  0  0  0  0
  -23.5300  -30.0500   21.1480 C   0  0  0  0  0  3  0  0  0  0  0  0
  -24.6680  -28.6440   19.3540 C   0  0  0  0  0  0  0  0  0  0  0  0
  -26.0560  -30.1490   20.7790 C   0  0  0  0  0  2  0  0  0  0  0  0
  -25.9190  -28.9120   19.9120 C   0  0  0  0  0  0  0  0  0  0  0  0
  -27.0180  -28.0620   19.6440 C   0  0  0  0  0  3  0  0  0  0  0  0
  -25.5650  -26.6460   18.2950 C   0  0  0  0  0  3  0  0  0  0  0  0
  -24.4860  -27.5190   18.5250 C   0  0  0  0  0  3  0  0  0  0  0  0
  -23.5530  -29.6200   19.6540 C   0  0  0  0  0  2  0  0  0  0  0  0
  -24.8940  -30.3970   21.6630 N   0  0  0  0  0  0  0  0  0  0  0  0
  -24.0270  -31.2780   23.5640 O   0  0  0  0  0  0  0  0  0  0  0  0
  -22.8290  -28.9550   21.9740 C   0  0  0  0  0  0  0  0  0  0  0  0
  -21.4840  -28.9490   21.9440 N   0  0  0  0  0  0  0  0  0  0  0  0
  -23.4870  -28.1260   22.6160 O   0  0  0  0  0  0  0  0  0  0  0  0
  -21.0220  -29.6760   21.4150 H   0  0  0  0  0  0  0  0  0  0  0  0
  -18.0320  -28.0640   22.5260 C   0  0  0  0  0  0  0  0  0  0  0  0
  -20.6130  -27.9820   22.6080 C   0  0  0  0  0  3  0  0  0  0  0  0
  -20.4960  -26.6830   21.7800 C   0  0  0  0  0  2  0  0  0  0  0  0
  -19.2950  -26.6750   20.8300 C   0  0  0  0  0  2  0  0  0  0  0  0
  -17.9910  -26.8510   21.6140 C   0  0  0  0  0  2  0  0  0  0  0  0
  -19.2660  -28.6040   22.9800 C   0  0  0  0  0  0  0  0  0  0  0  0
  -19.2500  -29.7590   23.7960 C   0  0  0  0  0  3  0  0  0  0  0  0
  -18.0370  -30.3590   24.1670 C   0  0  0  0  0  3  0  0  0  0  0  0
  -16.8180  -29.8140   23.7260 C   0  0  0  0  0  3  0  0  0  0  0  0
  -16.8170  -28.6690   22.9110 C   0  0  0  0  0  3  0  0  0  0  0  0
  -26.4230  -31.3360   23.4800 C   0  0  0  0  0  3  0  0  0  0  0  0
  -26.2820  -32.6000   24.2100 N   0  0  0  0  0  0  0  0  0  0  0  0
  -26.7020  -33.7920   23.7560 C   0  0  0  0  0  0  0  0  0  0  0  0
  -27.3200  -33.9250   22.6960 O   0  0  0  0  0  0  0  0  0  0  0  0
  -25.7280  -32.5800   25.0520 H   0  0  0  0  0  0  0  0  0  0  0  0
  -25.1780  -35.7710   24.0330 C   0  0  0  0  0  1  0  0  0  0  0  0
  -26.3830  -35.0240   24.6190 C   0  0  0  0  0  3  0  0  0  0  0  0
  -28.6210  -35.4170   25.5480 C   0  0  0  0  0  1  0  0  0  0  0  0
  -27.5250  -35.9560   24.7560 N   0  0  0  0  0  0  0  0  0  0  0  0
  -27.2240  -36.8320   25.1800 H   0  0  0  0  0  0  0  0  0  0  0  0
  -26.9980  -30.2090   24.4260 C   0  0  1  0  0  0  0  0  0  0  0  0
  -26.0090  -29.7640   25.5280 C   0  0  0  0  0  1  0  0  0  0  0  0
  -27.3890  -28.9590   23.6020 C   0  0  0  0  0  1  0  0  0  0  0  0
  -28.2870  -30.7110   25.1180 C   0  0  0  0  0  1  0  0  0  0  0  0
  1  3  1  0
  2  1  2  0
  4  5  2  0
  4  2  1  0
  5  6  1  0
  6  7  1  0
  6  3  2  0
  7  8  1  0
  9  7  1  0
 10  4  1  0
 11 10  2  0
 12 10  1  0
 13 14  1  0
 13 12  1  0
 14 15  1  0
 16 15  1  0
 17 16  1  0
 18 24  1  0
 18 17  1  0
 19 24  1  0
 20 21  1  0
 20 19  1  0
 22 21  1  0
 22 29  1  0
 22 23  1  0
 24 23  1  0
 25 18  2  0
 26 27  2  0
 27 46  1  0
 28 27  1  0
 28 31  1  0
 29 30  1  0
 29 26  1  0
 30 28  2  0
 31 32  1  0
 32 33  2  0
 34 37  1  0
 34 33  1  0
 35 34  2  0
 36 35  1  0
 36 31  2  0
 37 38  1  0
 38 39  1  0
 39 40  2  0
 41 40  1  0
 41 45  1  0
 42 41  2  0
 43 38  2  0
 43 42  1  0
 44 43  1  0
 46 47  1  0
 47 50  1  0
 47 49  1  0
 48 46  2  0
 51 26  1  0
 51 52  1  0
 53 51  1  0
 54  5  1  0
 55 54  1  0
 56 55  1  0
 57 56  1  0
 58 60  1  0
 58 57  1  0
 59 70  2  0
 60 65  1  0
 61 69  1  0
 61 71  1  0
 62 68  1  0
 62 64  1  0
 63 69  1  0
 64 63  1  0
 65 64  2  0
 66 67  1  0
 66 60  2  0
 67 62  2  0
 68 61  1  0
 69 59  1  0
 71 73  2  0
 72 71  1  0
 74 72  1  0
 75 84  2  0
 75 80  1  0
 76 72  1  0
 76 80  1  0
 77 76  1  0
 78 79  1  0
 78 77  1  0
 79 75  1  0
 80 81  2  0
 81 82  1  0
 83 82  2  0
 84 83  1  0
 85 59  1  0
 85 86  1  0
 85 95  1  0
 86 89  1  0
 87 86  1  0
 87 91  1  0
 88 87  2  0
 91 90  1  0
 91 93  1  0
 93 94  1  0
 93 92  1  0
 95 98  1  1
 95 96  1  0
 97 95  1  0
M  ISO  4  17 100  18 100  57 101  58 101
M  END
>  <TORSDO>  (29) 
F 28

>  <SCORE>  (29) 
-8.905

>  <name>  (29) 
28

>  <ligand_id>  (29) 
28

>  <original_smiles>  (29) 
[H]c1c([H])c(C(=O)C([H])([H])C([H])([H])C([H])([H])C([H])([H])C([H])([H])C([H])([H])C(=O)N2C([H])([H])C([H])([H])C([H])([H])C([H])(n3nc(-c4c([H])c([H])c(Oc5c([H])c([H])c(F)c([H])c5F)c([H])c4[H])c(C(=O)N([H])[H])c3N([H])[H])C2([H])[H])c(C([H])([H])C([H])([H])C([H])([H])C([H])([H])Oc2c([H])c([H])c3c(c2[H])C([H])([H])N(C(=O)C([H])(N([H])C(=O)C([H])(N([H])C([H])([H])[H])C([H])([H])[H])C(C([H])([H])[H])(C([H])([H])[H])C([H])([H])[H])C([H])(C(=O)N([H])C2([H])c4c([H])c([H])c([H])c([H])c4C([H])([H])C([H])([H])C2([H])[H])C3([H])[H])c(N([H])[H])c1[H]

>  <smiles>  (29) 
[H]c1c([H])c(C(=O)C([H])([H])C([H])([H])C([H])([H])C([H])([H])C([H])([H])C([H])([H])C(=O)N2C([H])([H])C([H])([H])C([H])([H])C([H])(n3nc(-c4c([H])c([H])c(Oc5c([H])c([H])c(F)c([H])c5F)c([H])c4[H])c(C(=O)N([H])[H])c3N([H])[H])C2([H])[H])c(C([H])([H])C([H])([H])C([H])([H])C([H])([H])Oc2c([H])c([H])c3c(c2[H])C([H])([H])N(C(=O)C([H])(N([H])C(=O)C([H])(N([H])C([H])([H])[H])C([H])([H])[H])C(C([H])([H])[H])(C([H])([H])[H])C([H])([H])[H])C([H])(C(=O)N([H])C2([H])c4c([H])c([H])c([H])c([H])c4C([H])([H])C([H])([H])C2([H])[H])C3([H])[H])c(N([H])[H])c1[H]

$$$$
29:0:0
     RDKit          3D

 99108  0  0  1  0  0  0  0  0999 V2000
  -33.3340  -25.1510   21.4840 C   0  0  0  0  0  3  0  0  0  0  0  0
  -33.4400  -25.9960   19.1940 C   0  0  0  0  0  3  0  0  0  0  0  0
  -32.5500  -26.2570   21.8540 C   0  0  0  0  0  3  0  0  0  0  0  0
  -32.6340  -27.0910   19.5620 C   0  0  0  0  0  3  0  0  0  0  0  0
  -33.7360  -24.9890   20.1390 C   0  0  0  0  0  0  0  0  0  0  0  0
  -32.1510  -27.1980   20.8830 C   0  0  0  0  0  0  0  0  0  0  0  0
  -34.4270  -23.7490   19.7140 C   0  0  0  0  0  0  0  0  0  0  0  0
  -35.6350  -23.6760   19.4750 O   0  0  0  0  0  0  0  0  0  0  0  0
  -33.4930  -22.5670   19.4460 C   0  0  0  0  0  2  0  0  0  0  0  0
  -34.0810  -21.1860   19.7710 C   0  0  0  0  0  2  0  0  0  0  0  0
  -31.7920  -18.1850   20.4590 C   0  0  0  0  0  3  0  0  0  0  0  0
  -32.7710  -19.1830   20.6230 C   0  0  0  0  0  3  0  0  0  0  0  0
  -31.0830  -18.0840   19.2460 C   0  0  0  0  0  3  0  0  0  0  0  0
  -32.3250  -19.9870   18.3640 C   0  0  0  0  0  3  0  0  0  0  0  0
  -33.0450  -20.0890   19.5770 C   0  0  0  0  0  0  0  0  0  0  0  0
  -31.3450  -18.9840   18.1940 C   0  0  0  0  0  0  0  0  0  0  0  0
  -30.5860  -18.8540   16.8800 C   0  0  0  0  0  2  0  0  0  0  0  0
  -31.4980  -18.3570   15.7500 C   0  0  0  0  0  2  0  0  0  0  0  0
  -30.8070  -18.2000   14.3740 C   0  0  0  0  0  2  0  0  0  0  0  0
  -31.7770  -17.6910   13.2910 C   0  0  0  0  0  0  0  0  0  0  0  0
  -32.2440  -16.9480   10.9830 C   0  0  0  0  0  2  0  0  0  0  0  0
  -32.5100  -18.1410   10.0500 C   0  0  0  0  0  2  0  0  0  0  0  0
  -31.1860  -18.6710    9.4700 C   0  0  0  0  0  2  0  0  0  0  0  0
  -30.1160  -18.9200   10.5660 C   0  0  0  0  0  3  0  0  0  0  0  0
  -29.9920  -17.7030   11.5140 C   0  0  0  0  0  2  0  0  0  0  0  0
  -31.3290  -17.3900   12.0440 N   0  0  0  0  0  0  0  0  0  0  0  0
  -32.9670  -17.5670   13.5970 O   0  0  0  0  0  0  0  0  0  0  0  0
  -28.0350  -20.3940   10.2040 C   0  0  0  0  0  0  0  0  0  0  0  0
  -26.9760  -20.2860    9.3440 C   0  0  0  0  0  0  0  0  0  0  0  0
  -27.1880  -19.0810    8.6060 C   0  0  0  0  0  0  0  0  0  0  0  0
  -28.8290  -19.2810    9.9750 N   0  0  0  0  0  0  0  0  0  0  0  0
  -28.2790  -18.4620    9.0390 N   0  0  0  0  0  0  0  0  0  0  0  0
  -26.4480  -18.5080    7.4750 C   0  0  0  0  0  0  0  0  0  0  0  0
  -25.9550  -17.1850    7.5070 C   0  0  0  0  0  3  0  0  0  0  0  0
  -25.2300  -16.6640    6.4140 C   0  0  0  0  0  3  0  0  0  0  0  0
  -24.9870  -17.4680    5.2760 C   0  0  0  0  0  0  0  0  0  0  0  0
  -25.5000  -18.7760    5.2380 C   0  0  0  0  0  3  0  0  0  0  0  0
  -26.2260  -19.2920    6.3250 C   0  0  0  0  0  3  0  0  0  0  0  0
  -24.3150  -17.0370    4.1560 O   0  0  0  0  0  0  0  0  0  0  0  0
  -23.3520  -16.0630    4.2260 C   0  0  0  0  0  0  0  0  0  0  0  0
  -22.2210  -16.1900    5.0610 C   0  0  0  0  0  3  0  0  0  0  0  0
  -21.2210  -15.1970    5.0480 C   0  0  0  0  0  3  0  0  0  0  0  0
  -21.3460  -14.0820    4.1980 C   0  0  0  0  0  0  0  0  0  0  0  0
  -22.4700  -13.9550    3.3630 C   0  0  0  0  0  3  0  0  0  0  0  0
  -23.4690  -14.9450    3.3760 C   0  0  0  0  0  0  0  0  0  0  0  0
  -24.5390  -14.8280    2.5520 F   0  0  0  0  0  0  0  0  0  0  0  0
  -20.3840  -13.1310    4.1810 F   0  0  0  0  0  0  0  0  0  0  0  0
  -25.8750  -21.2890    9.1450 C   0  0  0  0  0  0  0  0  0  0  0  0
  -24.6790  -20.8260    8.8030 N   0  0  0  0  0  0  0  0  0  0  0  0
  -26.0620  -22.4890    9.3430 O   0  0  0  0  0  0  0  0  0  0  0  0
  -24.5210  -19.8400    8.6600 H   0  0  0  0  0  0  0  0  0  0  0  0
  -23.9070  -21.4670    8.6830 H   0  0  0  0  0  0  0  0  0  0  0  0
  -28.3990  -21.3510   11.1470 N   0  0  0  0  0  0  0  0  0  0  0  0
  -27.8610  -22.1960   11.3010 H   0  0  0  0  0  0  0  0  0  0  0  0
  -29.2440  -21.3130   11.7040 H   0  0  0  0  0  0  0  0  0  0  0  0
  -31.1320  -28.2590   21.2540 C   0  0  0  0  0  2  0  0  0  0  0  0
  -29.8340  -27.6180   21.7880 C   0  0  0  0  0  2  0  0  0  0  0  0
  -29.1700  -26.6100   20.8220 C   0  0  0  0  0  2  0  0  0  0  0  0
  -28.6550  -27.1870   19.6220 O   0  0  0  0  0  0  0  0  0  0  0  0
  -24.5180  -31.7760   23.1230 C   0  0  0  0  0  0  0  0  0  0  0  0
  -27.4260  -27.7820   19.7440 C   0  0  0  0  0  0  0  0  0  0  0  0
  -23.3670  -30.3330   21.4710 C   0  0  0  0  0  3  0  0  0  0  0  0
  -24.8900  -28.9920   19.9300 C   0  0  0  0  0  0  0  0  0  0  0  0
  -25.8250  -30.9550   21.1720 C   0  0  0  0  0  2  0  0  0  0  0  0
  -26.0090  -29.6260   20.4760 C   0  0  0  0  0  0  0  0  0  0  0  0
  -27.2810  -29.0390   20.3640 C   0  0  0  0  0  3  0  0  0  0  0  0
  -26.2970  -27.1490   19.1910 C   0  0  0  0  0  3  0  0  0  0  0  0
  -25.0250  -27.7510   19.2800 C   0  0  0  0  0  3  0  0  0  0  0  0
  -23.5720  -29.7170   20.0600 C   0  0  0  0  0  2  0  0  0  0  0  0
  -24.5900  -31.0320   21.9830 N   0  0  0  0  0  0  0  0  0  0  0  0
  -23.4440  -31.9270   23.7210 O   0  0  0  0  0  0  0  0  0  0  0  0
  -22.8580  -29.2200   22.4140 C   0  0  0  0  0  0  0  0  0  0  0  0
  -21.5840  -28.8350   22.2440 N   0  0  0  0  0  0  0  0  0  0  0  0
  -23.6060  -28.7070   23.2510 O   0  0  0  0  0  0  0  0  0  0  0  0
  -21.0310  -29.3150   21.5460 H   0  0  0  0  0  0  0  0  0  0  0  0
  -18.4440  -27.0870   22.5730 C   0  0  0  0  0  0  0  0  0  0  0  0
  -20.9000  -27.7790   22.9880 C   0  0  0  0  0  3  0  0  0  0  0  0
  -21.2770  -26.3820   22.4430 C   0  0  0  0  0  2  0  0  0  0  0  0
  -20.3100  -25.8690   21.3720 C   0  0  0  0  0  2  0  0  0  0  0  0
  -18.8890  -25.7820   21.9350 C   0  0  0  0  0  2  0  0  0  0  0  0
  -19.3890  -28.0320   23.0530 C   0  0  0  0  0  0  0  0  0  0  0  0
  -18.9250  -29.2470   23.6020 C   0  0  0  0  0  3  0  0  0  0  0  0
  -17.5470  -29.5210   23.6840 C   0  0  0  0  0  3  0  0  0  0  0  0
  -16.6160  -28.5740   23.2230 C   0  0  0  0  0  3  0  0  0  0  0  0
  -17.0640  -27.3600   22.6720 C   0  0  0  0  0  3  0  0  0  0  0  0
  -25.7730  -32.4900   23.7170 C   0  0  0  0  0  3  0  0  0  0  0  0
  -26.3660  -31.7500   24.9780 C   0  0  1  0  0  0  0  0  0  0  0  0
  -25.3160  -31.4450   26.0700 C   0  0  0  0  0  1  0  0  0  0  0  0
  -27.0200  -30.4100   24.5630 C   0  0  0  0  0  1  0  0  0  0  0  0
  -27.4800  -32.6100   25.6190 C   0  0  0  0  0  1  0  0  0  0  0  0
  -25.3800  -33.8660   24.0490 N   0  0  0  0  0  0  0  0  0  0  0  0
  -25.6960  -34.9450   23.3190 C   0  0  0  0  0  0  0  0  0  0  0  0
  -26.4230  -34.8900   22.3220 O   0  0  0  0  0  0  0  0  0  0  0  0
  -24.7310  -33.9780   24.8150 H   0  0  0  0  0  0  0  0  0  0  0  0
  -23.9220  -36.6720   22.8750 C   0  0  0  0  0  1  0  0  0  0  0  0
  -25.1170  -36.2990   23.7660 C   0  0  0  0  0  3  0  0  0  0  0  0
  -27.1470  -37.2610   24.7610 C   0  0  0  0  0  1  0  0  0  0  0  0
  -26.1060  -37.3980   23.7460 N   0  0  0  0  0  0  0  0  0  0  0  0
  -25.6490  -38.2950   23.8820 H   0  0  0  0  0  0  0  0  0  0  0  0
  1  3  1  0
  2  4  2  0
  2  5  1  0
  4  6  1  0
  5  1  2  0
  6 56  1  0
  6  3  2  0
  7  5  1  0
  8  7  2  0
  9  7  1  0
  9 10  1  0
 11 12  1  0
 13 11  2  0
 14 15  1  0
 15 10  1  0
 15 12  2  0
 16 14  2  0
 16 13  1  0
 17 16  1  0
 18 17  1  0
 19 18  1  0
 20 27  2  0
 20 19  1  0
 21 26  1  0
 22 21  1  0
 23 22  1  0
 24 23  1  0
 24 25  1  0
 25 26  1  0
 26 20  1  0
 28 53  1  0
 29 28  2  0
 30 32  2  0
 30 29  1  0
 31 28  1  0
 31 24  1  0
 32 31  1  0
 33 34  1  0
 33 30  1  0
 35 34  2  0
 36 35  1  0
 37 36  2  0
 37 38  1  0
 38 33  2  0
 39 40  1  0
 39 36  1  0
 40 41  1  0
 42 41  2  0
 43 42  1  0
 44 45  1  0
 44 43  2  0
 45 40  2  0
 46 45  1  0
 47 43  1  0
 48 50  2  0
 48 29  1  0
 49 48  1  0
 51 49  1  0
 52 49  1  0
 53 54  1  0
 53 55  1  0
 56 57  1  0
 58 57  1  0
 59 61  1  0
 59 58  1  0
 60 71  2  0
 61 66  1  0
 62 70  1  0
 62 72  1  0
 63 69  1  0
 63 65  1  0
 64 70  1  0
 65 64  1  0
 66 65  2  0
 67 68  1  0
 67 61  2  0
 68 63  2  0
 69 62  1  0
 70 60  1  0
 72 74  2  0
 73 72  1  0
 75 73  1  0
 76 85  2  0
 76 81  1  0
 77 73  1  0
 77 81  1  0
 78 77  1  0
 79 80  1  0
 79 78  1  0
 80 76  1  0
 81 82  2  0
 82 83  1  0
 84 83  2  0
 85 84  1  0
 86 60  1  0
 86 91  1  0
 86 87  1  0
 87 90  1  1
 87 88  1  0
 89 87  1  0
 91 94  1  0
 92 96  1  0
 92 91  1  0
 93 92  2  0
 96 95  1  0
 98 96  1  0
 98 99  1  0
 98 97  1  0
M  ISO  4  19 100  20 100  58 101  59 101
M  END
>  <TORSDO>  (30) 
F 26

>  <SCORE>  (30) 
-5.202

>  <name>  (30) 
29

>  <ligand_id>  (30) 
29

>  <original_smiles>  (30) 
[H]c1c([H])c(C([H])([H])C([H])([H])C(=O)c2c([H])c([H])c(C([H])([H])C([H])([H])C([H])([H])Oc3c([H])c([H])c4c(c3[H])C([H])([H])N(C(=O)C([H])(N([H])C(=O)C([H])(N([H])C([H])([H])[H])C([H])([H])[H])C(C([H])([H])[H])(C([H])([H])[H])C([H])([H])[H])C([H])(C(=O)N([H])C3([H])c5c([H])c([H])c([H])c([H])c5C([H])([H])C([H])([H])C3([H])[H])C4([H])[H])c([H])c2[H])c([H])c(C([H])([H])C([H])([H])C([H])([H])C(=O)N2C([H])([H])C([H])([H])C([H])([H])C([H])(n3nc(-c4c([H])c([H])c(Oc5c([H])c([H])c(F)c([H])c5F)c([H])c4[H])c(C(=O)N([H])[H])c3N([H])[H])C2([H])[H])c1[H]

>  <smiles>  (30) 
[H]c1c([H])c(C([H])([H])C([H])([H])C(=O)c2c([H])c([H])c(C([H])([H])C([H])([H])C([H])([H])Oc3c([H])c([H])c4c(c3[H])C([H])([H])N(C(=O)C([H])(N([H])C(=O)C([H])(N([H])C([H])([H])[H])C([H])([H])[H])C(C([H])([H])[H])(C([H])([H])[H])C([H])([H])[H])C([H])(C(=O)N([H])C3([H])c5c([H])c([H])c([H])c([H])c5C([H])([H])C([H])([H])C3([H])[H])C4([H])[H])c([H])c2[H])c([H])c(C([H])([H])C([H])([H])C([H])([H])C(=O)N2C([H])([H])C([H])([H])C([H])([H])C([H])(n3nc(-c4c([H])c([H])c(Oc5c([H])c([H])c(F)c([H])c5F)c([H])c4[H])c(C(=O)N([H])[H])c3N([H])[H])C2([H])[H])c1[H]

$$$$
30:0:0
     RDKit          3D

 92 99  0  0  1  0  0  0  0  0999 V2000
  -30.1980  -22.6580   19.0050 C   0  0  0  0  0  0  0  0  0  0  0  0
  -29.3580  -23.1380   19.9320 N   0  0  0  0  0  0  0  0  0  0  0  0
  -31.1280  -23.3200   18.5420 O   0  0  0  0  0  0  0  0  0  0  0  0
  -28.6260  -22.5190   20.2560 H   0  0  0  0  0  0  0  0  0  0  0  0
  -29.9390  -21.2390   18.4880 C   0  0  0  0  0  2  0  0  0  0  0  0
  -31.1160  -20.2620   18.6930 C   0  0  0  0  0  2  0  0  0  0  0  0
  -31.3690  -19.8380   20.1560 C   0  0  0  0  0  2  0  0  0  0  0  0
  -32.3970  -18.6860   20.2720 C   0  0  0  0  0  2  0  0  0  0  0  0
  -32.9810  -16.3740   20.7260 C   0  0  0  0  0  1  0  0  0  0  0  0
  -31.8840  -17.3760   20.7760 N   0  0  2  0  0  4  0  0  0  0  0  0
  -31.6820  -17.4990   21.7580 H   0  0  0  0  0  0  0  0  0  0  0  0
  -30.6080  -16.9400   20.1290 C   0  0  0  0  0  2  0  0  0  0  0  0
  -30.0540  -15.5500   20.5530 C   0  0  0  0  0  2  0  0  0  0  0  0
  -30.5710  -14.3960   19.6760 C   0  0  0  0  0  0  0  0  0  0  0  0
  -30.1470  -12.2580   18.5410 C   0  0  0  0  0  2  0  0  0  0  0  0
  -29.0350  -12.4380   17.4910 C   0  0  0  0  0  2  0  0  0  0  0  0
  -27.6420  -12.2590   18.1250 C   0  0  0  0  0  2  0  0  0  0  0  0
  -27.4690  -13.0830   19.4300 C   0  0  0  0  0  3  0  0  0  0  0  0
  -28.6770  -12.8940   20.3760 C   0  0  0  0  0  2  0  0  0  0  0  0
  -29.9000  -13.2170   19.6250 N   0  0  0  0  0  0  0  0  0  0  0  0
  -31.5590  -14.6140   18.9690 O   0  0  0  0  0  0  0  0  0  0  0  0
  -25.2070  -13.6330   20.5220 C   0  0  0  0  0  0  0  0  0  0  0  0
  -24.2110  -12.8350   21.0120 C   0  0  0  0  0  0  0  0  0  0  0  0
  -24.6640  -11.4900   20.8450 C   0  0  0  0  0  0  0  0  0  0  0  0
  -26.2070  -12.7750   20.0940 N   0  0  0  0  0  0  0  0  0  0  0  0
  -25.8910  -11.4770   20.3400 N   0  0  0  0  0  0  0  0  0  0  0  0
  -23.9840  -10.2130   21.0820 C   0  0  0  0  0  0  0  0  0  0  0  0
  -24.4790   -9.2760   22.0150 C   0  0  0  0  0  3  0  0  0  0  0  0
  -23.7970   -8.0610   22.2400 C   0  0  0  0  0  3  0  0  0  0  0  0
  -22.6060   -7.7740   21.5320 C   0  0  0  0  0  0  0  0  0  0  0  0
  -22.1310   -8.7010   20.5870 C   0  0  0  0  0  3  0  0  0  0  0  0
  -22.8120   -9.9080   20.3610 C   0  0  0  0  0  3  0  0  0  0  0  0
  -21.8890   -6.6100   21.6640 O   0  0  0  0  0  0  0  0  0  0  0  0
  -21.8080   -5.9470   22.8630 C   0  0  0  0  0  0  0  0  0  0  0  0
  -21.2610   -6.5530   24.0140 C   0  0  0  0  0  3  0  0  0  0  0  0
  -21.1330   -5.8140   25.2070 C   0  0  0  0  0  3  0  0  0  0  0  0
  -21.5390   -4.4660   25.2480 C   0  0  0  0  0  0  0  0  0  0  0  0
  -22.0780   -3.8580   24.1000 C   0  0  0  0  0  3  0  0  0  0  0  0
  -22.2090   -4.5970   22.9110 C   0  0  0  0  0  0  0  0  0  0  0  0
  -22.7110   -3.9990   21.8020 F   0  0  0  0  0  0  0  0  0  0  0  0
  -21.4090   -3.7530   26.3910 F   0  0  0  0  0  0  0  0  0  0  0  0
  -22.8700  -13.2830   21.5200 C   0  0  0  0  0  0  0  0  0  0  0  0
  -22.2870  -12.5410   22.4540 N   0  0  0  0  0  0  0  0  0  0  0  0
  -22.3530  -14.3280   21.1230 O   0  0  0  0  0  0  0  0  0  0  0  0
  -22.7260  -11.7010   22.8010 H   0  0  0  0  0  0  0  0  0  0  0  0
  -21.3900  -12.8180   22.8290 H   0  0  0  0  0  0  0  0  0  0  0  0
  -25.3420  -15.0130   20.3870 N   0  0  0  0  0  0  0  0  0  0  0  0
  -24.5990  -15.6570   20.6370 H   0  0  0  0  0  0  0  0  0  0  0  0
  -26.1340  -15.4720   19.9550 H   0  0  0  0  0  0  0  0  0  0  0  0
  -29.3460  -24.5050   20.4500 C   0  0  0  0  0  2  0  0  0  0  0  0
  -28.1240  -25.2670   19.9150 C   0  0  0  0  0  2  0  0  0  0  0  0
  -28.1880  -26.6430   20.2900 O   0  0  0  0  0  0  0  0  0  0  0  0
  -24.4480  -31.9120   23.2150 C   0  0  0  0  0  0  0  0  0  0  0  0
  -27.0180  -27.3720   20.2320 C   0  0  0  0  0  0  0  0  0  0  0  0
  -23.2210  -30.5050   21.5890 C   0  0  0  0  0  3  0  0  0  0  0  0
  -24.6500  -28.9170   20.2040 C   0  0  0  0  0  0  0  0  0  0  0  0
  -25.7530  -30.8140   21.4010 C   0  0  0  0  0  2  0  0  0  0  0  0
  -25.8140  -29.4300   20.7880 C   0  0  0  0  0  0  0  0  0  0  0  0
  -27.0000  -28.6640   20.8000 C   0  0  0  0  0  3  0  0  0  0  0  0
  -25.8370  -26.8770   19.6290 C   0  0  0  0  0  3  0  0  0  0  0  0
  -24.6560  -27.6390   19.6240 C   0  0  0  0  0  3  0  0  0  0  0  0
  -23.4220  -29.7950   20.2230 C   0  0  0  0  0  2  0  0  0  0  0  0
  -24.4910  -31.0930   22.1260 N   0  0  0  0  0  0  0  0  0  0  0  0
  -23.3690  -32.2180   23.7420 O   0  0  0  0  0  0  0  0  0  0  0  0
  -22.5440  -29.5160   22.5620 C   0  0  0  0  0  0  0  0  0  0  0  0
  -21.2200  -29.3460   22.4170 N   0  0  0  0  0  0  0  0  0  0  0  0
  -23.2070  -28.9030   23.4010 O   0  0  0  0  0  0  0  0  0  0  0  0
  -20.7480  -29.8910   21.7100 H   0  0  0  0  0  0  0  0  0  0  0  0
  -17.8220  -28.2220   22.8920 C   0  0  0  0  0  0  0  0  0  0  0  0
  -20.3780  -28.4380   23.1950 C   0  0  0  0  0  3  0  0  0  0  0  0
  -20.4630  -26.9950   22.6460 C   0  0  0  0  0  2  0  0  0  0  0  0
  -19.3700  -26.6740   21.6210 C   0  0  0  0  0  2  0  0  0  0  0  0
  -17.9830  -26.8570   22.2450 C   0  0  0  0  0  2  0  0  0  0  0  0
  -18.9480  -28.9720   23.3230 C   0  0  0  0  0  0  0  0  0  0  0  0
  -18.7450  -30.2490   23.8860 C   0  0  0  0  0  3  0  0  0  0  0  0
  -17.4480  -30.7790   24.0210 C   0  0  0  0  0  3  0  0  0  0  0  0
  -16.3350  -30.0270   23.6090 C   0  0  0  0  0  3  0  0  0  0  0  0
  -16.5220  -28.7490   23.0510 C   0  0  0  0  0  3  0  0  0  0  0  0
  -25.7450  -32.5250   23.8310 C   0  0  0  0  0  3  0  0  0  0  0  0
  -26.2420  -31.7610   25.1210 C   0  0  1  0  0  0  0  0  0  0  0  0
  -25.1410  -31.5550   26.1850 C   0  0  0  0  0  1  0  0  0  0  0  0
  -26.8020  -30.3680   24.7500 C   0  0  0  0  0  1  0  0  0  0  0  0
  -27.4030  -32.5430   25.7810 C   0  0  0  0  0  1  0  0  0  0  0  0
  -25.4670  -33.9350   24.1340 N   0  0  0  0  0  0  0  0  0  0  0  0
  -25.8080  -34.9610   23.3410 C   0  0  0  0  0  0  0  0  0  0  0  0
  -26.4610  -34.8190   22.3040 O   0  0  0  0  0  0  0  0  0  0  0  0
  -24.8880  -34.1220   24.9390 H   0  0  0  0  0  0  0  0  0  0  0  0
  -24.1060  -36.7720   22.9650 C   0  0  0  0  0  1  0  0  0  0  0  0
  -25.3510  -36.3680   23.7710 C   0  0  0  0  0  3  0  0  0  0  0  0
  -27.5080  -37.2410   24.5580 C   0  0  0  0  0  1  0  0  0  0  0  0
  -26.4010  -37.3990   23.6180 N   0  0  0  0  0  0  0  0  0  0  0  0
  -26.0120  -38.3300   23.7400 H   0  0  0  0  0  0  0  0  0  0  0  0
  1  2  1  0
  2  4  1  0
  2 50  1  0
  3  1  2  0
  5  6  1  0
  5  1  1  0
  6  7  1  0
  7  8  1  0
  8 10  1  0
  9 10  1  0
 10 11  1  1
 12 13  1  0
 12 10  1  0
 14 13  1  0
 15 20  1  0
 16 17  1  0
 16 15  1  0
 18 17  1  0
 18 25  1  0
 18 19  1  0
 20 14  1  0
 20 19  1  0
 21 14  2  0
 22 23  2  0
 23 42  1  0
 24 23  1  0
 24 27  1  0
 25 26  1  0
 25 22  1  0
 26 24  2  0
 27 28  1  0
 28 29  2  0
 30 33  1  0
 30 29  1  0
 31 30  2  0
 32 31  1  0
 32 27  2  0
 33 34  1  0
 34 39  2  0
 34 35  1  0
 35 36  2  0
 36 37  1  0
 37 41  1  0
 38 37  2  0
 39 38  1  0
 40 39  1  0
 42 43  1  0
 43 45  1  0
 43 46  1  0
 44 42  2  0
 47 22  1  0
 47 48  1  0
 49 47  1  0
 51 52  1  0
 51 50  1  0
 53 64  2  0
 54 52  1  0
 54 59  1  0
 55 63  1  0
 55 65  1  0
 56 62  1  0
 56 58  1  0
 57 63  1  0
 58 59  2  0
 58 57  1  0
 60 54  2  0
 61 60  1  0
 61 56  2  0
 62 55  1  0
 63 53  1  0
 65 67  2  0
 66 65  1  0
 68 66  1  0
 69 78  2  0
 69 74  1  0
 70 66  1  0
 70 74  1  0
 71 70  1  0
 72 73  1  0
 72 71  1  0
 73 69  1  0
 74 75  2  0
 75 76  1  0
 77 76  2  0
 78 77  1  0
 79 53  1  0
 79 84  1  0
 79 80  1  0
 80 83  1  1
 80 81  1  0
 82 80  1  0
 84 87  1  0
 85 89  1  0
 85 84  1  0
 86 85  2  0
 89 88  1  0
 91 92  1  0
 91 89  1  0
 91 90  1  0
M  ISO  4  13 100  14 100  51 101  52 101
M  END
>  <TORSDO>  (31) 
F 25

>  <SCORE>  (31) 
-10.412

>  <name>  (31) 
30

>  <ligand_id>  (31) 
30

>  <original_smiles>  (31) 
[H]c1c([H])c([H])c2c(c1[H])C([H])([H])C([H])([H])C([H])([H])C2([H])N([H])C(=O)C1([H])N(C(=O)C([H])(N([H])C(=O)C([H])(N([H])C([H])([H])[H])C([H])([H])[H])C(C([H])([H])[H])(C([H])([H])[H])C([H])([H])[H])C([H])([H])c2c([H])c(OC([H])([H])C([H])([H])N([H])C(=O)C([H])([H])C([H])([H])C([H])([H])C([H])([H])[N+]([H])(C([H])([H])[H])C([H])([H])C([H])([H])C(=O)N3C([H])([H])C([H])([H])C([H])([H])C([H])(n4nc(-c5c([H])c([H])c(Oc6c([H])c([H])c(F)c([H])c6F)c([H])c5[H])c(C(=O)N([H])[H])c4N([H])[H])C3([H])[H])c([H])c([H])c2C1([H])[H]

>  <smiles>  (31) 
[H]c1c([H])c([H])c2c(c1[H])C([H])([H])C([H])([H])C([H])([H])C2([H])N([H])C(=O)C1([H])N(C(=O)C([H])(N([H])C(=O)C([H])(N([H])C([H])([H])[H])C([H])([H])[H])C(C([H])([H])[H])(C([H])([H])[H])C([H])([H])[H])C([H])([H])c2c([H])c(OC([H])([H])C([H])([H])N([H])C(=O)C([H])([H])C([H])([H])C([H])([H])C([H])([H])[N+]([H])(C([H])([H])[H])C([H])([H])C([H])([H])C(=O)N3C([H])([H])C([H])([H])C([H])([H])C([H])(n4nc(-c5c([H])c([H])c(Oc6c([H])c([H])c(F)c([H])c6F)c([H])c5[H])c(C(=O)N([H])[H])c4N([H])[H])C3([H])[H])c([H])c([H])c2C1([H])[H]

$$$$
31:0:0
     RDKit          3D

 95102  0  0  1  0  0  0  0  0999 V2000
  -29.1890  -18.6400   20.3540 C   0  0  0  0  0  0  0  0  0  0  0  0
  -29.5010  -19.9590   20.5700 N   0  0  0  0  0  0  0  0  0  0  0  0
  -28.0640  -18.3280   19.9620 O   0  0  0  0  0  0  0  0  0  0  0  0
  -30.4270  -20.1300   20.9370 H   0  0  0  0  0  0  0  0  0  0  0  0
  -28.7850  -21.1690   20.0220 C   0  0  0  0  0  3  0  0  0  0  0  0
  -28.8970  -22.5450   20.8140 C   0  0  0  0  0  3  0  0  0  0  0  0
  -28.5370  -23.8960   20.0390 C   0  0  0  0  0  3  0  0  0  0  0  0
  -28.3100  -25.2150   20.8980 C   0  0  0  0  0  3  0  0  0  0  0  0
  -28.4030  -26.5400   20.2570 O   0  0  0  0  0  0  0  0  0  0  0  0
  -24.6170  -31.9060   23.2340 C   0  0  0  0  0  0  0  0  0  0  0  0
  -27.2680  -27.3520   20.2480 C   0  0  0  0  0  0  0  0  0  0  0  0
  -23.4290  -30.4910   21.5950 C   0  0  0  0  0  3  0  0  0  0  0  0
  -24.8950  -28.9280   20.1990 C   0  0  0  0  0  0  0  0  0  0  0  0
  -25.9650  -30.8240   21.4230 C   0  0  0  0  0  2  0  0  0  0  0  0
  -26.0540  -29.4390   20.7960 C   0  0  0  0  0  0  0  0  0  0  0  0
  -27.2480  -28.6640   20.8050 C   0  0  0  0  0  3  0  0  0  0  0  0
  -26.0900  -26.8760   19.6390 C   0  0  0  0  0  3  0  0  0  0  0  0
  -24.9120  -27.6510   19.6100 C   0  0  0  0  0  3  0  0  0  0  0  0
  -23.6530  -29.7970   20.2250 C   0  0  0  0  0  2  0  0  0  0  0  0
  -24.6900  -31.0900   22.1420 N   0  0  0  0  0  0  0  0  0  0  0  0
  -23.5300  -32.1840   23.7600 O   0  0  0  0  0  0  0  0  0  0  0  0
  -22.7620  -29.4820   22.5600 C   0  0  0  0  0  0  0  0  0  0  0  0
  -21.4360  -29.3090   22.4320 N   0  0  0  0  0  0  0  0  0  0  0  0
  -23.4380  -28.8560   23.3810 O   0  0  0  0  0  0  0  0  0  0  0  0
  -20.9520  -29.8650   21.7410 H   0  0  0  0  0  0  0  0  0  0  0  0
  -18.0490  -28.1490   22.9420 C   0  0  0  0  0  0  0  0  0  0  0  0
  -20.6110  -28.3790   23.2040 C   0  0  0  0  0  3  0  0  0  0  0  0
  -20.6970  -26.9470   22.6250 C   0  0  0  0  0  2  0  0  0  0  0  0
  -19.5880  -26.6370   21.6150 C   0  0  0  0  0  2  0  0  0  0  0  0
  -18.2100  -26.7990   22.2630 C   0  0  0  0  0  2  0  0  0  0  0  0
  -19.1780  -28.8970   23.3690 C   0  0  0  0  0  0  0  0  0  0  0  0
  -18.9750  -30.1620   23.9620 C   0  0  0  0  0  3  0  0  0  0  0  0
  -17.6760  -30.6780   24.1330 C   0  0  0  0  0  3  0  0  0  0  0  0
  -16.5620  -29.9250   23.7220 C   0  0  0  0  0  3  0  0  0  0  0  0
  -16.7500  -28.6630   23.1310 C   0  0  0  0  0  3  0  0  0  0  0  0
  -25.8940  -32.5460   23.8620 C   0  0  0  0  0  3  0  0  0  0  0  0
  -26.4030  -31.7830   25.1480 C   0  0  1  0  0  0  0  0  0  0  0  0
  -25.3030  -31.5490   26.2090 C   0  0  0  0  0  1  0  0  0  0  0  0
  -26.9930  -30.4060   24.7650 C   0  0  0  0  0  1  0  0  0  0  0  0
  -27.5480  -32.5830   25.8120 C   0  0  0  0  0  1  0  0  0  0  0  0
  -25.5780  -33.9450   24.1850 N   0  0  0  0  0  0  0  0  0  0  0  0
  -25.9140  -34.9950   23.4240 C   0  0  0  0  0  0  0  0  0  0  0  0
  -26.5940  -34.8890   22.3990 O   0  0  0  0  0  0  0  0  0  0  0  0
  -24.9780  -34.1020   24.9820 H   0  0  0  0  0  0  0  0  0  0  0  0
  -24.1880  -36.7830   23.0460 C   0  0  0  0  0  1  0  0  0  0  0  0
  -25.4220  -36.3850   23.8720 C   0  0  0  0  0  3  0  0  0  0  0  0
  -27.5470  -37.2730   24.7220 C   0  0  0  0  0  1  0  0  0  0  0  0
  -26.4540  -37.4380   23.7660 N   0  0  0  0  0  0  0  0  0  0  0  0
  -26.0450  -38.3590   23.9070 H   0  0  0  0  0  0  0  0  0  0  0  0
  -30.2860  -17.4980   20.4980 C   0  0  0  0  0  3  0  0  0  0  0  0
  -29.6930  -15.9970   20.5090 C   0  0  0  0  0  2  0  0  0  0  0  0
  -30.5760  -14.6740   20.3820 C   0  0  0  0  0  0  0  0  0  0  0  0
  -30.3740  -12.4220   19.3570 C   0  0  0  0  0  2  0  0  0  0  0  0
  -29.4260  -12.5510   18.1430 C   0  0  0  0  0  2  0  0  0  0  0  0
  -27.9560  -12.3840   18.5750 C   0  0  0  0  0  2  0  0  0  0  0  0
  -27.5950  -13.2520   19.8080 C   0  0  0  0  0  3  0  0  0  0  0  0
  -28.6600  -13.1210   20.9180 C   0  0  0  0  0  2  0  0  0  0  0  0
  -29.9700  -13.4460   20.3420 N   0  0  0  0  0  0  0  0  0  0  0  0
  -31.7740  -14.7700   20.1070 O   0  0  0  0  0  0  0  0  0  0  0  0
  -25.2100  -13.8490   20.5470 C   0  0  0  0  0  0  0  0  0  0  0  0
  -24.1460  -13.0750   20.9190 C   0  0  0  0  0  0  0  0  0  0  0  0
  -24.6090  -11.7240   20.8860 C   0  0  0  0  0  0  0  0  0  0  0  0
  -26.2540  -12.9680   20.3050 N   0  0  0  0  0  0  0  0  0  0  0  0
  -25.8980  -11.6860   20.5730 N   0  0  0  0  0  0  0  0  0  0  0  0
  -23.8850  -10.4610   21.0760 C   0  0  0  0  0  0  0  0  0  0  0  0
  -24.3290   -9.4860   21.9960 C   0  0  0  0  0  3  0  0  0  0  0  0
  -23.6050   -8.2870   22.1750 C   0  0  0  0  0  3  0  0  0  0  0  0
  -22.4240   -8.0560   21.4320 C   0  0  0  0  0  0  0  0  0  0  0  0
  -21.9980   -9.0200   20.5010 C   0  0  0  0  0  3  0  0  0  0  0  0
  -22.7220  -10.2100   20.3210 C   0  0  0  0  0  3  0  0  0  0  0  0
  -21.6700   -6.9110   21.5200 O   0  0  0  0  0  0  0  0  0  0  0  0
  -21.6440   -6.1530   22.6640 C   0  0  0  0  0  0  0  0  0  0  0  0
  -21.2470   -6.6910   23.9070 C   0  0  0  0  0  3  0  0  0  0  0  0
  -21.1690   -5.8590   25.0420 C   0  0  0  0  0  3  0  0  0  0  0  0
  -21.4770   -4.4910   24.9340 C   0  0  0  0  0  0  0  0  0  0  0  0
  -21.8670   -3.9510   23.6960 C   0  0  0  0  0  3  0  0  0  0  0  0
  -21.9470   -4.7790   22.5640 C   0  0  0  0  0  0  0  0  0  0  0  0
  -22.3030   -4.2500   21.3680 F   0  0  0  0  0  0  0  0  0  0  0  0
  -21.3940   -3.6890   26.0230 F   0  0  0  0  0  0  0  0  0  0  0  0
  -22.7480  -13.5510   21.1960 C   0  0  0  0  0  0  0  0  0  0  0  0
  -22.0220  -12.8500   22.0590 N   0  0  0  0  0  0  0  0  0  0  0  0
  -22.3090  -14.5790   20.6810 O   0  0  0  0  0  0  0  0  0  0  0  0
  -22.3880  -12.0170   22.4960 H   0  0  0  0  0  0  0  0  0  0  0  0
  -21.0840  -13.1510   22.2880 H   0  0  0  0  0  0  0  0  0  0  0  0
  -25.3740  -15.2210   20.3740 N   0  0  0  0  0  0  0  0  0  0  0  0
  -24.6070  -15.8740   20.4940 H   0  0  0  0  0  0  0  0  0  0  0  0
  -26.2310  -15.6690   20.0760 H   0  0  0  0  0  0  0  0  0  0  0  0
  -31.3380  -17.7720   19.3790 C   0  0  0  0  0  2  0  0  0  0  0  0
  -32.4480  -18.7670   19.7950 C   0  0  0  0  0  2  0  0  0  0  0  0
  -32.8080  -19.7740   18.6890 C   0  0  0  0  0  2  0  0  0  0  0  0
  -33.8810  -20.7870   19.1380 C   0  0  0  0  0  2  0  0  0  0  0  0
  -34.1980  -21.7700   18.0900 N   0  0  0  0  0  4  0  0  0  0  0  0
  -34.5490  -21.3160   17.2650 H   0  0  0  0  0  0  0  0  0  0  0  0
  -34.9060  -22.4020   18.4190 H   0  0  0  0  0  0  0  0  0  0  0  0
  -33.3900  -22.3120   17.8430 H   0  0  0  0  0  0  0  0  0  0  0  0
  1 50  1  0
  1  2  1  0
  2  4  1  0
  3  1  2  0
  5  2  1  0
  5  6  2  0
  7  6  1  0
  7  8  2  0
  9  8  1  0
 10 21  2  0
 11  9  1  0
 11 16  1  0
 12 20  1  0
 12 22  1  0
 13 19  1  0
 13 15  1  0
 14 20  1  0
 15 16  2  0
 15 14  1  0
 17 11  2  0
 18 17  1  0
 18 13  2  0
 19 12  1  0
 20 10  1  0
 22 24  2  0
 23 22  1  0
 25 23  1  0
 26 35  2  0
 26 31  1  0
 27 23  1  0
 27 31  1  0
 28 27  1  0
 29 30  1  0
 29 28  1  0
 30 26  1  0
 31 32  2  0
 32 33  1  0
 34 33  2  0
 35 34  1  0
 36 10  1  0
 36 41  1  0
 36 37  1  0
 37 40  1  1
 37 38  1  0
 39 37  1  0
 41 44  1  0
 42 46  1  0
 42 41  1  0
 43 42  2  0
 46 45  1  0
 48 46  1  0
 48 49  1  0
 48 47  1  0
 50 88  1  0
 50 51  1  0
 52 51  1  0
 53 58  1  0
 54 55  1  0
 54 53  1  0
 56 55  1  0
 56 63  1  0
 56 57  1  0
 58 52  1  0
 58 57  1  0
 59 52  2  0
 60 61  2  0
 61 80  1  0
 62 61  1  0
 62 65  1  0
 63 60  1  0
 63 64  1  0
 64 62  2  0
 65 66  1  0
 66 67  2  0
 68 71  1  0
 68 67  1  0
 69 68  2  0
 70 69  1  0
 70 65  2  0
 71 72  1  0
 72 73  1  0
 73 74  2  0
 75 74  1  0
 75 79  1  0
 76 75  2  0
 77 72  2  0
 77 76  1  0
 78 77  1  0
 80 81  1  0
 81 84  1  0
 81 83  1  0
 82 80  2  0
 85 86  1  0
 85 60  1  0
 87 85  1  0
 88 89  1  0
 90 91  1  0
 90 89  1  0
 92 94  1  0
 92 91  1  0
 93 92  1  0
 95 92  1  0
M  ISO  4   8 101   9 101  51 100  52 100
M  END
>  <TORSDO>  (32) 
F 27

>  <SCORE>  (32) 
-11.878

>  <name>  (32) 
31

>  <ligand_id>  (32) 
31

>  <original_smiles>  (32) 
[H]c1c([H])c([H])c2c(c1[H])C([H])([H])C([H])([H])C([H])([H])C2([H])N([H])C(=O)C1([H])N(C(=O)C([H])(N([H])C(=O)C([H])(N([H])C([H])([H])[H])C([H])([H])[H])C(C([H])([H])[H])(C([H])([H])[H])C([H])([H])[H])C([H])([H])c2c([H])c(OC([H])([H])C([H])([H])C([H])([H])C([H])([H])N([H])C(=O)C([H])(C([H])([H])C(=O)N3C([H])([H])C([H])([H])C([H])([H])C([H])(n4nc(-c5c([H])c([H])c(Oc6c([H])c([H])c(F)c([H])c6F)c([H])c5[H])c(C(=O)N([H])[H])c4N([H])[H])C3([H])[H])C([H])([H])C([H])([H])C([H])([H])C([H])([H])[N+]([H])([H])[H])c([H])c([H])c2C1([H])[H]

>  <smiles>  (32) 
[H]c1c([H])c([H])c2c(c1[H])C([H])([H])C([H])([H])C([H])([H])C2([H])N([H])C(=O)C1([H])N(C(=O)C([H])(N([H])C(=O)C([H])(N([H])C([H])([H])[H])C([H])([H])[H])C(C([H])([H])[H])(C([H])([H])[H])C([H])([H])[H])C([H])([H])c2c([H])c(OC([H])([H])C([H])([H])C([H])([H])C([H])([H])N([H])C(=O)C([H])(C([H])([H])C(=O)N3C([H])([H])C([H])([H])C([H])([H])C([H])(n4nc(-c5c([H])c([H])c(Oc6c([H])c([H])c(F)c([H])c6F)c([H])c5[H])c(C(=O)N([H])[H])c4N([H])[H])C3([H])[H])C([H])([H])C([H])([H])C([H])([H])C([H])([H])[N+]([H])([H])[H])c([H])c([H])c2C1([H])[H]

$$$$
32:0:0
     RDKit          3D

 98107  0  0  1  0  0  0  0  0999 V2000
  -29.0100  -22.5870   19.7860 C   0  0  0  0  0  3  0  0  0  0  0  0
  -29.3160  -21.2100   19.7860 C   0  0  0  0  0  3  0  0  0  0  0  0
  -31.3360  -23.0860   20.3030 C   0  0  0  0  0  3  0  0  0  0  0  0
  -30.0230  -23.5380   20.0450 C   0  0  0  0  0  0  0  0  0  0  0  0
  -30.6320  -20.7660   20.0390 C   0  0  0  0  0  0  0  0  0  0  0  0
  -31.6480  -21.7140   20.3060 C   0  0  0  0  0  0  0  0  0  0  0  0
  -30.9340  -19.2720   20.0210 C   0  0  0  0  0  2  0  0  0  0  0  0
  -33.0950  -21.3030   20.5490 C   0  0  0  0  0  2  0  0  0  0  0  0
  -33.3070  -19.7910   20.7190 C   0  0  0  0  0  2  0  0  0  0  0  0
  -32.4290  -18.9300   19.7740 C   0  0  2  0  0  0  0  0  0  0  0  0
  -32.7820  -19.2500   18.3010 C   0  0  0  0  0  1  0  0  0  0  0  0
  -32.6670  -17.4700   19.9750 N   0  0  0  0  0  4  0  0  0  0  0  0
  -33.5890  -17.2570   19.6240 H   0  0  0  0  0  0  0  0  0  0  0  0
  -32.0200  -16.9560   19.3990 H   0  0  0  0  0  0  0  0  0  0  0  0
  -32.6020  -16.9470   21.3650 C   0  0  0  0  0  2  0  0  0  0  0  0
  -32.1690  -15.4700   21.4420 C   0  0  0  0  0  2  0  0  0  0  0  0
  -30.6380  -15.2500   21.4750 C   0  0  0  0  0  2  0  0  0  0  0  0
  -29.9080  -15.3110   20.1180 C   0  0  0  0  0  2  0  0  0  0  0  0
  -30.3160  -14.1740   19.1680 C   0  0  0  0  0  0  0  0  0  0  0  0
  -29.8700  -11.9700   18.1500 C   0  0  0  0  0  2  0  0  0  0  0  0
  -28.7160  -12.0680   17.1350 C   0  0  0  0  0  2  0  0  0  0  0  0
  -27.3480  -11.9410   17.8360 C   0  0  0  0  0  2  0  0  0  0  0  0
  -27.2230  -12.8540   19.0860 C   0  0  0  0  0  3  0  0  0  0  0  0
  -28.4630  -12.6830   19.9920 C   0  0  0  0  0  2  0  0  0  0  0  0
  -29.6530  -12.9900   19.1830 N   0  0  0  0  0  0  0  0  0  0  0  0
  -31.2350  -14.4160   18.3770 O   0  0  0  0  0  0  0  0  0  0  0  0
  -25.0090  -13.4870   20.2430 C   0  0  0  0  0  0  0  0  0  0  0  0
  -24.0170  -12.7210   20.7950 C   0  0  0  0  0  0  0  0  0  0  0  0
  -24.4340  -11.3650   20.6440 C   0  0  0  0  0  0  0  0  0  0  0  0
  -25.9780  -12.5960   19.8060 N   0  0  0  0  0  0  0  0  0  0  0  0
  -25.6410  -11.3130   20.0960 N   0  0  0  0  0  0  0  0  0  0  0  0
  -23.7340  -10.1080   20.9400 C   0  0  0  0  0  0  0  0  0  0  0  0
  -24.2610   -9.1690   21.8530 C   0  0  0  0  0  3  0  0  0  0  0  0
  -23.5600   -7.9770   22.1380 C   0  0  0  0  0  3  0  0  0  0  0  0
  -22.3170   -7.7180   21.5120 C   0  0  0  0  0  0  0  0  0  0  0  0
  -21.8090   -8.6450   20.5840 C   0  0  0  0  0  3  0  0  0  0  0  0
  -22.5110   -9.8270   20.2990 C   0  0  0  0  0  3  0  0  0  0  0  0
  -21.5780   -6.5770   21.7070 O   0  0  0  0  0  0  0  0  0  0  0  0
  -21.5950   -5.9060   22.9030 C   0  0  0  0  0  0  0  0  0  0  0  0
  -21.2030   -6.5250   24.1100 C   0  0  0  0  0  3  0  0  0  0  0  0
  -21.1690   -5.7780   25.3040 C   0  0  0  0  0  3  0  0  0  0  0  0
  -21.5160   -4.4140   25.2930 C   0  0  0  0  0  0  0  0  0  0  0  0
  -21.9000   -3.7950   24.0910 C   0  0  0  0  0  3  0  0  0  0  0  0
  -21.9390   -4.5390   22.8990 C   0  0  0  0  0  0  0  0  0  0  0  0
  -22.2910   -3.9330   21.7390 F   0  0  0  0  0  0  0  0  0  0  0  0
  -21.4730   -3.6950   26.4390 F   0  0  0  0  0  0  0  0  0  0  0  0
  -22.7100  -13.2130   21.3450 C   0  0  0  0  0  0  0  0  0  0  0  0
  -22.1530  -12.5080   22.3230 N   0  0  0  0  0  0  0  0  0  0  0  0
  -22.1990  -14.2550   20.9400 O   0  0  0  0  0  0  0  0  0  0  0  0
  -22.5890  -11.6670   22.6700 H   0  0  0  0  0  0  0  0  0  0  0  0
  -21.2830  -12.8170   22.7350 H   0  0  0  0  0  0  0  0  0  0  0  0
  -25.1550  -14.8590   20.0570 N   0  0  0  0  0  0  0  0  0  0  0  0
  -24.4210  -15.5140   20.3050 H   0  0  0  0  0  0  0  0  0  0  0  0
  -25.9190  -15.2910   19.5540 H   0  0  0  0  0  0  0  0  0  0  0  0
  -29.7710  -25.0080   20.0240 C   0  0  0  0  0  0  0  0  0  0  0  0
  -30.6710  -25.8290   20.2380 O   0  0  0  0  0  0  0  0  0  0  0  0
  -28.3440  -25.5130   19.7550 C   0  0  0  0  0  2  0  0  0  0  0  0
  -28.2970  -26.8870   20.1220 O   0  0  0  0  0  0  0  0  0  0  0  0
  -24.5590  -31.9730   23.3080 C   0  0  0  0  0  0  0  0  0  0  0  0
  -27.0910  -27.5400   20.1510 C   0  0  0  0  0  0  0  0  0  0  0  0
  -23.3020  -30.5950   21.6810 C   0  0  0  0  0  3  0  0  0  0  0  0
  -24.7050  -29.0430   20.2250 C   0  0  0  0  0  0  0  0  0  0  0  0
  -25.8220  -30.9300   21.4310 C   0  0  0  0  0  2  0  0  0  0  0  0
  -25.8760  -29.5620   20.7890 C   0  0  0  0  0  0  0  0  0  0  0  0
  -27.0700  -28.8170   20.7470 C   0  0  0  0  0  3  0  0  0  0  0  0
  -25.9010  -27.0160   19.5960 C   0  0  0  0  0  3  0  0  0  0  0  0
  -24.7090  -27.7680   19.6300 C   0  0  0  0  0  3  0  0  0  0  0  0
  -23.4720  -29.9140   20.2960 C   0  0  0  0  0  2  0  0  0  0  0  0
  -24.5810  -31.1800   22.1990 N   0  0  0  0  0  0  0  0  0  0  0  0
  -23.4930  -32.2580   23.8710 O   0  0  0  0  0  0  0  0  0  0  0  0
  -22.6560  -29.5790   22.6480 C   0  0  0  0  0  0  0  0  0  0  0  0
  -21.3430  -29.3550   22.4890 N   0  0  0  0  0  0  0  0  0  0  0  0
  -23.3350  -28.9910   23.4950 O   0  0  0  0  0  0  0  0  0  0  0  0
  -20.8570  -29.8820   21.7770 H   0  0  0  0  0  0  0  0  0  0  0  0
  -18.0010  -28.0420   22.8720 C   0  0  0  0  0  0  0  0  0  0  0  0
  -20.5290  -28.4130   23.2550 C   0  0  0  0  0  3  0  0  0  0  0  0
  -20.7170  -26.9680   22.7380 C   0  0  0  0  0  2  0  0  0  0  0  0
  -19.6790  -26.5640   21.6870 C   0  0  0  0  0  2  0  0  0  0  0  0
  -18.2630  -26.6770   22.2590 C   0  0  0  0  0  2  0  0  0  0  0  0
  -19.0670  -28.8640   23.3250 C   0  0  0  0  0  0  0  0  0  0  0  0
  -18.7710  -30.1400   23.8540 C   0  0  0  0  0  3  0  0  0  0  0  0
  -17.4410  -30.5950   23.9350 C   0  0  0  0  0  3  0  0  0  0  0  0
  -16.3890  -29.7690   23.5020 C   0  0  0  0  0  3  0  0  0  0  0  0
  -16.6680  -28.4950   22.9770 C   0  0  0  0  0  3  0  0  0  0  0  0
  -25.8670  -32.5790   23.9080 C   0  0  0  0  0  3  0  0  0  0  0  0
  -25.5970  -33.9870   24.2270 N   0  0  0  0  0  0  0  0  0  0  0  0
  -25.9300  -35.0200   23.4410 C   0  0  0  0  0  0  0  0  0  0  0  0
  -26.5700  -34.8870   22.3950 O   0  0  0  0  0  0  0  0  0  0  0  0
  -25.0280  -34.1660   25.0420 H   0  0  0  0  0  0  0  0  0  0  0  0
  -24.2260  -36.8370   23.1000 C   0  0  0  0  0  1  0  0  0  0  0  0
  -25.4790  -36.4240   23.8880 C   0  0  0  0  0  3  0  0  0  0  0  0
  -27.6530  -37.2780   24.6500 C   0  0  0  0  0  1  0  0  0  0  0  0
  -26.5290  -37.4550   23.7330 N   0  0  0  0  0  0  0  0  0  0  0  0
  -26.1440  -38.3850   23.8810 H   0  0  0  0  0  0  0  0  0  0  0  0
  -26.3840  -31.8070   25.1830 C   0  0  1  0  0  0  0  0  0  0  0  0
  -25.2970  -31.5840   26.2600 C   0  0  0  0  0  1  0  0  0  0  0  0
  -26.9450  -30.4210   24.7870 C   0  0  0  0  0  1  0  0  0  0  0  0
  -27.5500  -32.5870   25.8340 C   0  0  0  0  0  1  0  0  0  0  0  0
  1  2  2  0
  1  4  1  0
  2  5  1  0
  3  6  1  0
  4  3  2  0
  5  6  2  0
  6  8  1  0
  7  5  1  0
  8  9  1  0
 10 11  1  6
 10 12  1  0
 10  7  1  0
 10  9  1  0
 12 15  1  0
 13 12  1  0
 14 12  1  0
 15 16  1  0
 16 17  1  0
 18 17  1  0
 19 25  1  0
 19 18  1  0
 20 25  1  0
 21 22  1  0
 21 20  1  0
 23 22  1  0
 23 30  1  0
 23 24  1  0
 25 24  1  0
 26 19  2  0
 27 28  2  0
 28 47  1  0
 29 28  1  0
 29 32  1  0
 30 31  1  0
 30 27  1  0
 31 29  2  0
 32 33  1  0
 33 34  2  0
 35 38  1  0
 35 34  1  0
 36 35  2  0
 37 36  1  0
 37 32  2  0
 38 39  1  0
 39 40  1  0
 40 41  2  0
 42 41  1  0
 42 46  1  0
 43 42  2  0
 44 39  2  0
 44 43  1  0
 45 44  1  0
 47 48  1  0
 48 50  1  0
 48 51  1  0
 49 47  2  0
 52 27  1  0
 52 53  1  0
 54 52  1  0
 55  4  1  0
 55 56  2  0
 57 55  1  0
 57 58  1  0
 58 60  1  0
 59 70  2  0
 60 65  1  0
 61 69  1  0
 61 71  1  0
 62 68  1  0
 62 64  1  0
 63 69  1  0
 64 63  1  0
 65 64  2  0
 66 67  1  0
 66 60  2  0
 67 62  2  0
 68 61  1  0
 69 59  1  0
 71 73  2  0
 72 71  1  0
 74 72  1  0
 75 84  2  0
 75 80  1  0
 76 72  1  0
 76 80  1  0
 77 76  1  0
 78 79  1  0
 78 77  1  0
 79 75  1  0
 80 81  2  0
 81 82  1  0
 83 82  2  0
 84 83  1  0
 85 59  1  0
 85 86  1  0
 85 95  1  0
 86 89  1  0
 87 91  1  0
 87 86  1  0
 88 87  2  0
 91 90  1  0
 93 94  1  0
 93 91  1  0
 93 92  1  0
 95 98  1  1
 95 96  1  0
 97 95  1  0
M  ISO  4  18 100  19 100  57 101  58 101
M  END
>  <TORSDO>  (33) 
F 23

>  <SCORE>  (33) 
-9.352

>  <name>  (33) 
32

>  <ligand_id>  (33) 
32

>  <original_smiles>  (33) 
[H]c1c([H])c([H])c2c(c1[H])C([H])([H])C([H])([H])C([H])([H])C2([H])N([H])C(=O)C1([H])N(C(=O)C([H])(N([H])C(=O)C([H])(N([H])C([H])([H])[H])C([H])([H])[H])C(C([H])([H])[H])(C([H])([H])[H])C([H])([H])[H])C([H])([H])c2c([H])c(OC([H])([H])C(=O)c3c([H])c([H])c4c(c3[H])C([H])([H])C([H])([H])C(C([H])([H])[H])([N+]([H])([H])C([H])([H])C([H])([H])C([H])([H])C([H])([H])C(=O)N3C([H])([H])C([H])([H])C([H])([H])C([H])(n5nc(-c6c([H])c([H])c(Oc7c([H])c([H])c(F)c([H])c7F)c([H])c6[H])c(C(=O)N([H])[H])c5N([H])[H])C3([H])[H])C4([H])[H])c([H])c([H])c2C1([H])[H]

>  <smiles>  (33) 
[H]c1c([H])c([H])c2c(c1[H])C([H])([H])C([H])([H])C([H])([H])C2([H])N([H])C(=O)C1([H])N(C(=O)C([H])(N([H])C(=O)C([H])(N([H])C([H])([H])[H])C([H])([H])[H])C(C([H])([H])[H])(C([H])([H])[H])C([H])([H])[H])C([H])([H])c2c([H])c(OC([H])([H])C(=O)c3c([H])c([H])c4c(c3[H])C([H])([H])C([H])([H])C(C([H])([H])[H])([N+]([H])([H])C([H])([H])C([H])([H])C([H])([H])C([H])([H])C(=O)N3C([H])([H])C([H])([H])C([H])([H])C([H])(n5nc(-c6c([H])c([H])c(Oc7c([H])c([H])c(F)c([H])c7F)c([H])c6[H])c(C(=O)N([H])[H])c5N([H])[H])C3([H])[H])C4([H])[H])c([H])c([H])c2C1([H])[H]

$$$$
33:0:0
     RDKit          3D

 95103  0  0  1  0  0  0  0  0999 V2000
  -28.9110  -22.1580   19.0560 C   0  0  0  0  0  3  0  0  0  0  0  0
  -28.3410  -20.8870   18.8720 C   0  0  0  0  0  3  0  0  0  0  0  0
  -29.9590  -21.3630   21.0930 C   0  0  0  0  0  3  0  0  0  0  0  0
  -29.6740  -22.4350   20.2120 C   0  0  0  0  0  0  0  0  0  0  0  0
  -28.5580  -19.8460   19.7960 C   0  0  0  0  0  0  0  0  0  0  0  0
  -29.4720  -20.0510   20.8690 C   0  0  0  0  0  0  0  0  0  0  0  0
  -27.7320  -18.5850   19.5910 C   0  0  0  0  0  1  0  0  0  0  0  0
  -30.1800  -23.8160   20.5130 C   0  0  0  0  0  0  0  0  0  0  0  0
  -30.7540  -24.0990   21.5670 O   0  0  0  0  0  0  0  0  0  0  0  0
  -29.9860  -24.9200   19.4600 C   0  0  0  0  0  2  0  0  0  0  0  0
  -28.5560  -25.5030   19.3990 C   0  0  0  0  0  2  0  0  0  0  0  0
  -28.4260  -26.7110   20.1540 O   0  0  0  0  0  0  0  0  0  0  0  0
  -24.5620  -31.8300   23.2180 C   0  0  0  0  0  0  0  0  0  0  0  0
  -27.2210  -27.3920   20.1370 C   0  0  0  0  0  0  0  0  0  0  0  0
  -23.3570  -30.4350   21.5680 C   0  0  0  0  0  3  0  0  0  0  0  0
  -24.8140  -28.8920   20.1470 C   0  0  0  0  0  0  0  0  0  0  0  0
  -25.8860  -30.7820   21.3860 C   0  0  0  0  0  2  0  0  0  0  0  0
  -25.9680  -29.4130   20.7460 C   0  0  0  0  0  0  0  0  0  0  0  0
  -27.1680  -28.6650   20.7480 C   0  0  0  0  0  3  0  0  0  0  0  0
  -26.0400  -26.8760   19.5490 C   0  0  0  0  0  3  0  0  0  0  0  0
  -24.8430  -27.6190   19.5530 C   0  0  0  0  0  3  0  0  0  0  0  0
  -23.5730  -29.7560   20.1870 C   0  0  0  0  0  2  0  0  0  0  0  0
  -24.6190  -31.0310   22.1160 N   0  0  0  0  0  0  0  0  0  0  0  0
  -23.4800  -32.1050   23.7570 O   0  0  0  0  0  0  0  0  0  0  0  0
  -22.7000  -29.4140   22.5230 C   0  0  0  0  0  0  0  0  0  0  0  0
  -21.3760  -29.2340   22.3890 N   0  0  0  0  0  0  0  0  0  0  0  0
  -23.3780  -28.7870   23.3410 O   0  0  0  0  0  0  0  0  0  0  0  0
  -20.8910  -29.7980   21.7050 H   0  0  0  0  0  0  0  0  0  0  0  0
  -18.0010  -28.0230   22.8410 C   0  0  0  0  0  0  0  0  0  0  0  0
  -20.5520  -28.2950   23.1490 C   0  0  0  0  0  3  0  0  0  0  0  0
  -20.6690  -26.8610   22.5820 C   0  0  0  0  0  2  0  0  0  0  0  0
  -19.5850  -26.5290   21.5520 C   0  0  0  0  0  2  0  0  0  0  0  0
  -18.1940  -26.6690   22.1760 C   0  0  0  0  0  2  0  0  0  0  0  0
  -19.1100  -28.7930   23.2830 C   0  0  0  0  0  0  0  0  0  0  0  0
  -18.8770  -30.0580   23.8640 C   0  0  0  0  0  3  0  0  0  0  0  0
  -17.5690  -30.5570   24.0030 C   0  0  0  0  0  3  0  0  0  0  0  0
  -16.4740  -29.7860   23.5780 C   0  0  0  0  0  3  0  0  0  0  0  0
  -16.6900  -28.5200   23.0040 C   0  0  0  0  0  3  0  0  0  0  0  0
  -25.8510  -32.4540   23.8420 C   0  0  0  0  0  3  0  0  0  0  0  0
  -25.5480  -33.8510   24.1760 N   0  0  0  0  0  0  0  0  0  0  0  0
  -25.8880  -34.9060   23.4240 C   0  0  0  0  0  0  0  0  0  0  0  0
  -26.5620  -34.8060   22.3940 O   0  0  0  0  0  0  0  0  0  0  0  0
  -24.9530  -34.0040   24.9780 H   0  0  0  0  0  0  0  0  0  0  0  0
  -24.1700  -36.7070   23.0670 C   0  0  0  0  0  1  0  0  0  0  0  0
  -25.4050  -36.2950   23.8840 C   0  0  0  0  0  3  0  0  0  0  0  0
  -27.5400  -37.1670   24.7280 C   0  0  0  0  0  1  0  0  0  0  0  0
  -26.4430  -37.3430   23.7790 N   0  0  0  0  0  0  0  0  0  0  0  0
  -26.0420  -38.2650   23.9270 H   0  0  0  0  0  0  0  0  0  0  0  0
  -26.3710  -31.6720   25.1110 C   0  0  1  0  0  0  0  0  0  0  0  0
  -25.2800  -31.4300   26.1800 C   0  0  0  0  0  1  0  0  0  0  0  0
  -26.9460  -30.2950   24.7080 C   0  0  0  0  0  1  0  0  0  0  0  0
  -27.5240  -32.4600   25.7750 C   0  0  0  0  0  1  0  0  0  0  0  0
  -29.9470  -18.9280   21.8040 C   0  0  0  0  0  2  0  0  0  0  0  0
  -31.4900  -18.7530   21.8540 C   0  0  0  0  0  2  0  0  0  0  0  0
  -32.1370  -17.6290   21.0000 C   0  0  0  0  0  2  0  0  0  0  0  0
  -33.1070  -17.5020   18.5690 C   0  0  0  0  0  1  0  0  0  0  0  0
  -31.8860  -17.7220   19.4820 C   0  0  0  0  0  3  0  0  0  0  0  0
  -30.3160  -15.6200   19.2380 C   0  0  0  0  0  3  0  0  0  0  0  0
  -30.6700  -16.9140   19.0580 C   0  0  0  0  0  3  0  0  0  0  0  0
  -31.0930  -14.5150   19.8070 C   0  0  0  0  0  0  0  0  0  0  0  0
  -30.7230  -12.2380   19.0250 C   0  0  0  0  0  2  0  0  0  0  0  0
  -29.7740  -12.3380   17.8130 C   0  0  0  0  0  2  0  0  0  0  0  0
  -28.3010  -12.2620   18.2660 C   0  0  0  0  0  2  0  0  0  0  0  0
  -27.9700  -13.2260   19.4340 C   0  0  0  0  0  3  0  0  0  0  0  0
  -29.0620  -13.2100   20.5320 C   0  0  0  0  0  2  0  0  0  0  0  0
  -30.3930  -13.3540   19.9200 N   0  0  0  0  0  0  0  0  0  0  0  0
  -32.3170  -14.5230   19.7630 O   0  0  0  0  0  0  0  0  0  0  0  0
  -25.6390  -13.9540   20.2150 C   0  0  0  0  0  0  0  0  0  0  0  0
  -24.5440  -13.2290   20.6050 C   0  0  0  0  0  0  0  0  0  0  0  0
  -24.9510  -11.8610   20.5850 C   0  0  0  0  0  0  0  0  0  0  0  0
  -26.6360  -13.0180   19.9730 N   0  0  0  0  0  0  0  0  0  0  0  0
  -26.2310  -11.7590   20.2570 N   0  0  0  0  0  0  0  0  0  0  0  0
  -24.1820  -10.6330   20.7990 C   0  0  0  0  0  0  0  0  0  0  0  0
  -24.5780   -9.6760   21.7580 C   0  0  0  0  0  3  0  0  0  0  0  0
  -23.8130   -8.5070   21.9600 C   0  0  0  0  0  3  0  0  0  0  0  0
  -22.6370   -8.2910   21.2030 C   0  0  0  0  0  0  0  0  0  0  0  0
  -22.2630   -9.2340   20.2310 C   0  0  0  0  0  3  0  0  0  0  0  0
  -23.0300  -10.3930   20.0260 C   0  0  0  0  0  3  0  0  0  0  0  0
  -21.8420   -7.1760   21.3130 O   0  0  0  0  0  0  0  0  0  0  0  0
  -21.7280   -6.4920   22.4960 C   0  0  0  0  0  0  0  0  0  0  0  0
  -21.2910   -7.1200   23.6840 C   0  0  0  0  0  3  0  0  0  0  0  0
  -21.1220   -6.3620   24.8580 C   0  0  0  0  0  3  0  0  0  0  0  0
  -21.3810   -4.9770   24.8480 C   0  0  0  0  0  0  0  0  0  0  0  0
  -21.8120   -4.3510   23.6650 C   0  0  0  0  0  3  0  0  0  0  0  0
  -21.9820   -5.1070   22.4920 C   0  0  0  0  0  0  0  0  0  0  0  0
  -22.3780   -4.4950   21.3510 F   0  0  0  0  0  0  0  0  0  0  0  0
  -21.2110   -4.2460   25.9750 F   0  0  0  0  0  0  0  0  0  0  0  0
  -23.1720  -13.7650   20.8900 C   0  0  0  0  0  0  0  0  0  0  0  0
  -22.4390  -13.1120   21.7880 N   0  0  0  0  0  0  0  0  0  0  0  0
  -22.7580  -14.7910   20.3530 O   0  0  0  0  0  0  0  0  0  0  0  0
  -22.7930  -12.2850   22.2470 H   0  0  0  0  0  0  0  0  0  0  0  0
  -21.5160  -13.4450   22.0290 H   0  0  0  0  0  0  0  0  0  0  0  0
  -25.8640  -15.3140   20.0220 N   0  0  0  0  0  0  0  0  0  0  0  0
  -25.1370  -16.0100   20.1430 H   0  0  0  0  0  0  0  0  0  0  0  0
  -26.7560  -15.7140   19.7590 H   0  0  0  0  0  0  0  0  0  0  0  0
  1  4  1  0
  2  1  2  0
  2  5  1  0
  4  8  1  0
  4  3  2  0
  5  6  2  0
  6  3  1  0
  6 53  1  0
  7  5  1  0
  8  9  2  0
 10  8  1  0
 11 10  1  0
 11 12  1  0
 13 24  2  0
 14 12  1  0
 14 19  1  0
 15 23  1  0
 15 25  1  0
 16 22  1  0
 16 18  1  0
 17 23  1  0
 18 19  2  0
 18 17  1  0
 20 21  1  0
 20 14  2  0
 21 16  2  0
 22 15  1  0
 23 13  1  0
 25 27  2  0
 26 25  1  0
 28 26  1  0
 29 38  2  0
 29 34  1  0
 30 26  1  0
 30 34  1  0
 31 30  1  0
 32 33  1  0
 32 31  1  0
 33 29  1  0
 34 35  2  0
 35 36  1  0
 37 36  2  0
 38 37  1  0
 39 13  1  0
 39 40  1  0
 39 49  1  0
 40 43  1  0
 41 45  1  0
 41 40  1  0
 42 41  2  0
 45 44  1  0
 47 45  1  0
 47 48  1  0
 47 46  1  0
 49 52  1  1
 49 50  1  0
 51 49  1  0
 53 54  1  0
 55 54  1  0
 57 56  1  0
 57 55  1  0
 58 60  1  0
 59 58  2  0
 59 57  1  0
 60 66  1  0
 61 66  1  0
 62 63  1  0
 62 61  1  0
 64 63  1  0
 64 71  1  0
 64 65  1  0
 66 65  1  0
 67 60  2  0
 68 69  2  0
 69 88  1  0
 70 69  1  0
 70 73  1  0
 71 68  1  0
 71 72  1  0
 72 70  2  0
 73 74  1  0
 74 75  2  0
 76 79  1  0
 76 75  1  0
 77 76  2  0
 78 77  1  0
 78 73  2  0
 79 80  1  0
 80 81  1  0
 81 82  2  0
 83 82  1  0
 83 87  1  0
 84 83  2  0
 85 80  2  0
 85 84  1  0
 86 85  1  0
 88 89  1  0
 89 92  1  0
 89 91  1  0
 90 88  2  0
 93 94  1  0
 93 68  1  0
 95 93  1  0
M  ISO  4  11 101  12 101  58 100  60 100
M  END
>  <TORSDO>  (34) 
F 24

>  <SCORE>  (34) 
-12.249

>  <name>  (34) 
33

>  <ligand_id>  (34) 
33

>  <original_smiles>  (34) 
[H]C(C(=O)N1C([H])([H])C([H])([H])C([H])([H])C([H])(n2nc(-c3c([H])c([H])c(Oc4c([H])c([H])c(F)c([H])c4F)c([H])c3[H])c(C(=O)N([H])[H])c2N([H])[H])C1([H])[H])=C([H])C([H])(C([H])([H])[H])C([H])([H])C([H])([H])C([H])([H])c1c([H])c(C(=O)C([H])([H])C([H])([H])Oc2c([H])c([H])c3c(c2[H])C([H])([H])N(C(=O)C([H])(N([H])C(=O)C([H])(N([H])C([H])([H])[H])C([H])([H])[H])C(C([H])([H])[H])(C([H])([H])[H])C([H])([H])[H])C([H])(C(=O)N([H])C2([H])c4c([H])c([H])c([H])c([H])c4C([H])([H])C([H])([H])C2([H])[H])C3([H])[H])c([H])c([H])c1C([H])([H])[H]

>  <smiles>  (34) 
[H]C(C(=O)N1C([H])([H])C([H])([H])C([H])([H])C([H])(n2nc(-c3c([H])c([H])c(Oc4c([H])c([H])c(F)c([H])c4F)c([H])c3[H])c(C(=O)N([H])[H])c2N([H])[H])C1([H])[H])=C([H])C([H])(C([H])([H])[H])C([H])([H])C([H])([H])C([H])([H])c1c([H])c(C(=O)C([H])([H])C([H])([H])Oc2c([H])c([H])c3c(c2[H])C([H])([H])N(C(=O)C([H])(N([H])C(=O)C([H])(N([H])C([H])([H])[H])C([H])([H])[H])C(C([H])([H])[H])(C([H])([H])[H])C([H])([H])[H])C([H])(C(=O)N([H])C2([H])c4c([H])c([H])c([H])c([H])c4C([H])([H])C([H])([H])C2([H])[H])C3([H])[H])c([H])c([H])c1C([H])([H])[H]

$$$$
34:0:0
     RDKit          3D

 99105  0  0  1  0  0  0  0  0999 V2000
  -30.7850  -18.6460   19.9380 C   0  0  0  0  0  3  0  0  0  0  0  0
  -32.6720  -19.9140   19.2150 C   0  0  0  0  0  3  0  0  0  0  0  0
  -30.0000  -19.8450   19.9160 C   0  0  0  0  0  3  0  0  0  0  0  0
  -31.8810  -21.1260   19.2140 C   0  0  0  0  0  3  0  0  0  0  0  0
  -32.1720  -18.6340   19.6390 C   0  0  0  0  0  0  0  0  0  0  0  0
  -30.5100  -21.1460   19.6160 C   0  0  0  0  0  0  0  0  0  0  0  0
  -33.1190  -17.4090   20.0850 C   0  0  0  0  0  2  0  0  0  0  0  0
  -33.5940  -16.0670   19.2680 C   0  0  0  0  0  2  0  0  0  0  0  0
  -29.9150  -14.0870   18.8740 C   0  0  0  0  0  2  0  0  0  0  0  0
  -31.3800  -14.9050   18.3060 C   0  0  0  0  0  2  0  0  0  0  0  0
  -30.3720  -11.3970   20.0270 C   0  0  0  0  0  1  0  0  0  0  0  0
  -33.3430  -13.0490   20.2700 C   0  0  0  0  0  1  0  0  0  0  0  0
  -32.9400  -14.5740   19.1570 C   0  0  0  0  0  3  0  0  0  0  0  0
  -32.2600  -11.4490   20.6710 C   0  0  0  0  0  1  0  0  0  0  0  0
  -29.7970  -15.0300   19.7570 N   0  0  0  0  0  2  0  0  0  0  0  0
  -30.7260  -14.6920   20.7630 C   0  0  0  0  0  0  0  0  0  0  0  0
  -31.2920  -12.2170   18.8160 C   0  0  0  0  0  2  0  0  0  0  0  0
  -29.7730  -11.7030   17.9680 C   0  0  0  0  0  3  0  0  0  0  0  0
  -28.1880  -11.9170   18.7640 C   0  0  0  0  0  3  0  0  0  0  0  0
  -27.8890  -12.8530   20.2430 C   0  0  0  0  0  3  0  0  0  0  0  0
  -29.1500  -13.3350   21.4410 C   0  0  0  0  0  2  0  0  0  0  0  0
  -30.8150  -13.4110   20.8020 N   0  0  0  0  0  2  0  0  0  0  0  0
  -31.6470  -15.3230   21.2130 O   0  0  0  0  0  0  0  0  0  0  0  0
  -25.5280  -13.7180   20.7050 C   0  0  0  0  0  0  0  0  0  0  0  0
  -24.3890  -13.0190   20.9670 C   0  0  0  0  0  0  0  0  0  0  0  0
  -24.7810  -11.6460   21.0040 C   0  0  0  0  0  0  0  0  0  0  0  0
  -26.5330  -12.7450   20.6580 N   0  0  0  0  0  0  0  0  0  0  0  0
  -26.0840  -11.5080   20.8610 N   0  0  0  0  0  0  0  0  0  0  0  0
  -24.0000  -10.4330   21.1460 C   0  0  0  0  0  0  0  0  0  0  0  0
  -24.3570   -9.4610   22.1040 C   0  0  0  0  0  3  0  0  0  0  0  0
  -23.5840   -8.2950   22.2520 C   0  0  0  0  0  3  0  0  0  0  0  0
  -22.4440   -8.1020   21.4390 C   0  0  0  0  0  0  0  0  0  0  0  0
  -22.1110   -9.0590   20.4620 C   0  0  0  0  0  3  0  0  0  0  0  0
  -22.8870  -10.2180   20.3120 C   0  0  0  0  0  3  0  0  0  0  0  0
  -21.6380   -6.9930   21.5030 O   0  0  0  0  0  0  0  0  0  0  0  0
  -21.5310   -6.2580   22.6520 C   0  0  0  0  0  0  0  0  0  0  0  0
  -21.0970   -6.8300   23.8670 C   0  0  0  0  0  3  0  0  0  0  0  0
  -20.9370   -6.0190   25.0070 C   0  0  0  0  0  3  0  0  0  0  0  0
  -21.1980   -4.6380   24.9320 C   0  0  0  0  0  0  0  0  0  0  0  0
  -21.6250   -4.0670   23.7200 C   0  0  0  0  0  3  0  0  0  0  0  0
  -21.7910   -4.8770   22.5830 C   0  0  0  0  0  0  0  0  0  0  0  0
  -22.1870   -4.3180   21.4120 F   0  0  0  0  0  0  0  0  0  0  0  0
  -21.0290   -3.8580   26.0240 F   0  0  0  0  0  0  0  0  0  0  0  0
  -23.0050  -13.5760   21.0890 C   0  0  0  0  0  0  0  0  0  0  0  0
  -22.1700  -12.9470   21.9080 N   0  0  0  0  0  0  0  0  0  0  0  0
  -22.6720  -14.6130   20.5190 O   0  0  0  0  0  0  0  0  0  0  0  0
  -22.4430  -12.1060   22.3960 H   0  0  0  0  0  0  0  0  0  0  0  0
  -21.2370  -13.3130   22.0580 H   0  0  0  0  0  0  0  0  0  0  0  0
  -25.7790  -15.0770   20.4970 N   0  0  0  0  0  0  0  0  0  0  0  0
  -25.0580  -15.7920   20.4830 H   0  0  0  0  0  0  0  0  0  0  0  0
  -26.7060  -15.4490   20.3260 H   0  0  0  0  0  0  0  0  0  0  0  0
  -32.4120  -11.0630   22.0860 N   0  0  0  0  0  4  0  0  0  0  0  0
  -32.0610  -11.7700   22.7080 H   0  0  0  0  0  0  0  0  0  0  0  0
  -33.3850  -10.9250   22.2910 H   0  0  0  0  0  0  0  0  0  0  0  0
  -31.9450  -10.1910   22.2670 H   0  0  0  0  0  0  0  0  0  0  0  0
  -29.5500  -22.4090   19.9040 C   0  0  0  0  0  2  0  0  0  0  0  0
  -29.6160  -23.9630   19.4080 C   0  0  0  0  0  3  0  0  0  0  0  0
  -28.3220  -24.9200   19.7610 C   0  0  0  0  0  3  0  0  0  0  0  0
  -28.3170  -26.4310   19.7720 O   0  0  0  0  0  0  0  0  0  0  0  0
  -24.5390  -31.7480   23.1130 C   0  0  0  0  0  0  0  0  0  0  0  0
  -27.1240  -27.2070   19.8900 C   0  0  0  0  0  0  0  0  0  0  0  0
  -23.2950  -30.3790   21.4800 C   0  0  0  0  0  3  0  0  0  0  0  0
  -24.7130  -28.8180   20.0140 C   0  0  0  0  0  0  0  0  0  0  0  0
  -25.8360  -30.6730   21.2440 C   0  0  0  0  0  2  0  0  0  0  0  0
  -25.9030  -29.2960   20.5800 C   0  0  0  0  0  0  0  0  0  0  0  0
  -27.0950  -28.5060   20.5080 C   0  0  0  0  0  3  0  0  0  0  0  0
  -25.8880  -26.7740   19.3410 C   0  0  0  0  0  3  0  0  0  0  0  0
  -24.7120  -27.5580   19.3910 C   0  0  0  0  0  3  0  0  0  0  0  0
  -23.4770  -29.7000   20.0950 C   0  0  0  0  0  2  0  0  0  0  0  0
  -24.5790  -30.9540   22.0020 N   0  0  0  0  0  0  0  0  0  0  0  0
  -23.4670  -32.0260   23.6720 O   0  0  0  0  0  0  0  0  0  0  0  0
  -22.6360  -29.3650   22.4440 C   0  0  0  0  0  0  0  0  0  0  0  0
  -21.3050  -29.2100   22.3400 N   0  0  0  0  0  0  0  0  0  0  0  0
  -23.3210  -28.7160   23.2380 O   0  0  0  0  0  0  0  0  0  0  0  0
  -20.8180  -29.7730   21.6590 H   0  0  0  0  0  0  0  0  0  0  0  0
  -17.9220  -28.0550   22.8910 C   0  0  0  0  0  0  0  0  0  0  0  0
  -20.4890  -28.2720   23.1120 C   0  0  0  0  0  3  0  0  0  0  0  0
  -20.5610  -26.8540   22.5040 C   0  0  0  0  0  2  0  0  0  0  0  0
  -19.4330  -26.5680   21.5070 C   0  0  0  0  0  2  0  0  0  0  0  0
  -18.0670  -26.7180   22.1840 C   0  0  0  0  0  2  0  0  0  0  0  0
  -19.0610  -28.7920   23.3120 C   0  0  0  0  0  0  0  0  0  0  0  0
  -18.8740  -30.0450   23.9350 C   0  0  0  0  0  3  0  0  0  0  0  0
  -17.5810  -30.5590   24.1460 C   0  0  0  0  0  3  0  0  0  0  0  0
  -16.4570  -29.8180   23.7450 C   0  0  0  0  0  3  0  0  0  0  0  0
  -16.6280  -28.5690   23.1210 C   0  0  0  0  0  3  0  0  0  0  0  0
  -25.8340  -32.3660   23.7250 C   0  0  0  0  0  3  0  0  0  0  0  0
  -26.3660  -31.5680   24.9780 C   0  0  1  0  0  0  0  0  0  0  0  0
  -25.2930  -31.3200   26.0640 C   0  0  0  0  0  1  0  0  0  0  0  0
  -26.9290  -30.1930   24.5500 C   0  0  0  0  0  1  0  0  0  0  0  0
  -27.5320  -32.3450   25.6340 C   0  0  0  0  0  1  0  0  0  0  0  0
  -25.5340  -33.7570   24.0890 N   0  0  0  0  0  0  0  0  0  0  0  0
  -25.8730  -34.8310   23.3620 C   0  0  0  0  0  0  0  0  0  0  0  0
  -26.5430  -34.7500   22.3280 O   0  0  0  0  0  0  0  0  0  0  0  0
  -24.9370  -33.8920   24.8920 H   0  0  0  0  0  0  0  0  0  0  0  0
  -24.1640  -36.6580   23.0610 C   0  0  0  0  0  1  0  0  0  0  0  0
  -25.3990  -36.2120   23.8610 C   0  0  0  0  0  3  0  0  0  0  0  0
  -27.5410  -37.0550   24.7200 C   0  0  0  0  0  1  0  0  0  0  0  0
  -26.4420  -37.2580   23.7810 N   0  0  0  0  0  0  0  0  0  0  0  0
  -26.0450  -38.1770   23.9510 H   0  0  0  0  0  0  0  0  0  0  0  0
  2  5  1  0
  3  1  1  0
  4  2  2  0
  4  6  1  0
  5  1  2  0
  5  7  1  0
  6 56  1  0
  6  3  2  0
  8  7  1  0
  9 15  1  0
 10  9  1  0
 10 13  1  0
 13  8  1  0
 13 12  1  0
 14 52  1  0
 15 16  1  0
 16 22  1  0
 16 23  2  0
 17 11  1  0
 18 19  2  0
 18 17  1  0
 20 19  1  0
 20 27  1  0
 20 21  1  0
 22 21  1  0
 24 25  2  0
 25 26  1  0
 25 44  1  0
 26 29  1  0
 27 24  1  0
 27 28  1  0
 28 26  2  0
 29 30  1  0
 30 31  2  0
 32 35  1  0
 32 31  1  0
 33 32  2  0
 34 33  1  0
 34 29  2  0
 35 36  1  0
 36 37  1  0
 37 38  2  0
 39 38  1  0
 39 43  1  0
 40 39  2  0
 41 36  2  0
 41 40  1  0
 42 41  1  0
 44 45  1  0
 45 48  1  0
 45 47  1  0
 46 44  2  0
 49 24  1  0
 50 49  1  0
 51 49  1  0
 52 55  1  0
 52 54  1  0
 52 53  1  0
 57 58  2  0
 57 56  1  0
 58 59  1  0
 59 61  1  0
 60 71  2  0
 61 66  1  0
 62 70  1  0
 62 72  1  0
 63 69  1  0
 63 65  1  0
 64 70  1  0
 65 64  1  0
 66 65  2  0
 67 68  1  0
 67 61  2  0
 68 63  2  0
 69 62  1  0
 70 60  1  0
 72 74  2  0
 73 72  1  0
 75 73  1  0
 76 85  2  0
 76 81  1  0
 77 73  1  0
 77 81  1  0
 78 77  1  0
 79 80  1  0
 79 78  1  0
 80 76  1  0
 81 82  2  0
 82 83  1  0
 84 83  2  0
 85 84  1  0
 86 60  1  0
 86 91  1  0
 86 87  1  0
 87 90  1  1
 87 88  1  0
 89 87  1  0
 91 94  1  0
 92 96  1  0
 92 91  1  0
 93 92  2  0
 96 95  1  0
 98 96  1  0
 98 99  1  0
 98 97  1  0
M  ISO  4  15 100  16 100  58 101  59 101
M  END
>  <TORSDO>  (35) 
F 23

>  <SCORE>  (35) 
-13.204

>  <name>  (35) 
34

>  <ligand_id>  (35) 
34

>  <original_smiles>  (35) 
[H]c1c([H])c([H])c2c(c1[H])C([H])([H])C([H])([H])C([H])([H])C2([H])N([H])C(=O)C1([H])N(C(=O)C([H])(N([H])C(=O)C([H])(N([H])C([H])([H])[H])C([H])([H])[H])C(C([H])([H])[H])(C([H])([H])[H])C([H])([H])[H])C([H])([H])c2c([H])c(OC([H])([H])C([H])([H])C([H])([H])c3c([H])c([H])c(C([H])([H])C([H])([H])C4([H])C([H])([H])C(=NC(=O)N5C([H])([H])C([H])([H])C([H])([H])C([H])(n6nc(-c7c([H])c([H])c(Oc8c([H])c([H])c(F)c([H])c8F)c([H])c7[H])c(C(=O)N([H])[H])c6N([H])[H])C5([H])[H])C([H])([H])C([H])([N+]([H])([H])[H])C4([H])[H])c([H])c3[H])c([H])c([H])c2C1([H])[H]

>  <smiles>  (35) 
[H]c1c([H])c([H])c2c(c1[H])C([H])([H])C([H])([H])C([H])([H])C2([H])N([H])C(=O)C1([H])N(C(=O)C([H])(N([H])C(=O)C([H])(N([H])C([H])([H])[H])C([H])([H])[H])C(C([H])([H])[H])(C([H])([H])[H])C([H])([H])[H])C([H])([H])c2c([H])c(OC([H])([H])C([H])([H])C([H])([H])c3c([H])c([H])c(C([H])([H])C([H])([H])C4([H])C([H])([H])C(=NC(=O)N5C([H])([H])C([H])([H])C([H])([H])C([H])(n6nc(-c7c([H])c([H])c(Oc8c([H])c([H])c(F)c([H])c8F)c([H])c7[H])c(C(=O)N([H])[H])c6N([H])[H])C5([H])[H])C([H])([H])C([H])([N+]([H])([H])[H])C4([H])[H])c([H])c3[H])c([H])c([H])c2C1([H])[H]

$$$$
35:0:0
     RDKit          3D

 88 95  0  0  1  0  0  0  0  0999 V2000
  -28.9900  -22.5020   19.8600 C   0  0  0  0  0  3  0  0  0  0  0  0
  -28.4690  -21.4990   17.7190 C   0  0  0  0  0  1  0  0  0  0  0  0
  -29.1900  -22.4920   18.4480 O   0  0  0  0  0  0  0  0  0  0  0  0
  -29.9340  -21.3680   20.4720 C   0  0  0  0  0  2  0  0  0  0  0  0
  -29.4510  -19.8660   20.5330 C   0  0  0  0  0  0  0  0  0  0  0  0
  -28.3410  -19.5980   20.9980 O   0  0  0  0  0  0  0  0  0  0  0  0
  -30.3600  -18.6930   20.0030 C   0  0  0  0  0  2  0  0  0  0  0  0
  -30.5880  -17.3830   20.8900 C   0  0  0  0  0  2  0  0  0  0  0  0
  -29.8120  -16.0130   20.6020 C   0  0  0  0  0  2  0  0  0  0  0  0
  -30.6170  -14.6730   20.3330 C   0  0  0  0  0  0  0  0  0  0  0  0
  -30.3580  -12.4160   19.3120 C   0  0  0  0  0  2  0  0  0  0  0  0
  -29.4150  -12.5540   18.0920 C   0  0  0  0  0  2  0  0  0  0  0  0
  -27.9470  -12.3990   18.5300 C   0  0  0  0  0  2  0  0  0  0  0  0
  -27.6020  -13.2910   19.7510 C   0  0  0  0  0  3  0  0  0  0  0  0
  -28.6620  -13.1540   20.8660 C   0  0  0  0  0  2  0  0  0  0  0  0
  -29.9800  -13.4580   20.2890 N   0  0  0  0  0  0  0  0  0  0  0  0
  -31.7900  -14.7670   19.9630 O   0  0  0  0  0  0  0  0  0  0  0  0
  -25.2170  -13.9060   20.4810 C   0  0  0  0  0  0  0  0  0  0  0  0
  -24.1490  -13.1430   20.8560 C   0  0  0  0  0  0  0  0  0  0  0  0
  -24.6050  -11.7880   20.8370 C   0  0  0  0  0  0  0  0  0  0  0  0
  -26.2580  -13.0210   20.2480 N   0  0  0  0  0  0  0  0  0  0  0  0
  -25.8930  -11.7420   20.5250 N   0  0  0  0  0  0  0  0  0  0  0  0
  -23.8740  -10.5310   21.0350 C   0  0  0  0  0  0  0  0  0  0  0  0
  -24.3200   -9.5520   21.9510 C   0  0  0  0  0  3  0  0  0  0  0  0
  -23.5860   -8.3600   22.1350 C   0  0  0  0  0  3  0  0  0  0  0  0
  -22.3970   -8.1380   21.4040 C   0  0  0  0  0  0  0  0  0  0  0  0
  -21.9740   -9.1030   20.4730 C   0  0  0  0  0  3  0  0  0  0  0  0
  -22.7070  -10.2860   20.2860 C   0  0  0  0  0  3  0  0  0  0  0  0
  -21.6340   -6.9990   21.4990 O   0  0  0  0  0  0  0  0  0  0  0  0
  -21.6160   -6.2370   22.6390 C   0  0  0  0  0  0  0  0  0  0  0  0
  -21.2570   -6.7820   23.8930 C   0  0  0  0  0  3  0  0  0  0  0  0
  -21.1840   -5.9500   25.0270 C   0  0  0  0  0  3  0  0  0  0  0  0
  -21.4610   -4.5750   24.9120 C   0  0  0  0  0  0  0  0  0  0  0  0
  -21.8140   -4.0290   23.6670 C   0  0  0  0  0  3  0  0  0  0  0  0
  -21.8900   -4.8570   22.5320 C   0  0  0  0  0  0  0  0  0  0  0  0
  -22.2080   -4.3250   21.3290 F   0  0  0  0  0  0  0  0  0  0  0  0
  -21.3840   -3.7730   26.0000 F   0  0  0  0  0  0  0  0  0  0  0  0
  -22.7570  -13.6260   21.1370 C   0  0  0  0  0  0  0  0  0  0  0  0
  -22.0360  -12.9330   22.0120 N   0  0  0  0  0  0  0  0  0  0  0  0
  -22.3200  -14.6530   20.6160 O   0  0  0  0  0  0  0  0  0  0  0  0
  -22.4070  -12.0970   22.4400 H   0  0  0  0  0  0  0  0  0  0  0  0
  -21.1080  -13.2380   22.2670 H   0  0  0  0  0  0  0  0  0  0  0  0
  -25.3960  -15.2750   20.2980 N   0  0  0  0  0  0  0  0  0  0  0  0
  -24.6450  -15.9430   20.4100 H   0  0  0  0  0  0  0  0  0  0  0  0
  -26.2640  -15.7050   19.9990 H   0  0  0  0  0  0  0  0  0  0  0  0
  -29.2420  -24.0140   20.3060 C   0  0  0  0  0  3  0  0  0  0  0  0
  -28.1140  -25.0630   19.9320 C   0  0  0  0  0  3  0  0  0  0  0  0
  -28.3230  -26.5040   20.1830 O   0  0  0  0  0  0  0  0  0  0  0  0
  -24.5880  -31.8730   23.2270 C   0  0  0  0  0  0  0  0  0  0  0  0
  -27.1940  -27.3370   20.1400 C   0  0  0  0  0  0  0  0  0  0  0  0
  -23.3740  -30.4720   21.5940 C   0  0  0  0  0  3  0  0  0  0  0  0
  -24.8190  -28.9290   20.1600 C   0  0  0  0  0  0  0  0  0  0  0  0
  -25.9090  -30.8020   21.3900 C   0  0  0  0  0  2  0  0  0  0  0  0
  -25.9900  -29.4250   20.7430 C   0  0  0  0  0  0  0  0  0  0  0  0
  -27.1790  -28.6380   20.7330 C   0  0  0  0  0  3  0  0  0  0  0  0
  -25.9970  -26.8990   19.5230 C   0  0  0  0  0  3  0  0  0  0  0  0
  -24.8230  -27.6700   19.5440 C   0  0  0  0  0  3  0  0  0  0  0  0
  -23.5780  -29.7960   20.2140 C   0  0  0  0  0  2  0  0  0  0  0  0
  -24.6440  -31.0640   22.1260 N   0  0  0  0  0  0  0  0  0  0  0  0
  -23.5090  -32.1470   23.7730 O   0  0  0  0  0  0  0  0  0  0  0  0
  -22.7180  -29.4550   22.5600 C   0  0  0  0  0  0  0  0  0  0  0  0
  -21.3920  -29.2790   22.4400 N   0  0  0  0  0  0  0  0  0  0  0  0
  -23.4030  -28.8270   23.3720 O   0  0  0  0  0  0  0  0  0  0  0  0
  -20.8990  -29.8360   21.7550 H   0  0  0  0  0  0  0  0  0  0  0  0
  -18.0170  -28.0790   22.9380 C   0  0  0  0  0  0  0  0  0  0  0  0
  -20.5750  -28.3410   23.2100 C   0  0  0  0  0  3  0  0  0  0  0  0
  -20.6780  -26.9080   22.6380 C   0  0  0  0  0  2  0  0  0  0  0  0
  -19.5770  -26.5830   21.6240 C   0  0  0  0  0  2  0  0  0  0  0  0
  -18.1950  -26.7270   22.2680 C   0  0  0  0  0  2  0  0  0  0  0  0
  -19.1340  -28.8440   23.3660 C   0  0  0  0  0  0  0  0  0  0  0  0
  -18.9140  -30.1100   23.9500 C   0  0  0  0  0  3  0  0  0  0  0  0
  -17.6080  -30.6110   24.1120 C   0  0  0  0  0  3  0  0  0  0  0  0
  -16.5050  -29.8420   23.7050 C   0  0  0  0  0  3  0  0  0  0  0  0
  -16.7100  -28.5760   23.1250 C   0  0  0  0  0  3  0  0  0  0  0  0
  -25.8740  -32.5050   23.8380 C   0  0  0  0  0  3  0  0  0  0  0  0
  -25.5670  -33.9010   24.1800 N   0  0  0  0  0  0  0  0  0  0  0  0
  -25.8840  -34.9580   23.4220 C   0  0  0  0  0  0  0  0  0  0  0  0
  -26.5390  -34.8610   22.3810 O   0  0  0  0  0  0  0  0  0  0  0  0
  -24.9880  -34.0490   24.9940 H   0  0  0  0  0  0  0  0  0  0  0  0
  -24.1430  -36.7460   23.1050 C   0  0  0  0  0  1  0  0  0  0  0  0
  -25.4010  -36.3450   23.8930 C   0  0  0  0  0  3  0  0  0  0  0  0
  -27.5480  -37.2390   24.6800 C   0  0  0  0  0  1  0  0  0  0  0  0
  -26.4240  -37.4040   23.7620 N   0  0  0  0  0  0  0  0  0  0  0  0
  -26.0170  -38.3220   23.9220 H   0  0  0  0  0  0  0  0  0  0  0  0
  -26.4080  -31.7250   25.1040 C   0  0  1  0  0  0  0  0  0  0  0  0
  -25.3330  -31.4710   26.1860 C   0  0  0  0  0  1  0  0  0  0  0  0
  -26.9830  -30.3510   24.6890 C   0  0  0  0  0  1  0  0  0  0  0  0
  -27.5650  -32.5150   25.7570 C   0  0  0  0  0  1  0  0  0  0  0  0
  1 46  1  0
  1  4  1  0
  2  3  1  0
  3  1  1  0
  4  5  1  0
  5  6  2  0
  7  5  1  0
  7  8  1  0
  9  8  1  0
 10  9  1  0
 11 16  1  0
 12 13  1  0
 12 11  1  0
 14 13  1  0
 14 21  1  0
 14 15  1  0
 16 10  1  0
 16 15  1  0
 17 10  2  0
 18 19  2  0
 19 38  1  0
 20 19  1  0
 20 23  1  0
 21 18  1  0
 21 22  1  0
 22 20  2  0
 23 24  1  0
 24 25  2  0
 26 29  1  0
 26 25  1  0
 27 26  2  0
 28 27  1  0
 28 23  2  0
 29 30  1  0
 30 31  1  0
 31 32  2  0
 33 32  1  0
 33 37  1  0
 34 33  2  0
 35 30  2  0
 35 34  1  0
 36 35  1  0
 38 39  1  0
 39 42  1  0
 39 41  1  0
 40 38  2  0
 43 44  1  0
 43 18  1  0
 45 43  1  0
 47 48  1  0
 47 46  2  0
 49 60  2  0
 50 48  1  0
 50 55  1  0
 51 59  1  0
 51 61  1  0
 52 58  1  0
 52 54  1  0
 53 59  1  0
 54 53  1  0
 55 54  2  0
 56 57  1  0
 56 50  2  0
 57 52  2  0
 58 51  1  0
 59 49  1  0
 61 63  2  0
 62 61  1  0
 64 62  1  0
 65 74  2  0
 65 70  1  0
 66 62  1  0
 66 70  1  0
 67 66  1  0
 68 69  1  0
 68 67  1  0
 69 65  1  0
 70 71  2  0
 71 72  1  0
 73 72  2  0
 74 73  1  0
 75 49  1  0
 75 76  1  0
 75 85  1  0
 76 79  1  0
 77 81  1  0
 77 76  1  0
 78 77  2  0
 81 80  1  0
 83 81  1  0
 83 84  1  0
 83 82  1  0
 85 88  1  1
 85 86  1  0
 87 85  1  0
M  ISO  4   9 100  10 100  47 101  48 101
M  END
>  <TORSDO>  (36) 
F 24

>  <SCORE>  (36) 
-12.295

>  <name>  (36) 
35

>  <ligand_id>  (36) 
35

>  <original_smiles>  (36) 
[H]c1c([H])c([H])c2c(c1[H])C([H])([H])C([H])([H])C([H])([H])C2([H])N([H])C(=O)C1([H])N(C(=O)C([H])(N([H])C(=O)C([H])(N([H])C([H])([H])[H])C([H])([H])[H])C(C([H])([H])[H])(C([H])([H])[H])C([H])([H])[H])C([H])([H])c2c([H])c(OC([H])([H])C([H])([H])C([H])(OC([H])([H])[H])C([H])([H])C(=O)C([H])([H])C([H])([H])C([H])([H])C(=O)N3C([H])([H])C([H])([H])C([H])([H])C([H])(n4nc(-c5c([H])c([H])c(Oc6c([H])c([H])c(F)c([H])c6F)c([H])c5[H])c(C(=O)N([H])[H])c4N([H])[H])C3([H])[H])c([H])c([H])c2C1([H])[H]

>  <smiles>  (36) 
[H]c1c([H])c([H])c2c(c1[H])C([H])([H])C([H])([H])C([H])([H])C2([H])N([H])C(=O)C1([H])N(C(=O)C([H])(N([H])C(=O)C([H])(N([H])C([H])([H])[H])C([H])([H])[H])C(C([H])([H])[H])(C([H])([H])[H])C([H])([H])[H])C([H])([H])c2c([H])c(OC([H])([H])C([H])([H])C([H])(OC([H])([H])[H])C([H])([H])C(=O)C([H])([H])C([H])([H])C([H])([H])C(=O)N3C([H])([H])C([H])([H])C([H])([H])C([H])(n4nc(-c5c([H])c([H])c(Oc6c([H])c([H])c(F)c([H])c6F)c([H])c5[H])c(C(=O)N([H])[H])c4N([H])[H])C3([H])[H])c([H])c([H])c2C1([H])[H]

$$$$
36:0:0
     RDKit          3D

 89 96  0  0  1  0  0  0  0  0999 V2000
  -31.3200  -24.0500   21.4730 C   0  0  0  0  0  2  0  0  0  0  0  0
  -30.8850  -22.7920   22.2180 C   0  0  0  0  0  0  0  0  0  0  0  0
  -30.2310  -22.8550   23.2640 O   0  0  0  0  0  0  0  0  0  0  0  0
  -31.3110  -21.4610   21.6060 C   0  0  0  0  0  2  0  0  0  0  0  0
  -30.6130  -20.2330   22.2140 C   0  0  0  0  0  2  0  0  0  0  0  0
  -31.0860  -18.9610   21.5040 C   0  0  0  0  0  2  0  0  0  0  0  0
  -30.4650  -17.6600   22.0280 C   0  0  0  0  0  2  0  0  0  0  0  0
  -30.9430  -16.4960   21.1520 C   0  0  0  0  0  2  0  0  0  0  0  0
  -30.2640  -15.1310   21.3970 C   0  0  0  0  0  2  0  0  0  0  0  0
  -30.7200  -14.0880   20.3590 C   0  0  0  0  0  0  0  0  0  0  0  0
  -30.3010  -12.0540   19.0300 C   0  0  0  0  0  2  0  0  0  0  0  0
  -29.3080  -12.3500   17.8900 C   0  0  0  0  0  2  0  0  0  0  0  0
  -27.8580  -12.1910   18.3800 C   0  0  0  0  0  2  0  0  0  0  0  0
  -27.5880  -12.9470   19.7100 C   0  0  0  0  0  3  0  0  0  0  0  0
  -28.6920  -12.6560   20.7530 C   0  0  0  0  0  2  0  0  0  0  0  0
  -29.9930  -12.9630   20.1420 N   0  0  0  0  0  0  0  0  0  0  0  0
  -31.7450  -14.3310   19.7110 O   0  0  0  0  0  0  0  0  0  0  0  0
  -25.1980  -13.4990   20.4950 C   0  0  0  0  0  0  0  0  0  0  0  0
  -24.1610  -12.7020   20.8940 C   0  0  0  0  0  0  0  0  0  0  0  0
  -24.6500  -11.3600   20.8440 C   0  0  0  0  0  0  0  0  0  0  0  0
  -26.2560  -12.6420   20.2300 N   0  0  0  0  0  0  0  0  0  0  0  0
  -25.9300  -11.3510   20.4940 N   0  0  0  0  0  0  0  0  0  0  0  0
  -23.9600  -10.0810   21.0540 C   0  0  0  0  0  0  0  0  0  0  0  0
  -24.3640   -9.1810   22.0650 C   0  0  0  0  0  3  0  0  0  0  0  0
  -23.6710   -7.9660   22.2600 C   0  0  0  0  0  3  0  0  0  0  0  0
  -22.5620   -7.6420   21.4430 C   0  0  0  0  0  0  0  0  0  0  0  0
  -22.1790   -8.5310   20.4220 C   0  0  0  0  0  3  0  0  0  0  0  0
  -22.8720   -9.7370   20.2270 C   0  0  0  0  0  3  0  0  0  0  0  0
  -21.8450   -6.4740   21.5410 O   0  0  0  0  0  0  0  0  0  0  0  0
  -21.6560   -5.8460   22.7460 C   0  0  0  0  0  0  0  0  0  0  0  0
  -20.9930   -6.4790   23.8200 C   0  0  0  0  0  3  0  0  0  0  0  0
  -20.7560   -5.7730   25.0160 C   0  0  0  0  0  3  0  0  0  0  0  0
  -21.1740   -4.4340   25.1390 C   0  0  0  0  0  0  0  0  0  0  0  0
  -21.8300   -3.8000   24.0700 C   0  0  0  0  0  3  0  0  0  0  0  0
  -22.0670   -4.5040   22.8750 C   0  0  0  0  0  0  0  0  0  0  0  0
  -22.6810   -3.8800   21.8400 F   0  0  0  0  0  0  0  0  0  0  0  0
  -20.9410   -3.7540   26.2860 F   0  0  0  0  0  0  0  0  0  0  0  0
  -22.7620  -13.1440   21.2150 C   0  0  0  0  0  0  0  0  0  0  0  0
  -22.0780  -12.4230   22.0960 N   0  0  0  0  0  0  0  0  0  0  0  0
  -22.2850  -14.1650   20.7220 O   0  0  0  0  0  0  0  0  0  0  0  0
  -22.4780  -11.5960   22.5150 H   0  0  0  0  0  0  0  0  0  0  0  0
  -21.1410  -12.7000   22.3540 H   0  0  0  0  0  0  0  0  0  0  0  0
  -25.3260  -14.8740   20.3150 N   0  0  0  0  0  0  0  0  0  0  0  0
  -24.5560  -15.5180   20.4570 H   0  0  0  0  0  0  0  0  0  0  0  0
  -26.1650  -15.3300   19.9770 H   0  0  0  0  0  0  0  0  0  0  0  0
  -30.1540  -25.0260   21.2530 C   0  0  0  0  0  2  0  0  0  0  0  0
  -30.5120  -26.1330   20.2500 C   0  0  0  0  0  2  0  0  0  0  0  0
  -29.4190  -27.1980   20.1440 C   0  0  0  0  0  2  0  0  0  0  0  0
  -28.2260  -26.6450   19.5870 O   0  0  0  0  0  0  0  0  0  0  0  0
  -24.4770  -31.6230   23.0550 C   0  0  0  0  0  0  0  0  0  0  0  0
  -27.0720  -27.3900   19.7010 C   0  0  0  0  0  0  0  0  0  0  0  0
  -23.2200  -30.2870   21.3870 C   0  0  0  0  0  3  0  0  0  0  0  0
  -24.6380  -28.8260   19.8480 C   0  0  0  0  0  0  0  0  0  0  0  0
  -25.7240  -30.6940   21.1160 C   0  0  0  0  0  2  0  0  0  0  0  0
  -25.8000  -29.3540   20.4200 C   0  0  0  0  0  0  0  0  0  0  0  0
  -27.0110  -28.6470   20.3500 C   0  0  0  0  0  3  0  0  0  0  0  0
  -25.8930  -26.8650   19.1320 C   0  0  0  0  0  3  0  0  0  0  0  0
  -24.6760  -27.5760   19.2010 C   0  0  0  0  0  3  0  0  0  0  0  0
  -23.3850  -29.6630   19.9720 C   0  0  0  0  0  2  0  0  0  0  0  0
  -24.4940  -30.8790   21.9130 N   0  0  0  0  0  0  0  0  0  0  0  0
  -23.4160  -31.8620   23.6460 O   0  0  0  0  0  0  0  0  0  0  0  0
  -22.6100  -29.2210   22.3250 C   0  0  0  0  0  0  0  0  0  0  0  0
  -21.2850  -29.0350   22.2300 N   0  0  0  0  0  0  0  0  0  0  0  0
  -23.3250  -28.5650   23.0880 O   0  0  0  0  0  0  0  0  0  0  0  0
  -20.7720  -29.6190   21.5850 H   0  0  0  0  0  0  0  0  0  0  0  0
  -17.9310  -27.8220   22.7880 C   0  0  0  0  0  0  0  0  0  0  0  0
  -20.4970  -28.0580   22.9780 C   0  0  0  0  0  3  0  0  0  0  0  0
  -20.5730  -26.6610   22.3210 C   0  0  0  0  0  2  0  0  0  0  0  0
  -19.4330  -26.3960   21.3320 C   0  0  0  0  0  2  0  0  0  0  0  0
  -18.0770  -26.5100   22.0340 C   0  0  0  0  0  2  0  0  0  0  0  0
  -19.0680  -28.5570   23.2160 C   0  0  0  0  0  0  0  0  0  0  0  0
  -18.8780  -29.7900   23.8780 C   0  0  0  0  0  3  0  0  0  0  0  0
  -17.5830  -30.2870   24.1170 C   0  0  0  0  0  3  0  0  0  0  0  0
  -16.4610  -29.5460   23.7070 C   0  0  0  0  0  3  0  0  0  0  0  0
  -16.6350  -28.3150   23.0490 C   0  0  0  0  0  3  0  0  0  0  0  0
  -25.7850  -32.2300   23.6590 C   0  0  0  0  0  3  0  0  0  0  0  0
  -26.3500  -31.4000   24.8770 C   0  0  1  0  0  0  0  0  0  0  0  0
  -25.2860  -31.0640   25.9470 C   0  0  0  0  0  1  0  0  0  0  0  0
  -26.9680  -30.0690   24.3880 C   0  0  0  0  0  1  0  0  0  0  0  0
  -27.4870  -32.1900   25.5680 C   0  0  0  0  0  1  0  0  0  0  0  0
  -25.4890  -33.6110   24.0640 N   0  0  0  0  0  0  0  0  0  0  0  0
  -25.7950  -34.6960   23.3410 C   0  0  0  0  0  0  0  0  0  0  0  0
  -26.4300  -34.6420   22.2830 O   0  0  0  0  0  0  0  0  0  0  0  0
  -24.9250  -33.7290   24.8920 H   0  0  0  0  0  0  0  0  0  0  0  0
  -24.0460  -36.4890   23.1240 C   0  0  0  0  0  1  0  0  0  0  0  0
  -25.3170  -36.0600   23.8750 C   0  0  0  0  0  3  0  0  0  0  0  0
  -27.4670  -36.9240   24.6830 C   0  0  0  0  0  1  0  0  0  0  0  0
  -26.3400  -37.1220   23.7750 N   0  0  0  0  0  0  0  0  0  0  0  0
  -25.9330  -38.0340   23.9710 H   0  0  0  0  0  0  0  0  0  0  0  0
  1  2  1  0
  2  3  2  0
  4  5  1  0
  4  2  1  0
  6  7  1  0
  6  5  1  0
  8  9  1  0
  8  7  1  0
 10  9  1  0
 11 16  1  0
 12 13  1  0
 12 11  1  0
 14 13  1  0
 14 21  1  0
 14 15  1  0
 16 10  1  0
 16 15  1  0
 17 10  2  0
 18 19  2  0
 19 38  1  0
 20 19  1  0
 20 23  1  0
 21 22  1  0
 21 18  1  0
 22 20  2  0
 23 24  1  0
 24 25  2  0
 26 29  1  0
 26 25  1  0
 27 26  2  0
 28 27  1  0
 28 23  2  0
 29 30  1  0
 30 35  2  0
 30 31  1  0
 31 32  2  0
 32 33  1  0
 33 37  1  0
 34 33  2  0
 35 34  1  0
 36 35  1  0
 38 39  1  0
 39 42  1  0
 39 41  1  0
 40 38  2  0
 43 44  1  0
 43 18  1  0
 45 43  1  0
 46  1  1  0
 47 46  1  0
 48 47  1  0
 49 51  1  0
 49 48  1  0
 50 61  2  0
 51 56  1  0
 52 60  1  0
 52 62  1  0
 53 59  1  0
 53 55  1  0
 54 60  1  0
 55 54  1  0
 56 55  2  0
 57 58  1  0
 57 51  2  0
 58 53  2  0
 59 52  1  0
 60 50  1  0
 62 64  2  0
 63 62  1  0
 65 63  1  0
 66 75  2  0
 66 71  1  0
 67 63  1  0
 67 71  1  0
 68 67  1  0
 69 70  1  0
 69 68  1  0
 70 66  1  0
 71 72  2  0
 72 73  1  0
 74 73  2  0
 75 74  1  0
 76 50  1  0
 76 81  1  0
 76 77  1  0
 77 80  1  1
 77 78  1  0
 79 77  1  0
 81 84  1  0
 82 86  1  0
 82 81  1  0
 83 82  2  0
 86 85  1  0
 88 86  1  0
 88 89  1  0
 88 87  1  0
M  ISO  4   9 100  10 100  48 101  49 101
M  END
>  <TORSDO>  (37) 
F 26

>  <SCORE>  (37) 
-10.437

>  <name>  (37) 
36

>  <ligand_id>  (37) 
36

>  <original_smiles>  (37) 
[H]c1c([H])c([H])c2c(c1[H])C([H])([H])C([H])([H])C([H])([H])C2([H])N([H])C(=O)C1([H])N(C(=O)C([H])(N([H])C(=O)C([H])(N([H])C([H])([H])[H])C([H])([H])[H])C(C([H])([H])[H])(C([H])([H])[H])C([H])([H])[H])C([H])([H])c2c([H])c(OC([H])([H])C([H])([H])C([H])([H])C([H])([H])C(=O)C([H])([H])C([H])([H])C([H])([H])C([H])([H])C([H])([H])C([H])([H])C(=O)N3C([H])([H])C([H])([H])C([H])([H])C([H])(n4nc(-c5c([H])c([H])c(Oc6c([H])c([H])c(F)c([H])c6F)c([H])c5[H])c(C(=O)N([H])[H])c4N([H])[H])C3([H])[H])c([H])c([H])c2C1([H])[H]

>  <smiles>  (37) 
[H]c1c([H])c([H])c2c(c1[H])C([H])([H])C([H])([H])C([H])([H])C2([H])N([H])C(=O)C1([H])N(C(=O)C([H])(N([H])C(=O)C([H])(N([H])C([H])([H])[H])C([H])([H])[H])C(C([H])([H])[H])(C([H])([H])[H])C([H])([H])[H])C([H])([H])c2c([H])c(OC([H])([H])C([H])([H])C([H])([H])C([H])([H])C(=O)C([H])([H])C([H])([H])C([H])([H])C([H])([H])C([H])([H])C([H])([H])C(=O)N3C([H])([H])C([H])([H])C([H])([H])C([H])(n4nc(-c5c([H])c([H])c(Oc6c([H])c([H])c(F)c([H])c6F)c([H])c5[H])c(C(=O)N([H])[H])c4N([H])[H])C3([H])[H])c([H])c([H])c2C1([H])[H]

$$$$
37:0:0
     RDKit          3D

 94101  0  0  1  0  0  0  0  0999 V2000
  -29.9780  -23.9560   23.9370 C   0  0  0  0  0  3  0  0  0  0  0  0
  -30.2680  -23.4930   25.3120 N   0  0  0  0  0  4  0  0  0  0  0  0
  -29.4400  -23.1470   25.7660 H   0  0  0  0  0  0  0  0  0  0  0  0
  -30.6480  -24.2350   25.8740 H   0  0  0  0  0  0  0  0  0  0  0  0
  -30.9480  -22.7540   25.3000 H   0  0  0  0  0  0  0  0  0  0  0  0
  -29.0100  -25.1730   23.9400 C   0  0  0  0  0  2  0  0  0  0  0  0
  -29.6870  -26.5560   24.1010 C   0  0  0  0  0  2  0  0  0  0  0  0
  -29.6000  -27.3390   22.9130 O   0  0  0  0  0  0  0  0  0  0  0  0
  -30.5010  -26.9340   21.8890 C   0  0  0  0  0  2  0  0  0  0  0  0
  -30.1900  -27.6470   20.5650 C   0  0  0  0  0  2  0  0  0  0  0  0
  -28.9800  -27.1430   19.9960 O   0  0  0  0  0  0  0  0  0  0  0  0
  -24.8930  -31.9930   23.3220 C   0  0  0  0  0  0  0  0  0  0  0  0
  -27.8060  -27.8580   20.1010 C   0  0  0  0  0  0  0  0  0  0  0  0
  -23.7720  -30.6160   21.5930 C   0  0  0  0  0  3  0  0  0  0  0  0
  -25.3200  -29.2070   20.1330 C   0  0  0  0  0  0  0  0  0  0  0  0
  -26.2700  -31.1110   21.4480 C   0  0  0  0  0  2  0  0  0  0  0  0
  -26.4330  -29.7700   20.7680 C   0  0  0  0  0  0  0  0  0  0  0  0
  -27.6710  -29.1000   20.7670 C   0  0  0  0  0  3  0  0  0  0  0  0
  -26.6720  -27.3000   19.4720 C   0  0  0  0  0  3  0  0  0  0  0  0
  -25.4290  -27.9630   19.4880 C   0  0  0  0  0  3  0  0  0  0  0  0
  -24.0340  -30.0010   20.1890 C   0  0  0  0  0  2  0  0  0  0  0  0
  -24.9950  -31.2510   22.1830 N   0  0  0  0  0  0  0  0  0  0  0  0
  -23.7930  -32.1930   23.8560 O   0  0  0  0  0  0  0  0  0  0  0  0
  -23.1520  -29.5250   22.4930 C   0  0  0  0  0  0  0  0  0  0  0  0
  -21.8360  -29.3050   22.3410 N   0  0  0  0  0  0  0  0  0  0  0  0
  -23.8490  -28.8810   23.2800 O   0  0  0  0  0  0  0  0  0  0  0  0
  -21.3330  -29.8770   21.6780 H   0  0  0  0  0  0  0  0  0  0  0  0
  -18.4940  -28.0030   22.7570 C   0  0  0  0  0  0  0  0  0  0  0  0
  -21.0450  -28.3020   23.0520 C   0  0  0  0  0  3  0  0  0  0  0  0
  -21.1810  -26.9120   22.3900 C   0  0  0  0  0  2  0  0  0  0  0  0
  -20.0900  -26.6250   21.3550 C   0  0  0  0  0  2  0  0  0  0  0  0
  -18.7030  -26.7000   22.0010 C   0  0  0  0  0  2  0  0  0  0  0  0
  -19.5940  -28.7630   23.2350 C   0  0  0  0  0  0  0  0  0  0  0  0
  -19.3460  -29.9850   23.8960 C   0  0  0  0  0  3  0  0  0  0  0  0
  -18.0290  -30.4470   24.0840 C   0  0  0  0  0  3  0  0  0  0  0  0
  -16.9430  -29.6820   23.6230 C   0  0  0  0  0  3  0  0  0  0  0  0
  -17.1770  -28.4610   22.9670 C   0  0  0  0  0  3  0  0  0  0  0  0
  -26.1440  -32.6450   23.9930 C   0  0  0  0  0  3  0  0  0  0  0  0
  -26.6200  -31.8840   25.2920 C   0  0  1  0  0  0  0  0  0  0  0  0
  -25.4840  -31.6050   26.3030 C   0  0  0  0  0  1  0  0  0  0  0  0
  -27.2680  -30.5280   24.9190 C   0  0  0  0  0  1  0  0  0  0  0  0
  -27.7130  -32.7100   26.0140 C   0  0  0  0  0  1  0  0  0  0  0  0
  -25.8040  -34.0400   24.3010 N   0  0  0  0  0  0  0  0  0  0  0  0
  -26.1700  -35.0900   23.5540 C   0  0  0  0  0  0  0  0  0  0  0  0
  -26.8990  -34.9860   22.5630 O   0  0  0  0  0  0  0  0  0  0  0  0
  -25.1600  -34.1950   25.0630 H   0  0  0  0  0  0  0  0  0  0  0  0
  -24.4540  -36.8630   23.0740 C   0  0  0  0  0  1  0  0  0  0  0  0
  -25.6430  -36.4760   23.9680 C   0  0  0  0  0  3  0  0  0  0  0  0
  -27.7080  -37.3780   24.9360 C   0  0  0  0  0  1  0  0  0  0  0  0
  -26.6710  -37.5360   23.9190 N   0  0  0  0  0  0  0  0  0  0  0  0
  -26.2480  -38.4510   24.0380 H   0  0  0  0  0  0  0  0  0  0  0  0
  -29.4190  -22.7950   23.0720 C   0  0  0  0  0  2  0  0  0  0  0  0
  -30.4780  -21.8040   22.5410 C   0  0  0  0  0  2  0  0  0  0  0  0
  -29.8420  -20.6050   21.8100 C   0  0  0  0  0  2  0  0  0  0  0  0
  -30.8660  -19.5860   21.2700 C   0  0  0  0  0  2  0  0  0  0  0  0
  -30.1980  -18.2500   20.8960 C   0  0  0  0  0  2  0  0  0  0  0  0
  -31.1700  -17.1820   20.3490 C   0  0  0  0  0  2  0  0  0  0  0  0
  -30.4000  -15.9210   19.9050 C   0  0  0  0  0  2  0  0  0  0  0  0
  -31.2430  -14.6400   19.6920 C   0  0  0  0  0  0  0  0  0  0  0  0
  -31.0600  -12.2320   19.1780 C   0  0  0  0  0  2  0  0  0  0  0  0
  -30.0730  -12.0720   17.9980 C   0  0  0  0  0  2  0  0  0  0  0  0
  -28.6100  -12.0250   18.4910 C   0  0  0  0  0  2  0  0  0  0  0  0
  -28.2800  -13.1650   19.4920 C   0  0  0  0  0  3  0  0  0  0  0  0
  -29.3660  -13.2240   20.5890 C   0  0  0  0  0  2  0  0  0  0  0  0
  -30.6640  -13.4330   19.9280 N   0  0  0  0  0  0  0  0  0  0  0  0
  -32.3490  -14.7490   19.1500 O   0  0  0  0  0  0  0  0  0  0  0  0
  -26.0150  -13.9920   20.4020 C   0  0  0  0  0  0  0  0  0  0  0  0
  -24.9010  -13.3160   20.8260 C   0  0  0  0  0  0  0  0  0  0  0  0
  -25.2140  -11.9280   20.7060 C   0  0  0  0  0  0  0  0  0  0  0  0
  -26.9400  -13.0170   20.0580 N   0  0  0  0  0  0  0  0  0  0  0  0
  -26.4640  -11.7690   20.2930 N   0  0  0  0  0  0  0  0  0  0  0  0
  -24.3790  -10.7370   20.9070 C   0  0  0  0  0  0  0  0  0  0  0  0
  -24.7640   -9.7050   21.7910 C   0  0  0  0  0  3  0  0  0  0  0  0
  -23.9370   -8.5780   21.9790 C   0  0  0  0  0  3  0  0  0  0  0  0
  -22.7090   -8.4760   21.2840 C   0  0  0  0  0  0  0  0  0  0  0  0
  -22.3410   -9.4940   20.3870 C   0  0  0  0  0  3  0  0  0  0  0  0
  -23.1680  -10.6140   20.1980 C   0  0  0  0  0  3  0  0  0  0  0  0
  -21.8540   -7.4060   21.3840 O   0  0  0  0  0  0  0  0  0  0  0  0
  -21.7400   -6.6820   22.5430 C   0  0  0  0  0  0  0  0  0  0  0  0
  -21.3490   -7.2810   23.7590 C   0  0  0  0  0  3  0  0  0  0  0  0
  -21.1770   -6.4890   24.9110 C   0  0  0  0  0  3  0  0  0  0  0  0
  -21.3840   -5.0980   24.8480 C   0  0  0  0  0  0  0  0  0  0  0  0
  -21.7680   -4.4990   23.6360 C   0  0  0  0  0  3  0  0  0  0  0  0
  -21.9430   -5.2880   22.4870 C   0  0  0  0  0  0  0  0  0  0  0  0
  -22.2930   -4.7020   21.3170 F   0  0  0  0  0  0  0  0  0  0  0  0
  -21.2100   -4.3350   25.9530 F   0  0  0  0  0  0  0  0  0  0  0  0
  -23.5880  -13.9200   21.2310 C   0  0  0  0  0  0  0  0  0  0  0  0
  -22.8720  -13.2760   22.1470 N   0  0  0  0  0  0  0  0  0  0  0  0
  -23.2090  -14.9950   20.7680 O   0  0  0  0  0  0  0  0  0  0  0  0
  -23.1920  -12.4050   22.5410 H   0  0  0  0  0  0  0  0  0  0  0  0
  -21.9930  -13.6660   22.4590 H   0  0  0  0  0  0  0  0  0  0  0  0
  -26.3090  -15.3440   20.2660 N   0  0  0  0  0  0  0  0  0  0  0  0
  -25.6320  -16.0720   20.4680 H   0  0  0  0  0  0  0  0  0  0  0  0
  -27.1830  -15.7050   19.9010 H   0  0  0  0  0  0  0  0  0  0  0  0
  1 52  1  0
  1  6  1  0
  1  2  1  0
  2  3  1  0
  2  4  1  0
  5  2  1  0
  6  7  1  0
  8  7  1  0
  9  8  1  0
 10  9  1  0
 11 13  1  0
 11 10  1  0
 12 23  2  0
 13 18  1  0
 14 22  1  0
 14 24  1  0
 15 21  1  0
 15 17  1  0
 16 22  1  0
 17 16  1  0
 18 17  2  0
 19 20  1  0
 19 13  2  0
 20 15  2  0
 21 14  1  0
 22 12  1  0
 24 26  2  0
 25 24  1  0
 27 25  1  0
 28 37  2  0
 28 33  1  0
 29 25  1  0
 29 33  1  0
 30 29  1  0
 31 32  1  0
 31 30  1  0
 32 28  1  0
 33 34  2  0
 34 35  1  0
 36 35  2  0
 37 36  1  0
 38 12  1  0
 38 43  1  0
 38 39  1  0
 39 42  1  1
 39 40  1  0
 41 39  1  0
 43 46  1  0
 44 48  1  0
 44 43  1  0
 45 44  2  0
 48 47  1  0
 50 48  1  0
 50 51  1  0
 50 49  1  0
 53 52  1  0
 54 53  1  0
 55 54  1  0
 56 55  1  0
 57 56  1  0
 58 57  1  0
 59 58  1  0
 59 65  1  0
 60 65  1  0
 61 62  1  0
 61 60  1  0
 63 62  1  0
 63 70  1  0
 63 64  1  0
 65 64  1  0
 66 59  2  0
 67 68  2  0
 68 87  1  0
 69 68  1  0
 69 72  1  0
 70 71  1  0
 70 67  1  0
 71 69  2  0
 72 73  1  0
 73 74  2  0
 75 78  1  0
 75 74  1  0
 76 75  2  0
 77 76  1  0
 77 72  2  0
 78 79  1  0
 79 80  1  0
 80 81  2  0
 82 81  1  0
 82 86  1  0
 83 82  2  0
 84 79  2  0
 84 83  1  0
 85 84  1  0
 87 88  1  0
 88 91  1  0
 88 90  1  0
 89 87  2  0
 92 67  1  0
 92 93  1  0
 94 92  1  0
M  ISO  4  10 101  11 101  58 100  59 100
M  END
>  <TORSDO>  (38) 
F 29

>  <SCORE>  (38) 
-8.738

>  <name>  (38) 
37

>  <ligand_id>  (38) 
37

>  <original_smiles>  (38) 
[H]c1c([H])c([H])c2c(c1[H])C([H])([H])C([H])([H])C([H])([H])C2([H])N([H])C(=O)C1([H])N(C(=O)C([H])(N([H])C(=O)C([H])(N([H])C([H])([H])[H])C([H])([H])[H])C(C([H])([H])[H])(C([H])([H])[H])C([H])([H])[H])C([H])([H])c2c([H])c(OC([H])([H])C([H])([H])OC([H])([H])C([H])([H])C([H])(C([H])([H])C([H])([H])C([H])([H])C([H])([H])C([H])([H])C([H])([H])C([H])([H])C(=O)N3C([H])([H])C([H])([H])C([H])([H])C([H])(n4nc(-c5c([H])c([H])c(Oc6c([H])c([H])c(F)c([H])c6F)c([H])c5[H])c(C(=O)N([H])[H])c4N([H])[H])C3([H])[H])[N+]([H])([H])[H])c([H])c([H])c2C1([H])[H]

>  <smiles>  (38) 
[H]c1c([H])c([H])c2c(c1[H])C([H])([H])C([H])([H])C([H])([H])C2([H])N([H])C(=O)C1([H])N(C(=O)C([H])(N([H])C(=O)C([H])(N([H])C([H])([H])[H])C([H])([H])[H])C(C([H])([H])[H])(C([H])([H])[H])C([H])([H])[H])C([H])([H])c2c([H])c(OC([H])([H])C([H])([H])OC([H])([H])C([H])([H])C([H])(C([H])([H])C([H])([H])C([H])([H])C([H])([H])C([H])([H])C([H])([H])C([H])([H])C(=O)N3C([H])([H])C([H])([H])C([H])([H])C([H])(n4nc(-c5c([H])c([H])c(Oc6c([H])c([H])c(F)c([H])c6F)c([H])c5[H])c(C(=O)N([H])[H])c4N([H])[H])C3([H])[H])[N+]([H])([H])[H])c([H])c([H])c2C1([H])[H]

$$$$
38:0:0
     RDKit          3D

 85 92  0  0  1  0  0  0  0  0999 V2000
  -29.0780  -23.5450   20.3320 C   0  0  0  0  0  3  0  0  0  0  0  0
  -28.6410  -21.9710   20.3090 C   0  0  0  0  0  0  0  0  0  0  0  0
  -27.4350  -21.7120   20.2670 O   0  0  0  0  0  0  0  0  0  0  0  0
  -29.6760  -20.7080   20.3380 C   0  0  0  0  0  3  0  0  0  0  0  0
  -29.1960  -19.1270   20.5260 C   0  0  0  0  0  3  0  0  0  0  0  0
  -30.1930  -17.8030   20.3870 C   0  0  0  0  0  3  0  0  0  0  0  0
  -29.7110  -16.2510   20.7220 C   0  0  0  0  0  3  0  0  0  0  0  0
  -30.5640  -14.8920   20.3890 C   0  0  0  0  0  0  0  0  0  0  0  0
  -30.4460  -12.5800   19.3860 C   0  0  0  0  0  2  0  0  0  0  0  0
  -29.5140  -12.6190   18.1510 C   0  0  0  0  0  2  0  0  0  0  0  0
  -28.0430  -12.4170   18.5660 C   0  0  0  0  0  2  0  0  0  0  0  0
  -27.6440  -13.3060   19.7710 C   0  0  0  0  0  3  0  0  0  0  0  0
  -28.6920  -13.2480   20.9020 C   0  0  0  0  0  2  0  0  0  0  0  0
  -29.9900  -13.6310   20.3310 N   0  0  0  0  0  0  0  0  0  0  0  0
  -31.7460  -15.0030   20.0500 O   0  0  0  0  0  0  0  0  0  0  0  0
  -25.2480  -13.8810   20.4790 C   0  0  0  0  0  0  0  0  0  0  0  0
  -24.1840  -13.1010   20.8430 C   0  0  0  0  0  0  0  0  0  0  0  0
  -24.6570  -11.7530   20.8260 C   0  0  0  0  0  0  0  0  0  0  0  0
  -26.3000  -13.0070   20.2550 N   0  0  0  0  0  0  0  0  0  0  0  0
  -25.9510  -11.7230   20.5290 N   0  0  0  0  0  0  0  0  0  0  0  0
  -23.9380  -10.4880   21.0180 C   0  0  0  0  0  0  0  0  0  0  0  0
  -24.3680   -9.5290   21.9620 C   0  0  0  0  0  3  0  0  0  0  0  0
  -23.6470   -8.3280   22.1420 C   0  0  0  0  0  3  0  0  0  0  0  0
  -22.4830   -8.0780   21.3770 C   0  0  0  0  0  0  0  0  0  0  0  0
  -22.0730   -9.0250   20.4230 C   0  0  0  0  0  3  0  0  0  0  0  0
  -22.7940  -10.2170   20.2410 C   0  0  0  0  0  3  0  0  0  0  0  0
  -21.7340   -6.9290   21.4650 O   0  0  0  0  0  0  0  0  0  0  0  0
  -21.6820   -6.1910   22.6200 C   0  0  0  0  0  0  0  0  0  0  0  0
  -21.2480   -6.7510   23.8420 C   0  0  0  0  0  3  0  0  0  0  0  0
  -21.1420   -5.9390   24.9900 C   0  0  0  0  0  3  0  0  0  0  0  0
  -21.4590   -4.5700   24.9170 C   0  0  0  0  0  0  0  0  0  0  0  0
  -21.8860   -4.0100   23.6990 C   0  0  0  0  0  3  0  0  0  0  0  0
  -21.9930   -4.8180   22.5540 C   0  0  0  0  0  0  0  0  0  0  0  0
  -22.3840   -4.2690   21.3780 F   0  0  0  0  0  0  0  0  0  0  0  0
  -21.3510   -3.7880   26.0160 F   0  0  0  0  0  0  0  0  0  0  0  0
  -22.7800  -13.5710   21.0950 C   0  0  0  0  0  0  0  0  0  0  0  0
  -22.0500  -12.8800   21.9630 N   0  0  0  0  0  0  0  0  0  0  0  0
  -22.3390  -14.5860   20.5580 O   0  0  0  0  0  0  0  0  0  0  0  0
  -22.4190  -12.0590   22.4200 H   0  0  0  0  0  0  0  0  0  0  0  0
  -21.1080  -13.1770   22.1750 H   0  0  0  0  0  0  0  0  0  0  0  0
  -25.4050  -15.2510   20.2960 N   0  0  0  0  0  0  0  0  0  0  0  0
  -24.6360  -15.9040   20.4030 H   0  0  0  0  0  0  0  0  0  0  0  0
  -26.2600  -15.6950   19.9860 H   0  0  0  0  0  0  0  0  0  0  0  0
  -27.9990  -24.7770   20.0840 C   0  0  0  0  0  3  0  0  0  0  0  0
  -28.2680  -26.2840   20.2240 O   0  0  0  0  0  0  0  0  0  0  0  0
  -24.6150  -31.8740   23.2380 C   0  0  0  0  0  0  0  0  0  0  0  0
  -27.1880  -27.2230   20.1700 C   0  0  0  0  0  0  0  0  0  0  0  0
  -23.4030  -30.4800   21.6040 C   0  0  0  0  0  3  0  0  0  0  0  0
  -24.8440  -28.9220   20.1640 C   0  0  0  0  0  0  0  0  0  0  0  0
  -25.9510  -30.7670   21.4160 C   0  0  0  0  0  2  0  0  0  0  0  0
  -26.0240  -29.3820   20.7610 C   0  0  0  0  0  0  0  0  0  0  0  0
  -27.1990  -28.5480   20.7470 C   0  0  0  0  0  3  0  0  0  0  0  0
  -25.9790  -26.8480   19.5420 C   0  0  0  0  0  3  0  0  0  0  0  0
  -24.8300  -27.6660   19.5410 C   0  0  0  0  0  3  0  0  0  0  0  0
  -23.6130  -29.8090   20.2220 C   0  0  0  0  0  2  0  0  0  0  0  0
  -24.6760  -31.0610   22.1420 N   0  0  0  0  0  0  0  0  0  0  0  0
  -23.5320  -32.1540   23.7750 O   0  0  0  0  0  0  0  0  0  0  0  0
  -22.7370  -29.4670   22.5660 C   0  0  0  0  0  0  0  0  0  0  0  0
  -21.4090  -29.2920   22.4460 N   0  0  0  0  0  0  0  0  0  0  0  0
  -23.4160  -28.8410   23.3840 O   0  0  0  0  0  0  0  0  0  0  0  0
  -20.9180  -29.8480   21.7600 H   0  0  0  0  0  0  0  0  0  0  0  0
  -18.0350  -28.0780   22.9530 C   0  0  0  0  0  0  0  0  0  0  0  0
  -20.5930  -28.3530   23.2200 C   0  0  0  0  0  3  0  0  0  0  0  0
  -20.7010  -26.9200   22.6500 C   0  0  0  0  0  2  0  0  0  0  0  0
  -19.6010  -26.5880   21.6380 C   0  0  0  0  0  2  0  0  0  0  0  0
  -18.2180  -26.7280   22.2810 C   0  0  0  0  0  2  0  0  0  0  0  0
  -19.1490  -28.8480   23.3800 C   0  0  0  0  0  0  0  0  0  0  0  0
  -18.9230  -30.1110   23.9690 C   0  0  0  0  0  3  0  0  0  0  0  0
  -17.6160  -30.6050   24.1360 C   0  0  0  0  0  3  0  0  0  0  0  0
  -16.5160  -29.8320   23.7250 C   0  0  0  0  0  3  0  0  0  0  0  0
  -16.7270  -28.5710   23.1380 C   0  0  0  0  0  3  0  0  0  0  0  0
  -25.8970  -32.5080   23.8570 C   0  0  0  0  0  3  0  0  0  0  0  0
  -26.4230  -31.7300   25.1260 C   0  0  1  0  0  0  0  0  0  0  0  0
  -25.3380  -31.4860   26.2000 C   0  0  0  0  0  1  0  0  0  0  0  0
  -27.0040  -30.3540   24.7260 C   0  0  0  0  0  1  0  0  0  0  0  0
  -27.5790  -32.5220   25.7830 C   0  0  0  0  0  1  0  0  0  0  0  0
  -25.5840  -33.9020   24.2030 N   0  0  0  0  0  0  0  0  0  0  0  0
  -25.8860  -34.9640   23.4430 C   0  0  0  0  0  0  0  0  0  0  0  0
  -26.5270  -34.8730   22.3920 O   0  0  0  0  0  0  0  0  0  0  0  0
  -25.0120  -34.0470   25.0220 H   0  0  0  0  0  0  0  0  0  0  0  0
  -24.1230  -36.7400   23.1700 C   0  0  0  0  0  1  0  0  0  0  0  0
  -25.4030  -36.3470   23.9250 C   0  0  0  0  0  3  0  0  0  0  0  0
  -27.5630  -37.2560   24.6630 C   0  0  0  0  0  1  0  0  0  0  0  0
  -26.4180  -37.4130   23.7700 N   0  0  0  0  0  0  0  0  0  0  0  0
  -26.0080  -38.3280   23.9350 H   0  0  0  0  0  0  0  0  0  0  0  0
  2  1  1  0
  2  4  1  0
  3  2  2  0
  4  5  2  0
  6  5  1  0
  6  7  2  0
  8  7  1  0
  9 14  1  0
 10 11  1  0
 10  9  1  0
 12 11  1  0
 12 19  1  0
 12 13  1  0
 14  8  1  0
 14 13  1  0
 15  8  2  0
 16 17  2  0
 17 36  1  0
 18 17  1  0
 18 21  1  0
 19 16  1  0
 19 20  1  0
 20 18  2  0
 21 22  1  0
 22 23  2  0
 24 27  1  0
 24 23  1  0
 25 24  2  0
 26 25  1  0
 26 21  2  0
 27 28  1  0
 28 29  1  0
 29 30  2  0
 31 30  1  0
 31 35  1  0
 32 31  2  0
 33 28  2  0
 33 32  1  0
 34 33  1  0
 36 37  1  0
 37 40  1  0
 37 39  1  0
 38 36  2  0
 41 42  1  0
 41 16  1  0
 43 41  1  0
 44 45  1  0
 44  1  2  0
 46 57  2  0
 47 45  1  0
 47 52  1  0
 48 56  1  0
 48 58  1  0
 49 55  1  0
 49 51  1  0
 50 56  1  0
 51 50  1  0
 52 51  2  0
 53 47  2  0
 54 53  1  0
 54 49  2  0
 55 48  1  0
 56 46  1  0
 58 60  2  0
 59 58  1  0
 61 59  1  0
 62 71  2  0
 62 67  1  0
 63 59  1  0
 63 67  1  0
 64 63  1  0
 65 66  1  0
 65 64  1  0
 66 62  1  0
 67 68  2  0
 68 69  1  0
 70 69  2  0
 71 70  1  0
 72 46  1  0
 72 77  1  0
 72 73  1  0
 73 76  1  1
 73 74  1  0
 75 73  1  0
 77 80  1  0
 78 82  1  0
 78 77  1  0
 79 78  2  0
 82 81  1  0
 84 82  1  0
 84 85  1  0
 84 83  1  0
M  ISO  4   7 100   8 100  44 101  45 101
M  END
>  <TORSDO>  (39) 
F 22

>  <SCORE>  (39) 
-12.797

>  <name>  (39) 
38

>  <ligand_id>  (39) 
38

>  <original_smiles>  (39) 
[H]c1c([H])c([H])c2c(c1[H])C([H])([H])C([H])([H])C([H])([H])C2([H])N([H])C(=O)C1([H])N(C(=O)C([H])(N([H])C(=O)C([H])(N([H])C([H])([H])[H])C([H])([H])[H])C(C([H])([H])[H])(C([H])([H])[H])C([H])([H])[H])C([H])([H])c2c([H])c(OC([H])([H])C([H])([H])C(=O)C([H])([H])C([H])([H])C([H])([H])C([H])([H])C(=O)N3C([H])([H])C([H])([H])C([H])([H])C([H])(n4nc(-c5c([H])c([H])c(Oc6c([H])c([H])c(F)c([H])c6F)c([H])c5[H])c(C(=O)N([H])[H])c4N([H])[H])C3([H])[H])c([H])c([H])c2C1([H])[H]

>  <smiles>  (39) 
[H]c1c([H])c([H])c2c(c1[H])C([H])([H])C([H])([H])C([H])([H])C2([H])N([H])C(=O)C1([H])N(C(=O)C([H])(N([H])C(=O)C([H])(N([H])C([H])([H])[H])C([H])([H])[H])C(C([H])([H])[H])(C([H])([H])[H])C([H])([H])[H])C([H])([H])c2c([H])c(OC([H])([H])C([H])([H])C(=O)C([H])([H])C([H])([H])C([H])([H])C([H])([H])C(=O)N3C([H])([H])C([H])([H])C([H])([H])C([H])(n4nc(-c5c([H])c([H])c(Oc6c([H])c([H])c(F)c([H])c6F)c([H])c5[H])c(C(=O)N([H])[H])c4N([H])[H])C3([H])[H])c([H])c([H])c2C1([H])[H]

$$$$
39:0:0
     RDKit          3D

 91 99  0  0  1  0  0  0  0  0999 V2000
  -28.1290  -21.9690   22.3400 C   0  0  0  0  0  3  0  0  0  0  0  0
  -28.7180  -20.8340   21.7530 C   0  0  0  0  0  3  0  0  0  0  0  0
  -28.4850  -23.2550   21.9000 C   0  0  0  0  0  3  0  0  0  0  0  0
  -30.0110  -22.2740   20.2680 C   0  0  0  0  0  3  0  0  0  0  0  0
  -29.6930  -20.9680   20.7400 C   0  0  0  0  0  0  0  0  0  0  0  0
  -29.4100  -23.4280   20.8470 C   0  0  0  0  0  0  0  0  0  0  0  0
  -30.2850  -19.7340   20.1180 C   0  0  0  0  0  0  0  0  0  0  0  0
  -29.8590  -19.2820   19.0530 O   0  0  0  0  0  0  0  0  0  0  0  0
  -31.4420  -19.0170   22.3470 C   0  0  0  0  0  1  0  0  0  0  0  0
  -31.5140  -19.0620   20.8080 C   0  0  0  0  0  3  0  0  0  0  0  0
  -31.9670  -17.6830   20.2150 C   0  0  0  0  0  2  0  0  0  0  0  0
  -31.2320  -16.3830   20.6850 C   0  0  0  0  0  2  0  0  0  0  0  0
  -31.8950  -15.0690   20.1940 C   0  0  0  0  0  0  0  0  0  0  0  0
  -31.5900  -12.7590   19.3620 C   0  0  0  0  0  2  0  0  0  0  0  0
  -30.6930  -12.7890   18.1080 C   0  0  0  0  0  2  0  0  0  0  0  0
  -29.2030  -12.7340   18.5040 C   0  0  0  0  0  2  0  0  0  0  0  0
  -28.8410  -13.7640   19.6070 C   0  0  0  0  0  3  0  0  0  0  0  0
  -29.8570  -13.7150   20.7710 C   0  0  0  0  0  2  0  0  0  0  0  0
  -31.2040  -13.8970   20.2130 N   0  0  0  0  0  0  0  0  0  0  0  0
  -33.0250  -15.1410   19.7010 O   0  0  0  0  0  0  0  0  0  0  0  0
  -26.4890  -14.5380   20.3120 C   0  0  0  0  0  0  0  0  0  0  0  0
  -25.3650  -13.8420   20.6670 C   0  0  0  0  0  0  0  0  0  0  0  0
  -25.7260  -12.4600   20.6260 C   0  0  0  0  0  0  0  0  0  0  0  0
  -27.4690  -13.5840   20.0780 N   0  0  0  0  0  0  0  0  0  0  0  0
  -27.0120  -12.3290   20.3250 N   0  0  0  0  0  0  0  0  0  0  0  0
  -24.9070  -11.2540   20.8000 C   0  0  0  0  0  0  0  0  0  0  0  0
  -25.2110  -10.2920   21.7890 C   0  0  0  0  0  3  0  0  0  0  0  0
  -24.3980   -9.1490   21.9490 C   0  0  0  0  0  3  0  0  0  0  0  0
  -23.2680   -8.9590   21.1190 C   0  0  0  0  0  0  0  0  0  0  0  0
  -22.9840   -9.9070   20.1210 C   0  0  0  0  0  3  0  0  0  0  0  0
  -23.7970  -11.0420   19.9590 C   0  0  0  0  0  3  0  0  0  0  0  0
  -22.4380   -7.8670   21.1850 O   0  0  0  0  0  0  0  0  0  0  0  0
  -22.1670   -7.2390   22.3740 C   0  0  0  0  0  0  0  0  0  0  0  0
  -21.5850   -7.9240   23.4640 C   0  0  0  0  0  3  0  0  0  0  0  0
  -21.2600   -7.2240   24.6430 C   0  0  0  0  0  3  0  0  0  0  0  0
  -21.5070   -5.8420   24.7330 C   0  0  0  0  0  0  0  0  0  0  0  0
  -22.0810   -5.1560   23.6470 C   0  0  0  0  0  3  0  0  0  0  0  0
  -22.4070   -5.8540   22.4700 C   0  0  0  0  0  0  0  0  0  0  0  0
  -22.9410   -5.1840   21.4200 F   0  0  0  0  0  0  0  0  0  0  0  0
  -21.1870   -5.1670   25.8620 F   0  0  0  0  0  0  0  0  0  0  0  0
  -24.0050  -14.4180   20.9360 C   0  0  0  0  0  0  0  0  0  0  0  0
  -23.2290  -13.7780   21.8050 N   0  0  0  0  0  0  0  0  0  0  0  0
  -23.6400  -15.4700   20.4130 O   0  0  0  0  0  0  0  0  0  0  0  0
  -23.5360  -12.9260   22.2510 H   0  0  0  0  0  0  0  0  0  0  0  0
  -22.3140  -14.1460   22.0270 H   0  0  0  0  0  0  0  0  0  0  0  0
  -26.7560  -15.8940   20.1480 N   0  0  0  0  0  0  0  0  0  0  0  0
  -26.0400  -16.6030   20.2630 H   0  0  0  0  0  0  0  0  0  0  0  0
  -27.6430  -16.2700   19.8380 H   0  0  0  0  0  0  0  0  0  0  0  0
  -29.7440  -24.8600   20.3970 C   0  0  0  0  0  2  0  0  0  0  0  0
  -28.5360  -25.6140   19.7810 C   0  0  0  0  0  2  0  0  0  0  0  0
  -28.6650  -27.0550   19.7350 O   0  0  0  0  0  0  0  0  0  0  0  0
  -24.6220  -31.8020   23.1940 C   0  0  0  0  0  0  0  0  0  0  0  0
  -27.4690  -27.7540   19.7570 C   0  0  0  0  0  0  0  0  0  0  0  0
  -23.4720  -30.4460   21.4790 C   0  0  0  0  0  3  0  0  0  0  0  0
  -24.9870  -29.1190   19.9160 C   0  0  0  0  0  0  0  0  0  0  0  0
  -25.9680  -30.9790   21.2620 C   0  0  0  0  0  2  0  0  0  0  0  0
  -26.1260  -29.6670   20.5180 C   0  0  0  0  0  0  0  0  0  0  0  0
  -27.3710  -28.9960   20.4320 C   0  0  0  0  0  3  0  0  0  0  0  0
  -26.3080  -27.2370   19.1340 C   0  0  0  0  0  3  0  0  0  0  0  0
  -25.0740  -27.9040   19.2170 C   0  0  0  0  0  3  0  0  0  0  0  0
  -23.6920  -29.8860   20.0490 C   0  0  0  0  0  2  0  0  0  0  0  0
  -24.7060  -31.0880   22.0370 N   0  0  0  0  0  0  0  0  0  0  0  0
  -23.5380  -31.9640   23.7720 O   0  0  0  0  0  0  0  0  0  0  0  0
  -22.9100  -29.3160   22.3730 C   0  0  0  0  0  0  0  0  0  0  0  0
  -21.6080  -29.0230   22.2210 N   0  0  0  0  0  0  0  0  0  0  0  0
  -23.6420  -28.7110   23.1590 O   0  0  0  0  0  0  0  0  0  0  0  0
  -21.0740  -29.5720   21.5620 H   0  0  0  0  0  0  0  0  0  0  0  0
  -18.3600  -27.4810   22.5880 C   0  0  0  0  0  0  0  0  0  0  0  0
  -20.8740  -27.9740   22.9310 C   0  0  0  0  0  3  0  0  0  0  0  0
  -21.1280  -26.5900   22.2920 C   0  0  0  0  0  2  0  0  0  0  0  0
  -20.0820  -26.2090   21.2400 C   0  0  0  0  0  2  0  0  0  0  0  0
  -18.6810  -26.1890   21.8580 C   0  0  0  0  0  2  0  0  0  0  0  0
  -19.3900  -28.3270   23.0790 C   0  0  0  0  0  0  0  0  0  0  0  0
  -19.0370  -29.5350   23.7200 C   0  0  0  0  0  3  0  0  0  0  0  0
  -17.6870  -29.8990   23.8770 C   0  0  0  0  0  3  0  0  0  0  0  0
  -16.6710  -29.0500   23.4040 C   0  0  0  0  0  3  0  0  0  0  0  0
  -17.0080  -27.8440   22.7660 C   0  0  0  0  0  3  0  0  0  0  0  0
  -25.8780  -32.4710   23.8340 C   0  0  0  0  0  3  0  0  0  0  0  0
  -25.5220  -33.8590   24.1590 N   0  0  0  0  0  0  0  0  0  0  0  0
  -25.8440  -34.9220   23.4110 C   0  0  0  0  0  0  0  0  0  0  0  0
  -26.5420  -34.8390   22.3970 O   0  0  0  0  0  0  0  0  0  0  0  0
  -24.9030  -33.9950   24.9460 H   0  0  0  0  0  0  0  0  0  0  0  0
  -24.0730  -36.6620   23.0160 C   0  0  0  0  0  1  0  0  0  0  0  0
  -25.3050  -36.2940   23.8570 C   0  0  0  0  0  3  0  0  0  0  0  0
  -27.3920  -37.2390   24.7410 C   0  0  0  0  0  1  0  0  0  0  0  0
  -26.3100  -37.3770   23.7700 N   0  0  0  0  0  0  0  0  0  0  0  0
  -25.8740  -38.2850   23.9070 H   0  0  0  0  0  0  0  0  0  0  0  0
  -26.4010  -31.7140   25.1160 C   0  0  1  0  0  0  0  0  0  0  0  0
  -25.2950  -31.4190   26.1570 C   0  0  0  0  0  1  0  0  0  0  0  0
  -27.0540  -30.3670   24.7260 C   0  0  0  0  0  1  0  0  0  0  0  0
  -27.4990  -32.5530   25.8090 C   0  0  0  0  0  1  0  0  0  0  0  0
  2  1  2  0
  3  1  1  0
  4  5  2  0
  4  6  1  0
  5  2  1  0
  6  3  2  0
  7  5  1  0
  7 10  1  0
  8  7  2  0
 10  9  1  0
 11 12  1  0
 11 10  1  0
 13 19  1  0
 13 12  1  0
 14 19  1  0
 15 16  1  0
 15 14  1  0
 17 16  1  0
 17 24  1  0
 17 18  1  0
 19 18  1  0
 20 13  2  0
 21 22  2  0
 22 41  1  0
 23 22  1  0
 23 26  1  0
 24 21  1  0
 24 25  1  0
 25 23  2  0
 26 27  1  0
 27 28  2  0
 29 32  1  0
 29 28  1  0
 30 29  2  0
 31 30  1  0
 31 26  2  0
 32 33  1  0
 33 38  2  0
 33 34  1  0
 34 35  2  0
 35 36  1  0
 36 40  1  0
 37 36  2  0
 38 37  1  0
 39 38  1  0
 41 42  1  0
 42 45  1  0
 42 44  1  0
 43 41  2  0
 46 47  1  0
 46 21  1  0
 48 46  1  0
 49  6  1  0
 50 49  1  0
 51 53  1  0
 51 50  1  0
 52 63  2  0
 53 58  1  0
 54 62  1  0
 54 64  1  0
 55 61  1  0
 55 57  1  0
 56 62  1  0
 57 56  1  0
 58 57  2  0
 59 60  1  0
 59 53  2  0
 60 55  2  0
 61 54  1  0
 62 52  1  0
 64 66  2  0
 65 64  1  0
 67 65  1  0
 68 77  2  0
 68 73  1  0
 69 65  1  0
 69 73  1  0
 70 69  1  0
 71 72  1  0
 71 70  1  0
 72 68  1  0
 73 74  2  0
 74 75  1  0
 76 75  2  0
 77 76  1  0
 78 52  1  0
 78 79  1  0
 78 88  1  0
 79 82  1  0
 80 84  1  0
 80 79  1  0
 81 80  2  0
 84 83  1  0
 86 84  1  0
 86 87  1  0
 86 85  1  0
 88 91  1  1
 88 89  1  0
 90 88  1  0
M  ISO  4  12 100  13 100  50 101  51 101
M  END
>  <TORSDO>  (40) 
F 22

>  <SCORE>  (40) 
-10.441

>  <name>  (40) 
39

>  <ligand_id>  (40) 
39

>  <original_smiles>  (40) 
[H]c1c([H])c(C(=O)C([H])(C([H])([H])[H])C([H])([H])C([H])([H])C(=O)N2C([H])([H])C([H])([H])C([H])([H])C([H])(n3nc(-c4c([H])c([H])c(Oc5c([H])c([H])c(F)c([H])c5F)c([H])c4[H])c(C(=O)N([H])[H])c3N([H])[H])C2([H])[H])c([H])c(C([H])([H])C([H])([H])Oc2c([H])c([H])c3c(c2[H])C([H])([H])N(C(=O)C([H])(N([H])C(=O)C([H])(N([H])C([H])([H])[H])C([H])([H])[H])C(C([H])([H])[H])(C([H])([H])[H])C([H])([H])[H])C([H])(C(=O)N([H])C2([H])c4c([H])c([H])c([H])c([H])c4C([H])([H])C([H])([H])C2([H])[H])C3([H])[H])c1[H]

>  <smiles>  (40) 
[H]c1c([H])c(C(=O)C([H])(C([H])([H])[H])C([H])([H])C([H])([H])C(=O)N2C([H])([H])C([H])([H])C([H])([H])C([H])(n3nc(-c4c([H])c([H])c(Oc5c([H])c([H])c(F)c([H])c5F)c([H])c4[H])c(C(=O)N([H])[H])c3N([H])[H])C2([H])[H])c([H])c(C([H])([H])C([H])([H])Oc2c([H])c([H])c3c(c2[H])C([H])([H])N(C(=O)C([H])(N([H])C(=O)C([H])(N([H])C([H])([H])[H])C([H])([H])[H])C(C([H])([H])[H])(C([H])([H])[H])C([H])([H])[H])C([H])(C(=O)N([H])C2([H])c4c([H])c([H])c([H])c([H])c4C([H])([H])C([H])([H])C2([H])[H])C3([H])[H])c1[H]

$$$$
40:0:0
     RDKit          3D

 88 95  0  0  1  0  0  0  0  0999 V2000
  -29.0980  -22.2900   20.8780 C   0  0  0  0  0  2  0  0  0  0  0  0
  -29.7780  -21.3950   19.8240 C   0  0  0  0  0  2  0  0  0  0  0  0
  -31.1050  -19.3330   20.4640 C   0  0  0  0  0  3  0  0  0  0  0  0
  -29.9190  -19.9420   20.2610 C   0  0  0  0  0  3  0  0  0  0  0  0
  -31.2680  -17.9200   20.8670 C   0  0  0  0  0  0  0  0  0  0  0  0
  -32.3390  -17.5210   21.3310 O   0  0  0  0  0  0  0  0  0  0  0  0
  -30.1060  -16.9270   20.6830 C   0  0  0  0  0  2  0  0  0  0  0  0
  -30.3140  -15.5200   21.3080 C   0  0  0  0  0  2  0  0  0  0  0  0
  -30.7550  -14.4600   20.2770 C   0  0  0  0  0  0  0  0  0  0  0  0
  -30.3760  -12.3840   18.9860 C   0  0  0  0  0  2  0  0  0  0  0  0
  -29.3850  -12.6450   17.8340 C   0  0  0  0  0  2  0  0  0  0  0  0
  -27.9260  -12.5010   18.3110 C   0  0  0  0  0  2  0  0  0  0  0  0
  -27.6520  -13.2820   19.6240 C   0  0  0  0  0  3  0  0  0  0  0  0
  -28.7440  -12.9670   20.6720 C   0  0  0  0  0  2  0  0  0  0  0  0
  -30.0500  -13.3100   20.0830 N   0  0  0  0  0  0  0  0  0  0  0  0
  -31.7740  -14.7120   19.6250 O   0  0  0  0  0  0  0  0  0  0  0  0
  -25.2710  -13.8870   20.4000 C   0  0  0  0  0  0  0  0  0  0  0  0
  -24.2150  -13.1130   20.8040 C   0  0  0  0  0  0  0  0  0  0  0  0
  -24.6770  -11.7630   20.7570 C   0  0  0  0  0  0  0  0  0  0  0  0
  -26.3110  -13.0080   20.1390 N   0  0  0  0  0  0  0  0  0  0  0  0
  -25.9560  -11.7260   20.4050 N   0  0  0  0  0  0  0  0  0  0  0  0
  -23.9590  -10.4980   20.9690 C   0  0  0  0  0  0  0  0  0  0  0  0
  -24.4170   -9.5380   21.8980 C   0  0  0  0  0  3  0  0  0  0  0  0
  -23.7000   -8.3370   22.0960 C   0  0  0  0  0  3  0  0  0  0  0  0
  -22.5130   -8.0890   21.3650 C   0  0  0  0  0  0  0  0  0  0  0  0
  -22.0770   -9.0390   20.4250 C   0  0  0  0  0  3  0  0  0  0  0  0
  -22.7930  -10.2310   20.2250 C   0  0  0  0  0  3  0  0  0  0  0  0
  -21.7640   -6.9420   21.4740 O   0  0  0  0  0  0  0  0  0  0  0  0
  -21.7350   -6.2100   22.6350 C   0  0  0  0  0  0  0  0  0  0  0  0
  -21.3290   -6.7770   23.8620 C   0  0  0  0  0  3  0  0  0  0  0  0
  -21.2460   -5.9710   25.0160 C   0  0  0  0  0  3  0  0  0  0  0  0
  -21.5580   -4.6000   24.9420 C   0  0  0  0  0  0  0  0  0  0  0  0
  -21.9580   -4.0330   23.7190 C   0  0  0  0  0  3  0  0  0  0  0  0
  -22.0440   -4.8360   22.5680 C   0  0  0  0  0  0  0  0  0  0  0  0
  -22.4060   -4.2810   21.3870 F   0  0  0  0  0  0  0  0  0  0  0  0
  -21.4720   -3.8250   26.0470 F   0  0  0  0  0  0  0  0  0  0  0  0
  -22.8260  -13.5870   21.1260 C   0  0  0  0  0  0  0  0  0  0  0  0
  -22.1260  -12.8830   22.0100 N   0  0  0  0  0  0  0  0  0  0  0  0
  -22.3720  -14.6170   20.6300 O   0  0  0  0  0  0  0  0  0  0  0  0
  -22.5050  -12.0480   22.4330 H   0  0  0  0  0  0  0  0  0  0  0  0
  -21.1960  -13.1820   22.2650 H   0  0  0  0  0  0  0  0  0  0  0  0
  -25.4310  -15.2570   20.2170 N   0  0  0  0  0  0  0  0  0  0  0  0
  -24.6770  -15.9220   20.3530 H   0  0  0  0  0  0  0  0  0  0  0  0
  -26.2810  -15.6890   19.8740 H   0  0  0  0  0  0  0  0  0  0  0  0
  -29.1320  -23.7900   20.5090 C   0  0  0  0  0  2  0  0  0  0  0  0
  -28.4820  -24.7050   21.5710 C   0  0  0  0  0  2  0  0  0  0  0  0
  -28.8310  -26.2060   21.4300 C   0  0  0  0  0  2  0  0  0  0  0  0
  -28.4000  -26.7350   20.1770 O   0  0  0  0  0  0  0  0  0  0  0  0
  -24.5130  -31.9040   23.2110 C   0  0  0  0  0  0  0  0  0  0  0  0
  -27.2440  -27.4750   20.2090 C   0  0  0  0  0  0  0  0  0  0  0  0
  -23.3480  -30.4900   21.5460 C   0  0  0  0  0  3  0  0  0  0  0  0
  -24.8410  -28.9520   20.1640 C   0  0  0  0  0  0  0  0  0  0  0  0
  -25.8730  -30.8620   21.4030 C   0  0  0  0  0  2  0  0  0  0  0  0
  -25.9800  -29.4880   20.7770 C   0  0  0  0  0  0  0  0  0  0  0  0
  -27.1860  -28.7540   20.8030 C   0  0  0  0  0  3  0  0  0  0  0  0
  -26.0940  -26.9460   19.5890 C   0  0  0  0  0  3  0  0  0  0  0  0
  -24.8910  -27.6770   19.5700 C   0  0  0  0  0  3  0  0  0  0  0  0
  -23.5930  -29.8060   20.1750 C   0  0  0  0  0  2  0  0  0  0  0  0
  -24.5950  -31.1010   22.1120 N   0  0  0  0  0  0  0  0  0  0  0  0
  -23.4190  -32.1720   23.7270 O   0  0  0  0  0  0  0  0  0  0  0  0
  -22.6820  -29.4690   22.4940 C   0  0  0  0  0  0  0  0  0  0  0  0
  -21.3610  -29.2760   22.3340 N   0  0  0  0  0  0  0  0  0  0  0  0
  -23.3490  -28.8520   23.3300 O   0  0  0  0  0  0  0  0  0  0  0  0
  -20.8860  -29.8260   21.6330 H   0  0  0  0  0  0  0  0  0  0  0  0
  -17.9850  -28.0640   22.7510 C   0  0  0  0  0  0  0  0  0  0  0  0
  -20.5330  -28.3360   23.0890 C   0  0  0  0  0  3  0  0  0  0  0  0
  -20.6560  -26.9040   22.5220 C   0  0  0  0  0  2  0  0  0  0  0  0
  -19.5830  -26.5710   21.4810 C   0  0  0  0  0  2  0  0  0  0  0  0
  -18.1840  -26.7130   22.0880 C   0  0  0  0  0  2  0  0  0  0  0  0
  -19.0870  -28.8340   23.2060 C   0  0  0  0  0  0  0  0  0  0  0  0
  -18.8470  -30.0990   23.7830 C   0  0  0  0  0  3  0  0  0  0  0  0
  -17.5360  -30.5960   23.9110 C   0  0  0  0  0  3  0  0  0  0  0  0
  -16.4470  -29.8250   23.4720 C   0  0  0  0  0  3  0  0  0  0  0  0
  -16.6720  -28.5600   22.8960 C   0  0  0  0  0  3  0  0  0  0  0  0
  -25.7820  -32.5400   23.8560 C   0  0  0  0  0  3  0  0  0  0  0  0
  -25.4650  -33.9390   24.1710 N   0  0  0  0  0  0  0  0  0  0  0  0
  -25.8110  -34.9890   23.4140 C   0  0  0  0  0  0  0  0  0  0  0  0
  -26.5080  -34.8810   22.4000 O   0  0  0  0  0  0  0  0  0  0  0  0
  -24.8490  -34.0950   24.9560 H   0  0  0  0  0  0  0  0  0  0  0  0
  -24.0880  -36.7710   22.9990 C   0  0  0  0  0  1  0  0  0  0  0  0
  -25.3080  -36.3770   23.8470 C   0  0  0  0  0  3  0  0  0  0  0  0
  -27.4180  -37.2690   24.7290 C   0  0  0  0  0  1  0  0  0  0  0  0
  -26.3410  -37.4320   23.7570 N   0  0  0  0  0  0  0  0  0  0  0  0
  -25.9300  -38.3530   23.8900 H   0  0  0  0  0  0  0  0  0  0  0  0
  -26.2760  -31.7740   25.1450 C   0  0  1  0  0  0  0  0  0  0  0  0
  -25.1620  -31.5280   26.1890 C   0  0  0  0  0  1  0  0  0  0  0  0
  -26.8790  -30.4020   24.7670 C   0  0  0  0  0  1  0  0  0  0  0  0
  -27.4080  -32.5770   25.8290 C   0  0  0  0  0  1  0  0  0  0  0  0
  2  4  1  0
  2  1  1  0
  3  5  1  0
  4  3  2  0
  5  6  2  0
  7  5  1  0
  7  8  1  0
  9  8  1  0
 10 15  1  0
 11 12  1  0
 11 10  1  0
 13 12  1  0
 13 20  1  0
 13 14  1  0
 15  9  1  0
 15 14  1  0
 16  9  2  0
 17 18  2  0
 18 37  1  0
 19 18  1  0
 19 22  1  0
 20 17  1  0
 20 21  1  0
 21 19  2  0
 22 23  1  0
 23 24  2  0
 25 28  1  0
 25 24  1  0
 26 25  2  0
 27 26  1  0
 27 22  2  0
 28 29  1  0
 29 30  1  0
 30 31  2  0
 32 31  1  0
 32 36  1  0
 33 32  2  0
 34 29  2  0
 34 33  1  0
 35 34  1  0
 37 38  1  0
 38 41  1  0
 38 40  1  0
 39 37  2  0
 42 43  1  0
 42 17  1  0
 44 42  1  0
 45  1  1  0
 45 46  1  0
 47 46  1  0
 48 50  1  0
 48 47  1  0
 49 60  2  0
 50 55  1  0
 51 59  1  0
 51 61  1  0
 52 58  1  0
 52 54  1  0
 53 59  1  0
 54 55  2  0
 54 53  1  0
 56 50  2  0
 57 56  1  0
 57 52  2  0
 58 51  1  0
 59 49  1  0
 61 63  2  0
 62 61  1  0
 64 62  1  0
 65 74  2  0
 65 70  1  0
 66 62  1  0
 66 70  1  0
 67 66  1  0
 68 69  1  0
 68 67  1  0
 69 65  1  0
 70 71  2  0
 71 72  1  0
 73 72  2  0
 74 73  1  0
 75 49  1  0
 75 76  1  0
 75 85  1  0
 76 79  1  0
 77 81  1  0
 77 76  1  0
 78 77  2  0
 81 80  1  0
 83 81  1  0
 83 84  1  0
 83 82  1  0
 85 88  1  1
 85 86  1  0
 87 85  1  0
M  ISO  4   8 100   9 100  47 101  48 101
M  END
>  <TORSDO>  (41) 
F 24

>  <SCORE>  (41) 
-12.360

>  <name>  (41) 
40

>  <ligand_id>  (41) 
40

>  <original_smiles>  (41) 
[H]C(C(=O)C([H])([H])C([H])([H])C(=O)N1C([H])([H])C([H])([H])C([H])([H])C([H])(n2nc(-c3c([H])c([H])c(Oc4c([H])c([H])c(F)c([H])c4F)c([H])c3[H])c(C(=O)N([H])[H])c2N([H])[H])C1([H])[H])=C([H])C([H])([H])C([H])([H])C([H])([H])C([H])([H])C([H])([H])Oc1c([H])c([H])c2c(c1[H])C([H])([H])N(C(=O)C([H])(N([H])C(=O)C([H])(N([H])C([H])([H])[H])C([H])([H])[H])C(C([H])([H])[H])(C([H])([H])[H])C([H])([H])[H])C([H])(C(=O)N([H])C1([H])c3c([H])c([H])c([H])c([H])c3C([H])([H])C([H])([H])C1([H])[H])C2([H])[H]

>  <smiles>  (41) 
[H]C(C(=O)C([H])([H])C([H])([H])C(=O)N1C([H])([H])C([H])([H])C([H])([H])C([H])(n2nc(-c3c([H])c([H])c(Oc4c([H])c([H])c(F)c([H])c4F)c([H])c3[H])c(C(=O)N([H])[H])c2N([H])[H])C1([H])[H])=C([H])C([H])([H])C([H])([H])C([H])([H])C([H])([H])C([H])([H])Oc1c([H])c([H])c2c(c1[H])C([H])([H])N(C(=O)C([H])(N([H])C(=O)C([H])(N([H])C([H])([H])[H])C([H])([H])[H])C(C([H])([H])[H])(C([H])([H])[H])C([H])([H])[H])C([H])(C(=O)N([H])C1([H])c3c([H])c([H])c([H])c([H])c3C([H])([H])C([H])([H])C1([H])[H])C2([H])[H]

$$$$
41:0:0
     RDKit          3D

 84 91  0  0  1  0  0  0  0  0999 V2000
  -28.7200  -22.8200   19.9390 C   0  0  0  0  0  2  0  0  0  0  0  0
  -28.9750  -21.2040   20.6560 C   0  0  0  0  0  2  0  0  0  0  0  0
  -29.1120  -19.5470   20.0050 C   0  0  0  0  0  2  0  0  0  0  0  0
  -29.8670  -18.0600   20.6330 C   0  0  0  0  0  2  0  0  0  0  0  0
  -30.3960  -15.2010   20.2700 C   0  0  0  0  0  0  0  0  0  0  0  0
  -30.3500  -12.7810   19.3600 C   0  0  0  0  0  2  0  0  0  0  0  0
  -29.4120  -12.6020   18.1410 C   0  0  0  0  0  2  0  0  0  0  0  0
  -27.9650  -12.3420   18.5970 C   0  0  0  0  0  2  0  0  0  0  0  0
  -27.5320  -13.3000   19.7350 C   0  0  0  0  0  3  0  0  0  0  0  0
  -28.5930  -13.4210   20.8470 C   0  0  0  0  0  2  0  0  0  0  0  0
  -29.8190  -13.9100   20.2000 N   0  0  0  0  0  0  0  0  0  0  0  0
  -31.6200  -15.2130   20.0850 O   0  0  0  0  0  0  0  0  0  0  0  0
  -29.6200  -16.4480   20.3470 N   0  0  0  0  0  0  0  0  0  0  0  0
  -28.6340  -16.2300   20.3490 H   0  0  0  0  0  0  0  0  0  0  0  0
  -25.1640  -13.8590   20.5070 C   0  0  0  0  0  0  0  0  0  0  0  0
  -24.1070  -13.0800   20.8850 C   0  0  0  0  0  0  0  0  0  0  0  0
  -24.5780  -11.7320   20.8550 C   0  0  0  0  0  0  0  0  0  0  0  0
  -26.2080  -12.9850   20.2570 N   0  0  0  0  0  0  0  0  0  0  0  0
  -25.8670  -11.7000   20.5360 N   0  0  0  0  0  0  0  0  0  0  0  0
  -23.8560  -10.4680   21.0510 C   0  0  0  0  0  0  0  0  0  0  0  0
  -24.3040   -9.4940   21.9700 C   0  0  0  0  0  3  0  0  0  0  0  0
  -23.5790   -8.2970   22.1560 C   0  0  0  0  0  3  0  0  0  0  0  0
  -22.3920   -8.0650   21.4220 C   0  0  0  0  0  0  0  0  0  0  0  0
  -21.9620   -9.0270   20.4910 C   0  0  0  0  0  3  0  0  0  0  0  0
  -22.6880  -10.2150   20.3040 C   0  0  0  0  0  3  0  0  0  0  0  0
  -21.6370   -6.9210   21.5170 O   0  0  0  0  0  0  0  0  0  0  0  0
  -21.6230   -6.1620   22.6600 C   0  0  0  0  0  0  0  0  0  0  0  0
  -21.2490   -6.7030   23.9090 C   0  0  0  0  0  3  0  0  0  0  0  0
  -21.1820   -5.8710   25.0460 C   0  0  0  0  0  3  0  0  0  0  0  0
  -21.4760   -4.4990   24.9330 C   0  0  0  0  0  0  0  0  0  0  0  0
  -21.8430   -3.9570   23.6880 C   0  0  0  0  0  3  0  0  0  0  0  0
  -21.9120   -4.7860   22.5540 C   0  0  0  0  0  0  0  0  0  0  0  0
  -22.2450   -4.2550   21.3530 F   0  0  0  0  0  0  0  0  0  0  0  0
  -21.4040   -3.6980   26.0210 F   0  0  0  0  0  0  0  0  0  0  0  0
  -22.7100  -13.5540   21.1580 C   0  0  0  0  0  0  0  0  0  0  0  0
  -21.9870  -12.8610   22.0310 N   0  0  0  0  0  0  0  0  0  0  0  0
  -22.2690  -14.5760   20.6330 O   0  0  0  0  0  0  0  0  0  0  0  0
  -22.3580  -12.0360   22.4770 H   0  0  0  0  0  0  0  0  0  0  0  0
  -21.0490  -13.1600   22.2560 H   0  0  0  0  0  0  0  0  0  0  0  0
  -25.3190  -15.2300   20.3220 N   0  0  0  0  0  0  0  0  0  0  0  0
  -24.5440  -15.8760   20.4320 H   0  0  0  0  0  0  0  0  0  0  0  0
  -26.1490  -15.6710   19.9480 H   0  0  0  0  0  0  0  0  0  0  0  0
  -28.0700  -24.3570   20.5690 C   0  0  0  0  0  2  0  0  0  0  0  0
  -28.2440  -25.9400   20.2190 O   0  0  0  0  0  0  0  0  0  0  0  0
  -24.6360  -31.8510   23.1910 C   0  0  0  0  0  0  0  0  0  0  0  0
  -27.2030  -26.9910   20.2220 C   0  0  0  0  0  0  0  0  0  0  0  0
  -23.4440  -30.4430   21.5620 C   0  0  0  0  0  3  0  0  0  0  0  0
  -24.8930  -28.8310   20.1590 C   0  0  0  0  0  0  0  0  0  0  0  0
  -26.0070  -30.6690   21.4100 C   0  0  0  0  0  2  0  0  0  0  0  0
  -26.0800  -29.2570   20.7700 C   0  0  0  0  0  0  0  0  0  0  0  0
  -27.2330  -28.3580   20.7710 C   0  0  0  0  0  3  0  0  0  0  0  0
  -25.9840  -26.6990   19.5730 C   0  0  0  0  0  3  0  0  0  0  0  0
  -24.8670  -27.5710   19.5410 C   0  0  0  0  0  3  0  0  0  0  0  0
  -23.6730  -29.7490   20.1920 C   0  0  0  0  0  2  0  0  0  0  0  0
  -24.7180  -31.0140   22.1080 N   0  0  0  0  0  0  0  0  0  0  0  0
  -23.5480  -32.1440   23.7100 O   0  0  0  0  0  0  0  0  0  0  0  0
  -22.7520  -29.4530   22.5340 C   0  0  0  0  0  0  0  0  0  0  0  0
  -21.4230  -29.2840   22.4070 N   0  0  0  0  0  0  0  0  0  0  0  0
  -23.4180  -28.8350   23.3680 O   0  0  0  0  0  0  0  0  0  0  0  0
  -20.9400  -29.8330   21.7090 H   0  0  0  0  0  0  0  0  0  0  0  0
  -18.0440  -28.0620   22.9000 C   0  0  0  0  0  0  0  0  0  0  0  0
  -20.5990  -28.3520   23.1830 C   0  0  0  0  0  3  0  0  0  0  0  0
  -20.7170  -26.9120   22.6300 C   0  0  0  0  0  2  0  0  0  0  0  0
  -19.6270  -26.5660   21.6110 C   0  0  0  0  0  2  0  0  0  0  0  0
  -18.2380  -26.7060   22.2410 C   0  0  0  0  0  2  0  0  0  0  0  0
  -19.1530  -28.8410   23.3270 C   0  0  0  0  0  0  0  0  0  0  0  0
  -18.9150  -30.1070   23.9070 C   0  0  0  0  0  3  0  0  0  0  0  0
  -17.6030  -30.5950   24.0600 C   0  0  0  0  0  3  0  0  0  0  0  0
  -16.5100  -29.8140   23.6450 C   0  0  0  0  0  3  0  0  0  0  0  0
  -16.7310  -28.5490   23.0720 C   0  0  0  0  0  3  0  0  0  0  0  0
  -25.9090  -32.4980   23.8200 C   0  0  0  0  0  3  0  0  0  0  0  0
  -26.4210  -31.7340   25.1030 C   0  0  1  0  0  0  0  0  0  0  0  0
  -25.3240  -31.5030   26.1710 C   0  0  0  0  0  1  0  0  0  0  0  0
  -27.0060  -30.3530   24.7280 C   0  0  0  0  0  1  0  0  0  0  0  0
  -27.5690  -32.5320   25.7650 C   0  0  0  0  0  1  0  0  0  0  0  0
  -25.5860  -33.8960   24.1570 N   0  0  0  0  0  0  0  0  0  0  0  0
  -25.9120  -34.9590   23.4110 C   0  0  0  0  0  0  0  0  0  0  0  0
  -26.5790  -34.8680   22.3770 O   0  0  0  0  0  0  0  0  0  0  0  0
  -24.9920  -34.0390   24.9610 H   0  0  0  0  0  0  0  0  0  0  0  0
  -24.1740  -36.7540   23.0900 C   0  0  0  0  0  1  0  0  0  0  0  0
  -25.4240  -36.3440   23.8850 C   0  0  0  0  0  3  0  0  0  0  0  0
  -27.5630  -37.2340   24.7020 C   0  0  0  0  0  1  0  0  0  0  0  0
  -26.4510  -37.4030   23.7700 N   0  0  0  0  0  0  0  0  0  0  0  0
  -26.0430  -38.3200   23.9280 H   0  0  0  0  0  0  0  0  0  0  0  0
  1 43  1  0
  1  2  1  0
  3  4  1  0
  3  2  1  0
  5 13  1  0
  6 11  1  0
  7  8  1  0
  7  6  1  0
  9  8  1  0
  9 18  1  0
  9 10  1  0
 11  5  1  0
 11 10  1  0
 12  5  2  0
 13 14  1  0
 13  4  1  0
 15 16  2  0
 16 35  1  0
 17 16  1  0
 17 20  1  0
 18 15  1  0
 18 19  1  0
 19 17  2  0
 20 21  1  0
 21 22  2  0
 23 26  1  0
 23 22  1  0
 24 23  2  0
 25 24  1  0
 25 20  2  0
 26 27  1  0
 27 28  1  0
 28 29  2  0
 30 29  1  0
 30 34  1  0
 31 30  2  0
 32 27  2  0
 32 31  1  0
 33 32  1  0
 35 36  1  0
 36 39  1  0
 36 38  1  0
 37 35  2  0
 40 41  1  0
 40 15  1  0
 42 40  1  0
 44 46  1  0
 44 43  1  0
 45 56  2  0
 46 51  1  0
 47 55  1  0
 47 57  1  0
 48 54  1  0
 48 50  1  0
 49 55  1  0
 50 51  2  0
 50 49  1  0
 52 46  2  0
 53 52  1  0
 53 48  2  0
 54 47  1  0
 55 45  1  0
 57 59  2  0
 58 57  1  0
 60 58  1  0
 61 70  2  0
 61 66  1  0
 62 58  1  0
 62 66  1  0
 63 62  1  0
 64 65  1  0
 64 63  1  0
 65 61  1  0
 66 67  2  0
 67 68  1  0
 69 68  2  0
 70 69  1  0
 71 45  1  0
 71 76  1  0
 71 72  1  0
 72 75  1  1
 72 73  1  0
 74 72  1  0
 76 79  1  0
 77 81  1  0
 77 76  1  0
 78 77  2  0
 81 80  1  0
 83 81  1  0
 83 84  1  0
 83 82  1  0
M  ISO  4   5 100  13 100  43 101  44 101
M  END
>  <TORSDO>  (42) 
F 20

>  <SCORE>  (42) 
-15.593

>  <name>  (42) 
41

>  <ligand_id>  (42) 
41

>  <original_smiles>  (42) 
[H]c1c([H])c([H])c2c(c1[H])C([H])([H])C([H])([H])C([H])([H])C2([H])N([H])C(=O)C1([H])N(C(=O)C([H])(N([H])C(=O)C([H])(N([H])C([H])([H])[H])C([H])([H])[H])C(C([H])([H])[H])(C([H])([H])[H])C([H])([H])[H])C([H])([H])c2c([H])c(OC([H])([H])C([H])([H])C([H])([H])C([H])([H])C([H])([H])N([H])C(=O)N3C([H])([H])C([H])([H])C([H])([H])C([H])(n4nc(-c5c([H])c([H])c(Oc6c([H])c([H])c(F)c([H])c6F)c([H])c5[H])c(C(=O)N([H])[H])c4N([H])[H])C3([H])[H])c([H])c([H])c2C1([H])[H]

>  <smiles>  (42) 
[H]c1c([H])c([H])c2c(c1[H])C([H])([H])C([H])([H])C([H])([H])C2([H])N([H])C(=O)C1([H])N(C(=O)C([H])(N([H])C(=O)C([H])(N([H])C([H])([H])[H])C([H])([H])[H])C(C([H])([H])[H])(C([H])([H])[H])C([H])([H])[H])C([H])([H])c2c([H])c(OC([H])([H])C([H])([H])C([H])([H])C([H])([H])C([H])([H])N([H])C(=O)N3C([H])([H])C([H])([H])C([H])([H])C([H])(n4nc(-c5c([H])c([H])c(Oc6c([H])c([H])c(F)c([H])c6F)c([H])c5[H])c(C(=O)N([H])[H])c4N([H])[H])C3([H])[H])c([H])c([H])c2C1([H])[H]

$$$$
42:0:0
     RDKit          3D

 96105  0  0  1  0  0  0  0  0999 V2000
  -32.0480  -25.1320   20.7400 C   0  0  0  0  0  0  0  0  0  0  0  0
  -32.6580  -23.7650   20.9990 C   0  0  0  0  0  2  0  0  0  0  0  0
  -31.5130  -22.9980   21.6840 C   0  0  0  0  0  3  0  0  0  0  0  0
  -30.5430  -25.1300   20.9890 C   0  0  0  0  0  3  0  0  0  0  0  0
  -30.2240  -23.6280   21.1210 C   0  0  0  0  0  3  0  0  0  0  0  0
  -32.6950  -26.1170   20.3740 O   0  0  0  0  0  0  0  0  0  0  0  0
  -29.9890  -23.0990   19.9140 F   0  0  0  0  0  0  0  0  0  0  0  0
  -31.8100  -19.3810   20.3470 C   0  0  0  0  0  3  0  0  0  0  0  0
  -31.1850  -19.3160   22.6970 C   0  0  0  0  0  3  0  0  0  0  0  0
  -31.8510  -20.7870   20.3970 C   0  0  0  0  0  3  0  0  0  0  0  0
  -31.2260  -20.7220   22.7470 C   0  0  0  0  0  3  0  0  0  0  0  0
  -31.4530  -18.6310   21.4910 C   0  0  0  0  0  0  0  0  0  0  0  0
  -31.5450  -21.4720   21.5950 C   0  0  0  0  0  0  0  0  0  0  0  0
  -31.3700  -17.1430   21.4640 C   0  0  0  0  0  0  0  0  0  0  0  0
  -31.5270  -16.4480   22.4720 O   0  0  0  0  0  0  0  0  0  0  0  0
  -31.0310  -16.4740   20.1270 C   0  0  0  0  0  2  0  0  0  0  0  0
  -30.3110  -15.1220   20.3090 C   0  0  0  0  0  2  0  0  0  0  0  0
  -30.5990  -14.1120   19.1930 C   0  0  0  0  0  0  0  0  0  0  0  0
  -30.1250  -11.9080   18.1690 C   0  0  0  0  0  2  0  0  0  0  0  0
  -28.9830  -11.9810   17.1390 C   0  0  0  0  0  2  0  0  0  0  0  0
  -27.6110  -11.8530   17.8260 C   0  0  0  0  0  2  0  0  0  0  0  0
  -27.4630  -12.8030   19.0440 C   0  0  0  0  0  3  0  0  0  0  0  0
  -28.6900  -12.6820   19.9760 C   0  0  0  0  0  2  0  0  0  0  0  0
  -29.8990  -12.9490   19.1800 N   0  0  0  0  0  0  0  0  0  0  0  0
  -31.4740  -14.3700   18.3580 O   0  0  0  0  0  0  0  0  0  0  0  0
  -25.2690  -13.4710   20.2190 C   0  0  0  0  0  0  0  0  0  0  0  0
  -24.2550  -12.7230   20.7560 C   0  0  0  0  0  0  0  0  0  0  0  0
  -24.6400  -11.3580   20.5830 C   0  0  0  0  0  0  0  0  0  0  0  0
  -26.2110  -12.5630   19.7600 N   0  0  0  0  0  0  0  0  0  0  0  0
  -25.8440  -11.2830   20.0300 N   0  0  0  0  0  0  0  0  0  0  0  0
  -23.9070  -10.1150   20.8610 C   0  0  0  0  0  0  0  0  0  0  0  0
  -24.3610   -9.1910   21.8260 C   0  0  0  0  0  3  0  0  0  0  0  0
  -23.6310   -8.0120   22.0870 C   0  0  0  0  0  3  0  0  0  0  0  0
  -22.4310   -7.7490   21.3840 C   0  0  0  0  0  0  0  0  0  0  0  0
  -21.9960   -8.6620   20.4080 C   0  0  0  0  0  3  0  0  0  0  0  0
  -22.7270   -9.8320   20.1440 C   0  0  0  0  0  3  0  0  0  0  0  0
  -21.6690   -6.6180   21.5530 O   0  0  0  0  0  0  0  0  0  0  0  0
  -21.5510   -6.0060   22.7750 C   0  0  0  0  0  0  0  0  0  0  0  0
  -21.0290   -6.6810   23.8990 C   0  0  0  0  0  3  0  0  0  0  0  0
  -20.8610   -5.9930   25.1180 C   0  0  0  0  0  3  0  0  0  0  0  0
  -21.2030   -4.6310   25.2110 C   0  0  0  0  0  0  0  0  0  0  0  0
  -21.7190   -3.9560   24.0910 C   0  0  0  0  0  3  0  0  0  0  0  0
  -21.8890   -4.6420   22.8750 C   0  0  0  0  0  0  0  0  0  0  0  0
  -22.3660   -3.9800   21.7930 F   0  0  0  0  0  0  0  0  0  0  0  0
  -21.0350   -3.9680   26.3800 F   0  0  0  0  0  0  0  0  0  0  0  0
  -22.9600  -13.2380   21.3120 C   0  0  0  0  0  0  0  0  0  0  0  0
  -22.4030  -12.5540   22.3060 N   0  0  0  0  0  0  0  0  0  0  0  0
  -22.4550  -14.2810   20.9000 O   0  0  0  0  0  0  0  0  0  0  0  0
  -22.8260  -11.7080   22.6600 H   0  0  0  0  0  0  0  0  0  0  0  0
  -21.5420  -12.8810   22.7200 H   0  0  0  0  0  0  0  0  0  0  0  0
  -25.4600  -14.8410   20.0650 N   0  0  0  0  0  0  0  0  0  0  0  0
  -24.7620  -15.5210   20.3440 H   0  0  0  0  0  0  0  0  0  0  0  0
  -26.2600  -15.2590   19.6050 H   0  0  0  0  0  0  0  0  0  0  0  0
  -29.7360  -25.8830   19.9100 C   0  0  0  0  0  2  0  0  0  0  0  0
  -28.2830  -26.1510   20.3200 C   0  0  0  0  0  2  0  0  0  0  0  0
  -27.5880  -26.6510   19.1850 O   0  0  0  0  0  0  0  0  0  0  0  0
  -24.6170  -31.6230   23.3370 C   0  0  0  0  0  0  0  0  0  0  0  0
  -26.5140  -27.4550   19.4650 C   0  0  0  0  0  0  0  0  0  0  0  0
  -23.1260  -30.5690   21.6640 C   0  0  0  0  0  3  0  0  0  0  0  0
  -24.2810  -29.1150   19.9150 C   0  0  0  0  0  0  0  0  0  0  0  0
  -25.6410  -30.7370   21.2490 C   0  0  0  0  0  2  0  0  0  0  0  0
  -25.5300  -29.4620   20.4460 C   0  0  0  0  0  0  0  0  0  0  0  0
  -26.6500  -28.6350   20.2280 C   0  0  0  0  0  3  0  0  0  0  0  0
  -25.2570  -27.1180   18.9270 C   0  0  0  0  0  3  0  0  0  0  0  0
  -24.1350  -27.9380   19.1570 C   0  0  0  0  0  3  0  0  0  0  0  0
  -23.1360  -30.0620   20.1950 C   0  0  0  0  0  2  0  0  0  0  0  0
  -24.4860  -30.9810   22.1420 N   0  0  0  0  0  0  0  0  0  0  0  0
  -23.6250  -31.9130   24.0190 O   0  0  0  0  0  0  0  0  0  0  0  0
  -22.4680  -29.4900   22.5510 C   0  0  0  0  0  0  0  0  0  0  0  0
  -21.1370  -29.3490   22.4330 N   0  0  0  0  0  0  0  0  0  0  0  0
  -23.1490  -28.7840   23.2990 O   0  0  0  0  0  0  0  0  0  0  0  0
  -20.6490  -29.9730   21.8040 H   0  0  0  0  0  0  0  0  0  0  0  0
  -17.7740  -28.0700   22.7390 C   0  0  0  0  0  0  0  0  0  0  0  0
  -20.3100  -28.3720   23.1380 C   0  0  0  0  0  3  0  0  0  0  0  0
  -20.4710  -26.9610   22.5270 C   0  0  0  0  0  2  0  0  0  0  0  0
  -19.4250  -26.6460   21.4530 C   0  0  0  0  0  2  0  0  0  0  0  0
  -18.0120  -26.7450   22.0350 C   0  0  0  0  0  2  0  0  0  0  0  0
  -18.8540  -28.8420   23.2420 C   0  0  0  0  0  0  0  0  0  0  0  0
  -18.5820  -30.0840   23.8550 C   0  0  0  0  0  3  0  0  0  0  0  0
  -17.2600  -30.5540   23.9710 C   0  0  0  0  0  3  0  0  0  0  0  0
  -16.1930  -29.7790   23.4850 C   0  0  0  0  0  3  0  0  0  0  0  0
  -16.4500  -28.5390   22.8740 C   0  0  0  0  0  3  0  0  0  0  0  0
  -26.0140  -32.0430   23.8910 C   0  0  0  0  0  3  0  0  0  0  0  0
  -25.8940  -33.4190   24.3930 N   0  0  0  0  0  0  0  0  0  0  0  0
  -26.3250  -34.5050   23.7390 C   0  0  0  0  0  0  0  0  0  0  0  0
  -26.9370  -34.4440   22.6680 O   0  0  0  0  0  0  0  0  0  0  0  0
  -25.3540  -33.5460   25.2350 H   0  0  0  0  0  0  0  0  0  0  0  0
  -24.8260  -36.5230   23.6670 C   0  0  0  0  0  1  0  0  0  0  0  0
  -26.0300  -35.8770   24.3720 C   0  0  0  0  0  3  0  0  0  0  0  0
  -28.2760  -36.4000   25.2160 C   0  0  0  0  0  1  0  0  0  0  0  0
  -27.1830  -36.8030   24.3350 N   0  0  0  0  0  0  0  0  0  0  0  0
  -26.8980  -37.7440   24.5930 H   0  0  0  0  0  0  0  0  0  0  0  0
  -26.5530  -31.0810   25.0190 C   0  0  1  0  0  0  0  0  0  0  0  0
  -25.5360  -30.8270   26.1560 C   0  0  0  0  0  1  0  0  0  0  0  0
  -26.9470  -29.7090   24.4200 C   0  0  0  0  0  1  0  0  0  0  0  0
  -27.8350  -31.6740   25.6470 C   0  0  0  0  0  1  0  0  0  0  0  0
  1  4  1  0
  1  2  1  0
  2  3  1  0
  3 13  1  0
  4 54  1  0
  4  5  1  0
  5  7  1  0
  5  3  1  0
  6  1  2  0
  8 10  2  0
  8 12  1  0
  9 11  1  0
 10 13  1  0
 12  9  2  0
 13 11  2  0
 14 12  1  0
 14 15  2  0
 16 17  1  0
 16 14  1  0
 18 17  1  0
 19 24  1  0
 20 21  1  0
 20 19  1  0
 22 21  1  0
 22 29  1  0
 22 23  1  0
 24 18  1  0
 24 23  1  0
 25 18  2  0
 26 27  2  0
 27 46  1  0
 28 27  1  0
 28 31  1  0
 29 30  1  0
 29 26  1  0
 30 28  2  0
 31 32  1  0
 32 33  2  0
 34 37  1  0
 34 33  1  0
 35 34  2  0
 36 35  1  0
 36 31  2  0
 37 38  1  0
 38 43  2  0
 38 39  1  0
 39 40  2  0
 40 41  1  0
 41 45  1  0
 42 41  2  0
 43 42  1  0
 44 43  1  0
 46 47  1  0
 47 49  1  0
 47 50  1  0
 48 46  2  0
 51 26  1  0
 51 52  1  0
 53 51  1  0
 54 55  1  0
 56 58  1  0
 56 55  1  0
 57 68  2  0
 58 63  1  0
 59 67  1  0
 59 69  1  0
 60 66  1  0
 60 62  1  0
 61 67  1  0
 62 61  1  0
 63 62  2  0
 64 65  1  0
 64 58  2  0
 65 60  2  0
 66 59  1  0
 67 57  1  0
 69 71  2  0
 70 69  1  0
 72 70  1  0
 73 82  2  0
 73 78  1  0
 74 70  1  0
 74 78  1  0
 75 74  1  0
 76 77  1  0
 76 75  1  0
 77 73  1  0
 78 79  2  0
 79 80  1  0
 81 80  2  0
 82 81  1  0
 83 57  1  0
 83 84  1  0
 83 93  1  0
 84 87  1  0
 85 89  1  0
 85 84  1  0
 86 85  2  0
 89 88  1  0
 91 89  1  0
 91 92  1  0
 91 90  1  0
 93 96  1  1
 93 94  1  0
 95 93  1  0
M  ISO  4  17 100  18 100  55 101  56 101
M  END
>  <TORSDO>  (43) 
F 22

>  <SCORE>  (43) 
-9.101

>  <name>  (43) 
42

>  <ligand_id>  (43) 
42

>  <original_smiles>  (43) 
[H]c1c([H])c([H])c2c(c1[H])C([H])([H])C([H])([H])C([H])([H])C2([H])N([H])C(=O)C1([H])N(C(=O)C([H])(N([H])C(=O)C([H])(N([H])C([H])([H])[H])C([H])([H])[H])C(C([H])([H])[H])(C([H])([H])[H])C([H])([H])[H])C([H])([H])c2c([H])c(OC([H])([H])C([H])([H])C3([H])C(=O)C([H])([H])C([H])(c4c([H])c([H])c(C(=O)C([H])([H])C([H])([H])C(=O)N5C([H])([H])C([H])([H])C([H])([H])C([H])(n6nc(-c7c([H])c([H])c(Oc8c([H])c([H])c(F)c([H])c8F)c([H])c7[H])c(C(=O)N([H])[H])c6N([H])[H])C5([H])[H])c([H])c4[H])C3([H])F)c([H])c([H])c2C1([H])[H]

>  <smiles>  (43) 
[H]c1c([H])c([H])c2c(c1[H])C([H])([H])C([H])([H])C([H])([H])C2([H])N([H])C(=O)C1([H])N(C(=O)C([H])(N([H])C(=O)C([H])(N([H])C([H])([H])[H])C([H])([H])[H])C(C([H])([H])[H])(C([H])([H])[H])C([H])([H])[H])C([H])([H])c2c([H])c(OC([H])([H])C([H])([H])C3([H])C(=O)C([H])([H])C([H])(c4c([H])c([H])c(C(=O)C([H])([H])C([H])([H])C(=O)N5C([H])([H])C([H])([H])C([H])([H])C([H])(n6nc(-c7c([H])c([H])c(Oc8c([H])c([H])c(F)c([H])c8F)c([H])c7[H])c(C(=O)N([H])[H])c6N([H])[H])C5([H])[H])c([H])c4[H])C3([H])F)c([H])c([H])c2C1([H])[H]

$$$$
43:0:0
     RDKit          3D

 91 98  0  0  1  0  0  0  0  0999 V2000
  -29.3260  -22.7090   17.5400 N   0  0  0  0  0  4  0  0  0  0  0  0
  -28.6270  -22.3110   18.1480 H   0  0  0  0  0  0  0  0  0  0  0  0
  -28.8700  -22.9080   16.6630 H   0  0  0  0  0  0  0  0  0  0  0  0
  -30.3820  -21.7160   17.2390 C   0  0  0  0  0  2  0  0  0  0  0  0
  -30.9440  -21.0030   18.4870 C   0  0  0  0  0  2  0  0  0  0  0  0
  -30.2500  -19.6630   18.7880 C   0  0  0  0  0  2  0  0  0  0  0  0
  -30.8640  -18.9300   19.9920 C   0  0  0  0  0  2  0  0  0  0  0  0
  -30.2710  -17.5240   20.1730 C   0  0  0  0  0  2  0  0  0  0  0  0
  -30.8920  -16.7480   21.3490 C   0  0  0  0  0  2  0  0  0  0  0  0
  -30.3330  -15.3130   21.4960 C   0  0  0  0  0  2  0  0  0  0  0  0
  -30.7810  -14.3170   20.4060 C   0  0  0  0  0  0  0  0  0  0  0  0
  -30.3560  -12.2760   19.0730 C   0  0  0  0  0  2  0  0  0  0  0  0
  -29.3780  -12.5810   17.9220 C   0  0  0  0  0  2  0  0  0  0  0  0
  -27.9150  -12.4660   18.3960 C   0  0  0  0  0  2  0  0  0  0  0  0
  -27.6530  -13.2300   19.7220 C   0  0  0  0  0  3  0  0  0  0  0  0
  -28.7370  -12.8910   20.7710 C   0  0  0  0  0  2  0  0  0  0  0  0
  -30.0500  -13.1930   20.1790 N   0  0  0  0  0  0  0  0  0  0  0  0
  -31.8030  -14.5720   19.7600 O   0  0  0  0  0  0  0  0  0  0  0  0
  -25.2760  -13.8660   20.4860 C   0  0  0  0  0  0  0  0  0  0  0  0
  -24.2070  -13.1060   20.8720 C   0  0  0  0  0  0  0  0  0  0  0  0
  -24.6460  -11.7470   20.8150 C   0  0  0  0  0  0  0  0  0  0  0  0
  -26.3050  -12.9730   20.2250 N   0  0  0  0  0  0  0  0  0  0  0  0
  -25.9280  -11.6920   20.4740 N   0  0  0  0  0  0  0  0  0  0  0  0
  -23.9070  -10.4950   21.0120 C   0  0  0  0  0  0  0  0  0  0  0  0
  -24.3640   -9.4980   21.9030 C   0  0  0  0  0  3  0  0  0  0  0  0
  -23.6250   -8.3110   22.0890 C   0  0  0  0  0  3  0  0  0  0  0  0
  -22.4150   -8.1100   21.3840 C   0  0  0  0  0  0  0  0  0  0  0  0
  -21.9760   -9.0940   20.4820 C   0  0  0  0  0  3  0  0  0  0  0  0
  -22.7150  -10.2730   20.2930 C   0  0  0  0  0  3  0  0  0  0  0  0
  -21.6440   -6.9760   21.4820 O   0  0  0  0  0  0  0  0  0  0  0  0
  -21.6530   -6.1950   22.6110 C   0  0  0  0  0  0  0  0  0  0  0  0
  -21.3320   -6.7200   23.8810 C   0  0  0  0  0  3  0  0  0  0  0  0
  -21.2840   -5.8680   25.0030 C   0  0  0  0  0  3  0  0  0  0  0  0
  -21.5450   -4.4930   24.8550 C   0  0  0  0  0  0  0  0  0  0  0  0
  -21.8590   -3.9680   23.5890 C   0  0  0  0  0  3  0  0  0  0  0  0
  -21.9080   -4.8170   22.4690 C   0  0  0  0  0  0  0  0  0  0  0  0
  -22.1900   -4.3020   21.2480 F   0  0  0  0  0  0  0  0  0  0  0  0
  -21.4920   -3.6720   25.9290 F   0  0  0  0  0  0  0  0  0  0  0  0
  -22.8250  -13.6000   21.1910 C   0  0  0  0  0  0  0  0  0  0  0  0
  -22.1120  -12.9060   22.0720 N   0  0  0  0  0  0  0  0  0  0  0  0
  -22.3870  -14.6370   20.6950 O   0  0  0  0  0  0  0  0  0  0  0  0
  -22.4810  -12.0650   22.4920 H   0  0  0  0  0  0  0  0  0  0  0  0
  -21.1880  -13.2200   22.3290 H   0  0  0  0  0  0  0  0  0  0  0  0
  -25.4560  -15.2360   20.3170 N   0  0  0  0  0  0  0  0  0  0  0  0
  -24.7010  -15.9010   20.4530 H   0  0  0  0  0  0  0  0  0  0  0  0
  -26.3110  -15.6680   19.9890 H   0  0  0  0  0  0  0  0  0  0  0  0
  -29.8080  -24.0060   18.0730 C   0  0  0  0  0  2  0  0  0  0  0  0
  -28.7880  -25.1260   17.7990 C   0  0  0  0  0  2  0  0  0  0  0  0
  -29.2990  -26.5730   17.9980 C   0  0  0  0  0  2  0  0  0  0  0  0
  -29.4790  -27.0230   19.4560 C   0  0  0  0  0  2  0  0  0  0  0  0
  -28.3470  -26.6450   20.2230 O   0  0  0  0  0  0  0  0  0  0  0  0
  -24.5820  -31.8700   23.2210 C   0  0  0  0  0  0  0  0  0  0  0  0
  -27.2310  -27.4390   20.1600 C   0  0  0  0  0  0  0  0  0  0  0  0
  -23.3750  -30.4610   21.5850 C   0  0  0  0  0  3  0  0  0  0  0  0
  -24.8320  -28.9220   20.1630 C   0  0  0  0  0  0  0  0  0  0  0  0
  -25.8980  -30.8280   21.3830 C   0  0  0  0  0  2  0  0  0  0  0  0
  -25.9890  -29.4580   20.7450 C   0  0  0  0  0  0  0  0  0  0  0  0
  -27.1960  -28.7240   20.7420 C   0  0  0  0  0  3  0  0  0  0  0  0
  -26.0570  -26.9040   19.5910 C   0  0  0  0  0  3  0  0  0  0  0  0
  -24.8600  -27.6450   19.5800 C   0  0  0  0  0  3  0  0  0  0  0  0
  -23.5840  -29.7740   20.2090 C   0  0  0  0  0  2  0  0  0  0  0  0
  -24.6370  -31.0670   22.1220 N   0  0  0  0  0  0  0  0  0  0  0  0
  -23.5010  -32.1470   23.7580 O   0  0  0  0  0  0  0  0  0  0  0  0
  -22.7240  -29.4460   22.5510 C   0  0  0  0  0  0  0  0  0  0  0  0
  -21.3990  -29.2650   22.4250 N   0  0  0  0  0  0  0  0  0  0  0  0
  -23.4060  -28.8210   23.3690 O   0  0  0  0  0  0  0  0  0  0  0  0
  -20.9080  -29.8230   21.7400 H   0  0  0  0  0  0  0  0  0  0  0  0
  -18.0210  -28.0850   22.9270 C   0  0  0  0  0  0  0  0  0  0  0  0
  -20.5790  -28.3350   23.2010 C   0  0  0  0  0  3  0  0  0  0  0  0
  -20.6770  -26.9000   22.6320 C   0  0  0  0  0  2  0  0  0  0  0  0
  -19.5740  -26.5770   21.6180 C   0  0  0  0  0  2  0  0  0  0  0  0
  -18.1930  -26.7320   22.2600 C   0  0  0  0  0  2  0  0  0  0  0  0
  -19.1420  -28.8450   23.3550 C   0  0  0  0  0  0  0  0  0  0  0  0
  -18.9270  -30.1130   23.9370 C   0  0  0  0  0  3  0  0  0  0  0  0
  -17.6240  -30.6210   24.0980 C   0  0  0  0  0  3  0  0  0  0  0  0
  -16.5170  -29.8580   23.6870 C   0  0  0  0  0  3  0  0  0  0  0  0
  -16.7170  -28.5920   23.1060 C   0  0  0  0  0  3  0  0  0  0  0  0
  -25.8680  -32.5010   23.8400 C   0  0  0  0  0  3  0  0  0  0  0  0
  -26.4000  -31.7190   25.1040 C   0  0  1  0  0  0  0  0  0  0  0  0
  -25.3170  -31.4660   26.1790 C   0  0  0  0  0  1  0  0  0  0  0  0
  -26.9850  -30.3480   24.6890 C   0  0  0  0  0  1  0  0  0  0  0  0
  -27.5550  -32.5110   25.7610 C   0  0  0  0  0  1  0  0  0  0  0  0
  -25.5550  -33.8950   24.1800 N   0  0  0  0  0  0  0  0  0  0  0  0
  -25.8860  -34.9530   23.4290 C   0  0  0  0  0  0  0  0  0  0  0  0
  -26.5570  -34.8590   22.3960 O   0  0  0  0  0  0  0  0  0  0  0  0
  -24.9500  -34.0410   24.9750 H   0  0  0  0  0  0  0  0  0  0  0  0
  -24.1500  -36.7430   23.0930 C   0  0  0  0  0  1  0  0  0  0  0  0
  -25.3960  -36.3370   23.8960 C   0  0  0  0  0  3  0  0  0  0  0  0
  -27.5350  -37.2180   24.7180 C   0  0  0  0  0  1  0  0  0  0  0  0
  -26.4240  -37.3940   23.7860 N   0  0  0  0  0  0  0  0  0  0  0  0
  -26.0190  -38.3130   23.9450 H   0  0  0  0  0  0  0  0  0  0  0  0
  1 47  1  0
  1  2  1  0
  3  1  1  0
  4  1  1  0
  4  5  1  0
  5  6  1  0
  6  7  1  0
  7  8  1  0
  8  9  1  0
  9 10  1  0
 11 10  1  0
 12 17  1  0
 13 14  1  0
 13 12  1  0
 15 14  1  0
 15 22  1  0
 15 16  1  0
 17 11  1  0
 17 16  1  0
 18 11  2  0
 19 20  2  0
 20 39  1  0
 21 20  1  0
 21 24  1  0
 22 23  1  0
 22 19  1  0
 23 21  2  0
 24 25  1  0
 25 26  2  0
 27 30  1  0
 27 26  1  0
 28 27  2  0
 29 28  1  0
 29 24  2  0
 30 31  1  0
 31 32  1  0
 32 33  2  0
 34 33  1  0
 34 38  1  0
 35 34  2  0
 36 31  2  0
 36 35  1  0
 37 36  1  0
 39 40  1  0
 40 43  1  0
 40 42  1  0
 41 39  2  0
 44 45  1  0
 44 19  1  0
 46 44  1  0
 48 49  1  0
 48 47  1  0
 49 50  1  0
 50 51  1  0
 52 63  2  0
 53 51  1  0
 53 58  1  0
 54 62  1  0
 54 64  1  0
 55 61  1  0
 55 57  1  0
 56 62  1  0
 57 56  1  0
 58 57  2  0
 59 53  2  0
 60 59  1  0
 60 55  2  0
 61 54  1  0
 62 52  1  0
 64 66  2  0
 65 64  1  0
 67 65  1  0
 68 77  2  0
 68 73  1  0
 69 65  1  0
 69 73  1  0
 70 69  1  0
 71 72  1  0
 71 70  1  0
 72 68  1  0
 73 74  2  0
 74 75  1  0
 76 75  2  0
 77 76  1  0
 78 52  1  0
 78 83  1  0
 78 79  1  0
 79 82  1  1
 79 80  1  0
 81 79  1  0
 83 86  1  0
 84 88  1  0
 84 83  1  0
 85 84  2  0
 88 87  1  0
 90 88  1  0
 90 91  1  0
 90 89  1  0
M  ISO  4  10 100  11 100  50 101  51 101
M  END
>  <TORSDO>  (44) 
F 27

>  <SCORE>  (44) 
-11.440

>  <name>  (44) 
43

>  <ligand_id>  (44) 
43

>  <original_smiles>  (44) 
[H]c1c([H])c([H])c2c(c1[H])C([H])([H])C([H])([H])C([H])([H])C2([H])N([H])C(=O)C1([H])N(C(=O)C([H])(N([H])C(=O)C([H])(N([H])C([H])([H])[H])C([H])([H])[H])C(C([H])([H])[H])(C([H])([H])[H])C([H])([H])[H])C([H])([H])c2c([H])c(OC([H])([H])C([H])([H])C([H])([H])C([H])([H])[N+]([H])([H])C([H])([H])C([H])([H])C([H])([H])C([H])([H])C([H])([H])C([H])([H])C([H])([H])C(=O)N3C([H])([H])C([H])([H])C([H])([H])C([H])(n4nc(-c5c([H])c([H])c(Oc6c([H])c([H])c(F)c([H])c6F)c([H])c5[H])c(C(=O)N([H])[H])c4N([H])[H])C3([H])[H])c([H])c([H])c2C1([H])[H]

>  <smiles>  (44) 
[H]c1c([H])c([H])c2c(c1[H])C([H])([H])C([H])([H])C([H])([H])C2([H])N([H])C(=O)C1([H])N(C(=O)C([H])(N([H])C(=O)C([H])(N([H])C([H])([H])[H])C([H])([H])[H])C(C([H])([H])[H])(C([H])([H])[H])C([H])([H])[H])C([H])([H])c2c([H])c(OC([H])([H])C([H])([H])C([H])([H])C([H])([H])[N+]([H])([H])C([H])([H])C([H])([H])C([H])([H])C([H])([H])C([H])([H])C([H])([H])C([H])([H])C(=O)N3C([H])([H])C([H])([H])C([H])([H])C([H])(n4nc(-c5c([H])c([H])c(Oc6c([H])c([H])c(F)c([H])c6F)c([H])c5[H])c(C(=O)N([H])[H])c4N([H])[H])C3([H])[H])c([H])c([H])c2C1([H])[H]

$$$$
44:0:0
     RDKit          3D

 95103  0  0  1  0  0  0  0  0999 V2000
  -30.9550  -19.3030   24.7090 C   0  0  0  0  0  3  0  0  0  0  0  0
  -30.5350  -18.0510   24.2160 C   0  0  0  0  0  3  0  0  0  0  0  0
  -31.3480  -20.3160   23.8140 C   0  0  0  0  0  3  0  0  0  0  0  0
  -30.4900  -17.8070   22.8220 C   0  0  0  0  0  0  0  0  0  0  0  0
  -31.2780  -20.0940   22.4230 C   0  0  0  0  0  0  0  0  0  0  0  0
  -30.8090  -18.8600   21.9340 C   0  0  0  0  0  0  0  0  0  0  0  0
  -30.6460  -18.7300   20.5970 F   0  0  0  0  0  0  0  0  0  0  0  0
  -30.0690  -16.4670   22.3270 C   0  0  0  0  0  0  0  0  0  0  0  0
  -29.5140  -15.6300   23.0490 O   0  0  0  0  0  0  0  0  0  0  0  0
  -30.4440  -16.0810   20.8840 C   0  0  0  0  0  2  0  0  0  0  0  0
  -29.8880  -14.2230   19.3400 C   0  0  0  0  0  0  0  0  0  0  0  0
  -29.6260  -11.9920   18.3260 C   0  0  0  0  0  2  0  0  0  0  0  0
  -28.4900  -11.9060   17.2970 C   0  0  0  0  0  2  0  0  0  0  0  0
  -27.1440  -11.6220   17.9880 C   0  0  0  0  0  2  0  0  0  0  0  0
  -26.8680  -12.5940   19.1640 C   0  0  0  0  0  3  0  0  0  0  0  0
  -28.0860  -12.6530   20.1100 C   0  0  0  0  0  2  0  0  0  0  0  0
  -29.2830  -13.0130   19.3240 N   0  0  0  0  0  0  0  0  0  0  0  0
  -30.6220  -14.6440   18.4380 O   0  0  0  0  0  0  0  0  0  0  0  0
  -29.7710  -14.8490   20.5090 N   0  0  0  0  0  0  0  0  0  0  0  0
  -29.2150  -14.4140   21.2310 H   0  0  0  0  0  0  0  0  0  0  0  0
  -24.6720  -13.0380   20.4390 C   0  0  0  0  0  0  0  0  0  0  0  0
  -23.7220  -12.1910   20.9420 C   0  0  0  0  0  0  0  0  0  0  0  0
  -24.1810  -10.8700   20.6600 C   0  0  0  0  0  0  0  0  0  0  0  0
  -25.6540  -12.2260   19.8890 N   0  0  0  0  0  0  0  0  0  0  0  0
  -25.3700  -10.9100   20.0730 N   0  0  0  0  0  0  0  0  0  0  0  0
  -23.5330   -9.5680   20.8610 C   0  0  0  0  0  0  0  0  0  0  0  0
  -24.0850   -8.5940   21.7230 C   0  0  0  0  0  3  0  0  0  0  0  0
  -23.4350   -7.3540   21.9100 C   0  0  0  0  0  3  0  0  0  0  0  0
  -22.2200   -7.0820   21.2380 C   0  0  0  0  0  0  0  0  0  0  0  0
  -21.6880   -8.0470   20.3650 C   0  0  0  0  0  3  0  0  0  0  0  0
  -22.3390   -9.2770   20.1760 C   0  0  0  0  0  3  0  0  0  0  0  0
  -21.5300   -5.8970   21.3420 O   0  0  0  0  0  0  0  0  0  0  0  0
  -21.4550   -5.2090   22.5270 C   0  0  0  0  0  0  0  0  0  0  0  0
  -20.9660   -5.8070   23.7070 C   0  0  0  0  0  3  0  0  0  0  0  0
  -20.8410   -5.0430   24.8850 C   0  0  0  0  0  3  0  0  0  0  0  0
  -21.1970   -3.6800   24.8810 C   0  0  0  0  0  0  0  0  0  0  0  0
  -21.6780   -3.0810   23.7030 C   0  0  0  0  0  3  0  0  0  0  0  0
  -21.8050   -3.8440   22.5290 C   0  0  0  0  0  0  0  0  0  0  0  0
  -22.2510   -3.2560   21.3920 F   0  0  0  0  0  0  0  0  0  0  0  0
  -21.0700   -2.9430   26.0080 F   0  0  0  0  0  0  0  0  0  0  0  0
  -22.4140  -12.5840   21.5660 C   0  0  0  0  0  0  0  0  0  0  0  0
  -21.9300  -11.8020   22.5260 N   0  0  0  0  0  0  0  0  0  0  0  0
  -21.8350  -13.6190   21.2370 O   0  0  0  0  0  0  0  0  0  0  0  0
  -22.4120  -10.9640   22.8150 H   0  0  0  0  0  0  0  0  0  0  0  0
  -21.0610  -12.0480   22.9800 H   0  0  0  0  0  0  0  0  0  0  0  0
  -24.7740  -14.4250   20.3880 N   0  0  0  0  0  0  0  0  0  0  0  0
  -24.0460  -15.0320   20.7470 H   0  0  0  0  0  0  0  0  0  0  0  0
  -25.5300  -14.9340   19.9450 H   0  0  0  0  0  0  0  0  0  0  0  0
  -31.7210  -21.1590   21.4340 C   0  0  0  0  0  2  0  0  0  0  0  0
  -30.6420  -21.4770   20.3830 C   0  0  0  0  0  2  0  0  0  0  0  0
  -31.1500  -22.3680   19.2380 C   0  0  0  0  0  2  0  0  0  0  0  0
  -30.0820  -22.5420   18.1440 C   0  0  0  0  0  2  0  0  0  0  0  0
  -30.3090  -23.7700   17.2430 C   0  0  0  0  0  2  0  0  0  0  0  0
  -29.0340  -24.2040   16.4960 C   0  0  0  0  0  2  0  0  0  0  0  0
  -28.8890  -25.6230   16.5880 O   0  0  0  0  0  0  0  0  0  0  0  0
  -25.3220  -28.1350   22.1940 C   0  0  0  0  0  0  0  0  0  0  0  0
  -27.6810  -26.0970   17.0520 C   0  0  0  0  0  0  0  0  0  0  0  0
  -23.9490  -27.5980   20.2090 C   0  0  0  0  0  3  0  0  0  0  0  0
  -25.2440  -27.1190   18.0630 C   0  0  0  0  0  0  0  0  0  0  0  0
  -26.4020  -28.2810   19.9500 C   0  0  0  0  0  2  0  0  0  0  0  0
  -26.4490  -27.4180   18.7070 C   0  0  0  0  0  0  0  0  0  0  0  0
  -27.6690  -26.9200   18.2000 C   0  0  0  0  0  3  0  0  0  0  0  0
  -26.4560  -25.7980   16.4140 C   0  0  0  0  0  3  0  0  0  0  0  0
  -25.2400  -26.3100   16.9140 C   0  0  0  0  0  3  0  0  0  0  0  0
  -23.9840  -27.7050   18.6600 C   0  0  0  0  0  2  0  0  0  0  0  0
  -25.2510  -27.9900   20.8410 N   0  0  0  0  0  0  0  0  0  0  0  0
  -24.3210  -27.9900   22.9100 O   0  0  0  0  0  0  0  0  0  0  0  0
  -23.4860  -26.1750   20.5930 C   0  0  0  0  0  0  0  0  0  0  0  0
  -22.2290  -25.8450   20.2570 N   0  0  0  0  0  0  0  0  0  0  0  0
  -24.2550  -25.3890   21.1530 O   0  0  0  0  0  0  0  0  0  0  0  0
  -21.6620  -26.5470   19.8030 H   0  0  0  0  0  0  0  0  0  0  0  0
  -19.2420  -23.9210   19.5960 C   0  0  0  0  0  0  0  0  0  0  0  0
  -21.5870  -24.5500   20.4820 C   0  0  0  0  0  3  0  0  0  0  0  0
  -22.1320  -23.4830   19.5060 C   0  0  0  0  0  2  0  0  0  0  0  0
  -21.2940  -23.3510   18.2300 C   0  0  0  0  0  2  0  0  0  0  0  0
  -19.8490  -22.9780   18.5710 C   0  0  0  0  0  2  0  0  0  0  0  0
  -20.0590  -24.6710   20.4810 C   0  0  0  0  0  0  0  0  0  0  0  0
  -19.4450  -25.5590   21.3900 C   0  0  0  0  0  3  0  0  0  0  0  0
  -18.0450  -25.6980   21.4270 C   0  0  0  0  0  3  0  0  0  0  0  0
  -17.2410  -24.9420   20.5590 C   0  0  0  0  0  3  0  0  0  0  0  0
  -17.8390  -24.0550   19.6460 C   0  0  0  0  0  3  0  0  0  0  0  0
  -26.6590  -28.5150   22.9050 C   0  0  0  0  0  3  0  0  0  0  0  0
  -26.3760  -29.6450   23.8000 N   0  0  0  0  0  0  0  0  0  0  0  0
  -26.7100  -30.9170   23.5470 C   0  0  0  0  0  0  0  0  0  0  0  0
  -27.3610  -31.2530   22.5530 O   0  0  0  0  0  0  0  0  0  0  0  0
  -25.7920  -29.4520   24.6000 H   0  0  0  0  0  0  0  0  0  0  0  0
  -25.0330  -32.7380   23.9940 C   0  0  0  0  0  1  0  0  0  0  0  0
  -26.2510  -31.9870   24.5560 C   0  0  0  0  0  3  0  0  0  0  0  0
  -28.3970  -32.3600   25.6890 C   0  0  0  0  0  1  0  0  0  0  0  0
  -27.3100  -32.9530   24.9130 N   0  0  0  0  0  0  0  0  0  0  0  0
  -26.9270  -33.7300   25.4440 H   0  0  0  0  0  0  0  0  0  0  0  0
  -27.2990  -27.3150   23.7050 C   0  0  1  0  0  0  0  0  0  0  0  0
  -26.2990  -26.5880   24.6340 C   0  0  0  0  0  1  0  0  0  0  0  0
  -27.8920  -26.2680   22.7340 C   0  0  0  0  0  1  0  0  0  0  0  0
  -28.4720  -27.8310   24.5700 C   0  0  0  0  0  1  0  0  0  0  0  0
  2  1  1  0
  3  1  2  0
  4  2  2  0
  5  3  1  0
  6  5  2  0
  6  4  1  0
  7  6  1  0
  8  4  1  0
  8  9  2  0
 10  8  1  0
 11 19  1  0
 12 17  1  0
 13 14  1  0
 13 12  1  0
 15 14  1  0
 15 24  1  0
 15 16  1  0
 17 11  1  0
 17 16  1  0
 18 11  2  0
 19 10  1  0
 19 20  1  0
 21 22  2  0
 22 41  1  0
 23 26  1  0
 23 22  1  0
 24 25  1  0
 24 21  1  0
 25 23  2  0
 26 27  1  0
 27 28  2  0
 29 32  1  0
 29 28  1  0
 30 29  2  0
 31 30  1  0
 31 26  2  0
 32 33  1  0
 33 38  2  0
 33 34  1  0
 34 35  2  0
 36 35  1  0
 36 40  1  0
 37 36  2  0
 38 37  1  0
 39 38  1  0
 41 42  1  0
 42 44  1  0
 42 45  1  0
 43 41  2  0
 46 21  1  0
 46 47  1  0
 48 46  1  0
 49  5  1  0
 50 49  1  0
 51 50  1  0
 52 51  1  0
 53 52  1  0
 54 55  1  0
 54 53  1  0
 55 57  1  0
 56 67  2  0
 57 62  1  0
 58 68  1  0
 58 66  1  0
 59 65  1  0
 59 61  1  0
 60 66  1  0
 61 60  1  0
 62 61  2  0
 63 64  1  0
 63 57  2  0
 64 59  2  0
 65 58  1  0
 66 56  1  0
 68 70  2  0
 69 68  1  0
 71 69  1  0
 72 81  2  0
 72 77  1  0
 73 69  1  0
 74 73  1  0
 75 76  1  0
 75 74  1  0
 76 72  1  0
 77 73  1  0
 77 78  2  0
 78 79  1  0
 80 79  2  0
 81 80  1  0
 82 56  1  0
 82 92  1  0
 82 83  1  0
 83 86  1  0
 84 83  1  0
 84 88  1  0
 85 84  2  0
 88 87  1  0
 88 90  1  0
 90 91  1  0
 90 89  1  0
 92 95  1  1
 92 93  1  0
 94 92  1  0
M  ISO  4  11 100  19 100  54 101  55 101
M  END
>  <TORSDO>  (45) 
F 24

>  <SCORE>  (45) 
-1.942

>  <name>  (45) 
44

>  <ligand_id>  (45) 
44

>  <original_smiles>  (45) 
[H]c1c([H])c([H])c2c(c1[H])C([H])([H])C([H])([H])C([H])([H])C2([H])N([H])C(=O)C1([H])N(C(=O)C([H])(N([H])C(=O)C([H])(N([H])C([H])([H])[H])C([H])([H])[H])C(C([H])([H])[H])(C([H])([H])[H])C([H])([H])[H])C([H])([H])c2c([H])c(OC([H])([H])C([H])([H])C([H])([H])C([H])([H])C([H])([H])C([H])([H])c3c([H])c([H])c([H])c(C(=O)C([H])([H])N([H])C(=O)N4C([H])([H])C([H])([H])C([H])([H])C([H])(n5nc(-c6c([H])c([H])c(Oc7c([H])c([H])c(F)c([H])c7F)c([H])c6[H])c(C(=O)N([H])[H])c5N([H])[H])C4([H])[H])c3F)c([H])c([H])c2C1([H])[H]

>  <smiles>  (45) 
[H]c1c([H])c([H])c2c(c1[H])C([H])([H])C([H])([H])C([H])([H])C2([H])N([H])C(=O)C1([H])N(C(=O)C([H])(N([H])C(=O)C([H])(N([H])C([H])([H])[H])C([H])([H])[H])C(C([H])([H])[H])(C([H])([H])[H])C([H])([H])[H])C([H])([H])c2c([H])c(OC([H])([H])C([H])([H])C([H])([H])C([H])([H])C([H])([H])C([H])([H])c3c([H])c([H])c([H])c(C(=O)C([H])([H])N([H])C(=O)N4C([H])([H])C([H])([H])C([H])([H])C([H])(n5nc(-c6c([H])c([H])c(Oc7c([H])c([H])c(F)c([H])c7F)c([H])c6[H])c(C(=O)N([H])[H])c5N([H])[H])C4([H])[H])c3F)c([H])c([H])c2C1([H])[H]

$$$$
45:0:0
     RDKit          3D

 94101  0  0  1  0  0  0  0  0999 V2000
  -20.0200  -24.2540   19.3260 C   0  0  0  0  0  3  0  0  0  0  0  0
  -19.9090  -25.7920   19.2020 C   0  0  0  0  0  3  0  0  0  0  0  0
  -19.6110  -24.0180   21.9010 C   0  0  0  0  0  2  0  0  0  0  0  0
  -20.2130  -23.3560   20.5490 C   0  0  0  0  0  3  0  0  0  0  0  0
  -19.8730  -26.8360   20.4330 C   0  0  0  0  0  2  0  0  0  0  0  0
  -19.5390  -25.6540   22.2750 C   0  0  0  0  0  3  0  0  0  0  0  0
  -19.2720  -25.8680   23.8020 C   0  0  0  0  0  1  0  0  0  0  0  0
  -21.3840  -21.9940   20.4140 C   0  0  0  0  0  0  0  0  0  0  0  0
  -21.0380  -21.0170   21.0830 O   0  0  0  0  0  0  0  0  0  0  0  0
  -23.0100  -21.6530   19.6350 C   0  0  0  0  0  2  0  0  0  0  0  0
  -24.2020  -20.1770   19.4100 C   0  0  0  0  0  3  0  0  0  0  0  0
  -26.0630  -19.7880   19.2280 C   0  0  0  0  0  3  0  0  0  0  0  0
  -27.2580  -18.3070   19.3410 C   0  0  0  0  0  3  0  0  0  0  0  0
  -29.0700  -17.8580   19.7340 C   0  0  0  0  0  3  0  0  0  0  0  0
  -30.3710  -16.5240   19.8530 C   0  0  0  0  0  0  0  0  0  0  0  0
  -31.2800  -14.0360   19.8870 C   0  0  0  0  0  2  0  0  0  0  0  0
  -30.6350  -13.2240   18.7280 C   0  0  0  0  0  2  0  0  0  0  0  0
  -29.1800  -12.8460   19.0760 C   0  0  0  0  0  2  0  0  0  0  0  0
  -28.4460  -14.0320   19.7500 C   0  0  0  0  0  3  0  0  0  0  0  0
  -29.2200  -14.6060   20.9280 C   0  0  0  0  0  2  0  0  0  0  0  0
  -30.3540  -15.1800   20.2860 N   0  0  0  0  0  0  0  0  0  0  0  0
  -31.5710  -16.7610   19.5390 O   0  0  0  0  0  0  0  0  0  0  0  0
  -26.1100  -14.6270   20.4790 C   0  0  0  0  0  0  0  0  0  0  0  0
  -25.0480  -13.8770   20.8580 C   0  0  0  0  0  0  0  0  0  0  0  0
  -25.4860  -12.5240   20.7640 C   0  0  0  0  0  0  0  0  0  0  0  0
  -27.1200  -13.7370   20.1930 N   0  0  0  0  0  0  0  0  0  0  0  0
  -26.7660  -12.4580   20.4320 N   0  0  0  0  0  0  0  0  0  0  0  0
  -24.7350  -11.2840   20.8850 C   0  0  0  0  0  0  0  0  0  0  0  0
  -25.0700  -10.3130   21.8500 C   0  0  0  0  0  3  0  0  0  0  0  0
  -24.3100   -9.1310   21.9500 C   0  0  0  0  0  3  0  0  0  0  0  0
  -23.2110   -8.9200   21.0850 C   0  0  0  0  0  0  0  0  0  0  0  0
  -22.9030   -9.8830   20.1080 C   0  0  0  0  0  3  0  0  0  0  0  0
  -23.6630  -11.0570   20.0040 C   0  0  0  0  0  3  0  0  0  0  0  0
  -22.4300   -7.7940   21.0960 O   0  0  0  0  0  0  0  0  0  0  0  0
  -22.1890   -7.1030   22.2560 C   0  0  0  0  0  0  0  0  0  0  0  0
  -21.5730   -7.7110   23.3710 C   0  0  0  0  0  3  0  0  0  0  0  0
  -21.2820   -6.9450   24.5170 C   0  0  0  0  0  3  0  0  0  0  0  0
  -21.5980   -5.5740   24.5450 C   0  0  0  0  0  0  0  0  0  0  0  0
  -22.2110   -4.9670   23.4350 C   0  0  0  0  0  3  0  0  0  0  0  0
  -22.5030   -5.7310   22.2910 C   0  0  0  0  0  0  0  0  0  0  0  0
  -23.0750   -5.1410   21.2140 F   0  0  0  0  0  0  0  0  0  0  0  0
  -21.3100   -4.8340   25.6420 F   0  0  0  0  0  0  0  0  0  0  0  0
  -23.6770  -14.3980   21.1650 C   0  0  0  0  0  0  0  0  0  0  0  0
  -22.9340  -13.6920   22.0070 N   0  0  0  0  0  0  0  0  0  0  0  0
  -23.2800  -15.4650   20.7000 O   0  0  0  0  0  0  0  0  0  0  0  0
  -23.2710  -12.8270   22.4060 H   0  0  0  0  0  0  0  0  0  0  0  0
  -22.0120  -14.0210   22.2570 H   0  0  0  0  0  0  0  0  0  0  0  0
  -26.2690  -15.9820   20.3160 N   0  0  0  0  0  0  0  0  0  0  0  0
  -25.5150  -16.6300   20.5110 H   0  0  0  0  0  0  0  0  0  0  0  0
  -27.1310  -16.4380   20.0490 H   0  0  0  0  0  0  0  0  0  0  0  0
  -21.2150  -27.6530   19.7430 C   0  0  0  0  0  2  0  0  0  0  0  0
  -22.9390  -27.2970   19.7710 C   0  0  0  0  0  2  0  0  0  0  0  0
  -24.4050  -27.4270   20.7150 C   0  0  0  0  0  2  0  0  0  0  0  0
  -25.9730  -27.4260   20.3410 O   0  0  0  0  0  0  0  0  0  0  0  0
  -25.0950  -32.7210   23.7110 C   0  0  0  0  0  0  0  0  0  0  0  0
  -26.4210  -28.5320   19.7120 C   0  0  0  0  0  3  0  0  0  0  0  0
  -23.5670  -31.8120   22.0230 C   0  0  0  0  0  3  0  0  0  0  0  0
  -24.6810  -30.6110   19.9830 C   0  0  0  0  0  3  0  0  0  0  0  0
  -26.0900  -31.8220   21.6210 C   0  0  0  0  0  2  0  0  0  0  0  0
  -25.8760  -30.6530   20.6940 C   0  0  0  0  0  0  0  0  0  0  0  0
  -26.8100  -29.6090   20.5350 C   0  0  0  0  0  3  0  0  0  0  0  0
  -25.4820  -28.6950   18.7110 C   0  0  0  0  0  3  0  0  0  0  0  0
  -24.5440  -29.7140   18.8960 C   0  0  0  0  0  3  0  0  0  0  0  0
  -23.5680  -31.5190   20.4770 C   0  0  0  0  0  2  0  0  0  0  0  0
  -24.9350  -32.1520   22.4870 N   0  0  0  0  0  0  0  0  0  0  0  0
  -24.1240  -33.0170   24.4230 O   0  0  0  0  0  0  0  0  0  0  0  0
  -23.0050  -30.7200   22.9660 C   0  0  0  0  0  0  0  0  0  0  0  0
  -21.6880  -30.6370   23.1550 N   0  0  0  0  0  0  0  0  0  0  0  0
  -23.7850  -29.9980   23.5850 O   0  0  0  0  0  0  0  0  0  0  0  0
  -21.0780  -31.3060   22.7110 H   0  0  0  0  0  0  0  0  0  0  0  0
  -18.3360  -28.7150   22.7730 C   0  0  0  0  0  0  0  0  0  0  0  0
  -21.0490  -29.4890   23.7910 C   0  0  0  0  0  3  0  0  0  0  0  0
  -22.1750  -28.0550   23.7470 C   0  0  0  0  0  2  0  0  0  0  0  0
  -21.9020  -26.5240   22.8130 C   0  0  0  0  0  1  0  0  0  0  0  0
  -18.6870  -26.9840   22.0160 C   0  0  0  0  0  2  0  0  0  0  0  0
  -19.3800  -29.6610   23.4670 C   0  0  0  0  0  0  0  0  0  0  0  0
  -18.9660  -30.9150   24.0610 C   0  0  0  0  0  3  0  0  0  0  0  0
  -17.6470  -31.3770   24.1050 C   0  0  0  0  0  3  0  0  0  0  0  0
  -16.6720  -30.5520   23.5350 C   0  0  0  0  0  3  0  0  0  0  0  0
  -17.0100  -29.2950   22.9090 C   0  0  0  0  0  3  0  0  0  0  0  0
  -26.5120  -33.0530   24.2460 C   0  0  0  0  0  3  0  0  0  0  0  0
  -27.1080  -31.9340   25.1830 C   0  0  1  0  0  0  0  0  0  0  0  0
  -26.1390  -31.4690   26.2940 C   0  0  0  0  0  1  0  0  0  0  0  0
  -27.5190  -30.6830   24.3690 C   0  0  0  0  0  1  0  0  0  0  0  0
  -28.3960  -32.4650   25.8500 C   0  0  0  0  0  1  0  0  0  0  0  0
  -26.3920  -34.3270   24.9570 N   0  0  0  0  0  0  0  0  0  0  0  0
  -26.6710  -35.5180   24.4140 C   0  0  0  0  0  0  0  0  0  0  0  0
  -27.1540  -35.6430   23.2840 O   0  0  0  0  0  0  0  0  0  0  0  0
  -25.9560  -34.3010   25.8660 H   0  0  0  0  0  0  0  0  0  0  0  0
  -25.0650  -37.4130   24.7940 C   0  0  0  0  0  1  0  0  0  0  0  0
  -26.3770  -36.7640   25.2640 C   0  0  0  0  0  3  0  0  0  0  0  0
  -28.6860  -37.3000   25.9000 C   0  0  0  0  0  1  0  0  0  0  0  0
  -27.4680  -37.7620   25.2370 N   0  0  0  0  0  0  0  0  0  0  0  0
  -27.1740  -38.6260   25.6830 H   0  0  0  0  0  0  0  0  0  0  0  0
  1  4  1  0
  2  1  2  0
  2  5  1  0
  3  6  1  0
  4  8  1  0
  4  3  1  0
  6  7  1  0
  8  9  2  0
 10  8  1  0
 11 10  1  0
 12 13  1  0
 12 11  2  0
 13 14  2  0
 14 15  1  0
 15 21  1  0
 16 21  1  0
 17 18  1  0
 17 16  1  0
 19 18  1  0
 19 26  1  0
 19 20  1  0
 21 20  1  0
 22 15  2  0
 23 24  2  0
 24 43  1  0
 25 24  1  0
 25 28  1  0
 26 27  1  0
 26 23  1  0
 27 25  2  0
 28 29  1  0
 29 30  2  0
 31 34  1  0
 31 30  1  0
 32 31  2  0
 33 32  1  0
 33 28  2  0
 34 35  1  0
 35 40  2  0
 35 36  1  0
 36 37  2  0
 37 38  1  0
 38 42  1  0
 39 38  2  0
 40 39  1  0
 41 40  1  0
 43 44  1  0
 44 47  1  0
 44 46  1  0
 45 43  2  0
 48 23  1  0
 48 49  1  0
 50 48  1  0
 51 52  1  0
 51  5  1  0
 52 53  1  0
 54 53  1  0
 55 66  2  0
 56 62  1  0
 56 54  1  0
 56 61  1  0
 57 64  1  0
 57 65  1  0
 57 67  1  0
 58 63  1  0
 58 64  1  0
 58 60  1  0
 59 65  1  0
 60 59  1  0
 61 60  2  0
 62 63  2  0
 65 55  1  0
 67 68  1  0
 67 69  2  0
 68 72  1  0
 70 68  1  0
 71 80  2  0
 71 76  1  0
 72 73  1  0
 74 73  1  0
 75  6  1  0
 75 71  1  0
 76 72  1  0
 76 77  2  0
 77 78  1  0
 79 78  2  0
 80 79  1  0
 81 55  1  0
 81 86  1  0
 81 82  1  0
 82 85  1  1
 82 83  1  0
 84 82  1  0
 86 89  1  0
 87 86  1  0
 87 91  1  0
 88 87  2  0
 91 90  1  0
 93 91  1  0
 93 94  1  0
 93 92  1  0
M  ISO  4  14 100  15 100  53 101  54 101
M  END
>  <TORSDO>  (46) 
F 25

>  <SCORE>  (46) 
3.294

>  <name>  (46) 
45

>  <ligand_id>  (46) 
45

>  <original_smiles>  (46) 
[H]c1c([H])c([H])c2c(c1[H])C([H])([H])C([H])([H])C([H])([H])C2([H])N([H])C(=O)C1([H])N(C(=O)C([H])(N([H])C(=O)C([H])(N([H])C([H])([H])[H])C([H])([H])[H])C(C([H])([H])[H])(C([H])([H])[H])C([H])([H])[H])C([H])([H])c2c([H])c(OC([H])([H])C([H])([H])C([H])([H])c3c([H])c([H])c(C(=O)C([H])([H])C([H])([H])C([H])([H])C([H])([H])C([H])([H])C(=O)N4C([H])([H])C([H])([H])C([H])([H])C([H])(n5nc(-c6c([H])c([H])c(Oc7c([H])c([H])c(F)c([H])c7F)c([H])c6[H])c(C(=O)N([H])[H])c5N([H])[H])C4([H])[H])c([H])c3C([H])([H])[H])c([H])c([H])c2C1([H])[H]

>  <smiles>  (46) 
[H]c1c([H])c([H])c2c(c1[H])C([H])([H])C([H])([H])C([H])([H])C2([H])N([H])C(=O)C1([H])N(C(=O)C([H])(N([H])C(=O)C([H])(N([H])C([H])([H])[H])C([H])([H])[H])C(C([H])([H])[H])(C([H])([H])[H])C([H])([H])[H])C([H])([H])c2c([H])c(OC([H])([H])C([H])([H])C([H])([H])c3c([H])c([H])c(C(=O)C([H])([H])C([H])([H])C([H])([H])C([H])([H])C([H])([H])C(=O)N4C([H])([H])C([H])([H])C([H])([H])C([H])(n5nc(-c6c([H])c([H])c(Oc7c([H])c([H])c(F)c([H])c7F)c([H])c6[H])c(C(=O)N([H])[H])c5N([H])[H])C4([H])[H])c([H])c3C([H])([H])[H])c([H])c([H])c2C1([H])[H]

$$$$
46:0:0
     RDKit          3D

 96104  0  0  1  0  0  0  0  0999 V2000
  -26.0330  -20.6420   18.9490 C   0  0  0  0  0  2  0  0  0  0  0  0
  -27.2370  -20.0710   18.1890 C   0  0  0  0  0  2  0  0  0  0  0  0
  -27.8640  -18.8260   18.8680 C   0  0  0  0  0  2  0  0  0  0  0  0
  -31.2870  -19.1660   17.1590 C   0  0  0  0  0  3  0  0  0  0  0  0
  -32.1280  -18.4930   18.0600 C   0  0  0  0  0  3  0  0  0  0  0  0
  -29.9060  -19.2200   17.4120 C   0  0  0  0  0  3  0  0  0  0  0  0
  -31.5750  -17.8110   19.1590 C   0  0  0  0  0  3  0  0  0  0  0  0
  -29.3460  -18.5900   18.5520 C   0  0  0  0  0  0  0  0  0  0  0  0
  -30.1800  -17.7920   19.3950 C   0  0  0  0  0  0  0  0  0  0  0  0
  -29.5840  -16.9660   20.5610 C   0  0  0  0  0  2  0  0  0  0  0  0
  -31.0020  -14.8890   20.6600 C   0  0  0  0  0  0  0  0  0  0  0  0
  -30.7240  -12.6660   19.6430 C   0  0  0  0  0  2  0  0  0  0  0  0
  -29.8710  -12.7730   18.3670 C   0  0  0  0  0  2  0  0  0  0  0  0
  -28.3770  -12.6300   18.7150 C   0  0  0  0  0  2  0  0  0  0  0  0
  -27.9440  -13.5620   19.8770 C   0  0  0  0  0  3  0  0  0  0  0  0
  -28.9300  -13.4870   21.0660 C   0  0  0  0  0  2  0  0  0  0  0  0
  -30.2830  -13.7370   20.5520 N   0  0  0  0  0  0  0  0  0  0  0  0
  -32.1660  -14.9740   20.2790 O   0  0  0  0  0  0  0  0  0  0  0  0
  -30.4350  -15.9600   21.2350 N   0  0  0  0  0  0  0  0  0  0  0  0
  -31.1270  -16.4510   21.7800 H   0  0  0  0  0  0  0  0  0  0  0  0
  -25.5170  -14.1790   20.4640 C   0  0  0  0  0  0  0  0  0  0  0  0
  -24.4280  -13.4140   20.7780 C   0  0  0  0  0  0  0  0  0  0  0  0
  -24.8850  -12.0580   20.7770 C   0  0  0  0  0  0  0  0  0  0  0  0
  -26.5690  -13.2930   20.2910 N   0  0  0  0  0  0  0  0  0  0  0  0
  -26.1900  -12.0130   20.5400 N   0  0  0  0  0  0  0  0  0  0  0  0
  -24.1450  -10.7990   20.9250 C   0  0  0  0  0  0  0  0  0  0  0  0
  -24.4820   -9.8590   21.9240 C   0  0  0  0  0  3  0  0  0  0  0  0
  -23.7420   -8.6660   22.0610 C   0  0  0  0  0  3  0  0  0  0  0  0
  -22.6510   -8.4030   21.1980 C   0  0  0  0  0  0  0  0  0  0  0  0
  -22.3340   -9.3310   20.1920 C   0  0  0  0  0  3  0  0  0  0  0  0
  -23.0740  -10.5170   20.0530 C   0  0  0  0  0  3  0  0  0  0  0  0
  -21.8930   -7.2580   21.2410 O   0  0  0  0  0  0  0  0  0  0  0  0
  -21.6820   -6.5750   22.4120 C   0  0  0  0  0  0  0  0  0  0  0  0
  -21.0390   -7.1740   23.5190 C   0  0  0  0  0  3  0  0  0  0  0  0
  -20.7850   -6.4150   24.6790 C   0  0  0  0  0  3  0  0  0  0  0  0
  -21.1630   -5.0600   24.7310 C   0  0  0  0  0  0  0  0  0  0  0  0
  -21.7950   -4.4620   23.6280 C   0  0  0  0  0  3  0  0  0  0  0  0
  -22.0540   -5.2170   22.4710 C   0  0  0  0  0  0  0  0  0  0  0  0
  -22.6470   -4.6300   21.4040 F   0  0  0  0  0  0  0  0  0  0  0  0
  -20.9090   -4.3300   25.8420 F   0  0  0  0  0  0  0  0  0  0  0  0
  -23.0210  -13.8960   20.9720 C   0  0  0  0  0  0  0  0  0  0  0  0
  -22.2490  -13.2070   21.8070 N   0  0  0  0  0  0  0  0  0  0  0  0
  -22.6100  -14.9150   20.4200 O   0  0  0  0  0  0  0  0  0  0  0  0
  -22.5910  -12.3800   22.2700 H   0  0  0  0  0  0  0  0  0  0  0  0
  -21.3040  -13.5130   21.9890 H   0  0  0  0  0  0  0  0  0  0  0  0
  -25.6970  -15.5490   20.2950 N   0  0  0  0  0  0  0  0  0  0  0  0
  -24.9300  -16.2070   20.3600 H   0  0  0  0  0  0  0  0  0  0  0  0
  -26.5640  -15.9770   19.9970 H   0  0  0  0  0  0  0  0  0  0  0  0
  -26.4590  -21.5300   20.1370 C   0  0  0  0  0  2  0  0  0  0  0  0
  -26.0150  -22.9960   20.0070 C   0  0  0  0  0  2  0  0  0  0  0  0
  -26.9510  -23.9220   19.1800 C   0  0  0  0  0  2  0  0  0  0  0  0
  -29.1860  -23.9090   20.3600 C   0  0  0  0  0  1  0  0  0  0  0  0
  -27.3810  -25.3500   21.2600 C   0  0  0  0  0  1  0  0  0  0  0  0
  -27.9950  -24.7950   19.9490 C   0  0  2  0  0  0  0  0  0  0  0  0
  -28.5280  -25.9320   18.9860 C   0  0  0  0  0  2  0  0  0  0  0  0
  -28.5580  -27.2920   19.4740 O   0  0  0  0  0  0  0  0  0  0  0  0
  -24.5850  -31.8470   23.2230 C   0  0  0  0  0  0  0  0  0  0  0  0
  -27.3750  -27.9980   19.5210 C   0  0  0  0  0  0  0  0  0  0  0  0
  -23.4240  -30.6060   21.4330 C   0  0  0  0  0  3  0  0  0  0  0  0
  -24.9170  -29.3710   19.7880 C   0  0  0  0  0  0  0  0  0  0  0  0
  -25.9290  -31.1220   21.2530 C   0  0  0  0  0  2  0  0  0  0  0  0
  -26.0660  -29.8590   20.4280 C   0  0  0  0  0  0  0  0  0  0  0  0
  -27.2960  -29.1730   20.3040 C   0  0  0  0  0  3  0  0  0  0  0  0
  -26.2160  -27.5640   18.8410 C   0  0  0  0  0  3  0  0  0  0  0  0
  -24.9870  -28.2160   19.0000 C   0  0  0  0  0  3  0  0  0  0  0  0
  -23.6360  -30.1460   19.9720 C   0  0  0  0  0  2  0  0  0  0  0  0
  -24.6640  -31.1980   22.0270 N   0  0  0  0  0  0  0  0  0  0  0  0
  -23.5020  -31.9800   23.8080 O   0  0  0  0  0  0  0  0  0  0  0  0
  -22.8540  -29.4250   22.2500 C   0  0  0  0  0  0  0  0  0  0  0  0
  -21.5360  -29.1950   22.1320 N   0  0  0  0  0  0  0  0  0  0  0  0
  -23.5930  -28.7260   22.9490 O   0  0  0  0  0  0  0  0  0  0  0  0
  -21.0010  -29.8220   21.5450 H   0  0  0  0  0  0  0  0  0  0  0  0
  -18.2370  -27.7750   22.5360 C   0  0  0  0  0  0  0  0  0  0  0  0
  -20.7870  -28.1210   22.7800 C   0  0  0  0  0  3  0  0  0  0  0  0
  -20.9390  -26.7870   22.0120 C   0  0  0  0  0  2  0  0  0  0  0  0
  -19.8250  -26.5480   20.9900 C   0  0  0  0  0  2  0  0  0  0  0  0
  -18.4580  -26.5360   21.6800 C   0  0  0  0  0  2  0  0  0  0  0  0
  -19.3330  -28.5260   23.0390 C   0  0  0  0  0  0  0  0  0  0  0  0
  -19.0730  -29.6840   23.8000 C   0  0  0  0  0  3  0  0  0  0  0  0
  -17.7520  -30.0950   24.0620 C   0  0  0  0  0  3  0  0  0  0  0  0
  -16.6720  -29.3390   23.5760 C   0  0  0  0  0  3  0  0  0  0  0  0
  -16.9160  -28.1810   22.8180 C   0  0  0  0  0  3  0  0  0  0  0  0
  -25.8500  -32.4610   23.9000 C   0  0  0  0  0  3  0  0  0  0  0  0
  -26.3060  -31.6780   25.1900 C   0  0  1  0  0  0  0  0  0  0  0  0
  -25.1720  -31.4520   26.2170 C   0  0  0  0  0  1  0  0  0  0  0  0
  -26.8840  -30.2930   24.8150 C   0  0  0  0  0  1  0  0  0  0  0  0
  -27.4420  -32.4540   25.8960 C   0  0  0  0  0  1  0  0  0  0  0  0
  -25.5360  -33.8590   24.2220 N   0  0  0  0  0  0  0  0  0  0  0  0
  -25.8980  -34.9090   23.4770 C   0  0  0  0  0  0  0  0  0  0  0  0
  -26.6050  -34.8070   22.4700 O   0  0  0  0  0  0  0  0  0  0  0  0
  -24.9100  -34.0150   24.9980 H   0  0  0  0  0  0  0  0  0  0  0  0
  -24.1870  -36.7070   23.0660 C   0  0  0  0  0  1  0  0  0  0  0  0
  -25.3990  -36.2980   23.9180 C   0  0  0  0  0  3  0  0  0  0  0  0
  -27.4980  -37.1850   24.8300 C   0  0  0  0  0  1  0  0  0  0  0  0
  -26.4370  -37.3490   23.8400 N   0  0  0  0  0  0  0  0  0  0  0  0
  -26.0270  -38.2690   23.9650 H   0  0  0  0  0  0  0  0  0  0  0  0
  1 49  1  0
  2  3  1  0
  2  1  1  0
  4  6  2  0
  4  5  1  0
  5  7  2  0
  6  8  1  0
  7  9  1  0
  8  3  1  0
  8  9  2  0
  9 10  1  0
 10 19  1  0
 11 19  1  0
 12 17  1  0
 13 14  1  0
 13 12  1  0
 15 14  1  0
 15 24  1  0
 15 16  1  0
 17 11  1  0
 17 16  1  0
 18 11  2  0
 19 20  1  0
 21 22  2  0
 22 41  1  0
 23 22  1  0
 23 26  1  0
 24 21  1  0
 24 25  1  0
 25 23  2  0
 26 27  1  0
 27 28  2  0
 29 32  1  0
 29 28  1  0
 30 29  2  0
 31 30  1  0
 31 26  2  0
 32 33  1  0
 33 38  2  0
 33 34  1  0
 34 35  2  0
 35 36  1  0
 36 40  1  0
 37 36  2  0
 38 37  1  0
 39 38  1  0
 41 42  1  0
 42 45  1  0
 42 44  1  0
 43 41  2  0
 46 47  1  0
 46 21  1  0
 48 46  1  0
 50 49  1  0
 51 54  1  0
 51 50  1  0
 54 52  1  1
 54 53  1  0
 55 56  1  0
 55 54  1  0
 56 58  1  0
 57 68  2  0
 58 63  1  0
 59 67  1  0
 59 69  1  0
 60 66  1  0
 60 62  1  0
 61 67  1  0
 62 61  1  0
 63 62  2  0
 64 65  1  0
 64 58  2  0
 65 60  2  0
 66 59  1  0
 67 57  1  0
 69 71  2  0
 70 69  1  0
 72 70  1  0
 73 82  2  0
 73 78  1  0
 74 70  1  0
 74 78  1  0
 75 74  1  0
 76 77  1  0
 76 75  1  0
 77 73  1  0
 78 79  2  0
 79 80  1  0
 81 80  2  0
 82 81  1  0
 83 57  1  0
 83 88  1  0
 83 84  1  0
 84 87  1  1
 84 85  1  0
 86 84  1  0
 88 91  1  0
 89 93  1  0
 89 88  1  0
 90 89  2  0
 93 92  1  0
 95 93  1  0
 95 96  1  0
 95 94  1  0
M  ISO  4  11 100  19 100  55 101  56 101
M  END
>  <TORSDO>  (47) 
F 25

>  <SCORE>  (47) 
-10.564

>  <name>  (47) 
46

>  <ligand_id>  (47) 
46

>  <original_smiles>  (47) 
[H]c1c([H])c([H])c(C([H])([H])C([H])([H])C([H])([H])C([H])([H])C([H])([H])C([H])([H])C(C([H])([H])[H])(C([H])([H])[H])C([H])([H])Oc2c([H])c([H])c3c(c2[H])C([H])([H])N(C(=O)C([H])(N([H])C(=O)C([H])(N([H])C([H])([H])[H])C([H])([H])[H])C(C([H])([H])[H])(C([H])([H])[H])C([H])([H])[H])C([H])(C(=O)N([H])C2([H])c4c([H])c([H])c([H])c([H])c4C([H])([H])C([H])([H])C2([H])[H])C3([H])[H])c(C([H])([H])N([H])C(=O)N2C([H])([H])C([H])([H])C([H])([H])C([H])(n3nc(-c4c([H])c([H])c(Oc5c([H])c([H])c(F)c([H])c5F)c([H])c4[H])c(C(=O)N([H])[H])c3N([H])[H])C2([H])[H])c1[H]

>  <smiles>  (47) 
[H]c1c([H])c([H])c(C([H])([H])C([H])([H])C([H])([H])C([H])([H])C([H])([H])C([H])([H])C(C([H])([H])[H])(C([H])([H])[H])C([H])([H])Oc2c([H])c([H])c3c(c2[H])C([H])([H])N(C(=O)C([H])(N([H])C(=O)C([H])(N([H])C([H])([H])[H])C([H])([H])[H])C(C([H])([H])[H])(C([H])([H])[H])C([H])([H])[H])C([H])(C(=O)N([H])C2([H])c4c([H])c([H])c([H])c([H])c4C([H])([H])C([H])([H])C2([H])[H])C3([H])[H])c(C([H])([H])N([H])C(=O)N2C([H])([H])C([H])([H])C([H])([H])C([H])(n3nc(-c4c([H])c([H])c(Oc5c([H])c([H])c(F)c([H])c5F)c([H])c4[H])c(C(=O)N([H])[H])c3N([H])[H])C2([H])[H])c1[H]

$$$$
47:0:0
     RDKit          3D

 95103  0  0  1  0  0  0  0  0999 V2000
  -30.7190  -22.8000   19.2500 C   0  0  0  0  0  3  0  0  0  0  0  0
  -32.3670  -23.7740   20.7460 C   0  0  0  0  0  3  0  0  0  0  0  0
  -30.3450  -24.0890   18.8220 C   0  0  0  0  0  3  0  0  0  0  0  0
  -31.9850  -25.0660   20.3270 C   0  0  0  0  0  3  0  0  0  0  0  0
  -31.7380  -22.6200   20.2200 C   0  0  0  0  0  0  0  0  0  0  0  0
  -30.9660  -25.2330   19.3660 C   0  0  0  0  0  0  0  0  0  0  0  0
  -32.1550  -21.2620   20.7070 C   0  0  0  0  0  0  0  0  0  0  0  0
  -33.0020  -21.1390   21.6020 O   0  0  0  0  0  0  0  0  0  0  0  0
  -32.1280  -19.7360   18.6660 C   0  0  0  0  0  1  0  0  0  0  0  0
  -31.5150  -20.0100   20.0590 C   0  0  0  0  0  3  0  0  0  0  0  0
  -31.7100  -18.8700   20.9910 N   0  0  0  0  0  4  0  0  0  0  0  0
  -32.6920  -18.6440   21.0200 H   0  0  0  0  0  0  0  0  0  0  0  0
  -31.4730  -19.2200   21.9070 H   0  0  0  0  0  0  0  0  0  0  0  0
  -30.8970  -17.6630   20.7020 C   0  0  0  0  0  2  0  0  0  0  0  0
  -31.1160  -16.5400   21.7380 C   0  0  0  0  0  2  0  0  0  0  0  0
  -30.2290  -15.2920   21.5100 C   0  0  0  0  0  2  0  0  0  0  0  0
  -30.6750  -14.3560   20.3700 C   0  0  0  0  0  0  0  0  0  0  0  0
  -30.2840  -12.3170   19.0200 C   0  0  0  0  0  2  0  0  0  0  0  0
  -29.2880  -12.5700   17.8710 C   0  0  0  0  0  2  0  0  0  0  0  0
  -27.8300  -12.4360   18.3540 C   0  0  0  0  0  2  0  0  0  0  0  0
  -27.5560  -13.2270   19.6610 C   0  0  0  0  0  3  0  0  0  0  0  0
  -28.6440  -12.9170   20.7140 C   0  0  0  0  0  2  0  0  0  0  0  0
  -29.9550  -13.2320   20.1220 N   0  0  0  0  0  0  0  0  0  0  0  0
  -31.6840  -14.6510   19.7180 O   0  0  0  0  0  0  0  0  0  0  0  0
  -25.1700  -13.8410   20.4210 C   0  0  0  0  0  0  0  0  0  0  0  0
  -24.1100  -13.0690   20.8160 C   0  0  0  0  0  0  0  0  0  0  0  0
  -24.5700  -11.7180   20.7760 C   0  0  0  0  0  0  0  0  0  0  0  0
  -26.2110  -12.9590   20.1700 N   0  0  0  0  0  0  0  0  0  0  0  0
  -25.8530  -11.6770   20.4360 N   0  0  0  0  0  0  0  0  0  0  0  0
  -23.8480  -10.4570   20.9850 C   0  0  0  0  0  0  0  0  0  0  0  0
  -24.3090   -9.4890   21.9050 C   0  0  0  0  0  3  0  0  0  0  0  0
  -23.5900   -8.2900   22.1030 C   0  0  0  0  0  3  0  0  0  0  0  0
  -22.3980   -8.0510   21.3790 C   0  0  0  0  0  0  0  0  0  0  0  0
  -21.9590   -9.0060   20.4450 C   0  0  0  0  0  3  0  0  0  0  0  0
  -22.6760  -10.1970   20.2480 C   0  0  0  0  0  3  0  0  0  0  0  0
  -21.6460   -6.9070   21.4870 O   0  0  0  0  0  0  0  0  0  0  0  0
  -21.6360   -6.1580   22.6370 C   0  0  0  0  0  0  0  0  0  0  0  0
  -21.2590   -6.7080   23.8830 C   0  0  0  0  0  3  0  0  0  0  0  0
  -21.1980   -5.8860   25.0250 C   0  0  0  0  0  3  0  0  0  0  0  0
  -21.5000   -4.5150   24.9230 C   0  0  0  0  0  0  0  0  0  0  0  0
  -21.8700   -3.9650   23.6830 C   0  0  0  0  0  3  0  0  0  0  0  0
  -21.9340   -4.7850   22.5430 C   0  0  0  0  0  0  0  0  0  0  0  0
  -22.2690   -4.2450   21.3460 F   0  0  0  0  0  0  0  0  0  0  0  0
  -21.4330   -3.7230   26.0180 F   0  0  0  0  0  0  0  0  0  0  0  0
  -22.7200  -13.5460   21.1210 C   0  0  0  0  0  0  0  0  0  0  0  0
  -22.0140  -12.8510   22.0090 N   0  0  0  0  0  0  0  0  0  0  0  0
  -22.2650  -14.5680   20.6090 O   0  0  0  0  0  0  0  0  0  0  0  0
  -22.3970  -12.0270   22.4490 H   0  0  0  0  0  0  0  0  0  0  0  0
  -21.0790  -13.1460   22.2520 H   0  0  0  0  0  0  0  0  0  0  0  0
  -25.3290  -15.2100   20.2380 N   0  0  0  0  0  0  0  0  0  0  0  0
  -24.5600  -15.8630   20.3580 H   0  0  0  0  0  0  0  0  0  0  0  0
  -26.1730  -15.6530   19.8970 H   0  0  0  0  0  0  0  0  0  0  0  0
  -30.5870  -26.6320   18.8910 C   0  0  0  0  0  2  0  0  0  0  0  0
  -29.0750  -26.9140   18.7830 C   0  0  0  0  0  2  0  0  0  0  0  0
  -28.4350  -26.8190   20.0540 O   0  0  0  0  0  0  0  0  0  0  0  0
  -24.6060  -31.8960   23.2330 C   0  0  0  0  0  0  0  0  0  0  0  0
  -27.2490  -27.5040   20.1120 C   0  0  0  0  0  0  0  0  0  0  0  0
  -23.3850  -30.4910   21.6000 C   0  0  0  0  0  3  0  0  0  0  0  0
  -24.8330  -28.9580   20.1620 C   0  0  0  0  0  0  0  0  0  0  0  0
  -25.9020  -30.8640   21.3790 C   0  0  0  0  0  2  0  0  0  0  0  0
  -25.9880  -29.4920   20.7480 C   0  0  0  0  0  0  0  0  0  0  0  0
  -27.1950  -28.7650   20.7370 C   0  0  0  0  0  3  0  0  0  0  0  0
  -26.0840  -26.9660   19.5260 C   0  0  0  0  0  3  0  0  0  0  0  0
  -24.8740  -27.6890   19.5520 C   0  0  0  0  0  3  0  0  0  0  0  0
  -23.5810  -29.8050   20.2190 C   0  0  0  0  0  2  0  0  0  0  0  0
  -24.6500  -31.0990   22.1300 N   0  0  0  0  0  0  0  0  0  0  0  0
  -23.5300  -32.1670   23.7860 O   0  0  0  0  0  0  0  0  0  0  0  0
  -22.7460  -29.4710   22.5680 C   0  0  0  0  0  0  0  0  0  0  0  0
  -21.4210  -29.2830   22.4450 N   0  0  0  0  0  0  0  0  0  0  0  0
  -23.4370  -28.8490   23.3790 O   0  0  0  0  0  0  0  0  0  0  0  0
  -20.9280  -29.8310   21.7550 H   0  0  0  0  0  0  0  0  0  0  0  0
  -18.0550  -28.0830   22.9560 C   0  0  0  0  0  0  0  0  0  0  0  0
  -20.6110  -28.3450   23.2220 C   0  0  0  0  0  3  0  0  0  0  0  0
  -20.7160  -26.9140   22.6460 C   0  0  0  0  0  2  0  0  0  0  0  0
  -19.6110  -26.5880   21.6360 C   0  0  0  0  0  2  0  0  0  0  0  0
  -18.2310  -26.7320   22.2830 C   0  0  0  0  0  2  0  0  0  0  0  0
  -19.1720  -28.8470   23.3820 C   0  0  0  0  0  0  0  0  0  0  0  0
  -18.9540  -30.1130   23.9690 C   0  0  0  0  0  3  0  0  0  0  0  0
  -17.6480  -30.6130   24.1360 C   0  0  0  0  0  3  0  0  0  0  0  0
  -16.5440  -29.8440   23.7290 C   0  0  0  0  0  3  0  0  0  0  0  0
  -16.7480  -28.5810   23.1450 C   0  0  0  0  0  3  0  0  0  0  0  0
  -25.8990  -32.5250   23.8420 C   0  0  0  0  0  3  0  0  0  0  0  0
  -25.5910  -33.9190   24.1870 N   0  0  0  0  0  0  0  0  0  0  0  0
  -25.9180  -34.9780   23.4350 C   0  0  0  0  0  0  0  0  0  0  0  0
  -26.5830  -34.8850   22.3990 O   0  0  0  0  0  0  0  0  0  0  0  0
  -24.9960  -34.0650   24.9880 H   0  0  0  0  0  0  0  0  0  0  0  0
  -24.1850  -36.7680   23.1060 C   0  0  0  0  0  1  0  0  0  0  0  0
  -25.4300  -36.3600   23.9070 C   0  0  0  0  0  3  0  0  0  0  0  0
  -27.5680  -37.2380   24.7350 C   0  0  0  0  0  1  0  0  0  0  0  0
  -26.4610  -37.4160   23.8010 N   0  0  0  0  0  0  0  0  0  0  0  0
  -26.0540  -38.3330   23.9620 H   0  0  0  0  0  0  0  0  0  0  0  0
  -26.4380  -31.7410   25.1010 C   0  0  1  0  0  0  0  0  0  0  0  0
  -25.3600  -31.4870   26.1810 C   0  0  0  0  0  1  0  0  0  0  0  0
  -27.0180  -30.3690   24.6830 C   0  0  0  0  0  1  0  0  0  0  0  0
  -27.5940  -32.5320   25.7560 C   0  0  0  0  0  1  0  0  0  0  0  0
  1  5  1  0
  3  1  2  0
  3  6  1  0
  4  2  1  0
  5  7  1  0
  5  2  2  0
  6  4  2  0
  7  8  2  0
 10  9  1  0
 10  7  1  0
 10 11  1  0
 11 12  1  0
 11 13  1  0
 14 11  1  0
 14 15  1  0
 16 15  1  0
 17 16  1  0
 18 23  1  0
 19 20  1  0
 19 18  1  0
 21 20  1  0
 21 28  1  0
 21 22  1  0
 23 17  1  0
 23 22  1  0
 24 17  2  0
 25 26  2  0
 26 45  1  0
 27 26  1  0
 27 30  1  0
 28 25  1  0
 28 29  1  0
 29 27  2  0
 30 31  1  0
 31 32  2  0
 33 36  1  0
 33 32  1  0
 34 33  2  0
 35 34  1  0
 35 30  2  0
 36 37  1  0
 37 38  1  0
 38 39  2  0
 40 39  1  0
 40 44  1  0
 41 40  2  0
 42 37  2  0
 42 41  1  0
 43 42  1  0
 45 46  1  0
 46 49  1  0
 46 48  1  0
 47 45  2  0
 50 51  1  0
 50 25  1  0
 52 50  1  0
 53  6  1  0
 54 53  1  0
 54 55  1  0
 55 57  1  0
 56 67  2  0
 57 62  1  0
 58 66  1  0
 58 68  1  0
 59 65  1  0
 59 61  1  0
 60 66  1  0
 61 60  1  0
 62 61  2  0
 63 64  1  0
 63 57  2  0
 64 59  2  0
 65 58  1  0
 66 56  1  0
 68 70  2  0
 69 68  1  0
 71 69  1  0
 72 81  2  0
 72 77  1  0
 73 69  1  0
 73 77  1  0
 74 73  1  0
 75 76  1  0
 75 74  1  0
 76 72  1  0
 77 78  2  0
 78 79  1  0
 80 79  2  0
 81 80  1  0
 82 56  1  0
 82 83  1  0
 82 92  1  0
 83 86  1  0
 84 88  1  0
 84 83  1  0
 85 84  2  0
 88 87  1  0
 90 88  1  0
 90 91  1  0
 90 89  1  0
 92 95  1  1
 92 93  1  0
 94 92  1  0
M  ISO  4  16 100  17 100  54 101  55 101
M  END
>  <TORSDO>  (48) 
F 24

>  <SCORE>  (48) 
-12.023

>  <name>  (48) 
47

>  <ligand_id>  (48) 
47

>  <original_smiles>  (48) 
[H]c1c([H])c([H])c2c(c1[H])C([H])([H])C([H])([H])C([H])([H])C2([H])N([H])C(=O)C1([H])N(C(=O)C([H])(N([H])C(=O)C([H])(N([H])C([H])([H])[H])C([H])([H])[H])C(C([H])([H])[H])(C([H])([H])[H])C([H])([H])[H])C([H])([H])c2c([H])c(OC([H])([H])C([H])([H])c3c([H])c([H])c(C(=O)C([H])(C([H])([H])[H])[N+]([H])([H])C([H])([H])C([H])([H])C([H])([H])C(=O)N4C([H])([H])C([H])([H])C([H])([H])C([H])(n5nc(-c6c([H])c([H])c(Oc7c([H])c([H])c(F)c([H])c7F)c([H])c6[H])c(C(=O)N([H])[H])c5N([H])[H])C4([H])[H])c([H])c3[H])c([H])c([H])c2C1([H])[H]

>  <smiles>  (48) 
[H]c1c([H])c([H])c2c(c1[H])C([H])([H])C([H])([H])C([H])([H])C2([H])N([H])C(=O)C1([H])N(C(=O)C([H])(N([H])C(=O)C([H])(N([H])C([H])([H])[H])C([H])([H])[H])C(C([H])([H])[H])(C([H])([H])[H])C([H])([H])[H])C([H])([H])c2c([H])c(OC([H])([H])C([H])([H])c3c([H])c([H])c(C(=O)C([H])(C([H])([H])[H])[N+]([H])([H])C([H])([H])C([H])([H])C([H])([H])C(=O)N4C([H])([H])C([H])([H])C([H])([H])C([H])(n5nc(-c6c([H])c([H])c(Oc7c([H])c([H])c(F)c([H])c7F)c([H])c6[H])c(C(=O)N([H])[H])c5N([H])[H])C4([H])[H])c([H])c3[H])c([H])c([H])c2C1([H])[H]

$$$$
48:0:0
     RDKit          3D

 91 98  0  0  1  0  0  0  0  0999 V2000
  -29.6470  -19.1910   19.8820 C   0  0  0  0  0  3  0  0  0  0  0  0
  -30.0990  -17.7760   20.6640 C   0  0  0  0  0  2  0  0  0  0  0  0
  -29.6940  -16.1680   20.8770 C   0  0  0  0  0  2  0  0  0  0  0  0
  -30.5340  -14.8470   20.4110 C   0  0  0  0  0  0  0  0  0  0  0  0
  -30.4060  -12.5480   19.3720 C   0  0  0  0  0  2  0  0  0  0  0  0
  -29.4610  -12.5980   18.1480 C   0  0  0  0  0  2  0  0  0  0  0  0
  -27.9920  -12.4030   18.5730 C   0  0  0  0  0  2  0  0  0  0  0  0
  -27.6090  -13.2840   19.7900 C   0  0  0  0  0  3  0  0  0  0  0  0
  -28.6670  -13.2000   20.9120 C   0  0  0  0  0  2  0  0  0  0  0  0
  -29.9600  -13.5880   20.3350 N   0  0  0  0  0  0  0  0  0  0  0  0
  -31.7010  -14.9780   20.0250 O   0  0  0  0  0  0  0  0  0  0  0  0
  -25.2170  -13.8680   20.5070 C   0  0  0  0  0  0  0  0  0  0  0  0
  -24.1530  -13.0920   20.8770 C   0  0  0  0  0  0  0  0  0  0  0  0
  -24.6200  -11.7420   20.8550 C   0  0  0  0  0  0  0  0  0  0  0  0
  -26.2650  -12.9910   20.2790 N   0  0  0  0  0  0  0  0  0  0  0  0
  -25.9130  -11.7070   20.5510 N   0  0  0  0  0  0  0  0  0  0  0  0
  -23.8980  -10.4780   21.0500 C   0  0  0  0  0  0  0  0  0  0  0  0
  -24.3380   -9.5110   21.9790 C   0  0  0  0  0  3  0  0  0  0  0  0
  -23.6160   -8.3110   22.1600 C   0  0  0  0  0  3  0  0  0  0  0  0
  -22.4380   -8.0720   21.4130 C   0  0  0  0  0  0  0  0  0  0  0  0
  -22.0170   -9.0300   20.4730 C   0  0  0  0  0  3  0  0  0  0  0  0
  -22.7390  -10.2190   20.2890 C   0  0  0  0  0  3  0  0  0  0  0  0
  -21.6860   -6.9260   21.5040 O   0  0  0  0  0  0  0  0  0  0  0  0
  -21.6550   -6.1750   22.6510 C   0  0  0  0  0  0  0  0  0  0  0  0
  -21.2540   -6.7220   23.8900 C   0  0  0  0  0  3  0  0  0  0  0  0
  -21.1710   -5.8990   25.0300 C   0  0  0  0  0  3  0  0  0  0  0  0
  -21.4770   -4.5280   24.9330 C   0  0  0  0  0  0  0  0  0  0  0  0
  -21.8700   -3.9800   23.6990 C   0  0  0  0  0  3  0  0  0  0  0  0
  -21.9560   -4.8020   22.5620 C   0  0  0  0  0  0  0  0  0  0  0  0
  -22.3150   -4.2640   21.3700 F   0  0  0  0  0  0  0  0  0  0  0  0
  -21.3890   -3.7350   26.0250 F   0  0  0  0  0  0  0  0  0  0  0  0
  -22.7520  -13.5640   21.1410 C   0  0  0  0  0  0  0  0  0  0  0  0
  -22.0230  -12.8700   22.0060 N   0  0  0  0  0  0  0  0  0  0  0  0
  -22.3130  -14.5870   20.6150 O   0  0  0  0  0  0  0  0  0  0  0  0
  -22.3920  -12.0430   22.4540 H   0  0  0  0  0  0  0  0  0  0  0  0
  -21.0840  -13.1680   22.2260 H   0  0  0  0  0  0  0  0  0  0  0  0
  -25.3760  -15.2380   20.3240 N   0  0  0  0  0  0  0  0  0  0  0  0
  -24.6080  -15.8910   20.4340 H   0  0  0  0  0  0  0  0  0  0  0  0
  -26.2300  -15.6790   20.0050 H   0  0  0  0  0  0  0  0  0  0  0  0
  -30.6310  -19.3300   18.6720 C   0  0  0  0  0  2  0  0  0  0  0  0
  -30.4550  -20.5390   17.7310 C   0  0  0  0  0  2  0  0  0  0  0  0
  -31.3800  -20.4730   16.5140 C   0  0  0  0  0  0  0  0  0  0  0  0
  -32.1670  -21.5150   16.2770 N   0  0  0  0  0  0  0  0  0  0  0  0
  -31.3870  -19.4910   15.7760 O   0  0  0  0  0  0  0  0  0  0  0  0
  -32.1540  -22.3200   16.8890 H   0  0  0  0  0  0  0  0  0  0  0  0
  -32.7890  -21.5160   15.4790 H   0  0  0  0  0  0  0  0  0  0  0  0
  -29.5780  -20.6610   20.6600 C   0  0  0  0  0  2  0  0  0  0  0  0
  -28.6840  -21.9650   20.1500 C   0  0  0  0  0  2  0  0  0  0  0  0
  -28.9840  -23.5420   20.5560 C   0  0  0  0  0  3  0  0  0  0  0  0
  -28.0010  -24.7820   20.0860 C   0  0  0  0  0  3  0  0  0  0  0  0
  -28.2470  -26.2740   20.3170 O   0  0  0  0  0  0  0  0  0  0  0  0
  -24.6020  -31.8890   23.2450 C   0  0  0  0  0  0  0  0  0  0  0  0
  -27.1740  -27.2140   20.2300 C   0  0  0  0  0  0  0  0  0  0  0  0
  -23.3950  -30.4910   21.6120 C   0  0  0  0  0  3  0  0  0  0  0  0
  -24.8370  -28.9170   20.1920 C   0  0  0  0  0  0  0  0  0  0  0  0
  -25.9440  -30.7670   21.4370 C   0  0  0  0  0  2  0  0  0  0  0  0
  -26.0150  -29.3780   20.7940 C   0  0  0  0  0  0  0  0  0  0  0  0
  -27.1850  -28.5410   20.7980 C   0  0  0  0  0  3  0  0  0  0  0  0
  -25.9720  -26.8400   19.5850 C   0  0  0  0  0  3  0  0  0  0  0  0
  -24.8250  -27.6590   19.5730 C   0  0  0  0  0  3  0  0  0  0  0  0
  -23.6090  -29.8100   20.2350 C   0  0  0  0  0  2  0  0  0  0  0  0
  -24.6660  -31.0690   22.1530 N   0  0  0  0  0  0  0  0  0  0  0  0
  -23.5180  -32.1790   23.7740 O   0  0  0  0  0  0  0  0  0  0  0  0
  -22.7180  -29.4860   22.5770 C   0  0  0  0  0  0  0  0  0  0  0  0
  -21.3910  -29.3150   22.4490 N   0  0  0  0  0  0  0  0  0  0  0  0
  -23.3900  -28.8640   23.4040 O   0  0  0  0  0  0  0  0  0  0  0  0
  -20.9060  -29.8710   21.7580 H   0  0  0  0  0  0  0  0  0  0  0  0
  -18.0090  -28.1210   22.9410 C   0  0  0  0  0  0  0  0  0  0  0  0
  -20.5660  -28.3850   23.2240 C   0  0  0  0  0  3  0  0  0  0  0  0
  -20.6720  -26.9470   22.6660 C   0  0  0  0  0  2  0  0  0  0  0  0
  -19.5780  -26.6130   21.6470 C   0  0  0  0  0  2  0  0  0  0  0  0
  -18.1910  -26.7650   22.2800 C   0  0  0  0  0  2  0  0  0  0  0  0
  -19.1240  -28.8880   23.3700 C   0  0  0  0  0  0  0  0  0  0  0  0
  -18.8990  -30.1560   23.9490 C   0  0  0  0  0  3  0  0  0  0  0  0
  -17.5930  -30.6560   24.1010 C   0  0  0  0  0  3  0  0  0  0  0  0
  -16.4920  -29.8860   23.6880 C   0  0  0  0  0  3  0  0  0  0  0  0
  -16.7020  -28.6200   23.1140 C   0  0  0  0  0  3  0  0  0  0  0  0
  -25.8850  -32.5210   23.8670 C   0  0  0  0  0  3  0  0  0  0  0  0
  -26.3970  -31.7540   25.1470 C   0  0  1  0  0  0  0  0  0  0  0  0
  -25.3020  -31.5290   26.2170 C   0  0  0  0  0  1  0  0  0  0  0  0
  -26.9720  -30.3710   24.7650 C   0  0  0  0  0  1  0  0  0  0  0  0
  -27.5510  -32.5460   25.8060 C   0  0  0  0  0  1  0  0  0  0  0  0
  -25.5790  -33.9220   24.1940 N   0  0  0  0  0  0  0  0  0  0  0  0
  -25.9110  -34.9740   23.4340 C   0  0  0  0  0  0  0  0  0  0  0  0
  -26.5740  -34.8690   22.3990 O   0  0  0  0  0  0  0  0  0  0  0  0
  -24.9880  -34.0780   24.9980 H   0  0  0  0  0  0  0  0  0  0  0  0
  -24.1850  -36.7750   23.0940 C   0  0  0  0  0  1  0  0  0  0  0  0
  -25.4320  -36.3660   23.8950 C   0  0  0  0  0  3  0  0  0  0  0  0
  -27.5770  -37.2460   24.7060 C   0  0  0  0  0  1  0  0  0  0  0  0
  -26.4670  -37.4150   23.7720 N   0  0  0  0  0  0  0  0  0  0  0  0
  -26.0650  -38.3360   23.9220 H   0  0  0  0  0  0  0  0  0  0  0  0
  1 40  1  0
  1 47  1  0
  1  2  1  0
  2  3  1  0
  4  3  1  0
  5 10  1  0
  6  7  1  0
  6  5  1  0
  8  7  1  0
  8 15  1  0
  8  9  1  0
 10  4  1  0
 10  9  1  0
 11  4  2  0
 12 13  2  0
 13 32  1  0
 14 13  1  0
 14 17  1  0
 15 12  1  0
 15 16  1  0
 16 14  2  0
 17 18  1  0
 18 19  2  0
 20 23  1  0
 20 19  1  0
 21 20  2  0
 22 21  1  0
 22 17  2  0
 23 24  1  0
 24 25  1  0
 25 26  2  0
 27 26  1  0
 27 31  1  0
 28 27  2  0
 29 24  2  0
 29 28  1  0
 30 29  1  0
 32 33  1  0
 33 36  1  0
 33 35  1  0
 34 32  2  0
 37 38  1  0
 37 12  1  0
 39 37  1  0
 41 40  1  0
 42 41  1  0
 43 42  1  0
 43 45  1  0
 44 42  2  0
 46 43  1  0
 48 49  1  0
 48 47  1  0
 50 51  1  0
 50 49  2  0
 52 63  2  0
 53 51  1  0
 53 58  1  0
 54 62  1  0
 54 64  1  0
 55 61  1  0
 55 57  1  0
 56 62  1  0
 57 58  2  0
 57 56  1  0
 59 53  2  0
 60 59  1  0
 60 55  2  0
 61 54  1  0
 62 52  1  0
 64 66  2  0
 65 64  1  0
 67 65  1  0
 68 77  2  0
 68 73  1  0
 69 65  1  0
 69 73  1  0
 70 69  1  0
 71 72  1  0
 71 70  1  0
 72 68  1  0
 73 74  2  0
 74 75  1  0
 76 75  2  0
 77 76  1  0
 78 52  1  0
 78 83  1  0
 78 79  1  0
 79 82  1  1
 79 80  1  0
 81 79  1  0
 83 86  1  0
 84 88  1  0
 84 83  1  0
 85 84  2  0
 88 87  1  0
 90 88  1  0
 90 91  1  0
 90 89  1  0
M  ISO  4   3 100   4 100  50 101  51 101
M  END
>  <TORSDO>  (49) 
F 25

>  <SCORE>  (49) 
-12.118

>  <name>  (49) 
48

>  <ligand_id>  (49) 
48

>  <original_smiles>  (49) 
[H]c1c([H])c([H])c2c(c1[H])C([H])([H])C([H])([H])C([H])([H])C2([H])N([H])C(=O)C1([H])N(C(=O)C([H])(N([H])C(=O)C([H])(N([H])C([H])([H])[H])C([H])([H])[H])C(C([H])([H])[H])(C([H])([H])[H])C([H])([H])[H])C([H])([H])c2c([H])c(OC([H])([H])C([H])([H])C([H])([H])C([H])([H])C([H])(C([H])([H])C([H])([H])C(=O)N([H])[H])C([H])([H])C([H])([H])C(=O)N3C([H])([H])C([H])([H])C([H])([H])C([H])(n4nc(-c5c([H])c([H])c(Oc6c([H])c([H])c(F)c([H])c6F)c([H])c5[H])c(C(=O)N([H])[H])c4N([H])[H])C3([H])[H])c([H])c([H])c2C1([H])[H]

>  <smiles>  (49) 
[H]c1c([H])c([H])c2c(c1[H])C([H])([H])C([H])([H])C([H])([H])C2([H])N([H])C(=O)C1([H])N(C(=O)C([H])(N([H])C(=O)C([H])(N([H])C([H])([H])[H])C([H])([H])[H])C(C([H])([H])[H])(C([H])([H])[H])C([H])([H])[H])C([H])([H])c2c([H])c(OC([H])([H])C([H])([H])C([H])([H])C([H])([H])C([H])(C([H])([H])C([H])([H])C(=O)N([H])[H])C([H])([H])C([H])([H])C(=O)N3C([H])([H])C([H])([H])C([H])([H])C([H])(n4nc(-c5c([H])c([H])c(Oc6c([H])c([H])c(F)c([H])c6F)c([H])c5[H])c(C(=O)N([H])[H])c4N([H])[H])C3([H])[H])c([H])c([H])c2C1([H])[H]

$$$$
49:0:0
     RDKit          3D

 96104  0  0  1  0  0  0  0  0999 V2000
  -29.1720  -20.1770   23.8020 C   0  0  0  0  0  2  0  0  0  0  0  0
  -30.7080  -20.4060   23.8970 C   0  0  0  0  0  2  0  0  0  0  0  0
  -31.4700  -20.2370   22.5670 C   0  0  0  0  0  2  0  0  0  0  0  0
  -32.0530  -21.5760   22.0320 C   0  0  0  0  0  2  0  0  0  0  0  0
  -33.2220  -21.3930   21.0490 C   0  0  0  0  0  0  0  0  0  0  0  0
  -34.3660  -21.6090   21.4590 O   0  0  0  0  0  0  0  0  0  0  0  0
  -32.2490  -21.7530   17.3810 C   0  0  0  0  0  3  0  0  0  0  0  0
  -32.3170  -20.4440   16.8920 C   0  0  0  0  0  3  0  0  0  0  0  0
  -32.5220  -22.0200   18.7330 C   0  0  0  0  0  3  0  0  0  0  0  0
  -32.6830  -19.4100   17.7650 C   0  0  0  0  0  3  0  0  0  0  0  0
  -32.8750  -20.9930   19.6380 C   0  0  0  0  0  0  0  0  0  0  0  0
  -32.9700  -19.6700   19.1310 C   0  0  0  0  0  0  0  0  0  0  0  0
  -33.6820  -18.5990   19.8770 C   0  0  0  0  0  0  0  0  0  0  0  0
  -33.8030  -16.1750   19.8820 C   0  0  0  0  0  2  0  0  0  0  0  0
  -33.3120  -15.6700   18.5130 C   0  0  0  0  0  2  0  0  0  0  0  0
  -31.7950  -15.4200   18.5580 C   0  0  0  0  0  2  0  0  0  0  0  0
  -30.9860  -16.6030   19.1530 C   0  0  0  0  0  3  0  0  0  0  0  0
  -31.6490  -17.2080   20.4100 C   0  0  0  0  0  2  0  0  0  0  0  0
  -33.0800  -17.4200   20.1640 N   0  0  0  0  0  0  0  0  0  0  0  0
  -34.8970  -18.7670   19.8860 O   0  0  0  0  0  0  0  0  0  0  0  0
  -28.4490  -16.9980   19.2500 C   0  0  0  0  0  0  0  0  0  0  0  0
  -27.3960  -16.1530   19.5020 C   0  0  0  0  0  0  0  0  0  0  0  0
  -27.9730  -14.8820   19.7940 C   0  0  0  0  0  0  0  0  0  0  0  0
  -29.5930  -16.2280   19.3940 N   0  0  0  0  0  0  0  0  0  0  0  0
  -29.2980  -14.9610   19.7830 N   0  0  0  0  0  0  0  0  0  0  0  0
  -27.3340  -13.5770   20.0230 C   0  0  0  0  0  0  0  0  0  0  0  0
  -27.2720  -13.0020   21.3110 C   0  0  0  0  0  3  0  0  0  0  0  0
  -26.6360  -11.7580   21.5110 C   0  0  0  0  0  3  0  0  0  0  0  0
  -26.0450  -11.0790   20.4200 C   0  0  0  0  0  0  0  0  0  0  0  0
  -26.1280  -11.6430   19.1340 C   0  0  0  0  0  3  0  0  0  0  0  0
  -26.7680  -12.8800   18.9370 C   0  0  0  0  0  3  0  0  0  0  0  0
  -25.4300   -9.8530   20.5150 O   0  0  0  0  0  0  0  0  0  0  0  0
  -24.4650   -9.6020   21.4580 C   0  0  0  0  0  0  0  0  0  0  0  0
  -23.2870  -10.3730   21.5460 C   0  0  0  0  0  3  0  0  0  0  0  0
  -22.2930  -10.0330   22.4870 C   0  0  0  0  0  3  0  0  0  0  0  0
  -22.4730   -8.9250   23.3340 C   0  0  0  0  0  0  0  0  0  0  0  0
  -23.6460   -8.1560   23.2470 C   0  0  0  0  0  3  0  0  0  0  0  0
  -24.6390   -8.4910   22.3090 C   0  0  0  0  0  0  0  0  0  0  0  0
  -25.7570   -7.7310   22.2130 F   0  0  0  0  0  0  0  0  0  0  0  0
  -21.5150   -8.5950   24.2330 F   0  0  0  0  0  0  0  0  0  0  0  0
  -25.9420  -16.4940   19.3790 C   0  0  0  0  0  0  0  0  0  0  0  0
  -25.0970  -15.8730   20.1970 N   0  0  0  0  0  0  0  0  0  0  0  0
  -25.5460  -17.3440   18.5870 O   0  0  0  0  0  0  0  0  0  0  0  0
  -25.4180  -15.1980   20.8740 H   0  0  0  0  0  0  0  0  0  0  0  0
  -24.1150  -16.0970   20.1480 H   0  0  0  0  0  0  0  0  0  0  0  0
  -28.5200  -18.3380   18.8950 N   0  0  0  0  0  0  0  0  0  0  0  0
  -27.6950  -18.9090   18.7450 H   0  0  0  0  0  0  0  0  0  0  0  0
  -29.3860  -18.8490   18.7650 H   0  0  0  0  0  0  0  0  0  0  0  0
  -28.4730  -20.6220   22.4960 C   0  0  0  0  0  2  0  0  0  0  0  0
  -29.3830  -21.3390   21.4880 C   0  0  0  0  0  2  0  0  0  0  0  0
  -29.0940  -22.8130   21.2440 C   0  0  0  0  0  2  0  0  0  0  0  0
  -30.1850  -23.4380   20.3500 C   0  0  0  0  0  2  0  0  0  0  0  0
  -29.6160  -24.2700   19.1780 C   0  0  0  0  0  2  0  0  0  0  0  0
  -29.2640  -25.6990   19.6190 C   0  0  0  0  0  2  0  0  0  0  0  0
  -29.4940  -26.7220   18.5040 C   0  0  0  0  0  2  0  0  0  0  0  0
  -29.0950  -28.0120   18.9460 O   0  0  0  0  0  0  0  0  0  0  0  0
  -24.4060  -31.2860   23.1300 C   0  0  0  0  0  0  0  0  0  0  0  0
  -27.7640  -28.2820   19.1590 C   0  0  0  0  0  0  0  0  0  0  0  0
  -23.4390  -29.8750   21.3400 C   0  0  0  0  0  3  0  0  0  0  0  0
  -25.0820  -29.0160   19.5990 C   0  0  0  0  0  0  0  0  0  0  0  0
  -25.7400  -30.9450   21.0570 C   0  0  0  0  0  2  0  0  0  0  0  0
  -26.1110  -29.7570   20.1910 C   0  0  0  0  0  0  0  0  0  0  0  0
  -27.4520  -29.3880   19.9780 C   0  0  0  0  0  3  0  0  0  0  0  0
  -26.7120  -27.5390   18.5740 C   0  0  0  0  0  3  0  0  0  0  0  0
  -25.3770  -27.8940   18.8040 C   0  0  0  0  0  3  0  0  0  0  0  0
  -23.6770  -29.4940   19.8550 C   0  0  0  0  0  2  0  0  0  0  0  0
  -24.5510  -30.7070   21.9040 N   0  0  0  0  0  0  0  0  0  0  0  0
  -23.3580  -31.1620   23.7790 O   0  0  0  0  0  0  0  0  0  0  0  0
  -23.1660  -28.5840   22.1470 C   0  0  0  0  0  0  0  0  0  0  0  0
  -22.0240  -27.9300   21.8800 N   0  0  0  0  0  0  0  0  0  0  0  0
  -23.9830  -28.1830   22.9790 O   0  0  0  0  0  0  0  0  0  0  0  0
  -21.3940  -28.3220   21.1900 H   0  0  0  0  0  0  0  0  0  0  0  0
  -19.4770  -25.3680   21.7940 C   0  0  0  0  0  0  0  0  0  0  0  0
  -21.5950  -26.6740   22.5010 C   0  0  0  0  0  3  0  0  0  0  0  0
  -22.3950  -25.4700   21.9450 C   0  0  0  0  0  2  0  0  0  0  0  0
  -21.7070  -24.7940   20.7520 C   0  0  0  0  0  2  0  0  0  0  0  0
  -20.3230  -24.2820   21.1560 C   0  0  0  0  0  2  0  0  0  0  0  0
  -20.0740  -26.4950   22.4190 C   0  0  0  0  0  0  0  0  0  0  0  0
  -19.2430  -27.4890   22.9780 C   0  0  0  0  0  3  0  0  0  0  0  0
  -17.8390  -27.3680   22.9240 C   0  0  0  0  0  3  0  0  0  0  0  0
  -17.2570  -26.2460   22.3130 C   0  0  0  0  0  3  0  0  0  0  0  0
  -18.0740  -25.2450   21.7570 C   0  0  0  0  0  3  0  0  0  0  0  0
  -25.5460  -32.1440   23.7610 C   0  0  0  0  0  3  0  0  0  0  0  0
  -26.2300  -31.4430   24.9960 C   0  0  1  0  0  0  0  0  0  0  0  0
  -25.2270  -30.8760   26.0280 C   0  0  0  0  0  1  0  0  0  0  0  0
  -27.1430  -30.2830   24.5330 C   0  0  0  0  0  1  0  0  0  0  0  0
  -27.1440  -32.4560   25.7220 C   0  0  0  0  0  1  0  0  0  0  0  0
  -24.9700  -33.4400   24.1520 N   0  0  0  0  0  0  0  0  0  0  0  0
  -25.1170  -34.5710   23.4520 C   0  0  0  0  0  0  0  0  0  0  0  0
  -25.8210  -34.6460   22.4400 O   0  0  0  0  0  0  0  0  0  0  0  0
  -24.3520  -33.4370   24.9510 H   0  0  0  0  0  0  0  0  0  0  0  0
  -23.1280  -36.0520   23.0690 C   0  0  0  0  0  1  0  0  0  0  0  0
  -24.3660  -35.8200   23.9490 C   0  0  0  0  0  3  0  0  0  0  0  0
  -26.2470  -37.0090   24.9860 C   0  0  0  0  0  1  0  0  0  0  0  0
  -25.2000  -37.0400   23.9690 N   0  0  0  0  0  0  0  0  0  0  0  0
  -24.6310  -37.8660   24.1310 H   0  0  0  0  0  0  0  0  0  0  0  0
  1  2  1  0
  3  2  1  0
  4  3  1  0
  5  6  2  0
  5  4  1  0
  7  9  1  0
  8  7  2  0
  8 10  1  0
  9 11  2  0
 10 12  2  0
 11  5  1  0
 12 11  1  0
 12 13  1  0
 13 20  2  0
 13 19  1  0
 14 19  1  0
 15 16  1  0
 15 14  1  0
 17 16  1  0
 17 24  1  0
 17 18  1  0
 19 18  1  0
 21 24  1  0
 21 22  2  0
 22 23  1  0
 23 26  1  0
 24 25  1  0
 25 23  2  0
 26 27  1  0
 27 28  2  0
 29 32  1  0
 29 28  1  0
 30 29  2  0
 31 30  1  0
 31 26  2  0
 32 33  1  0
 33 34  2  0
 33 38  1  0
 34 35  1  0
 35 36  2  0
 36 40  1  0
 37 36  1  0
 38 37  2  0
 39 38  1  0
 41 22  1  0
 41 42  1  0
 42 44  1  0
 43 41  2  0
 45 42  1  0
 46 21  1  0
 47 46  1  0
 48 46  1  0
 49  1  1  0
 50 49  1  0
 51 50  1  0
 52 51  1  0
 53 54  1  0
 53 52  1  0
 55 56  1  0
 55 54  1  0
 56 58  1  0
 57 68  2  0
 58 63  1  0
 59 67  1  0
 59 69  1  0
 60 66  1  0
 60 62  1  0
 61 67  1  0
 62 61  1  0
 63 62  2  0
 64 65  1  0
 64 58  2  0
 65 60  2  0
 66 59  1  0
 67 57  1  0
 69 71  2  0
 70 69  1  0
 72 70  1  0
 73 78  1  0
 74 70  1  0
 75 74  1  0
 76 77  1  0
 76 75  1  0
 77 73  1  0
 78 74  1  0
 78 79  2  0
 80 79  1  0
 81 80  2  0
 82 73  2  0
 82 81  1  0
 83 57  1  0
 83 88  1  0
 83 84  1  0
 84 87  1  1
 84 85  1  0
 86 84  1  0
 88 91  1  0
 89 93  1  0
 89 88  1  0
 90 89  2  0
 93 92  1  0
 93 95  1  0
 95 96  1  0
 95 94  1  0
M  ISO  4  12 100  13 100  55 101  56 101
M  END
>  <TORSDO>  (50) 
F 28

>  <SCORE>  (50) 
1.495

>  <name>  (50) 
49

>  <ligand_id>  (50) 
49

>  <original_smiles>  (50) 
[H]c1c([H])c([H])c(C(=O)C([H])([H])C([H])([H])C([H])([H])C([H])([H])C([H])([H])C([H])([H])C([H])([H])C([H])([H])C([H])([H])C([H])([H])C([H])([H])Oc2c([H])c([H])c3c(c2[H])C([H])([H])N(C(=O)C([H])(N([H])C(=O)C([H])(N([H])C([H])([H])[H])C([H])([H])[H])C(C([H])([H])[H])(C([H])([H])[H])C([H])([H])[H])C([H])(C(=O)N([H])C2([H])c4c([H])c([H])c([H])c([H])c4C([H])([H])C([H])([H])C2([H])[H])C3([H])[H])c(C(=O)N2C([H])([H])C([H])([H])C([H])([H])C([H])(n3nc(-c4c([H])c([H])c(Oc5c([H])c([H])c(F)c([H])c5F)c([H])c4[H])c(C(=O)N([H])[H])c3N([H])[H])C2([H])[H])c1[H]

>  <smiles>  (50) 
[H]c1c([H])c([H])c(C(=O)C([H])([H])C([H])([H])C([H])([H])C([H])([H])C([H])([H])C([H])([H])C([H])([H])C([H])([H])C([H])([H])C([H])([H])C([H])([H])Oc2c([H])c([H])c3c(c2[H])C([H])([H])N(C(=O)C([H])(N([H])C(=O)C([H])(N([H])C([H])([H])[H])C([H])([H])[H])C(C([H])([H])[H])(C([H])([H])[H])C([H])([H])[H])C([H])(C(=O)N([H])C2([H])c4c([H])c([H])c([H])c([H])c4C([H])([H])C([H])([H])C2([H])[H])C3([H])[H])c(C(=O)N2C([H])([H])C([H])([H])C([H])([H])C([H])(n3nc(-c4c([H])c([H])c(Oc5c([H])c([H])c(F)c([H])c5F)c([H])c4[H])c(C(=O)N([H])[H])c3N([H])[H])C2([H])[H])c1[H]

$$$$
50:0:0
     RDKit          3D

 95103  0  0  1  0  0  0  0  0999 V2000
  -26.3510  -22.3900   21.8270 C   0  0  0  0  0  1  0  0  0  0  0  0
  -27.2950  -23.3500   21.0920 C   0  0  0  0  0  3  0  0  0  0  0  0
  -26.7650  -23.6930   19.7490 N   0  0  0  0  0  4  0  0  0  0  0  0
  -27.0900  -23.0260   19.0660 H   0  0  0  0  0  0  0  0  0  0  0  0
  -25.7610  -23.5970   19.7970 H   0  0  0  0  0  0  0  0  0  0  0  0
  -27.0720  -25.0820   19.3160 C   0  0  0  0  0  2  0  0  0  0  0  0
  -26.4800  -25.4380   17.9390 C   0  0  0  0  0  2  0  0  0  0  0  0
  -26.6180  -26.8480   17.7010 O   0  0  0  0  0  0  0  0  0  0  0  0
  -25.3060  -30.9490   23.3500 C   0  0  0  0  0  0  0  0  0  0  0  0
  -25.7230  -27.7080   18.3090 C   0  0  0  0  0  0  0  0  0  0  0  0
  -23.4000  -30.6030   21.8180 C   0  0  0  0  0  3  0  0  0  0  0  0
  -23.9640  -29.5160   19.5880 C   0  0  0  0  0  0  0  0  0  0  0  0
  -25.7990  -30.5310   20.9350 C   0  0  0  0  0  2  0  0  0  0  0  0
  -25.3280  -29.5290   19.9020 C   0  0  0  0  0  0  0  0  0  0  0  0
  -26.2130  -28.6330   19.2590 C   0  0  0  0  0  3  0  0  0  0  0  0
  -24.3390  -27.7130   18.0080 C   0  0  0  0  0  3  0  0  0  0  0  0
  -23.4630  -28.6080   18.6440 C   0  0  0  0  0  3  0  0  0  0  0  0
  -23.0850  -30.5160   20.3050 C   0  0  0  0  0  2  0  0  0  0  0  0
  -24.8760  -30.6720   22.0870 N   0  0  0  0  0  0  0  0  0  0  0  0
  -24.5060  -31.1830   24.2660 O   0  0  0  0  0  0  0  0  0  0  0  0
  -22.6960  -29.4300   22.5370 C   0  0  0  0  0  0  0  0  0  0  0  0
  -21.3520  -29.4360   22.5210 N   0  0  0  0  0  0  0  0  0  0  0  0
  -23.3520  -28.5280   23.0650 O   0  0  0  0  0  0  0  0  0  0  0  0
  -20.8850  -30.2170   22.0820 H   0  0  0  0  0  0  0  0  0  0  0  0
  -17.9230  -28.3330   22.7530 C   0  0  0  0  0  0  0  0  0  0  0  0
  -20.4830  -28.4160   23.1060 C   0  0  0  0  0  3  0  0  0  0  0  0
  -20.5330  -27.1010   22.2940 C   0  0  0  0  0  2  0  0  0  0  0  0
  -19.4430  -27.0130   21.2200 C   0  0  0  0  0  2  0  0  0  0  0  0
  -18.0540  -27.1130   21.8580 C   0  0  0  0  0  2  0  0  0  0  0  0
  -19.0630  -28.9540   23.3290 C   0  0  0  0  0  0  0  0  0  0  0  0
  -18.8870  -30.1060   24.1230 C   0  0  0  0  0  3  0  0  0  0  0  0
  -17.6040  -30.6360   24.3490 C   0  0  0  0  0  3  0  0  0  0  0  0
  -16.4760  -30.0080   23.7920 C   0  0  0  0  0  3  0  0  0  0  0  0
  -16.6370  -28.8590   22.9970 C   0  0  0  0  0  3  0  0  0  0  0  0
  -26.8260  -31.0100   23.6990 C   0  0  0  0  0  3  0  0  0  0  0  0
  -27.0260  -32.1370   24.6200 N   0  0  0  0  0  0  0  0  0  0  0  0
  -27.5520  -33.3190   24.2710 C   0  0  0  0  0  0  0  0  0  0  0  0
  -27.9960  -33.5450   23.1420 O   0  0  0  0  0  0  0  0  0  0  0  0
  -26.6450  -32.0310   25.5500 H   0  0  0  0  0  0  0  0  0  0  0  0
  -26.4630  -35.4320   25.0910 C   0  0  0  0  0  1  0  0  0  0  0  0
  -27.5960  -34.4240   25.3440 C   0  0  0  0  0  3  0  0  0  0  0  0
  -29.9870  -34.3020   25.8920 C   0  0  0  0  0  1  0  0  0  0  0  0
  -28.8920  -35.1350   25.4030 N   0  0  0  0  0  0  0  0  0  0  0  0
  -28.8280  -35.9530   26.0040 H   0  0  0  0  0  0  0  0  0  0  0  0
  -27.3670  -29.6670   24.3250 C   0  0  1  0  0  0  0  0  0  0  0  0
  -26.5250  -29.1460   25.5140 C   0  0  0  0  0  1  0  0  0  0  0  0
  -27.4060  -28.5590   23.2460 C   0  0  0  0  0  1  0  0  0  0  0  0
  -28.8210  -29.8610   24.8170 C   0  0  0  0  0  1  0  0  0  0  0  0
  -28.7890  -22.9320   21.0630 C   0  0  0  0  0  2  0  0  0  0  0  0
  -29.1790  -21.4670   21.4020 C   0  0  0  0  0  3  0  0  0  0  0  0
  -29.2740  -20.5060   20.1950 C   0  0  0  0  0  3  0  0  0  0  0  0
  -32.3080  -18.1130   20.9720 C   0  0  0  0  0  2  0  0  0  0  0  0
  -31.5310  -19.4310   20.8470 C   0  0  0  0  0  2  0  0  0  0  0  0
  -32.3580  -17.3670   19.6340 C   0  0  0  0  0  2  0  0  0  0  0  0
  -30.0060  -18.3200   19.1320 C   0  0  0  0  0  2  0  0  0  0  0  0
  -30.0630  -19.1840   20.4220 C   0  0  0  0  0  3  0  0  0  0  0  0
  -30.9630  -17.1000   19.0340 C   0  0  0  0  0  3  0  0  0  0  0  0
  -31.0320  -14.6230   19.2390 C   0  0  0  0  0  0  0  0  0  0  0  0
  -30.9070  -12.1620   19.1820 C   0  0  0  0  0  2  0  0  0  0  0  0
  -29.9770  -11.7220   18.0360 C   0  0  0  0  0  2  0  0  0  0  0  0
  -28.5130  -11.6600   18.5170 C   0  0  0  0  0  2  0  0  0  0  0  0
  -28.0840  -12.9160   19.3240 C   0  0  0  0  0  3  0  0  0  0  0  0
  -29.1500  -13.3380   20.3610 C   0  0  0  0  0  2  0  0  0  0  0  0
  -30.4370  -13.4740   19.6620 N   0  0  0  0  0  0  0  0  0  0  0  0
  -32.0950  -14.6020   18.6140 O   0  0  0  0  0  0  0  0  0  0  0  0
  -30.4020  -15.7960   19.4630 N   0  0  0  0  0  0  0  0  0  0  0  0
  -29.5090  -15.7840   19.9270 H   0  0  0  0  0  0  0  0  0  0  0  0
  -25.8480  -13.6820   20.3340 C   0  0  0  0  0  0  0  0  0  0  0  0
  -24.7540  -12.9880   20.7820 C   0  0  0  0  0  0  0  0  0  0  0  0
  -25.0700  -11.6060   20.6130 C   0  0  0  0  0  0  0  0  0  0  0  0
  -26.7690  -12.7270   19.9360 N   0  0  0  0  0  0  0  0  0  0  0  0
  -26.3080  -11.4680   20.1530 N   0  0  0  0  0  0  0  0  0  0  0  0
  -24.2420  -10.4070   20.8160 C   0  0  0  0  0  0  0  0  0  0  0  0
  -24.5650   -9.4450   21.7970 C   0  0  0  0  0  3  0  0  0  0  0  0
  -23.7440   -8.3110   21.9860 C   0  0  0  0  0  3  0  0  0  0  0  0
  -22.5860   -8.1340   21.1910 C   0  0  0  0  0  0  0  0  0  0  0  0
  -22.2810   -9.0850   20.2020 C   0  0  0  0  0  3  0  0  0  0  0  0
  -23.1010  -10.2090   20.0130 C   0  0  0  0  0  3  0  0  0  0  0  0
  -21.7450   -7.0500   21.2860 O   0  0  0  0  0  0  0  0  0  0  0  0
  -21.4700   -6.4540   22.4910 C   0  0  0  0  0  0  0  0  0  0  0  0
  -20.8790   -7.1660   23.5560 C   0  0  0  0  0  3  0  0  0  0  0  0
  -20.5480   -6.4990   24.7520 C   0  0  0  0  0  3  0  0  0  0  0  0
  -20.8000   -5.1190   24.8820 C   0  0  0  0  0  0  0  0  0  0  0  0
  -21.3840   -4.4070   23.8180 C   0  0  0  0  0  3  0  0  0  0  0  0
  -21.7150   -5.0720   22.6260 C   0  0  0  0  0  0  0  0  0  0  0  0
  -22.2570   -4.3770   21.5970 F   0  0  0  0  0  0  0  0  0  0  0  0
  -20.4770   -4.4750   26.0270 F   0  0  0  0  0  0  0  0  0  0  0  0
  -23.4560  -13.5760   21.2500 C   0  0  0  0  0  0  0  0  0  0  0  0
  -22.7860  -12.9160   22.1890 N   0  0  0  0  0  0  0  0  0  0  0  0
  -23.0490  -14.6560   20.8210 O   0  0  0  0  0  0  0  0  0  0  0  0
  -23.1330  -12.0440   22.5600 H   0  0  0  0  0  0  0  0  0  0  0  0
  -21.9200  -13.2900   22.5440 H   0  0  0  0  0  0  0  0  0  0  0  0
  -26.1270  -15.0390   20.2130 N   0  0  0  0  0  0  0  0  0  0  0  0
  -25.4400  -15.7540   20.4280 H   0  0  0  0  0  0  0  0  0  0  0  0
  -26.9710  -15.4170   19.7990 H   0  0  0  0  0  0  0  0  0  0  0  0
  2  1  1  0
  3  5  1  0
  3  2  1  0
  4  3  1  0
  6  3  1  0
  7  6  1  0
  8  7  1  0
  8 10  1  0
  9 20  2  0
 10 15  1  0
 11 19  1  0
 11 21  1  0
 12 14  1  0
 12 18  1  0
 13 19  1  0
 14 13  1  0
 15 14  2  0
 16 10  2  0
 16 17  1  0
 17 12  2  0
 18 11  1  0
 19  9  1  0
 21 23  2  0
 22 21  1  0
 24 22  1  0
 25 34  2  0
 25 30  1  0
 26 22  1  0
 26 30  1  0
 27 26  1  0
 28 29  1  0
 28 27  1  0
 29 25  1  0
 30 31  2  0
 31 32  1  0
 33 32  2  0
 34 33  1  0
 35  9  1  0
 35 45  1  0
 35 36  1  0
 36 39  1  0
 37 36  1  0
 37 41  1  0
 38 37  2  0
 41 40  1  0
 41 43  1  0
 43 42  1  0
 43 44  1  0
 45 48  1  1
 45 46  1  0
 47 45  1  0
 49  2  1  0
 49 50  1  0
 51 50  2  0
 53 52  1  0
 54 52  1  0
 55 56  1  0
 56 51  1  0
 56 53  1  0
 57 55  1  0
 57 66  1  0
 57 54  1  0
 58 66  1  0
 58 64  1  0
 59 64  1  0
 60 61  1  0
 60 59  1  0
 62 61  1  0
 62 71  1  0
 62 63  1  0
 64 63  1  0
 65 58  2  0
 66 67  1  0
 68 69  2  0
 69 88  1  0
 70 69  1  0
 70 73  1  0
 71 72  1  0
 71 68  1  0
 72 70  2  0
 73 74  1  0
 74 75  2  0
 76 79  1  0
 76 75  1  0
 77 76  2  0
 78 77  1  0
 78 73  2  0
 79 80  1  0
 80 85  2  0
 80 81  1  0
 81 82  2  0
 82 83  1  0
 83 87  1  0
 84 83  2  0
 85 84  1  0
 86 85  1  0
 88 89  1  0
 89 92  1  0
 89 91  1  0
 90 88  2  0
 93 68  1  0
 93 94  1  0
 95 93  1  0
M  ISO  4   7 101   8 101  58 100  66 100
M  END
>  <TORSDO>  (51) 
F 23

>  <SCORE>  (51) 
-9.645

>  <name>  (51) 
50

>  <ligand_id>  (51) 
50

>  <original_smiles>  (51) 
[H]c1c([H])c([H])c2c(c1[H])C([H])([H])C([H])([H])C([H])([H])C2([H])N([H])C(=O)C1([H])N(C(=O)C([H])(N([H])C(=O)C([H])(N([H])C([H])([H])[H])C([H])([H])[H])C(C([H])([H])[H])(C([H])([H])[H])C([H])([H])[H])C([H])([H])c2c([H])c(OC([H])([H])C([H])([H])[N+]([H])([H])C([H])(C([H])([H])[H])C([H])([H])C([H])([H])C([H])([H])C3([H])C([H])([H])C([H])([H])C([H])([H])C([H])(N([H])C(=O)N4C([H])([H])C([H])([H])C([H])([H])C([H])(n5nc(-c6c([H])c([H])c(Oc7c([H])c([H])c(F)c([H])c7F)c([H])c6[H])c(C(=O)N([H])[H])c5N([H])[H])C4([H])[H])C3([H])[H])c([H])c([H])c2C1([H])[H]

>  <smiles>  (51) 
[H]c1c([H])c([H])c2c(c1[H])C([H])([H])C([H])([H])C([H])([H])C2([H])N([H])C(=O)C1([H])N(C(=O)C([H])(N([H])C(=O)C([H])(N([H])C([H])([H])[H])C([H])([H])[H])C(C([H])([H])[H])(C([H])([H])[H])C([H])([H])[H])C([H])([H])c2c([H])c(OC([H])([H])C([H])([H])[N+]([H])([H])C([H])(C([H])([H])[H])C([H])([H])C([H])([H])C([H])([H])C3([H])C([H])([H])C([H])([H])C([H])([H])C([H])(N([H])C(=O)N4C([H])([H])C([H])([H])C([H])([H])C([H])(n5nc(-c6c([H])c([H])c(Oc7c([H])c([H])c(F)c([H])c7F)c([H])c6[H])c(C(=O)N([H])[H])c5N([H])[H])C4([H])[H])C3([H])[H])c([H])c([H])c2C1([H])[H]

$$$$
51:0:0
     RDKit          3D

 98106  0  0  1  0  0  0  0  0999 V2000
  -32.0020  -25.9550   22.4920 C   0  0  0  0  0  3  0  0  0  0  0  0
  -32.5120  -27.2530   22.3090 C   0  0  0  0  0  3  0  0  0  0  0  0
  -31.2150  -25.9420   20.1900 C   0  0  0  0  0  3  0  0  0  0  0  0
  -31.3570  -25.2780   21.4320 C   0  0  0  0  0  0  0  0  0  0  0  0
  -31.7060  -27.2530   20.0040 C   0  0  0  0  0  0  0  0  0  0  0  0
  -32.3670  -27.9060   21.0720 C   0  0  0  0  0  0  0  0  0  0  0  0
  -32.8780  -29.1960   20.9310 N   0  0  0  0  0  0  0  0  0  0  0  0
  -33.0940  -29.7300   21.7660 H   0  0  0  0  0  0  0  0  0  0  0  0
  -32.5380  -29.7710   20.1690 H   0  0  0  0  0  0  0  0  0  0  0  0
  -30.8170  -23.9060   21.6720 C   0  0  0  0  0  0  0  0  0  0  0  0
  -30.7670  -23.3940   22.7940 O   0  0  0  0  0  0  0  0  0  0  0  0
  -30.3440  -23.0810   20.4720 C   0  0  0  0  0  2  0  0  0  0  0  0
  -31.3300  -21.9570   20.1070 C   0  0  0  0  0  2  0  0  0  0  0  0
  -30.6360  -20.5930   19.9850 C   0  0  0  0  0  2  0  0  0  0  0  0
  -31.6360  -19.4300   19.9310 C   0  0  0  0  0  2  0  0  0  0  0  0
  -31.0520  -18.1280   20.4970 C   0  0  0  0  0  2  0  0  0  0  0  0
  -32.0160  -16.9410   20.3480 C   0  0  0  0  0  2  0  0  0  0  0  0
  -31.5050  -15.6700   21.0570 C   0  0  0  0  0  2  0  0  0  0  0  0
  -32.1420  -14.3690   20.5400 C   0  0  0  0  0  0  0  0  0  0  0  0
  -31.9640  -11.9350   20.1460 C   0  0  0  0  0  2  0  0  0  0  0  0
  -31.0650  -11.6460   18.9290 C   0  0  0  0  0  2  0  0  0  0  0  0
  -29.5830  -11.5870   19.3470 C   0  0  0  0  0  2  0  0  0  0  0  0
  -29.1570  -12.8050   20.2090 C   0  0  0  0  0  3  0  0  0  0  0  0
  -30.1670  -13.0460   21.3520 C   0  0  0  0  0  2  0  0  0  0  0  0
  -31.5060  -13.1900   20.7580 N   0  0  0  0  0  0  0  0  0  0  0  0
  -33.2050  -14.4380   19.9130 O   0  0  0  0  0  0  0  0  0  0  0  0
  -26.9000  -13.6150   21.1540 C   0  0  0  0  0  0  0  0  0  0  0  0
  -25.7400  -12.9480   21.4470 C   0  0  0  0  0  0  0  0  0  0  0  0
  -25.9900  -11.5730   21.1510 C   0  0  0  0  0  0  0  0  0  0  0  0
  -27.7930  -12.6500   20.7130 N   0  0  0  0  0  0  0  0  0  0  0  0
  -27.2470  -11.4070   20.7620 N   0  0  0  0  0  0  0  0  0  0  0  0
  -25.0890  -10.4140   21.1620 C   0  0  0  0  0  0  0  0  0  0  0  0
  -25.2330   -9.3750   22.1080 C   0  0  0  0  0  3  0  0  0  0  0  0
  -24.3420   -8.2800   22.1100 C   0  0  0  0  0  3  0  0  0  0  0  0
  -23.2930   -8.2170   21.1640 C   0  0  0  0  0  0  0  0  0  0  0  0
  -23.1680   -9.2420   20.2100 C   0  0  0  0  0  3  0  0  0  0  0  0
  -24.0570  -10.3290   20.2060 C   0  0  0  0  0  3  0  0  0  0  0  0
  -22.3960   -7.1790   21.0730 O   0  0  0  0  0  0  0  0  0  0  0  0
  -21.8530   -6.6000   22.1920 C   0  0  0  0  0  0  0  0  0  0  0  0
  -21.0680   -7.3360   23.1060 C   0  0  0  0  0  3  0  0  0  0  0  0
  -20.4710   -6.6850   24.2040 C   0  0  0  0  0  3  0  0  0  0  0  0
  -20.6480   -5.3010   24.3860 C   0  0  0  0  0  0  0  0  0  0  0  0
  -21.4240   -4.5650   23.4730 C   0  0  0  0  0  3  0  0  0  0  0  0
  -22.0220   -5.2120   22.3770 C   0  0  0  0  0  0  0  0  0  0  0  0
  -22.7520   -4.4950   21.4890 F   0  0  0  0  0  0  0  0  0  0  0  0
  -20.0680   -4.6740   25.4350 F   0  0  0  0  0  0  0  0  0  0  0  0
  -24.4410  -13.5610   21.8850 C   0  0  0  0  0  0  0  0  0  0  0  0
  -23.6570  -12.8370   22.6750 N   0  0  0  0  0  0  0  0  0  0  0  0
  -24.1350  -14.7090   21.5660 O   0  0  0  0  0  0  0  0  0  0  0  0
  -23.9140  -11.9000   22.9500 H   0  0  0  0  0  0  0  0  0  0  0  0
  -22.7830  -13.2210   23.0050 H   0  0  0  0  0  0  0  0  0  0  0  0
  -27.2640  -14.9570   21.2090 N   0  0  0  0  0  0  0  0  0  0  0  0
  -26.6120  -15.6870   21.4760 H   0  0  0  0  0  0  0  0  0  0  0  0
  -28.1670  -15.3190   20.9250 H   0  0  0  0  0  0  0  0  0  0  0  0
  -31.4930  -27.9430   18.6590 C   0  0  0  0  0  2  0  0  0  0  0  0
  -30.1800  -28.7450   18.6100 C   0  0  0  0  0  2  0  0  0  0  0  0
  -28.9960  -28.0480   19.3000 C   0  0  0  0  0  2  0  0  0  0  0  0
  -27.8880  -28.0220   18.4010 O   0  0  0  0  0  0  0  0  0  0  0  0
  -23.8730  -31.4970   23.1930 C   0  0  0  0  0  0  0  0  0  0  0  0
  -26.6760  -28.5530   18.7870 C   0  0  0  0  0  0  0  0  0  0  0  0
  -22.6550  -30.3750   21.3510 C   0  0  0  0  0  3  0  0  0  0  0  0
  -24.1000  -29.5290   19.4290 C   0  0  0  0  0  0  0  0  0  0  0  0
  -25.0400  -31.2220   21.0130 C   0  0  0  0  0  2  0  0  0  0  0  0
  -25.2330  -30.0930   20.0240 C   0  0  0  0  0  0  0  0  0  0  0  0
  -26.5190  -29.6210   19.7030 C   0  0  0  0  0  3  0  0  0  0  0  0
  -25.5250  -27.9980   18.1890 C   0  0  0  0  0  3  0  0  0  0  0  0
  -24.2380  -28.4750   18.5070 C   0  0  0  0  0  3  0  0  0  0  0  0
  -22.7630  -30.1130   19.8240 C   0  0  0  0  0  2  0  0  0  0  0  0
  -23.8800  -31.0320   21.9120 N   0  0  0  0  0  0  0  0  0  0  0  0
  -22.8530  -31.4280   23.8920 O   0  0  0  0  0  0  0  0  0  0  0  0
  -22.2970  -29.0460   22.0520 C   0  0  0  0  0  0  0  0  0  0  0  0
  -21.0280  -28.6270   21.9190 N   0  0  0  0  0  0  0  0  0  0  0  0
  -23.1520  -28.4060   22.6690 O   0  0  0  0  0  0  0  0  0  0  0  0
  -20.3880  -29.2130   21.4020 H   0  0  0  0  0  0  0  0  0  0  0  0
  -18.0200  -26.6410   22.1230 C   0  0  0  0  0  0  0  0  0  0  0  0
  -20.4710  -27.3880   22.4590 C   0  0  0  0  0  3  0  0  0  0  0  0
  -20.8550  -26.1760   21.5780 C   0  0  0  0  0  2  0  0  0  0  0  0
  -19.8050  -25.8510   20.5110 C   0  0  0  0  0  2  0  0  0  0  0  0
  -18.4520  -25.5460   21.1620 C   0  0  0  0  0  2  0  0  0  0  0  0
  -18.9660  -27.5170   22.7190 C   0  0  0  0  0  0  0  0  0  0  0  0
  -18.5090  -28.5420   23.5740 C   0  0  0  0  0  3  0  0  0  0  0  0
  -17.1360  -28.6990   23.8390 C   0  0  0  0  0  3  0  0  0  0  0  0
  -16.2050  -27.8190   23.2620 C   0  0  0  0  0  3  0  0  0  0  0  0
  -16.6470  -26.7910   22.4100 C   0  0  0  0  0  3  0  0  0  0  0  0
  -25.1350  -32.1570   23.8330 C   0  0  0  0  0  3  0  0  0  0  0  0
  -24.8120  -33.5650   24.0950 N   0  0  0  0  0  0  0  0  0  0  0  0
  -25.2750  -34.5970   23.3760 C   0  0  0  0  0  0  0  0  0  0  0  0
  -26.0880  -34.4630   22.4560 O   0  0  0  0  0  0  0  0  0  0  0  0
  -24.1120  -33.7460   24.7980 H   0  0  0  0  0  0  0  0  0  0  0  0
  -23.6710  -36.4200   22.7260 C   0  0  0  0  0  1  0  0  0  0  0  0
  -24.7530  -36.0010   23.7340 C   0  0  0  0  0  3  0  0  0  0  0  0
  -26.7470  -36.8430   24.8930 C   0  0  0  0  0  1  0  0  0  0  0  0
  -25.8150  -37.0290   23.7840 N   0  0  0  0  0  0  0  0  0  0  0  0
  -25.4120  -37.9590   23.8620 H   0  0  0  0  0  0  0  0  0  0  0  0
  -25.6120  -31.4360   25.1530 C   0  0  1  0  0  0  0  0  0  0  0  0
  -24.4670  -31.1490   26.1520 C   0  0  0  0  0  1  0  0  0  0  0  0
  -26.2980  -30.0900   24.8190 C   0  0  0  0  0  1  0  0  0  0  0  0
  -26.6690  -32.3060   25.8760 C   0  0  0  0  0  1  0  0  0  0  0  0
  2  1  1  0
  3  4  1  0
  4 10  1  0
  4  1  2  0
  5  3  2  0
  5  6  1  0
  6  2  2  0
  7  6  1  0
  7  8  1  0
  9  7  1  0
 10 11  2  0
 12 10  1  0
 13 12  1  0
 14 13  1  0
 15 14  1  0
 15 16  1  0
 17 16  1  0
 17 18  1  0
 19 25  1  0
 19 18  1  0
 20 25  1  0
 21 22  1  0
 21 20  1  0
 23 22  1  0
 23 30  1  0
 23 24  1  0
 25 24  1  0
 26 19  2  0
 27 52  1  0
 27 28  2  0
 28 47  1  0
 29 32  1  0
 29 28  1  0
 30 31  1  0
 30 27  1  0
 31 29  2  0
 32 33  1  0
 33 34  2  0
 35 34  1  0
 36 35  2  0
 37 36  1  0
 37 32  2  0
 38 35  1  0
 38 39  1  0
 39 44  2  0
 39 40  1  0
 40 41  2  0
 41 42  1  0
 42 46  1  0
 43 42  2  0
 44 43  1  0
 45 44  1  0
 47 48  1  0
 48 50  1  0
 48 51  1  0
 49 47  2  0
 52 53  1  0
 54 52  1  0
 55  5  1  0
 56 55  1  0
 56 57  1  0
 58 60  1  0
 58 57  1  0
 59 70  2  0
 60 65  1  0
 61 69  1  0
 61 71  1  0
 62 68  1  0
 62 64  1  0
 63 69  1  0
 64 63  1  0
 65 64  2  0
 66 67  1  0
 66 60  2  0
 67 62  2  0
 68 61  1  0
 69 59  1  0
 71 73  2  0
 72 71  1  0
 74 72  1  0
 75 84  2  0
 75 80  1  0
 76 72  1  0
 76 80  1  0
 77 76  1  0
 78 79  1  0
 78 77  1  0
 79 75  1  0
 80 81  2  0
 81 82  1  0
 83 82  2  0
 84 83  1  0
 85 59  1  0
 85 86  1  0
 85 95  1  0
 86 89  1  0
 87 91  1  0
 87 86  1  0
 88 87  2  0
 91 90  1  0
 91 93  1  0
 93 94  1  0
 93 92  1  0
 95 98  1  1
 95 96  1  0
 97 95  1  0
M  ISO  4  18 100  19 100  57 101  58 101
M  END
>  <TORSDO>  (52) 
F 28

>  <SCORE>  (52) 
-3.277

>  <name>  (52) 
51

>  <ligand_id>  (52) 
51

>  <original_smiles>  (52) 
[H]c1c([H])c([H])c2c(c1[H])C([H])([H])C([H])([H])C([H])([H])C2([H])N([H])C(=O)C1([H])N(C(=O)C([H])(N([H])C(=O)C([H])(N([H])C([H])([H])[H])C([H])([H])[H])C(C([H])([H])[H])(C([H])([H])[H])C([H])([H])[H])C([H])([H])c2c([H])c(OC([H])([H])C([H])([H])C([H])([H])c3c([H])c(C(=O)C([H])([H])C([H])([H])C([H])([H])C([H])([H])C([H])([H])C([H])([H])C([H])([H])C(=O)N4C([H])([H])C([H])([H])C([H])([H])C([H])(n5nc(-c6c([H])c([H])c(Oc7c([H])c([H])c(F)c([H])c7F)c([H])c6[H])c(C(=O)N([H])[H])c5N([H])[H])C4([H])[H])c([H])c([H])c3N([H])[H])c([H])c([H])c2C1([H])[H]

>  <smiles>  (52) 
[H]c1c([H])c([H])c2c(c1[H])C([H])([H])C([H])([H])C([H])([H])C2([H])N([H])C(=O)C1([H])N(C(=O)C([H])(N([H])C(=O)C([H])(N([H])C([H])([H])[H])C([H])([H])[H])C(C([H])([H])[H])(C([H])([H])[H])C([H])([H])[H])C([H])([H])c2c([H])c(OC([H])([H])C([H])([H])C([H])([H])c3c([H])c(C(=O)C([H])([H])C([H])([H])C([H])([H])C([H])([H])C([H])([H])C([H])([H])C([H])([H])C(=O)N4C([H])([H])C([H])([H])C([H])([H])C([H])(n5nc(-c6c([H])c([H])c(Oc7c([H])c([H])c(F)c([H])c7F)c([H])c6[H])c(C(=O)N([H])[H])c5N([H])[H])C4([H])[H])c([H])c([H])c3N([H])[H])c([H])c([H])c2C1([H])[H]

$$$$
52:0:0
     RDKit          3D

 95 96  0  0  1  0  0  0  0  0999 V2000
  -15.4070  -27.0690   24.0020 C   0  0  0  0  0  3  0  0  0  0  0  0
  -15.1590  -28.4060   22.8890 C   0  0  0  0  0  3  0  0  0  0  0  0
  -16.9100  -26.4200   24.6270 C   0  0  0  0  0  2  0  0  0  0  0  0
  -16.3460  -29.4360   22.1210 C   0  0  0  0  0  2  0  0  0  0  0  0
  -18.5120  -27.0220   24.1790 C   0  0  0  0  0  2  0  0  0  0  0  0
  -18.0790  -29.2380   22.3640 C   0  0  0  0  0  3  0  0  0  0  0  0
  -20.0060  -25.3930   24.1580 C   0  0  0  0  0  2  0  0  0  0  0  0
  -20.5290  -25.4490   25.2750 O   0  0  0  0  0  0  0  0  0  0  0  0
  -21.1070  -23.6780   23.2510 C   0  0  0  0  0 15  0  0  0  0  0  0
  -23.0120  -22.4000   22.7020 C   0  0  0  0  0 15  0  0  0  0  0  0
  -24.0610  -20.6040   21.9350 C   0  0  0  0  0  2  0  0  0  0  0  0
  -23.1570  -19.8780   21.5170 O   0  0  0  0  0  0  0  0  0  0  0  0
  -25.9020  -19.4440   21.5240 C   0  0  0  0  0 15  0  0  0  0  0  0
  -27.0770  -17.5800   20.7030 C   0  0  0  0  0 15  0  0  0  0  0  0
  -28.7830  -16.2820   20.0990 C   0  0  0  0  0  2  0  0  0  0  0  0
  -30.0340  -13.9170   18.9070 C   0  0  0  0  0  2  0  0  0  0  0  0
  -29.3740  -13.1580   17.6680 C   0  0  0  0  0  2  0  0  0  0  0  0
  -28.0380  -12.5060   18.0470 C   0  0  0  0  0  2  0  0  0  0  0  0
  -27.3870  -13.4340   19.0770 C   0  0  0  0  0  3  0  0  0  0  0  0
  -28.2490  -13.7090   20.3000 C   0  0  0  0  0  2  0  0  0  0  0  0
  -29.0430  -14.7940   19.8210 N   0  0  0  0  0  0  0  0  0  0  0  0
  -29.9800  -16.5880   19.7220 O   0  0  0  0  0  1  0  0  0  0  0  0
  -25.1220  -13.9400   19.9230 C   0  0  0  0  0  0  0  0  0  0  0  0
  -24.1330  -13.1490   20.4020 C   0  0  0  0  0  0  0  0  0  0  0  0
  -24.6330  -11.8140   20.3330 C   0  0  0  0  0  0  0  0  0  0  0  0
  -26.1260  -13.0680   19.5770 N   0  0  0  0  0  0  0  0  0  0  0  0
  -25.8810  -11.7890   19.9010 N   0  0  0  0  0  0  0  0  0  0  0  0
  -23.9700  -10.5460   20.5690 C   0  0  0  0  0  0  0  0  0  0  0  0
  -24.5290   -9.5680   21.4180 C   0  0  0  0  0  3  0  0  0  0  0  0
  -23.8480   -8.3540   21.6330 C   0  0  0  0  0  3  0  0  0  0  0  0
  -22.6050   -8.1210   20.9980 C   0  0  0  0  0  0  0  0  0  0  0  0
  -22.0720   -9.0910   20.1320 C   0  0  0  0  0  3  0  0  0  0  0  0
  -22.7520  -10.2960   19.9140 C   0  0  0  0  0  3  0  0  0  0  0  0
  -21.8790   -6.9660   21.1310 O   0  0  0  0  0  0  0  0  0  0  0  0
  -21.9940   -6.1740   22.2430 C   0  0  0  0  0  0  0  0  0  0  0  0
  -21.7840   -6.6800   23.5440 C   0  0  0  0  0  3  0  0  0  0  0  0
  -21.8420   -5.8120   24.6510 C   0  0  0  0  0  3  0  0  0  0  0  0
  -22.1010   -4.4420   24.4600 C   0  0  0  0  0  0  0  0  0  0  0  0
  -22.3090   -3.9380   23.1640 C   0  0  0  0  0  3  0  0  0  0  0  0
  -22.2530   -4.8020   22.0570 C   0  0  0  0  0  0  0  0  0  0  0  0
  -22.4320   -4.3100   20.8070 F   0  0  0  0  0  0  0  0  0  0  0  0
  -22.1480   -3.6050   25.5220 F   0  0  0  0  0  0  0  0  0  0  0  0
  -22.7650  -13.6120   20.7800 C   0  0  0  0  0  0  0  0  0  0  0  0
  -22.1230  -12.9120   21.7050 N   0  0  0  0  0  0  0  0  0  0  0  0
  -22.2840  -14.6330   20.2910 O   0  0  0  0  0  0  0  0  0  0  0  0
  -22.5310  -12.0850   22.1160 H   0  0  0  0  0  0  0  0  0  0  0  0
  -21.2050  -13.2080   22.0090 H   0  0  0  0  0  0  0  0  0  0  0  0
  -25.2290  -15.3090   19.7270 N   0  0  0  0  0  0  0  0  0  0  0  0
  -24.4450  -15.9220   19.9240 H   0  0  0  0  0  0  0  0  0  0  0  0
  -25.9830  -15.7760   19.2480 H   0  0  0  0  0  0  0  0  0  0  0  0
  -19.2240  -29.6340   21.0070 C   0  0  0  0  0  2  0  0  0  0  0  0
  -20.4480  -28.6110   20.0070 C   0  0  0  0  0  2  0  0  0  0  0  0
  -22.2400  -28.1070   19.6280 C   0  0  0  0  0  2  0  0  0  0  0  0
  -23.7600  -27.0230   19.9210 C   0  0  0  0  0  2  0  0  0  0  0  0
  -25.4380  -27.0900   20.2960 O   0  0  0  0  0  0  0  0  0  0  0  0
  -24.8470  -32.3620   22.8270 C   0  0  0  0  0  0  0  0  0  0  0  0
  -26.5240  -27.6830   19.6460 C   0  0  0  0  0  3  0  0  0  0  0  0
  -23.5640  -31.0430   21.2590 C   0  0  0  0  0  3  0  0  0  0  0  0
  -24.8610  -29.7470   19.4520 C   0  0  0  0  0  3  0  0  0  0  0  0
  -26.0890  -31.2240   20.9960 C   0  0  0  0  0  2  0  0  0  0  0  0
  -25.9900  -29.9200   20.2420 C   0  0  0  0  0  3  0  0  0  0  0  0
  -26.9490  -28.8910   20.2630 C   0  0  0  0  0  2  0  0  0  0  0  0
  -25.9550  -27.8160   18.4160 C   0  0  0  0  0  2  0  0  0  0  0  0
  -24.9480  -28.8020   18.3920 C   0  0  0  0  0  2  0  0  0  0  0  0
  -23.7210  -30.7100   19.7480 C   0  0  0  0  0  2  0  0  0  0  0  0
  -24.8480  -31.5870   21.7240 N   0  0  0  0  0  0  0  0  0  0  0  0
  -23.8010  -32.6370   23.4290 O   0  0  0  0  0  0  0  0  0  0  0  0
  -23.1980  -29.8900   22.2220 C   0  0  0  0  0  0  0  0  0  0  0  0
  -21.9780  -29.4560   22.1690 N   0  0  0  0  0  0  0  0  0  0  0  0
  -23.9770  -29.4100   23.0500 O   0  0  0  0  0  0  0  0  0  0  0  0
  -21.3800  -29.7140   21.3920 H   0  0  0  0  0  0  0  0  0  0  0  0
  -18.9910  -27.4250   22.1930 C   0  0  0  0  0  3  0  0  0  0  0  0
  -21.5460  -28.3090   22.8950 C   0  0  0  0  0  3  0  0  0  0  0  0
  -21.6810  -26.9500   22.2960 C   0  0  0  0  0  2  0  0  0  0  0  0
  -20.6150  -26.1870   21.3890 C   0  0  0  0  0  2  0  0  0  0  0  0
  -19.1470  -26.2320   21.5700 C   0  0  0  0  0  2  0  0  0  0  0  0
  -20.2250  -28.4670   23.0010 C   0  0  0  0  0  0  0  0  0  0  0  0
  -19.9650  -29.6390   24.1440 C   0  0  0  0  0  3  0  0  0  0  0  0
  -18.6070  -30.0140   24.8170 C   0  0  0  0  0  2  0  0  0  0  0  0
  -17.3370  -29.1950   24.4530 C   0  0  0  0  0  1  0  0  0  0  0  0
  -17.3900  -27.5680   22.7340 C   0  0  0  0  0  3  0  0  0  0  0  0
  -26.1790  -32.9470   23.3400 C   0  0  0  0  0  3  0  0  0  0  0  0
  -26.7720  -32.1380   24.5490 C   0  0  1  0  0  0  0  0  0  0  0  0
  -25.7590  -31.8930   25.6900 C   0  0  0  0  0  1  0  0  0  0  0  0
  -27.3040  -30.7530   24.1070 C   0  0  0  0  0  1  0  0  0  0  0  0
  -27.9840  -32.9140   25.1110 C   0  0  0  0  0  1  0  0  0  0  0  0
  -25.8950  -34.3380   23.6990 N   0  0  0  0  0  0  0  0  0  0  0  0
  -26.1230  -35.3820   22.8960 C   0  0  0  0  0  0  0  0  0  0  0  0
  -26.6800  -35.2770   21.8000 O   0  0  0  0  0  0  0  0  0  0  0  0
  -25.3800  -34.4910   24.5520 H   0  0  0  0  0  0  0  0  0  0  0  0
  -24.3540  -37.1590   22.7050 C   0  0  0  0  0  1  0  0  0  0  0  0
  -25.6700  -36.7650   23.3930 C   0  0  0  0  0  3  0  0  0  0  0  0
  -27.8800  -37.6350   24.0060 C   0  0  0  0  0  1  0  0  0  0  0  0
  -26.6850  -37.8210   23.1870 N   0  0  0  0  0  0  0  0  0  0  0  0
  -26.2980  -38.7370   23.3950 H   0  0  0  0  0  0  0  0  0  0  0  0
  1  3  1  0
  2  1  2  0
  4  6  1  0
  4  2  1  0
  5  3  1  0
  6 51  1  0
  6 81  1  0
  7  8  2  0
 12 11  2  0
 16 21  1  0
 17 18  1  0
 17 16  1  0
 19 18  1  0
 19 26  1  0
 19 20  1  0
 21 15  1  0
 21 20  1  0
 22 15  1  0
 23 24  2  0
 24 43  1  0
 25 24  1  0
 25 28  1  0
 26 27  1  0
 26 23  1  0
 27 25  2  0
 28 29  1  0
 29 30  2  0
 31 34  1  0
 31 30  1  0
 32 31  2  0
 33 32  1  0
 33 28  2  0
 34 35  1  0
 35 36  1  0
 36 37  2  0
 38 37  1  0
 38 42  1  0
 39 38  2  0
 40 35  2  0
 40 39  1  0
 41 40  1  0
 43 44  1  0
 44 47  1  0
 44 46  1  0
 45 43  2  0
 48 23  1  0
 48 49  1  0
 50 48  1  0
 52 51  1  0
 53 54  1  0
 53 52  1  0
 54 55  1  0
 56 67  2  0
 57 63  1  0
 57 62  1  0
 57 55  1  0
 58 65  1  0
 58 66  1  0
 58 68  1  0
 59 64  1  0
 59 65  1  0
 59 61  1  0
 60 66  1  0
 61 62  1  0
 61 60  1  0
 64 63  1  0
 66 56  1  0
 68 70  2  0
 69 68  1  0
 69 73  1  0
 71 69  1  0
 72 76  1  0
 72 81  1  0
 72 77  1  0
 73 74  1  0
 73 77  1  0
 75 76  1  0
 75 74  1  0
 77 78  2  0
 78 79  1  0
 80 79  1  0
 81  5  1  0
 82 56  1  0
 82 87  1  0
 82 83  1  0
 83 86  1  1
 83 84  1  0
 85 83  1  0
 87 90  1  0
 88 92  1  0
 88 87  1  0
 89 88  2  0
 92 91  1  0
 94 92  1  0
 94 95  1  0
 94 93  1  0
M  ISO  4  14 100  15 100  54 101  55 101
M  END
>  <TORSDO>  (53) 
F 26

>  <SCORE>  (53) 
46.950

>  <name>  (53) 
52

>  <ligand_id>  (53) 
52

>  <original_smiles>  (53) 
[H]c1c([H])c([H])c(C([H])([H])C([H])([H])C([H])([H])C([H])([H])Oc2c([H])c([H])c3c(c2[H])C([H])([H])N(C(=O)C([H])(N([H])C(=O)C([H])(N([H])C([H])([H])[H])C([H])([H])[H])C(C([H])([H])[H])(C([H])([H])[H])C([H])([H])[H])C([H])(C(=O)N([H])C2([H])c4c([H])c([H])c([H])c([H])c4C([H])([H])C([H])([H])C2([H])[H])C3([H])[H])c(C(=O)C([H])([H])C([H])([H])C(=O)C([H])([H])C([H])([H])C(=O)N2C([H])([H])C([H])([H])C([H])([H])C([H])(n3nc(-c4c([H])c([H])c(Oc5c([H])c([H])c(F)c([H])c5F)c([H])c4[H])c(C(=O)N([H])[H])c3N([H])[H])C2([H])[H])c1[H]

>  <smiles>  (53) 
[H]c1c([H])c([H])c(C([H])([H])C([H])([H])C([H])([H])C([H])([H])Oc2c([H])c([H])c3c(c2[H])C([H])([H])N(C(=O)C([H])(N([H])C(=O)C([H])(N([H])C([H])([H])[H])C([H])([H])[H])C(C([H])([H])[H])(C([H])([H])[H])C([H])([H])[H])C([H])(C(=O)N([H])C2([H])c4c([H])c([H])c([H])c([H])c4C([H])([H])C([H])([H])C2([H])[H])C3([H])[H])c(C(=O)C([H])([H])C([H])([H])C(=O)C([H])([H])C([H])([H])C(=O)N2C([H])([H])C([H])([H])C([H])([H])C([H])(n3nc(-c4c([H])c([H])c(Oc5c([H])c([H])c(F)c([H])c5F)c([H])c4[H])c(C(=O)N([H])[H])c3N([H])[H])C2([H])[H])c1[H]

$$$$
53:0:0
     RDKit          3D

100108  0  0  1  0  0  0  0  0999 V2000
  -28.4510  -21.8750   18.9290 C   0  0  0  0  0  3  0  0  0  0  0  0
  -26.3700  -20.6370   19.2190 C   0  0  0  0  0  3  0  0  0  0  0  0
  -29.1450  -20.6670   18.7440 C   0  0  0  0  0  3  0  0  0  0  0  0
  -27.0650  -19.4280   19.0340 C   0  0  0  0  0  3  0  0  0  0  0  0
  -27.0640  -21.8590   19.1720 C   0  0  0  0  0  0  0  0  0  0  0  0
  -28.4610  -19.4320   18.7970 C   0  0  0  0  0  0  0  0  0  0  0  0
  -26.3340  -23.1450   19.4820 C   0  0  0  0  0  2  0  0  0  0  0  0
  -26.3340  -23.3840   21.0060 C   0  0  0  0  0  2  0  0  0  0  0  0
  -26.8290  -24.7810   21.4380 C   0  0  0  0  0  3  0  0  0  0  0  0
  -26.5420  -24.9890   22.8730 N   0  0  0  0  0  4  0  0  0  0  0  0
  -27.0570  -24.3420   23.4450 H   0  0  0  0  0  0  0  0  0  0  0  0
  -25.5640  -24.8610   23.0680 H   0  0  0  0  0  0  0  0  0  0  0  0
  -26.7850  -25.9210   23.1600 H   0  0  0  0  0  0  0  0  0  0  0  0
  -28.3410  -24.9850   21.1340 C   0  0  0  0  0  2  0  0  0  0  0  0
  -28.7960  -26.4510   20.9520 C   0  0  0  0  0  2  0  0  0  0  0  0
  -28.3550  -27.0000   19.7040 O   0  0  0  0  0  0  0  0  0  0  0  0
  -24.5160  -31.8060   23.2580 C   0  0  0  0  0  0  0  0  0  0  0  0
  -27.1900  -27.7170   19.7860 C   0  0  0  0  0  0  0  0  0  0  0  0
  -23.2950  -30.4750   21.5680 C   0  0  0  0  0  3  0  0  0  0  0  0
  -24.7490  -29.1070   19.9830 C   0  0  0  0  0  0  0  0  0  0  0  0
  -25.7930  -30.9610   21.2930 C   0  0  0  0  0  2  0  0  0  0  0  0
  -25.9070  -29.6410   20.5630 C   0  0  0  0  0  0  0  0  0  0  0  0
  -27.1330  -28.9510   20.4690 C   0  0  0  0  0  3  0  0  0  0  0  0
  -26.0280  -27.2000   19.1830 C   0  0  0  0  0  3  0  0  0  0  0  0
  -24.8020  -27.8810   19.2970 C   0  0  0  0  0  3  0  0  0  0  0  0
  -23.4740  -29.9060   20.1340 C   0  0  0  0  0  2  0  0  0  0  0  0
  -24.5550  -31.0900   22.0990 N   0  0  0  0  0  0  0  0  0  0  0  0
  -23.4460  -31.9940   23.8560 O   0  0  0  0  0  0  0  0  0  0  0  0
  -22.7290  -29.3600   22.4750 C   0  0  0  0  0  0  0  0  0  0  0  0
  -21.4330  -29.0550   22.3050 N   0  0  0  0  0  0  0  0  0  0  0  0
  -23.4530  -28.7700   23.2810 O   0  0  0  0  0  0  0  0  0  0  0  0
  -20.9090  -29.5940   21.6280 H   0  0  0  0  0  0  0  0  0  0  0  0
  -18.2010  -27.4590   22.5820 C   0  0  0  0  0  0  0  0  0  0  0  0
  -20.6880  -28.0190   23.0190 C   0  0  0  0  0  3  0  0  0  0  0  0
  -20.9980  -26.6170   22.4450 C   0  0  0  0  0  2  0  0  0  0  0  0
  -20.0100  -26.1760   21.3620 C   0  0  0  0  0  2  0  0  0  0  0  0
  -18.5820  -26.1470   21.9160 C   0  0  0  0  0  2  0  0  0  0  0  0
  -19.1900  -28.3440   23.0860 C   0  0  0  0  0  0  0  0  0  0  0  0
  -18.7880  -29.5670   23.6670 C   0  0  0  0  0  3  0  0  0  0  0  0
  -17.4240  -29.9070   23.7480 C   0  0  0  0  0  3  0  0  0  0  0  0
  -16.4480  -29.0190   23.2650 C   0  0  0  0  0  3  0  0  0  0  0  0
  -16.8350  -27.7960   22.6880 C   0  0  0  0  0  3  0  0  0  0  0  0
  -25.8020  -32.4420   23.8730 C   0  0  0  0  0  3  0  0  0  0  0  0
  -25.4910  -33.8380   24.2020 N   0  0  0  0  0  0  0  0  0  0  0  0
  -25.8390  -34.8910   23.4510 C   0  0  0  0  0  0  0  0  0  0  0  0
  -26.5310  -34.7890   22.4340 O   0  0  0  0  0  0  0  0  0  0  0  0
  -24.8770  -33.9930   24.9900 H   0  0  0  0  0  0  0  0  0  0  0  0
  -24.1270  -36.6900   23.0590 C   0  0  0  0  0  1  0  0  0  0  0  0
  -25.3430  -36.2780   23.9020 C   0  0  0  0  0  3  0  0  0  0  0  0
  -27.4580  -37.1490   24.7920 C   0  0  0  0  0  1  0  0  0  0  0  0
  -26.3820  -37.3290   23.8210 N   0  0  0  0  0  0  0  0  0  0  0  0
  -25.9740  -38.2480   23.9670 H   0  0  0  0  0  0  0  0  0  0  0  0
  -26.3340  -31.6700   25.1420 C   0  0  1  0  0  0  0  0  0  0  0  0
  -25.2500  -31.4150   26.2160 C   0  0  0  0  0  1  0  0  0  0  0  0
  -26.9280  -30.3000   24.7360 C   0  0  0  0  0  1  0  0  0  0  0  0
  -27.4820  -32.4720   25.8000 C   0  0  0  0  0  1  0  0  0  0  0  0
  -29.2440  -18.1280   18.6580 C   0  0  0  0  0  3  0  0  0  0  0  0
  -29.2350  -17.4250   19.9550 N   0  0  0  0  0  4  0  0  0  0  0  0
  -28.5780  -17.9100   20.5440 H   0  0  0  0  0  0  0  0  0  0  0  0
  -28.8570  -16.5070   19.7790 H   0  0  0  0  0  0  0  0  0  0  0  0
  -30.5500  -17.3430   20.6450 C   0  0  0  0  0  2  0  0  0  0  0  0
  -30.6580  -16.1570   21.6420 C   0  0  0  0  0  2  0  0  0  0  0  0
  -31.3890  -14.9490   21.0180 C   0  0  0  0  0  0  0  0  0  0  0  0
  -31.1220  -12.9440   19.6200 C   0  0  0  0  0  2  0  0  0  0  0  0
  -30.2600  -13.3320   18.4000 C   0  0  0  0  0  2  0  0  0  0  0  0
  -28.7560  -13.2140   18.7270 C   0  0  0  0  0  2  0  0  0  0  0  0
  -28.3780  -13.9140   20.0610 C   0  0  0  0  0  3  0  0  0  0  0  0
  -29.3480  -13.4960   21.1850 C   0  0  0  0  0  2  0  0  0  0  0  0
  -30.7150  -13.8050   20.7400 N   0  0  0  0  0  0  0  0  0  0  0  0
  -32.5550  -15.1310   20.6520 O   0  0  0  0  0  0  0  0  0  0  0  0
  -25.9660  -14.5840   20.6460 C   0  0  0  0  0  0  0  0  0  0  0  0
  -24.8440  -13.8310   20.8860 C   0  0  0  0  0  0  0  0  0  0  0  0
  -25.2560  -12.4670   20.7970 C   0  0  0  0  0  0  0  0  0  0  0  0
  -26.9870  -13.6730   20.4280 N   0  0  0  0  0  0  0  0  0  0  0  0
  -26.5600  -12.3940   20.5720 N   0  0  0  0  0  0  0  0  0  0  0  0
  -24.4780  -11.2210   20.8540 C   0  0  0  0  0  0  0  0  0  0  0  0
  -24.8290  -10.1710   21.7320 C   0  0  0  0  0  3  0  0  0  0  0  0
  -24.0560   -8.9900   21.7820 C   0  0  0  0  0  3  0  0  0  0  0  0
  -22.9200   -8.8500   20.9500 C   0  0  0  0  0  0  0  0  0  0  0  0
  -22.5900   -9.8880   20.0630 C   0  0  0  0  0  3  0  0  0  0  0  0
  -23.3610  -11.0610   20.0090 C   0  0  0  0  0  3  0  0  0  0  0  0
  -22.1260   -7.7280   20.9160 O   0  0  0  0  0  0  0  0  0  0  0  0
  -21.9750   -6.9180   22.0150 C   0  0  0  0  0  0  0  0  0  0  0  0
  -21.4820   -7.4110   23.2430 C   0  0  0  0  0  3  0  0  0  0  0  0
  -21.2750   -6.5320   24.3250 C   0  0  0  0  0  3  0  0  0  0  0  0
  -21.5490   -5.1580   24.1770 C   0  0  0  0  0  0  0  0  0  0  0  0
  -22.0360   -4.6630   22.9540 C   0  0  0  0  0  3  0  0  0  0  0  0
  -22.2450   -5.5420   21.8760 C   0  0  0  0  0  0  0  0  0  0  0  0
  -22.6950   -5.0580   20.6920 F   0  0  0  0  0  0  0  0  0  0  0  0
  -21.3440   -4.3110   25.2120 F   0  0  0  0  0  0  0  0  0  0  0  0
  -23.4490  -14.3440   21.0960 C   0  0  0  0  0  0  0  0  0  0  0  0
  -22.6370  -13.6250   21.8640 N   0  0  0  0  0  0  0  0  0  0  0  0
  -23.0860  -15.4130   20.6150 O   0  0  0  0  0  0  0  0  0  0  0  0
  -22.9450  -12.7670   22.2970 H   0  0  0  0  0  0  0  0  0  0  0  0
  -21.6960  -13.9530   22.0290 H   0  0  0  0  0  0  0  0  0  0  0  0
  -26.2100  -15.9540   20.5800 N   0  0  0  0  0  0  0  0  0  0  0  0
  -25.3120  -16.4060   20.4310 H   0  0  0  0  0  0  0  0  0  0  0  0
  -26.4830  -16.2530   21.5100 H   0  0  0  0  0  0  0  0  0  0  0  0
  -28.8590  -17.8120   16.1320 C   0  0  0  0  0  1  0  0  0  0  0  0
  -28.7330  -17.2020   17.5320 C   0  0  0  0  0  2  0  0  0  0  0  0
  1  5  1  0
  3  6  1  0
  3  1  2  0
  4  2  1  0
  5  2  2  0
  5  7  1  0
  6  4  2  0
  7  8  1  0
  9  8  1  0
  9 10  1  0
 10 12  1  0
 10 13  1  0
 10 11  1  0
 14  9  1  0
 15 14  1  0
 16 18  1  0
 16 15  1  0
 17 28  2  0
 18 23  1  0
 19 27  1  0
 19 29  1  0
 20 26  1  0
 20 22  1  0
 21 27  1  0
 22 21  1  0
 23 22  2  0
 24 25  1  0
 24 18  2  0
 25 20  2  0
 26 19  1  0
 27 17  1  0
 29 31  2  0
 30 29  1  0
 32 30  1  0
 33 42  2  0
 33 38  1  0
 34 30  1  0
 34 38  1  0
 35 34  1  0
 36 37  1  0
 36 35  1  0
 37 33  1  0
 38 39  2  0
 39 40  1  0
 41 40  2  0
 42 41  1  0
 43 17  1  0
 43 44  1  0
 43 53  1  0
 44 47  1  0
 45 49  1  0
 45 44  1  0
 46 45  2  0
 49 48  1  0
 51 49  1  0
 51 52  1  0
 51 50  1  0
 53 56  1  1
 53 54  1  0
 55 53  1  0
 57100  1  0
 57  6  1  0
 57 58  1  0
 58 59  1  0
 58 61  1  0
 60 58  1  0
 61 62  1  0
 63 62  1  0
 64 69  1  0
 65 66  1  0
 65 64  1  0
 67 66  1  0
 67 74  1  0
 67 68  1  0
 69 63  1  0
 69 68  1  0
 70 63  2  0
 71 72  2  0
 72 91  1  0
 73 76  1  0
 73 72  1  0
 74 75  1  0
 74 71  1  0
 75 73  2  0
 76 77  1  0
 77 78  2  0
 79 78  1  0
 80 79  2  0
 81 80  1  0
 81 76  2  0
 82 79  1  0
 82 83  1  0
 83 84  1  0
 84 85  2  0
 86 85  1  0
 86 90  1  0
 87 86  2  0
 88 83  2  0
 88 87  1  0
 89 88  1  0
 91 92  1  0
 92 95  1  0
 92 94  1  0
 93 91  2  0
 96 71  1  0
 96 98  1  0
 97 96  1  0
 99100  1  0
M  ISO  4  15 101  16 101  62 100  63 100
M  END
>  <TORSDO>  (54) 
F 27

>  <SCORE>  (54) 
-8.648

>  <name>  (54) 
53

>  <ligand_id>  (54) 
53

>  <original_smiles>  (54) 
[H]c1c([H])c([H])c2c(c1[H])C([H])([H])C([H])([H])C([H])([H])C2([H])N([H])C(=O)C1([H])N(C(=O)C([H])(N([H])C(=O)C([H])(N([H])C([H])([H])[H])C([H])([H])[H])C(C([H])([H])[H])(C([H])([H])[H])C([H])([H])[H])C([H])([H])c2c([H])c(OC([H])([H])C([H])([H])C([H])(C([H])([H])C([H])([H])c3c([H])c([H])c(C([H])(C([H])([H])C([H])([H])[H])[N+]([H])([H])C([H])([H])C([H])([H])C(=O)N4C([H])([H])C([H])([H])C([H])([H])C([H])(n5nc(-c6c([H])c([H])c(Oc7c([H])c([H])c(F)c([H])c7F)c([H])c6[H])c(C(=O)N([H])[H])c5N([H])[H])C4([H])[H])c([H])c3[H])[N+]([H])([H])[H])c([H])c([H])c2C1([H])[H]

>  <smiles>  (54) 
[H]c1c([H])c([H])c2c(c1[H])C([H])([H])C([H])([H])C([H])([H])C2([H])N([H])C(=O)C1([H])N(C(=O)C([H])(N([H])C(=O)C([H])(N([H])C([H])([H])[H])C([H])([H])[H])C(C([H])([H])[H])(C([H])([H])[H])C([H])([H])[H])C([H])([H])c2c([H])c(OC([H])([H])C([H])([H])C([H])(C([H])([H])C([H])([H])c3c([H])c([H])c(C([H])(C([H])([H])C([H])([H])[H])[N+]([H])([H])C([H])([H])C([H])([H])C(=O)N4C([H])([H])C([H])([H])C([H])([H])C([H])(n5nc(-c6c([H])c([H])c(Oc7c([H])c([H])c(F)c([H])c7F)c([H])c6[H])c(C(=O)N([H])[H])c5N([H])[H])C4([H])[H])c([H])c3[H])[N+]([H])([H])[H])c([H])c([H])c2C1([H])[H]

$$$$
54:0:0
     RDKit          3D

 97105  0  0  1  0  0  0  0  0999 V2000
  -30.5770  -22.0550   20.8180 C   0  0  0  0  0  3  0  0  0  0  0  0
  -30.0040  -22.6090   19.6610 C   0  0  0  0  0  3  0  0  0  0  0  0
  -29.6040  -23.8490   22.1450 C   0  0  0  0  0  3  0  0  0  0  0  0
  -30.3480  -22.6520   22.0720 C   0  0  0  0  0  0  0  0  0  0  0  0
  -29.1900  -23.7610   19.7410 C   0  0  0  0  0  0  0  0  0  0  0  0
  -29.0130  -24.4170   20.9920 C   0  0  0  0  0  0  0  0  0  0  0  0
  -30.8900  -22.0380   23.3090 C   0  0  0  0  0  0  0  0  0  0  0  0
  -31.4620  -22.6800   24.1950 O   0  0  0  0  0  0  0  0  0  0  0  0
  -30.6070  -20.5420   23.5070 C   0  0  0  0  0  2  0  0  0  0  0  0
  -31.8440  -19.6260   23.3820 C   0  0  0  0  0  2  0  0  0  0  0  0
  -31.7780  -18.6170   22.2200 C   0  0  0  0  0  2  0  0  0  0  0  0
  -30.6910  -17.5280   22.3580 C   0  0  0  0  0  2  0  0  0  0  0  0
  -30.8390  -16.4850   21.2390 C   0  0  0  0  0  2  0  0  0  0  0  0
  -29.9380  -15.2240   21.3400 C   0  0  0  0  0  2  0  0  0  0  0  0
  -30.3270  -14.1650   20.2880 C   0  0  0  0  0  0  0  0  0  0  0  0
  -29.9320  -12.0580   19.0690 C   0  0  0  0  0  2  0  0  0  0  0  0
  -28.9250  -12.2800   17.9260 C   0  0  0  0  0  2  0  0  0  0  0  0
  -27.4900  -12.0830   18.4430 C   0  0  0  0  0  2  0  0  0  0  0  0
  -27.2050  -12.8930   19.7380 C   0  0  0  0  0  3  0  0  0  0  0  0
  -28.3320  -12.7060   20.7840 C   0  0  0  0  0  2  0  0  0  0  0  0
  -29.6170  -13.0150   20.1410 N   0  0  0  0  0  0  0  0  0  0  0  0
  -31.3080  -14.4060   19.5800 O   0  0  0  0  0  0  0  0  0  0  0  0
  -24.8150  -13.3970   20.5540 C   0  0  0  0  0  0  0  0  0  0  0  0
  -23.8010  -12.5800   20.9800 C   0  0  0  0  0  0  0  0  0  0  0  0
  -24.3200  -11.2490   20.9330 C   0  0  0  0  0  0  0  0  0  0  0  0
  -25.8880  -12.5620   20.2830 N   0  0  0  0  0  0  0  0  0  0  0  0
  -25.5950  -11.2660   20.5650 N   0  0  0  0  0  0  0  0  0  0  0  0
  -23.6600   -9.9580   21.1660 C   0  0  0  0  0  0  0  0  0  0  0  0
  -24.1660   -9.0280   22.1020 C   0  0  0  0  0  3  0  0  0  0  0  0
  -23.5030   -7.8020   22.3220 C   0  0  0  0  0  3  0  0  0  0  0  0
  -22.3210   -7.4940   21.6080 C   0  0  0  0  0  0  0  0  0  0  0  0
  -21.8370   -8.4120   20.6600 C   0  0  0  0  0  3  0  0  0  0  0  0
  -22.4990   -9.6310   20.4370 C   0  0  0  0  0  3  0  0  0  0  0  0
  -21.6270   -6.3150   21.7340 O   0  0  0  0  0  0  0  0  0  0  0  0
  -21.6390   -5.5970   22.9030 C   0  0  0  0  0  0  0  0  0  0  0  0
  -21.2190   -6.1600   24.1280 C   0  0  0  0  0  3  0  0  0  0  0  0
  -21.1800   -5.3650   25.2920 C   0  0  0  0  0  3  0  0  0  0  0  0
  -21.5530   -4.0090   25.2320 C   0  0  0  0  0  0  0  0  0  0  0  0
  -21.9640   -3.4450   24.0120 C   0  0  0  0  0  3  0  0  0  0  0  0
  -22.0030   -4.2370   22.8510 C   0  0  0  0  0  0  0  0  0  0  0  0
  -22.3820   -3.6810   21.6740 F   0  0  0  0  0  0  0  0  0  0  0  0
  -21.5070   -3.2460   26.3480 F   0  0  0  0  0  0  0  0  0  0  0  0
  -22.3990  -12.9970   21.3190 C   0  0  0  0  0  0  0  0  0  0  0  0
  -21.7490  -12.2760   22.2260 N   0  0  0  0  0  0  0  0  0  0  0  0
  -21.8910  -13.9980   20.8160 O   0  0  0  0  0  0  0  0  0  0  0  0
  -22.1740  -11.4650   22.6500 H   0  0  0  0  0  0  0  0  0  0  0  0
  -20.8110  -12.5390   22.4960 H   0  0  0  0  0  0  0  0  0  0  0  0
  -24.9110  -14.7710   20.3620 N   0  0  0  0  0  0  0  0  0  0  0  0
  -24.1260  -15.3970   20.5070 H   0  0  0  0  0  0  0  0  0  0  0  0
  -25.7330  -15.2440   20.0070 H   0  0  0  0  0  0  0  0  0  0  0  0
  -28.4980  -24.2150   18.4690 C   0  0  0  0  0  2  0  0  0  0  0  0
  -28.8060  -25.6060   16.4560 C   0  0  0  0  0  1  0  0  0  0  0  0
  -29.2170  -25.3340   17.8450 N   0  0  0  0  0  4  0  0  0  0  0  0
  -29.0760  -26.1540   18.4160 H   0  0  0  0  0  0  0  0  0  0  0  0
  -30.2000  -25.1190   17.8570 H   0  0  0  0  0  0  0  0  0  0  0  0
  -28.1080  -25.6380   21.1800 C   0  0  0  0  0  2  0  0  0  0  0  0
  -28.1780  -26.6190   20.1390 O   0  0  0  0  0  0  0  0  0  0  0  0
  -24.5100  -31.8840   23.2330 C   0  0  0  0  0  0  0  0  0  0  0  0
  -27.0570  -27.4150   20.1290 C   0  0  0  0  0  0  0  0  0  0  0  0
  -23.2700  -30.5090   21.5970 C   0  0  0  0  0  3  0  0  0  0  0  0
  -24.6930  -28.9540   20.1600 C   0  0  0  0  0  0  0  0  0  0  0  0
  -25.8030  -30.8240   21.3870 C   0  0  0  0  0  2  0  0  0  0  0  0
  -25.8650  -29.4570   20.7420 C   0  0  0  0  0  0  0  0  0  0  0  0
  -27.0560  -28.6930   20.7310 C   0  0  0  0  0  3  0  0  0  0  0  0
  -25.8740  -26.9300   19.5340 C   0  0  0  0  0  3  0  0  0  0  0  0
  -24.6910  -27.6890   19.5530 C   0  0  0  0  0  3  0  0  0  0  0  0
  -23.4620  -29.8320   20.2150 C   0  0  0  0  0  2  0  0  0  0  0  0
  -24.5470  -31.0860   22.1310 N   0  0  0  0  0  0  0  0  0  0  0  0
  -23.4370  -32.1740   23.7780 O   0  0  0  0  0  0  0  0  0  0  0  0
  -22.6080  -29.4940   22.5560 C   0  0  0  0  0  0  0  0  0  0  0  0
  -21.2800  -29.3310   22.4310 N   0  0  0  0  0  0  0  0  0  0  0  0
  -23.2850  -28.8590   23.3690 O   0  0  0  0  0  0  0  0  0  0  0  0
  -20.7940  -29.8910   21.7430 H   0  0  0  0  0  0  0  0  0  0  0  0
  -17.8860  -28.2000   22.9470 C   0  0  0  0  0  0  0  0  0  0  0  0
  -20.4520  -28.4090   23.2060 C   0  0  0  0  0  3  0  0  0  0  0  0
  -20.5230  -26.9780   22.6270 C   0  0  0  0  0  2  0  0  0  0  0  0
  -19.4110  -26.6740   21.6180 C   0  0  0  0  0  2  0  0  0  0  0  0
  -18.0350  -26.8470   22.2680 C   0  0  0  0  0  2  0  0  0  0  0  0
  -19.0230  -28.9390   23.3700 C   0  0  0  0  0  0  0  0  0  0  0  0
  -18.8330  -30.2050   23.9660 C   0  0  0  0  0  3  0  0  0  0  0  0
  -17.5400  -30.7360   24.1360 C   0  0  0  0  0  3  0  0  0  0  0  0
  -16.4190  -29.9940   23.7300 C   0  0  0  0  0  3  0  0  0  0  0  0
  -16.5930  -28.7270   23.1450 C   0  0  0  0  0  3  0  0  0  0  0  0
  -25.8090  -32.4930   23.8450 C   0  0  0  0  0  3  0  0  0  0  0  0
  -26.3220  -31.7170   25.1170 C   0  0  1  0  0  0  0  0  0  0  0  0
  -25.2310  -31.4900   26.1890 C   0  0  0  0  0  1  0  0  0  0  0  0
  -26.8870  -30.3320   24.7200 C   0  0  0  0  0  1  0  0  0  0  0  0
  -27.4860  -32.4950   25.7740 C   0  0  0  0  0  1  0  0  0  0  0  0
  -25.5260  -33.8970   24.1690 N   0  0  0  0  0  0  0  0  0  0  0  0
  -25.8760  -34.9400   23.4040 C   0  0  0  0  0  0  0  0  0  0  0  0
  -26.5470  -34.8200   22.3740 O   0  0  0  0  0  0  0  0  0  0  0  0
  -24.9350  -34.0690   24.9700 H   0  0  0  0  0  0  0  0  0  0  0  0
  -24.1810  -36.7580   23.0390 C   0  0  0  0  0  1  0  0  0  0  0  0
  -25.4150  -36.3390   23.8540 C   0  0  0  0  0  3  0  0  0  0  0  0
  -27.5640  -37.1840   24.6820 C   0  0  0  0  0  1  0  0  0  0  0  0
  -26.4660  -37.3730   23.7390 N   0  0  0  0  0  0  0  0  0  0  0  0
  -26.0750  -38.3000   23.8850 H   0  0  0  0  0  0  0  0  0  0  0  0
  1  4  1  0
  2  5  1  0
  2  1  2  0
  4  3  2  0
  4  7  1  0
  5  6  2  0
  6 56  1  0
  6  3  1  0
  7  9  1  0
  7  8  2  0
 10  9  1  0
 11 12  1  0
 11 10  1  0
 13 14  1  0
 13 12  1  0
 15 14  1  0
 16 21  1  0
 17 18  1  0
 17 16  1  0
 19 18  1  0
 19 26  1  0
 19 20  1  0
 21 15  1  0
 21 20  1  0
 22 15  2  0
 23 24  2  0
 24 43  1  0
 25 24  1  0
 25 28  1  0
 26 23  1  0
 26 27  1  0
 27 25  2  0
 28 29  1  0
 29 30  2  0
 31 34  1  0
 31 30  1  0
 32 31  2  0
 33 32  1  0
 33 28  2  0
 34 35  1  0
 35 36  1  0
 36 37  2  0
 38 37  1  0
 38 42  1  0
 39 38  2  0
 40 35  2  0
 40 39  1  0
 41 40  1  0
 43 44  1  0
 44 47  1  0
 44 46  1  0
 45 43  2  0
 48 49  1  0
 48 23  1  0
 50 48  1  0
 51  5  1  0
 52 53  1  0
 53 55  1  0
 53 54  1  0
 53 51  1  0
 57 56  1  0
 58 69  2  0
 59 57  1  0
 59 64  1  0
 60 68  1  0
 60 70  1  0
 61 67  1  0
 61 63  1  0
 62 68  1  0
 63 62  1  0
 64 63  2  0
 65 66  1  0
 65 59  2  0
 66 61  2  0
 67 60  1  0
 68 58  1  0
 70 72  2  0
 71 70  1  0
 73 71  1  0
 74 83  2  0
 74 79  1  0
 75 71  1  0
 75 79  1  0
 76 75  1  0
 77 78  1  0
 77 76  1  0
 78 74  1  0
 79 80  2  0
 80 81  1  0
 82 81  2  0
 83 82  1  0
 84 58  1  0
 84 89  1  0
 84 85  1  0
 85 88  1  1
 85 86  1  0
 87 85  1  0
 89 92  1  0
 90 94  1  0
 90 89  1  0
 91 90  2  0
 94 93  1  0
 96 94  1  0
 96 97  1  0
 96 95  1  0
M  ISO  4  14 100  15 100  56 101  57 101
M  END
>  <TORSDO>  (55) 
F 26

>  <SCORE>  (55) 
-10.323

>  <name>  (55) 
54

>  <ligand_id>  (55) 
54

>  <original_smiles>  (55) 
[H]c1c([H])c([H])c2c(c1[H])C([H])([H])C([H])([H])C([H])([H])C2([H])N([H])C(=O)C1([H])N(C(=O)C([H])(N([H])C(=O)C([H])(N([H])C([H])([H])[H])C([H])([H])[H])C(C([H])([H])[H])(C([H])([H])[H])C([H])([H])[H])C([H])([H])c2c([H])c(OC([H])([H])c3c([H])c(C(=O)C([H])([H])C([H])([H])C([H])([H])C([H])([H])C([H])([H])C([H])([H])C(=O)N4C([H])([H])C([H])([H])C([H])([H])C([H])(n5nc(-c6c([H])c([H])c(Oc7c([H])c([H])c(F)c([H])c7F)c([H])c6[H])c(C(=O)N([H])[H])c5N([H])[H])C4([H])[H])c([H])c([H])c3C([H])([H])[N+]([H])([H])C([H])([H])[H])c([H])c([H])c2C1([H])[H]

>  <smiles>  (55) 
[H]c1c([H])c([H])c2c(c1[H])C([H])([H])C([H])([H])C([H])([H])C2([H])N([H])C(=O)C1([H])N(C(=O)C([H])(N([H])C(=O)C([H])(N([H])C([H])([H])[H])C([H])([H])[H])C(C([H])([H])[H])(C([H])([H])[H])C([H])([H])[H])C([H])([H])c2c([H])c(OC([H])([H])c3c([H])c(C(=O)C([H])([H])C([H])([H])C([H])([H])C([H])([H])C([H])([H])C([H])([H])C(=O)N4C([H])([H])C([H])([H])C([H])([H])C([H])(n5nc(-c6c([H])c([H])c(Oc7c([H])c([H])c(F)c([H])c7F)c([H])c6[H])c(C(=O)N([H])[H])c5N([H])[H])C4([H])[H])c([H])c([H])c3C([H])([H])[N+]([H])([H])C([H])([H])[H])c([H])c([H])c2C1([H])[H]

$$$$
55:0:0
     RDKit          3D

 88 95  0  0  1  0  0  0  0  0999 V2000
  -28.1900  -25.2830   21.6740 C   0  0  0  0  0  3  0  0  0  0  0  0
  -27.8660  -24.0800   22.1840 C   0  0  0  0  0  0  0  0  0  0  0  0
  -27.5890  -23.9090   23.6670 C   0  0  0  0  0  1  0  0  0  0  0  0
  -28.4970  -25.6110   20.2230 C   0  0  0  0  0  2  0  0  0  0  0  0
  -28.4950  -27.0210   20.0040 O   0  0  0  0  0  0  0  0  0  0  0  0
  -24.6380  -32.0010   23.2750 C   0  0  0  0  0  0  0  0  0  0  0  0
  -27.2850  -27.6730   20.0610 C   0  0  0  0  0  0  0  0  0  0  0  0
  -23.4160  -30.6100   21.6350 C   0  0  0  0  0  3  0  0  0  0  0  0
  -24.8590  -29.1150   20.1590 C   0  0  0  0  0  0  0  0  0  0  0  0
  -25.9270  -31.0170   21.3860 C   0  0  0  0  0  2  0  0  0  0  0  0
  -26.0190  -29.6590   20.7240 C   0  0  0  0  0  0  0  0  0  0  0  0
  -27.2350  -28.9460   20.6680 C   0  0  0  0  0  3  0  0  0  0  0  0
  -26.1070  -27.1320   19.5010 C   0  0  0  0  0  3  0  0  0  0  0  0
  -24.8960  -27.8490   19.5470 C   0  0  0  0  0  3  0  0  0  0  0  0
  -23.6030  -29.9510   20.2420 C   0  0  0  0  0  2  0  0  0  0  0  0
  -24.6790  -31.2220   22.1570 N   0  0  0  0  0  0  0  0  0  0  0  0
  -23.5660  -32.2480   23.8430 O   0  0  0  0  0  0  0  0  0  0  0  0
  -22.8010  -29.5640   22.5930 C   0  0  0  0  0  0  0  0  0  0  0  0
  -21.4800  -29.3530   22.4780 N   0  0  0  0  0  0  0  0  0  0  0  0
  -23.5080  -28.9450   23.3910 O   0  0  0  0  0  0  0  0  0  0  0  0
  -20.9670  -29.9040   21.8020 H   0  0  0  0  0  0  0  0  0  0  0  0
  -18.1460  -28.0560   22.9680 C   0  0  0  0  0  0  0  0  0  0  0  0
  -20.6940  -28.3880   23.2450 C   0  0  0  0  0  3  0  0  0  0  0  0
  -20.8420  -26.9630   22.6630 C   0  0  0  0  0  2  0  0  0  0  0  0
  -19.7490  -26.6100   21.6480 C   0  0  0  0  0  2  0  0  0  0  0  0
  -18.3650  -26.7130   22.2920 C   0  0  0  0  0  2  0  0  0  0  0  0
  -19.2410  -28.8490   23.4030 C   0  0  0  0  0  0  0  0  0  0  0  0
  -18.9860  -30.1050   23.9950 C   0  0  0  0  0  3  0  0  0  0  0  0
  -17.6670  -30.5690   24.1590 C   0  0  0  0  0  3  0  0  0  0  0  0
  -16.5860  -29.7720   23.7420 C   0  0  0  0  0  3  0  0  0  0  0  0
  -16.8270  -28.5180   23.1530 C   0  0  0  0  0  3  0  0  0  0  0  0
  -25.9310  -32.6370   23.8770 C   0  0  0  0  0  3  0  0  0  0  0  0
  -25.6210  -34.0350   24.2050 N   0  0  0  0  0  0  0  0  0  0  0  0
  -25.9450  -35.0850   23.4380 C   0  0  0  0  0  0  0  0  0  0  0  0
  -26.6050  -34.9780   22.4020 O   0  0  0  0  0  0  0  0  0  0  0  0
  -25.0320  -34.1900   25.0100 H   0  0  0  0  0  0  0  0  0  0  0  0
  -24.2020  -36.8650   23.0960 C   0  0  0  0  0  1  0  0  0  0  0  0
  -25.4560  -36.4730   23.8930 C   0  0  0  0  0  3  0  0  0  0  0  0
  -27.5990  -37.3710   24.6880 C   0  0  0  0  0  1  0  0  0  0  0  0
  -26.4820  -37.5300   23.7600 N   0  0  0  0  0  0  0  0  0  0  0  0
  -26.0750  -38.4490   23.9090 H   0  0  0  0  0  0  0  0  0  0  0  0
  -26.4700  -31.8690   25.1460 C   0  0  1  0  0  0  0  0  0  0  0  0
  -25.3930  -31.6250   26.2280 C   0  0  0  0  0  1  0  0  0  0  0  0
  -27.0530  -30.4950   24.7440 C   0  0  0  0  0  1  0  0  0  0  0  0
  -27.6250  -32.6700   25.7910 C   0  0  0  0  0  1  0  0  0  0  0  0
  -27.7530  -22.8030   21.3630 C   0  0  0  0  0  2  0  0  0  0  0  0
  -29.0250  -21.9380   21.4330 C   0  0  0  0  0  2  0  0  0  0  0  0
  -28.7710  -20.5040   20.9470 C   0  0  0  0  0  2  0  0  0  0  0  0
  -30.0260  -19.6150   20.9420 C   0  0  0  0  0  2  0  0  0  0  0  0
  -29.6440  -18.1270   20.9400 C   0  0  0  0  0  2  0  0  0  0  0  0
  -30.8200  -17.1540   20.7420 C   0  0  0  0  0  2  0  0  0  0  0  0
  -30.3910  -15.7040   21.0640 C   0  0  0  0  0  2  0  0  0  0  0  0
  -31.0340  -14.5950   20.2080 C   0  0  0  0  0  0  0  0  0  0  0  0
  -30.7040  -12.4580   19.0050 C   0  0  0  0  0  2  0  0  0  0  0  0
  -29.7420  -12.6780   17.8190 C   0  0  0  0  0  2  0  0  0  0  0  0
  -28.2700  -12.5710   18.2670 C   0  0  0  0  0  2  0  0  0  0  0  0
  -27.9680  -13.4200   19.5320 C   0  0  0  0  0  3  0  0  0  0  0  0
  -29.0280  -13.1440   20.6230 C   0  0  0  0  0  2  0  0  0  0  0  0
  -30.3530  -13.4300   20.0480 N   0  0  0  0  0  0  0  0  0  0  0  0
  -32.1130  -14.8140   19.6440 O   0  0  0  0  0  0  0  0  0  0  0  0
  -25.5850  -14.0990   20.2430 C   0  0  0  0  0  0  0  0  0  0  0  0
  -24.5030  -13.3580   20.6330 C   0  0  0  0  0  0  0  0  0  0  0  0
  -24.9330  -11.9950   20.6200 C   0  0  0  0  0  0  0  0  0  0  0  0
  -26.6100  -13.1890   20.0210 N   0  0  0  0  0  0  0  0  0  0  0  0
  -26.2190  -11.9200   20.3010 N   0  0  0  0  0  0  0  0  0  0  0  0
  -24.1810  -10.7520   20.8370 C   0  0  0  0  0  0  0  0  0  0  0  0
  -24.5940   -9.7990   21.7950 C   0  0  0  0  0  3  0  0  0  0  0  0
  -23.8460   -8.6200   21.9980 C   0  0  0  0  0  3  0  0  0  0  0  0
  -22.6710   -8.3860   21.2450 C   0  0  0  0  0  0  0  0  0  0  0  0
  -22.2780   -9.3280   20.2780 C   0  0  0  0  0  3  0  0  0  0  0  0
  -23.0260  -10.4990   20.0720 C   0  0  0  0  0  3  0  0  0  0  0  0
  -21.8950   -7.2570   21.3560 O   0  0  0  0  0  0  0  0  0  0  0  0
  -21.8090   -6.5570   22.5330 C   0  0  0  0  0  0  0  0  0  0  0  0
  -21.3860   -7.1670   23.7330 C   0  0  0  0  0  3  0  0  0  0  0  0
  -21.2450   -6.3940   24.9040 C   0  0  0  0  0  3  0  0  0  0  0  0
  -21.5160   -5.0130   24.8740 C   0  0  0  0  0  0  0  0  0  0  0  0
  -21.9320   -4.4040   23.6760 C   0  0  0  0  0  3  0  0  0  0  0  0
  -22.0750   -5.1730   22.5090 C   0  0  0  0  0  0  0  0  0  0  0  0
  -22.4550   -4.5770   21.3540 F   0  0  0  0  0  0  0  0  0  0  0  0
  -21.3730   -4.2690   25.9950 F   0  0  0  0  0  0  0  0  0  0  0  0
  -23.1180  -13.8700   20.9130 C   0  0  0  0  0  0  0  0  0  0  0  0
  -22.3890  -13.2090   21.8060 N   0  0  0  0  0  0  0  0  0  0  0  0
  -22.6930  -14.8900   20.3730 O   0  0  0  0  0  0  0  0  0  0  0  0
  -22.7460  -12.3840   22.2640 H   0  0  0  0  0  0  0  0  0  0  0  0
  -21.4600  -13.5350   22.0330 H   0  0  0  0  0  0  0  0  0  0  0  0
  -25.7770  -15.4620   20.0400 N   0  0  0  0  0  0  0  0  0  0  0  0
  -25.0270  -16.1360   20.1470 H   0  0  0  0  0  0  0  0  0  0  0  0
  -26.6400  -15.8780   19.7120 H   0  0  0  0  0  0  0  0  0  0  0  0
  1  2  2  0
  2  3  1  0
  4  1  1  0
  5  7  1  0
  5  4  1  0
  6 17  2  0
  7 12  1  0
  8 16  1  0
  8 18  1  0
  9 15  1  0
  9 11  1  0
 10 16  1  0
 11 10  1  0
 12 11  2  0
 13 14  1  0
 13  7  2  0
 14  9  2  0
 15  8  1  0
 16  6  1  0
 18 20  2  0
 19 18  1  0
 21 19  1  0
 22 31  2  0
 22 27  1  0
 23 19  1  0
 23 27  1  0
 24 23  1  0
 25 26  1  0
 25 24  1  0
 26 22  1  0
 27 28  2  0
 28 29  1  0
 30 29  2  0
 31 30  1  0
 32  6  1  0
 32 33  1  0
 32 42  1  0
 33 36  1  0
 34 38  1  0
 34 33  1  0
 35 34  2  0
 38 37  1  0
 40 38  1  0
 40 41  1  0
 40 39  1  0
 42 45  1  1
 42 43  1  0
 44 42  1  0
 46 47  1  0
 46  2  1  0
 48 47  1  0
 49 48  1  0
 50 49  1  0
 51 50  1  0
 51 52  1  0
 53 52  1  0
 54 59  1  0
 55 56  1  0
 55 54  1  0
 57 56  1  0
 57 64  1  0
 57 58  1  0
 59 53  1  0
 59 58  1  0
 60 53  2  0
 61 62  2  0
 62 81  1  0
 63 62  1  0
 63 66  1  0
 64 61  1  0
 64 65  1  0
 65 63  2  0
 66 67  1  0
 67 68  2  0
 69 72  1  0
 69 68  1  0
 70 69  2  0
 71 70  1  0
 71 66  2  0
 72 73  1  0
 73 74  1  0
 74 75  2  0
 76 75  1  0
 76 80  1  0
 77 76  2  0
 78 73  2  0
 78 77  1  0
 79 78  1  0
 81 82  1  0
 82 85  1  0
 82 84  1  0
 83 81  2  0
 86 87  1  0
 86 61  1  0
 88 86  1  0
M  ISO  4   4 101   5 101  52 100  53 100
M  END
>  <TORSDO>  (56) 
F 24

>  <SCORE>  (56) 
-10.141

>  <name>  (56) 
55

>  <ligand_id>  (56) 
55

>  <original_smiles>  (56) 
[H]C(=C(C([H])([H])[H])C([H])([H])C([H])([H])C([H])([H])C([H])([H])C([H])([H])C([H])([H])C([H])([H])C(=O)N1C([H])([H])C([H])([H])C([H])([H])C([H])(n2nc(-c3c([H])c([H])c(Oc4c([H])c([H])c(F)c([H])c4F)c([H])c3[H])c(C(=O)N([H])[H])c2N([H])[H])C1([H])[H])C([H])([H])Oc1c([H])c([H])c2c(c1[H])C([H])([H])N(C(=O)C([H])(N([H])C(=O)C([H])(N([H])C([H])([H])[H])C([H])([H])[H])C(C([H])([H])[H])(C([H])([H])[H])C([H])([H])[H])C([H])(C(=O)N([H])C1([H])c3c([H])c([H])c([H])c([H])c3C([H])([H])C([H])([H])C1([H])[H])C2([H])[H]

>  <smiles>  (56) 
[H]C(=C(C([H])([H])[H])C([H])([H])C([H])([H])C([H])([H])C([H])([H])C([H])([H])C([H])([H])C([H])([H])C(=O)N1C([H])([H])C([H])([H])C([H])([H])C([H])(n2nc(-c3c([H])c([H])c(Oc4c([H])c([H])c(F)c([H])c4F)c([H])c3[H])c(C(=O)N([H])[H])c2N([H])[H])C1([H])[H])C([H])([H])Oc1c([H])c([H])c2c(c1[H])C([H])([H])N(C(=O)C([H])(N([H])C(=O)C([H])(N([H])C([H])([H])[H])C([H])([H])[H])C(C([H])([H])[H])(C([H])([H])[H])C([H])([H])[H])C([H])(C(=O)N([H])C1([H])c3c([H])c([H])c([H])c([H])c3C([H])([H])C([H])([H])C1([H])[H])C2([H])[H]

$$$$
56:0:0
     RDKit          3D

 91 99  0  0  1  0  0  0  0  0999 V2000
  -28.5460  -22.0850   18.9110 C   0  0  0  0  0  3  0  0  0  0  0  0
  -29.3410  -23.1200   18.5770 C   0  0  0  0  0  3  0  0  0  0  0  0
  -30.3460  -20.3440   18.8970 C   0  0  0  0  0  3  0  0  0  0  0  0
  -28.1880  -19.8060   19.8790 C   0  0  0  0  0  3  0  0  0  0  0  0
  -30.7910  -19.0450   19.1720 C   0  0  0  0  0  3  0  0  0  0  0  0
  -28.6380  -18.4970   20.1620 C   0  0  0  0  0  3  0  0  0  0  0  0
  -29.0310  -20.7330   19.2260 C   0  0  0  0  0  0  0  0  0  0  0  0
  -29.9390  -18.1060   19.7870 C   0  0  0  0  0  0  0  0  0  0  0  0
  -30.4760  -16.7550   19.9450 C   0  0  0  0  0  3  0  0  0  0  0  0
  -29.9400  -15.6630   20.5330 C   0  0  0  0  0  3  0  0  0  0  0  0
  -30.7100  -14.4280   20.4270 C   0  0  0  0  0  0  0  0  0  0  0  0
  -30.3450  -12.2670   19.3640 C   0  0  0  0  0  2  0  0  0  0  0  0
  -29.4310  -12.5090   18.1440 C   0  0  0  0  0  2  0  0  0  0  0  0
  -27.9500  -12.4030   18.5570 C   0  0  0  0  0  2  0  0  0  0  0  0
  -27.6110  -13.2480   19.8150 C   0  0  0  0  0  3  0  0  0  0  0  0
  -28.6580  -13.0410   20.9330 C   0  0  0  0  0  2  0  0  0  0  0  0
  -29.9950  -13.2760   20.3740 N   0  0  0  0  0  0  0  0  0  0  0  0
  -31.9080  -14.4560   20.1340 O   0  0  0  0  0  0  0  0  0  0  0  0
  -25.2120  -13.8650   20.5120 C   0  0  0  0  0  0  0  0  0  0  0  0
  -24.1410  -13.0970   20.8780 C   0  0  0  0  0  0  0  0  0  0  0  0
  -24.5990  -11.7440   20.8580 C   0  0  0  0  0  0  0  0  0  0  0  0
  -26.2560  -12.9800   20.2910 N   0  0  0  0  0  0  0  0  0  0  0  0
  -25.8910  -11.7000   20.5590 N   0  0  0  0  0  0  0  0  0  0  0  0
  -23.8690  -10.4850   21.0500 C   0  0  0  0  0  0  0  0  0  0  0  0
  -24.2960   -9.5160   21.9840 C   0  0  0  0  0  3  0  0  0  0  0  0
  -23.5650   -8.3220   22.1630 C   0  0  0  0  0  3  0  0  0  0  0  0
  -22.3930   -8.0880   21.4070 C   0  0  0  0  0  0  0  0  0  0  0  0
  -21.9850   -9.0440   20.4610 C   0  0  0  0  0  3  0  0  0  0  0  0
  -22.7160  -10.2300   20.2810 C   0  0  0  0  0  3  0  0  0  0  0  0
  -21.6350   -6.9450   21.4940 O   0  0  0  0  0  0  0  0  0  0  0  0
  -21.5890   -6.1980   22.6440 C   0  0  0  0  0  0  0  0  0  0  0  0
  -21.1700   -6.7480   23.8740 C   0  0  0  0  0  3  0  0  0  0  0  0
  -21.0720   -5.9280   25.0150 C   0  0  0  0  0  3  0  0  0  0  0  0
  -21.3820   -4.5580   24.9270 C   0  0  0  0  0  0  0  0  0  0  0  0
  -21.7940   -4.0060   23.7020 C   0  0  0  0  0  3  0  0  0  0  0  0
  -21.8950   -4.8240   22.5620 C   0  0  0  0  0  0  0  0  0  0  0  0
  -22.2720   -4.2830   21.3790 F   0  0  0  0  0  0  0  0  0  0  0  0
  -21.2820   -3.7670   26.0220 F   0  0  0  0  0  0  0  0  0  0  0  0
  -22.7440  -13.5810   21.1390 C   0  0  0  0  0  0  0  0  0  0  0  0
  -22.0090  -12.8890   22.0030 N   0  0  0  0  0  0  0  0  0  0  0  0
  -22.3120  -14.6040   20.6100 O   0  0  0  0  0  0  0  0  0  0  0  0
  -22.3700  -12.0610   22.4510 H   0  0  0  0  0  0  0  0  0  0  0  0
  -21.0710  -13.1930   22.2190 H   0  0  0  0  0  0  0  0  0  0  0  0
  -25.3830  -15.2340   20.3250 N   0  0  0  0  0  0  0  0  0  0  0  0
  -24.6170  -15.8920   20.4140 H   0  0  0  0  0  0  0  0  0  0  0  0
  -26.2350  -15.6610   19.9840 H   0  0  0  0  0  0  0  0  0  0  0  0
  -28.8000  -24.4300   18.2180 C   0  0  0  0  0  0  0  0  0  0  0  0
  -27.6720  -24.5830   17.7410 O   0  0  0  0  0  0  0  0  0  0  0  0
  -29.7340  -25.6230   18.4200 C   0  0  0  0  0  2  0  0  0  0  0  0
  -29.0010  -26.9210   18.7730 C   0  0  0  0  0  2  0  0  0  0  0  0
  -28.4080  -26.8150   20.0660 O   0  0  0  0  0  0  0  0  0  0  0  0
  -24.5670  -31.8840   23.2470 C   0  0  0  0  0  0  0  0  0  0  0  0
  -27.2250  -27.4950   20.1520 C   0  0  0  0  0  0  0  0  0  0  0  0
  -23.3610  -30.4810   21.6030 C   0  0  0  0  0  3  0  0  0  0  0  0
  -24.8170  -28.9480   20.1840 C   0  0  0  0  0  0  0  0  0  0  0  0
  -25.8800  -30.8570   21.4000 C   0  0  0  0  0  2  0  0  0  0  0  0
  -25.9700  -29.4860   20.7720 C   0  0  0  0  0  0  0  0  0  0  0  0
  -27.1780  -28.7610   20.7650 C   0  0  0  0  0  3  0  0  0  0  0  0
  -26.0550  -26.9460   19.5860 C   0  0  0  0  0  3  0  0  0  0  0  0
  -24.8500  -27.6720   19.5960 C   0  0  0  0  0  3  0  0  0  0  0  0
  -23.5710  -29.8010   20.2230 C   0  0  0  0  0  2  0  0  0  0  0  0
  -24.6210  -31.0890   22.1430 N   0  0  0  0  0  0  0  0  0  0  0  0
  -23.4860  -32.1520   23.7890 O   0  0  0  0  0  0  0  0  0  0  0  0
  -22.7150  -29.4560   22.5610 C   0  0  0  0  0  0  0  0  0  0  0  0
  -21.3910  -29.2730   22.4340 N   0  0  0  0  0  0  0  0  0  0  0  0
  -23.4010  -28.8280   23.3710 O   0  0  0  0  0  0  0  0  0  0  0  0
  -20.9000  -29.8330   21.7510 H   0  0  0  0  0  0  0  0  0  0  0  0
  -18.0150  -28.0960   22.9390 C   0  0  0  0  0  0  0  0  0  0  0  0
  -20.5750  -28.3350   23.2020 C   0  0  0  0  0  3  0  0  0  0  0  0
  -20.6670  -26.9080   22.6130 C   0  0  0  0  0  2  0  0  0  0  0  0
  -19.5580  -26.5990   21.6030 C   0  0  0  0  0  2  0  0  0  0  0  0
  -18.1800  -26.7500   22.2550 C   0  0  0  0  0  2  0  0  0  0  0  0
  -19.1410  -28.8470   23.3700 C   0  0  0  0  0  0  0  0  0  0  0  0
  -18.9340  -30.1090   23.9690 C   0  0  0  0  0  3  0  0  0  0  0  0
  -17.6340  -30.6190   24.1430 C   0  0  0  0  0  3  0  0  0  0  0  0
  -16.5230  -29.8630   23.7300 C   0  0  0  0  0  3  0  0  0  0  0  0
  -16.7140  -28.6040   23.1340 C   0  0  0  0  0  3  0  0  0  0  0  0
  -25.8540  -32.5130   23.8670 C   0  0  0  0  0  3  0  0  0  0  0  0
  -25.5500  -33.9130   24.1870 N   0  0  0  0  0  0  0  0  0  0  0  0
  -25.8930  -34.9590   23.4240 C   0  0  0  0  0  0  0  0  0  0  0  0
  -26.5720  -34.8460   22.3980 O   0  0  0  0  0  0  0  0  0  0  0  0
  -24.9490  -34.0760   24.9820 H   0  0  0  0  0  0  0  0  0  0  0  0
  -24.1810  -36.7570   23.0330 C   0  0  0  0  0  1  0  0  0  0  0  0
  -25.4060  -36.3510   23.8660 C   0  0  0  0  0  3  0  0  0  0  0  0
  -27.5320  -37.2260   24.7280 C   0  0  0  0  0  1  0  0  0  0  0  0
  -26.4460  -37.3970   23.7660 N   0  0  0  0  0  0  0  0  0  0  0  0
  -26.0440  -38.3200   23.9030 H   0  0  0  0  0  0  0  0  0  0  0  0
  -26.3700  -31.7440   25.1440 C   0  0  1  0  0  0  0  0  0  0  0  0
  -25.2760  -31.5110   26.2110 C   0  0  0  0  0  1  0  0  0  0  0  0
  -26.9510  -30.3650   24.7530 C   0  0  0  0  0  1  0  0  0  0  0  0
  -27.5210  -32.5380   25.8050 C   0  0  0  0  0  1  0  0  0  0  0  0
  1  7  1  0
  2  1  2  0
  3  5  2  0
  3  7  1  0
  4  6  1  0
  5  8  1  0
  7  4  2  0
  8  9  1  0
  8  6  2  0
  9 10  2  0
 11 10  1  0
 12 17  1  0
 13 14  1  0
 13 12  1  0
 15 14  1  0
 15 22  1  0
 15 16  1  0
 17 11  1  0
 17 16  1  0
 18 11  2  0
 19 20  2  0
 20 39  1  0
 21 20  1  0
 21 24  1  0
 22 19  1  0
 22 23  1  0
 23 21  2  0
 24 25  1  0
 25 26  2  0
 27 30  1  0
 27 26  1  0
 28 27  2  0
 29 28  1  0
 29 24  2  0
 30 31  1  0
 31 32  1  0
 32 33  2  0
 34 33  1  0
 34 38  1  0
 35 34  2  0
 36 31  2  0
 36 35  1  0
 37 36  1  0
 39 40  1  0
 40 43  1  0
 40 42  1  0
 41 39  2  0
 44 45  1  0
 44 19  1  0
 46 44  1  0
 47 49  1  0
 47  2  1  0
 48 47  2  0
 49 50  1  0
 50 51  1  0
 51 53  1  0
 52 63  2  0
 53 58  1  0
 54 62  1  0
 54 64  1  0
 55 61  1  0
 55 57  1  0
 56 62  1  0
 57 56  1  0
 58 57  2  0
 59 60  1  0
 59 53  2  0
 60 55  2  0
 61 54  1  0
 62 52  1  0
 64 66  2  0
 65 64  1  0
 67 65  1  0
 68 77  2  0
 68 73  1  0
 69 65  1  0
 69 73  1  0
 70 69  1  0
 71 72  1  0
 71 70  1  0
 72 68  1  0
 73 74  2  0
 74 75  1  0
 76 75  2  0
 77 76  1  0
 78 52  1  0
 78 79  1  0
 78 88  1  0
 79 82  1  0
 80 84  1  0
 80 79  1  0
 81 80  2  0
 84 83  1  0
 86 84  1  0
 86 87  1  0
 86 85  1  0
 88 91  1  1
 88 89  1  0
 90 88  1  0
M  ISO  4  10 100  11 100  50 101  51 101
M  END
>  <TORSDO>  (57) 
F 21

>  <SCORE>  (57) 
-13.514

>  <name>  (57) 
56

>  <ligand_id>  (57) 
56

>  <original_smiles>  (57) 
[H]C(C(=O)N1C([H])([H])C([H])([H])C([H])([H])C([H])(n2nc(-c3c([H])c([H])c(Oc4c([H])c([H])c(F)c([H])c4F)c([H])c3[H])c(C(=O)N([H])[H])c2N([H])[H])C1([H])[H])=C([H])c1c([H])c([H])c(C([H])=C([H])C(=O)C([H])([H])C([H])([H])Oc2c([H])c([H])c3c(c2[H])C([H])([H])N(C(=O)C([H])(N([H])C(=O)C([H])(N([H])C([H])([H])[H])C([H])([H])[H])C(C([H])([H])[H])(C([H])([H])[H])C([H])([H])[H])C([H])(C(=O)N([H])C2([H])c4c([H])c([H])c([H])c([H])c4C([H])([H])C([H])([H])C2([H])[H])C3([H])[H])c([H])c1[H]

>  <smiles>  (57) 
[H]C(C(=O)N1C([H])([H])C([H])([H])C([H])([H])C([H])(n2nc(-c3c([H])c([H])c(Oc4c([H])c([H])c(F)c([H])c4F)c([H])c3[H])c(C(=O)N([H])[H])c2N([H])[H])C1([H])[H])=C([H])c1c([H])c([H])c(C([H])=C([H])C(=O)C([H])([H])C([H])([H])Oc2c([H])c([H])c3c(c2[H])C([H])([H])N(C(=O)C([H])(N([H])C(=O)C([H])(N([H])C([H])([H])[H])C([H])([H])[H])C(C([H])([H])[H])(C([H])([H])[H])C([H])([H])[H])C([H])(C(=O)N([H])C2([H])c4c([H])c([H])c([H])c([H])c4C([H])([H])C([H])([H])C2([H])[H])C3([H])[H])c([H])c1[H]

$$$$
57:0:0
     RDKit          3D

 87 94  0  0  1  0  0  0  0  0999 V2000
  -27.4650  -22.4450   21.6580 C   0  0  0  0  0  1  0  0  0  0  0  0
  -28.6730  -22.6350   20.8130 N   0  0  1  0  0  4  0  0  0  0  0  0
  -29.4500  -22.7390   21.4510 H   0  0  0  0  0  0  0  0  0  0  0  0
  -28.9690  -21.3690   20.0170 C   0  0  0  0  0  2  0  0  0  0  0  0
  -29.5810  -20.1310   20.8210 C   0  0  0  0  0  3  0  0  0  0  0  0
  -29.4610  -18.6660   20.2080 C   0  0  0  0  0  3  0  0  0  0  0  0
  -30.2400  -17.4990   20.9590 C   0  0  0  0  0  2  0  0  0  0  0  0
  -29.7930  -15.9740   20.7610 C   0  0  0  0  0  2  0  0  0  0  0  0
  -30.6490  -14.6940   20.3700 C   0  0  0  0  0  0  0  0  0  0  0  0
  -30.4460  -12.4560   19.3050 C   0  0  0  0  0  2  0  0  0  0  0  0
  -29.5110  -12.6020   18.0830 C   0  0  0  0  0  2  0  0  0  0  0  0
  -28.0340  -12.4500   18.5010 C   0  0  0  0  0  2  0  0  0  0  0  0
  -27.6710  -13.3160   19.7360 C   0  0  0  0  0  3  0  0  0  0  0  0
  -28.7200  -13.1610   20.8580 C   0  0  0  0  0  2  0  0  0  0  0  0
  -30.0390  -13.4710   20.2950 N   0  0  0  0  0  0  0  0  0  0  0  0
  -31.8220  -14.8330   19.9930 O   0  0  0  0  0  0  0  0  0  0  0  0
  -25.2710  -13.9200   20.4320 C   0  0  0  0  0  0  0  0  0  0  0  0
  -24.2000  -13.1500   20.8000 C   0  0  0  0  0  0  0  0  0  0  0  0
  -24.6640  -11.7970   20.7860 C   0  0  0  0  0  0  0  0  0  0  0  0
  -26.3180  -13.0380   20.2140 N   0  0  0  0  0  0  0  0  0  0  0  0
  -25.9580  -11.7570   20.4890 N   0  0  0  0  0  0  0  0  0  0  0  0
  -23.9380  -10.5370   20.9830 C   0  0  0  0  0  0  0  0  0  0  0  0
  -24.3660   -9.5760   21.9260 C   0  0  0  0  0  3  0  0  0  0  0  0
  -23.6390   -8.3780   22.1080 C   0  0  0  0  0  3  0  0  0  0  0  0
  -22.4700   -8.1340   21.3490 C   0  0  0  0  0  0  0  0  0  0  0  0
  -22.0620   -9.0840   20.3960 C   0  0  0  0  0  3  0  0  0  0  0  0
  -22.7890  -10.2720   20.2110 C   0  0  0  0  0  3  0  0  0  0  0  0
  -21.7160   -6.9900   21.4410 O   0  0  0  0  0  0  0  0  0  0  0  0
  -21.6660   -6.2520   22.5960 C   0  0  0  0  0  0  0  0  0  0  0  0
  -21.2360   -6.8110   23.8190 C   0  0  0  0  0  3  0  0  0  0  0  0
  -21.1340   -6.0000   24.9680 C   0  0  0  0  0  3  0  0  0  0  0  0
  -21.4490   -4.6300   24.8930 C   0  0  0  0  0  0  0  0  0  0  0  0
  -21.8720   -4.0700   23.6740 C   0  0  0  0  0  3  0  0  0  0  0  0
  -21.9770   -4.8780   22.5280 C   0  0  0  0  0  0  0  0  0  0  0  0
  -22.3640   -4.3300   21.3520 F   0  0  0  0  0  0  0  0  0  0  0  0
  -21.3440   -3.8480   25.9930 F   0  0  0  0  0  0  0  0  0  0  0  0
  -22.8010  -13.6280   21.0560 C   0  0  0  0  0  0  0  0  0  0  0  0
  -22.0650  -12.9390   21.9220 N   0  0  0  0  0  0  0  0  0  0  0  0
  -22.3670  -14.6490   20.5230 O   0  0  0  0  0  0  0  0  0  0  0  0
  -22.4270  -12.1140   22.3740 H   0  0  0  0  0  0  0  0  0  0  0  0
  -21.1260  -13.2430   22.1340 H   0  0  0  0  0  0  0  0  0  0  0  0
  -25.4390  -15.2890   20.2450 N   0  0  0  0  0  0  0  0  0  0  0  0
  -24.6770  -15.9500   20.3520 H   0  0  0  0  0  0  0  0  0  0  0  0
  -26.3050  -15.7230   19.9510 H   0  0  0  0  0  0  0  0  0  0  0  0
  -28.6110  -23.9420   20.0210 C   0  0  0  0  0  3  0  0  0  0  0  0
  -28.2410  -25.2680   20.8280 C   0  0  0  0  0  3  0  0  0  0  0  0
  -28.3740  -26.5870   20.1800 O   0  0  0  0  0  0  0  0  0  0  0  0
  -24.5900  -31.9050   23.2270 C   0  0  0  0  0  0  0  0  0  0  0  0
  -27.2440  -27.4030   20.1710 C   0  0  0  0  0  0  0  0  0  0  0  0
  -23.3970  -30.5030   21.5790 C   0  0  0  0  0  3  0  0  0  0  0  0
  -24.8610  -28.9640   20.1560 C   0  0  0  0  0  0  0  0  0  0  0  0
  -25.9290  -30.8510   21.3960 C   0  0  0  0  0  2  0  0  0  0  0  0
  -26.0230  -29.4760   20.7500 C   0  0  0  0  0  0  0  0  0  0  0  0
  -27.2200  -28.7070   20.7450 C   0  0  0  0  0  3  0  0  0  0  0  0
  -26.0640  -26.9300   19.5580 C   0  0  0  0  0  3  0  0  0  0  0  0
  -24.8830  -27.6960   19.5500 C   0  0  0  0  0  3  0  0  0  0  0  0
  -23.6180  -29.8260   20.1980 C   0  0  0  0  0  2  0  0  0  0  0  0
  -24.6570  -31.1040   22.1250 N   0  0  0  0  0  0  0  0  0  0  0  0
  -23.5040  -32.1740   23.7620 O   0  0  0  0  0  0  0  0  0  0  0  0
  -22.7410  -29.4810   22.5360 C   0  0  0  0  0  0  0  0  0  0  0  0
  -21.4160  -29.2970   22.4070 N   0  0  0  0  0  0  0  0  0  0  0  0
  -23.4220  -28.8530   23.3530 O   0  0  0  0  0  0  0  0  0  0  0  0
  -20.9270  -29.8580   21.7240 H   0  0  0  0  0  0  0  0  0  0  0  0
  -18.0420  -28.0950   22.9030 C   0  0  0  0  0  0  0  0  0  0  0  0
  -20.6000  -28.3540   23.1720 C   0  0  0  0  0  3  0  0  0  0  0  0
  -20.7030  -26.9270   22.5850 C   0  0  0  0  0  2  0  0  0  0  0  0
  -19.5990  -26.6090   21.5720 C   0  0  0  0  0  2  0  0  0  0  0  0
  -18.2190  -26.7480   22.2220 C   0  0  0  0  0  2  0  0  0  0  0  0
  -19.1600  -28.8550   23.3350 C   0  0  0  0  0  0  0  0  0  0  0  0
  -18.9410  -30.1150   23.9340 C   0  0  0  0  0  3  0  0  0  0  0  0
  -17.6360  -30.6150   24.1050 C   0  0  0  0  0  3  0  0  0  0  0  0
  -16.5320  -29.8510   23.6880 C   0  0  0  0  0  3  0  0  0  0  0  0
  -16.7360  -28.5940   23.0930 C   0  0  0  0  0  3  0  0  0  0  0  0
  -25.8690  -32.5430   23.8530 C   0  0  0  0  0  3  0  0  0  0  0  0
  -25.5540  -33.9410   24.1810 N   0  0  0  0  0  0  0  0  0  0  0  0
  -25.8930  -34.9940   23.4250 C   0  0  0  0  0  0  0  0  0  0  0  0
  -26.5740  -34.8910   22.4020 O   0  0  0  0  0  0  0  0  0  0  0  0
  -24.9520  -34.0940   24.9760 H   0  0  0  0  0  0  0  0  0  0  0  0
  -24.1700  -36.7870   23.0490 C   0  0  0  0  0  1  0  0  0  0  0  0
  -25.3990  -36.3810   23.8780 C   0  0  0  0  0  3  0  0  0  0  0  0
  -27.5220  -37.2640   24.7430 C   0  0  0  0  0  1  0  0  0  0  0  0
  -26.4340  -37.4340   23.7820 N   0  0  0  0  0  0  0  0  0  0  0  0
  -26.0270  -38.3540   23.9250 H   0  0  0  0  0  0  0  0  0  0  0  0
  -26.3810  -31.7750   25.1340 C   0  0  1  0  0  0  0  0  0  0  0  0
  -25.2840  -31.5370   26.1970 C   0  0  0  0  0  1  0  0  0  0  0  0
  -26.9690  -30.3990   24.7470 C   0  0  0  0  0  1  0  0  0  0  0  0
  -27.5280  -32.5720   25.8000 C   0  0  0  0  0  1  0  0  0  0  0  0
  2  3  1  1
  2  1  1  0
  4  2  1  0
  4  5  1  0
  6  5  2  0
  6  7  1  0
  8  7  1  0
  9  8  1  0
 10 15  1  0
 11 12  1  0
 11 10  1  0
 13 12  1  0
 13 20  1  0
 13 14  1  0
 15  9  1  0
 15 14  1  0
 16  9  2  0
 17 18  2  0
 18 37  1  0
 19 18  1  0
 19 22  1  0
 20 17  1  0
 20 21  1  0
 21 19  2  0
 22 23  1  0
 23 24  2  0
 25 28  1  0
 25 24  1  0
 26 25  2  0
 27 26  1  0
 27 22  2  0
 28 29  1  0
 29 30  1  0
 30 31  2  0
 32 31  1  0
 32 36  1  0
 33 32  2  0
 34 29  2  0
 34 33  1  0
 35 34  1  0
 37 38  1  0
 38 41  1  0
 38 40  1  0
 39 37  2  0
 42 43  1  0
 42 17  1  0
 44 42  1  0
 45  2  1  0
 45 46  2  0
 47 46  1  0
 48 59  2  0
 49 47  1  0
 49 54  1  0
 50 58  1  0
 50 60  1  0
 51 57  1  0
 51 53  1  0
 52 58  1  0
 53 52  1  0
 54 53  2  0
 55 49  2  0
 56 55  1  0
 56 51  2  0
 57 50  1  0
 58 48  1  0
 60 62  2  0
 61 60  1  0
 63 61  1  0
 64 73  2  0
 64 69  1  0
 65 61  1  0
 65 69  1  0
 66 65  1  0
 67 68  1  0
 67 66  1  0
 68 64  1  0
 69 70  2  0
 70 71  1  0
 72 71  2  0
 73 72  1  0
 74 48  1  0
 74 75  1  0
 74 84  1  0
 75 78  1  0
 76 80  1  0
 76 75  1  0
 77 76  2  0
 80 79  1  0
 82 80  1  0
 82 83  1  0
 82 81  1  0
 84 87  1  1
 84 85  1  0
 86 84  1  0
M  ISO  4   8 100   9 100  46 101  47 101
M  END
>  <TORSDO>  (58) 
F 23

>  <SCORE>  (58) 
-12.606

>  <name>  (58) 
57

>  <ligand_id>  (58) 
57

>  <original_smiles>  (58) 
[H]c1c([H])c([H])c2c(c1[H])C([H])([H])C([H])([H])C([H])([H])C2([H])N([H])C(=O)C1([H])N(C(=O)C([H])(N([H])C(=O)C([H])(N([H])C([H])([H])[H])C([H])([H])[H])C(C([H])([H])[H])(C([H])([H])[H])C([H])([H])[H])C([H])([H])c2c([H])c(OC([H])([H])C([H])([H])[N+]([H])(C([H])([H])[H])C([H])([H])C([H])([H])C([H])([H])C([H])([H])C([H])([H])C(=O)N3C([H])([H])C([H])([H])C([H])([H])C([H])(n4nc(-c5c([H])c([H])c(Oc6c([H])c([H])c(F)c([H])c6F)c([H])c5[H])c(C(=O)N([H])[H])c4N([H])[H])C3([H])[H])c([H])c([H])c2C1([H])[H]

>  <smiles>  (58) 
[H]c1c([H])c([H])c2c(c1[H])C([H])([H])C([H])([H])C([H])([H])C2([H])N([H])C(=O)C1([H])N(C(=O)C([H])(N([H])C(=O)C([H])(N([H])C([H])([H])[H])C([H])([H])[H])C(C([H])([H])[H])(C([H])([H])[H])C([H])([H])[H])C([H])([H])c2c([H])c(OC([H])([H])C([H])([H])[N+]([H])(C([H])([H])[H])C([H])([H])C([H])([H])C([H])([H])C([H])([H])C([H])([H])C(=O)N3C([H])([H])C([H])([H])C([H])([H])C([H])(n4nc(-c5c([H])c([H])c(Oc6c([H])c([H])c(F)c([H])c6F)c([H])c5[H])c(C(=O)N([H])[H])c4N([H])[H])C3([H])[H])c([H])c([H])c2C1([H])[H]

$$$$
58:0:0
     RDKit          3D

 82 86  0  0  1  0  0  0  0  0999 V2000
  -28.1420  -25.1300   20.3450 O   0  0  0  0  0  1  0  0  0  0  0  0
  -24.6730  -31.7930   23.1560 C   0  0  0  0  0  0  0  0  0  0  0  0
  -27.2070  -26.4680   20.2370 C   0  0  0  0  0  0  0  0  0  0  0  0
  -23.5020  -30.3700   21.5340 C   0  0  0  0  0  3  0  0  0  0  0  0
  -24.9590  -28.6640   20.1490 C   0  0  0  0  0  0  0  0  0  0  0  0
  -26.0910  -30.4430   21.4460 C   0  0  0  0  0  2  0  0  0  0  0  0
  -26.1560  -28.9760   20.8000 C   0  0  0  0  0  0  0  0  0  0  0  0
  -27.2470  -27.9140   20.8090 C   0  0  0  0  0  3  0  0  0  0  0  0
  -25.9750  -26.4380   19.5120 C   0  0  0  0  0  3  0  0  0  0  0  0
  -24.9230  -27.4250   19.4790 C   0  0  0  0  0  3  0  0  0  0  0  0
  -23.7590  -29.6420   20.1770 C   0  0  0  0  0  2  0  0  0  0  0  0
  -24.7830  -30.9100   22.0960 N   0  0  0  0  0  0  0  0  0  0  0  0
  -23.5740  -32.1040   23.6490 O   0  0  0  0  0  0  0  0  0  0  0  0
  -22.7640  -29.4210   22.5210 C   0  0  0  0  0  0  0  0  0  0  0  0
  -21.4280  -29.2830   22.4040 N   0  0  0  0  0  0  0  0  0  0  0  0
  -23.4120  -28.8050   23.3700 O   0  0  0  0  0  0  0  0  0  0  0  0
  -20.9500  -29.8290   21.7010 H   0  0  0  0  0  0  0  0  0  0  0  0
  -18.0360  -28.0740   22.9440 C   0  0  0  0  0  0  0  0  0  0  0  0
  -20.5980  -28.3550   23.1880 C   0  0  0  0  0  3  0  0  0  0  0  0
  -20.6990  -26.9160   22.6290 C   0  0  0  0  0  2  0  0  0  0  0  0
  -19.5950  -26.5830   21.6200 C   0  0  0  0  0  2  0  0  0  0  0  0
  -18.2150  -26.7250   22.2680 C   0  0  0  0  0  2  0  0  0  0  0  0
  -19.1540  -28.8470   23.3600 C   0  0  0  0  0  0  0  0  0  0  0  0
  -18.9280  -30.1050   23.9600 C   0  0  0  0  0  3  0  0  0  0  0  0
  -17.6200  -30.5930   24.1410 C   0  0  0  0  0  3  0  0  0  0  0  0
  -16.5180  -29.8190   23.7350 C   0  0  0  0  0  3  0  0  0  0  0  0
  -16.7270  -28.5610   23.1430 C   0  0  0  0  0  3  0  0  0  0  0  0
  -25.9220  -32.4680   23.8020 C   0  0  0  0  0  3  0  0  0  0  0  0
  -25.5780  -33.8660   24.1440 N   0  0  0  0  0  0  0  0  0  0  0  0
  -25.8890  -34.9460   23.4130 C   0  0  0  0  0  0  0  0  0  0  0  0
  -26.5450  -34.8720   22.3730 O   0  0  0  0  0  0  0  0  0  0  0  0
  -24.9880  -33.9940   24.9540 H   0  0  0  0  0  0  0  0  0  0  0  0
  -24.1250  -36.7310   23.1520 C   0  0  0  0  0  1  0  0  0  0  0  0
  -25.3990  -36.3250   23.9110 C   0  0  0  0  0  3  0  0  0  0  0  0
  -27.5470  -37.2400   24.6790 C   0  0  0  0  0  1  0  0  0  0  0  0
  -26.4110  -37.3980   23.7760 N   0  0  0  0  0  0  0  0  0  0  0  0
  -25.9940  -38.3090   23.9480 H   0  0  0  0  0  0  0  0  0  0  0  0
  -26.4250  -31.7200   25.1000 C   0  0  1  0  0  0  0  0  0  0  0  0
  -25.3200  -31.4920   26.1590 C   0  0  0  0  0  1  0  0  0  0  0  0
  -27.0220  -30.3380   24.7530 C   0  0  0  0  0  1  0  0  0  0  0  0
  -27.5630  -32.5300   25.7650 C   0  0  0  0  0  1  0  0  0  0  0  0
  -28.1770  -23.2530   20.0010 C   0  0  0  0  0 15  0  0  0  0  0  0
  -28.8370  -21.2740   20.4370 C   0  0  0  0  0 15  0  0  0  0  0  0
  -29.4820  -17.7940   20.3150 C   0  0  0  0  0  2  0  0  0  0  0  0
  -29.4310  -19.3970   19.9580 C   0  0  0  0  0  2  0  0  0  0  0  0
  -30.2340  -19.7210   18.6860 C   0  0  0  0  0  1  0  0  0  0  0  0
  -30.1760  -16.0950   20.1830 C   0  0  0  0  0  0  0  0  0  0  0  0
  -30.3750  -13.4290   19.4670 C   0  0  0  0  0  2  0  0  0  0  0  0
  -29.5510  -12.8440   18.2700 C   0  0  0  0  0  2  0  0  0  0  0  0
  -28.1560  -12.4010   18.7190 C   0  0  0  0  0  2  0  0  0  0  0  0
  -27.5700  -13.4310   19.7040 C   0  0  0  0  0  3  0  0  0  0  0  0
  -28.5490  -13.9280   20.8060 C   0  0  0  0  0  2  0  0  0  0  0  0
  -29.6870  -14.6570   20.1590 N   0  0  0  0  0  0  0  0  0  0  0  0
  -31.4050  -15.9010   20.0050 O   0  0  0  0  0  0  0  0  0  0  0  0
  -25.1990  -13.9030   20.4400 C   0  0  0  0  0  0  0  0  0  0  0  0
  -24.1510  -13.1090   20.8030 C   0  0  0  0  0  0  0  0  0  0  0  0
  -24.6460  -11.7670   20.8010 C   0  0  0  0  0  0  0  0  0  0  0  0
  -26.2640  -13.0520   20.2240 N   0  0  0  0  0  0  0  0  0  0  0  0
  -25.9460  -11.7580   20.5070 N   0  0  0  0  0  0  0  0  0  0  0  0
  -23.9340  -10.4970   21.0030 C   0  0  0  0  0  0  0  0  0  0  0  0
  -24.3660   -9.5450   21.9520 C   0  0  0  0  0  3  0  0  0  0  0  0
  -23.6460   -8.3450   22.1460 C   0  0  0  0  0  3  0  0  0  0  0  0
  -22.4770   -8.0890   21.3910 C   0  0  0  0  0  0  0  0  0  0  0  0
  -22.0610   -9.0300   20.4320 C   0  0  0  0  0  3  0  0  0  0  0  0
  -22.7830  -10.2190   20.2360 C   0  0  0  0  0  3  0  0  0  0  0  0
  -21.7290   -6.9400   21.4920 O   0  0  0  0  0  0  0  0  0  0  0  0
  -21.6930   -6.2030   22.6480 C   0  0  0  0  0  0  0  0  0  0  0  0
  -21.2760   -6.7630   23.8760 C   0  0  0  0  0  3  0  0  0  0  0  0
  -21.1870   -5.9530   25.0250 C   0  0  0  0  0  3  0  0  0  0  0  0
  -21.5040   -4.5840   24.9490 C   0  0  0  0  0  0  0  0  0  0  0  0
  -21.9140   -4.0220   23.7260 C   0  0  0  0  0  3  0  0  0  0  0  0
  -22.0050   -4.8290   22.5790 C   0  0  0  0  0  0  0  0  0  0  0  0
  -22.3780   -4.2790   21.3990 F   0  0  0  0  0  0  0  0  0  0  0  0
  -21.4120   -3.8030   26.0510 F   0  0  0  0  0  0  0  0  0  0  0  0
  -22.7420  -13.5680   21.0350 C   0  0  0  0  0  0  0  0  0  0  0  0
  -22.0110  -12.8840   21.9070 N   0  0  0  0  0  0  0  0  0  0  0  0
  -22.2990  -14.5720   20.4790 O   0  0  0  0  0  0  0  0  0  0  0  0
  -22.3830  -12.0730   22.3790 H   0  0  0  0  0  0  0  0  0  0  0  0
  -21.0640  -13.1760   22.1070 H   0  0  0  0  0  0  0  0  0  0  0  0
  -25.3350  -15.2740   20.2400 N   0  0  0  0  0  0  0  0  0  0  0  0
  -24.5550  -15.9140   20.3390 H   0  0  0  0  0  0  0  0  0  0  0  0
  -26.1850  -15.7290   19.9320 H   0  0  0  0  0  0  0  0  0  0  0  0
  2 13  2  0
  3  1  1  0
  3  8  1  0
  4 12  1  0
  4 14  1  0
  5 11  1  0
  5  7  1  0
  6 12  1  0
  7  8  2  0
  7  6  1  0
  9  3  2  0
 10  9  1  0
 10  5  2  0
 11  4  1  0
 12  2  1  0
 14 16  2  0
 15 14  1  0
 17 15  1  0
 18 27  2  0
 18 23  1  0
 19 15  1  0
 19 23  1  0
 20 19  1  0
 21 22  1  0
 21 20  1  0
 22 18  1  0
 23 24  2  0
 24 25  1  0
 26 25  2  0
 27 26  1  0
 28  2  1  0
 28 29  1  0
 28 38  1  0
 29 32  1  0
 30 34  1  0
 30 29  1  0
 31 30  2  0
 34 33  1  0
 36 34  1  0
 36 37  1  0
 36 35  1  0
 38 41  1  1
 38 39  1  0
 40 38  1  0
 45 44  1  0
 46 45  1  0
 47 44  1  0
 48 53  1  0
 49 50  1  0
 49 48  1  0
 51 50  1  0
 51 58  1  0
 51 52  1  0
 53 47  1  0
 53 52  1  0
 54 47  2  0
 55 56  2  0
 56 75  1  0
 57 56  1  0
 57 60  1  0
 58 55  1  0
 58 59  1  0
 59 57  2  0
 60 61  1  0
 61 62  2  0
 63 66  1  0
 63 62  1  0
 64 63  2  0
 65 64  1  0
 65 60  2  0
 66 67  1  0
 67 68  1  0
 68 69  2  0
 70 69  1  0
 70 74  1  0
 71 70  2  0
 72 67  2  0
 72 71  1  0
 73 72  1  0
 75 76  1  0
 76 79  1  0
 76 78  1  0
 77 75  2  0
 80 81  1  0
 80 55  1  0
 82 80  1  0
M  ISO  4   1 101  42 101  44 100  47 100
M  END
>  <TORSDO>  (59) 
F 18

>  <SCORE>  (59) 
-16.049

>  <name>  (59) 
58

>  <ligand_id>  (59) 
58

>  <original_smiles>  (59) 
[H]C(C(=O)N1C([H])([H])C([H])([H])C([H])([H])C([H])(n2nc(-c3c([H])c([H])c(Oc4c([H])c([H])c(F)c([H])c4F)c([H])c3[H])c(C(=O)N([H])[H])c2N([H])[H])C1([H])[H])=C(C([H])([H])[H])C([H])([H])C([H])([H])Oc1c([H])c([H])c2c(c1[H])C([H])([H])N(C(=O)C([H])(N([H])C(=O)C([H])(N([H])C([H])([H])[H])C([H])([H])[H])C(C([H])([H])[H])(C([H])([H])[H])C([H])([H])[H])C([H])(C(=O)N([H])C1([H])c3c([H])c([H])c([H])c([H])c3C([H])([H])C([H])([H])C1([H])[H])C2([H])[H]

>  <smiles>  (59) 
[H]C(C(=O)N1C([H])([H])C([H])([H])C([H])([H])C([H])(n2nc(-c3c([H])c([H])c(Oc4c([H])c([H])c(F)c([H])c4F)c([H])c3[H])c(C(=O)N([H])[H])c2N([H])[H])C1([H])[H])=C(C([H])([H])[H])C([H])([H])C([H])([H])Oc1c([H])c([H])c2c(c1[H])C([H])([H])N(C(=O)C([H])(N([H])C(=O)C([H])(N([H])C([H])([H])[H])C([H])([H])[H])C(C([H])([H])[H])(C([H])([H])[H])C([H])([H])[H])C([H])(C(=O)N([H])C1([H])c3c([H])c([H])c([H])c([H])c3C([H])([H])C([H])([H])C1([H])[H])C2([H])[H]

$$$$
60:0:0
     RDKit          3D

 87 94  0  0  1  0  0  0  0  0999 V2000
  -28.7770  -21.9470   19.8290 C   0  0  0  0  0  3  0  0  0  0  0  0
  -28.1580  -22.7220   17.3780 C   0  0  0  0  0  1  0  0  0  0  0  0
  -28.9610  -21.7880   18.2910 C   0  0  0  0  0  2  0  0  0  0  0  0
  -29.5760  -20.6730   20.4850 C   0  0  0  0  0  0  0  0  0  0  0  0
  -30.5640  -20.9110   21.1790 O   0  0  0  0  0  0  0  0  0  0  0  0
  -29.1460  -19.1070   20.2830 C   0  0  0  0  0  3  0  0  0  0  0  0
  -30.1740  -17.8070   20.4190 C   0  0  0  0  0  3  0  0  0  0  0  0
  -29.6430  -16.2410   20.5800 C   0  0  0  0  0  2  0  0  0  0  0  0
  -30.5270  -14.8820   20.3470 C   0  0  0  0  0  0  0  0  0  0  0  0
  -30.3950  -12.5760   19.3420 C   0  0  0  0  0  2  0  0  0  0  0  0
  -29.4410  -12.6470   18.1240 C   0  0  0  0  0  2  0  0  0  0  0  0
  -27.9750  -12.4510   18.5610 C   0  0  0  0  0  2  0  0  0  0  0  0
  -27.6020  -13.3120   19.7950 C   0  0  0  0  0  3  0  0  0  0  0  0
  -28.6750  -13.2280   20.9010 C   0  0  0  0  0  2  0  0  0  0  0  0
  -29.9620  -13.6170   20.3080 N   0  0  0  0  0  0  0  0  0  0  0  0
  -31.7170  -14.9930   20.0280 O   0  0  0  0  0  0  0  0  0  0  0  0
  -25.2200  -13.8810   20.5520 C   0  0  0  0  0  0  0  0  0  0  0  0
  -24.1610  -13.0980   20.9240 C   0  0  0  0  0  0  0  0  0  0  0  0
  -24.6310  -11.7500   20.8850 C   0  0  0  0  0  0  0  0  0  0  0  0
  -26.2660  -13.0070   20.2990 N   0  0  0  0  0  0  0  0  0  0  0  0
  -25.9200  -11.7210   20.5620 N   0  0  0  0  0  0  0  0  0  0  0  0
  -23.9130  -10.4840   21.0740 C   0  0  0  0  0  0  0  0  0  0  0  0
  -24.3580   -9.5110   21.9950 C   0  0  0  0  0  3  0  0  0  0  0  0
  -23.6380   -8.3100   22.1720 C   0  0  0  0  0  3  0  0  0  0  0  0
  -22.4590   -8.0720   21.4280 C   0  0  0  0  0  0  0  0  0  0  0  0
  -22.0330   -9.0330   20.4940 C   0  0  0  0  0  3  0  0  0  0  0  0
  -22.7540  -10.2260   20.3150 C   0  0  0  0  0  3  0  0  0  0  0  0
  -21.7100   -6.9240   21.5140 O   0  0  0  0  0  0  0  0  0  0  0  0
  -21.6780   -6.1710   22.6600 C   0  0  0  0  0  0  0  0  0  0  0  0
  -21.2580   -6.7110   23.8950 C   0  0  0  0  0  3  0  0  0  0  0  0
  -21.1750   -5.8830   25.0330 C   0  0  0  0  0  3  0  0  0  0  0  0
  -21.5020   -4.5170   24.9360 C   0  0  0  0  0  0  0  0  0  0  0  0
  -21.9150   -3.9770   23.7060 C   0  0  0  0  0  3  0  0  0  0  0  0
  -22.0010   -4.8020   22.5710 C   0  0  0  0  0  0  0  0  0  0  0  0
  -22.3800   -4.2710   21.3830 F   0  0  0  0  0  0  0  0  0  0  0  0
  -21.4140   -3.7190   26.0270 F   0  0  0  0  0  0  0  0  0  0  0  0
  -22.7630  -13.5670   21.2080 C   0  0  0  0  0  0  0  0  0  0  0  0
  -22.0440  -12.8620   22.0740 N   0  0  0  0  0  0  0  0  0  0  0  0
  -22.3190  -14.5930   20.6950 O   0  0  0  0  0  0  0  0  0  0  0  0
  -22.4200  -12.0350   22.5120 H   0  0  0  0  0  0  0  0  0  0  0  0
  -21.1070  -13.1580   22.3060 H   0  0  0  0  0  0  0  0  0  0  0  0
  -25.3740  -15.2540   20.3850 N   0  0  0  0  0  0  0  0  0  0  0  0
  -24.6010  -15.8990   20.5060 H   0  0  0  0  0  0  0  0  0  0  0  0
  -26.2210  -15.7070   20.0720 H   0  0  0  0  0  0  0  0  0  0  0  0
  -29.0740  -23.5250   20.3020 C   0  0  0  0  0  3  0  0  0  0  0  0
  -27.9990  -24.7790   20.1180 C   0  0  0  0  0  3  0  0  0  0  0  0
  -28.2720  -26.2800   20.2960 O   0  0  0  0  0  0  0  0  0  0  0  0
  -24.6230  -31.9150   23.2510 C   0  0  0  0  0  0  0  0  0  0  0  0
  -27.1960  -27.2250   20.2310 C   0  0  0  0  0  0  0  0  0  0  0  0
  -23.4150  -30.5100   21.6270 C   0  0  0  0  0  3  0  0  0  0  0  0
  -24.8570  -28.9350   20.2040 C   0  0  0  0  0  0  0  0  0  0  0  0
  -25.9660  -30.7840   21.4480 C   0  0  0  0  0  2  0  0  0  0  0  0
  -26.0380  -29.3950   20.8000 C   0  0  0  0  0  0  0  0  0  0  0  0
  -27.2090  -28.5570   20.7960 C   0  0  0  0  0  3  0  0  0  0  0  0
  -25.9850  -26.8550   19.6020 C   0  0  0  0  0  3  0  0  0  0  0  0
  -24.8400  -27.6760   19.5910 C   0  0  0  0  0  3  0  0  0  0  0  0
  -23.6290  -29.8250   20.2520 C   0  0  0  0  0  2  0  0  0  0  0  0
  -24.6880  -31.0890   22.1640 N   0  0  0  0  0  0  0  0  0  0  0  0
  -23.5390  -32.2050   23.7810 O   0  0  0  0  0  0  0  0  0  0  0  0
  -22.7430  -29.5040   22.5950 C   0  0  0  0  0  0  0  0  0  0  0  0
  -21.4150  -29.3260   22.4650 N   0  0  0  0  0  0  0  0  0  0  0  0
  -23.4150  -28.8880   23.4250 O   0  0  0  0  0  0  0  0  0  0  0  0
  -20.9310  -29.8750   21.7690 H   0  0  0  0  0  0  0  0  0  0  0  0
  -18.0370  -28.1260   22.9680 C   0  0  0  0  0  0  0  0  0  0  0  0
  -20.5960  -28.3950   23.2430 C   0  0  0  0  0  3  0  0  0  0  0  0
  -20.7010  -26.9570   22.6860 C   0  0  0  0  0  2  0  0  0  0  0  0
  -19.6040  -26.6190   21.6720 C   0  0  0  0  0  2  0  0  0  0  0  0
  -18.2200  -26.7690   22.3070 C   0  0  0  0  0  2  0  0  0  0  0  0
  -19.1530  -28.8960   23.3930 C   0  0  0  0  0  0  0  0  0  0  0  0
  -18.9270  -30.1640   23.9700 C   0  0  0  0  0  3  0  0  0  0  0  0
  -17.6200  -30.6600   24.1300 C   0  0  0  0  0  3  0  0  0  0  0  0
  -16.5200  -29.8880   23.7210 C   0  0  0  0  0  3  0  0  0  0  0  0
  -16.7300  -28.6220   23.1450 C   0  0  0  0  0  3  0  0  0  0  0  0
  -25.9060  -32.5500   23.8680 C   0  0  0  0  0  3  0  0  0  0  0  0
  -25.6010  -33.9540   24.1880 N   0  0  0  0  0  0  0  0  0  0  0  0
  -25.9250  -34.9980   23.4160 C   0  0  0  0  0  0  0  0  0  0  0  0
  -26.5790  -34.8850   22.3770 O   0  0  0  0  0  0  0  0  0  0  0  0
  -25.0260  -34.1180   25.0020 H   0  0  0  0  0  0  0  0  0  0  0  0
  -24.1960  -36.7920   23.0690 C   0  0  0  0  0  1  0  0  0  0  0  0
  -25.4470  -36.3940   23.8680 C   0  0  0  0  0  3  0  0  0  0  0  0
  -27.5920  -37.2840   24.6640 C   0  0  0  0  0  1  0  0  0  0  0  0
  -26.4790  -37.4440   23.7320 N   0  0  0  0  0  0  0  0  0  0  0  0
  -26.0770  -38.3670   23.8760 H   0  0  0  0  0  0  0  0  0  0  0  0
  -26.4150  -31.7910   25.1550 C   0  0  1  0  0  0  0  0  0  0  0  0
  -25.3160  -31.5700   26.2220 C   0  0  0  0  0  1  0  0  0  0  0  0
  -26.9940  -30.4060   24.7840 C   0  0  0  0  0  1  0  0  0  0  0  0
  -27.5680  -32.5860   25.8120 C   0  0  0  0  0  1  0  0  0  0  0  0
  1  3  1  0
  1 45  1  0
  1  4  1  0
  2  3  1  0
  4  5  2  0
  6  7  2  0
  6  4  1  0
  7  8  1  0
  9  8  1  0
 10 15  1  0
 11 12  1  0
 11 10  1  0
 13 12  1  0
 13 20  1  0
 13 14  1  0
 15  9  1  0
 15 14  1  0
 16  9  2  0
 17 18  2  0
 18 37  1  0
 19 18  1  0
 19 22  1  0
 20 17  1  0
 20 21  1  0
 21 19  2  0
 22 23  1  0
 23 24  2  0
 25 28  1  0
 25 24  1  0
 26 25  2  0
 27 26  1  0
 27 22  2  0
 28 29  1  0
 29 30  1  0
 30 31  2  0
 32 31  1  0
 32 36  1  0
 33 32  2  0
 34 29  2  0
 34 33  1  0
 35 34  1  0
 37 38  1  0
 38 41  1  0
 38 40  1  0
 39 37  2  0
 42 43  1  0
 42 17  1  0
 44 42  1  0
 46 47  1  0
 46 45  2  0
 48 59  2  0
 49 47  1  0
 49 54  1  0
 50 58  1  0
 50 60  1  0
 51 57  1  0
 51 53  1  0
 52 58  1  0
 53 52  1  0
 54 53  2  0
 55 49  2  0
 56 55  1  0
 56 51  2  0
 57 50  1  0
 58 48  1  0
 60 62  2  0
 61 60  1  0
 63 61  1  0
 64 73  2  0
 64 69  1  0
 65 61  1  0
 65 69  1  0
 66 65  1  0
 67 68  1  0
 67 66  1  0
 68 64  1  0
 69 70  2  0
 70 71  1  0
 72 71  2  0
 73 72  1  0
 74 48  1  0
 74 75  1  0
 74 84  1  0
 75 78  1  0
 76 80  1  0
 76 75  1  0
 77 76  2  0
 80 79  1  0
 82 80  1  0
 82 83  1  0
 82 81  1  0
 84 87  1  1
 84 85  1  0
 86 84  1  0
M  ISO  4   8 100   9 100  46 101  47 101
M  END
>  <TORSDO>  (60) 
F 23

>  <SCORE>  (60) 
-12.559

>  <name>  (60) 
60

>  <ligand_id>  (60) 
60

>  <original_smiles>  (60) 
[H]c1c([H])c([H])c2c(c1[H])C([H])([H])C([H])([H])C([H])([H])C2([H])N([H])C(=O)C1([H])N(C(=O)C([H])(N([H])C(=O)C([H])(N([H])C([H])([H])[H])C([H])([H])[H])C(C([H])([H])[H])(C([H])([H])[H])C([H])([H])[H])C([H])([H])c2c([H])c(OC([H])([H])C([H])([H])C([H])(C(=O)C([H])([H])C([H])([H])C([H])([H])C(=O)N3C([H])([H])C([H])([H])C([H])([H])C([H])(n4nc(-c5c([H])c([H])c(Oc6c([H])c([H])c(F)c([H])c6F)c([H])c5[H])c(C(=O)N([H])[H])c4N([H])[H])C3([H])[H])C([H])([H])C([H])([H])[H])c([H])c([H])c2C1([H])[H]

>  <smiles>  (60) 
[H]c1c([H])c([H])c2c(c1[H])C([H])([H])C([H])([H])C([H])([H])C2([H])N([H])C(=O)C1([H])N(C(=O)C([H])(N([H])C(=O)C([H])(N([H])C([H])([H])[H])C([H])([H])[H])C(C([H])([H])[H])(C([H])([H])[H])C([H])([H])[H])C([H])([H])c2c([H])c(OC([H])([H])C([H])([H])C([H])(C(=O)C([H])([H])C([H])([H])C([H])([H])C(=O)N3C([H])([H])C([H])([H])C([H])([H])C([H])(n4nc(-c5c([H])c([H])c(Oc6c([H])c([H])c(F)c([H])c6F)c([H])c5[H])c(C(=O)N([H])[H])c4N([H])[H])C3([H])[H])C([H])([H])C([H])([H])[H])c([H])c([H])c2C1([H])[H]

$$$$
61:0:0
     RDKit          3D

 94101  0  0  1  0  0  0  0  0999 V2000
  -30.3260  -22.9620   23.4850 C   0  0  0  0  0  3  0  0  0  0  0  0
  -29.1760  -23.3580   22.6470 N   0  0  0  0  0  4  0  0  0  0  0  0
  -28.7090  -22.5370   22.3000 H   0  0  0  0  0  0  0  0  0  0  0  0
  -28.5640  -23.8070   23.3180 H   0  0  0  0  0  0  0  0  0  0  0  0
  -29.4900  -24.3090   21.5560 C   0  0  0  0  0  2  0  0  0  0  0  0
  -28.3480  -24.4560   20.5310 C   0  0  0  0  0  2  0  0  0  0  0  0
  -28.6650  -25.5150   19.4550 C   0  0  0  0  0  2  0  0  0  0  0  0
  -28.5470  -26.8380   19.9800 O   0  0  0  0  0  0  0  0  0  0  0  0
  -24.6110  -31.8070   23.1750 C   0  0  0  0  0  0  0  0  0  0  0  0
  -27.3230  -27.4770   20.0000 C   0  0  0  0  0  0  0  0  0  0  0  0
  -23.4210  -30.4240   21.5020 C   0  0  0  0  0  3  0  0  0  0  0  0
  -24.8950  -28.9330   20.0560 C   0  0  0  0  0  0  0  0  0  0  0  0
  -25.9390  -30.8270   21.3090 C   0  0  0  0  0  2  0  0  0  0  0  0
  -26.0450  -29.4680   20.6480 C   0  0  0  0  0  0  0  0  0  0  0  0
  -27.2580  -28.7470   20.6170 C   0  0  0  0  0  3  0  0  0  0  0  0
  -26.1450  -26.9440   19.4240 C   0  0  0  0  0  3  0  0  0  0  0  0
  -24.9380  -27.6690   19.4460 C   0  0  0  0  0  3  0  0  0  0  0  0
  -23.6400  -29.7710   20.1110 C   0  0  0  0  0  2  0  0  0  0  0  0
  -24.6760  -31.0320   22.0550 N   0  0  0  0  0  0  0  0  0  0  0  0
  -23.5250  -32.0530   23.7210 O   0  0  0  0  0  0  0  0  0  0  0  0
  -22.7840  -29.3760   22.4430 C   0  0  0  0  0  0  0  0  0  0  0  0
  -21.4670  -29.1650   22.2950 N   0  0  0  0  0  0  0  0  0  0  0  0
  -23.4720  -28.7550   23.2580 O   0  0  0  0  0  0  0  0  0  0  0  0
  -20.9720  -29.7190   21.6100 H   0  0  0  0  0  0  0  0  0  0  0  0
  -18.1200  -27.8690   22.7090 C   0  0  0  0  0  0  0  0  0  0  0  0
  -20.6620  -28.1980   23.0430 C   0  0  0  0  0  3  0  0  0  0  0  0
  -20.8200  -26.7740   22.4590 C   0  0  0  0  0  2  0  0  0  0  0  0
  -19.7510  -26.4270   21.4190 C   0  0  0  0  0  2  0  0  0  0  0  0
  -18.3510  -26.5280   22.0320 C   0  0  0  0  0  2  0  0  0  0  0  0
  -19.2060  -28.6590   23.1700 C   0  0  0  0  0  0  0  0  0  0  0  0
  -18.9390  -29.9120   23.7630 C   0  0  0  0  0  3  0  0  0  0  0  0
  -17.6170  -30.3760   23.9010 C   0  0  0  0  0  3  0  0  0  0  0  0
  -16.5450  -29.5830   23.4570 C   0  0  0  0  0  3  0  0  0  0  0  0
  -16.7960  -28.3310   22.8670 C   0  0  0  0  0  3  0  0  0  0  0  0
  -25.8890  -32.4400   23.8080 C   0  0  0  0  0  3  0  0  0  0  0  0
  -25.5710  -33.8330   24.1460 N   0  0  0  0  0  0  0  0  0  0  0  0
  -25.9100  -34.8930   23.3990 C   0  0  0  0  0  0  0  0  0  0  0  0
  -26.5930  -34.7990   22.3760 O   0  0  0  0  0  0  0  0  0  0  0  0
  -24.9620  -33.9780   24.9390 H   0  0  0  0  0  0  0  0  0  0  0  0
  -24.1800  -36.6810   23.0300 C   0  0  0  0  0  1  0  0  0  0  0  0
  -25.4090  -36.2760   23.8600 C   0  0  0  0  0  3  0  0  0  0  0  0
  -27.5250  -37.1600   24.7330 C   0  0  0  0  0  1  0  0  0  0  0  0
  -26.4400  -37.3330   23.7710 N   0  0  0  0  0  0  0  0  0  0  0  0
  -26.0290  -38.2500   23.9190 H   0  0  0  0  0  0  0  0  0  0  0  0
  -26.4050  -31.6590   25.0770 C   0  0  1  0  0  0  0  0  0  0  0  0
  -25.3080  -31.4070   26.1390 C   0  0  0  0  0  1  0  0  0  0  0  0
  -26.9980  -30.2880   24.6730 C   0  0  0  0  0  1  0  0  0  0  0  0
  -27.5470  -32.4550   25.7530 C   0  0  0  0  0  1  0  0  0  0  0  0
  -31.1170  -21.7750   22.8840 C   0  0  0  0  0  2  0  0  0  0  0  0
  -30.3570  -20.4320   22.8400 C   0  0  0  0  0  2  0  0  0  0  0  0
  -31.1320  -19.3150   22.1220 C   0  0  0  0  0  2  0  0  0  0  0  0
  -30.3430  -17.9930   22.0860 C   0  0  0  0  0  2  0  0  0  0  0  0
  -31.0370  -16.9030   21.2530 C   0  0  0  0  0  2  0  0  0  0  0  0
  -30.2440  -15.5760   21.2170 C   0  0  0  0  0  2  0  0  0  0  0  0
  -30.8100  -14.5130   20.2500 C   0  0  0  0  0  0  0  0  0  0  0  0
  -30.4170  -12.4670   18.9180 C   0  0  0  0  0  2  0  0  0  0  0  0
  -29.4240  -12.7620   17.7750 C   0  0  0  0  0  2  0  0  0  0  0  0
  -27.9660  -12.6200   18.2570 C   0  0  0  0  0  2  0  0  0  0  0  0
  -27.7000  -13.3760   19.5880 C   0  0  0  0  0  3  0  0  0  0  0  0
  -28.7970  -13.0630   20.6320 C   0  0  0  0  0  2  0  0  0  0  0  0
  -30.1030  -13.3740   20.0310 N   0  0  0  0  0  0  0  0  0  0  0  0
  -31.8660  -14.7570   19.6550 O   0  0  0  0  0  0  0  0  0  0  0  0
  -25.3170  -13.9700   20.3660 C   0  0  0  0  0  0  0  0  0  0  0  0
  -24.2640  -13.1910   20.7660 C   0  0  0  0  0  0  0  0  0  0  0  0
  -24.7320  -11.8420   20.7180 C   0  0  0  0  0  0  0  0  0  0  0  0
  -26.3600  -13.0940   20.1040 N   0  0  0  0  0  0  0  0  0  0  0  0
  -26.0120  -11.8090   20.3700 N   0  0  0  0  0  0  0  0  0  0  0  0
  -24.0180  -10.5760   20.9270 C   0  0  0  0  0  0  0  0  0  0  0  0
  -24.4720   -9.6190   21.8620 C   0  0  0  0  0  3  0  0  0  0  0  0
  -23.7620   -8.4150   22.0580 C   0  0  0  0  0  3  0  0  0  0  0  0
  -22.5820   -8.1620   21.3220 C   0  0  0  0  0  0  0  0  0  0  0  0
  -22.1450   -9.1070   20.3750 C   0  0  0  0  0  3  0  0  0  0  0  0
  -22.8570  -10.3020   20.1770 C   0  0  0  0  0  3  0  0  0  0  0  0
  -21.8370   -7.0120   21.4290 O   0  0  0  0  0  0  0  0  0  0  0  0
  -21.7860   -6.2930   22.5980 C   0  0  0  0  0  0  0  0  0  0  0  0
  -21.3460   -6.8710   23.8090 C   0  0  0  0  0  3  0  0  0  0  0  0
  -21.2430   -6.0790   24.9690 C   0  0  0  0  0  3  0  0  0  0  0  0
  -21.5690   -4.7100   24.9200 C   0  0  0  0  0  0  0  0  0  0  0  0
  -22.0020   -4.1320   23.7130 C   0  0  0  0  0  3  0  0  0  0  0  0
  -22.1070   -4.9220   22.5550 C   0  0  0  0  0  0  0  0  0  0  0  0
  -22.5040   -4.3560   21.3900 F   0  0  0  0  0  0  0  0  0  0  0  0
  -21.4630   -3.9450   26.0320 F   0  0  0  0  0  0  0  0  0  0  0  0
  -22.8730  -13.6600   21.0830 C   0  0  0  0  0  0  0  0  0  0  0  0
  -22.1770  -12.9600   21.9720 N   0  0  0  0  0  0  0  0  0  0  0  0
  -22.4110  -14.6830   20.5800 O   0  0  0  0  0  0  0  0  0  0  0  0
  -22.5620  -12.1340   22.4070 H   0  0  0  0  0  0  0  0  0  0  0  0
  -21.2440  -13.2550   22.2210 H   0  0  0  0  0  0  0  0  0  0  0  0
  -25.4690  -15.3410   20.1850 N   0  0  0  0  0  0  0  0  0  0  0  0
  -24.7050  -15.9950   20.3200 H   0  0  0  0  0  0  0  0  0  0  0  0
  -26.3120  -15.7860   19.8420 H   0  0  0  0  0  0  0  0  0  0  0  0
  -29.8050  -22.6890   24.9090 C   0  0  0  0  0  2  0  0  0  0  0  0
  -29.0740  -23.8540   25.3840 N   0  0  0  0  0  0  0  0  0  0  0  0
  -29.7280  -24.6100   25.5760 H   0  0  0  0  0  0  0  0  0  0  0  0
  -28.6910  -23.6380   26.3030 H   0  0  0  0  0  0  0  0  0  0  0  0
  1 49  1  0
  1 91  1  0
  2  4  1  0
  2  1  1  0
  3  2  1  0
  5  2  1  0
  6  5  1  0
  7  8  1  0
  7  6  1  0
  8 10  1  0
  9 20  2  0
 10 15  1  0
 11 19  1  0
 11 21  1  0
 12 18  1  0
 12 14  1  0
 13 19  1  0
 14 13  1  0
 15 14  2  0
 16 17  1  0
 16 10  2  0
 17 12  2  0
 18 11  1  0
 19  9  1  0
 21 23  2  0
 22 21  1  0
 24 22  1  0
 25 34  2  0
 25 30  1  0
 26 22  1  0
 26 30  1  0
 27 26  1  0
 28 29  1  0
 28 27  1  0
 29 25  1  0
 30 31  2  0
 31 32  1  0
 33 32  2  0
 34 33  1  0
 35  9  1  0
 35 36  1  0
 35 45  1  0
 36 39  1  0
 37 41  1  0
 37 36  1  0
 38 37  2  0
 41 40  1  0
 43 41  1  0
 43 44  1  0
 43 42  1  0
 45 48  1  1
 45 46  1  0
 47 45  1  0
 50 49  1  0
 51 50  1  0
 52 51  1  0
 53 52  1  0
 54 53  1  0
 55 54  1  0
 56 61  1  0
 57 58  1  0
 57 56  1  0
 59 58  1  0
 59 66  1  0
 59 60  1  0
 61 55  1  0
 61 60  1  0
 62 55  2  0
 63 64  2  0
 64 83  1  0
 65 64  1  0
 65 68  1  0
 66 63  1  0
 66 67  1  0
 67 65  2  0
 68 69  1  0
 69 70  2  0
 71 74  1  0
 71 70  1  0
 72 71  2  0
 73 72  1  0
 73 68  2  0
 74 75  1  0
 75 76  1  0
 76 77  2  0
 78 77  1  0
 78 82  1  0
 79 78  2  0
 80 75  2  0
 80 79  1  0
 81 80  1  0
 83 84  1  0
 84 87  1  0
 84 86  1  0
 85 83  2  0
 88 89  1  0
 88 63  1  0
 90 88  1  0
 91 92  1  0
 92 93  1  0
 92 94  1  0
M  ISO  4   7 101   8 101  54 100  55 100
M  END
>  <TORSDO>  (61) 
F 28

>  <SCORE>  (61) 
-9.850

>  <name>  (61) 
61

>  <ligand_id>  (61) 
61

>  <original_smiles>  (61) 
[H]c1c([H])c([H])c2c(c1[H])C([H])([H])C([H])([H])C([H])([H])C2([H])N([H])C(=O)C1([H])N(C(=O)C([H])(N([H])C(=O)C([H])(N([H])C([H])([H])[H])C([H])([H])[H])C(C([H])([H])[H])(C([H])([H])[H])C([H])([H])[H])C([H])([H])c2c([H])c(OC([H])([H])C([H])([H])C([H])([H])[N+]([H])([H])C([H])(C([H])([H])N([H])[H])C([H])([H])C([H])([H])C([H])([H])C([H])([H])C([H])([H])C([H])([H])C(=O)N3C([H])([H])C([H])([H])C([H])([H])C([H])(n4nc(-c5c([H])c([H])c(Oc6c([H])c([H])c(F)c([H])c6F)c([H])c5[H])c(C(=O)N([H])[H])c4N([H])[H])C3([H])[H])c([H])c([H])c2C1([H])[H]

>  <smiles>  (61) 
[H]c1c([H])c([H])c2c(c1[H])C([H])([H])C([H])([H])C([H])([H])C2([H])N([H])C(=O)C1([H])N(C(=O)C([H])(N([H])C(=O)C([H])(N([H])C([H])([H])[H])C([H])([H])[H])C(C([H])([H])[H])(C([H])([H])[H])C([H])([H])[H])C([H])([H])c2c([H])c(OC([H])([H])C([H])([H])C([H])([H])[N+]([H])([H])C([H])(C([H])([H])N([H])[H])C([H])([H])C([H])([H])C([H])([H])C([H])([H])C([H])([H])C([H])([H])C(=O)N3C([H])([H])C([H])([H])C([H])([H])C([H])(n4nc(-c5c([H])c([H])c(Oc6c([H])c([H])c(F)c([H])c6F)c([H])c5[H])c(C(=O)N([H])[H])c4N([H])[H])C3([H])[H])c([H])c([H])c2C1([H])[H]

$$$$
62:0:0
     RDKit          3D

 98107  0  0  1  0  0  0  0  0999 V2000
  -31.2440  -19.9860   20.6440 C   0  0  0  0  0  3  0  0  0  0  0  0
  -30.9020  -21.3210   20.9460 C   0  0  0  0  0  3  0  0  0  0  0  0
  -29.0740  -19.6760   19.5970 C   0  0  0  0  0  3  0  0  0  0  0  0
  -30.3160  -19.1390   20.0000 C   0  0  0  0  0  0  0  0  0  0  0  0
  -29.6300  -21.8380   20.6170 C   0  0  0  0  0  0  0  0  0  0  0  0
  -28.7190  -21.0090   19.9120 C   0  0  0  0  0  0  0  0  0  0  0  0
  -27.3300  -21.5000   19.5370 C   0  0  0  0  0  1  0  0  0  0  0  0
  -30.6430  -17.6600   19.7550 C   0  0  0  0  0  2  0  0  0  0  0  0
  -30.7590  -15.2600   20.7820 C   0  0  0  0  0  0  0  0  0  0  0  0
  -31.3330  -14.7770   21.9130 C   0  0  0  0  0  0  0  0  0  0  0  0
  -31.3520  -15.5050   23.2510 C   0  0  0  0  0  2  0  0  0  0  0  0
  -29.8950  -17.1840   22.2340 C   0  0  0  0  0  2  0  0  0  0  0  0
  -30.0500  -16.6340   20.7800 C   0  0  0  0  0  3  0  0  0  0  0  0
  -31.0990  -16.9420   23.0510 N   0  0  0  0  0  4  0  0  0  0  0  0
  -31.9030  -17.3640   22.6120 H   0  0  0  0  0  0  0  0  0  0  0  0
  -30.9900  -17.3760   23.9540 H   0  0  0  0  0  0  0  0  0  0  0  0
  -30.9390  -14.5180   19.5260 C   0  0  0  0  0  0  0  0  0  0  0  0
  -30.3330  -12.5310   18.1810 C   0  0  0  0  0  2  0  0  0  0  0  0
  -29.2330  -12.8460   17.1520 C   0  0  0  0  0  2  0  0  0  0  0  0
  -27.8390  -12.6800   17.7860 C   0  0  0  0  0  2  0  0  0  0  0  0
  -27.7140  -13.4270   19.1400 C   0  0  0  0  0  3  0  0  0  0  0  0
  -28.9080  -13.1040   20.0670 C   0  0  0  0  0  2  0  0  0  0  0  0
  -30.1560  -13.4170   19.3450 N   0  0  0  0  0  0  0  0  0  0  0  0
  -31.8140  -14.8350   18.7160 O   0  0  0  0  0  0  0  0  0  0  0  0
  -25.4340  -14.0240   20.1770 C   0  0  0  0  0  0  0  0  0  0  0  0
  -24.4160  -13.2460   20.6600 C   0  0  0  0  0  0  0  0  0  0  0  0
  -24.8530  -11.8930   20.5240 C   0  0  0  0  0  0  0  0  0  0  0  0
  -26.4320  -13.1460   19.7820 N   0  0  0  0  0  0  0  0  0  0  0  0
  -26.0910  -11.8570   20.0420 N   0  0  0  0  0  0  0  0  0  0  0  0
  -24.1460  -10.6290   20.7690 C   0  0  0  0  0  0  0  0  0  0  0  0
  -24.6190   -9.6870   21.7100 C   0  0  0  0  0  3  0  0  0  0  0  0
  -23.9120   -8.4880   21.9400 C   0  0  0  0  0  3  0  0  0  0  0  0
  -22.7170   -8.2210   21.2330 C   0  0  0  0  0  0  0  0  0  0  0  0
  -22.2610   -9.1520   20.2820 C   0  0  0  0  0  3  0  0  0  0  0  0
  -22.9680  -10.3430   20.0490 C   0  0  0  0  0  3  0  0  0  0  0  0
  -21.9780   -7.0720   21.3740 O   0  0  0  0  0  0  0  0  0  0  0  0
  -21.8930   -6.4130   22.5750 C   0  0  0  0  0  0  0  0  0  0  0  0
  -21.4380   -7.0580   23.7460 C   0  0  0  0  0  3  0  0  0  0  0  0
  -21.2970   -6.3260   24.9420 C   0  0  0  0  0  3  0  0  0  0  0  0
  -21.6040   -4.9520   24.9680 C   0  0  0  0  0  0  0  0  0  0  0  0
  -22.0530   -4.3080   23.8010 C   0  0  0  0  0  3  0  0  0  0  0  0
  -22.1950   -5.0370   22.6070 C   0  0  0  0  0  0  0  0  0  0  0  0
  -22.6080   -4.4070   21.4810 F   0  0  0  0  0  0  0  0  0  0  0  0
  -21.4610   -4.2480   26.1140 F   0  0  0  0  0  0  0  0  0  0  0  0
  -23.0720  -13.7240   21.1320 C   0  0  0  0  0  0  0  0  0  0  0  0
  -22.4860  -13.0480   22.1150 N   0  0  0  0  0  0  0  0  0  0  0  0
  -22.5510  -14.7330   20.6590 O   0  0  0  0  0  0  0  0  0  0  0  0
  -22.9180  -12.2320   22.5220 H   0  0  0  0  0  0  0  0  0  0  0  0
  -21.5900  -13.3560   22.4660 H   0  0  0  0  0  0  0  0  0  0  0  0
  -25.5860  -15.3990   20.0230 N   0  0  0  0  0  0  0  0  0  0  0  0
  -24.8470  -16.0540   20.2580 H   0  0  0  0  0  0  0  0  0  0  0  0
  -26.3840  -15.8420   19.5870 H   0  0  0  0  0  0  0  0  0  0  0  0
  -32.0050  -13.6170   22.0100 O   0  0  0  0  0  0  0  0  0  0  0  0
  -32.2910  -13.5190   22.9110 H   0  0  0  0  0  0  0  0  0  0  0  0
  -29.2230  -23.2160   21.1550 C   0  0  0  0  0  2  0  0  0  0  0  0
  -29.2930  -24.4140   20.1750 C   0  0  0  0  0  2  0  0  0  0  0  0
  -28.6290  -25.6660   20.7920 C   0  0  0  0  0  2  0  0  0  0  0  0
  -28.6330  -26.8050   19.9230 O   0  0  0  0  0  0  0  0  0  0  0  0
  -24.6680  -31.8340   23.0610 C   0  0  0  0  0  0  0  0  0  0  0  0
  -27.4550  -27.5160   19.9470 C   0  0  0  0  0  0  0  0  0  0  0  0
  -23.5030  -30.3950   21.4190 C   0  0  0  0  0  3  0  0  0  0  0  0
  -25.0070  -28.9180   19.9810 C   0  0  0  0  0  0  0  0  0  0  0  0
  -26.0100  -30.8540   21.2030 C   0  0  0  0  0  2  0  0  0  0  0  0
  -26.1450  -29.4870   20.5630 C   0  0  0  0  0  0  0  0  0  0  0  0
  -27.3770  -28.7940   20.5430 C   0  0  0  0  0  3  0  0  0  0  0  0
  -26.3040  -26.9530   19.3630 C   0  0  0  0  0  3  0  0  0  0  0  0
  -25.0800  -27.6480   19.3790 C   0  0  0  0  0  3  0  0  0  0  0  0
  -23.7310  -29.7290   20.0350 C   0  0  0  0  0  2  0  0  0  0  0  0
  -24.7460  -31.0420   21.9530 N   0  0  0  0  0  0  0  0  0  0  0  0
  -23.5830  -32.0640   23.6100 O   0  0  0  0  0  0  0  0  0  0  0  0
  -22.8990  -29.3460   22.3800 C   0  0  0  0  0  0  0  0  0  0  0  0
  -21.5850  -29.0990   22.2470 N   0  0  0  0  0  0  0  0  0  0  0  0
  -23.6080  -28.7590   23.2010 O   0  0  0  0  0  0  0  0  0  0  0  0
  -21.0690  -29.6340   21.5650 H   0  0  0  0  0  0  0  0  0  0  0  0
  -18.2660  -27.7530   22.7310 C   0  0  0  0  0  0  0  0  0  0  0  0
  -20.8080  -28.1260   23.0140 C   0  0  0  0  0  3  0  0  0  0  0  0
  -20.9800  -26.7030   22.4390 C   0  0  0  0  0  2  0  0  0  0  0  0
  -19.8970  -26.3270   21.4220 C   0  0  0  0  0  2  0  0  0  0  0  0
  -18.5070  -26.4110   22.0590 C   0  0  0  0  0  2  0  0  0  0  0  0
  -19.3470  -28.5640   23.1640 C   0  0  0  0  0  0  0  0  0  0  0  0
  -19.0690  -29.8180   23.7510 C   0  0  0  0  0  3  0  0  0  0  0  0
  -17.7430  -30.2610   23.9130 C   0  0  0  0  0  3  0  0  0  0  0  0
  -16.6770  -29.4470   23.4950 C   0  0  0  0  0  3  0  0  0  0  0  0
  -16.9380  -28.1950   22.9110 C   0  0  0  0  0  3  0  0  0  0  0  0
  -25.9360  -32.5090   23.6750 C   0  0  0  0  0  3  0  0  0  0  0  0
  -25.5590  -33.8670   24.0860 N   0  0  0  0  0  0  0  0  0  0  0  0
  -25.8100  -34.9730   23.3720 C   0  0  0  0  0  0  0  0  0  0  0  0
  -26.4550  -34.9590   22.3210 O   0  0  0  0  0  0  0  0  0  0  0  0
  -24.9820  -33.9480   24.9110 H   0  0  0  0  0  0  0  0  0  0  0  0
  -23.9760  -36.6810   23.1470 C   0  0  0  0  0  1  0  0  0  0  0  0
  -25.2560  -36.3080   23.9120 C   0  0  0  0  0  3  0  0  0  0  0  0
  -27.3580  -37.2640   24.7440 C   0  0  0  0  0  1  0  0  0  0  0  0
  -26.2250  -37.4230   23.8360 N   0  0  0  0  0  0  0  0  0  0  0  0
  -25.7730  -38.3090   24.0460 H   0  0  0  0  0  0  0  0  0  0  0  0
  -26.5420  -31.7060   24.8900 C   0  0  1  0  0  0  0  0  0  0  0  0
  -25.4940  -31.3100   25.9570 C   0  0  0  0  0  1  0  0  0  0  0  0
  -27.2280  -30.4100   24.3960 C   0  0  0  0  0  1  0  0  0  0  0  0
  -27.6370  -32.5500   25.5830 C   0  0  0  0  0  1  0  0  0  0  0  0
  1  2  1  0
  3  6  2  0
  3  4  1  0
  4  1  2  0
  5  2  2  0
  5 55  1  0
  6  5  1  0
  7  6  1  0
  8  4  1  0
  9 10  2  0
 10 53  1  0
 10 11  1  0
 12 14  1  0
 13  8  1  0
 13  9  1  0
 13 12  1  0
 14 11  1  0
 14 16  1  0
 15 14  1  0
 17  9  1  0
 18 23  1  0
 19 20  1  0
 19 18  1  0
 21 20  1  0
 21 28  1  0
 21 22  1  0
 23 17  1  0
 23 22  1  0
 24 17  2  0
 25 26  2  0
 26 45  1  0
 27 26  1  0
 27 30  1  0
 28 29  1  0
 28 25  1  0
 29 27  2  0
 30 31  1  0
 31 32  2  0
 33 36  1  0
 33 32  1  0
 34 33  2  0
 35 34  1  0
 35 30  2  0
 36 37  1  0
 37 42  2  0
 37 38  1  0
 38 39  2  0
 39 40  1  0
 40 44  1  0
 41 40  2  0
 42 41  1  0
 43 42  1  0
 45 46  1  0
 46 49  1  0
 46 48  1  0
 47 45  2  0
 50 25  1  0
 50 51  1  0
 52 50  1  0
 53 54  1  0
 56 57  1  0
 56 55  1  0
 58 60  1  0
 58 57  1  0
 59 70  2  0
 60 65  1  0
 61 69  1  0
 61 71  1  0
 62 68  1  0
 62 64  1  0
 63 69  1  0
 64 63  1  0
 65 64  2  0
 66 67  1  0
 66 60  2  0
 67 62  2  0
 68 61  1  0
 69 59  1  0
 71 73  2  0
 72 71  1  0
 74 72  1  0
 75 84  2  0
 75 80  1  0
 76 72  1  0
 76 80  1  0
 77 76  1  0
 78 79  1  0
 78 77  1  0
 79 75  1  0
 80 81  2  0
 81 82  1  0
 83 82  2  0
 84 83  1  0
 85 59  1  0
 85 86  1  0
 85 95  1  0
 86 89  1  0
 87 91  1  0
 87 86  1  0
 88 87  2  0
 91 90  1  0
 93 91  1  0
 93 94  1  0
 93 92  1  0
 95 98  1  1
 95 96  1  0
 97 95  1  0
M  ISO  4   9 100  17 100  57 101  58 101
M  END
>  <TORSDO>  (62) 
F 22

>  <SCORE>  (62) 
-8.841

>  <name>  (62) 
62

>  <ligand_id>  (62) 
62

>  <original_smiles>  (62) 
[H]OC1=C(C(=O)N2C([H])([H])C([H])([H])C([H])([H])C([H])(n3nc(-c4c([H])c([H])c(Oc5c([H])c([H])c(F)c([H])c5F)c([H])c4[H])c(C(=O)N([H])[H])c3N([H])[H])C2([H])[H])C([H])(C([H])([H])c2c([H])c([H])c(C([H])([H])C([H])([H])C([H])([H])Oc3c([H])c([H])c4c(c3[H])C([H])([H])N(C(=O)C([H])(N([H])C(=O)C([H])(N([H])C([H])([H])[H])C([H])([H])[H])C(C([H])([H])[H])(C([H])([H])[H])C([H])([H])[H])C([H])(C(=O)N([H])C3([H])c5c([H])c([H])c([H])c([H])c5C([H])([H])C([H])([H])C3([H])[H])C4([H])[H])c(C([H])([H])[H])c2[H])C([H])([H])[N+]([H])([H])C1([H])[H]

>  <smiles>  (62) 
[H]OC1=C(C(=O)N2C([H])([H])C([H])([H])C([H])([H])C([H])(n3nc(-c4c([H])c([H])c(Oc5c([H])c([H])c(F)c([H])c5F)c([H])c4[H])c(C(=O)N([H])[H])c3N([H])[H])C2([H])[H])C([H])(C([H])([H])c2c([H])c([H])c(C([H])([H])C([H])([H])C([H])([H])Oc3c([H])c([H])c4c(c3[H])C([H])([H])N(C(=O)C([H])(N([H])C(=O)C([H])(N([H])C([H])([H])[H])C([H])([H])[H])C(C([H])([H])[H])(C([H])([H])[H])C([H])([H])[H])C([H])(C(=O)N([H])C3([H])c5c([H])c([H])c([H])c([H])c5C([H])([H])C([H])([H])C3([H])[H])C4([H])[H])c(C([H])([H])[H])c2[H])C([H])([H])[N+]([H])([H])C1([H])[H]

$$$$
63:0:0
     RDKit          3D

 89 96  0  0  1  0  0  0  0  0999 V2000
  -28.9610  -21.7580   19.0400 C   0  0  0  0  0  3  0  0  0  0  0  0
  -28.9030  -20.3940   18.9100 C   0  0  0  0  0  0  0  0  0  0  0  0
  -28.4130  -23.1620   18.6770 C   0  0  0  0  0  2  0  0  0  0  0  0
  -28.5500  -24.2500   19.7730 C   0  0  0  0  0  2  0  0  0  0  0  0
  -28.6170  -25.6750   19.1590 C   0  0  0  0  0  2  0  0  0  0  0  0
  -28.4130  -26.7380   20.1030 O   0  0  0  0  0  0  0  0  0  0  0  0
  -24.5880  -31.8750   23.2260 C   0  0  0  0  0  0  0  0  0  0  0  0
  -27.2130  -27.4280   20.1130 C   0  0  0  0  0  0  0  0  0  0  0  0
  -23.3690  -30.4740   21.5930 C   0  0  0  0  0  3  0  0  0  0  0  0
  -24.8100  -28.9340   20.1590 C   0  0  0  0  0  0  0  0  0  0  0  0
  -25.8940  -30.8280   21.3790 C   0  0  0  0  0  2  0  0  0  0  0  0
  -25.9730  -29.4550   20.7390 C   0  0  0  0  0  0  0  0  0  0  0  0
  -27.1720  -28.7080   20.7180 C   0  0  0  0  0  3  0  0  0  0  0  0
  -26.0200  -26.9100   19.5570 C   0  0  0  0  0  3  0  0  0  0  0  0
  -24.8280  -27.6590   19.5720 C   0  0  0  0  0  3  0  0  0  0  0  0
  -23.5670  -29.7930   20.2140 C   0  0  0  0  0  2  0  0  0  0  0  0
  -24.6360  -31.0740   22.1240 N   0  0  0  0  0  0  0  0  0  0  0  0
  -23.5110  -32.1490   23.7740 O   0  0  0  0  0  0  0  0  0  0  0  0
  -22.7240  -29.4540   22.5580 C   0  0  0  0  0  0  0  0  0  0  0  0
  -21.3990  -29.2730   22.4390 N   0  0  0  0  0  0  0  0  0  0  0  0
  -23.4130  -28.8260   23.3670 O   0  0  0  0  0  0  0  0  0  0  0  0
  -20.9050  -29.8290   21.7550 H   0  0  0  0  0  0  0  0  0  0  0  0
  -18.0270  -28.0810   22.9560 C   0  0  0  0  0  0  0  0  0  0  0  0
  -20.5860  -28.3370   23.2150 C   0  0  0  0  0  3  0  0  0  0  0  0
  -20.6840  -26.9060   22.6380 C   0  0  0  0  0  2  0  0  0  0  0  0
  -19.5770  -26.5840   21.6290 C   0  0  0  0  0  2  0  0  0  0  0  0
  -18.1990  -26.7310   22.2810 C   0  0  0  0  0  2  0  0  0  0  0  0
  -19.1490  -28.8420   23.3800 C   0  0  0  0  0  0  0  0  0  0  0  0
  -18.9360  -30.1060   23.9710 C   0  0  0  0  0  3  0  0  0  0  0  0
  -17.6330  -30.6110   24.1420 C   0  0  0  0  0  3  0  0  0  0  0  0
  -16.5250  -29.8470   23.7330 C   0  0  0  0  0  3  0  0  0  0  0  0
  -16.7230  -28.5840   23.1470 C   0  0  0  0  0  3  0  0  0  0  0  0
  -25.8790  -32.5040   23.8370 C   0  0  0  0  0  3  0  0  0  0  0  0
  -26.4120  -31.7270   25.1030 C   0  0  1  0  0  0  0  0  0  0  0  0
  -25.3310  -31.4840   26.1810 C   0  0  0  0  0  1  0  0  0  0  0  0
  -26.9910  -30.3520   24.6960 C   0  0  0  0  0  1  0  0  0  0  0  0
  -27.5700  -32.5190   25.7550 C   0  0  0  0  0  1  0  0  0  0  0  0
  -25.5730  -33.9010   24.1740 N   0  0  0  0  0  0  0  0  0  0  0  0
  -25.8990  -34.9550   23.4150 C   0  0  0  0  0  0  0  0  0  0  0  0
  -26.5620  -34.8550   22.3770 O   0  0  0  0  0  0  0  0  0  0  0  0
  -24.9850  -34.0540   24.9800 H   0  0  0  0  0  0  0  0  0  0  0  0
  -24.1680  -36.7460   23.0780 C   0  0  0  0  0  1  0  0  0  0  0  0
  -25.4150  -36.3410   23.8800 C   0  0  0  0  0  3  0  0  0  0  0  0
  -27.5560  -37.2230   24.6950 C   0  0  0  0  0  1  0  0  0  0  0  0
  -26.4460  -37.3940   23.7620 N   0  0  0  0  0  0  0  0  0  0  0  0
  -26.0410  -38.3140   23.9160 H   0  0  0  0  0  0  0  0  0  0  0  0
  -27.9590  -19.6030   17.9630 C   0  0  0  0  0  2  0  0  0  0  0  0
  -28.7000  -18.7790   17.0810 O   0  0  0  0  0  0  0  0  0  0  0  0
  -28.0790  -18.2520   16.5850 H   0  0  0  0  0  0  0  0  0  0  0  0
  -29.8850  -19.5120   19.7070 C   0  0  0  0  0  2  0  0  0  0  0  0
  -29.3470  -18.2150   20.3870 C   0  0  0  0  0  2  0  0  0  0  0  0
  -30.4320  -17.1070   20.5120 C   0  0  0  0  0  2  0  0  0  0  0  0
  -29.9430  -15.7440   21.0980 C   0  0  0  0  0  2  0  0  0  0  0  0
  -30.6700  -14.4970   20.5200 C   0  0  0  0  0  0  0  0  0  0  0  0
  -30.3780  -12.3400   19.3520 C   0  0  0  0  0  2  0  0  0  0  0  0
  -29.4460  -12.5670   18.1420 C   0  0  0  0  0  2  0  0  0  0  0  0
  -27.9680  -12.4370   18.5570 C   0  0  0  0  0  2  0  0  0  0  0  0
  -27.6280  -13.2650   19.8250 C   0  0  0  0  0  3  0  0  0  0  0  0
  -28.6740  -13.0300   20.9390 C   0  0  0  0  0  2  0  0  0  0  0  0
  -30.0030  -13.3180   20.3850 N   0  0  0  0  0  0  0  0  0  0  0  0
  -31.8130  -14.6470   20.0750 O   0  0  0  0  0  0  0  0  0  0  0  0
  -25.2260  -13.8910   20.5060 C   0  0  0  0  0  0  0  0  0  0  0  0
  -24.1500  -13.1270   20.8690 C   0  0  0  0  0  0  0  0  0  0  0  0
  -24.6040  -11.7730   20.8530 C   0  0  0  0  0  0  0  0  0  0  0  0
  -26.2690  -13.0030   20.2930 N   0  0  0  0  0  0  0  0  0  0  0  0
  -25.8970  -11.7240   20.5580 N   0  0  0  0  0  0  0  0  0  0  0  0
  -23.8690  -10.5160   21.0430 C   0  0  0  0  0  0  0  0  0  0  0  0
  -24.2940   -9.5460   21.9790 C   0  0  0  0  0  3  0  0  0  0  0  0
  -23.5610   -8.3540   22.1570 C   0  0  0  0  0  3  0  0  0  0  0  0
  -22.3880   -8.1210   21.3980 C   0  0  0  0  0  0  0  0  0  0  0  0
  -21.9830   -9.0800   20.4530 C   0  0  0  0  0  3  0  0  0  0  0  0
  -22.7160  -10.2640   20.2730 C   0  0  0  0  0  3  0  0  0  0  0  0
  -21.6260   -6.9820   21.4860 O   0  0  0  0  0  0  0  0  0  0  0  0
  -21.5790   -6.2350   22.6350 C   0  0  0  0  0  0  0  0  0  0  0  0
  -21.1750   -6.7900   23.8690 C   0  0  0  0  0  3  0  0  0  0  0  0
  -21.0740   -5.9700   25.0110 C   0  0  0  0  0  3  0  0  0  0  0  0
  -21.3660   -4.5960   24.9200 C   0  0  0  0  0  0  0  0  0  0  0  0
  -21.7630   -4.0400   23.6910 C   0  0  0  0  0  3  0  0  0  0  0  0
  -21.8660   -4.8570   22.5510 C   0  0  0  0  0  0  0  0  0  0  0  0
  -22.2280   -4.3130   21.3650 F   0  0  0  0  0  0  0  0  0  0  0  0
  -21.2620   -3.8060   26.0140 F   0  0  0  0  0  0  0  0  0  0  0  0
  -22.7510  -13.6130   21.1230 C   0  0  0  0  0  0  0  0  0  0  0  0
  -22.0110  -12.9270   21.9860 N   0  0  0  0  0  0  0  0  0  0  0  0
  -22.3240  -14.6380   20.5910 O   0  0  0  0  0  0  0  0  0  0  0  0
  -22.3690  -12.0980   22.4370 H   0  0  0  0  0  0  0  0  0  0  0  0
  -21.0730  -13.2340   22.2000 H   0  0  0  0  0  0  0  0  0  0  0  0
  -25.4000  -15.2590   20.3210 N   0  0  0  0  0  0  0  0  0  0  0  0
  -24.6390  -15.9210   20.4220 H   0  0  0  0  0  0  0  0  0  0  0  0
  -26.2620  -15.6910   20.0150 H   0  0  0  0  0  0  0  0  0  0  0  0
  2  1  2  0
  2 50  1  0
  3  1  1  0
  3  4  1  0
  5  4  1  0
  5  6  1  0
  6  8  1  0
  7 18  2  0
  8 13  1  0
  9 17  1  0
  9 19  1  0
 10 16  1  0
 10 12  1  0
 11 17  1  0
 12 11  1  0
 13 12  2  0
 14 15  1  0
 14  8  2  0
 15 10  2  0
 16  9  1  0
 17  7  1  0
 19 21  2  0
 20 19  1  0
 22 20  1  0
 23 32  2  0
 23 28  1  0
 24 20  1  0
 24 28  1  0
 25 24  1  0
 26 27  1  0
 26 25  1  0
 27 23  1  0
 28 29  2  0
 29 30  1  0
 31 30  2  0
 32 31  1  0
 33  7  1  0
 33 38  1  0
 33 34  1  0
 34 37  1  1
 34 35  1  0
 36 34  1  0
 38 41  1  0
 39 43  1  0
 39 38  1  0
 40 39  2  0
 43 42  1  0
 45 43  1  0
 45 46  1  0
 45 44  1  0
 47  2  1  0
 48 47  1  0
 49 48  1  0
 50 51  1  0
 51 52  1  0
 52 53  1  0
 54 53  1  0
 55 60  1  0
 56 57  1  0
 56 55  1  0
 58 57  1  0
 58 65  1  0
 58 59  1  0
 60 54  1  0
 60 59  1  0
 61 54  2  0
 62 63  2  0
 63 82  1  0
 64 63  1  0
 64 67  1  0
 65 62  1  0
 65 66  1  0
 66 64  2  0
 67 68  1  0
 68 69  2  0
 70 73  1  0
 70 69  1  0
 71 70  2  0
 72 71  1  0
 72 67  2  0
 73 74  1  0
 74 75  1  0
 75 76  2  0
 77 76  1  0
 77 81  1  0
 78 77  2  0
 79 74  2  0
 79 78  1  0
 80 79  1  0
 82 83  1  0
 83 86  1  0
 83 85  1  0
 84 82  2  0
 87 88  1  0
 87 62  1  0
 89 87  1  0
M  ISO  4   5 101   6 101  53 100  54 100
M  END
>  <TORSDO>  (63) 
F 25

>  <SCORE>  (63) 
-12.274

>  <name>  (63) 
63

>  <ligand_id>  (63) 
63

>  <original_smiles>  (63) 
[H]OC([H])([H])C(=C([H])C([H])([H])C([H])([H])C([H])([H])Oc1c([H])c([H])c2c(c1[H])C([H])([H])N(C(=O)C([H])(N([H])C(=O)C([H])(N([H])C([H])([H])[H])C([H])([H])[H])C(C([H])([H])[H])(C([H])([H])[H])C([H])([H])[H])C([H])(C(=O)N([H])C1([H])c3c([H])c([H])c([H])c([H])c3C([H])([H])C([H])([H])C1([H])[H])C2([H])[H])C([H])([H])C([H])([H])C([H])([H])C([H])([H])C(=O)N1C([H])([H])C([H])([H])C([H])([H])C([H])(n2nc(-c3c([H])c([H])c(Oc4c([H])c([H])c(F)c([H])c4F)c([H])c3[H])c(C(=O)N([H])[H])c2N([H])[H])C1([H])[H]

>  <smiles>  (63) 
[H]OC([H])([H])C(=C([H])C([H])([H])C([H])([H])C([H])([H])Oc1c([H])c([H])c2c(c1[H])C([H])([H])N(C(=O)C([H])(N([H])C(=O)C([H])(N([H])C([H])([H])[H])C([H])([H])[H])C(C([H])([H])[H])(C([H])([H])[H])C([H])([H])[H])C([H])(C(=O)N([H])C1([H])c3c([H])c([H])c([H])c([H])c3C([H])([H])C([H])([H])C1([H])[H])C2([H])[H])C([H])([H])C([H])([H])C([H])([H])C([H])([H])C(=O)N1C([H])([H])C([H])([H])C([H])([H])C([H])(n2nc(-c3c([H])c([H])c(Oc4c([H])c([H])c(F)c([H])c4F)c([H])c3[H])c(C(=O)N([H])[H])c2N([H])[H])C1([H])[H]

$$$$
64:0:0
     RDKit          3D

 95104  0  0  1  0  0  0  0  0999 V2000
  -29.0090  -21.5580   21.2650 C   0  0  0  0  0  3  0  0  0  0  0  0
  -28.8900  -22.9520   21.1220 C   0  0  0  0  0  3  0  0  0  0  0  0
  -28.1280  -21.2450   19.0170 C   0  0  0  0  0  3  0  0  0  0  0  0
  -28.6400  -20.7020   20.2110 C   0  0  0  0  0  0  0  0  0  0  0  0
  -28.3970  -23.5080   19.9210 C   0  0  0  0  0  0  0  0  0  0  0  0
  -27.9890  -22.6410   18.8720 C   0  0  0  0  0  0  0  0  0  0  0  0
  -27.3850  -23.1850   17.5860 C   0  0  0  0  0  1  0  0  0  0  0  0
  -28.7980  -19.2030   20.3660 C   0  0  0  0  0  2  0  0  0  0  0  0
  -29.9710  -18.6690   19.5330 C   0  0  0  0  0  2  0  0  0  0  0  0
  -33.1210  -17.4440   20.7430 C   0  0  0  0  0  2  0  0  0  0  0  0
  -31.7530  -17.9330   21.2370 C   0  0  0  0  0  2  0  0  0  0  0  0
  -32.9260  -17.0980   19.2700 C   0  0  0  0  0  2  0  0  0  0  0  0
  -30.6990  -17.4900   20.1960 C   0  0  0  0  0  3  0  0  0  0  0  0
  -31.4680  -16.6420   19.1640 C   0  0  0  0  0  3  0  0  0  0  0  0
  -31.5990  -14.1790   18.7870 C   0  0  0  0  0  0  0  0  0  0  0  0
  -31.2730  -11.7360   18.6250 C   0  0  0  0  0  2  0  0  0  0  0  0
  -30.1650  -11.3750   17.6200 C   0  0  0  0  0  2  0  0  0  0  0  0
  -28.7810  -11.3970   18.2950 C   0  0  0  0  0  2  0  0  0  0  0  0
  -28.5360  -12.7060   19.0870 C   0  0  0  0  0  3  0  0  0  0  0  0
  -29.7350  -13.0100   20.0120 C   0  0  0  0  0  2  0  0  0  0  0  0
  -30.9710  -13.0500   19.2010 N   0  0  0  0  0  0  0  0  0  0  0  0
  -32.4020  -14.2220   17.8490 O   0  0  0  0  0  0  0  0  0  0  0  0
  -31.3160  -15.2440   19.5360 N   0  0  0  0  0  0  0  0  0  0  0  0
  -30.7500  -15.0600   20.3470 H   0  0  0  0  0  0  0  0  0  0  0  0
  -26.5450  -13.6710   20.4110 C   0  0  0  0  0  0  0  0  0  0  0  0
  -25.4160  -13.0830   20.9200 C   0  0  0  0  0  0  0  0  0  0  0  0
  -25.5200  -11.6930   20.6080 C   0  0  0  0  0  0  0  0  0  0  0  0
  -27.2780  -12.6460   19.8320 N   0  0  0  0  0  0  0  0  0  0  0  0
  -26.6710  -11.4430   19.9990 N   0  0  0  0  0  0  0  0  0  0  0  0
  -24.5630  -10.5950   20.8060 C   0  0  0  0  0  0  0  0  0  0  0  0
  -24.8790   -9.4720   21.6010 C   0  0  0  0  0  3  0  0  0  0  0  0
  -23.9360   -8.4380   21.7890 C   0  0  0  0  0  3  0  0  0  0  0  0
  -22.6610   -8.5220   21.1810 C   0  0  0  0  0  0  0  0  0  0  0  0
  -22.3580   -9.6330   20.3730 C   0  0  0  0  0  3  0  0  0  0  0  0
  -23.2990  -10.6580   20.1840 C   0  0  0  0  0  3  0  0  0  0  0  0
  -21.6910   -7.5540   21.2880 O   0  0  0  0  0  0  0  0  0  0  0  0
  -21.5500   -6.8010   22.4240 C   0  0  0  0  0  0  0  0  0  0  0  0
  -21.2850   -7.3880   23.6800 C   0  0  0  0  0  3  0  0  0  0  0  0
  -21.0770   -6.5710   24.8090 C   0  0  0  0  0  3  0  0  0  0  0  0
  -21.1250   -5.1690   24.6820 C   0  0  0  0  0  0  0  0  0  0  0  0
  -21.3830   -4.5820   23.4310 C   0  0  0  0  0  3  0  0  0  0  0  0
  -21.5910   -5.3960   22.3040 C   0  0  0  0  0  0  0  0  0  0  0  0
  -21.8190   -4.8270   21.0960 F   0  0  0  0  0  0  0  0  0  0  0  0
  -20.9170   -4.3830   25.7650 F   0  0  0  0  0  0  0  0  0  0  0  0
  -24.2620  -13.7840   21.5790 C   0  0  0  0  0  0  0  0  0  0  0  0
  -23.6140  -13.1280   22.5370 N   0  0  0  0  0  0  0  0  0  0  0  0
  -23.9560  -14.9370   21.2790 O   0  0  0  0  0  0  0  0  0  0  0  0
  -23.8750  -12.1890   22.7990 H   0  0  0  0  0  0  0  0  0  0  0  0
  -22.8490  -13.5760   23.0230 H   0  0  0  0  0  0  0  0  0  0  0  0
  -26.9970  -14.9860   20.3760 N   0  0  0  0  0  0  0  0  0  0  0  0
  -26.4440  -15.7560   20.7360 H   0  0  0  0  0  0  0  0  0  0  0  0
  -27.8480  -15.2910   19.9240 H   0  0  0  0  0  0  0  0  0  0  0  0
  -28.2630  -25.0190   19.7400 C   0  0  0  0  0  2  0  0  0  0  0  0
  -29.1750  -25.9550   20.5760 C   0  0  0  0  0  2  0  0  0  0  0  0
  -29.1410  -27.3350   20.1730 O   0  0  0  0  0  0  0  0  0  0  0  0
  -24.8150  -31.9040   23.5090 C   0  0  0  0  0  0  0  0  0  0  0  0
  -27.9140  -27.9540   20.2090 C   0  0  0  0  0  0  0  0  0  0  0  0
  -23.7750  -30.5120   21.7490 C   0  0  0  0  0  3  0  0  0  0  0  0
  -25.3930  -29.2240   20.2580 C   0  0  0  0  0  0  0  0  0  0  0  0
  -26.2580  -31.1130   21.6420 C   0  0  0  0  0  2  0  0  0  0  0  0
  -26.4830  -29.8020   20.9220 C   0  0  0  0  0  0  0  0  0  0  0  0
  -27.7440  -29.1690   20.9060 C   0  0  0  0  0  3  0  0  0  0  0  0
  -26.8190  -27.4200   19.4960 C   0  0  0  0  0  3  0  0  0  0  0  0
  -25.5550  -28.0290   19.5410 C   0  0  0  0  0  3  0  0  0  0  0  0
  -24.0720  -29.9550   20.3320 C   0  0  0  0  0  2  0  0  0  0  0  0
  -24.9650  -31.1900   22.3590 N   0  0  0  0  0  0  0  0  0  0  0  0
  -23.7040  -32.0350   24.0410 O   0  0  0  0  0  0  0  0  0  0  0  0
  -23.2100  -29.3660   22.6210 C   0  0  0  0  0  0  0  0  0  0  0  0
  -21.9620  -28.9590   22.3370 N   0  0  0  0  0  0  0  0  0  0  0  0
  -23.8940  -28.8510   23.5080 O   0  0  0  0  0  0  0  0  0  0  0  0
  -21.4640  -29.4410   21.6000 H   0  0  0  0  0  0  0  0  0  0  0  0
  -18.8340  -27.1540   22.3940 C   0  0  0  0  0  0  0  0  0  0  0  0
  -21.2380  -27.8800   23.0070 C   0  0  0  0  0  3  0  0  0  0  0  0
  -21.6810  -26.4960   22.4770 C   0  0  0  0  0  2  0  0  0  0  0  0
  -20.8080  -25.9820   21.3270 C   0  0  0  0  0  2  0  0  0  0  0  0
  -19.3480  -25.8670   21.7720 C   0  0  0  0  0  2  0  0  0  0  0  0
  -19.7230  -28.1070   22.9600 C   0  0  0  0  0  0  0  0  0  0  0  0
  -19.1940  -29.3010   23.4970 C   0  0  0  0  0  3  0  0  0  0  0  0
  -17.8090  -29.5500   23.4730 C   0  0  0  0  0  3  0  0  0  0  0  0
  -16.9330  -28.5970   22.9270 C   0  0  0  0  0  3  0  0  0  0  0  0
  -17.4460  -27.4010   22.3920 C   0  0  0  0  0  3  0  0  0  0  0  0
  -26.0260  -32.6060   24.2000 C   0  0  0  0  0  3  0  0  0  0  0  0
  -25.6420  -34.0020   24.4470 N   0  0  0  0  0  0  0  0  0  0  0  0
  -25.9570  -35.0290   23.6450 C   0  0  0  0  0  0  0  0  0  0  0  0
  -26.6720  -34.9040   22.6460 O   0  0  0  0  0  0  0  0  0  0  0  0
  -25.0110  -34.1660   25.2170 H   0  0  0  0  0  0  0  0  0  0  0  0
  -24.1410  -36.7000   23.1560 C   0  0  0  0  0  1  0  0  0  0  0  0
  -25.3870  -36.4130   24.0100 C   0  0  0  0  0  3  0  0  0  0  0  0
  -27.4570  -37.4570   24.8170 C   0  0  0  0  0  1  0  0  0  0  0  0
  -26.3640  -37.5120   23.8500 N   0  0  0  0  0  0  0  0  0  0  0  0
  -25.9090  -38.4150   23.9350 H   0  0  0  0  0  0  0  0  0  0  0  0
  -26.4710  -31.9030   25.5410 C   0  0  1  0  0  0  0  0  0  0  0  0
  -25.2970  -31.5790   26.4950 C   0  0  0  0  0  1  0  0  0  0  0  0
  -27.2120  -30.5790   25.2430 C   0  0  0  0  0  1  0  0  0  0  0  0
  -27.4700  -32.8080   26.2990 C   0  0  0  0  0  1  0  0  0  0  0  0
  2  1  1  0
  3  4  1  0
  4  8  1  0
  4  1  2  0
  5  2  2  0
  6  3  2  0
  6  5  1  0
  7  6  1  0
  9  8  1  0
 10 11  1  0
 12 10  1  0
 13  9  1  0
 13 11  1  0
 14 12  1  0
 14 23  1  0
 14 13  1  0
 15 21  1  0
 15 23  1  0
 16 21  1  0
 17 18  1  0
 17 16  1  0
 19 18  1  0
 19 28  1  0
 19 20  1  0
 21 20  1  0
 22 15  2  0
 23 24  1  0
 25 26  2  0
 26 45  1  0
 27 30  1  0
 27 26  1  0
 28 29  1  0
 28 25  1  0
 29 27  2  0
 30 31  1  0
 31 32  2  0
 33 36  1  0
 33 32  1  0
 34 33  2  0
 35 34  1  0
 35 30  2  0
 36 37  1  0
 37 38  1  0
 38 39  2  0
 40 39  1  0
 40 44  1  0
 41 40  2  0
 42 37  2  0
 42 41  1  0
 43 42  1  0
 45 46  1  0
 46 48  1  0
 46 49  1  0
 47 45  2  0
 50 25  1  0
 50 51  1  0
 52 50  1  0
 53  5  1  0
 53 54  1  0
 55 57  1  0
 55 54  1  0
 56 67  2  0
 57 62  1  0
 58 66  1  0
 58 68  1  0
 59 65  1  0
 59 61  1  0
 60 66  1  0
 61 60  1  0
 62 61  2  0
 63 64  1  0
 63 57  2  0
 64 59  2  0
 65 58  1  0
 66 56  1  0
 68 70  2  0
 69 68  1  0
 71 69  1  0
 72 77  1  0
 73 69  1  0
 74 73  1  0
 75 76  1  0
 75 74  1  0
 76 72  1  0
 77 73  1  0
 77 78  2  0
 79 78  1  0
 80 79  2  0
 81 72  2  0
 81 80  1  0
 82 56  1  0
 82 83  1  0
 82 92  1  0
 83 86  1  0
 84 88  1  0
 84 83  1  0
 85 84  2  0
 88 87  1  0
 90 91  1  0
 90 88  1  0
 90 89  1  0
 92 95  1  1
 92 93  1  0
 94 92  1  0
M  ISO  4  15 100  23 100  54 101  55 101
M  END
>  <TORSDO>  (64) 
F 21

>  <SCORE>  (64) 
-10.465

>  <name>  (64) 
64

>  <ligand_id>  (64) 
64

>  <original_smiles>  (64) 
[H]c1c([H])c([H])c2c(c1[H])C([H])([H])C([H])([H])C([H])([H])C2([H])N([H])C(=O)C1([H])N(C(=O)C([H])(N([H])C(=O)C([H])(N([H])C([H])([H])[H])C([H])([H])[H])C(C([H])([H])[H])(C([H])([H])[H])C([H])([H])[H])C([H])([H])c2c([H])c(OC([H])([H])C([H])([H])c3c([H])c([H])c(C([H])([H])C([H])([H])C4([H])C([H])([H])C([H])([H])C([H])([H])C4([H])N([H])C(=O)N4C([H])([H])C([H])([H])C([H])([H])C([H])(n5nc(-c6c([H])c([H])c(Oc7c([H])c([H])c(F)c([H])c7F)c([H])c6[H])c(C(=O)N([H])[H])c5N([H])[H])C4([H])[H])c([H])c3C([H])([H])[H])c([H])c([H])c2C1([H])[H]

>  <smiles>  (64) 
[H]c1c([H])c([H])c2c(c1[H])C([H])([H])C([H])([H])C([H])([H])C2([H])N([H])C(=O)C1([H])N(C(=O)C([H])(N([H])C(=O)C([H])(N([H])C([H])([H])[H])C([H])([H])[H])C(C([H])([H])[H])(C([H])([H])[H])C([H])([H])[H])C([H])([H])c2c([H])c(OC([H])([H])C([H])([H])c3c([H])c([H])c(C([H])([H])C([H])([H])C4([H])C([H])([H])C([H])([H])C([H])([H])C4([H])N([H])C(=O)N4C([H])([H])C([H])([H])C([H])([H])C([H])(n5nc(-c6c([H])c([H])c(Oc7c([H])c([H])c(F)c([H])c7F)c([H])c6[H])c(C(=O)N([H])[H])c5N([H])[H])C4([H])[H])c([H])c3C([H])([H])[H])c([H])c([H])c2C1([H])[H]

$$$$
65:0:0
     RDKit          3D

100108  0  0  1  0  0  0  0  0999 V2000
  -31.4550  -25.4530   23.9960 C   0  0  0  0  0  3  0  0  0  0  0  0
  -30.4490  -24.4770   24.1070 C   0  0  0  0  0  3  0  0  0  0  0  0
  -29.8100  -27.1890   24.4620 C   0  0  0  0  0  3  0  0  0  0  0  0
  -31.1320  -26.8160   24.1390 C   0  0  0  0  0  0  0  0  0  0  0  0
  -29.1160  -24.8460   24.3910 C   0  0  0  0  0  0  0  0  0  0  0  0
  -28.8000  -26.2130   24.6060 C   0  0  0  0  0  0  0  0  0  0  0  0
  -27.3960  -26.6630   24.9800 C   0  0  0  0  0  1  0  0  0  0  0  0
  -32.1800  -27.8580   23.9250 C   0  0  0  0  0  0  0  0  0  0  0  0
  -31.6900  -29.0970   23.7990 N   0  0  0  0  0  0  0  0  0  0  0  0
  -33.3710  -27.5550   23.8420 O   0  0  0  0  0  0  0  0  0  0  0  0
  -30.6860  -29.1780   23.8780 H   0  0  0  0  0  0  0  0  0  0  0  0
  -32.4280  -30.3310   23.5440 C   0  0  0  0  0  2  0  0  0  0  0  0
  -32.3700  -30.7950   22.0670 C   0  0  0  0  0  2  0  0  0  0  0  0
  -33.2050  -30.0150   21.2110 O   0  0  0  0  0  0  0  0  0  0  0  0
  -39.3130  -26.4340   20.7770 C   0  0  0  0  0  0  0  0  0  0  0  0
  -34.5690  -30.0680   21.4030 C   0  0  0  0  0  0  0  0  0  0  0  0
  -39.4350  -28.6110   21.9470 C   0  0  0  0  0  3  0  0  0  0  0  0
  -37.3760  -30.0970   21.7320 C   0  0  0  0  0  0  0  0  0  0  0  0
  -37.6810  -28.2010   20.1310 C   0  0  0  0  0  2  0  0  0  0  0  0
  -36.7820  -29.1740   20.8640 C   0  0  0  0  0  0  0  0  0  0  0  0
  -35.3810  -29.1600   20.6930 C   0  0  0  0  0  3  0  0  0  0  0  0
  -35.1840  -30.9950   22.2780 C   0  0  0  0  0  3  0  0  0  0  0  0
  -36.5810  -31.0060   22.4460 C   0  0  0  0  0  3  0  0  0  0  0  0
  -38.8830  -30.0570   21.8480 C   0  0  0  0  0  2  0  0  0  0  0  0
  -38.8020  -27.6850   20.9530 N   0  0  0  0  0  0  0  0  0  0  0  0
  -40.3190  -26.0610   21.3970 O   0  0  0  0  0  0  0  0  0  0  0  0
  -39.2920  -28.1310   23.4090 C   0  0  0  0  0  0  0  0  0  0  0  0
  -40.3520  -28.3310   24.2070 N   0  0  0  0  0  0  0  0  0  0  0  0
  -38.2420  -27.6210   23.8070 O   0  0  0  0  0  0  0  0  0  0  0  0
  -41.1780  -28.7530   23.8030 H   0  0  0  0  0  0  0  0  0  0  0  0
  -42.6480  -27.8520   26.9540 C   0  0  0  0  0  0  0  0  0  0  0  0
  -40.4350  -27.9910   25.6260 C   0  0  0  0  0  3  0  0  0  0  0  0
  -40.0980  -29.2140   26.5110 C   0  0  0  0  0  2  0  0  0  0  0  0
  -41.3360  -30.0170   26.9260 C   0  0  0  0  0  2  0  0  0  0  0  0
  -42.3140  -29.1320   27.7040 C   0  0  0  0  0  2  0  0  0  0  0  0
  -41.7730  -27.3260   25.9680 C   0  0  0  0  0  0  0  0  0  0  0  0
  -42.1470  -26.1540   25.2750 C   0  0  0  0  0  3  0  0  0  0  0  0
  -43.3660  -25.5090   25.5560 C   0  0  0  0  0  3  0  0  0  0  0  0
  -44.2220  -26.0270   26.5440 C   0  0  0  0  0  3  0  0  0  0  0  0
  -43.8610  -27.1920   27.2430 C   0  0  0  0  0  3  0  0  0  0  0  0
  -38.6760  -25.4210   19.7750 C   0  0  0  0  0  3  0  0  0  0  0  0
  -39.7720  -24.7910   19.0280 N   0  0  0  0  0  0  0  0  0  0  0  0
  -40.1660  -25.1630   17.8020 C   0  0  0  0  0  0  0  0  0  0  0  0
  -39.5880  -26.0340   17.1470 O   0  0  0  0  0  0  0  0  0  0  0  0
  -40.3210  -24.1030   19.5230 H   0  0  0  0  0  0  0  0  0  0  0  0
  -42.6380  -25.3440   17.3840 C   0  0  0  0  0  1  0  0  0  0  0  0
  -41.3980  -24.4530   17.2080 C   0  0  0  0  0  3  0  0  0  0  0  0
  -40.2430  -23.0480   15.5580 C   0  0  0  0  0  1  0  0  0  0  0  0
  -41.2400  -24.0920   15.7830 N   0  0  0  0  0  0  0  0  0  0  0  0
  -42.1230  -23.7730   15.3930 H   0  0  0  0  0  0  0  0  0  0  0  0
  -37.7800  -24.3310   20.4800 C   0  0  1  0  0  0  0  0  0  0  0  0
  -38.4790  -23.6240   21.6660 C   0  0  0  0  0  1  0  0  0  0  0  0
  -36.4710  -24.9600   21.0110 C   0  0  0  0  0  1  0  0  0  0  0  0
  -37.3660  -23.2480   19.4550 C   0  0  0  0  0  1  0  0  0  0  0  0
  -28.0560  -23.7510   24.3940 C   0  0  0  0  0  2  0  0  0  0  0  0
  -27.9490  -23.0530   23.0230 C   0  0  0  0  0  2  0  0  0  0  0  0
  -27.3830  -23.9740   21.9220 C   0  0  0  0  0  2  0  0  0  0  0  0
  -27.5970  -23.4820   20.4910 C   0  0  0  0  0  0  0  0  0  0  0  0
  -28.2870  -22.4920   20.2340 O   0  0  0  0  0  0  0  0  0  0  0  0
  -26.8930  -24.2930   19.3980 C   0  0  0  0  0  2  0  0  0  0  0  0
  -27.3870  -23.9980   17.9720 C   0  0  0  0  0  2  0  0  0  0  0  0
  -26.4370  -24.5560   16.8980 C   0  0  0  0  0  2  0  0  0  0  0  0
  -26.9950  -24.3710   15.4790 C   0  0  0  0  0  2  0  0  0  0  0  0
  -26.0050  -24.7910   14.3710 C   0  0  0  0  0  2  0  0  0  0  0  0
  -26.5570  -24.5770   12.9500 C   0  0  0  0  0  0  0  0  0  0  0  0
  -26.1740  -24.4570   10.5100 C   0  0  0  0  0  2  0  0  0  0  0  0
  -26.3400  -25.8280    9.8340 C   0  0  0  0  0  2  0  0  0  0  0  0
  -25.0220  -26.6230    9.8870 C   0  0  0  0  0  2  0  0  0  0  0  0
  -24.4120  -26.6640   11.3130 C   0  0  0  0  0  3  0  0  0  0  0  0
  -24.3610  -25.2490   11.9310 C   0  0  0  0  0  2  0  0  0  0  0  0
  -25.7170  -24.6770   11.8890 N   0  0  0  0  0  0  0  0  0  0  0  0
  -27.7530  -24.2940   12.8160 O   0  0  0  0  0  0  0  0  0  0  0  0
  -22.5780  -28.2560   12.1710 C   0  0  0  0  0  0  0  0  0  0  0  0
  -21.3350  -28.5640   11.6860 C   0  0  0  0  0  0  0  0  0  0  0  0
  -21.1580  -27.7600   10.5170 C   0  0  0  0  0  0  0  0  0  0  0  0
  -23.0970  -27.3000   11.3100 N   0  0  0  0  0  0  0  0  0  0  0  0
  -22.2070  -26.9680   10.3390 N   0  0  0  0  0  0  0  0  0  0  0  0
  -20.0750  -27.7420    9.5250 C   0  0  0  0  0  0  0  0  0  0  0  0
  -19.4700  -26.5330    9.1160 C   0  0  0  0  0  3  0  0  0  0  0  0
  -18.4190  -26.5430    8.1740 C   0  0  0  0  0  3  0  0  0  0  0  0
  -17.9600  -27.7680    7.6340 C   0  0  0  0  0  0  0  0  0  0  0  0
  -18.5810  -28.9660    8.0280 C   0  0  0  0  0  3  0  0  0  0  0  0
  -19.6310  -28.9550    8.9620 C   0  0  0  0  0  3  0  0  0  0  0  0
  -16.9620  -27.8710    6.6950 O   0  0  0  0  0  0  0  0  0  0  0  0
  -16.0430  -26.8690    6.5080 C   0  0  0  0  0  0  0  0  0  0  0  0
  -15.2300  -26.3990    7.5610 C   0  0  0  0  0  3  0  0  0  0  0  0
  -14.2500  -25.4170    7.3100 C   0  0  0  0  0  3  0  0  0  0  0  0
  -14.0760  -24.9130    6.0080 C   0  0  0  0  0  0  0  0  0  0  0  0
  -14.8820  -25.3850    4.9560 C   0  0  0  0  0  3  0  0  0  0  0  0
  -15.8600  -26.3620    5.2060 C   0  0  0  0  0  0  0  0  0  0  0  0
  -16.6200  -26.8290    4.1850 F   0  0  0  0  0  0  0  0  0  0  0  0
  -13.1290  -23.9760    5.7640 F   0  0  0  0  0  0  0  0  0  0  0  0
  -20.4000  -29.6110   12.2180 C   0  0  0  0  0  0  0  0  0  0  0  0
  -19.0950  -29.3920   12.0850 N   0  0  0  0  0  0  0  0  0  0  0  0
  -20.8220  -30.6090   12.7980 O   0  0  0  0  0  0  0  0  0  0  0  0
  -18.7480  -28.5640   11.6250 H   0  0  0  0  0  0  0  0  0  0  0  0
  -18.4350  -30.0660   12.4480 H   0  0  0  0  0  0  0  0  0  0  0  0
  -23.3170  -28.7210   13.2550 N   0  0  0  0  0  0  0  0  0  0  0  0
  -22.9820  -29.4570   13.8680 H   0  0  0  0  0  0  0  0  0  0  0  0
  -24.2570  -28.4170   13.4800 H   0  0  0  0  0  0  0  0  0  0  0  0
  1  2  2  0
  1  4  1  0
  2  5  1  0
  3  6  1  0
  4  3  2  0
  5 55  1  0
  5  6  2  0
  6  7  1  0
  8  4  1  0
  9 11  1  0
  9  8  1  0
 10  8  2  0
 12  9  1  0
 13 12  1  0
 14 16  1  0
 14 13  1  0
 15 25  1  0
 15 26  2  0
 16 22  1  0
 17 27  1  0
 18 24  1  0
 18 23  1  0
 19 20  1  0
 19 25  1  0
 20 18  2  0
 21 20  1  0
 21 16  2  0
 22 23  2  0
 24 17  1  0
 25 17  1  0
 27 29  2  0
 27 28  1  0
 30 28  1  0
 31 40  1  0
 31 35  1  0
 32 28  1  0
 32 36  1  0
 32 33  1  0
 33 34  1  0
 34 35  1  0
 36 31  2  0
 37 38  2  0
 37 36  1  0
 38 39  1  0
 39 40  2  0
 41 51  1  0
 41 15  1  0
 42 45  1  0
 42 41  1  0
 43 42  1  0
 44 43  2  0
 47 46  1  0
 47 43  1  0
 48 49  1  0
 49 47  1  0
 50 49  1  0
 51 53  1  1
 51 52  1  0
 54 51  1  0
 56 55  1  0
 57 56  1  0
 58 57  1  0
 59 58  2  0
 60 58  1  0
 61 60  1  0
 62 61  1  0
 63 62  1  0
 64 63  1  0
 65 64  1  0
 66 71  1  0
 67 68  1  0
 67 66  1  0
 69 68  1  0
 69 70  1  0
 71 70  1  0
 71 65  1  0
 72 65  2  0
 73 98  1  0
 74 73  2  0
 74 93  1  0
 75 74  1  0
 76 69  1  0
 76 73  1  0
 77 75  2  0
 77 76  1  0
 78 75  1  0
 79 78  1  0
 80 79  2  0
 81 82  2  0
 81 80  1  0
 82 83  1  0
 83 78  2  0
 84 81  1  0
 85 84  1  0
 85 86  1  0
 87 86  2  0
 88 87  1  0
 89 90  1  0
 89 88  2  0
 90 85  2  0
 91 90  1  0
 92 88  1  0
 93 95  2  0
 94 93  1  0
 94 97  1  0
 96 94  1  0
 98100  1  0
 98 99  1  0
M  ISO  4  13 101  14 101  64 100  65 100
M  END
>  <TORSDO>  (65) 
F 28

>  <SCORE>  (65) 
17.503

>  <name>  (65) 
65

>  <ligand_id>  (65) 
65

>  <original_smiles>  (65) 
[H]c1c([H])c([H])c2c(c1[H])C([H])([H])C([H])([H])C([H])([H])C2([H])N([H])C(=O)C1([H])N(C(=O)C([H])(N([H])C(=O)C([H])(N([H])C([H])([H])[H])C([H])([H])[H])C(C([H])([H])[H])(C([H])([H])[H])C([H])([H])[H])C([H])([H])c2c([H])c(OC([H])([H])C([H])([H])N([H])C(=O)c3c([H])c([H])c(C([H])([H])C([H])([H])C([H])([H])C(=O)C([H])([H])C([H])([H])C([H])([H])C([H])([H])C([H])([H])C(=O)N4C([H])([H])C([H])([H])C([H])([H])C([H])(n5nc(-c6c([H])c([H])c(Oc7c([H])c([H])c(F)c([H])c7F)c([H])c6[H])c(C(=O)N([H])[H])c5N([H])[H])C4([H])[H])c(C([H])([H])[H])c3[H])c([H])c([H])c2C1([H])[H]

>  <smiles>  (65) 
[H]c1c([H])c([H])c2c(c1[H])C([H])([H])C([H])([H])C([H])([H])C2([H])N([H])C(=O)C1([H])N(C(=O)C([H])(N([H])C(=O)C([H])(N([H])C([H])([H])[H])C([H])([H])[H])C(C([H])([H])[H])(C([H])([H])[H])C([H])([H])[H])C([H])([H])c2c([H])c(OC([H])([H])C([H])([H])N([H])C(=O)c3c([H])c([H])c(C([H])([H])C([H])([H])C([H])([H])C(=O)C([H])([H])C([H])([H])C([H])([H])C([H])([H])C([H])([H])C(=O)N4C([H])([H])C([H])([H])C([H])([H])C([H])(n5nc(-c6c([H])c([H])c(Oc7c([H])c([H])c(F)c([H])c7F)c([H])c6[H])c(C(=O)N([H])[H])c5N([H])[H])C4([H])[H])c(C([H])([H])[H])c3[H])c([H])c([H])c2C1([H])[H]

$$$$
66:0:0
     RDKit          3D

 89 96  0  0  1  0  0  0  0  0999 V2000
  -29.1400  -22.5460   19.7850 N   0  0  0  0  0  4  0  0  0  0  0  0
  -28.2850  -22.4390   19.2630 H   0  0  0  0  0  0  0  0  0  0  0  0
  -29.8810  -22.5420   19.1000 H   0  0  0  0  0  0  0  0  0  0  0  0
  -27.9800  -21.0590   21.4140 C   0  0  0  0  0  1  0  0  0  0  0  0
  -29.2980  -21.3010   20.6540 C   0  0  0  0  0  3  0  0  0  0  0  0
  -29.7460  -19.9390   19.9090 C   0  0  0  0  0  2  0  0  0  0  0  0
  -31.1020  -18.8910   21.6140 C   0  0  0  0  0  1  0  0  0  0  0  0
  -29.9440  -18.6900   20.7400 N   0  0  0  0  0  0  0  0  0  0  0  0
  -30.1630  -17.3920   19.9990 C   0  0  0  0  0  2  0  0  0  0  0  0
  -29.9750  -16.0100   20.8030 C   0  0  0  0  0  2  0  0  0  0  0  0
  -30.6620  -14.6900   20.2430 C   0  0  0  0  0  0  0  0  0  0  0  0
  -30.3860  -12.4590   19.1690 C   0  0  0  0  0  2  0  0  0  0  0  0
  -29.4330  -12.6130   17.9630 C   0  0  0  0  0  2  0  0  0  0  0  0
  -27.9610  -12.4800   18.4050 C   0  0  0  0  0  2  0  0  0  0  0  0
  -27.6330  -13.3370   19.6580 C   0  0  0  0  0  3  0  0  0  0  0  0
  -28.7040  -13.1610   20.7570 C   0  0  0  0  0  2  0  0  0  0  0  0
  -30.0110  -13.4810   20.1670 N   0  0  0  0  0  0  0  0  0  0  0  0
  -31.8060  -14.7940   19.7920 O   0  0  0  0  0  0  0  0  0  0  0  0
  -25.2540  -13.9650   20.3960 C   0  0  0  0  0  0  0  0  0  0  0  0
  -24.1820  -13.2070   20.7800 C   0  0  0  0  0  0  0  0  0  0  0  0
  -24.6290  -11.8500   20.7550 C   0  0  0  0  0  0  0  0  0  0  0  0
  -26.2870  -13.0730   20.1590 N   0  0  0  0  0  0  0  0  0  0  0  0
  -25.9160  -11.7960   20.4340 N   0  0  0  0  0  0  0  0  0  0  0  0
  -23.8890  -10.5970   20.9620 C   0  0  0  0  0  0  0  0  0  0  0  0
  -24.3290   -9.6230   21.8860 C   0  0  0  0  0  3  0  0  0  0  0  0
  -23.5910   -8.4350   22.0790 C   0  0  0  0  0  3  0  0  0  0  0  0
  -22.3990   -8.2130   21.3500 C   0  0  0  0  0  0  0  0  0  0  0  0
  -21.9780   -9.1760   20.4160 C   0  0  0  0  0  3  0  0  0  0  0  0
  -22.7160  -10.3560   20.2210 C   0  0  0  0  0  3  0  0  0  0  0  0
  -21.6330   -7.0780   21.4540 O   0  0  0  0  0  0  0  0  0  0  0  0
  -21.6120   -6.3240   22.6010 C   0  0  0  0  0  0  0  0  0  0  0  0
  -21.2480   -6.8760   23.8480 C   0  0  0  0  0  3  0  0  0  0  0  0
  -21.1720   -6.0510   24.9870 C   0  0  0  0  0  3  0  0  0  0  0  0
  -21.4510   -4.6760   24.8810 C   0  0  0  0  0  0  0  0  0  0  0  0
  -21.8090   -4.1230   23.6390 C   0  0  0  0  0  3  0  0  0  0  0  0
  -21.8860   -4.9460   22.5020 C   0  0  0  0  0  0  0  0  0  0  0  0
  -22.2100   -4.4040   21.3030 F   0  0  0  0  0  0  0  0  0  0  0  0
  -21.3720   -3.8810   25.9750 F   0  0  0  0  0  0  0  0  0  0  0  0
  -22.7920  -13.7020   21.0640 C   0  0  0  0  0  0  0  0  0  0  0  0
  -22.0650  -13.0200   21.9410 N   0  0  0  0  0  0  0  0  0  0  0  0
  -22.3590  -14.7280   20.5390 O   0  0  0  0  0  0  0  0  0  0  0  0
  -22.4270  -12.1890   22.3860 H   0  0  0  0  0  0  0  0  0  0  0  0
  -21.1340  -13.3340   22.1730 H   0  0  0  0  0  0  0  0  0  0  0  0
  -25.4350  -15.3330   20.2080 N   0  0  0  0  0  0  0  0  0  0  0  0
  -24.6850  -16.0060   20.3310 H   0  0  0  0  0  0  0  0  0  0  0  0
  -26.2960  -15.7550   19.8820 H   0  0  0  0  0  0  0  0  0  0  0  0
  -29.1620  -23.9320   20.4390 C   0  0  0  0  0  3  0  0  0  0  0  0
  -28.1760  -25.0360   19.8410 C   0  0  0  0  0  3  0  0  0  0  0  0
  -28.3320  -26.4730   20.2050 O   0  0  0  0  0  0  0  0  0  0  0  0
  -24.6330  -31.8860   23.2430 C   0  0  0  0  0  0  0  0  0  0  0  0
  -27.2160  -27.3300   20.1440 C   0  0  0  0  0  0  0  0  0  0  0  0
  -23.4160  -30.4920   21.6070 C   0  0  0  0  0  3  0  0  0  0  0  0
  -24.8540  -28.9500   20.1620 C   0  0  0  0  0  0  0  0  0  0  0  0
  -25.9550  -30.8070   21.4100 C   0  0  0  0  0  2  0  0  0  0  0  0
  -26.0260  -29.4310   20.7560 C   0  0  0  0  0  0  0  0  0  0  0  0
  -27.2090  -28.6310   20.7420 C   0  0  0  0  0  3  0  0  0  0  0  0
  -26.0210  -26.9180   19.5070 C   0  0  0  0  0  3  0  0  0  0  0  0
  -24.8520  -27.7000   19.5290 C   0  0  0  0  0  3  0  0  0  0  0  0
  -23.6200  -29.8270   20.2210 C   0  0  0  0  0  2  0  0  0  0  0  0
  -24.6860  -31.0790   22.1430 N   0  0  0  0  0  0  0  0  0  0  0  0
  -23.5540  -32.1630   23.7880 O   0  0  0  0  0  0  0  0  0  0  0  0
  -22.7600  -29.4700   22.5660 C   0  0  0  0  0  0  0  0  0  0  0  0
  -21.4340  -29.2870   22.4430 N   0  0  0  0  0  0  0  0  0  0  0  0
  -23.4430  -28.8450   23.3820 O   0  0  0  0  0  0  0  0  0  0  0  0
  -20.9390  -29.8460   21.7640 H   0  0  0  0  0  0  0  0  0  0  0  0
  -18.0660  -28.0600   22.9300 C   0  0  0  0  0  0  0  0  0  0  0  0
  -20.6210  -28.3450   23.2160 C   0  0  0  0  0  3  0  0  0  0  0  0
  -20.7410  -26.9100   22.6520 C   0  0  0  0  0  2  0  0  0  0  0  0
  -19.6490  -26.5690   21.6330 C   0  0  0  0  0  2  0  0  0  0  0  0
  -18.2610  -26.7050   22.2670 C   0  0  0  0  0  2  0  0  0  0  0  0
  -19.1750  -28.8340   23.3610 C   0  0  0  0  0  0  0  0  0  0  0  0
  -18.9410  -30.1000   23.9410 C   0  0  0  0  0  3  0  0  0  0  0  0
  -17.6300  -30.5910   24.0960 C   0  0  0  0  0  3  0  0  0  0  0  0
  -16.5350  -29.8110   23.6850 C   0  0  0  0  0  3  0  0  0  0  0  0
  -16.7540  -28.5490   23.1060 C   0  0  0  0  0  3  0  0  0  0  0  0
  -25.9200  -32.5150   23.8560 C   0  0  0  0  0  3  0  0  0  0  0  0
  -26.4470  -31.7410   25.1270 C   0  0  1  0  0  0  0  0  0  0  0  0
  -25.3630  -31.5030   26.2040 C   0  0  0  0  0  1  0  0  0  0  0  0
  -27.0250  -30.3630   24.7260 C   0  0  0  0  0  1  0  0  0  0  0  0
  -27.6020  -32.5340   25.7810 C   0  0  0  0  0  1  0  0  0  0  0  0
  -25.6130  -33.9130   24.1910 N   0  0  0  0  0  0  0  0  0  0  0  0
  -25.9360  -34.9680   23.4330 C   0  0  0  0  0  0  0  0  0  0  0  0
  -26.5960  -34.8690   22.3940 O   0  0  0  0  0  0  0  0  0  0  0  0
  -25.0290  -34.0640   25.0020 H   0  0  0  0  0  0  0  0  0  0  0  0
  -24.2030  -36.7620   23.1040 C   0  0  0  0  0  1  0  0  0  0  0  0
  -25.4540  -36.3550   23.9000 C   0  0  0  0  0  3  0  0  0  0  0  0
  -27.5980  -37.2400   24.7060 C   0  0  0  0  0  1  0  0  0  0  0  0
  -26.4820  -37.4100   23.7780 N   0  0  0  0  0  0  0  0  0  0  0  0
  -26.0760  -38.3290   23.9350 H   0  0  0  0  0  0  0  0  0  0  0  0
  1 47  1  0
  1  5  1  0
  2  1  1  0
  3  1  1  0
  5  4  1  0
  6  5  1  0
  6  8  1  0
  8  7  1  0
  9  8  1  0
  9 10  1  0
 11 10  1  0
 12 17  1  0
 13 14  1  0
 13 12  1  0
 15 14  1  0
 15 22  1  0
 15 16  1  0
 17 11  1  0
 17 16  1  0
 18 11  2  0
 19 20  2  0
 20 39  1  0
 21 20  1  0
 21 24  1  0
 22 19  1  0
 22 23  1  0
 23 21  2  0
 24 25  1  0
 25 26  2  0
 27 30  1  0
 27 26  1  0
 28 27  2  0
 29 28  1  0
 29 24  2  0
 30 31  1  0
 31 32  1  0
 32 33  2  0
 34 33  1  0
 34 38  1  0
 35 34  2  0
 36 31  2  0
 36 35  1  0
 37 36  1  0
 39 40  1  0
 40 43  1  0
 40 42  1  0
 41 39  2  0
 44 45  1  0
 44 19  1  0
 46 44  1  0
 48 49  1  0
 48 47  2  0
 50 61  2  0
 51 49  1  0
 51 56  1  0
 52 60  1  0
 52 62  1  0
 53 59  1  0
 53 55  1  0
 54 60  1  0
 55 54  1  0
 56 55  2  0
 57 58  1  0
 57 51  2  0
 58 53  2  0
 59 52  1  0
 60 50  1  0
 62 64  2  0
 63 62  1  0
 65 63  1  0
 66 75  2  0
 66 71  1  0
 67 63  1  0
 67 71  1  0
 68 67  1  0
 69 70  1  0
 69 68  1  0
 70 66  1  0
 71 72  2  0
 72 73  1  0
 74 73  2  0
 75 74  1  0
 76 50  1  0
 76 81  1  0
 76 77  1  0
 77 80  1  1
 77 78  1  0
 79 77  1  0
 81 84  1  0
 82 86  1  0
 82 81  1  0
 83 82  2  0
 86 85  1  0
 88 86  1  0
 88 89  1  0
 88 87  1  0
M  ISO  4  10 100  11 100  48 101  49 101
M  END
>  <TORSDO>  (66) 
F 23

>  <SCORE>  (66) 
-12.356

>  <name>  (66) 
66

>  <ligand_id>  (66) 
66

>  <original_smiles>  (66) 
[H]c1c([H])c([H])c2c(c1[H])C([H])([H])C([H])([H])C([H])([H])C2([H])N([H])C(=O)C1([H])N(C(=O)C([H])(N([H])C(=O)C([H])(N([H])C([H])([H])[H])C([H])([H])[H])C(C([H])([H])[H])(C([H])([H])[H])C([H])([H])[H])C([H])([H])c2c([H])c(OC([H])([H])C([H])([H])[N+]([H])([H])C([H])(C([H])([H])[H])C([H])([H])N(C([H])([H])[H])C([H])([H])C([H])([H])C(=O)N3C([H])([H])C([H])([H])C([H])([H])C([H])(n4nc(-c5c([H])c([H])c(Oc6c([H])c([H])c(F)c([H])c6F)c([H])c5[H])c(C(=O)N([H])[H])c4N([H])[H])C3([H])[H])c([H])c([H])c2C1([H])[H]

>  <smiles>  (66) 
[H]c1c([H])c([H])c2c(c1[H])C([H])([H])C([H])([H])C([H])([H])C2([H])N([H])C(=O)C1([H])N(C(=O)C([H])(N([H])C(=O)C([H])(N([H])C([H])([H])[H])C([H])([H])[H])C(C([H])([H])[H])(C([H])([H])[H])C([H])([H])[H])C([H])([H])c2c([H])c(OC([H])([H])C([H])([H])[N+]([H])([H])C([H])(C([H])([H])[H])C([H])([H])N(C([H])([H])[H])C([H])([H])C([H])([H])C(=O)N3C([H])([H])C([H])([H])C([H])([H])C([H])(n4nc(-c5c([H])c([H])c(Oc6c([H])c([H])c(F)c([H])c6F)c([H])c5[H])c(C(=O)N([H])[H])c4N([H])[H])C3([H])[H])c([H])c([H])c2C1([H])[H]

$$$$
67:0:0
     RDKit          3D

 92100  0  0  1  0  0  0  0  0999 V2000
  -29.0000  -17.5980   17.4500 C   0  0  0  0  0  3  0  0  0  0  0  0
  -27.9140  -18.4500   17.6770 C   0  0  0  0  0  3  0  0  0  0  0  0
  -30.4900  -19.3780   18.0930 C   0  0  0  0  0  3  0  0  0  0  0  0
  -30.3090  -18.0250   17.6440 C   0  0  0  0  0  0  0  0  0  0  0  0
  -28.1100  -19.8020   18.1070 C   0  0  0  0  0  0  0  0  0  0  0  0
  -29.4200  -20.3170   18.3260 C   0  0  0  0  0  0  0  0  0  0  0  0
  -26.8660  -20.6140   18.3530 C   0  0  0  0  0  1  0  0  0  0  0  0
  -31.4510  -16.9890   17.5240 C   0  0  0  0  0  2  0  0  0  0  0  0
  -31.2710  -15.4850   17.0610 C   0  0  0  0  0  2  0  0  0  0  0  0
  -32.3000  -14.5790   17.9760 C   0  0  0  0  0  2  0  0  0  0  0  0
  -31.9360  -13.5360   19.2730 C   0  0  0  0  0  2  0  0  0  0  0  0
  -31.5290  -13.9740   20.8230 C   0  0  0  0  0  0  0  0  0  0  0  0
  -29.7530  -14.7770   20.7440 C   0  0  0  0  0  2  0  0  0  0  0  0
  -29.2100  -14.3970   19.3600 C   0  0  0  0  0  2  0  0  0  0  0  0
  -28.2900  -13.2420   19.1960 C   0  0  0  0  0  2  0  0  0  0  0  0
  -27.7900  -13.2480   20.6150 C   0  0  0  0  0  3  0  0  0  0  0  0
  -29.0370  -12.8020   21.5480 C   0  0  0  0  0  2  0  0  0  0  0  0
  -30.2980  -13.7090   21.4010 N   0  0  0  0  0  0  0  0  0  0  0  0
  -32.2760  -14.8250   21.3500 O   0  0  0  0  0  0  0  0  0  0  0  0
  -25.3620  -14.0200   20.7950 C   0  0  0  0  0  0  0  0  0  0  0  0
  -24.2060  -13.3030   20.9820 C   0  0  0  0  0  0  0  0  0  0  0  0
  -24.6410  -11.9600   21.0410 C   0  0  0  0  0  0  0  0  0  0  0  0
  -26.3810  -13.0490   20.8000 N   0  0  0  0  0  0  0  0  0  0  0  0
  -25.9450  -11.8370   20.9930 N   0  0  0  0  0  0  0  0  0  0  0  0
  -23.9110  -10.7280   21.1010 C   0  0  0  0  0  0  0  0  0  0  0  0
  -24.2790   -9.7570   22.0360 C   0  0  0  0  0  3  0  0  0  0  0  0
  -23.5430   -8.5680   22.1220 C   0  0  0  0  0  3  0  0  0  0  0  0
  -22.4660   -8.3360   21.2470 C   0  0  0  0  0  0  0  0  0  0  0  0
  -22.1690   -9.2920   20.2670 C   0  0  0  0  0  3  0  0  0  0  0  0
  -22.8930  -10.4770   20.1630 C   0  0  0  0  0  3  0  0  0  0  0  0
  -21.7250   -7.1730   21.2100 O   0  0  0  0  0  0  0  0  0  0  0  0
  -21.5750   -6.3900   22.3060 C   0  0  0  0  0  0  0  0  0  0  0  0
  -21.0010   -6.8820   23.5070 C   0  0  0  0  0  3  0  0  0  0  0  0
  -20.8120   -6.0100   24.5920 C   0  0  0  0  0  3  0  0  0  0  0  0
  -21.1770   -4.6570   24.4970 C   0  0  0  0  0  0  0  0  0  0  0  0
  -21.7530   -4.1670   23.3120 C   0  0  0  0  0  3  0  0  0  0  0  0
  -21.9480   -5.0300   22.2120 C   0  0  0  0  0  0  0  0  0  0  0  0
  -22.4740   -4.5540   21.0650 F   0  0  0  0  0  0  0  0  0  0  0  0
  -20.9920   -3.8160   25.5470 F   0  0  0  0  0  0  0  0  0  0  0  0
  -22.8240  -13.8190   21.0070 C   0  0  0  0  0  0  0  0  0  0  0  0
  -21.9470  -13.1320   21.7670 N   0  0  0  0  0  0  0  0  0  0  0  0
  -22.5120  -14.8000   20.3720 O   0  0  0  0  0  0  0  0  0  0  0  0
  -22.2980  -12.3200   22.2490 H   0  0  0  0  0  0  0  0  0  0  0  0
  -20.9840  -13.4450   21.8350 H   0  0  0  0  0  0  0  0  0  0  0  0
  -25.6600  -15.3740   20.6130 N   0  0  0  0  0  0  0  0  0  0  0  0
  -24.9980  -16.1220   20.8370 H   0  0  0  0  0  0  0  0  0  0  0  0
  -26.6160  -15.6620   20.5120 H   0  0  0  0  0  0  0  0  0  0  0  0
  -29.7790  -21.7680   18.8810 C   0  0  0  0  0  3  0  0  0  0  0  0
  -28.7540  -22.9720   19.1100 C   0  0  0  0  0  3  0  0  0  0  0  0
  -29.3450  -24.3320   19.7190 C   0  0  0  0  0  3  0  0  0  0  0  0
  -28.3910  -25.5740   19.6380 C   0  0  0  0  0  3  0  0  0  0  0  0
  -28.6620  -26.9260   20.1810 O   0  0  0  0  0  0  0  0  0  0  0  0
  -24.7350  -32.0270   23.5140 C   0  0  0  0  0  0  0  0  0  0  0  0
  -27.5200  -27.7580   20.2280 C   0  0  0  0  0  0  0  0  0  0  0  0
  -23.5890  -30.6730   21.7970 C   0  0  0  0  0  3  0  0  0  0  0  0
  -25.1020  -29.2650   20.3130 C   0  0  0  0  0  0  0  0  0  0  0  0
  -26.1170  -31.0680   21.6750 C   0  0  0  0  0  2  0  0  0  0  0  0
  -26.2460  -29.7450   20.9560 C   0  0  0  0  0  0  0  0  0  0  0  0
  -27.4590  -28.9930   20.9360 C   0  0  0  0  0  3  0  0  0  0  0  0
  -26.3360  -27.3500   19.5530 C   0  0  0  0  0  3  0  0  0  0  0  0
  -25.1390  -28.0660   19.6090 C   0  0  0  0  0  3  0  0  0  0  0  0
  -23.8480  -30.1060   20.3890 C   0  0  0  0  0  2  0  0  0  0  0  0
  -24.8290  -31.2700   22.3860 N   0  0  0  0  0  0  0  0  0  0  0  0
  -23.6410  -32.2500   24.0480 O   0  0  0  0  0  0  0  0  0  0  0  0
  -22.9640  -29.5780   22.6810 C   0  0  0  0  0  0  0  0  0  0  0  0
  -21.6520  -29.3510   22.5250 N   0  0  0  0  0  0  0  0  0  0  0  0
  -23.6480  -28.9450   23.4950 O   0  0  0  0  0  0  0  0  0  0  0  0
  -21.1490  -29.9300   21.8610 H   0  0  0  0  0  0  0  0  0  0  0  0
  -18.3090  -28.0070   22.8670 C   0  0  0  0  0  0  0  0  0  0  0  0
  -20.8430  -28.3480   23.2240 C   0  0  0  0  0  3  0  0  0  0  0  0
  -21.0110  -26.9450   22.5990 C   0  0  0  0  0  2  0  0  0  0  0  0
  -19.9490  -26.6190   21.5400 C   0  0  0  0  0  2  0  0  0  0  0  0
  -18.5470  -26.6930   22.1490 C   0  0  0  0  0  2  0  0  0  0  0  0
  -19.3860  -28.7950   23.3530 C   0  0  0  0  0  0  0  0  0  0  0  0
  -19.1020  -30.0240   23.9790 C   0  0  0  0  0  3  0  0  0  0  0  0
  -17.7750  -30.4750   24.1130 C   0  0  0  0  0  3  0  0  0  0  0  0
  -16.7070  -29.6860   23.6400 C   0  0  0  0  0  3  0  0  0  0  0  0
  -16.9850  -28.4500   23.0310 C   0  0  0  0  0  3  0  0  0  0  0  0
  -25.9990  -32.6660   24.1780 C   0  0  0  0  0  3  0  0  0  0  0  0
  -25.6610  -34.0540   24.5010 N   0  0  0  0  0  0  0  0  0  0  0  0
  -26.0170  -35.1160   23.7660 C   0  0  0  0  0  0  0  0  0  0  0  0
  -26.7280  -35.0320   22.7600 O   0  0  0  0  0  0  0  0  0  0  0  0
  -25.0270  -34.1940   25.2680 H   0  0  0  0  0  0  0  0  0  0  0  0
  -24.2780  -36.8890   23.3570 C   0  0  0  0  0  1  0  0  0  0  0  0
  -25.4950  -36.4950   24.2070 C   0  0  0  0  0  3  0  0  0  0  0  0
  -27.5890  -37.3970   25.1190 C   0  0  0  0  0  1  0  0  0  0  0  0
  -26.5190  -37.5600   24.1390 N   0  0  0  0  0  0  0  0  0  0  0  0
  -26.1020  -38.4740   24.2720 H   0  0  0  0  0  0  0  0  0  0  0  0
  -26.4810  -31.8870   25.4600 C   0  0  1  0  0  0  0  0  0  0  0  0
  -25.3550  -31.5840   26.4730 C   0  0  0  0  0  1  0  0  0  0  0  0
  -27.1390  -30.5410   25.0680 C   0  0  0  0  0  1  0  0  0  0  0  0
  -27.5610  -32.7210   26.1910 C   0  0  0  0  0  1  0  0  0  0  0  0
  1  4  2  0
  1  2  1  0
  2  5  2  0
  3  6  2  0
  4  3  1  0
  5  6  1  0
  5  7  1  0
  6 48  1  0
  8  4  1  0
  9  8  1  0
  9 10  1  0
 10 11  1  0
 11 12  1  0
 12 19  2  0
 12 18  1  0
 13 18  1  0
 14 13  1  0
 15 14  1  0
 16 15  1  0
 16 23  1  0
 16 17  1  0
 18 17  1  0
 20 23  1  0
 20 21  2  0
 21 40  1  0
 21 22  1  0
 22 25  1  0
 23 24  1  0
 24 22  2  0
 25 26  1  0
 26 27  2  0
 28 27  1  0
 29 28  2  0
 30 29  1  0
 30 25  2  0
 31 28  1  0
 31 32  1  0
 32 33  1  0
 33 34  2  0
 35 34  1  0
 35 39  1  0
 36 35  2  0
 37 32  2  0
 37 36  1  0
 38 37  1  0
 40 41  1  0
 41 44  1  0
 41 43  1  0
 42 40  2  0
 45 20  1  0
 45 46  1  0
 47 45  1  0
 48 49  2  0
 49 50  1  0
 51 50  2  0
 51 52  1  0
 52 54  1  0
 53 64  2  0
 54 59  1  0
 55 63  1  0
 55 65  1  0
 56 62  1  0
 56 58  1  0
 57 63  1  0
 58 57  1  0
 59 58  2  0
 60 61  1  0
 60 54  2  0
 61 56  2  0
 62 55  1  0
 63 53  1  0
 65 67  2  0
 66 65  1  0
 68 66  1  0
 69 78  2  0
 69 74  1  0
 70 66  1  0
 70 74  1  0
 71 70  1  0
 72 73  1  0
 72 71  1  0
 73 69  1  0
 74 75  2  0
 75 76  1  0
 77 76  2  0
 78 77  1  0
 79 53  1  0
 79 80  1  0
 79 89  1  0
 80 83  1  0
 81 85  1  0
 81 80  1  0
 82 81  2  0
 85 84  1  0
 87 85  1  0
 87 88  1  0
 87 86  1  0
 89 92  1  1
 89 90  1  0
 91 89  1  0
M  ISO  4  11 100  12 100  51 101  52 101
M  END
>  <TORSDO>  (67) 
F 24

>  <SCORE>  (67) 
-11.076

>  <name>  (67) 
67

>  <ligand_id>  (67) 
67

>  <original_smiles>  (67) 
[H]c1c([H])c([H])c2c(c1[H])C([H])([H])C([H])([H])C([H])([H])C2([H])N([H])C(=O)C1([H])N(C(=O)C([H])(N([H])C(=O)C([H])(N([H])C([H])([H])[H])C([H])([H])[H])C(C([H])([H])[H])(C([H])([H])[H])C([H])([H])[H])C([H])([H])c2c([H])c(OC([H])([H])C([H])([H])C([H])([H])C([H])([H])c3c([H])c(C([H])([H])C([H])([H])C([H])([H])C([H])([H])C(=O)N4C([H])([H])C([H])([H])C([H])([H])C([H])(n5nc(-c6c([H])c([H])c(Oc7c([H])c([H])c(F)c([H])c7F)c([H])c6[H])c(C(=O)N([H])[H])c5N([H])[H])C4([H])[H])c([H])c([H])c3C([H])([H])[H])c([H])c([H])c2C1([H])[H]

>  <smiles>  (67) 
[H]c1c([H])c([H])c2c(c1[H])C([H])([H])C([H])([H])C([H])([H])C2([H])N([H])C(=O)C1([H])N(C(=O)C([H])(N([H])C(=O)C([H])(N([H])C([H])([H])[H])C([H])([H])[H])C(C([H])([H])[H])(C([H])([H])[H])C([H])([H])[H])C([H])([H])c2c([H])c(OC([H])([H])C([H])([H])C([H])([H])C([H])([H])c3c([H])c(C([H])([H])C([H])([H])C([H])([H])C([H])([H])C(=O)N4C([H])([H])C([H])([H])C([H])([H])C([H])(n5nc(-c6c([H])c([H])c(Oc7c([H])c([H])c(F)c([H])c7F)c([H])c6[H])c(C(=O)N([H])[H])c5N([H])[H])C4([H])[H])c([H])c([H])c3C([H])([H])[H])c([H])c([H])c2C1([H])[H]

$$$$
68:0:0
     RDKit          3D

 94102  0  0  1  0  0  0  0  0999 V2000
  -30.6950  -23.0420   18.6080 C   0  0  0  0  0  3  0  0  0  0  0  0
  -30.5650  -21.8230   19.2970 C   0  0  0  0  0  3  0  0  0  0  0  0
  -30.1250  -24.2330   19.1060 C   0  0  0  0  0  3  0  0  0  0  0  0
  -29.8510  -21.7430   20.5100 C   0  0  0  0  0  0  0  0  0  0  0  0
  -29.3820  -24.2480   20.3030 C   0  0  0  0  0  0  0  0  0  0  0  0
  -29.2470  -22.9780   21.0070 C   0  0  0  0  0  0  0  0  0  0  0  0
  -29.8960  -20.3760   21.2410 C   0  0  0  0  0  0  0  0  0  0  0  0
  -30.0030  -20.3200   22.4670 O   0  0  0  0  0  0  0  0  0  0  0  0
  -29.6880  -19.0070   20.4740 C   0  0  0  0  0  2  0  0  0  0  0  0
  -30.6830  -17.7600   20.6850 C   0  0  0  0  0  2  0  0  0  0  0  0
  -30.0810  -16.2840   20.9270 C   0  0  0  0  0  2  0  0  0  0  0  0
  -30.8490  -14.9890   20.4080 C   0  0  0  0  0  0  0  0  0  0  0  0
  -30.6110  -12.7620   19.2890 C   0  0  0  0  0  2  0  0  0  0  0  0
  -29.6910  -12.9530   18.0620 C   0  0  0  0  0  2  0  0  0  0  0  0
  -28.2120  -12.7860   18.4670 C   0  0  0  0  0  2  0  0  0  0  0  0
  -27.8480  -13.5950   19.7400 C   0  0  0  0  0  3  0  0  0  0  0  0
  -28.9070  -13.4320   20.8570 C   0  0  0  0  0  2  0  0  0  0  0  0
  -30.2200  -13.7710   20.2960 N   0  0  0  0  0  0  0  0  0  0  0  0
  -32.0000  -15.1300   19.9850 O   0  0  0  0  0  0  0  0  0  0  0  0
  -25.4460  -14.1460   20.4690 C   0  0  0  0  0  0  0  0  0  0  0  0
  -24.3830  -13.3580   20.8050 C   0  0  0  0  0  0  0  0  0  0  0  0
  -24.8530  -12.0100   20.7360 C   0  0  0  0  0  0  0  0  0  0  0  0
  -26.5000  -13.2830   20.2140 N   0  0  0  0  0  0  0  0  0  0  0  0
  -26.1460  -11.9900   20.4350 N   0  0  0  0  0  0  0  0  0  0  0  0
  -24.1300  -10.7400   20.8840 C   0  0  0  0  0  0  0  0  0  0  0  0
  -24.5580   -9.7450   21.7920 C   0  0  0  0  0  3  0  0  0  0  0  0
  -23.8310   -8.5410   21.9280 C   0  0  0  0  0  3  0  0  0  0  0  0
  -22.6660   -8.3230   21.1570 C   0  0  0  0  0  0  0  0  0  0  0  0
  -22.2610   -9.3050   20.2360 C   0  0  0  0  0  3  0  0  0  0  0  0
  -22.9860  -10.5010   20.0970 C   0  0  0  0  0  3  0  0  0  0  0  0
  -21.9130   -7.1750   21.2050 O   0  0  0  0  0  0  0  0  0  0  0  0
  -21.8490   -6.4040   22.3380 C   0  0  0  0  0  0  0  0  0  0  0  0
  -21.4070   -6.9300   23.5710 C   0  0  0  0  0  3  0  0  0  0  0  0
  -21.2900   -6.0860   24.6940 C   0  0  0  0  0  3  0  0  0  0  0  0
  -21.6050   -4.7180   24.5830 C   0  0  0  0  0  0  0  0  0  0  0  0
  -22.0410   -4.1920   23.3540 C   0  0  0  0  0  3  0  0  0  0  0  0
  -22.1610   -5.0330   22.2330 C   0  0  0  0  0  0  0  0  0  0  0  0
  -22.5610   -4.5180   21.0480 F   0  0  0  0  0  0  0  0  0  0  0  0
  -21.4860   -3.9060   25.6600 F   0  0  0  0  0  0  0  0  0  0  0  0
  -22.9800  -13.8170   21.0810 C   0  0  0  0  0  0  0  0  0  0  0  0
  -22.2530  -13.0960   21.9250 N   0  0  0  0  0  0  0  0  0  0  0  0
  -22.5360  -14.8520   20.5810 O   0  0  0  0  0  0  0  0  0  0  0  0
  -22.6220  -12.2550   22.3460 H   0  0  0  0  0  0  0  0  0  0  0  0
  -21.3120  -13.3850   22.1530 H   0  0  0  0  0  0  0  0  0  0  0  0
  -25.6010  -15.5250   20.3330 N   0  0  0  0  0  0  0  0  0  0  0  0
  -24.8250  -16.1680   20.4360 H   0  0  0  0  0  0  0  0  0  0  0  0
  -26.4480  -15.9780   20.0160 H   0  0  0  0  0  0  0  0  0  0  0  0
  -28.3920  -22.9270   22.2740 C   0  0  0  0  0  2  0  0  0  0  0  0
  -25.9940  -23.6340   22.0890 C   0  0  0  0  0  1  0  0  0  0  0  0
  -27.0040  -22.5730   21.9140 N   0  0  0  0  0  4  0  0  0  0  0  0
  -27.0080  -22.3220   20.9390 H   0  0  0  0  0  0  0  0  0  0  0  0
  -26.7240  -21.7660   22.4440 H   0  0  0  0  0  0  0  0  0  0  0  0
  -28.8120  -25.6390   20.8190 C   0  0  0  0  0  2  0  0  0  0  0  0
  -28.7220  -26.8160   19.9230 O   0  0  0  0  0  0  0  0  0  0  0  0
  -24.6480  -31.8680   23.1530 C   0  0  0  0  0  0  0  0  0  0  0  0
  -27.5400  -27.5780   19.9610 C   0  0  0  0  0  0  0  0  0  0  0  0
  -23.5250  -30.4530   21.4700 C   0  0  0  0  0  3  0  0  0  0  0  0
  -25.0670  -29.0220   20.0080 C   0  0  0  0  0  0  0  0  0  0  0  0
  -26.0400  -30.9280   21.2930 C   0  0  0  0  0  2  0  0  0  0  0  0
  -26.2060  -29.5790   20.6040 C   0  0  0  0  0  0  0  0  0  0  0  0
  -27.4460  -28.8700   20.5660 C   0  0  0  0  0  3  0  0  0  0  0  0
  -26.3700  -27.0600   19.3600 C   0  0  0  0  0  3  0  0  0  0  0  0
  -25.1480  -27.7650   19.3850 C   0  0  0  0  0  3  0  0  0  0  0  0
  -23.7750  -29.8140   20.0790 C   0  0  0  0  0  2  0  0  0  0  0  0
  -24.7570  -31.0970   22.0300 N   0  0  0  0  0  0  0  0  0  0  0  0
  -23.5510  -32.0690   23.6930 O   0  0  0  0  0  0  0  0  0  0  0  0
  -22.9150  -29.3770   22.3980 C   0  0  0  0  0  0  0  0  0  0  0  0
  -21.6020  -29.1290   22.2580 N   0  0  0  0  0  0  0  0  0  0  0  0
  -23.6250  -28.7660   23.2000 O   0  0  0  0  0  0  0  0  0  0  0  0
  -21.0820  -29.6730   21.5830 H   0  0  0  0  0  0  0  0  0  0  0  0
  -18.2960  -27.7360   22.7030 C   0  0  0  0  0  0  0  0  0  0  0  0
  -20.8350  -28.1240   22.9930 C   0  0  0  0  0  3  0  0  0  0  0  0
  -21.0170  -26.7200   22.3720 C   0  0  0  0  0  2  0  0  0  0  0  0
  -19.9380  -26.3700   21.3420 C   0  0  0  0  0  2  0  0  0  0  0  0
  -18.5470  -26.4220   21.9820 C   0  0  0  0  0  2  0  0  0  0  0  0
  -19.3710  -28.5430   23.1620 C   0  0  0  0  0  0  0  0  0  0  0  0
  -19.0820  -29.7750   23.7900 C   0  0  0  0  0  3  0  0  0  0  0  0
  -17.7520  -30.2000   23.9660 C   0  0  0  0  0  3  0  0  0  0  0  0
  -16.6920  -29.3870   23.5310 C   0  0  0  0  0  3  0  0  0  0  0  0
  -16.9640  -28.1570   22.9050 C   0  0  0  0  0  3  0  0  0  0  0  0
  -25.8930  -32.5500   23.7970 C   0  0  0  0  0  3  0  0  0  0  0  0
  -25.5190  -33.9290   24.1460 N   0  0  0  0  0  0  0  0  0  0  0  0
  -25.8060  -35.0060   23.4040 C   0  0  0  0  0  0  0  0  0  0  0  0
  -26.4830  -34.9480   22.3740 O   0  0  0  0  0  0  0  0  0  0  0  0
  -24.9160  -34.0450   24.9480 H   0  0  0  0  0  0  0  0  0  0  0  0
  -23.9940  -36.7160   23.0750 C   0  0  0  0  0  1  0  0  0  0  0  0
  -25.2560  -36.3650   23.8790 C   0  0  0  0  0  3  0  0  0  0  0  0
  -27.3490  -37.3340   24.7150 C   0  0  0  0  0  1  0  0  0  0  0  0
  -26.2370  -37.4680   23.7790 N   0  0  0  0  0  0  0  0  0  0  0  0
  -25.7890  -38.3630   23.9500 H   0  0  0  0  0  0  0  0  0  0  0  0
  -26.4340  -31.7840   25.0670 C   0  0  1  0  0  0  0  0  0  0  0  0
  -25.3410  -31.4760   26.1180 C   0  0  0  0  0  1  0  0  0  0  0  0
  -27.0830  -30.4420   24.6600 C   0  0  0  0  0  1  0  0  0  0  0  0
  -27.5420  -32.6170   25.7530 C   0  0  0  0  0  1  0  0  0  0  0  0
  1  3  2  0
  1  2  1  0
  2  4  2  0
  3  5  1  0
  4  6  1  0
  4  7  1  0
  5 53  1  0
  5  6  2  0
  6 48  1  0
  7  8  2  0
  9 10  1  0
  9  7  1  0
 10 11  1  0
 12 11  1  0
 13 18  1  0
 14 15  1  0
 14 13  1  0
 16 15  1  0
 16 23  1  0
 16 17  1  0
 18 12  1  0
 18 17  1  0
 19 12  2  0
 20 21  2  0
 21 40  1  0
 22 21  1  0
 22 25  1  0
 23 24  1  0
 23 20  1  0
 24 22  2  0
 25 26  1  0
 26 27  2  0
 28 31  1  0
 28 27  1  0
 29 28  2  0
 30 29  1  0
 30 25  2  0
 31 32  1  0
 32 33  1  0
 33 34  2  0
 35 34  1  0
 35 39  1  0
 36 35  2  0
 37 32  2  0
 37 36  1  0
 38 37  1  0
 40 41  1  0
 41 44  1  0
 41 43  1  0
 42 40  2  0
 45 46  1  0
 45 20  1  0
 47 45  1  0
 50 49  1  0
 50 48  1  0
 50 52  1  0
 51 50  1  0
 54 56  1  0
 54 53  1  0
 55 66  2  0
 56 61  1  0
 57 65  1  0
 57 67  1  0
 58 64  1  0
 58 60  1  0
 59 65  1  0
 60 59  1  0
 61 60  2  0
 62 63  1  0
 62 56  2  0
 63 58  2  0
 64 57  1  0
 65 55  1  0
 67 69  2  0
 68 67  1  0
 70 68  1  0
 71 80  2  0
 71 76  1  0
 72 68  1  0
 72 76  1  0
 73 72  1  0
 74 75  1  0
 74 73  1  0
 75 71  1  0
 76 77  2  0
 77 78  1  0
 79 78  2  0
 80 79  1  0
 81 55  1  0
 81 82  1  0
 81 91  1  0
 82 85  1  0
 83 87  1  0
 83 82  1  0
 84 83  2  0
 87 86  1  0
 89 87  1  0
 89 90  1  0
 89 88  1  0
 91 94  1  1
 91 92  1  0
 93 91  1  0
M  ISO  4  11 100  12 100  53 101  54 101
M  END
>  <TORSDO>  (68) 
F 23

>  <SCORE>  (68) 
-12.221

>  <name>  (68) 
68

>  <ligand_id>  (68) 
68

>  <original_smiles>  (68) 
[H]c1c([H])c(C(=O)C([H])([H])C([H])([H])C([H])([H])C(=O)N2C([H])([H])C([H])([H])C([H])([H])C([H])(n3nc(-c4c([H])c([H])c(Oc5c([H])c([H])c(F)c([H])c5F)c([H])c4[H])c(C(=O)N([H])[H])c3N([H])[H])C2([H])[H])c(C([H])([H])[N+]([H])([H])C([H])([H])[H])c(C([H])([H])Oc2c([H])c([H])c3c(c2[H])C([H])([H])N(C(=O)C([H])(N([H])C(=O)C([H])(N([H])C([H])([H])[H])C([H])([H])[H])C(C([H])([H])[H])(C([H])([H])[H])C([H])([H])[H])C([H])(C(=O)N([H])C2([H])c4c([H])c([H])c([H])c([H])c4C([H])([H])C([H])([H])C2([H])[H])C3([H])[H])c1[H]

>  <smiles>  (68) 
[H]c1c([H])c(C(=O)C([H])([H])C([H])([H])C([H])([H])C(=O)N2C([H])([H])C([H])([H])C([H])([H])C([H])(n3nc(-c4c([H])c([H])c(Oc5c([H])c([H])c(F)c([H])c5F)c([H])c4[H])c(C(=O)N([H])[H])c3N([H])[H])C2([H])[H])c(C([H])([H])[N+]([H])([H])C([H])([H])[H])c(C([H])([H])Oc2c([H])c([H])c3c(c2[H])C([H])([H])N(C(=O)C([H])(N([H])C(=O)C([H])(N([H])C([H])([H])[H])C([H])([H])[H])C(C([H])([H])[H])(C([H])([H])[H])C([H])([H])[H])C([H])(C(=O)N([H])C2([H])c4c([H])c([H])c([H])c([H])c4C([H])([H])C([H])([H])C2([H])[H])C3([H])[H])c1[H]

$$$$
69:0:0
     RDKit          3D

 95102  0  0  1  0  0  0  0  0999 V2000
  -26.1720  -22.9880   21.9790 C   0  0  0  0  0  2  0  0  0  0  0  0
  -25.5760  -23.6360   20.7200 C   0  0  0  0  0  0  0  0  0  0  0  0
  -26.2950  -24.3630   20.0250 O   0  0  0  0  0  0  0  0  0  0  0  0
  -23.6450  -23.9000   19.2580 C   0  0  0  0  0  3  0  0  0  0  0  0
  -24.1420  -23.4000   20.4090 C   0  0  0  0  0  0  0  0  0  0  0  0
  -23.3300  -22.6010   21.4220 C   0  0  0  0  0  1  0  0  0  0  0  0
  -22.2110  -23.8190   18.7610 C   0  0  0  0  0  2  0  0  0  0  0  0
  -21.8190  -25.0330   18.1240 O   0  0  0  0  0  0  0  0  0  0  0  0
  -21.9470  -29.5980   23.5560 C   0  0  0  0  0  0  0  0  0  0  0  0
  -21.1000  -25.9700   18.8350 C   0  0  0  0  0  0  0  0  0  0  0  0
  -19.7340  -29.2610   22.5000 C   0  0  0  0  0  3  0  0  0  0  0  0
  -19.7400  -27.9670   20.3030 C   0  0  0  0  0  0  0  0  0  0  0  0
  -21.8840  -28.9370   21.1560 C   0  0  0  0  0  2  0  0  0  0  0  0
  -21.1390  -27.9110   20.3290 C   0  0  0  0  0  0  0  0  0  0  0  0
  -21.8200  -26.9190   19.5920 C   0  0  0  0  0  3  0  0  0  0  0  0
  -19.6850  -26.0360   18.8290 C   0  0  0  0  0  3  0  0  0  0  0  0
  -19.0080  -27.0300   19.5580 C   0  0  0  0  0  3  0  0  0  0  0  0
  -19.0880  -29.0740   21.1020 C   0  0  0  0  0  2  0  0  0  0  0  0
  -21.2320  -29.2530   22.4480 N   0  0  0  0  0  0  0  0  0  0  0  0
  -21.3800  -29.9630   24.5960 O   0  0  0  0  0  0  0  0  0  0  0  0
  -19.1490  -28.1990   23.4590 C   0  0  0  0  0  0  0  0  0  0  0  0
  -17.8260  -27.9840   23.3740 N   0  0  0  0  0  0  0  0  0  0  0  0
  -19.8780  -27.5770   24.2360 O   0  0  0  0  0  0  0  0  0  0  0  0
  -17.2960  -28.5440   22.7210 H   0  0  0  0  0  0  0  0  0  0  0  0
  -14.7940  -26.0230   23.3940 C   0  0  0  0  0  0  0  0  0  0  0  0
  -17.0620  -27.0050   24.1460 C   0  0  0  0  0  3  0  0  0  0  0  0
  -17.6260  -25.5790   23.9540 C   0  0  0  0  0  2  0  0  0  0  0  0
  -16.9360  -24.8010   22.8290 C   0  0  0  0  0  2  0  0  0  0  0  0
  -15.4350  -24.6750   23.1070 C   0  0  0  0  0  2  0  0  0  0  0  0
  -15.5610  -27.1210   23.8660 C   0  0  0  0  0  0  0  0  0  0  0  0
  -14.9220  -28.3610   24.0810 C   0  0  0  0  0  3  0  0  0  0  0  0
  -13.5450  -28.5140   23.8370 C   0  0  0  0  0  3  0  0  0  0  0  0
  -12.7860  -27.4200   23.3840 C   0  0  0  0  0  3  0  0  0  0  0  0
  -13.4090  -26.1770   23.1700 C   0  0  0  0  0  3  0  0  0  0  0  0
  -23.5080  -29.5760   23.5640 C   0  0  0  0  0  3  0  0  0  0  0  0
  -23.9650  -30.8410   24.1520 N   0  0  0  0  0  0  0  0  0  0  0  0
  -24.6450  -31.7870   23.4900 C   0  0  0  0  0  0  0  0  0  0  0  0
  -25.0170  -31.6490   22.3210 O   0  0  0  0  0  0  0  0  0  0  0  0
  -23.6470  -31.0450   25.0890 H   0  0  0  0  0  0  0  0  0  0  0  0
  -24.0690  -34.2270   23.6990 C   0  0  0  0  0  1  0  0  0  0  0  0
  -24.9570  -33.0950   24.2420 C   0  0  0  0  0  3  0  0  0  0  0  0
  -27.2710  -32.5980   24.8960 C   0  0  0  0  0  1  0  0  0  0  0  0
  -26.3780  -33.4950   24.1640 N   0  0  0  0  0  0  0  0  0  0  0  0
  -26.5080  -34.4360   24.5230 H   0  0  0  0  0  0  0  0  0  0  0  0
  -24.1090  -28.3450   24.3460 C   0  0  1  0  0  0  0  0  0  0  0  0
  -23.5440  -28.1820   25.7760 C   0  0  0  0  0  1  0  0  0  0  0  0
  -23.8440  -27.0290   23.5800 C   0  0  0  0  0  1  0  0  0  0  0  0
  -25.6450  -28.4930   24.4580 C   0  0  0  0  0  1  0  0  0  0  0  0
  -27.6700  -23.2670   22.1960 C   0  0  0  0  0  2  0  0  0  0  0  0
  -28.3150  -22.1620   23.0540 C   0  0  0  0  0  2  0  0  0  0  0  0
  -29.8020  -21.9060   22.7470 C   0  0  0  0  0  2  0  0  0  0  0  0
  -30.0680  -20.5380   22.0890 C   0  0  0  0  0  2  0  0  0  0  0  0
  -30.7190  -20.6100   20.6950 C   0  0  0  0  0  2  0  0  0  0  0  0
  -32.1640  -20.0840   20.6290 C   0  0  0  0  0  2  0  0  0  0  0  0
  -32.8600  -20.4020   19.2920 C   0  0  0  0  0  2  0  0  0  0  0  0
  -33.0710  -19.1770   18.3890 C   0  0  0  0  0  2  0  0  0  0  0  0
  -34.4820  -19.1120   17.7930 C   0  0  0  0  0  2  0  0  0  0  0  0
  -35.6910  -17.4730   19.2850 C   0  0  0  0  0  3  0  0  0  0  0  0
  -35.1360  -17.7820   18.0990 C   0  0  0  0  0  3  0  0  0  0  0  0
  -36.2810  -16.1660   19.4930 C   0  0  0  0  0  0  0  0  0  0  0  0
  -36.0090  -13.9760   20.5990 C   0  0  0  0  0  2  0  0  0  0  0  0
  -35.4120  -12.9330   19.6370 C   0  0  0  0  0  2  0  0  0  0  0  0
  -33.8730  -12.9930   19.6500 C   0  0  0  0  0  2  0  0  0  0  0  0
  -33.3380  -14.4400   19.4710 C   0  0  0  0  0  3  0  0  0  0  0  0
  -34.0560  -15.4200   20.4280 C   0  0  0  0  0  2  0  0  0  0  0  0
  -35.5110  -15.3000   20.2040 N   0  0  0  0  0  0  0  0  0  0  0  0
  -37.4190  -15.8880   19.1000 O   0  0  0  0  0  0  0  0  0  0  0  0
  -31.0240  -15.5790   19.5340 C   0  0  0  0  0  0  0  0  0  0  0  0
  -29.7630  -15.0730   19.6950 C   0  0  0  0  0  0  0  0  0  0  0  0
  -29.9220  -13.6630   19.8680 C   0  0  0  0  0  0  0  0  0  0  0  0
  -31.8850  -14.4940   19.6270 N   0  0  0  0  0  0  0  0  0  0  0  0
  -31.2090  -13.3450   19.8780 N   0  0  0  0  0  0  0  0  0  0  0  0
  -28.9210  -12.5900   19.9690 C   0  0  0  0  0  0  0  0  0  0  0  0
  -28.6180  -11.9710   21.2040 C   0  0  0  0  0  3  0  0  0  0  0  0
  -27.6430  -10.9540   21.2750 C   0  0  0  0  0  3  0  0  0  0  0  0
  -26.9540  -10.5470   20.1080 C   0  0  0  0  0  0  0  0  0  0  0  0
  -27.2750  -11.1490   18.8780 C   0  0  0  0  0  3  0  0  0  0  0  0
  -28.2500  -12.1570   18.8060 C   0  0  0  0  0  3  0  0  0  0  0  0
  -26.0110   -9.5490   20.0780 O   0  0  0  0  0  0  0  0  0  0  0  0
  -24.9870   -9.5000   20.9890 C   0  0  0  0  0  0  0  0  0  0  0  0
  -24.0140  -10.5210   21.0760 C   0  0  0  0  0  3  0  0  0  0  0  0
  -22.9410  -10.3950   21.9780 C   0  0  0  0  0  3  0  0  0  0  0  0
  -22.8320   -9.2500   22.7900 C   0  0  0  0  0  0  0  0  0  0  0  0
  -23.7980   -8.2320   22.7040 C   0  0  0  0  0  3  0  0  0  0  0  0
  -24.8710   -8.3550   21.8040 C   0  0  0  0  0  0  0  0  0  0  0  0
  -25.7880   -7.3620   21.7090 F   0  0  0  0  0  0  0  0  0  0  0  0
  -21.7970   -9.1220   23.6520 F   0  0  0  0  0  0  0  0  0  0  0  0
  -28.4720  -15.8350   19.6060 C   0  0  0  0  0  0  0  0  0  0  0  0
  -27.4750  -15.4480   20.3940 N   0  0  0  0  0  0  0  0  0  0  0  0
  -28.3600  -16.8120   18.8680 O   0  0  0  0  0  0  0  0  0  0  0  0
  -27.5780  -14.6500   21.0050 H   0  0  0  0  0  0  0  0  0  0  0  0
  -26.5960  -15.9460   20.3800 H   0  0  0  0  0  0  0  0  0  0  0  0
  -31.5100  -16.8610   19.2970 N   0  0  0  0  0  0  0  0  0  0  0  0
  -30.8880  -17.6510   19.1740 H   0  0  0  0  0  0  0  0  0  0  0  0
  -32.4810  -17.0940   19.1400 H   0  0  0  0  0  0  0  0  0  0  0  0
  1 49  1  0
  2  1  1  0
  3  2  2  0
  4  5  2  0
  5  2  1  0
  5  6  1  0
  7  4  1  0
  8  7  1  0
  8 10  1  0
  9 20  2  0
 10 15  1  0
 11 21  1  0
 12 14  1  0
 12 18  1  0
 13 19  1  0
 14 13  1  0
 15 14  2  0
 16 10  2  0
 16 17  1  0
 17 12  2  0
 18 11  1  0
 19 11  1  0
 19  9  1  0
 21 23  2  0
 22 21  1  0
 24 22  1  0
 25 30  1  0
 26 22  1  0
 27 26  1  0
 28 29  1  0
 28 27  1  0
 29 25  1  0
 30 31  2  0
 30 26  1  0
 32 31  1  0
 33 32  2  0
 34 33  1  0
 34 25  2  0
 35  9  1  0
 35 36  1  0
 35 45  1  0
 36 39  1  0
 37 36  1  0
 37 41  1  0
 38 37  2  0
 41 40  1  0
 43 41  1  0
 43 44  1  0
 43 42  1  0
 45 48  1  1
 45 46  1  0
 47 45  1  0
 49 50  1  0
 51 50  1  0
 52 51  1  0
 53 52  1  0
 54 53  1  0
 55 54  1  0
 56 55  1  0
 57 59  1  0
 57 56  1  0
 58 60  1  0
 59 58  2  0
 60 66  1  0
 62 63  1  0
 62 61  1  0
 64 71  1  0
 64 63  1  0
 64 65  1  0
 66 65  1  0
 66 61  1  0
 67 60  2  0
 68 71  1  0
 68 69  2  0
 69 70  1  0
 70 72  2  0
 70 73  1  0
 71 72  1  0
 73 74  1  0
 74 75  2  0
 76 75  1  0
 77 76  2  0
 78 77  1  0
 78 73  2  0
 79 76  1  0
 79 80  1  0
 80 81  2  0
 80 85  1  0
 81 82  1  0
 82 83  2  0
 83 87  1  0
 84 83  1  0
 85 84  2  0
 86 85  1  0
 88 69  1  0
 88 89  1  0
 89 91  1  0
 90 88  2  0
 92 89  1  0
 93 68  1  0
 94 93  1  0
 95 93  1  0
M  ISO  4   7 101   8 101  58 100  60 100
M  END
>  <TORSDO>  (69) 
F 29

>  <SCORE>  (69) 
4.185

>  <name>  (69) 
69

>  <ligand_id>  (69) 
69

>  <original_smiles>  (69) 
[H]C(C(=O)N1C([H])([H])C([H])([H])C([H])([H])C([H])(n2nc(-c3c([H])c([H])c(Oc4c([H])c([H])c(F)c([H])c4F)c([H])c3[H])c(C(=O)N([H])[H])c2N([H])[H])C1([H])[H])=C([H])C([H])([H])C([H])([H])C([H])([H])C([H])([H])C([H])([H])C([H])([H])C([H])([H])C([H])([H])C([H])([H])C([H])([H])C(=O)C(=C([H])C([H])([H])Oc1c([H])c([H])c2c(c1[H])C([H])([H])N(C(=O)C([H])(N([H])C(=O)C([H])(N([H])C([H])([H])[H])C([H])([H])[H])C(C([H])([H])[H])(C([H])([H])[H])C([H])([H])[H])C([H])(C(=O)N([H])C1([H])c3c([H])c([H])c([H])c([H])c3C([H])([H])C([H])([H])C1([H])[H])C2([H])[H])C([H])([H])[H]

>  <smiles>  (69) 
[H]C(C(=O)N1C([H])([H])C([H])([H])C([H])([H])C([H])(n2nc(-c3c([H])c([H])c(Oc4c([H])c([H])c(F)c([H])c4F)c([H])c3[H])c(C(=O)N([H])[H])c2N([H])[H])C1([H])[H])=C([H])C([H])([H])C([H])([H])C([H])([H])C([H])([H])C([H])([H])C([H])([H])C([H])([H])C([H])([H])C([H])([H])C([H])([H])C(=O)C(=C([H])C([H])([H])Oc1c([H])c([H])c2c(c1[H])C([H])([H])N(C(=O)C([H])(N([H])C(=O)C([H])(N([H])C([H])([H])[H])C([H])([H])[H])C(C([H])([H])[H])(C([H])([H])[H])C([H])([H])[H])C([H])(C(=O)N([H])C1([H])c3c([H])c([H])c([H])c([H])c3C([H])([H])C([H])([H])C1([H])[H])C2([H])[H])C([H])([H])[H]

$$$$
70:0:0
     RDKit          3D

 98106  0  0  1  0  0  0  0  0999 V2000
  -26.7150  -12.6980   17.9790 C   0  0  0  0  0  2  0  0  0  0  0  0
  -27.3220  -11.3640   18.8760 C   0  0  0  0  0  3  0  0  0  0  0  0
  -28.4960  -10.7830   19.5640 C   0  0  0  0  0  0  0  0  0  0  0  0
  -30.1330  -11.1470   19.8360 C   0  0  0  0  0  2  0  0  0  0  0  0
  -31.1660  -11.3710   21.2370 C   0  0  0  0  0  2  0  0  0  0  0  0
  -31.6020  -12.8430   21.9240 C   0  0  0  0  0  0  0  0  0  0  0  0
  -31.4060  -13.7690   20.1930 C   0  0  0  0  0  2  0  0  0  0  0  0
  -30.5170  -14.2630   19.2100 C   0  0  0  0  0  2  0  0  0  0  0  0
  -29.1570  -13.8230   19.4780 C   0  0  0  0  0  2  0  0  0  0  0  0
  -28.4750  -13.7450   20.9310 C   0  0  0  0  0  3  0  0  0  0  0  0
  -29.4010  -13.2800   21.9680 C   0  0  0  0  0  2  0  0  0  0  0  0
  -30.7530  -13.6330   21.5290 N   0  0  0  0  0  0  0  0  0  0  0  0
  -32.7110  -13.3550   22.2250 O   0  0  0  0  0  0  0  0  0  0  0  0
  -25.9440  -14.0490   21.3890 C   0  0  0  0  0  3  0  0  0  0  0  0
  -24.8730  -13.2060   21.4760 C   0  0  0  0  0  0  0  0  0  0  0  0
  -25.3880  -11.8820   21.4090 C   0  0  0  0  0  0  0  0  0  0  0  0
  -27.0680  -13.2720   21.1920 N   0  0  0  0  0  0  0  0  0  0  0  0
  -26.7140  -11.9660   21.4340 N   0  0  0  0  0  2  0  0  0  0  0  0
  -24.6830  -10.5780   21.3380 C   0  0  0  0  0  0  0  0  0  0  0  0
  -24.9840   -9.5140   22.2170 C   0  0  0  0  0  3  0  0  0  0  0  0
  -24.2670   -8.2980   22.1720 C   0  0  0  0  0  3  0  0  0  0  0  0
  -23.2150   -8.1280   21.2430 C   0  0  0  0  0  0  0  0  0  0  0  0
  -22.9230   -9.1790   20.3520 C   0  0  0  0  0  3  0  0  0  0  0  0
  -23.6510  -10.3840   20.3930 C   0  0  0  0  0  3  0  0  0  0  0  0
  -22.4720   -6.9730   21.1280 O   0  0  0  0  0  0  0  0  0  0  0  0
  -22.3230   -6.0930   22.1760 C   0  0  0  0  0  0  0  0  0  0  0  0
  -21.7770   -6.4930   23.4160 C   0  0  0  0  0  3  0  0  0  0  0  0
  -21.5800   -5.5470   24.4410 C   0  0  0  0  0  3  0  0  0  0  0  0
  -21.9140   -4.1950   24.2310 C   0  0  0  0  0  0  0  0  0  0  0  0
  -22.4470   -3.7910   22.9950 C   0  0  0  0  0  3  0  0  0  0  0  0
  -22.6420   -4.7340   21.9700 C   0  0  0  0  0  0  0  0  0  0  0  0
  -23.1370   -4.3300   20.7760 F   0  0  0  0  0  0  0  0  0  0  0  0
  -21.7140   -3.2840   25.2120 F   0  0  0  0  0  0  0  0  0  0  0  0
  -23.4370  -13.6100   21.5470 C   0  0  0  0  0  0  0  0  0  0  0  0
  -22.6300  -12.8470   22.2710 N   0  0  0  0  0  0  0  0  0  0  0  0
  -23.0400  -14.6490   21.0160 O   0  0  0  0  0  0  0  0  0  0  0  0
  -22.9690  -12.0150   22.7310 H   0  0  0  0  0  0  0  0  0  0  0  0
  -21.6560  -13.0970   22.3690 H   0  0  0  0  0  0  0  0  0  0  0  0
  -26.0370  -15.4340   21.4310 N   0  0  0  0  0  0  0  0  0  0  0  0
  -25.2100  -16.0130   21.5020 H   0  0  0  0  0  0  0  0  0  0  0  0
  -26.8810  -15.9600   21.2580 H   0  0  0  0  0  0  0  0  0  0  0  0
  -28.1870   -9.3950   20.1810 C   0  0  0  0  0  2  0  0  0  0  0  0
  -30.8790   -7.4620   23.0420 C   0  0  0  0  0  3  0  0  0  0  0  0
  -31.0460   -7.3060   21.6560 C   0  0  0  0  0  3  0  0  0  0  0  0
  -29.8420   -8.2760   23.5300 C   0  0  0  0  0  3  0  0  0  0  0  0
  -30.1670   -7.9470   20.7630 C   0  0  0  0  0  3  0  0  0  0  0  0
  -28.9580   -8.9270   22.6410 C   0  0  0  0  0  0  0  0  0  0  0  0
  -29.1110   -8.7610   21.2330 C   0  0  0  0  0  0  0  0  0  0  0  0
  -27.8830   -9.7870   23.2760 C   0  0  0  0  0  1  0  0  0  0  0  0
  -26.1650  -14.3340   18.3670 C   0  0  0  0  0  2  0  0  0  0  0  0
  -26.9930  -15.8350   18.7170 C   0  0  0  0  0  3  0  0  0  0  0  0
  -26.4750  -17.4340   18.9470 C   0  0  0  0  0  3  0  0  0  0  0  0
  -27.4500  -18.7060   19.5390 C   0  0  0  0  0  3  0  0  0  0  0  0
  -27.2710  -20.3970   19.3430 C   0  0  0  0  0  3  0  0  0  0  0  0
  -28.0710  -21.6510   20.1970 C   0  0  0  0  0  2  0  0  0  0  0  0
  -28.0880  -23.3440   19.9170 C   0  0  0  0  0  3  0  0  0  0  0  0
  -28.5450  -24.5490   21.0390 C   0  0  0  0  0  3  0  0  0  0  0  0
  -28.8890  -26.0930   20.9720 O   0  0  0  0  0  0  0  0  0  0  0  0
  -24.9970  -31.9570   23.4670 C   0  0  0  0  0  0  0  0  0  0  0  0
  -27.8930  -27.1130   20.9010 C   0  0  0  0  0  0  0  0  0  0  0  0
  -23.9980  -30.4100   21.8450 C   0  0  0  0  0  3  0  0  0  0  0  0
  -25.5930  -28.8190   20.6370 C   0  0  0  0  0  0  0  0  0  0  0  0
  -26.5560  -30.7460   21.8820 C   0  0  0  0  0  2  0  0  0  0  0  0
  -26.7160  -29.3200   21.3100 C   0  0  0  0  0  0  0  0  0  0  0  0
  -27.8870  -28.4740   21.4310 C   0  0  0  0  0  3  0  0  0  0  0  0
  -26.7490  -26.7220   20.2050 C   0  0  0  0  0  3  0  0  0  0  0  0
  -25.6210  -27.5390   20.0760 C   0  0  0  0  0  3  0  0  0  0  0  0
  -24.3510  -29.6810   20.5290 C   0  0  0  0  0  2  0  0  0  0  0  0
  -25.2000  -31.0640   22.4510 N   0  0  0  0  0  0  0  0  0  0  0  0
  -23.8560  -32.2260   23.8770 O   0  0  0  0  0  0  0  0  0  0  0  0
  -23.2940  -29.4190   22.8090 C   0  0  0  0  0  0  0  0  0  0  0  0
  -21.9900  -29.1760   22.5880 N   0  0  0  0  0  0  0  0  0  0  0  0
  -23.9210  -28.8790   23.7220 O   0  0  0  0  0  0  0  0  0  0  0  0
  -21.5380  -29.6650   21.8280 H   0  0  0  0  0  0  0  0  0  0  0  0
  -18.6250  -27.8740   22.9200 C   0  0  0  0  0  0  0  0  0  0  0  0
  -21.1470  -28.2530   23.3520 C   0  0  0  0  0  3  0  0  0  0  0  0
  -21.3410  -26.7940   22.8770 C   0  0  0  0  0  2  0  0  0  0  0  0
  -20.3290  -26.3700   21.8080 C   0  0  0  0  0  2  0  0  0  0  0  0
  -18.8990  -26.4970   22.3410 C   0  0  0  0  0  2  0  0  0  0  0  0
  -19.6820  -28.7050   23.3800 C   0  0  0  0  0  0  0  0  0  0  0  0
  -19.3720  -29.9890   23.8810 C   0  0  0  0  0  3  0  0  0  0  0  0
  -18.0410  -30.4440   23.9220 C   0  0  0  0  0  3  0  0  0  0  0  0
  -16.9990  -29.6130   23.4760 C   0  0  0  0  0  3  0  0  0  0  0  0
  -17.2920  -28.3300   22.9810 C   0  0  0  0  0  3  0  0  0  0  0  0
  -26.1870  -32.6970   24.1500 C   0  0  0  0  0  3  0  0  0  0  0  0
  -25.7890  -34.1030   24.3290 N   0  0  0  0  0  0  0  0  0  0  0  0
  -26.1290  -35.1070   23.5100 C   0  0  0  0  0  0  0  0  0  0  0  0
  -26.8790  -34.9490   22.5420 O   0  0  0  0  0  0  0  0  0  0  0  0
  -25.1310  -34.2950   25.0690 H   0  0  0  0  0  0  0  0  0  0  0  0
  -24.3540  -36.7790   22.8820 C   0  0  0  0  0  1  0  0  0  0  0  0
  -25.5500  -36.5040   23.8080 C   0  0  0  0  0  3  0  0  0  0  0  0
  -27.5800  -37.5650   24.7000 C   0  0  0  0  0  1  0  0  0  0  0  0
  -26.5410  -37.5930   23.6740 N   0  0  0  0  0  0  0  0  0  0  0  0
  -26.0870  -38.5010   23.7060 H   0  0  0  0  0  0  0  0  0  0  0  0
  -26.5940  -32.0650   25.5380 C   0  0  1  0  0  0  0  0  0  0  0  0
  -25.4030  -31.8750   26.5070 C   0  0  0  0  0  1  0  0  0  0  0  0
  -27.2670  -30.6850   25.3440 C   0  0  0  0  0  1  0  0  0  0  0  0
  -27.6360  -32.9690   26.2360 C   0  0  0  0  0  1  0  0  0  0  0  0
  1 50  1  0
  1  2  1  0
  2  3  2  0
  3  4  1  0
  3 42  1  0
  4  5  1  0
  5  6  1  0
  6 13  2  0
  7 12  1  0
  8  9  1  0
  8  7  1  0
 10  9  1  0
 10 17  1  0
 10 11  1  0
 12  6  1  0
 12 11  1  0
 14 39  1  0
 14 15  1  0
 15 34  1  0
 16 18  1  0
 16 15  2  0
 17 14  1  0
 17 18  1  0
 19 16  1  0
 19 20  1  0
 21 20  2  0
 22 21  1  0
 23 24  1  0
 23 22  2  0
 24 19  2  0
 25 22  1  0
 25 26  1  0
 26 27  1  0
 27 28  2  0
 29 28  1  0
 29 33  1  0
 30 29  2  0
 31 26  2  0
 31 30  1  0
 32 31  1  0
 34 35  1  0
 35 38  1  0
 35 37  1  0
 36 34  2  0
 39 40  1  0
 41 39  1  0
 42 48  1  0
 43 45  1  0
 44 43  2  0
 46 48  2  0
 46 44  1  0
 47 49  1  0
 47 45  2  0
 48 47  1  0
 50 51  1  0
 51 52  2  0
 52 53  1  0
 54 53  2  0
 54 55  1  0
 56 55  1  0
 56 57  2  0
 58 57  1  0
 59 70  2  0
 60 58  1  0
 60 65  1  0
 61 69  1  0
 61 71  1  0
 62 64  1  0
 63 69  1  0
 64 65  2  0
 64 63  1  0
 66 60  2  0
 67 66  1  0
 67 62  2  0
 68 62  1  0
 68 61  1  0
 69 59  1  0
 71 73  2  0
 72 71  1  0
 74 72  1  0
 75 84  2  0
 75 80  1  0
 76 72  1  0
 76 80  1  0
 77 76  1  0
 78 79  1  0
 78 77  1  0
 79 75  1  0
 80 81  2  0
 81 82  1  0
 83 82  2  0
 84 83  1  0
 85 59  1  0
 85 86  1  0
 85 95  1  0
 86 89  1  0
 87 91  1  0
 87 86  1  0
 88 87  2  0
 91 90  1  0
 93 94  1  0
 93 91  1  0
 93 92  1  0
 95 98  1  1
 95 96  1  0
 97 95  1  0
M  ISO  4   5 100   6 100  57 101  58 101
M  END
>  <TORSDO>  (70) 
F 29

>  <SCORE>  (70) 
-7.032

>  <name>  (70) 
70

>  <ligand_id>  (70) 
70

>  <original_smiles>  (70) 
[H]C(=C(C([H])([H])c1c([H])c([H])c([H])c([H])c1C([H])([H])[H])C([H])([H])C([H])([H])C(=O)N1C([H])([H])C([H])([H])C([H])([H])C([H])(n2nc(-c3c([H])c([H])c(Oc4c([H])c([H])c(F)c([H])c4F)c([H])c3[H])c(C(=O)N([H])[H])c2N([H])[H])C1([H])[H])C([H])([H])C([H])([H])C([H])([H])C([H])([H])C([H])([H])C([H])([H])C([H])([H])C([H])([H])C([H])([H])Oc1c([H])c([H])c2c(c1[H])C([H])([H])N(C(=O)C([H])(N([H])C(=O)C([H])(N([H])C([H])([H])[H])C([H])([H])[H])C(C([H])([H])[H])(C([H])([H])[H])C([H])([H])[H])C([H])(C(=O)N([H])C1([H])c3c([H])c([H])c([H])c([H])c3C([H])([H])C([H])([H])C1([H])[H])C2([H])[H]

>  <smiles>  (70) 
[H]C(=C(C([H])([H])c1c([H])c([H])c([H])c([H])c1C([H])([H])[H])C([H])([H])C([H])([H])C(=O)N1C([H])([H])C([H])([H])C([H])([H])C([H])(n2nc(-c3c([H])c([H])c(Oc4c([H])c([H])c(F)c([H])c4F)c([H])c3[H])c(C(=O)N([H])[H])c2N([H])[H])C1([H])[H])C([H])([H])C([H])([H])C([H])([H])C([H])([H])C([H])([H])C([H])([H])C([H])([H])C([H])([H])C([H])([H])Oc1c([H])c([H])c2c(c1[H])C([H])([H])N(C(=O)C([H])(N([H])C(=O)C([H])(N([H])C([H])([H])[H])C([H])([H])[H])C(C([H])([H])[H])(C([H])([H])[H])C([H])([H])[H])C([H])(C(=O)N([H])C1([H])c3c([H])c([H])c([H])c([H])c3C([H])([H])C([H])([H])C1([H])[H])C2([H])[H]

$$$$
71:0:0
     RDKit          3D

 91 98  0  0  1  0  0  0  0  0999 V2000
  -29.5860  -23.3070   23.5600 C   0  0  0  0  0  0  0  0  0  0  0  0
  -29.4940  -24.4990   22.9590 N   0  0  0  0  0  0  0  0  0  0  0  0
  -28.5980  -22.6670   23.9280 O   0  0  0  0  0  0  0  0  0  0  0  0
  -30.3560  -24.9630   22.7010 H   0  0  0  0  0  0  0  0  0  0  0  0
  -30.9920  -22.7550   23.7870 C   0  0  0  0  0  2  0  0  0  0  0  0
  -31.3960  -21.6690   22.7700 C   0  0  0  0  0  2  0  0  0  0  0  0
  -30.6660  -20.3240   22.9430 C   0  0  0  0  0  2  0  0  0  0  0  0
  -31.2080  -19.2450   21.9970 C   0  0  0  0  0  2  0  0  0  0  0  0
  -30.4770  -17.9030   22.1480 C   0  0  0  0  0  2  0  0  0  0  0  0
  -31.0430  -16.8360   21.2010 C   0  0  0  0  0  2  0  0  0  0  0  0
  -30.2790  -15.4970   21.2610 C   0  0  0  0  0  2  0  0  0  0  0  0
  -30.7760  -14.4710   20.2270 C   0  0  0  0  0  0  0  0  0  0  0  0
  -30.3450  -12.4500   18.8770 C   0  0  0  0  0  2  0  0  0  0  0  0
  -29.3380  -12.7610   17.7530 C   0  0  0  0  0  2  0  0  0  0  0  0
  -27.8890  -12.6130   18.2590 C   0  0  0  0  0  2  0  0  0  0  0  0
  -27.6430  -13.3650   19.5950 C   0  0  0  0  0  3  0  0  0  0  0  0
  -28.7520  -13.0360   20.6210 C   0  0  0  0  0  2  0  0  0  0  0  0
  -30.0520  -13.3450   20.0040 N   0  0  0  0  0  0  0  0  0  0  0  0
  -31.8050  -14.7270   19.5940 O   0  0  0  0  0  0  0  0  0  0  0  0
  -25.2700  -13.9550   20.4070 C   0  0  0  0  0  0  0  0  0  0  0  0
  -24.2230  -13.1720   20.8130 C   0  0  0  0  0  0  0  0  0  0  0  0
  -24.6880  -11.8240   20.7470 C   0  0  0  0  0  0  0  0  0  0  0  0
  -26.3110  -13.0810   20.1250 N   0  0  0  0  0  0  0  0  0  0  0  0
  -25.9640  -11.7940   20.3840 N   0  0  0  0  0  0  0  0  0  0  0  0
  -23.9780  -10.5560   20.9560 C   0  0  0  0  0  0  0  0  0  0  0  0
  -24.4370   -9.5950   21.8840 C   0  0  0  0  0  3  0  0  0  0  0  0
  -23.7280   -8.3910   22.0790 C   0  0  0  0  0  3  0  0  0  0  0  0
  -22.5430   -8.1390   21.3460 C   0  0  0  0  0  0  0  0  0  0  0  0
  -22.1030   -9.0880   20.4060 C   0  0  0  0  0  3  0  0  0  0  0  0
  -22.8140  -10.2840   20.2090 C   0  0  0  0  0  3  0  0  0  0  0  0
  -21.8030   -6.9860   21.4510 O   0  0  0  0  0  0  0  0  0  0  0  0
  -21.7580   -6.2620   22.6150 C   0  0  0  0  0  0  0  0  0  0  0  0
  -21.3270   -6.8350   23.8320 C   0  0  0  0  0  3  0  0  0  0  0  0
  -21.2310   -6.0370   24.9890 C   0  0  0  0  0  3  0  0  0  0  0  0
  -21.5540   -4.6690   24.9310 C   0  0  0  0  0  0  0  0  0  0  0  0
  -21.9780   -4.0960   23.7190 C   0  0  0  0  0  3  0  0  0  0  0  0
  -22.0760   -4.8910   22.5640 C   0  0  0  0  0  0  0  0  0  0  0  0
  -22.4650   -4.3290   21.3940 F   0  0  0  0  0  0  0  0  0  0  0  0
  -21.4540   -3.9000   26.0410 F   0  0  0  0  0  0  0  0  0  0  0  0
  -22.8350  -13.6390   21.1510 C   0  0  0  0  0  0  0  0  0  0  0  0
  -22.1490  -12.9290   22.0400 N   0  0  0  0  0  0  0  0  0  0  0  0
  -22.3690  -14.6670   20.6620 O   0  0  0  0  0  0  0  0  0  0  0  0
  -22.5390  -12.0960   22.4560 H   0  0  0  0  0  0  0  0  0  0  0  0
  -21.2210  -13.2230   22.3080 H   0  0  0  0  0  0  0  0  0  0  0  0
  -25.4220  -15.3270   20.2360 N   0  0  0  0  0  0  0  0  0  0  0  0
  -24.6620  -15.9810   20.3870 H   0  0  0  0  0  0  0  0  0  0  0  0
  -26.2630  -15.7730   19.8910 H   0  0  0  0  0  0  0  0  0  0  0  0
  -28.2440  -25.1770   22.6280 C   0  0  0  0  0  2  0  0  0  0  0  0
  -27.7370  -24.7920   21.2260 C   0  0  0  0  0  2  0  0  0  0  0  0
  -28.5390  -25.4130   20.0580 C   0  0  0  0  0  2  0  0  0  0  0  0
  -28.5730  -26.8420   20.0920 O   0  0  0  0  0  0  0  0  0  0  0  0
  -24.6340  -31.8290   23.2220 C   0  0  0  0  0  0  0  0  0  0  0  0
  -27.3800  -27.5280   20.0540 C   0  0  0  0  0  0  0  0  0  0  0  0
  -23.4680  -30.4600   21.5220 C   0  0  0  0  0  3  0  0  0  0  0  0
  -24.9610  -28.9850   20.0750 C   0  0  0  0  0  0  0  0  0  0  0  0
  -25.9890  -30.8590   21.3720 C   0  0  0  0  0  2  0  0  0  0  0  0
  -26.1010  -29.5100   20.6940 C   0  0  0  0  0  0  0  0  0  0  0  0
  -27.3120  -28.7880   20.6830 C   0  0  0  0  0  3  0  0  0  0  0  0
  -26.2250  -27.0170   19.4150 C   0  0  0  0  0  3  0  0  0  0  0  0
  -25.0160  -27.7360   19.4340 C   0  0  0  0  0  3  0  0  0  0  0  0
  -23.7040  -29.8230   20.1270 C   0  0  0  0  0  2  0  0  0  0  0  0
  -24.7140  -31.0620   22.0970 N   0  0  0  0  0  0  0  0  0  0  0  0
  -23.5420  -32.0740   23.7520 O   0  0  0  0  0  0  0  0  0  0  0  0
  -22.8170  -29.4030   22.4420 C   0  0  0  0  0  0  0  0  0  0  0  0
  -21.4970  -29.2080   22.2870 N   0  0  0  0  0  0  0  0  0  0  0  0
  -23.4960  -28.7650   23.2520 O   0  0  0  0  0  0  0  0  0  0  0  0
  -21.0120  -29.7780   21.6070 H   0  0  0  0  0  0  0  0  0  0  0  0
  -18.1330  -27.9560   22.6780 C   0  0  0  0  0  0  0  0  0  0  0  0
  -20.6800  -28.2400   23.0150 C   0  0  0  0  0  3  0  0  0  0  0  0
  -20.8160  -26.8250   22.4050 C   0  0  0  0  0  2  0  0  0  0  0  0
  -19.7410  -26.5130   21.3590 C   0  0  0  0  0  2  0  0  0  0  0  0
  -18.3440  -26.6240   21.9760 C   0  0  0  0  0  2  0  0  0  0  0  0
  -19.2310  -28.7210   23.1520 C   0  0  0  0  0  0  0  0  0  0  0  0
  -18.9840  -29.9680   23.7670 C   0  0  0  0  0  3  0  0  0  0  0  0
  -17.6700  -30.4490   23.9150 C   0  0  0  0  0  3  0  0  0  0  0  0
  -16.5840  -29.6800   23.4590 C   0  0  0  0  0  3  0  0  0  0  0  0
  -16.8180  -28.4360   22.8470 C   0  0  0  0  0  3  0  0  0  0  0  0
  -25.9050  -32.4550   23.8780 C   0  0  0  0  0  3  0  0  0  0  0  0
  -26.4100  -31.6570   25.1420 C   0  0  1  0  0  0  0  0  0  0  0  0
  -25.3020  -31.3830   26.1860 C   0  0  0  0  0  1  0  0  0  0  0  0
  -27.0130  -30.2960   24.7220 C   0  0  0  0  0  1  0  0  0  0  0  0
  -27.5430  -32.4460   25.8410 C   0  0  0  0  0  1  0  0  0  0  0  0
  -25.5800  -33.8430   24.2320 N   0  0  0  0  0  0  0  0  0  0  0  0
  -25.9230  -34.9140   23.5030 C   0  0  0  0  0  0  0  0  0  0  0  0
  -26.6170  -34.8380   22.4860 O   0  0  0  0  0  0  0  0  0  0  0  0
  -24.9670  -33.9780   25.0220 H   0  0  0  0  0  0  0  0  0  0  0  0
  -24.1900  -36.7020   23.1450 C   0  0  0  0  0  1  0  0  0  0  0  0
  -25.4140  -36.2880   23.9790 C   0  0  0  0  0  3  0  0  0  0  0  0
  -27.5190  -37.1660   24.8870 C   0  0  0  0  0  1  0  0  0  0  0  0
  -26.4410  -37.3490   23.9190 N   0  0  0  0  0  0  0  0  0  0  0  0
  -26.0240  -38.2630   24.0770 H   0  0  0  0  0  0  0  0  0  0  0  0
  1  5  1  0
  1  3  2  0
  2  1  1  0
  4  2  1  0
  6  7  1  0
  6  5  1  0
  8  9  1  0
  8  7  1  0
 10 11  1  0
 10  9  1  0
 12 11  1  0
 13 18  1  0
 14 15  1  0
 14 13  1  0
 16 15  1  0
 16 23  1  0
 16 17  1  0
 18 12  1  0
 18 17  1  0
 19 12  2  0
 20 21  2  0
 21 40  1  0
 22 21  1  0
 22 25  1  0
 23 24  1  0
 23 20  1  0
 24 22  2  0
 25 26  1  0
 26 27  2  0
 28 31  1  0
 28 27  1  0
 29 28  2  0
 30 29  1  0
 30 25  2  0
 31 32  1  0
 32 33  1  0
 33 34  2  0
 35 34  1  0
 35 39  1  0
 36 35  2  0
 37 32  2  0
 37 36  1  0
 38 37  1  0
 40 41  1  0
 41 44  1  0
 41 43  1  0
 42 40  2  0
 45 46  1  0
 45 20  1  0
 47 45  1  0
 48  2  1  0
 49 48  1  0
 50 51  1  0
 50 49  1  0
 52 63  2  0
 53 51  1  0
 53 58  1  0
 54 62  1  0
 54 64  1  0
 55 61  1  0
 55 57  1  0
 56 62  1  0
 57 56  1  0
 58 57  2  0
 59 60  1  0
 59 53  2  0
 60 55  2  0
 61 54  1  0
 62 52  1  0
 64 66  2  0
 65 64  1  0
 67 65  1  0
 68 77  2  0
 68 73  1  0
 69 65  1  0
 69 73  1  0
 70 69  1  0
 71 72  1  0
 71 70  1  0
 72 68  1  0
 73 74  2  0
 74 75  1  0
 76 75  2  0
 77 76  1  0
 78 52  1  0
 78 83  1  0
 78 79  1  0
 79 82  1  1
 79 80  1  0
 81 79  1  0
 83 86  1  0
 84 88  1  0
 84 83  1  0
 85 84  2  0
 88 87  1  0
 90 88  1  0
 90 91  1  0
 90 89  1  0
M  ISO  4  11 100  12 100  50 101  51 101
M  END
>  <TORSDO>  (71) 
F 26

>  <SCORE>  (71) 
-9.900

>  <name>  (71) 
71

>  <ligand_id>  (71) 
71

>  <original_smiles>  (71) 
[H]c1c([H])c([H])c2c(c1[H])C([H])([H])C([H])([H])C([H])([H])C2([H])N([H])C(=O)C1([H])N(C(=O)C([H])(N([H])C(=O)C([H])(N([H])C([H])([H])[H])C([H])([H])[H])C(C([H])([H])[H])(C([H])([H])[H])C([H])([H])[H])C([H])([H])c2c([H])c(OC([H])([H])C([H])([H])C([H])([H])N([H])C(=O)C([H])([H])C([H])([H])C([H])([H])C([H])([H])C([H])([H])C([H])([H])C([H])([H])C(=O)N3C([H])([H])C([H])([H])C([H])([H])C([H])(n4nc(-c5c([H])c([H])c(Oc6c([H])c([H])c(F)c([H])c6F)c([H])c5[H])c(C(=O)N([H])[H])c4N([H])[H])C3([H])[H])c([H])c([H])c2C1([H])[H]

>  <smiles>  (71) 
[H]c1c([H])c([H])c2c(c1[H])C([H])([H])C([H])([H])C([H])([H])C2([H])N([H])C(=O)C1([H])N(C(=O)C([H])(N([H])C(=O)C([H])(N([H])C([H])([H])[H])C([H])([H])[H])C(C([H])([H])[H])(C([H])([H])[H])C([H])([H])[H])C([H])([H])c2c([H])c(OC([H])([H])C([H])([H])C([H])([H])N([H])C(=O)C([H])([H])C([H])([H])C([H])([H])C([H])([H])C([H])([H])C([H])([H])C([H])([H])C(=O)N3C([H])([H])C([H])([H])C([H])([H])C([H])(n4nc(-c5c([H])c([H])c(Oc6c([H])c([H])c(F)c([H])c6F)c([H])c5[H])c(C(=O)N([H])[H])c4N([H])[H])C3([H])[H])c([H])c([H])c2C1([H])[H]

$$$$
72:0:0
     RDKit          3D

 94102  0  0  1  0  0  0  0  0999 V2000
  -29.9550  -19.0870   21.6170 C   0  0  0  0  0  0  0  0  0  0  0  0
  -29.4820  -18.7050   22.6880 O   0  0  0  0  0  0  0  0  0  0  0  0
  -28.7620  -19.0230   18.0640 C   0  0  0  0  0  3  0  0  0  0  0  0
  -28.7890  -17.6750   17.7090 C   0  0  0  0  0  3  0  0  0  0  0  0
  -29.1820  -19.4040   19.3420 C   0  0  0  0  0  3  0  0  0  0  0  0
  -29.2630  -16.7260   18.6270 C   0  0  0  0  0  3  0  0  0  0  0  0
  -29.6640  -18.4610   20.2880 C   0  0  0  0  0  0  0  0  0  0  0  0
  -29.7480  -17.0630   19.9240 C   0  0  0  0  0  0  0  0  0  0  0  0
  -31.6590  -16.3600   21.5160 C   0  0  0  0  0  1  0  0  0  0  0  0
  -29.3420  -15.6040   21.9690 C   0  0  0  0  0  1  0  0  0  0  0  0
  -30.3310  -15.9100   20.8300 C   0  0  1  0  0  0  0  0  0  0  0  0
  -30.7450  -14.6320   19.9670 C   0  0  0  0  0  0  0  0  0  0  0  0
  -30.2770  -12.5880   18.6420 C   0  0  0  0  0  2  0  0  0  0  0  0
  -29.2280  -12.8650   17.5420 C   0  0  0  0  0  2  0  0  0  0  0  0
  -27.7860  -12.7170   18.0800 C   0  0  0  0  0  2  0  0  0  0  0  0
  -27.5820  -13.4250   19.4470 C   0  0  0  0  0  3  0  0  0  0  0  0
  -28.7330  -13.0630   20.4010 C   0  0  0  0  0  2  0  0  0  0  0  0
  -30.0040  -13.4870   19.7840 N   0  0  0  0  0  0  0  0  0  0  0  0
  -31.7930  -14.7710   19.3250 O   0  0  0  0  0  0  0  0  0  0  0  0
  -25.2640  -13.9990   20.4010 C   0  0  0  0  0  0  0  0  0  0  0  0
  -24.2330  -13.2120   20.8320 C   0  0  0  0  0  0  0  0  0  0  0  0
  -24.6900  -11.8620   20.7110 C   0  0  0  0  0  0  0  0  0  0  0  0
  -26.2810  -13.1310   20.0390 N   0  0  0  0  0  0  0  0  0  0  0  0
  -25.9460  -11.8400   20.2830 N   0  0  0  0  0  0  0  0  0  0  0  0
  -23.9880  -10.5920   20.9230 C   0  0  0  0  0  0  0  0  0  0  0  0
  -24.4830   -9.6100   21.8080 C   0  0  0  0  0  3  0  0  0  0  0  0
  -23.7810   -8.4030   22.0070 C   0  0  0  0  0  3  0  0  0  0  0  0
  -22.5670   -8.1670   21.3180 C   0  0  0  0  0  0  0  0  0  0  0  0
  -22.0890   -9.1390   20.4230 C   0  0  0  0  0  3  0  0  0  0  0  0
  -22.7930  -10.3380   20.2230 C   0  0  0  0  0  3  0  0  0  0  0  0
  -21.8340   -7.0090   21.4210 O   0  0  0  0  0  0  0  0  0  0  0  0
  -21.8410   -6.2600   22.5700 C   0  0  0  0  0  0  0  0  0  0  0  0
  -21.4690   -6.8050   23.8180 C   0  0  0  0  0  3  0  0  0  0  0  0
  -21.4180   -5.9800   24.9590 C   0  0  0  0  0  3  0  0  0  0  0  0
  -21.7350   -4.6120   24.8530 C   0  0  0  0  0  0  0  0  0  0  0  0
  -22.1070   -4.0680   23.6110 C   0  0  0  0  0  3  0  0  0  0  0  0
  -22.1540   -4.8890   22.4710 C   0  0  0  0  0  0  0  0  0  0  0  0
  -22.4880   -4.3560   21.2700 F   0  0  0  0  0  0  0  0  0  0  0  0
  -21.6850   -3.8170   25.9470 F   0  0  0  0  0  0  0  0  0  0  0  0
  -22.8660  -13.6750   21.2450 C   0  0  0  0  0  0  0  0  0  0  0  0
  -22.2300  -12.9630   22.1650 N   0  0  0  0  0  0  0  0  0  0  0  0
  -22.3770  -14.7070   20.7900 O   0  0  0  0  0  0  0  0  0  0  0  0
  -22.6550  -12.1340   22.5550 H   0  0  0  0  0  0  0  0  0  0  0  0
  -21.3180  -13.2570   22.4860 H   0  0  0  0  0  0  0  0  0  0  0  0
  -25.4130  -15.3780   20.2680 N   0  0  0  0  0  0  0  0  0  0  0  0
  -24.6460  -16.0130   20.4490 H   0  0  0  0  0  0  0  0  0  0  0  0
  -26.2270  -15.8360   19.8740 H   0  0  0  0  0  0  0  0  0  0  0  0
  -30.8380  -20.3450   21.6120 C   0  0  0  0  0  2  0  0  0  0  0  0
  -30.0820  -21.6420   22.0130 C   0  0  0  0  0  2  0  0  0  0  0  0
  -30.6000  -22.9100   21.2890 C   0  0  0  0  0  2  0  0  0  0  0  0
  -29.8650  -24.2190   21.6790 C   0  0  0  0  0  2  0  0  0  0  0  0
  -30.4120  -25.4860   20.9630 C   0  0  0  0  0  2  0  0  0  0  0  0
  -29.5370  -26.7570   21.0960 C   0  0  0  0  0  2  0  0  0  0  0  0
  -28.5310  -26.6600   20.1010 O   0  0  0  0  0  0  0  0  0  0  0  0
  -24.6380  -31.8700   23.1640 C   0  0  0  0  0  0  0  0  0  0  0  0
  -27.4110  -27.4550   20.1640 C   0  0  0  0  0  0  0  0  0  0  0  0
  -23.4880  -30.4460   21.4980 C   0  0  0  0  0  3  0  0  0  0  0  0
  -24.9970  -28.9200   20.1220 C   0  0  0  0  0  0  0  0  0  0  0  0
  -26.0140  -30.8330   21.3640 C   0  0  0  0  0  2  0  0  0  0  0  0
  -26.1340  -29.4580   20.7420 C   0  0  0  0  0  0  0  0  0  0  0  0
  -27.3460  -28.7300   20.7760 C   0  0  0  0  0  3  0  0  0  0  0  0
  -26.2640  -26.9360   19.5340 C   0  0  0  0  0  3  0  0  0  0  0  0
  -25.0540  -27.6510   19.5220 C   0  0  0  0  0  3  0  0  0  0  0  0
  -23.7420  -29.7620   20.1290 C   0  0  0  0  0  2  0  0  0  0  0  0
  -24.7300  -31.0660   22.0660 N   0  0  0  0  0  0  0  0  0  0  0  0
  -23.5420  -32.1300   23.6790 O   0  0  0  0  0  0  0  0  0  0  0  0
  -22.8290  -29.4190   22.4480 C   0  0  0  0  0  0  0  0  0  0  0  0
  -21.5090  -29.2260   22.2980 N   0  0  0  0  0  0  0  0  0  0  0  0
  -23.5040  -28.7990   23.2750 O   0  0  0  0  0  0  0  0  0  0  0  0
  -21.0260  -29.7810   21.6060 H   0  0  0  0  0  0  0  0  0  0  0  0
  -18.1300  -28.0270   22.7560 C   0  0  0  0  0  0  0  0  0  0  0  0
  -20.6860  -28.2830   23.0540 C   0  0  0  0  0  3  0  0  0  0  0  0
  -20.7940  -26.8550   22.4710 C   0  0  0  0  0  2  0  0  0  0  0  0
  -19.7010  -26.5380   21.4440 C   0  0  0  0  0  2  0  0  0  0  0  0
  -18.3140  -26.6800   22.0750 C   0  0  0  0  0  2  0  0  0  0  0  0
  -19.2440  -28.7860   23.2020 C   0  0  0  0  0  0  0  0  0  0  0  0
  -19.0200  -30.0470   23.7970 C   0  0  0  0  0  3  0  0  0  0  0  0
  -17.7130  -30.5470   23.9510 C   0  0  0  0  0  3  0  0  0  0  0  0
  -16.6140  -29.7840   23.5230 C   0  0  0  0  0  3  0  0  0  0  0  0
  -16.8230  -28.5260   22.9310 C   0  0  0  0  0  3  0  0  0  0  0  0
  -25.9020  -32.5200   23.8090 C   0  0  0  0  0  3  0  0  0  0  0  0
  -25.5670  -33.9130   24.1300 N   0  0  0  0  0  0  0  0  0  0  0  0
  -25.9130  -34.9700   23.3840 C   0  0  0  0  0  0  0  0  0  0  0  0
  -26.6200  -34.8770   22.3770 O   0  0  0  0  0  0  0  0  0  0  0  0
  -24.9450  -34.0590   24.9130 H   0  0  0  0  0  0  0  0  0  0  0  0
  -24.1860  -36.7480   22.9620 C   0  0  0  0  0  1  0  0  0  0  0  0
  -25.3930  -36.3510   23.8260 C   0  0  0  0  0  3  0  0  0  0  0  0
  -27.4810  -37.2490   24.7550 C   0  0  0  0  0  1  0  0  0  0  0  0
  -26.4200  -37.4150   23.7660 N   0  0  0  0  0  0  0  0  0  0  0  0
  -25.9990  -38.3300   23.9040 H   0  0  0  0  0  0  0  0  0  0  0  0
  -26.4090  -31.7560   25.0930 C   0  0  1  0  0  0  0  0  0  0  0  0
  -25.3010  -31.4940   26.1390 C   0  0  0  0  0  1  0  0  0  0  0  0
  -27.0250  -30.3900   24.7090 C   0  0  0  0  0  1  0  0  0  0  0  0
  -27.5320  -32.5700   25.7820 C   0  0  0  0  0  1  0  0  0  0  0  0
  1  2  2  0
  3  5  1  0
  4  3  2  0
  4  6  1  0
  5  7  2  0
  6  8  2  0
  7  1  1  0
  8  7  1  0
  8 11  1  0
 11  9  1  1
 11 10  1  0
 12 11  1  0
 13 18  1  0
 14 15  1  0
 14 13  1  0
 16 15  1  0
 16 23  1  0
 16 17  1  0
 18 12  1  0
 18 17  1  0
 19 12  2  0
 20 21  2  0
 21 40  1  0
 22 21  1  0
 22 25  1  0
 23 24  1  0
 23 20  1  0
 24 22  2  0
 25 26  1  0
 26 27  2  0
 28 31  1  0
 28 27  1  0
 29 28  2  0
 30 29  1  0
 30 25  2  0
 31 32  1  0
 32 33  1  0
 33 34  2  0
 35 34  1  0
 35 39  1  0
 36 35  2  0
 37 32  2  0
 37 36  1  0
 38 37  1  0
 40 41  1  0
 41 44  1  0
 41 43  1  0
 42 40  2  0
 45 20  1  0
 45 46  1  0
 47 45  1  0
 48  1  1  0
 48 49  1  0
 50 51  1  0
 50 49  1  0
 52 53  1  0
 52 51  1  0
 54 56  1  0
 54 53  1  0
 55 66  2  0
 56 61  1  0
 57 65  1  0
 57 67  1  0
 58 64  1  0
 58 60  1  0
 59 65  1  0
 60 61  2  0
 60 59  1  0
 62 56  2  0
 63 62  1  0
 63 58  2  0
 64 57  1  0
 65 55  1  0
 67 69  2  0
 68 67  1  0
 70 68  1  0
 71 80  2  0
 71 76  1  0
 72 68  1  0
 72 76  1  0
 73 72  1  0
 74 75  1  0
 74 73  1  0
 75 71  1  0
 76 77  2  0
 77 78  1  0
 79 78  2  0
 80 79  1  0
 81 55  1  0
 81 82  1  0
 81 91  1  0
 82 85  1  0
 83 87  1  0
 83 82  1  0
 84 83  2  0
 87 86  1  0
 89 87  1  0
 89 90  1  0
 89 88  1  0
 91 94  1  1
 91 92  1  0
 93 91  1  0
M  ISO  4  11 100  12 100  53 101  54 101
M  END
>  <TORSDO>  (72) 
F 24

>  <SCORE>  (72) 
-9.387

>  <name>  (72) 
72

>  <ligand_id>  (72) 
72

>  <original_smiles>  (72) 
[H]c1c([H])c([H])c(C(C(=O)N2C([H])([H])C([H])([H])C([H])([H])C([H])(n3nc(-c4c([H])c([H])c(Oc5c([H])c([H])c(F)c([H])c5F)c([H])c4[H])c(C(=O)N([H])[H])c3N([H])[H])C2([H])[H])(C([H])([H])[H])C([H])([H])[H])c(C(=O)C([H])([H])C([H])([H])C([H])([H])C([H])([H])C([H])([H])C([H])([H])Oc2c([H])c([H])c3c(c2[H])C([H])([H])N(C(=O)C([H])(N([H])C(=O)C([H])(N([H])C([H])([H])[H])C([H])([H])[H])C(C([H])([H])[H])(C([H])([H])[H])C([H])([H])[H])C([H])(C(=O)N([H])C2([H])c4c([H])c([H])c([H])c([H])c4C([H])([H])C([H])([H])C2([H])[H])C3([H])[H])c1[H]

>  <smiles>  (72) 
[H]c1c([H])c([H])c(C(C(=O)N2C([H])([H])C([H])([H])C([H])([H])C([H])(n3nc(-c4c([H])c([H])c(Oc5c([H])c([H])c(F)c([H])c5F)c([H])c4[H])c(C(=O)N([H])[H])c3N([H])[H])C2([H])[H])(C([H])([H])[H])C([H])([H])[H])c(C(=O)C([H])([H])C([H])([H])C([H])([H])C([H])([H])C([H])([H])C([H])([H])Oc2c([H])c([H])c3c(c2[H])C([H])([H])N(C(=O)C([H])(N([H])C(=O)C([H])(N([H])C([H])([H])[H])C([H])([H])[H])C(C([H])([H])[H])(C([H])([H])[H])C([H])([H])[H])C([H])(C(=O)N([H])C2([H])c4c([H])c([H])c([H])c([H])c4C([H])([H])C([H])([H])C2([H])[H])C3([H])[H])c1[H]

$$$$
73:0:0
     RDKit          3D

 91 98  0  0  1  0  0  0  0  0999 V2000
  -30.8320  -24.0180   18.4530 C   0  0  0  0  0  2  0  0  0  0  0  0
  -30.6020  -25.5230   18.5720 C   0  0  0  0  0  0  0  0  0  0  0  0
  -30.3690  -26.2040   17.5700 O   0  0  0  0  0  0  0  0  0  0  0  0
  -30.6840  -26.1470   19.9700 C   0  0  0  0  0  2  0  0  0  0  0  0
  -29.6330  -27.2400   20.2130 C   0  0  0  0  0  2  0  0  0  0  0  0
  -28.3540  -26.6330   20.1050 O   0  0  0  0  0  0  0  0  0  0  0  0
  -24.5940  -31.8690   23.2040 C   0  0  0  0  0  0  0  0  0  0  0  0
  -27.2340  -27.4270   20.1520 C   0  0  0  0  0  0  0  0  0  0  0  0
  -23.3760  -30.4470   21.5860 C   0  0  0  0  0  3  0  0  0  0  0  0
  -24.8250  -28.8990   20.1690 C   0  0  0  0  0  0  0  0  0  0  0  0
  -25.8970  -30.8180   21.3640 C   0  0  0  0  0  2  0  0  0  0  0  0
  -25.9830  -29.4450   20.7370 C   0  0  0  0  0  0  0  0  0  0  0  0
  -27.1920  -28.7190   20.7280 C   0  0  0  0  0  3  0  0  0  0  0  0
  -26.0570  -26.8840   19.6000 C   0  0  0  0  0  3  0  0  0  0  0  0
  -24.8550  -27.6160   19.5960 C   0  0  0  0  0  3  0  0  0  0  0  0
  -23.5760  -29.7510   20.2130 C   0  0  0  0  0  2  0  0  0  0  0  0
  -24.6410  -31.0600   22.1090 N   0  0  0  0  0  0  0  0  0  0  0  0
  -23.5190  -32.1460   23.7510 O   0  0  0  0  0  0  0  0  0  0  0  0
  -22.7360  -29.4340   22.5640 C   0  0  0  0  0  0  0  0  0  0  0  0
  -21.4110  -29.2540   22.4480 N   0  0  0  0  0  0  0  0  0  0  0  0
  -23.4270  -28.8170   23.3770 O   0  0  0  0  0  0  0  0  0  0  0  0
  -20.9150  -29.8050   21.7620 H   0  0  0  0  0  0  0  0  0  0  0  0
  -18.0390  -28.0700   22.9760 C   0  0  0  0  0  0  0  0  0  0  0  0
  -20.5980  -28.3260   23.2350 C   0  0  0  0  0  3  0  0  0  0  0  0
  -20.6960  -26.8880   22.6750 C   0  0  0  0  0  2  0  0  0  0  0  0
  -19.5890  -26.5560   21.6690 C   0  0  0  0  0  2  0  0  0  0  0  0
  -18.2100  -26.7120   22.3170 C   0  0  0  0  0  2  0  0  0  0  0  0
  -19.1610  -28.8340   23.3920 C   0  0  0  0  0  0  0  0  0  0  0  0
  -18.9480  -30.1070   23.9650 C   0  0  0  0  0  3  0  0  0  0  0  0
  -17.6450  -30.6130   24.1320 C   0  0  0  0  0  3  0  0  0  0  0  0
  -16.5370  -29.8440   23.7340 C   0  0  0  0  0  3  0  0  0  0  0  0
  -16.7360  -28.5760   23.1600 C   0  0  0  0  0  3  0  0  0  0  0  0
  -25.8860  -32.5070   23.8050 C   0  0  0  0  0  3  0  0  0  0  0  0
  -26.4280  -31.7370   25.0710 C   0  0  1  0  0  0  0  0  0  0  0  0
  -25.3550  -31.4950   26.1570 C   0  0  0  0  0  1  0  0  0  0  0  0
  -27.0070  -30.3610   24.6660 C   0  0  0  0  0  1  0  0  0  0  0  0
  -27.5850  -32.5340   25.7150 C   0  0  0  0  0  1  0  0  0  0  0  0
  -25.5770  -33.9030   24.1370 N   0  0  0  0  0  0  0  0  0  0  0  0
  -25.8960  -34.9560   23.3740 C   0  0  0  0  0  0  0  0  0  0  0  0
  -26.5540  -34.8530   22.3340 O   0  0  0  0  0  0  0  0  0  0  0  0
  -24.9940  -34.0560   24.9480 H   0  0  0  0  0  0  0  0  0  0  0  0
  -24.1500  -36.7340   23.0350 C   0  0  0  0  0  1  0  0  0  0  0  0
  -25.4060  -36.3420   23.8320 C   0  0  0  0  0  3  0  0  0  0  0  0
  -27.5500  -37.2370   24.6270 C   0  0  0  0  0  1  0  0  0  0  0  0
  -26.4300  -37.4010   23.7040 N   0  0  0  0  0  0  0  0  0  0  0  0
  -26.0220  -38.3190   23.8630 H   0  0  0  0  0  0  0  0  0  0  0  0
  -29.5780  -23.1960   18.8290 C   0  0  0  0  0  2  0  0  0  0  0  0
  -29.7490  -22.4040   20.1260 C   0  0  0  0  0  0  0  0  0  0  0  0
  -30.4340  -22.8350   21.0560 O   0  0  0  0  0  0  0  0  0  0  0  0
  -29.0390  -21.0550   20.2460 C   0  0  0  0  0  2  0  0  0  0  0  0
  -30.0420  -19.8920   20.3360 C   0  0  0  0  0  2  0  0  0  0  0  0
  -29.3840  -18.5530   20.7000 C   0  0  0  0  0  2  0  0  0  0  0  0
  -30.4220  -17.4340   20.8750 C   0  0  0  0  0  2  0  0  0  0  0  0
  -29.8080  -16.1300   21.4070 C   0  0  0  0  0  2  0  0  0  0  0  0
  -30.8460  -15.0070   21.5950 C   0  0  0  0  0  2  0  0  0  0  0  0
  -31.0970  -14.1950   20.3160 C   0  0  0  0  0  0  0  0  0  0  0  0
  -30.6000  -12.1890   18.9590 C   0  0  0  0  0  2  0  0  0  0  0  0
  -29.6380  -12.4800   17.7950 C   0  0  0  0  0  2  0  0  0  0  0  0
  -28.1720  -12.3950   18.2590 C   0  0  0  0  0  2  0  0  0  0  0  0
  -27.9100  -13.2060   19.5540 C   0  0  0  0  0  3  0  0  0  0  0  0
  -28.9740  -12.8900   20.6280 C   0  0  0  0  0  2  0  0  0  0  0  0
  -30.3080  -13.1240   20.0510 N   0  0  0  0  0  0  0  0  0  0  0  0
  -32.0650  -14.5050   19.6120 O   0  0  0  0  0  0  0  0  0  0  0  0
  -25.5410  -13.9060   20.2870 C   0  0  0  0  0  0  0  0  0  0  0  0
  -24.4540  -13.1750   20.6880 C   0  0  0  0  0  0  0  0  0  0  0  0
  -24.8720  -11.8100   20.6700 C   0  0  0  0  0  0  0  0  0  0  0  0
  -26.5550  -12.9890   20.0550 N   0  0  0  0  0  0  0  0  0  0  0  0
  -26.1540  -11.7220   20.3380 N   0  0  0  0  0  0  0  0  0  0  0  0
  -24.1090  -10.5750   20.8900 C   0  0  0  0  0  0  0  0  0  0  0  0
  -24.5290   -9.6050   21.8270 C   0  0  0  0  0  3  0  0  0  0  0  0
  -23.7690   -8.4340   22.0330 C   0  0  0  0  0  3  0  0  0  0  0  0
  -22.5740   -8.2250   21.3040 C   0  0  0  0  0  0  0  0  0  0  0  0
  -22.1740   -9.1830   20.3540 C   0  0  0  0  0  3  0  0  0  0  0  0
  -22.9340  -10.3440   20.1450 C   0  0  0  0  0  3  0  0  0  0  0  0
  -21.7840   -7.1070   21.4200 O   0  0  0  0  0  0  0  0  0  0  0  0
  -21.7330   -6.3810   22.5840 C   0  0  0  0  0  0  0  0  0  0  0  0
  -21.3750   -6.9720   23.8160 C   0  0  0  0  0  3  0  0  0  0  0  0
  -21.2690   -6.1760   24.9740 C   0  0  0  0  0  3  0  0  0  0  0  0
  -21.5100   -4.7900   24.8990 C   0  0  0  0  0  0  0  0  0  0  0  0
  -21.8600   -4.2000   23.6730 C   0  0  0  0  0  3  0  0  0  0  0  0
  -21.9670   -4.9930   22.5170 C   0  0  0  0  0  0  0  0  0  0  0  0
  -22.2850   -4.4170   21.3340 F   0  0  0  0  0  0  0  0  0  0  0  0
  -21.3990   -4.0220   26.0090 F   0  0  0  0  0  0  0  0  0  0  0  0
  -23.0780  -13.7010   20.9810 C   0  0  0  0  0  0  0  0  0  0  0  0
  -22.3480  -13.0450   21.8770 N   0  0  0  0  0  0  0  0  0  0  0  0
  -22.6610  -14.7290   20.4500 O   0  0  0  0  0  0  0  0  0  0  0  0
  -22.6940  -12.2080   22.3230 H   0  0  0  0  0  0  0  0  0  0  0  0
  -21.4260  -13.3810   22.1190 H   0  0  0  0  0  0  0  0  0  0  0  0
  -25.7450  -15.2650   20.0780 N   0  0  0  0  0  0  0  0  0  0  0  0
  -24.9990  -15.9460   20.1700 H   0  0  0  0  0  0  0  0  0  0  0  0
  -26.6030  -15.6620   19.7160 H   0  0  0  0  0  0  0  0  0  0  0  0
  1  2  1  0
  1 47  1  0
  2  4  1  0
  3  2  2  0
  4  5  1  0
  6  8  1  0
  6  5  1  0
  7 18  2  0
  8 13  1  0
  9 17  1  0
  9 19  1  0
 10 16  1  0
 10 12  1  0
 11 17  1  0
 12 11  1  0
 13 12  2  0
 14  8  2  0
 15 14  1  0
 15 10  2  0
 16  9  1  0
 17  7  1  0
 19 21  2  0
 20 19  1  0
 22 20  1  0
 23 32  2  0
 23 28  1  0
 24 20  1  0
 24 28  1  0
 25 24  1  0
 26 27  1  0
 26 25  1  0
 27 23  1  0
 28 29  2  0
 29 30  1  0
 31 30  2  0
 32 31  1  0
 33  7  1  0
 33 38  1  0
 33 34  1  0
 34 37  1  1
 34 35  1  0
 36 34  1  0
 38 41  1  0
 39 43  1  0
 39 38  1  0
 40 39  2  0
 43 42  1  0
 45 43  1  0
 45 46  1  0
 45 44  1  0
 47 48  1  0
 48 50  1  0
 48 49  2  0
 50 51  1  0
 51 52  1  0
 52 53  1  0
 53 54  1  0
 54 55  1  0
 56 55  1  0
 57 62  1  0
 58 59  1  0
 58 57  1  0
 60 59  1  0
 60 67  1  0
 60 61  1  0
 62 56  1  0
 62 61  1  0
 63 56  2  0
 64 65  2  0
 65 84  1  0
 66 65  1  0
 66 69  1  0
 67 64  1  0
 67 68  1  0
 68 66  2  0
 69 70  1  0
 70 71  2  0
 72 75  1  0
 72 71  1  0
 73 72  2  0
 74 73  1  0
 74 69  2  0
 75 76  1  0
 76 77  1  0
 77 78  2  0
 79 78  1  0
 79 83  1  0
 80 79  2  0
 81 76  2  0
 81 80  1  0
 82 81  1  0
 84 85  1  0
 85 88  1  0
 85 87  1  0
 86 84  2  0
 89 90  1  0
 89 64  1  0
 91 89  1  0
M  ISO  4   5 101   6 101  55 100  56 100
M  END
>  <TORSDO>  (73) 
F 27

>  <SCORE>  (73) 
-11.407

>  <name>  (73) 
73

>  <ligand_id>  (73) 
73

>  <original_smiles>  (73) 
[H]c1c([H])c([H])c2c(c1[H])C([H])([H])C([H])([H])C([H])([H])C2([H])N([H])C(=O)C1([H])N(C(=O)C([H])(N([H])C(=O)C([H])(N([H])C([H])([H])[H])C([H])([H])[H])C(C([H])([H])[H])(C([H])([H])[H])C([H])([H])[H])C([H])([H])c2c([H])c(OC([H])([H])C([H])([H])C(=O)C([H])([H])C([H])([H])C(=O)C([H])([H])C([H])([H])C([H])([H])C([H])([H])C([H])([H])C([H])([H])C(=O)N3C([H])([H])C([H])([H])C([H])([H])C([H])(n4nc(-c5c([H])c([H])c(Oc6c([H])c([H])c(F)c([H])c6F)c([H])c5[H])c(C(=O)N([H])[H])c4N([H])[H])C3([H])[H])c([H])c([H])c2C1([H])[H]

>  <smiles>  (73) 
[H]c1c([H])c([H])c2c(c1[H])C([H])([H])C([H])([H])C([H])([H])C2([H])N([H])C(=O)C1([H])N(C(=O)C([H])(N([H])C(=O)C([H])(N([H])C([H])([H])[H])C([H])([H])[H])C(C([H])([H])[H])(C([H])([H])[H])C([H])([H])[H])C([H])([H])c2c([H])c(OC([H])([H])C([H])([H])C(=O)C([H])([H])C([H])([H])C(=O)C([H])([H])C([H])([H])C([H])([H])C([H])([H])C([H])([H])C([H])([H])C(=O)N3C([H])([H])C([H])([H])C([H])([H])C([H])(n4nc(-c5c([H])c([H])c(Oc6c([H])c([H])c(F)c([H])c6F)c([H])c5[H])c(C(=O)N([H])[H])c4N([H])[H])C3([H])[H])c([H])c([H])c2C1([H])[H]

$$$$
74:0:0
     RDKit          3D

 95102  0  0  1  0  0  0  0  0999 V2000
  -32.2960  -26.1400   23.4380 C   0  0  0  0  0  2  0  0  0  0  0  0
  -31.3130  -27.2230   23.2260 N   0  0  0  0  0  4  0  0  0  0  0  0
  -31.8240  -28.0900   23.1500 H   0  0  0  0  0  0  0  0  0  0  0  0
  -30.6980  -27.3040   24.0190 H   0  0  0  0  0  0  0  0  0  0  0  0
  -30.5060  -27.0560   21.9980 C   0  0  0  0  0  2  0  0  0  0  0  0
  -29.2230  -26.2310   22.2350 C   0  0  0  0  0  2  0  0  0  0  0  0
  -28.5840  -25.7300   20.9290 C   0  0  0  0  0  2  0  0  0  0  0  0
  -28.4240  -26.7970   20.0050 O   0  0  0  0  0  0  0  0  0  0  0  0
  -24.6100  -31.8710   23.2120 C   0  0  0  0  0  0  0  0  0  0  0  0
  -27.2420  -27.4820   20.0910 C   0  0  0  0  0  0  0  0  0  0  0  0
  -23.3950  -30.4920   21.5520 C   0  0  0  0  0  3  0  0  0  0  0  0
  -24.8430  -28.9560   20.1240 C   0  0  0  0  0  0  0  0  0  0  0  0
  -25.9180  -30.8500   21.3580 C   0  0  0  0  0  2  0  0  0  0  0  0
  -25.9990  -29.4850   20.7130 C   0  0  0  0  0  0  0  0  0  0  0  0
  -27.2040  -28.7540   20.6940 C   0  0  0  0  0  3  0  0  0  0  0  0
  -26.0740  -26.9490   19.5090 C   0  0  0  0  0  3  0  0  0  0  0  0
  -24.8720  -27.6830   19.5230 C   0  0  0  0  0  3  0  0  0  0  0  0
  -23.6030  -29.8180   20.1690 C   0  0  0  0  0  2  0  0  0  0  0  0
  -24.6590  -31.0850   22.1000 N   0  0  0  0  0  0  0  0  0  0  0  0
  -23.5300  -32.1440   23.7540 O   0  0  0  0  0  0  0  0  0  0  0  0
  -22.7380  -29.4670   22.5030 C   0  0  0  0  0  0  0  0  0  0  0  0
  -21.4110  -29.3020   22.3760 N   0  0  0  0  0  0  0  0  0  0  0  0
  -23.4170  -28.8220   23.3050 O   0  0  0  0  0  0  0  0  0  0  0  0
  -20.9260  -29.8750   21.6990 H   0  0  0  0  0  0  0  0  0  0  0  0
  -18.0270  -28.1370   22.8500 C   0  0  0  0  0  0  0  0  0  0  0  0
  -20.5850  -28.3640   23.1340 C   0  0  0  0  0  3  0  0  0  0  0  0
  -20.6750  -26.9380   22.5420 C   0  0  0  0  0  2  0  0  0  0  0  0
  -19.5740  -26.6380   21.5210 C   0  0  0  0  0  2  0  0  0  0  0  0
  -18.1920  -26.7920   22.1620 C   0  0  0  0  0  2  0  0  0  0  0  0
  -19.1510  -28.8820   23.2920 C   0  0  0  0  0  0  0  0  0  0  0  0
  -18.9450  -30.1430   23.8920 C   0  0  0  0  0  3  0  0  0  0  0  0
  -17.6450  -30.6580   24.0570 C   0  0  0  0  0  3  0  0  0  0  0  0
  -16.5340  -29.9090   23.6320 C   0  0  0  0  0  3  0  0  0  0  0  0
  -16.7260  -28.6500   23.0340 C   0  0  0  0  0  3  0  0  0  0  0  0
  -25.9010  -32.4840   23.8410 C   0  0  0  0  0  3  0  0  0  0  0  0
  -26.4460  -31.6580   25.0710 C   0  0  1  0  0  0  0  0  0  0  0  0
  -25.3750  -31.3670   26.1470 C   0  0  0  0  0  1  0  0  0  0  0  0
  -27.0280  -30.3030   24.6030 C   0  0  0  0  0  1  0  0  0  0  0  0
  -27.6050  -32.4270   25.7480 C   0  0  0  0  0  1  0  0  0  0  0  0
  -25.5900  -33.8630   24.2360 N   0  0  0  0  0  0  0  0  0  0  0  0
  -25.9030  -34.9480   23.5150 C   0  0  0  0  0  0  0  0  0  0  0  0
  -26.5580  -34.8920   22.4700 O   0  0  0  0  0  0  0  0  0  0  0  0
  -25.0070  -33.9800   25.0520 H   0  0  0  0  0  0  0  0  0  0  0  0
  -24.1480  -36.7320   23.2640 C   0  0  0  0  0  1  0  0  0  0  0  0
  -25.4100  -36.3120   24.0350 C   0  0  0  0  0  3  0  0  0  0  0  0
  -27.5580  -37.1810   24.8470 C   0  0  0  0  0  1  0  0  0  0  0  0
  -26.4300  -37.3800   23.9410 N   0  0  0  0  0  0  0  0  0  0  0  0
  -26.0190  -38.2880   24.1400 H   0  0  0  0  0  0  0  0  0  0  0  0
  -32.9280  -26.1570   24.8450 C   0  0  0  0  0  2  0  0  0  0  0  0
  -31.9750  -25.8270   26.0150 C   0  0  0  0  0  2  0  0  0  0  0  0
  -31.1160  -24.5570   25.8460 C   0  0  0  0  0  2  0  0  0  0  0  0
  -31.9150  -23.2820   25.5250 C   0  0  0  0  0  2  0  0  0  0  0  0
  -31.0010  -22.0740   25.2740 C   0  0  0  0  0  2  0  0  0  0  0  0
  -31.7430  -20.9070   24.6060 C   0  0  0  0  0  2  0  0  0  0  0  0
  -30.8180  -19.7210   24.3000 C   0  0  0  0  0  2  0  0  0  0  0  0
  -31.4920  -18.6690   23.4080 C   0  0  0  0  0  2  0  0  0  0  0  0
  -30.5660  -17.4860   23.0960 C   0  0  0  0  0  2  0  0  0  0  0  0
  -31.1700  -16.5170   22.0680 C   0  0  0  0  0  2  0  0  0  0  0  0
  -30.2480  -15.3140   21.7940 C   0  0  0  0  0  2  0  0  0  0  0  0
  -30.7530  -14.3570   20.7000 C   0  0  0  0  0  0  0  0  0  0  0  0
  -30.4190  -12.2890   19.3830 C   0  0  0  0  0  2  0  0  0  0  0  0
  -29.4820  -12.5270   18.1860 C   0  0  0  0  0  2  0  0  0  0  0  0
  -28.0060  -12.3800   18.6060 C   0  0  0  0  0  2  0  0  0  0  0  0
  -27.6680  -13.1980   19.8810 C   0  0  0  0  0  3  0  0  0  0  0  0
  -28.7080  -12.9290   20.9900 C   0  0  0  0  0  2  0  0  0  0  0  0
  -30.0450  -13.2260   20.4490 N   0  0  0  0  0  0  0  0  0  0  0  0
  -31.7840  -14.6430   20.0820 O   0  0  0  0  0  0  0  0  0  0  0  0
  -25.2620  -13.8150   20.5680 C   0  0  0  0  0  0  0  0  0  0  0  0
  -24.1860  -13.0440   20.9160 C   0  0  0  0  0  0  0  0  0  0  0  0
  -24.6400  -11.6900   20.8720 C   0  0  0  0  0  0  0  0  0  0  0  0
  -26.3060  -12.9300   20.3390 N   0  0  0  0  0  0  0  0  0  0  0  0
  -25.9320  -11.6470   20.5760 N   0  0  0  0  0  0  0  0  0  0  0  0
  -23.9060  -10.4290   21.0400 C   0  0  0  0  0  0  0  0  0  0  0  0
  -24.3610   -9.4210   21.9180 C   0  0  0  0  0  3  0  0  0  0  0  0
  -23.6290   -8.2240   22.0750 C   0  0  0  0  0  3  0  0  0  0  0  0
  -22.4270   -8.0280   21.3540 C   0  0  0  0  0  0  0  0  0  0  0  0
  -21.9900   -9.0250   20.4650 C   0  0  0  0  0  3  0  0  0  0  0  0
  -22.7230  -10.2130   20.3050 C   0  0  0  0  0  3  0  0  0  0  0  0
  -21.6640   -6.8880   21.4240 O   0  0  0  0  0  0  0  0  0  0  0  0
  -21.6850   -6.0740   22.5280 C   0  0  0  0  0  0  0  0  0  0  0  0
  -21.4010   -6.5640   23.8210 C   0  0  0  0  0  3  0  0  0  0  0  0
  -21.3660   -5.6790   24.9180 C   0  0  0  0  0  3  0  0  0  0  0  0
  -21.6040   -4.3060   24.7230 C   0  0  0  0  0  0  0  0  0  0  0  0
  -21.8820   -3.8150   23.4350 C   0  0  0  0  0  3  0  0  0  0  0  0
  -21.9190   -4.6960   22.3400 C   0  0  0  0  0  0  0  0  0  0  0  0
  -22.1660   -4.2150   21.0980 F   0  0  0  0  0  0  0  0  0  0  0  0
  -21.5630   -3.4540   25.7740 F   0  0  0  0  0  0  0  0  0  0  0  0
  -22.7880  -13.5240   21.1830 C   0  0  0  0  0  0  0  0  0  0  0  0
  -22.0520  -12.8240   22.0390 N   0  0  0  0  0  0  0  0  0  0  0  0
  -22.3570  -14.5550   20.6690 O   0  0  0  0  0  0  0  0  0  0  0  0
  -22.4130  -11.9890   22.4770 H   0  0  0  0  0  0  0  0  0  0  0  0
  -21.1140  -13.1270   22.2600 H   0  0  0  0  0  0  0  0  0  0  0  0
  -25.4370  -15.1860   20.4090 N   0  0  0  0  0  0  0  0  0  0  0  0
  -24.6770  -15.8480   20.5210 H   0  0  0  0  0  0  0  0  0  0  0  0
  -26.3020  -15.6230   20.1130 H   0  0  0  0  0  0  0  0  0  0  0  0
  1 49  1  0
  2  1  1  0
  2  4  1  0
  3  2  1  0
  5  6  1  0
  5  2  1  0
  7  6  1  0
  8 10  1  0
  8  7  1  0
  9 20  2  0
 10 15  1  0
 11 19  1  0
 11 21  1  0
 12 18  1  0
 12 14  1  0
 13 19  1  0
 14 13  1  0
 15 14  2  0
 16 17  1  0
 16 10  2  0
 17 12  2  0
 18 11  1  0
 19  9  1  0
 21 23  2  0
 22 21  1  0
 24 22  1  0
 25 34  2  0
 25 30  1  0
 26 22  1  0
 26 30  1  0
 27 26  1  0
 28 29  1  0
 28 27  1  0
 29 25  1  0
 30 31  2  0
 31 32  1  0
 33 32  2  0
 34 33  1  0
 35  9  1  0
 35 40  1  0
 35 36  1  0
 36 39  1  1
 36 37  1  0
 38 36  1  0
 40 43  1  0
 41 45  1  0
 41 40  1  0
 42 41  2  0
 45 44  1  0
 47 45  1  0
 47 48  1  0
 47 46  1  0
 49 50  1  0
 51 50  1  0
 52 51  1  0
 53 52  1  0
 54 53  1  0
 55 54  1  0
 56 55  1  0
 57 56  1  0
 58 57  1  0
 59 58  1  0
 60 59  1  0
 61 66  1  0
 62 63  1  0
 62 61  1  0
 64 63  1  0
 64 71  1  0
 64 65  1  0
 66 60  1  0
 66 65  1  0
 67 60  2  0
 68 69  2  0
 69 88  1  0
 70 69  1  0
 70 73  1  0
 71 68  1  0
 71 72  1  0
 72 70  2  0
 73 74  1  0
 74 75  2  0
 76 79  1  0
 76 75  1  0
 77 76  2  0
 78 77  1  0
 78 73  2  0
 79 80  1  0
 80 81  1  0
 81 82  2  0
 83 82  1  0
 83 87  1  0
 84 83  2  0
 85 80  2  0
 85 84  1  0
 86 85  1  0
 88 89  1  0
 89 92  1  0
 89 91  1  0
 90 88  2  0
 93 94  1  0
 93 68  1  0
 95 93  1  0
M  ISO  4   7 101   8 101  59 100  60 100
M  END
>  <TORSDO>  (74) 
F 31

>  <SCORE>  (74) 
8.002

>  <name>  (74) 
74

>  <ligand_id>  (74) 
74

>  <original_smiles>  (74) 
[H]c1c([H])c([H])c2c(c1[H])C([H])([H])C([H])([H])C([H])([H])C2([H])N([H])C(=O)C1([H])N(C(=O)C([H])(N([H])C(=O)C([H])(N([H])C([H])([H])[H])C([H])([H])[H])C(C([H])([H])[H])(C([H])([H])[H])C([H])([H])[H])C([H])([H])c2c([H])c(OC([H])([H])C([H])([H])C([H])([H])[N+]([H])([H])C([H])([H])C([H])([H])C([H])([H])C([H])([H])C([H])([H])C([H])([H])C([H])([H])C([H])([H])C([H])([H])C([H])([H])C([H])([H])C([H])([H])C(=O)N3C([H])([H])C([H])([H])C([H])([H])C([H])(n4nc(-c5c([H])c([H])c(Oc6c([H])c([H])c(F)c([H])c6F)c([H])c5[H])c(C(=O)N([H])[H])c4N([H])[H])C3([H])[H])c([H])c([H])c2C1([H])[H]

>  <smiles>  (74) 
[H]c1c([H])c([H])c2c(c1[H])C([H])([H])C([H])([H])C([H])([H])C2([H])N([H])C(=O)C1([H])N(C(=O)C([H])(N([H])C(=O)C([H])(N([H])C([H])([H])[H])C([H])([H])[H])C(C([H])([H])[H])(C([H])([H])[H])C([H])([H])[H])C([H])([H])c2c([H])c(OC([H])([H])C([H])([H])C([H])([H])[N+]([H])([H])C([H])([H])C([H])([H])C([H])([H])C([H])([H])C([H])([H])C([H])([H])C([H])([H])C([H])([H])C([H])([H])C([H])([H])C([H])([H])C([H])([H])C(=O)N3C([H])([H])C([H])([H])C([H])([H])C([H])(n4nc(-c5c([H])c([H])c(Oc6c([H])c([H])c(F)c([H])c6F)c([H])c5[H])c(C(=O)N([H])[H])c4N([H])[H])C3([H])[H])c([H])c([H])c2C1([H])[H]

$$$$
75:0:0
     RDKit          3D

 98107  0  0  1  0  0  0  0  0999 V2000
  -26.8850  -22.9580   22.1630 C   0  0  0  0  0  3  0  0  0  0  0  0
  -27.7250  -24.2440   20.2630 C   0  0  0  0  0  3  0  0  0  0  0  0
  -26.9660  -21.7750   21.4050 C   0  0  0  0  0  3  0  0  0  0  0  0
  -27.7860  -23.0640   19.5000 C   0  0  0  0  0  3  0  0  0  0  0  0
  -27.3300  -24.1860   21.6190 C   0  0  0  0  0  0  0  0  0  0  0  0
  -27.4620  -21.8250   20.0870 C   0  0  0  0  0  0  0  0  0  0  0  0
  -27.5080  -25.3880   22.4960 C   0  0  0  0  0  0  0  0  0  0  0  0
  -28.5800  -25.2950   23.2930 N   0  0  0  0  0  0  0  0  0  0  0  0
  -26.8410  -26.4120   22.3490 O   0  0  0  0  0  0  0  0  0  0  0  0
  -29.0160  -24.3850   23.3240 H   0  0  0  0  0  0  0  0  0  0  0  0
  -29.4060  -26.4040   23.7430 C   0  0  0  0  0  2  0  0  0  0  0  0
  -30.7960  -26.2600   23.0870 C   0  0  0  0  0  2  0  0  0  0  0  0
  -31.4530  -27.5820   22.6550 C   0  0  0  0  0  2  0  0  0  0  0  0
  -31.0270  -27.9020   21.3300 O   0  0  0  0  0  0  0  0  0  0  0  0
  -25.7880  -31.8940   23.9870 C   0  0  0  0  0  0  0  0  0  0  0  0
  -29.7420  -28.3650   21.2090 C   0  0  0  0  0  0  0  0  0  0  0  0
  -25.1480  -30.3550   22.1500 C   0  0  0  0  0  3  0  0  0  0  0  0
  -27.0860  -29.2530   20.9070 C   0  0  0  0  0  0  0  0  0  0  0  0
  -27.5230  -31.2840   22.3090 C   0  0  0  0  0  2  0  0  0  0  0  0
  -27.9950  -30.0060   21.6600 C   0  0  0  0  0  0  0  0  0  0  0  0
  -29.3240  -29.5730   21.8060 C   0  0  0  0  0  3  0  0  0  0  0  0
  -28.8240  -27.6100   20.4550 C   0  0  0  0  0  3  0  0  0  0  0  0
  -27.4920  -28.0490   20.3040 C   0  0  0  0  0  3  0  0  0  0  0  0
  -25.6810  -29.8000   20.7980 C   0  0  0  0  0  2  0  0  0  0  0  0
  -26.1590  -31.1900   22.8780 N   0  0  0  0  0  0  0  0  0  0  0  0
  -24.6140  -31.8950   24.3820 O   0  0  0  0  0  0  0  0  0  0  0  0
  -24.6160  -29.1740   22.9860 C   0  0  0  0  0  0  0  0  0  0  0  0
  -23.5070  -28.5730   22.5280 N   0  0  0  0  0  0  0  0  0  0  0  0
  -25.2130  -28.7920   23.9950 O   0  0  0  0  0  0  0  0  0  0  0  0
  -23.0690  -28.9460   21.6960 H   0  0  0  0  0  0  0  0  0  0  0  0
  -20.7070  -26.3220   22.1920 C   0  0  0  0  0  0  0  0  0  0  0  0
  -22.8550  -27.4140   23.1290 C   0  0  0  0  0  3  0  0  0  0  0  0
  -23.5770  -26.1040   22.7290 C   0  0  0  0  0  2  0  0  0  0  0  0
  -22.9720  -25.4390   21.4890 C   0  0  0  0  0  2  0  0  0  0  0  0
  -21.4950  -25.1130   21.7180 C   0  0  0  0  0  2  0  0  0  0  0  0
  -21.3480  -27.4090   22.8400 C   0  0  0  0  0  0  0  0  0  0  0  0
  -20.5760  -28.5270   23.2260 C   0  0  0  0  0  3  0  0  0  0  0  0
  -19.1910  -28.5660   22.9780 C   0  0  0  0  0  3  0  0  0  0  0  0
  -18.5570  -27.4770   22.3530 C   0  0  0  0  0  3  0  0  0  0  0  0
  -19.3150  -26.3580   21.9620 C   0  0  0  0  0  3  0  0  0  0  0  0
  -26.8170  -32.7450   24.7980 C   0  0  0  0  0  3  0  0  0  0  0  0
  -26.1820  -34.0320   25.1070 N   0  0  0  0  0  0  0  0  0  0  0  0
  -26.4300  -35.1770   24.4590 C   0  0  0  0  0  0  0  0  0  0  0  0
  -27.2870  -35.2720   23.5750 O   0  0  0  0  0  0  0  0  0  0  0  0
  -25.4350  -34.0180   25.7850 H   0  0  0  0  0  0  0  0  0  0  0  0
  -24.5010  -36.6460   23.7970 C   0  0  0  0  0  1  0  0  0  0  0  0
  -25.5970  -36.4100   24.8490 C   0  0  0  0  0  3  0  0  0  0  0  0
  -27.3390  -37.5670   26.1330 C   0  0  0  0  0  1  0  0  0  0  0  0
  -26.3990  -37.6400   25.0170 N   0  0  0  0  0  0  0  0  0  0  0  0
  -25.7960  -38.4450   25.1650 H   0  0  0  0  0  0  0  0  0  0  0  0
  -27.3120  -32.0350   26.1160 C   0  0  1  0  0  0  0  0  0  0  0  0
  -26.1610  -31.4490   26.9670 C   0  0  0  0  0  1  0  0  0  0  0  0
  -28.2990  -30.8910   25.7850 C   0  0  0  0  0  1  0  0  0  0  0  0
  -28.0880  -33.0460   26.9960 C   0  0  0  0  0  1  0  0  0  0  0  0
  -27.7360  -20.5410   19.3350 C   0  0  0  0  0  2  0  0  0  0  0  0
  -28.9550  -20.6910   18.4030 C   0  0  0  0  0  2  0  0  0  0  0  0
  -32.9100  -17.1610   20.0230 C   0  0  0  0  0  0  0  0  0  0  0  0
  -32.7290  -14.7040   20.0280 C   0  0  0  0  0  2  0  0  0  0  0  0
  -32.0250  -14.2180   18.7440 C   0  0  0  0  0  2  0  0  0  0  0  0
  -30.4940  -14.2100   18.9280 C   0  0  0  0  0  2  0  0  0  0  0  0
  -29.9570  -15.5400   19.5180 C   0  0  0  0  0  3  0  0  0  0  0  0
  -30.7890  -15.9550   20.7510 C   0  0  0  0  0  2  0  0  0  0  0  0
  -32.2040  -16.0400   20.3490 N   0  0  0  0  0  0  0  0  0  0  0  0
  -34.0920  -17.1090   19.6650 O   0  0  0  0  0  0  0  0  0  0  0  0
  -31.1820  -19.6070   18.0000 C   0  0  0  0  0  2  0  0  0  0  0  0
  -30.2270  -19.6100   20.3620 C   0  0  0  0  0  2  0  0  0  0  0  0
  -32.5000  -19.1160   18.6090 C   0  0  0  0  0  2  0  0  0  0  0  0
  -31.6070  -19.1130   20.8390 C   0  0  0  0  0  2  0  0  0  0  0  0
  -30.3270  -20.3850   19.0270 C   0  0  0  0  0  3  0  0  0  0  0  0
  -32.1960  -18.2840   19.7820 N   0  0  0  0  0  0  0  0  0  0  0  0
  -27.5930  -16.4630   19.9520 C   0  0  0  0  0  0  0  0  0  0  0  0
  -26.3980  -15.8440   20.1940 C   0  0  0  0  0  0  0  0  0  0  0  0
  -26.6750  -14.4440   20.1930 C   0  0  0  0  0  0  0  0  0  0  0  0
  -28.5330  -15.4510   19.8330 N   0  0  0  0  0  0  0  0  0  0  0  0
  -27.9750  -14.2290   20.0330 N   0  0  0  0  0  0  0  0  0  0  0  0
  -25.7670  -13.2930   20.2780 C   0  0  0  0  0  0  0  0  0  0  0  0
  -25.9670  -12.2610   21.2200 C   0  0  0  0  0  3  0  0  0  0  0  0
  -25.0710  -11.1740   21.2920 C   0  0  0  0  0  3  0  0  0  0  0  0
  -23.9570  -11.1140   20.4200 C   0  0  0  0  0  0  0  0  0  0  0  0
  -23.7750  -12.1320   19.4670 C   0  0  0  0  0  3  0  0  0  0  0  0
  -24.6730  -13.2110   19.3930 C   0  0  0  0  0  3  0  0  0  0  0  0
  -23.0490  -10.0830   20.4020 O   0  0  0  0  0  0  0  0  0  0  0  0
  -22.7190   -9.3930   21.5400 C   0  0  0  0  0  0  0  0  0  0  0  0
  -22.2050  -10.0440   22.6840 C   0  0  0  0  0  3  0  0  0  0  0  0
  -21.8160   -9.2870   23.8080 C   0  0  0  0  0  3  0  0  0  0  0  0
  -21.9300   -7.8840   23.7870 C   0  0  0  0  0  0  0  0  0  0  0  0
  -22.4380   -7.2340   22.6470 C   0  0  0  0  0  3  0  0  0  0  0  0
  -22.8270   -7.9880   21.5270 C   0  0  0  0  0  0  0  0  0  0  0  0
  -23.2960   -7.3570   20.4220 F   0  0  0  0  0  0  0  0  0  0  0  0
  -21.5500   -7.1550   24.8620 F   0  0  0  0  0  0  0  0  0  0  0  0
  -25.0580  -16.5100   20.3200 C   0  0  0  0  0  0  0  0  0  0  0  0
  -24.1360  -15.8940   21.0540 N   0  0  0  0  0  0  0  0  0  0  0  0
  -24.8340  -17.6060   19.8090 O   0  0  0  0  0  0  0  0  0  0  0  0
  -24.3280  -15.0050   21.4940 H   0  0  0  0  0  0  0  0  0  0  0  0
  -23.2270  -16.3180   21.1800 H   0  0  0  0  0  0  0  0  0  0  0  0
  -27.9470  -17.7940   19.7960 N   0  0  0  0  0  0  0  0  0  0  0  0
  -27.2530  -18.5320   19.8130 H   0  0  0  0  0  0  0  0  0  0  0  0
  -28.8770  -18.1210   19.5740 H   0  0  0  0  0  0  0  0  0  0  0  0
  2  5  2  0
  3  1  2  0
  4  6  2  0
  4  2  1  0
  5  1  1  0
  5  7  1  0
  6  3  1  0
  7  8  1  0
  8 10  1  0
  8 11  1  0
  9  7  2  0
 12 11  1  0
 13 12  1  0
 14 13  1  0
 15 26  2  0
 16 14  1  0
 16 21  1  0
 17 25  1  0
 17 27  1  0
 18 20  1  0
 19 25  1  0
 20 21  2  0
 20 19  1  0
 22 16  2  0
 23 22  1  0
 23 18  2  0
 24 18  1  0
 24 17  1  0
 25 15  1  0
 27 29  2  0
 28 27  1  0
 30 28  1  0
 31 36  1  0
 32 28  1  0
 33 32  1  0
 34 35  1  0
 34 33  1  0
 35 31  1  0
 36 32  1  0
 36 37  2  0
 38 37  1  0
 39 38  2  0
 40 31  2  0
 40 39  1  0
 41 15  1  0
 41 42  1  0
 41 51  1  0
 42 45  1  0
 43 47  1  0
 43 42  1  0
 44 43  2  0
 47 46  1  0
 47 49  1  0
 49 50  1  0
 49 48  1  0
 51 52  1  1
 51 54  1  0
 53 51  1  0
 55  6  1  0
 56 55  1  0
 57 63  1  0
 58 63  1  0
 59 60  1  0
 59 58  1  0
 61 60  1  0
 61 74  1  0
 61 62  1  0
 63 62  1  0
 64 57  2  0
 65 67  1  0
 65 69  1  0
 66 68  1  0
 67 70  1  0
 69 56  1  0
 69 66  1  0
 70 57  1  0
 70 68  1  0
 71 72  2  0
 72 91  1  0
 73 72  1  0
 73 76  1  0
 74 71  1  0
 74 75  1  0
 75 73  2  0
 76 77  1  0
 77 78  2  0
 79 78  1  0
 80 79  2  0
 81 80  1  0
 81 76  2  0
 82 79  1  0
 82 83  1  0
 83 84  1  0
 84 85  2  0
 86 85  1  0
 86 90  1  0
 87 86  2  0
 88 83  2  0
 88 87  1  0
 89 88  1  0
 91 92  1  0
 92 95  1  0
 92 94  1  0
 93 91  2  0
 96 97  1  0
 96 71  1  0
 98 96  1  0
M  ISO  4  13 101  14 101  57 100  70 100
M  END
>  <TORSDO>  (75) 
F 22

>  <SCORE>  (75) 
-3.241

>  <name>  (75) 
75

>  <ligand_id>  (75) 
75

>  <original_smiles>  (75) 
[H]c1c([H])c([H])c2c(c1[H])C([H])([H])C([H])([H])C([H])([H])C2([H])N([H])C(=O)C1([H])N(C(=O)C([H])(N([H])C(=O)C([H])(N([H])C([H])([H])[H])C([H])([H])[H])C(C([H])([H])[H])(C([H])([H])[H])C([H])([H])[H])C([H])([H])c2c([H])c(OC([H])([H])C([H])([H])C([H])([H])N([H])C(=O)c3c([H])c([H])c(C([H])([H])C([H])([H])C4([H])C([H])([H])C([H])([H])N(C(=O)N5C([H])([H])C([H])([H])C([H])([H])C([H])(n6nc(-c7c([H])c([H])c(Oc8c([H])c([H])c(F)c([H])c8F)c([H])c7[H])c(C(=O)N([H])[H])c6N([H])[H])C5([H])[H])C([H])([H])C4([H])[H])c([H])c3[H])c([H])c([H])c2C1([H])[H]

>  <smiles>  (75) 
[H]c1c([H])c([H])c2c(c1[H])C([H])([H])C([H])([H])C([H])([H])C2([H])N([H])C(=O)C1([H])N(C(=O)C([H])(N([H])C(=O)C([H])(N([H])C([H])([H])[H])C([H])([H])[H])C(C([H])([H])[H])(C([H])([H])[H])C([H])([H])[H])C([H])([H])c2c([H])c(OC([H])([H])C([H])([H])C([H])([H])N([H])C(=O)c3c([H])c([H])c(C([H])([H])C([H])([H])C4([H])C([H])([H])C([H])([H])N(C(=O)N5C([H])([H])C([H])([H])C([H])([H])C([H])(n6nc(-c7c([H])c([H])c(Oc8c([H])c([H])c(F)c([H])c8F)c([H])c7[H])c(C(=O)N([H])[H])c6N([H])[H])C5([H])[H])C([H])([H])C4([H])[H])c([H])c3[H])c([H])c([H])c2C1([H])[H]

$$$$
76:0:0
     RDKit          3D

 95104  0  0  1  0  0  0  0  0999 V2000
  -29.1950  -21.6080   22.3350 C   0  0  0  0  0  3  0  0  0  0  0  0
  -29.4350  -22.9820   22.5950 C   0  0  0  0  0  3  0  0  0  0  0  0
  -28.2230  -21.5180   21.3780 C   0  0  0  0  0  0  0  0  0  0  0  0
  -28.5870  -23.7090   21.8100 C   0  0  0  0  0  0  0  0  0  0  0  0
  -26.7010  -23.1770   20.1980 C   0  0  0  0  0  1  0  0  0  0  0  0
  -27.7900  -22.8150   21.1030 N   0  0  0  0  0  0  0  0  0  0  0  0
  -27.6730  -20.3020   20.6800 C   0  0  0  0  0  2  0  0  0  0  0  0
  -28.1070  -20.1700   19.1990 C   0  0  0  0  0  2  0  0  0  0  0  0
  -29.0100  -17.8040   18.6990 C   0  0  0  0  0  2  0  0  0  0  0  0
  -30.5850  -19.4960   19.7910 C   0  0  0  0  0  2  0  0  0  0  0  0
  -30.2950  -16.9650   18.6520 C   0  0  0  0  0  2  0  0  0  0  0  0
  -30.7790  -18.3240   20.7760 C   0  0  0  0  0  2  0  0  0  0  0  0
  -29.3490  -19.2990   18.8740 C   0  0  0  0  0  3  0  0  0  0  0  0
  -31.0590  -17.0190   19.9980 C   0  0  0  0  0  3  0  0  0  0  0  0
  -31.4620  -14.6950   20.6830 C   0  0  0  0  0  0  0  0  0  0  0  0
  -31.1010  -12.5240   19.6270 C   0  0  0  0  0  2  0  0  0  0  0  0
  -30.2700  -12.7610   18.3500 C   0  0  0  0  0  2  0  0  0  0  0  0
  -28.7640  -12.7280   18.6720 C   0  0  0  0  0  2  0  0  0  0  0  0
  -28.3830  -13.6250   19.8790 C   0  0  0  0  0  3  0  0  0  0  0  0
  -29.3420  -13.3920   21.0720 C   0  0  0  0  0  2  0  0  0  0  0  0
  -30.7240  -13.5610   20.5960 N   0  0  0  0  0  0  0  0  0  0  0  0
  -32.6580  -14.7490   20.3900 O   0  0  0  0  0  0  0  0  0  0  0  0
  -30.7370  -15.8160   20.7770 N   0  0  0  0  0  0  0  0  0  0  0  0
  -29.7710  -15.6950   21.0420 H   0  0  0  0  0  0  0  0  0  0  0  0
  -25.9840  -14.3930   20.4010 C   0  0  0  0  0  0  0  0  0  0  0  0
  -24.8440  -13.6970   20.6920 C   0  0  0  0  0  0  0  0  0  0  0  0
  -25.2180  -12.3170   20.7050 C   0  0  0  0  0  0  0  0  0  0  0  0
  -26.9840  -13.4440   20.2560 N   0  0  0  0  0  0  0  0  0  0  0  0
  -26.5220  -12.1910   20.4960 N   0  0  0  0  0  0  0  0  0  0  0  0
  -24.4050  -11.1060   20.8480 C   0  0  0  0  0  0  0  0  0  0  0  0
  -24.7310  -10.1050   21.7890 C   0  0  0  0  0  3  0  0  0  0  0  0
  -23.9230   -8.9560   21.9210 C   0  0  0  0  0  3  0  0  0  0  0  0
  -22.7740   -8.8000   21.1080 C   0  0  0  0  0  0  0  0  0  0  0  0
  -22.4670   -9.7890   20.1570 C   0  0  0  0  0  3  0  0  0  0  0  0
  -23.2760  -10.9300   20.0240 C   0  0  0  0  0  3  0  0  0  0  0  0
  -21.9450   -7.7060   21.1500 O   0  0  0  0  0  0  0  0  0  0  0  0
  -21.8000   -6.9540   22.2870 C   0  0  0  0  0  0  0  0  0  0  0  0
  -21.3770   -7.5240   23.5110 C   0  0  0  0  0  3  0  0  0  0  0  0
  -21.1770   -6.7020   24.6360 C   0  0  0  0  0  3  0  0  0  0  0  0
  -21.3870   -5.3130   24.5430 C   0  0  0  0  0  0  0  0  0  0  0  0
  -21.8010   -4.7450   23.3250 C   0  0  0  0  0  3  0  0  0  0  0  0
  -22.0030   -5.5640   22.2010 C   0  0  0  0  0  0  0  0  0  0  0  0
  -22.3820   -5.0080   21.0240 F   0  0  0  0  0  0  0  0  0  0  0  0
  -21.1860   -4.5210   25.6220 F   0  0  0  0  0  0  0  0  0  0  0  0
  -23.4630  -14.2640   20.8530 C   0  0  0  0  0  0  0  0  0  0  0  0
  -22.6350  -13.6340   21.6780 N   0  0  0  0  0  0  0  0  0  0  0  0
  -23.1270  -15.3010   20.2830 O   0  0  0  0  0  0  0  0  0  0  0  0
  -22.9200  -12.7950   22.1620 H   0  0  0  0  0  0  0  0  0  0  0  0
  -21.7030  -13.9920   21.8300 H   0  0  0  0  0  0  0  0  0  0  0  0
  -26.2490  -15.7470   20.2290 N   0  0  0  0  0  0  0  0  0  0  0  0
  -25.5240  -16.4520   20.3020 H   0  0  0  0  0  0  0  0  0  0  0  0
  -27.1520  -16.1270   19.9770 H   0  0  0  0  0  0  0  0  0  0  0  0
  -28.4950  -25.1930   21.6380 C   0  0  0  0  0  2  0  0  0  0  0  0
  -28.9540  -25.6380   20.2380 C   0  0  0  0  0  2  0  0  0  0  0  0
  -28.8610  -27.0470   20.1030 O   0  0  0  0  0  0  0  0  0  0  0  0
  -24.6500  -31.8220   23.2070 C   0  0  0  0  0  0  0  0  0  0  0  0
  -27.6150  -27.6250   20.1100 C   0  0  0  0  0  0  0  0  0  0  0  0
  -23.5610  -30.4000   21.4990 C   0  0  0  0  0  3  0  0  0  0  0  0
  -25.1320  -28.9670   20.0920 C   0  0  0  0  0  0  0  0  0  0  0  0
  -26.0630  -30.9010   21.3760 C   0  0  0  0  0  2  0  0  0  0  0  0
  -26.2380  -29.5480   20.7210 C   0  0  0  0  0  0  0  0  0  0  0  0
  -27.4790  -28.8840   20.7300 C   0  0  0  0  0  3  0  0  0  0  0  0
  -26.4900  -27.0430   19.4800 C   0  0  0  0  0  3  0  0  0  0  0  0
  -25.2500  -27.7110   19.4720 C   0  0  0  0  0  3  0  0  0  0  0  0
  -23.8440  -29.7580   20.1130 C   0  0  0  0  0  2  0  0  0  0  0  0
  -24.7740  -31.0540   22.0890 N   0  0  0  0  0  0  0  0  0  0  0  0
  -23.5420  -32.0270   23.7210 O   0  0  0  0  0  0  0  0  0  0  0  0
  -22.9360  -29.3270   22.4170 C   0  0  0  0  0  0  0  0  0  0  0  0
  -21.6240  -29.0950   22.2540 N   0  0  0  0  0  0  0  0  0  0  0  0
  -23.6280  -28.7060   23.2280 O   0  0  0  0  0  0  0  0  0  0  0  0
  -21.1240  -29.6520   21.5750 H   0  0  0  0  0  0  0  0  0  0  0  0
  -18.2870  -27.7800   22.6580 C   0  0  0  0  0  0  0  0  0  0  0  0
  -20.8300  -28.1040   22.9760 C   0  0  0  0  0  3  0  0  0  0  0  0
  -20.9850  -26.7020   22.3430 C   0  0  0  0  0  2  0  0  0  0  0  0
  -19.9060  -26.3860   21.3040 C   0  0  0  0  0  2  0  0  0  0  0  0
  -18.5100  -26.4650   21.9300 C   0  0  0  0  0  2  0  0  0  0  0  0
  -19.3750  -28.5570   23.1340 C   0  0  0  0  0  0  0  0  0  0  0  0
  -19.1130  -29.7910   23.7690 C   0  0  0  0  0  3  0  0  0  0  0  0
  -17.7930  -30.2480   23.9340 C   0  0  0  0  0  3  0  0  0  0  0  0
  -16.7180  -29.4670   23.4780 C   0  0  0  0  0  3  0  0  0  0  0  0
  -16.9650  -28.2360   22.8450 C   0  0  0  0  0  3  0  0  0  0  0  0
  -25.8860  -32.4990   23.8800 C   0  0  0  0  0  3  0  0  0  0  0  0
  -25.5170  -33.8870   24.1880 N   0  0  0  0  0  0  0  0  0  0  0  0
  -25.8470  -34.9450   23.4360 C   0  0  0  0  0  0  0  0  0  0  0  0
  -26.5630  -34.8580   22.4350 O   0  0  0  0  0  0  0  0  0  0  0  0
  -24.8840  -34.0270   24.9630 H   0  0  0  0  0  0  0  0  0  0  0  0
  -24.0680  -36.6690   22.9980 C   0  0  0  0  0  1  0  0  0  0  0  0
  -25.2920  -36.3190   23.8610 C   0  0  0  0  0  3  0  0  0  0  0  0
  -27.3630  -37.2860   24.7590 C   0  0  0  0  0  1  0  0  0  0  0  0
  -26.2900  -37.4090   23.7750 N   0  0  0  0  0  0  0  0  0  0  0  0
  -25.8460  -38.3140   23.9020 H   0  0  0  0  0  0  0  0  0  0  0  0
  -26.3760  -31.7480   25.1770 C   0  0  1  0  0  0  0  0  0  0  0  0
  -25.2490  -31.4740   26.2010 C   0  0  0  0  0  1  0  0  0  0  0  0
  -27.0190  -30.3910   24.8080 C   0  0  0  0  0  1  0  0  0  0  0  0
  -27.4700  -32.5810   25.8830 C   0  0  0  0  0  1  0  0  0  0  0  0
  1  2  1  0
  3  1  2  0
  4  2  2  0
  5  6  1  0
  6  3  1  0
  6  4  1  0
  7  3  1  0
  8  7  1  0
  9 13  1  0
 10 12  1  0
 11  9  1  0
 11 14  1  0
 13  8  1  0
 13 10  1  0
 14 12  1  0
 14 23  1  0
 15 23  1  0
 16 21  1  0
 17 18  1  0
 17 16  1  0
 19 18  1  0
 19 28  1  0
 19 20  1  0
 21 15  1  0
 21 20  1  0
 22 15  2  0
 23 24  1  0
 25 26  2  0
 26 27  1  0
 26 45  1  0
 27 30  1  0
 28 25  1  0
 28 29  1  0
 29 27  2  0
 30 31  1  0
 31 32  2  0
 33 36  1  0
 33 32  1  0
 34 33  2  0
 35 34  1  0
 35 30  2  0
 36 37  1  0
 37 38  1  0
 38 39  2  0
 40 39  1  0
 40 44  1  0
 41 40  2  0
 42 37  2  0
 42 41  1  0
 43 42  1  0
 45 46  1  0
 46 49  1  0
 46 48  1  0
 47 45  2  0
 50 51  1  0
 50 25  1  0
 52 50  1  0
 53  4  1  0
 54 53  1  0
 55 57  1  0
 55 54  1  0
 56 67  2  0
 57 62  1  0
 58 66  1  0
 58 68  1  0
 59 65  1  0
 59 61  1  0
 60 66  1  0
 61 62  2  0
 61 60  1  0
 63 57  2  0
 64 63  1  0
 64 59  2  0
 65 58  1  0
 66 56  1  0
 68 70  2  0
 69 68  1  0
 71 69  1  0
 72 81  2  0
 72 77  1  0
 73 69  1  0
 73 77  1  0
 74 73  1  0
 75 76  1  0
 75 74  1  0
 76 72  1  0
 77 78  2  0
 78 79  1  0
 80 79  2  0
 81 80  1  0
 82 56  1  0
 82 83  1  0
 82 92  1  0
 83 86  1  0
 84 88  1  0
 84 83  1  0
 85 84  2  0
 88 87  1  0
 90 88  1  0
 90 91  1  0
 90 89  1  0
 92 95  1  1
 92 93  1  0
 94 92  1  0
M  ISO  4  15 100  23 100  54 101  55 101
M  END
>  <TORSDO>  (76) 
F 21

>  <SCORE>  (76) 
-12.543

>  <name>  (76) 
76

>  <ligand_id>  (76) 
76

>  <original_smiles>  (76) 
[H]c1c([H])c([H])c2c(c1[H])C([H])([H])C([H])([H])C([H])([H])C2([H])N([H])C(=O)C1([H])N(C(=O)C([H])(N([H])C(=O)C([H])(N([H])C([H])([H])[H])C([H])([H])[H])C(C([H])([H])[H])(C([H])([H])[H])C([H])([H])[H])C([H])([H])c2c([H])c(OC([H])([H])C([H])([H])c3c([H])c([H])c(C([H])([H])C([H])([H])C4([H])C([H])([H])C([H])([H])C([H])(N([H])C(=O)N5C([H])([H])C([H])([H])C([H])([H])C([H])(n6nc(-c7c([H])c([H])c(Oc8c([H])c([H])c(F)c([H])c8F)c([H])c7[H])c(C(=O)N([H])[H])c6N([H])[H])C5([H])[H])C([H])([H])C4([H])[H])n3C([H])([H])[H])c([H])c([H])c2C1([H])[H]

>  <smiles>  (76) 
[H]c1c([H])c([H])c2c(c1[H])C([H])([H])C([H])([H])C([H])([H])C2([H])N([H])C(=O)C1([H])N(C(=O)C([H])(N([H])C(=O)C([H])(N([H])C([H])([H])[H])C([H])([H])[H])C(C([H])([H])[H])(C([H])([H])[H])C([H])([H])[H])C([H])([H])c2c([H])c(OC([H])([H])C([H])([H])c3c([H])c([H])c(C([H])([H])C([H])([H])C4([H])C([H])([H])C([H])([H])C([H])(N([H])C(=O)N5C([H])([H])C([H])([H])C([H])([H])C([H])(n6nc(-c7c([H])c([H])c(Oc8c([H])c([H])c(F)c([H])c8F)c([H])c7[H])c(C(=O)N([H])[H])c6N([H])[H])C5([H])[H])C([H])([H])C4([H])[H])n3C([H])([H])[H])c([H])c([H])c2C1([H])[H]

$$$$
77:0:0
     RDKit          3D

106114  0  0  1  0  0  0  0  0999 V2000
  -20.8900  -23.3340   17.4810 C   0  0  0  0  0  0  0  0  0  0  0  0
  -21.4680  -23.3450   18.6900 N   0  0  0  0  0  0  0  0  0  0  0  0
  -20.2650  -24.2950   17.0280 O   0  0  0  0  0  0  0  0  0  0  0  0
  -21.9730  -22.5210   18.9880 H   0  0  0  0  0  0  0  0  0  0  0  0
  -21.4980  -24.4960   19.5850 C   0  0  0  0  0  2  0  0  0  0  0  0
  -22.9120  -25.0930   19.7210 C   0  0  0  0  0  2  0  0  0  0  0  0
  -24.3030  -23.7960   23.0680 C   0  0  0  0  0  3  0  0  0  0  0  0
  -25.6750  -23.6940   22.7660 C   0  0  0  0  0  3  0  0  0  0  0  0
  -23.3870  -24.2020   22.0780 C   0  0  0  0  0  3  0  0  0  0  0  0
  -25.2000  -24.2940   20.4570 C   0  0  0  0  0  3  0  0  0  0  0  0
  -26.1340  -23.9500   21.4570 C   0  0  0  0  0  0  0  0  0  0  0  0
  -23.8330  -24.4710   20.7670 C   0  0  0  0  0  0  0  0  0  0  0  0
  -27.6260  -23.9140   21.1360 C   0  0  0  0  0  2  0  0  0  0  0  0
  -28.2340  -25.3210   20.9330 C   0  0  0  0  0  2  0  0  0  0  0  0
  -28.4200  -25.7350   19.4580 C   0  0  0  0  0  2  0  0  0  0  0  0
  -28.3830  -27.1600   19.3340 O   0  0  0  0  0  0  0  0  0  0  0  0
  -24.5990  -31.7800   23.1970 C   0  0  0  0  0  0  0  0  0  0  0  0
  -27.1710  -27.8050   19.4830 C   0  0  0  0  0  0  0  0  0  0  0  0
  -23.3310  -30.5290   21.4830 C   0  0  0  0  0  3  0  0  0  0  0  0
  -24.7320  -29.2030   19.8190 C   0  0  0  0  0  0  0  0  0  0  0  0
  -25.8280  -30.9900   21.1770 C   0  0  0  0  0  2  0  0  0  0  0  0
  -25.9100  -29.6990   20.3900 C   0  0  0  0  0  0  0  0  0  0  0  0
  -27.1300  -29.0070   20.2240 C   0  0  0  0  0  3  0  0  0  0  0  0
  -25.9740  -27.3320   18.8970 C   0  0  0  0  0  3  0  0  0  0  0  0
  -24.7580  -28.0130   19.0750 C   0  0  0  0  0  3  0  0  0  0  0  0
  -23.4730  -30.0120   20.0280 C   0  0  0  0  0  2  0  0  0  0  0  0
  -24.6090  -31.1090   22.0110 N   0  0  0  0  0  0  0  0  0  0  0  0
  -23.5470  -31.9560   23.8250 O   0  0  0  0  0  0  0  0  0  0  0  0
  -22.7650  -29.3880   22.3610 C   0  0  0  0  0  0  0  0  0  0  0  0
  -21.4510  -29.1360   22.2380 N   0  0  0  0  0  0  0  0  0  0  0  0
  -23.4990  -28.7400   23.1110 O   0  0  0  0  0  0  0  0  0  0  0  0
  -20.9160  -29.7160   21.6080 H   0  0  0  0  0  0  0  0  0  0  0  0
  -18.1840  -27.6480   22.6140 C   0  0  0  0  0  0  0  0  0  0  0  0
  -20.7090  -28.0910   22.9400 C   0  0  0  0  0  3  0  0  0  0  0  0
  -20.9320  -26.7090   22.2880 C   0  0  0  0  0  2  0  0  0  0  0  0
  -19.8670  -26.3440   21.2510 C   0  0  0  0  0  2  0  0  0  0  0  0
  -18.4700  -26.3610   21.8670 C   0  0  0  0  0  2  0  0  0  0  0  0
  -19.2330  -28.4640   23.1100 C   0  0  0  0  0  0  0  0  0  0  0  0
  -18.9080  -29.6670   23.7730 C   0  0  0  0  0  3  0  0  0  0  0  0
  -17.5650  -30.0520   23.9480 C   0  0  0  0  0  3  0  0  0  0  0  0
  -16.5310  -29.2320   23.4690 C   0  0  0  0  0  3  0  0  0  0  0  0
  -16.8410  -28.0300   22.8070 C   0  0  0  0  0  3  0  0  0  0  0  0
  -25.9050  -32.3790   23.8080 C   0  0  0  0  0  3  0  0  0  0  0  0
  -26.4700  -31.5370   25.0190 C   0  0  1  0  0  0  0  0  0  0  0  0
  -25.4150  -31.2350   26.1090 C   0  0  0  0  0  1  0  0  0  0  0  0
  -27.0400  -30.1870   24.5260 C   0  0  0  0  0  1  0  0  0  0  0  0
  -27.6450  -32.2930   25.6850 C   0  0  0  0  0  1  0  0  0  0  0  0
  -25.6020  -33.7520   24.2310 N   0  0  0  0  0  0  0  0  0  0  0  0
  -25.9190  -34.8510   23.5350 C   0  0  0  0  0  0  0  0  0  0  0  0
  -26.5700  -34.8130   22.4870 O   0  0  0  0  0  0  0  0  0  0  0  0
  -25.0150  -33.8490   25.0460 H   0  0  0  0  0  0  0  0  0  0  0  0
  -24.1830  -36.6600   23.3230 C   0  0  0  0  0  1  0  0  0  0  0  0
  -25.4370  -36.2060   24.0870 C   0  0  0  0  0  3  0  0  0  0  0  0
  -27.5920  -37.0340   24.9270 C   0  0  0  0  0  1  0  0  0  0  0  0
  -26.4690  -37.2650   24.0230 N   0  0  0  0  0  0  0  0  0  0  0  0
  -26.0680  -38.1760   24.2350 H   0  0  0  0  0  0  0  0  0  0  0  0
  -21.0400  -22.0720   16.6340 C   0  0  0  0  0  2  0  0  0  0  0  0
  -22.0810  -22.2410   15.5050 C   0  0  0  0  0  2  0  0  0  0  0  0
  -23.5310  -22.4850   15.9720 C   0  0  0  0  0  2  0  0  0  0  0  0
  -24.0620  -21.3680   16.8810 C   0  0  0  0  0  2  0  0  0  0  0  0
  -25.5360  -21.5220   17.2810 C   0  0  0  0  0  2  0  0  0  0  0  0
  -25.9560  -20.3830   18.2210 C   0  0  0  0  0  2  0  0  0  0  0  0
  -27.4590  -20.3320   18.5240 C   0  0  0  0  0  2  0  0  0  0  0  0
  -27.7790  -19.2220   19.5360 C   0  0  0  0  0  2  0  0  0  0  0  0
  -29.2780  -19.0290   19.8110 C   0  0  0  0  0  2  0  0  0  0  0  0
  -29.5220  -17.8350   20.7490 C   0  0  0  0  0  2  0  0  0  0  0  0
  -31.0070  -17.4800   20.9230 C   0  0  0  0  0  2  0  0  0  0  0  0
  -31.2360  -16.2480   21.8230 C   0  0  0  0  0  2  0  0  0  0  0  0
  -30.9250  -14.2790   20.3130 C   0  0  0  0  0  0  0  0  0  0  0  0
  -30.4550  -12.2300   19.0190 C   0  0  0  0  0  2  0  0  0  0  0  0
  -29.4940  -12.5000   17.8480 C   0  0  0  0  0  2  0  0  0  0  0  0
  -28.0280  -12.4010   18.3080 C   0  0  0  0  0  2  0  0  0  0  0  0
  -27.7520  -13.2270   19.5930 C   0  0  0  0  0  3  0  0  0  0  0  0
  -28.8170  -12.9370   20.6750 C   0  0  0  0  0  2  0  0  0  0  0  0
  -30.1510  -13.1850   20.0960 N   0  0  0  0  0  0  0  0  0  0  0  0
  -31.9340  -14.5380   19.6500 O   0  0  0  0  0  0  0  0  0  0  0  0
  -30.5460  -15.0510   21.3380 N   0  0  0  0  0  0  0  0  0  0  0  0
  -29.7160  -14.7640   21.8360 H   0  0  0  0  0  0  0  0  0  0  0  0
  -25.3760  -13.9060   20.3210 C   0  0  0  0  0  0  0  0  0  0  0  0
  -24.2930  -13.1690   20.7130 C   0  0  0  0  0  0  0  0  0  0  0  0
  -24.7170  -11.8040   20.6930 C   0  0  0  0  0  0  0  0  0  0  0  0
  -26.3960  -12.9960   20.0890 N   0  0  0  0  0  0  0  0  0  0  0  0
  -26.0000  -11.7260   20.3680 N   0  0  0  0  0  0  0  0  0  0  0  0
  -23.9610  -10.5640   20.9120 C   0  0  0  0  0  0  0  0  0  0  0  0
  -24.3800   -9.5990   21.8530 C   0  0  0  0  0  3  0  0  0  0  0  0
  -23.6270   -8.4230   22.0580 C   0  0  0  0  0  3  0  0  0  0  0  0
  -22.4390   -8.2030   21.3200 C   0  0  0  0  0  0  0  0  0  0  0  0
  -22.0380   -9.1570   20.3680 C   0  0  0  0  0  3  0  0  0  0  0  0
  -22.7910  -10.3240   20.1610 C   0  0  0  0  0  3  0  0  0  0  0  0
  -21.6570   -7.0790   21.4320 O   0  0  0  0  0  0  0  0  0  0  0  0
  -21.5930   -6.3610   22.6000 C   0  0  0  0  0  0  0  0  0  0  0  0
  -21.2030   -6.9550   23.8200 C   0  0  0  0  0  3  0  0  0  0  0  0
  -21.0830   -6.1650   24.9810 C   0  0  0  0  0  3  0  0  0  0  0  0
  -21.3430   -4.7840   24.9230 C   0  0  0  0  0  0  0  0  0  0  0  0
  -21.7250   -4.1890   23.7080 C   0  0  0  0  0  3  0  0  0  0  0  0
  -21.8460   -4.9760   22.5490 C   0  0  0  0  0  0  0  0  0  0  0  0
  -22.1940   -4.3940   21.3770 F   0  0  0  0  0  0  0  0  0  0  0  0
  -21.2200   -4.0240   26.0360 F   0  0  0  0  0  0  0  0  0  0  0  0
  -22.9130  -13.6840   21.0030 C   0  0  0  0  0  0  0  0  0  0  0  0
  -22.1850  -13.0240   21.8960 N   0  0  0  0  0  0  0  0  0  0  0  0
  -22.4890  -14.7090   20.4700 O   0  0  0  0  0  0  0  0  0  0  0  0
  -22.5410  -12.1940   22.3470 H   0  0  0  0  0  0  0  0  0  0  0  0
  -21.2590  -13.3530   22.1330 H   0  0  0  0  0  0  0  0  0  0  0  0
  -25.5730  -15.2700   20.1220 N   0  0  0  0  0  0  0  0  0  0  0  0
  -24.8280  -15.9480   20.2350 H   0  0  0  0  0  0  0  0  0  0  0  0
  -26.4380  -15.6810   19.7940 H   0  0  0  0  0  0  0  0  0  0  0  0
  1  2  1  0
  2  4  1  0
  2  5  1  0
  3  1  2  0
  5  6  1  0
  6 12  1  0
  8  7  1  0
  9  7  2  0
 10 12  2  0
 10 11  1  0
 11  8  2  0
 12  9  1  0
 13 11  1  0
 14 13  1  0
 15 14  1  0
 16 15  1  0
 16 18  1  0
 17 28  2  0
 18 23  1  0
 19 27  1  0
 19 29  1  0
 20 26  1  0
 20 22  1  0
 21 27  1  0
 22 21  1  0
 23 22  2  0
 24 25  1  0
 24 18  2  0
 25 20  2  0
 26 19  1  0
 27 17  1  0
 29 31  2  0
 30 29  1  0
 32 30  1  0
 33 42  2  0
 33 38  1  0
 34 30  1  0
 34 38  1  0
 35 34  1  0
 36 37  1  0
 36 35  1  0
 37 33  1  0
 38 39  2  0
 39 40  1  0
 41 40  2  0
 42 41  1  0
 43 17  1  0
 43 48  1  0
 43 44  1  0
 44 47  1  1
 44 45  1  0
 46 44  1  0
 48 51  1  0
 49 53  1  0
 49 48  1  0
 50 49  2  0
 53 52  1  0
 55 53  1  0
 55 56  1  0
 55 54  1  0
 57  1  1  0
 58 59  1  0
 58 57  1  0
 59 60  1  0
 60 61  1  0
 61 62  1  0
 62 63  1  0
 63 64  1  0
 64 65  1  0
 65 66  1  0
 66 67  1  0
 67 68  1  0
 69 77  1  0
 70 75  1  0
 71 72  1  0
 71 70  1  0
 73 72  1  0
 73 82  1  0
 73 74  1  0
 75 69  1  0
 75 74  1  0
 76 69  2  0
 77 68  1  0
 77 78  1  0
 79 80  2  0
 80 99  1  0
 81 80  1  0
 81 84  1  0
 82 79  1  0
 82 83  1  0
 83 81  2  0
 84 85  1  0
 85 86  2  0
 87 90  1  0
 87 86  1  0
 88 87  2  0
 89 88  1  0
 89 84  2  0
 90 91  1  0
 91 92  1  0
 92 93  2  0
 94 93  1  0
 94 98  1  0
 95 94  2  0
 96 91  2  0
 96 95  1  0
 97 96  1  0
 99100  1  0
100103  1  0
100102  1  0
101 99  2  0
104105  1  0
104 79  1  0
106104  1  0
M  ISO  4  15 101  16 101  69 100  77 100
M  END
>  <TORSDO>  (77) 
F 34

>  <SCORE>  (77) 
-9.868

>  <name>  (77) 
77

>  <ligand_id>  (77) 
77

>  <original_smiles>  (77) 
[H]c1c([H])c(C([H])([H])C([H])([H])N([H])C(=O)C([H])([H])C([H])([H])C([H])([H])C([H])([H])C([H])([H])C([H])([H])C([H])([H])C([H])([H])C([H])([H])C([H])([H])C([H])([H])C([H])([H])N([H])C(=O)N2C([H])([H])C([H])([H])C([H])([H])C([H])(n3nc(-c4c([H])c([H])c(Oc5c([H])c([H])c(F)c([H])c5F)c([H])c4[H])c(C(=O)N([H])[H])c3N([H])[H])C2([H])[H])c([H])c(C([H])([H])C([H])([H])C([H])([H])Oc2c([H])c([H])c3c(c2[H])C([H])([H])N(C(=O)C([H])(N([H])C(=O)C([H])(N([H])C([H])([H])[H])C([H])([H])[H])C(C([H])([H])[H])(C([H])([H])[H])C([H])([H])[H])C([H])(C(=O)N([H])C2([H])c4c([H])c([H])c([H])c([H])c4C([H])([H])C([H])([H])C2([H])[H])C3([H])[H])c1[H]

>  <smiles>  (77) 
[H]c1c([H])c(C([H])([H])C([H])([H])N([H])C(=O)C([H])([H])C([H])([H])C([H])([H])C([H])([H])C([H])([H])C([H])([H])C([H])([H])C([H])([H])C([H])([H])C([H])([H])C([H])([H])C([H])([H])N([H])C(=O)N2C([H])([H])C([H])([H])C([H])([H])C([H])(n3nc(-c4c([H])c([H])c(Oc5c([H])c([H])c(F)c([H])c5F)c([H])c4[H])c(C(=O)N([H])[H])c3N([H])[H])C2([H])[H])c([H])c(C([H])([H])C([H])([H])C([H])([H])Oc2c([H])c([H])c3c(c2[H])C([H])([H])N(C(=O)C([H])(N([H])C(=O)C([H])(N([H])C([H])([H])[H])C([H])([H])[H])C(C([H])([H])[H])(C([H])([H])[H])C([H])([H])[H])C([H])(C(=O)N([H])C2([H])c4c([H])c([H])c([H])c([H])c4C([H])([H])C([H])([H])C2([H])[H])C3([H])[H])c1[H]

$$$$
78:0:0
     RDKit          3D

 98106  0  0  1  0  0  0  0  0999 V2000
  -30.2360  -20.9900   25.1620 C   0  0  0  0  0  3  0  0  0  0  0  0
  -29.6260  -22.1310   24.6130 C   0  0  0  0  0  3  0  0  0  0  0  0
  -29.0090  -19.5990   23.5940 C   0  0  0  0  0  3  0  0  0  0  0  0
  -29.9560  -19.7130   24.6400 C   0  0  0  0  0  0  0  0  0  0  0  0
  -28.7290  -22.0290   23.5270 C   0  0  0  0  0  0  0  0  0  0  0  0
  -28.3920  -20.7380   23.0330 C   0  0  0  0  0  0  0  0  0  0  0  0
  -27.3860  -20.5050   21.9150 C   0  0  0  0  0  1  0  0  0  0  0  0
  -27.3400  -24.1150   23.9170 C   0  0  0  0  0  1  0  0  0  0  0  0
  -28.2130  -23.3320   22.9130 C   0  0  0  0  0  3  0  0  0  0  0  0
  -29.3910  -24.0930   22.4280 N   0  0  0  0  0  4  0  0  0  0  0  0
  -30.0330  -24.1790   23.2010 H   0  0  0  0  0  0  0  0  0  0  0  0
  -29.8600  -23.5250   21.7410 H   0  0  0  0  0  0  0  0  0  0  0  0
  -29.1700  -25.4490   21.8650 C   0  0  0  0  0  2  0  0  0  0  0  0
  -28.3910  -25.4430   20.5420 C   0  0  0  0  0  2  0  0  0  0  0  0
  -28.4160  -26.7740   20.0350 O   0  0  0  0  0  0  0  0  0  0  0  0
  -24.6090  -31.8710   23.2120 C   0  0  0  0  0  0  0  0  0  0  0  0
  -27.2310  -27.4660   20.0870 C   0  0  0  0  0  0  0  0  0  0  0  0
  -23.3940  -30.4930   21.5520 C   0  0  0  0  0  3  0  0  0  0  0  0
  -24.8400  -28.9590   20.1190 C   0  0  0  0  0  0  0  0  0  0  0  0
  -25.9220  -30.8420   21.3620 C   0  0  0  0  0  2  0  0  0  0  0  0
  -25.9980  -29.4780   20.7120 C   0  0  0  0  0  0  0  0  0  0  0  0
  -27.1980  -28.7380   20.6930 C   0  0  0  0  0  3  0  0  0  0  0  0
  -26.0580  -26.9510   19.4950 C   0  0  0  0  0  3  0  0  0  0  0  0
  -24.8610  -27.6930   19.5100 C   0  0  0  0  0  3  0  0  0  0  0  0
  -23.6010  -29.8260   20.1650 C   0  0  0  0  0  2  0  0  0  0  0  0
  -24.6590  -31.0830   22.0990 N   0  0  0  0  0  0  0  0  0  0  0  0
  -23.5290  -32.1450   23.7530 O   0  0  0  0  0  0  0  0  0  0  0  0
  -22.7390  -29.4650   22.5000 C   0  0  0  0  0  0  0  0  0  0  0  0
  -21.4140  -29.3000   22.3760 N   0  0  0  0  0  0  0  0  0  0  0  0
  -23.4210  -28.8200   23.3020 O   0  0  0  0  0  0  0  0  0  0  0  0
  -20.9280  -29.8800   21.7060 H   0  0  0  0  0  0  0  0  0  0  0  0
  -18.0260  -28.1370   22.8470 C   0  0  0  0  0  0  0  0  0  0  0  0
  -20.5860  -28.3620   23.1330 C   0  0  0  0  0  3  0  0  0  0  0  0
  -20.6750  -26.9360   22.5400 C   0  0  0  0  0  2  0  0  0  0  0  0
  -19.5740  -26.6380   21.5190 C   0  0  0  0  0  2  0  0  0  0  0  0
  -18.1910  -26.7910   22.1600 C   0  0  0  0  0  2  0  0  0  0  0  0
  -19.1520  -28.8810   23.2880 C   0  0  0  0  0  0  0  0  0  0  0  0
  -18.9450  -30.1420   23.8880 C   0  0  0  0  0  3  0  0  0  0  0  0
  -17.6470  -30.6560   24.0560 C   0  0  0  0  0  3  0  0  0  0  0  0
  -16.5350  -29.9060   23.6340 C   0  0  0  0  0  3  0  0  0  0  0  0
  -16.7270  -28.6500   23.0330 C   0  0  0  0  0  3  0  0  0  0  0  0
  -25.9010  -32.4840   23.8420 C   0  0  0  0  0  3  0  0  0  0  0  0
  -26.4430  -31.6590   25.0730 C   0  0  1  0  0  0  0  0  0  0  0  0
  -25.3710  -31.3690   26.1510 C   0  0  0  0  0  1  0  0  0  0  0  0
  -27.0210  -30.3020   24.6070 C   0  0  0  0  0  1  0  0  0  0  0  0
  -27.6040  -32.4240   25.7500 C   0  0  0  0  0  1  0  0  0  0  0  0
  -25.5900  -33.8640   24.2360 N   0  0  0  0  0  0  0  0  0  0  0  0
  -25.9030  -34.9480   23.5160 C   0  0  0  0  0  0  0  0  0  0  0  0
  -26.5590  -34.8920   22.4710 O   0  0  0  0  0  0  0  0  0  0  0  0
  -25.0130  -33.9820   25.0560 H   0  0  0  0  0  0  0  0  0  0  0  0
  -24.1490  -36.7310   23.2630 C   0  0  0  0  0  1  0  0  0  0  0  0
  -25.4090  -36.3120   24.0350 C   0  0  0  0  0  3  0  0  0  0  0  0
  -27.5560  -37.1810   24.8480 C   0  0  0  0  0  1  0  0  0  0  0  0
  -26.4280  -37.3800   23.9420 N   0  0  0  0  0  0  0  0  0  0  0  0
  -26.0200  -38.2880   24.1430 H   0  0  0  0  0  0  0  0  0  0  0  0
  -30.6640  -18.5290   25.2060 C   0  0  0  0  0  0  0  0  0  0  0  0
  -31.4650  -18.6060   26.1450 O   0  0  0  0  0  0  0  0  0  0  0  0
  -30.3720  -17.1740   24.5580 C   0  0  0  0  0  2  0  0  0  0  0  0
  -31.2610  -16.0200   25.0610 C   0  0  0  0  0  2  0  0  0  0  0  0
  -30.7760  -14.6400   24.5990 C   0  0  0  0  0  2  0  0  0  0  0  0
  -31.2210  -14.2320   23.1870 C   0  0  0  0  0  2  0  0  0  0  0  0
  -30.6030  -15.0430   22.0310 C   0  0  0  0  0  2  0  0  0  0  0  0
  -30.8120  -14.3000   20.7130 C   0  0  0  0  0  0  0  0  0  0  0  0
  -30.4040  -12.2780   19.3620 C   0  0  0  0  0  2  0  0  0  0  0  0
  -29.4640  -12.5220   18.1720 C   0  0  0  0  0  2  0  0  0  0  0  0
  -27.9940  -12.3830   18.6030 C   0  0  0  0  0  2  0  0  0  0  0  0
  -27.6670  -13.2000   19.8820 C   0  0  0  0  0  3  0  0  0  0  0  0
  -28.7130  -12.9340   20.9870 C   0  0  0  0  0  2  0  0  0  0  0  0
  -30.0450  -13.2190   20.4290 N   0  0  0  0  0  0  0  0  0  0  0  0
  -31.7650  -14.6500   20.0110 O   0  0  0  0  0  0  0  0  0  0  0  0
  -25.2630  -13.8160   20.5700 C   0  0  0  0  0  0  0  0  0  0  0  0
  -24.1860  -13.0460   20.9180 C   0  0  0  0  0  0  0  0  0  0  0  0
  -24.6400  -11.6910   20.8750 C   0  0  0  0  0  0  0  0  0  0  0  0
  -26.3060  -12.9320   20.3440 N   0  0  0  0  0  0  0  0  0  0  0  0
  -25.9320  -11.6480   20.5790 N   0  0  0  0  0  0  0  0  0  0  0  0
  -23.9070  -10.4300   21.0410 C   0  0  0  0  0  0  0  0  0  0  0  0
  -24.3620   -9.4210   21.9190 C   0  0  0  0  0  3  0  0  0  0  0  0
  -23.6300   -8.2250   22.0760 C   0  0  0  0  0  3  0  0  0  0  0  0
  -22.4280   -8.0290   21.3550 C   0  0  0  0  0  0  0  0  0  0  0  0
  -21.9920   -9.0260   20.4650 C   0  0  0  0  0  3  0  0  0  0  0  0
  -22.7250  -10.2140   20.3060 C   0  0  0  0  0  3  0  0  0  0  0  0
  -21.6640   -6.8880   21.4240 O   0  0  0  0  0  0  0  0  0  0  0  0
  -21.6860   -6.0740   22.5290 C   0  0  0  0  0  0  0  0  0  0  0  0
  -21.4020   -6.5650   23.8220 C   0  0  0  0  0  3  0  0  0  0  0  0
  -21.3660   -5.6800   24.9180 C   0  0  0  0  0  3  0  0  0  0  0  0
  -21.6050   -4.3060   24.7230 C   0  0  0  0  0  0  0  0  0  0  0  0
  -21.8820   -3.8150   23.4340 C   0  0  0  0  0  3  0  0  0  0  0  0
  -21.9200   -4.6970   22.3400 C   0  0  0  0  0  0  0  0  0  0  0  0
  -22.1660   -4.2160   21.0980 F   0  0  0  0  0  0  0  0  0  0  0  0
  -21.5620   -3.4540   25.7740 F   0  0  0  0  0  0  0  0  0  0  0  0
  -22.7880  -13.5250   21.1850 C   0  0  0  0  0  0  0  0  0  0  0  0
  -22.0530  -12.8220   22.0400 N   0  0  0  0  0  0  0  0  0  0  0  0
  -22.3570  -14.5570   20.6720 O   0  0  0  0  0  0  0  0  0  0  0  0
  -22.4130  -11.9850   22.4720 H   0  0  0  0  0  0  0  0  0  0  0  0
  -21.1160  -13.1240   22.2640 H   0  0  0  0  0  0  0  0  0  0  0  0
  -25.4410  -15.1870   20.4090 N   0  0  0  0  0  0  0  0  0  0  0  0
  -24.6880  -15.8570   20.5290 H   0  0  0  0  0  0  0  0  0  0  0  0
  -26.3070  -15.6150   20.1070 H   0  0  0  0  0  0  0  0  0  0  0  0
  2  1  2  0
  3  4  2  0
  4  1  1  0
  4 56  1  0
  5  2  1  0
  6  5  2  0
  6  3  1  0
  7  6  1  0
  9  5  1  0
  9  8  1  0
 10  9  1  0
 10 11  1  0
 12 10  1  0
 13 10  1  0
 14 13  1  0
 15 17  1  0
 15 14  1  0
 16 27  2  0
 17 22  1  0
 18 26  1  0
 18 28  1  0
 19 25  1  0
 19 21  1  0
 20 26  1  0
 21 20  1  0
 22 21  2  0
 23 24  1  0
 23 17  2  0
 24 19  2  0
 25 18  1  0
 26 16  1  0
 28 30  2  0
 29 28  1  0
 31 29  1  0
 32 41  2  0
 32 37  1  0
 33 29  1  0
 33 37  1  0
 34 33  1  0
 35 36  1  0
 35 34  1  0
 36 32  1  0
 37 38  2  0
 38 39  1  0
 40 39  2  0
 41 40  1  0
 42 16  1  0
 42 47  1  0
 42 43  1  0
 43 46  1  1
 43 44  1  0
 45 43  1  0
 47 50  1  0
 48 52  1  0
 48 47  1  0
 49 48  2  0
 52 51  1  0
 54 52  1  0
 54 55  1  0
 54 53  1  0
 56 57  2  0
 58 59  1  0
 58 56  1  0
 60 59  1  0
 61 60  1  0
 62 61  1  0
 63 62  1  0
 64 69  1  0
 65 66  1  0
 65 64  1  0
 67 66  1  0
 67 74  1  0
 67 68  1  0
 69 63  1  0
 69 68  1  0
 70 63  2  0
 71 72  2  0
 72 91  1  0
 73 72  1  0
 73 76  1  0
 74 71  1  0
 74 75  1  0
 75 73  2  0
 76 77  1  0
 77 78  2  0
 79 82  1  0
 79 78  1  0
 80 79  2  0
 81 80  1  0
 81 76  2  0
 82 83  1  0
 83 84  1  0
 84 85  2  0
 86 85  1  0
 86 90  1  0
 87 86  2  0
 88 83  2  0
 88 87  1  0
 89 88  1  0
 91 92  1  0
 92 95  1  0
 92 94  1  0
 93 91  2  0
 96 97  1  0
 96 71  1  0
 98 96  1  0
M  ISO  4  14 101  15 101  62 100  63 100
M  END
>  <TORSDO>  (78) 
F 26

>  <SCORE>  (78) 
24.451

>  <name>  (78) 
78

>  <ligand_id>  (78) 
78

>  <original_smiles>  (78) 
[H]c1c([H])c([H])c2c(c1[H])C([H])([H])C([H])([H])C([H])([H])C2([H])N([H])C(=O)C1([H])N(C(=O)C([H])(N([H])C(=O)C([H])(N([H])C([H])([H])[H])C([H])([H])[H])C(C([H])([H])[H])(C([H])([H])[H])C([H])([H])[H])C([H])([H])c2c([H])c(OC([H])([H])C([H])([H])[N+]([H])([H])C([H])(c3c([H])c([H])c(C(=O)C([H])([H])C([H])([H])C([H])([H])C([H])([H])C([H])([H])C(=O)N4C([H])([H])C([H])([H])C([H])([H])C([H])(n5nc(-c6c([H])c([H])c(Oc7c([H])c([H])c(F)c([H])c7F)c([H])c6[H])c(C(=O)N([H])[H])c5N([H])[H])C4([H])[H])c([H])c3C([H])([H])[H])C([H])([H])[H])c([H])c([H])c2C1([H])[H]

>  <smiles>  (78) 
[H]c1c([H])c([H])c2c(c1[H])C([H])([H])C([H])([H])C([H])([H])C2([H])N([H])C(=O)C1([H])N(C(=O)C([H])(N([H])C(=O)C([H])(N([H])C([H])([H])[H])C([H])([H])[H])C(C([H])([H])[H])(C([H])([H])[H])C([H])([H])[H])C([H])([H])c2c([H])c(OC([H])([H])C([H])([H])[N+]([H])([H])C([H])(c3c([H])c([H])c(C(=O)C([H])([H])C([H])([H])C([H])([H])C([H])([H])C([H])([H])C(=O)N4C([H])([H])C([H])([H])C([H])([H])C([H])(n5nc(-c6c([H])c([H])c(Oc7c([H])c([H])c(F)c([H])c7F)c([H])c6[H])c(C(=O)N([H])[H])c5N([H])[H])C4([H])[H])c([H])c3C([H])([H])[H])C([H])([H])[H])c([H])c([H])c2C1([H])[H]

$$$$
79:0:0
     RDKit          3D

 97106  0  0  1  0  0  0  0  0999 V2000
  -29.9270  -23.0100   24.2750 C   0  0  0  0  0  3  0  0  0  0  0  0
  -29.5590  -24.3400   23.9970 C   0  0  0  0  0  3  0  0  0  0  0  0
  -30.7920  -22.7820   22.0070 C   0  0  0  0  0  3  0  0  0  0  0  0
  -30.5880  -22.2430   23.2920 C   0  0  0  0  0  0  0  0  0  0  0  0
  -29.8500  -24.9140   22.7420 C   0  0  0  0  0  0  0  0  0  0  0  0
  -30.4400  -24.1200   21.7270 C   0  0  0  0  0  0  0  0  0  0  0  0
  -30.7520  -24.6860   20.3510 C   0  0  0  0  0  1  0  0  0  0  0  0
  -31.1880  -20.8890   23.6420 C   0  0  0  0  0  2  0  0  0  0  0  0
  -32.7740  -19.5530   22.0900 C   0  0  0  0  0  2  0  0  0  0  0  0
  -33.7320  -20.6870   24.0850 C   0  0  0  0  0  2  0  0  0  0  0  0
  -34.1690  -19.5500   21.4270 C   0  0  0  0  0  2  0  0  0  0  0  0
  -35.1110  -20.7380   23.3900 C   0  0  0  0  0  2  0  0  0  0  0  0
  -32.6110  -20.7560   23.0360 C   0  0  0  0  0  3  0  0  0  0  0  0
  -35.2850  -19.6290   22.4120 N   0  0  2  0  0  4  0  0  0  0  0  0
  -35.2550  -18.7850   22.9670 H   0  0  0  0  0  0  0  0  0  0  0  0
  -36.6200  -19.6520   21.7480 C   0  0  0  0  0  2  0  0  0  0  0  0
  -37.2440  -18.2420   21.6230 C   0  0  0  0  0  2  0  0  0  0  0  0
  -37.6100  -17.8100   20.1850 C   0  0  0  0  0  0  0  0  0  0  0  0
  -37.4780  -16.0310   18.4740 C   0  0  0  0  0  2  0  0  0  0  0  0
  -36.7680  -16.4150   17.1660 C   0  0  0  0  0  2  0  0  0  0  0  0
  -35.2460  -16.2310   17.2920 C   0  0  0  0  0  2  0  0  0  0  0  0
  -34.6800  -16.9060   18.5660 C   0  0  0  0  0  3  0  0  0  0  0  0
  -35.4910  -16.4810   19.8080 C   0  0  0  0  0  2  0  0  0  0  0  0
  -36.9090  -16.8170   19.5800 N   0  0  0  0  0  0  0  0  0  0  0  0
  -38.6470  -18.2690   19.6930 O   0  0  0  0  0  0  0  0  0  0  0  0
  -32.1700  -17.4880   18.6610 C   0  0  0  0  0  0  0  0  0  0  0  0
  -31.0590  -16.7040   18.8250 C   0  0  0  0  0  0  0  0  0  0  0  0
  -31.5390  -15.3680   18.9940 C   0  0  0  0  0  0  0  0  0  0  0  0
  -33.2550  -16.6260   18.7340 N   0  0  0  0  0  0  0  0  0  0  0  0
  -32.8650  -15.3510   18.9900 N   0  0  0  0  0  0  0  0  0  0  0  0
  -30.8090  -14.0980   19.1010 C   0  0  0  0  0  0  0  0  0  0  0  0
  -30.9510  -13.2590   20.2280 C   0  0  0  0  0  3  0  0  0  0  0  0
  -30.2260  -12.0510   20.3170 C   0  0  0  0  0  3  0  0  0  0  0  0
  -29.3480  -11.6720   19.2740 C   0  0  0  0  0  0  0  0  0  0  0  0
  -29.2280  -12.4990   18.1430 C   0  0  0  0  0  3  0  0  0  0  0  0
  -29.9550  -13.6990   18.0540 C   0  0  0  0  0  3  0  0  0  0  0  0
  -28.6230  -10.5060   19.2620 O   0  0  0  0  0  0  0  0  0  0  0  0
  -28.0470  -10.0030   20.4020 C   0  0  0  0  0  0  0  0  0  0  0  0
  -27.1210  -10.7510   21.1600 C   0  0  0  0  0  3  0  0  0  0  0  0
  -26.5000  -10.1720   22.2850 C   0  0  0  0  0  3  0  0  0  0  0  0
  -26.7980   -8.8440   22.6480 C   0  0  0  0  0  0  0  0  0  0  0  0
  -27.7160   -8.0960   21.8910 C   0  0  0  0  0  3  0  0  0  0  0  0
  -28.3360   -8.6740   20.7690 C   0  0  0  0  0  0  0  0  0  0  0  0
  -29.2050   -7.9410   20.0310 F   0  0  0  0  0  0  0  0  0  0  0  0
  -26.1960   -8.2840   23.7230 F   0  0  0  0  0  0  0  0  0  0  0  0
  -29.6280  -17.1500   18.7360 C   0  0  0  0  0  0  0  0  0  0  0  0
  -28.7320  -16.4890   19.4620 N   0  0  0  0  0  0  0  0  0  0  0  0
  -29.3020  -18.1230   18.0570 O   0  0  0  0  0  0  0  0  0  0  0  0
  -29.0020  -15.7040   20.0360 H   0  0  0  0  0  0  0  0  0  0  0  0
  -27.7640  -16.7750   19.4460 H   0  0  0  0  0  0  0  0  0  0  0  0
  -32.3470  -18.8490   18.4390 N   0  0  0  0  0  0  0  0  0  0  0  0
  -31.5630  -19.4860   18.3460 H   0  0  0  0  0  0  0  0  0  0  0  0
  -33.2400  -19.2970   18.2750 H   0  0  0  0  0  0  0  0  0  0  0  0
  -29.6080  -26.4050   22.5420 C   0  0  0  0  0  2  0  0  0  0  0  0
  -30.9480  -27.1480   22.3710 C   0  0  0  0  0  2  0  0  0  0  0  0
  -30.8830  -28.4550   21.5650 C   0  0  0  0  0  2  0  0  0  0  0  0
  -30.1560  -28.2730   20.3450 O   0  0  0  0  0  0  0  0  0  0  0  0
  -24.6240  -31.5590   23.4370 C   0  0  0  0  0  0  0  0  0  0  0  0
  -28.8210  -28.6070   20.3300 C   0  0  0  0  0  0  0  0  0  0  0  0
  -24.0750  -30.0250   21.5720 C   0  0  0  0  0  3  0  0  0  0  0  0
  -26.0610  -29.1990   20.2000 C   0  0  0  0  0  0  0  0  0  0  0  0
  -26.3350  -31.2130   21.6620 C   0  0  0  0  0  2  0  0  0  0  0  0
  -26.9200  -30.0220   20.9380 C   0  0  0  0  0  0  0  0  0  0  0  0
  -28.2980  -29.7380   20.9990 C   0  0  0  0  0  3  0  0  0  0  0  0
  -27.9480  -27.7900   19.5840 C   0  0  0  0  0  3  0  0  0  0  0  0
  -26.5700  -28.0760   19.5210 C   0  0  0  0  0  3  0  0  0  0  0  0
  -24.6010  -29.5940   20.1750 C   0  0  0  0  0  2  0  0  0  0  0  0
  -25.0190  -30.9460   22.2850 N   0  0  0  0  0  0  0  0  0  0  0  0
  -23.4790  -31.4030   23.8810 O   0  0  0  0  0  0  0  0  0  0  0  0
  -23.7400  -28.7520   22.3800 C   0  0  0  0  0  0  0  0  0  0  0  0
  -22.5830  -28.1440   22.0770 N   0  0  0  0  0  0  0  0  0  0  0  0
  -24.5200  -28.3170   23.2300 O   0  0  0  0  0  0  0  0  0  0  0  0
  -22.0000  -28.5680   21.3690 H   0  0  0  0  0  0  0  0  0  0  0  0
  -19.8030  -25.8390   22.0690 C   0  0  0  0  0  0  0  0  0  0  0  0
  -22.0720  -26.9140   22.6820 C   0  0  0  0  0  3  0  0  0  0  0  0
  -22.7210  -25.6680   22.0410 C   0  0  0  0  0  2  0  0  0  0  0  0
  -21.9080  -25.1040   20.8700 C   0  0  0  0  0  2  0  0  0  0  0  0
  -20.5040  -24.7060   21.3350 C   0  0  0  0  0  2  0  0  0  0  0  0
  -20.5400  -26.8840   22.6850 C   0  0  0  0  0  0  0  0  0  0  0  0
  -19.8380  -27.9320   23.3190 C   0  0  0  0  0  3  0  0  0  0  0  0
  -18.4320  -27.9430   23.3520 C   0  0  0  0  0  3  0  0  0  0  0  0
  -17.7080  -26.8990   22.7530 C   0  0  0  0  0  3  0  0  0  0  0  0
  -18.3930  -25.8490   22.1150 C   0  0  0  0  0  3  0  0  0  0  0  0
  -25.5790  -32.5050   24.2310 C   0  0  0  0  0  3  0  0  0  0  0  0
  -24.9190  -33.8120   24.3390 N   0  0  0  0  0  0  0  0  0  0  0  0
  -25.2390  -34.8870   23.6060 C   0  0  0  0  0  0  0  0  0  0  0  0
  -26.1830  -34.9000   22.8090 O   0  0  0  0  0  0  0  0  0  0  0  0
  -24.1060  -33.8600   24.9350 H   0  0  0  0  0  0  0  0  0  0  0  0
  -23.3900  -36.2720   22.6120 C   0  0  0  0  0  1  0  0  0  0  0  0
  -24.3750  -36.1490   23.7850 C   0  0  0  0  0  3  0  0  0  0  0  0
  -26.0190  -37.4230   25.0910 C   0  0  0  0  0  1  0  0  0  0  0  0
  -25.1670  -37.3920   23.9060 N   0  0  0  0  0  0  0  0  0  0  0  0
  -24.5600  -38.2050   23.9310 H   0  0  0  0  0  0  0  0  0  0  0  0
  -25.9610  -31.9490   25.6580 C   0  0  1  0  0  0  0  0  0  0  0  0
  -24.7520  -31.4390   26.4750 C   0  0  0  0  0  1  0  0  0  0  0  0
  -26.9700  -30.7810   25.5420 C   0  0  0  0  0  1  0  0  0  0  0  0
  -26.6580  -33.0560   26.4820 C   0  0  0  0  0  1  0  0  0  0  0  0
  2  1  1  0
  3  4  1  0
  4  8  1  0
  4  1  2  0
  5  2  2  0
  6  3  2  0
  6  5  1  0
  7  6  1  0
  9 13  1  0
 11  9  1  0
 11 14  1  0
 12 10  1  0
 13  8  1  0
 13 10  1  0
 14 15  1  1
 14 12  1  0
 16 14  1  0
 17 16  1  0
 18 17  1  0
 19 24  1  0
 20 21  1  0
 20 19  1  0
 22 21  1  0
 22 29  1  0
 22 23  1  0
 24 23  1  0
 24 18  1  0
 25 18  2  0
 26 29  1  0
 26 27  2  0
 27 28  1  0
 28 31  1  0
 29 30  1  0
 30 28  2  0
 31 32  1  0
 32 33  2  0
 34 33  1  0
 35 34  2  0
 36 35  1  0
 36 31  2  0
 37 34  1  0
 37 38  1  0
 38 43  2  0
 38 39  1  0
 39 40  2  0
 40 41  1  0
 41 45  1  0
 42 41  2  0
 43 42  1  0
 44 43  1  0
 46 27  1  0
 46 47  1  0
 47 49  1  0
 48 46  2  0
 50 47  1  0
 51 26  1  0
 52 51  1  0
 53 51  1  0
 54  5  1  0
 55 54  1  0
 56 55  1  0
 57 56  1  0
 58 69  2  0
 59 57  1  0
 59 64  1  0
 60 68  1  0
 60 70  1  0
 61 63  1  0
 62 68  1  0
 63 64  2  0
 63 62  1  0
 65 59  2  0
 66 65  1  0
 66 61  2  0
 67 61  1  0
 67 60  1  0
 68 58  1  0
 70 72  2  0
 71 70  1  0
 73 71  1  0
 74 83  2  0
 74 79  1  0
 75 71  1  0
 75 79  1  0
 76 75  1  0
 77 78  1  0
 77 76  1  0
 78 74  1  0
 79 80  2  0
 80 81  1  0
 82 81  2  0
 83 82  1  0
 84 58  1  0
 84 85  1  0
 84 94  1  0
 85 88  1  0
 86 90  1  0
 86 85  1  0
 87 86  2  0
 90 89  1  0
 90 92  1  0
 92 93  1  0
 92 91  1  0
 94 95  1  1
 94 97  1  0
 96 94  1  0
M  ISO  4  17 100  18 100  56 101  57 101
M  END
>  <TORSDO>  (79) 
F 23

>  <SCORE>  (79) 
-2.385

>  <name>  (79) 
79

>  <ligand_id>  (79) 
79

>  <original_smiles>  (79) 
[H]c1c([H])c([H])c2c(c1[H])C([H])([H])C([H])([H])C([H])([H])C2([H])N([H])C(=O)C1([H])N(C(=O)C([H])(N([H])C(=O)C([H])(N([H])C([H])([H])[H])C([H])([H])[H])C(C([H])([H])[H])(C([H])([H])[H])C([H])([H])[H])C([H])([H])c2c([H])c(OC([H])([H])C([H])([H])C([H])([H])c3c([H])c([H])c(C([H])([H])C4([H])C([H])([H])C([H])([H])[N+]([H])(C([H])([H])C([H])([H])C(=O)N5C([H])([H])C([H])([H])C([H])([H])C([H])(n6nc(-c7c([H])c([H])c(Oc8c([H])c([H])c(F)c([H])c8F)c([H])c7[H])c(C(=O)N([H])[H])c6N([H])[H])C5([H])[H])C([H])([H])C4([H])[H])c([H])c3C([H])([H])[H])c([H])c([H])c2C1([H])[H]

>  <smiles>  (79) 
[H]c1c([H])c([H])c2c(c1[H])C([H])([H])C([H])([H])C([H])([H])C2([H])N([H])C(=O)C1([H])N(C(=O)C([H])(N([H])C(=O)C([H])(N([H])C([H])([H])[H])C([H])([H])[H])C(C([H])([H])[H])(C([H])([H])[H])C([H])([H])[H])C([H])([H])c2c([H])c(OC([H])([H])C([H])([H])C([H])([H])c3c([H])c([H])c(C([H])([H])C4([H])C([H])([H])C([H])([H])[N+]([H])(C([H])([H])C([H])([H])C(=O)N5C([H])([H])C([H])([H])C([H])([H])C([H])(n6nc(-c7c([H])c([H])c(Oc8c([H])c([H])c(F)c([H])c8F)c([H])c7[H])c(C(=O)N([H])[H])c6N([H])[H])C5([H])[H])C([H])([H])C4([H])[H])c([H])c3C([H])([H])[H])c([H])c([H])c2C1([H])[H]

$$$$
80:0:0
     RDKit          3D

 92100  0  0  1  0  0  0  0  0999 V2000
  -30.8420  -19.1720   22.9350 C   0  0  0  0  0  3  0  0  0  0  0  0
  -30.9190  -19.8710   20.6120 C   0  0  0  0  0  3  0  0  0  0  0  0
  -30.9240  -20.5240   23.3390 C   0  0  0  0  0  3  0  0  0  0  0  0
  -31.0070  -21.2160   21.0130 C   0  0  0  0  0  3  0  0  0  0  0  0
  -30.8160  -18.8240   21.5590 C   0  0  0  0  0  0  0  0  0  0  0  0
  -30.9860  -21.5550   22.3790 C   0  0  0  0  0  0  0  0  0  0  0  0
  -30.6750  -17.4170   21.0440 C   0  0  0  0  0  0  0  0  0  0  0  0
  -30.5810  -17.2130   19.8290 O   0  0  0  0  0  0  0  0  0  0  0  0
  -30.5750  -16.3020   22.0200 C   0  0  0  0  0  3  0  0  0  0  0  0
  -30.7050  -14.9750   21.7760 C   0  0  0  0  0  3  0  0  0  0  0  0
  -31.0240  -14.3460   20.4960 C   0  0  0  0  0  0  0  0  0  0  0  0
  -30.5340  -12.3970   19.0490 C   0  0  0  0  0  2  0  0  0  0  0  0
  -29.5490  -12.7080   17.9080 C   0  0  0  0  0  2  0  0  0  0  0  0
  -28.0930  -12.5790   18.3880 C   0  0  0  0  0  2  0  0  0  0  0  0
  -27.8320  -13.3410   19.7110 C   0  0  0  0  0  3  0  0  0  0  0  0
  -28.9060  -12.9900   20.7610 C   0  0  0  0  0  2  0  0  0  0  0  0
  -30.2360  -13.2800   20.1880 N   0  0  0  0  0  0  0  0  0  0  0  0
  -31.9980  -14.6650   19.8090 O   0  0  0  0  0  0  0  0  0  0  0  0
  -25.4510  -13.9880   20.4610 C   0  0  0  0  0  0  0  0  0  0  0  0
  -24.3780  -13.2310   20.8470 C   0  0  0  0  0  0  0  0  0  0  0  0
  -24.8180  -11.8710   20.8060 C   0  0  0  0  0  0  0  0  0  0  0  0
  -26.4810  -13.0900   20.2140 N   0  0  0  0  0  0  0  0  0  0  0  0
  -26.1010  -11.8140   20.4750 N   0  0  0  0  0  0  0  0  0  0  0  0
  -24.0770  -10.6200   21.0090 C   0  0  0  0  0  0  0  0  0  0  0  0
  -24.5110   -9.6440   21.9320 C   0  0  0  0  0  3  0  0  0  0  0  0
  -23.7720   -8.4570   22.1220 C   0  0  0  0  0  3  0  0  0  0  0  0
  -22.5820   -8.2380   21.3870 C   0  0  0  0  0  0  0  0  0  0  0  0
  -22.1680   -9.2030   20.4520 C   0  0  0  0  0  3  0  0  0  0  0  0
  -22.9080  -10.3800   20.2610 C   0  0  0  0  0  3  0  0  0  0  0  0
  -21.8120   -7.1030   21.4840 O   0  0  0  0  0  0  0  0  0  0  0  0
  -21.7620   -6.3640   22.6390 C   0  0  0  0  0  0  0  0  0  0  0  0
  -21.3680   -6.9330   23.8700 C   0  0  0  0  0  3  0  0  0  0  0  0
  -21.2660   -6.1240   25.0180 C   0  0  0  0  0  3  0  0  0  0  0  0
  -21.5430   -4.7460   24.9370 C   0  0  0  0  0  0  0  0  0  0  0  0
  -21.9260   -4.1760   23.7100 C   0  0  0  0  0  3  0  0  0  0  0  0
  -22.0330   -4.9830   22.5630 C   0  0  0  0  0  0  0  0  0  0  0  0
  -22.3820   -4.4240   21.3800 F   0  0  0  0  0  0  0  0  0  0  0  0
  -21.4370   -3.9670   26.0390 F   0  0  0  0  0  0  0  0  0  0  0  0
  -22.9950  -13.7280   21.1500 C   0  0  0  0  0  0  0  0  0  0  0  0
  -22.2780  -13.0460   22.0350 N   0  0  0  0  0  0  0  0  0  0  0  0
  -22.5610  -14.7610   20.6390 O   0  0  0  0  0  0  0  0  0  0  0  0
  -22.6380  -12.2060   22.4650 H   0  0  0  0  0  0  0  0  0  0  0  0
  -21.3550  -13.3680   22.2920 H   0  0  0  0  0  0  0  0  0  0  0  0
  -25.6330  -15.3580   20.2840 N   0  0  0  0  0  0  0  0  0  0  0  0
  -24.8710  -16.0220   20.3880 H   0  0  0  0  0  0  0  0  0  0  0  0
  -26.4950  -15.7920   19.9790 H   0  0  0  0  0  0  0  0  0  0  0  0
  -31.0180  -23.0170   22.8020 C   0  0  0  0  0  2  0  0  0  0  0  0
  -29.8910  -23.8430   22.1530 C   0  0  0  0  0  2  0  0  0  0  0  0
  -29.7820  -25.2780   22.7080 C   0  0  0  0  0  2  0  0  0  0  0  0
  -28.5970  -26.0740   22.1200 C   0  0  0  0  0  2  0  0  0  0  0  0
  -28.8760  -26.6510   20.7160 C   0  0  0  0  0  2  0  0  0  0  0  0
  -27.7460  -26.5180   19.8630 O   0  0  0  0  0  0  0  0  0  0  0  0
  -24.2650  -31.8620   23.1620 C   0  0  0  0  0  0  0  0  0  0  0  0
  -26.6570  -27.3490   20.0000 C   0  0  0  0  0  0  0  0  0  0  0  0
  -22.9550  -30.5070   21.5590 C   0  0  0  0  0  3  0  0  0  0  0  0
  -24.3090  -28.9200   20.0940 C   0  0  0  0  0  0  0  0  0  0  0  0
  -25.4840  -30.7800   21.2780 C   0  0  0  0  0  2  0  0  0  0  0  0
  -25.5000  -29.4050   20.6470 C   0  0  0  0  0  0  0  0  0  0  0  0
  -26.6780  -28.6280   20.6070 C   0  0  0  0  0  3  0  0  0  0  0  0
  -25.4500  -26.8760   19.4470 C   0  0  0  0  0  3  0  0  0  0  0  0
  -24.2740  -27.6480   19.4970 C   0  0  0  0  0  3  0  0  0  0  0  0
  -23.0990  -29.8260   20.1730 C   0  0  0  0  0  2  0  0  0  0  0  0
  -24.2560  -31.0630   22.0570 N   0  0  0  0  0  0  0  0  0  0  0  0
  -23.2120  -32.1710   23.7350 O   0  0  0  0  0  0  0  0  0  0  0  0
  -22.3010  -29.5040   22.5380 C   0  0  0  0  0  0  0  0  0  0  0  0
  -20.9710  -29.3500   22.4350 N   0  0  0  0  0  0  0  0  0  0  0  0
  -22.9860  -28.8690   23.3450 O   0  0  0  0  0  0  0  0  0  0  0  0
  -20.4800  -29.9210   21.7620 H   0  0  0  0  0  0  0  0  0  0  0  0
  -17.5830  -28.2230   22.9820 C   0  0  0  0  0  0  0  0  0  0  0  0
  -20.1460  -28.4370   23.2260 C   0  0  0  0  0  3  0  0  0  0  0  0
  -20.2150  -26.9950   22.6710 C   0  0  0  0  0  2  0  0  0  0  0  0
  -19.0970  -26.6780   21.6720 C   0  0  0  0  0  2  0  0  0  0  0  0
  -17.7250  -26.8600   22.3260 C   0  0  0  0  0  2  0  0  0  0  0  0
  -18.7190  -28.9700   23.3890 C   0  0  0  0  0  0  0  0  0  0  0  0
  -18.5280  -30.2490   23.9580 C   0  0  0  0  0  3  0  0  0  0  0  0
  -17.2340  -30.7760   24.1250 C   0  0  0  0  0  3  0  0  0  0  0  0
  -16.1130  -30.0260   23.7320 C   0  0  0  0  0  3  0  0  0  0  0  0
  -16.2880  -28.7500   23.1670 C   0  0  0  0  0  3  0  0  0  0  0  0
  -25.5930  -32.4420   23.7410 C   0  0  0  0  0  3  0  0  0  0  0  0
  -25.3370  -33.8400   24.1100 N   0  0  0  0  0  0  0  0  0  0  0  0
  -25.6880  -34.8960   23.3630 C   0  0  0  0  0  0  0  0  0  0  0  0
  -26.3330  -34.7940   22.3150 O   0  0  0  0  0  0  0  0  0  0  0  0
  -24.7650  -33.9990   24.9260 H   0  0  0  0  0  0  0  0  0  0  0  0
  -24.0160  -36.7510   23.0730 C   0  0  0  0  0  1  0  0  0  0  0  0
  -25.2540  -36.2900   23.8580 C   0  0  0  0  0  3  0  0  0  0  0  0
  -27.4330  -37.0760   24.6710 C   0  0  0  0  0  1  0  0  0  0  0  0
  -26.3220  -37.3080   23.7540 N   0  0  0  0  0  0  0  0  0  0  0  0
  -25.9520  -38.2390   23.9290 H   0  0  0  0  0  0  0  0  0  0  0  0
  -26.1430  -31.6270   24.9740 C   0  0  1  0  0  0  0  0  0  0  0  0
  -25.0910  -31.3920   26.0830 C   0  0  0  0  0  1  0  0  0  0  0  0
  -26.6730  -30.2450   24.5230 C   0  0  0  0  0  1  0  0  0  0  0  0
  -27.3410  -32.3770   25.6010 C   0  0  0  0  0  1  0  0  0  0  0  0
  1  3  1  0
  2  4  2  0
  2  5  1  0
  4  6  1  0
  5  1  2  0
  6 47  1  0
  6  3  2  0
  7  5  1  0
  7  9  1  0
  8  7  2  0
 10  9  2  0
 11 10  1  0
 12 17  1  0
 13 14  1  0
 13 12  1  0
 15 14  1  0
 15 22  1  0
 15 16  1  0
 17 11  1  0
 17 16  1  0
 18 11  2  0
 19 20  2  0
 20 39  1  0
 21 20  1  0
 21 24  1  0
 22 19  1  0
 22 23  1  0
 23 21  2  0
 24 25  1  0
 25 26  2  0
 27 30  1  0
 27 26  1  0
 28 27  2  0
 29 28  1  0
 29 24  2  0
 30 31  1  0
 31 32  1  0
 32 33  2  0
 34 33  1  0
 34 38  1  0
 35 34  2  0
 36 31  2  0
 36 35  1  0
 37 36  1  0
 39 40  1  0
 40 43  1  0
 40 42  1  0
 41 39  2  0
 44 45  1  0
 44 19  1  0
 46 44  1  0
 48 49  1  0
 48 47  1  0
 50 49  1  0
 51 50  1  0
 52 54  1  0
 52 51  1  0
 53 64  2  0
 54 59  1  0
 55 63  1  0
 55 65  1  0
 56 62  1  0
 56 58  1  0
 57 63  1  0
 58 57  1  0
 59 58  2  0
 60 61  1  0
 60 54  2  0
 61 56  2  0
 62 55  1  0
 63 53  1  0
 65 67  2  0
 66 65  1  0
 68 66  1  0
 69 78  2  0
 69 74  1  0
 70 66  1  0
 70 74  1  0
 71 70  1  0
 72 73  1  0
 72 71  1  0
 73 69  1  0
 74 75  2  0
 75 76  1  0
 77 76  2  0
 78 77  1  0
 79 53  1  0
 79 80  1  0
 79 89  1  0
 80 83  1  0
 81 85  1  0
 81 80  1  0
 82 81  2  0
 85 84  1  0
 87 85  1  0
 87 88  1  0
 87 86  1  0
 89 92  1  1
 89 90  1  0
 91 89  1  0
M  ISO  4  10 100  11 100  51 101  52 101
M  END
>  <TORSDO>  (80) 
F 23

>  <SCORE>  (80) 
-11.543

>  <name>  (80) 
80

>  <ligand_id>  (80) 
80

>  <original_smiles>  (80) 
[H]C(C(=O)c1c([H])c([H])c(C([H])([H])C([H])([H])C([H])([H])C([H])([H])C([H])([H])Oc2c([H])c([H])c3c(c2[H])C([H])([H])N(C(=O)C([H])(N([H])C(=O)C([H])(N([H])C([H])([H])[H])C([H])([H])[H])C(C([H])([H])[H])(C([H])([H])[H])C([H])([H])[H])C([H])(C(=O)N([H])C2([H])c4c([H])c([H])c([H])c([H])c4C([H])([H])C([H])([H])C2([H])[H])C3([H])[H])c([H])c1[H])=C([H])C(=O)N1C([H])([H])C([H])([H])C([H])([H])C([H])(n2nc(-c3c([H])c([H])c(Oc4c([H])c([H])c(F)c([H])c4F)c([H])c3[H])c(C(=O)N([H])[H])c2N([H])[H])C1([H])[H]

>  <smiles>  (80) 
[H]C(C(=O)c1c([H])c([H])c(C([H])([H])C([H])([H])C([H])([H])C([H])([H])C([H])([H])Oc2c([H])c([H])c3c(c2[H])C([H])([H])N(C(=O)C([H])(N([H])C(=O)C([H])(N([H])C([H])([H])[H])C([H])([H])[H])C(C([H])([H])[H])(C([H])([H])[H])C([H])([H])[H])C([H])(C(=O)N([H])C2([H])c4c([H])c([H])c([H])c([H])c4C([H])([H])C([H])([H])C2([H])[H])C3([H])[H])c([H])c1[H])=C([H])C(=O)N1C([H])([H])C([H])([H])C([H])([H])C([H])(n2nc(-c3c([H])c([H])c(Oc4c([H])c([H])c(F)c([H])c4F)c([H])c3[H])c(C(=O)N([H])[H])c2N([H])[H])C1([H])[H]

$$$$
81:0:0
     RDKit          3D

 99109  0  0  1  0  0  0  0  0999 V2000
  -32.9540  -24.7220   20.6310 C   0  0  0  0  0  3  0  0  0  0  0  0
  -32.0320  -25.3900   18.4690 C   0  0  0  0  0  3  0  0  0  0  0  0
  -32.3960  -25.8650   21.2260 C   0  0  0  0  0  3  0  0  0  0  0  0
  -31.4690  -26.5320   19.0680 C   0  0  0  0  0  3  0  0  0  0  0  0
  -32.7490  -24.4670   19.2590 C   0  0  0  0  0  0  0  0  0  0  0  0
  -31.6240  -26.7550   20.4530 C   0  0  0  0  0  0  0  0  0  0  0  0
  -33.1920  -23.1420   18.6770 C   0  0  0  0  0  2  0  0  0  0  0  0
  -32.0240  -22.1430   18.7150 C   0  0  0  0  0  2  0  0  0  0  0  0
  -30.5930  -19.4890   21.2350 C   0  0  0  0  0  2  0  0  0  0  0  0
  -32.4320  -18.0610   20.2600 C   0  0  0  0  0  2  0  0  0  0  0  0
  -31.5990  -20.6160   21.5650 C   0  0  0  0  0  2  0  0  0  0  0  0
  -33.4300  -19.1210   20.7760 C   0  0  0  0  0  2  0  0  0  0  0  0
  -31.2390  -19.7260   18.8330 C   0  0  0  0  0  2  0  0  0  0  0  0
  -32.4010  -20.7070   19.1340 C   0  0  0  0  0  3  0  0  0  0  0  0
  -31.0430  -18.6990   19.9770 C   0  0  2  0  0  0  0  0  0  0  0  0
  -32.8230  -20.5290   20.6230 C   0  0  1  0  0  0  0  0  0  0  0  0
  -33.7380  -21.4240   20.9940 F   0  0  0  0  0  0  0  0  0  0  0  0
  -29.9590  -17.6810   19.5520 C   0  0  0  0  0  2  0  0  0  0  0  0
  -29.7660  -16.4510   20.4700 C   0  0  0  0  0  2  0  0  0  0  0  0
  -30.6090  -15.2400   20.0150 C   0  0  0  0  0  0  0  0  0  0  0  0
  -30.5630  -12.9120   19.2140 C   0  0  0  0  0  2  0  0  0  0  0  0
  -29.6010  -12.8420   18.0100 C   0  0  0  0  0  2  0  0  0  0  0  0
  -28.1460  -12.6290   18.4800 C   0  0  0  0  0  2  0  0  0  0  0  0
  -27.7310  -13.6120   19.6070 C   0  0  0  0  0  3  0  0  0  0  0  0
  -28.8060  -13.6400   20.7170 C   0  0  0  0  0  2  0  0  0  0  0  0
  -30.0890  -13.9880   20.0940 N   0  0  0  0  0  0  0  0  0  0  0  0
  -31.6990  -15.4560   19.4730 O   0  0  0  0  0  0  0  0  0  0  0  0
  -25.3550  -14.1320   20.4560 C   0  0  0  0  0  0  0  0  0  0  0  0
  -24.3270  -13.3170   20.8510 C   0  0  0  0  0  0  0  0  0  0  0  0
  -24.8220  -11.9810   20.7460 C   0  0  0  0  0  0  0  0  0  0  0  0
  -26.4090  -13.2900   20.1400 N   0  0  0  0  0  0  0  0  0  0  0  0
  -26.0930  -11.9890   20.3660 N   0  0  0  0  0  0  0  0  0  0  0  0
  -24.1440  -10.6930   20.9270 C   0  0  0  0  0  0  0  0  0  0  0  0
  -24.5450   -9.7800   21.9270 C   0  0  0  0  0  3  0  0  0  0  0  0
  -23.8660   -8.5550   22.0930 C   0  0  0  0  0  3  0  0  0  0  0  0
  -22.7690   -8.2330   21.2580 C   0  0  0  0  0  0  0  0  0  0  0  0
  -22.3870   -9.1350   20.2500 C   0  0  0  0  0  3  0  0  0  0  0  0
  -23.0680  -10.3520   20.0820 C   0  0  0  0  0  3  0  0  0  0  0  0
  -22.0670   -7.0540   21.3290 O   0  0  0  0  0  0  0  0  0  0  0  0
  -21.8570   -6.4130   22.5230 C   0  0  0  0  0  0  0  0  0  0  0  0
  -21.1580   -7.0270   23.5850 C   0  0  0  0  0  3  0  0  0  0  0  0
  -20.9020   -6.3080   24.7700 C   0  0  0  0  0  3  0  0  0  0  0  0
  -21.3360   -4.9730   24.8900 C   0  0  0  0  0  0  0  0  0  0  0  0
  -22.0260   -4.3580   23.8310 C   0  0  0  0  0  3  0  0  0  0  0  0
  -22.2830   -5.0760   22.6500 C   0  0  0  0  0  0  0  0  0  0  0  0
  -22.9300   -4.4720   21.6250 F   0  0  0  0  0  0  0  0  0  0  0  0
  -21.0830   -4.2790   26.0240 F   0  0  0  0  0  0  0  0  0  0  0  0
  -22.9350  -13.7450   21.2180 C   0  0  0  0  0  0  0  0  0  0  0  0
  -22.2740  -12.9950   22.0910 N   0  0  0  0  0  0  0  0  0  0  0  0
  -22.4420  -14.7770   20.7650 O   0  0  0  0  0  0  0  0  0  0  0  0
  -22.6870  -12.1600   22.4810 H   0  0  0  0  0  0  0  0  0  0  0  0
  -21.3420  -13.2610   22.3800 H   0  0  0  0  0  0  0  0  0  0  0  0
  -25.4750  -15.5140   20.3240 N   0  0  0  0  0  0  0  0  0  0  0  0
  -24.6990  -16.1430   20.4960 H   0  0  0  0  0  0  0  0  0  0  0  0
  -26.3030  -15.9880   19.9810 H   0  0  0  0  0  0  0  0  0  0  0  0
  -30.8910  -27.8950   21.1330 C   0  0  0  0  0  2  0  0  0  0  0  0
  -29.7080  -27.3890   21.9830 C   0  0  0  0  0  2  0  0  0  0  0  0
  -28.7280  -26.4550   21.2390 C   0  0  0  0  0  2  0  0  0  0  0  0
  -28.2670  -26.9800   19.9930 O   0  0  0  0  0  0  0  0  0  0  0  0
  -24.4910  -32.0200   23.2860 C   0  0  0  0  0  0  0  0  0  0  0  0
  -27.0990  -27.6960   20.0670 C   0  0  0  0  0  0  0  0  0  0  0  0
  -23.2480  -30.6400   21.6450 C   0  0  0  0  0  3  0  0  0  0  0  0
  -24.6760  -29.1370   20.1630 C   0  0  0  0  0  0  0  0  0  0  0  0
  -25.7590  -31.0340   21.3890 C   0  0  0  0  0  2  0  0  0  0  0  0
  -25.8390  -29.6790   20.7260 C   0  0  0  0  0  0  0  0  0  0  0  0
  -27.0520  -28.9710   20.6670 C   0  0  0  0  0  3  0  0  0  0  0  0
  -25.9270  -27.1560   19.5020 C   0  0  0  0  0  3  0  0  0  0  0  0
  -24.7120  -27.8690   19.5500 C   0  0  0  0  0  3  0  0  0  0  0  0
  -23.4240  -29.9790   20.2520 C   0  0  0  0  0  2  0  0  0  0  0  0
  -24.5170  -31.2480   22.1640 N   0  0  0  0  0  0  0  0  0  0  0  0
  -23.4220  -32.2760   23.8620 O   0  0  0  0  0  0  0  0  0  0  0  0
  -22.6280  -29.5990   22.6050 C   0  0  0  0  0  0  0  0  0  0  0  0
  -21.3110  -29.3800   22.4740 N   0  0  0  0  0  0  0  0  0  0  0  0
  -23.3310  -28.9880   23.4140 O   0  0  0  0  0  0  0  0  0  0  0  0
  -20.8080  -29.9260   21.7890 H   0  0  0  0  0  0  0  0  0  0  0  0
  -17.9710  -28.0910   22.9510 C   0  0  0  0  0  0  0  0  0  0  0  0
  -20.5190  -28.4180   23.2370 C   0  0  0  0  0  3  0  0  0  0  0  0
  -20.6640  -26.9910   22.6580 C   0  0  0  0  0  2  0  0  0  0  0  0
  -19.5770  -26.6400   21.6380 C   0  0  0  0  0  2  0  0  0  0  0  0
  -18.1880  -26.7470   22.2740 C   0  0  0  0  0  2  0  0  0  0  0  0
  -19.0670  -28.8810   23.3880 C   0  0  0  0  0  0  0  0  0  0  0  0
  -18.8120  -30.1400   23.9780 C   0  0  0  0  0  3  0  0  0  0  0  0
  -17.4930  -30.6060   24.1350 C   0  0  0  0  0  3  0  0  0  0  0  0
  -16.4130  -29.8130   23.7140 C   0  0  0  0  0  3  0  0  0  0  0  0
  -16.6520  -28.5570   23.1280 C   0  0  0  0  0  3  0  0  0  0  0  0
  -25.7920  -32.6400   23.8860 C   0  0  0  0  0  3  0  0  0  0  0  0
  -25.5090  -34.0470   24.1930 N   0  0  0  0  0  0  0  0  0  0  0  0
  -25.8780  -35.0820   23.4250 C   0  0  0  0  0  0  0  0  0  0  0  0
  -26.5660  -34.9500   22.4090 O   0  0  0  0  0  0  0  0  0  0  0  0
  -24.8940  -34.2240   24.9730 H   0  0  0  0  0  0  0  0  0  0  0  0
  -24.2100  -36.9190   22.9910 C   0  0  0  0  0  1  0  0  0  0  0  0
  -25.4060  -36.4850   23.8530 C   0  0  0  0  0  3  0  0  0  0  0  0
  -27.5200  -37.3300   24.7730 C   0  0  0  0  0  1  0  0  0  0  0  0
  -26.4680  -37.5130   23.7780 N   0  0  0  0  0  0  0  0  0  0  0  0
  -26.0780  -38.4430   23.8970 H   0  0  0  0  0  0  0  0  0  0  0  0
  -26.3140  -31.8820   25.1690 C   0  0  1  0  0  0  0  0  0  0  0  0
  -25.2260  -31.6650   26.2450 C   0  0  0  0  0  1  0  0  0  0  0  0
  -26.8870  -30.4950   24.7910 C   0  0  0  0  0  1  0  0  0  0  0  0
  -27.4740  -32.6760   25.8150 C   0  0  0  0  0  1  0  0  0  0  0  0
  1  3  1  0
  2  4  2  0
  2  5  1  0
  4  6  1  0
  5  1  2  0
  6 56  1  0
  6  3  2  0
  7  8  1  0
  7  5  1  0
  9 11  1  0
 10 12  1  0
 13 14  1  0
 13 15  1  0
 14  8  1  0
 14 16  1  0
 15 18  1  6
 15 10  1  0
 15  9  1  0
 16 12  1  0
 16 17  1  1
 16 11  1  0
 18 19  1  0
 20 26  1  0
 20 19  1  0
 21 26  1  0
 22 23  1  0
 22 21  1  0
 24 23  1  0
 24 31  1  0
 24 25  1  0
 26 25  1  0
 27 20  2  0
 28 29  2  0
 29 48  1  0
 30 29  1  0
 30 33  1  0
 31 32  1  0
 31 28  1  0
 32 30  2  0
 33 34  1  0
 34 35  2  0
 36 39  1  0
 36 35  1  0
 37 36  2  0
 38 37  1  0
 38 33  2  0
 39 40  1  0
 40 45  2  0
 40 41  1  0
 41 42  2  0
 42 43  1  0
 43 47  1  0
 44 43  2  0
 45 44  1  0
 46 45  1  0
 48 49  1  0
 49 52  1  0
 49 51  1  0
 50 48  2  0
 53 28  1  0
 53 54  1  0
 55 53  1  0
 56 57  1  0
 58 57  1  0
 59 61  1  0
 59 58  1  0
 60 71  2  0
 61 66  1  0
 62 70  1  0
 62 72  1  0
 63 69  1  0
 63 65  1  0
 64 70  1  0
 65 64  1  0
 66 65  2  0
 67 68  1  0
 67 61  2  0
 68 63  2  0
 69 62  1  0
 70 60  1  0
 72 74  2  0
 73 72  1  0
 75 73  1  0
 76 85  2  0
 76 81  1  0
 77 73  1  0
 77 81  1  0
 78 77  1  0
 79 80  1  0
 79 78  1  0
 80 76  1  0
 81 82  2  0
 82 83  1  0
 84 83  2  0
 85 84  1  0
 86 60  1  0
 86 87  1  0
 86 96  1  0
 87 90  1  0
 88 92  1  0
 88 87  1  0
 89 88  2  0
 92 91  1  0
 94 92  1  0
 94 95  1  0
 94 93  1  0
 96 99  1  1
 96 97  1  0
 98 96  1  0
M  ISO  4  19 100  20 100  58 101  59 101
M  END
>  <TORSDO>  (81) 
F 24

>  <SCORE>  (81) 
-11.953

>  <name>  (81) 
81

>  <ligand_id>  (81) 
81

>  <original_smiles>  (81) 
[H]c1c([H])c([H])c2c(c1[H])C([H])([H])C([H])([H])C([H])([H])C2([H])N([H])C(=O)C1([H])N(C(=O)C([H])(N([H])C(=O)C([H])(N([H])C([H])([H])[H])C([H])([H])[H])C(C([H])([H])[H])(C([H])([H])[H])C([H])([H])[H])C([H])([H])c2c([H])c(OC([H])([H])C([H])([H])C([H])([H])c3c([H])c([H])c(C([H])([H])C([H])([H])C4([H])C([H])([H])C5(C([H])([H])C([H])([H])C(=O)N6C([H])([H])C([H])([H])C([H])([H])C([H])(n7nc(-c8c([H])c([H])c(Oc9c([H])c([H])c(F)c([H])c9F)c([H])c8[H])c(C(=O)N([H])[H])c7N([H])[H])C6([H])[H])C([H])([H])C([H])([H])C4(F)C([H])([H])C5([H])[H])c([H])c3[H])c([H])c([H])c2C1([H])[H]

>  <smiles>  (81) 
[H]c1c([H])c([H])c2c(c1[H])C([H])([H])C([H])([H])C([H])([H])C2([H])N([H])C(=O)C1([H])N(C(=O)C([H])(N([H])C(=O)C([H])(N([H])C([H])([H])[H])C([H])([H])[H])C(C([H])([H])[H])(C([H])([H])[H])C([H])([H])[H])C([H])([H])c2c([H])c(OC([H])([H])C([H])([H])C([H])([H])c3c([H])c([H])c(C([H])([H])C([H])([H])C4([H])C([H])([H])C5(C([H])([H])C([H])([H])C(=O)N6C([H])([H])C([H])([H])C([H])([H])C([H])(n7nc(-c8c([H])c([H])c(Oc9c([H])c([H])c(F)c([H])c9F)c([H])c8[H])c(C(=O)N([H])[H])c7N([H])[H])C6([H])[H])C([H])([H])C([H])([H])C4(F)C([H])([H])C5([H])[H])c([H])c3[H])c([H])c([H])c2C1([H])[H]

$$$$
82:0:0
     RDKit          3D

107115  0  0  1  0  0  0  0  0999 V2000
  -30.1060  -27.6470   24.6380 C   0  0  0  0  0  3  0  0  0  0  0  0
  -29.4660  -26.5000   25.1480 C   0  0  0  0  0  3  0  0  0  0  0  0
  -31.9410  -26.2610   23.8520 C   0  0  0  0  0  3  0  0  0  0  0  0
  -31.3450  -27.5320   23.9750 C   0  0  0  0  0  0  0  0  0  0  0  0
  -30.0660  -25.2250   25.0390 C   0  0  0  0  0  0  0  0  0  0  0  0
  -31.3320  -25.1110   24.3950 C   0  0  0  0  0  0  0  0  0  0  0  0
  -32.1020  -23.8030   24.2830 C   0  0  0  0  0  1  0  0  0  0  0  0
  -32.0770  -28.7520   23.4940 C   0  0  0  0  0  0  0  0  0  0  0  0
  -32.3360  -28.8710   22.1830 N   0  0  0  0  0  0  0  0  0  0  0  0
  -32.4730  -29.5880   24.3040 O   0  0  0  0  0  0  0  0  0  0  0  0
  -32.9280  -29.6510   21.9280 H   0  0  0  0  0  0  0  0  0  0  0  0
  -31.6410  -28.2150   21.0750 C   0  0  0  0  0  2  0  0  0  0  0  0
  -30.2980  -28.9130   20.8020 C   0  0  0  0  0  2  0  0  0  0  0  0
  -29.7510  -28.5960   19.5220 O   0  0  0  0  0  0  0  0  0  0  0  0
  -23.7080  -31.2930   22.1430 C   0  0  0  0  0  0  0  0  0  0  0  0
  -28.4420  -28.9750   19.3010 C   0  0  0  0  0  0  0  0  0  0  0  0
  -23.5210  -30.1690   19.9430 C   0  0  0  0  0  3  0  0  0  0  0  0
  -25.7320  -29.6190   18.7940 C   0  0  0  0  0  0  0  0  0  0  0  0
  -25.6960  -31.2970   20.6500 C   0  0  0  0  0  2  0  0  0  0  0  0
  -26.4260  -30.2650   19.8220 C   0  0  0  0  0  0  0  0  0  0  0  0
  -27.7730  -29.9550   20.0760 C   0  0  0  0  0  3  0  0  0  0  0  0
  -27.7350  -28.3420   18.2570 C   0  0  0  0  0  3  0  0  0  0  0  0
  -26.3820  -28.6530   18.0030 C   0  0  0  0  0  3  0  0  0  0  0  0
  -24.2870  -30.0190   18.5990 C   0  0  0  0  0  2  0  0  0  0  0  0
  -24.3040  -30.9200   20.9760 N   0  0  0  0  0  0  0  0  0  0  0  0
  -22.5080  -31.0660   22.3500 O   0  0  0  0  0  0  0  0  0  0  0  0
  -23.0770  -28.7670   20.4110 C   0  0  0  0  0  0  0  0  0  0  0  0
  -21.9790  -28.2660   19.8230 N   0  0  0  0  0  0  0  0  0  0  0  0
  -23.7250  -28.1470   21.2580 O   0  0  0  0  0  0  0  0  0  0  0  0
  -21.4970  -28.8430   19.1470 H   0  0  0  0  0  0  0  0  0  0  0  0
  -19.1740  -26.1340   19.0350 C   0  0  0  0  0  0  0  0  0  0  0  0
  -21.3970  -26.9490   20.0730 C   0  0  0  0  0  3  0  0  0  0  0  0
  -22.0810  -25.8650   19.2090 C   0  0  0  0  0  2  0  0  0  0  0  0
  -21.3650  -25.6130   17.8780 C   0  0  0  0  0  2  0  0  0  0  0  0
  -19.9180  -25.1740   18.1220 C   0  0  0  0  0  2  0  0  0  0  0  0
  -19.8700  -26.9790   19.9390 C   0  0  0  0  0  0  0  0  0  0  0  0
  -19.1320  -27.8790   20.7370 C   0  0  0  0  0  3  0  0  0  0  0  0
  -17.7290  -27.9360   20.6490 C   0  0  0  0  0  3  0  0  0  0  0  0
  -17.0440  -27.0870   19.7630 C   0  0  0  0  0  3  0  0  0  0  0  0
  -17.7670  -26.1870   18.9600 C   0  0  0  0  0  3  0  0  0  0  0  0
  -24.4950  -32.0440   23.2650 C   0  0  0  0  0  3  0  0  0  0  0  0
  -24.9330  -31.1050   24.4550 C   0  0  1  0  0  0  0  0  0  0  0  0
  -23.7770  -30.2610   25.0390 C   0  0  0  0  0  1  0  0  0  0  0  0
  -26.0440  -30.1310   24.0040 C   0  0  0  0  0  1  0  0  0  0  0  0
  -25.5280  -31.9570   25.6020 C   0  0  0  0  0  1  0  0  0  0  0  0
  -23.6420  -33.1350   23.7480 N   0  0  0  0  0  0  0  0  0  0  0  0
  -23.7610  -34.4170   23.3740 C   0  0  0  0  0  0  0  0  0  0  0  0
  -24.6620  -34.8170   22.6310 O   0  0  0  0  0  0  0  0  0  0  0  0
  -22.8530  -32.8740   24.3210 H   0  0  0  0  0  0  0  0  0  0  0  0
  -21.6550  -35.6730   22.8290 C   0  0  0  0  0  1  0  0  0  0  0  0
  -22.7160  -35.4150   23.9100 C   0  0  0  0  0  3  0  0  0  0  0  0
  -24.1340  -36.5620   25.5500 C   0  0  0  0  0  1  0  0  0  0  0  0
  -23.3000  -36.6970   24.3580 N   0  0  0  0  0  0  0  0  0  0  0  0
  -22.5690  -37.3750   24.5590 H   0  0  0  0  0  0  0  0  0  0  0  0
  -29.3360  -24.0170   25.6270 C   0  0  0  0  0  2  0  0  0  0  0  0
  -28.8950  -23.1250   24.5320 N   0  0  0  0  0  4  0  0  0  0  0  0
  -29.3570  -23.4500   23.7000 H   0  0  0  0  0  0  0  0  0  0  0  0
  -27.9090  -23.2680   24.3880 H   0  0  0  0  0  0  0  0  0  0  0  0
  -29.1540  -21.6590   24.5960 C   0  0  0  0  0  3  0  0  0  0  0  0
  -30.3040  -21.2210   25.5430 C   0  0  0  0  0  2  0  0  0  0  0  0
  -29.9140  -21.2980   26.9050 O   0  0  0  0  0  0  0  0  0  0  0  0
  -30.5760  -20.8490   27.4240 H   0  0  0  0  0  0  0  0  0  0  0  0
  -29.4260  -21.1600   23.1550 C   0  0  0  0  0  2  0  0  0  0  0  0
  -30.3540  -22.1070   22.3640 C   0  0  0  0  0  2  0  0  0  0  0  0
  -30.5470  -21.7690   20.8840 C   0  0  0  0  0  2  0  0  0  0  0  0
  -31.2210  -22.9500   20.1650 C   0  0  0  0  0  2  0  0  0  0  0  0
  -31.4850  -22.7240   18.6710 C   0  0  0  0  0  2  0  0  0  0  0  0
  -32.0490  -23.9890   18.0050 C   0  0  0  0  0  2  0  0  0  0  0  0
  -32.6440  -23.7210   16.6190 C   0  0  0  0  0  2  0  0  0  0  0  0
  -33.3510  -24.9550   16.0420 C   0  0  0  0  0  2  0  0  0  0  0  0
  -34.1030  -24.6490   14.7370 C   0  0  0  0  0  2  0  0  0  0  0  0
  -34.5370  -25.9170   13.9930 C   0  0  0  0  0  0  0  0  0  0  0  0
  -34.3170  -27.3610   12.0050 C   0  0  0  0  0  2  0  0  0  0  0  0
  -33.6320  -28.7030   12.3040 C   0  0  0  0  0  2  0  0  0  0  0  0
  -32.1040  -28.5650   12.2040 C   0  0  0  0  0  2  0  0  0  0  0  0
  -31.5670  -27.3670   13.0260 C   0  0  0  0  0  3  0  0  0  0  0  0
  -32.3690  -26.0810   12.7310 C   0  0  0  0  0  2  0  0  0  0  0  0
  -33.8010  -26.3570   12.9440 N   0  0  0  0  0  0  0  0  0  0  0  0
  -35.6110  -26.4330   14.3190 O   0  0  0  0  0  0  0  0  0  0  0  0
  -29.1180  -27.0240   13.7500 C   0  0  0  0  0  0  0  0  0  0  0  0
  -27.9560  -26.9410   13.0330 C   0  0  0  0  0  0  0  0  0  0  0  0
  -28.3310  -27.0570   11.6570 C   0  0  0  0  0  0  0  0  0  0  0  0
  -30.1330  -27.1730   12.8160 N   0  0  0  0  0  0  0  0  0  0  0  0
  -29.6510  -27.1420   11.5470 N   0  0  0  0  0  0  0  0  0  0  0  0
  -27.5090  -27.1470   10.4450 C   0  0  0  0  0  0  0  0  0  0  0  0
  -27.7630  -26.3370    9.3150 C   0  0  0  0  0  3  0  0  0  0  0  0
  -26.9470  -26.4320    8.1670 C   0  0  0  0  0  3  0  0  0  0  0  0
  -25.8620  -27.3400    8.1430 C   0  0  0  0  0  0  0  0  0  0  0  0
  -25.6250  -28.1580    9.2620 C   0  0  0  0  0  3  0  0  0  0  0  0
  -26.4400  -28.0650   10.4000 C   0  0  0  0  0  3  0  0  0  0  0  0
  -25.0310  -27.5200    7.0630 O   0  0  0  0  0  0  0  0  0  0  0  0
  -24.8610  -26.5420    6.1150 C   0  0  0  0  0  0  0  0  0  0  0  0
  -24.4280  -25.2430    6.4560 C   0  0  0  0  0  3  0  0  0  0  0  0
  -24.2040  -24.2880    5.4440 C   0  0  0  0  0  3  0  0  0  0  0  0
  -24.4010  -24.6340    4.0920 C   0  0  0  0  0  0  0  0  0  0  0  0
  -24.8260  -25.9300    3.7520 C   0  0  0  0  0  3  0  0  0  0  0  0
  -25.0530  -26.8810    4.7610 C   0  0  0  0  0  0  0  0  0  0  0  0
  -25.4460  -28.1340    4.4270 F   0  0  0  0  0  0  0  0  0  0  0  0
  -24.1760  -23.7200    3.1190 F   0  0  0  0  0  0  0  0  0  0  0  0
  -26.5630  -26.8580   13.5900 C   0  0  0  0  0  0  0  0  0  0  0  0
  -25.6500  -26.2110   12.8730 N   0  0  0  0  0  0  0  0  0  0  0  0
  -26.2870  -27.3270   14.6930 O   0  0  0  0  0  0  0  0  0  0  0  0
  -25.8770  -25.8060   11.9770 H   0  0  0  0  0  0  0  0  0  0  0  0
  -24.7080  -26.1150   13.2290 H   0  0  0  0  0  0  0  0  0  0  0  0
  -29.3940  -27.0040   15.1140 N   0  0  0  0  0  0  0  0  0  0  0  0
  -28.6590  -26.9630   15.8120 H   0  0  0  0  0  0  0  0  0  0  0  0
  -30.3190  -27.0990   15.5110 H   0  0  0  0  0  0  0  0  0  0  0  0
  1  2  1  0
  3  4  1  0
  3  6  2  0
  4  1  2  0
  5  2  2  0
  5 55  1  0
  6  5  1  0
  7  6  1  0
  8  4  1  0
  8 10  2  0
  9  8  1  0
 11  9  1  0
 12  9  1  0
 13 12  1  0
 14 13  1  0
 15 26  2  0
 16 14  1  0
 16 21  1  0
 17 27  1  0
 17 25  1  0
 18 20  1  0
 19 25  1  0
 20 21  2  0
 20 19  1  0
 22 16  2  0
 23 22  1  0
 23 18  2  0
 24 18  1  0
 24 17  1  0
 25 15  1  0
 27 29  2  0
 28 27  1  0
 30 28  1  0
 31 36  1  0
 32 28  1  0
 33 32  1  0
 34 35  1  0
 34 33  1  0
 35 31  1  0
 36 32  1  0
 36 37  2  0
 38 37  1  0
 39 38  2  0
 40 31  2  0
 40 39  1  0
 41 15  1  0
 41 46  1  0
 41 42  1  0
 42 43  1  1
 42 45  1  0
 44 42  1  0
 46 49  1  0
 47 46  1  0
 47 51  1  0
 48 47  2  0
 51 50  1  0
 51 53  1  0
 53 54  1  0
 53 52  1  0
 56 59  1  0
 56 55  1  0
 57 56  1  0
 58 56  1  0
 59 63  1  0
 59 60  1  0
 60 61  1  0
 61 62  1  0
 64 63  1  0
 65 64  1  0
 66 65  1  0
 67 66  1  0
 68 67  1  0
 69 68  1  0
 70 69  1  0
 71 70  1  0
 72 79  2  0
 72 71  1  0
 73 74  1  0
 73 78  1  0
 75 74  1  0
 76 75  1  0
 77 78  1  0
 77 76  1  0
 78 72  1  0
 80105  1  0
 81100  1  0
 81 80  2  0
 82 81  1  0
 83 76  1  0
 83 80  1  0
 84 82  2  0
 84 83  1  0
 85 82  1  0
 86 85  2  0
 87 86  1  0
 88 87  2  0
 88 89  1  0
 89 90  2  0
 90 85  1  0
 91 88  1  0
 92 93  1  0
 92 91  1  0
 94 93  2  0
 95 94  1  0
 96 95  2  0
 96 97  1  0
 97 92  2  0
 98 97  1  0
 99 95  1  0
100102  2  0
101104  1  0
101100  1  0
103101  1  0
105107  1  0
105106  1  0
M  ISO  4  13 101  14 101  71 100  72 100
M  END
>  <TORSDO>  (82) 
F 33

>  <SCORE>  (82) 
30.854

>  <name>  (82) 
82

>  <ligand_id>  (82) 
82

>  <original_smiles>  (82) 
[H]OC([H])([H])C([H])(C([H])([H])C([H])([H])C([H])([H])C([H])([H])C([H])([H])C([H])([H])C([H])([H])C([H])([H])C([H])([H])C(=O)N1C([H])([H])C([H])([H])C([H])([H])C([H])(n2nc(-c3c([H])c([H])c(Oc4c([H])c([H])c(F)c([H])c4F)c([H])c3[H])c(C(=O)N([H])[H])c2N([H])[H])C1([H])[H])[N+]([H])([H])C([H])([H])c1c([H])c([H])c(C(=O)N([H])C([H])([H])C([H])([H])Oc2c([H])c([H])c3c(c2[H])C([H])([H])N(C(=O)C([H])(N([H])C(=O)C([H])(N([H])C([H])([H])[H])C([H])([H])[H])C(C([H])([H])[H])(C([H])([H])[H])C([H])([H])[H])C([H])(C(=O)N([H])C2([H])c4c([H])c([H])c([H])c([H])c4C([H])([H])C([H])([H])C2([H])[H])C3([H])[H])c([H])c1C([H])([H])[H]

>  <smiles>  (82) 
[H]OC([H])([H])C([H])(C([H])([H])C([H])([H])C([H])([H])C([H])([H])C([H])([H])C([H])([H])C([H])([H])C([H])([H])C([H])([H])C(=O)N1C([H])([H])C([H])([H])C([H])([H])C([H])(n2nc(-c3c([H])c([H])c(Oc4c([H])c([H])c(F)c([H])c4F)c([H])c3[H])c(C(=O)N([H])[H])c2N([H])[H])C1([H])[H])[N+]([H])([H])C([H])([H])c1c([H])c([H])c(C(=O)N([H])C([H])([H])C([H])([H])Oc2c([H])c([H])c3c(c2[H])C([H])([H])N(C(=O)C([H])(N([H])C(=O)C([H])(N([H])C([H])([H])[H])C([H])([H])[H])C(C([H])([H])[H])(C([H])([H])[H])C([H])([H])[H])C([H])(C(=O)N([H])C2([H])c4c([H])c([H])c([H])c([H])c4C([H])([H])C([H])([H])C2([H])[H])C3([H])[H])c([H])c1C([H])([H])[H]

$$$$
83:0:0
     RDKit          3D

 96104  0  0  1  0  0  0  0  0999 V2000
  -31.5880  -23.6320   17.8430 C   0  0  0  0  0  3  0  0  0  0  0  0
  -31.2490  -24.9850   17.6530 C   0  0  0  0  0  3  0  0  0  0  0  0
  -29.2410  -23.0110   17.6720 C   0  0  0  0  0  3  0  0  0  0  0  0
  -30.5830  -22.6420   17.9000 C   0  0  0  0  0  0  0  0  0  0  0  0
  -29.9000  -25.3630   17.4670 C   0  0  0  0  0  0  0  0  0  0  0  0
  -28.9030  -24.3590   17.4420 C   0  0  0  0  0  0  0  0  0  0  0  0
  -27.6110  -24.6810   17.2030 F   0  0  0  0  0  0  0  0  0  0  0  0
  -30.9670  -21.2300   18.1490 C   0  0  0  0  0  0  0  0  0  0  0  0
  -32.0390  -20.7590   17.7520 O   0  0  0  0  0  0  0  0  0  0  0  0
  -30.0100  -20.3660   18.9910 C   0  0  0  0  0  2  0  0  0  0  0  0
  -30.7670  -19.2790   19.7880 C   0  0  0  0  0  2  0  0  0  0  0  0
  -29.8910  -18.2330   20.5090 C   0  0  0  0  0  2  0  0  0  0  0  0
  -30.7800  -17.1300   21.1250 C   0  0  0  0  0  2  0  0  0  0  0  0
  -30.0710  -15.7860   21.4800 C   0  0  0  0  0  2  0  0  0  0  0  0
  -30.7850  -14.5310   20.9230 C   0  0  0  0  0  0  0  0  0  0  0  0
  -30.5120  -12.3960   19.7300 C   0  0  0  0  0  2  0  0  0  0  0  0
  -29.6570  -12.6660   18.4780 C   0  0  0  0  0  2  0  0  0  0  0  0
  -28.1570  -12.5370   18.8140 C   0  0  0  0  0  2  0  0  0  0  0  0
  -27.7510  -13.3390   20.0810 C   0  0  0  0  0  3  0  0  0  0  0  0
  -28.7430  -13.0980   21.2430 C   0  0  0  0  0  2  0  0  0  0  0  0
  -30.1020  -13.3690   20.7540 N   0  0  0  0  0  0  0  0  0  0  0  0
  -31.9440  -14.6560   20.5220 O   0  0  0  0  0  0  0  0  0  0  0  0
  -25.3200  -13.9330   20.6780 C   0  0  0  0  0  0  0  0  0  0  0  0
  -24.2330  -13.1550   20.9710 C   0  0  0  0  0  0  0  0  0  0  0  0
  -24.6930  -11.8030   20.9320 C   0  0  0  0  0  0  0  0  0  0  0  0
  -26.3750  -13.0540   20.4800 N   0  0  0  0  0  0  0  0  0  0  0  0
  -25.9980  -11.7670   20.6910 N   0  0  0  0  0  0  0  0  0  0  0  0
  -23.9550  -10.5390   21.0560 C   0  0  0  0  0  0  0  0  0  0  0  0
  -24.3560   -9.5360   21.9650 C   0  0  0  0  0  3  0  0  0  0  0  0
  -23.6210   -8.3370   22.0790 C   0  0  0  0  0  3  0  0  0  0  0  0
  -22.4690   -8.1320   21.2820 C   0  0  0  0  0  0  0  0  0  0  0  0
  -22.0870   -9.1250   20.3630 C   0  0  0  0  0  3  0  0  0  0  0  0
  -22.8220  -10.3160   20.2480 C   0  0  0  0  0  3  0  0  0  0  0  0
  -21.7100   -6.9870   21.3070 O   0  0  0  0  0  0  0  0  0  0  0  0
  -21.6430   -6.1880   22.4200 C   0  0  0  0  0  0  0  0  0  0  0  0
  -21.2230   -6.6880   23.6720 C   0  0  0  0  0  3  0  0  0  0  0  0
  -21.1020   -5.8170   24.7730 C   0  0  0  0  0  3  0  0  0  0  0  0
  -21.3920   -4.4470   24.6230 C   0  0  0  0  0  0  0  0  0  0  0  0
  -21.8060   -3.9470   23.3770 C   0  0  0  0  0  3  0  0  0  0  0  0
  -21.9280   -4.8150   22.2780 C   0  0  0  0  0  0  0  0  0  0  0  0
  -22.3050   -4.3240   21.0720 F   0  0  0  0  0  0  0  0  0  0  0  0
  -21.2680   -3.6090   25.6790 F   0  0  0  0  0  0  0  0  0  0  0  0
  -22.8240  -13.6290   21.1800 C   0  0  0  0  0  0  0  0  0  0  0  0
  -22.0520  -12.9200   21.9950 N   0  0  0  0  0  0  0  0  0  0  0  0
  -22.4130  -14.6630   20.6560 O   0  0  0  0  0  0  0  0  0  0  0  0
  -22.3930  -12.0810   22.4440 H   0  0  0  0  0  0  0  0  0  0  0  0
  -21.1050  -13.2190   22.1730 H   0  0  0  0  0  0  0  0  0  0  0  0
  -25.4930  -15.3080   20.5430 N   0  0  0  0  0  0  0  0  0  0  0  0
  -24.7200  -15.9570   20.6350 H   0  0  0  0  0  0  0  0  0  0  0  0
  -26.3620  -15.7610   20.2860 H   0  0  0  0  0  0  0  0  0  0  0  0
  -29.5150  -26.8410   17.3770 C   0  0  0  0  0  3  0  0  0  0  0  0
  -29.4520  -27.4380   18.8030 C   0  0  0  0  0  2  0  0  0  0  0  0
  -28.4270  -26.7960   19.5630 O   0  0  0  0  0  0  0  0  0  0  0  0
  -24.6690  -31.7660   23.0280 C   0  0  0  0  0  0  0  0  0  0  0  0
  -27.2590  -27.5060   19.6860 C   0  0  0  0  0  0  0  0  0  0  0  0
  -23.4150  -30.4040   21.3830 C   0  0  0  0  0  3  0  0  0  0  0  0
  -24.8330  -28.9340   19.8590 C   0  0  0  0  0  0  0  0  0  0  0  0
  -25.9210  -30.8140   21.1020 C   0  0  0  0  0  2  0  0  0  0  0  0
  -26.0000  -29.4670   20.4180 C   0  0  0  0  0  0  0  0  0  0  0  0
  -27.2140  -28.7570   20.3390 C   0  0  0  0  0  3  0  0  0  0  0  0
  -26.0680  -26.9580   19.1640 C   0  0  0  0  0  3  0  0  0  0  0  0
  -24.8580  -27.6720   19.2370 C   0  0  0  0  0  3  0  0  0  0  0  0
  -23.5790  -29.7680   19.9770 C   0  0  0  0  0  2  0  0  0  0  0  0
  -24.6880  -31.0080   21.8970 N   0  0  0  0  0  0  0  0  0  0  0  0
  -23.6070  -32.0060   23.6200 O   0  0  0  0  0  0  0  0  0  0  0  0
  -22.8160  -29.3450   22.3350 C   0  0  0  0  0  0  0  0  0  0  0  0
  -21.4880  -29.1580   22.2560 N   0  0  0  0  0  0  0  0  0  0  0  0
  -23.5370  -28.6960   23.0960 O   0  0  0  0  0  0  0  0  0  0  0  0
  -20.9680  -29.7360   21.6120 H   0  0  0  0  0  0  0  0  0  0  0  0
  -18.1460  -27.9270   22.8440 C   0  0  0  0  0  0  0  0  0  0  0  0
  -20.7100  -28.1890   23.0250 C   0  0  0  0  0  3  0  0  0  0  0  0
  -20.7960  -26.7800   22.3920 C   0  0  0  0  0  2  0  0  0  0  0  0
  -19.6540  -26.4880   21.4120 C   0  0  0  0  0  2  0  0  0  0  0  0
  -18.2990  -26.6020   22.1150 C   0  0  0  0  0  2  0  0  0  0  0  0
  -19.2760  -28.6780   23.2570 C   0  0  0  0  0  0  0  0  0  0  0  0
  -19.0760  -29.9210   23.8990 C   0  0  0  0  0  3  0  0  0  0  0  0
  -17.7770  -30.4070   24.1350 C   0  0  0  0  0  3  0  0  0  0  0  0
  -16.6600  -29.6510   23.7370 C   0  0  0  0  0  3  0  0  0  0  0  0
  -16.8460  -28.4120   23.0980 C   0  0  0  0  0  3  0  0  0  0  0  0
  -25.9740  -32.3880   23.6200 C   0  0  0  0  0  3  0  0  0  0  0  0
  -26.5820  -31.5460   24.8080 C   0  0  1  0  0  0  0  0  0  0  0  0
  -25.5580  -31.1980   25.9130 C   0  0  0  0  0  1  0  0  0  0  0  0
  -27.1800  -30.2180   24.2840 C   0  0  0  0  0  1  0  0  0  0  0  0
  -27.7460  -32.3280   25.4640 C   0  0  0  0  0  1  0  0  0  0  0  0
  -25.6520  -33.7520   24.0570 N   0  0  0  0  0  0  0  0  0  0  0  0
  -25.9390  -34.8610   23.3600 C   0  0  0  0  0  0  0  0  0  0  0  0
  -26.5710  -34.8410   22.3010 O   0  0  0  0  0  0  0  0  0  0  0  0
  -25.0810  -33.8400   24.8850 H   0  0  0  0  0  0  0  0  0  0  0  0
  -24.1650  -36.6360   23.1920 C   0  0  0  0  0  1  0  0  0  0  0  0
  -25.4430  -36.2030   23.9290 C   0  0  0  0  0  3  0  0  0  0  0  0
  -27.5920  -37.0690   24.7390 C   0  0  0  0  0  1  0  0  0  0  0  0
  -26.4520  -37.2820   23.8540 N   0  0  0  0  0  0  0  0  0  0  0  0
  -26.0360  -38.1810   24.0830 H   0  0  0  0  0  0  0  0  0  0  0  0
  -30.4530  -27.6440   16.4390 C   0  0  0  0  0  2  0  0  0  0  0  0
  -29.8640  -28.9520   15.9020 C   0  0  0  0  0  3  0  0  0  0  0  0
  -28.6470  -29.1510   15.8520 O   0  0  0  0  0  0  0  0  0  0  0  0
  1  4  1  0
  2  1  2  0
  3  4  2  0
  4  8  1  0
  5  2  1  0
  6  5  2  0
  6  3  1  0
  7  6  1  0
  8 10  1  0
  9  8  2  0
 10 11  1  0
 11 12  1  0
 12 13  1  0
 13 14  1  0
 15 14  1  0
 16 21  1  0
 17 18  1  0
 17 16  1  0
 19 18  1  0
 19 26  1  0
 19 20  1  0
 21 15  1  0
 21 20  1  0
 22 15  2  0
 23 24  2  0
 24 43  1  0
 25 24  1  0
 25 28  1  0
 26 23  1  0
 26 27  1  0
 27 25  2  0
 28 29  1  0
 29 30  2  0
 31 34  1  0
 31 30  1  0
 32 31  2  0
 33 32  1  0
 33 28  2  0
 34 35  1  0
 35 36  1  0
 36 37  2  0
 38 37  1  0
 38 42  1  0
 39 38  2  0
 40 35  2  0
 40 39  1  0
 41 40  1  0
 43 44  1  0
 44 47  1  0
 44 46  1  0
 45 43  2  0
 48 49  1  0
 48 23  1  0
 50 48  1  0
 51 94  1  0
 51  5  1  0
 51 52  1  0
 52 53  1  0
 53 55  1  0
 54 65  2  0
 55 60  1  0
 56 64  1  0
 56 66  1  0
 57 63  1  0
 57 59  1  0
 58 64  1  0
 59 58  1  0
 60 59  2  0
 61 62  1  0
 61 55  2  0
 62 57  2  0
 63 56  1  0
 64 54  1  0
 66 68  2  0
 67 66  1  0
 69 67  1  0
 70 79  2  0
 70 75  1  0
 71 67  1  0
 71 75  1  0
 72 71  1  0
 73 74  1  0
 73 72  1  0
 74 70  1  0
 75 76  2  0
 76 77  1  0
 78 77  2  0
 79 78  1  0
 80 54  1  0
 80 85  1  0
 80 81  1  0
 81 84  1  1
 81 82  1  0
 83 81  1  0
 85 88  1  0
 86 90  1  0
 86 85  1  0
 87 86  2  0
 90 89  1  0
 92 90  1  0
 92 93  1  0
 92 91  1  0
 95 94  1  0
 96 95  2  0
M  ISO  4  14 100  15 100  52 101  53 101
M  END
>  <TORSDO>  (83) 
F 26

>  <SCORE>  (83) 
-11.502

>  <name>  (83) 
83

>  <ligand_id>  (83) 
83

>  <original_smiles>  (83) 
[H]C(=O)C([H])([H])C([H])(c1c([H])c([H])c(C(=O)C([H])([H])C([H])([H])C([H])([H])C([H])([H])C([H])([H])C(=O)N2C([H])([H])C([H])([H])C([H])([H])C([H])(n3nc(-c4c([H])c([H])c(Oc5c([H])c([H])c(F)c([H])c5F)c([H])c4[H])c(C(=O)N([H])[H])c3N([H])[H])C2([H])[H])c([H])c1F)C([H])([H])Oc1c([H])c([H])c2c(c1[H])C([H])([H])N(C(=O)C([H])(N([H])C(=O)C([H])(N([H])C([H])([H])[H])C([H])([H])[H])C(C([H])([H])[H])(C([H])([H])[H])C([H])([H])[H])C([H])(C(=O)N([H])C1([H])c3c([H])c([H])c([H])c([H])c3C([H])([H])C([H])([H])C1([H])[H])C2([H])[H]

>  <smiles>  (83) 
[H]C(=O)C([H])([H])C([H])(c1c([H])c([H])c(C(=O)C([H])([H])C([H])([H])C([H])([H])C([H])([H])C([H])([H])C(=O)N2C([H])([H])C([H])([H])C([H])([H])C([H])(n3nc(-c4c([H])c([H])c(Oc5c([H])c([H])c(F)c([H])c5F)c([H])c4[H])c(C(=O)N([H])[H])c3N([H])[H])C2([H])[H])c([H])c1F)C([H])([H])Oc1c([H])c([H])c2c(c1[H])C([H])([H])N(C(=O)C([H])(N([H])C(=O)C([H])(N([H])C([H])([H])[H])C([H])([H])[H])C(C([H])([H])[H])(C([H])([H])[H])C([H])([H])[H])C([H])(C(=O)N([H])C1([H])c3c([H])c([H])c([H])c([H])c3C([H])([H])C([H])([H])C1([H])[H])C2([H])[H]

$$$$
84:0:0
     RDKit          3D

 92 95  0  0  1  0  0  0  0  0999 V2000
  -29.0000  -14.4300   16.8790 C   0  0  0  0  0  3  0  0  0  0  0  0
  -28.5530  -13.1790   17.7090 C   0  0  0  0  0  3  0  0  0  0  0  0
  -29.1940  -16.3800   18.7630 C   0  0  0  0  0  2  0  0  0  0  0  0
  -29.4040  -15.8280   17.4270 C   0  0  0  0  0  3  0  0  0  0  0  0
  -28.3930  -13.2950   19.3160 C   0  0  0  0  0  3  0  0  0  0  0  0
  -28.8160  -15.5820   19.9790 C   0  0  0  0  0  2  0  0  0  0  0  0
  -27.9560  -11.8480   19.7570 C   0  0  0  0  0  1  0  0  0  0  0  0
  -30.7560  -16.5000   17.2060 C   0  0  0  0  0  0  0  0  0  0  0  0
  -31.0400  -17.0090   16.1200 O   0  0  0  0  0  0  0  0  0  0  0  0
  -31.9060  -16.4880   18.3860 C   0  0  0  0  0  2  0  0  0  0  0  0
  -31.9040  -16.8100   20.0610 C   0  0  0  0  0  2  0  0  0  0  0  0
  -31.3010  -16.1740   21.5280 C   0  0  0  0  0  2  0  0  0  0  0  0
  -31.1610  -14.6750   22.1900 C   0  0  0  0  0  0  0  0  0  0  0  0
  -31.0340  -13.0260   20.8070 C   0  0  0  0  0  2  0  0  0  0  0  0
  -30.5900  -13.9240   19.3710 C   0  0  0  0  0  1  0  0  0  0  0  0
  -27.3950  -14.4270   19.2820 C   0  0  0  0  0  2  0  0  0  0  0  0
  -27.1560  -14.0810   21.2310 C   0  0  0  0  0  2  0  0  0  0  0  0
  -28.5760  -13.7290   22.3810 C   0  0  0  0  0  2  0  0  0  0  0  0
  -30.2230  -13.6800   22.0110 N   0  0  0  0  0  0  0  0  0  0  0  0
  -32.2170  -14.3380   22.6820 O   0  0  0  0  0  0  0  0  0  0  0  0
  -24.8520  -13.9180   21.2230 C   0  0  0  0  0  0  0  0  0  0  0  0
  -23.8630  -13.0300   21.3390 C   0  0  0  0  0  0  0  0  0  0  0  0
  -24.4350  -11.7200   21.3660 C   0  0  0  0  0  0  0  0  0  0  0  0
  -25.9850  -13.2290   21.3420 N   0  0  0  0  0  0  0  0  0  0  0  0
  -25.7740  -11.8550   21.4170 N   0  0  0  0  0  0  0  0  0  0  0  0
  -23.7160  -10.4210   21.3270 C   0  0  0  0  0  0  0  0  0  0  0  0
  -24.0260   -9.3350   22.1810 C   0  0  0  0  0  3  0  0  0  0  0  0
  -23.2200   -8.1710   22.1930 C   0  0  0  0  0  3  0  0  0  0  0  0
  -22.0870   -8.0740   21.3480 C   0  0  0  0  0  0  0  0  0  0  0  0
  -21.7990   -9.1410   20.4780 C   0  0  0  0  0  3  0  0  0  0  0  0
  -22.6070  -10.2900   20.4630 C   0  0  0  0  0  3  0  0  0  0  0  0
  -21.2570   -6.9790   21.2750 O   0  0  0  0  0  0  0  0  0  0  0  0
  -21.1670   -6.0670   22.2980 C   0  0  0  0  0  0  0  0  0  0  0  0
  -20.6760   -6.4260   23.5720 C   0  0  0  0  0  3  0  0  0  0  0  0
  -20.5340   -5.4450   24.5730 C   0  0  0  0  0  3  0  0  0  0  0  0
  -20.8740   -4.1060   24.3040 C   0  0  0  0  0  0  0  0  0  0  0  0
  -21.3560   -3.7440   23.0330 C   0  0  0  0  0  3  0  0  0  0  0  0
  -21.4990   -4.7220   22.0320 C   0  0  0  0  0  0  0  0  0  0  0  0
  -21.9430   -4.3630   20.8040 F   0  0  0  0  0  0  0  0  0  0  0  0
  -20.7340   -3.1620   25.2640 F   0  0  0  0  0  0  0  0  0  0  0  0
  -22.4490  -13.4660   21.3630 C   0  0  0  0  0  0  0  0  0  0  0  0
  -21.6130  -12.7450   22.0830 N   0  0  0  0  0  0  0  0  0  0  0  0
  -22.1220  -14.5310   20.8360 O   0  0  0  0  0  0  0  0  0  0  0  0
  -21.9230  -11.9050   22.5490 H   0  0  0  0  0  0  0  0  0  0  0  0
  -20.6490  -13.0300   22.1810 H   0  0  0  0  0  0  0  0  0  0  0  0
  -24.8590  -15.3040   21.0460 N   0  0  0  0  0  0  0  0  0  0  0  0
  -23.9800  -15.7840   20.8730 H   0  0  0  0  0  0  0  0  0  0  0  0
  -25.6750  -15.8330   20.7700 H   0  0  0  0  0  0  0  0  0  0  0  0
  -28.2830  -17.6240   20.6970 C   0  0  0  0  0 15  0  0  0  0  0  0
  -28.4760  -19.9840   20.5730 C   0  0  0  0  0 15  0  0  0  0  0  0
  -27.7660  -22.2560   20.6640 C   0  0  0  0  0 15  0  0  0  0  0  0
  -27.9370  -24.3690   20.7460 O   0  0  0  0  0  1  0  0  0  0  0  0
  -24.7950  -31.8820   23.1130 C   0  0  0  0  0  0  0  0  0  0  0  0
  -27.1530  -25.9330   20.6560 C   0  0  0  0  0  0  0  0  0  0  0  0
  -23.6390  -30.3370   21.6130 C   0  0  0  0  0  3  0  0  0  0  0  0
  -25.0620  -28.4340   20.4020 C   0  0  0  0  0  0  0  0  0  0  0  0
  -26.2410  -30.2340   21.6070 C   0  0  0  0  0  2  0  0  0  0  0  0
  -26.2670  -28.6830   21.0650 C   0  0  0  0  0  0  0  0  0  0  0  0
  -27.2750  -27.4770   21.1410 C   0  0  0  0  0  3  0  0  0  0  0  0
  -25.9350  -26.0760   19.9090 C   0  0  0  0  0  3  0  0  0  0  0  0
  -24.9790  -27.1650   19.7970 C   0  0  0  0  0  3  0  0  0  0  0  0
  -23.9110  -29.4850   20.3310 C   0  0  0  0  0  2  0  0  0  0  0  0
  -24.9290  -30.8720   22.1580 N   0  0  0  0  0  0  0  0  0  0  0  0
  -23.6850  -32.2580   23.5370 O   0  0  0  0  0  0  0  0  0  0  0  0
  -22.8490  -29.5080   22.6680 C   0  0  0  0  0  0  0  0  0  0  0  0
  -21.5340  -29.2790   22.4750 N   0  0  0  0  0  0  0  0  0  0  0  0
  -23.4470  -29.0620   23.6510 O   0  0  0  0  0  0  0  0  0  0  0  0
  -21.0890  -29.6900   21.6670 H   0  0  0  0  0  0  0  0  0  0  0  0
  -18.1800  -27.9240   22.9440 C   0  0  0  0  0  0  0  0  0  0  0  0
  -20.6950  -28.4150   23.3230 C   0  0  0  0  0  3  0  0  0  0  0  0
  -20.9220  -26.9230   22.9840 C   0  0  0  0  0  2  0  0  0  0  0  0
  -19.9240  -26.3800   21.9560 C   0  0  0  0  0  2  0  0  0  0  0  0
  -18.4920  -26.5110   22.4800 C   0  0  0  0  0  2  0  0  0  0  0  0
  -19.2130  -28.8230   23.3240 C   0  0  0  0  0  0  0  0  0  0  0  0
  -18.8650  -30.1300   23.7260 C   0  0  0  0  0  3  0  0  0  0  0  0
  -17.5180  -30.5440   23.7490 C   0  0  0  0  0  3  0  0  0  0  0  0
  -16.5010  -29.6470   23.3800 C   0  0  0  0  0  3  0  0  0  0  0  0
  -16.8330  -28.3400   22.9830 C   0  0  0  0  0  3  0  0  0  0  0  0
  -26.0190  -32.6280   23.7300 C   0  0  0  0  0  3  0  0  0  0  0  0
  -25.6160  -34.0130   24.0850 N   0  0  0  0  0  0  0  0  0  0  0  0
  -25.8680  -35.1180   23.3650 C   0  0  0  0  0  0  0  0  0  0  0  0
  -26.5030  -35.0810   22.3100 O   0  0  0  0  0  0  0  0  0  0  0  0
  -25.0370  -34.1100   24.9060 H   0  0  0  0  0  0  0  0  0  0  0  0
  -24.0380  -36.8490   23.1610 C   0  0  0  0  0  1  0  0  0  0  0  0
  -25.3400  -36.4750   23.8900 C   0  0  0  0  0  3  0  0  0  0  0  0
  -27.4660  -37.4640   24.6360 C   0  0  0  0  0  1  0  0  0  0  0  0
  -26.3100  -37.5860   23.7510 N   0  0  0  0  0  0  0  0  0  0  0  0
  -25.8630  -38.4810   23.9350 H   0  0  0  0  0  0  0  0  0  0  0  0
  -26.5810  -31.9170   25.0250 C   0  0  1  0  0  0  0  0  0  0  0  0
  -25.4940  -31.5530   26.0640 C   0  0  0  0  0  1  0  0  0  0  0  0
  -27.3270  -30.6160   24.6700 C   0  0  0  0  0  1  0  0  0  0  0  0
  -27.6180  -32.8330   25.7190 C   0  0  0  0  0  1  0  0  0  0  0  0
  1  4  1  0
  1  2  2  0
  2  5  1  0
  3  6  1  0
  4  8  1  0
  4  3  1  0
  5  7  1  0
  8 10  1  0
  9  8  2  0
 10 11  1  0
 11 12  1  0
 12 13  1  0
 13 20  2  0
 14 19  1  0
 15 14  1  0
 16  5  1  0
 16  6  1  0
 17 24  1  0
 17 18  1  0
 19 13  1  0
 19 18  1  0
 21 22  2  0
 21 24  1  0
 22 41  1  0
 22 23  1  0
 23 25  2  0
 24 25  1  0
 26 23  1  0
 26 27  1  0
 27 28  2  0
 29 28  1  0
 30 29  2  0
 31 30  1  0
 31 26  2  0
 32 29  1  0
 32 33  1  0
 33 34  1  0
 34 35  2  0
 36 35  1  0
 36 40  1  0
 37 36  2  0
 38 33  2  0
 38 37  1  0
 39 38  1  0
 41 42  1  0
 42 45  1  0
 42 44  1  0
 43 41  2  0
 46 21  1  0
 47 46  1  0
 48 46  1  0
 53 64  2  0
 54 52  1  0
 54 59  1  0
 55 63  1  0
 55 65  1  0
 56 58  1  0
 57 63  1  0
 58 59  2  0
 58 57  1  0
 60 54  2  0
 61 60  1  0
 61 56  2  0
 62 56  1  0
 62 55  1  0
 63 53  1  0
 65 67  2  0
 66 65  1  0
 68 66  1  0
 69 78  2  0
 69 74  1  0
 70 66  1  0
 70 74  1  0
 71 70  1  0
 72 73  1  0
 72 71  1  0
 73 69  1  0
 74 75  2  0
 75 76  1  0
 77 76  2  0
 78 77  1  0
 79 53  1  0
 79 80  1  0
 79 89  1  0
 80 83  1  0
 81 85  1  0
 81 80  1  0
 82 81  2  0
 85 84  1  0
 87 85  1  0
 87 88  1  0
 87 86  1  0
 89 92  1  1
 89 90  1  0
 91 89  1  0
M  ISO  4  12 100  13 100  51 101  52 101
M  END
>  <TORSDO>  (84) 
F 23

>  <SCORE>  (84) 
1.285

>  <name>  (84) 
84

>  <ligand_id>  (84) 
84

>  <original_smiles>  (84) 
[H]c1c([H])c([H])c2c(c1[H])C([H])([H])C([H])([H])C([H])([H])C2([H])N([H])C(=O)C1([H])N(C(=O)C([H])(N([H])C(=O)C([H])(N([H])C([H])([H])[H])C([H])([H])[H])C(C([H])([H])[H])(C([H])([H])[H])C([H])([H])[H])C([H])([H])c2c([H])c(OC([H])([H])C([H])([H])C([H])([H])c3c([H])c(C(=O)C([H])([H])C([H])([H])C([H])([H])C(=O)N4C([H])([H])C([H])([H])C([H])([H])C([H])(n5nc(-c6c([H])c([H])c(Oc7c([H])c([H])c(F)c([H])c7F)c([H])c6[H])c(C(=O)N([H])[H])c5N([H])[H])C4([H])[H])c([H])c([H])c3C([H])([H])[H])c([H])c([H])c2C1([H])[H]

>  <smiles>  (84) 
[H]c1c([H])c([H])c2c(c1[H])C([H])([H])C([H])([H])C([H])([H])C2([H])N([H])C(=O)C1([H])N(C(=O)C([H])(N([H])C(=O)C([H])(N([H])C([H])([H])[H])C([H])([H])[H])C(C([H])([H])[H])(C([H])([H])[H])C([H])([H])[H])C([H])([H])c2c([H])c(OC([H])([H])C([H])([H])C([H])([H])c3c([H])c(C(=O)C([H])([H])C([H])([H])C([H])([H])C(=O)N4C([H])([H])C([H])([H])C([H])([H])C([H])(n5nc(-c6c([H])c([H])c(Oc7c([H])c([H])c(F)c([H])c7F)c([H])c6[H])c(C(=O)N([H])[H])c5N([H])[H])C4([H])[H])c([H])c([H])c3C([H])([H])[H])c([H])c([H])c2C1([H])[H]

$$$$
85:0:0
     RDKit          3D

 95103  0  0  1  0  0  0  0  0999 V2000
  -32.7100  -21.6720   20.3910 C   0  0  0  0  0  3  0  0  0  0  0  0
  -33.6000  -20.7580   20.9830 C   0  0  0  0  0  3  0  0  0  0  0  0
  -30.9180  -20.8060   21.7800 C   0  0  0  0  0  3  0  0  0  0  0  0
  -31.3540  -21.7020   20.7810 C   0  0  0  0  0  0  0  0  0  0  0  0
  -33.1620  -19.8650   21.9820 C   0  0  0  0  0  0  0  0  0  0  0  0
  -31.8020  -19.8890   22.3910 C   0  0  0  0  0  0  0  0  0  0  0  0
  -34.1690  -18.9000   22.5840 C   0  0  0  0  0  1  0  0  0  0  0  0
  -30.6620  -19.7190   24.6530 C   0  0  0  0  0  1  0  0  0  0  0  0
  -31.2540  -18.9420   23.4650 C   0  0  0  0  0  3  0  0  0  0  0  0
  -30.2370  -17.9350   22.8910 C   0  0  0  0  0  2  0  0  0  0  0  0
  -30.8460  -16.9390   21.8860 C   0  0  0  0  0  2  0  0  0  0  0  0
  -29.9190  -15.7380   21.6160 C   0  0  0  0  0  2  0  0  0  0  0  0
  -30.5170  -14.6710   20.6800 C   0  0  0  0  0  0  0  0  0  0  0  0
  -30.5070  -12.3370   19.8580 C   0  0  0  0  0  2  0  0  0  0  0  0
  -29.6150  -12.1550   18.6190 C   0  0  0  0  0  2  0  0  0  0  0  0
  -28.1510  -11.9030   19.0300 C   0  0  0  0  0  2  0  0  0  0  0  0
  -27.6390  -12.9430   20.0610 C   0  0  0  0  0  3  0  0  0  0  0  0
  -28.6390  -13.0970   21.2260 C   0  0  0  0  0  2  0  0  0  0  0  0
  -29.9590  -13.4350   20.6650 N   0  0  0  0  0  0  0  0  0  0  0  0
  -31.5070  -14.9590   19.9980 O   0  0  0  0  0  0  0  0  0  0  0  0
  -25.2170  -13.4330   20.7910 C   0  0  0  0  0  0  0  0  0  0  0  0
  -24.1850  -12.6060   21.1500 C   0  0  0  0  0  0  0  0  0  0  0  0
  -24.7070  -11.2770   21.0890 C   0  0  0  0  0  0  0  0  0  0  0  0
  -26.3000  -12.6040   20.5390 N   0  0  0  0  0  0  0  0  0  0  0  0
  -25.9940  -11.3010   20.7730 N   0  0  0  0  0  0  0  0  0  0  0  0
  -24.0390   -9.9800   21.2590 C   0  0  0  0  0  0  0  0  0  0  0  0
  -24.4350   -9.0720   22.2660 C   0  0  0  0  0  3  0  0  0  0  0  0
  -23.7670   -7.8390   22.4200 C   0  0  0  0  0  3  0  0  0  0  0  0
  -22.6900   -7.5030   21.5660 C   0  0  0  0  0  0  0  0  0  0  0  0
  -22.3150   -8.4000   20.5500 C   0  0  0  0  0  3  0  0  0  0  0  0
  -22.9850   -9.6250   20.3940 C   0  0  0  0  0  3  0  0  0  0  0  0
  -22.0000   -6.3170   21.6240 O   0  0  0  0  0  0  0  0  0  0  0  0
  -21.7930   -5.6630   22.8120 C   0  0  0  0  0  0  0  0  0  0  0  0
  -21.1100   -6.2700   23.8880 C   0  0  0  0  0  3  0  0  0  0  0  0
  -20.8590   -5.5370   25.0660 C   0  0  0  0  0  3  0  0  0  0  0  0
  -21.2800   -4.1970   25.1650 C   0  0  0  0  0  0  0  0  0  0  0  0
  -21.9550   -3.5880   24.0920 C   0  0  0  0  0  3  0  0  0  0  0  0
  -22.2070   -4.3190   22.9180 C   0  0  0  0  0  0  0  0  0  0  0  0
  -22.8380   -3.7220   21.8780 F   0  0  0  0  0  0  0  0  0  0  0  0
  -21.0310   -3.4890   26.2920 F   0  0  0  0  0  0  0  0  0  0  0  0
  -22.7700  -13.0150   21.4420 C   0  0  0  0  0  0  0  0  0  0  0  0
  -22.0860  -12.2770   22.3100 N   0  0  0  0  0  0  0  0  0  0  0  0
  -22.2770  -14.0230   20.9380 O   0  0  0  0  0  0  0  0  0  0  0  0
  -22.4940  -11.4600   22.7390 H   0  0  0  0  0  0  0  0  0  0  0  0
  -21.1360  -12.5310   22.5460 H   0  0  0  0  0  0  0  0  0  0  0  0
  -25.3200  -14.8130   20.6390 N   0  0  0  0  0  0  0  0  0  0  0  0
  -24.5290  -15.4340   20.7680 H   0  0  0  0  0  0  0  0  0  0  0  0
  -26.1580  -15.2940   20.3380 H   0  0  0  0  0  0  0  0  0  0  0  0
  -30.3840  -22.6500   20.2050 C   0  0  0  0  0  3  0  0  0  0  0  0
  -30.6770  -23.7380   19.4630 C   0  0  0  0  0  3  0  0  0  0  0  0
  -29.6210  -24.6110   18.9250 C   0  0  0  0  0  0  0  0  0  0  0  0
  -28.4210  -24.3180   18.9730 O   0  0  0  0  0  0  0  0  0  0  0  0
  -30.0730  -25.9200   18.2680 C   0  0  0  0  0  2  0  0  0  0  0  0
  -28.9590  -26.9670   18.0890 C   0  0  0  0  0  2  0  0  0  0  0  0
  -28.5850  -27.4940   19.3620 O   0  0  0  0  0  0  0  0  0  0  0  0
  -24.3840  -31.6690   23.2800 C   0  0  0  0  0  0  0  0  0  0  0  0
  -27.3280  -28.0430   19.4910 C   0  0  0  0  0  0  0  0  0  0  0  0
  -23.2520  -30.4020   21.4810 C   0  0  0  0  0  3  0  0  0  0  0  0
  -24.7900  -29.2440   19.8090 C   0  0  0  0  0  0  0  0  0  0  0  0
  -25.7170  -31.0460   21.2710 C   0  0  0  0  0  2  0  0  0  0  0  0
  -25.9100  -29.7970   20.4390 C   0  0  0  0  0  0  0  0  0  0  0  0
  -27.1770  -29.1960   20.2910 C   0  0  0  0  0  3  0  0  0  0  0  0
  -26.1820  -27.4810   18.8810 C   0  0  0  0  0  3  0  0  0  0  0  0
  -24.9180  -28.0780   19.0360 C   0  0  0  0  0  3  0  0  0  0  0  0
  -23.4700  -29.9510   20.0120 C   0  0  0  0  0  2  0  0  0  0  0  0
  -24.4700  -31.0470   22.0710 N   0  0  0  0  0  0  0  0  0  0  0  0
  -23.3040  -31.7490   23.8830 O   0  0  0  0  0  0  0  0  0  0  0  0
  -22.7460  -29.1910   22.2970 C   0  0  0  0  0  0  0  0  0  0  0  0
  -21.4380  -28.9090   22.1960 N   0  0  0  0  0  0  0  0  0  0  0  0
  -23.5240  -28.5160   22.9760 O   0  0  0  0  0  0  0  0  0  0  0  0
  -20.8670  -29.5140   21.6240 H   0  0  0  0  0  0  0  0  0  0  0  0
  -18.2010  -27.3720   22.6630 C   0  0  0  0  0  0  0  0  0  0  0  0
  -20.7450  -27.7950   22.8440 C   0  0  0  0  0  3  0  0  0  0  0  0
  -20.9180  -26.4870   22.0370 C   0  0  0  0  0  2  0  0  0  0  0  0
  -19.7810  -26.2400   21.0410 C   0  0  0  0  0  2  0  0  0  0  0  0
  -18.4340  -26.1670   21.7670 C   0  0  0  0  0  2  0  0  0  0  0  0
  -19.2860  -28.1460   23.1550 C   0  0  0  0  0  0  0  0  0  0  0  0
  -19.0130  -29.2780   23.9530 C   0  0  0  0  0  3  0  0  0  0  0  0
  -17.6880  -29.6370   24.2650 C   0  0  0  0  0  3  0  0  0  0  0  0
  -16.6190  -28.8580   23.7890 C   0  0  0  0  0  3  0  0  0  0  0  0
  -16.8770  -27.7270   22.9940 C   0  0  0  0  0  3  0  0  0  0  0  0
  -25.6280  -32.3320   23.9490 C   0  0  0  0  0  3  0  0  0  0  0  0
  -25.2660  -33.7160   24.2820 N   0  0  0  0  0  0  0  0  0  0  0  0
  -25.6130  -34.7870   23.5580 C   0  0  0  0  0  0  0  0  0  0  0  0
  -26.3440  -34.7170   22.5660 O   0  0  0  0  0  0  0  0  0  0  0  0
  -24.6270  -33.8450   25.0530 H   0  0  0  0  0  0  0  0  0  0  0  0
  -23.8630  -36.5370   23.1220 C   0  0  0  0  0  1  0  0  0  0  0  0
  -25.0630  -36.1550   24.0050 C   0  0  0  0  0  3  0  0  0  0  0  0
  -27.1220  -37.0740   24.9740 C   0  0  0  0  0  1  0  0  0  0  0  0
  -26.0710  -37.2370   23.9730 N   0  0  0  0  0  0  0  0  0  0  0  0
  -25.6310  -38.1420   24.1200 H   0  0  0  0  0  0  0  0  0  0  0  0
  -26.1270  -31.5610   25.2330 C   0  0  1  0  0  0  0  0  0  0  0  0
  -25.0080  -31.2730   26.2600 C   0  0  0  0  0  1  0  0  0  0  0  0
  -26.7660  -30.2080   24.8410 C   0  0  0  0  0  1  0  0  0  0  0  0
  -27.2280  -32.3830   25.9450 C   0  0  0  0  0  1  0  0  0  0  0  0
  1  4  2  0
  1  2  1  0
  2  5  2  0
  3  6  2  0
  4  3  1  0
  5  6  1  0
  5  7  1  0
  6  9  1  0
  9  8  1  0
 10  9  1  0
 11 10  1  0
 12 11  1  0
 13 12  1  0
 14 19  1  0
 15 16  1  0
 15 14  1  0
 17 16  1  0
 17 24  1  0
 17 18  1  0
 19 13  1  0
 19 18  1  0
 20 13  2  0
 21 22  2  0
 22 41  1  0
 23 22  1  0
 23 26  1  0
 24 25  1  0
 24 21  1  0
 25 23  2  0
 26 27  1  0
 27 28  2  0
 29 32  1  0
 29 28  1  0
 30 29  2  0
 31 30  1  0
 31 26  2  0
 32 33  1  0
 33 38  2  0
 33 34  1  0
 34 35  2  0
 35 36  1  0
 36 40  1  0
 37 36  2  0
 38 37  1  0
 39 38  1  0
 41 42  1  0
 42 45  1  0
 42 44  1  0
 43 41  2  0
 46 47  1  0
 46 21  1  0
 48 46  1  0
 49  4  1  0
 50 49  2  0
 51 52  2  0
 51 50  1  0
 53 51  1  0
 54 53  1  0
 54 55  1  0
 55 57  1  0
 56 67  2  0
 57 62  1  0
 58 66  1  0
 58 68  1  0
 59 65  1  0
 59 61  1  0
 60 66  1  0
 61 60  1  0
 62 61  2  0
 63 64  1  0
 63 57  2  0
 64 59  2  0
 65 58  1  0
 66 56  1  0
 68 70  2  0
 69 68  1  0
 71 69  1  0
 72 81  2  0
 72 77  1  0
 73 69  1  0
 73 77  1  0
 74 73  1  0
 75 76  1  0
 75 74  1  0
 76 72  1  0
 77 78  2  0
 78 79  1  0
 80 79  2  0
 81 80  1  0
 82 56  1  0
 82 83  1  0
 82 92  1  0
 83 86  1  0
 84 88  1  0
 84 83  1  0
 85 84  2  0
 88 87  1  0
 90 88  1  0
 90 91  1  0
 90 89  1  0
 92 95  1  1
 92 93  1  0
 94 92  1  0
M  ISO  4  12 100  13 100  54 101  55 101
M  END
>  <TORSDO>  (85) 
F 24

>  <SCORE>  (85) 
-7.964

>  <name>  (85) 
85

>  <ligand_id>  (85) 
85

>  <original_smiles>  (85) 
[H]C(C(=O)C([H])([H])C([H])([H])Oc1c([H])c([H])c2c(c1[H])C([H])([H])N(C(=O)C([H])(N([H])C(=O)C([H])(N([H])C([H])([H])[H])C([H])([H])[H])C(C([H])([H])[H])(C([H])([H])[H])C([H])([H])[H])C([H])(C(=O)N([H])C1([H])c3c([H])c([H])c([H])c([H])c3C([H])([H])C([H])([H])C1([H])[H])C2([H])[H])=C([H])c1c([H])c([H])c(C([H])([H])[H])c(C([H])(C([H])([H])[H])C([H])([H])C([H])([H])C([H])([H])C(=O)N2C([H])([H])C([H])([H])C([H])([H])C([H])(n3nc(-c4c([H])c([H])c(Oc5c([H])c([H])c(F)c([H])c5F)c([H])c4[H])c(C(=O)N([H])[H])c3N([H])[H])C2([H])[H])c1[H]

>  <smiles>  (85) 
[H]C(C(=O)C([H])([H])C([H])([H])Oc1c([H])c([H])c2c(c1[H])C([H])([H])N(C(=O)C([H])(N([H])C(=O)C([H])(N([H])C([H])([H])[H])C([H])([H])[H])C(C([H])([H])[H])(C([H])([H])[H])C([H])([H])[H])C([H])(C(=O)N([H])C1([H])c3c([H])c([H])c([H])c([H])c3C([H])([H])C([H])([H])C1([H])[H])C2([H])[H])=C([H])c1c([H])c([H])c(C([H])([H])[H])c(C([H])(C([H])([H])[H])C([H])([H])C([H])([H])C([H])([H])C(=O)N2C([H])([H])C([H])([H])C([H])([H])C([H])(n3nc(-c4c([H])c([H])c(Oc5c([H])c([H])c(F)c([H])c5F)c([H])c4[H])c(C(=O)N([H])[H])c3N([H])[H])C2([H])[H])c1[H]

$$$$
86:0:0
     RDKit          3D

 95104  0  0  1  0  0  0  0  0999 V2000
  -29.2220  -22.2400   21.1730 C   0  0  0  0  0  3  0  0  0  0  0  0
  -28.6940  -20.9490   21.3440 C   0  0  0  0  0  3  0  0  0  0  0  0
  -28.4330  -20.7460   18.9400 C   0  0  0  0  0  3  0  0  0  0  0  0
  -29.4170  -22.7980   19.8820 C   0  0  0  0  0  0  0  0  0  0  0  0
  -28.3410  -20.1780   20.2240 C   0  0  0  0  0  0  0  0  0  0  0  0
  -28.9640  -22.0430   18.7550 C   0  0  0  0  0  0  0  0  0  0  0  0
  -29.0430  -22.5570   17.3230 C   0  0  0  0  0  1  0  0  0  0  0  0
  -30.1630  -24.1030   19.7430 C   0  0  0  0  0  0  0  0  0  0  0  0
  -30.5710  -24.5460   18.6640 O   0  0  0  0  0  0  0  0  0  0  0  0
  -30.4730  -24.9300   20.9980 C   0  0  0  0  0  2  0  0  0  0  0  0
  -29.2890  -25.8040   21.4280 C   0  0  0  0  0  2  0  0  0  0  0  0
  -29.1810  -26.8680   20.4930 O   0  0  0  0  0  0  0  0  0  0  0  0
  -24.9260  -31.7680   23.3990 C   0  0  0  0  0  0  0  0  0  0  0  0
  -27.9730  -27.5050   20.4920 C   0  0  0  0  0  0  0  0  0  0  0  0
  -23.8940  -30.3160   21.6780 C   0  0  0  0  0  3  0  0  0  0  0  0
  -25.5090  -28.8530   20.3560 C   0  0  0  0  0  0  0  0  0  0  0  0
  -26.4000  -30.8070   21.6400 C   0  0  0  0  0  2  0  0  0  0  0  0
  -26.5940  -29.4420   21.0180 C   0  0  0  0  0  0  0  0  0  0  0  0
  -27.8320  -28.7730   21.0880 C   0  0  0  0  0  3  0  0  0  0  0  0
  -26.8780  -26.9130   19.8330 C   0  0  0  0  0  3  0  0  0  0  0  0
  -25.6420  -27.5830   19.7650 C   0  0  0  0  0  3  0  0  0  0  0  0
  -24.2240  -29.6480   20.3160 C   0  0  0  0  0  2  0  0  0  0  0  0
  -25.0870  -30.9780   22.3000 N   0  0  0  0  0  0  0  0  0  0  0  0
  -23.8020  -31.9840   23.8710 O   0  0  0  0  0  0  0  0  0  0  0  0
  -23.2320  -29.2630   22.5950 C   0  0  0  0  0  0  0  0  0  0  0  0
  -21.9360  -29.0010   22.3630 N   0  0  0  0  0  0  0  0  0  0  0  0
  -23.8860  -28.6820   23.4650 O   0  0  0  0  0  0  0  0  0  0  0  0
  -21.4700  -29.5250   21.6360 H   0  0  0  0  0  0  0  0  0  0  0  0
  -18.6080  -27.6260   22.6090 C   0  0  0  0  0  0  0  0  0  0  0  0
  -21.1190  -28.0220   23.0750 C   0  0  0  0  0  3  0  0  0  0  0  0
  -21.3440  -26.6000   22.5140 C   0  0  0  0  0  2  0  0  0  0  0  0
  -20.3420  -26.2190   21.4190 C   0  0  0  0  0  2  0  0  0  0  0  0
  -18.9080  -26.2890   21.9530 C   0  0  0  0  0  2  0  0  0  0  0  0
  -19.6470  -28.4470   23.1220 C   0  0  0  0  0  0  0  0  0  0  0  0
  -19.3150  -29.6980   23.6870 C   0  0  0  0  0  3  0  0  0  0  0  0
  -17.9770  -30.1280   23.7500 C   0  0  0  0  0  3  0  0  0  0  0  0
  -16.9510  -29.3040   23.2550 C   0  0  0  0  0  3  0  0  0  0  0  0
  -17.2670  -28.0550   22.6910 C   0  0  0  0  0  3  0  0  0  0  0  0
  -26.1400  -32.4550   24.1010 C   0  0  0  0  0  3  0  0  0  0  0  0
  -26.5880  -31.7200   25.4240 C   0  0  1  0  0  0  0  0  0  0  0  0
  -25.4240  -31.4280   26.3980 C   0  0  0  0  0  1  0  0  0  0  0  0
  -27.2740  -30.3730   25.0950 C   0  0  0  0  0  1  0  0  0  0  0  0
  -27.6360  -32.5770   26.1730 C   0  0  0  0  0  1  0  0  0  0  0  0
  -25.7620  -33.8470   24.3790 N   0  0  0  0  0  0  0  0  0  0  0  0
  -26.1190  -34.8950   23.6260 C   0  0  0  0  0  0  0  0  0  0  0  0
  -26.8730  -34.7960   22.6530 O   0  0  0  0  0  0  0  0  0  0  0  0
  -25.1020  -33.9950   25.1280 H   0  0  0  0  0  0  0  0  0  0  0  0
  -24.3660  -36.6180   23.0950 C   0  0  0  0  0  1  0  0  0  0  0  0
  -25.5510  -36.2740   24.0130 C   0  0  0  0  0  3  0  0  0  0  0  0
  -27.5840  -37.2440   24.9890 C   0  0  0  0  0  1  0  0  0  0  0  0
  -26.5530  -37.3600   23.9600 N   0  0  0  0  0  0  0  0  0  0  0  0
  -26.1070  -38.2680   24.0600 H   0  0  0  0  0  0  0  0  0  0  0  0
  -27.9770  -18.7130   20.4070 C   0  0  0  0  0  2  0  0  0  0  0  0
  -31.3130  -14.1640   19.6080 C   0  0  0  0  0  0  0  0  0  0  0  0
  -30.9160  -11.8260   18.9400 C   0  0  0  0  0  2  0  0  0  0  0  0
  -29.9070  -11.7630   17.7750 C   0  0  0  0  0  2  0  0  0  0  0  0
  -28.4610  -11.7330   18.3050 C   0  0  0  0  0  2  0  0  0  0  0  0
  -28.1910  -12.8380   19.3590 C   0  0  0  0  0  3  0  0  0  0  0  0
  -29.3000  -12.8510   20.4280 C   0  0  0  0  0  2  0  0  0  0  0  0
  -30.5980  -13.0140   19.7480 N   0  0  0  0  0  0  0  0  0  0  0  0
  -32.3780  -14.2010   18.9780 O   0  0  0  0  0  0  0  0  0  0  0  0
  -29.5830  -17.3230   18.9690 C   0  0  0  0  0  2  0  0  0  0  0  0
  -29.1850  -16.6360   21.3700 C   0  0  0  0  0  2  0  0  0  0  0  0
  -30.8340  -16.4440   18.9720 C   0  0  0  0  0  2  0  0  0  0  0  0
  -30.4830  -15.7990   21.2790 C   0  0  0  0  0  2  0  0  0  0  0  0
  -29.2430  -17.8250   20.3880 C   0  0  0  0  0  3  0  0  0  0  0  0
  -30.6680  -15.3180   19.9000 N   0  0  0  0  0  0  0  0  0  0  0  0
  -25.9600  -13.6680   20.3450 C   0  0  0  0  0  0  0  0  0  0  0  0
  -24.8560  -12.9960   20.7970 C   0  0  0  0  0  0  0  0  0  0  0  0
  -25.1570  -11.6050   20.6640 C   0  0  0  0  0  0  0  0  0  0  0  0
  -26.8690  -12.6910   19.9670 N   0  0  0  0  0  0  0  0  0  0  0  0
  -26.3950  -11.4440   20.2150 N   0  0  0  0  0  0  0  0  0  0  0  0
  -24.3190  -10.4200   20.8820 C   0  0  0  0  0  0  0  0  0  0  0  0
  -24.6770   -9.4220   21.8150 C   0  0  0  0  0  3  0  0  0  0  0  0
  -23.8450   -8.3000   22.0180 C   0  0  0  0  0  3  0  0  0  0  0  0
  -22.6410   -8.1680   21.2860 C   0  0  0  0  0  0  0  0  0  0  0  0
  -22.3000   -9.1530   20.3430 C   0  0  0  0  0  3  0  0  0  0  0  0
  -23.1320  -10.2670   20.1390 C   0  0  0  0  0  3  0  0  0  0  0  0
  -21.7830   -7.1010   21.3990 O   0  0  0  0  0  0  0  0  0  0  0  0
  -21.6160   -6.4340   22.5850 C   0  0  0  0  0  0  0  0  0  0  0  0
  -21.1990   -7.0970   23.7610 C   0  0  0  0  0  3  0  0  0  0  0  0
  -20.9720   -6.3630   24.9410 C   0  0  0  0  0  3  0  0  0  0  0  0
  -21.1510   -4.9670   24.9490 C   0  0  0  0  0  0  0  0  0  0  0  0
  -21.5610   -4.3030   23.7780 C   0  0  0  0  0  3  0  0  0  0  0  0
  -21.7890   -5.0360   22.6000 C   0  0  0  0  0  0  0  0  0  0  0  0
  -22.1630   -4.3890   21.4690 F   0  0  0  0  0  0  0  0  0  0  0  0
  -20.9260   -4.2590   26.0800 F   0  0  0  0  0  0  0  0  0  0  0  0
  -23.5570  -13.6050   21.2390 C   0  0  0  0  0  0  0  0  0  0  0  0
  -22.8600  -12.9590   22.1680 N   0  0  0  0  0  0  0  0  0  0  0  0
  -23.1740  -14.6850   20.7940 O   0  0  0  0  0  0  0  0  0  0  0  0
  -23.1850  -12.0820   22.5490 H   0  0  0  0  0  0  0  0  0  0  0  0
  -21.9910  -13.3490   22.5050 H   0  0  0  0  0  0  0  0  0  0  0  0
  -26.2600  -15.0190   20.2040 N   0  0  0  0  0  0  0  0  0  0  0  0
  -25.5930  -15.7490   20.4260 H   0  0  0  0  0  0  0  0  0  0  0  0
  -27.1280  -15.3730   19.8230 H   0  0  0  0  0  0  0  0  0  0  0  0
  1  2  1  0
  3  5  1  0
  4  1  2  0
  5 53  1  0
  5  2  2  0
  6  3  2  0
  6  4  1  0
  7  6  1  0
  8  4  1  0
  8 10  1  0
  9  8  2  0
 10 11  1  0
 12 11  1  0
 13 24  2  0
 14 12  1  0
 14 19  1  0
 15 23  1  0
 15 25  1  0
 16 18  1  0
 17 23  1  0
 18 19  2  0
 18 17  1  0
 20 14  2  0
 21 20  1  0
 21 16  2  0
 22 16  1  0
 22 15  1  0
 23 13  1  0
 25 27  2  0
 26 25  1  0
 28 26  1  0
 29 38  2  0
 29 34  1  0
 30 26  1  0
 30 34  1  0
 31 30  1  0
 32 33  1  0
 32 31  1  0
 33 29  1  0
 34 35  2  0
 35 36  1  0
 37 36  2  0
 38 37  1  0
 39 13  1  0
 39 44  1  0
 39 40  1  0
 40 43  1  1
 40 41  1  0
 42 40  1  0
 44 47  1  0
 45 49  1  0
 45 44  1  0
 46 45  2  0
 49 48  1  0
 51 49  1  0
 51 52  1  0
 51 50  1  0
 54 60  1  0
 54 67  1  0
 55 60  1  0
 56 57  1  0
 56 55  1  0
 58 57  1  0
 58 71  1  0
 58 59  1  0
 60 59  1  0
 61 54  2  0
 62 64  1  0
 62 66  1  0
 64 67  1  0
 65 63  1  0
 66 53  1  0
 66 63  1  0
 67 65  1  0
 68 69  2  0
 69 88  1  0
 70 69  1  0
 70 73  1  0
 71 72  1  0
 71 68  1  0
 72 70  2  0
 73 74  1  0
 74 75  2  0
 76 79  1  0
 76 75  1  0
 77 76  2  0
 78 77  1  0
 78 73  2  0
 79 80  1  0
 80 85  2  0
 80 81  1  0
 81 82  2  0
 82 83  1  0
 83 87  1  0
 84 83  2  0
 85 84  1  0
 86 85  1  0
 88 89  1  0
 89 92  1  0
 89 91  1  0
 90 88  2  0
 93 68  1  0
 93 94  1  0
 95 93  1  0
M  ISO  4  11 101  12 101  54 100  67 100
M  END
>  <TORSDO>  (86) 
F 20

>  <SCORE>  (86) 
-12.902

>  <name>  (86) 
86

>  <ligand_id>  (86) 
86

>  <original_smiles>  (86) 
[H]c1c([H])c([H])c2c(c1[H])C([H])([H])C([H])([H])C([H])([H])C2([H])N([H])C(=O)C1([H])N(C(=O)C([H])(N([H])C(=O)C([H])(N([H])C([H])([H])[H])C([H])([H])[H])C(C([H])([H])[H])(C([H])([H])[H])C([H])([H])[H])C([H])([H])c2c([H])c(OC([H])([H])C([H])([H])C(=O)c3c([H])c([H])c(C([H])([H])C4([H])C([H])([H])C([H])([H])N(C(=O)N5C([H])([H])C([H])([H])C([H])([H])C([H])(n6nc(-c7c([H])c([H])c(Oc8c([H])c([H])c(F)c([H])c8F)c([H])c7[H])c(C(=O)N([H])[H])c6N([H])[H])C5([H])[H])C([H])([H])C4([H])[H])c([H])c3C([H])([H])[H])c([H])c([H])c2C1([H])[H]

>  <smiles>  (86) 
[H]c1c([H])c([H])c2c(c1[H])C([H])([H])C([H])([H])C([H])([H])C2([H])N([H])C(=O)C1([H])N(C(=O)C([H])(N([H])C(=O)C([H])(N([H])C([H])([H])[H])C([H])([H])[H])C(C([H])([H])[H])(C([H])([H])[H])C([H])([H])[H])C([H])([H])c2c([H])c(OC([H])([H])C([H])([H])C(=O)c3c([H])c([H])c(C([H])([H])C4([H])C([H])([H])C([H])([H])N(C(=O)N5C([H])([H])C([H])([H])C([H])([H])C([H])(n6nc(-c7c([H])c([H])c(Oc8c([H])c([H])c(F)c([H])c8F)c([H])c7[H])c(C(=O)N([H])[H])c6N([H])[H])C5([H])[H])C([H])([H])C4([H])[H])c([H])c3C([H])([H])[H])c([H])c([H])c2C1([H])[H]

$$$$
87:0:0
     RDKit          3D

 91 98  0  0  1  0  0  0  0  0999 V2000
  -25.4620  -23.2130   21.1760 C   0  0  0  0  0  2  0  0  0  0  0  0
  -26.5890  -24.2110   20.8560 C   0  0  0  0  0  2  0  0  0  0  0  0
  -27.8950  -23.5460   20.3970 C   0  0  0  0  0  2  0  0  0  0  0  0
  -29.0750  -24.5240   20.4950 C   0  0  0  0  0  2  0  0  0  0  0  0
  -30.4320  -23.8560   20.7850 C   0  0  0  0  0  2  0  0  0  0  0  0
  -31.4570  -24.8450   20.8960 O   0  0  0  0  0  0  0  0  0  0  0  0
  -35.9500  -28.0920   16.4490 C   0  0  0  0  0  0  0  0  0  0  0  0
  -32.6010  -24.7130   20.1340 C   0  0  0  0  0  0  0  0  0  0  0  0
  -36.2880  -25.6580   16.7210 C   0  0  0  0  0  3  0  0  0  0  0  0
  -34.9800  -24.5640   18.6100 C   0  0  0  0  0  0  0  0  0  0  0  0
  -35.2490  -27.0470   18.6000 C   0  0  0  0  0  2  0  0  0  0  0  0
  -34.4800  -25.8090   19.0060 C   0  0  0  0  0  0  0  0  0  0  0  0
  -33.2930  -25.8870   19.7650 C   0  0  0  0  0  3  0  0  0  0  0  0
  -33.1190  -23.4640   19.7140 C   0  0  0  0  0  3  0  0  0  0  0  0
  -34.3010  -23.3860   18.9570 C   0  0  0  0  0  3  0  0  0  0  0  0
  -36.2630  -24.5590   17.8130 C   0  0  0  0  0  2  0  0  0  0  0  0
  -35.8050  -26.9840   17.2270 N   0  0  0  0  0  0  0  0  0  0  0  0
  -36.5120  -28.0330   15.3470 O   0  0  0  0  0  0  0  0  0  0  0  0
  -35.5010  -25.1480   15.4930 C   0  0  0  0  0  0  0  0  0  0  0  0
  -36.2320  -24.6680   14.4730 N   0  0  0  0  0  0  0  0  0  0  0  0
  -34.2670  -25.1600   15.4820 O   0  0  0  0  0  0  0  0  0  0  0  0
  -37.2390  -24.7030   14.5570 H   0  0  0  0  0  0  0  0  0  0  0  0
  -37.1160  -23.7670   11.0900 C   0  0  0  0  0  0  0  0  0  0  0  0
  -35.7100  -24.0980   13.2320 C   0  0  0  0  0  3  0  0  0  0  0  0
  -35.6500  -22.5540   13.3090 C   0  0  0  0  0  2  0  0  0  0  0  0
  -36.9040  -21.8740   12.7540 C   0  0  0  0  0  2  0  0  0  0  0  0
  -37.1230  -22.2620   11.2880 C   0  0  0  0  0  2  0  0  0  0  0  0
  -36.4670  -24.6310   12.0100 C   0  0  0  0  0  0  0  0  0  0  0  0
  -36.5230  -26.0260   11.7970 C   0  0  0  0  0  3  0  0  0  0  0  0
  -37.2050  -26.5580   10.6870 C   0  0  0  0  0  3  0  0  0  0  0  0
  -37.8320  -25.6970    9.7700 C   0  0  0  0  0  3  0  0  0  0  0  0
  -37.7830  -24.3070    9.9700 C   0  0  0  0  0  3  0  0  0  0  0  0
  -35.4370  -29.4920   16.9130 C   0  0  0  0  0  3  0  0  0  0  0  0
  -34.0220  -29.8650   16.3200 C   0  0  1  0  0  0  0  0  0  0  0  0
  -33.9340  -29.7190   14.7820 C   0  0  0  0  0  1  0  0  0  0  0  0
  -32.9190  -28.9780   16.9420 C   0  0  0  0  0  1  0  0  0  0  0  0
  -33.6720  -31.3290   16.6800 C   0  0  0  0  0  1  0  0  0  0  0  0
  -36.4460  -30.4840   16.5200 N   0  0  0  0  0  0  0  0  0  0  0  0
  -37.3650  -31.0010   17.3470 C   0  0  0  0  0  0  0  0  0  0  0  0
  -37.4030  -30.7410   18.5530 O   0  0  0  0  0  0  0  0  0  0  0  0
  -36.5040  -30.7080   15.5370 H   0  0  0  0  0  0  0  0  0  0  0  0
  -39.7280  -31.2070   16.5130 C   0  0  0  0  0  1  0  0  0  0  0  0
  -38.4070  -31.9590   16.7410 C   0  0  0  0  0  3  0  0  0  0  0  0
  -37.5140  -34.0750   17.6150 C   0  0  0  0  0  1  0  0  0  0  0  0
  -38.6530  -33.1610   17.5680 N   0  0  0  0  0  0  0  0  0  0  0  0
  -39.4580  -33.6780   17.2250 H   0  0  0  0  0  0  0  0  0  0  0  0
  -24.1610  -23.9220   21.6350 C   0  0  0  0  0  2  0  0  0  0  0  0
  -24.1060  -24.2000   23.0890 N   0  0  0  0  0  4  0  0  0  0  0  0
  -23.1670  -24.0070   23.4000 H   0  0  0  0  0  0  0  0  0  0  0  0
  -24.7140  -23.5510   23.5610 H   0  0  0  0  0  0  0  0  0  0  0  0
  -24.4620  -25.5770   23.5000 C   0  0  0  0  0  2  0  0  0  0  0  0
  -23.4280  -26.1720   24.4710 C   0  0  0  0  0  2  0  0  0  0  0  0
  -24.0780  -26.9390   25.6360 C   0  0  0  0  0  2  0  0  0  0  0  0
  -23.0520  -27.6520   26.5430 C   0  0  0  0  0  2  0  0  0  0  0  0
  -22.8130  -26.8640   27.8450 C   0  0  0  0  0  2  0  0  0  0  0  0
  -22.6640  -27.6230   29.1810 C   0  0  0  0  0  0  0  0  0  0  0  0
  -21.2280  -27.5650   31.1700 C   0  0  0  0  0  2  0  0  0  0  0  0
  -20.6970  -26.1200   31.3030 C   0  0  0  0  0  2  0  0  0  0  0  0
  -19.4110  -25.9170   30.4680 C   0  0  0  0  0  2  0  0  0  0  0  0
  -19.5430  -26.4560   29.0160 C   0  0  0  0  0  3  0  0  0  0  0  0
  -20.1530  -27.8750   29.0330 C   0  0  0  0  0  2  0  0  0  0  0  0
  -21.4390  -27.8170   29.7400 N   0  0  0  0  0  0  0  0  0  0  0  0
  -23.7050  -27.7520   29.8300 O   0  0  0  0  0  0  0  0  0  0  0  0
  -18.0160  -26.2020   26.9600 C   0  0  0  0  0  0  0  0  0  0  0  0
  -16.6560  -26.1900   26.8250 C   0  0  0  0  0  0  0  0  0  0  0  0
  -16.1310  -26.3860   28.1390 C   0  0  0  0  0  0  0  0  0  0  0  0
  -18.2670  -26.4160   28.3060 N   0  0  0  0  0  0  0  0  0  0  0  0
  -17.1160  -26.5760   29.0070 N   0  0  0  0  0  0  0  0  0  0  0  0
  -14.7470  -26.3500   28.6280 C   0  0  0  0  0  0  0  0  0  0  0  0
  -13.7780  -27.2680   28.1650 C   0  0  0  0  0  3  0  0  0  0  0  0
  -12.4500  -27.2040   28.6400 C   0  0  0  0  0  3  0  0  0  0  0  0
  -12.0800  -26.2110   29.5790 C   0  0  0  0  0  0  0  0  0  0  0  0
  -13.0550  -25.3160   30.0520 C   0  0  0  0  0  3  0  0  0  0  0  0
  -14.3780  -25.3830   29.5840 C   0  0  0  0  0  3  0  0  0  0  0  0
  -10.8220  -26.0880   30.1130 O   0  0  0  0  0  0  0  0  0  0  0  0
   -9.8520  -25.3320   29.5050 C   0  0  0  0  0  0  0  0  0  0  0  0
  -10.0040  -23.9410   29.3070 C   0  0  0  0  0  3  0  0  0  0  0  0
   -8.9530  -23.1940   28.7390 C   0  0  0  0  0  3  0  0  0  0  0  0
   -7.7510  -23.8300   28.3790 C   0  0  0  0  0  0  0  0  0  0  0  0
   -7.5960  -25.2120   28.5820 C   0  0  0  0  0  3  0  0  0  0  0  0
   -8.6430  -25.9600   29.1450 C   0  0  0  0  0  0  0  0  0  0  0  0
   -8.4810  -27.2890   29.3570 F   0  0  0  0  0  0  0  0  0  0  0  0
   -6.7380  -23.1100   27.8400 F   0  0  0  0  0  0  0  0  0  0  0  0
  -15.8850  -25.9120   25.5650 C   0  0  0  0  0  0  0  0  0  0  0  0
  -14.8290  -26.6740   25.3100 N   0  0  0  0  0  0  0  0  0  0  0  0
  -16.2460  -25.0450   24.7700 O   0  0  0  0  0  0  0  0  0  0  0  0
  -14.5470  -27.4060   25.9460 H   0  0  0  0  0  0  0  0  0  0  0  0
  -14.2940  -26.5250   24.4640 H   0  0  0  0  0  0  0  0  0  0  0  0
  -19.0550  -26.0210   26.0510 N   0  0  0  0  0  0  0  0  0  0  0  0
  -18.8570  -25.6990   25.1100 H   0  0  0  0  0  0  0  0  0  0  0  0
  -20.0250  -25.9160   26.3170 H   0  0  0  0  0  0  0  0  0  0  0  0
  1 47  1  0
  2  1  1  0
  3  4  1  0
  3  2  1  0
  4  5  1  0
  5  6  1  0
  7 17  1  0
  8  6  1  0
  9 19  1  0
  9 17  1  0
  9 16  1  0
 10 15  2  0
 10 12  1  0
 11 12  1  0
 12 13  2  0
 13  8  1  0
 14  8  2  0
 15 14  1  0
 16 10  1  0
 17 11  1  0
 18  7  2  0
 20 22  1  0
 20 19  1  0
 21 19  2  0
 23 27  1  0
 23 28  1  0
 24 25  1  0
 24 20  1  0
 26 25  1  0
 27 26  1  0
 28 24  1  0
 29 28  2  0
 30 29  1  0
 31 32  1  0
 31 30  2  0
 32 23  2  0
 33  7  1  0
 34 37  1  6
 34 33  1  0
 34 36  1  0
 35 34  1  0
 38 33  1  0
 38 39  1  0
 39 40  2  0
 41 38  1  0
 43 42  1  0
 43 39  1  0
 43 45  1  0
 45 44  1  0
 46 45  1  0
 47 48  1  0
 48 49  1  0
 48 51  1  0
 48 50  1  0
 51 52  1  0
 52 53  1  0
 53 54  1  0
 54 55  1  0
 55 56  1  0
 56 62  1  0
 56 63  2  0
 57 58  1  0
 59 58  1  0
 60 67  1  0
 60 61  1  0
 60 59  1  0
 61 62  1  0
 62 57  1  0
 64 67  1  0
 65 64  2  0
 65 66  1  0
 66 69  1  0
 66 68  2  0
 67 68  1  0
 69 74  1  0
 70 69  2  0
 70 71  1  0
 71 72  2  0
 72 73  1  0
 72 75  1  0
 74 73  2  0
 76 75  1  0
 77 76  1  0
 78 77  2  0
 79 80  2  0
 79 78  1  0
 80 81  1  0
 81 82  1  0
 81 76  2  0
 83 79  1  0
 84 65  1  0
 85 84  1  0
 85 87  1  0
 86 84  2  0
 88 85  1  0
 89 91  1  0
 89 64  1  0
 90 89  1  0
M  ISO  4   5 101   6 101  55 100  56 100
M  END
>  <TORSDO>  (87) 
F 27

>  <SCORE>  (87) 
20.695

>  <name>  (87) 
87

>  <ligand_id>  (87) 
87

>  <original_smiles>  (87) 
[H]c1c([H])c([H])c2c(c1[H])C([H])([H])C([H])([H])C([H])([H])C2([H])N([H])C(=O)C1([H])N(C(=O)C([H])(N([H])C(=O)C([H])(N([H])C([H])([H])[H])C([H])([H])[H])C(C([H])([H])[H])(C([H])([H])[H])C([H])([H])[H])C([H])([H])c2c([H])c(OC([H])([H])C([H])([H])C([H])([H])C([H])([H])C([H])([H])C([H])([H])[N+]([H])([H])C([H])([H])C([H])([H])C([H])([H])C([H])([H])C([H])([H])C(=O)N3C([H])([H])C([H])([H])C([H])([H])C([H])(n4nc(-c5c([H])c([H])c(Oc6c([H])c([H])c(F)c([H])c6F)c([H])c5[H])c(C(=O)N([H])[H])c4N([H])[H])C3([H])[H])c([H])c([H])c2C1([H])[H]

>  <smiles>  (87) 
[H]c1c([H])c([H])c2c(c1[H])C([H])([H])C([H])([H])C([H])([H])C2([H])N([H])C(=O)C1([H])N(C(=O)C([H])(N([H])C(=O)C([H])(N([H])C([H])([H])[H])C([H])([H])[H])C(C([H])([H])[H])(C([H])([H])[H])C([H])([H])[H])C([H])([H])c2c([H])c(OC([H])([H])C([H])([H])C([H])([H])C([H])([H])C([H])([H])C([H])([H])[N+]([H])([H])C([H])([H])C([H])([H])C([H])([H])C([H])([H])C([H])([H])C(=O)N3C([H])([H])C([H])([H])C([H])([H])C([H])(n4nc(-c5c([H])c([H])c(Oc6c([H])c([H])c(F)c([H])c6F)c([H])c5[H])c(C(=O)N([H])[H])c4N([H])[H])C3([H])[H])c([H])c([H])c2C1([H])[H]

$$$$
88:0:0
     RDKit          3D

 91 98  0  0  1  0  0  0  0  0999 V2000
  -28.8630  -20.4770   21.0870 C   0  0  0  0  0  2  0  0  0  0  0  0
  -29.7820  -19.2520   20.9540 C   0  0  0  0  0  2  0  0  0  0  0  0
  -28.9860  -17.9390   20.7800 C   0  0  0  0  0  2  0  0  0  0  0  0
  -29.9220  -15.6010   20.9120 C   0  0  0  0  0  3  0  0  0  0  0  0
  -29.7880  -16.7640   20.2220 C   0  0  0  0  0  0  0  0  0  0  0  0
  -30.6840  -14.4760   20.3790 C   0  0  0  0  0  0  0  0  0  0  0  0
  -30.3660  -12.3320   19.2240 C   0  0  0  0  0  2  0  0  0  0  0  0
  -29.4280  -12.5700   18.0210 C   0  0  0  0  0  2  0  0  0  0  0  0
  -27.9500  -12.4510   18.4460 C   0  0  0  0  0  2  0  0  0  0  0  0
  -27.6210  -13.2690   19.7230 C   0  0  0  0  0  3  0  0  0  0  0  0
  -28.6730  -13.0110   20.8250 C   0  0  0  0  0  2  0  0  0  0  0  0
  -30.0050  -13.3030   20.2680 N   0  0  0  0  0  0  0  0  0  0  0  0
  -31.8150  -14.6370   19.9070 O   0  0  0  0  0  0  0  0  0  0  0  0
  -25.2180  -13.8890   20.4140 C   0  0  0  0  0  0  0  0  0  0  0  0
  -24.1480  -13.1220   20.7890 C   0  0  0  0  0  0  0  0  0  0  0  0
  -24.6090  -11.7690   20.7750 C   0  0  0  0  0  0  0  0  0  0  0  0
  -26.2630  -13.0050   20.1980 N   0  0  0  0  0  0  0  0  0  0  0  0
  -25.8990  -11.7250   20.4700 N   0  0  0  0  0  0  0  0  0  0  0  0
  -23.8810  -10.5090   20.9790 C   0  0  0  0  0  0  0  0  0  0  0  0
  -24.3180   -9.5480   21.9180 C   0  0  0  0  0  3  0  0  0  0  0  0
  -23.5920   -8.3530   22.1080 C   0  0  0  0  0  3  0  0  0  0  0  0
  -22.4160   -8.1110   21.3600 C   0  0  0  0  0  0  0  0  0  0  0  0
  -21.9980   -9.0600   20.4120 C   0  0  0  0  0  3  0  0  0  0  0  0
  -22.7240  -10.2470   20.2190 C   0  0  0  0  0  3  0  0  0  0  0  0
  -21.6630   -6.9660   21.4600 O   0  0  0  0  0  0  0  0  0  0  0  0
  -21.6230   -6.2270   22.6150 C   0  0  0  0  0  0  0  0  0  0  0  0
  -21.2120   -6.7890   23.8440 C   0  0  0  0  0  3  0  0  0  0  0  0
  -21.1190   -5.9780   24.9920 C   0  0  0  0  0  3  0  0  0  0  0  0
  -21.4260   -4.6070   24.9130 C   0  0  0  0  0  0  0  0  0  0  0  0
  -21.8320   -4.0440   23.6890 C   0  0  0  0  0  3  0  0  0  0  0  0
  -21.9270   -4.8530   22.5430 C   0  0  0  0  0  0  0  0  0  0  0  0
  -22.2970   -4.3020   21.3610 F   0  0  0  0  0  0  0  0  0  0  0  0
  -21.3290   -3.8260   26.0140 F   0  0  0  0  0  0  0  0  0  0  0  0
  -22.7490  -13.6030   21.0540 C   0  0  0  0  0  0  0  0  0  0  0  0
  -22.0200  -12.9190   21.9290 N   0  0  0  0  0  0  0  0  0  0  0  0
  -22.3130  -14.6230   20.5210 O   0  0  0  0  0  0  0  0  0  0  0  0
  -22.3850  -12.0960   22.3850 H   0  0  0  0  0  0  0  0  0  0  0  0
  -21.0830  -13.2270   22.1500 H   0  0  0  0  0  0  0  0  0  0  0  0
  -25.3840  -15.2580   20.2250 N   0  0  0  0  0  0  0  0  0  0  0  0
  -24.6200  -15.9160   20.3340 H   0  0  0  0  0  0  0  0  0  0  0  0
  -26.2450  -15.6970   19.9230 H   0  0  0  0  0  0  0  0  0  0  0  0
  -30.3630  -17.0010   18.8200 C   0  0  0  0  0  2  0  0  0  0  0  0
  -32.4060  -17.6810   17.5890 C   0  0  0  0  0  1  0  0  0  0  0  0
  -31.7850  -17.3980   18.8970 N   0  0  0  0  0  4  0  0  0  0  0  0
  -31.8780  -18.2100   19.4840 H   0  0  0  0  0  0  0  0  0  0  0  0
  -32.2870  -16.6360   19.3330 H   0  0  0  0  0  0  0  0  0  0  0  0
  -29.6060  -21.8280   21.0610 C   0  0  0  0  0  2  0  0  0  0  0  0
  -28.6190  -23.0080   21.1190 C   0  0  0  0  0  2  0  0  0  0  0  0
  -29.2180  -24.3920   20.7830 C   0  0  0  0  0  2  0  0  0  0  0  0
  -28.1710  -25.4950   21.0100 C   0  0  0  0  0  2  0  0  0  0  0  0
  -28.4080  -26.7090   20.2800 O   0  0  0  0  0  0  0  0  0  0  0  0
  -24.6100  -31.9150   23.2590 C   0  0  0  0  0  0  0  0  0  0  0  0
  -27.2730  -27.4840   20.2100 C   0  0  0  0  0  0  0  0  0  0  0  0
  -23.4120  -30.5020   21.6200 C   0  0  0  0  0  3  0  0  0  0  0  0
  -24.8770  -28.9750   20.1970 C   0  0  0  0  0  0  0  0  0  0  0  0
  -25.9340  -30.8790   21.4220 C   0  0  0  0  0  2  0  0  0  0  0  0
  -26.0300  -29.5070   20.7890 C   0  0  0  0  0  0  0  0  0  0  0  0
  -27.2350  -28.7690   20.7960 C   0  0  0  0  0  3  0  0  0  0  0  0
  -26.1120  -26.9770   19.5870 C   0  0  0  0  0  3  0  0  0  0  0  0
  -24.9120  -27.7080   19.5920 C   0  0  0  0  0  3  0  0  0  0  0  0
  -23.6260  -29.8210   20.2430 C   0  0  0  0  0  2  0  0  0  0  0  0
  -24.6710  -31.1130   22.1590 N   0  0  0  0  0  0  0  0  0  0  0  0
  -23.5270  -32.1850   23.7980 O   0  0  0  0  0  0  0  0  0  0  0  0
  -22.7660  -29.4800   22.5820 C   0  0  0  0  0  0  0  0  0  0  0  0
  -21.4420  -29.2930   22.4560 N   0  0  0  0  0  0  0  0  0  0  0  0
  -23.4510  -28.8580   23.3980 O   0  0  0  0  0  0  0  0  0  0  0  0
  -20.9500  -29.8470   21.7690 H   0  0  0  0  0  0  0  0  0  0  0  0
  -18.0700  -28.0990   22.9570 C   0  0  0  0  0  0  0  0  0  0  0  0
  -20.6270  -28.3570   23.2300 C   0  0  0  0  0  3  0  0  0  0  0  0
  -20.7310  -26.9250   22.6540 C   0  0  0  0  0  2  0  0  0  0  0  0
  -19.6290  -26.6000   21.6420 C   0  0  0  0  0  2  0  0  0  0  0  0
  -18.2470  -26.7470   22.2840 C   0  0  0  0  0  2  0  0  0  0  0  0
  -19.1890  -28.8600   23.3860 C   0  0  0  0  0  0  0  0  0  0  0  0
  -18.9710  -30.1260   23.9750 C   0  0  0  0  0  3  0  0  0  0  0  0
  -17.6670  -30.6280   24.1370 C   0  0  0  0  0  3  0  0  0  0  0  0
  -16.5620  -29.8620   23.7270 C   0  0  0  0  0  3  0  0  0  0  0  0
  -16.7640  -28.5990   23.1420 C   0  0  0  0  0  3  0  0  0  0  0  0
  -25.8930  -32.5540   23.8770 C   0  0  0  0  0  3  0  0  0  0  0  0
  -26.4150  -31.7880   25.1530 C   0  0  1  0  0  0  0  0  0  0  0  0
  -25.3250  -31.5490   26.2240 C   0  0  0  0  0  1  0  0  0  0  0  0
  -27.0030  -30.4120   24.7620 C   0  0  0  0  0  1  0  0  0  0  0  0
  -27.5640  -32.5880   25.8120 C   0  0  0  0  0  1  0  0  0  0  0  0
  -25.5800  -33.9530   24.2000 N   0  0  0  0  0  0  0  0  0  0  0  0
  -25.9110  -35.0010   23.4330 C   0  0  0  0  0  0  0  0  0  0  0  0
  -26.5820  -34.8920   22.4040 O   0  0  0  0  0  0  0  0  0  0  0  0
  -24.9860  -34.1110   25.0000 H   0  0  0  0  0  0  0  0  0  0  0  0
  -24.1770  -36.7820   23.0600 C   0  0  0  0  0  1  0  0  0  0  0  0
  -25.4160  -36.3890   23.8800 C   0  0  0  0  0  3  0  0  0  0  0  0
  -27.5450  -37.2840   24.7120 C   0  0  0  0  0  1  0  0  0  0  0  0
  -26.4460  -37.4450   23.7650 N   0  0  0  0  0  0  0  0  0  0  0  0
  -26.0360  -38.3640   23.9070 H   0  0  0  0  0  0  0  0  0  0  0  0
  2  1  1  0
  3  2  1  0
  5  3  1  0
  5  4  2  0
  6  4  1  0
  7 12  1  0
  8  9  1  0
  8  7  1  0
 10  9  1  0
 10 17  1  0
 10 11  1  0
 12  6  1  0
 12 11  1  0
 13  6  2  0
 14 15  2  0
 15 34  1  0
 16 15  1  0
 16 19  1  0
 17 14  1  0
 17 18  1  0
 18 16  2  0
 19 20  1  0
 20 21  2  0
 22 25  1  0
 22 21  1  0
 23 22  2  0
 24 23  1  0
 24 19  2  0
 25 26  1  0
 26 27  1  0
 27 28  2  0
 29 28  1  0
 29 33  1  0
 30 29  2  0
 31 26  2  0
 31 30  1  0
 32 31  1  0
 34 35  1  0
 35 38  1  0
 35 37  1  0
 36 34  2  0
 39 40  1  0
 39 14  1  0
 41 39  1  0
 42 44  1  0
 42  5  1  0
 43 44  1  0
 44 46  1  0
 44 45  1  0
 47  1  1  0
 47 48  1  0
 49 50  1  0
 49 48  1  0
 51 50  1  0
 52 63  2  0
 53 51  1  0
 53 58  1  0
 54 62  1  0
 54 64  1  0
 55 61  1  0
 55 57  1  0
 56 62  1  0
 57 58  2  0
 57 56  1  0
 59 60  1  0
 59 53  2  0
 60 55  2  0
 61 54  1  0
 62 52  1  0
 64 66  2  0
 65 64  1  0
 67 65  1  0
 68 77  2  0
 68 73  1  0
 69 65  1  0
 69 73  1  0
 70 69  1  0
 71 72  1  0
 71 70  1  0
 72 68  1  0
 73 74  2  0
 74 75  1  0
 76 75  2  0
 77 76  1  0
 78 52  1  0
 78 83  1  0
 78 79  1  0
 79 82  1  1
 79 80  1  0
 81 79  1  0
 83 86  1  0
 84 88  1  0
 84 83  1  0
 85 84  2  0
 88 87  1  0
 90 88  1  0
 90 91  1  0
 90 89  1  0
M  ISO  4   4 100   6 100  50 101  51 101
M  END
>  <TORSDO>  (88) 
F 25

>  <SCORE>  (88) 
-12.093

>  <name>  (88) 
88

>  <ligand_id>  (88) 
88

>  <original_smiles>  (88) 
[H]C(C(=O)N1C([H])([H])C([H])([H])C([H])([H])C([H])(n2nc(-c3c([H])c([H])c(Oc4c([H])c([H])c(F)c([H])c4F)c([H])c3[H])c(C(=O)N([H])[H])c2N([H])[H])C1([H])[H])=C(C([H])([H])C([H])([H])C([H])([H])C([H])([H])C([H])([H])C([H])([H])C([H])([H])Oc1c([H])c([H])c2c(c1[H])C([H])([H])N(C(=O)C([H])(N([H])C(=O)C([H])(N([H])C([H])([H])[H])C([H])([H])[H])C(C([H])([H])[H])(C([H])([H])[H])C([H])([H])[H])C([H])(C(=O)N([H])C1([H])c3c([H])c([H])c([H])c([H])c3C([H])([H])C([H])([H])C1([H])[H])C2([H])[H])C([H])([H])[N+]([H])([H])C([H])([H])[H]

>  <smiles>  (88) 
[H]C(C(=O)N1C([H])([H])C([H])([H])C([H])([H])C([H])(n2nc(-c3c([H])c([H])c(Oc4c([H])c([H])c(F)c([H])c4F)c([H])c3[H])c(C(=O)N([H])[H])c2N([H])[H])C1([H])[H])=C(C([H])([H])C([H])([H])C([H])([H])C([H])([H])C([H])([H])C([H])([H])C([H])([H])Oc1c([H])c([H])c2c(c1[H])C([H])([H])N(C(=O)C([H])(N([H])C(=O)C([H])(N([H])C([H])([H])[H])C([H])([H])[H])C(C([H])([H])[H])(C([H])([H])[H])C([H])([H])[H])C([H])(C(=O)N([H])C1([H])c3c([H])c([H])c([H])c([H])c3C([H])([H])C([H])([H])C1([H])[H])C2([H])[H])C([H])([H])[N+]([H])([H])C([H])([H])[H]

$$$$
89:0:0
     RDKit          3D

 88 95  0  0  1  0  0  0  0  0999 V2000
  -29.4460  -24.3310   22.3080 C   0  0  0  0  0  2  0  0  0  0  0  0
  -28.6650  -25.5610   21.8220 C   0  0  0  0  0  2  0  0  0  0  0  0
  -28.8160  -25.8170   20.3120 C   0  0  0  0  0  2  0  0  0  0  0  0
  -28.7290  -27.2120   20.0570 O   0  0  0  0  0  0  0  0  0  0  0  0
  -24.6460  -32.0200   23.3330 C   0  0  0  0  0  0  0  0  0  0  0  0
  -27.4940  -27.8030   20.1400 C   0  0  0  0  0  0  0  0  0  0  0  0
  -23.5030  -30.5990   21.6630 C   0  0  0  0  0  3  0  0  0  0  0  0
  -25.0200  -29.1570   20.2100 C   0  0  0  0  0  0  0  0  0  0  0  0
  -26.0070  -31.0820   21.4720 C   0  0  0  0  0  2  0  0  0  0  0  0
  -26.1530  -29.7320   20.8010 C   0  0  0  0  0  0  0  0  0  0  0  0
  -27.3910  -29.0640   20.7590 C   0  0  0  0  0  3  0  0  0  0  0  0
  -26.3450  -27.2210   19.5600 C   0  0  0  0  0  3  0  0  0  0  0  0
  -25.1080  -27.8940   19.5940 C   0  0  0  0  0  3  0  0  0  0  0  0
  -23.7410  -29.9570   20.2690 C   0  0  0  0  0  2  0  0  0  0  0  0
  -24.7360  -31.2480   22.2140 N   0  0  0  0  0  0  0  0  0  0  0  0
  -23.5560  -32.2310   23.8800 O   0  0  0  0  0  0  0  0  0  0  0  0
  -22.9030  -29.5290   22.6030 C   0  0  0  0  0  0  0  0  0  0  0  0
  -21.5940  -29.2720   22.4540 N   0  0  0  0  0  0  0  0  0  0  0  0
  -23.6110  -28.9350   23.4210 O   0  0  0  0  0  0  0  0  0  0  0  0
  -21.0840  -29.8040   21.7620 H   0  0  0  0  0  0  0  0  0  0  0  0
  -18.2960  -27.8580   22.8580 C   0  0  0  0  0  0  0  0  0  0  0  0
  -20.8220  -28.2810   23.2000 C   0  0  0  0  0  3  0  0  0  0  0  0
  -21.0360  -26.8640   22.6210 C   0  0  0  0  0  2  0  0  0  0  0  0
  -19.9830  -26.4750   21.5770 C   0  0  0  0  0  2  0  0  0  0  0  0
  -18.5770  -26.5260   22.1850 C   0  0  0  0  0  2  0  0  0  0  0  0
  -19.3500  -28.6900   23.3200 C   0  0  0  0  0  0  0  0  0  0  0  0
  -19.0350  -29.9340   23.9070 C   0  0  0  0  0  3  0  0  0  0  0  0
  -17.6950  -30.3490   24.0400 C   0  0  0  0  0  3  0  0  0  0  0  0
  -16.6550  -29.5150   23.5960 C   0  0  0  0  0  3  0  0  0  0  0  0
  -16.9550  -28.2730   23.0070 C   0  0  0  0  0  3  0  0  0  0  0  0
  -25.9050  -32.6930   23.9640 C   0  0  0  0  0  3  0  0  0  0  0  0
  -26.4010  -31.9790   25.2810 C   0  0  1  0  0  0  0  0  0  0  0  0
  -25.2810  -31.7460   26.3220 C   0  0  0  0  0  1  0  0  0  0  0  0
  -27.0340  -30.6070   24.9550 C   0  0  0  0  0  1  0  0  0  0  0  0
  -27.5080  -32.8260   25.9510 C   0  0  0  0  0  1  0  0  0  0  0  0
  -25.5650  -34.0980   24.2310 N   0  0  0  0  0  0  0  0  0  0  0  0
  -25.9000  -35.1250   23.4390 C   0  0  0  0  0  0  0  0  0  0  0  0
  -26.5970  -34.9920   22.4290 O   0  0  0  0  0  0  0  0  0  0  0  0
  -24.9400  -34.2730   25.0030 H   0  0  0  0  0  0  0  0  0  0  0  0
  -24.1470  -36.8680   22.9780 C   0  0  0  0  0  1  0  0  0  0  0  0
  -25.3790  -36.5210   23.8280 C   0  0  0  0  0  3  0  0  0  0  0  0
  -27.4810  -37.4780   24.6600 C   0  0  0  0  0  1  0  0  0  0  0  0
  -26.3940  -37.5880   23.6900 N   0  0  0  0  0  0  0  0  0  0  0  0
  -25.9690  -38.5050   23.7900 H   0  0  0  0  0  0  0  0  0  0  0  0
  -29.0040  -23.0160   21.6480 C   0  0  0  0  0  2  0  0  0  0  0  0
  -30.1030  -21.9460   21.7180 C   0  0  0  0  0  2  0  0  0  0  0  0
  -28.4560  -20.0170   21.4990 C   0  0  0  0  0  1  0  0  0  0  0  0
  -29.7560  -20.6480   20.9650 C   0  0  0  0  0  3  0  0  0  0  0  0
  -30.9580  -19.6780   21.0000 C   0  0  0  0  0  2  0  0  0  0  0  0
  -30.5620  -18.2000   20.8960 C   0  0  0  0  0  2  0  0  0  0  0  0
  -31.7450  -17.2300   20.7600 C   0  0  0  0  0  2  0  0  0  0  0  0
  -31.3100  -15.8160   21.1960 C   0  0  0  0  0  2  0  0  0  0  0  0
  -31.8950  -14.6450   20.3880 C   0  0  0  0  0  0  0  0  0  0  0  0
  -31.5060  -12.4410   19.3310 C   0  0  0  0  0  2  0  0  0  0  0  0
  -30.6010  -12.5970   18.0930 C   0  0  0  0  0  2  0  0  0  0  0  0
  -29.1100  -12.5800   18.4830 C   0  0  0  0  0  2  0  0  0  0  0  0
  -28.7940  -13.5440   19.6590 C   0  0  0  0  0  3  0  0  0  0  0  0
  -29.7970  -13.3270   20.8140 C   0  0  0  0  0  2  0  0  0  0  0  0
  -31.1570  -13.5110   20.2770 N   0  0  0  0  0  0  0  0  0  0  0  0
  -32.9910  -14.7840   19.8330 O   0  0  0  0  0  0  0  0  0  0  0  0
  -26.4490  -14.3890   20.3160 C   0  0  0  0  0  0  0  0  0  0  0  0
  -25.3020  -13.7240   20.6600 C   0  0  0  0  0  0  0  0  0  0  0  0
  -25.6290  -12.3340   20.6320 C   0  0  0  0  0  0  0  0  0  0  0  0
  -27.4090  -13.4090   20.1070 N   0  0  0  0  0  0  0  0  0  0  0  0
  -26.9150  -12.1700   20.3500 N   0  0  0  0  0  0  0  0  0  0  0  0
  -24.7770  -11.1490   20.8040 C   0  0  0  0  0  0  0  0  0  0  0  0
  -25.0810  -10.1500   21.7550 C   0  0  0  0  0  3  0  0  0  0  0  0
  -24.2350   -9.0320   21.9140 C   0  0  0  0  0  3  0  0  0  0  0  0
  -23.0720   -8.9040   21.1170 C   0  0  0  0  0  0  0  0  0  0  0  0
  -22.7880   -9.8900   20.1550 C   0  0  0  0  0  3  0  0  0  0  0  0
  -23.6340  -11.0000   19.9960 C   0  0  0  0  0  3  0  0  0  0  0  0
  -22.2070   -7.8390   21.1810 O   0  0  0  0  0  0  0  0  0  0  0  0
  -22.0090   -7.1410   22.3450 C   0  0  0  0  0  0  0  0  0  0  0  0
  -21.5800   -7.7760   23.5300 C   0  0  0  0  0  3  0  0  0  0  0  0
  -21.3230   -7.0100   24.6860 C   0  0  0  0  0  3  0  0  0  0  0  0
  -21.4880   -5.6130   24.6560 C   0  0  0  0  0  0  0  0  0  0  0  0
  -21.9110   -4.9780   23.4750 C   0  0  0  0  0  3  0  0  0  0  0  0
  -22.1690   -5.7410   22.3210 C   0  0  0  0  0  0  0  0  0  0  0  0
  -22.5550   -5.1220   21.1800 F   0  0  0  0  0  0  0  0  0  0  0  0
  -21.2340   -4.8760   25.7640 F   0  0  0  0  0  0  0  0  0  0  0  0
  -23.9540  -14.3360   20.9100 C   0  0  0  0  0  0  0  0  0  0  0  0
  -23.1530  -13.7160   21.7720 N   0  0  0  0  0  0  0  0  0  0  0  0
  -23.6220  -15.3940   20.3780 O   0  0  0  0  0  0  0  0  0  0  0  0
  -23.4390  -12.8600   22.2220 H   0  0  0  0  0  0  0  0  0  0  0  0
  -22.2440  -14.1010   21.9810 H   0  0  0  0  0  0  0  0  0  0  0  0
  -26.7480  -15.7370   20.1500 N   0  0  0  0  0  0  0  0  0  0  0  0
  -26.0390  -16.4570   20.2380 H   0  0  0  0  0  0  0  0  0  0  0  0
  -27.6560  -16.1040   19.8860 H   0  0  0  0  0  0  0  0  0  0  0  0
  2  1  1  0
  3  2  1  0
  4  6  1  0
  4  3  1  0
  5 16  2  0
  6 11  1  0
  7 15  1  0
  7 17  1  0
  8 14  1  0
  8 10  1  0
  9 15  1  0
 10  9  1  0
 11 10  2  0
 12 13  1  0
 12  6  2  0
 13  8  2  0
 14  7  1  0
 15  5  1  0
 17 19  2  0
 18 17  1  0
 20 18  1  0
 21 30  2  0
 21 26  1  0
 22 18  1  0
 22 26  1  0
 23 22  1  0
 24 25  1  0
 24 23  1  0
 25 21  1  0
 26 27  2  0
 27 28  1  0
 29 28  2  0
 30 29  1  0
 31  5  1  0
 31 36  1  0
 31 32  1  0
 32 35  1  1
 32 33  1  0
 34 32  1  0
 36 39  1  0
 37 41  1  0
 37 36  1  0
 38 37  2  0
 41 40  1  0
 43 44  1  0
 43 41  1  0
 43 42  1  0
 45 46  1  0
 45  1  1  0
 48 49  1  0
 48 47  1  0
 48 46  1  0
 50 49  1  0
 51 50  1  0
 51 52  1  0
 53 52  1  0
 54 59  1  0
 55 56  1  0
 55 54  1  0
 57 56  1  0
 57 64  1  0
 57 58  1  0
 59 53  1  0
 59 58  1  0
 60 53  2  0
 61 62  2  0
 62 81  1  0
 63 62  1  0
 63 66  1  0
 64 61  1  0
 64 65  1  0
 65 63  2  0
 66 67  1  0
 67 68  2  0
 69 72  1  0
 69 68  1  0
 70 69  2  0
 71 70  1  0
 71 66  2  0
 72 73  1  0
 73 74  1  0
 74 75  2  0
 76 75  1  0
 76 80  1  0
 77 76  2  0
 78 73  2  0
 78 77  1  0
 79 78  1  0
 81 82  1  0
 82 85  1  0
 82 84  1  0
 83 81  2  0
 86 87  1  0
 86 61  1  0
 88 86  1  0
M  ISO  4   3 101   4 101  52 100  53 100
M  END
>  <TORSDO>  (89) 
F 25

>  <SCORE>  (89) 
-10.249

>  <name>  (89) 
89

>  <ligand_id>  (89) 
89

>  <original_smiles>  (89) 
[H]c1c([H])c([H])c2c(c1[H])C([H])([H])C([H])([H])C([H])([H])C2([H])N([H])C(=O)C1([H])N(C(=O)C([H])(N([H])C(=O)C([H])(N([H])C([H])([H])[H])C([H])([H])[H])C(C([H])([H])[H])(C([H])([H])[H])C([H])([H])[H])C([H])([H])c2c([H])c(OC([H])([H])C([H])([H])C([H])([H])C([H])([H])C([H])([H])C([H])(C([H])([H])[H])C([H])([H])C([H])([H])C([H])([H])C([H])([H])C(=O)N3C([H])([H])C([H])([H])C([H])([H])C([H])(n4nc(-c5c([H])c([H])c(Oc6c([H])c([H])c(F)c([H])c6F)c([H])c5[H])c(C(=O)N([H])[H])c4N([H])[H])C3([H])[H])c([H])c([H])c2C1([H])[H]

>  <smiles>  (89) 
[H]c1c([H])c([H])c2c(c1[H])C([H])([H])C([H])([H])C([H])([H])C2([H])N([H])C(=O)C1([H])N(C(=O)C([H])(N([H])C(=O)C([H])(N([H])C([H])([H])[H])C([H])([H])[H])C(C([H])([H])[H])(C([H])([H])[H])C([H])([H])[H])C([H])([H])c2c([H])c(OC([H])([H])C([H])([H])C([H])([H])C([H])([H])C([H])([H])C([H])(C([H])([H])[H])C([H])([H])C([H])([H])C([H])([H])C([H])([H])C(=O)N3C([H])([H])C([H])([H])C([H])([H])C([H])(n4nc(-c5c([H])c([H])c(Oc6c([H])c([H])c(F)c([H])c6F)c([H])c5[H])c(C(=O)N([H])[H])c4N([H])[H])C3([H])[H])c([H])c([H])c2C1([H])[H]

$$$$
90:0:0
     RDKit          3D

 96100  0  0  1  0  0  0  0  0999 V2000
  -22.2310  -24.7340   24.7410 C   0  0  0  0  0  2  0  0  0  0  0  0
  -20.8730  -24.3340   24.6560 C   0  0  0  0  0  2  0  0  0  0  0  0
  -21.2700  -26.6100   25.7540 C   0  0  0  0  0  2  0  0  0  0  0  0
  -22.4320  -26.0820   25.1000 C   0  0  0  0  0  3  0  0  0  0  0  0
  -20.0120  -25.4620   24.5130 C   0  0  0  0  0  3  0  0  0  0  0  0
  -19.7410  -26.3410   25.8130 C   0  0  0  0  0  2  0  0  0  0  0  0
  -17.8360  -28.1430   26.5010 C   0  0  0  0  0 15  0  0  0  0  0  0
  -20.3610  -25.9490   22.8910 C   0  0  0  0  0  2  0  0  0  0  0  0
  -21.8970  -26.1200   22.0710 C   0  0  0  0  0  3  0  0  0  0  0  0
  -22.3110  -26.9190   20.5900 C   0  0  0  0  0  3  0  0  0  0  0  0
  -24.3180  -27.8700   18.7300 C   0  0  0  0  0  3  0  0  0  0  0  0
  -23.8390  -27.2640   19.9520 C   0  0  0  0  0  3  0  0  0  0  0  0
  -25.8240  -28.1830   18.1560 C   0  0  0  0  0  0  0  0  0  0  0  0
  -26.7360  -28.1620   18.9830 O   0  0  0  0  0  0  0  0  0  0  0  0
  -26.3710  -28.5420   16.5840 C   0  0  0  0  0  2  0  0  0  0  0  0
  -28.0140  -28.5350   16.0230 C   0  0  0  0  0  2  0  0  0  0  0  0
  -28.8220  -27.9140   14.6360 C   0  0  0  0  0  0  0  0  0  0  0  0
  -29.4190  -25.8820   13.1740 C   0  0  0  0  0  2  0  0  0  0  0  0
  -28.0900  -25.2390   12.6920 C   0  0  0  0  0  2  0  0  0  0  0  0
  -27.4270  -24.3890   13.8000 C   0  0  0  0  0  2  0  0  0  0  0  0
  -27.4720  -25.1070   15.1730 C   0  0  0  0  0  3  0  0  0  0  0  0
  -28.8900  -25.5860   15.4850 C   0  0  0  0  0  2  0  0  0  0  0  0
  -29.1630  -26.5800   14.4730 N   0  0  0  0  0  0  0  0  0  0  0  0
  -29.2150  -28.6460   13.7010 O   0  0  0  0  0  0  0  0  0  0  0  0
  -25.9040  -24.5560   17.1010 C   0  0  0  0  0  0  0  0  0  0  0  0
  -25.8230  -23.4730   17.9240 C   0  0  0  0  0  0  0  0  0  0  0  0
  -26.8860  -22.6010   17.5370 C   0  0  0  0  0  0  0  0  0  0  0  0
  -26.9730  -24.3020   16.2610 N   0  0  0  0  0  0  0  0  0  0  0  0
  -27.6060  -23.1480   16.5680 N   0  0  0  0  0  0  0  0  0  0  0  0
  -27.2200  -21.2490   17.9800 C   0  0  0  0  0  0  0  0  0  0  0  0
  -28.4990  -20.9340   18.4900 C   0  0  0  0  0  3  0  0  0  0  0  0
  -28.7880  -19.6240   18.9280 C   0  0  0  0  0  3  0  0  0  0  0  0
  -27.7950  -18.6190   18.8590 C   0  0  0  0  0  0  0  0  0  0  0  0
  -26.5330  -18.9350   18.3250 C   0  0  0  0  0  3  0  0  0  0  0  0
  -26.2470  -20.2370   17.8860 C   0  0  0  0  0  3  0  0  0  0  0  0
  -27.9900  -17.3140   19.2380 O   0  0  0  0  0  0  0  0  0  0  0  0
  -28.8260  -16.9870   20.2730 C   0  0  0  0  0  0  0  0  0  0  0  0
  -28.7000  -17.5750   21.5500 C   0  0  0  0  0  3  0  0  0  0  0  0
  -29.5370  -17.1550   22.6040 C   0  0  0  0  0  3  0  0  0  0  0  0
  -30.4920  -16.1450   22.3850 C   0  0  0  0  0  0  0  0  0  0  0  0
  -30.6160  -15.5550   21.1150 C   0  0  0  0  0  3  0  0  0  0  0  0
  -29.7830  -15.9740   20.0620 C   0  0  0  0  0  0  0  0  0  0  0  0
  -29.8920  -15.3870   18.8460 F   0  0  0  0  0  0  0  0  0  0  0  0
  -31.2900  -15.7350   23.3990 F   0  0  0  0  0  0  0  0  0  0  0  0
  -24.7590  -23.2160   18.9480 C   0  0  0  0  0  0  0  0  0  0  0  0
  -25.0980  -22.5070   20.0160 N   0  0  0  0  0  0  0  0  0  0  0  0
  -23.6270  -23.6850   18.8220 O   0  0  0  0  0  0  0  0  0  0  0  0
  -26.0320  -22.1430   20.1270 H   0  0  0  0  0  0  0  0  0  0  0  0
  -24.4150  -22.3290   20.7390 H   0  0  0  0  0  0  0  0  0  0  0  0
  -25.1450  -25.7160   16.9790 N   0  0  0  0  0  0  0  0  0  0  0  0
  -24.3140  -25.8700   17.5370 H   0  0  0  0  0  0  0  0  0  0  0  0
  -25.2740  -26.4000   16.2470 H   0  0  0  0  0  0  0  0  0  0  0  0
  -23.7960  -26.9270   24.9380 C   0  0  0  0  0  2  0  0  0  0  0  0
  -24.4420  -27.6100   23.5730 C   0  0  0  0  0  3  0  0  0  0  0  0
  -24.2670  -29.1730   23.1850 C   0  0  0  0  0  3  0  0  0  0  0  0
  -24.5500  -29.9830   21.8780 O   0  0  0  0  0  0  0  0  0  0  0  0
  -29.0750  -32.9140   25.4210 C   0  0  0  0  0  0  0  0  0  0  0  0
  -24.3800  -31.3000   22.2110 C   0  0  0  0  0  0  0  0  0  0  0  0
  -26.7870  -32.8580   26.2920 C   0  0  0  0  0  3  0  0  0  0  0  0
  -24.8880  -32.5980   24.6030 C   0  0  0  0  0  0  0  0  0  0  0  0
  -27.1700  -33.3360   23.8450 C   0  0  0  0  0  2  0  0  0  0  0  0
  -25.8340  -32.6740   23.5690 C   0  0  0  0  0  0  0  0  0  0  0  0
  -25.5630  -32.0600   22.3290 C   0  0  0  0  0  3  0  0  0  0  0  0
  -23.3220  -31.4810   23.1200 C   0  0  0  0  0  3  0  0  0  0  0  0
  -23.6140  -32.0440   24.3740 C   0  0  0  0  0  3  0  0  0  0  0  0
  -25.3060  -33.1630   25.9380 C   0  0  0  0  0  2  0  0  0  0  0  0
  -27.7380  -33.0270   25.1720 N   0  0  0  0  0  0  0  0  0  0  0  0
  -29.5130  -32.7030   26.5650 O   0  0  0  0  0  0  0  0  0  0  0  0
  -26.8920  -31.4460   26.8030 C   0  0  0  0  0  0  0  0  0  0  0  0
  -26.7110  -31.3400   28.1060 N   0  0  0  0  0  0  0  0  0  0  0  0
  -27.1380  -30.5070   26.0350 O   0  0  0  0  0  0  0  0  0  0  0  0
  -26.5460  -32.1490   28.6840 H   0  0  0  0  0  0  0  0  0  0  0  0
  -25.6910  -28.7840   31.2170 C   0  0  0  0  0  0  0  0  0  0  0  0
  -26.2960  -30.0810   28.5120 C   0  0  0  0  0  2  0  0  0  0  0  0
  -24.2900  -29.9640   27.7640 C   0  0  0  0  0 15  0  0  0  0  0  0
  -22.9680  -29.0270   29.1300 C   0  0  0  0  0 15  0  0  0  0  0  0
  -23.8980  -28.3260   30.8330 C   0  0  0  0  0  1  0  0  0  0  0  0
  -26.7150  -29.5030   30.2020 C   0  0  0  0  0  0  0  0  0  0  0  0
  -27.7780  -30.2760   30.7600 C   0  0  0  0  0  3  0  0  0  0  0  0
  -27.9150  -30.5410   32.1340 C   0  0  0  0  0  3  0  0  0  0  0  0
  -26.9690  -30.0280   33.0310 C   0  0  0  0  0  3  0  0  0  0  0  0
  -25.9120  -29.1910   32.5850 C   0  0  0  0  0  3  0  0  0  0  0  0
  -30.1160  -33.0810   24.2850 C   0  0  0  0  0  3  0  0  0  0  0  0
  -30.7710  -31.7230   23.8320 C   0  0  1  0  0  0  0  0  0  0  0  0
  -31.3730  -30.8960   24.9900 C   0  0  0  0  0  1  0  0  0  0  0  0
  -29.7350  -30.8310   23.1080 C   0  0  0  0  0  1  0  0  0  0  0  0
  -31.8940  -32.0160   22.8120 C   0  0  0  0  0  1  0  0  0  0  0  0
  -31.1290  -34.0170   24.7810 N   0  0  0  0  0  0  0  0  0  0  0  0
  -31.1480  -35.3240   24.4910 C   0  0  0  0  0  0  0  0  0  0  0  0
  -30.3610  -35.8420   23.6930 O   0  0  0  0  0  0  0  0  0  0  0  0
  -31.7730  -33.6650   25.4750 H   0  0  0  0  0  0  0  0  0  0  0  0
  -31.5750  -36.9630   26.3480 C   0  0  0  0  0  1  0  0  0  0  0  0
  -32.2150  -36.1890   25.1860 C   0  0  0  0  0  3  0  0  0  0  0  0
  -33.7270  -36.4680   23.2710 C   0  0  0  0  0  1  0  0  0  0  0  0
  -32.8900  -37.1310   24.2670 N   0  0  0  0  0  0  0  0  0  0  0  0
  -33.4720  -37.7830   24.7850 H   0  0  0  0  0  0  0  0  0  0  0  0
  1  4  1  0
  2  1  1  0
  3  6  1  0
  4 53  1  0
  4  3  1  0
  5  8  1  0
  5  2  1  0
  5  6  1  0
  9  8  1  0
 10  9  2  0
 11 12  2  0
 12 10  1  0
 13 11  1  0
 13 14  2  0
 15 13  1  0
 16 15  1  0
 17 16  1  0
 18 23  1  0
 19 18  1  0
 19 20  1  0
 21 20  1  0
 21 22  1  0
 21 28  1  0
 23 17  1  0
 23 22  1  0
 24 17  2  0
 25 26  2  0
 26 45  1  0
 27 26  1  0
 27 30  1  0
 28 29  1  0
 28 25  1  0
 29 27  2  0
 30 31  1  0
 31 32  2  0
 33 32  1  0
 33 36  1  0
 34 33  2  0
 35 30  2  0
 35 34  1  0
 36 37  1  0
 37 38  1  0
 38 39  2  0
 40 39  1  0
 40 44  1  0
 41 40  2  0
 42 37  2  0
 42 41  1  0
 43 42  1  0
 45 46  1  0
 46 48  1  0
 46 49  1  0
 47 45  2  0
 50 25  1  0
 50 51  1  0
 52 50  1  0
 54 53  1  0
 55 54  2  0
 56 58  1  0
 56 55  1  0
 57 68  2  0
 58 63  2  0
 58 64  1  0
 59 69  1  0
 60 66  1  0
 61 67  1  0
 62 61  1  0
 62 60  2  0
 63 62  1  0
 64 65  2  0
 65 60  1  0
 66 59  1  0
 67 57  1  0
 67 59  1  0
 69 70  1  0
 70 74  1  0
 70 72  1  0
 71 69  2  0
 73 82  1  0
 74 78  1  0
 77 73  1  0
 78 79  1  0
 78 73  2  0
 79 80  2  0
 80 81  1  0
 82 81  2  0
 83 88  1  0
 83 57  1  0
 84 83  1  0
 84 85  1  1
 86 84  1  0
 87 84  1  0
 88 91  1  0
 89 88  1  0
 89 93  1  0
 90 89  2  0
 93 92  1  0
 94 95  1  0
 95 96  1  0
 95 93  1  0
M  ISO  4  16 100  17 100  55 101  56 101
M  END
>  <TORSDO>  (90) 
F 26

>  <SCORE>  (90) 
38.334

>  <name>  (90) 
90

>  <ligand_id>  (90) 
90

>  <original_smiles>  (90) 
[H]C(C(=O)C([H])([H])C([H])([H])C(=O)N1C([H])([H])C([H])([H])C([H])([H])C([H])(n2nc(-c3c([H])c([H])c(Oc4c([H])c([H])c(F)c([H])c4F)c([H])c3[H])c(C(=O)N([H])[H])c2N([H])[H])C1([H])[H])=C([H])C([H])([H])C([H])([H])C([H])([H])c1c([H])c([H])c(C([H])([H])C([H])([H])C([H])([H])Oc2c([H])c([H])c3c(c2[H])C([H])([H])N(C(=O)C([H])(N([H])C(=O)C([H])(N([H])C([H])([H])[H])C([H])([H])[H])C(C([H])([H])[H])(C([H])([H])[H])C([H])([H])[H])C([H])(C(=O)N([H])C2([H])c4c([H])c([H])c([H])c([H])c4C([H])([H])C([H])([H])C2([H])[H])C3([H])[H])c([H])c1C([H])([H])[H]

>  <smiles>  (90) 
[H]C(C(=O)C([H])([H])C([H])([H])C(=O)N1C([H])([H])C([H])([H])C([H])([H])C([H])(n2nc(-c3c([H])c([H])c(Oc4c([H])c([H])c(F)c([H])c4F)c([H])c3[H])c(C(=O)N([H])[H])c2N([H])[H])C1([H])[H])=C([H])C([H])([H])C([H])([H])C([H])([H])c1c([H])c([H])c(C([H])([H])C([H])([H])C([H])([H])Oc2c([H])c([H])c3c(c2[H])C([H])([H])N(C(=O)C([H])(N([H])C(=O)C([H])(N([H])C([H])([H])[H])C([H])([H])[H])C(C([H])([H])[H])(C([H])([H])[H])C([H])([H])[H])C([H])(C(=O)N([H])C2([H])c4c([H])c([H])c([H])c([H])c4C([H])([H])C([H])([H])C2([H])[H])C3([H])[H])c([H])c1C([H])([H])[H]

$$$$
91:0:0
     RDKit          3D

 94102  0  0  1  0  0  0  0  0999 V2000
  -27.5720  -25.4060   25.1460 C   0  0  0  0  0  3  0  0  0  0  0  0
  -26.6630  -26.0790   24.3140 C   0  0  0  0  0  3  0  0  0  0  0  0
  -28.4390  -24.4390   24.6030 C   0  0  0  0  0  3  0  0  0  0  0  0
  -26.6270  -25.7850   22.9390 C   0  0  0  0  0  3  0  0  0  0  0  0
  -28.4060  -24.1260   23.2200 C   0  0  0  0  0  0  0  0  0  0  0  0
  -27.4980  -24.8240   22.3780 C   0  0  0  0  0  0  0  0  0  0  0  0
  -29.3100  -23.0350   22.6450 C   0  0  0  0  0  2  0  0  0  0  0  0
  -30.0350  -22.1450   23.6740 C   0  0  0  0  0  2  0  0  0  0  0  0
  -30.7750  -20.9750   23.0290 C   0  0  0  0  0  0  0  0  0  0  0  0
  -30.9400  -20.9050   21.8070 O   0  0  0  0  0  0  0  0  0  0  0  0
  -31.3220  -19.9120   23.9840 C   0  0  0  0  0  2  0  0  0  0  0  0
  -31.8420  -18.6320   23.3000 C   0  0  0  0  0  2  0  0  0  0  0  0
  -30.7330  -17.6830   22.8100 C   0  0  0  0  0  2  0  0  0  0  0  0
  -31.3140  -16.4870   22.0410 C   0  0  0  0  0  2  0  0  0  0  0  0
  -30.2680  -15.4000   21.7020 C   0  0  0  0  0  2  0  0  0  0  0  0
  -30.7650  -14.3670   20.6750 C   0  0  0  0  0  0  0  0  0  0  0  0
  -30.4130  -12.2810   19.3980 C   0  0  0  0  0  2  0  0  0  0  0  0
  -29.4850  -12.5200   18.1920 C   0  0  0  0  0  2  0  0  0  0  0  0
  -28.0080  -12.3820   18.6070 C   0  0  0  0  0  2  0  0  0  0  0  0
  -27.6670  -13.2040   19.8780 C   0  0  0  0  0  3  0  0  0  0  0  0
  -28.7060  -12.9550   20.9930 C   0  0  0  0  0  2  0  0  0  0  0  0
  -30.0450  -13.2370   20.4520 N   0  0  0  0  0  0  0  0  0  0  0  0
  -31.8090  -14.6080   20.0590 O   0  0  0  0  0  0  0  0  0  0  0  0
  -25.2610  -13.8150   20.5670 C   0  0  0  0  0  0  0  0  0  0  0  0
  -24.1850  -13.0440   20.9160 C   0  0  0  0  0  0  0  0  0  0  0  0
  -24.6400  -11.6900   20.8720 C   0  0  0  0  0  0  0  0  0  0  0  0
  -26.3060  -12.9330   20.3380 N   0  0  0  0  0  0  0  0  0  0  0  0
  -25.9330  -11.6490   20.5750 N   0  0  0  0  0  0  0  0  0  0  0  0
  -23.9060  -10.4290   21.0400 C   0  0  0  0  0  0  0  0  0  0  0  0
  -24.3610   -9.4200   21.9180 C   0  0  0  0  0  3  0  0  0  0  0  0
  -23.6290   -8.2240   22.0750 C   0  0  0  0  0  3  0  0  0  0  0  0
  -22.4270   -8.0280   21.3540 C   0  0  0  0  0  0  0  0  0  0  0  0
  -21.9900   -9.0250   20.4640 C   0  0  0  0  0  3  0  0  0  0  0  0
  -22.7230  -10.2130   20.3050 C   0  0  0  0  0  3  0  0  0  0  0  0
  -21.6640   -6.8870   21.4240 O   0  0  0  0  0  0  0  0  0  0  0  0
  -21.6850   -6.0730   22.5280 C   0  0  0  0  0  0  0  0  0  0  0  0
  -21.4010   -6.5630   23.8210 C   0  0  0  0  0  3  0  0  0  0  0  0
  -21.3660   -5.6790   24.9170 C   0  0  0  0  0  3  0  0  0  0  0  0
  -21.6040   -4.3050   24.7230 C   0  0  0  0  0  0  0  0  0  0  0  0
  -21.8820   -3.8140   23.4350 C   0  0  0  0  0  3  0  0  0  0  0  0
  -21.9190   -4.6950   22.3400 C   0  0  0  0  0  0  0  0  0  0  0  0
  -22.1660   -4.2140   21.0980 F   0  0  0  0  0  0  0  0  0  0  0  0
  -21.5630   -3.4540   25.7740 F   0  0  0  0  0  0  0  0  0  0  0  0
  -22.7870  -13.5230   21.1830 C   0  0  0  0  0  0  0  0  0  0  0  0
  -22.0520  -12.8230   22.0390 N   0  0  0  0  0  0  0  0  0  0  0  0
  -22.3560  -14.5540   20.6680 O   0  0  0  0  0  0  0  0  0  0  0  0
  -22.4130  -11.9880   22.4760 H   0  0  0  0  0  0  0  0  0  0  0  0
  -21.1140  -13.1260   22.2610 H   0  0  0  0  0  0  0  0  0  0  0  0
  -25.4340  -15.1880   20.4090 N   0  0  0  0  0  0  0  0  0  0  0  0
  -24.6720  -15.8480   20.5220 H   0  0  0  0  0  0  0  0  0  0  0  0
  -26.2980  -15.6270   20.1130 H   0  0  0  0  0  0  0  0  0  0  0  0
  -27.3830  -24.5360   20.8810 C   0  0  0  0  0  2  0  0  0  0  0  0
  -28.3560  -25.3250   19.9610 C   0  0  0  0  0  2  0  0  0  0  0  0
  -28.3990  -26.7440   20.1480 O   0  0  0  0  0  0  0  0  0  0  0  0
  -24.6110  -31.8680   23.2160 C   0  0  0  0  0  0  0  0  0  0  0  0
  -27.2300  -27.4660   20.0790 C   0  0  0  0  0  0  0  0  0  0  0  0
  -23.3990  -30.4930   21.5540 C   0  0  0  0  0  3  0  0  0  0  0  0
  -24.8450  -28.9750   20.1040 C   0  0  0  0  0  0  0  0  0  0  0  0
  -25.9290  -30.8390   21.3740 C   0  0  0  0  0  2  0  0  0  0  0  0
  -26.0000  -29.4810   20.7110 C   0  0  0  0  0  0  0  0  0  0  0  0
  -27.1920  -28.7300   20.7040 C   0  0  0  0  0  3  0  0  0  0  0  0
  -26.0670  -26.9910   19.4290 C   0  0  0  0  0  3  0  0  0  0  0  0
  -24.8720  -27.7280   19.4590 C   0  0  0  0  0  3  0  0  0  0  0  0
  -23.6040  -29.8330   20.1650 C   0  0  0  0  0  2  0  0  0  0  0  0
  -24.6630  -31.0820   22.1050 N   0  0  0  0  0  0  0  0  0  0  0  0
  -23.5300  -32.1410   23.7560 O   0  0  0  0  0  0  0  0  0  0  0  0
  -22.7410  -29.4620   22.4990 C   0  0  0  0  0  0  0  0  0  0  0  0
  -21.4140  -29.2990   22.3740 N   0  0  0  0  0  0  0  0  0  0  0  0
  -23.4190  -28.8120   23.3000 O   0  0  0  0  0  0  0  0  0  0  0  0
  -20.9310  -29.8790   21.7020 H   0  0  0  0  0  0  0  0  0  0  0  0
  -18.0240  -28.1340   22.8460 C   0  0  0  0  0  0  0  0  0  0  0  0
  -20.5840  -28.3610   23.1290 C   0  0  0  0  0  3  0  0  0  0  0  0
  -20.6750  -26.9350   22.5380 C   0  0  0  0  0  2  0  0  0  0  0  0
  -19.5730  -26.6360   21.5170 C   0  0  0  0  0  2  0  0  0  0  0  0
  -18.1900  -26.7890   22.1580 C   0  0  0  0  0  2  0  0  0  0  0  0
  -19.1500  -28.8790   23.2870 C   0  0  0  0  0  0  0  0  0  0  0  0
  -18.9460  -30.1400   23.8880 C   0  0  0  0  0  3  0  0  0  0  0  0
  -17.6460  -30.6550   24.0540 C   0  0  0  0  0  3  0  0  0  0  0  0
  -16.5330  -29.9050   23.6320 C   0  0  0  0  0  3  0  0  0  0  0  0
  -16.7240  -28.6480   23.0340 C   0  0  0  0  0  3  0  0  0  0  0  0
  -25.9020  -32.4810   23.8450 C   0  0  0  0  0  3  0  0  0  0  0  0
  -26.4460  -31.6600   25.0770 C   0  0  1  0  0  0  0  0  0  0  0  0
  -25.3750  -31.3740   26.1550 C   0  0  0  0  0  1  0  0  0  0  0  0
  -27.0300  -30.3040   24.6160 C   0  0  0  0  0  1  0  0  0  0  0  0
  -27.6030  -32.4370   25.7510 C   0  0  0  0  0  1  0  0  0  0  0  0
  -25.5880  -33.8610   24.2350 N   0  0  0  0  0  0  0  0  0  0  0  0
  -25.9020  -34.9460   23.5140 C   0  0  0  0  0  0  0  0  0  0  0  0
  -26.5590  -34.8920   22.4700 O   0  0  0  0  0  0  0  0  0  0  0  0
  -25.0060  -33.9790   25.0510 H   0  0  0  0  0  0  0  0  0  0  0  0
  -24.1490  -36.7310   23.2650 C   0  0  0  0  0  1  0  0  0  0  0  0
  -25.4110  -36.3100   24.0340 C   0  0  0  0  0  3  0  0  0  0  0  0
  -27.5580  -37.1810   24.8460 C   0  0  0  0  0  1  0  0  0  0  0  0
  -26.4300  -37.3780   23.9380 N   0  0  0  0  0  0  0  0  0  0  0  0
  -26.0180  -38.2850   24.1400 H   0  0  0  0  0  0  0  0  0  0  0  0
  2  1  2  0
  3  1  1  0
  4  2  1  0
  5  3  2  0
  6  4  2  0
  6  5  1  0
  7  5  1  0
  7  8  1  0
  9  8  1  0
  9 11  1  0
 10  9  2  0
 12 11  1  0
 13 12  1  0
 14 13  1  0
 15 14  1  0
 16 15  1  0
 17 22  1  0
 18 19  1  0
 18 17  1  0
 20 19  1  0
 20 27  1  0
 20 21  1  0
 22 16  1  0
 22 21  1  0
 23 16  2  0
 24 25  2  0
 25 44  1  0
 26 25  1  0
 26 29  1  0
 27 24  1  0
 27 28  1  0
 28 26  2  0
 29 30  1  0
 30 31  2  0
 32 35  1  0
 32 31  1  0
 33 32  2  0
 34 33  1  0
 34 29  2  0
 35 36  1  0
 36 37  1  0
 37 38  2  0
 39 38  1  0
 39 43  1  0
 40 39  2  0
 41 36  2  0
 41 40  1  0
 42 41  1  0
 44 45  1  0
 45 48  1  0
 45 47  1  0
 46 44  2  0
 49 50  1  0
 49 24  1  0
 51 49  1  0
 52  6  1  0
 53 54  1  0
 53 52  1  0
 55 66  2  0
 56 54  1  0
 56 61  1  0
 57 65  1  0
 57 67  1  0
 58 64  1  0
 58 60  1  0
 59 65  1  0
 60 59  1  0
 61 60  2  0
 62 63  1  0
 62 56  2  0
 63 58  2  0
 64 57  1  0
 65 55  1  0
 67 69  2  0
 68 67  1  0
 70 68  1  0
 71 80  2  0
 71 76  1  0
 72 68  1  0
 72 76  1  0
 73 72  1  0
 74 75  1  0
 74 73  1  0
 75 71  1  0
 76 77  2  0
 77 78  1  0
 79 78  2  0
 80 79  1  0
 81 55  1  0
 81 86  1  0
 81 82  1  0
 82 85  1  1
 82 83  1  0
 84 82  1  0
 86 89  1  0
 87 91  1  0
 87 86  1  0
 88 87  2  0
 91 90  1  0
 93 91  1  0
 93 94  1  0
 93 92  1  0
M  ISO  4  15 100  16 100  53 101  54 101
M  END
>  <TORSDO>  (91) 
F 26

>  <SCORE>  (91) 
-8.783

>  <name>  (91) 
91

>  <ligand_id>  (91) 
91

>  <original_smiles>  (91) 
[H]c1c([H])c([H])c(C([H])([H])C([H])([H])C(=O)C([H])([H])C([H])([H])C([H])([H])C([H])([H])C([H])([H])C(=O)N2C([H])([H])C([H])([H])C([H])([H])C([H])(n3nc(-c4c([H])c([H])c(Oc5c([H])c([H])c(F)c([H])c5F)c([H])c4[H])c(C(=O)N([H])[H])c3N([H])[H])C2([H])[H])c(C([H])([H])C([H])([H])Oc2c([H])c([H])c3c(c2[H])C([H])([H])N(C(=O)C([H])(N([H])C(=O)C([H])(N([H])C([H])([H])[H])C([H])([H])[H])C(C([H])([H])[H])(C([H])([H])[H])C([H])([H])[H])C([H])(C(=O)N([H])C2([H])c4c([H])c([H])c([H])c([H])c4C([H])([H])C([H])([H])C2([H])[H])C3([H])[H])c1[H]

>  <smiles>  (91) 
[H]c1c([H])c([H])c(C([H])([H])C([H])([H])C(=O)C([H])([H])C([H])([H])C([H])([H])C([H])([H])C([H])([H])C(=O)N2C([H])([H])C([H])([H])C([H])([H])C([H])(n3nc(-c4c([H])c([H])c(Oc5c([H])c([H])c(F)c([H])c5F)c([H])c4[H])c(C(=O)N([H])[H])c3N([H])[H])C2([H])[H])c(C([H])([H])C([H])([H])Oc2c([H])c([H])c3c(c2[H])C([H])([H])N(C(=O)C([H])(N([H])C(=O)C([H])(N([H])C([H])([H])[H])C([H])([H])[H])C(C([H])([H])[H])(C([H])([H])[H])C([H])([H])[H])C([H])(C(=O)N([H])C2([H])c4c([H])c([H])c([H])c([H])c4C([H])([H])C([H])([H])C2([H])[H])C3([H])[H])c1[H]

$$$$
92:0:0
     RDKit          3D

 94101  0  0  1  0  0  0  0  0999 V2000
  -26.1600  -18.2320   18.4640 C   0  0  0  0  0  3  0  0  0  0  0  0
  -27.0820  -19.5670   18.7080 C   0  0  0  0  0  2  0  0  0  0  0  0
  -25.5780  -21.3610   17.5290 C   0  0  0  0  0  1  0  0  0  0  0  0
  -26.4540  -21.0870   18.7670 C   0  0  0  0  0  3  0  0  0  0  0  0
  -27.4100  -22.3910   19.0620 C   0  0  0  0  0  2  0  0  0  0  0  0
  -26.9110  -23.9460   18.9110 C   0  0  0  0  0  2  0  0  0  0  0  0
  -27.6710  -25.1810   19.6820 C   0  0  0  0  0  2  0  0  0  0  0  0
  -27.7970  -26.6450   19.2700 O   0  0  0  0  0  0  0  0  0  0  0  0
  -24.4020  -31.9110   23.1050 C   0  0  0  0  0  0  0  0  0  0  0  0
  -26.7420  -27.5420   19.5070 C   0  0  0  0  0  0  0  0  0  0  0  0
  -23.0840  -30.5510   21.5390 C   0  0  0  0  0  3  0  0  0  0  0  0
  -24.4040  -29.1340   19.8850 C   0  0  0  0  0  0  0  0  0  0  0  0
  -25.5920  -30.9430   21.1130 C   0  0  0  0  0  2  0  0  0  0  0  0
  -25.6320  -29.6010   20.3790 C   0  0  0  0  0  0  0  0  0  0  0  0
  -26.8170  -28.8170   20.1760 C   0  0  0  0  0  3  0  0  0  0  0  0
  -25.4900  -27.1520   19.0190 C   0  0  0  0  0  3  0  0  0  0  0  0
  -24.3370  -27.9170   19.2040 C   0  0  0  0  0  3  0  0  0  0  0  0
  -23.1680  -29.9720   20.1080 C   0  0  0  0  0  2  0  0  0  0  0  0
  -24.3860  -31.1510   21.9730 N   0  0  0  0  0  0  0  0  0  0  0  0
  -23.3690  -32.1220   23.7580 O   0  0  0  0  0  0  0  0  0  0  0  0
  -22.5670  -29.4500   22.5000 C   0  0  0  0  0  0  0  0  0  0  0  0
  -21.2630  -29.1350   22.4110 N   0  0  0  0  0  0  0  0  0  0  0  0
  -23.3340  -28.8890   23.2850 O   0  0  0  0  0  0  0  0  0  0  0  0
  -20.6960  -29.6510   21.7510 H   0  0  0  0  0  0  0  0  0  0  0  0
  -18.0850  -27.4740   22.9000 C   0  0  0  0  0  0  0  0  0  0  0  0
  -20.5740  -28.1100   23.1950 C   0  0  0  0  0  3  0  0  0  0  0  0
  -20.8900  -26.6920   22.6660 C   0  0  0  0  0  2  0  0  0  0  0  0
  -19.8650  -26.1830   21.6480 C   0  0  0  0  0  2  0  0  0  0  0  0
  -18.4660  -26.1450   22.2660 C   0  0  0  0  0  2  0  0  0  0  0  0
  -19.0740  -28.4020   23.3210 C   0  0  0  0  0  0  0  0  0  0  0  0
  -18.6620  -29.6360   23.8700 C   0  0  0  0  0  3  0  0  0  0  0  0
  -17.2960  -29.9460   24.0010 C   0  0  0  0  0  3  0  0  0  0  0  0
  -16.3230  -29.0180   23.5920 C   0  0  0  0  0  3  0  0  0  0  0  0
  -16.7180  -27.7830   23.0480 C   0  0  0  0  0  3  0  0  0  0  0  0
  -25.7160  -32.5690   23.6240 C   0  0  0  0  0  3  0  0  0  0  0  0
  -25.4090  -33.9670   23.9560 N   0  0  0  0  0  0  0  0  0  0  0  0
  -25.7480  -35.0230   23.2040 C   0  0  0  0  0  0  0  0  0  0  0  0
  -26.4280  -34.9200   22.1790 O   0  0  0  0  0  0  0  0  0  0  0  0
  -24.8120  -34.1240   24.7550 H   0  0  0  0  0  0  0  0  0  0  0  0
  -24.0620  -36.8470   22.8030 C   0  0  0  0  0  1  0  0  0  0  0  0
  -25.2610  -36.4110   23.6600 C   0  0  0  0  0  3  0  0  0  0  0  0
  -27.3750  -37.2460   24.5910 C   0  0  0  0  0  1  0  0  0  0  0  0
  -26.3120  -37.4500   23.6090 N   0  0  0  0  0  0  0  0  0  0  0  0
  -25.9140  -38.3740   23.7600 H   0  0  0  0  0  0  0  0  0  0  0  0
  -26.3270  -31.8270   24.8770 C   0  0  1  0  0  0  0  0  0  0  0  0
  -25.3120  -31.6060   26.0230 C   0  0  0  0  0  1  0  0  0  0  0  0
  -26.8930  -30.4450   24.4750 C   0  0  0  0  0  1  0  0  0  0  0  0
  -27.5130  -32.6450   25.4390 C   0  0  0  0  0  1  0  0  0  0  0  0
  -26.6940  -16.7020   18.7160 C   0  0  0  0  0  3  0  0  0  0  0  0
  -25.6490  -15.4360   18.6770 C   0  0  0  0  0  2  0  0  0  0  0  0
  -25.8460  -13.8530   19.1190 C   0  0  0  0  0  3  0  0  0  0  0  0
  -26.9020  -12.9120   18.3880 C   0  0  0  0  0  3  0  0  0  0  0  0
  -27.3640  -11.2830   18.5970 C   0  0  0  0  0  2  0  0  0  0  0  0
  -28.9050  -10.4350   18.5220 C   0  0  0  0  0  2  0  0  0  0  0  0
  -30.1940   -9.9920   19.6110 C   0  0  0  0  0  2  0  0  0  0  0  0
  -31.8970   -9.9250   19.5770 C   0  0  0  0  0  2  0  0  0  0  0  0
  -33.6200  -11.7050   20.6950 C   0  0  0  0  0  0  0  0  0  0  0  0
  -33.0870  -12.5030   18.8220 C   0  0  0  0  0  2  0  0  0  0  0  0
  -31.9680  -12.4520   17.9260 C   0  0  0  0  0  2  0  0  0  0  0  0
  -30.8660  -13.1890   18.5760 C   0  0  0  0  0  2  0  0  0  0  0  0
  -30.4710  -13.1880   20.1460 C   0  0  0  0  0  3  0  0  0  0  0  0
  -31.4900  -12.5590   21.0150 C   0  0  0  0  0  2  0  0  0  0  0  0
  -32.7380  -12.4550   20.2520 N   0  0  0  0  0  0  0  0  0  0  0  0
  -34.8000  -12.1300   20.7400 O   0  0  0  0  0  0  0  0  0  0  0  0
  -33.0340  -10.4350   20.5780 N   0  0  0  0  0  0  0  0  0  0  0  0
  -33.6140   -9.6940   20.9470 H   0  0  0  0  0  0  0  0  0  0  0  0
  -28.3360  -14.0720   21.3360 C   0  0  0  0  0  3  0  0  0  0  0  0
  -27.1110  -13.5330   21.6310 C   0  0  0  0  0  0  0  0  0  0  0  0
  -27.1970  -12.1580   21.3160 C   0  0  0  0  0  0  0  0  0  0  0  0
  -29.0960  -13.0750   20.7440 N   0  0  0  0  0  0  0  0  0  0  0  0
  -28.4380  -11.8940   20.9520 N   0  0  0  0  0  2  0  0  0  0  0  0
  -26.1600  -11.1020   21.2870 C   0  0  0  0  0  0  0  0  0  0  0  0
  -26.2700   -9.9310   22.0710 C   0  0  0  0  0  3  0  0  0  0  0  0
  -25.2400   -8.9630   22.0690 C   0  0  0  0  0  3  0  0  0  0  0  0
  -24.0850   -9.1510   21.2800 C   0  0  0  0  0  0  0  0  0  0  0  0
  -23.9960  -10.2950   20.4680 C   0  0  0  0  0  3  0  0  0  0  0  0
  -25.0220  -11.2590   20.4680 C   0  0  0  0  0  3  0  0  0  0  0  0
  -23.0390   -8.2600   21.2110 O   0  0  0  0  0  0  0  0  0  0  0  0
  -22.5880   -7.5910   22.3210 C   0  0  0  0  0  0  0  0  0  0  0  0
  -22.1500   -8.2760   23.4740 C   0  0  0  0  0  3  0  0  0  0  0  0
  -21.6390   -7.5530   24.5700 C   0  0  0  0  0  3  0  0  0  0  0  0
  -21.5480   -6.1490   24.5070 C   0  0  0  0  0  0  0  0  0  0  0  0
  -21.9740   -5.4670   23.3530 C   0  0  0  0  0  3  0  0  0  0  0  0
  -22.4920   -6.1880   22.2640 C   0  0  0  0  0  0  0  0  0  0  0  0
  -22.8860   -5.5270   21.1480 F   0  0  0  0  0  0  0  0  0  0  0  0
  -21.0450   -5.4560   25.5550 F   0  0  0  0  0  0  0  0  0  0  0  0
  -25.9100  -14.2810   22.1150 C   0  0  0  0  0  0  0  0  0  0  0  0
  -25.0760  -13.6300   22.9220 N   0  0  0  0  0  0  0  0  0  0  0  0
  -25.7310  -15.4620   21.8260 O   0  0  0  0  0  0  0  0  0  0  0  0
  -25.2290  -12.6620   23.1590 H   0  0  0  0  0  0  0  0  0  0  0  0
  -24.2780  -14.1100   23.3110 H   0  0  0  0  0  0  0  0  0  0  0  0
  -28.8350  -15.3440   21.5290 N   0  0  0  0  0  0  0  0  0  0  0  0
  -28.2530  -16.0890   21.8950 H   0  0  0  0  0  0  0  0  0  0  0  0
  -29.7640  -15.6480   21.2780 H   0  0  0  0  0  0  0  0  0  0  0  0
  1  2  1  0
  1 49  2  0
  2  4  1  0
  4  3  1  0
  4  5  1  0
  6  5  1  0
  6  7  1  0
  8 10  1  0
  8  7  1  0
  9 20  2  0
 10 15  1  0
 11 19  1  0
 11 21  1  0
 12 18  1  0
 12 14  1  0
 13 19  1  0
 14 13  1  0
 15 14  2  0
 16 17  1  0
 16 10  2  0
 17 12  2  0
 18 11  1  0
 19  9  1  0
 21 23  2  0
 22 21  1  0
 24 22  1  0
 25 34  2  0
 25 30  1  0
 26 22  1  0
 26 30  1  0
 27 26  1  0
 28 29  1  0
 28 27  1  0
 29 25  1  0
 30 31  2  0
 31 32  1  0
 33 32  2  0
 34 33  1  0
 35  9  1  0
 35 36  1  0
 35 45  1  0
 36 39  1  0
 37 41  1  0
 37 36  1  0
 38 37  2  0
 41 40  1  0
 43 41  1  0
 43 44  1  0
 43 42  1  0
 45 48  1  1
 45 46  1  0
 47 45  1  0
 50 49  1  0
 50 51  1  0
 52 53  1  0
 52 51  2  0
 54 53  1  0
 54 55  1  0
 56 55  1  0
 56 65  1  0
 57 64  2  0
 58 63  1  0
 59 60  1  0
 59 58  1  0
 61 60  1  0
 61 70  1  0
 61 62  1  0
 63 57  1  0
 63 62  1  0
 65 57  1  0
 65 66  1  0
 67 92  1  0
 67 68  1  0
 68 87  1  0
 69 68  2  0
 70 71  1  0
 70 67  1  0
 71 69  1  0
 72 69  1  0
 72 73  1  0
 74 73  2  0
 75 74  1  0
 76 77  1  0
 76 75  2  0
 77 72  2  0
 78 75  1  0
 78 79  1  0
 79 80  1  0
 80 81  2  0
 82 81  1  0
 82 86  1  0
 83 82  2  0
 84 79  2  0
 84 83  1  0
 85 84  1  0
 87 88  1  0
 88 90  1  0
 88 91  1  0
 89 87  2  0
 92 93  1  0
 94 92  1  0
M  ISO  4   7 101   8 101  57 100  65 100
M  END
>  <TORSDO>  (92) 
F 29

>  <SCORE>  (92) 
-2.431

>  <name>  (92) 
92

>  <ligand_id>  (92) 
92

>  <original_smiles>  (92) 
[H]c1c([H])c([H])c2c(c1[H])C([H])([H])C([H])([H])C([H])([H])C2([H])N([H])C(=O)C1([H])N(C(=O)C([H])(N([H])C(=O)C([H])(N([H])C([H])([H])[H])C([H])([H])[H])C(C([H])([H])[H])(C([H])([H])[H])C([H])([H])[H])C([H])([H])c2c([H])c(OC([H])([H])C([H])([H])C([H])([H])C([H])(C([H])([H])[H])C([H])([H])C([H])([H])C([H])([H])C([H])([H])C([H])([H])C([H])([H])C([H])([H])C([H])([H])C([H])([H])C([H])([H])N([H])C(=O)N3C([H])([H])C([H])([H])C([H])([H])C([H])(n4nc(-c5c([H])c([H])c(Oc6c([H])c([H])c(F)c([H])c6F)c([H])c5[H])c(C(=O)N([H])[H])c4N([H])[H])C3([H])[H])c([H])c([H])c2C1([H])[H]

>  <smiles>  (92) 
[H]c1c([H])c([H])c2c(c1[H])C([H])([H])C([H])([H])C([H])([H])C2([H])N([H])C(=O)C1([H])N(C(=O)C([H])(N([H])C(=O)C([H])(N([H])C([H])([H])[H])C([H])([H])[H])C(C([H])([H])[H])(C([H])([H])[H])C([H])([H])[H])C([H])([H])c2c([H])c(OC([H])([H])C([H])([H])C([H])([H])C([H])(C([H])([H])[H])C([H])([H])C([H])([H])C([H])([H])C([H])([H])C([H])([H])C([H])([H])C([H])([H])C([H])([H])C([H])([H])C([H])([H])N([H])C(=O)N3C([H])([H])C([H])([H])C([H])([H])C([H])(n4nc(-c5c([H])c([H])c(Oc6c([H])c([H])c(F)c([H])c6F)c([H])c5[H])c(C(=O)N([H])[H])c4N([H])[H])C3([H])[H])c([H])c([H])c2C1([H])[H]

$$$$
93:0:0
     RDKit          3D

 94102  0  0  1  0  0  0  0  0999 V2000
  -30.8510  -23.1550   18.9730 C   0  0  0  0  0  3  0  0  0  0  0  0
  -28.8220  -23.2060   17.6290 C   0  0  0  0  0  3  0  0  0  0  0  0
  -31.1940  -24.4390   18.5090 C   0  0  0  0  0  3  0  0  0  0  0  0
  -29.1720  -24.4860   17.1570 C   0  0  0  0  0  3  0  0  0  0  0  0
  -29.6480  -22.5310   18.5600 C   0  0  0  0  0  0  0  0  0  0  0  0
  -30.3460  -25.1200   17.6130 C   0  0  0  0  0  0  0  0  0  0  0  0
  -29.2450  -21.1790   19.0530 C   0  0  0  0  0  0  0  0  0  0  0  0
  -28.4660  -20.4440   18.4380 O   0  0  0  0  0  0  0  0  0  0  0  0
  -29.7770  -20.7170   20.4190 C   0  0  0  0  0  2  0  0  0  0  0  0
  -30.6320  -19.4330   20.3660 C   0  0  0  0  0  2  0  0  0  0  0  0
  -29.8610  -18.1680   20.7910 C   0  0  0  0  0  2  0  0  0  0  0  0
  -30.7730  -16.9370   20.9090 C   0  0  0  0  0  2  0  0  0  0  0  0
  -29.9900  -15.6180   21.1220 C   0  0  0  0  0  2  0  0  0  0  0  0
  -30.6980  -14.3810   20.5460 C   0  0  0  0  0  0  0  0  0  0  0  0
  -30.3480  -12.2590   19.3500 C   0  0  0  0  0  2  0  0  0  0  0  0
  -29.4270  -12.5480   18.1460 C   0  0  0  0  0  2  0  0  0  0  0  0
  -27.9430  -12.4350   18.5480 C   0  0  0  0  0  2  0  0  0  0  0  0
  -27.6180  -13.2250   19.8440 C   0  0  0  0  0  3  0  0  0  0  0  0
  -28.6640  -12.9680   20.9540 C   0  0  0  0  0  2  0  0  0  0  0  0
  -30.0010  -13.2240   20.4030 N   0  0  0  0  0  0  0  0  0  0  0  0
  -31.8350  -14.5220   20.0890 O   0  0  0  0  0  0  0  0  0  0  0  0
  -25.2180  -13.8420   20.5300 C   0  0  0  0  0  0  0  0  0  0  0  0
  -24.1430  -13.0710   20.8940 C   0  0  0  0  0  0  0  0  0  0  0  0
  -24.6020  -11.7210   20.8780 C   0  0  0  0  0  0  0  0  0  0  0  0
  -26.2610  -12.9560   20.3150 N   0  0  0  0  0  0  0  0  0  0  0  0
  -25.8960  -11.6770   20.5800 N   0  0  0  0  0  0  0  0  0  0  0  0
  -23.8730  -10.4600   21.0720 C   0  0  0  0  0  0  0  0  0  0  0  0
  -24.3120   -9.4890   21.9980 C   0  0  0  0  0  3  0  0  0  0  0  0
  -23.5890   -8.2910   22.1800 C   0  0  0  0  0  3  0  0  0  0  0  0
  -22.4100   -8.0570   21.4330 C   0  0  0  0  0  0  0  0  0  0  0  0
  -21.9890   -9.0150   20.4940 C   0  0  0  0  0  3  0  0  0  0  0  0
  -22.7140  -10.2060   20.3100 C   0  0  0  0  0  3  0  0  0  0  0  0
  -21.6510   -6.9140   21.5240 O   0  0  0  0  0  0  0  0  0  0  0  0
  -21.6290   -6.1540   22.6650 C   0  0  0  0  0  0  0  0  0  0  0  0
  -21.2510   -6.6970   23.9120 C   0  0  0  0  0  3  0  0  0  0  0  0
  -21.1720   -5.8660   25.0470 C   0  0  0  0  0  3  0  0  0  0  0  0
  -21.4600   -4.4910   24.9360 C   0  0  0  0  0  0  0  0  0  0  0  0
  -21.8310   -3.9490   23.6930 C   0  0  0  0  0  3  0  0  0  0  0  0
  -21.9130   -4.7770   22.5610 C   0  0  0  0  0  0  0  0  0  0  0  0
  -22.2490   -4.2450   21.3610 F   0  0  0  0  0  0  0  0  0  0  0  0
  -21.3780   -3.6900   26.0250 F   0  0  0  0  0  0  0  0  0  0  0  0
  -22.7440  -13.5530   21.1510 C   0  0  0  0  0  0  0  0  0  0  0  0
  -22.0110  -12.8570   22.0140 N   0  0  0  0  0  0  0  0  0  0  0  0
  -22.3110  -14.5740   20.6230 O   0  0  0  0  0  0  0  0  0  0  0  0
  -22.3830  -12.0340   22.4630 H   0  0  0  0  0  0  0  0  0  0  0  0
  -21.0680  -13.1520   22.2260 H   0  0  0  0  0  0  0  0  0  0  0  0
  -25.3930  -15.2090   20.3470 N   0  0  0  0  0  0  0  0  0  0  0  0
  -24.6390  -15.8810   20.4300 H   0  0  0  0  0  0  0  0  0  0  0  0
  -26.2640  -15.6340   20.0520 H   0  0  0  0  0  0  0  0  0  0  0  0
  -30.6970  -26.5190   17.1360 C   0  0  0  0  0  2  0  0  0  0  0  0
  -29.6830  -27.5930   17.5770 C   0  0  0  0  0  2  0  0  0  0  0  0
  -29.9080  -28.2150   18.9740 C   0  0  0  0  0  2  0  0  0  0  0  0
  -29.6760  -27.2900   20.1860 C   0  0  0  0  0  2  0  0  0  0  0  0
  -28.4090  -26.6640   20.1040 O   0  0  0  0  0  0  0  0  0  0  0  0
  -24.6410  -31.8700   23.2000 C   0  0  0  0  0  0  0  0  0  0  0  0
  -27.2840  -27.4520   20.1610 C   0  0  0  0  0  0  0  0  0  0  0  0
  -23.4310  -30.4580   21.5650 C   0  0  0  0  0  3  0  0  0  0  0  0
  -24.8840  -28.9270   20.1410 C   0  0  0  0  0  0  0  0  0  0  0  0
  -25.9420  -30.8480   21.3430 C   0  0  0  0  0  2  0  0  0  0  0  0
  -26.0300  -29.4690   20.7330 C   0  0  0  0  0  0  0  0  0  0  0  0
  -27.2320  -28.7360   20.7540 C   0  0  0  0  0  3  0  0  0  0  0  0
  -26.1220  -26.9160   19.5760 C   0  0  0  0  0  3  0  0  0  0  0  0
  -24.9230  -27.6490   19.5530 C   0  0  0  0  0  3  0  0  0  0  0  0
  -23.6340  -29.7720   20.1850 C   0  0  0  0  0  2  0  0  0  0  0  0
  -24.6900  -31.0760   22.0950 N   0  0  0  0  0  0  0  0  0  0  0  0
  -23.5630  -32.1350   23.7490 O   0  0  0  0  0  0  0  0  0  0  0  0
  -22.7950  -29.4340   22.5310 C   0  0  0  0  0  0  0  0  0  0  0  0
  -21.4690  -29.2530   22.4140 N   0  0  0  0  0  0  0  0  0  0  0  0
  -23.4870  -28.8050   23.3370 O   0  0  0  0  0  0  0  0  0  0  0  0
  -20.9810  -29.8080   21.7260 H   0  0  0  0  0  0  0  0  0  0  0  0
  -18.0910  -28.0900   22.9370 C   0  0  0  0  0  0  0  0  0  0  0  0
  -20.6530  -28.3190   23.1860 C   0  0  0  0  0  3  0  0  0  0  0  0
  -20.7360  -26.8910   22.5960 C   0  0  0  0  0  2  0  0  0  0  0  0
  -19.6220  -26.5870   21.5910 C   0  0  0  0  0  2  0  0  0  0  0  0
  -18.2470  -26.7450   22.2500 C   0  0  0  0  0  2  0  0  0  0  0  0
  -19.2210  -28.8380   23.3620 C   0  0  0  0  0  0  0  0  0  0  0  0
  -19.0180  -30.1020   23.9580 C   0  0  0  0  0  3  0  0  0  0  0  0
  -17.7210  -30.6150   24.1380 C   0  0  0  0  0  3  0  0  0  0  0  0
  -16.6060  -29.8590   23.7350 C   0  0  0  0  0  3  0  0  0  0  0  0
  -16.7930  -28.6000   23.1400 C   0  0  0  0  0  3  0  0  0  0  0  0
  -25.9300  -32.5000   23.8160 C   0  0  0  0  0  3  0  0  0  0  0  0
  -26.4680  -31.7140   25.0740 C   0  0  1  0  0  0  0  0  0  0  0  0
  -25.3850  -31.4540   26.1460 C   0  0  0  0  0  1  0  0  0  0  0  0
  -27.0500  -30.3470   24.6430 C   0  0  0  0  0  1  0  0  0  0  0  0
  -27.6230  -32.5020   25.7350 C   0  0  0  0  0  1  0  0  0  0  0  0
  -25.6150  -33.8900   24.1640 N   0  0  0  0  0  0  0  0  0  0  0  0
  -25.9360  -34.9540   23.4130 C   0  0  0  0  0  0  0  0  0  0  0  0
  -26.6000  -34.8670   22.3770 O   0  0  0  0  0  0  0  0  0  0  0  0
  -25.0190  -34.0300   24.9670 H   0  0  0  0  0  0  0  0  0  0  0  0
  -24.1850  -36.7290   23.0860 C   0  0  0  0  0  1  0  0  0  0  0  0
  -25.4370  -36.3330   23.8860 C   0  0  0  0  0  3  0  0  0  0  0  0
  -27.5750  -37.2240   24.7000 C   0  0  0  0  0  1  0  0  0  0  0  0
  -26.4570  -37.3990   23.7770 N   0  0  0  0  0  0  0  0  0  0  0  0
  -26.0440  -38.3110   23.9530 H   0  0  0  0  0  0  0  0  0  0  0  0
  2  5  2  0
  3  1  2  0
  4  6  2  0
  4  2  1  0
  5  1  1  0
  5  7  1  0
  6  3  1  0
  7  9  1  0
  8  7  2  0
 10  9  1  0
 10 11  1  0
 11 12  1  0
 12 13  1  0
 14 13  1  0
 15 20  1  0
 16 17  1  0
 16 15  1  0
 18 17  1  0
 18 25  1  0
 18 19  1  0
 20 14  1  0
 20 19  1  0
 21 14  2  0
 22 23  2  0
 23 42  1  0
 24 23  1  0
 24 27  1  0
 25 22  1  0
 25 26  1  0
 26 24  2  0
 27 28  1  0
 28 29  2  0
 30 33  1  0
 30 29  1  0
 31 30  2  0
 32 31  1  0
 32 27  2  0
 33 34  1  0
 34 35  1  0
 35 36  2  0
 37 36  1  0
 37 41  1  0
 38 37  2  0
 39 34  2  0
 39 38  1  0
 40 39  1  0
 42 43  1  0
 43 46  1  0
 43 45  1  0
 44 42  2  0
 47 48  1  0
 47 22  1  0
 49 47  1  0
 50 51  1  0
 50  6  1  0
 51 52  1  0
 52 53  1  0
 54 56  1  0
 54 53  1  0
 55 66  2  0
 56 61  1  0
 57 65  1  0
 57 67  1  0
 58 64  1  0
 58 60  1  0
 59 65  1  0
 60 61  2  0
 60 59  1  0
 62 56  2  0
 63 62  1  0
 63 58  2  0
 64 57  1  0
 65 55  1  0
 67 69  2  0
 68 67  1  0
 70 68  1  0
 71 80  2  0
 71 76  1  0
 72 68  1  0
 72 76  1  0
 73 72  1  0
 74 75  1  0
 74 73  1  0
 75 71  1  0
 76 77  2  0
 77 78  1  0
 79 78  2  0
 80 79  1  0
 81 55  1  0
 81 86  1  0
 81 82  1  0
 82 85  1  1
 82 83  1  0
 84 82  1  0
 86 89  1  0
 87 91  1  0
 87 86  1  0
 88 87  2  0
 91 90  1  0
 93 91  1  0
 93 94  1  0
 93 92  1  0
M  ISO  4  13 100  14 100  53 101  54 101
M  END
>  <TORSDO>  (93) 
F 26

>  <SCORE>  (93) 
-11.778

>  <name>  (93) 
93

>  <ligand_id>  (93) 
93

>  <original_smiles>  (93) 
[H]c1c([H])c([H])c2c(c1[H])C([H])([H])C([H])([H])C([H])([H])C2([H])N([H])C(=O)C1([H])N(C(=O)C([H])(N([H])C(=O)C([H])(N([H])C([H])([H])[H])C([H])([H])[H])C(C([H])([H])[H])(C([H])([H])[H])C([H])([H])[H])C([H])([H])c2c([H])c(OC([H])([H])C([H])([H])C([H])([H])C([H])([H])c3c([H])c([H])c(C(=O)C([H])([H])C([H])([H])C([H])([H])C([H])([H])C([H])([H])C(=O)N4C([H])([H])C([H])([H])C([H])([H])C([H])(n5nc(-c6c([H])c([H])c(Oc7c([H])c([H])c(F)c([H])c7F)c([H])c6[H])c(C(=O)N([H])[H])c5N([H])[H])C4([H])[H])c([H])c3[H])c([H])c([H])c2C1([H])[H]

>  <smiles>  (93) 
[H]c1c([H])c([H])c2c(c1[H])C([H])([H])C([H])([H])C([H])([H])C2([H])N([H])C(=O)C1([H])N(C(=O)C([H])(N([H])C(=O)C([H])(N([H])C([H])([H])[H])C([H])([H])[H])C(C([H])([H])[H])(C([H])([H])[H])C([H])([H])[H])C([H])([H])c2c([H])c(OC([H])([H])C([H])([H])C([H])([H])C([H])([H])c3c([H])c([H])c(C(=O)C([H])([H])C([H])([H])C([H])([H])C([H])([H])C([H])([H])C(=O)N4C([H])([H])C([H])([H])C([H])([H])C([H])(n5nc(-c6c([H])c([H])c(Oc7c([H])c([H])c(F)c([H])c7F)c([H])c6[H])c(C(=O)N([H])[H])c5N([H])[H])C4([H])[H])c([H])c3[H])c([H])c([H])c2C1([H])[H]

$$$$
94:0:0
     RDKit          3D

 97105  0  0  1  0  0  0  0  0999 V2000
  -30.2540  -21.9300   22.3130 C   0  0  0  0  0  3  0  0  0  0  0  0
  -29.6730  -23.2050   22.1270 C   0  0  0  0  0  3  0  0  0  0  0  0
  -28.8790  -21.0340   20.5370 C   0  0  0  0  0  3  0  0  0  0  0  0
  -29.8660  -20.8170   21.5280 C   0  0  0  0  0  0  0  0  0  0  0  0
  -28.6790  -23.4230   21.1450 C   0  0  0  0  0  0  0  0  0  0  0  0
  -28.2960  -22.3130   20.3360 C   0  0  0  0  0  0  0  0  0  0  0  0
  -27.2590  -22.4550   19.2330 C   0  0  0  0  0  1  0  0  0  0  0  0
  -30.5160  -19.4610   21.7580 C   0  0  0  0  0  0  0  0  0  0  0  0
  -30.1840  -18.4380   20.9440 N   0  0  0  0  0  0  0  0  0  0  0  0
  -31.3740  -19.3320   22.6370 O   0  0  0  0  0  0  0  0  0  0  0  0
  -29.4680  -18.6320   20.2580 H   0  0  0  0  0  0  0  0  0  0  0  0
  -30.9690  -17.1960   20.7650 C   0  0  0  0  0  2  0  0  0  0  0  0
  -30.2690  -15.8600   21.1710 C   0  0  0  0  0  2  0  0  0  0  0  0
  -30.9480  -14.6040   20.5500 C   0  0  0  0  0  0  0  0  0  0  0  0
  -30.6640  -12.4240   19.4150 C   0  0  0  0  0  2  0  0  0  0  0  0
  -29.7480  -12.6080   18.1880 C   0  0  0  0  0  2  0  0  0  0  0  0
  -28.2670  -12.4730   18.5910 C   0  0  0  0  0  2  0  0  0  0  0  0
  -27.9040  -13.3330   19.8320 C   0  0  0  0  0  3  0  0  0  0  0  0
  -28.9380  -13.1500   20.9670 C   0  0  0  0  0  2  0  0  0  0  0  0
  -30.2730  -13.4270   20.4200 N   0  0  0  0  0  0  0  0  0  0  0  0
  -32.0810  -14.7430   20.0780 O   0  0  0  0  0  0  0  0  0  0  0  0
  -25.4980  -13.9530   20.4960 C   0  0  0  0  0  0  0  0  0  0  0  0
  -24.4200  -13.1860   20.8490 C   0  0  0  0  0  0  0  0  0  0  0  0
  -24.8750  -11.8320   20.8340 C   0  0  0  0  0  0  0  0  0  0  0  0
  -26.5430  -13.0660   20.2890 N   0  0  0  0  0  0  0  0  0  0  0  0
  -26.1710  -11.7850   20.5500 N   0  0  0  0  0  0  0  0  0  0  0  0
  -24.1390  -10.5740   21.0180 C   0  0  0  0  0  0  0  0  0  0  0  0
  -24.5490   -9.6110   21.9650 C   0  0  0  0  0  3  0  0  0  0  0  0
  -23.8160   -8.4180   22.1370 C   0  0  0  0  0  3  0  0  0  0  0  0
  -22.6600   -8.1780   21.3580 C   0  0  0  0  0  0  0  0  0  0  0  0
  -22.2690   -9.1290   20.3990 C   0  0  0  0  0  3  0  0  0  0  0  0
  -23.0030  -10.3140   20.2270 C   0  0  0  0  0  3  0  0  0  0  0  0
  -21.8990   -7.0360   21.4370 O   0  0  0  0  0  0  0  0  0  0  0  0
  -21.8220   -6.3010   22.5920 C   0  0  0  0  0  0  0  0  0  0  0  0
  -21.3640   -6.8620   23.8040 C   0  0  0  0  0  3  0  0  0  0  0  0
  -21.2350   -6.0530   24.9500 C   0  0  0  0  0  3  0  0  0  0  0  0
  -21.5550   -4.6830   24.8860 C   0  0  0  0  0  0  0  0  0  0  0  0
  -22.0050   -4.1210   23.6790 C   0  0  0  0  0  3  0  0  0  0  0  0
  -22.1360   -4.9270   22.5350 C   0  0  0  0  0  0  0  0  0  0  0  0
  -22.5500   -4.3760   21.3690 F   0  0  0  0  0  0  0  0  0  0  0  0
  -21.4230   -3.9050   25.9860 F   0  0  0  0  0  0  0  0  0  0  0  0
  -23.0190  -13.6710   21.0950 C   0  0  0  0  0  0  0  0  0  0  0  0
  -22.2760  -12.9850   21.9550 N   0  0  0  0  0  0  0  0  0  0  0  0
  -22.5930  -14.6920   20.5580 O   0  0  0  0  0  0  0  0  0  0  0  0
  -22.6330  -12.1590   22.4120 H   0  0  0  0  0  0  0  0  0  0  0  0
  -21.3350  -13.2890   22.1600 H   0  0  0  0  0  0  0  0  0  0  0  0
  -25.6720  -15.3210   20.3150 N   0  0  0  0  0  0  0  0  0  0  0  0
  -24.9070  -15.9810   20.4070 H   0  0  0  0  0  0  0  0  0  0  0  0
  -26.5350  -15.7560   20.0130 H   0  0  0  0  0  0  0  0  0  0  0  0
  -28.0040  -24.8170   21.0290 C   0  0  0  0  0  3  0  0  0  0  0  0
  -27.1200  -25.1130   22.2650 C   0  0  0  0  0  2  0  0  0  0  0  0
  -25.9730  -24.1970   22.3890 N   0  0  0  0  0  4  0  0  0  0  0  0
  -26.2910  -23.2430   22.4300 H   0  0  0  0  0  0  0  0  0  0  0  0
  -25.3390  -24.2990   21.6180 H   0  0  0  0  0  0  0  0  0  0  0  0
  -25.4720  -24.3980   23.2370 H   0  0  0  0  0  0  0  0  0  0  0  0
  -28.9900  -26.0070   20.7840 C   0  0  0  0  0  2  0  0  0  0  0  0
  -28.6170  -26.9130   19.7340 O   0  0  0  0  0  0  0  0  0  0  0  0
  -24.5360  -31.7310   23.1320 C   0  0  0  0  0  0  0  0  0  0  0  0
  -27.4280  -27.5960   19.8560 C   0  0  0  0  0  0  0  0  0  0  0  0
  -23.4230  -30.3840   21.3800 C   0  0  0  0  0  3  0  0  0  0  0  0
  -24.9700  -28.9930   19.9060 C   0  0  0  0  0  0  0  0  0  0  0  0
  -25.9350  -30.8570   21.2620 C   0  0  0  0  0  2  0  0  0  0  0  0
  -26.0920  -29.5240   20.5570 C   0  0  0  0  0  0  0  0  0  0  0  0
  -27.3250  -28.8290   20.5420 C   0  0  0  0  0  3  0  0  0  0  0  0
  -26.2960  -27.0850   19.1900 C   0  0  0  0  0  3  0  0  0  0  0  0
  -25.0670  -27.7680   19.2220 C   0  0  0  0  0  3  0  0  0  0  0  0
  -23.6900  -29.7960   19.9700 C   0  0  0  0  0  2  0  0  0  0  0  0
  -24.6480  -31.0040   21.9840 N   0  0  0  0  0  0  0  0  0  0  0  0
  -23.4340  -31.9230   23.6650 O   0  0  0  0  0  0  0  0  0  0  0  0
  -22.7970  -29.2810   22.2630 C   0  0  0  0  0  0  0  0  0  0  0  0
  -21.4770  -29.0790   22.1220 N   0  0  0  0  0  0  0  0  0  0  0  0
  -23.4970  -28.6110   23.0280 O   0  0  0  0  0  0  0  0  0  0  0  0
  -20.9730  -29.6710   21.4780 H   0  0  0  0  0  0  0  0  0  0  0  0
  -18.1210  -27.8260   22.5870 C   0  0  0  0  0  0  0  0  0  0  0  0
  -20.6830  -28.0670   22.8190 C   0  0  0  0  0  3  0  0  0  0  0  0
  -20.7760  -26.6990   22.1060 C   0  0  0  0  0  2  0  0  0  0  0  0
  -19.6480  -26.4700   21.0950 C   0  0  0  0  0  2  0  0  0  0  0  0
  -18.2830  -26.5480   21.7820 C   0  0  0  0  0  2  0  0  0  0  0  0
  -19.2480  -28.5470   23.0610 C   0  0  0  0  0  0  0  0  0  0  0  0
  -19.0410  -29.7480   23.7750 C   0  0  0  0  0  3  0  0  0  0  0  0
  -17.7400  -30.2270   24.0180 C   0  0  0  0  0  3  0  0  0  0  0  0
  -16.6280  -29.4990   23.5610 C   0  0  0  0  0  3  0  0  0  0  0  0
  -16.8190  -28.3000   22.8500 C   0  0  0  0  0  3  0  0  0  0  0  0
  -25.7830  -32.3740   23.8170 C   0  0  0  0  0  3  0  0  0  0  0  0
  -26.2570  -31.5930   25.1030 C   0  0  1  0  0  0  0  0  0  0  0  0
  -25.1240  -31.3210   26.1200 C   0  0  0  0  0  1  0  0  0  0  0  0
  -26.8780  -30.2300   24.7150 C   0  0  0  0  0  1  0  0  0  0  0  0
  -27.3660  -32.3940   25.8260 C   0  0  0  0  0  1  0  0  0  0  0  0
  -25.4390  -33.7630   24.1480 N   0  0  0  0  0  0  0  0  0  0  0  0
  -25.7820  -34.8270   23.4110 C   0  0  0  0  0  0  0  0  0  0  0  0
  -26.4910  -34.7440   22.4040 O   0  0  0  0  0  0  0  0  0  0  0  0
  -24.8120  -33.9000   24.9280 H   0  0  0  0  0  0  0  0  0  0  0  0
  -24.0300  -36.5870   23.0130 C   0  0  0  0  0  1  0  0  0  0  0  0
  -25.2530  -36.2030   23.8610 C   0  0  0  0  0  3  0  0  0  0  0  0
  -27.3410  -37.1220   24.7670 C   0  0  0  0  0  1  0  0  0  0  0  0
  -26.2680  -37.2760   23.7870 N   0  0  0  0  0  0  0  0  0  0  0  0
  -25.8410  -38.1870   23.9270 H   0  0  0  0  0  0  0  0  0  0  0  0
  2  1  1  0
  3  4  1  0
  4  8  1  0
  4  1  2  0
  5  2  2  0
  6  3  2  0
  6  5  1  0
  7  6  1  0
  8 10  2  0
  9  8  1  0
 11  9  1  0
 12  9  1  0
 12 13  1  0
 14 13  1  0
 15 20  1  0
 16 17  1  0
 16 15  1  0
 18 17  1  0
 18 25  1  0
 18 19  1  0
 20 14  1  0
 20 19  1  0
 21 14  2  0
 22 23  2  0
 23 42  1  0
 24 23  1  0
 24 27  1  0
 25 22  1  0
 25 26  1  0
 26 24  2  0
 27 28  1  0
 28 29  2  0
 30 33  1  0
 30 29  1  0
 31 30  2  0
 32 31  1  0
 32 27  2  0
 33 34  1  0
 34 35  1  0
 35 36  2  0
 37 36  1  0
 37 41  1  0
 38 37  2  0
 39 34  2  0
 39 38  1  0
 40 39  1  0
 42 43  1  0
 43 46  1  0
 43 45  1  0
 44 42  2  0
 47 48  1  0
 47 22  1  0
 49 47  1  0
 50 56  1  0
 50  5  1  0
 50 51  1  0
 51 52  1  0
 52 53  1  0
 52 55  1  0
 54 52  1  0
 57 59  1  0
 57 56  1  0
 58 69  2  0
 59 64  1  0
 60 68  1  0
 60 70  1  0
 61 67  1  0
 61 63  1  0
 62 68  1  0
 63 62  1  0
 64 63  2  0
 65 66  1  0
 65 59  2  0
 66 61  2  0
 67 60  1  0
 68 58  1  0
 70 72  2  0
 71 70  1  0
 73 71  1  0
 74 83  2  0
 74 79  1  0
 75 71  1  0
 75 79  1  0
 76 75  1  0
 77 78  1  0
 77 76  1  0
 78 74  1  0
 79 80  2  0
 80 81  1  0
 82 81  2  0
 83 82  1  0
 84 58  1  0
 84 89  1  0
 84 85  1  0
 85 88  1  1
 85 86  1  0
 87 85  1  0
 89 92  1  0
 90 94  1  0
 90 89  1  0
 91 90  2  0
 94 93  1  0
 96 94  1  0
 96 97  1  0
 96 95  1  0
M  ISO  4  13 100  14 100  56 101  57 101
M  END
>  <TORSDO>  (94) 
F 23

>  <SCORE>  (94) 
-13.183

>  <name>  (94) 
94

>  <ligand_id>  (94) 
94

>  <original_smiles>  (94) 
[H]c1c([H])c([H])c2c(c1[H])C([H])([H])C([H])([H])C([H])([H])C2([H])N([H])C(=O)C1([H])N(C(=O)C([H])(N([H])C(=O)C([H])(N([H])C([H])([H])[H])C([H])([H])[H])C(C([H])([H])[H])(C([H])([H])[H])C([H])([H])[H])C([H])([H])c2c([H])c(OC([H])([H])C([H])(c3c([H])c([H])c(C(=O)N([H])C([H])([H])C([H])([H])C(=O)N4C([H])([H])C([H])([H])C([H])([H])C([H])(n5nc(-c6c([H])c([H])c(Oc7c([H])c([H])c(F)c([H])c7F)c([H])c6[H])c(C(=O)N([H])[H])c5N([H])[H])C4([H])[H])c([H])c3C([H])([H])[H])C([H])([H])[N+]([H])([H])[H])c([H])c([H])c2C1([H])[H]

>  <smiles>  (94) 
[H]c1c([H])c([H])c2c(c1[H])C([H])([H])C([H])([H])C([H])([H])C2([H])N([H])C(=O)C1([H])N(C(=O)C([H])(N([H])C(=O)C([H])(N([H])C([H])([H])[H])C([H])([H])[H])C(C([H])([H])[H])(C([H])([H])[H])C([H])([H])[H])C([H])([H])c2c([H])c(OC([H])([H])C([H])(c3c([H])c([H])c(C(=O)N([H])C([H])([H])C([H])([H])C(=O)N4C([H])([H])C([H])([H])C([H])([H])C([H])(n5nc(-c6c([H])c([H])c(Oc7c([H])c([H])c(F)c([H])c7F)c([H])c6[H])c(C(=O)N([H])[H])c5N([H])[H])C4([H])[H])c([H])c3C([H])([H])[H])C([H])([H])[N+]([H])([H])[H])c([H])c([H])c2C1([H])[H]

$$$$
95:0:0
     RDKit          3D

 94102  0  0  1  0  0  0  0  0999 V2000
  -29.3400  -22.5910   19.4670 C   0  0  0  0  0  3  0  0  0  0  0  0
  -31.1390  -20.9770   19.7840 C   0  0  0  0  0  3  0  0  0  0  0  0
  -31.6200  -23.1710   18.8220 C   0  0  0  0  0  3  0  0  0  0  0  0
  -29.7740  -21.3220   19.9000 C   0  0  0  0  0  0  0  0  0  0  0  0
  -30.2560  -23.5180   18.9240 C   0  0  0  0  0  0  0  0  0  0  0  0
  -32.0640  -21.9010   19.2490 C   0  0  0  0  0  0  0  0  0  0  0  0
  -33.5340  -21.5480   19.1400 C   0  0  0  0  0  1  0  0  0  0  0  0
  -29.7620  -24.8180   18.4160 C   0  0  0  0  0  0  0  0  0  0  0  0
  -28.8420  -24.9100   17.5960 O   0  0  0  0  0  0  0  0  0  0  0  0
  -30.4070  -26.0680   19.0140 C   0  0  0  0  0  2  0  0  0  0  0  0
  -29.3990  -27.2100   19.2300 C   0  0  0  0  0  2  0  0  0  0  0  0
  -28.4220  -26.7740   20.1660 O   0  0  0  0  0  0  0  0  0  0  0  0
  -24.5860  -31.9000   23.2450 C   0  0  0  0  0  0  0  0  0  0  0  0
  -27.2690  -27.5090   20.1680 C   0  0  0  0  0  0  0  0  0  0  0  0
  -23.3870  -30.4890   21.6010 C   0  0  0  0  0  3  0  0  0  0  0  0
  -24.8550  -28.9590   20.1820 C   0  0  0  0  0  0  0  0  0  0  0  0
  -25.9070  -30.8740   21.4030 C   0  0  0  0  0  2  0  0  0  0  0  0
  -26.0060  -29.5050   20.7680 C   0  0  0  0  0  0  0  0  0  0  0  0
  -27.2180  -28.7860   20.7630 C   0  0  0  0  0  3  0  0  0  0  0  0
  -26.1060  -26.9560   19.5950 C   0  0  0  0  0  3  0  0  0  0  0  0
  -24.8980  -27.6810   19.5940 C   0  0  0  0  0  3  0  0  0  0  0  0
  -23.6030  -29.8050   20.2240 C   0  0  0  0  0  2  0  0  0  0  0  0
  -24.6440  -31.1020   22.1410 N   0  0  0  0  0  0  0  0  0  0  0  0
  -23.5030  -32.1660   23.7840 O   0  0  0  0  0  0  0  0  0  0  0  0
  -22.7410  -29.4670   22.5620 C   0  0  0  0  0  0  0  0  0  0  0  0
  -21.4170  -29.2820   22.4340 N   0  0  0  0  0  0  0  0  0  0  0  0
  -23.4270  -28.8420   23.3760 O   0  0  0  0  0  0  0  0  0  0  0  0
  -20.9270  -29.8380   21.7460 H   0  0  0  0  0  0  0  0  0  0  0  0
  -18.0440  -28.0910   22.9290 C   0  0  0  0  0  0  0  0  0  0  0  0
  -20.6010  -28.3450   23.2030 C   0  0  0  0  0  3  0  0  0  0  0  0
  -20.7030  -26.9150   22.6230 C   0  0  0  0  0  2  0  0  0  0  0  0
  -19.6010  -26.5960   21.6080 C   0  0  0  0  0  2  0  0  0  0  0  0
  -18.2200  -26.7410   22.2520 C   0  0  0  0  0  2  0  0  0  0  0  0
  -19.1630  -28.8490   23.3610 C   0  0  0  0  0  0  0  0  0  0  0  0
  -18.9470  -30.1130   23.9530 C   0  0  0  0  0  3  0  0  0  0  0  0
  -17.6430  -30.6160   24.1170 C   0  0  0  0  0  3  0  0  0  0  0  0
  -16.5370  -29.8530   23.7040 C   0  0  0  0  0  3  0  0  0  0  0  0
  -16.7390  -28.5930   23.1140 C   0  0  0  0  0  3  0  0  0  0  0  0
  -25.8690  -32.5340   23.8670 C   0  0  0  0  0  3  0  0  0  0  0  0
  -25.5590  -33.9330   24.1900 N   0  0  0  0  0  0  0  0  0  0  0  0
  -25.9020  -34.9810   23.4280 C   0  0  0  0  0  0  0  0  0  0  0  0
  -26.5850  -34.8720   22.4060 O   0  0  0  0  0  0  0  0  0  0  0  0
  -24.9570  -34.0920   24.9830 H   0  0  0  0  0  0  0  0  0  0  0  0
  -24.1840  -36.7730   23.0400 C   0  0  0  0  0  1  0  0  0  0  0  0
  -25.4110  -36.3710   23.8730 C   0  0  0  0  0  3  0  0  0  0  0  0
  -27.5350  -37.2520   24.7320 C   0  0  0  0  0  1  0  0  0  0  0  0
  -26.4470  -37.4210   23.7720 N   0  0  0  0  0  0  0  0  0  0  0  0
  -26.0420  -38.3430   23.9130 H   0  0  0  0  0  0  0  0  0  0  0  0
  -26.3870  -31.7660   25.1450 C   0  0  1  0  0  0  0  0  0  0  0  0
  -25.2940  -31.5290   26.2130 C   0  0  0  0  0  1  0  0  0  0  0  0
  -26.9720  -30.3890   24.7520 C   0  0  0  0  0  1  0  0  0  0  0  0
  -27.5370  -32.5640   25.8050 C   0  0  0  0  0  1  0  0  0  0  0  0
  -28.7960  -20.3930   20.5170 C   0  0  0  0  0  0  0  0  0  0  0  0
  -27.9920  -20.7370   21.3880 O   0  0  0  0  0  0  0  0  0  0  0  0
  -28.7600  -18.9680   19.9680 C   0  0  0  0  0  2  0  0  0  0  0  0
  -29.3430  -17.9240   20.9330 C   0  0  0  0  0  2  0  0  0  0  0  0
  -29.5700  -16.5850   20.2200 C   0  0  0  0  0  2  0  0  0  0  0  0
  -30.2480  -15.5180   21.0980 C   0  0  0  0  0  2  0  0  0  0  0  0
  -30.7590  -14.3630   20.2270 C   0  0  0  0  0  0  0  0  0  0  0  0
  -30.3330  -12.2800   18.9790 C   0  0  0  0  0  2  0  0  0  0  0  0
  -29.3450  -12.5510   17.8280 C   0  0  0  0  0  2  0  0  0  0  0  0
  -27.8900  -12.4270   18.3160 C   0  0  0  0  0  2  0  0  0  0  0  0
  -27.6280  -13.2410   19.6100 C   0  0  0  0  0  3  0  0  0  0  0  0
  -28.7180  -12.9450   20.6630 C   0  0  0  0  0  2  0  0  0  0  0  0
  -30.0330  -13.2260   20.0630 N   0  0  0  0  0  0  0  0  0  0  0  0
  -31.8160  -14.5640   19.6200 O   0  0  0  0  0  0  0  0  0  0  0  0
  -25.2660  -13.8930   20.4040 C   0  0  0  0  0  0  0  0  0  0  0  0
  -24.1990  -13.1350   20.8120 C   0  0  0  0  0  0  0  0  0  0  0  0
  -24.6380  -11.7780   20.7630 C   0  0  0  0  0  0  0  0  0  0  0  0
  -26.2890  -12.9950   20.1370 N   0  0  0  0  0  0  0  0  0  0  0  0
  -25.9160  -11.7200   20.4110 N   0  0  0  0  0  0  0  0  0  0  0  0
  -23.9040  -10.5260   20.9790 C   0  0  0  0  0  0  0  0  0  0  0  0
  -24.3620   -9.5480   21.8920 C   0  0  0  0  0  3  0  0  0  0  0  0
  -23.6290   -8.3610   22.0970 C   0  0  0  0  0  3  0  0  0  0  0  0
  -22.4220   -8.1410   21.3900 C   0  0  0  0  0  0  0  0  0  0  0  0
  -21.9820   -9.1070   20.4670 C   0  0  0  0  0  3  0  0  0  0  0  0
  -22.7160  -10.2870   20.2600 C   0  0  0  0  0  3  0  0  0  0  0  0
  -21.6560   -7.0070   21.5050 O   0  0  0  0  0  0  0  0  0  0  0  0
  -21.6540   -6.2540   22.6520 C   0  0  0  0  0  0  0  0  0  0  0  0
  -21.3060   -6.8060   23.9050 C   0  0  0  0  0  3  0  0  0  0  0  0
  -21.2480   -5.9820   25.0470 C   0  0  0  0  0  3  0  0  0  0  0  0
  -21.5270   -4.6070   24.9370 C   0  0  0  0  0  0  0  0  0  0  0  0
  -21.8700   -4.0540   23.6920 C   0  0  0  0  0  3  0  0  0  0  0  0
  -21.9300   -4.8760   22.5510 C   0  0  0  0  0  0  0  0  0  0  0  0
  -22.2400   -4.3330   21.3490 F   0  0  0  0  0  0  0  0  0  0  0  0
  -21.4620   -3.8140   26.0330 F   0  0  0  0  0  0  0  0  0  0  0  0
  -22.8190  -13.6330   21.1350 C   0  0  0  0  0  0  0  0  0  0  0  0
  -22.1170  -12.9470   22.0310 N   0  0  0  0  0  0  0  0  0  0  0  0
  -22.3740  -14.6620   20.6310 O   0  0  0  0  0  0  0  0  0  0  0  0
  -22.4890  -12.1100   22.4530 H   0  0  0  0  0  0  0  0  0  0  0  0
  -21.1950  -13.2630   22.2980 H   0  0  0  0  0  0  0  0  0  0  0  0
  -25.4450  -15.2610   20.2240 N   0  0  0  0  0  0  0  0  0  0  0  0
  -24.6970  -15.9280   20.3760 H   0  0  0  0  0  0  0  0  0  0  0  0
  -26.3050  -15.6880   19.9060 H   0  0  0  0  0  0  0  0  0  0  0  0
  1  4  1  0
  2  4  2  0
  3  5  1  0
  3  6  2  0
  4 53  1  0
  5  1  2  0
  6  2  1  0
  7  6  1  0
  8  5  1  0
  8 10  1  0
  9  8  2  0
 10 11  1  0
 11 12  1  0
 12 14  1  0
 13 24  2  0
 14 19  1  0
 15 23  1  0
 15 25  1  0
 16 22  1  0
 16 18  1  0
 17 23  1  0
 18 17  1  0
 19 18  2  0
 20 14  2  0
 21 20  1  0
 21 16  2  0
 22 15  1  0
 23 13  1  0
 25 27  2  0
 26 25  1  0
 28 26  1  0
 29 38  2  0
 29 34  1  0
 30 26  1  0
 30 34  1  0
 31 30  1  0
 32 33  1  0
 32 31  1  0
 33 29  1  0
 34 35  2  0
 35 36  1  0
 37 36  2  0
 38 37  1  0
 39 13  1  0
 39 40  1  0
 39 49  1  0
 40 43  1  0
 41 45  1  0
 41 40  1  0
 42 41  2  0
 45 44  1  0
 47 45  1  0
 47 48  1  0
 47 46  1  0
 49 52  1  1
 49 50  1  0
 51 49  1  0
 53 54  2  0
 55 53  1  0
 55 56  1  0
 57 56  1  0
 57 58  1  0
 59 58  1  0
 60 65  1  0
 61 62  1  0
 61 60  1  0
 63 62  1  0
 63 70  1  0
 63 64  1  0
 65 59  1  0
 65 64  1  0
 66 59  2  0
 67 68  2  0
 68 87  1  0
 69 68  1  0
 69 72  1  0
 70 67  1  0
 70 71  1  0
 71 69  2  0
 72 73  1  0
 73 74  2  0
 75 78  1  0
 75 74  1  0
 76 75  2  0
 77 76  1  0
 77 72  2  0
 78 79  1  0
 79 80  1  0
 80 81  2  0
 82 81  1  0
 82 86  1  0
 83 82  2  0
 84 79  2  0
 84 83  1  0
 85 84  1  0
 87 88  1  0
 88 91  1  0
 88 90  1  0
 89 87  2  0
 92 93  1  0
 92 67  1  0
 94 92  1  0
M  ISO  4  11 101  12 101  58 100  59 100
M  END
>  <TORSDO>  (95) 
F 24

>  <SCORE>  (95) 
-12.293

>  <name>  (95) 
95

>  <ligand_id>  (95) 
95

>  <original_smiles>  (95) 
[H]c1c([H])c([H])c2c(c1[H])C([H])([H])C([H])([H])C([H])([H])C2([H])N([H])C(=O)C1([H])N(C(=O)C([H])(N([H])C(=O)C([H])(N([H])C([H])([H])[H])C([H])([H])[H])C(C([H])([H])[H])(C([H])([H])[H])C([H])([H])[H])C([H])([H])c2c([H])c(OC([H])([H])C([H])([H])C(=O)c3c([H])c(C(=O)C([H])([H])C([H])([H])C([H])([H])C([H])([H])C(=O)N4C([H])([H])C([H])([H])C([H])([H])C([H])(n5nc(-c6c([H])c([H])c(Oc7c([H])c([H])c(F)c([H])c7F)c([H])c6[H])c(C(=O)N([H])[H])c5N([H])[H])C4([H])[H])c([H])c(C([H])([H])[H])c3[H])c([H])c([H])c2C1([H])[H]

>  <smiles>  (95) 
[H]c1c([H])c([H])c2c(c1[H])C([H])([H])C([H])([H])C([H])([H])C2([H])N([H])C(=O)C1([H])N(C(=O)C([H])(N([H])C(=O)C([H])(N([H])C([H])([H])[H])C([H])([H])[H])C(C([H])([H])[H])(C([H])([H])[H])C([H])([H])[H])C([H])([H])c2c([H])c(OC([H])([H])C([H])([H])C(=O)c3c([H])c(C(=O)C([H])([H])C([H])([H])C([H])([H])C([H])([H])C(=O)N4C([H])([H])C([H])([H])C([H])([H])C([H])(n5nc(-c6c([H])c([H])c(Oc7c([H])c([H])c(F)c([H])c7F)c([H])c6[H])c(C(=O)N([H])[H])c5N([H])[H])C4([H])[H])c([H])c(C([H])([H])[H])c3[H])c([H])c([H])c2C1([H])[H]

$$$$
96:0:0
     RDKit          3D

 89 96  0  0  1  0  0  0  0  0999 V2000
  -30.8600  -24.8470   19.8080 C   0  0  0  0  0  0  0  0  0  0  0  0
  -30.9510  -24.7000   18.5850 O   0  0  0  0  0  0  0  0  0  0  0  0
  -31.4260  -22.5090   20.3590 C   0  0  0  0  0  3  0  0  0  0  0  0
  -30.8920  -23.6920   20.7350 C   0  0  0  0  0  3  0  0  0  0  0  0
  -31.4260  -21.3180   21.1910 C   0  0  0  0  0  3  0  0  0  0  0  0
  -31.9770  -20.1490   20.8080 C   0  0  0  0  0  3  0  0  0  0  0  0
  -31.9500  -18.8770   21.6400 C   0  0  0  0  0  2  0  0  0  0  0  0
  -31.3380  -17.6650   20.9010 C   0  0  0  0  0  2  0  0  0  0  0  0
  -31.2070  -16.4570   21.8530 C   0  0  0  0  0  2  0  0  0  0  0  0
  -30.2490  -15.3190   21.4290 C   0  0  0  0  0  2  0  0  0  0  0  0
  -30.6910  -14.3780   20.2970 C   0  0  0  0  0  0  0  0  0  0  0  0
  -30.2460  -12.3310   18.9680 C   0  0  0  0  0  2  0  0  0  0  0  0
  -29.2510  -12.6230   17.8290 C   0  0  0  0  0  2  0  0  0  0  0  0
  -27.8030  -12.4680   18.3320 C   0  0  0  0  0  2  0  0  0  0  0  0
  -27.5440  -13.2600   19.6380 C   0  0  0  0  0  3  0  0  0  0  0  0
  -28.6420  -12.9760   20.6840 C   0  0  0  0  0  2  0  0  0  0  0  0
  -29.9540  -13.2590   20.0710 N   0  0  0  0  0  0  0  0  0  0  0  0
  -31.6920  -14.6620   19.6280 O   0  0  0  0  0  0  0  0  0  0  0  0
  -25.1740  -13.8750   20.4410 C   0  0  0  0  0  0  0  0  0  0  0  0
  -24.1200  -13.1020   20.8520 C   0  0  0  0  0  0  0  0  0  0  0  0
  -24.5770  -11.7490   20.7990 C   0  0  0  0  0  0  0  0  0  0  0  0
  -26.2080  -12.9920   20.1700 N   0  0  0  0  0  0  0  0  0  0  0  0
  -25.8530  -11.7080   20.4380 N   0  0  0  0  0  0  0  0  0  0  0  0
  -23.8590  -10.4870   21.0170 C   0  0  0  0  0  0  0  0  0  0  0  0
  -24.3340   -9.5130   21.9230 C   0  0  0  0  0  3  0  0  0  0  0  0
  -23.6170   -8.3150   22.1260 C   0  0  0  0  0  3  0  0  0  0  0  0
  -22.4110   -8.0820   21.4230 C   0  0  0  0  0  0  0  0  0  0  0  0
  -21.9550   -9.0450   20.5070 C   0  0  0  0  0  3  0  0  0  0  0  0
  -22.6720  -10.2360   20.3020 C   0  0  0  0  0  3  0  0  0  0  0  0
  -21.6600   -6.9370   21.5380 O   0  0  0  0  0  0  0  0  0  0  0  0
  -21.6720   -6.1770   22.6800 C   0  0  0  0  0  0  0  0  0  0  0  0
  -21.3300   -6.7190   23.9390 C   0  0  0  0  0  3  0  0  0  0  0  0
  -21.2910   -5.8860   25.0750 C   0  0  0  0  0  3  0  0  0  0  0  0
  -21.5800   -4.5140   24.9540 C   0  0  0  0  0  0  0  0  0  0  0  0
  -21.9160   -3.9730   23.7010 C   0  0  0  0  0  3  0  0  0  0  0  0
  -21.9580   -4.8020   22.5670 C   0  0  0  0  0  0  0  0  0  0  0  0
  -22.2610   -4.2710   21.3590 F   0  0  0  0  0  0  0  0  0  0  0  0
  -21.5350   -3.7140   26.0460 F   0  0  0  0  0  0  0  0  0  0  0  0
  -22.7370  -13.5790   21.1830 C   0  0  0  0  0  0  0  0  0  0  0  0
  -22.0470  -12.8780   22.0780 N   0  0  0  0  0  0  0  0  0  0  0  0
  -22.2750  -14.6050   20.6850 O   0  0  0  0  0  0  0  0  0  0  0  0
  -22.4400  -12.0530   22.5060 H   0  0  0  0  0  0  0  0  0  0  0  0
  -21.1160  -13.1720   22.3370 H   0  0  0  0  0  0  0  0  0  0  0  0
  -25.3330  -15.2440   20.2620 N   0  0  0  0  0  0  0  0  0  0  0  0
  -24.5720  -15.9020   20.4050 H   0  0  0  0  0  0  0  0  0  0  0  0
  -26.1750  -15.6850   19.9100 H   0  0  0  0  0  0  0  0  0  0  0  0
  -30.7740  -26.2800   20.3490 C   0  0  0  0  0  2  0  0  0  0  0  0
  -29.4340  -26.7100   20.9870 C   0  0  0  0  0  2  0  0  0  0  0  0
  -28.3900  -26.6690   20.0110 O   0  0  0  0  0  0  0  0  0  0  0  0
  -24.6140  -31.8800   23.2380 C   0  0  0  0  0  0  0  0  0  0  0  0
  -27.2550  -27.4440   20.1480 C   0  0  0  0  0  0  0  0  0  0  0  0
  -23.3920  -30.4820   21.5990 C   0  0  0  0  0  3  0  0  0  0  0  0
  -24.8410  -28.9300   20.1810 C   0  0  0  0  0  0  0  0  0  0  0  0
  -25.9180  -30.8300   21.3980 C   0  0  0  0  0  2  0  0  0  0  0  0
  -25.9970  -29.4550   20.7690 C   0  0  0  0  0  0  0  0  0  0  0  0
  -27.2060  -28.7210   20.7610 C   0  0  0  0  0  3  0  0  0  0  0  0
  -26.0790  -26.9330   19.5580 C   0  0  0  0  0  3  0  0  0  0  0  0
  -24.8740  -27.6610   19.5760 C   0  0  0  0  0  3  0  0  0  0  0  0
  -23.5980  -29.7910   20.2240 C   0  0  0  0  0  2  0  0  0  0  0  0
  -24.6580  -31.0810   22.1350 N   0  0  0  0  0  0  0  0  0  0  0  0
  -23.5370  -32.1600   23.7830 O   0  0  0  0  0  0  0  0  0  0  0  0
  -22.7400  -29.4690   22.5670 C   0  0  0  0  0  0  0  0  0  0  0  0
  -21.4140  -29.2970   22.4460 N   0  0  0  0  0  0  0  0  0  0  0  0
  -23.4230  -28.8390   23.3800 O   0  0  0  0  0  0  0  0  0  0  0  0
  -20.9230  -29.8610   21.7660 H   0  0  0  0  0  0  0  0  0  0  0  0
  -18.0360  -28.1210   22.9490 C   0  0  0  0  0  0  0  0  0  0  0  0
  -20.5940  -28.3650   23.2210 C   0  0  0  0  0  3  0  0  0  0  0  0
  -20.6920  -26.9310   22.6510 C   0  0  0  0  0  2  0  0  0  0  0  0
  -19.5890  -26.6110   21.6360 C   0  0  0  0  0  2  0  0  0  0  0  0
  -18.2070  -26.7660   22.2790 C   0  0  0  0  0  2  0  0  0  0  0  0
  -19.1580  -28.8770   23.3780 C   0  0  0  0  0  0  0  0  0  0  0  0
  -18.9460  -30.1440   23.9640 C   0  0  0  0  0  3  0  0  0  0  0  0
  -17.6440  -30.6540   24.1230 C   0  0  0  0  0  3  0  0  0  0  0  0
  -16.5360  -29.8950   23.7110 C   0  0  0  0  0  3  0  0  0  0  0  0
  -16.7330  -28.6290   23.1290 C   0  0  0  0  0  3  0  0  0  0  0  0
  -25.9090  -32.5030   23.8500 C   0  0  0  0  0  3  0  0  0  0  0  0
  -25.6080  -33.9000   24.1910 N   0  0  0  0  0  0  0  0  0  0  0  0
  -25.9420  -34.9550   23.4370 C   0  0  0  0  0  0  0  0  0  0  0  0
  -26.6070  -34.8560   22.4020 O   0  0  0  0  0  0  0  0  0  0  0  0
  -25.0160  -34.0510   24.9930 H   0  0  0  0  0  0  0  0  0  0  0  0
  -24.2170  -36.7530   23.1080 C   0  0  0  0  0  1  0  0  0  0  0  0
  -25.4630  -36.3400   23.9070 C   0  0  0  0  0  3  0  0  0  0  0  0
  -27.6080  -37.2090   24.7260 C   0  0  0  0  0  1  0  0  0  0  0  0
  -26.4970  -37.3910   23.7950 N   0  0  0  0  0  0  0  0  0  0  0  0
  -26.0960  -38.3100   23.9590 H   0  0  0  0  0  0  0  0  0  0  0  0
  -26.4400  -31.7220   25.1120 C   0  0  1  0  0  0  0  0  0  0  0  0
  -25.3570  -31.4800   26.1890 C   0  0  0  0  0  1  0  0  0  0  0  0
  -27.0190  -30.3470   24.7020 C   0  0  0  0  0  1  0  0  0  0  0  0
  -27.5950  -32.5120   25.7720 C   0  0  0  0  0  1  0  0  0  0  0  0
  1 47  1  0
  1  4  1  0
  2  1  2  0
  3  4  2  0
  3  5  1  0
  6  5  2  0
  6  7  1  0
  8  7  1  0
  8  9  1  0
 10  9  1  0
 11 10  1  0
 12 17  1  0
 13 14  1  0
 13 12  1  0
 15 14  1  0
 15 22  1  0
 15 16  1  0
 17 11  1  0
 17 16  1  0
 18 11  2  0
 19 20  2  0
 20 39  1  0
 21 20  1  0
 21 24  1  0
 22 23  1  0
 22 19  1  0
 23 21  2  0
 24 25  1  0
 25 26  2  0
 27 30  1  0
 27 26  1  0
 28 27  2  0
 29 28  1  0
 29 24  2  0
 30 31  1  0
 31 32  1  0
 32 33  2  0
 34 33  1  0
 34 38  1  0
 35 34  2  0
 36 31  2  0
 36 35  1  0
 37 36  1  0
 39 40  1  0
 40 43  1  0
 40 42  1  0
 41 39  2  0
 44 45  1  0
 44 19  1  0
 46 44  1  0
 47 48  1  0
 49 51  1  0
 49 48  1  0
 50 61  2  0
 51 56  1  0
 52 60  1  0
 52 62  1  0
 53 59  1  0
 53 55  1  0
 54 60  1  0
 55 54  1  0
 56 55  2  0
 57 58  1  0
 57 51  2  0
 58 53  2  0
 59 52  1  0
 60 50  1  0
 62 64  2  0
 63 62  1  0
 65 63  1  0
 66 75  2  0
 66 71  1  0
 67 63  1  0
 67 71  1  0
 68 67  1  0
 69 70  1  0
 69 68  1  0
 70 66  1  0
 71 72  2  0
 72 73  1  0
 74 73  2  0
 75 74  1  0
 76 50  1  0
 76 77  1  0
 76 86  1  0
 77 80  1  0
 78 82  1  0
 78 77  1  0
 79 78  2  0
 82 81  1  0
 84 82  1  0
 84 85  1  0
 84 83  1  0
 86 89  1  1
 86 87  1  0
 88 86  1  0
M  ISO  4  10 100  11 100  48 101  49 101
M  END
>  <TORSDO>  (96) 
F 24

>  <SCORE>  (96) 
-12.276

>  <name>  (96) 
96

>  <ligand_id>  (96) 
96

>  <original_smiles>  (96) 
[H]C(C(=O)C([H])([H])C([H])([H])Oc1c([H])c([H])c2c(c1[H])C([H])([H])N(C(=O)C([H])(N([H])C(=O)C([H])(N([H])C([H])([H])[H])C([H])([H])[H])C(C([H])([H])[H])(C([H])([H])[H])C([H])([H])[H])C([H])(C(=O)N([H])C1([H])c3c([H])c([H])c([H])c([H])c3C([H])([H])C([H])([H])C1([H])[H])C2([H])[H])=C([H])C([H])=C([H])C([H])([H])C([H])([H])C([H])([H])C([H])([H])C(=O)N1C([H])([H])C([H])([H])C([H])([H])C([H])(n2nc(-c3c([H])c([H])c(Oc4c([H])c([H])c(F)c([H])c4F)c([H])c3[H])c(C(=O)N([H])[H])c2N([H])[H])C1([H])[H]

>  <smiles>  (96) 
[H]C(C(=O)C([H])([H])C([H])([H])Oc1c([H])c([H])c2c(c1[H])C([H])([H])N(C(=O)C([H])(N([H])C(=O)C([H])(N([H])C([H])([H])[H])C([H])([H])[H])C(C([H])([H])[H])(C([H])([H])[H])C([H])([H])[H])C([H])(C(=O)N([H])C1([H])c3c([H])c([H])c([H])c([H])c3C([H])([H])C([H])([H])C1([H])[H])C2([H])[H])=C([H])C([H])=C([H])C([H])([H])C([H])([H])C([H])([H])C([H])([H])C(=O)N1C([H])([H])C([H])([H])C([H])([H])C([H])(n2nc(-c3c([H])c([H])c(Oc4c([H])c([H])c(F)c([H])c4F)c([H])c3[H])c(C(=O)N([H])[H])c2N([H])[H])C1([H])[H]

$$$$
97:0:0
     RDKit          3D

 99108  0  0  1  0  0  0  0  0999 V2000
  -27.3070  -19.7700   18.4870 C   0  0  0  0  0  3  0  0  0  0  0  0
  -28.3620  -18.8770   18.7390 C   0  0  0  0  0  3  0  0  0  0  0  0
  -27.5670  -21.0210   17.9010 C   0  0  0  0  0  3  0  0  0  0  0  0
  -29.9550  -20.5030   17.8900 C   0  0  0  0  0  3  0  0  0  0  0  0
  -29.6950  -19.2070   18.4040 C   0  0  0  0  0  0  0  0  0  0  0  0
  -28.8960  -21.4060   17.6210 C   0  0  0  0  0  0  0  0  0  0  0  0
  -34.3700  -17.7000   19.7080 C   0  0  0  0  0  0  0  0  0  0  0  0
  -36.4490  -18.3590   18.5520 C   0  0  0  0  0  2  0  0  0  0  0  0
  -36.1340  -19.5130   17.5810 C   0  0  0  0  0  2  0  0  0  0  0  0
  -35.6500  -18.9630   16.2220 C   0  0  0  0  0  2  0  0  0  0  0  0
  -34.5330  -17.8970   16.3690 C   0  0  0  0  0  3  0  0  0  0  0  0
  -34.9400  -16.8320   17.4130 C   0  0  0  0  0  2  0  0  0  0  0  0
  -35.2350  -17.5350   18.6720 N   0  0  0  0  0  0  0  0  0  0  0  0
  -34.6990  -18.2560   20.7590 O   0  0  0  0  0  0  0  0  0  0  0  0
  -30.2950  -16.7860   19.0020 C   0  0  0  0  0  3  0  0  0  0  0  0
  -31.0940  -15.8350   19.5150 C   0  0  0  0  0  0  0  0  0  0  0  0
  -32.5550  -16.1240   19.8790 C   0  0  0  0  0  2  0  0  0  0  0  0
  -30.8040  -18.1620   18.6390 C   0  0  0  0  0  3  0  0  0  0  0  0
  -32.0820  -18.5620   19.4520 C   0  0  0  0  0  3  0  0  0  0  0  0
  -33.0620  -17.4380   19.4400 N   0  0  0  0  0  0  0  0  0  0  0  0
  -32.9720  -17.2110   14.4420 C   0  0  0  0  0  0  0  0  0  0  0  0
  -33.2170  -16.6110   13.2370 C   0  0  0  0  0  0  0  0  0  0  0  0
  -34.6200  -16.3650   13.1990 C   0  0  0  0  0  0  0  0  0  0  0  0
  -34.1980  -17.2930   15.0840 N   0  0  0  0  0  0  0  0  0  0  0  0
  -35.1860  -16.7280   14.3440 N   0  0  0  0  0  0  0  0  0  0  0  0
  -35.4690  -15.8590   12.1120 C   0  0  0  0  0  0  0  0  0  0  0  0
  -36.2140  -14.6680   12.2520 C   0  0  0  0  0  3  0  0  0  0  0  0
  -37.0070  -14.1890   11.1860 C   0  0  0  0  0  3  0  0  0  0  0  0
  -37.0580  -14.9020    9.9640 C   0  0  0  0  0  0  0  0  0  0  0  0
  -36.3300  -16.0980    9.8360 C   0  0  0  0  0  3  0  0  0  0  0  0
  -35.5440  -16.5760   10.9000 C   0  0  0  0  0  3  0  0  0  0  0  0
  -37.8240  -14.5290    8.8870 O   0  0  0  0  0  0  0  0  0  0  0  0
  -38.0190  -13.2090    8.5660 C   0  0  0  0  0  0  0  0  0  0  0  0
  -36.9400  -12.3450    8.2770 C   0  0  0  0  0  3  0  0  0  0  0  0
  -37.1890  -11.0140    7.8860 C   0  0  0  0  0  3  0  0  0  0  0  0
  -38.5130  -10.5490    7.7730 C   0  0  0  0  0  0  0  0  0  0  0  0
  -39.5900  -11.4090    8.0560 C   0  0  0  0  0  3  0  0  0  0  0  0
  -39.3420  -12.7380    8.4500 C   0  0  0  0  0  0  0  0  0  0  0  0
  -40.3810  -13.5680    8.7010 F   0  0  0  0  0  0  0  0  0  0  0  0
  -38.7530   -9.2740    7.3890 F   0  0  0  0  0  0  0  0  0  0  0  0
  -32.2180  -16.3830   12.1410 C   0  0  0  0  0  0  0  0  0  0  0  0
  -32.3990  -15.3250   11.3580 N   0  0  0  0  0  0  0  0  0  0  0  0
  -31.2380  -17.1130   12.0030 O   0  0  0  0  0  0  0  0  0  0  0  0
  -33.1870  -14.7090   11.4860 H   0  0  0  0  0  0  0  0  0  0  0  0
  -31.7350  -15.1330   10.6210 H   0  0  0  0  0  0  0  0  0  0  0  0
  -31.8150  -17.7090   15.0190 N   0  0  0  0  0  0  0  0  0  0  0  0
  -30.9670  -17.7670   14.4630 H   0  0  0  0  0  0  0  0  0  0  0  0
  -31.7970  -18.2760   15.8530 H   0  0  0  0  0  0  0  0  0  0  0  0
  -31.6940  -18.9350   20.9020 C   0  0  0  0  0  3  0  0  0  0  0  0
  -31.8090  -20.0680   21.3750 O   0  0  0  0  0  0  0  0  0  0  0  0
  -30.6480  -14.4040   19.7770 C   0  0  0  0  0  2  0  0  0  0  0  0
  -29.1240  -14.1270   19.8480 C   0  0  0  0  0  2  0  0  0  0  0  0
  -29.3790  -12.1980   21.5790 C   0  0  0  0  0  1  0  0  0  0  0  0
  -28.5590  -13.3960   21.0860 C   0  0  0  0  0  2  0  0  0  0  0  0
  -29.1960  -22.7400   16.9440 C   0  0  0  0  0  2  0  0  0  0  0  0
  -28.9670  -24.0150   17.7960 C   0  0  0  0  0  2  0  0  0  0  0  0
  -30.1590  -25.0010   17.8260 C   0  0  0  0  0  2  0  0  0  0  0  0
  -29.7250  -26.4780   17.7900 C   0  0  0  0  0  2  0  0  0  0  0  0
  -30.8420  -27.3490   17.6160 O   0  0  0  0  0  0  0  0  0  0  0  0
  -35.2080  -32.3060   20.2490 C   0  0  0  0  0  0  0  0  0  0  0  0
  -31.4390  -27.8640   18.7450 C   0  0  0  0  0  0  0  0  0  0  0  0
  -34.4920  -30.5520   21.8400 C   0  0  0  0  0  3  0  0  0  0  0  0
  -32.6200  -29.0240   21.0350 C   0  0  0  0  0  0  0  0  0  0  0  0
  -33.0130  -31.1930   19.8530 C   0  0  0  0  0  2  0  0  0  0  0  0
  -32.5030  -29.7670   19.8540 C   0  0  0  0  0  0  0  0  0  0  0  0
  -31.9290  -29.1860   18.7030 C   0  0  0  0  0  3  0  0  0  0  0  0
  -31.5780  -27.1230   19.9420 C   0  0  0  0  0  3  0  0  0  0  0  0
  -32.1700  -27.6960   21.0820 C   0  0  0  0  0  3  0  0  0  0  0  0
  -33.2390  -29.7180   22.2230 C   0  0  0  0  0  2  0  0  0  0  0  0
  -34.2760  -31.3770   20.6060 N   0  0  0  0  0  0  0  0  0  0  0  0
  -36.2090  -32.5100   20.9510 O   0  0  0  0  0  0  0  0  0  0  0  0
  -35.7060  -29.6040   21.7360 C   0  0  0  0  0  0  0  0  0  0  0  0
  -36.3160  -29.2940   22.8920 N   0  0  0  0  0  0  0  0  0  0  0  0
  -36.0630  -29.1460   20.6470 O   0  0  0  0  0  0  0  0  0  0  0  0
  -35.9520  -29.6990   23.7440 H   0  0  0  0  0  0  0  0  0  0  0  0
  -38.5690  -27.8050   25.2960 C   0  0  0  0  0  0  0  0  0  0  0  0
  -37.4540  -28.3920   23.0380 C   0  0  0  0  0  3  0  0  0  0  0  0
  -36.9950  -26.9130   22.9900 C   0  0  0  0  0  2  0  0  0  0  0  0
  -36.7440  -26.3080   24.3760 C   0  0  0  0  0  2  0  0  0  0  0  0
  -37.9950  -26.3980   25.2540 C   0  0  0  0  0  2  0  0  0  0  0  0
  -38.3050  -28.7420   24.2610 C   0  0  0  0  0  0  0  0  0  0  0  0
  -38.8440  -30.0450   24.3640 C   0  0  0  0  0  3  0  0  0  0  0  0
  -39.6420  -30.4090   25.4640 C   0  0  0  0  0  3  0  0  0  0  0  0
  -39.9080  -29.4730   26.4810 C   0  0  0  0  0  3  0  0  0  0  0  0
  -39.3700  -28.1770   26.3980 C   0  0  0  0  0  3  0  0  0  0  0  0
  -35.0470  -33.1700   18.9610 C   0  0  0  0  0  3  0  0  0  0  0  0
  -35.2220  -34.5760   19.3470 N   0  0  0  0  0  0  0  0  0  0  0  0
  -34.2220  -35.4590   19.4740 C   0  0  0  0  0  0  0  0  0  0  0  0
  -33.0500  -35.1890   19.1990 O   0  0  0  0  0  0  0  0  0  0  0  0
  -36.1480  -34.8550   19.6340 H   0  0  0  0  0  0  0  0  0  0  0  0
  -34.1870  -36.9980   21.4620 C   0  0  0  0  0  1  0  0  0  0  0  0
  -34.5820  -36.8680   19.9820 C   0  0  0  0  0  3  0  0  0  0  0  0
  -34.4770  -38.0740   17.8450 C   0  0  0  0  0  1  0  0  0  0  0  0
  -33.9500  -37.9550   19.2020 N   0  0  0  0  0  0  0  0  0  0  0  0
  -34.0710  -38.8490   19.6690 H   0  0  0  0  0  0  0  0  0  0  0  0
  -36.0570  -32.7730   17.8130 C   0  0  1  0  0  0  0  0  0  0  0  0
  -37.5310  -32.7090   18.2740 C   0  0  0  0  0  1  0  0  0  0  0  0
  -35.6890  -31.3930   17.2140 C   0  0  0  0  0  1  0  0  0  0  0  0
  -35.9620  -33.7970   16.6570 C   0  0  0  0  0  1  0  0  0  0  0  0
  1  2  1  0
  3  1  2  0
  4  5  1  0
  5  2  2  0
  6  4  2  0
  6  3  1  0
  7 14  2  0
  8 13  1  0
  9  8  1  0
 10 11  1  0
 10  9  1  0
 11 24  1  0
 11 12  1  0
 12 13  1  0
 13  7  1  0
 15 16  2  0
 16 51  1  0
 16 17  1  0
 18  5  1  0
 18 15  1  0
 18 19  1  0
 19 49  1  0
 20 19  1  0
 20  7  1  0
 20 17  1  0
 21 46  1  0
 21 24  1  0
 22 21  2  0
 23 22  1  0
 23 25  2  0
 25 24  1  0
 26 27  1  0
 26 23  1  0
 28 27  2  0
 29 28  1  0
 30 29  2  0
 30 31  1  0
 31 26  2  0
 32 29  1  0
 33 32  1  0
 34 33  2  0
 35 34  1  0
 36 35  2  0
 36 37  1  0
 37 38  2  0
 38 33  1  0
 38 39  1  0
 40 36  1  0
 41 22  1  0
 42 44  1  0
 42 41  1  0
 43 41  2  0
 45 42  1  0
 46 48  1  0
 47 46  1  0
 49 50  2  0
 51 52  1  0
 52 54  1  0
 54 53  1  0
 55  6  1  0
 55 56  1  0
 56 57  1  0
 58 57  1  0
 59 58  1  0
 59 61  1  0
 60 70  1  0
 60 71  2  0
 61 67  1  0
 62 72  1  0
 62 69  1  0
 63 68  1  0
 63 69  1  0
 64 65  1  0
 64 70  1  0
 65 63  2  0
 66 61  2  0
 66 65  1  0
 67 68  2  0
 70 62  1  0
 72 73  1  0
 73 75  1  0
 74 72  2  0
 76 85  1  0
 77 73  1  0
 77 81  1  0
 78 77  1  0
 78 79  1  0
 79 80  1  0
 80 76  1  0
 81 82  1  0
 81 76  2  0
 82 83  2  0
 83 84  1  0
 85 84  2  0
 86 87  1  0
 86 60  1  0
 87 88  1  0
 87 90  1  0
 88 92  1  0
 89 88  2  0
 92 91  1  0
 93 94  1  0
 94 95  1  0
 94 92  1  0
 96 97  1  1
 96 86  1  0
 98 96  1  0
 99 96  1  0
M  ISO  4   7 100  20 100  58 101  59 101
M  END
>  <TORSDO>  (97) 
F 24

>  <SCORE>  (97) 
1.914

>  <name>  (97) 
97

>  <ligand_id>  (97) 
97

>  <original_smiles>  (97) 
[H]C(=O)C1([H])N(C(=O)N2C([H])([H])C([H])([H])C([H])([H])C([H])(n3nc(-c4c([H])c([H])c(Oc5c([H])c([H])c(F)c([H])c5F)c([H])c4[H])c(C(=O)N([H])[H])c3N([H])[H])C2([H])[H])C([H])([H])C(C([H])([H])C([H])([H])C([H])([H])C([H])([H])[H])=C([H])C1([H])c1c([H])c([H])c([H])c(C([H])([H])C([H])([H])C([H])([H])C([H])([H])Oc2c([H])c([H])c3c(c2[H])C([H])([H])N(C(=O)C([H])(N([H])C(=O)C([H])(N([H])C([H])([H])[H])C([H])([H])[H])C(C([H])([H])[H])(C([H])([H])[H])C([H])([H])[H])C([H])(C(=O)N([H])C2([H])c4c([H])c([H])c([H])c([H])c4C([H])([H])C([H])([H])C2([H])[H])C3([H])[H])c1[H]

>  <smiles>  (97) 
[H]C(=O)C1([H])N(C(=O)N2C([H])([H])C([H])([H])C([H])([H])C([H])(n3nc(-c4c([H])c([H])c(Oc5c([H])c([H])c(F)c([H])c5F)c([H])c4[H])c(C(=O)N([H])[H])c3N([H])[H])C2([H])[H])C([H])([H])C(C([H])([H])C([H])([H])C([H])([H])C([H])([H])[H])=C([H])C1([H])c1c([H])c([H])c([H])c(C([H])([H])C([H])([H])C([H])([H])C([H])([H])Oc2c([H])c([H])c3c(c2[H])C([H])([H])N(C(=O)C([H])(N([H])C(=O)C([H])(N([H])C([H])([H])[H])C([H])([H])[H])C(C([H])([H])[H])(C([H])([H])[H])C([H])([H])[H])C([H])(C(=O)N([H])C2([H])c4c([H])c([H])c([H])c([H])c4C([H])([H])C([H])([H])C2([H])[H])C3([H])[H])c1[H]

$$$$
98:0:0
     RDKit          3D

 95104  0  0  1  0  0  0  0  0999 V2000
  -32.4960  -21.9100   19.6010 C   0  0  0  0  0  3  0  0  0  0  0  0
  -31.4220  -21.2830   18.9400 C   0  0  0  0  0  3  0  0  0  0  0  0
  -32.4270  -23.2790   19.9200 C   0  0  0  0  0  3  0  0  0  0  0  0
  -30.2090  -23.3970   18.9100 C   0  0  0  0  0  3  0  0  0  0  0  0
  -30.2680  -22.0200   18.6060 C   0  0  0  0  0  0  0  0  0  0  0  0
  -31.2890  -24.0380   19.5620 C   0  0  0  0  0  0  0  0  0  0  0  0
  -29.0810  -21.3190   17.9650 C   0  0  0  0  0  2  0  0  0  0  0  0
  -27.5120  -19.2210   18.4980 C   0  0  0  0  0  2  0  0  0  0  0  0
  -28.4810  -20.3080   18.9260 C   0  0  0  0  0  3  0  0  0  0  0  0
  -28.9390  -18.8730   18.8430 C   0  0  0  0  0  3  0  0  0  0  0  0
  -29.3470  -18.1340   20.1050 C   0  0  0  0  0  2  0  0  0  0  0  0
  -29.3060  -16.6140   19.8970 C   0  0  0  0  0  2  0  0  0  0  0  0
  -29.8980  -15.7800   21.0610 C   0  0  0  0  0  2  0  0  0  0  0  0
  -30.6270  -14.5360   20.5190 C   0  0  0  0  0  0  0  0  0  0  0  0
  -30.3590  -12.3930   19.3460 C   0  0  0  0  0  2  0  0  0  0  0  0
  -29.4230  -12.6320   18.1410 C   0  0  0  0  0  2  0  0  0  0  0  0
  -27.9420  -12.4760   18.5510 C   0  0  0  0  0  2  0  0  0  0  0  0
  -27.5910  -13.2740   19.8350 C   0  0  0  0  0  3  0  0  0  0  0  0
  -28.6490  -13.0360   20.9400 C   0  0  0  0  0  2  0  0  0  0  0  0
  -29.9750  -13.3500   20.3930 N   0  0  0  0  0  0  0  0  0  0  0  0
  -31.7570  -14.7210   20.0590 O   0  0  0  0  0  0  0  0  0  0  0  0
  -25.1770  -13.8580   20.5260 C   0  0  0  0  0  0  0  0  0  0  0  0
  -24.1190  -13.0720   20.8930 C   0  0  0  0  0  0  0  0  0  0  0  0
  -24.6000  -11.7270   20.8680 C   0  0  0  0  0  0  0  0  0  0  0  0
  -26.2370  -12.9880   20.3050 N   0  0  0  0  0  0  0  0  0  0  0  0
  -25.8910  -11.7030   20.5670 N   0  0  0  0  0  0  0  0  0  0  0  0
  -23.8910  -10.4560   21.0590 C   0  0  0  0  0  0  0  0  0  0  0  0
  -24.3420   -9.4950   21.9890 C   0  0  0  0  0  3  0  0  0  0  0  0
  -23.6360   -8.2860   22.1660 C   0  0  0  0  0  3  0  0  0  0  0  0
  -22.4670   -8.0300   21.4130 C   0  0  0  0  0  0  0  0  0  0  0  0
  -22.0380   -8.9800   20.4710 C   0  0  0  0  0  3  0  0  0  0  0  0
  -22.7440  -10.1800   20.2900 C   0  0  0  0  0  3  0  0  0  0  0  0
  -21.7320   -6.8710   21.4990 O   0  0  0  0  0  0  0  0  0  0  0  0
  -21.7050   -6.1190   22.6450 C   0  0  0  0  0  0  0  0  0  0  0  0
  -21.2850   -6.6590   23.8810 C   0  0  0  0  0  3  0  0  0  0  0  0
  -21.2060   -5.8320   25.0200 C   0  0  0  0  0  3  0  0  0  0  0  0
  -21.5360   -4.4670   24.9250 C   0  0  0  0  0  0  0  0  0  0  0  0
  -21.9490   -3.9270   23.6950 C   0  0  0  0  0  3  0  0  0  0  0  0
  -22.0300   -4.7500   22.5580 C   0  0  0  0  0  0  0  0  0  0  0  0
  -22.4080   -4.2200   21.3700 F   0  0  0  0  0  0  0  0  0  0  0  0
  -21.4540   -3.6720   26.0170 F   0  0  0  0  0  0  0  0  0  0  0  0
  -22.7110  -13.5290   21.1550 C   0  0  0  0  0  0  0  0  0  0  0  0
  -21.9870  -12.8260   22.0170 N   0  0  0  0  0  0  0  0  0  0  0  0
  -22.2610  -14.5450   20.6250 O   0  0  0  0  0  0  0  0  0  0  0  0
  -22.3620  -12.0080   22.4720 H   0  0  0  0  0  0  0  0  0  0  0  0
  -21.0410  -13.1100   22.2280 H   0  0  0  0  0  0  0  0  0  0  0  0
  -25.3220  -15.2310   20.3460 N   0  0  0  0  0  0  0  0  0  0  0  0
  -24.5480  -15.8750   20.4640 H   0  0  0  0  0  0  0  0  0  0  0  0
  -26.1750  -15.6870   20.0490 H   0  0  0  0  0  0  0  0  0  0  0  0
  -31.1750  -25.5280   19.8880 C   0  0  0  0  0  3  0  0  0  0  0  0
  -32.5220  -26.2790   19.9600 C   0  0  0  0  0  2  0  0  0  0  0  0
  -33.2240  -26.1300   18.8350 F   0  0  0  0  0  0  0  0  0  0  0  0
  -30.3550  -25.7350   21.1770 C   0  0  0  0  0  2  0  0  0  0  0  0
  -29.4520  -26.9700   21.1240 C   0  0  0  0  0  2  0  0  0  0  0  0
  -28.4470  -26.7140   20.1520 O   0  0  0  0  0  0  0  0  0  0  0  0
  -24.6240  -31.8840   23.2390 C   0  0  0  0  0  0  0  0  0  0  0  0
  -27.3090  -27.4790   20.1920 C   0  0  0  0  0  0  0  0  0  0  0  0
  -23.4260  -30.4750   21.5920 C   0  0  0  0  0  3  0  0  0  0  0  0
  -24.8930  -28.9390   20.1810 C   0  0  0  0  0  0  0  0  0  0  0  0
  -25.9440  -30.8570   21.4000 C   0  0  0  0  0  2  0  0  0  0  0  0
  -26.0380  -29.4810   20.7760 C   0  0  0  0  0  0  0  0  0  0  0  0
  -27.2440  -28.7570   20.7930 C   0  0  0  0  0  3  0  0  0  0  0  0
  -26.1520  -26.9440   19.5920 C   0  0  0  0  0  3  0  0  0  0  0  0
  -24.9420  -27.6630   19.5910 C   0  0  0  0  0  3  0  0  0  0  0  0
  -23.6420  -29.7870   20.2160 C   0  0  0  0  0  2  0  0  0  0  0  0
  -24.6830  -31.0860   22.1370 N   0  0  0  0  0  0  0  0  0  0  0  0
  -23.5430  -32.1550   23.7760 O   0  0  0  0  0  0  0  0  0  0  0  0
  -22.7770  -29.4560   22.5550 C   0  0  0  0  0  0  0  0  0  0  0  0
  -21.4550  -29.2670   22.4190 N   0  0  0  0  0  0  0  0  0  0  0  0
  -23.4580  -28.8370   23.3780 O   0  0  0  0  0  0  0  0  0  0  0  0
  -20.9670  -29.8160   21.7260 H   0  0  0  0  0  0  0  0  0  0  0  0
  -18.0830  -28.0660   22.8890 C   0  0  0  0  0  0  0  0  0  0  0  0
  -20.6380  -28.3300   23.1870 C   0  0  0  0  0  3  0  0  0  0  0  0
  -20.7510  -26.8980   22.6170 C   0  0  0  0  0  2  0  0  0  0  0  0
  -19.6590  -26.5670   21.5940 C   0  0  0  0  0  2  0  0  0  0  0  0
  -18.2700  -26.7130   22.2240 C   0  0  0  0  0  2  0  0  0  0  0  0
  -19.1950  -28.8320   23.3270 C   0  0  0  0  0  0  0  0  0  0  0  0
  -18.9680  -30.0980   23.9060 C   0  0  0  0  0  3  0  0  0  0  0  0
  -17.6610  -30.5990   24.0550 C   0  0  0  0  0  3  0  0  0  0  0  0
  -16.5630  -29.8290   23.6320 C   0  0  0  0  0  3  0  0  0  0  0  0
  -16.7750  -28.5660   23.0530 C   0  0  0  0  0  3  0  0  0  0  0  0
  -25.9110  -32.5140   23.8620 C   0  0  0  0  0  3  0  0  0  0  0  0
  -26.4290  -31.7430   25.1380 C   0  0  1  0  0  0  0  0  0  0  0  0
  -25.3340  -31.5040   26.2030 C   0  0  0  0  0  1  0  0  0  0  0  0
  -27.0130  -30.3680   24.7410 C   0  0  0  0  0  1  0  0  0  0  0  0
  -27.5790  -32.5390   25.8000 C   0  0  0  0  0  1  0  0  0  0  0  0
  -25.6020  -33.9130   24.1870 N   0  0  0  0  0  0  0  0  0  0  0  0
  -25.9410  -34.9620   23.4250 C   0  0  0  0  0  0  0  0  0  0  0  0
  -26.6170  -34.8550   22.3980 O   0  0  0  0  0  0  0  0  0  0  0  0
  -24.9970  -34.0700   24.9790 H   0  0  0  0  0  0  0  0  0  0  0  0
  -24.2170  -36.7530   23.0480 C   0  0  0  0  0  1  0  0  0  0  0  0
  -25.4500  -36.3500   23.8730 C   0  0  0  0  0  3  0  0  0  0  0  0
  -27.5770  -37.2340   24.7220 C   0  0  0  0  0  1  0  0  0  0  0  0
  -26.4850  -37.4030   23.7690 N   0  0  0  0  0  0  0  0  0  0  0  0
  -26.0770  -38.3230   23.9110 H   0  0  0  0  0  0  0  0  0  0  0  0
  1  3  1  0
  2  1  2  0
  4  6  1  0
  5  4  2  0
  5  2  1  0
  6 50  1  0
  6  3  2  0
  7  5  1  0
  8 10  1  0
  8  9  1  0
  9  7  1  0
 10  9  1  0
 10 11  1  0
 12 11  1  0
 12 13  1  0
 14 13  1  0
 15 20  1  0
 16 17  1  0
 16 15  1  0
 18 17  1  0
 18 25  1  0
 18 19  1  0
 20 14  1  0
 20 19  1  0
 21 14  2  0
 22 23  2  0
 23 42  1  0
 24 23  1  0
 24 27  1  0
 25 22  1  0
 25 26  1  0
 26 24  2  0
 27 28  1  0
 28 29  2  0
 30 33  1  0
 30 29  1  0
 31 30  2  0
 32 31  1  0
 32 27  2  0
 33 34  1  0
 34 35  1  0
 35 36  2  0
 37 36  1  0
 37 41  1  0
 38 37  2  0
 39 34  2  0
 39 38  1  0
 40 39  1  0
 42 43  1  0
 43 46  1  0
 43 45  1  0
 44 42  2  0
 47 48  1  0
 47 22  1  0
 49 47  1  0
 50 51  1  0
 50 53  1  0
 52 51  1  0
 54 53  1  0
 55 57  1  0
 55 54  1  0
 56 67  2  0
 57 62  1  0
 58 66  1  0
 58 68  1  0
 59 65  1  0
 59 61  1  0
 60 66  1  0
 61 62  2  0
 61 60  1  0
 63 57  2  0
 64 63  1  0
 64 59  2  0
 65 58  1  0
 66 56  1  0
 68 70  2  0
 69 68  1  0
 71 69  1  0
 72 81  2  0
 72 77  1  0
 73 69  1  0
 73 77  1  0
 74 73  1  0
 75 76  1  0
 75 74  1  0
 76 72  1  0
 77 78  2  0
 78 79  1  0
 80 79  2  0
 81 80  1  0
 82 56  1  0
 82 87  1  0
 82 83  1  0
 83 86  1  1
 83 84  1  0
 85 83  1  0
 87 90  1  0
 88 92  1  0
 88 87  1  0
 89 88  2  0
 92 91  1  0
 94 92  1  0
 94 95  1  0
 94 93  1  0
M  ISO  4  13 100  14 100  54 101  55 101
M  END
>  <TORSDO>  (98) 
F 25

>  <SCORE>  (98) 
-12.384

>  <name>  (98) 
98

>  <ligand_id>  (98) 
98

>  <original_smiles>  (98) 
[H]c1c([H])c([H])c2c(c1[H])C([H])([H])C([H])([H])C([H])([H])C2([H])N([H])C(=O)C1([H])N(C(=O)C([H])(N([H])C(=O)C([H])(N([H])C([H])([H])[H])C([H])([H])[H])C(C([H])([H])[H])(C([H])([H])[H])C([H])([H])[H])C([H])([H])c2c([H])c(OC([H])([H])C([H])([H])C([H])(c3c([H])c([H])c([H])c(C([H])([H])C4([H])C([H])([H])C4([H])C([H])([H])C([H])([H])C([H])([H])C(=O)N4C([H])([H])C([H])([H])C([H])([H])C([H])(n5nc(-c6c([H])c([H])c(Oc7c([H])c([H])c(F)c([H])c7F)c([H])c6[H])c(C(=O)N([H])[H])c5N([H])[H])C4([H])[H])c3[H])C([H])([H])F)c([H])c([H])c2C1([H])[H]

>  <smiles>  (98) 
[H]c1c([H])c([H])c2c(c1[H])C([H])([H])C([H])([H])C([H])([H])C2([H])N([H])C(=O)C1([H])N(C(=O)C([H])(N([H])C(=O)C([H])(N([H])C([H])([H])[H])C([H])([H])[H])C(C([H])([H])[H])(C([H])([H])[H])C([H])([H])[H])C([H])([H])c2c([H])c(OC([H])([H])C([H])([H])C([H])(c3c([H])c([H])c([H])c(C([H])([H])C4([H])C([H])([H])C4([H])C([H])([H])C([H])([H])C([H])([H])C(=O)N4C([H])([H])C([H])([H])C([H])([H])C([H])(n5nc(-c6c([H])c([H])c(Oc7c([H])c([H])c(F)c([H])c7F)c([H])c6[H])c(C(=O)N([H])[H])c5N([H])[H])C4([H])[H])c3[H])C([H])([H])F)c([H])c([H])c2C1([H])[H]

$$$$
99:0:0
     RDKit          3D

 90 98  0  0  1  0  0  0  0  0999 V2000
  -29.3380  -21.7040   21.4570 C   0  0  0  0  0  3  0  0  0  0  0  0
  -29.2400  -20.6760   19.2690 C   0  0  0  0  0  3  0  0  0  0  0  0
  -29.6210  -20.4460   22.0300 C   0  0  0  0  0  3  0  0  0  0  0  0
  -29.5270  -19.4160   19.8400 C   0  0  0  0  0  3  0  0  0  0  0  0
  -29.1440  -21.8400   20.0660 C   0  0  0  0  0  0  0  0  0  0  0  0
  -29.7360  -19.2800   21.2330 C   0  0  0  0  0  0  0  0  0  0  0  0
  -28.8800  -23.1460   19.4150 C   0  0  0  0  0  3  0  0  0  0  0  0
  -28.8630  -24.3670   19.9920 C   0  0  0  0  0  3  0  0  0  0  0  0
  -28.6520  -25.6670   19.2270 C   0  0  0  0  0  2  0  0  0  0  0  0
  -28.4060  -26.7840   20.0910 O   0  0  0  0  0  0  0  0  0  0  0  0
  -24.5670  -31.8860   23.2010 C   0  0  0  0  0  0  0  0  0  0  0  0
  -27.1960  -27.4520   20.0820 C   0  0  0  0  0  0  0  0  0  0  0  0
  -23.3460  -30.4840   21.5680 C   0  0  0  0  0  3  0  0  0  0  0  0
  -24.7870  -28.9450   20.1320 C   0  0  0  0  0  0  0  0  0  0  0  0
  -25.8670  -30.8460   21.3460 C   0  0  0  0  0  2  0  0  0  0  0  0
  -25.9470  -29.4740   20.7080 C   0  0  0  0  0  0  0  0  0  0  0  0
  -27.1480  -28.7320   20.6850 C   0  0  0  0  0  3  0  0  0  0  0  0
  -26.0090  -26.9270   19.5210 C   0  0  0  0  0  3  0  0  0  0  0  0
  -24.8120  -27.6690   19.5410 C   0  0  0  0  0  3  0  0  0  0  0  0
  -23.5410  -29.8000   20.1880 C   0  0  0  0  0  2  0  0  0  0  0  0
  -24.6120  -31.0870   22.0970 N   0  0  0  0  0  0  0  0  0  0  0  0
  -23.4910  -32.1580   23.7510 O   0  0  0  0  0  0  0  0  0  0  0  0
  -22.7040  -29.4630   22.5360 C   0  0  0  0  0  0  0  0  0  0  0  0
  -21.3850  -29.2530   22.3940 N   0  0  0  0  0  0  0  0  0  0  0  0
  -23.3900  -28.8610   23.3660 O   0  0  0  0  0  0  0  0  0  0  0  0
  -20.8920  -29.7920   21.6960 H   0  0  0  0  0  0  0  0  0  0  0  0
  -18.0380  -27.9660   22.8300 C   0  0  0  0  0  0  0  0  0  0  0  0
  -20.5780  -28.3090   23.1650 C   0  0  0  0  0  3  0  0  0  0  0  0
  -20.7390  -26.8690   22.6260 C   0  0  0  0  0  2  0  0  0  0  0  0
  -19.6770  -26.4890   21.5910 C   0  0  0  0  0  2  0  0  0  0  0  0
  -18.2730  -26.6070   22.1940 C   0  0  0  0  0  2  0  0  0  0  0  0
  -19.1210  -28.7720   23.2720 C   0  0  0  0  0  0  0  0  0  0  0  0
  -18.8490  -30.0430   23.8240 C   0  0  0  0  0  3  0  0  0  0  0  0
  -17.5270  -30.5090   23.9420 C   0  0  0  0  0  3  0  0  0  0  0  0
  -16.4570  -29.7010   23.5180 C   0  0  0  0  0  3  0  0  0  0  0  0
  -16.7130  -28.4320   22.9680 C   0  0  0  0  0  3  0  0  0  0  0  0
  -25.8580  -32.5180   23.8090 C   0  0  0  0  0  3  0  0  0  0  0  0
  -26.3990  -31.7350   25.0680 C   0  0  1  0  0  0  0  0  0  0  0  0
  -25.3230  -31.4690   26.1460 C   0  0  0  0  0  1  0  0  0  0  0  0
  -26.9930  -30.3690   24.6470 C   0  0  0  0  0  1  0  0  0  0  0  0
  -27.5500  -32.5320   25.7280 C   0  0  0  0  0  1  0  0  0  0  0  0
  -25.5480  -33.9100   24.1580 N   0  0  0  0  0  0  0  0  0  0  0  0
  -25.8740  -34.9710   23.4080 C   0  0  0  0  0  0  0  0  0  0  0  0
  -26.5400  -34.8810   22.3740 O   0  0  0  0  0  0  0  0  0  0  0  0
  -24.9590  -34.0540   24.9650 H   0  0  0  0  0  0  0  0  0  0  0  0
  -24.1440  -36.7660   23.0750 C   0  0  0  0  0  1  0  0  0  0  0  0
  -25.3840  -36.3530   23.8840 C   0  0  0  0  0  3  0  0  0  0  0  0
  -27.5160  -37.2270   24.7310 C   0  0  0  0  0  1  0  0  0  0  0  0
  -26.4160  -37.4090   23.7880 N   0  0  0  0  0  0  0  0  0  0  0  0
  -26.0080  -38.3260   23.9490 H   0  0  0  0  0  0  0  0  0  0  0  0
  -31.0040  -17.9970   23.0630 C   0  0  0  0  0  1  0  0  0  0  0  0
  -30.0260  -17.9040   21.8760 C   0  0  0  0  0  3  0  0  0  0  0  0
  -30.3220  -15.4930   21.1210 C   0  0  0  0  0  3  0  0  0  0  0  0
  -30.5370  -16.8160   20.9330 C   0  0  0  0  0  3  0  0  0  0  0  0
  -30.8920  -14.4960   20.2140 C   0  0  0  0  0  0  0  0  0  0  0  0
  -30.4970  -12.4030   18.9610 C   0  0  0  0  0  2  0  0  0  0  0  0
  -29.5100  -12.6770   17.8060 C   0  0  0  0  0  2  0  0  0  0  0  0
  -28.0510  -12.5470   18.2850 C   0  0  0  0  0  2  0  0  0  0  0  0
  -27.7840  -13.3320   19.5980 C   0  0  0  0  0  3  0  0  0  0  0  0
  -28.8730  -13.0140   20.6440 C   0  0  0  0  0  2  0  0  0  0  0  0
  -30.1840  -13.3390   20.0550 N   0  0  0  0  0  0  0  0  0  0  0  0
  -31.9390  -14.7060   19.5930 O   0  0  0  0  0  0  0  0  0  0  0  0
  -25.4150  -13.9580   20.3870 C   0  0  0  0  0  0  0  0  0  0  0  0
  -24.3520  -13.1940   20.7900 C   0  0  0  0  0  0  0  0  0  0  0  0
  -24.8000  -11.8380   20.7360 C   0  0  0  0  0  0  0  0  0  0  0  0
  -26.4430  -13.0690   20.1170 N   0  0  0  0  0  0  0  0  0  0  0  0
  -26.0770  -11.7880   20.3800 N   0  0  0  0  0  0  0  0  0  0  0  0
  -24.0710  -10.5810   20.9470 C   0  0  0  0  0  0  0  0  0  0  0  0
  -24.5060   -9.6230   21.8880 C   0  0  0  0  0  3  0  0  0  0  0  0
  -23.7770   -8.4300   22.0840 C   0  0  0  0  0  3  0  0  0  0  0  0
  -22.5980   -8.1880   21.3410 C   0  0  0  0  0  0  0  0  0  0  0  0
  -22.1820   -9.1350   20.3890 C   0  0  0  0  0  3  0  0  0  0  0  0
  -22.9110  -10.3190   20.1900 C   0  0  0  0  0  3  0  0  0  0  0  0
  -21.8400   -7.0470   21.4460 O   0  0  0  0  0  0  0  0  0  0  0  0
  -21.7610   -6.3410   22.6190 C   0  0  0  0  0  0  0  0  0  0  0  0
  -21.3080   -6.9350   23.8170 C   0  0  0  0  0  3  0  0  0  0  0  0
  -21.1770   -6.1560   24.9850 C   0  0  0  0  0  3  0  0  0  0  0  0
  -21.4890   -4.7840   24.9540 C   0  0  0  0  0  0  0  0  0  0  0  0
  -21.9350   -4.1890   23.7590 C   0  0  0  0  0  3  0  0  0  0  0  0
  -22.0670   -4.9660   22.5950 C   0  0  0  0  0  0  0  0  0  0  0  0
  -22.4770   -4.3830   21.4430 F   0  0  0  0  0  0  0  0  0  0  0  0
  -21.3550   -4.0320   26.0720 F   0  0  0  0  0  0  0  0  0  0  0  0
  -22.9700  -13.6810   21.1170 C   0  0  0  0  0  0  0  0  0  0  0  0
  -22.2720  -12.9900   22.0110 N   0  0  0  0  0  0  0  0  0  0  0  0
  -22.5190  -14.7100   20.6140 O   0  0  0  0  0  0  0  0  0  0  0  0
  -22.6500  -12.1590   22.4390 H   0  0  0  0  0  0  0  0  0  0  0  0
  -21.3470  -13.2990   22.2720 H   0  0  0  0  0  0  0  0  0  0  0  0
  -25.5880  -15.3280   20.2110 N   0  0  0  0  0  0  0  0  0  0  0  0
  -24.8410  -15.9970   20.3610 H   0  0  0  0  0  0  0  0  0  0  0  0
  -26.4450  -15.7570   19.8830 H   0  0  0  0  0  0  0  0  0  0  0  0
  1  3  1  0
  2  4  2  0
  2  5  1  0
  4  6  1  0
  5  1  2  0
  6 52  1  0
  6  3  2  0
  7  8  2  0
  7  5  1  0
  9  8  1  0
  9 10  1  0
 11 22  2  0
 12 10  1  0
 12 17  1  0
 13 21  1  0
 13 23  1  0
 14 20  1  0
 14 16  1  0
 15 21  1  0
 16 15  1  0
 17 16  2  0
 18 19  1  0
 18 12  2  0
 19 14  2  0
 20 13  1  0
 21 11  1  0
 23 25  2  0
 24 23  1  0
 26 24  1  0
 27 36  2  0
 27 32  1  0
 28 24  1  0
 28 32  1  0
 29 28  1  0
 30 31  1  0
 30 29  1  0
 31 27  1  0
 32 33  2  0
 33 34  1  0
 35 34  2  0
 36 35  1  0
 37 11  1  0
 37 42  1  0
 37 38  1  0
 38 41  1  1
 38 39  1  0
 40 38  1  0
 42 45  1  0
 43 47  1  0
 43 42  1  0
 44 43  2  0
 47 46  1  0
 49 47  1  0
 49 50  1  0
 49 48  1  0
 52 51  1  0
 54 53  2  0
 54 52  1  0
 55 53  1  0
 56 61  1  0
 57 58  1  0
 57 56  1  0
 59 58  1  0
 59 66  1  0
 59 60  1  0
 61 55  1  0
 61 60  1  0
 62 55  2  0
 63 64  2  0
 64 83  1  0
 65 64  1  0
 65 68  1  0
 66 67  1  0
 66 63  1  0
 67 65  2  0
 68 69  1  0
 69 70  2  0
 71 74  1  0
 71 70  1  0
 72 71  2  0
 73 72  1  0
 73 68  2  0
 74 75  1  0
 75 76  1  0
 76 77  2  0
 78 77  1  0
 78 82  1  0
 79 78  2  0
 80 75  2  0
 80 79  1  0
 81 80  1  0
 83 84  1  0
 84 87  1  0
 84 86  1  0
 85 83  2  0
 88 89  1  0
 88 63  1  0
 90 88  1  0
M  ISO  4   9 101  10 101  53 100  55 100
M  END
>  <TORSDO>  (99) 
F 20

>  <SCORE>  (99) 
-12.851

>  <name>  (99) 
99

>  <ligand_id>  (99) 
99

>  <original_smiles>  (99) 
[H]C(C(=O)N1C([H])([H])C([H])([H])C([H])([H])C([H])(n2nc(-c3c([H])c([H])c(Oc4c([H])c([H])c(F)c([H])c4F)c([H])c3[H])c(C(=O)N([H])[H])c2N([H])[H])C1([H])[H])=C([H])C([H])(c1c([H])c([H])c(C([H])=C([H])C([H])([H])Oc2c([H])c([H])c3c(c2[H])C([H])([H])N(C(=O)C([H])(N([H])C(=O)C([H])(N([H])C([H])([H])[H])C([H])([H])[H])C(C([H])([H])[H])(C([H])([H])[H])C([H])([H])[H])C([H])(C(=O)N([H])C2([H])c4c([H])c([H])c([H])c([H])c4C([H])([H])C([H])([H])C2([H])[H])C3([H])[H])c([H])c1[H])C([H])([H])[H]

>  <smiles>  (99) 
[H]C(C(=O)N1C([H])([H])C([H])([H])C([H])([H])C([H])(n2nc(-c3c([H])c([H])c(Oc4c([H])c([H])c(F)c([H])c4F)c([H])c3[H])c(C(=O)N([H])[H])c2N([H])[H])C1([H])[H])=C([H])C([H])(c1c([H])c([H])c(C([H])=C([H])C([H])([H])Oc2c([H])c([H])c3c(c2[H])C([H])([H])N(C(=O)C([H])(N([H])C(=O)C([H])(N([H])C([H])([H])[H])C([H])([H])[H])C(C([H])([H])[H])(C([H])([H])[H])C([H])([H])[H])C([H])(C(=O)N([H])C2([H])c4c([H])c([H])c([H])c([H])c4C([H])([H])C([H])([H])C2([H])[H])C3([H])[H])c([H])c1[H])C([H])([H])[H]

$$$$
