0:0:0
     RDKit          3D

 94101  0  0  1  0  0  0  0  0999 V2000
  -27.3210  -17.8090   19.1010 C   0  0  0  0  0  2  0  0  0  0  0  0
  -26.9560  -16.1500   18.3590 C   0  0  0  0  0  2  0  0  0  0  0  0
  -27.0450  -14.5190   18.8820 N   0  0  0  0  0  4  0  0  0  0  0  0
  -26.0990  -14.2450   18.6690 H   0  0  0  0  0  0  0  0  0  0  0  0
  -27.0040  -14.6660   19.8920 H   0  0  0  0  0  0  0  0  0  0  0  0
  -26.9400  -12.3110   17.5670 C   0  0  0  0  0  1  0  0  0  0  0  0
  -27.8680  -13.0110   18.5690 C   0  0  0  0  0  3  0  0  0  0  0  0
  -28.5380  -11.4870   19.5780 C   0  0  0  0  0  1  0  0  0  0  0  0
  -29.5900  -11.0470   21.2080 C   0  0  0  0  0  1  0  0  0  0  0  0
  -31.8230  -12.9770   21.7120 C   0  0  0  0  0  0  0  0  0  0  0  0
  -32.6990  -13.2730   19.4560 C   0  0  0  0  0  2  0  0  0  0  0  0
  -31.8300  -14.2230   18.5620 C   0  0  0  0  0  2  0  0  0  0  0  0
  -30.3000  -14.5670   19.1920 C   0  0  0  0  0  3  0  0  0  0  0  0
  -29.5850  -13.9130   20.5450 C   0  0  0  0  0  3  0  0  0  0  0  0
  -30.5890  -12.8850   19.9560 C   0  0  0  0  0  3  0  0  0  0  0  0
  -31.8370  -12.8920   20.4700 N   0  0  0  0  0  0  0  0  0  0  0  0
  -32.6720  -13.8260   22.1220 O   0  0  0  0  0  0  0  0  0  0  0  0
  -30.7780  -11.9710   22.1160 N   0  0  0  0  0  0  0  0  0  0  0  0
  -30.6870  -11.8760   23.1170 H   0  0  0  0  0  0  0  0  0  0  0  0
  -26.9750  -14.4180   21.3520 C   0  0  0  0  0  3  0  0  0  0  0  0
  -25.8200  -13.6660   21.4410 C   0  0  0  0  0  0  0  0  0  0  0  0
  -26.1980  -12.3170   21.3620 C   0  0  0  0  0  0  0  0  0  0  0  0
  -28.0590  -13.6010   21.0660 N   0  0  0  0  0  0  0  0  0  0  0  0
  -27.5080  -12.4010   21.5390 N   0  0  0  0  0  2  0  0  0  0  0  0
  -25.4080  -11.0320   21.2730 C   0  0  0  0  0  0  0  0  0  0  0  0
  -25.6480   -9.9280   22.1280 C   0  0  0  0  0  3  0  0  0  0  0  0
  -24.8150   -8.7790   22.1110 C   0  0  0  0  0  3  0  0  0  0  0  0
  -23.7150   -8.6970   21.2240 C   0  0  0  0  0  0  0  0  0  0  0  0
  -23.5060   -9.7630   20.3280 C   0  0  0  0  0  3  0  0  0  0  0  0
  -24.3410  -10.9040   20.3470 C   0  0  0  0  0  3  0  0  0  0  0  0
  -22.8560   -7.6190   21.1430 O   0  0  0  0  0  0  0  0  0  0  0  0
  -22.5060   -6.8760   22.2470 C   0  0  0  0  0  0  0  0  0  0  0  0
  -21.8900   -7.4620   23.3770 C   0  0  0  0  0  3  0  0  0  0  0  0
  -21.4930   -6.6580   24.4660 C   0  0  0  0  0  3  0  0  0  0  0  0
  -21.6990   -5.2660   24.4270 C   0  0  0  0  0  0  0  0  0  0  0  0
  -22.2970   -4.6760   23.3000 C   0  0  0  0  0  3  0  0  0  0  0  0
  -22.6930   -5.4770   22.2130 C   0  0  0  0  0  0  0  0  0  0  0  0
  -23.2480   -4.8940   21.1230 F   0  0  0  0  0  0  0  0  0  0  0  0
  -21.3170   -4.4950   25.4720 F   0  0  0  0  0  0  0  0  0  0  0  0
  -24.4300  -14.1670   21.6110 C   0  0  0  0  0  0  0  0  0  0  0  0
  -23.6200  -13.4440   22.3760 N   0  0  0  0  0  0  0  0  0  0  0  0
  -24.0860  -15.2390   21.1250 O   0  0  0  0  0  0  0  0  0  0  0  0
  -23.9340  -12.5860   22.8060 H   0  0  0  0  0  0  0  0  0  0  0  0
  -22.6780  -13.7640   22.5500 H   0  0  0  0  0  0  0  0  0  0  0  0
  -27.1960  -15.7750   21.3600 N   0  0  0  0  0  0  0  0  0  0  0  0
  -26.4210  -16.3240   21.7240 H   0  0  0  0  0  0  0  0  0  0  0  0
  -28.0570  -16.0610   21.8180 H   0  0  0  0  0  0  0  0  0  0  0  0
  -26.7390  -19.5480   18.8820 C   0  0  0  0  0  2  0  0  0  0  0  0
  -27.4910  -21.0690   18.9920 N   0  0  0  0  0  4  0  0  0  0  0  0
  -28.2490  -20.9280   19.6410 H   0  0  0  0  0  0  0  0  0  0  0  0
  -27.9450  -21.1680   18.0980 H   0  0  0  0  0  0  0  0  0  0  0  0
  -26.9230  -22.6330   19.3610 C   0  0  0  0  0  2  0  0  0  0  0  0
  -27.6100  -24.3160   19.0650 C   0  0  0  0  0  2  0  0  0  0  0  0
  -27.8520  -25.8450   19.7600 O   0  0  0  0  0  0  0  0  0  0  0  0
  -24.8310  -32.0150   23.1160 C   0  0  0  0  0  0  0  0  0  0  0  0
  -27.0280  -27.0800   19.8060 C   0  0  0  0  0  0  0  0  0  0  0  0
  -23.5550  -30.6560   21.5290 C   0  0  0  0  0  3  0  0  0  0  0  0
  -24.8820  -29.0780   19.9840 C   0  0  0  0  0  0  0  0  0  0  0  0
  -26.1230  -30.7990   21.2740 C   0  0  0  0  0  2  0  0  0  0  0  0
  -26.1140  -29.4040   20.5640 C   0  0  0  0  0  0  0  0  0  0  0  0
  -27.1960  -28.4090   20.4690 C   0  0  0  0  0  3  0  0  0  0  0  0
  -25.7940  -26.9440   19.1780 C   0  0  0  0  0  3  0  0  0  0  0  0
  -24.7480  -27.8760   19.2830 C   0  0  0  0  0  3  0  0  0  0  0  0
  -23.7040  -30.0300   20.1220 C   0  0  0  0  0  2  0  0  0  0  0  0
  -24.8650  -31.1860   22.0230 N   0  0  0  0  0  0  0  0  0  0  0  0
  -23.7640  -32.3060   23.6840 O   0  0  0  0  0  0  0  0  0  0  0  0
  -22.9100  -29.6330   22.4990 C   0  0  0  0  0  0  0  0  0  0  0  0
  -21.5810  -29.4460   22.4110 N   0  0  0  0  0  0  0  0  0  0  0  0
  -23.6100  -29.0150   23.3070 O   0  0  0  0  0  0  0  0  0  0  0  0
  -21.0680  -29.9970   21.7360 H   0  0  0  0  0  0  0  0  0  0  0  0
  -18.2430  -28.1420   22.9620 C   0  0  0  0  0  0  0  0  0  0  0  0
  -20.7940  -28.4960   23.2030 C   0  0  0  0  0  3  0  0  0  0  0  0
  -20.9400  -27.0580   22.6520 C   0  0  0  0  0  2  0  0  0  0  0  0
  -19.8430  -26.6830   21.6520 C   0  0  0  0  0  2  0  0  0  0  0  0
  -18.4620  -26.7900   22.3040 C   0  0  0  0  0  2  0  0  0  0  0  0
  -19.3370  -28.9490   23.3700 C   0  0  0  0  0  0  0  0  0  0  0  0
  -19.0780  -30.2110   23.9510 C   0  0  0  0  0  3  0  0  0  0  0  0
  -17.7570  -30.6650   24.1240 C   0  0  0  0  0  3  0  0  0  0  0  0
  -16.6770  -29.8560   23.7300 C   0  0  0  0  0  3  0  0  0  0  0  0
  -16.9210  -28.5960   23.1560 C   0  0  0  0  0  3  0  0  0  0  0  0
  -26.1260  -32.6530   23.6980 C   0  0  0  0  0  3  0  0  0  0  0  0
  -26.6670  -31.8960   24.9740 C   0  0  1  0  0  0  0  0  0  0  0  0
  -25.6040  -31.6890   26.0770 C   0  0  0  0  0  1  0  0  0  0  0  0
  -27.2240  -30.5050   24.5970 C   0  0  0  0  0  1  0  0  0  0  0  0
  -27.8440  -32.6870   25.5920 C   0  0  0  0  0  1  0  0  0  0  0  0
  -25.8250  -34.0570   24.0380 N   0  0  0  0  0  0  0  0  0  0  0  0
  -26.1750  -35.1200   23.3030 C   0  0  0  0  0  0  0  0  0  0  0  0
  -26.8520  -35.0240   22.2760 O   0  0  0  0  0  0  0  0  0  0  0  0
  -25.2220  -34.2070   24.8340 H   0  0  0  0  0  0  0  0  0  0  0  0
  -24.4810  -36.9570   22.9670 C   0  0  0  0  0  1  0  0  0  0  0  0
  -25.7070  -36.5110   23.7820 C   0  0  0  0  0  3  0  0  0  0  0  0
  -27.8470  -37.3510   24.6490 C   0  0  0  0  0  1  0  0  0  0  0  0
  -26.7570  -37.5500   23.6980 N   0  0  0  0  0  0  0  0  0  0  0  0
  -26.3640  -38.4730   23.8560 H   0  0  0  0  0  0  0  0  0  0  0  0
  2  3  1  0
  2  1  1  0
  3  5  1  0
  4  3  1  0
  6  7  1  0
  7  3  1  0
  7  8  1  0
  9 18  1  0
 10 18  1  0
 10 17  2  0
 11 16  1  0
 12 11  1  0
 13 12  1  0
 13 15  1  0
 13 14  1  0
 14 23  1  0
 15 16  1  0
 15 14  1  0
 16 10  1  0
 18 19  1  0
 20 45  1  0
 20 21  1  0
 21 40  1  0
 22 21  2  0
 22 24  1  0
 23 20  1  0
 23 24  1  0
 25 22  1  0
 25 26  1  0
 27 26  2  0
 28 27  1  0
 29 30  1  0
 29 28  2  0
 30 25  2  0
 31 28  1  0
 31 32  1  0
 32 33  1  0
 33 34  2  0
 35 34  1  0
 35 39  1  0
 36 35  2  0
 37 32  2  0
 37 36  1  0
 38 37  1  0
 40 41  1  0
 41 44  1  0
 41 43  1  0
 42 40  2  0
 45 46  1  0
 45 47  1  0
 48 49  1  0
 48  1  1  0
 49 52  1  0
 49 50  1  0
 51 49  1  0
 53 52  1  0
 53 54  1  0
 54 56  1  0
 55 66  2  0
 56 61  1  0
 57 65  1  0
 57 67  1  0
 58 64  1  0
 58 60  1  0
 59 65  1  0
 60 59  1  0
 61 60  2  0
 62 63  1  0
 62 56  2  0
 63 58  2  0
 64 57  1  0
 65 55  1  0
 67 69  2  0
 68 67  1  0
 70 68  1  0
 71 80  2  0
 71 76  1  0
 72 68  1  0
 72 76  1  0
 73 72  1  0
 74 75  1  0
 74 73  1  0
 75 71  1  0
 76 77  2  0
 77 78  1  0
 79 78  2  0
 80 79  1  0
 81 55  1  0
 81 86  1  0
 81 82  1  0
 82 85  1  1
 82 83  1  0
 84 82  1  0
 86 89  1  0
 87 91  1  0
 87 86  1  0
 88 87  2  0
 91 90  1  0
 93 91  1  0
 93 94  1  0
 93 92  1  0
M  ISO  4  10 100  18 100  53 101  54 101
M  END
>  <TORSDO>  (1) 
F 25

>  <SCORE>  (1) 
-8.160

>  <name>  (1) 
0

>  <ligand_id>  (1) 
0

>  <original_smiles>  (1) 
[H]c1c([H])c([H])c2c(c1[H])C([H])([H])C([H])([H])C([H])([H])C2([H])N([H])C(=O)C1([H])N(C(=O)C([H])(N([H])C(=O)C([H])(N([H])C([H])([H])[H])C([H])([H])[H])C(C([H])([H])[H])(C([H])([H])[H])C([H])([H])[H])C([H])([H])c2c([H])c(OC([H])([H])C([H])([H])[N+]([H])([H])C([H])([H])C([H])([H])C([H])([H])[N+]([H])([H])C([H])(C([H])([H])[H])C([H])([H])C([H])([H])N([H])C(=O)N3C([H])([H])C([H])([H])C([H])([H])C([H])(n4nc(-c5c([H])c([H])c(Oc6c([H])c([H])c(F)c([H])c6F)c([H])c5[H])c(C(=O)N([H])[H])c4N([H])[H])C3([H])[H])c([H])c([H])c2C1([H])[H]

>  <smiles>  (1) 
[H]c1c([H])c([H])c2c(c1[H])C([H])([H])C([H])([H])C([H])([H])C2([H])N([H])C(=O)C1([H])N(C(=O)C([H])(N([H])C(=O)C([H])(N([H])C([H])([H])[H])C([H])([H])[H])C(C([H])([H])[H])(C([H])([H])[H])C([H])([H])[H])C([H])([H])c2c([H])c(OC([H])([H])C([H])([H])[N+]([H])([H])C([H])([H])C([H])([H])C([H])([H])[N+]([H])([H])C([H])(C([H])([H])[H])C([H])([H])C([H])([H])N([H])C(=O)N3C([H])([H])C([H])([H])C([H])([H])C([H])(n4nc(-c5c([H])c([H])c(Oc6c([H])c([H])c(F)c([H])c6F)c([H])c5[H])c(C(=O)N([H])[H])c4N([H])[H])C3([H])[H])c([H])c([H])c2C1([H])[H]

$$$$
1:0:0
     RDKit          3D

 91 99  0  0  1  0  0  0  0  0999 V2000
  -30.0050  -23.0570   22.7340 C   0  0  0  0  0  3  0  0  0  0  0  0
  -30.1160  -21.7440   22.2200 C   0  0  0  0  0  3  0  0  0  0  0  0
  -29.4120  -24.1000   21.9870 C   0  0  0  0  0  3  0  0  0  0  0  0
  -29.0060  -22.5090   20.1960 C   0  0  0  0  0  3  0  0  0  0  0  0
  -29.5880  -21.4160   20.9480 C   0  0  0  0  0  0  0  0  0  0  0  0
  -28.9170  -23.8670   20.6850 C   0  0  0  0  0  0  0  0  0  0  0  0
  -29.6190  -19.9270   20.3910 C   0  0  0  0  0  2  0  0  0  0  0  0
  -30.0480  -18.6310   21.0770 N   0  0  0  0  0  4  0  0  0  0  0  0
  -29.6120  -18.5950   21.9840 H   0  0  0  0  0  0  0  0  0  0  0  0
  -31.0450  -18.6940   21.2370 H   0  0  0  0  0  0  0  0  0  0  0  0
  -28.4170  -17.2720   19.6470 C   0  0  0  0  0  1  0  0  0  0  0  0
  -29.8020  -17.3020   20.3490 C   0  0  0  0  0  3  0  0  0  0  0  0
  -30.0330  -15.9640   21.2140 C   0  0  0  0  0  2  0  0  0  0  0  0
  -30.6240  -14.6690   20.5020 C   0  0  0  0  0  0  0  0  0  0  0  0
  -30.3800  -12.4580   19.3650 C   0  0  0  0  0  2  0  0  0  0  0  0
  -29.4470  -12.5740   18.1410 C   0  0  0  0  0  2  0  0  0  0  0  0
  -27.9760  -12.4090   18.5690 C   0  0  0  0  0  2  0  0  0  0  0  0
  -27.6090  -13.2770   19.8000 C   0  0  0  0  0  3  0  0  0  0  0  0
  -28.6490  -13.1200   20.9250 C   0  0  0  0  0  2  0  0  0  0  0  0
  -29.9660  -13.4670   20.3710 N   0  0  0  0  0  0  0  0  0  0  0  0
  -31.7510  -14.7890   20.0070 O   0  0  0  0  0  0  0  0  0  0  0  0
  -25.2140  -13.8940   20.4850 C   0  0  0  0  0  0  0  0  0  0  0  0
  -24.1320  -13.1330   20.8340 C   0  0  0  0  0  0  0  0  0  0  0  0
  -24.5830  -11.7760   20.8280 C   0  0  0  0  0  0  0  0  0  0  0  0
  -26.2540  -13.0050   20.2710 N   0  0  0  0  0  0  0  0  0  0  0  0
  -25.8790  -11.7260   20.5400 N   0  0  0  0  0  0  0  0  0  0  0  0
  -23.8480  -10.5220   21.0330 C   0  0  0  0  0  0  0  0  0  0  0  0
  -24.2860   -9.5530   21.9670 C   0  0  0  0  0  3  0  0  0  0  0  0
  -23.5530   -8.3620   22.1560 C   0  0  0  0  0  3  0  0  0  0  0  0
  -22.3720   -8.1280   21.4130 C   0  0  0  0  0  0  0  0  0  0  0  0
  -21.9520   -9.0860   20.4750 C   0  0  0  0  0  3  0  0  0  0  0  0
  -22.6820  -10.2700   20.2830 C   0  0  0  0  0  3  0  0  0  0  0  0
  -21.6140   -6.9880   21.5120 O   0  0  0  0  0  0  0  0  0  0  0  0
  -21.5980   -6.2290   22.6550 C   0  0  0  0  0  0  0  0  0  0  0  0
  -21.2430   -6.7780   23.9050 C   0  0  0  0  0  3  0  0  0  0  0  0
  -21.1730   -5.9500   25.0420 C   0  0  0  0  0  3  0  0  0  0  0  0
  -21.4460   -4.5740   24.9310 C   0  0  0  0  0  0  0  0  0  0  0  0
  -21.7960   -4.0240   23.6850 C   0  0  0  0  0  3  0  0  0  0  0  0
  -21.8660   -4.8490   22.5490 C   0  0  0  0  0  0  0  0  0  0  0  0
  -22.1840   -4.3100   21.3470 F   0  0  0  0  0  0  0  0  0  0  0  0
  -21.3700   -3.7760   26.0220 F   0  0  0  0  0  0  0  0  0  0  0  0
  -22.7310  -13.6200   21.0720 C   0  0  0  0  0  0  0  0  0  0  0  0
  -21.9840  -12.9520   21.9410 N   0  0  0  0  0  0  0  0  0  0  0  0
  -22.3070  -14.6360   20.5200 O   0  0  0  0  0  0  0  0  0  0  0  0
  -22.3370  -12.1370   22.4210 H   0  0  0  0  0  0  0  0  0  0  0  0
  -21.0410  -13.2640   22.1270 H   0  0  0  0  0  0  0  0  0  0  0  0
  -25.4050  -15.2600   20.3060 N   0  0  0  0  0  0  0  0  0  0  0  0
  -24.6930  -15.9560   20.4980 H   0  0  0  0  0  0  0  0  0  0  0  0
  -26.3020  -15.6670   20.0820 H   0  0  0  0  0  0  0  0  0  0  0  0
  -28.2340  -25.0200   19.8480 C   0  0  0  0  0  2  0  0  0  0  0  0
  -28.2960  -26.4440   20.2950 O   0  0  0  0  0  0  0  0  0  0  0  0
  -24.6290  -31.9060   23.2270 C   0  0  0  0  0  0  0  0  0  0  0  0
  -27.1790  -27.3020   20.1780 C   0  0  0  0  0  0  0  0  0  0  0  0
  -23.4020  -30.5110   21.6020 C   0  0  0  0  0  3  0  0  0  0  0  0
  -24.8340  -28.9530   20.1660 C   0  0  0  0  0  0  0  0  0  0  0  0
  -25.9440  -30.8160   21.3860 C   0  0  0  0  0  2  0  0  0  0  0  0
  -26.0120  -29.4310   20.7510 C   0  0  0  0  0  0  0  0  0  0  0  0
  -27.1810  -28.6090   20.7650 C   0  0  0  0  0  3  0  0  0  0  0  0
  -25.9820  -26.8990   19.5360 C   0  0  0  0  0  3  0  0  0  0  0  0
  -24.8160  -27.6910   19.5630 C   0  0  0  0  0  3  0  0  0  0  0  0
  -23.6060  -29.8400   20.2220 C   0  0  0  0  0  2  0  0  0  0  0  0
  -24.6780  -31.0980   22.1270 N   0  0  0  0  0  0  0  0  0  0  0  0
  -23.5530  -32.1890   23.7720 O   0  0  0  0  0  0  0  0  0  0  0  0
  -22.7520  -29.4920   22.5750 C   0  0  0  0  0  0  0  0  0  0  0  0
  -21.4260  -29.3160   22.4640 N   0  0  0  0  0  0  0  0  0  0  0  0
  -23.4410  -28.8630   23.3820 O   0  0  0  0  0  0  0  0  0  0  0  0
  -20.9400  -29.8700   21.7700 H   0  0  0  0  0  0  0  0  0  0  0  0
  -18.0470  -28.1250   22.9720 C   0  0  0  0  0  0  0  0  0  0  0  0
  -20.6080  -28.3860   23.2430 C   0  0  0  0  0  3  0  0  0  0  0  0
  -20.7140  -26.9510   22.6760 C   0  0  0  0  0  2  0  0  0  0  0  0
  -19.6080  -26.6240   21.6700 C   0  0  0  0  0  2  0  0  0  0  0  0
  -18.2240  -26.7710   22.3100 C   0  0  0  0  0  2  0  0  0  0  0  0
  -19.1670  -28.8900   23.3960 C   0  0  0  0  0  0  0  0  0  0  0  0
  -18.9460  -30.1580   23.9740 C   0  0  0  0  0  3  0  0  0  0  0  0
  -17.6390  -30.6560   24.1460 C   0  0  0  0  0  3  0  0  0  0  0  0
  -16.5350  -29.8860   23.7410 C   0  0  0  0  0  3  0  0  0  0  0  0
  -16.7400  -28.6270   23.1480 C   0  0  0  0  0  3  0  0  0  0  0  0
  -25.9220  -32.5250   23.8400 C   0  0  0  0  0  3  0  0  0  0  0  0
  -25.6200  -33.9210   24.1920 N   0  0  0  0  0  0  0  0  0  0  0  0
  -25.9260  -34.9810   23.4330 C   0  0  0  0  0  0  0  0  0  0  0  0
  -26.5710  -34.8890   22.3840 O   0  0  0  0  0  0  0  0  0  0  0  0
  -25.0470  -34.0630   25.0120 H   0  0  0  0  0  0  0  0  0  0  0  0
  -24.1810  -36.7660   23.1320 C   0  0  0  0  0  1  0  0  0  0  0  0
  -25.4450  -36.3670   23.9110 C   0  0  0  0  0  3  0  0  0  0  0  0
  -27.5980  -37.2540   24.6790 C   0  0  0  0  0  1  0  0  0  0  0  0
  -26.4670  -37.4280   23.7720 N   0  0  0  0  0  0  0  0  0  0  0  0
  -26.0650  -38.3480   23.9420 H   0  0  0  0  0  0  0  0  0  0  0  0
  -26.4430  -31.7350   25.1020 C   0  0  1  0  0  0  0  0  0  0  0  0
  -25.3530  -31.5030   26.1740 C   0  0  0  0  0  1  0  0  0  0  0  0
  -27.0050  -30.3570   24.6850 C   0  0  0  0  0  1  0  0  0  0  0  0
  -27.6130  -32.5030   25.7600 C   0  0  0  0  0  1  0  0  0  0  0  0
  2  1  1  0
  3  1  2  0
  4  6  2  0
  4  5  1  0
  5  2  2  0
  6  3  1  0
  7  5  1  0
  7  8  1  0
  8 10  1  0
  8  9  1  0
 12 11  1  0
 12  8  1  0
 12 13  1  0
 14 13  1  0
 15 20  1  0
 16 17  1  0
 16 15  1  0
 18 17  1  0
 18 25  1  0
 18 19  1  0
 20 14  1  0
 20 19  1  0
 21 14  2  0
 22 23  2  0
 23 42  1  0
 24 23  1  0
 24 27  1  0
 25 22  1  0
 25 26  1  0
 26 24  2  0
 27 28  1  0
 28 29  2  0
 30 33  1  0
 30 29  1  0
 31 30  2  0
 32 31  1  0
 32 27  2  0
 33 34  1  0
 34 35  1  0
 35 36  2  0
 37 36  1  0
 37 41  1  0
 38 37  2  0
 39 34  2  0
 39 38  1  0
 40 39  1  0
 42 43  1  0
 43 46  1  0
 43 45  1  0
 44 42  2  0
 47 22  1  0
 47 48  1  0
 49 47  1  0
 50 51  1  0
 50  6  1  0
 52 63  2  0
 53 51  1  0
 53 58  1  0
 54 62  1  0
 54 64  1  0
 55 61  1  0
 55 57  1  0
 56 62  1  0
 57 58  2  0
 57 56  1  0
 59 60  1  0
 59 53  2  0
 60 55  2  0
 61 54  1  0
 62 52  1  0
 64 66  2  0
 65 64  1  0
 67 65  1  0
 68 77  2  0
 68 73  1  0
 69 65  1  0
 69 73  1  0
 70 69  1  0
 71 72  1  0
 71 70  1  0
 72 68  1  0
 73 74  2  0
 74 75  1  0
 76 75  2  0
 77 76  1  0
 78 52  1  0
 78 79  1  0
 78 88  1  0
 79 82  1  0
 80 84  1  0
 80 79  1  0
 81 80  2  0
 84 83  1  0
 86 84  1  0
 86 87  1  0
 86 85  1  0
 88 91  1  1
 88 89  1  0
 90 88  1  0
M  ISO  4  13 100  14 100  50 101  51 101
M  END
>  <TORSDO>  (2) 
F 21

>  <SCORE>  (2) 
-13.837

>  <name>  (2) 
1

>  <ligand_id>  (2) 
1

>  <original_smiles>  (2) 
[H]c1c([H])c([H])c2c(c1[H])C([H])([H])C([H])([H])C([H])([H])C2([H])N([H])C(=O)C1([H])N(C(=O)C([H])(N([H])C(=O)C([H])(N([H])C([H])([H])[H])C([H])([H])[H])C(C([H])([H])[H])(C([H])([H])[H])C([H])([H])[H])C([H])([H])c2c([H])c(OC([H])([H])c3c([H])c([H])c([H])c(C([H])([H])[N+]([H])([H])C([H])(C([H])([H])[H])C([H])([H])C(=O)N4C([H])([H])C([H])([H])C([H])([H])C([H])(n5nc(-c6c([H])c([H])c(Oc7c([H])c([H])c(F)c([H])c7F)c([H])c6[H])c(C(=O)N([H])[H])c5N([H])[H])C4([H])[H])c3[H])c([H])c([H])c2C1([H])[H]

>  <smiles>  (2) 
[H]c1c([H])c([H])c2c(c1[H])C([H])([H])C([H])([H])C([H])([H])C2([H])N([H])C(=O)C1([H])N(C(=O)C([H])(N([H])C(=O)C([H])(N([H])C([H])([H])[H])C([H])([H])[H])C(C([H])([H])[H])(C([H])([H])[H])C([H])([H])[H])C([H])([H])c2c([H])c(OC([H])([H])c3c([H])c([H])c([H])c(C([H])([H])[N+]([H])([H])C([H])(C([H])([H])[H])C([H])([H])C(=O)N4C([H])([H])C([H])([H])C([H])([H])C([H])(n5nc(-c6c([H])c([H])c(Oc7c([H])c([H])c(F)c([H])c7F)c([H])c6[H])c(C(=O)N([H])[H])c5N([H])[H])C4([H])[H])c3[H])c([H])c([H])c2C1([H])[H]

$$$$
2:0:0
     RDKit          3D

 93101  0  0  1  0  0  0  0  0999 V2000
  -27.0000  -21.2180   20.9990 C   0  0  0  0  0  3  0  0  0  0  0  0
  -26.8160  -22.4360   20.3170 C   0  0  0  0  0  3  0  0  0  0  0  0
  -28.0830  -20.3830   20.6720 C   0  0  0  0  0  3  0  0  0  0  0  0
  -28.8240  -22.0120   19.0100 C   0  0  0  0  0  3  0  0  0  0  0  0
  -27.7320  -22.8550   19.3300 C   0  0  0  0  0  0  0  0  0  0  0  0
  -28.9880  -20.7600   19.6540 C   0  0  0  0  0  0  0  0  0  0  0  0
  -27.5160  -24.1530   18.6680 C   0  0  0  0  0  3  0  0  0  0  0  0
  -28.4410  -25.1220   18.5210 C   0  0  0  0  0  3  0  0  0  0  0  0
  -28.2040  -26.4410   17.7990 C   0  0  0  0  0  2  0  0  0  0  0  0
  -28.1210  -27.5480   18.7010 O   0  0  0  0  0  0  0  0  0  0  0  0
  -24.5640  -31.6630   23.2770 C   0  0  0  0  0  0  0  0  0  0  0  0
  -26.8980  -28.1130   19.0060 C   0  0  0  0  0  0  0  0  0  0  0  0
  -23.1850  -30.5450   21.5540 C   0  0  0  0  0  3  0  0  0  0  0  0
  -24.4700  -29.4120   19.6660 C   0  0  0  0  0  0  0  0  0  0  0  0
  -25.6450  -31.0930   21.1030 C   0  0  0  0  0  2  0  0  0  0  0  0
  -25.6800  -29.8860   20.1870 C   0  0  0  0  0  0  0  0  0  0  0  0
  -26.8900  -29.2400   19.8590 C   0  0  0  0  0  3  0  0  0  0  0  0
  -25.6610  -27.6270   18.5190 C   0  0  0  0  0  3  0  0  0  0  0  0
  -24.4550  -28.2770   18.8380 C   0  0  0  0  0  3  0  0  0  0  0  0
  -23.2190  -30.1670   20.0500 C   0  0  0  0  0  2  0  0  0  0  0  0
  -24.4900  -31.1070   22.0340 N   0  0  0  0  0  0  0  0  0  0  0  0
  -23.5640  -31.7520   24.0000 O   0  0  0  0  0  0  0  0  0  0  0  0
  -22.7130  -29.3130   22.3600 C   0  0  0  0  0  0  0  0  0  0  0  0
  -21.4230  -28.9660   22.2250 N   0  0  0  0  0  0  0  0  0  0  0  0
  -23.5050  -28.6760   23.0600 O   0  0  0  0  0  0  0  0  0  0  0  0
  -20.8360  -29.5480   21.6440 H   0  0  0  0  0  0  0  0  0  0  0  0
  -18.3270  -27.1090   22.3910 C   0  0  0  0  0  0  0  0  0  0  0  0
  -20.7700  -27.8180   22.8530 C   0  0  0  0  0  3  0  0  0  0  0  0
  -21.1760  -26.4960   22.1620 C   0  0  0  0  0  2  0  0  0  0  0  0
  -20.2100  -26.0710   21.0520 C   0  0  0  0  0  2  0  0  0  0  0  0
  -18.7970  -25.8890   21.6130 C   0  0  0  0  0  2  0  0  0  0  0  0
  -19.2550  -28.0240   22.9570 C   0  0  0  0  0  0  0  0  0  0  0  0
  -18.7680  -29.1600   23.6400 C   0  0  0  0  0  3  0  0  0  0  0  0
  -17.3850  -29.3900   23.7590 C   0  0  0  0  0  3  0  0  0  0  0  0
  -16.4710  -28.4730   23.2120 C   0  0  0  0  0  3  0  0  0  0  0  0
  -16.9420  -27.3330   22.5370 C   0  0  0  0  0  3  0  0  0  0  0  0
  -25.9040  -32.2380   23.8360 C   0  0  0  0  0  3  0  0  0  0  0  0
  -25.6400  -33.6060   24.3040 N   0  0  0  0  0  0  0  0  0  0  0  0
  -25.9520  -34.7170   23.6220 C   0  0  0  0  0  0  0  0  0  0  0  0
  -26.5630  -34.6950   22.5500 O   0  0  0  0  0  0  0  0  0  0  0  0
  -25.0950  -33.6960   25.1490 H   0  0  0  0  0  0  0  0  0  0  0  0
  -24.2490  -36.5640   23.5020 C   0  0  0  0  0  1  0  0  0  0  0  0
  -25.5140  -36.0670   24.2220 C   0  0  0  0  0  3  0  0  0  0  0  0
  -27.6970  -36.8380   25.0380 C   0  0  0  0  0  1  0  0  0  0  0  0
  -26.5640  -37.1070   24.1580 N   0  0  0  0  0  0  0  0  0  0  0  0
  -26.1830  -38.0190   24.4010 H   0  0  0  0  0  0  0  0  0  0  0  0
  -26.5210  -31.3640   24.9960 C   0  0  1  0  0  0  0  0  0  0  0  0
  -25.5260  -31.0450   26.1360 C   0  0  0  0  0  1  0  0  0  0  0  0
  -27.0520  -30.0210   24.4440 C   0  0  0  0  0  1  0  0  0  0  0  0
  -27.7320  -32.0970   25.6200 C   0  0  0  0  0  1  0  0  0  0  0  0
  -31.2460  -19.7640   20.2740 C   0  0  0  0  0  1  0  0  0  0  0  0
  -30.1050  -19.8030   19.2330 C   0  0  0  0  0  3  0  0  0  0  0  0
  -29.5120  -18.4670   18.9680 N   0  0  0  0  0  4  0  0  0  0  0  0
  -29.0090  -18.5850   18.1030 H   0  0  0  0  0  0  0  0  0  0  0  0
  -28.8150  -18.2440   19.6610 H   0  0  0  0  0  0  0  0  0  0  0  0
  -30.4420  -17.3280   18.7470 C   0  0  0  0  0  2  0  0  0  0  0  0
  -30.7550  -16.4910   20.0150 C   0  0  0  0  0  2  0  0  0  0  0  0
  -31.4960  -15.1820   19.6550 C   0  0  0  0  0  0  0  0  0  0  0  0
  -31.3330  -12.7880   19.0840 C   0  0  0  0  0  2  0  0  0  0  0  0
  -30.3900  -12.6560   17.8700 C   0  0  0  0  0  2  0  0  0  0  0  0
  -28.9160  -12.5730   18.3210 C   0  0  0  0  0  2  0  0  0  0  0  0
  -28.5370  -13.6740   19.3520 C   0  0  0  0  0  3  0  0  0  0  0  0
  -29.5950  -13.7420   20.4780 C   0  0  0  0  0  2  0  0  0  0  0  0
  -30.9060  -13.9700   19.8470 N   0  0  0  0  0  0  0  0  0  0  0  0
  -32.5870  -15.2940   19.0890 O   0  0  0  0  0  0  0  0  0  0  0  0
  -26.2170  -14.4010   20.2020 C   0  0  0  0  0  0  0  0  0  0  0  0
  -25.1300  -13.6840   20.6150 C   0  0  0  0  0  0  0  0  0  0  0  0
  -25.5030  -12.3080   20.5120 C   0  0  0  0  0  0  0  0  0  0  0  0
  -27.1930  -13.4690   19.8850 N   0  0  0  0  0  0  0  0  0  0  0  0
  -26.7680  -12.2030   20.1250 N   0  0  0  0  0  0  0  0  0  0  0  0
  -24.7140  -11.0870   20.7010 C   0  0  0  0  0  0  0  0  0  0  0  0
  -25.0440  -10.1450   21.7000 C   0  0  0  0  0  3  0  0  0  0  0  0
  -24.2570   -8.9870   21.8760 C   0  0  0  0  0  3  0  0  0  0  0  0
  -23.1270   -8.7630   21.0550 C   0  0  0  0  0  0  0  0  0  0  0  0
  -22.8190   -9.6920   20.0450 C   0  0  0  0  0  3  0  0  0  0  0  0
  -23.6070  -10.8420   19.8650 C   0  0  0  0  0  3  0  0  0  0  0  0
  -22.3200   -7.6540   21.1370 O   0  0  0  0  0  0  0  0  0  0  0  0
  -22.0300   -7.0640   22.3420 C   0  0  0  0  0  0  0  0  0  0  0  0
  -21.3820   -7.7690   23.3800 C   0  0  0  0  0  3  0  0  0  0  0  0
  -21.0390   -7.1060   24.5750 C   0  0  0  0  0  3  0  0  0  0  0  0
  -21.3360   -5.7380   24.7320 C   0  0  0  0  0  0  0  0  0  0  0  0
  -21.9770   -5.0340   23.6980 C   0  0  0  0  0  3  0  0  0  0  0  0
  -22.3220   -5.6950   22.5070 C   0  0  0  0  0  0  0  0  0  0  0  0
  -22.9190   -5.0070   21.5040 F   0  0  0  0  0  0  0  0  0  0  0  0
  -21.0000   -5.0980   25.8760 F   0  0  0  0  0  0  0  0  0  0  0  0
  -23.7810  -14.2320   20.9840 C   0  0  0  0  0  0  0  0  0  0  0  0
  -23.0690  -13.5600   21.8800 N   0  0  0  0  0  0  0  0  0  0  0  0
  -23.3740  -15.2930   20.5120 O   0  0  0  0  0  0  0  0  0  0  0  0
  -23.4070  -12.6970   22.2800 H   0  0  0  0  0  0  0  0  0  0  0  0
  -22.1650  -13.9080   22.1680 H   0  0  0  0  0  0  0  0  0  0  0  0
  -26.4530  -15.7660   20.0370 N   0  0  0  0  0  0  0  0  0  0  0  0
  -25.6950  -16.4270   20.1550 H   0  0  0  0  0  0  0  0  0  0  0  0
  -27.1620  -16.0950   19.3970 H   0  0  0  0  0  0  0  0  0  0  0  0
  2  1  2  0
  3  1  1  0
  4  5  2  0
  4  6  1  0
  5  2  1  0
  6  3  2  0
  7  5  1  0
  8  7  2  0
  9  8  1  0
  9 10  1  0
 10 12  1  0
 11 22  2  0
 12 17  1  0
 13 21  1  0
 13 23  1  0
 14 20  1  0
 14 16  1  0
 15 21  1  0
 16 15  1  0
 17 16  2  0
 18 19  1  0
 18 12  2  0
 19 14  2  0
 20 13  1  0
 21 11  1  0
 23 25  2  0
 24 23  1  0
 26 24  1  0
 27 36  2  0
 27 32  1  0
 28 24  1  0
 28 32  1  0
 29 28  1  0
 30 31  1  0
 30 29  1  0
 31 27  1  0
 32 33  2  0
 33 34  1  0
 35 34  2  0
 36 35  1  0
 37 11  1  0
 37 38  1  0
 37 47  1  0
 38 41  1  0
 39 43  1  0
 39 38  1  0
 40 39  2  0
 43 42  1  0
 45 43  1  0
 45 46  1  0
 45 44  1  0
 47 50  1  1
 47 48  1  0
 49 47  1  0
 52  6  1  0
 52 51  1  0
 53 52  1  0
 53 55  1  0
 54 53  1  0
 56 53  1  0
 56 57  1  0
 58 64  1  0
 58 57  1  0
 59 64  1  0
 60 61  1  0
 60 59  1  0
 62 61  1  0
 62 69  1  0
 62 63  1  0
 64 63  1  0
 65 58  2  0
 66 67  2  0
 67 86  1  0
 68 67  1  0
 68 71  1  0
 69 70  1  0
 69 66  1  0
 70 68  2  0
 71 72  1  0
 72 73  2  0
 74 77  1  0
 74 73  1  0
 75 74  2  0
 76 75  1  0
 76 71  2  0
 77 78  1  0
 78 83  2  0
 78 79  1  0
 79 80  2  0
 80 81  1  0
 81 85  1  0
 82 81  2  0
 83 82  1  0
 84 83  1  0
 86 87  1  0
 87 90  1  0
 87 89  1  0
 88 86  2  0
 91 92  1  0
 91 66  1  0
 93 91  1  0
M  ISO  4   9 101  10 101  57 100  58 100
M  END
>  <TORSDO>  (3) 
F 22

>  <SCORE>  (3) 
-9.116

>  <name>  (3) 
2

>  <ligand_id>  (3) 
2

>  <original_smiles>  (3) 
[H]C(=C([H])C([H])([H])Oc1c([H])c([H])c2c(c1[H])C([H])([H])N(C(=O)C([H])(N([H])C(=O)C([H])(N([H])C([H])([H])[H])C([H])([H])[H])C(C([H])([H])[H])(C([H])([H])[H])C([H])([H])[H])C([H])(C(=O)N([H])C1([H])c3c([H])c([H])c([H])c([H])c3C([H])([H])C([H])([H])C1([H])[H])C2([H])[H])c1c([H])c([H])c([H])c(C([H])(C([H])([H])[H])[N+]([H])([H])C([H])([H])C([H])([H])C(=O)N2C([H])([H])C([H])([H])C([H])([H])C([H])(n3nc(-c4c([H])c([H])c(Oc5c([H])c([H])c(F)c([H])c5F)c([H])c4[H])c(C(=O)N([H])[H])c3N([H])[H])C2([H])[H])c1[H]

>  <smiles>  (3) 
[H]C(=C([H])C([H])([H])Oc1c([H])c([H])c2c(c1[H])C([H])([H])N(C(=O)C([H])(N([H])C(=O)C([H])(N([H])C([H])([H])[H])C([H])([H])[H])C(C([H])([H])[H])(C([H])([H])[H])C([H])([H])[H])C([H])(C(=O)N([H])C1([H])c3c([H])c([H])c([H])c([H])c3C([H])([H])C([H])([H])C1([H])[H])C2([H])[H])c1c([H])c([H])c([H])c(C([H])(C([H])([H])[H])[N+]([H])([H])C([H])([H])C([H])([H])C(=O)N2C([H])([H])C([H])([H])C([H])([H])C([H])(n3nc(-c4c([H])c([H])c(Oc5c([H])c([H])c(F)c([H])c5F)c([H])c4[H])c(C(=O)N([H])[H])c3N([H])[H])C2([H])[H])c1[H]

$$$$
3:0:0
     RDKit          3D

 92100  0  0  1  0  0  0  0  0999 V2000
  -28.8030  -21.1000   20.6700 N   0  0  0  0  0  4  0  0  0  0  0  0
  -29.1420  -21.2560   21.6050 H   0  0  0  0  0  0  0  0  0  0  0  0
  -27.8230  -20.8770   20.7380 H   0  0  0  0  0  0  0  0  0  0  0  0
  -28.8390  -19.2110   18.9490 C   0  0  0  0  0  0  0  0  0  0  0  0
  -29.2010  -17.7120   18.8390 C   0  0  0  0  0  2  0  0  0  0  0  0
  -29.7250  -18.5400   21.0280 C   0  0  0  0  0  2  0  0  0  0  0  0
  -29.5350  -19.8570   20.1430 C   0  0  0  0  0  3  0  0  0  0  0  0
  -30.1290  -17.3470   20.0400 C   0  0  2  0  0  0  0  0  0  0  0  0
  -31.6080  -17.5760   19.6260 C   0  0  0  0  0  1  0  0  0  0  0  0
  -28.0610  -19.7670   18.1680 O   0  0  0  0  0  0  0  0  0  0  0  0
  -30.6310  -14.7240   20.3190 C   0  0  0  0  0  0  0  0  0  0  0  0
  -30.3800  -12.4650   19.3140 C   0  0  0  0  0  2  0  0  0  0  0  0
  -29.4480  -12.5730   18.0890 C   0  0  0  0  0  2  0  0  0  0  0  0
  -27.9780  -12.4130   18.5190 C   0  0  0  0  0  2  0  0  0  0  0  0
  -27.6140  -13.2890   19.7490 C   0  0  0  0  0  3  0  0  0  0  0  0
  -28.6750  -13.1920   20.8680 C   0  0  0  0  0  2  0  0  0  0  0  0
  -29.9740  -13.5190   20.2710 N   0  0  0  0  0  0  0  0  0  0  0  0
  -31.8190  -14.7660   19.9940 O   0  0  0  0  0  0  0  0  0  0  0  0
  -29.8850  -15.8860   20.4880 N   0  0  0  0  0  0  0  0  0  0  0  0
  -28.9440  -15.6970   20.8010 H   0  0  0  0  0  0  0  0  0  0  0  0
  -25.2240  -13.8700   20.4760 C   0  0  0  0  0  0  0  0  0  0  0  0
  -24.1620  -13.0940   20.8490 C   0  0  0  0  0  0  0  0  0  0  0  0
  -24.6310  -11.7430   20.8230 C   0  0  0  0  0  0  0  0  0  0  0  0
  -26.2720  -12.9950   20.2420 N   0  0  0  0  0  0  0  0  0  0  0  0
  -25.9220  -11.7110   20.5140 N   0  0  0  0  0  0  0  0  0  0  0  0
  -23.9100  -10.4790   21.0170 C   0  0  0  0  0  0  0  0  0  0  0  0
  -24.3380   -9.5220   21.9650 C   0  0  0  0  0  3  0  0  0  0  0  0
  -23.6150   -8.3230   22.1470 C   0  0  0  0  0  3  0  0  0  0  0  0
  -22.4520   -8.0720   21.3810 C   0  0  0  0  0  0  0  0  0  0  0  0
  -22.0450   -9.0170   20.4220 C   0  0  0  0  0  3  0  0  0  0  0  0
  -22.7670  -10.2070   20.2390 C   0  0  0  0  0  3  0  0  0  0  0  0
  -21.7030   -6.9230   21.4700 O   0  0  0  0  0  0  0  0  0  0  0  0
  -21.6360   -6.1970   22.6320 C   0  0  0  0  0  0  0  0  0  0  0  0
  -21.1540   -6.7590   23.8350 C   0  0  0  0  0  3  0  0  0  0  0  0
  -21.0370   -5.9570   24.9880 C   0  0  0  0  0  3  0  0  0  0  0  0
  -21.3890   -4.5950   24.9390 C   0  0  0  0  0  0  0  0  0  0  0  0
  -21.8630   -4.0330   23.7400 C   0  0  0  0  0  3  0  0  0  0  0  0
  -21.9820   -4.8320   22.5900 C   0  0  0  0  0  0  0  0  0  0  0  0
  -22.4180   -4.2800   21.4320 F   0  0  0  0  0  0  0  0  0  0  0  0
  -21.2690   -3.8230   26.0440 F   0  0  0  0  0  0  0  0  0  0  0  0
  -22.7630  -13.5660   21.1180 C   0  0  0  0  0  0  0  0  0  0  0  0
  -22.0350  -12.8660   21.9810 N   0  0  0  0  0  0  0  0  0  0  0  0
  -22.3230  -14.5900   20.5980 O   0  0  0  0  0  0  0  0  0  0  0  0
  -22.4040  -12.0360   22.4230 H   0  0  0  0  0  0  0  0  0  0  0  0
  -21.0960  -13.1630   22.2030 H   0  0  0  0  0  0  0  0  0  0  0  0
  -25.3820  -15.2410   20.2920 N   0  0  0  0  0  0  0  0  0  0  0  0
  -24.6070  -15.8880   20.3950 H   0  0  0  0  0  0  0  0  0  0  0  0
  -26.2170  -15.6800   19.9270 H   0  0  0  0  0  0  0  0  0  0  0  0
  -28.9520  -22.4280   19.9120 C   0  0  0  0  0  2  0  0  0  0  0  0
  -28.4350  -23.8030   20.5860 C   0  0  0  0  0  3  0  0  0  0  0  0
  -28.4970  -25.1510   19.7080 C   0  0  0  0  0  3  0  0  0  0  0  0
  -28.3710  -26.5090   20.3090 O   0  0  0  0  0  0  0  0  0  0  0  0
  -24.5860  -31.9020   23.2470 C   0  0  0  0  0  0  0  0  0  0  0  0
  -27.2250  -27.3220   20.2250 C   0  0  0  0  0  0  0  0  0  0  0  0
  -23.3940  -30.4930   21.6060 C   0  0  0  0  0  3  0  0  0  0  0  0
  -24.8540  -28.9360   20.1940 C   0  0  0  0  0  0  0  0  0  0  0  0
  -25.9320  -30.8140   21.4340 C   0  0  0  0  0  2  0  0  0  0  0  0
  -26.0170  -29.4320   20.7940 C   0  0  0  0  0  0  0  0  0  0  0  0
  -27.2010  -28.6350   20.7990 C   0  0  0  0  0  3  0  0  0  0  0  0
  -26.0330  -26.8760   19.6110 C   0  0  0  0  0  3  0  0  0  0  0  0
  -24.8650  -27.6660   19.5950 C   0  0  0  0  0  3  0  0  0  0  0  0
  -23.6160  -29.8100   20.2300 C   0  0  0  0  0  2  0  0  0  0  0  0
  -24.6560  -31.0880   22.1530 N   0  0  0  0  0  0  0  0  0  0  0  0
  -23.5000  -32.1790   23.7750 O   0  0  0  0  0  0  0  0  0  0  0  0
  -22.7280  -29.4810   22.5690 C   0  0  0  0  0  0  0  0  0  0  0  0
  -21.4050  -29.2930   22.4280 N   0  0  0  0  0  0  0  0  0  0  0  0
  -23.4010  -28.8670   23.4000 O   0  0  0  0  0  0  0  0  0  0  0  0
  -20.9210  -29.8400   21.7300 H   0  0  0  0  0  0  0  0  0  0  0  0
  -18.0300  -28.0780   22.9000 C   0  0  0  0  0  0  0  0  0  0  0  0
  -20.5830  -28.3560   23.1970 C   0  0  0  0  0  3  0  0  0  0  0  0
  -20.7000  -26.9210   22.6320 C   0  0  0  0  0  2  0  0  0  0  0  0
  -19.6120  -26.5840   21.6090 C   0  0  0  0  0  2  0  0  0  0  0  0
  -18.2220  -26.7260   22.2370 C   0  0  0  0  0  2  0  0  0  0  0  0
  -19.1400  -28.8510   23.3370 C   0  0  0  0  0  0  0  0  0  0  0  0
  -18.9060  -30.1160   23.9170 C   0  0  0  0  0  3  0  0  0  0  0  0
  -17.5970  -30.6110   24.0660 C   0  0  0  0  0  3  0  0  0  0  0  0
  -16.5020  -29.8360   23.6460 C   0  0  0  0  0  3  0  0  0  0  0  0
  -16.7190  -28.5720   23.0690 C   0  0  0  0  0  3  0  0  0  0  0  0
  -25.8630  -32.5400   23.8740 C   0  0  0  0  0  3  0  0  0  0  0  0
  -26.3650  -31.7840   25.1660 C   0  0  1  0  0  0  0  0  0  0  0  0
  -25.2600  -31.5620   26.2250 C   0  0  0  0  0  1  0  0  0  0  0  0
  -26.9510  -30.4010   24.7990 C   0  0  0  0  0  1  0  0  0  0  0  0
  -27.5100  -32.5860   25.8310 C   0  0  0  0  0  1  0  0  0  0  0  0
  -25.5540  -33.9430   24.1850 N   0  0  0  0  0  0  0  0  0  0  0  0
  -25.9000  -34.9870   23.4200 C   0  0  0  0  0  0  0  0  0  0  0  0
  -26.5830  -34.8710   22.3990 O   0  0  0  0  0  0  0  0  0  0  0  0
  -24.9480  -34.1070   24.9750 H   0  0  0  0  0  0  0  0  0  0  0  0
  -24.1910  -36.7890   23.0160 C   0  0  0  0  0  1  0  0  0  0  0  0
  -25.4120  -36.3820   23.8570 C   0  0  0  0  0  3  0  0  0  0  0  0
  -27.5310  -37.2640   24.7310 C   0  0  0  0  0  1  0  0  0  0  0  0
  -26.4530  -37.4280   23.7590 N   0  0  0  0  0  0  0  0  0  0  0  0
  -26.0490  -38.3530   23.8860 H   0  0  0  0  0  0  0  0  0  0  0  0
  1  3  1  0
  1  2  1  0
  4  7  1  0
  5  4  1  0
  5  8  1  0
  7  1  1  0
  7  6  1  0
  8  9  1  6
  8 19  1  0
  8  6  1  0
 10  4  2  0
 11 19  1  0
 12 17  1  0
 13 14  1  0
 13 12  1  0
 15 14  1  0
 15 24  1  0
 15 16  1  0
 17 11  1  0
 17 16  1  0
 18 11  2  0
 19 20  1  0
 21 22  2  0
 22 41  1  0
 23 22  1  0
 23 26  1  0
 24 21  1  0
 24 25  1  0
 25 23  2  0
 26 27  1  0
 27 28  2  0
 29 32  1  0
 29 28  1  0
 30 29  2  0
 31 30  1  0
 31 26  2  0
 32 33  1  0
 33 34  1  0
 34 35  2  0
 36 35  1  0
 36 40  1  0
 37 36  2  0
 38 33  2  0
 38 37  1  0
 39 38  1  0
 41 42  1  0
 42 45  1  0
 42 44  1  0
 43 41  2  0
 46 47  1  0
 46 21  1  0
 48 46  1  0
 49 50  1  0
 49  1  1  0
 51 52  1  0
 51 50  2  0
 53 64  2  0
 54 52  1  0
 54 59  1  0
 55 63  1  0
 55 65  1  0
 56 62  1  0
 56 58  1  0
 57 63  1  0
 58 59  2  0
 58 57  1  0
 60 54  2  0
 61 60  1  0
 61 56  2  0
 62 55  1  0
 63 53  1  0
 65 67  2  0
 66 65  1  0
 68 66  1  0
 69 78  2  0
 69 74  1  0
 70 66  1  0
 70 74  1  0
 71 70  1  0
 72 73  1  0
 72 71  1  0
 73 69  1  0
 74 75  2  0
 75 76  1  0
 77 76  2  0
 78 77  1  0
 79 53  1  0
 79 84  1  0
 79 80  1  0
 80 83  1  1
 80 81  1  0
 82 80  1  0
 84 87  1  0
 85 89  1  0
 85 84  1  0
 86 85  2  0
 89 88  1  0
 91 89  1  0
 91 92  1  0
 91 90  1  0
M  ISO  4  11 100  19 100  51 101  52 101
M  END
>  <TORSDO>  (4) 
F 20

>  <SCORE>  (4) 
-13.854

>  <name>  (4) 
3

>  <ligand_id>  (4) 
3

>  <original_smiles>  (4) 
[H]c1c([H])c([H])c2c(c1[H])C([H])([H])C([H])([H])C([H])([H])C2([H])N([H])C(=O)C1([H])N(C(=O)C([H])(N([H])C(=O)C([H])(N([H])C([H])([H])[H])C([H])([H])[H])C(C([H])([H])[H])(C([H])([H])[H])C([H])([H])[H])C([H])([H])c2c([H])c(OC([H])([H])C([H])([H])C([H])([H])[N+]([H])([H])C3([H])C(=O)C([H])([H])C(N([H])C(=O)N4C([H])([H])C([H])([H])C([H])([H])C([H])(n5nc(-c6c([H])c([H])c(Oc7c([H])c([H])c(F)c([H])c7F)c([H])c6[H])c(C(=O)N([H])[H])c5N([H])[H])C4([H])[H])(C([H])([H])[H])C3([H])[H])c([H])c([H])c2C1([H])[H]

>  <smiles>  (4) 
[H]c1c([H])c([H])c2c(c1[H])C([H])([H])C([H])([H])C([H])([H])C2([H])N([H])C(=O)C1([H])N(C(=O)C([H])(N([H])C(=O)C([H])(N([H])C([H])([H])[H])C([H])([H])[H])C(C([H])([H])[H])(C([H])([H])[H])C([H])([H])[H])C([H])([H])c2c([H])c(OC([H])([H])C([H])([H])C([H])([H])[N+]([H])([H])C3([H])C(=O)C([H])([H])C(N([H])C(=O)N4C([H])([H])C([H])([H])C([H])([H])C([H])(n5nc(-c6c([H])c([H])c(Oc7c([H])c([H])c(F)c([H])c7F)c([H])c6[H])c(C(=O)N([H])[H])c5N([H])[H])C4([H])[H])(C([H])([H])[H])C3([H])[H])c([H])c([H])c2C1([H])[H]

$$$$
4:0:0
     RDKit          3D

 92101  0  0  1  0  0  0  0  0999 V2000
  -30.4680  -20.4940   16.6290 C   0  0  0  0  0  3  0  0  0  0  0  0
  -30.6540  -19.1100   16.7680 C   0  0  0  0  0  3  0  0  0  0  0  0
  -30.2380  -21.3000   17.7590 C   0  0  0  0  0  3  0  0  0  0  0  0
  -30.6170  -18.5140   18.0400 C   0  0  0  0  0  3  0  0  0  0  0  0
  -29.9180  -20.9360   21.3660 C   0  0  0  0  0  3  0  0  0  0  0  0
  -30.1830  -20.7540   19.0620 C   0  0  0  0  0  0  0  0  0  0  0  0
  -30.4050  -19.2810   19.2070 C   0  0  0  0  0  0  0  0  0  0  0  0
  -29.9150  -21.7020   20.1450 C   0  0  0  0  0  0  0  0  0  0  0  0
  -30.4180  -18.5350   20.4570 C   0  0  0  0  0  0  0  0  0  0  0  0
  -30.1360  -19.4910   21.5150 C   0  0  0  0  0  0  0  0  0  0  0  0
  -30.0240  -19.0000   22.7840 O   0  0  0  0  0  0  0  0  0  0  0  0
  -29.7120  -19.6490   23.4080 H   0  0  0  0  0  0  0  0  0  0  0  0
  -30.4110  -16.8380   20.7300 C   0  0  0  0  0  2  0  0  0  0  0  0
  -31.3680  -15.4660   20.3800 C   0  0  0  0  0  0  0  0  0  0  0  0
  -31.3490  -13.1020   19.3560 C   0  0  0  0  0  2  0  0  0  0  0  0
  -30.4140  -13.0710   18.1190 C   0  0  0  0  0  2  0  0  0  0  0  0
  -28.9520  -12.8240   18.5390 C   0  0  0  0  0  2  0  0  0  0  0  0
  -28.5370  -13.7100   19.7400 C   0  0  0  0  0  3  0  0  0  0  0  0
  -29.5870  -13.6800   20.8690 C   0  0  0  0  0  2  0  0  0  0  0  0
  -30.8550  -14.1550   20.2990 N   0  0  0  0  0  0  0  0  0  0  0  0
  -32.5630  -15.5690   20.0680 O   0  0  0  0  0  0  0  0  0  0  0  0
  -26.1630  -14.2880   20.4950 C   0  0  0  0  0  0  0  0  0  0  0  0
  -25.0880  -13.5150   20.8310 C   0  0  0  0  0  0  0  0  0  0  0  0
  -25.5330  -12.1590   20.7480 C   0  0  0  0  0  0  0  0  0  0  0  0
  -27.1950  -13.4070   20.2220 N   0  0  0  0  0  0  0  0  0  0  0  0
  -26.8260  -12.1170   20.4410 N   0  0  0  0  0  0  0  0  0  0  0  0
  -24.7880  -10.9020   20.8850 C   0  0  0  0  0  0  0  0  0  0  0  0
  -25.1180   -9.9500   21.8750 C   0  0  0  0  0  3  0  0  0  0  0  0
  -24.3710   -8.7590   22.0000 C   0  0  0  0  0  3  0  0  0  0  0  0
  -23.2810   -8.5100   21.1320 C   0  0  0  0  0  0  0  0  0  0  0  0
  -22.9700   -9.4510   20.1340 C   0  0  0  0  0  3  0  0  0  0  0  0
  -23.7180  -10.6340   20.0090 C   0  0  0  0  0  3  0  0  0  0  0  0
  -22.5180   -7.3690   21.1600 O   0  0  0  0  0  0  0  0  0  0  0  0
  -22.2010   -6.7440   22.3410 C   0  0  0  0  0  0  0  0  0  0  0  0
  -21.4960   -7.4080   23.3680 C   0  0  0  0  0  3  0  0  0  0  0  0
  -21.1280   -6.7100   24.5350 C   0  0  0  0  0  3  0  0  0  0  0  0
  -21.4570   -5.3480   24.6740 C   0  0  0  0  0  0  0  0  0  0  0  0
  -22.1570   -4.6840   23.6510 C   0  0  0  0  0  3  0  0  0  0  0  0
  -22.5250   -5.3790   22.4870 C   0  0  0  0  0  0  0  0  0  0  0  0
  -23.1790   -4.7290   21.4940 F   0  0  0  0  0  0  0  0  0  0  0  0
  -21.0990   -4.6740   25.7920 F   0  0  0  0  0  0  0  0  0  0  0  0
  -23.6970  -14.0010   21.1150 C   0  0  0  0  0  0  0  0  0  0  0  0
  -22.9610  -13.2910   21.9620 N   0  0  0  0  0  0  0  0  0  0  0  0
  -23.2730  -15.0460   20.6230 O   0  0  0  0  0  0  0  0  0  0  0  0
  -23.3190  -12.4450   22.3820 H   0  0  0  0  0  0  0  0  0  0  0  0
  -22.0290  -13.5990   22.1980 H   0  0  0  0  0  0  0  0  0  0  0  0
  -26.3460  -15.6630   20.3740 N   0  0  0  0  0  0  0  0  0  0  0  0
  -25.5870  -16.3210   20.5150 H   0  0  0  0  0  0  0  0  0  0  0  0
  -27.2010  -16.1070   20.0660 H   0  0  0  0  0  0  0  0  0  0  0  0
  -29.9340  -23.4190   20.0880 C   0  0  0  0  0  3  0  0  0  0  0  0
  -28.7660  -24.6910   19.8350 C   0  0  0  0  0  3  0  0  0  0  0  0
  -28.9090  -26.2800   20.0520 O   0  0  0  0  0  0  0  0  0  0  0  0
  -24.9350  -31.7240   23.2600 C   0  0  0  0  0  0  0  0  0  0  0  0
  -27.8220  -27.2670   20.0140 C   0  0  0  0  0  0  0  0  0  0  0  0
  -23.8600  -30.4030   21.4810 C   0  0  0  0  0  3  0  0  0  0  0  0
  -25.4270  -28.9770   20.0070 C   0  0  0  0  0  0  0  0  0  0  0  0
  -26.4100  -30.7580   21.4400 C   0  0  0  0  0  2  0  0  0  0  0  0
  -26.5680  -29.4100   20.6950 C   0  0  0  0  0  0  0  0  0  0  0  0
  -27.7630  -28.5760   20.6750 C   0  0  0  0  0  3  0  0  0  0  0  0
  -26.6480  -26.9600   19.2910 C   0  0  0  0  0  3  0  0  0  0  0  0
  -25.4870  -27.7720   19.2880 C   0  0  0  0  0  3  0  0  0  0  0  0
  -24.1660  -29.8340   20.0680 C   0  0  0  0  0  2  0  0  0  0  0  0
  -25.0860  -30.9830   22.1180 N   0  0  0  0  0  0  0  0  0  0  0  0
  -23.8170  -31.9290   23.7600 O   0  0  0  0  0  0  0  0  0  0  0  0
  -23.1810  -29.3090   22.3450 C   0  0  0  0  0  0  0  0  0  0  0  0
  -21.8610  -29.1140   22.1680 N   0  0  0  0  0  0  0  0  0  0  0  0
  -23.8460  -28.6390   23.1380 O   0  0  0  0  0  0  0  0  0  0  0  0
  -21.3780  -29.7100   21.5120 H   0  0  0  0  0  0  0  0  0  0  0  0
  -18.4940  -27.8160   22.5330 C   0  0  0  0  0  0  0  0  0  0  0  0
  -21.0480  -28.0950   22.8390 C   0  0  0  0  0  3  0  0  0  0  0  0
  -21.1770  -26.7280   22.1290 C   0  0  0  0  0  2  0  0  0  0  0  0
  -20.0850  -26.4860   21.0820 C   0  0  0  0  0  2  0  0  0  0  0  0
  -18.6960  -26.5440   21.7280 C   0  0  0  0  0  2  0  0  0  0  0  0
  -19.5980  -28.5530   23.0400 C   0  0  0  0  0  0  0  0  0  0  0  0
  -19.3540  -29.7440   23.7570 C   0  0  0  0  0  3  0  0  0  0  0  0
  -18.0400  -30.2010   23.9710 C   0  0  0  0  0  3  0  0  0  0  0  0
  -16.9510  -29.4630   23.4750 C   0  0  0  0  0  3  0  0  0  0  0  0
  -17.1790  -28.2730   22.7600 C   0  0  0  0  0  3  0  0  0  0  0  0
  -26.1570  -32.3660   23.9850 C   0  0  0  0  0  3  0  0  0  0  0  0
  -26.6230  -31.5490   25.2540 C   0  0  1  0  0  0  0  0  0  0  0  0
  -25.4760  -31.2390   26.2470 C   0  0  0  0  0  1  0  0  0  0  0  0
  -27.2640  -30.2040   24.8420 C   0  0  0  0  0  1  0  0  0  0  0  0
  -27.7120  -32.3410   26.0140 C   0  0  0  0  0  1  0  0  0  0  0  0
  -25.7810  -33.7360   24.3700 N   0  0  0  0  0  0  0  0  0  0  0  0
  -26.0800  -34.8390   23.6700 C   0  0  0  0  0  0  0  0  0  0  0  0
  -26.7640  -34.8100   22.6430 O   0  0  0  0  0  0  0  0  0  0  0  0
  -25.1700  -33.8260   25.1670 H   0  0  0  0  0  0  0  0  0  0  0  0
  -24.2750  -36.5760   23.3990 C   0  0  0  0  0  1  0  0  0  0  0  0
  -25.5360  -36.1850   24.1880 C   0  0  0  0  0  3  0  0  0  0  0  0
  -27.6290  -37.1310   25.0590 C   0  0  0  0  0  1  0  0  0  0  0  0
  -26.5220  -37.2870   24.1190 N   0  0  0  0  0  0  0  0  0  0  0  0
  -26.0750  -38.1820   24.2990 H   0  0  0  0  0  0  0  0  0  0  0  0
  1  2  2  0
  1  3  1  0
  2  4  1  0
  3  6  2  0
  4  7  2  0
  5 10  1  0
  6  7  1  0
  6  8  1  0
  7  9  1  0
  8  5  2  0
  9 13  1  0
  9 10  2  0
 10 11  1  0
 11 12  1  0
 14 13  1  0
 15 20  1  0
 16 17  1  0
 16 15  1  0
 18 17  1  0
 18 25  1  0
 18 19  1  0
 20 14  1  0
 20 19  1  0
 21 14  2  0
 22 23  2  0
 23 42  1  0
 24 23  1  0
 24 27  1  0
 25 26  1  0
 25 22  1  0
 26 24  2  0
 27 28  1  0
 28 29  2  0
 30 33  1  0
 30 29  1  0
 31 30  2  0
 32 31  1  0
 32 27  2  0
 33 34  1  0
 34 39  2  0
 34 35  1  0
 35 36  2  0
 36 37  1  0
 37 41  1  0
 38 37  2  0
 39 38  1  0
 40 39  1  0
 42 43  1  0
 43 46  1  0
 43 45  1  0
 44 42  2  0
 47 22  1  0
 47 48  1  0
 49 47  1  0
 50  8  1  0
 51 52  1  0
 51 50  2  0
 53 64  2  0
 54 52  1  0
 54 59  1  0
 55 63  1  0
 55 65  1  0
 56 62  1  0
 56 58  1  0
 57 63  1  0
 58 57  1  0
 59 58  2  0
 60 54  2  0
 61 60  1  0
 61 56  2  0
 62 55  1  0
 63 53  1  0
 65 67  2  0
 66 65  1  0
 68 66  1  0
 69 78  2  0
 69 74  1  0
 70 66  1  0
 70 74  1  0
 71 70  1  0
 72 73  1  0
 72 71  1  0
 73 69  1  0
 74 75  2  0
 75 76  1  0
 77 76  2  0
 78 77  1  0
 79 53  1  0
 79 84  1  0
 79 80  1  0
 80 83  1  1
 80 81  1  0
 82 80  1  0
 84 87  1  0
 85 89  1  0
 85 84  1  0
 86 85  2  0
 89 88  1  0
 91 89  1  0
 91 92  1  0
 91 90  1  0
M  ISO  4  13 100  14 100  51 101  52 101
M  END
>  <TORSDO>  (5) 
F 20

>  <SCORE>  (5) 
-13.237

>  <name>  (5) 
4

>  <ligand_id>  (5) 
4

>  <original_smiles>  (5) 
[H]Oc1c([H])c(C([H])([H])C([H])([H])Oc2c([H])c([H])c3c(c2[H])C([H])([H])N(C(=O)C([H])(N([H])C(=O)C([H])(N([H])C([H])([H])[H])C([H])([H])[H])C(C([H])([H])[H])(C([H])([H])[H])C([H])([H])[H])C([H])(C(=O)N([H])C2([H])c4c([H])c([H])c([H])c([H])c4C([H])([H])C([H])([H])C2([H])[H])C3([H])[H])c2c([H])c([H])c([H])c([H])c2c1C([H])([H])C(=O)N1C([H])([H])C([H])([H])C([H])([H])C([H])(n2nc(-c3c([H])c([H])c(Oc4c([H])c([H])c(F)c([H])c4F)c([H])c3[H])c(C(=O)N([H])[H])c2N([H])[H])C1([H])[H]

>  <smiles>  (5) 
[H]Oc1c([H])c(C([H])([H])C([H])([H])Oc2c([H])c([H])c3c(c2[H])C([H])([H])N(C(=O)C([H])(N([H])C(=O)C([H])(N([H])C([H])([H])[H])C([H])([H])[H])C(C([H])([H])[H])(C([H])([H])[H])C([H])([H])[H])C([H])(C(=O)N([H])C2([H])c4c([H])c([H])c([H])c([H])c4C([H])([H])C([H])([H])C2([H])[H])C3([H])[H])c2c([H])c([H])c([H])c([H])c2c1C([H])([H])C(=O)N1C([H])([H])C([H])([H])C([H])([H])C([H])(n2nc(-c3c([H])c([H])c(Oc4c([H])c([H])c(F)c([H])c4F)c([H])c3[H])c(C(=O)N([H])[H])c2N([H])[H])C1([H])[H]

$$$$
5:0:0
     RDKit          3D

 91 94  0  0  1  0  0  0  0  0999 V2000
  -20.9060  -25.8750   22.2880 C   0  0  0  0  0  3  0  0  0  0  0  0
  -19.3400  -26.5860   20.9290 C   0  0  0  0  0  1  0  0  0  0  0  0
  -22.2460  -27.8090   21.7230 C   0  0  0  0  0  2  0  0  0  0  0  0
  -22.6780  -25.9780   22.1520 C   0  0  0  0  0  2  0  0  0  0  0  0
  -19.4070  -27.9360   20.2450 C   0  0  2  0  0  0  0  0  0  0  0  0
  -20.7960  -28.5600   20.4110 C   0  0  0  0  0  1  0  0  0  0  0  0
  -18.1160  -28.6710   19.7740 C   0  0  0  0  0  1  0  0  0  0  0  0
  -24.3840  -24.0490   22.1300 C   0  0  0  0  0  2  0  0  0  0  0  0
  -24.0190  -23.4790   23.1620 O   0  0  0  0  0  0  0  0  0  0  0  0
  -26.2730  -22.3960   21.5050 C   0  0  0  0  0 15  0  0  0  0  0  0
  -27.8460  -20.0840   21.3740 C   0  0  0  0  0 15  0  0  0  0  0  0
  -29.7270  -18.3420   20.9540 C   0  0  0  0  0  2  0  0  0  0  0  0
  -31.4570  -15.8220   20.0710 C   0  0  0  0  0  2  0  0  0  0  0  0
  -31.2590  -14.6190   18.9660 C   0  0  0  0  0  2  0  0  0  0  0  0
  -30.0850  -13.6960   19.2790 C   0  0  0  0  0  2  0  0  0  0  0  0
  -29.1440  -14.6240   20.0350 C   0  0  0  0  0  3  0  0  0  0  0  0
  -29.6900  -15.4100   21.2600 C   0  0  0  0  0  2  0  0  0  0  0  0
  -30.1880  -16.7280   20.7460 N   0  0  0  0  0  0  0  0  0  0  0  0
  -31.0250  -18.4910   20.7450 O   0  0  0  0  0  1  0  0  0  0  0  0
  -26.8480  -14.9340   20.7590 C   0  0  0  0  0  0  0  0  0  0  0  0
  -25.8520  -14.0800   21.0780 C   0  0  0  0  0  0  0  0  0  0  0  0
  -26.3790  -12.7620   20.9020 C   0  0  0  0  0  0  0  0  0  0  0  0
  -27.8920  -14.1190   20.4040 N   0  0  0  0  0  0  0  0  0  0  0  0
  -27.6590  -12.8000   20.5540 N   0  0  0  0  0  0  0  0  0  0  0  0
  -25.7100  -11.4700   20.9710 C   0  0  0  0  0  0  0  0  0  0  0  0
  -25.9940  -10.5390   21.9920 C   0  0  0  0  0  3  0  0  0  0  0  0
  -25.3040   -9.3110   22.0390 C   0  0  0  0  0  3  0  0  0  0  0  0
  -24.3230   -9.0120   21.0640 C   0  0  0  0  0  0  0  0  0  0  0  0
  -24.0680   -9.9350   20.0350 C   0  0  0  0  0  3  0  0  0  0  0  0
  -24.7590  -11.1530   19.9850 C   0  0  0  0  0  3  0  0  0  0  0  0
  -23.6150   -7.8380   21.0160 O   0  0  0  0  0  0  0  0  0  0  0  0
  -23.0460   -7.3000   22.1410 C   0  0  0  0  0  0  0  0  0  0  0  0
  -22.1770   -8.0460   22.9680 C   0  0  0  0  0  3  0  0  0  0  0  0
  -21.5610   -7.4290   24.0740 C   0  0  0  0  0  3  0  0  0  0  0  0
  -21.8030   -6.0700   24.3490 C   0  0  0  0  0  0  0  0  0  0  0  0
  -22.6650   -5.3260   23.5240 C   0  0  0  0  0  3  0  0  0  0  0  0
  -23.2830   -5.9400   22.4210 C   0  0  0  0  0  0  0  0  0  0  0  0
  -24.0970   -5.2150   21.6150 F   0  0  0  0  0  0  0  0  0  0  0  0
  -21.2050   -5.4740   25.4070 F   0  0  0  0  0  0  0  0  0  0  0  0
  -24.4620  -14.4940   21.4240 C   0  0  0  0  0  0  0  0  0  0  0  0
  -23.8000  -13.7370   22.2840 N   0  0  0  0  0  0  0  0  0  0  0  0
  -23.9840  -15.5340   20.9710 O   0  0  0  0  0  0  0  0  0  0  0  0
  -24.2120  -12.8990   22.6690 H   0  0  0  0  0  0  0  0  0  0  0  0
  -22.8650  -13.9970   22.5640 H   0  0  0  0  0  0  0  0  0  0  0  0
  -26.9610  -16.3260   20.7270 N   0  0  0  0  0  0  0  0  0  0  0  0
  -26.1520  -16.9200   20.8760 H   0  0  0  0  0  0  0  0  0  0  0  0
  -27.7370  -16.8080   20.2960 H   0  0  0  0  0  0  0  0  0  0  0  0
  -20.2950  -27.8000   18.6090 C   0  0  0  0  0  2  0  0  0  0  0  0
  -21.3070  -26.6550   17.4730 C   0  0  0  0  0  2  0  0  0  0  0  0
  -22.9870  -25.8560   17.4830 C   0  0  0  0  0  2  0  0  0  0  0  0
  -24.5610  -26.3070   17.8310 O   0  0  0  0  0  0  0  0  0  0  0  0
  -25.2590  -29.9840   22.6490 C   0  0  0  0  0  0  0  0  0  0  0  0
  -25.2500  -27.3580   17.2830 C   0  0  0  0  0  3  0  0  0  0  0  0
  -23.6460  -28.8350   21.2400 C   0  0  1  0  0  0  0  0  0  0  0  0
  -23.8010  -29.0390   18.7640 C   0  0  0  0  0  3  0  0  0  0  0  0
  -25.6330  -29.8340   20.1810 C   0  0  0  0  0  2  0  0  0  0  0  0
  -25.1580  -29.0070   19.0080 C   0  0  0  0  0  0  0  0  0  0  0  0
  -25.9490  -28.1590   18.2220 C   0  0  0  0  0  3  0  0  0  0  0  0
  -24.2040  -27.9430   16.6310 C   0  0  0  0  0  2  0  0  0  0  0  0
  -23.3570  -28.6950   17.4710 C   0  0  0  0  0  2  0  0  0  0  0  0
  -22.9980  -29.4900   19.9500 C   0  0  0  0  0  2  0  0  0  0  0  0
  -24.8560  -29.6030   21.4200 N   0  0  0  0  0  0  0  0  0  0  0  0
  -24.5730  -29.8420   23.6760 O   0  0  0  0  0  0  0  0  0  0  0  0
  -24.1240  -27.2770   21.1960 C   0  0  0  0  0  0  0  0  0  0  0  0
  -23.7620  -26.2130   20.2890 N   0  0  0  0  0  0  0  0  0  0  0  0
  -24.5720  -26.8440   22.2410 O   0  0  0  0  0  0  0  0  0  0  0  0
  -24.4990  -25.5300   20.3750 H   0  0  0  0  0  0  0  0  0  0  0  0
  -18.7450  -24.4680   21.6470 C   0  0  0  0  0  3  0  0  0  0  0  0
  -22.3120  -25.2970   19.8090 C   0  0  0  0  0  3  0  0  0  0  0  0
  -21.5120  -24.4020   18.3520 C   0  0  0  0  0  3  0  0  0  0  0  0
  -19.7300  -23.6020   18.5280 C   0  0  0  0  0  3  0  0  0  0  0  0
  -18.5910  -23.5520   20.1170 C   0  0  0  0  0  3  0  0  0  0  0  0
  -20.2070  -24.9740   22.1390 C   0  0  0  0  0  2  0  0  0  0  0  0
  -19.7610  -26.0970   23.1380 C   0  0  0  0  0  2  0  0  0  0  0  0
  -18.4750  -26.7610   23.3850 C   0  0  0  0  0  2  0  0  0  0  0  0
  -17.3050  -26.2990   22.7790 C   0  0  0  0  0  2  0  0  0  0  0  0
  -17.4830  -25.1670   21.9510 C   0  0  0  0  0  2  0  0  0  0  0  0
  -26.6620  -30.6030   22.7690 C   0  0  0  0  0  3  0  0  0  0  0  0
  -26.5530  -31.7320   23.6920 N   0  0  0  0  0  0  0  0  0  0  0  0
  -26.4580  -33.0090   23.3040 C   0  0  0  0  0  0  0  0  0  0  0  0
  -26.5170  -33.3570   22.1210 O   0  0  0  0  0  0  0  0  0  0  0  0
  -26.4430  -31.5130   24.6710 H   0  0  0  0  0  0  0  0  0  0  0  0
  -24.8300  -34.5420   24.4490 C   0  0  0  0  0  1  0  0  0  0  0  0
  -26.2900  -34.0670   24.4080 C   0  0  0  0  0  3  0  0  0  0  0  0
  -28.6000  -34.8960   24.4510 C   0  0  0  0  0  1  0  0  0  0  0  0
  -27.1930  -35.2280   24.2450 N   0  0  0  0  0  0  0  0  0  0  0  0
  -26.9450  -35.9690   24.8940 H   0  0  0  0  0  0  0  0  0  0  0  0
  -27.7310  -29.5510   23.2460 C   0  0  1  0  0  0  0  0  0  0  0  0
  -27.3160  -28.7770   24.5170 C   0  0  0  0  0  1  0  0  0  0  0  0
  -28.0720  -28.5030   22.1580 C   0  0  0  0  0  1  0  0  0  0  0  0
  -29.0540  -30.2900   23.5260 C   0  0  0  0  0  1  0  0  0  0  0  0
  1 73  1  0
  1 74  1  0
  3  4  1  0
  4  1  1  0
  5  6  1  1
  5  2  1  0
  7  5  1  0
  8  9  2  0
 13 18  1  0
 14 15  1  0
 14 13  1  0
 16 15  1  0
 16 23  1  0
 16 17  1  0
 18 12  1  0
 18 17  1  0
 19 12  1  0
 20 21  2  0
 21 40  1  0
 22 25  1  0
 22 21  1  0
 23 24  1  0
 23 20  1  0
 24 22  2  0
 25 26  1  0
 26 27  2  0
 28 27  1  0
 29 28  2  0
 30 29  1  0
 30 25  2  0
 31 28  1  0
 31 32  1  0
 32 37  2  0
 32 33  1  0
 33 34  2  0
 34 35  1  0
 35 39  1  0
 36 35  2  0
 37 36  1  0
 38 37  1  0
 40 41  1  0
 41 44  1  0
 41 43  1  0
 42 40  2  0
 45 20  1  0
 45 46  1  0
 47 45  1  0
 48  5  1  0
 49 50  1  0
 49 48  1  0
 50 51  1  0
 52 63  2  0
 53 51  1  0
 53 58  1  0
 54 61  1  6
 54 62  1  0
 54  3  1  0
 55 60  1  0
 55 57  1  0
 55 61  1  0
 56 62  1  0
 57 56  1  0
 58 57  2  0
 59 53  1  0
 59 60  1  0
 62 52  1  0
 64 54  1  0
 64 66  2  0
 65 67  1  0
 65 64  1  0
 68 72  1  0
 68 77  1  0
 68 73  1  0
 69 65  1  0
 70 71  1  0
 70 69  2  0
 71 72  2  0
 74 75  1  0
 76 75  1  0
 77 76  1  0
 78 52  1  0
 78 88  1  0
 78 79  1  0
 79 82  1  0
 80 79  1  0
 80 84  1  0
 81 80  2  0
 84 83  1  0
 86 84  1  0
 86 85  1  0
 86 87  1  0
 88 91  1  1
 88 89  1  0
 90 88  1  0
M  ISO  4  11 100  12 100  50 101  51 101
M  END
>  <TORSDO>  (6) 
F 22

>  <SCORE>  (6) 
-1.376

>  <name>  (6) 
5

>  <ligand_id>  (6) 
5

>  <original_smiles>  (6) 
[H]c1c([H])c([H])c2c(c1[H])C([H])([H])C([H])([H])C([H])([H])C2([H])N([H])C(=O)C1([H])N(C(=O)C([H])(N([H])C(=O)C([H])(N([H])C([H])([H])[H])C([H])([H])[H])C(C([H])([H])[H])(C([H])([H])[H])C([H])([H])[H])C([H])([H])c2c([H])c(OC([H])([H])C([H])([H])C([H])([H])c3c([H])c(C(=O)C([H])([H])C([H])([H])C(=O)N4C([H])([H])C([H])([H])C([H])([H])C([H])(n5nc(-c6c([H])c([H])c(Oc7c([H])c([H])c(F)c([H])c7F)c([H])c6[H])c(C(=O)N([H])[H])c5N([H])[H])C4([H])[H])c([H])c([H])c3C([H])([H])[H])c([H])c([H])c2C1([H])[H]

>  <smiles>  (6) 
[H]c1c([H])c([H])c2c(c1[H])C([H])([H])C([H])([H])C([H])([H])C2([H])N([H])C(=O)C1([H])N(C(=O)C([H])(N([H])C(=O)C([H])(N([H])C([H])([H])[H])C([H])([H])[H])C(C([H])([H])[H])(C([H])([H])[H])C([H])([H])[H])C([H])([H])c2c([H])c(OC([H])([H])C([H])([H])C([H])([H])c3c([H])c(C(=O)C([H])([H])C([H])([H])C(=O)N4C([H])([H])C([H])([H])C([H])([H])C([H])(n5nc(-c6c([H])c([H])c(Oc7c([H])c([H])c(F)c([H])c7F)c([H])c6[H])c(C(=O)N([H])[H])c5N([H])[H])C4([H])[H])c([H])c([H])c3C([H])([H])[H])c([H])c([H])c2C1([H])[H]

$$$$
6:0:0
     RDKit          3D

 93101  0  0  1  0  0  0  0  0999 V2000
  -30.8340  -23.3390   21.2000 C   0  0  0  0  0  0  0  0  0  0  0  0
  -29.9860  -24.3360   20.8980 N   0  0  0  0  0  0  0  0  0  0  0  0
  -31.8840  -23.6100   21.7860 O   0  0  0  0  0  0  0  0  0  0  0  0
  -30.3330  -25.2500   21.1520 H   0  0  0  0  0  0  0  0  0  0  0  0
  -30.9160  -20.8970   21.8170 C   0  0  0  0  0  3  0  0  0  0  0  0
  -30.0560  -21.4640   19.6250 C   0  0  0  0  0  3  0  0  0  0  0  0
  -30.8140  -19.5250   21.5100 C   0  0  0  0  0  3  0  0  0  0  0  0
  -29.9250  -20.0910   19.3270 C   0  0  0  0  0  3  0  0  0  0  0  0
  -30.5410  -21.8890   20.8840 C   0  0  0  0  0  0  0  0  0  0  0  0
  -30.3160  -19.0960   20.2580 C   0  0  0  0  0  0  0  0  0  0  0  0
  -29.4400  -17.2620   18.6690 C   0  0  0  0  0  1  0  0  0  0  0  0
  -30.2840  -17.5900   19.9190 C   0  0  0  0  0  3  0  0  0  0  0  0
  -30.0260  -15.3810   21.2940 C   0  0  0  0  0  3  0  0  0  0  0  0
  -29.8730  -16.7140   21.1050 C   0  0  0  0  0  3  0  0  0  0  0  0
  -30.6380  -14.4540   20.3450 C   0  0  0  0  0  0  0  0  0  0  0  0
  -30.2810  -12.3740   19.0490 C   0  0  0  0  0  2  0  0  0  0  0  0
  -29.2970  -12.6410   17.8920 C   0  0  0  0  0  2  0  0  0  0  0  0
  -27.8350  -12.4950   18.3610 C   0  0  0  0  0  2  0  0  0  0  0  0
  -27.5510  -13.2730   19.6700 C   0  0  0  0  0  3  0  0  0  0  0  0
  -28.6310  -12.9520   20.7230 C   0  0  0  0  0  2  0  0  0  0  0  0
  -29.9500  -13.2910   20.1520 N   0  0  0  0  0  0  0  0  0  0  0  0
  -31.6880  -14.7010   19.7420 O   0  0  0  0  0  0  0  0  0  0  0  0
  -25.1700  -13.8840   20.4390 C   0  0  0  0  0  0  0  0  0  0  0  0
  -24.1110  -13.1120   20.8370 C   0  0  0  0  0  0  0  0  0  0  0  0
  -24.5710  -11.7610   20.7920 C   0  0  0  0  0  0  0  0  0  0  0  0
  -26.2080  -13.0010   20.1790 N   0  0  0  0  0  0  0  0  0  0  0  0
  -25.8510  -11.7190   20.4460 N   0  0  0  0  0  0  0  0  0  0  0  0
  -23.8530  -10.4990   21.0030 C   0  0  0  0  0  0  0  0  0  0  0  0
  -24.3190   -9.5240   21.9140 C   0  0  0  0  0  3  0  0  0  0  0  0
  -23.6020   -8.3240   22.1070 C   0  0  0  0  0  3  0  0  0  0  0  0
  -22.4020   -8.0910   21.3920 C   0  0  0  0  0  0  0  0  0  0  0  0
  -21.9550   -9.0530   20.4700 C   0  0  0  0  0  3  0  0  0  0  0  0
  -22.6730  -10.2440   20.2730 C   0  0  0  0  0  3  0  0  0  0  0  0
  -21.6510   -6.9450   21.5020 O   0  0  0  0  0  0  0  0  0  0  0  0
  -21.6540   -6.1880   22.6460 C   0  0  0  0  0  0  0  0  0  0  0  0
  -21.2860   -6.7260   23.8980 C   0  0  0  0  0  3  0  0  0  0  0  0
  -21.2340   -5.8950   25.0360 C   0  0  0  0  0  3  0  0  0  0  0  0
  -21.5420   -4.5260   24.9220 C   0  0  0  0  0  0  0  0  0  0  0  0
  -21.9060   -3.9870   23.6750 C   0  0  0  0  0  3  0  0  0  0  0  0
  -21.9600   -4.8150   22.5410 C   0  0  0  0  0  0  0  0  0  0  0  0
  -22.2900   -4.2860   21.3380 F   0  0  0  0  0  0  0  0  0  0  0  0
  -21.4860   -3.7250   26.0120 F   0  0  0  0  0  0  0  0  0  0  0  0
  -22.7210  -13.5880   21.1510 C   0  0  0  0  0  0  0  0  0  0  0  0
  -22.0140  -12.8900   22.0320 N   0  0  0  0  0  0  0  0  0  0  0  0
  -22.2700  -14.6150   20.6450 O   0  0  0  0  0  0  0  0  0  0  0  0
  -22.3870  -12.0600   22.4680 H   0  0  0  0  0  0  0  0  0  0  0  0
  -21.0810  -13.1930   22.2770 H   0  0  0  0  0  0  0  0  0  0  0  0
  -25.3340  -15.2540   20.2600 N   0  0  0  0  0  0  0  0  0  0  0  0
  -24.5770  -15.9160   20.3930 H   0  0  0  0  0  0  0  0  0  0  0  0
  -26.1860  -15.6910   19.9340 H   0  0  0  0  0  0  0  0  0  0  0  0
  -28.6450  -24.3650   20.3140 C   0  0  0  0  0  2  0  0  0  0  0  0
  -28.5270  -25.5790   19.3670 C   0  0  0  0  0  2  0  0  0  0  0  0
  -28.3540  -26.7990   20.1020 O   0  0  0  0  0  0  0  0  0  0  0  0
  -24.5320  -31.9160   23.2340 C   0  0  0  0  0  0  0  0  0  0  0  0
  -27.1410  -27.4630   20.1210 C   0  0  0  0  0  0  0  0  0  0  0  0
  -23.3050  -30.5220   21.5990 C   0  0  0  0  0  3  0  0  0  0  0  0
  -24.7400  -28.9730   20.1690 C   0  0  0  0  0  0  0  0  0  0  0  0
  -25.8270  -30.8710   21.3750 C   0  0  0  0  0  2  0  0  0  0  0  0
  -25.9030  -29.4940   20.7450 C   0  0  0  0  0  0  0  0  0  0  0  0
  -27.0990  -28.7420   20.7240 C   0  0  0  0  0  3  0  0  0  0  0  0
  -25.9440  -26.9450   19.5670 C   0  0  0  0  0  3  0  0  0  0  0  0
  -24.7540  -27.6960   19.5830 C   0  0  0  0  0  3  0  0  0  0  0  0
  -23.5020  -29.8370   20.2200 C   0  0  0  0  0  2  0  0  0  0  0  0
  -24.5750  -31.1160   22.1300 N   0  0  0  0  0  0  0  0  0  0  0  0
  -23.4560  -32.1950   23.7810 O   0  0  0  0  0  0  0  0  0  0  0  0
  -22.6550  -29.5050   22.5640 C   0  0  0  0  0  0  0  0  0  0  0  0
  -21.3310  -29.3240   22.4350 N   0  0  0  0  0  0  0  0  0  0  0  0
  -23.3390  -28.8790   23.3790 O   0  0  0  0  0  0  0  0  0  0  0  0
  -20.8440  -29.8840   21.7510 H   0  0  0  0  0  0  0  0  0  0  0  0
  -17.9570  -28.1230   22.9060 C   0  0  0  0  0  0  0  0  0  0  0  0
  -20.5110  -28.3870   23.2040 C   0  0  0  0  0  3  0  0  0  0  0  0
  -20.6210  -26.9540   22.6380 C   0  0  0  0  0  2  0  0  0  0  0  0
  -19.5310  -26.6210   21.6150 C   0  0  0  0  0  2  0  0  0  0  0  0
  -18.1430  -26.7690   22.2440 C   0  0  0  0  0  2  0  0  0  0  0  0
  -19.0680  -28.8900   23.3430 C   0  0  0  0  0  0  0  0  0  0  0  0
  -18.8420  -30.1580   23.9210 C   0  0  0  0  0  3  0  0  0  0  0  0
  -17.5360  -30.6590   24.0700 C   0  0  0  0  0  3  0  0  0  0  0  0
  -16.4370  -29.8880   23.6510 C   0  0  0  0  0  3  0  0  0  0  0  0
  -16.6480  -28.6220   23.0750 C   0  0  0  0  0  3  0  0  0  0  0  0
  -25.8260  -32.5340   23.8490 C   0  0  0  0  0  3  0  0  0  0  0  0
  -25.5360  -33.9360   24.1760 N   0  0  0  0  0  0  0  0  0  0  0  0
  -25.8870  -34.9810   23.4140 C   0  0  0  0  0  0  0  0  0  0  0  0
  -26.5600  -34.8650   22.3860 O   0  0  0  0  0  0  0  0  0  0  0  0
  -24.9350  -34.1010   24.9720 H   0  0  0  0  0  0  0  0  0  0  0  0
  -24.1900  -36.8000   23.0360 C   0  0  0  0  0  1  0  0  0  0  0  0
  -25.4140  -36.3770   23.8630 C   0  0  0  0  0  3  0  0  0  0  0  0
  -27.5520  -37.2340   24.7140 C   0  0  0  0  0  1  0  0  0  0  0  0
  -26.4630  -37.4160   23.7590 N   0  0  0  0  0  0  0  0  0  0  0  0
  -26.0680  -38.3410   23.9050 H   0  0  0  0  0  0  0  0  0  0  0  0
  -26.3430  -31.7550   25.1210 C   0  0  1  0  0  0  0  0  0  0  0  0
  -25.2550  -31.5290   26.1970 C   0  0  0  0  0  1  0  0  0  0  0  0
  -26.9080  -30.3740   24.7150 C   0  0  0  0  0  1  0  0  0  0  0  0
  -27.5080  -32.5310   25.7760 C   0  0  0  0  0  1  0  0  0  0  0  0
  1  3  2  0
  2  4  1  0
  2  1  1  0
  6  9  1  0
  7  5  1  0
  8  6  2  0
  8 10  1  0
  9  1  1  0
  9  5  2  0
 10  7  2  0
 12 11  1  0
 12 10  1  0
 12 14  1  0
 14 13  2  0
 15 13  1  0
 16 21  1  0
 17 18  1  0
 17 16  1  0
 19 18  1  0
 19 26  1  0
 19 20  1  0
 21 15  1  0
 21 20  1  0
 22 15  2  0
 23 24  2  0
 24 43  1  0
 25 24  1  0
 25 28  1  0
 26 23  1  0
 26 27  1  0
 27 25  2  0
 28 29  1  0
 29 30  2  0
 31 34  1  0
 31 30  1  0
 32 31  2  0
 33 32  1  0
 33 28  2  0
 34 35  1  0
 35 36  1  0
 36 37  2  0
 38 37  1  0
 38 42  1  0
 39 38  2  0
 40 35  2  0
 40 39  1  0
 41 40  1  0
 43 44  1  0
 44 47  1  0
 44 46  1  0
 45 43  2  0
 48 49  1  0
 48 23  1  0
 50 48  1  0
 51  2  1  0
 52 53  1  0
 52 51  1  0
 53 55  1  0
 54 65  2  0
 55 60  1  0
 56 64  1  0
 56 66  1  0
 57 63  1  0
 57 59  1  0
 58 64  1  0
 59 58  1  0
 60 59  2  0
 61 62  1  0
 61 55  2  0
 62 57  2  0
 63 56  1  0
 64 54  1  0
 66 68  2  0
 67 66  1  0
 69 67  1  0
 70 79  2  0
 70 75  1  0
 71 67  1  0
 71 75  1  0
 72 71  1  0
 73 74  1  0
 73 72  1  0
 74 70  1  0
 75 76  2  0
 76 77  1  0
 78 77  2  0
 79 78  1  0
 80 54  1  0
 80 81  1  0
 80 90  1  0
 81 84  1  0
 82 86  1  0
 82 81  1  0
 83 82  2  0
 86 85  1  0
 88 86  1  0
 88 89  1  0
 88 87  1  0
 90 93  1  1
 90 91  1  0
 92 90  1  0
M  ISO  4  13 100  15 100  52 101  53 101
M  END
>  <TORSDO>  (7) 
F 21

>  <SCORE>  (7) 
-12.764

>  <name>  (7) 
6

>  <ligand_id>  (7) 
6

>  <original_smiles>  (7) 
[H]C(C(=O)N1C([H])([H])C([H])([H])C([H])([H])C([H])(n2nc(-c3c([H])c([H])c(Oc4c([H])c([H])c(F)c([H])c4F)c([H])c3[H])c(C(=O)N([H])[H])c2N([H])[H])C1([H])[H])=C([H])C([H])(c1c([H])c([H])c(C(=O)N([H])C([H])([H])C([H])([H])Oc2c([H])c([H])c3c(c2[H])C([H])([H])N(C(=O)C([H])(N([H])C(=O)C([H])(N([H])C([H])([H])[H])C([H])([H])[H])C(C([H])([H])[H])(C([H])([H])[H])C([H])([H])[H])C([H])(C(=O)N([H])C2([H])c4c([H])c([H])c([H])c([H])c4C([H])([H])C([H])([H])C2([H])[H])C3([H])[H])c([H])c1[H])C([H])([H])[H]

>  <smiles>  (7) 
[H]C(C(=O)N1C([H])([H])C([H])([H])C([H])([H])C([H])(n2nc(-c3c([H])c([H])c(Oc4c([H])c([H])c(F)c([H])c4F)c([H])c3[H])c(C(=O)N([H])[H])c2N([H])[H])C1([H])[H])=C([H])C([H])(c1c([H])c([H])c(C(=O)N([H])C([H])([H])C([H])([H])Oc2c([H])c([H])c3c(c2[H])C([H])([H])N(C(=O)C([H])(N([H])C(=O)C([H])(N([H])C([H])([H])[H])C([H])([H])[H])C(C([H])([H])[H])(C([H])([H])[H])C([H])([H])[H])C([H])(C(=O)N([H])C2([H])c4c([H])c([H])c([H])c([H])c4C([H])([H])C([H])([H])C2([H])[H])C3([H])[H])c([H])c1[H])C([H])([H])[H]

$$$$
7:0:0
     RDKit          3D

 87 94  0  0  1  0  0  0  0  0999 V2000
  -28.9120  -22.4720   20.7710 C   0  0  0  0  0  3  0  0  0  0  0  0
  -28.9680  -23.9120   20.0640 C   0  0  0  0  0  3  0  0  0  0  0  0
  -28.2070  -25.1350   20.7500 C   0  0  0  0  0  3  0  0  0  0  0  0
  -28.3550  -26.5070   20.2050 O   0  0  0  0  0  0  0  0  0  0  0  0
  -24.5990  -31.8800   23.2360 C   0  0  0  0  0  0  0  0  0  0  0  0
  -27.2240  -27.3360   20.1970 C   0  0  0  0  0  0  0  0  0  0  0  0
  -23.3930  -30.4740   21.6040 C   0  0  0  0  0  3  0  0  0  0  0  0
  -24.8460  -28.9220   20.1790 C   0  0  0  0  0  0  0  0  0  0  0  0
  -25.9280  -30.8090   21.4050 C   0  0  0  0  0  2  0  0  0  0  0  0
  -26.0140  -29.4290   20.7640 C   0  0  0  0  0  0  0  0  0  0  0  0
  -27.2080  -28.6500   20.7560 C   0  0  0  0  0  3  0  0  0  0  0  0
  -26.0360  -26.8750   19.5890 C   0  0  0  0  0  3  0  0  0  0  0  0
  -24.8610  -27.6510   19.5810 C   0  0  0  0  0  3  0  0  0  0  0  0
  -23.6020  -29.7890   20.2270 C   0  0  0  0  0  2  0  0  0  0  0  0
  -24.6590  -31.0720   22.1380 N   0  0  0  0  0  0  0  0  0  0  0  0
  -23.5180  -32.1530   23.7760 O   0  0  0  0  0  0  0  0  0  0  0  0
  -22.7360  -29.4600   22.5690 C   0  0  0  0  0  0  0  0  0  0  0  0
  -21.4100  -29.2760   22.4450 N   0  0  0  0  0  0  0  0  0  0  0  0
  -23.4200  -28.8390   23.3880 O   0  0  0  0  0  0  0  0  0  0  0  0
  -20.9190  -29.8260   21.7540 H   0  0  0  0  0  0  0  0  0  0  0  0
  -18.0370  -28.0740   22.9470 C   0  0  0  0  0  0  0  0  0  0  0  0
  -20.5940  -28.3400   23.2190 C   0  0  0  0  0  3  0  0  0  0  0  0
  -20.7010  -26.9060   22.6480 C   0  0  0  0  0  2  0  0  0  0  0  0
  -19.5990  -26.5790   21.6350 C   0  0  0  0  0  2  0  0  0  0  0  0
  -18.2170  -26.7240   22.2770 C   0  0  0  0  0  2  0  0  0  0  0  0
  -19.1530  -28.8420   23.3750 C   0  0  0  0  0  0  0  0  0  0  0  0
  -18.9290  -30.1080   23.9600 C   0  0  0  0  0  3  0  0  0  0  0  0
  -17.6230  -30.6040   24.1240 C   0  0  0  0  0  3  0  0  0  0  0  0
  -16.5220  -29.8330   23.7140 C   0  0  0  0  0  3  0  0  0  0  0  0
  -16.7300  -28.5720   23.1300 C   0  0  0  0  0  3  0  0  0  0  0  0
  -25.8840  -32.5150   23.8530 C   0  0  0  0  0  3  0  0  0  0  0  0
  -25.5750  -33.9150   24.1760 N   0  0  0  0  0  0  0  0  0  0  0  0
  -25.9100  -34.9650   23.4120 C   0  0  0  0  0  0  0  0  0  0  0  0
  -26.5790  -34.8550   22.3810 O   0  0  0  0  0  0  0  0  0  0  0  0
  -24.9840  -34.0730   24.9780 H   0  0  0  0  0  0  0  0  0  0  0  0
  -24.1840  -36.7580   23.0480 C   0  0  0  0  0  1  0  0  0  0  0  0
  -25.4240  -36.3550   23.8630 C   0  0  0  0  0  3  0  0  0  0  0  0
  -27.5600  -37.2410   24.6900 C   0  0  0  0  0  1  0  0  0  0  0  0
  -26.4580  -37.4070   23.7450 N   0  0  0  0  0  0  0  0  0  0  0  0
  -26.0520  -38.3280   23.8880 H   0  0  0  0  0  0  0  0  0  0  0  0
  -26.3990  -31.7510   25.1350 C   0  0  1  0  0  0  0  0  0  0  0  0
  -25.3060  -31.5250   26.2050 C   0  0  0  0  0  1  0  0  0  0  0  0
  -26.9780  -30.3700   24.7520 C   0  0  0  0  0  1  0  0  0  0  0  0
  -27.5510  -32.5480   25.7910 C   0  0  0  0  0  1  0  0  0  0  0  0
  -29.5290  -21.2210   19.9890 C   0  0  0  0  0  3  0  0  0  0  0  0
  -29.6960  -18.6430   20.1980 C   0  0  0  0  0  0  0  0  0  0  0  0
  -29.7630  -19.9140   20.7180 N   0  0  0  0  0  0  0  0  0  0  0  0
  -29.1210  -18.4390   19.1280 O   0  0  0  0  0  0  0  0  0  0  0  0
  -30.2150  -19.9930   21.6190 H   0  0  0  0  0  0  0  0  0  0  0  0
  -30.4220  -17.4200   20.8900 C   0  0  0  0  0  2  0  0  0  0  0  0
  -29.7440  -15.9650   20.8490 C   0  0  0  0  0  2  0  0  0  0  0  0
  -30.5640  -14.6830   20.3910 C   0  0  0  0  0  0  0  0  0  0  0  0
  -30.3620  -12.4500   19.2930 C   0  0  0  0  0  2  0  0  0  0  0  0
  -29.4080  -12.5810   18.0860 C   0  0  0  0  0  2  0  0  0  0  0  0
  -27.9370  -12.4100   18.5200 C   0  0  0  0  0  2  0  0  0  0  0  0
  -27.5830  -13.2640   19.7640 C   0  0  0  0  0  3  0  0  0  0  0  0
  -28.6500  -13.1080   20.8700 C   0  0  0  0  0  2  0  0  0  0  0  0
  -29.9550  -13.4560   20.2960 N   0  0  0  0  0  0  0  0  0  0  0  0
  -31.7190  -14.8320   19.9790 O   0  0  0  0  0  0  0  0  0  0  0  0
  -25.1940  -13.8580   20.5040 C   0  0  0  0  0  0  0  0  0  0  0  0
  -24.1320  -13.0830   20.8790 C   0  0  0  0  0  0  0  0  0  0  0  0
  -24.5950  -11.7310   20.8440 C   0  0  0  0  0  0  0  0  0  0  0  0
  -26.2380  -12.9780   20.2590 N   0  0  0  0  0  0  0  0  0  0  0  0
  -25.8840  -11.6940   20.5260 N   0  0  0  0  0  0  0  0  0  0  0  0
  -23.8740  -10.4680   21.0360 C   0  0  0  0  0  0  0  0  0  0  0  0
  -24.3220   -9.4970   21.9560 C   0  0  0  0  0  3  0  0  0  0  0  0
  -23.6030   -8.2960   22.1390 C   0  0  0  0  0  3  0  0  0  0  0  0
  -22.4190   -8.0600   21.4000 C   0  0  0  0  0  0  0  0  0  0  0  0
  -21.9890   -9.0210   20.4680 C   0  0  0  0  0  3  0  0  0  0  0  0
  -22.7090  -10.2130   20.2850 C   0  0  0  0  0  3  0  0  0  0  0  0
  -21.6690   -6.9120   21.4910 O   0  0  0  0  0  0  0  0  0  0  0  0
  -21.6470   -6.1560   22.6340 C   0  0  0  0  0  0  0  0  0  0  0  0
  -21.2550   -6.6950   23.8790 C   0  0  0  0  0  3  0  0  0  0  0  0
  -21.1840   -5.8650   25.0150 C   0  0  0  0  0  3  0  0  0  0  0  0
  -21.4920   -4.4960   24.9090 C   0  0  0  0  0  0  0  0  0  0  0  0
  -21.8760   -3.9550   23.6680 C   0  0  0  0  0  3  0  0  0  0  0  0
  -21.9510   -4.7820   22.5340 C   0  0  0  0  0  0  0  0  0  0  0  0
  -22.3030   -4.2530   21.3370 F   0  0  0  0  0  0  0  0  0  0  0  0
  -21.4140   -3.6950   25.9970 F   0  0  0  0  0  0  0  0  0  0  0  0
  -22.7350  -13.5570   21.1590 C   0  0  0  0  0  0  0  0  0  0  0  0
  -22.0120  -12.8590   22.0280 N   0  0  0  0  0  0  0  0  0  0  0  0
  -22.2930  -14.5810   20.6420 O   0  0  0  0  0  0  0  0  0  0  0  0
  -22.3820  -12.0340   22.4760 H   0  0  0  0  0  0  0  0  0  0  0  0
  -21.0740  -13.1590   22.2520 H   0  0  0  0  0  0  0  0  0  0  0  0
  -25.3550  -15.2300   20.3310 N   0  0  0  0  0  0  0  0  0  0  0  0
  -24.5910  -15.8850   20.4600 H   0  0  0  0  0  0  0  0  0  0  0  0
  -26.2060  -15.6750   20.0100 H   0  0  0  0  0  0  0  0  0  0  0  0
  2  3  2  0
  2  1  1  0
  4  3  1  0
  5 16  2  0
  6  4  1  0
  6 11  1  0
  7 15  1  0
  7 17  1  0
  8 14  1  0
  8 10  1  0
  9 15  1  0
 10  9  1  0
 11 10  2  0
 12  6  2  0
 13 12  1  0
 13  8  2  0
 14  7  1  0
 15  5  1  0
 17 19  2  0
 18 17  1  0
 20 18  1  0
 21 30  2  0
 21 26  1  0
 22 18  1  0
 22 26  1  0
 23 22  1  0
 24 25  1  0
 24 23  1  0
 25 21  1  0
 26 27  2  0
 27 28  1  0
 29 28  2  0
 30 29  1  0
 31  5  1  0
 31 32  1  0
 31 41  1  0
 32 35  1  0
 33 37  1  0
 33 32  1  0
 34 33  2  0
 37 36  1  0
 39 37  1  0
 39 40  1  0
 39 38  1  0
 41 44  1  1
 41 42  1  0
 43 41  1  0
 45 47  1  0
 45  1  2  0
 46 47  1  0
 46 50  1  0
 47 49  1  0
 48 46  2  0
 51 50  1  0
 52 51  1  0
 53 58  1  0
 54 55  1  0
 54 53  1  0
 56 55  1  0
 56 63  1  0
 56 57  1  0
 58 52  1  0
 58 57  1  0
 59 52  2  0
 60 61  2  0
 61 80  1  0
 62 61  1  0
 62 65  1  0
 63 60  1  0
 63 64  1  0
 64 62  2  0
 65 66  1  0
 66 67  2  0
 68 71  1  0
 68 67  1  0
 69 68  2  0
 70 69  1  0
 70 65  2  0
 71 72  1  0
 72 73  1  0
 73 74  2  0
 75 74  1  0
 75 79  1  0
 76 75  2  0
 77 72  2  0
 77 76  1  0
 78 77  1  0
 80 81  1  0
 81 84  1  0
 81 83  1  0
 82 80  2  0
 85 86  1  0
 85 60  1  0
 87 85  1  0
M  ISO  4   3 101   4 101  51 100  52 100
M  END
>  <TORSDO>  (8) 
F 22

>  <SCORE>  (8) 
-13.004

>  <name>  (8) 
7

>  <ligand_id>  (8) 
7

>  <original_smiles>  (8) 
[H]c1c([H])c([H])c2c(c1[H])C([H])([H])C([H])([H])C([H])([H])C2([H])N([H])C(=O)C1([H])N(C(=O)C([H])(N([H])C(=O)C([H])(N([H])C([H])([H])[H])C([H])([H])[H])C(C([H])([H])[H])(C([H])([H])[H])C([H])([H])[H])C([H])([H])c2c([H])c(OC([H])([H])C([H])([H])C([H])([H])C([H])([H])N([H])C(=O)C([H])([H])C([H])([H])C(=O)N3C([H])([H])C([H])([H])C([H])([H])C([H])(n4nc(-c5c([H])c([H])c(Oc6c([H])c([H])c(F)c([H])c6F)c([H])c5[H])c(C(=O)N([H])[H])c4N([H])[H])C3([H])[H])c([H])c([H])c2C1([H])[H]

>  <smiles>  (8) 
[H]c1c([H])c([H])c2c(c1[H])C([H])([H])C([H])([H])C([H])([H])C2([H])N([H])C(=O)C1([H])N(C(=O)C([H])(N([H])C(=O)C([H])(N([H])C([H])([H])[H])C([H])([H])[H])C(C([H])([H])[H])(C([H])([H])[H])C([H])([H])[H])C([H])([H])c2c([H])c(OC([H])([H])C([H])([H])C([H])([H])C([H])([H])N([H])C(=O)C([H])([H])C([H])([H])C(=O)N3C([H])([H])C([H])([H])C([H])([H])C([H])(n4nc(-c5c([H])c([H])c(Oc6c([H])c([H])c(F)c([H])c6F)c([H])c5[H])c(C(=O)N([H])[H])c4N([H])[H])C3([H])[H])c([H])c([H])c2C1([H])[H]

$$$$
8:0:0
     RDKit          3D

 92100  0  0  1  0  0  0  0  0999 V2000
  -30.2020  -23.3870   19.9290 C   0  0  0  0  0  3  0  0  0  0  0  0
  -30.4100  -22.0570   19.4790 C   0  0  0  0  0  3  0  0  0  0  0  0
  -28.5690  -22.5700   21.5110 C   0  0  0  0  0  3  0  0  0  0  0  0
  -29.2840  -23.6580   20.9670 C   0  0  0  0  0  0  0  0  0  0  0  0
  -29.6950  -20.9600   20.0290 C   0  0  0  0  0  0  0  0  0  0  0  0
  -28.7440  -21.2410   21.0450 C   0  0  0  0  0  0  0  0  0  0  0  0
  -27.8930  -20.1460   21.6690 C   0  0  0  0  0  1  0  0  0  0  0  0
  -29.1810  -24.9810   21.6350 C   0  0  0  0  0  3  0  0  0  0  0  0
  -28.7830  -26.2150   21.2320 C   0  0  0  0  0  3  0  0  0  0  0  0
  -28.2970  -26.5940   20.0030 O   0  0  0  0  0  0  0  0  0  0  0  0
  -24.3870  -31.7350   23.1110 C   0  0  0  0  0  0  0  0  0  0  0  0
  -27.1620  -27.3850   20.0050 C   0  0  0  0  0  0  0  0  0  0  0  0
  -23.2260  -30.3250   21.4430 C   0  0  0  0  0  3  0  0  0  0  0  0
  -24.7300  -28.8400   20.0060 C   0  0  0  0  0  0  0  0  0  0  0  0
  -25.7410  -30.7490   21.2610 C   0  0  0  0  0  2  0  0  0  0  0  0
  -25.8690  -29.3850   20.6120 C   0  0  0  0  0  0  0  0  0  0  0  0
  -27.0890  -28.6650   20.6130 C   0  0  0  0  0  3  0  0  0  0  0  0
  -26.0120  -26.8680   19.3790 C   0  0  0  0  0  3  0  0  0  0  0  0
  -24.7960  -27.5800   19.3820 C   0  0  0  0  0  3  0  0  0  0  0  0
  -23.4620  -29.6640   20.0560 C   0  0  0  0  0  2  0  0  0  0  0  0
  -24.4700  -30.9510   21.9980 N   0  0  0  0  0  0  0  0  0  0  0  0
  -23.2960  -31.9740   23.6480 O   0  0  0  0  0  0  0  0  0  0  0  0
  -22.5930  -29.2770   22.3890 C   0  0  0  0  0  0  0  0  0  0  0  0
  -21.2700  -29.0800   22.2650 N   0  0  0  0  0  0  0  0  0  0  0  0
  -23.2890  -28.6450   23.1880 O   0  0  0  0  0  0  0  0  0  0  0  0
  -20.7670  -29.6430   21.5930 H   0  0  0  0  0  0  0  0  0  0  0  0
  -17.9090  -27.8550   22.7830 C   0  0  0  0  0  0  0  0  0  0  0  0
  -20.4710  -28.1160   23.0210 C   0  0  0  0  0  3  0  0  0  0  0  0
  -20.5680  -26.7030   22.4000 C   0  0  0  0  0  2  0  0  0  0  0  0
  -19.4510  -26.4080   21.3940 C   0  0  0  0  0  2  0  0  0  0  0  0
  -18.0800  -26.5280   22.0650 C   0  0  0  0  0  2  0  0  0  0  0  0
  -19.0330  -28.6090   23.2170 C   0  0  0  0  0  0  0  0  0  0  0  0
  -18.8190  -29.8550   23.8460 C   0  0  0  0  0  3  0  0  0  0  0  0
  -17.5150  -30.3440   24.0490 C   0  0  0  0  0  3  0  0  0  0  0  0
  -16.4060  -29.5850   23.6340 C   0  0  0  0  0  3  0  0  0  0  0  0
  -16.6050  -28.3440   23.0040 C   0  0  0  0  0  3  0  0  0  0  0  0
  -25.6530  -32.3890   23.7460 C   0  0  0  0  0  3  0  0  0  0  0  0
  -25.3110  -33.7760   24.0910 N   0  0  0  0  0  0  0  0  0  0  0  0
  -25.6250  -34.8440   23.3480 C   0  0  0  0  0  0  0  0  0  0  0  0
  -26.3070  -34.7700   22.3220 O   0  0  0  0  0  0  0  0  0  0  0  0
  -24.7150  -33.9080   24.8950 H   0  0  0  0  0  0  0  0  0  0  0  0
  -23.8610  -36.5960   22.9940 C   0  0  0  0  0  1  0  0  0  0  0  0
  -25.1020  -36.2150   23.8170 C   0  0  0  0  0  3  0  0  0  0  0  0
  -27.2040  -37.1400   24.6850 C   0  0  0  0  0  1  0  0  0  0  0  0
  -26.1090  -37.2930   23.7280 N   0  0  0  0  0  0  0  0  0  0  0  0
  -25.6800  -38.2020   23.8810 H   0  0  0  0  0  0  0  0  0  0  0  0
  -26.1860  -31.6120   25.0120 C   0  0  1  0  0  0  0  0  0  0  0  0
  -25.0950  -31.3230   26.0690 C   0  0  0  0  0  1  0  0  0  0  0  0
  -26.8100  -30.2600   24.5940 C   0  0  0  0  0  1  0  0  0  0  0  0
  -27.3110  -32.4260   25.6940 C   0  0  0  0  0  1  0  0  0  0  0  0
  -29.9260  -19.5340   19.4550 C   0  0  0  0  0  2  0  0  0  0  0  0
  -31.7450  -18.8800   21.0230 C   0  0  0  0  0  1  0  0  0  0  0  0
  -30.4730  -18.4750   20.3740 N   0  0  2  0  0  4  0  0  0  0  0  0
  -29.7930  -18.3790   21.1090 H   0  0  0  0  0  0  0  0  0  0  0  0
  -30.5800  -17.1310   19.7010 C   0  0  0  0  0  2  0  0  0  0  0  0
  -30.5330  -15.8700   20.6390 C   0  0  0  0  0  2  0  0  0  0  0  0
  -31.0920  -14.5830   19.9660 C   0  0  0  0  0  0  0  0  0  0  0  0
  -30.6830  -12.4030   18.8690 C   0  0  0  0  0  2  0  0  0  0  0  0
  -29.7060  -12.6200   17.6950 C   0  0  0  0  0  2  0  0  0  0  0  0
  -28.2460  -12.5250   18.1810 C   0  0  0  0  0  2  0  0  0  0  0  0
  -27.9800  -13.3810   19.4470 C   0  0  0  0  0  3  0  0  0  0  0  0
  -29.0750  -13.1520   20.5140 C   0  0  0  0  0  2  0  0  0  0  0  0
  -30.3800  -13.4190   19.8930 N   0  0  0  0  0  0  0  0  0  0  0  0
  -32.1920  -14.6900   19.4180 O   0  0  0  0  0  0  0  0  0  0  0  0
  -25.6360  -14.0580   20.2660 C   0  0  0  0  0  0  0  0  0  0  0  0
  -24.5590  -13.3180   20.6730 C   0  0  0  0  0  0  0  0  0  0  0  0
  -24.9710  -11.9520   20.6070 C   0  0  0  0  0  0  0  0  0  0  0  0
  -26.6390  -13.1450   19.9820 N   0  0  0  0  0  0  0  0  0  0  0  0
  -26.2450  -11.8730   20.2430 N   0  0  0  0  0  0  0  0  0  0  0  0
  -24.2100  -10.7130   20.8140 C   0  0  0  0  0  0  0  0  0  0  0  0
  -24.6090   -9.7520   21.7680 C   0  0  0  0  0  3  0  0  0  0  0  0
  -23.8490   -8.5770   21.9630 C   0  0  0  0  0  3  0  0  0  0  0  0
  -22.6770   -8.3570   21.2030 C   0  0  0  0  0  0  0  0  0  0  0  0
  -22.2960   -9.3050   20.2380 C   0  0  0  0  0  3  0  0  0  0  0  0
  -23.0560  -10.4720   20.0410 C   0  0  0  0  0  3  0  0  0  0  0  0
  -21.8920   -7.2340   21.3050 O   0  0  0  0  0  0  0  0  0  0  0  0
  -21.7600   -6.5520   22.4880 C   0  0  0  0  0  0  0  0  0  0  0  0
  -21.2600   -7.1720   23.6540 C   0  0  0  0  0  3  0  0  0  0  0  0
  -21.0750   -6.4170   24.8300 C   0  0  0  0  0  3  0  0  0  0  0  0
  -21.3830   -5.0420   24.8390 C   0  0  0  0  0  0  0  0  0  0  0  0
  -21.8740   -4.4220   23.6780 C   0  0  0  0  0  3  0  0  0  0  0  0
  -22.0600   -5.1750   22.5040 C   0  0  0  0  0  0  0  0  0  0  0  0
  -22.5140   -4.5670   21.3820 F   0  0  0  0  0  0  0  0  0  0  0  0
  -21.1980   -4.3150   25.9650 F   0  0  0  0  0  0  0  0  0  0  0  0
  -23.1930  -13.8410   21.0110 C   0  0  0  0  0  0  0  0  0  0  0  0
  -22.4820  -13.1620   21.9060 N   0  0  0  0  0  0  0  0  0  0  0  0
  -22.7670  -14.8840   20.5170 O   0  0  0  0  0  0  0  0  0  0  0  0
  -22.8410  -12.3170   22.3240 H   0  0  0  0  0  0  0  0  0  0  0  0
  -21.5650  -13.4930   22.1730 H   0  0  0  0  0  0  0  0  0  0  0  0
  -25.8410  -15.4230   20.0940 N   0  0  0  0  0  0  0  0  0  0  0  0
  -25.0980  -16.1000   20.2270 H   0  0  0  0  0  0  0  0  0  0  0  0
  -26.6860  -15.8320   19.7170 H   0  0  0  0  0  0  0  0  0  0  0  0
  1  4  1  0
  2  1  2  0
  2  5  1  0
  4  3  2  0
  4  8  1  0
  5  6  2  0
  6  3  1  0
  6  7  1  0
  9  8  2  0
 10 12  1  0
 10  9  1  0
 11 22  2  0
 12 17  1  0
 13 21  1  0
 13 23  1  0
 14 20  1  0
 14 16  1  0
 15 21  1  0
 16 17  2  0
 16 15  1  0
 18 19  1  0
 18 12  2  0
 19 14  2  0
 20 13  1  0
 21 11  1  0
 23 25  2  0
 24 23  1  0
 26 24  1  0
 27 36  2  0
 27 32  1  0
 28 24  1  0
 28 32  1  0
 29 28  1  0
 30 31  1  0
 30 29  1  0
 31 27  1  0
 32 33  2  0
 33 34  1  0
 35 34  2  0
 36 35  1  0
 37 11  1  0
 37 38  1  0
 37 47  1  0
 38 41  1  0
 39 43  1  0
 39 38  1  0
 40 39  2  0
 43 42  1  0
 45 43  1  0
 45 46  1  0
 45 44  1  0
 47 50  1  1
 47 48  1  0
 49 47  1  0
 51  5  1  0
 51 53  1  0
 53 52  1  0
 53 54  1  1
 55 53  1  0
 55 56  1  0
 57 56  1  0
 58 63  1  0
 59 60  1  0
 59 58  1  0
 61 60  1  0
 61 68  1  0
 61 62  1  0
 63 57  1  0
 63 62  1  0
 64 57  2  0
 65 66  2  0
 66 85  1  0
 67 66  1  0
 67 70  1  0
 68 69  1  0
 68 65  1  0
 69 67  2  0
 70 71  1  0
 71 72  2  0
 73 76  1  0
 73 72  1  0
 74 73  2  0
 75 74  1  0
 75 70  2  0
 76 77  1  0
 77 82  2  0
 77 78  1  0
 78 79  2  0
 79 80  1  0
 80 84  1  0
 81 80  2  0
 82 81  1  0
 83 82  1  0
 85 86  1  0
 86 89  1  0
 86 88  1  0
 87 85  2  0
 90 91  1  0
 90 65  1  0
 92 90  1  0
M  ISO  4   9 101  10 101  56 100  57 100
M  END
>  <TORSDO>  (9) 
F 21

>  <SCORE>  (9) 
-11.503

>  <name>  (9) 
8

>  <ligand_id>  (9) 
8

>  <original_smiles>  (9) 
[H]C(Oc1c([H])c([H])c2c(c1[H])C([H])([H])N(C(=O)C([H])(N([H])C(=O)C([H])(N([H])C([H])([H])[H])C([H])([H])[H])C(C([H])([H])[H])(C([H])([H])[H])C([H])([H])[H])C([H])(C(=O)N([H])C1([H])c3c([H])c([H])c([H])c([H])c3C([H])([H])C([H])([H])C1([H])[H])C2([H])[H])=C([H])c1c([H])c([H])c(C([H])([H])[N+]([H])(C([H])([H])[H])C([H])([H])C([H])([H])C(=O)N2C([H])([H])C([H])([H])C([H])([H])C([H])(n3nc(-c4c([H])c([H])c(Oc5c([H])c([H])c(F)c([H])c5F)c([H])c4[H])c(C(=O)N([H])[H])c3N([H])[H])C2([H])[H])c(C([H])([H])[H])c1[H]

>  <smiles>  (9) 
[H]C(Oc1c([H])c([H])c2c(c1[H])C([H])([H])N(C(=O)C([H])(N([H])C(=O)C([H])(N([H])C([H])([H])[H])C([H])([H])[H])C(C([H])([H])[H])(C([H])([H])[H])C([H])([H])[H])C([H])(C(=O)N([H])C1([H])c3c([H])c([H])c([H])c([H])c3C([H])([H])C([H])([H])C1([H])[H])C2([H])[H])=C([H])c1c([H])c([H])c(C([H])([H])[N+]([H])(C([H])([H])[H])C([H])([H])C([H])([H])C(=O)N2C([H])([H])C([H])([H])C([H])([H])C([H])(n3nc(-c4c([H])c([H])c(Oc5c([H])c([H])c(F)c([H])c5F)c([H])c4[H])c(C(=O)N([H])[H])c3N([H])[H])C2([H])[H])c(C([H])([H])[H])c1[H]

$$$$
9:0:0
     RDKit          3D

 92100  0  0  1  0  0  0  0  0999 V2000
  -29.7330  -20.1600   19.6050 C   0  0  0  0  0  3  0  0  0  0  0  0
  -30.3110  -19.7020   21.9190 C   0  0  0  0  0  3  0  0  0  0  0  0
  -29.6390  -21.5400   19.8980 C   0  0  0  0  0  3  0  0  0  0  0  0
  -30.2170  -21.0780   22.2110 C   0  0  0  0  0  3  0  0  0  0  0  0
  -30.0580  -19.2240   20.6140 C   0  0  0  0  0  0  0  0  0  0  0  0
  -29.8620  -22.0110   21.2120 C   0  0  0  0  0  0  0  0  0  0  0  0
  -29.9910  -17.7420   20.3370 C   0  0  0  0  0  0  0  0  0  0  0  0
  -30.7890  -16.9560   21.0710 N   0  0  0  0  0  0  0  0  0  0  0  0
  -29.1870  -17.2910   19.5180 O   0  0  0  0  0  0  0  0  0  0  0  0
  -31.4890  -17.3980   21.6480 H   0  0  0  0  0  0  0  0  0  0  0  0
  -30.5010  -15.5410   21.3350 C   0  0  0  0  0  2  0  0  0  0  0  0
  -31.0430  -14.5310   20.2960 C   0  0  0  0  0  0  0  0  0  0  0  0
  -30.6730  -12.4690   18.9680 C   0  0  0  0  0  2  0  0  0  0  0  0
  -29.6870  -12.7530   17.8170 C   0  0  0  0  0  2  0  0  0  0  0  0
  -28.2240  -12.6330   18.2890 C   0  0  0  0  0  2  0  0  0  0  0  0
  -27.9590  -13.4120   19.6050 C   0  0  0  0  0  3  0  0  0  0  0  0
  -29.0350  -13.0560   20.6530 C   0  0  0  0  0  2  0  0  0  0  0  0
  -30.3460  -13.3850   20.0700 N   0  0  0  0  0  0  0  0  0  0  0  0
  -32.0930  -14.7950   19.6970 O   0  0  0  0  0  0  0  0  0  0  0  0
  -25.5880  -14.0740   20.3650 C   0  0  0  0  0  0  0  0  0  0  0  0
  -24.5110  -13.3220   20.7540 C   0  0  0  0  0  0  0  0  0  0  0  0
  -24.9420  -11.9610   20.7030 C   0  0  0  0  0  0  0  0  0  0  0  0
  -26.6090  -13.1700   20.1090 N   0  0  0  0  0  0  0  0  0  0  0  0
  -26.2220  -11.8950   20.3650 N   0  0  0  0  0  0  0  0  0  0  0  0
  -24.1920  -10.7130   20.9040 C   0  0  0  0  0  0  0  0  0  0  0  0
  -24.6030   -9.7520   21.8530 C   0  0  0  0  0  3  0  0  0  0  0  0
  -23.8590   -8.5680   22.0420 C   0  0  0  0  0  3  0  0  0  0  0  0
  -22.6900   -8.3370   21.2770 C   0  0  0  0  0  0  0  0  0  0  0  0
  -22.2990   -9.2880   20.3170 C   0  0  0  0  0  3  0  0  0  0  0  0
  -23.0430  -10.4630   20.1290 C   0  0  0  0  0  3  0  0  0  0  0  0
  -21.9180   -7.2040   21.3730 O   0  0  0  0  0  0  0  0  0  0  0  0
  -21.8120   -6.5020   22.5470 C   0  0  0  0  0  0  0  0  0  0  0  0
  -21.3150   -7.0970   23.7280 C   0  0  0  0  0  3  0  0  0  0  0  0
  -21.1560   -6.3210   24.8930 C   0  0  0  0  0  3  0  0  0  0  0  0
  -21.4850   -4.9520   24.8780 C   0  0  0  0  0  0  0  0  0  0  0  0
  -21.9750   -4.3560   23.7030 C   0  0  0  0  0  3  0  0  0  0  0  0
  -22.1340   -5.1300   22.5390 C   0  0  0  0  0  0  0  0  0  0  0  0
  -22.5860   -4.5470   21.4030 F   0  0  0  0  0  0  0  0  0  0  0  0
  -21.3240   -4.2040   25.9960 F   0  0  0  0  0  0  0  0  0  0  0  0
  -23.1310  -13.8250   21.0650 C   0  0  0  0  0  0  0  0  0  0  0  0
  -22.4140  -13.1420   21.9500 N   0  0  0  0  0  0  0  0  0  0  0  0
  -22.6980  -14.8590   20.5580 O   0  0  0  0  0  0  0  0  0  0  0  0
  -22.7780  -12.3030   22.3780 H   0  0  0  0  0  0  0  0  0  0  0  0
  -21.4870  -13.4580   22.2000 H   0  0  0  0  0  0  0  0  0  0  0  0
  -25.7800  -15.4420   20.1910 N   0  0  0  0  0  0  0  0  0  0  0  0
  -25.0280  -16.1130   20.3090 H   0  0  0  0  0  0  0  0  0  0  0  0
  -26.6330  -15.8590   19.8390 H   0  0  0  0  0  0  0  0  0  0  0  0
  -29.6770  -23.4740   21.6330 C   0  0  0  0  0  2  0  0  0  0  0  0
  -30.8720  -24.9250   19.9050 C   0  0  0  0  0  1  0  0  0  0  0  0
  -29.5130  -24.5520   20.5290 C   0  0  0  0  0  3  0  0  0  0  0  0
  -28.8010  -25.8010   21.1060 C   0  0  0  0  0  2  0  0  0  0  0  0
  -28.7210  -26.8580   20.1470 O   0  0  0  0  0  0  0  0  0  0  0  0
  -24.6360  -31.8130   23.2390 C   0  0  0  0  0  0  0  0  0  0  0  0
  -27.5330  -27.5440   20.1640 C   0  0  0  0  0  0  0  0  0  0  0  0
  -23.5300  -30.4010   21.5350 C   0  0  0  0  0  3  0  0  0  0  0  0
  -25.0800  -28.9380   20.1330 C   0  0  0  0  0  0  0  0  0  0  0  0
  -26.0420  -30.8580   21.4160 C   0  0  0  0  0  2  0  0  0  0  0  0
  -26.1980  -29.5020   20.7630 C   0  0  0  0  0  0  0  0  0  0  0  0
  -27.4300  -28.8120   20.7760 C   0  0  0  0  0  3  0  0  0  0  0  0
  -26.4010  -26.9840   19.5360 C   0  0  0  0  0  3  0  0  0  0  0  0
  -25.1740  -27.6750   19.5200 C   0  0  0  0  0  3  0  0  0  0  0  0
  -23.8030  -29.7480   20.1530 C   0  0  0  0  0  2  0  0  0  0  0  0
  -24.7520  -31.0380   22.1220 N   0  0  0  0  0  0  0  0  0  0  0  0
  -23.5300  -32.0370   23.7510 O   0  0  0  0  0  0  0  0  0  0  0  0
  -22.8860  -29.3420   22.4570 C   0  0  0  0  0  0  0  0  0  0  0  0
  -21.5710  -29.1230   22.2910 N   0  0  0  0  0  0  0  0  0  0  0  0
  -23.5670  -28.7200   23.2780 O   0  0  0  0  0  0  0  0  0  0  0  0
  -21.0840  -29.6780   21.6010 H   0  0  0  0  0  0  0  0  0  0  0  0
  -18.2210  -27.8310   22.6810 C   0  0  0  0  0  0  0  0  0  0  0  0
  -20.7640  -28.1460   23.0200 C   0  0  0  0  0  3  0  0  0  0  0  0
  -20.9160  -26.7340   22.4090 C   0  0  0  0  0  2  0  0  0  0  0  0
  -19.8470  -26.4090   21.3620 C   0  0  0  0  0  2  0  0  0  0  0  0
  -18.4460  -26.5040   21.9770 C   0  0  0  0  0  2  0  0  0  0  0  0
  -19.3090  -28.6090   23.1560 C   0  0  0  0  0  0  0  0  0  0  0  0
  -19.0450  -29.8520   23.7720 C   0  0  0  0  0  3  0  0  0  0  0  0
  -17.7240  -30.3170   23.9170 C   0  0  0  0  0  3  0  0  0  0  0  0
  -16.6500  -29.5350   23.4580 C   0  0  0  0  0  3  0  0  0  0  0  0
  -16.8990  -28.2950   22.8460 C   0  0  0  0  0  3  0  0  0  0  0  0
  -25.8800  -32.4730   23.9110 C   0  0  0  0  0  3  0  0  0  0  0  0
  -25.5300  -33.8660   24.2180 N   0  0  0  0  0  0  0  0  0  0  0  0
  -25.8650  -34.9200   23.4600 C   0  0  0  0  0  0  0  0  0  0  0  0
  -26.5730  -34.8230   22.4540 O   0  0  0  0  0  0  0  0  0  0  0  0
  -24.9010  -34.0120   24.9950 H   0  0  0  0  0  0  0  0  0  0  0  0
  -24.1080  -36.6650   23.0280 C   0  0  0  0  0  1  0  0  0  0  0  0
  -25.3290  -36.2990   23.8870 C   0  0  0  0  0  3  0  0  0  0  0  0
  -27.4090  -37.2440   24.7870 C   0  0  0  0  0  1  0  0  0  0  0  0
  -26.3380  -37.3760   23.8020 N   0  0  0  0  0  0  0  0  0  0  0  0
  -25.9030  -38.2870   23.9270 H   0  0  0  0  0  0  0  0  0  0  0  0
  -26.3610  -31.7180   25.2100 C   0  0  1  0  0  0  0  0  0  0  0  0
  -25.2290  -31.4550   26.2310 C   0  0  0  0  0  1  0  0  0  0  0  0
  -26.9910  -30.3540   24.8440 C   0  0  0  0  0  1  0  0  0  0  0  0
  -27.4630  -32.5400   25.9180 C   0  0  0  0  0  1  0  0  0  0  0  0
  1  3  2  0
  1  5  1  0
  2  4  1  0
  3  6  1  0
  5  2  2  0
  6 48  1  0
  6  4  2  0
  7  5  1  0
  7  8  1  0
  8 11  1  0
  8 10  1  0
  9  7  2  0
 12 11  1  0
 13 18  1  0
 14 15  1  0
 14 13  1  0
 16 15  1  0
 16 23  1  0
 16 17  1  0
 18 12  1  0
 18 17  1  0
 19 12  2  0
 20 21  2  0
 21 40  1  0
 22 21  1  0
 22 25  1  0
 23 24  1  0
 23 20  1  0
 24 22  2  0
 25 26  1  0
 26 27  2  0
 28 31  1  0
 28 27  1  0
 29 28  2  0
 30 29  1  0
 30 25  2  0
 31 32  1  0
 32 33  1  0
 33 34  2  0
 35 34  1  0
 35 39  1  0
 36 35  2  0
 37 32  2  0
 37 36  1  0
 38 37  1  0
 40 41  1  0
 41 44  1  0
 41 43  1  0
 42 40  2  0
 45 46  1  0
 45 20  1  0
 47 45  1  0
 50 49  1  0
 50 51  1  0
 50 48  1  0
 52 54  1  0
 52 51  1  0
 53 64  2  0
 54 59  1  0
 55 63  1  0
 55 65  1  0
 56 62  1  0
 56 58  1  0
 57 63  1  0
 58 59  2  0
 58 57  1  0
 60 54  2  0
 61 60  1  0
 61 56  2  0
 62 55  1  0
 63 53  1  0
 65 67  2  0
 66 65  1  0
 68 66  1  0
 69 78  2  0
 69 74  1  0
 70 66  1  0
 70 74  1  0
 71 70  1  0
 72 73  1  0
 72 71  1  0
 73 69  1  0
 74 75  2  0
 75 76  1  0
 77 76  2  0
 78 77  1  0
 79 53  1  0
 79 80  1  0
 79 89  1  0
 80 83  1  0
 81 85  1  0
 81 80  1  0
 82 81  2  0
 85 84  1  0
 87 85  1  0
 87 88  1  0
 87 86  1  0
 89 92  1  1
 89 90  1  0
 91 89  1  0
M  ISO  4  11 100  12 100  51 101  52 101
M  END
>  <TORSDO>  (10) 
F 21

>  <SCORE>  (10) 
-13.220

>  <name>  (10) 
9

>  <ligand_id>  (10) 
9

>  <original_smiles>  (10) 
[H]c1c([H])c([H])c2c(c1[H])C([H])([H])C([H])([H])C([H])([H])C2([H])N([H])C(=O)C1([H])N(C(=O)C([H])(N([H])C(=O)C([H])(N([H])C([H])([H])[H])C([H])([H])[H])C(C([H])([H])[H])(C([H])([H])[H])C([H])([H])[H])C([H])([H])c2c([H])c(OC([H])([H])C([H])(C([H])([H])[H])C([H])([H])c3c([H])c([H])c(C(=O)N([H])C([H])([H])C(=O)N4C([H])([H])C([H])([H])C([H])([H])C([H])(n5nc(-c6c([H])c([H])c(Oc7c([H])c([H])c(F)c([H])c7F)c([H])c6[H])c(C(=O)N([H])[H])c5N([H])[H])C4([H])[H])c([H])c3[H])c([H])c([H])c2C1([H])[H]

>  <smiles>  (10) 
[H]c1c([H])c([H])c2c(c1[H])C([H])([H])C([H])([H])C([H])([H])C2([H])N([H])C(=O)C1([H])N(C(=O)C([H])(N([H])C(=O)C([H])(N([H])C([H])([H])[H])C([H])([H])[H])C(C([H])([H])[H])(C([H])([H])[H])C([H])([H])[H])C([H])([H])c2c([H])c(OC([H])([H])C([H])(C([H])([H])[H])C([H])([H])c3c([H])c([H])c(C(=O)N([H])C([H])([H])C(=O)N4C([H])([H])C([H])([H])C([H])([H])C([H])(n5nc(-c6c([H])c([H])c(Oc7c([H])c([H])c(F)c([H])c7F)c([H])c6[H])c(C(=O)N([H])[H])c5N([H])[H])C4([H])[H])c([H])c3[H])c([H])c([H])c2C1([H])[H]

$$$$
10:0:0
     RDKit          3D

 90 98  0  0  1  0  0  0  0  0999 V2000
  -27.5980  -19.4720   18.7100 C   0  0  0  0  0  3  0  0  0  0  0  0
  -27.7920  -20.8060   19.1250 C   0  0  0  0  0  3  0  0  0  0  0  0
  -28.2520  -18.3980   19.3520 C   0  0  0  0  0  3  0  0  0  0  0  0
  -29.3230  -19.9950   20.8360 C   0  0  0  0  0  3  0  0  0  0  0  0
  -28.6410  -21.1160   20.2090 C   0  0  0  0  0  0  0  0  0  0  0  0
  -29.1490  -18.6140   20.4180 C   0  0  0  0  0  0  0  0  0  0  0  0
  -28.6990  -22.6120   20.7380 C   0  0  0  0  0  2  0  0  0  0  0  0
  -28.3520  -23.8880   19.8100 C   0  0  0  0  0  3  0  0  0  0  0  0
  -28.0830  -25.2990   20.5320 C   0  0  0  0  0  3  0  0  0  0  0  0
  -28.0930  -26.5950   19.7970 O   0  0  0  0  0  0  0  0  0  0  0  0
  -24.5480  -31.9530   23.1480 C   0  0  0  0  0  0  0  0  0  0  0  0
  -26.9740  -27.4380   19.8840 C   0  0  0  0  0  0  0  0  0  0  0  0
  -23.2520  -30.5860   21.5510 C   0  0  0  0  0  3  0  0  0  0  0  0
  -24.6160  -29.0490   20.0270 C   0  0  0  0  0  0  0  0  0  0  0  0
  -25.7760  -30.9050   21.2300 C   0  0  0  0  0  2  0  0  0  0  0  0
  -25.8170  -29.5340   20.5600 C   0  0  0  0  0  0  0  0  0  0  0  0
  -27.0020  -28.7420   20.4720 C   0  0  0  0  0  3  0  0  0  0  0  0
  -25.7520  -27.0000   19.3350 C   0  0  0  0  0  3  0  0  0  0  0  0
  -24.5850  -27.7890   19.4070 C   0  0  0  0  0  3  0  0  0  0  0  0
  -23.3870  -29.9280   20.1530 C   0  0  0  0  0  2  0  0  0  0  0  0
  -24.5470  -31.1650   22.0320 N   0  0  0  0  0  0  0  0  0  0  0  0
  -23.4960  -32.2200   23.7480 O   0  0  0  0  0  0  0  0  0  0  0  0
  -22.6390  -29.5560   22.5320 C   0  0  0  0  0  0  0  0  0  0  0  0
  -21.3130  -29.3530   22.4440 N   0  0  0  0  0  0  0  0  0  0  0  0
  -23.3540  -28.9410   23.3270 O   0  0  0  0  0  0  0  0  0  0  0  0
  -20.7940  -29.9040   21.7740 H   0  0  0  0  0  0  0  0  0  0  0  0
  -17.9900  -28.0250   22.9800 C   0  0  0  0  0  0  0  0  0  0  0  0
  -20.5390  -28.3890   23.2280 C   0  0  0  0  0  3  0  0  0  0  0  0
  -20.6950  -26.9560   22.6670 C   0  0  0  0  0  2  0  0  0  0  0  0
  -19.6000  -26.5710   21.6700 C   0  0  0  0  0  2  0  0  0  0  0  0
  -18.2170  -26.6750   22.3190 C   0  0  0  0  0  2  0  0  0  0  0  0
  -19.0810  -28.8340   23.3920 C   0  0  0  0  0  0  0  0  0  0  0  0
  -18.8170  -30.0950   23.9710 C   0  0  0  0  0  3  0  0  0  0  0  0
  -17.4950  -30.5510   24.1410 C   0  0  0  0  0  3  0  0  0  0  0  0
  -16.4190  -29.7380   23.7430 C   0  0  0  0  0  3  0  0  0  0  0  0
  -16.6670  -28.4780   23.1700 C   0  0  0  0  0  3  0  0  0  0  0  0
  -25.8640  -32.5720   23.7120 C   0  0  0  0  0  3  0  0  0  0  0  0
  -25.5760  -33.9620   24.0930 N   0  0  0  0  0  0  0  0  0  0  0  0
  -25.8930  -35.0340   23.3560 C   0  0  0  0  0  0  0  0  0  0  0  0
  -26.5300  -34.9560   22.3010 O   0  0  0  0  0  0  0  0  0  0  0  0
  -25.0120  -34.0980   24.9190 H   0  0  0  0  0  0  0  0  0  0  0  0
  -24.1820  -36.8580   23.0940 C   0  0  0  0  0  1  0  0  0  0  0  0
  -25.4320  -36.4110   23.8690 C   0  0  0  0  0  3  0  0  0  0  0  0
  -27.5920  -37.2400   24.6890 C   0  0  0  0  0  1  0  0  0  0  0  0
  -26.4760  -37.4560   23.7740 N   0  0  0  0  0  0  0  0  0  0  0  0
  -26.0840  -38.3750   23.9620 H   0  0  0  0  0  0  0  0  0  0  0  0
  -26.4510  -31.7700   24.9390 C   0  0  1  0  0  0  0  0  0  0  0  0
  -25.4190  -31.5100   26.0620 C   0  0  0  0  0  1  0  0  0  0  0  0
  -27.0070  -30.4000   24.4850 C   0  0  0  0  0  1  0  0  0  0  0  0
  -27.6400  -32.5490   25.5520 C   0  0  0  0  0  1  0  0  0  0  0  0
  -29.8370  -17.3460   21.1060 C   0  0  0  0  0  2  0  0  0  0  0  0
  -30.9000  -15.0100   20.8690 C   0  0  0  0  0  0  0  0  0  0  0  0
  -30.7370  -12.6850   20.0080 C   0  0  0  0  0  2  0  0  0  0  0  0
  -29.9120  -12.6150   18.7100 C   0  0  0  0  0  2  0  0  0  0  0  0
  -28.4100  -12.4910   19.0090 C   0  0  0  0  0  2  0  0  0  0  0  0
  -27.9180  -13.4660   20.1160 C   0  0  0  0  0  3  0  0  0  0  0  0
  -28.8810  -13.5130   21.3210 C   0  0  0  0  0  2  0  0  0  0  0  0
  -30.2090  -13.8250   20.7830 N   0  0  0  0  0  0  0  0  0  0  0  0
  -32.1280  -14.9550   20.9740 O   0  0  0  0  0  0  0  0  0  0  0  0
  -30.3560  -16.1640   20.2880 N   0  0  0  0  0  0  0  0  0  0  0  0
  -25.4690  -14.0460   20.6120 C   0  0  0  0  0  0  0  0  0  0  0  0
  -24.3800  -13.2670   20.8960 C   0  0  0  0  0  0  0  0  0  0  0  0
  -24.8570  -11.9230   20.9530 C   0  0  0  0  0  0  0  0  0  0  0  0
  -26.5410  -13.1750   20.5070 N   0  0  0  0  0  0  0  0  0  0  0  0
  -26.1730  -11.8960   20.7820 N   0  0  0  0  0  0  0  0  0  0  0  0
  -24.1270  -10.6570   21.1070 C   0  0  0  0  0  0  0  0  0  0  0  0
  -24.4860   -9.7120   22.0920 C   0  0  0  0  0  3  0  0  0  0  0  0
  -23.7530   -8.5130   22.2340 C   0  0  0  0  0  3  0  0  0  0  0  0
  -22.6490   -8.2510   21.3900 C   0  0  0  0  0  0  0  0  0  0  0  0
  -22.3100   -9.1850   20.3950 C   0  0  0  0  0  3  0  0  0  0  0  0
  -23.0430  -10.3750   20.2500 C   0  0  0  0  0  3  0  0  0  0  0  0
  -21.8960   -7.1030   21.4380 O   0  0  0  0  0  0  0  0  0  0  0  0
  -21.7600   -6.3780   22.5940 C   0  0  0  0  0  0  0  0  0  0  0  0
  -21.2410   -6.9500   23.7740 C   0  0  0  0  0  3  0  0  0  0  0  0
  -21.0520   -6.1520   24.9210 C   0  0  0  0  0  3  0  0  0  0  0  0
  -21.3750   -4.7820   24.8870 C   0  0  0  0  0  0  0  0  0  0  0  0
  -21.8900   -4.2090   23.7090 C   0  0  0  0  0  3  0  0  0  0  0  0
  -22.0780   -5.0040   22.5650 C   0  0  0  0  0  0  0  0  0  0  0  0
  -22.5530   -4.4420   21.4280 F   0  0  0  0  0  0  0  0  0  0  0  0
  -21.1890   -4.0120   25.9840 F   0  0  0  0  0  0  0  0  0  0  0  0
  -22.9590  -13.7350   21.0080 C   0  0  0  0  0  0  0  0  0  0  0  0
  -22.1580  -13.0730   21.8360 N   0  0  0  0  0  0  0  0  0  0  0  0
  -22.5630  -14.7280   20.3970 O   0  0  0  0  0  0  0  0  0  0  0  0
  -22.4960  -12.2780   22.3590 H   0  0  0  0  0  0  0  0  0  0  0  0
  -21.1970  -13.3640   21.9480 H   0  0  0  0  0  0  0  0  0  0  0  0
  -25.6310  -15.4120   20.4040 N   0  0  0  0  0  0  0  0  0  0  0  0
  -24.8390  -16.0450   20.3850 H   0  0  0  0  0  0  0  0  0  0  0  0
  -26.5020  -15.8540   20.1360 H   0  0  0  0  0  0  0  0  0  0  0  0
  -30.6940  -16.1680   17.7490 C   0  0  0  0  0  1  0  0  0  0  0  0
  -31.1260  -16.7040   19.1210 C   0  0  0  0  0  2  0  0  0  0  0  0
  1  2  2  0
  1  3  1  0
  2  5  1  0
  3  6  2  0
  5  7  1  0
  5  4  2  0
  6  4  1  0
  6 51  1  0
  8  9  2  0
  8  7  1  0
 10 12  1  0
 10  9  1  0
 11 22  2  0
 12 17  1  0
 13 21  1  0
 13 23  1  0
 14 20  1  0
 14 16  1  0
 15 21  1  0
 16 15  1  0
 17 16  2  0
 18 19  1  0
 18 12  2  0
 19 14  2  0
 20 13  1  0
 21 11  1  0
 23 25  2  0
 24 23  1  0
 26 24  1  0
 27 36  2  0
 27 32  1  0
 28 24  1  0
 28 32  1  0
 29 28  1  0
 30 31  1  0
 30 29  1  0
 31 27  1  0
 32 33  2  0
 33 34  1  0
 35 34  2  0
 36 35  1  0
 37 11  1  0
 37 38  1  0
 37 47  1  0
 38 41  1  0
 39 43  1  0
 39 38  1  0
 40 39  2  0
 43 42  1  0
 45 43  1  0
 45 46  1  0
 45 44  1  0
 47 50  1  1
 47 48  1  0
 49 47  1  0
 52 59  2  0
 53 58  1  0
 54 55  1  0
 54 53  1  0
 56 55  1  0
 56 64  1  0
 56 57  1  0
 58 52  1  0
 58 57  1  0
 60 52  1  0
 60 51  1  0
 61 62  2  0
 62 63  1  0
 62 81  1  0
 63 66  1  0
 64 61  1  0
 64 65  1  0
 65 63  2  0
 66 67  1  0
 67 68  2  0
 69 72  1  0
 69 68  1  0
 70 69  2  0
 71 70  1  0
 71 66  2  0
 72 73  1  0
 73 74  1  0
 74 75  2  0
 76 75  1  0
 76 80  1  0
 77 76  2  0
 78 73  2  0
 78 77  1  0
 79 78  1  0
 81 82  1  0
 82 85  1  0
 82 84  1  0
 83 81  2  0
 86 61  1  0
 87 86  1  0
 88 86  1  0
 89 90  1  0
 90 60  1  0
M  ISO  4   9 101  10 101  52 100  60 100
M  END
>  <TORSDO>  (11) 
F 21

>  <SCORE>  (11) 
-12.741

>  <name>  (11) 
10

>  <ligand_id>  (11) 
10

>  <original_smiles>  (11) 
[H]c1c([H])c(C([H])([H])N(C(=O)N2C([H])([H])C([H])([H])C([H])([H])C([H])(n3nc(-c4c([H])c([H])c(Oc5c([H])c([H])c(F)c([H])c5F)c([H])c4[H])c(C(=O)N([H])[H])c3N([H])[H])C2([H])[H])C([H])([H])C([H])([H])[H])c([H])c(C([H])([H])C([H])([H])C([H])([H])Oc2c([H])c([H])c3c(c2[H])C([H])([H])N(C(=O)C([H])(N([H])C(=O)C([H])(N([H])C([H])([H])[H])C([H])([H])[H])C(C([H])([H])[H])(C([H])([H])[H])C([H])([H])[H])C([H])(C(=O)N([H])C2([H])c4c([H])c([H])c([H])c([H])c4C([H])([H])C([H])([H])C2([H])[H])C3([H])[H])c1[H]

>  <smiles>  (11) 
[H]c1c([H])c(C([H])([H])N(C(=O)N2C([H])([H])C([H])([H])C([H])([H])C([H])(n3nc(-c4c([H])c([H])c(Oc5c([H])c([H])c(F)c([H])c5F)c([H])c4[H])c(C(=O)N([H])[H])c3N([H])[H])C2([H])[H])C([H])([H])C([H])([H])[H])c([H])c(C([H])([H])C([H])([H])C([H])([H])Oc2c([H])c([H])c3c(c2[H])C([H])([H])N(C(=O)C([H])(N([H])C(=O)C([H])(N([H])C([H])([H])[H])C([H])([H])[H])C(C([H])([H])[H])(C([H])([H])[H])C([H])([H])[H])C([H])(C(=O)N([H])C2([H])c4c([H])c([H])c([H])c([H])c4C([H])([H])C([H])([H])C2([H])[H])C3([H])[H])c1[H]

$$$$
11:0:0
     RDKit          3D

 87 94  0  0  1  0  0  0  0  0999 V2000
  -29.0470  -22.5090   19.8580 C   0  0  0  0  0  3  0  0  0  0  0  0
  -28.9970  -21.1460   20.6990 C   0  0  0  0  0  3  0  0  0  0  0  0
  -29.5560  -19.8250   20.0290 C   0  0  0  0  0  0  0  0  0  0  0  0
  -29.5950  -18.6330   20.7080 N   0  0  0  0  0  0  0  0  0  0  0  0
  -29.9700  -19.8870   18.8700 O   0  0  0  0  0  0  0  0  0  0  0  0
  -29.2420  -18.6470   21.6570 H   0  0  0  0  0  0  0  0  0  0  0  0
  -30.2240  -17.3390   20.2350 C   0  0  0  0  0  3  0  0  0  0  0  0
  -29.8320  -15.9690   20.9580 C   0  0  0  0  0  3  0  0  0  0  0  0
  -30.5960  -14.6530   20.4970 C   0  0  0  0  0  0  0  0  0  0  0  0
  -30.3970  -12.4050   19.4400 C   0  0  0  0  0  2  0  0  0  0  0  0
  -29.4810  -12.5300   18.2040 C   0  0  0  0  0  2  0  0  0  0  0  0
  -27.9980  -12.3800   18.6010 C   0  0  0  0  0  2  0  0  0  0  0  0
  -27.6160  -13.2500   19.8280 C   0  0  0  0  0  3  0  0  0  0  0  0
  -28.6540  -13.1080   20.9640 C   0  0  0  0  0  2  0  0  0  0  0  0
  -29.9740  -13.4340   20.4130 N   0  0  0  0  0  0  0  0  0  0  0  0
  -31.7580  -14.7770   20.0970 O   0  0  0  0  0  0  0  0  0  0  0  0
  -25.2100  -13.8540   20.4950 C   0  0  0  0  0  0  0  0  0  0  0  0
  -24.1360  -13.0840   20.8540 C   0  0  0  0  0  0  0  0  0  0  0  0
  -24.6010  -11.7340   20.8520 C   0  0  0  0  0  0  0  0  0  0  0  0
  -26.2600  -12.9720   20.2920 N   0  0  0  0  0  0  0  0  0  0  0  0
  -25.8970  -11.6920   20.5670 N   0  0  0  0  0  0  0  0  0  0  0  0
  -23.8720  -10.4740   21.0460 C   0  0  0  0  0  0  0  0  0  0  0  0
  -24.3020   -9.5090   21.9830 C   0  0  0  0  0  3  0  0  0  0  0  0
  -23.5760   -8.3130   22.1650 C   0  0  0  0  0  3  0  0  0  0  0  0
  -22.4030   -8.0730   21.4100 C   0  0  0  0  0  0  0  0  0  0  0  0
  -21.9890   -9.0260   20.4640 C   0  0  0  0  0  3  0  0  0  0  0  0
  -22.7170  -10.2140   20.2800 C   0  0  0  0  0  3  0  0  0  0  0  0
  -21.6470   -6.9290   21.5020 O   0  0  0  0  0  0  0  0  0  0  0  0
  -21.6140   -6.1770   22.6490 C   0  0  0  0  0  0  0  0  0  0  0  0
  -21.2280   -6.7270   23.8900 C   0  0  0  0  0  3  0  0  0  0  0  0
  -21.1410   -5.9020   25.0290 C   0  0  0  0  0  3  0  0  0  0  0  0
  -21.4310   -4.5290   24.9280 C   0  0  0  0  0  0  0  0  0  0  0  0
  -21.8100   -3.9780   23.6900 C   0  0  0  0  0  3  0  0  0  0  0  0
  -21.8980   -4.7990   22.5550 C   0  0  0  0  0  0  0  0  0  0  0  0
  -22.2440   -4.2600   21.3600 F   0  0  0  0  0  0  0  0  0  0  0  0
  -21.3390   -3.7340   26.0190 F   0  0  0  0  0  0  0  0  0  0  0  0
  -22.7320  -13.5640   21.0900 C   0  0  0  0  0  0  0  0  0  0  0  0
  -21.9870  -12.8820   21.9540 N   0  0  0  0  0  0  0  0  0  0  0  0
  -22.3020  -14.5780   20.5430 O   0  0  0  0  0  0  0  0  0  0  0  0
  -22.3460  -12.0640   22.4220 H   0  0  0  0  0  0  0  0  0  0  0  0
  -21.0440  -13.1850   22.1530 H   0  0  0  0  0  0  0  0  0  0  0  0
  -25.3760  -15.2230   20.3040 N   0  0  0  0  0  0  0  0  0  0  0  0
  -24.6080  -15.8770   20.4020 H   0  0  0  0  0  0  0  0  0  0  0  0
  -26.2340  -15.6620   19.9970 H   0  0  0  0  0  0  0  0  0  0  0  0
  -28.5660  -23.8850   20.5220 C   0  0  0  0  0  3  0  0  0  0  0  0
  -28.5150  -25.1850   19.5940 C   0  0  0  0  0  3  0  0  0  0  0  0
  -28.3840  -26.5320   20.1940 O   0  0  0  0  0  0  0  0  0  0  0  0
  -24.6270  -31.8740   23.2210 C   0  0  0  0  0  0  0  0  0  0  0  0
  -27.2210  -27.3190   20.1410 C   0  0  0  0  0  0  0  0  0  0  0  0
  -23.4080  -30.4730   21.5920 C   0  0  0  0  0  3  0  0  0  0  0  0
  -24.8440  -28.9170   20.1570 C   0  0  0  0  0  0  0  0  0  0  0  0
  -25.9420  -30.7930   21.3840 C   0  0  0  0  0  2  0  0  0  0  0  0
  -26.0150  -29.4130   20.7400 C   0  0  0  0  0  0  0  0  0  0  0  0
  -27.2010  -28.6230   20.7250 C   0  0  0  0  0  3  0  0  0  0  0  0
  -26.0180  -26.8600   19.5560 C   0  0  0  0  0  3  0  0  0  0  0  0
  -24.8460  -27.6440   19.5620 C   0  0  0  0  0  3  0  0  0  0  0  0
  -23.6080  -29.7920   20.2120 C   0  0  0  0  0  2  0  0  0  0  0  0
  -24.6780  -31.0660   22.1230 N   0  0  0  0  0  0  0  0  0  0  0  0
  -23.5500  -32.1540   23.7650 O   0  0  0  0  0  0  0  0  0  0  0  0
  -22.7550  -29.4600   22.5610 C   0  0  0  0  0  0  0  0  0  0  0  0
  -21.4280  -29.2810   22.4440 N   0  0  0  0  0  0  0  0  0  0  0  0
  -23.4400  -28.8360   23.3770 O   0  0  0  0  0  0  0  0  0  0  0  0
  -20.9360  -29.8330   21.7560 H   0  0  0  0  0  0  0  0  0  0  0  0
  -18.0590  -28.0740   22.9560 C   0  0  0  0  0  0  0  0  0  0  0  0
  -20.6150  -28.3470   23.2220 C   0  0  0  0  0  3  0  0  0  0  0  0
  -20.7240  -26.9130   22.6570 C   0  0  0  0  0  2  0  0  0  0  0  0
  -19.6230  -26.5770   21.6460 C   0  0  0  0  0  2  0  0  0  0  0  0
  -18.2410  -26.7200   22.2900 C   0  0  0  0  0  2  0  0  0  0  0  0
  -19.1740  -28.8440   23.3790 C   0  0  0  0  0  0  0  0  0  0  0  0
  -18.9500  -30.1110   23.9630 C   0  0  0  0  0  3  0  0  0  0  0  0
  -17.6430  -30.6070   24.1270 C   0  0  0  0  0  3  0  0  0  0  0  0
  -16.5430  -29.8350   23.7190 C   0  0  0  0  0  3  0  0  0  0  0  0
  -16.7500  -28.5700   23.1400 C   0  0  0  0  0  3  0  0  0  0  0  0
  -25.9170  -32.5060   23.8310 C   0  0  0  0  0  3  0  0  0  0  0  0
  -25.6090  -33.9000   24.1760 N   0  0  0  0  0  0  0  0  0  0  0  0
  -25.9290  -34.9610   23.4210 C   0  0  0  0  0  0  0  0  0  0  0  0
  -26.5850  -34.8680   22.3800 O   0  0  0  0  0  0  0  0  0  0  0  0
  -25.0240  -34.0470   24.9850 H   0  0  0  0  0  0  0  0  0  0  0  0
  -24.1880  -36.7500   23.1100 C   0  0  0  0  0  1  0  0  0  0  0  0
  -25.4450  -36.3430   23.8970 C   0  0  0  0  0  3  0  0  0  0  0  0
  -27.5900  -37.2280   24.6960 C   0  0  0  0  0  1  0  0  0  0  0  0
  -26.4710  -37.4010   23.7740 N   0  0  0  0  0  0  0  0  0  0  0  0
  -26.0640  -38.3180   23.9400 H   0  0  0  0  0  0  0  0  0  0  0  0
  -26.4520  -31.7280   25.0960 C   0  0  1  0  0  0  0  0  0  0  0  0
  -25.3740  -31.4850   26.1780 C   0  0  0  0  0  1  0  0  0  0  0  0
  -27.0310  -30.3530   24.6900 C   0  0  0  0  0  1  0  0  0  0  0  0
  -27.6120  -32.5200   25.7480 C   0  0  0  0  0  1  0  0  0  0  0  0
  1 45  1  0
  1  2  2  0
  3  2  1  0
  3  4  1  0
  4  6  1  0
  5  3  2  0
  7  4  1  0
  7  8  2  0
  9  8  1  0
 10 15  1  0
 11 12  1  0
 11 10  1  0
 13 12  1  0
 13 20  1  0
 13 14  1  0
 15  9  1  0
 15 14  1  0
 16  9  2  0
 17 18  2  0
 18 37  1  0
 19 18  1  0
 19 22  1  0
 20 17  1  0
 20 21  1  0
 21 19  2  0
 22 23  1  0
 23 24  2  0
 25 28  1  0
 25 24  1  0
 26 25  2  0
 27 26  1  0
 27 22  2  0
 28 29  1  0
 29 30  1  0
 30 31  2  0
 32 31  1  0
 32 36  1  0
 33 32  2  0
 34 29  2  0
 34 33  1  0
 35 34  1  0
 37 38  1  0
 38 41  1  0
 38 40  1  0
 39 37  2  0
 42 43  1  0
 42 17  1  0
 44 42  1  0
 46 47  1  0
 46 45  2  0
 48 59  2  0
 49 47  1  0
 49 54  1  0
 50 58  1  0
 50 60  1  0
 51 57  1  0
 51 53  1  0
 52 58  1  0
 53 52  1  0
 54 53  2  0
 55 56  1  0
 55 49  2  0
 56 51  2  0
 57 50  1  0
 58 48  1  0
 60 62  2  0
 61 60  1  0
 63 61  1  0
 64 73  2  0
 64 69  1  0
 65 61  1  0
 65 69  1  0
 66 65  1  0
 67 68  1  0
 67 66  1  0
 68 64  1  0
 69 70  2  0
 70 71  1  0
 72 71  2  0
 73 72  1  0
 74 48  1  0
 74 75  1  0
 74 84  1  0
 75 78  1  0
 76 80  1  0
 76 75  1  0
 77 76  2  0
 80 79  1  0
 82 80  1  0
 82 83  1  0
 82 81  1  0
 84 87  1  1
 84 85  1  0
 86 84  1  0
M  ISO  4   8 100   9 100  46 101  47 101
M  END
>  <TORSDO>  (12) 
F 22

>  <SCORE>  (12) 
-12.997

>  <name>  (12) 
11

>  <ligand_id>  (12) 
11

>  <original_smiles>  (12) 
[H]c1c([H])c([H])c2c(c1[H])C([H])([H])C([H])([H])C([H])([H])C2([H])N([H])C(=O)C1([H])N(C(=O)C([H])(N([H])C(=O)C([H])(N([H])C([H])([H])[H])C([H])([H])[H])C(C([H])([H])[H])(C([H])([H])[H])C([H])([H])[H])C([H])([H])c2c([H])c(OC([H])([H])C([H])([H])C([H])([H])C([H])([H])C(=O)N([H])C([H])([H])C([H])([H])C(=O)N3C([H])([H])C([H])([H])C([H])([H])C([H])(n4nc(-c5c([H])c([H])c(Oc6c([H])c([H])c(F)c([H])c6F)c([H])c5[H])c(C(=O)N([H])[H])c4N([H])[H])C3([H])[H])c([H])c([H])c2C1([H])[H]

>  <smiles>  (12) 
[H]c1c([H])c([H])c2c(c1[H])C([H])([H])C([H])([H])C([H])([H])C2([H])N([H])C(=O)C1([H])N(C(=O)C([H])(N([H])C(=O)C([H])(N([H])C([H])([H])[H])C([H])([H])[H])C(C([H])([H])[H])(C([H])([H])[H])C([H])([H])[H])C([H])([H])c2c([H])c(OC([H])([H])C([H])([H])C([H])([H])C([H])([H])C(=O)N([H])C([H])([H])C([H])([H])C(=O)N3C([H])([H])C([H])([H])C([H])([H])C([H])(n4nc(-c5c([H])c([H])c(Oc6c([H])c([H])c(F)c([H])c6F)c([H])c5[H])c(C(=O)N([H])[H])c4N([H])[H])C3([H])[H])c([H])c([H])c2C1([H])[H]

$$$$
12:0:0
     RDKit          3D

 89 96  0  0  1  0  0  0  0  0999 V2000
  -30.5390  -23.0870   21.7560 C   0  0  0  0  0  2  0  0  0  0  0  0
  -29.5480  -24.1910   21.3400 C   0  0  0  0  0  2  0  0  0  0  0  0
  -30.1930  -25.5910   21.3170 C   0  0  0  0  0  2  0  0  0  0  0  0
  -29.1800  -26.7450   21.2730 C   0  0  0  0  0  2  0  0  0  0  0  0
  -28.3210  -26.6240   20.1430 O   0  0  0  0  0  0  0  0  0  0  0  0
  -24.5480  -31.8490   23.2020 C   0  0  0  0  0  0  0  0  0  0  0  0
  -27.1850  -27.4010   20.1640 C   0  0  0  0  0  0  0  0  0  0  0  0
  -23.3310  -30.4420   21.5660 C   0  0  0  0  0  3  0  0  0  0  0  0
  -24.7810  -28.8870   20.1530 C   0  0  0  0  0  0  0  0  0  0  0  0
  -25.8510  -30.7990   21.3620 C   0  0  0  0  0  2  0  0  0  0  0  0
  -25.9340  -29.4210   20.7420 C   0  0  0  0  0  0  0  0  0  0  0  0
  -27.1360  -28.6870   20.7530 C   0  0  0  0  0  3  0  0  0  0  0  0
  -26.0220  -26.8800   19.5600 C   0  0  0  0  0  3  0  0  0  0  0  0
  -24.8180  -27.6120   19.5600 C   0  0  0  0  0  3  0  0  0  0  0  0
  -23.5380  -29.7470   20.1910 C   0  0  0  0  0  2  0  0  0  0  0  0
  -24.5940  -31.0440   22.1030 N   0  0  0  0  0  0  0  0  0  0  0  0
  -23.4700  -32.1340   23.7410 O   0  0  0  0  0  0  0  0  0  0  0  0
  -22.6760  -29.4320   22.5340 C   0  0  0  0  0  0  0  0  0  0  0  0
  -21.3530  -29.2520   22.3970 N   0  0  0  0  0  0  0  0  0  0  0  0
  -23.3530  -28.8150   23.3610 O   0  0  0  0  0  0  0  0  0  0  0  0
  -20.8700  -29.8070   21.7040 H   0  0  0  0  0  0  0  0  0  0  0  0
  -17.9750  -28.0580   22.8610 C   0  0  0  0  0  0  0  0  0  0  0  0
  -20.5260  -28.3260   23.1690 C   0  0  0  0  0  3  0  0  0  0  0  0
  -20.6410  -26.8850   22.6180 C   0  0  0  0  0  2  0  0  0  0  0  0
  -19.5560  -26.5430   21.5920 C   0  0  0  0  0  2  0  0  0  0  0  0
  -18.1640  -26.6980   22.2110 C   0  0  0  0  0  2  0  0  0  0  0  0
  -19.0850  -28.8290   23.2950 C   0  0  0  0  0  0  0  0  0  0  0  0
  -18.8560  -30.1030   23.8590 C   0  0  0  0  0  3  0  0  0  0  0  0
  -17.5500  -30.6080   23.9940 C   0  0  0  0  0  3  0  0  0  0  0  0
  -16.4530  -29.8340   23.5780 C   0  0  0  0  0  3  0  0  0  0  0  0
  -16.6660  -28.5600   23.0190 C   0  0  0  0  0  3  0  0  0  0  0  0
  -25.8410  -32.4730   23.8190 C   0  0  0  0  0  3  0  0  0  0  0  0
  -25.5400  -33.8690   24.1560 N   0  0  0  0  0  0  0  0  0  0  0  0
  -25.8820  -34.9230   23.4030 C   0  0  0  0  0  0  0  0  0  0  0  0
  -26.5560  -34.8220   22.3740 O   0  0  0  0  0  0  0  0  0  0  0  0
  -24.9460  -34.0210   24.9580 H   0  0  0  0  0  0  0  0  0  0  0  0
  -24.1640  -36.7240   23.0480 C   0  0  0  0  0  1  0  0  0  0  0  0
  -25.3990  -36.3100   23.8640 C   0  0  0  0  0  3  0  0  0  0  0  0
  -27.5310  -37.1770   24.7180 C   0  0  0  0  0  1  0  0  0  0  0  0
  -26.4380  -37.3590   23.7660 N   0  0  0  0  0  0  0  0  0  0  0  0
  -26.0350  -38.2790   23.9210 H   0  0  0  0  0  0  0  0  0  0  0  0
  -26.3660  -31.6920   25.0860 C   0  0  1  0  0  0  0  0  0  0  0  0
  -25.2800  -31.4450   26.1590 C   0  0  0  0  0  1  0  0  0  0  0  0
  -26.9460  -30.3180   24.6730 C   0  0  0  0  0  1  0  0  0  0  0  0
  -27.5180  -32.4810   25.7520 C   0  0  0  0  0  1  0  0  0  0  0  0
  -30.0900  -21.6630   21.3750 C   0  0  0  0  0  2  0  0  0  0  0  0
  -31.0110  -20.5770   21.9750 C   0  0  0  0  0  2  0  0  0  0  0  0
  -30.6800  -18.1010   21.6920 C   0  0  0  0  0  0  0  0  0  0  0  0
  -30.9550  -19.3260   21.2210 N   0  0  0  0  0  0  0  0  0  0  0  0
  -30.2530  -17.8930   22.8290 O   0  0  0  0  0  0  0  0  0  0  0  0
  -31.2880  -19.3720   20.2660 H   0  0  0  0  0  0  0  0  0  0  0  0
  -30.9860  -16.9440   20.7360 C   0  0  0  0  0  2  0  0  0  0  0  0
  -30.4100  -15.5610   21.1460 C   0  0  0  0  0  2  0  0  0  0  0  0
  -30.9030  -14.4390   20.2120 C   0  0  0  0  0  0  0  0  0  0  0  0
  -30.4430  -12.3910   18.9080 C   0  0  0  0  0  2  0  0  0  0  0  0
  -29.4540  -12.7100   17.7680 C   0  0  0  0  0  2  0  0  0  0  0  0
  -28.0000  -12.5950   18.2660 C   0  0  0  0  0  2  0  0  0  0  0  0
  -27.7570  -13.3550   19.5980 C   0  0  0  0  0  3  0  0  0  0  0  0
  -28.8590  -13.0260   20.6330 C   0  0  0  0  0  2  0  0  0  0  0  0
  -30.1620  -13.3140   20.0170 N   0  0  0  0  0  0  0  0  0  0  0  0
  -31.9570  -14.6290   19.6000 O   0  0  0  0  0  0  0  0  0  0  0  0
  -25.3890  -13.9740   20.3970 C   0  0  0  0  0  0  0  0  0  0  0  0
  -24.3300  -13.2060   20.7990 C   0  0  0  0  0  0  0  0  0  0  0  0
  -24.7790  -11.8520   20.7370 C   0  0  0  0  0  0  0  0  0  0  0  0
  -26.4200  -13.0880   20.1230 N   0  0  0  0  0  0  0  0  0  0  0  0
  -26.0550  -11.8050   20.3800 N   0  0  0  0  0  0  0  0  0  0  0  0
  -24.0490  -10.5940   20.9410 C   0  0  0  0  0  0  0  0  0  0  0  0
  -24.4980   -9.6220   21.8630 C   0  0  0  0  0  3  0  0  0  0  0  0
  -23.7690   -8.4290   22.0580 C   0  0  0  0  0  3  0  0  0  0  0  0
  -22.5790   -8.1970   21.3280 C   0  0  0  0  0  0  0  0  0  0  0  0
  -22.1500   -9.1570   20.3950 C   0  0  0  0  0  3  0  0  0  0  0  0
  -22.8780  -10.3430   20.2000 C   0  0  0  0  0  3  0  0  0  0  0  0
  -21.8190   -7.0570   21.4320 O   0  0  0  0  0  0  0  0  0  0  0  0
  -21.7690   -6.3280   22.5930 C   0  0  0  0  0  0  0  0  0  0  0  0
  -21.3630   -6.9040   23.8170 C   0  0  0  0  0  3  0  0  0  0  0  0
  -21.2600   -6.1030   24.9720 C   0  0  0  0  0  3  0  0  0  0  0  0
  -21.5520   -4.7270   24.9040 C   0  0  0  0  0  0  0  0  0  0  0  0
  -21.9520   -4.1520   23.6850 C   0  0  0  0  0  3  0  0  0  0  0  0
  -22.0580   -4.9490   22.5330 C   0  0  0  0  0  0  0  0  0  0  0  0
  -22.4220   -4.3850   21.3560 F   0  0  0  0  0  0  0  0  0  0  0  0
  -21.4470   -3.9550   26.0110 F   0  0  0  0  0  0  0  0  0  0  0  0
  -22.9480  -13.6890   21.1310 C   0  0  0  0  0  0  0  0  0  0  0  0
  -22.2570  -12.9950   22.0280 N   0  0  0  0  0  0  0  0  0  0  0  0
  -22.4930  -14.7190   20.6330 O   0  0  0  0  0  0  0  0  0  0  0  0
  -22.6400  -12.1630   22.4500 H   0  0  0  0  0  0  0  0  0  0  0  0
  -21.3320  -13.3000   22.2970 H   0  0  0  0  0  0  0  0  0  0  0  0
  -25.5560  -15.3460   20.2260 N   0  0  0  0  0  0  0  0  0  0  0  0
  -24.7960  -16.0040   20.3640 H   0  0  0  0  0  0  0  0  0  0  0  0
  -26.4070  -15.7870   19.8990 H   0  0  0  0  0  0  0  0  0  0  0  0
  2  1  1  0
  3  2  1  0
  4  3  1  0
  5  7  1  0
  5  4  1  0
  6 17  2  0
  7 12  1  0
  8 16  1  0
  8 18  1  0
  9 15  1  0
  9 11  1  0
 10 16  1  0
 11 12  2  0
 11 10  1  0
 13 14  1  0
 13  7  2  0
 14  9  2  0
 15  8  1  0
 16  6  1  0
 18 20  2  0
 19 18  1  0
 21 19  1  0
 22 31  2  0
 22 27  1  0
 23 19  1  0
 23 27  1  0
 24 23  1  0
 25 26  1  0
 25 24  1  0
 26 22  1  0
 27 28  2  0
 28 29  1  0
 30 29  2  0
 31 30  1  0
 32  6  1  0
 32 33  1  0
 32 42  1  0
 33 36  1  0
 34 38  1  0
 34 33  1  0
 35 34  2  0
 38 37  1  0
 40 38  1  0
 40 41  1  0
 40 39  1  0
 42 45  1  1
 42 43  1  0
 44 42  1  0
 46  1  1  0
 46 47  1  0
 48 50  2  0
 49 48  1  0
 49 47  1  0
 51 49  1  0
 52 53  1  0
 52 48  1  0
 54 53  1  0
 55 60  1  0
 56 57  1  0
 56 55  1  0
 58 57  1  0
 58 65  1  0
 58 59  1  0
 60 54  1  0
 60 59  1  0
 61 54  2  0
 62 63  2  0
 63 82  1  0
 64 63  1  0
 64 67  1  0
 65 66  1  0
 65 62  1  0
 66 64  2  0
 67 68  1  0
 68 69  2  0
 70 73  1  0
 70 69  1  0
 71 70  2  0
 72 71  1  0
 72 67  2  0
 73 74  1  0
 74 75  1  0
 75 76  2  0
 77 76  1  0
 77 81  1  0
 78 77  2  0
 79 74  2  0
 79 78  1  0
 80 79  1  0
 82 83  1  0
 83 86  1  0
 83 85  1  0
 84 82  2  0
 87 88  1  0
 87 62  1  0
 89 87  1  0
M  ISO  4   4 101   5 101  53 100  54 100
M  END
>  <TORSDO>  (13) 
F 24

>  <SCORE>  (13) 
-12.146

>  <name>  (13) 
12

>  <ligand_id>  (13) 
12

>  <original_smiles>  (13) 
[H]c1c([H])c([H])c2c(c1[H])C([H])([H])C([H])([H])C([H])([H])C2([H])N([H])C(=O)C1([H])N(C(=O)C([H])(N([H])C(=O)C([H])(N([H])C([H])([H])[H])C([H])([H])[H])C(C([H])([H])[H])(C([H])([H])[H])C([H])([H])[H])C([H])([H])c2c([H])c(OC([H])([H])C([H])([H])C([H])([H])C([H])([H])C([H])([H])C([H])([H])N([H])C(=O)C([H])([H])C([H])([H])C(=O)N3C([H])([H])C([H])([H])C([H])([H])C([H])(n4nc(-c5c([H])c([H])c(Oc6c([H])c([H])c(F)c([H])c6F)c([H])c5[H])c(C(=O)N([H])[H])c4N([H])[H])C3([H])[H])c([H])c([H])c2C1([H])[H]

>  <smiles>  (13) 
[H]c1c([H])c([H])c2c(c1[H])C([H])([H])C([H])([H])C([H])([H])C2([H])N([H])C(=O)C1([H])N(C(=O)C([H])(N([H])C(=O)C([H])(N([H])C([H])([H])[H])C([H])([H])[H])C(C([H])([H])[H])(C([H])([H])[H])C([H])([H])[H])C([H])([H])c2c([H])c(OC([H])([H])C([H])([H])C([H])([H])C([H])([H])C([H])([H])C([H])([H])N([H])C(=O)C([H])([H])C([H])([H])C(=O)N3C([H])([H])C([H])([H])C([H])([H])C([H])(n4nc(-c5c([H])c([H])c(Oc6c([H])c([H])c(F)c([H])c6F)c([H])c5[H])c(C(=O)N([H])[H])c4N([H])[H])C3([H])[H])c([H])c([H])c2C1([H])[H]

$$$$
13:0:0
     RDKit          3D

 93101  0  0  1  0  0  0  0  0999 V2000
  -31.1200  -20.2370   19.9820 C   0  0  0  0  0  3  0  0  0  0  0  0
  -31.1690  -21.6240   20.2180 C   0  0  0  0  0  3  0  0  0  0  0  0
  -28.8460  -20.1810   20.8460 C   0  0  0  0  0  3  0  0  0  0  0  0
  -29.9640  -19.5060   20.3190 C   0  0  0  0  0  0  0  0  0  0  0  0
  -30.0640  -22.3050   20.7790 C   0  0  0  0  0  0  0  0  0  0  0  0
  -28.8840  -21.5740   21.0850 C   0  0  0  0  0  0  0  0  0  0  0  0
  -26.7400  -22.8360   20.5900 C   0  0  0  0  0  1  0  0  0  0  0  0
  -27.6380  -22.2270   21.6720 C   0  0  0  0  0  2  0  0  0  0  0  0
  -29.9080  -18.0430   20.1000 C   0  0  0  0  0  0  0  0  0  0  0  0
  -29.3820  -17.5250   19.1100 O   0  0  0  0  0  0  0  0  0  0  0  0
  -30.5360  -17.1810   21.2000 C   0  0  0  0  0  2  0  0  0  0  0  0
  -29.8820  -15.7830   21.3360 C   0  0  0  0  0  2  0  0  0  0  0  0
  -30.5350  -14.6910   20.4650 C   0  0  0  0  0  0  0  0  0  0  0  0
  -30.2860  -12.5520   19.2540 C   0  0  0  0  0  2  0  0  0  0  0  0
  -29.3180  -12.7420   18.0690 C   0  0  0  0  0  2  0  0  0  0  0  0
  -27.8540  -12.5590   18.5160 C   0  0  0  0  0  2  0  0  0  0  0  0
  -27.5120  -13.3790   19.7920 C   0  0  0  0  0  3  0  0  0  0  0  0
  -28.5870  -13.1620   20.8800 C   0  0  0  0  0  2  0  0  0  0  0  0
  -29.8950  -13.5050   20.3030 N   0  0  0  0  0  0  0  0  0  0  0  0
  -31.5980  -14.9480   19.8910 O   0  0  0  0  0  0  0  0  0  0  0  0
  -25.1120  -13.9240   20.5500 C   0  0  0  0  0  0  0  0  0  0  0  0
  -24.0650  -13.1230   20.9190 C   0  0  0  0  0  0  0  0  0  0  0  0
  -24.5510  -11.7820   20.8460 C   0  0  0  0  0  0  0  0  0  0  0  0
  -26.1700  -13.0690   20.2810 N   0  0  0  0  0  0  0  0  0  0  0  0
  -25.8350  -11.7740   20.5130 N   0  0  0  0  0  0  0  0  0  0  0  0
  -23.8510  -10.5020   21.0170 C   0  0  0  0  0  0  0  0  0  0  0  0
  -24.3210   -9.5180   21.9150 C   0  0  0  0  0  3  0  0  0  0  0  0
  -23.6220   -8.3030   22.0750 C   0  0  0  0  0  3  0  0  0  0  0  0
  -22.4400   -8.0610   21.3370 C   0  0  0  0  0  0  0  0  0  0  0  0
  -21.9910   -9.0330   20.4260 C   0  0  0  0  0  3  0  0  0  0  0  0
  -22.6900  -10.2410   20.2630 C   0  0  0  0  0  3  0  0  0  0  0  0
  -21.7100   -6.8990   21.4070 O   0  0  0  0  0  0  0  0  0  0  0  0
  -21.7040   -6.1220   22.5380 C   0  0  0  0  0  0  0  0  0  0  0  0
  -21.3040   -6.6330   23.7930 C   0  0  0  0  0  3  0  0  0  0  0  0
  -21.2450   -5.7810   24.9140 C   0  0  0  0  0  3  0  0  0  0  0  0
  -21.5750   -4.4200   24.7820 C   0  0  0  0  0  0  0  0  0  0  0  0
  -21.9690   -3.9080   23.5330 C   0  0  0  0  0  3  0  0  0  0  0  0
  -22.0300   -4.7570   22.4140 C   0  0  0  0  0  0  0  0  0  0  0  0
  -22.3890   -4.2530   21.2080 F   0  0  0  0  0  0  0  0  0  0  0  0
  -21.5120   -3.5980   25.8560 F   0  0  0  0  0  0  0  0  0  0  0  0
  -22.6640  -13.5650   21.2290 C   0  0  0  0  0  0  0  0  0  0  0  0
  -21.9670  -12.8360   22.0940 N   0  0  0  0  0  0  0  0  0  0  0  0
  -22.1950  -14.5920   20.7400 O   0  0  0  0  0  0  0  0  0  0  0  0
  -22.3580  -12.0030   22.5100 H   0  0  0  0  0  0  0  0  0  0  0  0
  -21.0280  -13.1160   22.3430 H   0  0  0  0  0  0  0  0  0  0  0  0
  -25.2470  -15.3020   20.4040 N   0  0  0  0  0  0  0  0  0  0  0  0
  -24.4690  -15.9390   20.5400 H   0  0  0  0  0  0  0  0  0  0  0  0
  -26.0810  -15.7650   20.0680 H   0  0  0  0  0  0  0  0  0  0  0  0
  -30.2180  -23.7950   21.0960 C   0  0  0  0  0  2  0  0  0  0  0  0
  -29.5780  -24.7640   20.0930 C   0  0  0  0  0  0  0  0  0  0  0  0
  -29.6730  -24.6020   18.8700 O   0  0  0  0  0  0  0  0  0  0  0  0
  -28.8270  -25.9590   20.6920 C   0  0  0  0  0  2  0  0  0  0  0  0
  -28.7410  -27.0380   19.7570 O   0  0  0  0  0  0  0  0  0  0  0  0
  -24.6160  -31.8070   23.0540 C   0  0  0  0  0  0  0  0  0  0  0  0
  -27.5360  -27.6890   19.8040 C   0  0  0  0  0  0  0  0  0  0  0  0
  -23.4990  -30.3920   21.3570 C   0  0  0  0  0  3  0  0  0  0  0  0
  -25.0470  -29.0100   19.8750 C   0  0  0  0  0  0  0  0  0  0  0  0
  -25.9910  -30.9310   21.1700 C   0  0  0  0  0  2  0  0  0  0  0  0
  -26.1670  -29.5950   20.4810 C   0  0  0  0  0  0  0  0  0  0  0  0
  -27.4180  -28.9410   20.4430 C   0  0  0  0  0  3  0  0  0  0  0  0
  -26.4040  -27.1070   19.1980 C   0  0  0  0  0  3  0  0  0  0  0  0
  -25.1590  -27.7630   19.2310 C   0  0  0  0  0  3  0  0  0  0  0  0
  -23.7480  -29.7790   19.9530 C   0  0  0  0  0  2  0  0  0  0  0  0
  -24.7200  -31.0560   21.9210 N   0  0  0  0  0  0  0  0  0  0  0  0
  -23.5210  -31.9860   23.6050 O   0  0  0  0  0  0  0  0  0  0  0  0
  -22.9190  -29.2950   22.2770 C   0  0  0  0  0  0  0  0  0  0  0  0
  -21.6040  -29.0480   22.1590 N   0  0  0  0  0  0  0  0  0  0  0  0
  -23.6480  -28.6700   23.0530 O   0  0  0  0  0  0  0  0  0  0  0  0
  -21.0750  -29.6110   21.5090 H   0  0  0  0  0  0  0  0  0  0  0  0
  -18.3020  -27.6690   22.6520 C   0  0  0  0  0  0  0  0  0  0  0  0
  -20.8500  -28.0340   22.8940 C   0  0  0  0  0  3  0  0  0  0  0  0
  -21.0070  -26.6410   22.2410 C   0  0  0  0  0  2  0  0  0  0  0  0
  -19.9010  -26.3190   21.2300 C   0  0  0  0  0  2  0  0  0  0  0  0
  -18.5270  -26.3660   21.9060 C   0  0  0  0  0  2  0  0  0  0  0  0
  -19.3910  -28.4610   23.1020 C   0  0  0  0  0  0  0  0  0  0  0  0
  -19.1260  -29.6820   23.7600 C   0  0  0  0  0  3  0  0  0  0  0  0
  -17.8030  -30.1120   23.9720 C   0  0  0  0  0  3  0  0  0  0  0  0
  -16.7270  -29.3170   23.5390 C   0  0  0  0  0  3  0  0  0  0  0  0
  -16.9770  -28.0970   22.8840 C   0  0  0  0  0  3  0  0  0  0  0  0
  -25.8610  -32.4930   23.6980 C   0  0  0  0  0  3  0  0  0  0  0  0
  -25.4700  -33.8590   24.0690 N   0  0  0  0  0  0  0  0  0  0  0  0
  -25.7440  -34.9520   23.3440 C   0  0  0  0  0  0  0  0  0  0  0  0
  -26.4240  -34.9200   22.3150 O   0  0  0  0  0  0  0  0  0  0  0  0
  -24.8620  -33.9530   24.8700 H   0  0  0  0  0  0  0  0  0  0  0  0
  -23.9110  -36.6450   23.0340 C   0  0  0  0  0  1  0  0  0  0  0  0
  -25.1710  -36.2940   23.8390 C   0  0  0  0  0  3  0  0  0  0  0  0
  -27.2500  -37.2790   24.7000 C   0  0  0  0  0  1  0  0  0  0  0  0
  -26.1370  -37.4110   23.7620 N   0  0  0  0  0  0  0  0  0  0  0  0
  -25.6770  -38.2990   23.9420 H   0  0  0  0  0  0  0  0  0  0  0  0
  -26.4260  -31.7130   24.9480 C   0  0  1  0  0  0  0  0  0  0  0  0
  -25.3530  -31.3770   26.0080 C   0  0  0  0  0  1  0  0  0  0  0  0
  -27.0860  -30.3850   24.5080 C   0  0  0  0  0  1  0  0  0  0  0  0
  -27.5300  -32.5510   25.6340 C   0  0  0  0  0  1  0  0  0  0  0  0
  1  2  2  0
  1  4  1  0
  2  5  1  0
  3  6  1  0
  4  3  2  0
  5  6  2  0
  5 49  1  0
  6  8  1  0
  7  8  1  0
  9  4  1  0
  9 11  1  0
 10  9  2  0
 11 12  1  0
 13 12  1  0
 14 19  1  0
 15 16  1  0
 15 14  1  0
 17 16  1  0
 17 24  1  0
 17 18  1  0
 19 13  1  0
 19 18  1  0
 20 13  2  0
 21 22  2  0
 22 41  1  0
 23 22  1  0
 23 26  1  0
 24 25  1  0
 24 21  1  0
 25 23  2  0
 26 27  1  0
 27 28  2  0
 29 32  1  0
 29 28  1  0
 30 29  2  0
 31 30  1  0
 31 26  2  0
 32 33  1  0
 33 34  1  0
 34 35  2  0
 36 35  1  0
 36 40  1  0
 37 36  2  0
 38 33  2  0
 38 37  1  0
 39 38  1  0
 41 42  1  0
 42 45  1  0
 42 44  1  0
 43 41  2  0
 46 47  1  0
 46 21  1  0
 48 46  1  0
 50 52  1  0
 50 49  1  0
 51 50  2  0
 53 55  1  0
 53 52  1  0
 54 65  2  0
 55 60  1  0
 56 64  1  0
 56 66  1  0
 57 63  1  0
 57 59  1  0
 58 64  1  0
 59 58  1  0
 60 59  2  0
 61 62  1  0
 61 55  2  0
 62 57  2  0
 63 56  1  0
 64 54  1  0
 66 68  2  0
 67 66  1  0
 69 67  1  0
 70 79  2  0
 70 75  1  0
 71 67  1  0
 71 75  1  0
 72 71  1  0
 73 74  1  0
 73 72  1  0
 74 70  1  0
 75 76  2  0
 76 77  1  0
 78 77  2  0
 79 78  1  0
 80 54  1  0
 80 81  1  0
 80 90  1  0
 81 84  1  0
 82 86  1  0
 82 81  1  0
 83 82  2  0
 86 85  1  0
 88 86  1  0
 88 89  1  0
 88 87  1  0
 90 93  1  1
 90 91  1  0
 92 90  1  0
M  ISO  4  12 100  13 100  52 101  53 101
M  END
>  <TORSDO>  (14) 
F 23

>  <SCORE>  (14) 
-12.530

>  <name>  (14) 
13

>  <ligand_id>  (14) 
13

>  <original_smiles>  (14) 
[H]c1c([H])c([H])c2c(c1[H])C([H])([H])C([H])([H])C([H])([H])C2([H])N([H])C(=O)C1([H])N(C(=O)C([H])(N([H])C(=O)C([H])(N([H])C([H])([H])[H])C([H])([H])[H])C(C([H])([H])[H])(C([H])([H])[H])C([H])([H])[H])C([H])([H])c2c([H])c(OC([H])([H])C(=O)C([H])([H])c3c([H])c([H])c(C(=O)C([H])([H])C([H])([H])C(=O)N4C([H])([H])C([H])([H])C([H])([H])C([H])(n5nc(-c6c([H])c([H])c(Oc7c([H])c([H])c(F)c([H])c7F)c([H])c6[H])c(C(=O)N([H])[H])c5N([H])[H])C4([H])[H])c([H])c3C([H])([H])C([H])([H])[H])c([H])c([H])c2C1([H])[H]

>  <smiles>  (14) 
[H]c1c([H])c([H])c2c(c1[H])C([H])([H])C([H])([H])C([H])([H])C2([H])N([H])C(=O)C1([H])N(C(=O)C([H])(N([H])C(=O)C([H])(N([H])C([H])([H])[H])C([H])([H])[H])C(C([H])([H])[H])(C([H])([H])[H])C([H])([H])[H])C([H])([H])c2c([H])c(OC([H])([H])C(=O)C([H])([H])c3c([H])c([H])c(C(=O)C([H])([H])C([H])([H])C(=O)N4C([H])([H])C([H])([H])C([H])([H])C([H])(n5nc(-c6c([H])c([H])c(Oc7c([H])c([H])c(F)c([H])c7F)c([H])c6[H])c(C(=O)N([H])[H])c5N([H])[H])C4([H])[H])c([H])c3C([H])([H])C([H])([H])[H])c([H])c([H])c2C1([H])[H]

$$$$
14:0:0
     RDKit          3D

 94102  0  0  1  0  0  0  0  0999 V2000
  -29.1660  -20.2190   21.1000 C   0  0  0  0  0  3  0  0  0  0  0  0
  -31.1190  -20.4000   22.5360 C   0  0  0  0  0  3  0  0  0  0  0  0
  -29.4890  -18.8760   20.8230 C   0  0  0  0  0  3  0  0  0  0  0  0
  -31.4540  -19.0620   22.2480 C   0  0  0  0  0  3  0  0  0  0  0  0
  -30.0010  -21.0070   21.9240 C   0  0  0  0  0  0  0  0  0  0  0  0
  -30.6700  -18.3070   21.3500 C   0  0  0  0  0  0  0  0  0  0  0  0
  -29.8340  -22.4660   22.0400 C   0  0  0  0  0  3  0  0  0  0  0  0
  -29.2130  -23.2340   21.1210 C   0  0  0  0  0  3  0  0  0  0  0  0
  -29.1080  -24.6960   21.2300 C   0  0  0  0  0  0  0  0  0  0  0  0
  -29.5840  -25.3480   22.1670 O   0  0  0  0  0  0  0  0  0  0  0  0
  -28.3570  -25.3930   20.0910 C   0  0  0  0  0  2  0  0  0  0  0  0
  -28.4410  -26.8210   20.1950 O   0  0  0  0  0  0  0  0  0  0  0  0
  -24.5920  -31.9280   23.2510 C   0  0  0  0  0  0  0  0  0  0  0  0
  -27.2580  -27.5260   20.1560 C   0  0  0  0  0  0  0  0  0  0  0  0
  -23.3960  -30.5350   21.5940 C   0  0  0  0  0  3  0  0  0  0  0  0
  -24.8590  -29.0200   20.1610 C   0  0  0  0  0  0  0  0  0  0  0  0
  -25.9190  -30.9070   21.4080 C   0  0  0  0  0  2  0  0  0  0  0  0
  -26.0100  -29.5430   20.7610 C   0  0  0  0  0  0  0  0  0  0  0  0
  -27.2110  -28.8020   20.7570 C   0  0  0  0  0  3  0  0  0  0  0  0
  -26.0920  -27.0260   19.5280 C   0  0  0  0  0  3  0  0  0  0  0  0
  -24.8940  -27.7600   19.5410 C   0  0  0  0  0  3  0  0  0  0  0  0
  -23.6100  -29.8700   20.2090 C   0  0  0  0  0  2  0  0  0  0  0  0
  -24.6540  -31.1380   22.1430 N   0  0  0  0  0  0  0  0  0  0  0  0
  -23.5090  -32.1940   23.7890 O   0  0  0  0  0  0  0  0  0  0  0  0
  -22.7480  -29.5020   22.5430 C   0  0  0  0  0  0  0  0  0  0  0  0
  -21.4260  -29.3120   22.4060 N   0  0  0  0  0  0  0  0  0  0  0  0
  -23.4300  -28.8750   23.3580 O   0  0  0  0  0  0  0  0  0  0  0  0
  -20.9370  -29.8720   21.7220 H   0  0  0  0  0  0  0  0  0  0  0  0
  -18.0540  -28.1000   22.8690 C   0  0  0  0  0  0  0  0  0  0  0  0
  -20.6080  -28.3670   23.1650 C   0  0  0  0  0  3  0  0  0  0  0  0
  -20.7220  -26.9400   22.5800 C   0  0  0  0  0  2  0  0  0  0  0  0
  -19.6290  -26.6190   21.5540 C   0  0  0  0  0  2  0  0  0  0  0  0
  -18.2420  -26.7550   22.1890 C   0  0  0  0  0  2  0  0  0  0  0  0
  -19.1660  -28.8640   23.3120 C   0  0  0  0  0  0  0  0  0  0  0  0
  -18.9380  -30.1240   23.9070 C   0  0  0  0  0  3  0  0  0  0  0  0
  -17.6310  -30.6210   24.0640 C   0  0  0  0  0  3  0  0  0  0  0  0
  -16.5330  -29.8540   23.6380 C   0  0  0  0  0  3  0  0  0  0  0  0
  -16.7460  -28.5950   23.0470 C   0  0  0  0  0  3  0  0  0  0  0  0
  -25.8760  -32.5570   23.8790 C   0  0  0  0  0  3  0  0  0  0  0  0
  -25.5670  -33.9540   24.2090 N   0  0  0  0  0  0  0  0  0  0  0  0
  -25.9010  -35.0060   23.4490 C   0  0  0  0  0  0  0  0  0  0  0  0
  -26.5740  -34.9030   22.4200 O   0  0  0  0  0  0  0  0  0  0  0  0
  -24.9680  -34.1080   25.0070 H   0  0  0  0  0  0  0  0  0  0  0  0
  -24.1680  -36.7930   23.0890 C   0  0  0  0  0  1  0  0  0  0  0  0
  -25.4080  -36.3930   23.9040 C   0  0  0  0  0  3  0  0  0  0  0  0
  -27.5370  -37.2830   24.7420 C   0  0  0  0  0  1  0  0  0  0  0  0
  -26.4390  -37.4480   23.7940 N   0  0  0  0  0  0  0  0  0  0  0  0
  -26.0320  -38.3680   23.9400 H   0  0  0  0  0  0  0  0  0  0  0  0
  -26.3880  -31.7830   25.1550 C   0  0  1  0  0  0  0  0  0  0  0  0
  -25.2900  -31.5420   26.2160 C   0  0  0  0  0  1  0  0  0  0  0  0
  -26.9730  -30.4060   24.7570 C   0  0  0  0  0  1  0  0  0  0  0  0
  -27.5350  -32.5750   25.8250 C   0  0  0  0  0  1  0  0  0  0  0  0
  -31.2030  -16.9870   20.8000 C   0  0  0  0  0  3  0  0  0  0  0  0
  -31.7050  -17.2790   19.4410 N   0  0  0  0  0  4  0  0  0  0  0  0
  -30.9780  -17.6180   18.8370 H   0  0  0  0  0  0  0  0  0  0  0  0
  -32.0790  -16.4180   19.0670 H   0  0  0  0  0  0  0  0  0  0  0  0
  -32.4400  -17.9630   19.4800 H   0  0  0  0  0  0  0  0  0  0  0  0
  -30.2280  -15.7630   20.8820 C   0  0  0  0  0  2  0  0  0  0  0  0
  -30.7910  -14.4880   20.2110 C   0  0  0  0  0  0  0  0  0  0  0  0
  -30.3560  -12.3730   19.0380 C   0  0  0  0  0  2  0  0  0  0  0  0
  -29.3970  -12.6300   17.8600 C   0  0  0  0  0  2  0  0  0  0  0  0
  -27.9360  -12.5080   18.3330 C   0  0  0  0  0  2  0  0  0  0  0  0
  -27.6470  -13.3390   19.6120 C   0  0  0  0  0  3  0  0  0  0  0  0
  -28.7330  -13.1160   20.6900 C   0  0  0  0  0  2  0  0  0  0  0  0
  -30.0490  -13.3580   20.0870 N   0  0  0  0  0  0  0  0  0  0  0  0
  -31.8940  -14.5850   19.6670 O   0  0  0  0  0  0  0  0  0  0  0  0
  -25.2700  -13.9490   20.3870 C   0  0  0  0  0  0  0  0  0  0  0  0
  -24.2110  -13.1790   20.7850 C   0  0  0  0  0  0  0  0  0  0  0  0
  -24.6690  -11.8270   20.7450 C   0  0  0  0  0  0  0  0  0  0  0  0
  -26.3080  -13.0670   20.1300 N   0  0  0  0  0  0  0  0  0  0  0  0
  -25.9510  -11.7850   20.4040 N   0  0  0  0  0  0  0  0  0  0  0  0
  -23.9470  -10.5660   20.9570 C   0  0  0  0  0  0  0  0  0  0  0  0
  -24.4020   -9.5990   21.8800 C   0  0  0  0  0  3  0  0  0  0  0  0
  -23.6790   -8.4030   22.0810 C   0  0  0  0  0  3  0  0  0  0  0  0
  -22.4860   -8.1640   21.3560 C   0  0  0  0  0  0  0  0  0  0  0  0
  -22.0510   -9.1200   20.4210 C   0  0  0  0  0  3  0  0  0  0  0  0
  -22.7740  -10.3070   20.2190 C   0  0  0  0  0  3  0  0  0  0  0  0
  -21.7340   -7.0210   21.4650 O   0  0  0  0  0  0  0  0  0  0  0  0
  -21.7090   -6.2820   22.6200 C   0  0  0  0  0  0  0  0  0  0  0  0
  -21.3050   -6.8390   23.8530 C   0  0  0  0  0  3  0  0  0  0  0  0
  -21.2290   -6.0260   25.0010 C   0  0  0  0  0  3  0  0  0  0  0  0
  -21.5470   -4.6580   24.9200 C   0  0  0  0  0  0  0  0  0  0  0  0
  -21.9450   -4.1000   23.6920 C   0  0  0  0  0  3  0  0  0  0  0  0
  -22.0230   -4.9090   22.5450 C   0  0  0  0  0  0  0  0  0  0  0  0
  -22.3860   -4.3620   21.3600 F   0  0  0  0  0  0  0  0  0  0  0  0
  -21.4670   -3.8750   26.0210 F   0  0  0  0  0  0  0  0  0  0  0  0
  -22.8210  -13.6590   21.0930 C   0  0  0  0  0  0  0  0  0  0  0  0
  -22.1170  -12.9650   21.9810 N   0  0  0  0  0  0  0  0  0  0  0  0
  -22.3710  -14.6830   20.5820 O   0  0  0  0  0  0  0  0  0  0  0  0
  -22.4950  -12.1360   22.4140 H   0  0  0  0  0  0  0  0  0  0  0  0
  -21.1860  -13.2670   22.2300 H   0  0  0  0  0  0  0  0  0  0  0  0
  -25.4360  -15.3190   20.2040 N   0  0  0  0  0  0  0  0  0  0  0  0
  -24.6770  -15.9790   20.3390 H   0  0  0  0  0  0  0  0  0  0  0  0
  -26.2870  -15.7570   19.8740 H   0  0  0  0  0  0  0  0  0  0  0  0
  1  5  1  0
  3  1  2  0
  3  6  1  0
  4  2  1  0
  5  7  1  0
  5  2  2  0
  6  4  2  0
  8  9  1  0
  8  7  2  0
  9 10  2  0
 11 12  1  0
 11  9  1  0
 13 24  2  0
 14 12  1  0
 14 19  1  0
 15 23  1  0
 15 25  1  0
 16 22  1  0
 16 18  1  0
 17 23  1  0
 18 17  1  0
 19 18  2  0
 20 21  1  0
 20 14  2  0
 21 16  2  0
 22 15  1  0
 23 13  1  0
 25 27  2  0
 26 25  1  0
 28 26  1  0
 29 38  2  0
 29 34  1  0
 30 26  1  0
 30 34  1  0
 31 30  1  0
 32 33  1  0
 32 31  1  0
 33 29  1  0
 34 35  2  0
 35 36  1  0
 37 36  2  0
 38 37  1  0
 39 13  1  0
 39 40  1  0
 39 49  1  0
 40 43  1  0
 41 45  1  0
 41 40  1  0
 42 41  2  0
 45 44  1  0
 47 45  1  0
 47 48  1  0
 47 46  1  0
 49 52  1  1
 49 50  1  0
 51 49  1  0
 53 58  1  0
 53  6  1  0
 54 57  1  0
 54 53  1  0
 55 54  1  0
 56 54  1  0
 59 58  1  0
 60 65  1  0
 61 62  1  0
 61 60  1  0
 63 62  1  0
 63 70  1  0
 63 64  1  0
 65 59  1  0
 65 64  1  0
 66 59  2  0
 67 68  2  0
 68 87  1  0
 69 68  1  0
 69 72  1  0
 70 67  1  0
 70 71  1  0
 71 69  2  0
 72 73  1  0
 73 74  2  0
 75 78  1  0
 75 74  1  0
 76 75  2  0
 77 76  1  0
 77 72  2  0
 78 79  1  0
 79 80  1  0
 80 81  2  0
 82 81  1  0
 82 86  1  0
 83 82  2  0
 84 79  2  0
 84 83  1  0
 85 84  1  0
 87 88  1  0
 88 91  1  0
 88 90  1  0
 89 87  2  0
 92 93  1  0
 92 67  1  0
 94 92  1  0
M  ISO  4  11 101  12 101  58 100  59 100
M  END
>  <TORSDO>  (15) 
F 22

>  <SCORE>  (15) 
-13.495

>  <name>  (15) 
14

>  <ligand_id>  (15) 
14

>  <original_smiles>  (15) 
[H]C(C(=O)C([H])([H])Oc1c([H])c([H])c2c(c1[H])C([H])([H])N(C(=O)C([H])(N([H])C(=O)C([H])(N([H])C([H])([H])[H])C([H])([H])[H])C(C([H])([H])[H])(C([H])([H])[H])C([H])([H])[H])C([H])(C(=O)N([H])C1([H])c3c([H])c([H])c([H])c([H])c3C([H])([H])C([H])([H])C1([H])[H])C2([H])[H])=C([H])c1c([H])c([H])c(C([H])(C([H])([H])C(=O)N2C([H])([H])C([H])([H])C([H])([H])C([H])(n3nc(-c4c([H])c([H])c(Oc5c([H])c([H])c(F)c([H])c5F)c([H])c4[H])c(C(=O)N([H])[H])c3N([H])[H])C2([H])[H])[N+]([H])([H])[H])c([H])c1[H]

>  <smiles>  (15) 
[H]C(C(=O)C([H])([H])Oc1c([H])c([H])c2c(c1[H])C([H])([H])N(C(=O)C([H])(N([H])C(=O)C([H])(N([H])C([H])([H])[H])C([H])([H])[H])C(C([H])([H])[H])(C([H])([H])[H])C([H])([H])[H])C([H])(C(=O)N([H])C1([H])c3c([H])c([H])c([H])c([H])c3C([H])([H])C([H])([H])C1([H])[H])C2([H])[H])=C([H])c1c([H])c([H])c(C([H])(C([H])([H])C(=O)N2C([H])([H])C([H])([H])C([H])([H])C([H])(n3nc(-c4c([H])c([H])c(Oc5c([H])c([H])c(F)c([H])c5F)c([H])c4[H])c(C(=O)N([H])[H])c3N([H])[H])C2([H])[H])[N+]([H])([H])[H])c([H])c1[H]

$$$$
15:0:0
     RDKit          3D

 82 86  0  0  1  0  0  0  0  0999 V2000
  -28.1560  -25.0650   20.3430 O   0  0  0  0  0  1  0  0  0  0  0  0
  -24.7070  -31.7970   23.1620 C   0  0  0  0  0  0  0  0  0  0  0  0
  -27.2420  -26.4380   20.2150 C   0  0  0  0  0  0  0  0  0  0  0  0
  -23.5390  -30.3810   21.5320 C   0  0  0  0  0  3  0  0  0  0  0  0
  -24.9990  -28.6730   20.1380 C   0  0  0  0  0  0  0  0  0  0  0  0
  -26.1290  -30.4360   21.4550 C   0  0  0  0  0  2  0  0  0  0  0  0
  -26.1940  -28.9680   20.8000 C   0  0  0  0  0  0  0  0  0  0  0  0
  -27.2770  -27.8870   20.8060 C   0  0  0  0  0  3  0  0  0  0  0  0
  -26.0150  -26.4460   19.4750 C   0  0  0  0  0  3  0  0  0  0  0  0
  -24.9680  -27.4430   19.4500 C   0  0  0  0  0  3  0  0  0  0  0  0
  -23.8000  -29.6560   20.1730 C   0  0  0  0  0  2  0  0  0  0  0  0
  -24.8190  -30.9140   22.1010 N   0  0  0  0  0  0  0  0  0  0  0  0
  -23.6060  -32.1090   23.6520 O   0  0  0  0  0  0  0  0  0  0  0  0
  -22.7930  -29.4350   22.5140 C   0  0  0  0  0  0  0  0  0  0  0  0
  -21.4560  -29.3030   22.3970 N   0  0  0  0  0  0  0  0  0  0  0  0
  -23.4360  -28.8120   23.3620 O   0  0  0  0  0  0  0  0  0  0  0  0
  -20.9820  -29.8530   21.6960 H   0  0  0  0  0  0  0  0  0  0  0  0
  -18.0620  -28.0930   22.9280 C   0  0  0  0  0  0  0  0  0  0  0  0
  -20.6240  -28.3710   23.1750 C   0  0  0  0  0  3  0  0  0  0  0  0
  -20.7230  -26.9360   22.6080 C   0  0  0  0  0  2  0  0  0  0  0  0
  -19.6200  -26.6100   21.5960 C   0  0  0  0  0  2  0  0  0  0  0  0
  -18.2400  -26.7480   22.2440 C   0  0  0  0  0  2  0  0  0  0  0  0
  -19.1790  -28.8630   23.3490 C   0  0  0  0  0  0  0  0  0  0  0  0
  -18.9530  -30.1170   23.9560 C   0  0  0  0  0  3  0  0  0  0  0  0
  -17.6450  -30.6040   24.1400 C   0  0  0  0  0  3  0  0  0  0  0  0
  -16.5440  -29.8340   23.7290 C   0  0  0  0  0  3  0  0  0  0  0  0
  -16.7530  -28.5790   23.1290 C   0  0  0  0  0  3  0  0  0  0  0  0
  -25.9520  -32.4720   23.8160 C   0  0  0  0  0  3  0  0  0  0  0  0
  -25.6100  -33.8710   24.1560 N   0  0  0  0  0  0  0  0  0  0  0  0
  -25.9330  -34.9520   23.4310 C   0  0  0  0  0  0  0  0  0  0  0  0
  -26.5990  -34.8750   22.3960 O   0  0  0  0  0  0  0  0  0  0  0  0
  -25.0130  -34.0010   24.9590 H   0  0  0  0  0  0  0  0  0  0  0  0
  -24.1840  -36.7500   23.1520 C   0  0  0  0  0  1  0  0  0  0  0  0
  -25.4460  -36.3330   23.9260 C   0  0  0  0  0  3  0  0  0  0  0  0
  -27.5890  -37.2350   24.7240 C   0  0  0  0  0  1  0  0  0  0  0  0
  -26.4670  -37.4000   23.8060 N   0  0  0  0  0  0  0  0  0  0  0  0
  -26.0540  -38.3140   23.9700 H   0  0  0  0  0  0  0  0  0  0  0  0
  -26.4440  -31.7240   25.1190 C   0  0  1  0  0  0  0  0  0  0  0  0
  -25.3310  -31.5030   26.1720 C   0  0  0  0  0  1  0  0  0  0  0  0
  -27.0380  -30.3400   24.7800 C   0  0  0  0  0  1  0  0  0  0  0  0
  -27.5810  -32.5320   25.7890 C   0  0  0  0  0  1  0  0  0  0  0  0
  -28.3020  -23.2030   19.8280 C   0  0  0  0  0 15  0  0  0  0  0  0
  -28.7560  -21.3090   20.4610 C   0  0  0  0  0  2  0  0  0  0  0  0
  -28.5220  -21.3080   21.6720 O   0  0  0  0  0  0  0  0  0  0  0  0
  -29.3890  -19.4880   19.9740 C   0  0  0  0  0  1  0  0  0  0  0  0
  -29.3870  -17.8800   20.3150 C   0  0  0  0  0  2  0  0  0  0  0  0
  -30.1210  -16.2030   20.0160 C   0  0  0  0  0  0  0  0  0  0  0  0
  -30.3200  -13.5200   19.2750 C   0  0  0  0  0  2  0  0  0  0  0  0
  -29.4560  -12.9240   18.1070 C   0  0  0  0  0  2  0  0  0  0  0  0
  -28.0800  -12.4680   18.6020 C   0  0  0  0  0  2  0  0  0  0  0  0
  -27.5290  -13.4900   19.6130 C   0  0  0  0  0  3  0  0  0  0  0  0
  -28.5470  -13.9890   20.6830 C   0  0  0  0  0  2  0  0  0  0  0  0
  -29.6560  -14.7450   20.0080 N   0  0  0  0  0  0  0  0  0  0  0  0
  -31.3340  -16.0270   19.7400 O   0  0  0  0  0  0  0  0  0  0  0  0
  -25.2010  -13.9700   20.4650 C   0  0  0  0  0  0  0  0  0  0  0  0
  -24.1550  -13.1820   20.8490 C   0  0  0  0  0  0  0  0  0  0  0  0
  -24.6260  -11.8330   20.7800 C   0  0  0  0  0  0  0  0  0  0  0  0
  -26.2400  -13.1100   20.1750 N   0  0  0  0  0  0  0  0  0  0  0  0
  -25.9110  -11.8120   20.4280 N   0  0  0  0  0  0  0  0  0  0  0  0
  -23.8980  -10.5690   20.9730 C   0  0  0  0  0  0  0  0  0  0  0  0
  -24.3440   -9.5850   21.8830 C   0  0  0  0  0  3  0  0  0  0  0  0
  -23.6100   -8.3940   22.0700 C   0  0  0  0  0  3  0  0  0  0  0  0
  -22.4130   -8.1750   21.3460 C   0  0  0  0  0  0  0  0  0  0  0  0
  -21.9830   -9.1470   20.4260 C   0  0  0  0  0  3  0  0  0  0  0  0
  -22.7180  -10.3300   20.2380 C   0  0  0  0  0  3  0  0  0  0  0  0
  -21.6490   -7.0370   21.4430 O   0  0  0  0  0  0  0  0  0  0  0  0
  -21.6240   -6.2790   22.5870 C   0  0  0  0  0  0  0  0  0  0  0  0
  -21.2370   -6.8240   23.8310 C   0  0  0  0  0  3  0  0  0  0  0  0
  -21.1570   -5.9950   24.9680 C   0  0  0  0  0  3  0  0  0  0  0  0
  -21.4560   -4.6230   24.8630 C   0  0  0  0  0  0  0  0  0  0  0  0
  -21.8350   -4.0790   23.6240 C   0  0  0  0  0  3  0  0  0  0  0  0
  -21.9160   -4.9040   22.4890 C   0  0  0  0  0  0  0  0  0  0  0  0
  -22.2620   -4.3690   21.2930 F   0  0  0  0  0  0  0  0  0  0  0  0
  -21.3730   -3.8250   25.9530 F   0  0  0  0  0  0  0  0  0  0  0  0
  -22.7660  -13.6560   21.1580 C   0  0  0  0  0  0  0  0  0  0  0  0
  -22.0590  -12.9540   22.0350 N   0  0  0  0  0  0  0  0  0  0  0  0
  -22.3210  -14.6890   20.6580 O   0  0  0  0  0  0  0  0  0  0  0  0
  -22.4350  -12.1210   22.4610 H   0  0  0  0  0  0  0  0  0  0  0  0
  -21.1280  -13.2550   22.2850 H   0  0  0  0  0  0  0  0  0  0  0  0
  -25.3520  -15.3440   20.3020 N   0  0  0  0  0  0  0  0  0  0  0  0
  -24.5870  -15.9930   20.4490 H   0  0  0  0  0  0  0  0  0  0  0  0
  -26.1920  -15.7920   19.9600 H   0  0  0  0  0  0  0  0  0  0  0  0
  2 13  2  0
  3  1  1  0
  3  8  1  0
  4 12  1  0
  4 14  1  0
  5 11  1  0
  5  7  1  0
  6 12  1  0
  7  8  2  0
  7  6  1  0
  9  3  2  0
 10  9  1  0
 10  5  2  0
 11  4  1  0
 12  2  1  0
 14 16  2  0
 15 14  1  0
 17 15  1  0
 18 27  2  0
 18 23  1  0
 19 15  1  0
 19 23  1  0
 20 19  1  0
 21 22  1  0
 21 20  1  0
 22 18  1  0
 23 24  2  0
 24 25  1  0
 26 25  2  0
 27 26  1  0
 28  2  1  0
 28 29  1  0
 28 38  1  0
 29 32  1  0
 30 34  1  0
 30 29  1  0
 31 30  2  0
 34 33  1  0
 36 34  1  0
 36 37  1  0
 36 35  1  0
 38 41  1  1
 38 39  1  0
 40 38  1  0
 43 44  2  0
 45 46  1  0
 47 46  1  0
 48 53  1  0
 49 50  1  0
 49 48  1  0
 51 50  1  0
 51 58  1  0
 51 52  1  0
 53 47  1  0
 53 52  1  0
 54 47  2  0
 55 56  2  0
 56 75  1  0
 57 56  1  0
 57 60  1  0
 58 59  1  0
 58 55  1  0
 59 57  2  0
 60 61  1  0
 61 62  2  0
 63 66  1  0
 63 62  1  0
 64 63  2  0
 65 64  1  0
 65 60  2  0
 66 67  1  0
 67 68  1  0
 68 69  2  0
 70 69  1  0
 70 74  1  0
 71 70  2  0
 72 67  2  0
 72 71  1  0
 73 72  1  0
 75 76  1  0
 76 79  1  0
 76 78  1  0
 77 75  2  0
 80 81  1  0
 80 55  1  0
 82 80  1  0
M  ISO  4   1 101  42 101  46 100  47 100
M  END
>  <TORSDO>  (16) 
F 18

>  <SCORE>  (16) 
-16.519

>  <name>  (16) 
15

>  <ligand_id>  (16) 
15

>  <original_smiles>  (16) 
[H]C(C(=O)N1C([H])([H])C([H])([H])C([H])([H])C([H])(n2nc(-c3c([H])c([H])c(Oc4c([H])c([H])c(F)c([H])c4F)c([H])c3[H])c(C(=O)N([H])[H])c2N([H])[H])C1([H])[H])=C([H])C(=O)C([H])([H])Oc1c([H])c([H])c2c(c1[H])C([H])([H])N(C(=O)C([H])(N([H])C(=O)C([H])(N([H])C([H])([H])[H])C([H])([H])[H])C(C([H])([H])[H])(C([H])([H])[H])C([H])([H])[H])C([H])(C(=O)N([H])C1([H])c3c([H])c([H])c([H])c([H])c3C([H])([H])C([H])([H])C1([H])[H])C2([H])[H]

>  <smiles>  (16) 
[H]C(C(=O)N1C([H])([H])C([H])([H])C([H])([H])C([H])(n2nc(-c3c([H])c([H])c(Oc4c([H])c([H])c(F)c([H])c4F)c([H])c3[H])c(C(=O)N([H])[H])c2N([H])[H])C1([H])[H])=C([H])C(=O)C([H])([H])Oc1c([H])c([H])c2c(c1[H])C([H])([H])N(C(=O)C([H])(N([H])C(=O)C([H])(N([H])C([H])([H])[H])C([H])([H])[H])C(C([H])([H])[H])(C([H])([H])[H])C([H])([H])[H])C([H])(C(=O)N([H])C1([H])c3c([H])c([H])c([H])c([H])c3C([H])([H])C([H])([H])C1([H])[H])C2([H])[H]

$$$$
16:0:0
     RDKit          3D

 90 98  0  0  1  0  0  0  0  0999 V2000
  -30.9780  -20.1250   22.2050 C   0  0  0  0  0  3  0  0  0  0  0  0
  -30.5910  -18.8460   21.7490 C   0  0  0  0  0  3  0  0  0  0  0  0
  -30.4280  -21.3070   21.6640 C   0  0  0  0  0  3  0  0  0  0  0  0
  -29.0900  -19.9350   20.1800 C   0  0  0  0  0  3  0  0  0  0  0  0
  -29.6190  -18.6910   20.7370 C   0  0  0  0  0  0  0  0  0  0  0  0
  -29.4770  -21.2650   20.6230 C   0  0  0  0  0  0  0  0  0  0  0  0
  -29.5520  -15.9530   20.3240 C   0  0  0  0  0  0  0  0  0  0  0  0
  -29.0950  -17.2740   20.3760 C   0  0  0  0  0  0  0  0  0  0  0  0
  -30.5480  -14.8030   20.3220 C   0  0  0  0  0  0  0  0  0  0  0  0
  -30.4010  -12.5070   19.3450 C   0  0  0  0  0  2  0  0  0  0  0  0
  -29.4600  -12.5820   18.1180 C   0  0  0  0  0  2  0  0  0  0  0  0
  -27.9870  -12.4050   18.5420 C   0  0  0  0  0  2  0  0  0  0  0  0
  -27.6070  -13.2960   19.7520 C   0  0  0  0  0  3  0  0  0  0  0  0
  -28.6630  -13.2030   20.8750 C   0  0  0  0  0  2  0  0  0  0  0  0
  -29.9700  -13.5520   20.3000 N   0  0  0  0  0  0  0  0  0  0  0  0
  -31.7560  -14.9010   20.0590 O   0  0  0  0  0  0  0  0  0  0  0  0
  -25.2200  -13.8930   20.4760 C   0  0  0  0  0  0  0  0  0  0  0  0
  -24.1530  -13.1210   20.8460 C   0  0  0  0  0  0  0  0  0  0  0  0
  -24.6170  -11.7710   20.8270 C   0  0  0  0  0  0  0  0  0  0  0  0
  -26.2630  -13.0120   20.2450 N   0  0  0  0  0  0  0  0  0  0  0  0
  -25.9090  -11.7310   20.5210 N   0  0  0  0  0  0  0  0  0  0  0  0
  -23.8920  -10.5090   21.0240 C   0  0  0  0  0  0  0  0  0  0  0  0
  -24.3280   -9.5420   21.9570 C   0  0  0  0  0  3  0  0  0  0  0  0
  -23.6040   -8.3460   22.1410 C   0  0  0  0  0  3  0  0  0  0  0  0
  -22.4270   -8.1070   21.3910 C   0  0  0  0  0  0  0  0  0  0  0  0
  -22.0100   -9.0610   20.4470 C   0  0  0  0  0  3  0  0  0  0  0  0
  -22.7350  -10.2490   20.2610 C   0  0  0  0  0  3  0  0  0  0  0  0
  -21.6730   -6.9620   21.4850 O   0  0  0  0  0  0  0  0  0  0  0  0
  -21.6350   -6.2180   22.6370 C   0  0  0  0  0  0  0  0  0  0  0  0
  -21.2310   -6.7730   23.8720 C   0  0  0  0  0  3  0  0  0  0  0  0
  -21.1400   -5.9550   25.0150 C   0  0  0  0  0  3  0  0  0  0  0  0
  -21.4420   -4.5830   24.9260 C   0  0  0  0  0  0  0  0  0  0  0  0
  -21.8400   -4.0270   23.6970 C   0  0  0  0  0  3  0  0  0  0  0  0
  -21.9320   -4.8430   22.5550 C   0  0  0  0  0  0  0  0  0  0  0  0
  -22.2950   -4.2970   21.3690 F   0  0  0  0  0  0  0  0  0  0  0  0
  -21.3480   -3.7950   26.0230 F   0  0  0  0  0  0  0  0  0  0  0  0
  -22.7550  -13.5980   21.1100 C   0  0  0  0  0  0  0  0  0  0  0  0
  -22.0250  -12.9070   21.9790 N   0  0  0  0  0  0  0  0  0  0  0  0
  -22.3170  -14.6200   20.5830 O   0  0  0  0  0  0  0  0  0  0  0  0
  -22.3900  -12.0800   22.4260 H   0  0  0  0  0  0  0  0  0  0  0  0
  -21.0870  -13.2110   22.2000 H   0  0  0  0  0  0  0  0  0  0  0  0
  -25.3850  -15.2630   20.2980 N   0  0  0  0  0  0  0  0  0  0  0  0
  -24.6270  -15.9220   20.4340 H   0  0  0  0  0  0  0  0  0  0  0  0
  -26.2640  -15.7160   20.0610 H   0  0  0  0  0  0  0  0  0  0  0  0
  -27.7850  -17.3750   20.1170 O   0  0  0  0  0  0  0  0  0  0  0  0
  -27.5360  -18.2760   20.2810 H   0  0  0  0  0  0  0  0  0  0  0  0
  -29.0800  -22.6500   19.9350 C   0  0  0  0  0  2  0  0  0  0  0  0
  -28.0940  -23.7400   20.6030 C   0  0  0  0  0  2  0  0  0  0  0  0
  -28.5040  -25.2630   20.9840 C   0  0  0  0  0  2  0  0  0  0  0  0
  -28.3830  -26.4920   20.1470 O   0  0  0  0  0  0  0  0  0  0  0  0
  -24.6270  -31.9130   23.2390 C   0  0  0  0  0  0  0  0  0  0  0  0
  -27.2520  -27.3240   20.2210 C   0  0  0  0  0  0  0  0  0  0  0  0
  -23.4250  -30.4950   21.6130 C   0  0  0  0  0  3  0  0  0  0  0  0
  -24.8790  -28.9300   20.2010 C   0  0  0  0  0  0  0  0  0  0  0  0
  -25.9610  -30.8230   21.4150 C   0  0  0  0  0  2  0  0  0  0  0  0
  -26.0490  -29.4330   20.7880 C   0  0  0  0  0  0  0  0  0  0  0  0
  -27.2400  -28.6430   20.7830 C   0  0  0  0  0  3  0  0  0  0  0  0
  -26.0610  -26.8730   19.6210 C   0  0  0  0  0  3  0  0  0  0  0  0
  -24.8870  -27.6560   19.6090 C   0  0  0  0  0  3  0  0  0  0  0  0
  -23.6390  -29.8040   20.2400 C   0  0  0  0  0  2  0  0  0  0  0  0
  -24.6900  -31.0970   22.1450 N   0  0  0  0  0  0  0  0  0  0  0  0
  -23.5440  -32.1880   23.7760 O   0  0  0  0  0  0  0  0  0  0  0  0
  -22.7680  -29.4860   22.5850 C   0  0  0  0  0  0  0  0  0  0  0  0
  -21.4430  -29.3010   22.4650 N   0  0  0  0  0  0  0  0  0  0  0  0
  -23.4520  -28.8700   23.4070 O   0  0  0  0  0  0  0  0  0  0  0  0
  -20.9480  -29.8500   21.7760 H   0  0  0  0  0  0  0  0  0  0  0  0
  -18.0750  -28.0840   22.9820 C   0  0  0  0  0  0  0  0  0  0  0  0
  -20.6320  -28.3640   23.2450 C   0  0  0  0  0  3  0  0  0  0  0  0
  -20.7430  -26.9280   22.6810 C   0  0  0  0  0  2  0  0  0  0  0  0
  -19.6420  -26.5890   21.6710 C   0  0  0  0  0  2  0  0  0  0  0  0
  -18.2600  -26.7300   22.3170 C   0  0  0  0  0  2  0  0  0  0  0  0
  -19.1890  -28.8580   23.4040 C   0  0  0  0  0  0  0  0  0  0  0  0
  -18.9610  -30.1230   23.9850 C   0  0  0  0  0  3  0  0  0  0  0  0
  -17.6530  -30.6160   24.1500 C   0  0  0  0  0  3  0  0  0  0  0  0
  -16.5540  -29.8400   23.7440 C   0  0  0  0  0  3  0  0  0  0  0  0
  -16.7650  -28.5760   23.1660 C   0  0  0  0  0  3  0  0  0  0  0  0
  -25.9070  -32.5580   23.8530 C   0  0  0  0  0  3  0  0  0  0  0  0
  -25.5900  -33.9560   24.1800 N   0  0  0  0  0  0  0  0  0  0  0  0
  -25.9170  -35.0090   23.4190 C   0  0  0  0  0  0  0  0  0  0  0  0
  -26.5860  -34.9070   22.3870 O   0  0  0  0  0  0  0  0  0  0  0  0
  -24.9950  -34.1080   24.9800 H   0  0  0  0  0  0  0  0  0  0  0  0
  -24.1800  -36.7960   23.0640 C   0  0  0  0  0  1  0  0  0  0  0  0
  -25.4240  -36.3970   23.8740 C   0  0  0  0  0  3  0  0  0  0  0  0
  -27.5580  -37.2910   24.7010 C   0  0  0  0  0  1  0  0  0  0  0  0
  -26.4530  -37.4550   23.7600 N   0  0  0  0  0  0  0  0  0  0  0  0
  -26.0440  -38.3730   23.9070 H   0  0  0  0  0  0  0  0  0  0  0  0
  -26.4330  -31.7960   25.1310 C   0  0  1  0  0  0  0  0  0  0  0  0
  -25.3470  -31.5600   26.2070 C   0  0  0  0  0  1  0  0  0  0  0  0
  -27.0210  -30.4190   24.7450 C   0  0  0  0  0  1  0  0  0  0  0  0
  -27.5830  -32.6000   25.7830 C   0  0  0  0  0  1  0  0  0  0  0  0
  2  1  1  0
  3  1  2  0
  4  6  2  0
  4  5  1  0
  5  2  2  0
  6  3  1  0
  7  8  2  0
  8  5  1  0
  9  7  2  0
 10 15  1  0
 11 12  1  0
 11 10  1  0
 13 12  1  0
 13 20  1  0
 13 14  1  0
 15  9  1  0
 15 14  1  0
 16  9  2  0
 17 18  2  0
 18 37  1  0
 19 18  1  0
 19 22  1  0
 20 17  1  0
 20 21  1  0
 21 19  2  0
 22 23  1  0
 23 24  2  0
 25 28  1  0
 25 24  1  0
 26 25  2  0
 27 26  1  0
 27 22  2  0
 28 29  1  0
 29 30  1  0
 30 31  2  0
 32 31  1  0
 32 36  1  0
 33 32  2  0
 34 29  2  0
 34 33  1  0
 35 34  1  0
 37 38  1  0
 38 41  1  0
 38 40  1  0
 39 37  2  0
 42 43  1  0
 42 17  1  0
 44 42  1  0
 45 46  1  0
 45  8  1  0
 47 48  1  0
 47  6  1  0
 48 49  1  0
 50 52  1  0
 50 49  1  0
 51 62  2  0
 52 57  1  0
 53 61  1  0
 53 63  1  0
 54 60  1  0
 54 56  1  0
 55 61  1  0
 56 55  1  0
 57 56  2  0
 58 52  2  0
 59 58  1  0
 59 54  2  0
 60 53  1  0
 61 51  1  0
 63 65  2  0
 64 63  1  0
 66 64  1  0
 67 76  2  0
 67 72  1  0
 68 64  1  0
 68 72  1  0
 69 68  1  0
 70 71  1  0
 70 69  1  0
 71 67  1  0
 72 73  2  0
 73 74  1  0
 75 74  2  0
 76 75  1  0
 77 51  1  0
 77 78  1  0
 77 87  1  0
 78 81  1  0
 79 83  1  0
 79 78  1  0
 80 79  2  0
 83 82  1  0
 85 83  1  0
 85 86  1  0
 85 84  1  0
 87 90  1  1
 87 88  1  0
 89 87  1  0
M  ISO  4   7 100   9 100  49 101  50 101
M  END
>  <TORSDO>  (17) 
F 21

>  <SCORE>  (17) 
-13.767

>  <name>  (17) 
16

>  <ligand_id>  (17) 
16

>  <original_smiles>  (17) 
[H]OC(=C([H])C(=O)N1C([H])([H])C([H])([H])C([H])([H])C([H])(n2nc(-c3c([H])c([H])c(Oc4c([H])c([H])c(F)c([H])c4F)c([H])c3[H])c(C(=O)N([H])[H])c2N([H])[H])C1([H])[H])c1c([H])c([H])c([H])c(C([H])([H])C([H])([H])C([H])([H])Oc2c([H])c([H])c3c(c2[H])C([H])([H])N(C(=O)C([H])(N([H])C(=O)C([H])(N([H])C([H])([H])[H])C([H])([H])[H])C(C([H])([H])[H])(C([H])([H])[H])C([H])([H])[H])C([H])(C(=O)N([H])C2([H])c4c([H])c([H])c([H])c([H])c4C([H])([H])C([H])([H])C2([H])[H])C3([H])[H])c1[H]

>  <smiles>  (17) 
[H]OC(=C([H])C(=O)N1C([H])([H])C([H])([H])C([H])([H])C([H])(n2nc(-c3c([H])c([H])c(Oc4c([H])c([H])c(F)c([H])c4F)c([H])c3[H])c(C(=O)N([H])[H])c2N([H])[H])C1([H])[H])c1c([H])c([H])c([H])c(C([H])([H])C([H])([H])C([H])([H])Oc2c([H])c([H])c3c(c2[H])C([H])([H])N(C(=O)C([H])(N([H])C(=O)C([H])(N([H])C([H])([H])[H])C([H])([H])[H])C(C([H])([H])[H])(C([H])([H])[H])C([H])([H])[H])C([H])(C(=O)N([H])C2([H])c4c([H])c([H])c([H])c([H])c4C([H])([H])C([H])([H])C2([H])[H])C3([H])[H])c1[H]

$$$$
17:0:0
     RDKit          3D

 94103  0  0  1  0  0  0  0  0999 V2000
  -30.0690  -24.1720   19.0200 C   0  0  0  0  0  2  0  0  0  0  0  0
  -30.9890  -25.3650   19.3200 C   0  0  0  0  0  2  0  0  0  0  0  0
  -30.1820  -24.5630   21.4490 C   0  0  0  0  0  2  0  0  0  0  0  0
  -29.5800  -23.6360   20.3800 C   0  0  0  0  0  3  0  0  0  0  0  0
  -30.6460  -25.8540   20.7420 C   0  0  1  0  0  0  0  0  0  0  0  0
  -31.9000  -26.4190   21.4380 C   0  0  0  0  0  1  0  0  0  0  0  0
  -31.2460  -20.1340   20.5140 C   0  0  0  0  0  3  0  0  0  0  0  0
  -29.2010  -20.1030   21.8270 C   0  0  0  0  0  3  0  0  0  0  0  0
  -31.0080  -21.4900   20.1890 C   0  0  0  0  0  3  0  0  0  0  0  0
  -28.9530  -21.4470   21.4870 C   0  0  0  0  0  3  0  0  0  0  0  0
  -30.3420  -19.4250   21.3400 C   0  0  0  0  0  0  0  0  0  0  0  0
  -29.8540  -22.1570   20.6670 C   0  0  0  0  0  0  0  0  0  0  0  0
  -30.5830  -18.0170   21.7850 C   0  0  0  0  0  0  0  0  0  0  0  0
  -30.1890  -17.6120   22.8830 O   0  0  0  0  0  0  0  0  0  0  0  0
  -31.3120  -17.0380   20.8450 C   0  0  0  0  0  2  0  0  0  0  0  0
  -31.0140  -15.5590   21.2180 C   0  0  0  0  0  2  0  0  0  0  0  0
  -31.5360  -14.4950   20.2330 C   0  0  0  0  0  0  0  0  0  0  0  0
  -31.0540  -12.4750   18.8820 C   0  0  0  0  0  2  0  0  0  0  0  0
  -30.0850  -12.8330   17.7370 C   0  0  0  0  0  2  0  0  0  0  0  0
  -28.6170  -12.7870   18.2080 C   0  0  0  0  0  2  0  0  0  0  0  0
  -28.3940  -13.5530   19.5410 C   0  0  0  0  0  3  0  0  0  0  0  0
  -29.4540  -13.1280   20.5820 C   0  0  0  0  0  2  0  0  0  0  0  0
  -30.7820  -13.3860   20.0010 N   0  0  0  0  0  0  0  0  0  0  0  0
  -32.6080  -14.6990   19.6510 O   0  0  0  0  0  0  0  0  0  0  0  0
  -26.0610  -14.3240   20.3160 C   0  0  0  0  0  0  0  0  0  0  0  0
  -24.9450  -13.6240   20.6890 C   0  0  0  0  0  0  0  0  0  0  0  0
  -25.3000  -12.2440   20.6080 C   0  0  0  0  0  0  0  0  0  0  0  0
  -27.0330  -13.3740   20.0390 N   0  0  0  0  0  0  0  0  0  0  0  0
  -26.5770  -12.1160   20.2690 N   0  0  0  0  0  0  0  0  0  0  0  0
  -24.4860  -11.0340   20.7820 C   0  0  0  0  0  0  0  0  0  0  0  0
  -24.8350  -10.0370   21.7190 C   0  0  0  0  0  3  0  0  0  0  0  0
  -24.0260   -8.8910   21.8800 C   0  0  0  0  0  3  0  0  0  0  0  0
  -22.8540   -8.7360   21.1040 C   0  0  0  0  0  0  0  0  0  0  0  0
  -22.5220   -9.7200   20.1560 C   0  0  0  0  0  3  0  0  0  0  0  0
  -23.3310  -10.8570   19.9930 C   0  0  0  0  0  3  0  0  0  0  0  0
  -22.0210   -7.6450   21.1740 O   0  0  0  0  0  0  0  0  0  0  0  0
  -21.8540   -6.9420   22.3400 C   0  0  0  0  0  0  0  0  0  0  0  0
  -21.4180   -7.5650   23.5300 C   0  0  0  0  0  3  0  0  0  0  0  0
  -21.1910   -6.7930   24.6870 C   0  0  0  0  0  3  0  0  0  0  0  0
  -21.3920   -5.3990   24.6550 C   0  0  0  0  0  0  0  0  0  0  0  0
  -21.8220   -4.7770   23.4700 C   0  0  0  0  0  3  0  0  0  0  0  0
  -22.0490   -5.5460   22.3150 C   0  0  0  0  0  0  0  0  0  0  0  0
  -22.4430   -4.9380   21.1700 F   0  0  0  0  0  0  0  0  0  0  0  0
  -21.1670   -4.6550   25.7630 F   0  0  0  0  0  0  0  0  0  0  0  0
  -23.5940  -14.1960   21.0130 C   0  0  0  0  0  0  0  0  0  0  0  0
  -22.8530  -13.5480   21.9040 N   0  0  0  0  0  0  0  0  0  0  0  0
  -23.2090  -15.2500   20.5100 O   0  0  0  0  0  0  0  0  0  0  0  0
  -23.1800  -12.6950   22.3320 H   0  0  0  0  0  0  0  0  0  0  0  0
  -21.9460  -13.9110   22.1630 H   0  0  0  0  0  0  0  0  0  0  0  0
  -26.3230  -15.6840   20.1690 N   0  0  0  0  0  0  0  0  0  0  0  0
  -25.6080  -16.3900   20.3120 H   0  0  0  0  0  0  0  0  0  0  0  0
  -27.1980  -16.0680   19.8360 H   0  0  0  0  0  0  0  0  0  0  0  0
  -29.5540  -26.9600   20.7510 C   0  0  0  0  0  2  0  0  0  0  0  0
  -28.4330  -26.6000   19.9520 O   0  0  0  0  0  0  0  0  0  0  0  0
  -24.5820  -31.7640   23.0830 C   0  0  0  0  0  0  0  0  0  0  0  0
  -27.2960  -27.3760   20.0110 C   0  0  0  0  0  0  0  0  0  0  0  0
  -23.3860  -30.3330   21.4540 C   0  0  0  0  0  3  0  0  0  0  0  0
  -24.8600  -28.8150   20.0300 C   0  0  0  0  0  0  0  0  0  0  0  0
  -25.8980  -30.7460   21.2320 C   0  0  0  0  0  2  0  0  0  0  0  0
  -26.0080  -29.3720   20.6070 C   0  0  0  0  0  0  0  0  0  0  0  0
  -27.2270  -28.6610   20.6020 C   0  0  0  0  0  3  0  0  0  0  0  0
  -26.1320  -26.8320   19.4310 C   0  0  0  0  0  3  0  0  0  0  0  0
  -24.9150  -27.5390   19.4400 C   0  0  0  0  0  3  0  0  0  0  0  0
  -23.5980  -29.6460   20.0770 C   0  0  0  0  0  2  0  0  0  0  0  0
  -24.6410  -30.9630   21.9820 N   0  0  0  0  0  0  0  0  0  0  0  0
  -23.5010  -32.0200   23.6320 O   0  0  0  0  0  0  0  0  0  0  0  0
  -22.7590  -29.3080   22.4250 C   0  0  0  0  0  0  0  0  0  0  0  0
  -21.4360  -29.1050   22.3060 N   0  0  0  0  0  0  0  0  0  0  0  0
  -23.4580  -28.6970   23.2380 O   0  0  0  0  0  0  0  0  0  0  0  0
  -20.9340  -29.6520   21.6200 H   0  0  0  0  0  0  0  0  0  0  0  0
  -18.0870  -27.8540   22.8150 C   0  0  0  0  0  0  0  0  0  0  0  0
  -20.6390  -28.1590   23.0850 C   0  0  0  0  0  3  0  0  0  0  0  0
  -20.7670  -26.7260   22.5190 C   0  0  0  0  0  2  0  0  0  0  0  0
  -19.6720  -26.3750   21.5080 C   0  0  0  0  0  2  0  0  0  0  0  0
  -18.2870  -26.5020   22.1510 C   0  0  0  0  0  2  0  0  0  0  0  0
  -19.1920  -28.6390   23.2390 C   0  0  0  0  0  0  0  0  0  0  0  0
  -18.9510  -29.9040   23.8180 C   0  0  0  0  0  3  0  0  0  0  0  0
  -17.6390  -30.3860   23.9780 C   0  0  0  0  0  3  0  0  0  0  0  0
  -16.5480  -29.5970   23.5710 C   0  0  0  0  0  3  0  0  0  0  0  0
  -16.7730  -28.3340   22.9950 C   0  0  0  0  0  3  0  0  0  0  0  0
  -25.8640  -32.4150   23.6920 C   0  0  0  0  0  3  0  0  0  0  0  0
  -25.5230  -33.7920   24.0720 N   0  0  0  0  0  0  0  0  0  0  0  0
  -25.8160  -34.8760   23.3410 C   0  0  0  0  0  0  0  0  0  0  0  0
  -26.4740  -34.8240   22.2980 O   0  0  0  0  0  0  0  0  0  0  0  0
  -24.9390  -33.9060   24.8880 H   0  0  0  0  0  0  0  0  0  0  0  0
  -24.0360  -36.6290   23.0580 C   0  0  0  0  0  1  0  0  0  0  0  0
  -25.2950  -36.2350   23.8470 C   0  0  0  0  0  3  0  0  0  0  0  0
  -27.4120  -37.1500   24.6870 C   0  0  0  0  0  1  0  0  0  0  0  0
  -26.2980  -37.3190   23.7590 N   0  0  0  0  0  0  0  0  0  0  0  0
  -25.8680  -38.2220   23.9400 H   0  0  0  0  0  0  0  0  0  0  0  0
  -26.4380  -31.6190   24.9270 C   0  0  1  0  0  0  0  0  0  0  0  0
  -25.3840  -31.3100   26.0150 C   0  0  0  0  0  1  0  0  0  0  0  0
  -27.0530  -30.2750   24.4670 C   0  0  0  0  0  1  0  0  0  0  0  0
  -27.5810  -32.4260   25.5870 C   0  0  0  0  0  1  0  0  0  0  0  0
  1  2  1  0
  1  4  1  0
  2  5  1  0
  4 12  1  0
  4  3  1  0
  5 53  1  0
  5  6  1  1
  5  3  1  0
  7 11  1  0
  9  7  2  0
  9 12  1  0
 10  8  1  0
 11 13  1  0
 11  8  2  0
 12 10  2  0
 13 14  2  0
 15 16  1  0
 15 13  1  0
 17 16  1  0
 18 23  1  0
 19 20  1  0
 19 18  1  0
 21 20  1  0
 21 28  1  0
 21 22  1  0
 23 17  1  0
 23 22  1  0
 24 17  2  0
 25 26  2  0
 26 45  1  0
 27 26  1  0
 27 30  1  0
 28 29  1  0
 28 25  1  0
 29 27  2  0
 30 31  1  0
 31 32  2  0
 33 36  1  0
 33 32  1  0
 34 33  2  0
 35 34  1  0
 35 30  2  0
 36 37  1  0
 37 38  1  0
 38 39  2  0
 40 39  1  0
 40 44  1  0
 41 40  2  0
 42 37  2  0
 42 41  1  0
 43 42  1  0
 45 46  1  0
 46 49  1  0
 46 48  1  0
 47 45  2  0
 50 51  1  0
 50 25  1  0
 52 50  1  0
 54 56  1  0
 54 53  1  0
 55 66  2  0
 56 61  1  0
 57 65  1  0
 57 67  1  0
 58 64  1  0
 58 60  1  0
 59 65  1  0
 60 59  1  0
 61 60  2  0
 62 63  1  0
 62 56  2  0
 63 58  2  0
 64 57  1  0
 65 55  1  0
 67 69  2  0
 68 67  1  0
 70 68  1  0
 71 80  2  0
 71 76  1  0
 72 68  1  0
 72 76  1  0
 73 72  1  0
 74 75  1  0
 74 73  1  0
 75 71  1  0
 76 77  2  0
 77 78  1  0
 79 78  2  0
 80 79  1  0
 81 55  1  0
 81 82  1  0
 81 91  1  0
 82 85  1  0
 83 87  1  0
 83 82  1  0
 84 83  2  0
 87 86  1  0
 89 87  1  0
 89 90  1  0
 89 88  1  0
 91 94  1  1
 91 92  1  0
 93 91  1  0
M  ISO  4  16 100  17 100  53 101  54 101
M  END
>  <TORSDO>  (18) 
F 21

>  <SCORE>  (18) 
-12.020

>  <name>  (18) 
17

>  <ligand_id>  (18) 
17

>  <original_smiles>  (18) 
[H]c1c([H])c([H])c2c(c1[H])C([H])([H])C([H])([H])C([H])([H])C2([H])N([H])C(=O)C1([H])N(C(=O)C([H])(N([H])C(=O)C([H])(N([H])C([H])([H])[H])C([H])([H])[H])C(C([H])([H])[H])(C([H])([H])[H])C([H])([H])[H])C([H])([H])c2c([H])c(OC([H])([H])C3(C([H])([H])[H])C([H])([H])C([H])([H])C([H])(c4c([H])c([H])c(C(=O)C([H])([H])C([H])([H])C(=O)N5C([H])([H])C([H])([H])C([H])([H])C([H])(n6nc(-c7c([H])c([H])c(Oc8c([H])c([H])c(F)c([H])c8F)c([H])c7[H])c(C(=O)N([H])[H])c6N([H])[H])C5([H])[H])c([H])c4[H])C3([H])[H])c([H])c([H])c2C1([H])[H]

>  <smiles>  (18) 
[H]c1c([H])c([H])c2c(c1[H])C([H])([H])C([H])([H])C([H])([H])C2([H])N([H])C(=O)C1([H])N(C(=O)C([H])(N([H])C(=O)C([H])(N([H])C([H])([H])[H])C([H])([H])[H])C(C([H])([H])[H])(C([H])([H])[H])C([H])([H])[H])C([H])([H])c2c([H])c(OC([H])([H])C3(C([H])([H])[H])C([H])([H])C([H])([H])C([H])(c4c([H])c([H])c(C(=O)C([H])([H])C([H])([H])C(=O)N5C([H])([H])C([H])([H])C([H])([H])C([H])(n6nc(-c7c([H])c([H])c(Oc8c([H])c([H])c(F)c([H])c8F)c([H])c7[H])c(C(=O)N([H])[H])c6N([H])[H])C5([H])[H])c([H])c4[H])C3([H])[H])c([H])c([H])c2C1([H])[H]

$$$$
18:0:0
     RDKit          3D

 98107  0  0  1  0  0  0  0  0999 V2000
  -31.4600  -17.9120   19.8830 C   0  0  0  0  0  2  0  0  0  0  0  0
  -28.2640  -18.3710   20.8700 C   0  0  0  0  0  0  0  0  0  0  0  0
  -29.1390  -17.1470   20.6640 C   0  0  0  0  0  0  0  0  0  0  0  0
  -29.1270  -19.4530   21.4780 C   0  0  0  0  0  2  0  0  0  0  0  0
  -31.1420  -20.3280   23.7480 C   0  0  0  0  0  2  0  0  0  0  0  0
  -30.0280  -19.5200   24.4170 C   0  0  0  0  0  2  0  0  0  0  0  0
  -31.4840  -19.6000   22.4380 C   0  0  0  0  0  2  0  0  0  0  0  0
  -29.8720  -18.2590   23.5660 C   0  0  0  0  0  2  0  0  0  0  0  0
  -30.5760  -17.4400   21.1210 C   0  0  2  0  0  0  0  0  0  0  0  0
  -30.2990  -18.6600   22.1220 C   0  0  1  0  0  0  0  0  0  0  0  0
  -27.0660  -18.4710   20.5810 O   0  0  0  0  0  0  0  0  0  0  0  0
  -28.7710  -16.1110   20.1130 O   0  0  0  0  0  0  0  0  0  0  0  0
  -31.1420  -16.1770   21.8950 C   0  0  0  0  0  2  0  0  0  0  0  0
  -31.5480  -14.8780   21.1490 C   0  0  0  0  0  0  0  0  0  0  0  0
  -31.4400  -12.4160   20.8930 C   0  0  0  0  0  2  0  0  0  0  0  0
  -30.7330  -11.9610   19.6060 C   0  0  0  0  0  2  0  0  0  0  0  0
  -29.2190  -11.8420   19.8430 C   0  0  0  0  0  2  0  0  0  0  0  0
  -28.6310  -13.1150   20.5010 C   0  0  0  0  0  3  0  0  0  0  0  0
  -29.4650  -13.5510   21.7320 C   0  0  0  0  0  2  0  0  0  0  0  0
  -30.8700  -13.7060   21.3200 N   0  0  0  0  0  0  0  0  0  0  0  0
  -32.6190  -14.9040   20.5360 O   0  0  0  0  0  0  0  0  0  0  0  0
  -26.2560  -13.9030   21.1270 C   0  0  0  0  0  0  0  0  0  0  0  0
  -25.0810  -13.2220   21.2860 C   0  0  0  0  0  0  0  0  0  0  0  0
  -25.3920  -11.8460   21.0680 C   0  0  0  0  0  0  0  0  0  0  0  0
  -27.2180  -12.9450   20.8360 N   0  0  0  0  0  0  0  0  0  0  0  0
  -26.6920  -11.6940   20.8530 N   0  0  0  0  0  0  0  0  0  0  0  0
  -24.5160  -10.6710   20.9950 C   0  0  0  0  0  0  0  0  0  0  0  0
  -24.8270   -9.4750   21.6770 C   0  0  0  0  0  3  0  0  0  0  0  0
  -23.9580   -8.3640   21.6050 C   0  0  0  0  0  3  0  0  0  0  0  0
  -22.7650   -8.4450   20.8490 C   0  0  0  0  0  0  0  0  0  0  0  0
  -22.4720   -9.6310   20.1530 C   0  0  0  0  0  3  0  0  0  0  0  0
  -23.3410  -10.7330   20.2210 C   0  0  0  0  0  3  0  0  0  0  0  0
  -21.8750   -7.4090   20.6990 O   0  0  0  0  0  0  0  0  0  0  0  0
  -21.7810   -6.4030   21.6270 C   0  0  0  0  0  0  0  0  0  0  0  0
  -21.5260   -6.6690   22.9900 C   0  0  0  0  0  3  0  0  0  0  0  0
  -21.3660   -5.6030   23.8970 C   0  0  0  0  0  3  0  0  0  0  0  0
  -21.4530   -4.2730   23.4430 C   0  0  0  0  0  0  0  0  0  0  0  0
  -21.7030   -4.0050   22.0860 C   0  0  0  0  0  3  0  0  0  0  0  0
  -21.8640   -5.0690   21.1800 C   0  0  0  0  0  0  0  0  0  0  0  0
  -22.0820   -4.8060   19.8700 F   0  0  0  0  0  0  0  0  0  0  0  0
  -21.2920   -3.2480   24.3130 F   0  0  0  0  0  0  0  0  0  0  0  0
  -23.7290  -13.8210   21.5420 C   0  0  0  0  0  0  0  0  0  0  0  0
  -22.8680  -13.1030   22.2530 N   0  0  0  0  0  0  0  0  0  0  0  0
  -23.4470  -14.9550   21.1570 O   0  0  0  0  0  0  0  0  0  0  0  0
  -23.1100  -12.1820   22.5880 H   0  0  0  0  0  0  0  0  0  0  0  0
  -21.9540  -13.4780   22.4650 H   0  0  0  0  0  0  0  0  0  0  0  0
  -26.5840  -15.2490   21.1900 N   0  0  0  0  0  0  0  0  0  0  0  0
  -25.9150  -15.9560   21.4720 H   0  0  0  0  0  0  0  0  0  0  0  0
  -27.5530  -15.5290   21.3430 H   0  0  0  0  0  0  0  0  0  0  0  0
  -30.7620  -18.5750   18.6600 C   0  0  0  0  0  2  0  0  0  0  0  0
  -31.6380  -19.5780   17.8870 C   0  0  0  0  0  2  0  0  0  0  0  0
  -31.5050  -21.0270   18.3970 C   0  0  0  0  0  2  0  0  0  0  0  0
  -32.2130  -22.0310   17.4710 C   0  0  0  0  0  2  0  0  0  0  0  0
  -32.1870  -23.4970   17.9470 C   0  0  0  0  0  2  0  0  0  0  0  0
  -30.7810  -24.1300   17.9960 C   0  0  0  0  0  2  0  0  0  0  0  0
  -30.8250  -25.6720   18.0120 C   0  0  0  0  0  2  0  0  0  0  0  0
  -29.4380  -26.3380   18.0600 C   0  0  0  0  0  2  0  0  0  0  0  0
  -29.0380  -26.5690   19.4080 O   0  0  0  0  0  0  0  0  0  0  0  0
  -25.3900  -31.0570   23.5600 C   0  0  0  0  0  0  0  0  0  0  0  0
  -27.8960  -27.3180   19.5680 C   0  0  0  0  0  0  0  0  0  0  0  0
  -24.1620  -30.1490   21.6140 C   0  0  0  0  0  3  0  0  0  0  0  0
  -25.5740  -28.8940   19.9010 C   0  0  0  0  0  0  0  0  0  0  0  0
  -26.7070  -30.3880   21.5550 C   0  0  0  0  0  2  0  0  0  0  0  0
  -26.7370  -29.1970   20.6210 C   0  0  0  0  0  0  0  0  0  0  0  0
  -27.8960  -28.4070   20.4660 C   0  0  0  0  0  3  0  0  0  0  0  0
  -26.7110  -27.0120   18.8620 C   0  0  0  0  0  3  0  0  0  0  0  0
  -25.5530  -27.7940   19.0260 C   0  0  0  0  0  3  0  0  0  0  0  0
  -24.3790  -29.7920   20.1190 C   0  0  0  0  0  2  0  0  0  0  0  0
  -25.4360  -30.5320   22.3040 N   0  0  0  0  0  0  0  0  0  0  0  0
  -24.3090  -31.2640   24.1280 O   0  0  0  0  0  0  0  0  0  0  0  0
  -23.4250  -28.9760   22.2990 C   0  0  0  0  0  0  0  0  0  0  0  0
  -22.0950  -28.9190   22.1160 N   0  0  0  0  0  0  0  0  0  0  0  0
  -24.0470  -28.1310   22.9470 O   0  0  0  0  0  0  0  0  0  0  0  0
  -21.6590  -29.6550   21.5780 H   0  0  0  0  0  0  0  0  0  0  0  0
  -18.6430  -27.8680   22.2670 C   0  0  0  0  0  0  0  0  0  0  0  0
  -21.2010  -27.8840   22.6340 C   0  0  0  0  0  3  0  0  0  0  0  0
  -21.2340  -26.6220   21.7400 C   0  0  0  0  0  2  0  0  0  0  0  0
  -20.1470  -26.6190   20.6610 C   0  0  0  0  0  2  0  0  0  0  0  0
  -18.7580  -26.7030   21.2980 C   0  0  0  0  0  2  0  0  0  0  0  0
  -19.7920  -28.4330   22.8820 C   0  0  0  0  0  0  0  0  0  0  0  0
  -19.6330  -29.5370   23.7460 C   0  0  0  0  0  3  0  0  0  0  0  0
  -18.3570  -30.0740   24.0030 C   0  0  0  0  0  3  0  0  0  0  0  0
  -17.2210  -29.5000   23.4040 C   0  0  0  0  0  3  0  0  0  0  0  0
  -17.3650  -28.3990   22.5420 C   0  0  0  0  0  3  0  0  0  0  0  0
  -26.6890  -31.4450   24.3340 C   0  0  0  0  0  3  0  0  0  0  0  0
  -27.1200  -30.3700   25.4050 C   0  0  1  0  0  0  0  0  0  0  0  0
  -25.9840  -29.9680   26.3740 C   0  0  0  0  0  1  0  0  0  0  0  0
  -27.6300  -29.0850   24.7130 C   0  0  0  0  0  1  0  0  0  0  0  0
  -28.2980  -30.9140   26.2480 C   0  0  0  0  0  1  0  0  0  0  0  0
  -26.4530  -32.7480   24.9690 N   0  0  0  0  0  0  0  0  0  0  0  0
  -26.9000  -33.9180   24.4950 C   0  0  0  0  0  0  0  0  0  0  0  0
  -27.6260  -34.0040   23.5000 O   0  0  0  0  0  0  0  0  0  0  0  0
  -25.8190  -32.7590   25.7570 H   0  0  0  0  0  0  0  0  0  0  0  0
  -25.3290  -35.8820   24.4790 C   0  0  0  0  0  1  0  0  0  0  0  0
  -26.4740  -35.1960   25.2420 C   0  0  0  0  0  3  0  0  0  0  0  0
  -28.5950  -35.6770   26.3810 C   0  0  0  0  0  1  0  0  0  0  0  0
  -27.5810  -36.1550   25.4450 N   0  0  0  0  0  0  0  0  0  0  0  0
  -27.2290  -37.0450   25.7860 H   0  0  0  0  0  0  0  0  0  0  0  0
  2  4  1  0
  3  2  1  0
  3  9  1  0
 10  4  1  6
  5  6  1  0
  7  5  1  0
  8  6  1  0
  9  1  1  6
  9 13  1  0
  9 10  1  0
 10  7  1  0
 10  8  1  0
 11  2  2  0
 12  3  2  0
 14 20  1  0
 14 13  1  0
 15 20  1  0
 16 17  1  0
 16 15  1  0
 18 17  1  0
 18 25  1  0
 18 19  1  0
 20 19  1  0
 21 14  2  0
 22 47  1  0
 22 23  2  0
 23 42  1  0
 24 23  1  0
 25 26  1  0
 25 22  1  0
 26 24  2  0
 27 24  1  0
 27 28  1  0
 29 28  2  0
 30 29  1  0
 31 32  1  0
 31 30  2  0
 32 27  2  0
 33 30  1  0
 33 34  1  0
 34 35  1  0
 35 36  2  0
 37 36  1  0
 37 41  1  0
 38 37  2  0
 39 34  2  0
 39 38  1  0
 40 39  1  0
 42 43  1  0
 43 46  1  0
 43 45  1  0
 44 42  2  0
 47 49  1  0
 47 48  1  0
 50  1  1  0
 51 52  1  0
 51 50  1  0
 53 54  1  0
 53 52  1  0
 54 55  1  0
 55 56  1  0
 56 57  1  0
 57 58  1  0
 58 60  1  0
 59 70  2  0
 60 65  1  0
 61 71  1  0
 61 69  1  0
 62 68  1  0
 62 64  1  0
 63 69  1  0
 64 63  1  0
 65 64  2  0
 66 67  1  0
 66 60  2  0
 67 62  2  0
 68 61  1  0
 69 59  1  0
 71 73  2  0
 72 71  1  0
 74 72  1  0
 75 84  2  0
 75 80  1  0
 76 72  1  0
 76 80  1  0
 77 76  1  0
 78 79  1  0
 78 77  1  0
 79 75  1  0
 80 81  2  0
 81 82  1  0
 83 82  2  0
 84 83  1  0
 85 59  1  0
 85 90  1  0
 85 86  1  0
 86 89  1  1
 86 87  1  0
 88 86  1  0
 90 93  1  0
 91 90  1  0
 91 95  1  0
 92 91  2  0
 95 94  1  0
 95 97  1  0
 97 98  1  0
 97 96  1  0
M  ISO  4  13 100  14 100  57 101  58 101
M  END
>  <TORSDO>  (19) 
F 26

>  <SCORE>  (19) 
-5.132

>  <name>  (19) 
18

>  <ligand_id>  (19) 
18

>  <original_smiles>  (19) 
[H]c1c([H])c([H])c2c(c1[H])C([H])([H])C([H])([H])C([H])([H])C2([H])N([H])C(=O)C1([H])N(C(=O)C([H])(N([H])C(=O)C([H])(N([H])C([H])([H])[H])C([H])([H])[H])C(C([H])([H])[H])(C([H])([H])[H])C([H])([H])[H])C([H])([H])c2c([H])c(OC([H])([H])C([H])([H])C([H])([H])C([H])([H])C([H])([H])C([H])([H])C([H])([H])C([H])([H])C([H])([H])C3(C([H])([H])C(=O)N4C([H])([H])C([H])([H])C([H])([H])C([H])(n5nc(-c6c([H])c([H])c(Oc7c([H])c([H])c(F)c([H])c7F)c([H])c6[H])c(C(=O)N([H])[H])c5N([H])[H])C4([H])[H])C(=O)C(=O)C([H])([H])C34C([H])([H])C([H])([H])C([H])([H])C4([H])[H])c([H])c([H])c2C1([H])[H]

>  <smiles>  (19) 
[H]c1c([H])c([H])c2c(c1[H])C([H])([H])C([H])([H])C([H])([H])C2([H])N([H])C(=O)C1([H])N(C(=O)C([H])(N([H])C(=O)C([H])(N([H])C([H])([H])[H])C([H])([H])[H])C(C([H])([H])[H])(C([H])([H])[H])C([H])([H])[H])C([H])([H])c2c([H])c(OC([H])([H])C([H])([H])C([H])([H])C([H])([H])C([H])([H])C([H])([H])C([H])([H])C([H])([H])C([H])([H])C3(C([H])([H])C(=O)N4C([H])([H])C([H])([H])C([H])([H])C([H])(n5nc(-c6c([H])c([H])c(Oc7c([H])c([H])c(F)c([H])c7F)c([H])c6[H])c(C(=O)N([H])[H])c5N([H])[H])C4([H])[H])C(=O)C(=O)C([H])([H])C34C([H])([H])C([H])([H])C([H])([H])C4([H])[H])c([H])c([H])c2C1([H])[H]

$$$$
19:0:0
     RDKit          3D

 97105  0  0  1  0  0  0  0  0999 V2000
  -28.8130  -23.9750   20.4100 C   0  0  0  0  0  3  0  0  0  0  0  0
  -29.1090  -22.6010   20.4150 C   0  0  0  0  0  3  0  0  0  0  0  0
  -30.4000  -24.3110   22.2090 C   0  0  0  0  0  3  0  0  0  0  0  0
  -29.4660  -24.8580   21.2940 C   0  0  0  0  0  0  0  0  0  0  0  0
  -30.0450  -22.0610   21.3220 C   0  0  0  0  0  0  0  0  0  0  0  0
  -30.6940  -22.9250   22.2460 C   0  0  0  0  0  0  0  0  0  0  0  0
  -30.3300  -20.5680   21.2480 C   0  0  0  0  0  1  0  0  0  0  0  0
  -28.3850  -26.6610   22.6300 C   0  0  0  0  0  1  0  0  0  0  0  0
  -30.4100  -27.2040   21.2200 C   0  0  0  0  0  1  0  0  0  0  0  0
  -29.1230  -26.3620   21.2990 C   0  0  1  0  0  0  0  0  0  0  0  0
  -28.3880  -26.6890   20.0920 O   0  0  0  0  0  0  0  0  0  0  0  0
  -24.6130  -31.8650   23.2090 C   0  0  0  0  0  0  0  0  0  0  0  0
  -27.2540  -27.4740   20.1200 C   0  0  0  0  0  0  0  0  0  0  0  0
  -23.3950  -30.4930   21.5470 C   0  0  0  0  0  3  0  0  0  0  0  0
  -24.8500  -28.9660   20.1100 C   0  0  0  0  0  0  0  0  0  0  0  0
  -25.9170  -30.8600   21.3420 C   0  0  0  0  0  2  0  0  0  0  0  0
  -26.0040  -29.4950   20.7010 C   0  0  0  0  0  0  0  0  0  0  0  0
  -27.2110  -28.7650   20.6910 C   0  0  0  0  0  3  0  0  0  0  0  0
  -26.0950  -26.9670   19.4970 C   0  0  0  0  0  3  0  0  0  0  0  0
  -24.8900  -27.6990   19.5000 C   0  0  0  0  0  3  0  0  0  0  0  0
  -23.6030  -29.8250   20.1600 C   0  0  0  0  0  2  0  0  0  0  0  0
  -24.6600  -31.0850   22.0940 N   0  0  0  0  0  0  0  0  0  0  0  0
  -23.5350  -32.1340   23.7580 O   0  0  0  0  0  0  0  0  0  0  0  0
  -22.7370  -29.4660   22.4940 C   0  0  0  0  0  0  0  0  0  0  0  0
  -21.4090  -29.3030   22.3720 N   0  0  0  0  0  0  0  0  0  0  0  0
  -23.4180  -28.8180   23.2930 O   0  0  0  0  0  0  0  0  0  0  0  0
  -20.9200  -29.8720   21.6950 H   0  0  0  0  0  0  0  0  0  0  0  0
  -18.0230  -28.1400   22.8460 C   0  0  0  0  0  0  0  0  0  0  0  0
  -20.5840  -28.3660   23.1330 C   0  0  0  0  0  3  0  0  0  0  0  0
  -20.6760  -26.9380   22.5440 C   0  0  0  0  0  2  0  0  0  0  0  0
  -19.5760  -26.6400   21.5220 C   0  0  0  0  0  2  0  0  0  0  0  0
  -18.1910  -26.7940   22.1600 C   0  0  0  0  0  2  0  0  0  0  0  0
  -19.1500  -28.8840   23.2890 C   0  0  0  0  0  0  0  0  0  0  0  0
  -18.9440  -30.1460   23.8900 C   0  0  0  0  0  3  0  0  0  0  0  0
  -17.6450  -30.6600   24.0580 C   0  0  0  0  0  3  0  0  0  0  0  0
  -16.5340  -29.9120   23.6360 C   0  0  0  0  0  3  0  0  0  0  0  0
  -16.7230  -28.6570   23.0300 C   0  0  0  0  0  3  0  0  0  0  0  0
  -25.9030  -32.4850   23.8320 C   0  0  0  0  0  3  0  0  0  0  0  0
  -25.5860  -33.8630   24.2250 N   0  0  0  0  0  0  0  0  0  0  0  0
  -25.9030  -34.9480   23.5050 C   0  0  0  0  0  0  0  0  0  0  0  0
  -26.5610  -34.8950   22.4620 O   0  0  0  0  0  0  0  0  0  0  0  0
  -24.9960  -33.9800   25.0360 H   0  0  0  0  0  0  0  0  0  0  0  0
  -24.1460  -36.7370   23.2610 C   0  0  0  0  0  1  0  0  0  0  0  0
  -25.4090  -36.3100   24.0250 C   0  0  0  0  0  3  0  0  0  0  0  0
  -27.5550  -37.1820   24.8400 C   0  0  0  0  0  1  0  0  0  0  0  0
  -26.4250  -37.3820   23.9380 N   0  0  0  0  0  0  0  0  0  0  0  0
  -26.0070  -38.2840   24.1530 H   0  0  0  0  0  0  0  0  0  0  0  0
  -26.4500  -31.6680   25.0650 C   0  0  1  0  0  0  0  0  0  0  0  0
  -25.3740  -31.3840   26.1400 C   0  0  0  0  0  1  0  0  0  0  0  0
  -27.0390  -30.3140   24.6020 C   0  0  0  0  0  1  0  0  0  0  0  0
  -27.5980  -32.4510   25.7450 C   0  0  0  0  0  1  0  0  0  0  0  0
  -31.7290  -22.4290   23.2630 C   0  0  0  0  0  2  0  0  0  0  0  0
  -32.1350  -20.4510   24.7060 C   0  0  0  0  0  0  0  0  0  0  0  0
  -31.3110  -21.2550   24.0290 N   0  0  0  0  0  0  0  0  0  0  0  0
  -33.3020  -20.7490   24.9700 O   0  0  0  0  0  0  0  0  0  0  0  0
  -30.3570  -20.9490   23.9020 H   0  0  0  0  0  0  0  0  0  0  0  0
  -31.5950  -19.0700   25.0880 C   0  0  0  0  0  2  0  0  0  0  0  0
  -32.1550  -17.9780   24.1460 C   0  0  0  0  0  2  0  0  0  0  0  0
  -31.1120  -16.9190   23.7440 C   0  0  0  0  0  2  0  0  0  0  0  0
  -31.5770  -16.0280   22.5750 C   0  0  0  0  0  2  0  0  0  0  0  0
  -30.4550  -15.1020   22.0510 C   0  0  0  0  0  2  0  0  0  0  0  0
  -30.7980  -14.3160   20.7700 C   0  0  0  0  0  0  0  0  0  0  0  0
  -30.4200  -12.3020   19.3740 C   0  0  0  0  0  2  0  0  0  0  0  0
  -29.4790  -12.5390   18.1800 C   0  0  0  0  0  2  0  0  0  0  0  0
  -28.0070  -12.3790   18.6040 C   0  0  0  0  0  2  0  0  0  0  0  0
  -27.6680  -13.1990   19.8760 C   0  0  0  0  0  3  0  0  0  0  0  0
  -28.7090  -12.9370   20.9870 C   0  0  0  0  0  2  0  0  0  0  0  0
  -30.0500  -13.2280   20.4540 N   0  0  0  0  0  0  0  0  0  0  0  0
  -31.7770  -14.6600   20.0970 O   0  0  0  0  0  0  0  0  0  0  0  0
  -25.2620  -13.8140   20.5690 C   0  0  0  0  0  0  0  0  0  0  0  0
  -24.1860  -13.0440   20.9160 C   0  0  0  0  0  0  0  0  0  0  0  0
  -24.6390  -11.6890   20.8720 C   0  0  0  0  0  0  0  0  0  0  0  0
  -26.3050  -12.9310   20.3360 N   0  0  0  0  0  0  0  0  0  0  0  0
  -25.9320  -11.6470   20.5750 N   0  0  0  0  0  0  0  0  0  0  0  0
  -23.9060  -10.4290   21.0400 C   0  0  0  0  0  0  0  0  0  0  0  0
  -24.3610   -9.4210   21.9180 C   0  0  0  0  0  3  0  0  0  0  0  0
  -23.6290   -8.2240   22.0760 C   0  0  0  0  0  3  0  0  0  0  0  0
  -22.4270   -8.0280   21.3550 C   0  0  0  0  0  0  0  0  0  0  0  0
  -21.9900   -9.0250   20.4650 C   0  0  0  0  0  3  0  0  0  0  0  0
  -22.7240  -10.2130   20.3050 C   0  0  0  0  0  3  0  0  0  0  0  0
  -21.6630   -6.8880   21.4240 O   0  0  0  0  0  0  0  0  0  0  0  0
  -21.6850   -6.0730   22.5280 C   0  0  0  0  0  0  0  0  0  0  0  0
  -21.4010   -6.5640   23.8220 C   0  0  0  0  0  3  0  0  0  0  0  0
  -21.3650   -5.6790   24.9190 C   0  0  0  0  0  3  0  0  0  0  0  0
  -21.6050   -4.3050   24.7230 C   0  0  0  0  0  0  0  0  0  0  0  0
  -21.8820   -3.8150   23.4360 C   0  0  0  0  0  3  0  0  0  0  0  0
  -21.9190   -4.6960   22.3410 C   0  0  0  0  0  0  0  0  0  0  0  0
  -22.1660   -4.2150   21.0980 F   0  0  0  0  0  0  0  0  0  0  0  0
  -21.5630   -3.4540   25.7740 F   0  0  0  0  0  0  0  0  0  0  0  0
  -22.7880  -13.5230   21.1850 C   0  0  0  0  0  0  0  0  0  0  0  0
  -22.0500  -12.8230   22.0400 N   0  0  0  0  0  0  0  0  0  0  0  0
  -22.3570  -14.5550   20.6710 O   0  0  0  0  0  0  0  0  0  0  0  0
  -22.4090  -11.9870   22.4790 H   0  0  0  0  0  0  0  0  0  0  0  0
  -21.1110  -13.1270   22.2590 H   0  0  0  0  0  0  0  0  0  0  0  0
  -25.4330  -15.1870   20.4100 N   0  0  0  0  0  0  0  0  0  0  0  0
  -24.6690  -15.8430   20.5230 H   0  0  0  0  0  0  0  0  0  0  0  0
  -26.2940  -15.6290   20.1130 H   0  0  0  0  0  0  0  0  0  0  0  0
  1  2  2  0
  1  4  1  0
  2  5  1  0
  3  6  1  0
  4 10  1  0
  4  3  2  0
  5  6  2  0
  6 52  1  0
  7  5  1  0
 10  9  1  1
 10  8  1  0
 11 13  1  0
 11 10  1  0
 12 23  2  0
 13 18  1  0
 14 22  1  0
 14 24  1  0
 15 21  1  0
 15 17  1  0
 16 22  1  0
 17 16  1  0
 18 17  2  0
 19 20  1  0
 19 13  2  0
 20 15  2  0
 21 14  1  0
 22 12  1  0
 24 26  2  0
 25 24  1  0
 27 25  1  0
 28 37  2  0
 28 33  1  0
 29 25  1  0
 29 33  1  0
 30 29  1  0
 31 32  1  0
 31 30  1  0
 32 28  1  0
 33 34  2  0
 34 35  1  0
 36 35  2  0
 37 36  1  0
 38 12  1  0
 38 39  1  0
 38 48  1  0
 39 42  1  0
 40 44  1  0
 40 39  1  0
 41 40  2  0
 44 43  1  0
 46 44  1  0
 46 47  1  0
 46 45  1  0
 48 51  1  1
 48 49  1  0
 50 48  1  0
 52 54  1  0
 53 55  2  0
 53 57  1  0
 54 53  1  0
 56 54  1  0
 58 57  1  0
 59 58  1  0
 60 59  1  0
 61 60  1  0
 62 61  1  0
 63 68  1  0
 64 65  1  0
 64 63  1  0
 66 65  1  0
 66 73  1  0
 66 67  1  0
 68 62  1  0
 68 67  1  0
 69 62  2  0
 70 71  2  0
 71 90  1  0
 72 71  1  0
 72 75  1  0
 73 70  1  0
 73 74  1  0
 74 72  2  0
 75 76  1  0
 76 77  2  0
 78 81  1  0
 78 77  1  0
 79 78  2  0
 80 79  1  0
 80 75  2  0
 81 82  1  0
 82 83  1  0
 83 84  2  0
 85 84  1  0
 85 89  1  0
 86 85  2  0
 87 82  2  0
 87 86  1  0
 88 87  1  0
 90 91  1  0
 91 94  1  0
 91 93  1  0
 92 90  2  0
 95 96  1  0
 95 70  1  0
 97 95  1  0
M  ISO  4  10 101  11 101  61 100  62 100
M  END
>  <TORSDO>  (20) 
F 24

>  <SCORE>  (20) 
-0.383

>  <name>  (20) 
19

>  <ligand_id>  (20) 
19

>  <original_smiles>  (20) 
[H]c1c([H])c([H])c2c(c1[H])C([H])([H])C([H])([H])C([H])([H])C2([H])N([H])C(=O)C1([H])N(C(=O)C([H])(N([H])C(=O)C([H])(N([H])C([H])([H])[H])C([H])([H])[H])C(C([H])([H])[H])(C([H])([H])[H])C([H])([H])[H])C([H])([H])c2c([H])c(OC(c3c([H])c([H])c(C([H])([H])[H])c(C([H])([H])N([H])C(=O)C([H])([H])C([H])([H])C([H])([H])C([H])([H])C([H])([H])C(=O)N4C([H])([H])C([H])([H])C([H])([H])C([H])(n5nc(-c6c([H])c([H])c(Oc7c([H])c([H])c(F)c([H])c7F)c([H])c6[H])c(C(=O)N([H])[H])c5N([H])[H])C4([H])[H])c3[H])(C([H])([H])[H])C([H])([H])[H])c([H])c([H])c2C1([H])[H]

>  <smiles>  (20) 
[H]c1c([H])c([H])c2c(c1[H])C([H])([H])C([H])([H])C([H])([H])C2([H])N([H])C(=O)C1([H])N(C(=O)C([H])(N([H])C(=O)C([H])(N([H])C([H])([H])[H])C([H])([H])[H])C(C([H])([H])[H])(C([H])([H])[H])C([H])([H])[H])C([H])([H])c2c([H])c(OC(c3c([H])c([H])c(C([H])([H])[H])c(C([H])([H])N([H])C(=O)C([H])([H])C([H])([H])C([H])([H])C([H])([H])C([H])([H])C(=O)N4C([H])([H])C([H])([H])C([H])([H])C([H])(n5nc(-c6c([H])c([H])c(Oc7c([H])c([H])c(F)c([H])c7F)c([H])c6[H])c(C(=O)N([H])[H])c5N([H])[H])C4([H])[H])c3[H])(C([H])([H])[H])C([H])([H])[H])c([H])c([H])c2C1([H])[H]

$$$$
20:0:0
     RDKit          3D

 93101  0  0  1  0  0  0  0  0999 V2000
  -31.1080  -20.3290   21.4900 C   0  0  0  0  0  3  0  0  0  0  0  0
  -31.1010  -21.6800   21.0770 C   0  0  0  0  0  3  0  0  0  0  0  0
  -29.3160  -19.8480   19.9360 C   0  0  0  0  0  3  0  0  0  0  0  0
  -30.2510  -19.3790   20.8910 C   0  0  0  0  0  0  0  0  0  0  0  0
  -30.2200  -22.1320   20.0660 C   0  0  0  0  0  0  0  0  0  0  0  0
  -29.2840  -21.2050   19.5320 C   0  0  0  0  0  0  0  0  0  0  0  0
  -28.2420  -21.6280   18.5090 C   0  0  0  0  0  1  0  0  0  0  0  0
  -30.3310  -17.9310   21.3020 C   0  0  0  0  0  0  0  0  0  0  0  0
  -30.8380  -17.5640   22.3680 O   0  0  0  0  0  0  0  0  0  0  0  0
  -29.8040  -16.8740   20.3100 C   0  0  0  0  0  2  0  0  0  0  0  0
  -30.6140  -14.5070   20.3720 C   0  0  0  0  0  0  0  0  0  0  0  0
  -30.3410  -12.3630   19.1950 C   0  0  0  0  0  2  0  0  0  0  0  0
  -29.3790  -12.6030   18.0100 C   0  0  0  0  0  2  0  0  0  0  0  0
  -27.9070  -12.4710   18.4510 C   0  0  0  0  0  2  0  0  0  0  0  0
  -27.5940  -13.2710   19.7430 C   0  0  0  0  0  3  0  0  0  0  0  0
  -28.6590  -12.9890   20.8310 C   0  0  0  0  0  2  0  0  0  0  0  0
  -29.9830  -13.3070   20.2640 N   0  0  0  0  0  0  0  0  0  0  0  0
  -31.7220  -14.7400   19.8850 O   0  0  0  0  0  0  0  0  0  0  0  0
  -29.8210  -15.4910   20.8220 N   0  0  0  0  0  0  0  0  0  0  0  0
  -28.9710  -15.1900   21.2720 H   0  0  0  0  0  0  0  0  0  0  0  0
  -25.1990  -13.8910   20.4610 C   0  0  0  0  0  0  0  0  0  0  0  0
  -24.1310  -13.1210   20.8380 C   0  0  0  0  0  0  0  0  0  0  0  0
  -24.5880  -11.7680   20.8030 C   0  0  0  0  0  0  0  0  0  0  0  0
  -26.2410  -13.0050   20.2260 N   0  0  0  0  0  0  0  0  0  0  0  0
  -25.8760  -11.7250   20.4870 N   0  0  0  0  0  0  0  0  0  0  0  0
  -23.8630  -10.5080   20.9980 C   0  0  0  0  0  0  0  0  0  0  0  0
  -24.3020   -9.5390   21.9280 C   0  0  0  0  0  3  0  0  0  0  0  0
  -23.5780   -8.3410   22.1100 C   0  0  0  0  0  3  0  0  0  0  0  0
  -22.3990   -8.1050   21.3630 C   0  0  0  0  0  0  0  0  0  0  0  0
  -21.9800   -9.0610   20.4220 C   0  0  0  0  0  3  0  0  0  0  0  0
  -22.7050  -10.2510   20.2380 C   0  0  0  0  0  3  0  0  0  0  0  0
  -21.6460   -6.9600   21.4550 O   0  0  0  0  0  0  0  0  0  0  0  0
  -21.6040   -6.2160   22.6060 C   0  0  0  0  0  0  0  0  0  0  0  0
  -21.1860   -6.7700   23.8360 C   0  0  0  0  0  3  0  0  0  0  0  0
  -21.0920   -5.9530   24.9810 C   0  0  0  0  0  3  0  0  0  0  0  0
  -21.4050   -4.5830   24.8960 C   0  0  0  0  0  0  0  0  0  0  0  0
  -21.8170   -4.0280   23.6710 C   0  0  0  0  0  3  0  0  0  0  0  0
  -21.9130   -4.8430   22.5290 C   0  0  0  0  0  0  0  0  0  0  0  0
  -22.2900   -4.3010   21.3470 F   0  0  0  0  0  0  0  0  0  0  0  0
  -21.3070   -3.7950   25.9920 F   0  0  0  0  0  0  0  0  0  0  0  0
  -22.7360  -13.6010   21.1210 C   0  0  0  0  0  0  0  0  0  0  0  0
  -22.0150  -12.9020   21.9910 N   0  0  0  0  0  0  0  0  0  0  0  0
  -22.2960  -14.6280   20.6080 O   0  0  0  0  0  0  0  0  0  0  0  0
  -22.3870  -12.0720   22.4260 H   0  0  0  0  0  0  0  0  0  0  0  0
  -21.0790  -13.2020   22.2270 H   0  0  0  0  0  0  0  0  0  0  0  0
  -25.3650  -15.2610   20.2820 N   0  0  0  0  0  0  0  0  0  0  0  0
  -24.5940  -15.9130   20.3820 H   0  0  0  0  0  0  0  0  0  0  0  0
  -26.2040  -15.6940   19.9200 H   0  0  0  0  0  0  0  0  0  0  0  0
  -31.8370  -23.8850   19.1820 C   0  0  0  0  0  1  0  0  0  0  0  0
  -30.3630  -23.5630   19.5010 C   0  0  0  0  0  3  0  0  0  0  0  0
  -29.7300  -24.6880   20.3710 C   0  0  0  0  0  2  0  0  0  0  0  0
  -28.5110  -25.4070   19.7390 C   0  0  0  0  0  2  0  0  0  0  0  0
  -28.4320  -26.7520   20.2310 O   0  0  0  0  0  0  0  0  0  0  0  0
  -24.5760  -31.8960   23.2480 C   0  0  0  0  0  0  0  0  0  0  0  0
  -27.2370  -27.4470   20.1810 C   0  0  0  0  0  0  0  0  0  0  0  0
  -23.3750  -30.4900   21.6040 C   0  0  0  0  0  3  0  0  0  0  0  0
  -24.8340  -28.9530   20.1820 C   0  0  0  0  0  0  0  0  0  0  0  0
  -25.8990  -30.8510   21.4100 C   0  0  0  0  0  2  0  0  0  0  0  0
  -25.9880  -29.4780   20.7760 C   0  0  0  0  0  0  0  0  0  0  0  0
  -27.1870  -28.7300   20.7750 C   0  0  0  0  0  3  0  0  0  0  0  0
  -26.0630  -26.9410   19.5730 C   0  0  0  0  0  3  0  0  0  0  0  0
  -24.8670  -27.6840   19.5790 C   0  0  0  0  0  3  0  0  0  0  0  0
  -23.5880  -29.8100   20.2240 C   0  0  0  0  0  2  0  0  0  0  0  0
  -24.6350  -31.0940   22.1470 N   0  0  0  0  0  0  0  0  0  0  0  0
  -23.4930  -32.1680   23.7840 O   0  0  0  0  0  0  0  0  0  0  0  0
  -22.7220  -29.4690   22.5640 C   0  0  0  0  0  0  0  0  0  0  0  0
  -21.4000  -29.2830   22.4300 N   0  0  0  0  0  0  0  0  0  0  0  0
  -23.4030  -28.8490   23.3850 O   0  0  0  0  0  0  0  0  0  0  0  0
  -20.9120  -29.8360   21.7390 H   0  0  0  0  0  0  0  0  0  0  0  0
  -18.0260  -28.0790   22.9050 C   0  0  0  0  0  0  0  0  0  0  0  0
  -20.5800  -28.3450   23.1960 C   0  0  0  0  0  3  0  0  0  0  0  0
  -20.6930  -26.9120   22.6250 C   0  0  0  0  0  2  0  0  0  0  0  0
  -19.6000  -26.5830   21.6040 C   0  0  0  0  0  2  0  0  0  0  0  0
  -18.2120  -26.7270   22.2360 C   0  0  0  0  0  2  0  0  0  0  0  0
  -19.1390  -28.8450   23.3410 C   0  0  0  0  0  0  0  0  0  0  0  0
  -18.9130  -30.1110   23.9260 C   0  0  0  0  0  3  0  0  0  0  0  0
  -17.6050  -30.6100   24.0770 C   0  0  0  0  0  3  0  0  0  0  0  0
  -16.5070  -29.8410   23.6570 C   0  0  0  0  0  3  0  0  0  0  0  0
  -16.7180  -28.5770   23.0770 C   0  0  0  0  0  3  0  0  0  0  0  0
  -25.8600  -32.5280   23.8710 C   0  0  0  0  0  3  0  0  0  0  0  0
  -25.5540  -33.9280   24.1930 N   0  0  0  0  0  0  0  0  0  0  0  0
  -25.8960  -34.9750   23.4310 C   0  0  0  0  0  0  0  0  0  0  0  0
  -26.5740  -34.8650   22.4050 O   0  0  0  0  0  0  0  0  0  0  0  0
  -24.9550  -34.0890   24.9890 H   0  0  0  0  0  0  0  0  0  0  0  0
  -24.1780  -36.7710   23.0480 C   0  0  0  0  0  1  0  0  0  0  0  0
  -25.4070  -36.3670   23.8770 C   0  0  0  0  0  3  0  0  0  0  0  0
  -27.5340  -37.2470   24.7310 C   0  0  0  0  0  1  0  0  0  0  0  0
  -26.4440  -37.4160   23.7730 N   0  0  0  0  0  0  0  0  0  0  0  0
  -26.0410  -38.3370   23.9130 H   0  0  0  0  0  0  0  0  0  0  0  0
  -26.3740  -31.7600   25.1500 C   0  0  1  0  0  0  0  0  0  0  0  0
  -25.2780  -31.5260   26.2170 C   0  0  0  0  0  1  0  0  0  0  0  0
  -26.9560  -30.3800   24.7580 C   0  0  0  0  0  1  0  0  0  0  0  0
  -27.5250  -32.5540   25.8130 C   0  0  0  0  0  1  0  0  0  0  0  0
  2  1  1  0
  3  4  1  0
  4  8  1  0
  4  1  2  0
  5  2  2  0
  6  3  2  0
  6  5  1  0
  7  6  1  0
  8  9  2  0
 10 19  1  0
 10  8  1  0
 11 19  1  0
 12 17  1  0
 13 14  1  0
 13 12  1  0
 15 14  1  0
 15 24  1  0
 15 16  1  0
 17 11  1  0
 17 16  1  0
 18 11  2  0
 19 20  1  0
 21 22  2  0
 22 41  1  0
 23 22  1  0
 23 26  1  0
 24 21  1  0
 24 25  1  0
 25 23  2  0
 26 27  1  0
 27 28  2  0
 29 32  1  0
 29 28  1  0
 30 29  2  0
 31 30  1  0
 31 26  2  0
 32 33  1  0
 33 34  1  0
 34 35  2  0
 36 35  1  0
 36 40  1  0
 37 36  2  0
 38 33  2  0
 38 37  1  0
 39 38  1  0
 41 42  1  0
 42 45  1  0
 42 44  1  0
 43 41  2  0
 46 47  1  0
 46 21  1  0
 48 46  1  0
 50 49  1  0
 50  5  1  0
 50 51  1  0
 52 53  1  0
 52 51  1  0
 54 65  2  0
 55 53  1  0
 55 60  1  0
 56 64  1  0
 56 66  1  0
 57 63  1  0
 57 59  1  0
 58 64  1  0
 59 58  1  0
 60 59  2  0
 61 62  1  0
 61 55  2  0
 62 57  2  0
 63 56  1  0
 64 54  1  0
 66 68  2  0
 67 66  1  0
 69 67  1  0
 70 79  2  0
 70 75  1  0
 71 67  1  0
 71 75  1  0
 72 71  1  0
 73 74  1  0
 73 72  1  0
 74 70  1  0
 75 76  2  0
 76 77  1  0
 78 77  2  0
 79 78  1  0
 80 54  1  0
 80 81  1  0
 80 90  1  0
 81 84  1  0
 82 86  1  0
 82 81  1  0
 83 82  2  0
 86 85  1  0
 88 86  1  0
 88 89  1  0
 88 87  1  0
 90 93  1  1
 90 91  1  0
 92 90  1  0
M  ISO  4  11 100  19 100  52 101  53 101
M  END
>  <TORSDO>  (21) 
F 21

>  <SCORE>  (21) 
-13.735

>  <name>  (21) 
20

>  <ligand_id>  (21) 
20

>  <original_smiles>  (21) 
[H]c1c([H])c([H])c2c(c1[H])C([H])([H])C([H])([H])C([H])([H])C2([H])N([H])C(=O)C1([H])N(C(=O)C([H])(N([H])C(=O)C([H])(N([H])C([H])([H])[H])C([H])([H])[H])C(C([H])([H])[H])(C([H])([H])[H])C([H])([H])[H])C([H])([H])c2c([H])c(OC([H])([H])C([H])([H])C([H])(c3c([H])c([H])c(C(=O)C([H])([H])N([H])C(=O)N4C([H])([H])C([H])([H])C([H])([H])C([H])(n5nc(-c6c([H])c([H])c(Oc7c([H])c([H])c(F)c([H])c7F)c([H])c6[H])c(C(=O)N([H])[H])c5N([H])[H])C4([H])[H])c([H])c3C([H])([H])[H])C([H])([H])[H])c([H])c([H])c2C1([H])[H]

>  <smiles>  (21) 
[H]c1c([H])c([H])c2c(c1[H])C([H])([H])C([H])([H])C([H])([H])C2([H])N([H])C(=O)C1([H])N(C(=O)C([H])(N([H])C(=O)C([H])(N([H])C([H])([H])[H])C([H])([H])[H])C(C([H])([H])[H])(C([H])([H])[H])C([H])([H])[H])C([H])([H])c2c([H])c(OC([H])([H])C([H])([H])C([H])(c3c([H])c([H])c(C(=O)C([H])([H])N([H])C(=O)N4C([H])([H])C([H])([H])C([H])([H])C([H])(n5nc(-c6c([H])c([H])c(Oc7c([H])c([H])c(F)c([H])c7F)c([H])c6[H])c(C(=O)N([H])[H])c5N([H])[H])C4([H])[H])c([H])c3C([H])([H])[H])C([H])([H])[H])c([H])c([H])c2C1([H])[H]

$$$$
21:0:0
     RDKit          3D

 93101  0  0  1  0  0  0  0  0999 V2000
  -30.4220  -19.6840   16.3870 C   0  0  0  0  0  3  0  0  0  0  0  0
  -29.8090  -20.9360   16.2420 C   0  0  0  0  0  3  0  0  0  0  0  0
  -30.5990  -19.1400   17.6710 C   0  0  0  0  0  3  0  0  0  0  0  0
  -29.3820  -21.6420   17.3790 C   0  0  0  0  0  3  0  0  0  0  0  0
  -30.1710  -19.8330   18.8320 C   0  0  0  0  0  0  0  0  0  0  0  0
  -29.5600  -21.1210   18.6840 C   0  0  0  0  0  0  0  0  0  0  0  0
  -30.4120  -19.1640   20.1540 C   0  0  0  0  0  0  0  0  0  0  0  0
  -30.9760  -19.7360   21.0940 O   0  0  0  0  0  0  0  0  0  0  0  0
  -29.9450  -17.6910   20.3580 C   0  0  0  0  0  0  0  0  0  0  0  0
  -28.9400  -17.2460   19.7870 O   0  0  0  0  0  0  0  0  0  0  0  0
  -30.7760  -16.8120   21.3060 C   0  0  0  0  0  2  0  0  0  0  0  0
  -30.2250  -15.3740   21.4940 C   0  0  0  0  0  2  0  0  0  0  0  0
  -30.7410  -14.3570   20.4560 C   0  0  0  0  0  0  0  0  0  0  0  0
  -30.3480  -12.3240   19.1000 C   0  0  0  0  0  2  0  0  0  0  0  0
  -29.3730  -12.6380   17.9480 C   0  0  0  0  0  2  0  0  0  0  0  0
  -27.9090  -12.5120   18.4120 C   0  0  0  0  0  2  0  0  0  0  0  0
  -27.6370  -13.2620   19.7430 C   0  0  0  0  0  3  0  0  0  0  0  0
  -28.7140  -12.9060   20.7930 C   0  0  0  0  0  2  0  0  0  0  0  0
  -30.0300  -13.2240   20.2170 N   0  0  0  0  0  0  0  0  0  0  0  0
  -31.7840  -14.6180   19.8460 O   0  0  0  0  0  0  0  0  0  0  0  0
  -25.2490  -13.8870   20.4770 C   0  0  0  0  0  0  0  0  0  0  0  0
  -24.1810  -13.1210   20.8610 C   0  0  0  0  0  0  0  0  0  0  0  0
  -24.6330  -11.7660   20.8200 C   0  0  0  0  0  0  0  0  0  0  0  0
  -26.2870  -13.0000   20.2350 N   0  0  0  0  0  0  0  0  0  0  0  0
  -25.9180  -11.7180   20.4920 N   0  0  0  0  0  0  0  0  0  0  0  0
  -23.9020  -10.5080   21.0220 C   0  0  0  0  0  0  0  0  0  0  0  0
  -24.3490   -9.5340   21.9420 C   0  0  0  0  0  3  0  0  0  0  0  0
  -23.6200   -8.3400   22.1310 C   0  0  0  0  0  3  0  0  0  0  0  0
  -22.4300   -8.1120   21.4010 C   0  0  0  0  0  0  0  0  0  0  0  0
  -22.0030   -9.0740   20.4700 C   0  0  0  0  0  3  0  0  0  0  0  0
  -22.7310  -10.2600   20.2800 C   0  0  0  0  0  3  0  0  0  0  0  0
  -21.6720   -6.9700   21.4990 O   0  0  0  0  0  0  0  0  0  0  0  0
  -21.6490   -6.2190   22.6460 C   0  0  0  0  0  0  0  0  0  0  0  0
  -21.2590   -6.7660   23.8880 C   0  0  0  0  0  3  0  0  0  0  0  0
  -21.1820   -5.9410   25.0270 C   0  0  0  0  0  3  0  0  0  0  0  0
  -21.4850   -4.5700   24.9270 C   0  0  0  0  0  0  0  0  0  0  0  0
  -21.8680   -4.0220   23.6910 C   0  0  0  0  0  3  0  0  0  0  0  0
  -21.9470   -4.8440   22.5530 C   0  0  0  0  0  0  0  0  0  0  0  0
  -22.2960   -4.3080   21.3590 F   0  0  0  0  0  0  0  0  0  0  0  0
  -21.4030   -3.7750   26.0210 F   0  0  0  0  0  0  0  0  0  0  0  0
  -22.7910  -13.6040   21.1580 C   0  0  0  0  0  0  0  0  0  0  0  0
  -22.0750  -12.9090   22.0360 N   0  0  0  0  0  0  0  0  0  0  0  0
  -22.3490  -14.6330   20.6500 O   0  0  0  0  0  0  0  0  0  0  0  0
  -22.4480  -12.0750   22.4670 H   0  0  0  0  0  0  0  0  0  0  0  0
  -21.1460  -13.2150   22.2820 H   0  0  0  0  0  0  0  0  0  0  0  0
  -25.4230  -15.2560   20.2970 N   0  0  0  0  0  0  0  0  0  0  0  0
  -24.6650  -15.9200   20.4150 H   0  0  0  0  0  0  0  0  0  0  0  0
  -26.2810  -15.6880   19.9730 H   0  0  0  0  0  0  0  0  0  0  0  0
  -29.0370  -21.9580   19.8650 C   0  0  0  0  0  2  0  0  0  0  0  0
  -29.4140  -23.4590   19.8160 C   0  0  0  0  0  2  0  0  0  0  0  0
  -28.2620  -24.3820   19.3660 C   0  0  0  0  0  2  0  0  0  0  0  0
  -28.6960  -25.8340   19.0670 C   0  0  0  0  0  2  0  0  0  0  0  0
  -28.4450  -26.7350   20.1490 O   0  0  0  0  0  0  0  0  0  0  0  0
  -24.5810  -31.8580   23.2370 C   0  0  0  0  0  0  0  0  0  0  0  0
  -27.2470  -27.4210   20.1590 C   0  0  0  0  0  0  0  0  0  0  0  0
  -23.3830  -30.4570   21.5880 C   0  0  0  0  0  3  0  0  0  0  0  0
  -24.8430  -28.9150   20.1780 C   0  0  0  0  0  0  0  0  0  0  0  0
  -25.9110  -30.8070   21.4120 C   0  0  0  0  0  2  0  0  0  0  0  0
  -25.9950  -29.4360   20.7770 C   0  0  0  0  0  0  0  0  0  0  0  0
  -27.1950  -28.6890   20.7800 C   0  0  0  0  0  3  0  0  0  0  0  0
  -26.0690  -26.9070   19.5670 C   0  0  0  0  0  3  0  0  0  0  0  0
  -24.8730  -27.6460   19.5760 C   0  0  0  0  0  3  0  0  0  0  0  0
  -23.6000  -29.7740   20.2130 C   0  0  0  0  0  2  0  0  0  0  0  0
  -24.6430  -31.0570   22.1360 N   0  0  0  0  0  0  0  0  0  0  0  0
  -23.4960  -32.1350   23.7670 O   0  0  0  0  0  0  0  0  0  0  0  0
  -22.7240  -29.4370   22.5450 C   0  0  0  0  0  0  0  0  0  0  0  0
  -21.4000  -29.2580   22.4060 N   0  0  0  0  0  0  0  0  0  0  0  0
  -23.4000  -28.8110   23.3660 O   0  0  0  0  0  0  0  0  0  0  0  0
  -20.9180  -29.8120   21.7120 H   0  0  0  0  0  0  0  0  0  0  0  0
  -18.0190  -28.0820   22.8840 C   0  0  0  0  0  0  0  0  0  0  0  0
  -20.5760  -28.3250   23.1700 C   0  0  0  0  0  3  0  0  0  0  0  0
  -20.6750  -26.8940   22.5930 C   0  0  0  0  0  2  0  0  0  0  0  0
  -19.5770  -26.5790   21.5720 C   0  0  0  0  0  2  0  0  0  0  0  0
  -18.1910  -26.7320   22.2070 C   0  0  0  0  0  2  0  0  0  0  0  0
  -19.1390  -28.8370   23.3220 C   0  0  0  0  0  0  0  0  0  0  0  0
  -18.9240  -30.1020   23.9100 C   0  0  0  0  0  3  0  0  0  0  0  0
  -17.6230  -30.6120   24.0670 C   0  0  0  0  0  3  0  0  0  0  0  0
  -16.5160  -29.8530   23.6460 C   0  0  0  0  0  3  0  0  0  0  0  0
  -16.7150  -28.5900   23.0620 C   0  0  0  0  0  3  0  0  0  0  0  0
  -25.8650  -32.4860   23.8650 C   0  0  0  0  0  3  0  0  0  0  0  0
  -25.5610  -33.8870   24.1840 N   0  0  0  0  0  0  0  0  0  0  0  0
  -25.9070  -34.9330   23.4210 C   0  0  0  0  0  0  0  0  0  0  0  0
  -26.5850  -34.8190   22.3970 O   0  0  0  0  0  0  0  0  0  0  0  0
  -24.9610  -34.0510   24.9790 H   0  0  0  0  0  0  0  0  0  0  0  0
  -24.1910  -36.7300   23.0360 C   0  0  0  0  0  1  0  0  0  0  0  0
  -25.4200  -36.3250   23.8660 C   0  0  0  0  0  3  0  0  0  0  0  0
  -27.5480  -37.2020   24.7190 C   0  0  0  0  0  1  0  0  0  0  0  0
  -26.4590  -37.3720   23.7600 N   0  0  0  0  0  0  0  0  0  0  0  0
  -26.0570  -38.2950   23.8960 H   0  0  0  0  0  0  0  0  0  0  0  0
  -26.3710  -31.7180   25.1480 C   0  0  1  0  0  0  0  0  0  0  0  0
  -25.2700  -31.4880   26.2080 C   0  0  0  0  0  1  0  0  0  0  0  0
  -26.9530  -30.3370   24.7650 C   0  0  0  0  0  1  0  0  0  0  0  0
  -27.5190  -32.5130   25.8140 C   0  0  0  0  0  1  0  0  0  0  0  0
  1  3  1  0
  2  1  2  0
  2  4  1  0
  3  5  2  0
  4  6  2  0
  5  7  1  0
  6  5  1  0
  6 49  1  0
  7  9  1  0
  7  8  2  0
  9 11  1  0
 10  9  2  0
 11 12  1  0
 13 12  1  0
 14 19  1  0
 15 16  1  0
 15 14  1  0
 17 16  1  0
 17 24  1  0
 17 18  1  0
 19 13  1  0
 19 18  1  0
 20 13  2  0
 21 22  2  0
 22 41  1  0
 23 22  1  0
 23 26  1  0
 24 21  1  0
 24 25  1  0
 25 23  2  0
 26 27  1  0
 27 28  2  0
 29 32  1  0
 29 28  1  0
 30 29  2  0
 31 30  1  0
 31 26  2  0
 32 33  1  0
 33 34  1  0
 34 35  2  0
 36 35  1  0
 36 40  1  0
 37 36  2  0
 38 33  2  0
 38 37  1  0
 39 38  1  0
 41 42  1  0
 42 45  1  0
 42 44  1  0
 43 41  2  0
 46 47  1  0
 46 21  1  0
 48 46  1  0
 50 49  1  0
 51 50  1  0
 52 51  1  0
 52 53  1  0
 53 55  1  0
 54 65  2  0
 55 60  1  0
 56 64  1  0
 56 66  1  0
 57 63  1  0
 57 59  1  0
 58 64  1  0
 59 60  2  0
 59 58  1  0
 61 62  1  0
 61 55  2  0
 62 57  2  0
 63 56  1  0
 64 54  1  0
 66 68  2  0
 67 66  1  0
 69 67  1  0
 70 79  2  0
 70 75  1  0
 71 67  1  0
 71 75  1  0
 72 71  1  0
 73 74  1  0
 73 72  1  0
 74 70  1  0
 75 76  2  0
 76 77  1  0
 78 77  2  0
 79 78  1  0
 80 54  1  0
 80 81  1  0
 80 90  1  0
 81 84  1  0
 82 86  1  0
 82 81  1  0
 83 82  2  0
 86 85  1  0
 88 86  1  0
 88 89  1  0
 88 87  1  0
 90 93  1  1
 90 91  1  0
 92 90  1  0
M  ISO  4  12 100  13 100  52 101  53 101
M  END
>  <TORSDO>  (22) 
F 24

>  <SCORE>  (22) 
-12.665

>  <name>  (22) 
21

>  <ligand_id>  (22) 
21

>  <original_smiles>  (22) 
[H]c1c([H])c([H])c(C([H])([H])C([H])([H])C([H])([H])C([H])([H])Oc2c([H])c([H])c3c(c2[H])C([H])([H])N(C(=O)C([H])(N([H])C(=O)C([H])(N([H])C([H])([H])[H])C([H])([H])[H])C(C([H])([H])[H])(C([H])([H])[H])C([H])([H])[H])C([H])(C(=O)N([H])C2([H])c4c([H])c([H])c([H])c([H])c4C([H])([H])C([H])([H])C2([H])[H])C3([H])[H])c(C(=O)C(=O)C([H])([H])C([H])([H])C(=O)N2C([H])([H])C([H])([H])C([H])([H])C([H])(n3nc(-c4c([H])c([H])c(Oc5c([H])c([H])c(F)c([H])c5F)c([H])c4[H])c(C(=O)N([H])[H])c3N([H])[H])C2([H])[H])c1[H]

>  <smiles>  (22) 
[H]c1c([H])c([H])c(C([H])([H])C([H])([H])C([H])([H])C([H])([H])Oc2c([H])c([H])c3c(c2[H])C([H])([H])N(C(=O)C([H])(N([H])C(=O)C([H])(N([H])C([H])([H])[H])C([H])([H])[H])C(C([H])([H])[H])(C([H])([H])[H])C([H])([H])[H])C([H])(C(=O)N([H])C2([H])c4c([H])c([H])c([H])c([H])c4C([H])([H])C([H])([H])C2([H])[H])C3([H])[H])c(C(=O)C(=O)C([H])([H])C([H])([H])C(=O)N2C([H])([H])C([H])([H])C([H])([H])C([H])(n3nc(-c4c([H])c([H])c(Oc5c([H])c([H])c(F)c([H])c5F)c([H])c4[H])c(C(=O)N([H])[H])c3N([H])[H])C2([H])[H])c1[H]

$$$$
22:0:0
     RDKit          3D

 92100  0  0  1  0  0  0  0  0999 V2000
  -30.8570  -18.9040   18.5290 C   0  0  0  0  0  3  0  0  0  0  0  0
  -30.9310  -17.7680   19.3620 C   0  0  0  0  0  3  0  0  0  0  0  0
  -30.2000  -20.0750   18.9580 C   0  0  0  0  0  3  0  0  0  0  0  0
  -29.6610  -18.9580   21.0430 C   0  0  0  0  0  3  0  0  0  0  0  0
  -30.3460  -17.7620   20.6500 C   0  0  0  0  0  0  0  0  0  0  0  0
  -29.6030  -20.1270   20.2330 C   0  0  0  0  0  0  0  0  0  0  0  0
  -30.7350  -15.2660   21.4900 C   0  0  0  0  0  3  0  0  0  0  0  0
  -30.4330  -16.5940   21.6100 C   0  0  0  0  0  0  0  0  0  0  0  0
  -31.1420  -14.4530   20.3380 C   0  0  0  0  0  0  0  0  0  0  0  0
  -30.6680  -12.4210   18.9920 C   0  0  0  0  0  2  0  0  0  0  0  0
  -29.6970  -12.7450   17.8370 C   0  0  0  0  0  2  0  0  0  0  0  0
  -28.2330  -12.6440   18.3040 C   0  0  0  0  0  2  0  0  0  0  0  0
  -27.9810  -13.4130   19.6270 C   0  0  0  0  0  3  0  0  0  0  0  0
  -29.0510  -13.0560   20.6830 C   0  0  0  0  0  2  0  0  0  0  0  0
  -30.3800  -13.3410   20.1070 N   0  0  0  0  0  0  0  0  0  0  0  0
  -32.1700  -14.6700   19.6920 O   0  0  0  0  0  0  0  0  0  0  0  0
  -25.6180  -14.1000   20.3820 C   0  0  0  0  0  0  0  0  0  0  0  0
  -24.5300  -13.3670   20.7700 C   0  0  0  0  0  0  0  0  0  0  0  0
  -24.9440  -12.0010   20.7340 C   0  0  0  0  0  0  0  0  0  0  0  0
  -26.6270  -13.1840   20.1300 N   0  0  0  0  0  0  0  0  0  0  0  0
  -26.2260  -11.9150   20.3990 N   0  0  0  0  0  0  0  0  0  0  0  0
  -24.1770  -10.7660   20.9400 C   0  0  0  0  0  0  0  0  0  0  0  0
  -24.5830   -9.7910   21.8770 C   0  0  0  0  0  3  0  0  0  0  0  0
  -23.8180   -8.6200   22.0680 C   0  0  0  0  0  3  0  0  0  0  0  0
  -22.6340   -8.4160   21.3220 C   0  0  0  0  0  0  0  0  0  0  0  0
  -22.2480   -9.3780   20.3720 C   0  0  0  0  0  3  0  0  0  0  0  0
  -23.0130  -10.5410   20.1780 C   0  0  0  0  0  3  0  0  0  0  0  0
  -21.8430   -7.2960   21.4210 O   0  0  0  0  0  0  0  0  0  0  0  0
  -21.7610   -6.5740   22.5840 C   0  0  0  0  0  0  0  0  0  0  0  0
  -21.3510   -7.1630   23.8000 C   0  0  0  0  0  3  0  0  0  0  0  0
  -21.2120   -6.3690   24.9550 C   0  0  0  0  0  3  0  0  0  0  0  0
  -21.4760   -4.9880   24.8990 C   0  0  0  0  0  0  0  0  0  0  0  0
  -21.8800   -4.3990   23.6880 C   0  0  0  0  0  3  0  0  0  0  0  0
  -22.0200   -5.1900   22.5340 C   0  0  0  0  0  0  0  0  0  0  0  0
  -22.3900   -4.6120   21.3650 F   0  0  0  0  0  0  0  0  0  0  0  0
  -21.3360   -4.2240   26.0070 F   0  0  0  0  0  0  0  0  0  0  0  0
  -23.1570  -13.8950   21.0700 C   0  0  0  0  0  0  0  0  0  0  0  0
  -22.4240  -13.2310   21.9570 N   0  0  0  0  0  0  0  0  0  0  0  0
  -22.7440  -14.9330   20.5540 O   0  0  0  0  0  0  0  0  0  0  0  0
  -22.7710  -12.3910   22.3950 H   0  0  0  0  0  0  0  0  0  0  0  0
  -21.5060  -13.5720   22.2040 H   0  0  0  0  0  0  0  0  0  0  0  0
  -25.8220  -15.4670   20.2050 N   0  0  0  0  0  0  0  0  0  0  0  0
  -25.0780  -16.1410   20.3370 H   0  0  0  0  0  0  0  0  0  0  0  0
  -26.6890  -15.8920   19.9000 H   0  0  0  0  0  0  0  0  0  0  0  0
  -30.1930  -16.9880   22.8700 O   0  0  0  0  0  0  0  0  0  0  0  0
  -30.1180  -17.9330   22.8580 H   0  0  0  0  0  0  0  0  0  0  0  0
  -28.9010  -21.4050   20.7530 C   0  0  0  0  0  3  0  0  0  0  0  0
  -29.2080  -22.7400   19.9940 C   0  0  0  0  0  3  0  0  0  0  0  0
  -28.6100  -24.0500   20.5870 C   0  0  0  0  0  0  0  0  0  0  0  0
  -28.1220  -24.0740   21.7220 O   0  0  0  0  0  0  0  0  0  0  0  0
  -28.6720  -25.3330   19.7090 C   0  0  0  0  0  2  0  0  0  0  0  0
  -28.4790  -26.5730   20.4450 O   0  0  0  0  0  0  0  0  0  0  0  0
  -24.5940  -31.8540   23.2740 C   0  0  0  0  0  0  0  0  0  0  0  0
  -27.3010  -27.3040   20.3570 C   0  0  0  0  0  0  0  0  0  0  0  0
  -23.4310  -30.4340   21.6170 C   0  0  0  0  0  3  0  0  0  0  0  0
  -24.9190  -28.8580   20.2650 C   0  0  0  0  0  0  0  0  0  0  0  0
  -25.9670  -30.7600   21.5000 C   0  0  0  0  0  2  0  0  0  0  0  0
  -26.0620  -29.3740   20.8860 C   0  0  0  0  0  0  0  0  0  0  0  0
  -27.2510  -28.6020   20.9310 C   0  0  0  0  0  3  0  0  0  0  0  0
  -26.1300  -26.8080   19.7390 C   0  0  0  0  0  3  0  0  0  0  0  0
  -24.9510  -27.5770   19.6890 C   0  0  0  0  0  3  0  0  0  0  0  0
  -23.6810  -29.7300   20.2560 C   0  0  0  0  0  2  0  0  0  0  0  0
  -24.6800  -31.0340   22.1890 N   0  0  0  0  0  0  0  0  0  0  0  0
  -23.4970  -32.1450   23.7730 O   0  0  0  0  0  0  0  0  0  0  0  0
  -22.7400  -29.4370   22.5750 C   0  0  0  0  0  0  0  0  0  0  0  0
  -21.4210  -29.2520   22.3980 N   0  0  0  0  0  0  0  0  0  0  0  0
  -23.3900  -28.8310   23.4310 O   0  0  0  0  0  0  0  0  0  0  0  0
  -20.9580  -29.7910   21.6800 H   0  0  0  0  0  0  0  0  0  0  0  0
  -18.0360  -28.0430   22.7670 C   0  0  0  0  0  0  0  0  0  0  0  0
  -20.5760  -28.3300   23.1570 C   0  0  0  0  0  3  0  0  0  0  0  0
  -20.7170  -26.8840   22.6300 C   0  0  0  0  0  2  0  0  0  0  0  0
  -19.6690  -26.5220   21.5720 C   0  0  0  0  0  2  0  0  0  0  0  0
  -18.2550  -26.6740   22.1420 C   0  0  0  0  0  2  0  0  0  0  0  0
  -19.1270  -28.8250   23.2300 C   0  0  0  0  0  0  0  0  0  0  0  0
  -18.8690  -30.1040   23.7730 C   0  0  0  0  0  3  0  0  0  0  0  0
  -17.5550  -30.5980   23.8600 C   0  0  0  0  0  3  0  0  0  0  0  0
  -16.4780  -29.8130   23.4140 C   0  0  0  0  0  3  0  0  0  0  0  0
  -16.7180  -28.5370   22.8730 C   0  0  0  0  0  3  0  0  0  0  0  0
  -25.8640  -32.4860   23.9250 C   0  0  0  0  0  3  0  0  0  0  0  0
  -25.5550  -33.8880   24.2300 N   0  0  0  0  0  0  0  0  0  0  0  0
  -25.9070  -34.9290   23.4640 C   0  0  0  0  0  0  0  0  0  0  0  0
  -26.6000  -34.8090   22.4500 O   0  0  0  0  0  0  0  0  0  0  0  0
  -24.9430  -34.0550   25.0140 H   0  0  0  0  0  0  0  0  0  0  0  0
  -24.1860  -36.7150   23.0530 C   0  0  0  0  0  1  0  0  0  0  0  0
  -25.4140  -36.3240   23.8910 C   0  0  0  0  0  3  0  0  0  0  0  0
  -27.5340  -37.2250   24.7420 C   0  0  0  0  0  1  0  0  0  0  0  0
  -26.4490  -37.3750   23.7760 N   0  0  0  0  0  0  0  0  0  0  0  0
  -26.0400  -38.2980   23.8990 H   0  0  0  0  0  0  0  0  0  0  0  0
  -26.3390  -31.7270   25.2260 C   0  0  1  0  0  0  0  0  0  0  0  0
  -25.2100  -31.5100   26.2600 C   0  0  0  0  0  1  0  0  0  0  0  0
  -26.9290  -30.3430   24.8680 C   0  0  0  0  0  1  0  0  0  0  0  0
  -27.4730  -32.5250   25.9140 C   0  0  0  0  0  1  0  0  0  0  0  0
  1  3  2  0
  1  2  1  0
  2  5  2  0
  3  6  1  0
  5  4  1  0
  5  8  1  0
  6 47  1  0
  6  4  2  0
  7  8  2  0
  8 45  1  0
  9  7  1  0
 10 15  1  0
 11 12  1  0
 11 10  1  0
 13 12  1  0
 13 20  1  0
 13 14  1  0
 15  9  1  0
 15 14  1  0
 16  9  2  0
 17 18  2  0
 18 37  1  0
 19 18  1  0
 19 22  1  0
 20 17  1  0
 20 21  1  0
 21 19  2  0
 22 23  1  0
 23 24  2  0
 25 28  1  0
 25 24  1  0
 26 25  2  0
 27 26  1  0
 27 22  2  0
 28 29  1  0
 29 30  1  0
 30 31  2  0
 32 31  1  0
 32 36  1  0
 33 32  2  0
 34 29  2  0
 34 33  1  0
 35 34  1  0
 37 38  1  0
 38 41  1  0
 38 40  1  0
 39 37  2  0
 42 43  1  0
 42 17  1  0
 44 42  1  0
 46 45  1  0
 48 49  1  0
 48 47  2  0
 49 50  2  0
 51 52  1  0
 51 49  1  0
 53 64  2  0
 54 52  1  0
 54 59  1  0
 55 63  1  0
 55 65  1  0
 56 58  1  0
 57 63  1  0
 58 59  2  0
 58 57  1  0
 60 54  2  0
 61 60  1  0
 61 56  2  0
 62 56  1  0
 62 55  1  0
 63 53  1  0
 65 67  2  0
 66 65  1  0
 68 66  1  0
 69 78  2  0
 69 74  1  0
 70 66  1  0
 70 74  1  0
 71 70  1  0
 72 73  1  0
 72 71  1  0
 73 69  1  0
 74 75  2  0
 75 76  1  0
 77 76  2  0
 78 77  1  0
 79 53  1  0
 79 80  1  0
 79 89  1  0
 80 83  1  0
 81 85  1  0
 81 80  1  0
 82 81  2  0
 85 84  1  0
 87 85  1  0
 87 88  1  0
 87 86  1  0
 89 92  1  1
 89 90  1  0
 91 89  1  0
M  ISO  4   7 100   9 100  51 101  52 101
M  END
>  <TORSDO>  (23) 
F 22

>  <SCORE>  (23) 
-13.497

>  <name>  (23) 
22

>  <ligand_id>  (23) 
22

>  <original_smiles>  (23) 
[H]OC(=C([H])C(=O)N1C([H])([H])C([H])([H])C([H])([H])C([H])(n2nc(-c3c([H])c([H])c(Oc4c([H])c([H])c(F)c([H])c4F)c([H])c3[H])c(C(=O)N([H])[H])c2N([H])[H])C1([H])[H])c1c([H])c([H])c([H])c(C([H])([H])C([H])([H])C(=O)C([H])([H])Oc2c([H])c([H])c3c(c2[H])C([H])([H])N(C(=O)C([H])(N([H])C(=O)C([H])(N([H])C([H])([H])[H])C([H])([H])[H])C(C([H])([H])[H])(C([H])([H])[H])C([H])([H])[H])C([H])(C(=O)N([H])C2([H])c4c([H])c([H])c([H])c([H])c4C([H])([H])C([H])([H])C2([H])[H])C3([H])[H])c1[H]

>  <smiles>  (23) 
[H]OC(=C([H])C(=O)N1C([H])([H])C([H])([H])C([H])([H])C([H])(n2nc(-c3c([H])c([H])c(Oc4c([H])c([H])c(F)c([H])c4F)c([H])c3[H])c(C(=O)N([H])[H])c2N([H])[H])C1([H])[H])c1c([H])c([H])c([H])c(C([H])([H])C([H])([H])C(=O)C([H])([H])Oc2c([H])c([H])c3c(c2[H])C([H])([H])N(C(=O)C([H])(N([H])C(=O)C([H])(N([H])C([H])([H])[H])C([H])([H])[H])C(C([H])([H])[H])(C([H])([H])[H])C([H])([H])[H])C([H])(C(=O)N([H])C2([H])c4c([H])c([H])c([H])c([H])c4C([H])([H])C([H])([H])C2([H])[H])C3([H])[H])c1[H]

$$$$
23:0:0
     RDKit          3D

 93102  0  0  1  0  0  0  0  0999 V2000
  -29.5140  -22.0480   18.6390 C   0  0  0  0  0  3  0  0  0  0  0  0
  -27.3670  -21.5260   19.6640 C   0  0  0  0  0  3  0  0  0  0  0  0
  -30.0010  -20.7870   19.0320 C   0  0  0  0  0  3  0  0  0  0  0  0
  -27.8610  -20.2700   20.0740 C   0  0  0  0  0  3  0  0  0  0  0  0
  -28.1830  -22.4140   18.9290 C   0  0  0  0  0  0  0  0  0  0  0  0
  -29.1720  -19.8790   19.7260 C   0  0  0  0  0  0  0  0  0  0  0  0
  -30.7730  -14.4440   20.2220 C   0  0  0  0  0  0  0  0  0  0  0  0
  -30.4340  -12.2810   19.1180 C   0  0  0  0  0  2  0  0  0  0  0  0
  -29.4680  -12.4880   17.9330 C   0  0  0  0  0  2  0  0  0  0  0  0
  -28.0000  -12.3940   18.3990 C   0  0  0  0  0  2  0  0  0  0  0  0
  -27.7000  -13.2270   19.6760 C   0  0  0  0  0  3  0  0  0  0  0  0
  -28.7830  -13.0090   20.7560 C   0  0  0  0  0  2  0  0  0  0  0  0
  -30.0880  -13.2750   20.1410 N   0  0  0  0  0  0  0  0  0  0  0  0
  -31.9590  -14.5520   19.8950 O   0  0  0  0  0  0  0  0  0  0  0  0
  -29.3660  -17.8090   21.3020 C   0  0  0  0  0  2  0  0  0  0  0  0
  -29.1190  -17.5270   18.8870 C   0  0  0  0  0  2  0  0  0  0  0  0
  -30.0670  -16.4290   21.4290 C   0  0  0  0  0  2  0  0  0  0  0  0
  -29.8820  -16.2030   18.9090 C   0  0  0  0  0  2  0  0  0  0  0  0
  -29.6790  -18.4600   19.9520 C   0  0  0  0  0  3  0  0  0  0  0  0
  -29.9910  -15.5510   20.2360 N   0  0  0  0  0  0  0  0  0  0  0  0
  -25.3310  -13.8470   20.4580 C   0  0  0  0  0  0  0  0  0  0  0  0
  -24.2660  -13.0760   20.8420 C   0  0  0  0  0  0  0  0  0  0  0  0
  -24.7170  -11.7220   20.7850 C   0  0  0  0  0  0  0  0  0  0  0  0
  -26.3610  -12.9580   20.1890 N   0  0  0  0  0  0  0  0  0  0  0  0
  -25.9980  -11.6750   20.4460 N   0  0  0  0  0  0  0  0  0  0  0  0
  -23.9870  -10.4620   20.9750 C   0  0  0  0  0  0  0  0  0  0  0  0
  -24.4180   -9.4930   21.9070 C   0  0  0  0  0  3  0  0  0  0  0  0
  -23.6890   -8.2970   22.0870 C   0  0  0  0  0  3  0  0  0  0  0  0
  -22.5150   -8.0630   21.3320 C   0  0  0  0  0  0  0  0  0  0  0  0
  -22.1030   -9.0210   20.3890 C   0  0  0  0  0  3  0  0  0  0  0  0
  -22.8330  -10.2070   20.2080 C   0  0  0  0  0  3  0  0  0  0  0  0
  -21.7580   -6.9200   21.4210 O   0  0  0  0  0  0  0  0  0  0  0  0
  -21.6810   -6.1960   22.5830 C   0  0  0  0  0  0  0  0  0  0  0  0
  -21.2100   -6.7630   23.7870 C   0  0  0  0  0  3  0  0  0  0  0  0
  -21.0810   -5.9650   24.9390 C   0  0  0  0  0  3  0  0  0  0  0  0
  -21.4140   -4.5970   24.8900 C   0  0  0  0  0  0  0  0  0  0  0  0
  -21.8780   -4.0290   23.6910 C   0  0  0  0  0  3  0  0  0  0  0  0
  -22.0090   -4.8250   22.5400 C   0  0  0  0  0  0  0  0  0  0  0  0
  -22.4360   -4.2670   21.3810 F   0  0  0  0  0  0  0  0  0  0  0  0
  -21.2830   -3.8270   25.9950 F   0  0  0  0  0  0  0  0  0  0  0  0
  -22.8800  -13.5590   21.1540 C   0  0  0  0  0  0  0  0  0  0  0  0
  -22.1700  -12.8570   22.0320 N   0  0  0  0  0  0  0  0  0  0  0  0
  -22.4350  -14.5930   20.6580 O   0  0  0  0  0  0  0  0  0  0  0  0
  -22.5440  -12.0210   22.4540 H   0  0  0  0  0  0  0  0  0  0  0  0
  -21.2400  -13.1620   22.2840 H   0  0  0  0  0  0  0  0  0  0  0  0
  -25.5040  -15.2170   20.2970 N   0  0  0  0  0  0  0  0  0  0  0  0
  -24.7520  -15.8810   20.4470 H   0  0  0  0  0  0  0  0  0  0  0  0
  -26.3650  -15.6540   19.9920 H   0  0  0  0  0  0  0  0  0  0  0  0
  -27.6010  -23.6680   18.3840 C   0  0  0  0  0  0  0  0  0  0  0  0
  -26.4650  -23.7220   17.9030 O   0  0  0  0  0  0  0  0  0  0  0  0
  -28.4270  -24.9520   18.5040 C   0  0  0  0  0  2  0  0  0  0  0  0
  -28.5180  -25.4030   19.9760 C   0  0  0  0  0  2  0  0  0  0  0  0
  -28.5030  -26.8210   20.1400 O   0  0  0  0  0  0  0  0  0  0  0  0
  -24.6140  -31.8890   23.2490 C   0  0  0  0  0  0  0  0  0  0  0  0
  -27.2880  -27.4750   20.1660 C   0  0  0  0  0  0  0  0  0  0  0  0
  -23.4120  -30.4780   21.6080 C   0  0  0  0  0  3  0  0  0  0  0  0
  -24.8720  -28.9450   20.1960 C   0  0  0  0  0  0  0  0  0  0  0  0
  -25.9340  -30.8590   21.4010 C   0  0  0  0  0  2  0  0  0  0  0  0
  -26.0270  -29.4860   20.7700 C   0  0  0  0  0  0  0  0  0  0  0  0
  -27.2370  -28.7610   20.7490 C   0  0  0  0  0  3  0  0  0  0  0  0
  -26.1000  -26.9320   19.6210 C   0  0  0  0  0  3  0  0  0  0  0  0
  -24.9000  -27.6630   19.6230 C   0  0  0  0  0  3  0  0  0  0  0  0
  -23.6230  -29.7940   20.2330 C   0  0  0  0  0  2  0  0  0  0  0  0
  -24.6730  -31.0880   22.1470 N   0  0  0  0  0  0  0  0  0  0  0  0
  -23.5310  -32.1580   23.7860 O   0  0  0  0  0  0  0  0  0  0  0  0
  -22.7650  -29.4570   22.5700 C   0  0  0  0  0  0  0  0  0  0  0  0
  -21.4390  -29.2790   22.4480 N   0  0  0  0  0  0  0  0  0  0  0  0
  -23.4500  -28.8280   23.3780 O   0  0  0  0  0  0  0  0  0  0  0  0
  -20.9450  -29.8440   21.7710 H   0  0  0  0  0  0  0  0  0  0  0  0
  -18.0610  -28.1050   22.9640 C   0  0  0  0  0  0  0  0  0  0  0  0
  -20.6230  -28.3380   23.2170 C   0  0  0  0  0  3  0  0  0  0  0  0
  -20.7090  -26.9120   22.6280 C   0  0  0  0  0  2  0  0  0  0  0  0
  -19.5980  -26.6060   21.6200 C   0  0  0  0  0  2  0  0  0  0  0  0
  -18.2230  -26.7570   22.2780 C   0  0  0  0  0  2  0  0  0  0  0  0
  -19.1900  -28.8530   23.3900 C   0  0  0  0  0  0  0  0  0  0  0  0
  -18.9890  -30.1150   23.9920 C   0  0  0  0  0  3  0  0  0  0  0  0
  -17.6910  -30.6280   24.1700 C   0  0  0  0  0  3  0  0  0  0  0  0
  -16.5760  -29.8770   23.7600 C   0  0  0  0  0  3  0  0  0  0  0  0
  -16.7630  -28.6160   23.1660 C   0  0  0  0  0  3  0  0  0  0  0  0
  -25.8970  -32.5240   23.8700 C   0  0  0  0  0  3  0  0  0  0  0  0
  -26.4260  -31.7440   25.1370 C   0  0  1  0  0  0  0  0  0  0  0  0
  -25.3410  -31.4790   26.2060 C   0  0  0  0  0  1  0  0  0  0  0  0
  -27.0240  -30.3790   24.7230 C   0  0  0  0  0  1  0  0  0  0  0  0
  -27.5690  -32.5420   25.8070 C   0  0  0  0  0  1  0  0  0  0  0  0
  -25.5810  -33.9180   24.2110 N   0  0  0  0  0  0  0  0  0  0  0  0
  -25.9140  -34.9750   23.4580 C   0  0  0  0  0  0  0  0  0  0  0  0
  -26.5910  -34.8790   22.4300 O   0  0  0  0  0  0  0  0  0  0  0  0
  -24.9830  -34.0660   25.0100 H   0  0  0  0  0  0  0  0  0  0  0  0
  -24.1880  -36.7660   23.0930 C   0  0  0  0  0  1  0  0  0  0  0  0
  -25.4180  -36.3580   23.9190 C   0  0  0  0  0  3  0  0  0  0  0  0
  -27.5380  -37.2390   24.7870 C   0  0  0  0  0  1  0  0  0  0  0  0
  -26.4500  -37.4140   23.8300 N   0  0  0  0  0  0  0  0  0  0  0  0
  -26.0380  -38.3310   23.9800 H   0  0  0  0  0  0  0  0  0  0  0  0
  1  5  2  0
  1  3  1  0
  2  4  2  0
  3  6  2  0
  5  2  1  0
  6  4  1  0
  7 20  1  0
  8 13  1  0
  9 10  1  0
  9  8  1  0
 11 10  1  0
 11 24  1  0
 11 12  1  0
 13  7  1  0
 13 12  1  0
 14  7  2  0
 15 17  1  0
 16 18  1  0
 16 19  1  0
 18 20  1  0
 19  6  1  0
 19 15  1  0
 20 17  1  0
 21 22  2  0
 22 41  1  0
 23 22  1  0
 23 26  1  0
 24 25  1  0
 24 21  1  0
 25 23  2  0
 26 27  1  0
 27 28  2  0
 29 32  1  0
 29 28  1  0
 30 29  2  0
 31 30  1  0
 31 26  2  0
 32 33  1  0
 33 34  1  0
 34 35  2  0
 36 35  1  0
 36 40  1  0
 37 36  2  0
 38 33  2  0
 38 37  1  0
 39 38  1  0
 41 42  1  0
 42 45  1  0
 42 44  1  0
 43 41  2  0
 46 47  1  0
 46 21  1  0
 48 46  1  0
 49 51  1  0
 49  5  1  0
 50 49  2  0
 51 52  1  0
 52 53  1  0
 53 55  1  0
 54 65  2  0
 55 60  1  0
 56 64  1  0
 56 66  1  0
 57 63  1  0
 57 59  1  0
 58 64  1  0
 59 58  1  0
 60 59  2  0
 61 62  1  0
 61 55  2  0
 62 57  2  0
 63 56  1  0
 64 54  1  0
 66 68  2  0
 67 66  1  0
 69 67  1  0
 70 79  2  0
 70 75  1  0
 71 67  1  0
 71 75  1  0
 72 71  1  0
 73 74  1  0
 73 72  1  0
 74 70  1  0
 75 76  2  0
 76 77  1  0
 78 77  2  0
 79 78  1  0
 80 54  1  0
 80 85  1  0
 80 81  1  0
 81 84  1  1
 81 82  1  0
 83 81  1  0
 85 88  1  0
 86 90  1  0
 86 85  1  0
 87 86  2  0
 90 89  1  0
 92 90  1  0
 92 93  1  0
 92 91  1  0
M  ISO  4   7 100  20 100  52 101  53 101
M  END
>  <TORSDO>  (24) 
F 19

>  <SCORE>  (24) 
-13.991

>  <name>  (24) 
23

>  <ligand_id>  (24) 
23

>  <original_smiles>  (24) 
[H]c1c([H])c([H])c2c(c1[H])C([H])([H])C([H])([H])C([H])([H])C2([H])N([H])C(=O)C1([H])N(C(=O)C([H])(N([H])C(=O)C([H])(N([H])C([H])([H])[H])C([H])([H])[H])C(C([H])([H])[H])(C([H])([H])[H])C([H])([H])[H])C([H])([H])c2c([H])c(OC([H])([H])C([H])([H])C(=O)c3c([H])c([H])c(C4([H])C([H])([H])C([H])([H])N(C(=O)N5C([H])([H])C([H])([H])C([H])([H])C([H])(n6nc(-c7c([H])c([H])c(Oc8c([H])c([H])c(F)c([H])c8F)c([H])c7[H])c(C(=O)N([H])[H])c6N([H])[H])C5([H])[H])C([H])([H])C4([H])[H])c([H])c3[H])c([H])c([H])c2C1([H])[H]

>  <smiles>  (24) 
[H]c1c([H])c([H])c2c(c1[H])C([H])([H])C([H])([H])C([H])([H])C2([H])N([H])C(=O)C1([H])N(C(=O)C([H])(N([H])C(=O)C([H])(N([H])C([H])([H])[H])C([H])([H])[H])C(C([H])([H])[H])(C([H])([H])[H])C([H])([H])[H])C([H])([H])c2c([H])c(OC([H])([H])C([H])([H])C(=O)c3c([H])c([H])c(C4([H])C([H])([H])C([H])([H])N(C(=O)N5C([H])([H])C([H])([H])C([H])([H])C([H])(n6nc(-c7c([H])c([H])c(Oc8c([H])c([H])c(F)c([H])c8F)c([H])c7[H])c(C(=O)N([H])[H])c6N([H])[H])C5([H])[H])C([H])([H])C4([H])[H])c([H])c3[H])c([H])c([H])c2C1([H])[H]

$$$$
24:0:0
     RDKit          3D

 97105  0  0  1  0  0  0  0  0999 V2000
  -30.0040  -19.4530   20.7280 C   0  0  0  0  0  0  0  0  0  0  0  0
  -30.4660  -18.3390   20.1100 N   0  0  0  0  0  0  0  0  0  0  0  0
  -28.8760  -19.5030   21.2190 O   0  0  0  0  0  0  0  0  0  0  0  0
  -31.4240  -18.3660   19.7830 H   0  0  0  0  0  0  0  0  0  0  0  0
  -30.9090  -20.7050   20.8090 C   0  0  0  0  0  2  0  0  0  0  0  0
  -30.4080  -21.9680   20.0180 C   0  0  0  0  0  3  0  0  0  0  0  0
  -29.7200  -23.0980   20.8500 C   0  0  0  0  0  3  0  0  0  0  0  0
  -29.5090  -24.4670   20.1190 C   0  0  0  0  0  2  0  0  0  0  0  0
  -28.6760  -25.5040   20.9350 C   0  0  0  0  0  2  0  0  0  0  0  0
  -28.7140  -26.8570   20.4230 O   0  0  0  0  0  0  0  0  0  0  0  0
  -24.6730  -31.9920   23.3550 C   0  0  0  0  0  0  0  0  0  0  0  0
  -27.5240  -27.5670   20.4100 C   0  0  0  0  0  0  0  0  0  0  0  0
  -23.5540  -30.5430   21.6940 C   0  0  0  0  0  3  0  0  0  0  0  0
  -25.0870  -29.0190   20.3330 C   0  0  0  0  0  0  0  0  0  0  0  0
  -26.0760  -30.9580   21.5660 C   0  0  0  0  0  2  0  0  0  0  0  0
  -26.2160  -29.5800   20.9460 C   0  0  0  0  0  0  0  0  0  0  0  0
  -27.4380  -28.8620   20.9790 C   0  0  0  0  0  3  0  0  0  0  0  0
  -26.3770  -27.0230   19.7950 C   0  0  0  0  0  3  0  0  0  0  0  0
  -25.1630  -27.7380   19.7600 C   0  0  0  0  0  3  0  0  0  0  0  0
  -23.8190  -29.8460   20.3310 C   0  0  0  0  0  2  0  0  0  0  0  0
  -24.7850  -31.1820   22.2640 N   0  0  0  0  0  0  0  0  0  0  0  0
  -23.5690  -32.2440   23.8560 O   0  0  0  0  0  0  0  0  0  0  0  0
  -22.8960  -29.5190   22.6450 C   0  0  0  0  0  0  0  0  0  0  0  0
  -21.5770  -29.3140   22.4840 N   0  0  0  0  0  0  0  0  0  0  0  0
  -23.5690  -28.9110   23.4810 O   0  0  0  0  0  0  0  0  0  0  0  0
  -21.0930  -29.8620   21.7850 H   0  0  0  0  0  0  0  0  0  0  0  0
  -18.2070  -28.0970   22.9220 C   0  0  0  0  0  0  0  0  0  0  0  0
  -20.7570  -28.3650   23.2360 C   0  0  0  0  0  3  0  0  0  0  0  0
  -20.8790  -26.9390   22.6490 C   0  0  0  0  0  2  0  0  0  0  0  0
  -19.7920  -26.6170   21.6170 C   0  0  0  0  0  2  0  0  0  0  0  0
  -18.4000  -26.7530   22.2400 C   0  0  0  0  0  2  0  0  0  0  0  0
  -19.3140  -28.8620   23.3740 C   0  0  0  0  0  0  0  0  0  0  0  0
  -19.0800  -30.1230   23.9620 C   0  0  0  0  0  3  0  0  0  0  0  0
  -17.7710  -30.6140   24.1150 C   0  0  0  0  0  3  0  0  0  0  0  0
  -16.6770  -29.8440   23.6830 C   0  0  0  0  0  3  0  0  0  0  0  0
  -16.8960  -28.5900   23.0900 C   0  0  0  0  0  3  0  0  0  0  0  0
  -25.9250  -32.6580   24.0090 C   0  0  0  0  0  3  0  0  0  0  0  0
  -26.4150  -31.9090   25.3080 C   0  0  1  0  0  0  0  0  0  0  0  0
  -25.2890  -31.6390   26.3320 C   0  0  0  0  0  1  0  0  0  0  0  0
  -27.0570  -30.5510   24.9440 C   0  0  0  0  0  1  0  0  0  0  0  0
  -27.5050  -32.7470   26.0160 C   0  0  0  0  0  1  0  0  0  0  0  0
  -25.5760  -34.0500   24.3110 N   0  0  0  0  0  0  0  0  0  0  0  0
  -25.9100  -35.1020   23.5510 C   0  0  0  0  0  0  0  0  0  0  0  0
  -26.6130  -35.0040   22.5400 O   0  0  0  0  0  0  0  0  0  0  0  0
  -24.9450  -34.2000   25.0850 H   0  0  0  0  0  0  0  0  0  0  0  0
  -24.1510  -36.8510   23.1260 C   0  0  0  0  0  1  0  0  0  0  0  0
  -25.3760  -36.4830   23.9780 C   0  0  0  0  0  3  0  0  0  0  0  0
  -27.4610  -37.4300   24.8630 C   0  0  0  0  0  1  0  0  0  0  0  0
  -26.3860  -37.5610   23.8830 N   0  0  0  0  0  0  0  0  0  0  0  0
  -25.9500  -38.4700   24.0130 H   0  0  0  0  0  0  0  0  0  0  0  0
  -29.6180  -17.2360   19.5760 C   0  0  0  0  0  3  0  0  0  0  0  0
  -29.0090  -17.7720   18.2190 C   0  0  0  0  0  0  0  0  0  0  0  0
  -29.3540  -17.2990   17.1300 O   0  0  0  0  0  0  0  0  0  0  0  0
  -25.8590  -19.8290   18.8260 C   0  0  0  0  0  3  0  0  0  0  0  0
  -26.1320  -21.0030   18.1060 C   0  0  0  0  0  3  0  0  0  0  0  0
  -26.8200  -18.8030   18.8870 C   0  0  0  0  0  3  0  0  0  0  0  0
  -27.3690  -21.1580   17.4560 C   0  0  0  0  0  3  0  0  0  0  0  0
  -28.0610  -18.9300   18.2220 C   0  0  0  0  0  0  0  0  0  0  0  0
  -28.3380  -20.1300   17.5000 C   0  0  0  0  0  0  0  0  0  0  0  0
  -29.6680  -20.3770   16.7930 C   0  0  0  0  0  1  0  0  0  0  0  0
  -30.4570  -15.9410   19.1940 C   0  0  0  0  0  2  0  0  0  0  0  0
  -31.0320  -14.8730   20.1770 C   0  0  0  0  0  0  0  0  0  0  0  0
  -30.7820  -12.5860   19.3540 C   0  0  0  0  0  2  0  0  0  0  0  0
  -29.8720  -12.6430   18.1040 C   0  0  0  0  0  2  0  0  0  0  0  0
  -28.3810  -12.6010   18.5030 C   0  0  0  0  0  2  0  0  0  0  0  0
  -28.0120  -13.5180   19.7010 C   0  0  0  0  0  3  0  0  0  0  0  0
  -29.0600  -13.4400   20.8330 C   0  0  0  0  0  2  0  0  0  0  0  0
  -30.3910  -13.6710   20.2630 N   0  0  0  0  0  0  0  0  0  0  0  0
  -32.2540  -14.9460   20.2900 O   0  0  0  0  0  0  0  0  0  0  0  0
  -25.6430  -14.1650   20.4560 C   0  0  0  0  0  0  0  0  0  0  0  0
  -24.5430  -13.4150   20.7760 C   0  0  0  0  0  0  0  0  0  0  0  0
  -24.9570  -12.0530   20.6780 C   0  0  0  0  0  0  0  0  0  0  0  0
  -26.6550  -13.2600   20.1790 N   0  0  0  0  0  0  0  0  0  0  0  0
  -26.2470  -11.9820   20.3760 N   0  0  0  0  0  0  0  0  0  0  0  0
  -24.1820  -10.8100   20.7930 C   0  0  0  0  0  0  0  0  0  0  0  0
  -24.5750   -9.7740   21.6700 C   0  0  0  0  0  3  0  0  0  0  0  0
  -23.8050   -8.5960   21.7780 C   0  0  0  0  0  3  0  0  0  0  0  0
  -22.6290   -8.4440   21.0060 C   0  0  0  0  0  0  0  0  0  0  0  0
  -22.2590   -9.4670   20.1160 C   0  0  0  0  0  3  0  0  0  0  0  0
  -23.0280  -10.6380   20.0040 C   0  0  0  0  0  3  0  0  0  0  0  0
  -21.8320   -7.3260   21.0250 O   0  0  0  0  0  0  0  0  0  0  0  0
  -21.7390   -6.5300   22.1390 C   0  0  0  0  0  0  0  0  0  0  0  0
  -21.2980   -7.0380   23.3820 C   0  0  0  0  0  3  0  0  0  0  0  0
  -21.1480   -6.1690   24.4830 C   0  0  0  0  0  3  0  0  0  0  0  0
  -21.4300   -4.7980   24.3420 C   0  0  0  0  0  0  0  0  0  0  0  0
  -21.8700   -4.2910   23.1060 C   0  0  0  0  0  3  0  0  0  0  0  0
  -22.0190   -5.1560   22.0070 C   0  0  0  0  0  0  0  0  0  0  0  0
  -22.4210   -4.6590   20.8120 F   0  0  0  0  0  0  0  0  0  0  0  0
  -21.2820   -3.9630   25.3980 F   0  0  0  0  0  0  0  0  0  0  0  0
  -23.1620  -13.9330   21.0600 C   0  0  0  0  0  0  0  0  0  0  0  0
  -22.4120  -13.2290   21.9010 N   0  0  0  0  0  0  0  0  0  0  0  0
  -22.7580  -14.9880   20.5760 O   0  0  0  0  0  0  0  0  0  0  0  0
  -22.7590  -12.3760   22.3140 H   0  0  0  0  0  0  0  0  0  0  0  0
  -21.4800  -13.5440   22.1350 H   0  0  0  0  0  0  0  0  0  0  0  0
  -25.8620  -15.5320   20.3480 N   0  0  0  0  0  0  0  0  0  0  0  0
  -25.1160  -16.2080   20.4580 H   0  0  0  0  0  0  0  0  0  0  0  0
  -26.7280  -15.9340   20.0240 H   0  0  0  0  0  0  0  0  0  0  0  0
  1  5  1  0
  1  3  2  0
  2  1  1  0
  4  2  1  0
  6  5  1  0
  6  7  2  0
  8  7  1  0
  8  9  1  0
 10  9  1  0
 11 22  2  0
 12 10  1  0
 12 17  1  0
 13 21  1  0
 13 23  1  0
 14 16  1  0
 15 21  1  0
 16 17  2  0
 16 15  1  0
 18 12  2  0
 19 18  1  0
 19 14  2  0
 20 14  1  0
 20 13  1  0
 21 11  1  0
 23 25  2  0
 24 23  1  0
 26 24  1  0
 27 36  2  0
 27 32  1  0
 28 24  1  0
 28 32  1  0
 29 28  1  0
 30 31  1  0
 30 29  1  0
 31 27  1  0
 32 33  2  0
 33 34  1  0
 35 34  2  0
 36 35  1  0
 37 11  1  0
 37 42  1  0
 37 38  1  0
 38 41  1  1
 38 39  1  0
 40 38  1  0
 42 45  1  0
 43 47  1  0
 43 42  1  0
 44 43  2  0
 47 46  1  0
 49 47  1  0
 49 50  1  0
 49 48  1  0
 51 61  1  0
 51  2  1  0
 52 58  1  0
 52 51  1  0
 53 52  2  0
 54 56  1  0
 55 54  2  0
 57 59  2  0
 57 55  1  0
 58 56  2  0
 59 58  1  0
 60 59  1  0
 61 62  1  0
 62 68  1  0
 62 69  2  0
 63 68  1  0
 64 65  1  0
 64 63  1  0
 66 65  1  0
 66 73  1  0
 66 67  1  0
 68 67  1  0
 70 71  2  0
 71 90  1  0
 72 71  1  0
 72 75  1  0
 73 74  1  0
 73 70  1  0
 74 72  2  0
 75 76  1  0
 76 77  2  0
 78 81  1  0
 78 77  1  0
 79 78  2  0
 80 79  1  0
 80 75  2  0
 81 82  1  0
 82 83  1  0
 83 84  2  0
 85 84  1  0
 85 89  1  0
 86 85  2  0
 87 82  2  0
 87 86  1  0
 88 87  1  0
 90 91  1  0
 91 94  1  0
 91 93  1  0
 92 90  2  0
 95 70  1  0
 95 96  1  0
 97 95  1  0
M  ISO  4   9 101  10 101  61 100  62 100
M  END
>  <TORSDO>  (25) 
F 25

>  <SCORE>  (25) 
-10.857

>  <name>  (25) 
24

>  <ligand_id>  (25) 
24

>  <original_smiles>  (25) 
[H]c1c([H])c([H])c(C([H])([H])[H])c(C(=O)C([H])(N([H])C(=O)C([H])([H])C([H])([H])C([H])([H])C([H])([H])C([H])([H])Oc2c([H])c([H])c3c(c2[H])C([H])([H])N(C(=O)C([H])(N([H])C(=O)C([H])(N([H])C([H])([H])[H])C([H])([H])[H])C(C([H])([H])[H])(C([H])([H])[H])C([H])([H])[H])C([H])(C(=O)N([H])C2([H])c4c([H])c([H])c([H])c([H])c4C([H])([H])C([H])([H])C2([H])[H])C3([H])[H])C([H])([H])C(=O)N2C([H])([H])C([H])([H])C([H])([H])C([H])(n3nc(-c4c([H])c([H])c(Oc5c([H])c([H])c(F)c([H])c5F)c([H])c4[H])c(C(=O)N([H])[H])c3N([H])[H])C2([H])[H])c1[H]

>  <smiles>  (25) 
[H]c1c([H])c([H])c(C([H])([H])[H])c(C(=O)C([H])(N([H])C(=O)C([H])([H])C([H])([H])C([H])([H])C([H])([H])C([H])([H])Oc2c([H])c([H])c3c(c2[H])C([H])([H])N(C(=O)C([H])(N([H])C(=O)C([H])(N([H])C([H])([H])[H])C([H])([H])[H])C(C([H])([H])[H])(C([H])([H])[H])C([H])([H])[H])C([H])(C(=O)N([H])C2([H])c4c([H])c([H])c([H])c([H])c4C([H])([H])C([H])([H])C2([H])[H])C3([H])[H])C([H])([H])C(=O)N2C([H])([H])C([H])([H])C([H])([H])C([H])(n3nc(-c4c([H])c([H])c(Oc5c([H])c([H])c(F)c([H])c5F)c([H])c4[H])c(C(=O)N([H])[H])c3N([H])[H])C2([H])[H])c1[H]

$$$$
25:0:0
     RDKit          3D

 88 95  0  0  1  0  0  0  0  0999 V2000
  -29.4640  -22.9840   20.6280 C   0  0  0  0  0  2  0  0  0  0  0  0
  -29.0260  -24.4440   20.9440 C   0  0  0  0  0  2  0  0  0  0  0  0
  -28.4620  -25.2840   19.7730 C   0  0  0  0  0  2  0  0  0  0  0  0
  -28.3990  -26.6840   20.1340 O   0  0  0  0  0  0  0  0  0  0  0  0
  -24.6060  -31.8720   23.2300 C   0  0  0  0  0  0  0  0  0  0  0  0
  -27.2070  -27.3940   20.1260 C   0  0  0  0  0  0  0  0  0  0  0  0
  -23.3850  -30.4760   21.5980 C   0  0  0  0  0  3  0  0  0  0  0  0
  -24.8200  -28.9360   20.1590 C   0  0  0  0  0  0  0  0  0  0  0  0
  -25.9130  -30.8170   21.3850 C   0  0  0  0  0  2  0  0  0  0  0  0
  -25.9870  -29.4440   20.7430 C   0  0  0  0  0  0  0  0  0  0  0  0
  -27.1780  -28.6800   20.7250 C   0  0  0  0  0  3  0  0  0  0  0  0
  -26.0160  -26.9140   19.5320 C   0  0  0  0  0  3  0  0  0  0  0  0
  -24.8310  -27.6710   19.5550 C   0  0  0  0  0  3  0  0  0  0  0  0
  -23.5840  -29.8060   20.2140 C   0  0  0  0  0  2  0  0  0  0  0  0
  -24.6540  -31.0710   22.1280 N   0  0  0  0  0  0  0  0  0  0  0  0
  -23.5280  -32.1470   23.7760 O   0  0  0  0  0  0  0  0  0  0  0  0
  -22.7400  -29.4530   22.5580 C   0  0  0  0  0  0  0  0  0  0  0  0
  -21.4140  -29.2730   22.4400 N   0  0  0  0  0  0  0  0  0  0  0  0
  -23.4270  -28.8240   23.3680 O   0  0  0  0  0  0  0  0  0  0  0  0
  -20.9220  -29.8350   21.7600 H   0  0  0  0  0  0  0  0  0  0  0  0
  -18.0410  -28.0790   22.9500 C   0  0  0  0  0  0  0  0  0  0  0  0
  -20.6000  -28.3360   23.2130 C   0  0  0  0  0  3  0  0  0  0  0  0
  -20.7010  -26.9030   22.6390 C   0  0  0  0  0  2  0  0  0  0  0  0
  -19.5950  -26.5810   21.6280 C   0  0  0  0  0  2  0  0  0  0  0  0
  -18.2160  -26.7280   22.2760 C   0  0  0  0  0  2  0  0  0  0  0  0
  -19.1620  -28.8400   23.3760 C   0  0  0  0  0  0  0  0  0  0  0  0
  -18.9450  -30.1040   23.9670 C   0  0  0  0  0  3  0  0  0  0  0  0
  -17.6420  -30.6080   24.1330 C   0  0  0  0  0  3  0  0  0  0  0  0
  -16.5360  -29.8440   23.7240 C   0  0  0  0  0  3  0  0  0  0  0  0
  -16.7370  -28.5810   23.1390 C   0  0  0  0  0  3  0  0  0  0  0  0
  -25.8960  -32.5000   23.8420 C   0  0  0  0  0  3  0  0  0  0  0  0
  -25.5890  -33.8970   24.1790 N   0  0  0  0  0  0  0  0  0  0  0  0
  -25.9170  -34.9520   23.4220 C   0  0  0  0  0  0  0  0  0  0  0  0
  -26.5810  -34.8520   22.3870 O   0  0  0  0  0  0  0  0  0  0  0  0
  -24.9960  -34.0460   24.9820 H   0  0  0  0  0  0  0  0  0  0  0  0
  -24.1860  -36.7460   23.0860 C   0  0  0  0  0  1  0  0  0  0  0  0
  -25.4330  -36.3390   23.8870 C   0  0  0  0  0  3  0  0  0  0  0  0
  -27.5750  -37.2170   24.7050 C   0  0  0  0  0  1  0  0  0  0  0  0
  -26.4640  -37.3920   23.7720 N   0  0  0  0  0  0  0  0  0  0  0  0
  -26.0610  -38.3110   23.9320 H   0  0  0  0  0  0  0  0  0  0  0  0
  -26.4250  -31.7230   25.1100 C   0  0  1  0  0  0  0  0  0  0  0  0
  -25.3430  -31.4800   26.1890 C   0  0  0  0  0  1  0  0  0  0  0  0
  -27.0020  -30.3490   24.7020 C   0  0  0  0  0  1  0  0  0  0  0  0
  -27.5840  -32.5140   25.7630 C   0  0  0  0  0  1  0  0  0  0  0  0
  -28.3360  -21.9230   20.5400 C   0  0  0  0  0  2  0  0  0  0  0  0
  -29.2370  -19.5510   20.3610 C   0  0  0  0  0  0  0  0  0  0  0  0
  -28.7380  -20.5980   21.0460 N   0  0  0  0  0  0  0  0  0  0  0  0
  -29.5090  -19.6210   19.1620 O   0  0  0  0  0  0  0  0  0  0  0  0
  -28.5470  -20.4320   22.0270 H   0  0  0  0  0  0  0  0  0  0  0  0
  -29.4320  -18.2310   21.1460 C   0  0  0  0  0  2  0  0  0  0  0  0
  -30.1260  -17.0600   20.3800 C   0  0  0  0  0  2  0  0  0  0  0  0
  -30.0970  -15.6900   21.1330 C   0  0  0  0  0  2  0  0  0  0  0  0
  -30.7060  -14.4930   20.3410 C   0  0  0  0  0  0  0  0  0  0  0  0
  -30.3780  -12.3580   19.1250 C   0  0  0  0  0  2  0  0  0  0  0  0
  -29.4130  -12.5920   17.9450 C   0  0  0  0  0  2  0  0  0  0  0  0
  -27.9450  -12.4660   18.3960 C   0  0  0  0  0  2  0  0  0  0  0  0
  -27.6450  -13.2670   19.6940 C   0  0  0  0  0  3  0  0  0  0  0  0
  -28.7210  -12.9880   20.7680 C   0  0  0  0  0  2  0  0  0  0  0  0
  -30.0310  -13.3160   20.1890 N   0  0  0  0  0  0  0  0  0  0  0  0
  -31.8000  -14.6760   19.7980 O   0  0  0  0  0  0  0  0  0  0  0  0
  -25.2610  -13.8900   20.4340 C   0  0  0  0  0  0  0  0  0  0  0  0
  -24.1920  -13.1230   20.8200 C   0  0  0  0  0  0  0  0  0  0  0  0
  -24.6460  -11.7690   20.7830 C   0  0  0  0  0  0  0  0  0  0  0  0
  -26.2970  -13.0010   20.1900 N   0  0  0  0  0  0  0  0  0  0  0  0
  -25.9300  -11.7210   20.4550 N   0  0  0  0  0  0  0  0  0  0  0  0
  -23.9160  -10.5110   20.9890 C   0  0  0  0  0  0  0  0  0  0  0  0
  -24.3550   -9.5430   21.9180 C   0  0  0  0  0  3  0  0  0  0  0  0
  -23.6250   -8.3500   22.1100 C   0  0  0  0  0  3  0  0  0  0  0  0
  -22.4410   -8.1160   21.3700 C   0  0  0  0  0  0  0  0  0  0  0  0
  -22.0200   -9.0730   20.4290 C   0  0  0  0  0  3  0  0  0  0  0  0
  -22.7510  -10.2570   20.2380 C   0  0  0  0  0  3  0  0  0  0  0  0
  -21.6820   -6.9750   21.4690 O   0  0  0  0  0  0  0  0  0  0  0  0
  -21.6420   -6.2350   22.6230 C   0  0  0  0  0  0  0  0  0  0  0  0
  -21.2450   -6.8000   23.8550 C   0  0  0  0  0  3  0  0  0  0  0  0
  -21.1510   -5.9880   25.0030 C   0  0  0  0  0  3  0  0  0  0  0  0
  -21.4420   -4.6130   24.9200 C   0  0  0  0  0  0  0  0  0  0  0  0
  -21.8330   -4.0480   23.6930 C   0  0  0  0  0  3  0  0  0  0  0  0
  -21.9290   -4.8570   22.5470 C   0  0  0  0  0  0  0  0  0  0  0  0
  -22.2830   -4.3040   21.3620 F   0  0  0  0  0  0  0  0  0  0  0  0
  -21.3450   -3.8310   26.0210 F   0  0  0  0  0  0  0  0  0  0  0  0
  -22.8020  -13.6080   21.1130 C   0  0  0  0  0  0  0  0  0  0  0  0
  -22.0870  -12.9170   21.9950 N   0  0  0  0  0  0  0  0  0  0  0  0
  -22.3590  -14.6340   20.6000 O   0  0  0  0  0  0  0  0  0  0  0  0
  -22.4610  -12.0890   22.4340 H   0  0  0  0  0  0  0  0  0  0  0  0
  -21.1530  -13.2190   22.2310 H   0  0  0  0  0  0  0  0  0  0  0  0
  -25.4340  -15.2580   20.2510 N   0  0  0  0  0  0  0  0  0  0  0  0
  -24.6830  -15.9290   20.3760 H   0  0  0  0  0  0  0  0  0  0  0  0
  -26.2920  -15.6820   19.9180 H   0  0  0  0  0  0  0  0  0  0  0  0
  1  2  1  0
  3  4  1  0
  3  2  1  0
  5 16  2  0
  6  4  1  0
  6 11  1  0
  7 15  1  0
  7 17  1  0
  8 14  1  0
  8 10  1  0
  9 15  1  0
 10  9  1  0
 11 10  2  0
 12 13  1  0
 12  6  2  0
 13  8  2  0
 14  7  1  0
 15  5  1  0
 17 19  2  0
 18 17  1  0
 20 18  1  0
 21 30  2  0
 21 26  1  0
 22 18  1  0
 22 26  1  0
 23 22  1  0
 24 25  1  0
 24 23  1  0
 25 21  1  0
 26 27  2  0
 27 28  1  0
 29 28  2  0
 30 29  1  0
 31  5  1  0
 31 32  1  0
 31 41  1  0
 32 35  1  0
 33 37  1  0
 33 32  1  0
 34 33  2  0
 37 36  1  0
 39 37  1  0
 39 40  1  0
 39 38  1  0
 41 44  1  1
 41 42  1  0
 43 41  1  0
 45  1  1  0
 45 47  1  0
 46 47  1  0
 46 50  1  0
 47 49  1  0
 48 46  2  0
 51 52  1  0
 51 50  1  0
 53 52  1  0
 54 59  1  0
 55 56  1  0
 55 54  1  0
 57 56  1  0
 57 64  1  0
 57 58  1  0
 59 53  1  0
 59 58  1  0
 60 53  2  0
 61 62  2  0
 62 81  1  0
 63 62  1  0
 63 66  1  0
 64 61  1  0
 64 65  1  0
 65 63  2  0
 66 67  1  0
 67 68  2  0
 69 72  1  0
 69 68  1  0
 70 69  2  0
 71 70  1  0
 71 66  2  0
 72 73  1  0
 73 74  1  0
 74 75  2  0
 76 75  1  0
 76 80  1  0
 77 76  2  0
 78 73  2  0
 78 77  1  0
 79 78  1  0
 81 82  1  0
 82 85  1  0
 82 84  1  0
 83 81  2  0
 86 87  1  0
 86 61  1  0
 88 86  1  0
M  ISO  4   3 101   4 101  52 100  53 100
M  END
>  <TORSDO>  (26) 
F 23

>  <SCORE>  (26) 
-12.699

>  <name>  (26) 
25

>  <ligand_id>  (26) 
25

>  <original_smiles>  (26) 
[H]c1c([H])c([H])c2c(c1[H])C([H])([H])C([H])([H])C([H])([H])C2([H])N([H])C(=O)C1([H])N(C(=O)C([H])(N([H])C(=O)C([H])(N([H])C([H])([H])[H])C([H])([H])[H])C(C([H])([H])[H])(C([H])([H])[H])C([H])([H])[H])C([H])([H])c2c([H])c(OC([H])([H])C([H])([H])C([H])([H])C([H])([H])N([H])C(=O)C([H])([H])C([H])([H])C([H])([H])C(=O)N3C([H])([H])C([H])([H])C([H])([H])C([H])(n4nc(-c5c([H])c([H])c(Oc6c([H])c([H])c(F)c([H])c6F)c([H])c5[H])c(C(=O)N([H])[H])c4N([H])[H])C3([H])[H])c([H])c([H])c2C1([H])[H]

>  <smiles>  (26) 
[H]c1c([H])c([H])c2c(c1[H])C([H])([H])C([H])([H])C([H])([H])C2([H])N([H])C(=O)C1([H])N(C(=O)C([H])(N([H])C(=O)C([H])(N([H])C([H])([H])[H])C([H])([H])[H])C(C([H])([H])[H])(C([H])([H])[H])C([H])([H])[H])C([H])([H])c2c([H])c(OC([H])([H])C([H])([H])C([H])([H])C([H])([H])N([H])C(=O)C([H])([H])C([H])([H])C([H])([H])C(=O)N3C([H])([H])C([H])([H])C([H])([H])C([H])(n4nc(-c5c([H])c([H])c(Oc6c([H])c([H])c(F)c([H])c6F)c([H])c5[H])c(C(=O)N([H])[H])c4N([H])[H])C3([H])[H])c([H])c([H])c2C1([H])[H]

$$$$
26:0:0
     RDKit          3D

 91 99  0  0  1  0  0  0  0  0999 V2000
  -30.6610  -19.7040   19.5240 C   0  0  0  0  0  3  0  0  0  0  0  0
  -28.7390  -18.8560   20.6890 C   0  0  0  0  0  3  0  0  0  0  0  0
  -30.2360  -21.0390   19.7410 C   0  0  0  0  0  3  0  0  0  0  0  0
  -28.2990  -20.1990   20.8930 C   0  0  0  0  0  3  0  0  0  0  0  0
  -29.9640  -18.5720   20.0390 C   0  0  0  0  0  0  0  0  0  0  0  0
  -29.0490  -21.3270   20.4550 C   0  0  0  0  0  0  0  0  0  0  0  0
  -29.9980  -15.9440   20.0760 C   0  0  0  0  0  3  0  0  0  0  0  0
  -30.5750  -17.1860   19.9180 C   0  0  0  0  0  0  0  0  0  0  0  0
  -30.7310  -14.6500   19.8840 C   0  0  0  0  0  0  0  0  0  0  0  0
  -30.3560  -12.3980   18.9480 C   0  0  0  0  0  2  0  0  0  0  0  0
  -29.3690  -12.5170   17.7680 C   0  0  0  0  0  2  0  0  0  0  0  0
  -27.9170  -12.3960   18.2660 C   0  0  0  0  0  2  0  0  0  0  0  0
  -27.6270  -13.2970   19.4970 C   0  0  0  0  0  3  0  0  0  0  0  0
  -28.7420  -13.2060   20.5620 C   0  0  0  0  0  2  0  0  0  0  0  0
  -30.0260  -13.4760   19.9030 N   0  0  0  0  0  0  0  0  0  0  0  0
  -31.9070  -14.6190   19.5150 O   0  0  0  0  0  0  0  0  0  0  0  0
  -25.2980  -13.9090   20.3870 C   0  0  0  0  0  0  0  0  0  0  0  0
  -24.2440  -13.1430   20.8070 C   0  0  0  0  0  0  0  0  0  0  0  0
  -24.6840  -11.7860   20.7220 C   0  0  0  0  0  0  0  0  0  0  0  0
  -26.3120  -13.0210   20.0680 N   0  0  0  0  0  0  0  0  0  0  0  0
  -25.9530  -11.7380   20.3340 N   0  0  0  0  0  0  0  0  0  0  0  0
  -23.9520  -10.5290   20.9330 C   0  0  0  0  0  0  0  0  0  0  0  0
  -24.4050   -9.5540   21.8470 C   0  0  0  0  0  3  0  0  0  0  0  0
  -23.6730   -8.3630   22.0450 C   0  0  0  0  0  3  0  0  0  0  0  0
  -22.4730   -8.1410   21.3310 C   0  0  0  0  0  0  0  0  0  0  0  0
  -22.0380   -9.1050   20.4040 C   0  0  0  0  0  3  0  0  0  0  0  0
  -22.7710  -10.2870   20.2030 C   0  0  0  0  0  3  0  0  0  0  0  0
  -21.7100   -7.0020   21.4380 O   0  0  0  0  0  0  0  0  0  0  0  0
  -21.6810   -6.2610   22.5920 C   0  0  0  0  0  0  0  0  0  0  0  0
  -21.2520   -6.8120   23.8200 C   0  0  0  0  0  3  0  0  0  0  0  0
  -21.1700   -5.9970   24.9680 C   0  0  0  0  0  3  0  0  0  0  0  0
  -21.5080   -4.6330   24.8890 C   0  0  0  0  0  0  0  0  0  0  0  0
  -21.9290   -4.0820   23.6660 C   0  0  0  0  0  3  0  0  0  0  0  0
  -22.0110   -4.8930   22.5210 C   0  0  0  0  0  0  0  0  0  0  0  0
  -22.3980   -4.3520   21.3410 F   0  0  0  0  0  0  0  0  0  0  0  0
  -21.4230   -3.8490   25.9890 F   0  0  0  0  0  0  0  0  0  0  0  0
  -22.8730  -13.6340   21.1710 C   0  0  0  0  0  0  0  0  0  0  0  0
  -22.1840  -12.9330   22.0640 N   0  0  0  0  0  0  0  0  0  0  0  0
  -22.4230  -14.6760   20.6970 O   0  0  0  0  0  0  0  0  0  0  0  0
  -22.5620  -12.0920   22.4760 H   0  0  0  0  0  0  0  0  0  0  0  0
  -21.2660  -13.2470   22.3440 H   0  0  0  0  0  0  0  0  0  0  0  0
  -25.4690  -15.2800   20.2280 N   0  0  0  0  0  0  0  0  0  0  0  0
  -24.7250  -15.9440   20.4110 H   0  0  0  0  0  0  0  0  0  0  0  0
  -26.3020  -15.7170   19.8550 H   0  0  0  0  0  0  0  0  0  0  0  0
  -31.8890  -17.3010   19.6660 O   0  0  0  0  0  0  0  0  0  0  0  0
  -32.1050  -18.2220   19.7310 H   0  0  0  0  0  0  0  0  0  0  0  0
  -28.6690  -22.7690   20.9370 C   0  0  0  0  0  2  0  0  0  0  0  0
  -29.5900  -24.1440   18.8960 C   0  0  0  0  0  1  0  0  0  0  0  0
  -28.5110  -24.0340   19.9850 C   0  0  0  0  0  3  0  0  0  0  0  0
  -28.4130  -25.3800   20.8180 C   0  0  0  0  0  2  0  0  0  0  0  0
  -28.4780  -26.6690   20.1330 O   0  0  0  0  0  0  0  0  0  0  0  0
  -24.6240  -31.8770   23.2390 C   0  0  0  0  0  0  0  0  0  0  0  0
  -27.3340  -27.4520   20.1440 C   0  0  0  0  0  0  0  0  0  0  0  0
  -23.4590  -30.4960   21.5550 C   0  0  0  0  0  3  0  0  0  0  0  0
  -24.9480  -28.9880   20.1280 C   0  0  0  0  0  0  0  0  0  0  0  0
  -25.9930  -30.8600   21.4140 C   0  0  0  0  0  2  0  0  0  0  0  0
  -26.0980  -29.4980   20.7450 C   0  0  0  0  0  0  0  0  0  0  0  0
  -27.2990  -28.7410   20.7400 C   0  0  0  0  0  3  0  0  0  0  0  0
  -26.1690  -26.9690   19.5170 C   0  0  0  0  0  3  0  0  0  0  0  0
  -24.9820  -27.7270   19.5060 C   0  0  0  0  0  3  0  0  0  0  0  0
  -23.6980  -29.8430   20.1680 C   0  0  0  0  0  2  0  0  0  0  0  0
  -24.7090  -31.0920   22.1270 N   0  0  0  0  0  0  0  0  0  0  0  0
  -23.5310  -32.1340   23.7640 O   0  0  0  0  0  0  0  0  0  0  0  0
  -22.7940  -29.4550   22.4870 C   0  0  0  0  0  0  0  0  0  0  0  0
  -21.4670  -29.2870   22.3550 N   0  0  0  0  0  0  0  0  0  0  0  0
  -23.4710  -28.8010   23.2830 O   0  0  0  0  0  0  0  0  0  0  0  0
  -20.9790  -29.8700   21.6880 H   0  0  0  0  0  0  0  0  0  0  0  0
  -18.0770  -28.1400   22.8550 C   0  0  0  0  0  0  0  0  0  0  0  0
  -20.6430  -28.3340   23.0980 C   0  0  0  0  0  3  0  0  0  0  0  0
  -20.7050  -26.9260   22.4600 C   0  0  0  0  0  2  0  0  0  0  0  0
  -19.5840  -26.6720   21.4490 C   0  0  0  0  0  2  0  0  0  0  0  0
  -18.2150  -26.8190   22.1190 C   0  0  0  0  0  2  0  0  0  0  0  0
  -19.2170  -28.8600   23.3000 C   0  0  0  0  0  0  0  0  0  0  0  0
  -19.0340  -30.1010   23.9470 C   0  0  0  0  0  3  0  0  0  0  0  0
  -17.7430  -30.6240   24.1490 C   0  0  0  0  0  3  0  0  0  0  0  0
  -16.6170  -29.9010   23.7210 C   0  0  0  0  0  3  0  0  0  0  0  0
  -16.7850  -28.6590   23.0820 C   0  0  0  0  0  3  0  0  0  0  0  0
  -25.8930  -32.5080   23.8940 C   0  0  0  0  0  3  0  0  0  0  0  0
  -25.5860  -33.9120   24.1930 N   0  0  0  0  0  0  0  0  0  0  0  0
  -25.9480  -34.9510   23.4270 C   0  0  0  0  0  0  0  0  0  0  0  0
  -26.6420  -34.8250   22.4150 O   0  0  0  0  0  0  0  0  0  0  0  0
  -24.9680  -34.0860   24.9720 H   0  0  0  0  0  0  0  0  0  0  0  0
  -24.2450  -36.7490   23.0010 C   0  0  0  0  0  1  0  0  0  0  0  0
  -25.4610  -36.3490   23.8500 C   0  0  0  0  0  3  0  0  0  0  0  0
  -27.5750  -37.2340   24.7310 C   0  0  0  0  0  1  0  0  0  0  0  0
  -26.5050  -37.3920   23.7490 N   0  0  0  0  0  0  0  0  0  0  0  0
  -26.1020  -38.3180   23.8690 H   0  0  0  0  0  0  0  0  0  0  0  0
  -26.3630  -31.7510   25.1950 C   0  0  1  0  0  0  0  0  0  0  0  0
  -25.2330  -31.5360   26.2300 C   0  0  0  0  0  1  0  0  0  0  0  0
  -26.9490  -30.3650   24.8410 C   0  0  0  0  0  1  0  0  0  0  0  0
  -27.4990  -32.5470   25.8830 C   0  0  0  0  0  1  0  0  0  0  0  0
  1  3  2  0
  1  5  1  0
  2  4  1  0
  3  6  1  0
  5  2  2  0
  6  4  2  0
  6 47  1  0
  8  5  1  0
  8  7  2  0
  9 15  1  0
  9  7  1  0
 10 15  1  0
 11 12  1  0
 11 10  1  0
 13 12  1  0
 13 20  1  0
 13 14  1  0
 15 14  1  0
 16  9  2  0
 17 18  2  0
 18 37  1  0
 19 18  1  0
 19 22  1  0
 20 21  1  0
 20 17  1  0
 21 19  2  0
 22 23  1  0
 23 24  2  0
 25 28  1  0
 25 24  1  0
 26 25  2  0
 27 26  1  0
 27 22  2  0
 28 29  1  0
 29 30  1  0
 30 31  2  0
 32 31  1  0
 32 36  1  0
 33 32  2  0
 34 29  2  0
 34 33  1  0
 35 34  1  0
 37 38  1  0
 38 41  1  0
 38 40  1  0
 39 37  2  0
 42 17  1  0
 42 43  1  0
 44 42  1  0
 45 46  1  0
 45  8  1  0
 49 48  1  0
 49 50  1  0
 49 47  1  0
 51 53  1  0
 51 50  1  0
 52 63  2  0
 53 58  1  0
 54 62  1  0
 54 64  1  0
 55 61  1  0
 55 57  1  0
 56 62  1  0
 57 56  1  0
 58 57  2  0
 59 53  2  0
 60 59  1  0
 60 55  2  0
 61 54  1  0
 62 52  1  0
 64 66  2  0
 65 64  1  0
 67 65  1  0
 68 77  2  0
 68 73  1  0
 69 65  1  0
 69 73  1  0
 70 69  1  0
 71 72  1  0
 71 70  1  0
 72 68  1  0
 73 74  2  0
 74 75  1  0
 76 75  2  0
 77 76  1  0
 78 52  1  0
 78 79  1  0
 78 88  1  0
 79 82  1  0
 80 84  1  0
 80 79  1  0
 81 80  2  0
 84 83  1  0
 86 84  1  0
 86 87  1  0
 86 85  1  0
 88 91  1  1
 88 89  1  0
 90 88  1  0
M  ISO  4   7 100   9 100  50 101  51 101
M  END
>  <TORSDO>  (27) 
F 21

>  <SCORE>  (27) 
-13.372

>  <name>  (27) 
26

>  <ligand_id>  (27) 
26

>  <original_smiles>  (27) 
[H]OC(=C([H])C(=O)N1C([H])([H])C([H])([H])C([H])([H])C([H])(n2nc(-c3c([H])c([H])c(Oc4c([H])c([H])c(F)c([H])c4F)c([H])c3[H])c(C(=O)N([H])[H])c2N([H])[H])C1([H])[H])c1c([H])c([H])c(C([H])([H])C([H])(C([H])([H])[H])C([H])([H])Oc2c([H])c([H])c3c(c2[H])C([H])([H])N(C(=O)C([H])(N([H])C(=O)C([H])(N([H])C([H])([H])[H])C([H])([H])[H])C(C([H])([H])[H])(C([H])([H])[H])C([H])([H])[H])C([H])(C(=O)N([H])C2([H])c4c([H])c([H])c([H])c([H])c4C([H])([H])C([H])([H])C2([H])[H])C3([H])[H])c([H])c1[H]

>  <smiles>  (27) 
[H]OC(=C([H])C(=O)N1C([H])([H])C([H])([H])C([H])([H])C([H])(n2nc(-c3c([H])c([H])c(Oc4c([H])c([H])c(F)c([H])c4F)c([H])c3[H])c(C(=O)N([H])[H])c2N([H])[H])C1([H])[H])c1c([H])c([H])c(C([H])([H])C([H])(C([H])([H])[H])C([H])([H])Oc2c([H])c([H])c3c(c2[H])C([H])([H])N(C(=O)C([H])(N([H])C(=O)C([H])(N([H])C([H])([H])[H])C([H])([H])[H])C(C([H])([H])[H])(C([H])([H])[H])C([H])([H])[H])C([H])(C(=O)N([H])C2([H])c4c([H])c([H])c([H])c([H])c4C([H])([H])C([H])([H])C2([H])[H])C3([H])[H])c([H])c1[H]

$$$$
27:0:0
     RDKit          3D

 86 93  0  0  1  0  0  0  0  0999 V2000
  -28.5910  -21.9310   20.1860 C   0  0  0  0  0  3  0  0  0  0  0  0
  -29.6350  -20.6520   20.3640 C   0  0  0  0  0  3  0  0  0  0  0  0
  -29.1830  -19.0810   20.4070 C   0  0  0  0  0  0  0  0  0  0  0  0
  -27.9760  -18.8360   20.4660 O   0  0  0  0  0  0  0  0  0  0  0  0
  -31.4890  -18.1580   21.1510 C   0  0  0  0  0  1  0  0  0  0  0  0
  -30.2110  -17.8070   20.3670 C   0  0  0  0  0  3  0  0  0  0  0  0
  -29.7200  -16.2600   20.7330 C   0  0  0  0  0  2  0  0  0  0  0  0
  -30.5320  -14.8910   20.3420 C   0  0  0  0  0  0  0  0  0  0  0  0
  -30.3780  -12.5890   19.3210 C   0  0  0  0  0  2  0  0  0  0  0  0
  -29.4280  -12.6420   18.1010 C   0  0  0  0  0  2  0  0  0  0  0  0
  -27.9620  -12.4560   18.5350 C   0  0  0  0  0  2  0  0  0  0  0  0
  -27.5900  -13.3350   19.7560 C   0  0  0  0  0  3  0  0  0  0  0  0
  -28.6540  -13.2580   20.8710 C   0  0  0  0  0  2  0  0  0  0  0  0
  -29.9440  -13.6370   20.2820 N   0  0  0  0  0  0  0  0  0  0  0  0
  -31.7060  -14.9850   19.9690 O   0  0  0  0  0  0  0  0  0  0  0  0
  -25.2090  -13.9220   20.5000 C   0  0  0  0  0  0  0  0  0  0  0  0
  -24.1430  -13.1480   20.8700 C   0  0  0  0  0  0  0  0  0  0  0  0
  -24.6050  -11.7970   20.8360 C   0  0  0  0  0  0  0  0  0  0  0  0
  -26.2500  -13.0420   20.2550 N   0  0  0  0  0  0  0  0  0  0  0  0
  -25.8960  -11.7580   20.5210 N   0  0  0  0  0  0  0  0  0  0  0  0
  -23.8780  -10.5350   21.0280 C   0  0  0  0  0  0  0  0  0  0  0  0
  -24.3070   -9.5690   21.9650 C   0  0  0  0  0  3  0  0  0  0  0  0
  -23.5800   -8.3730   22.1430 C   0  0  0  0  0  3  0  0  0  0  0  0
  -22.4100   -8.1340   21.3840 C   0  0  0  0  0  0  0  0  0  0  0  0
  -22.0000   -9.0880   20.4360 C   0  0  0  0  0  3  0  0  0  0  0  0
  -22.7280  -10.2760   20.2560 C   0  0  0  0  0  3  0  0  0  0  0  0
  -21.6540   -6.9890   21.4720 O   0  0  0  0  0  0  0  0  0  0  0  0
  -21.5940   -6.2530   22.6280 C   0  0  0  0  0  0  0  0  0  0  0  0
  -21.1470   -6.8120   23.8450 C   0  0  0  0  0  3  0  0  0  0  0  0
  -21.0340   -6.0020   24.9920 C   0  0  0  0  0  3  0  0  0  0  0  0
  -21.3590   -4.6340   24.9230 C   0  0  0  0  0  0  0  0  0  0  0  0
  -21.7990   -4.0740   23.7110 C   0  0  0  0  0  3  0  0  0  0  0  0
  -21.9120   -4.8810   22.5660 C   0  0  0  0  0  0  0  0  0  0  0  0
  -22.3170   -4.3320   21.3950 F   0  0  0  0  0  0  0  0  0  0  0  0
  -21.2430   -3.8530   26.0240 F   0  0  0  0  0  0  0  0  0  0  0  0
  -22.7470  -13.6260   21.1480 C   0  0  0  0  0  0  0  0  0  0  0  0
  -22.0230  -12.9310   22.0180 N   0  0  0  0  0  0  0  0  0  0  0  0
  -22.3080  -14.6520   20.6290 O   0  0  0  0  0  0  0  0  0  0  0  0
  -22.3920  -12.1010   22.4590 H   0  0  0  0  0  0  0  0  0  0  0  0
  -21.0870  -13.2320   22.2480 H   0  0  0  0  0  0  0  0  0  0  0  0
  -25.3740  -15.2940   20.3270 N   0  0  0  0  0  0  0  0  0  0  0  0
  -24.6120  -15.9500   20.4530 H   0  0  0  0  0  0  0  0  0  0  0  0
  -26.2310  -15.7390   20.0240 H   0  0  0  0  0  0  0  0  0  0  0  0
  -29.0090  -23.5290   20.3680 C   0  0  0  0  0  3  0  0  0  0  0  0
  -27.9670  -24.7810   20.0710 C   0  0  0  0  0  3  0  0  0  0  0  0
  -28.2460  -26.2800   20.2500 O   0  0  0  0  0  0  0  0  0  0  0  0
  -24.5980  -31.8750   23.2570 C   0  0  0  0  0  0  0  0  0  0  0  0
  -27.1730  -27.2260   20.1900 C   0  0  0  0  0  0  0  0  0  0  0  0
  -23.3900  -30.4880   21.6160 C   0  0  0  0  0  3  0  0  0  0  0  0
  -24.8350  -28.9300   20.1780 C   0  0  0  0  0  0  0  0  0  0  0  0
  -25.9410  -30.7690   21.4400 C   0  0  0  0  0  2  0  0  0  0  0  0
  -26.0130  -29.3870   20.7810 C   0  0  0  0  0  0  0  0  0  0  0  0
  -27.1840  -28.5480   20.7720 C   0  0  0  0  0  3  0  0  0  0  0  0
  -25.9660  -26.8580   19.5530 C   0  0  0  0  0  3  0  0  0  0  0  0
  -24.8190  -27.6780   19.5520 C   0  0  0  0  0  3  0  0  0  0  0  0
  -23.6040  -29.8210   20.2320 C   0  0  0  0  0  2  0  0  0  0  0  0
  -24.6630  -31.0640   22.1580 N   0  0  0  0  0  0  0  0  0  0  0  0
  -23.5150  -32.1540   23.7920 O   0  0  0  0  0  0  0  0  0  0  0  0
  -22.7220  -29.4710   22.5730 C   0  0  0  0  0  0  0  0  0  0  0  0
  -21.3940  -29.2960   22.4510 N   0  0  0  0  0  0  0  0  0  0  0  0
  -23.3980  -28.8440   23.3920 O   0  0  0  0  0  0  0  0  0  0  0  0
  -20.9060  -29.8530   21.7630 H   0  0  0  0  0  0  0  0  0  0  0  0
  -18.0160  -28.0910   22.9560 C   0  0  0  0  0  0  0  0  0  0  0  0
  -20.5750  -28.3560   23.2210 C   0  0  0  0  0  3  0  0  0  0  0  0
  -20.6790  -26.9240   22.6460 C   0  0  0  0  0  2  0  0  0  0  0  0
  -19.5760  -26.6000   21.6340 C   0  0  0  0  0  2  0  0  0  0  0  0
  -18.1940  -26.7430   22.2780 C   0  0  0  0  0  2  0  0  0  0  0  0
  -19.1340  -28.8560   23.3850 C   0  0  0  0  0  0  0  0  0  0  0  0
  -18.9130  -30.1160   23.9800 C   0  0  0  0  0  3  0  0  0  0  0  0
  -17.6070  -30.6130   24.1500 C   0  0  0  0  0  3  0  0  0  0  0  0
  -16.5040  -29.8460   23.7380 C   0  0  0  0  0  3  0  0  0  0  0  0
  -16.7100  -28.5880   23.1460 C   0  0  0  0  0  3  0  0  0  0  0  0
  -25.8800  -32.5070   23.8790 C   0  0  0  0  0  3  0  0  0  0  0  0
  -26.3940  -31.7370   25.1590 C   0  0  1  0  0  0  0  0  0  0  0  0
  -25.2990  -31.5040   26.2250 C   0  0  0  0  0  1  0  0  0  0  0  0
  -26.9770  -30.3580   24.7740 C   0  0  0  0  0  1  0  0  0  0  0  0
  -27.5480  -32.5300   25.8170 C   0  0  0  0  0  1  0  0  0  0  0  0
  -25.5720  -33.9070   24.2120 N   0  0  0  0  0  0  0  0  0  0  0  0
  -25.8860  -34.9600   23.4470 C   0  0  0  0  0  0  0  0  0  0  0  0
  -26.5320  -34.8570   22.4010 O   0  0  0  0  0  0  0  0  0  0  0  0
  -24.9990  -34.0620   25.0290 H   0  0  0  0  0  0  0  0  0  0  0  0
  -24.1420  -36.7470   23.1380 C   0  0  0  0  0  1  0  0  0  0  0  0
  -25.4070  -36.3490   23.9160 C   0  0  0  0  0  3  0  0  0  0  0  0
  -27.5590  -37.2440   24.6860 C   0  0  0  0  0  1  0  0  0  0  0  0
  -26.4330  -37.4060   23.7710 N   0  0  0  0  0  0  0  0  0  0  0  0
  -26.0270  -38.3240   23.9290 H   0  0  0  0  0  0  0  0  0  0  0  0
  1  2  2  0
  1 44  1  0
  2  3  1  0
  3  4  2  0
  6  3  1  0
  6  7  1  0
  6  5  1  0
  8  7  1  0
  9 14  1  0
 10 11  1  0
 10  9  1  0
 12 11  1  0
 12 19  1  0
 12 13  1  0
 14  8  1  0
 14 13  1  0
 15  8  2  0
 16 17  2  0
 17 36  1  0
 18 17  1  0
 18 21  1  0
 19 16  1  0
 19 20  1  0
 20 18  2  0
 21 22  1  0
 22 23  2  0
 24 27  1  0
 24 23  1  0
 25 24  2  0
 26 25  1  0
 26 21  2  0
 27 28  1  0
 28 29  1  0
 29 30  2  0
 31 30  1  0
 31 35  1  0
 32 31  2  0
 33 28  2  0
 33 32  1  0
 34 33  1  0
 36 37  1  0
 37 40  1  0
 37 39  1  0
 38 36  2  0
 41 42  1  0
 41 16  1  0
 43 41  1  0
 45 46  1  0
 45 44  2  0
 47 58  2  0
 48 46  1  0
 48 53  1  0
 49 57  1  0
 49 59  1  0
 50 56  1  0
 50 52  1  0
 51 57  1  0
 52 51  1  0
 53 52  2  0
 54 48  2  0
 55 54  1  0
 55 50  2  0
 56 49  1  0
 57 47  1  0
 59 61  2  0
 60 59  1  0
 62 60  1  0
 63 72  2  0
 63 68  1  0
 64 60  1  0
 64 68  1  0
 65 64  1  0
 66 67  1  0
 66 65  1  0
 67 63  1  0
 68 69  2  0
 69 70  1  0
 71 70  2  0
 72 71  1  0
 73 47  1  0
 73 78  1  0
 73 74  1  0
 74 77  1  1
 74 75  1  0
 76 74  1  0
 78 81  1  0
 79 83  1  0
 79 78  1  0
 80 79  2  0
 83 82  1  0
 85 83  1  0
 85 86  1  0
 85 84  1  0
M  ISO  4   7 100   8 100  45 101  46 101
M  END
>  <TORSDO>  (28) 
F 22

>  <SCORE>  (28) 
-13.110

>  <name>  (28) 
27

>  <ligand_id>  (28) 
27

>  <original_smiles>  (28) 
[H]c1c([H])c([H])c2c(c1[H])C([H])([H])C([H])([H])C([H])([H])C2([H])N([H])C(=O)C1([H])N(C(=O)C([H])(N([H])C(=O)C([H])(N([H])C([H])([H])[H])C([H])([H])[H])C(C([H])([H])[H])(C([H])([H])[H])C([H])([H])[H])C([H])([H])c2c([H])c(OC([H])([H])C([H])([H])C([H])([H])C([H])([H])C(=O)C([H])(C([H])([H])[H])C([H])([H])C(=O)N3C([H])([H])C([H])([H])C([H])([H])C([H])(n4nc(-c5c([H])c([H])c(Oc6c([H])c([H])c(F)c([H])c6F)c([H])c5[H])c(C(=O)N([H])[H])c4N([H])[H])C3([H])[H])c([H])c([H])c2C1([H])[H]

>  <smiles>  (28) 
[H]c1c([H])c([H])c2c(c1[H])C([H])([H])C([H])([H])C([H])([H])C2([H])N([H])C(=O)C1([H])N(C(=O)C([H])(N([H])C(=O)C([H])(N([H])C([H])([H])[H])C([H])([H])[H])C(C([H])([H])[H])(C([H])([H])[H])C([H])([H])[H])C([H])([H])c2c([H])c(OC([H])([H])C([H])([H])C([H])([H])C([H])([H])C(=O)C([H])(C([H])([H])[H])C([H])([H])C(=O)N3C([H])([H])C([H])([H])C([H])([H])C([H])(n4nc(-c5c([H])c([H])c(Oc6c([H])c([H])c(F)c([H])c6F)c([H])c5[H])c(C(=O)N([H])[H])c4N([H])[H])C3([H])[H])c([H])c([H])c2C1([H])[H]

$$$$
28:0:0
     RDKit          3D

 95103  0  0  1  0  0  0  0  0999 V2000
  -29.3990  -22.7660   20.5260 C   0  0  0  0  0  0  0  0  0  0  0  0
  -29.9960  -22.3090   21.5060 O   0  0  0  0  0  0  0  0  0  0  0  0
  -26.7000  -21.9120   17.9890 C   0  0  0  0  0  3  0  0  0  0  0  0
  -26.8270  -20.5350   17.7760 C   0  0  0  0  0  3  0  0  0  0  0  0
  -27.5690  -22.5560   18.8770 C   0  0  0  0  0  3  0  0  0  0  0  0
  -27.8050  -19.8140   18.4840 C   0  0  0  0  0  3  0  0  0  0  0  0
  -28.5690  -21.8690   19.6160 C   0  0  0  0  0  0  0  0  0  0  0  0
  -28.6660  -20.4250   19.4310 C   0  0  0  0  0  0  0  0  0  0  0  0
  -29.6910  -19.4300   20.0560 C   0  0  0  0  0  2  0  0  0  0  0  0
  -29.1210  -18.1050   20.7080 C   0  0  0  0  0  2  0  0  0  0  0  0
  -29.8890  -15.6120   20.9330 C   0  0  0  0  0  3  0  0  0  0  0  0
  -29.7420  -16.7670   20.2180 C   0  0  0  0  0  3  0  0  0  0  0  0
  -30.6540  -14.4760   20.3820 C   0  0  0  0  0  0  0  0  0  0  0  0
  -30.3260  -12.3470   19.1660 C   0  0  0  0  0  2  0  0  0  0  0  0
  -29.3950  -12.6870   17.9870 C   0  0  0  0  0  2  0  0  0  0  0  0
  -27.9050  -12.6200   18.4040 C   0  0  0  0  0  2  0  0  0  0  0  0
  -27.6190  -13.3050   19.7690 C   0  0  0  0  0  3  0  0  0  0  0  0
  -28.6880  -12.9490   20.8250 C   0  0  0  0  0  2  0  0  0  0  0  0
  -29.9980  -13.2800   20.2610 N   0  0  0  0  0  0  0  0  0  0  0  0
  -31.7940  -14.6280   19.9440 O   0  0  0  0  0  0  0  0  0  0  0  0
  -25.2180  -13.8790   20.4640 C   0  0  0  0  0  0  0  0  0  0  0  0
  -24.1570  -13.0990   20.8370 C   0  0  0  0  0  0  0  0  0  0  0  0
  -24.6300  -11.7520   20.8150 C   0  0  0  0  0  0  0  0  0  0  0  0
  -26.2700  -13.0090   20.2460 N   0  0  0  0  0  0  0  0  0  0  0  0
  -25.9230  -11.7240   20.5090 N   0  0  0  0  0  0  0  0  0  0  0  0
  -23.9130  -10.4850   21.0110 C   0  0  0  0  0  0  0  0  0  0  0  0
  -24.3430   -9.5290   21.9570 C   0  0  0  0  0  3  0  0  0  0  0  0
  -23.6220   -8.3280   22.1380 C   0  0  0  0  0  3  0  0  0  0  0  0
  -22.4580   -8.0760   21.3730 C   0  0  0  0  0  0  0  0  0  0  0  0
  -22.0480   -9.0230   20.4210 C   0  0  0  0  0  3  0  0  0  0  0  0
  -22.7670  -10.2150   20.2360 C   0  0  0  0  0  3  0  0  0  0  0  0
  -21.7110   -6.9250   21.4630 O   0  0  0  0  0  0  0  0  0  0  0  0
  -21.6510   -6.1950   22.6230 C   0  0  0  0  0  0  0  0  0  0  0  0
  -21.1760   -6.7520   23.8300 C   0  0  0  0  0  3  0  0  0  0  0  0
  -21.0670   -5.9450   24.9810 C   0  0  0  0  0  3  0  0  0  0  0  0
  -21.4180   -4.5820   24.9240 C   0  0  0  0  0  0  0  0  0  0  0  0
  -21.8860   -4.0270   23.7210 C   0  0  0  0  0  3  0  0  0  0  0  0
  -21.9990   -4.8310   22.5720 C   0  0  0  0  0  0  0  0  0  0  0  0
  -22.4300   -4.2860   21.4080 F   0  0  0  0  0  0  0  0  0  0  0  0
  -21.3100   -3.8020   26.0250 F   0  0  0  0  0  0  0  0  0  0  0  0
  -22.7600  -13.5730   21.1100 C   0  0  0  0  0  0  0  0  0  0  0  0
  -22.0330  -12.8790   21.9800 N   0  0  0  0  0  0  0  0  0  0  0  0
  -22.3220  -14.5940   20.5840 O   0  0  0  0  0  0  0  0  0  0  0  0
  -22.4010  -12.0520   22.4240 H   0  0  0  0  0  0  0  0  0  0  0  0
  -21.0970  -13.1860   22.2060 H   0  0  0  0  0  0  0  0  0  0  0  0
  -25.3710  -15.2480   20.2740 N   0  0  0  0  0  0  0  0  0  0  0  0
  -24.5940  -15.8950   20.3250 H   0  0  0  0  0  0  0  0  0  0  0  0
  -26.2340  -15.6810   19.9690 H   0  0  0  0  0  0  0  0  0  0  0  0
  -29.5370  -24.3130   20.1700 C   0  0  0  0  0  3  0  0  0  0  0  0
  -30.8760  -24.7500   20.6320 N   0  0  0  0  0  4  0  0  0  0  0  0
  -30.9650  -24.6250   21.6270 H   0  0  0  0  0  0  0  0  0  0  0  0
  -31.0230  -25.7180   20.4080 H   0  0  0  0  0  0  0  0  0  0  0  0
  -31.6040  -24.2140   20.1920 H   0  0  0  0  0  0  0  0  0  0  0  0
  -28.4190  -25.2650   20.7490 C   0  0  0  0  0  2  0  0  0  0  0  0
  -28.4610  -26.6290   20.2170 O   0  0  0  0  0  0  0  0  0  0  0  0
  -24.6390  -31.8820   23.2520 C   0  0  0  0  0  0  0  0  0  0  0  0
  -27.2860  -27.3800   20.2170 C   0  0  0  0  0  0  0  0  0  0  0  0
  -23.4340  -30.4730   21.6160 C   0  0  0  0  0  3  0  0  0  0  0  0
  -24.8900  -28.9220   20.2000 C   0  0  0  0  0  0  0  0  0  0  0  0
  -25.9610  -30.8240   21.4120 C   0  0  0  0  0  2  0  0  0  0  0  0
  -26.0520  -29.4430   20.7840 C   0  0  0  0  0  0  0  0  0  0  0  0
  -27.2520  -28.6890   20.7760 C   0  0  0  0  0  3  0  0  0  0  0  0
  -26.1020  -26.8890   19.6190 C   0  0  0  0  0  3  0  0  0  0  0  0
  -24.9160  -27.6500   19.6050 C   0  0  0  0  0  3  0  0  0  0  0  0
  -23.6470  -29.7830   20.2400 C   0  0  0  0  0  2  0  0  0  0  0  0
  -24.6980  -31.0740   22.1540 N   0  0  0  0  0  0  0  0  0  0  0  0
  -23.5570  -32.1580   23.7900 O   0  0  0  0  0  0  0  0  0  0  0  0
  -22.7750  -29.4620   22.5820 C   0  0  0  0  0  0  0  0  0  0  0  0
  -21.4530  -29.2680   22.4410 N   0  0  0  0  0  0  0  0  0  0  0  0
  -23.4520  -28.8530   23.4160 O   0  0  0  0  0  0  0  0  0  0  0  0
  -20.9690  -29.8110   21.7410 H   0  0  0  0  0  0  0  0  0  0  0  0
  -18.0880  -28.0280   22.8770 C   0  0  0  0  0  0  0  0  0  0  0  0
  -20.6330  -28.3320   23.2090 C   0  0  0  0  0  3  0  0  0  0  0  0
  -20.7740  -26.8920   22.6630 C   0  0  0  0  0  2  0  0  0  0  0  0
  -19.7050  -26.5340   21.6270 C   0  0  0  0  0  2  0  0  0  0  0  0
  -18.3040  -26.6700   22.2280 C   0  0  0  0  0  2  0  0  0  0  0  0
  -19.1830  -28.8150   23.3220 C   0  0  0  0  0  0  0  0  0  0  0  0
  -18.9300  -30.0870   23.8830 C   0  0  0  0  0  3  0  0  0  0  0  0
  -17.6120  -30.5680   24.0090 C   0  0  0  0  0  3  0  0  0  0  0  0
  -16.5320  -29.7760   23.5840 C   0  0  0  0  0  3  0  0  0  0  0  0
  -16.7700  -28.5100   23.0210 C   0  0  0  0  0  3  0  0  0  0  0  0
  -25.9240  -32.5140   23.8740 C   0  0  0  0  0  3  0  0  0  0  0  0
  -26.4340  -31.7540   25.1580 C   0  0  1  0  0  0  0  0  0  0  0  0
  -25.3380  -31.5330   26.2270 C   0  0  0  0  0  1  0  0  0  0  0  0
  -27.0050  -30.3690   24.7730 C   0  0  0  0  0  1  0  0  0  0  0  0
  -27.5890  -32.5470   25.8130 C   0  0  0  0  0  1  0  0  0  0  0  0
  -25.6270  -33.9190   24.1840 N   0  0  0  0  0  0  0  0  0  0  0  0
  -25.9750  -34.9600   23.4160 C   0  0  0  0  0  0  0  0  0  0  0  0
  -26.6510  -34.8380   22.3900 O   0  0  0  0  0  0  0  0  0  0  0  0
  -25.0360  -34.0900   24.9840 H   0  0  0  0  0  0  0  0  0  0  0  0
  -24.2730  -36.7690   23.0240 C   0  0  0  0  0  1  0  0  0  0  0  0
  -25.4980  -36.3570   23.8560 C   0  0  0  0  0  3  0  0  0  0  0  0
  -27.6280  -37.2300   24.7110 C   0  0  0  0  0  1  0  0  0  0  0  0
  -26.5430  -37.3970   23.7470 N   0  0  0  0  0  0  0  0  0  0  0  0
  -26.1470  -38.3230   23.8780 H   0  0  0  0  0  0  0  0  0  0  0  0
  1  2  2  0
  3  5  1  0
  4  3  2  0
  4  6  1  0
  5  7  2  0
  6  8  2  0
  7  1  1  0
  8  7  1  0
  8  9  1  0
  9 10  1  0
 12 10  1  0
 12 11  2  0
 13 11  1  0
 14 19  1  0
 15 16  1  0
 15 14  1  0
 17 16  1  0
 17 24  1  0
 17 18  1  0
 19 13  1  0
 19 18  1  0
 20 13  2  0
 21 22  2  0
 22 41  1  0
 23 22  1  0
 23 26  1  0
 24 21  1  0
 24 25  1  0
 25 23  2  0
 26 27  1  0
 27 28  2  0
 29 32  1  0
 29 28  1  0
 30 29  2  0
 31 30  1  0
 31 26  2  0
 32 33  1  0
 33 34  1  0
 34 35  2  0
 36 35  1  0
 36 40  1  0
 37 36  2  0
 38 33  2  0
 38 37  1  0
 39 38  1  0
 41 42  1  0
 42 45  1  0
 42 44  1  0
 43 41  2  0
 46 47  1  0
 46 21  1  0
 48 46  1  0
 49  1  1  0
 49 50  1  0
 49 54  1  0
 50 51  1  0
 52 50  1  0
 53 50  1  0
 55 54  1  0
 56 67  2  0
 57 55  1  0
 57 62  1  0
 58 66  1  0
 58 68  1  0
 59 65  1  0
 59 61  1  0
 60 66  1  0
 61 60  1  0
 62 61  2  0
 63 57  2  0
 64 63  1  0
 64 59  2  0
 65 58  1  0
 66 56  1  0
 68 70  2  0
 69 68  1  0
 71 69  1  0
 72 81  2  0
 72 77  1  0
 73 69  1  0
 73 77  1  0
 74 73  1  0
 75 76  1  0
 75 74  1  0
 76 72  1  0
 77 78  2  0
 78 79  1  0
 80 79  2  0
 81 80  1  0
 82 56  1  0
 82 87  1  0
 82 83  1  0
 83 86  1  1
 83 84  1  0
 85 83  1  0
 87 90  1  0
 88 92  1  0
 88 87  1  0
 89 88  2  0
 92 91  1  0
 94 92  1  0
 94 95  1  0
 94 93  1  0
M  ISO  4  11 100  13 100  54 101  55 101
M  END
>  <TORSDO>  (29) 
F 23

>  <SCORE>  (29) 
-13.216

>  <name>  (29) 
28

>  <ligand_id>  (29) 
28

>  <original_smiles>  (29) 
[H]C(C(=O)N1C([H])([H])C([H])([H])C([H])([H])C([H])(n2nc(-c3c([H])c([H])c(Oc4c([H])c([H])c(F)c([H])c4F)c([H])c3[H])c(C(=O)N([H])[H])c2N([H])[H])C1([H])[H])=C([H])C([H])([H])C([H])([H])c1c([H])c([H])c([H])c([H])c1C(=O)C([H])(C([H])([H])Oc1c([H])c([H])c2c(c1[H])C([H])([H])N(C(=O)C([H])(N([H])C(=O)C([H])(N([H])C([H])([H])[H])C([H])([H])[H])C(C([H])([H])[H])(C([H])([H])[H])C([H])([H])[H])C([H])(C(=O)N([H])C1([H])c3c([H])c([H])c([H])c([H])c3C([H])([H])C([H])([H])C1([H])[H])C2([H])[H])[N+]([H])([H])[H]

>  <smiles>  (29) 
[H]C(C(=O)N1C([H])([H])C([H])([H])C([H])([H])C([H])(n2nc(-c3c([H])c([H])c(Oc4c([H])c([H])c(F)c([H])c4F)c([H])c3[H])c(C(=O)N([H])[H])c2N([H])[H])C1([H])[H])=C([H])C([H])([H])C([H])([H])c1c([H])c([H])c([H])c([H])c1C(=O)C([H])(C([H])([H])Oc1c([H])c([H])c2c(c1[H])C([H])([H])N(C(=O)C([H])(N([H])C(=O)C([H])(N([H])C([H])([H])[H])C([H])([H])[H])C(C([H])([H])[H])(C([H])([H])[H])C([H])([H])[H])C([H])(C(=O)N([H])C1([H])c3c([H])c([H])c([H])c([H])c3C([H])([H])C([H])([H])C1([H])[H])C2([H])[H])[N+]([H])([H])[H]

$$$$
29:0:0
     RDKit          3D

 92 99  0  0  1  0  0  0  0  0999 V2000
  -27.1230  -23.5300   18.7470 C   0  0  0  0  0  0  0  0  0  0  0  0
  -27.9250  -24.2470   19.5410 N   0  0  0  0  0  0  0  0  0  0  0  0
  -27.3030  -23.5230   17.5300 O   0  0  0  0  0  0  0  0  0  0  0  0
  -28.6690  -24.7580   19.0880 H   0  0  0  0  0  0  0  0  0  0  0  0
  -26.0030  -22.6690   19.3490 C   0  0  0  0  0  2  0  0  0  0  0  0
  -26.0870  -21.1930   18.9160 C   0  0  0  0  0  2  0  0  0  0  0  0
  -27.4970  -20.6100   19.1030 C   0  0  0  0  0  2  0  0  0  0  0  0
  -27.5500  -19.0830   19.0880 C   0  0  0  0  0  2  0  0  0  0  0  0
  -28.9980  -18.6050   19.2380 C   0  0  0  0  0  2  0  0  0  0  0  0
  -29.1280  -17.1240   19.6010 C   0  0  0  0  0  2  0  0  0  0  0  0
  -30.5940  -16.7480   19.8800 C   0  0  0  0  0  2  0  0  0  0  0  0
  -31.1880  -14.3780   19.6660 C   0  0  0  0  0  0  0  0  0  0  0  0
  -30.7720  -12.1300   18.7260 C   0  0  0  0  0  2  0  0  0  0  0  0
  -29.7650  -12.1940   17.5640 C   0  0  0  0  0  2  0  0  0  0  0  0
  -28.3200  -12.1070   18.0910 C   0  0  0  0  0  2  0  0  0  0  0  0
  -28.0510  -13.1110   19.2430 C   0  0  0  0  0  3  0  0  0  0  0  0
  -29.1570  -13.0170   20.3130 C   0  0  0  0  0  2  0  0  0  0  0  0
  -30.4670  -13.2230   19.6640 N   0  0  0  0  0  0  0  0  0  0  0  0
  -32.1640  -14.5540   18.9270 O   0  0  0  0  0  0  0  0  0  0  0  0
  -30.8580  -15.3530   21.8760 C   0  0  0  0  0  1  0  0  0  0  0  0
  -30.6920  -15.3860   20.4200 N   0  0  0  0  0  0  0  0  0  0  0  0
  -25.7580  -13.8540   20.1430 C   0  0  0  0  0  0  0  0  0  0  0  0
  -24.6810  -13.1410   20.6050 C   0  0  0  0  0  0  0  0  0  0  0  0
  -25.0640  -11.7660   20.5420 C   0  0  0  0  0  0  0  0  0  0  0  0
  -26.7290  -12.9150   19.8330 N   0  0  0  0  0  0  0  0  0  0  0  0
  -26.3200  -11.6560   20.1280 N   0  0  0  0  0  0  0  0  0  0  0  0
  -24.2910  -10.5450   20.8010 C   0  0  0  0  0  0  0  0  0  0  0  0
  -24.6890   -9.6130   21.7860 C   0  0  0  0  0  3  0  0  0  0  0  0
  -23.9180   -8.4540   22.0260 C   0  0  0  0  0  3  0  0  0  0  0  0
  -22.7380   -8.2200   21.2820 C   0  0  0  0  0  0  0  0  0  0  0  0
  -22.3610   -9.1390   20.2870 C   0  0  0  0  0  3  0  0  0  0  0  0
  -23.1300  -10.2890   20.0460 C   0  0  0  0  0  3  0  0  0  0  0  0
  -21.9410   -7.1090   21.4280 O   0  0  0  0  0  0  0  0  0  0  0  0
  -21.8030   -6.4790   22.6370 C   0  0  0  0  0  0  0  0  0  0  0  0
  -21.3120   -7.1520   23.7780 C   0  0  0  0  0  3  0  0  0  0  0  0
  -21.1160   -6.4470   24.9820 C   0  0  0  0  0  3  0  0  0  0  0  0
  -21.4050   -5.0700   25.0470 C   0  0  0  0  0  0  0  0  0  0  0  0
  -21.8890   -4.3960   23.9120 C   0  0  0  0  0  3  0  0  0  0  0  0
  -22.0840   -5.0990   22.7090 C   0  0  0  0  0  0  0  0  0  0  0  0
  -22.5300   -4.4420   21.6130 F   0  0  0  0  0  0  0  0  0  0  0  0
  -21.2090   -4.3890   26.2010 F   0  0  0  0  0  0  0  0  0  0  0  0
  -23.3400  -13.6940   20.9920 C   0  0  0  0  0  0  0  0  0  0  0  0
  -22.6670  -13.0560   21.9460 N   0  0  0  0  0  0  0  0  0  0  0  0
  -22.9000  -14.7200   20.4800 O   0  0  0  0  0  0  0  0  0  0  0  0
  -23.0350  -12.2210   22.3780 H   0  0  0  0  0  0  0  0  0  0  0  0
  -21.7710  -13.4110   22.2510 H   0  0  0  0  0  0  0  0  0  0  0  0
  -25.9850  -15.2110   19.9440 N   0  0  0  0  0  0  0  0  0  0  0  0
  -25.2810  -15.9170   20.1240 H   0  0  0  0  0  0  0  0  0  0  0  0
  -26.8460  -15.5950   19.5810 H   0  0  0  0  0  0  0  0  0  0  0  0
  -27.7130  -24.5760   20.9490 C   0  0  0  0  0  2  0  0  0  0  0  0
  -28.4880  -25.8600   21.2840 C   0  0  0  0  0  2  0  0  0  0  0  0
  -28.3280  -26.8260   20.2470 O   0  0  0  0  0  0  0  0  0  0  0  0
  -24.5100  -31.9740   23.3240 C   0  0  0  0  0  0  0  0  0  0  0  0
  -27.1550  -27.5330   20.2860 C   0  0  0  0  0  0  0  0  0  0  0  0
  -23.3130  -30.5820   21.6640 C   0  0  0  0  0  3  0  0  0  0  0  0
  -24.7690  -29.0300   20.2660 C   0  0  0  0  0  0  0  0  0  0  0  0
  -25.8390  -30.9190   21.5070 C   0  0  0  0  0  2  0  0  0  0  0  0
  -25.9190  -29.5470   20.8780 C   0  0  0  0  0  0  0  0  0  0  0  0
  -27.1140  -28.7990   20.9010 C   0  0  0  0  0  3  0  0  0  0  0  0
  -25.9980  -27.0290   19.6570 C   0  0  0  0  0  3  0  0  0  0  0  0
  -24.7980  -27.7630   19.6610 C   0  0  0  0  0  3  0  0  0  0  0  0
  -23.5370  -29.9030   20.2860 C   0  0  0  0  0  2  0  0  0  0  0  0
  -24.5710  -31.1740   22.2230 N   0  0  0  0  0  0  0  0  0  0  0  0
  -23.4250  -32.2620   23.8450 O   0  0  0  0  0  0  0  0  0  0  0  0
  -22.6330  -29.5700   22.6120 C   0  0  0  0  0  0  0  0  0  0  0  0
  -21.3060  -29.4210   22.4730 N   0  0  0  0  0  0  0  0  0  0  0  0
  -23.2930  -28.9200   23.4270 O   0  0  0  0  0  0  0  0  0  0  0  0
  -20.8350  -29.9980   21.7910 H   0  0  0  0  0  0  0  0  0  0  0  0
  -17.8980  -28.3220   22.9370 C   0  0  0  0  0  0  0  0  0  0  0  0
  -20.4610  -28.4940   23.2210 C   0  0  0  0  0  3  0  0  0  0  0  0
  -20.5230  -27.0730   22.6110 C   0  0  0  0  0  2  0  0  0  0  0  0
  -19.4090  -26.8100   21.5910 C   0  0  0  0  0  2  0  0  0  0  0  0
  -18.0330  -26.9770   22.2420 C   0  0  0  0  0  2  0  0  0  0  0  0
  -19.0390  -29.0420   23.3820 C   0  0  0  0  0  0  0  0  0  0  0  0
  -18.8600  -30.3010   23.9970 C   0  0  0  0  0  3  0  0  0  0  0  0
  -17.5720  -30.8470   24.1590 C   0  0  0  0  0  3  0  0  0  0  0  0
  -16.4460  -30.1230   23.7300 C   0  0  0  0  0  3  0  0  0  0  0  0
  -16.6090  -28.8640   23.1280 C   0  0  0  0  0  3  0  0  0  0  0  0
  -25.7950  -32.5800   23.9690 C   0  0  0  0  0  3  0  0  0  0  0  0
  -26.2700  -31.8110   25.2620 C   0  0  1  0  0  0  0  0  0  0  0  0
  -25.1510  -31.6060   26.3080 C   0  0  0  0  0  1  0  0  0  0  0  0
  -26.8300  -30.4170   24.8910 C   0  0  0  0  0  1  0  0  0  0  0  0
  -27.4240  -32.5860   25.9400 C   0  0  0  0  0  1  0  0  0  0  0  0
  -25.5130  -33.9890   24.2720 N   0  0  0  0  0  0  0  0  0  0  0  0
  -25.8770  -35.0210   23.4970 C   0  0  0  0  0  0  0  0  0  0  0  0
  -26.5570  -34.8880   22.4760 O   0  0  0  0  0  0  0  0  0  0  0  0
  -24.9100  -34.1740   25.0600 H   0  0  0  0  0  0  0  0  0  0  0  0
  -24.1800  -36.8300   23.1000 C   0  0  0  0  0  1  0  0  0  0  0  0
  -25.4100  -36.4240   23.9250 C   0  0  0  0  0  3  0  0  0  0  0  0
  -27.5540  -37.2910   24.7500 C   0  0  0  0  0  1  0  0  0  0  0  0
  -26.4610  -37.4560   23.7950 N   0  0  0  0  0  0  0  0  0  0  0  0
  -26.0700  -38.3870   23.9210 H   0  0  0  0  0  0  0  0  0  0  0  0
  1  5  1  0
  1  2  1  0
  2 50  1  0
  3  1  2  0
  4  2  1  0
  6  7  1  0
  6  5  1  0
  8  7  1  0
  8  9  1  0
  9 10  1  0
 10 11  1  0
 11 21  1  0
 12 21  1  0
 13 18  1  0
 14 15  1  0
 14 13  1  0
 16 15  1  0
 16 25  1  0
 16 17  1  0
 18 12  1  0
 18 17  1  0
 19 12  2  0
 21 20  1  0
 22 23  2  0
 23 42  1  0
 24 23  1  0
 24 27  1  0
 25 26  1  0
 25 22  1  0
 26 24  2  0
 27 28  1  0
 28 29  2  0
 30 33  1  0
 30 29  1  0
 31 30  2  0
 32 31  1  0
 32 27  2  0
 33 34  1  0
 34 39  2  0
 34 35  1  0
 35 36  2  0
 36 37  1  0
 37 41  1  0
 38 37  2  0
 39 38  1  0
 40 39  1  0
 42 43  1  0
 43 46  1  0
 43 45  1  0
 44 42  2  0
 47 48  1  0
 47 22  1  0
 49 47  1  0
 50 51  1  0
 52 54  1  0
 52 51  1  0
 53 64  2  0
 54 59  1  0
 55 63  1  0
 55 65  1  0
 56 62  1  0
 56 58  1  0
 57 63  1  0
 58 59  2  0
 58 57  1  0
 60 61  1  0
 60 54  2  0
 61 56  2  0
 62 55  1  0
 63 53  1  0
 65 67  2  0
 66 65  1  0
 68 66  1  0
 69 78  2  0
 69 74  1  0
 70 66  1  0
 70 74  1  0
 71 70  1  0
 72 73  1  0
 72 71  1  0
 73 69  1  0
 74 75  2  0
 75 76  1  0
 77 76  2  0
 78 77  1  0
 79 53  1  0
 79 84  1  0
 79 80  1  0
 80 83  1  1
 80 81  1  0
 82 80  1  0
 84 87  1  0
 85 89  1  0
 85 84  1  0
 86 85  2  0
 89 88  1  0
 91 92  1  0
 91 89  1  0
 91 90  1  0
M  ISO  4  12 100  21 100  51 101  52 101
M  END
>  <TORSDO>  (30) 
F 25

>  <SCORE>  (30) 
-11.372

>  <name>  (30) 
29

>  <ligand_id>  (30) 
29

>  <original_smiles>  (30) 
[H]c1c([H])c([H])c2c(c1[H])C([H])([H])C([H])([H])C([H])([H])C2([H])N([H])C(=O)C1([H])N(C(=O)C([H])(N([H])C(=O)C([H])(N([H])C([H])([H])[H])C([H])([H])[H])C(C([H])([H])[H])(C([H])([H])[H])C([H])([H])[H])C([H])([H])c2c([H])c(OC([H])([H])C([H])([H])N([H])C(=O)C([H])([H])C([H])([H])C([H])([H])C([H])([H])C([H])([H])C([H])([H])C([H])([H])N(C(=O)N3C([H])([H])C([H])([H])C([H])([H])C([H])(n4nc(-c5c([H])c([H])c(Oc6c([H])c([H])c(F)c([H])c6F)c([H])c5[H])c(C(=O)N([H])[H])c4N([H])[H])C3([H])[H])C([H])([H])[H])c([H])c([H])c2C1([H])[H]

>  <smiles>  (30) 
[H]c1c([H])c([H])c2c(c1[H])C([H])([H])C([H])([H])C([H])([H])C2([H])N([H])C(=O)C1([H])N(C(=O)C([H])(N([H])C(=O)C([H])(N([H])C([H])([H])[H])C([H])([H])[H])C(C([H])([H])[H])(C([H])([H])[H])C([H])([H])[H])C([H])([H])c2c([H])c(OC([H])([H])C([H])([H])N([H])C(=O)C([H])([H])C([H])([H])C([H])([H])C([H])([H])C([H])([H])C([H])([H])C([H])([H])N(C(=O)N3C([H])([H])C([H])([H])C([H])([H])C([H])(n4nc(-c5c([H])c([H])c(Oc6c([H])c([H])c(F)c([H])c6F)c([H])c5[H])c(C(=O)N([H])[H])c4N([H])[H])C3([H])[H])C([H])([H])[H])c([H])c([H])c2C1([H])[H]

$$$$
30:0:0
     RDKit          3D

 92100  0  0  1  0  0  0  0  0999 V2000
  -29.6090  -20.4780   21.7420 C   0  0  0  0  0  3  0  0  0  0  0  0
  -29.9540  -21.8420   21.7550 C   0  0  0  0  0  3  0  0  0  0  0  0
  -31.3240  -20.0530   20.0770 C   0  0  0  0  0  3  0  0  0  0  0  0
  -30.3050  -19.5590   20.9250 C   0  0  0  0  0  0  0  0  0  0  0  0
  -30.9960  -22.3290   20.9410 C   0  0  0  0  0  0  0  0  0  0  0  0
  -31.6670  -21.4270   20.0750 C   0  0  0  0  0  0  0  0  0  0  0  0
  -32.7680  -21.9040   19.1430 C   0  0  0  0  0  1  0  0  0  0  0  0
  -29.9140  -18.1110   20.9610 C   0  0  0  0  0  0  0  0  0  0  0  0
  -28.7630  -17.7570   21.2410 O   0  0  0  0  0  0  0  0  0  0  0  0
  -30.9940  -17.0440   20.6930 C   0  0  0  0  0  2  0  0  0  0  0  0
  -30.5840  -15.6000   21.1170 C   0  0  0  0  0  2  0  0  0  0  0  0
  -31.1590  -14.4720   20.2370 C   0  0  0  0  0  0  0  0  0  0  0  0
  -30.7760  -12.3450   19.0270 C   0  0  0  0  0  2  0  0  0  0  0  0
  -29.8060  -12.5820   17.8530 C   0  0  0  0  0  2  0  0  0  0  0  0
  -28.3380  -12.4890   18.3190 C   0  0  0  0  0  2  0  0  0  0  0  0
  -28.0590  -13.3250   19.5980 C   0  0  0  0  0  3  0  0  0  0  0  0
  -29.1340  -13.0410   20.6720 C   0  0  0  0  0  2  0  0  0  0  0  0
  -30.4540  -13.3190   20.0790 N   0  0  0  0  0  0  0  0  0  0  0  0
  -32.2280  -14.6730   19.6530 O   0  0  0  0  0  0  0  0  0  0  0  0
  -25.6960  -14.0040   20.3680 C   0  0  0  0  0  0  0  0  0  0  0  0
  -24.6100  -13.2630   20.7510 C   0  0  0  0  0  0  0  0  0  0  0  0
  -25.0230  -11.8980   20.6920 C   0  0  0  0  0  0  0  0  0  0  0  0
  -26.7070  -13.0920   20.1050 N   0  0  0  0  0  0  0  0  0  0  0  0
  -26.3040  -11.8190   20.3510 N   0  0  0  0  0  0  0  0  0  0  0  0
  -24.2580  -10.6580   20.8850 C   0  0  0  0  0  0  0  0  0  0  0  0
  -24.6290   -9.7070   21.8600 C   0  0  0  0  0  3  0  0  0  0  0  0
  -23.8680   -8.5310   22.0410 C   0  0  0  0  0  3  0  0  0  0  0  0
  -22.7210   -8.3000   21.2450 C   0  0  0  0  0  0  0  0  0  0  0  0
  -22.3660   -9.2410   20.2630 C   0  0  0  0  0  3  0  0  0  0  0  0
  -23.1280  -10.4070   20.0810 C   0  0  0  0  0  3  0  0  0  0  0  0
  -21.9360   -7.1750   21.3310 O   0  0  0  0  0  0  0  0  0  0  0  0
  -21.7480   -6.5180   22.5210 C   0  0  0  0  0  0  0  0  0  0  0  0
  -21.1660   -7.1540   23.6380 C   0  0  0  0  0  3  0  0  0  0  0  0
  -20.9270   -6.4240   24.8190 C   0  0  0  0  0  3  0  0  0  0  0  0
  -21.2590   -5.0570   24.8820 C   0  0  0  0  0  0  0  0  0  0  0  0
  -21.8340   -4.4210   23.7670 C   0  0  0  0  0  3  0  0  0  0  0  0
  -22.0740   -5.1490   22.5900 C   0  0  0  0  0  0  0  0  0  0  0  0
  -22.6090   -4.5260   21.5120 F   0  0  0  0  0  0  0  0  0  0  0  0
  -21.0220   -4.3520   26.0120 F   0  0  0  0  0  0  0  0  0  0  0  0
  -23.2370  -13.7850   21.0650 C   0  0  0  0  0  0  0  0  0  0  0  0
  -22.5130  -13.1110   21.9540 N   0  0  0  0  0  0  0  0  0  0  0  0
  -22.8150  -14.8220   20.5570 O   0  0  0  0  0  0  0  0  0  0  0  0
  -22.8660  -12.2720   22.3880 H   0  0  0  0  0  0  0  0  0  0  0  0
  -21.5940  -13.4460   22.2050 H   0  0  0  0  0  0  0  0  0  0  0  0
  -25.9010  -15.3710   20.2090 N   0  0  0  0  0  0  0  0  0  0  0  0
  -25.1640  -16.0510   20.3640 H   0  0  0  0  0  0  0  0  0  0  0  0
  -26.7760  -15.7940   19.9230 H   0  0  0  0  0  0  0  0  0  0  0  0
  -31.4010  -23.8000   21.0710 C   0  0  0  0  0  2  0  0  0  0  0  0
  -30.5060  -24.8050   20.3050 C   0  0  0  0  0  2  0  0  0  0  0  0
  -29.3260  -25.3480   21.1380 C   0  0  0  0  0  2  0  0  0  0  0  0
  -28.8340  -26.7550   20.7510 C   0  0  0  0  0  2  0  0  0  0  0  0
  -28.0250  -26.7580   19.5670 O   0  0  0  0  0  0  0  0  0  0  0  0
  -24.4100  -31.7640   23.0970 C   0  0  0  0  0  0  0  0  0  0  0  0
  -26.8950  -27.5440   19.6360 C   0  0  0  0  0  0  0  0  0  0  0  0
  -23.1220  -30.4880   21.4110 C   0  0  0  0  0  3  0  0  0  0  0  0
  -24.5040  -29.0410   19.8260 C   0  0  0  0  0  0  0  0  0  0  0  0
  -25.6340  -30.8560   21.1260 C   0  0  0  0  0  2  0  0  0  0  0  0
  -25.6840  -29.5300   20.3980 C   0  0  0  0  0  0  0  0  0  0  0  0
  -26.8810  -28.7970   20.2960 C   0  0  0  0  0  3  0  0  0  0  0  0
  -25.7050  -27.0720   19.0450 C   0  0  0  0  0  3  0  0  0  0  0  0
  -24.5050  -27.8120   19.1430 C   0  0  0  0  0  3  0  0  0  0  0  0
  -23.2720  -29.9050   19.9790 C   0  0  0  0  0  2  0  0  0  0  0  0
  -24.4100  -31.0440   21.9390 N   0  0  0  0  0  0  0  0  0  0  0  0
  -23.3570  -32.0030   23.7030 O   0  0  0  0  0  0  0  0  0  0  0  0
  -22.5030  -29.4050   22.3250 C   0  0  0  0  0  0  0  0  0  0  0  0
  -21.1760  -29.2340   22.2340 N   0  0  0  0  0  0  0  0  0  0  0  0
  -23.2120  -28.7270   23.0730 O   0  0  0  0  0  0  0  0  0  0  0  0
  -20.6600  -29.8380   21.6100 H   0  0  0  0  0  0  0  0  0  0  0  0
  -17.8160  -28.0270   22.7700 C   0  0  0  0  0  0  0  0  0  0  0  0
  -20.3830  -28.2500   22.9730 C   0  0  0  0  0  3  0  0  0  0  0  0
  -20.4570  -26.8600   22.3030 C   0  0  0  0  0  2  0  0  0  0  0  0
  -19.3200  -26.6110   21.3080 C   0  0  0  0  0  2  0  0  0  0  0  0
  -17.9600  -26.7240   22.0050 C   0  0  0  0  0  2  0  0  0  0  0  0
  -18.9550  -28.7530   23.2130 C   0  0  0  0  0  0  0  0  0  0  0  0
  -18.7650  -29.9780   23.8880 C   0  0  0  0  0  3  0  0  0  0  0  0
  -17.4700  -30.4750   24.1290 C   0  0  0  0  0  3  0  0  0  0  0  0
  -16.3480  -29.7460   23.7020 C   0  0  0  0  0  3  0  0  0  0  0  0
  -16.5220  -28.5240   23.0290 C   0  0  0  0  0  3  0  0  0  0  0  0
  -25.7270  -32.3370   23.7020 C   0  0  0  0  0  3  0  0  0  0  0  0
  -25.4620  -33.7260   24.1000 N   0  0  0  0  0  0  0  0  0  0  0  0
  -25.8330  -34.8030   23.3930 C   0  0  0  0  0  0  0  0  0  0  0  0
  -26.5010  -34.7270   22.3570 O   0  0  0  0  0  0  0  0  0  0  0  0
  -24.8660  -33.8610   24.9020 H   0  0  0  0  0  0  0  0  0  0  0  0
  -24.1680  -36.6640   23.1090 C   0  0  0  0  0  1  0  0  0  0  0  0
  -25.3880  -36.1810   23.9130 C   0  0  0  0  0  3  0  0  0  0  0  0
  -27.5370  -36.9550   24.8150 C   0  0  0  0  0  1  0  0  0  0  0  0
  -26.4560  -37.2020   23.8650 N   0  0  0  0  0  0  0  0  0  0  0  0
  -26.0810  -38.1290   24.0480 H   0  0  0  0  0  0  0  0  0  0  0  0
  -26.2710  -31.4990   24.9220 C   0  0  1  0  0  0  0  0  0  0  0  0
  -25.2070  -31.2340   26.0120 C   0  0  0  0  0  1  0  0  0  0  0  0
  -26.8100  -30.1310   24.4410 C   0  0  0  0  0  1  0  0  0  0  0  0
  -27.4580  -32.2380   25.5820 C   0  0  0  0  0  1  0  0  0  0  0  0
  1  2  1  0
  3  4  1  0
  4  8  1  0
  4  1  2  0
  5 48  1  0
  5  2  2  0
  6  3  2  0
  6  5  1  0
  7  6  1  0
  8  9  2  0
 10  8  1  0
 10 11  1  0
 12 11  1  0
 13 18  1  0
 14 15  1  0
 14 13  1  0
 16 15  1  0
 16 23  1  0
 16 17  1  0
 18 12  1  0
 18 17  1  0
 19 12  2  0
 20 21  2  0
 21 40  1  0
 22 21  1  0
 22 25  1  0
 23 24  1  0
 23 20  1  0
 24 22  2  0
 25 26  1  0
 26 27  2  0
 28 31  1  0
 28 27  1  0
 29 28  2  0
 30 29  1  0
 30 25  2  0
 31 32  1  0
 32 37  2  0
 32 33  1  0
 33 34  2  0
 34 35  1  0
 35 39  1  0
 36 35  2  0
 37 36  1  0
 38 37  1  0
 40 41  1  0
 41 44  1  0
 41 43  1  0
 42 40  2  0
 45 46  1  0
 45 20  1  0
 47 45  1  0
 49 48  1  0
 49 50  1  0
 51 50  1  0
 52 54  1  0
 52 51  1  0
 53 64  2  0
 54 59  1  0
 55 63  1  0
 55 65  1  0
 56 62  1  0
 56 58  1  0
 57 63  1  0
 58 57  1  0
 59 58  2  0
 60 61  1  0
 60 54  2  0
 61 56  2  0
 62 55  1  0
 63 53  1  0
 65 67  2  0
 66 65  1  0
 68 66  1  0
 69 78  2  0
 69 74  1  0
 70 66  1  0
 70 74  1  0
 71 70  1  0
 72 73  1  0
 72 71  1  0
 73 69  1  0
 74 75  2  0
 75 76  1  0
 77 76  2  0
 78 77  1  0
 79 53  1  0
 79 80  1  0
 79 89  1  0
 80 83  1  0
 81 85  1  0
 81 80  1  0
 82 81  2  0
 85 84  1  0
 87 85  1  0
 87 88  1  0
 87 86  1  0
 89 92  1  1
 89 90  1  0
 91 89  1  0
M  ISO  4  11 100  12 100  51 101  52 101
M  END
>  <TORSDO>  (31) 
F 23

>  <SCORE>  (31) 
-11.992

>  <name>  (31) 
30

>  <ligand_id>  (31) 
30

>  <original_smiles>  (31) 
[H]c1c([H])c([H])c2c(c1[H])C([H])([H])C([H])([H])C([H])([H])C2([H])N([H])C(=O)C1([H])N(C(=O)C([H])(N([H])C(=O)C([H])(N([H])C([H])([H])[H])C([H])([H])[H])C(C([H])([H])[H])(C([H])([H])[H])C([H])([H])[H])C([H])([H])c2c([H])c(OC([H])([H])C([H])([H])C([H])([H])C([H])([H])c3c([H])c([H])c(C(=O)C([H])([H])C([H])([H])C(=O)N4C([H])([H])C([H])([H])C([H])([H])C([H])(n5nc(-c6c([H])c([H])c(Oc7c([H])c([H])c(F)c([H])c7F)c([H])c6[H])c(C(=O)N([H])[H])c5N([H])[H])C4([H])[H])c([H])c3C([H])([H])[H])c([H])c([H])c2C1([H])[H]

>  <smiles>  (31) 
[H]c1c([H])c([H])c2c(c1[H])C([H])([H])C([H])([H])C([H])([H])C2([H])N([H])C(=O)C1([H])N(C(=O)C([H])(N([H])C(=O)C([H])(N([H])C([H])([H])[H])C([H])([H])[H])C(C([H])([H])[H])(C([H])([H])[H])C([H])([H])[H])C([H])([H])c2c([H])c(OC([H])([H])C([H])([H])C([H])([H])C([H])([H])c3c([H])c([H])c(C(=O)C([H])([H])C([H])([H])C(=O)N4C([H])([H])C([H])([H])C([H])([H])C([H])(n5nc(-c6c([H])c([H])c(Oc7c([H])c([H])c(F)c([H])c7F)c([H])c6[H])c(C(=O)N([H])[H])c5N([H])[H])C4([H])[H])c([H])c3C([H])([H])[H])c([H])c([H])c2C1([H])[H]

$$$$
31:0:0
     RDKit          3D

 99107  0  0  1  0  0  0  0  0999 V2000
  -30.7480  -16.6940   21.7030 C   0  0  0  0  0  3  0  0  0  0  0  0
  -30.7380  -14.4540   20.5870 C   0  0  0  0  0  0  0  0  0  0  0  0
  -30.4140  -12.3060   19.4190 C   0  0  0  0  0  2  0  0  0  0  0  0
  -29.4870  -12.5020   18.2040 C   0  0  0  0  0  2  0  0  0  0  0  0
  -28.0120  -12.3600   18.6230 C   0  0  0  0  0  2  0  0  0  0  0  0
  -27.6600  -13.2100   19.8720 C   0  0  0  0  0  3  0  0  0  0  0  0
  -28.7040  -13.0120   20.9950 C   0  0  0  0  0  2  0  0  0  0  0  0
  -30.0340  -13.3020   20.4340 N   0  0  0  0  0  0  0  0  0  0  0  0
  -31.8600  -14.6210   20.1040 O   0  0  0  0  0  0  0  0  0  0  0  0
  -30.1150  -15.4540   21.2290 N   0  0  0  0  0  0  0  0  0  0  0  0
  -29.1830  -15.2800   21.5770 H   0  0  0  0  0  0  0  0  0  0  0  0
  -25.2580  -13.8170   20.5670 C   0  0  0  0  0  0  0  0  0  0  0  0
  -24.1830  -13.0440   20.9160 C   0  0  0  0  0  0  0  0  0  0  0  0
  -24.6400  -11.6910   20.8750 C   0  0  0  0  0  0  0  0  0  0  0  0
  -26.3030  -12.9350   20.3370 N   0  0  0  0  0  0  0  0  0  0  0  0
  -25.9340  -11.6510   20.5800 N   0  0  0  0  0  0  0  0  0  0  0  0
  -23.9080  -10.4290   21.0420 C   0  0  0  0  0  0  0  0  0  0  0  0
  -24.3620   -9.4210   21.9200 C   0  0  0  0  0  3  0  0  0  0  0  0
  -23.6290   -8.2240   22.0770 C   0  0  0  0  0  3  0  0  0  0  0  0
  -22.4280   -8.0290   21.3550 C   0  0  0  0  0  0  0  0  0  0  0  0
  -21.9920   -9.0270   20.4650 C   0  0  0  0  0  3  0  0  0  0  0  0
  -22.7260  -10.2140   20.3060 C   0  0  0  0  0  3  0  0  0  0  0  0
  -21.6640   -6.8890   21.4240 O   0  0  0  0  0  0  0  0  0  0  0  0
  -21.6850   -6.0740   22.5280 C   0  0  0  0  0  0  0  0  0  0  0  0
  -21.4010   -6.5640   23.8210 C   0  0  0  0  0  3  0  0  0  0  0  0
  -21.3660   -5.6800   24.9180 C   0  0  0  0  0  3  0  0  0  0  0  0
  -21.6040   -4.3060   24.7230 C   0  0  0  0  0  0  0  0  0  0  0  0
  -21.8820   -3.8160   23.4350 C   0  0  0  0  0  3  0  0  0  0  0  0
  -21.9190   -4.6970   22.3400 C   0  0  0  0  0  0  0  0  0  0  0  0
  -22.1660   -4.2150   21.0980 F   0  0  0  0  0  0  0  0  0  0  0  0
  -21.5630   -3.4550   25.7740 F   0  0  0  0  0  0  0  0  0  0  0  0
  -22.7860  -13.5240   21.1820 C   0  0  0  0  0  0  0  0  0  0  0  0
  -22.0520  -12.8220   22.0390 N   0  0  0  0  0  0  0  0  0  0  0  0
  -22.3550  -14.5550   20.6690 O   0  0  0  0  0  0  0  0  0  0  0  0
  -22.4160  -11.9860   22.4740 H   0  0  0  0  0  0  0  0  0  0  0  0
  -21.1150  -13.1240   22.2640 H   0  0  0  0  0  0  0  0  0  0  0  0
  -25.4300  -15.1880   20.4070 N   0  0  0  0  0  0  0  0  0  0  0  0
  -24.6650  -15.8460   20.5150 H   0  0  0  0  0  0  0  0  0  0  0  0
  -26.2910  -15.6310   20.1130 H   0  0  0  0  0  0  0  0  0  0  0  0
  -30.0300  -17.2250   22.9550 C   0  0  0  0  0  0  0  0  0  0  0  0
  -28.8720  -16.9070   23.2390 O   0  0  0  0  0  0  0  0  0  0  0  0
  -30.8160  -18.1730   23.8680 C   0  0  0  0  0  2  0  0  0  0  0  0
  -30.0050  -19.3550   24.4460 C   0  0  0  0  0  2  0  0  0  0  0  0
  -29.5390  -20.3660   23.3810 C   0  0  0  0  0  2  0  0  0  0  0  0
  -28.0880  -24.1220   25.0000 C   0  0  0  0  0  3  0  0  0  0  0  0
  -27.2230  -23.0150   24.9060 C   0  0  0  0  0  3  0  0  0  0  0  0
  -29.4290  -24.0040   24.5850 C   0  0  0  0  0  3  0  0  0  0  0  0
  -27.6960  -21.7910   24.3930 C   0  0  0  0  0  3  0  0  0  0  0  0
  -29.9030  -22.7800   24.0740 C   0  0  0  0  0  3  0  0  0  0  0  0
  -29.0370  -21.6710   23.9720 C   0  0  0  0  0  0  0  0  0  0  0  0
  -30.9850  -17.7630   20.5920 C   0  0  0  0  0  2  0  0  0  0  0  0
  -29.7580  -18.5550   20.0820 C   0  0  0  0  0  2  0  0  0  0  0  0
  -30.1620  -19.8650   19.3640 C   0  0  0  0  0  2  0  0  0  0  0  0
  -28.9680  -20.7560   18.9480 C   0  0  0  0  0  2  0  0  0  0  0  0
  -28.8290  -22.0880   19.7250 C   0  0  0  0  0  2  0  0  0  0  0  0
  -29.8250  -23.1880   19.2850 C   0  0  0  0  0  2  0  0  0  0  0  0
  -29.6530  -24.5590   19.9920 C   0  0  0  0  0  2  0  0  0  0  0  0
  -28.3900  -25.3480   19.5880 C   0  0  0  0  0  2  0  0  0  0  0  0
  -28.4110  -26.6940   20.0950 O   0  0  0  0  0  0  0  0  0  0  0  0
  -24.6170  -31.8690   23.2100 C   0  0  0  0  0  0  0  0  0  0  0  0
  -27.2320  -27.4240   20.0790 C   0  0  0  0  0  0  0  0  0  0  0  0
  -23.4040  -30.4940   21.5530 C   0  0  0  0  0  3  0  0  0  0  0  0
  -24.8480  -28.9600   20.1150 C   0  0  0  0  0  0  0  0  0  0  0  0
  -25.9370  -30.8260   21.3690 C   0  0  0  0  0  2  0  0  0  0  0  0
  -26.0100  -29.4620   20.7120 C   0  0  0  0  0  0  0  0  0  0  0  0
  -27.2030  -28.6990   20.6950 C   0  0  0  0  0  3  0  0  0  0  0  0
  -26.0440  -26.9430   19.4750 C   0  0  0  0  0  3  0  0  0  0  0  0
  -24.8590  -27.6990   19.4990 C   0  0  0  0  0  3  0  0  0  0  0  0
  -23.6100  -29.8270   20.1680 C   0  0  0  0  0  2  0  0  0  0  0  0
  -24.6710  -31.0770   22.1010 N   0  0  0  0  0  0  0  0  0  0  0  0
  -23.5350  -32.1470   23.7470 O   0  0  0  0  0  0  0  0  0  0  0  0
  -22.7420  -29.4660   22.5010 C   0  0  0  0  0  0  0  0  0  0  0  0
  -21.4150  -29.3040   22.3740 N   0  0  0  0  0  0  0  0  0  0  0  0
  -23.4190  -28.8220   23.3060 O   0  0  0  0  0  0  0  0  0  0  0  0
  -20.9300  -29.8770   21.6980 H   0  0  0  0  0  0  0  0  0  0  0  0
  -18.0280  -28.1340   22.8500 C   0  0  0  0  0  0  0  0  0  0  0  0
  -20.5880  -28.3660   23.1330 C   0  0  0  0  0  3  0  0  0  0  0  0
  -20.6780  -26.9390   22.5430 C   0  0  0  0  0  2  0  0  0  0  0  0
  -19.5750  -26.6370   21.5240 C   0  0  0  0  0  2  0  0  0  0  0  0
  -18.1920  -26.7890   22.1640 C   0  0  0  0  0  2  0  0  0  0  0  0
  -19.1530  -28.8810   23.2910 C   0  0  0  0  0  0  0  0  0  0  0  0
  -18.9450  -30.1430   23.8880 C   0  0  0  0  0  3  0  0  0  0  0  0
  -17.6450  -30.6560   24.0560 C   0  0  0  0  0  3  0  0  0  0  0  0
  -16.5340  -29.9050   23.6330 C   0  0  0  0  0  3  0  0  0  0  0  0
  -16.7260  -28.6480   23.0320 C   0  0  0  0  0  3  0  0  0  0  0  0
  -25.9060  -32.4800   23.8400 C   0  0  0  0  0  3  0  0  0  0  0  0
  -25.5920  -33.8610   24.2340 N   0  0  0  0  0  0  0  0  0  0  0  0
  -25.9040  -34.9460   23.5130 C   0  0  0  0  0  0  0  0  0  0  0  0
  -26.5600  -34.8910   22.4690 O   0  0  0  0  0  0  0  0  0  0  0  0
  -25.0030  -33.9760   25.0450 H   0  0  0  0  0  0  0  0  0  0  0  0
  -24.1500  -36.7330   23.2650 C   0  0  0  0  0  1  0  0  0  0  0  0
  -25.4120  -36.3100   24.0330 C   0  0  0  0  0  3  0  0  0  0  0  0
  -27.5580  -37.1810   24.8460 C   0  0  0  0  0  1  0  0  0  0  0  0
  -26.4300  -37.3790   23.9390 N   0  0  0  0  0  0  0  0  0  0  0  0
  -26.0180  -38.2880   24.1370 H   0  0  0  0  0  0  0  0  0  0  0  0
  -26.4460  -31.6570   25.0730 C   0  0  1  0  0  0  0  0  0  0  0  0
  -25.3720  -31.3640   26.1470 C   0  0  0  0  0  1  0  0  0  0  0  0
  -27.0350  -30.3000   24.6150 C   0  0  0  0  0  1  0  0  0  0  0  0
  -27.6010  -32.4310   25.7510 C   0  0  0  0  0  1  0  0  0  0  0  0
  1 51  1  0
  1 40  1  0
  2 10  1  0
  3  8  1  0
  4  5  1  0
  4  3  1  0
  6  5  1  0
  6 15  1  0
  6  7  1  0
  8  2  1  0
  8  7  1  0
  9  2  2  0
 10 11  1  0
 10  1  1  0
 12 13  2  0
 13 32  1  0
 14 13  1  0
 14 17  1  0
 15 12  1  0
 15 16  1  0
 16 14  2  0
 17 18  1  0
 18 19  2  0
 20 23  1  0
 20 19  1  0
 21 20  2  0
 22 21  1  0
 22 17  2  0
 23 24  1  0
 24 25  1  0
 25 26  2  0
 27 26  1  0
 27 31  1  0
 28 27  2  0
 29 24  2  0
 29 28  1  0
 30 29  1  0
 32 33  1  0
 33 36  1  0
 33 35  1  0
 34 32  2  0
 37 38  1  0
 37 12  1  0
 39 37  1  0
 40 41  2  0
 40 42  1  0
 42 43  1  0
 44 50  1  0
 44 43  1  0
 46 45  1  0
 47 45  2  0
 48 46  2  0
 49 47  1  0
 50 49  2  0
 50 48  1  0
 52 51  1  0
 53 52  1  0
 54 53  1  0
 54 55  1  0
 56 55  1  0
 56 57  1  0
 58 57  1  0
 58 59  1  0
 60 71  2  0
 61 59  1  0
 61 66  1  0
 62 70  1  0
 62 72  1  0
 63 69  1  0
 63 65  1  0
 64 70  1  0
 65 64  1  0
 66 65  2  0
 67 68  1  0
 67 61  2  0
 68 63  2  0
 69 62  1  0
 70 60  1  0
 72 74  2  0
 73 72  1  0
 75 73  1  0
 76 85  2  0
 76 81  1  0
 77 73  1  0
 77 81  1  0
 78 77  1  0
 79 80  1  0
 79 78  1  0
 80 76  1  0
 81 82  2  0
 82 83  1  0
 84 83  2  0
 85 84  1  0
 86 60  1  0
 86 87  1  0
 86 96  1  0
 87 90  1  0
 88 92  1  0
 88 87  1  0
 89 88  2  0
 92 91  1  0
 94 92  1  0
 94 95  1  0
 94 93  1  0
 96 99  1  1
 96 97  1  0
 98 96  1  0
M  ISO  4   2 100  10 100  58 101  59 101
M  END
>  <TORSDO>  (32) 
F 29

>  <SCORE>  (32) 
9.464

>  <name>  (32) 
31

>  <ligand_id>  (32) 
31

>  <original_smiles>  (32) 
[H]c1c([H])c([H])c(C([H])([H])C([H])([H])C([H])([H])C(=O)C([H])(N([H])C(=O)N2C([H])([H])C([H])([H])C([H])([H])C([H])(n3nc(-c4c([H])c([H])c(Oc5c([H])c([H])c(F)c([H])c5F)c([H])c4[H])c(C(=O)N([H])[H])c3N([H])[H])C2([H])[H])C([H])([H])C([H])([H])C([H])([H])C([H])([H])C([H])([H])C([H])([H])C([H])([H])C([H])([H])Oc2c([H])c([H])c3c(c2[H])C([H])([H])N(C(=O)C([H])(N([H])C(=O)C([H])(N([H])C([H])([H])[H])C([H])([H])[H])C(C([H])([H])[H])(C([H])([H])[H])C([H])([H])[H])C([H])(C(=O)N([H])C2([H])c4c([H])c([H])c([H])c([H])c4C([H])([H])C([H])([H])C2([H])[H])C3([H])[H])c([H])c1[H]

>  <smiles>  (32) 
[H]c1c([H])c([H])c(C([H])([H])C([H])([H])C([H])([H])C(=O)C([H])(N([H])C(=O)N2C([H])([H])C([H])([H])C([H])([H])C([H])(n3nc(-c4c([H])c([H])c(Oc5c([H])c([H])c(F)c([H])c5F)c([H])c4[H])c(C(=O)N([H])[H])c3N([H])[H])C2([H])[H])C([H])([H])C([H])([H])C([H])([H])C([H])([H])C([H])([H])C([H])([H])C([H])([H])C([H])([H])Oc2c([H])c([H])c3c(c2[H])C([H])([H])N(C(=O)C([H])(N([H])C(=O)C([H])(N([H])C([H])([H])[H])C([H])([H])[H])C(C([H])([H])[H])(C([H])([H])[H])C([H])([H])[H])C([H])(C(=O)N([H])C2([H])c4c([H])c([H])c([H])c([H])c4C([H])([H])C([H])([H])C2([H])[H])C3([H])[H])c([H])c1[H]

$$$$
32:0:0
     RDKit          3D

 98107  0  0  1  0  0  0  0  0999 V2000
  -27.6820  -18.2820   19.2870 C   0  0  0  0  0  3  0  0  0  0  0  0
  -28.3880  -17.0520   19.2980 C   0  0  0  0  0  3  0  0  0  0  0  0
  -29.3110  -19.2830   20.7910 C   0  0  0  0  0  3  0  0  0  0  0  0
  -28.1840  -19.4350   19.9490 C   0  0  0  0  0  0  0  0  0  0  0  0
  -29.6060  -16.9550   20.0090 C   0  0  0  0  0  0  0  0  0  0  0  0
  -29.9940  -18.0470   20.8000 C   0  0  0  0  0  0  0  0  0  0  0  0
  -31.3900  -17.8840   21.3010 C   0  0  0  0  0  2  0  0  0  0  0  0
  -31.9980  -17.0390   20.1800 C   0  0  0  0  0  2  0  0  0  0  0  0
  -30.8450  -16.1290   19.5780 C   0  0  1  0  0  0  0  0  0  0  0  0
  -31.1670  -14.6300   20.0120 C   0  0  0  0  0  0  0  0  0  0  0  0
  -30.7070  -12.3410   19.2790 C   0  0  0  0  0  2  0  0  0  0  0  0
  -29.7960  -12.3420   18.0410 C   0  0  0  0  0  2  0  0  0  0  0  0
  -28.3250  -12.2630   18.4830 C   0  0  0  0  0  2  0  0  0  0  0  0
  -27.9690  -13.2740   19.6060 C   0  0  0  0  0  3  0  0  0  0  0  0
  -29.0400  -13.3690   20.7140 C   0  0  0  0  0  2  0  0  0  0  0  0
  -30.3470  -13.5360   20.0740 N   0  0  0  0  0  0  0  0  0  0  0  0
  -32.3710  -14.4150   19.9130 O   0  0  0  0  0  0  0  0  0  0  0  0
  -25.6500  -13.9450   20.4650 C   0  0  0  0  0  0  0  0  0  0  0  0
  -24.5570  -13.2090   20.8250 C   0  0  0  0  0  0  0  0  0  0  0  0
  -24.9470  -11.8390   20.7110 C   0  0  0  0  0  0  0  0  0  0  0  0
  -26.6370  -13.0280   20.1470 N   0  0  0  0  0  0  0  0  0  0  0  0
  -26.2250  -11.7530   20.3640 N   0  0  0  0  0  0  0  0  0  0  0  0
  -24.1630  -10.6050   20.8590 C   0  0  0  0  0  0  0  0  0  0  0  0
  -24.5450   -9.5900   21.7640 C   0  0  0  0  0  3  0  0  0  0  0  0
  -23.7610   -8.4250   21.9010 C   0  0  0  0  0  3  0  0  0  0  0  0
  -22.5820   -8.2670   21.1350 C   0  0  0  0  0  0  0  0  0  0  0  0
  -22.2200   -9.2700   20.2190 C   0  0  0  0  0  3  0  0  0  0  0  0
  -23.0020  -10.4270   20.0780 C   0  0  0  0  0  3  0  0  0  0  0  0
  -21.7710   -7.1590   21.1850 O   0  0  0  0  0  0  0  0  0  0  0  0
  -21.6610   -6.3990   22.3210 C   0  0  0  0  0  0  0  0  0  0  0  0
  -21.1830   -6.9370   23.5360 C   0  0  0  0  0  3  0  0  0  0  0  0
  -21.0230   -6.1030   24.6600 C   0  0  0  0  0  3  0  0  0  0  0  0
  -21.3280   -4.7320   24.5700 C   0  0  0  0  0  0  0  0  0  0  0  0
  -21.7980   -4.1930   23.3600 C   0  0  0  0  0  3  0  0  0  0  0  0
  -21.9620   -5.0240   22.2380 C   0  0  0  0  0  0  0  0  0  0  0  0
  -22.3960   -4.4960   21.0680 F   0  0  0  0  0  0  0  0  0  0  0  0
  -21.1670   -3.9290   25.6490 F   0  0  0  0  0  0  0  0  0  0  0  0
  -23.1970  -13.7430   21.1660 C   0  0  0  0  0  0  0  0  0  0  0  0
  -22.4600  -13.0410   22.0190 N   0  0  0  0  0  0  0  0  0  0  0  0
  -22.7980  -14.8160   20.7130 O   0  0  0  0  0  0  0  0  0  0  0  0
  -22.8000  -12.1730   22.4080 H   0  0  0  0  0  0  0  0  0  0  0  0
  -21.5430  -13.3710   22.2870 H   0  0  0  0  0  0  0  0  0  0  0  0
  -25.8810  -15.3120   20.3600 N   0  0  0  0  0  0  0  0  0  0  0  0
  -25.1640  -15.9970   20.5690 H   0  0  0  0  0  0  0  0  0  0  0  0
  -26.7800  -15.7300   20.1550 H   0  0  0  0  0  0  0  0  0  0  0  0
  -27.5770  -20.7950   19.6570 C   0  0  0  0  0  0  0  0  0  0  0  0
  -28.3590  -21.8660   19.8990 N   0  0  0  0  0  0  0  0  0  0  0  0
  -26.5000  -20.8870   19.0650 O   0  0  0  0  0  0  0  0  0  0  0  0
  -29.2210  -21.6760   20.3910 H   0  0  0  0  0  0  0  0  0  0  0  0
  -28.2720  -23.1630   19.1950 C   0  0  0  0  0  2  0  0  0  0  0  0
  -28.4560  -24.4190   20.0840 C   0  0  0  0  0  2  0  0  0  0  0  0
  -28.8330  -25.6810   19.2640 C   0  0  0  0  0  2  0  0  0  0  0  0
  -28.6750  -26.9140   19.9840 O   0  0  0  0  0  0  0  0  0  0  0  0
  -24.5920  -31.8040   23.1580 C   0  0  0  0  0  0  0  0  0  0  0  0
  -27.4560  -27.5700   19.9710 C   0  0  0  0  0  0  0  0  0  0  0  0
  -23.4790  -30.4500   21.4160 C   0  0  0  0  0  3  0  0  0  0  0  0
  -25.0150  -29.0150   19.9770 C   0  0  0  0  0  0  0  0  0  0  0  0
  -26.0010  -30.8810   21.3170 C   0  0  0  0  0  2  0  0  0  0  0  0
  -26.1410  -29.5430   20.6190 C   0  0  0  0  0  0  0  0  0  0  0  0
  -27.3620  -28.8290   20.6120 C   0  0  0  0  0  3  0  0  0  0  0  0
  -26.3000  -27.0460   19.3460 C   0  0  0  0  0  3  0  0  0  0  0  0
  -25.0890  -27.7620   19.3440 C   0  0  0  0  0  3  0  0  0  0  0  0
  -23.7490  -29.8410   20.0160 C   0  0  0  0  0  2  0  0  0  0  0  0
  -24.7070  -31.0590   22.0230 N   0  0  0  0  0  0  0  0  0  0  0  0
  -23.4860  -32.0210   23.6740 O   0  0  0  0  0  0  0  0  0  0  0  0
  -22.8240  -29.3700   22.3070 C   0  0  0  0  0  0  0  0  0  0  0  0
  -21.5000  -29.1990   22.1670 N   0  0  0  0  0  0  0  0  0  0  0  0
  -23.5080  -28.6870   23.0750 O   0  0  0  0  0  0  0  0  0  0  0  0
  -21.0110  -29.7970   21.5170 H   0  0  0  0  0  0  0  0  0  0  0  0
  -18.1120  -28.0460   22.6510 C   0  0  0  0  0  0  0  0  0  0  0  0
  -20.6800  -28.2160   22.8730 C   0  0  0  0  0  3  0  0  0  0  0  0
  -20.7330  -26.8410   22.1680 C   0  0  0  0  0  2  0  0  0  0  0  0
  -19.5990  -26.6370   21.1600 C   0  0  0  0  0  2  0  0  0  0  0  0
  -18.2380  -26.7580   21.8520 C   0  0  0  0  0  2  0  0  0  0  0  0
  -19.2610  -28.7390   23.1160 C   0  0  0  0  0  0  0  0  0  0  0  0
  -19.0900  -29.9490   23.8220 C   0  0  0  0  0  3  0  0  0  0  0  0
  -17.8050  -30.4650   24.0710 C   0  0  0  0  0  3  0  0  0  0  0  0
  -16.6700  -29.7670   23.6210 C   0  0  0  0  0  3  0  0  0  0  0  0
  -16.8250  -28.5590   22.9170 C   0  0  0  0  0  3  0  0  0  0  0  0
  -25.8390  -32.4410   23.8490 C   0  0  0  0  0  3  0  0  0  0  0  0
  -25.5050  -33.8350   24.1670 N   0  0  0  0  0  0  0  0  0  0  0  0
  -25.8730  -34.8930   23.4300 C   0  0  0  0  0  0  0  0  0  0  0  0
  -26.6000  -34.7990   22.4380 O   0  0  0  0  0  0  0  0  0  0  0  0
  -24.8770  -33.9830   24.9420 H   0  0  0  0  0  0  0  0  0  0  0  0
  -24.1500  -36.6700   22.9910 C   0  0  0  0  0  1  0  0  0  0  0  0
  -25.3520  -36.2750   23.8650 C   0  0  0  0  0  3  0  0  0  0  0  0
  -27.4270  -37.1820   24.8150 C   0  0  0  0  0  1  0  0  0  0  0  0
  -26.3810  -37.3370   23.8070 N   0  0  0  0  0  0  0  0  0  0  0  0
  -25.9590  -38.2550   23.9250 H   0  0  0  0  0  0  0  0  0  0  0  0
  -26.2950  -31.6640   25.1440 C   0  0  1  0  0  0  0  0  0  0  0  0
  -25.1560  -31.4150   26.1580 C   0  0  0  0  0  1  0  0  0  0  0  0
  -26.8990  -30.2910   24.7710 C   0  0  0  0  0  1  0  0  0  0  0  0
  -27.4100  -32.4600   25.8640 C   0  0  0  0  0  1  0  0  0  0  0  0
  -30.9330  -16.1140   18.0100 C   0  0  0  0  0  2  0  0  0  0  0  0
  -30.8820  -17.4440   17.3640 N   0  0  0  0  0  4  0  0  0  0  0  0
  -31.6780  -18.0010   17.6180 H   0  0  0  0  0  0  0  0  0  0  0  0
  -30.0410  -17.9240   17.6350 H   0  0  0  0  0  0  0  0  0  0  0  0
  -30.8820  -17.3350   16.3640 H   0  0  0  0  0  0  0  0  0  0  0  0
  1  2  2  0
  1  4  1  0
  2  5  1  0
  3  6  1  0
  4  3  2  0
  5  6  2  0
  6  7  1  0
  8  7  1  0
  9 94  1  6
  9  5  1  0
  9 10  1  0
  9  8  1  0
 10 16  1  0
 11 16  1  0
 12 13  1  0
 12 11  1  0
 14 13  1  0
 14 21  1  0
 14 15  1  0
 16 15  1  0
 17 10  2  0
 18 19  2  0
 19 38  1  0
 20 19  1  0
 20 23  1  0
 21 22  1  0
 21 18  1  0
 22 20  2  0
 23 24  1  0
 24 25  2  0
 26 29  1  0
 26 25  1  0
 27 26  2  0
 28 27  1  0
 28 23  2  0
 29 30  1  0
 30 31  1  0
 31 32  2  0
 33 32  1  0
 33 37  1  0
 34 33  2  0
 35 30  2  0
 35 34  1  0
 36 35  1  0
 38 39  1  0
 39 42  1  0
 39 41  1  0
 40 38  2  0
 43 18  1  0
 43 44  1  0
 45 43  1  0
 46 47  1  0
 46  4  1  0
 47 49  1  0
 48 46  2  0
 50 47  1  0
 50 51  1  0
 52 53  1  0
 52 51  1  0
 54 65  2  0
 55 53  1  0
 55 60  1  0
 56 64  1  0
 56 66  1  0
 57 63  1  0
 57 59  1  0
 58 64  1  0
 59 58  1  0
 60 59  2  0
 61 55  2  0
 62 61  1  0
 62 57  2  0
 63 56  1  0
 64 54  1  0
 66 68  2  0
 67 66  1  0
 69 67  1  0
 70 79  2  0
 70 75  1  0
 71 67  1  0
 71 75  1  0
 72 71  1  0
 73 74  1  0
 73 72  1  0
 74 70  1  0
 75 76  2  0
 76 77  1  0
 78 77  2  0
 79 78  1  0
 80 54  1  0
 80 81  1  0
 80 90  1  0
 81 84  1  0
 82 86  1  0
 82 81  1  0
 83 82  2  0
 86 85  1  0
 88 86  1  0
 88 89  1  0
 88 87  1  0
 90 93  1  1
 90 91  1  0
 92 90  1  0
 95 96  1  0
 95 97  1  0
 95 94  1  0
 98 95  1  0
M  ISO  4   9 100  10 100  52 101  53 101
M  END
>  <TORSDO>  (33) 
F 22

>  <SCORE>  (33) 
-13.045

>  <name>  (33) 
32

>  <ligand_id>  (33) 
32

>  <original_smiles>  (33) 
[H]c1c([H])c([H])c2c(c1[H])C([H])([H])C([H])([H])C([H])([H])C2([H])N([H])C(=O)C1([H])N(C(=O)C([H])(N([H])C(=O)C([H])(N([H])C([H])([H])[H])C([H])([H])[H])C(C([H])([H])[H])(C([H])([H])[H])C([H])([H])[H])C([H])([H])c2c([H])c(OC([H])([H])C([H])([H])C([H])([H])N([H])C(=O)c3c([H])c([H])c4c(c3[H])C([H])([H])C([H])([H])C4(C(=O)N3C([H])([H])C([H])([H])C([H])([H])C([H])(n4nc(-c5c([H])c([H])c(Oc6c([H])c([H])c(F)c([H])c6F)c([H])c5[H])c(C(=O)N([H])[H])c4N([H])[H])C3([H])[H])C([H])([H])[N+]([H])([H])[H])c([H])c([H])c2C1([H])[H]

>  <smiles>  (33) 
[H]c1c([H])c([H])c2c(c1[H])C([H])([H])C([H])([H])C([H])([H])C2([H])N([H])C(=O)C1([H])N(C(=O)C([H])(N([H])C(=O)C([H])(N([H])C([H])([H])[H])C([H])([H])[H])C(C([H])([H])[H])(C([H])([H])[H])C([H])([H])[H])C([H])([H])c2c([H])c(OC([H])([H])C([H])([H])C([H])([H])N([H])C(=O)c3c([H])c([H])c4c(c3[H])C([H])([H])C([H])([H])C4(C(=O)N3C([H])([H])C([H])([H])C([H])([H])C([H])(n4nc(-c5c([H])c([H])c(Oc6c([H])c([H])c(F)c([H])c6F)c([H])c5[H])c(C(=O)N([H])[H])c4N([H])[H])C3([H])[H])C([H])([H])[N+]([H])([H])[H])c([H])c([H])c2C1([H])[H]

$$$$
33:0:0
     RDKit          3D

 84 91  0  0  1  0  0  0  0  0999 V2000
  -28.9360  -22.5010   20.2930 C   0  0  0  0  0  0  0  0  0  0  0  0
  -30.1350  -22.7900   20.3120 O   0  0  0  0  0  0  0  0  0  0  0  0
  -28.6620  -20.6850   20.3380 C   0  0  0  0  0  2  0  0  0  0  0  0
  -30.8540  -19.3240   21.2350 C   0  0  0  0  0  1  0  0  0  0  0  0
  -29.6870  -19.0770   20.2710 C   0  0  0  0  0  3  0  0  0  0  0  0
  -29.3910  -17.2010   20.3810 C   0  0  0  0  0  2  0  0  0  0  0  0
  -30.2730  -15.5950   20.1860 C   0  0  0  0  0  0  0  0  0  0  0  0
  -30.3610  -13.0860   19.3260 C   0  0  0  0  0  2  0  0  0  0  0  0
  -29.4250  -12.7890   18.1200 C   0  0  0  0  0  2  0  0  0  0  0  0
  -28.0000  -12.4530   18.5920 C   0  0  0  0  0  2  0  0  0  0  0  0
  -27.5380  -13.4130   19.7130 C   0  0  0  0  0  3  0  0  0  0  0  0
  -28.6020  -13.6360   20.8080 C   0  0  0  0  0  2  0  0  0  0  0  0
  -29.7910  -14.2270   20.1590 N   0  0  0  0  0  0  0  0  0  0  0  0
  -31.4890  -15.5860   19.9220 O   0  0  0  0  0  0  0  0  0  0  0  0
  -25.1950  -13.9210   20.5610 C   0  0  0  0  0  0  0  0  0  0  0  0
  -24.1500  -13.1280   20.9410 C   0  0  0  0  0  0  0  0  0  0  0  0
  -24.6250  -11.7820   20.8620 C   0  0  0  0  0  0  0  0  0  0  0  0
  -26.2340  -13.0610   20.2590 N   0  0  0  0  0  0  0  0  0  0  0  0
  -25.9070  -11.7660   20.5090 N   0  0  0  0  0  0  0  0  0  0  0  0
  -23.9090  -10.5120   21.0420 C   0  0  0  0  0  0  0  0  0  0  0  0
  -24.3510   -9.5350   21.9610 C   0  0  0  0  0  3  0  0  0  0  0  0
  -23.6310   -8.3330   22.1320 C   0  0  0  0  0  3  0  0  0  0  0  0
  -22.4530   -8.0980   21.3830 C   0  0  0  0  0  0  0  0  0  0  0  0
  -22.0300   -9.0620   20.4520 C   0  0  0  0  0  3  0  0  0  0  0  0
  -22.7500  -10.2560   20.2810 C   0  0  0  0  0  3  0  0  0  0  0  0
  -21.7050   -6.9480   21.4630 O   0  0  0  0  0  0  0  0  0  0  0  0
  -21.6430   -6.2080   22.6170 C   0  0  0  0  0  0  0  0  0  0  0  0
  -21.1640   -6.7530   23.8270 C   0  0  0  0  0  3  0  0  0  0  0  0
  -21.0510   -5.9380   24.9710 C   0  0  0  0  0  3  0  0  0  0  0  0
  -21.4080   -4.5790   24.9050 C   0  0  0  0  0  0  0  0  0  0  0  0
  -21.8810   -4.0320   23.6990 C   0  0  0  0  0  3  0  0  0  0  0  0
  -21.9940   -4.8440   22.5580 C   0  0  0  0  0  0  0  0  0  0  0  0
  -22.4300   -4.3070   21.3930 F   0  0  0  0  0  0  0  0  0  0  0  0
  -21.2940   -3.7930   26.0020 F   0  0  0  0  0  0  0  0  0  0  0  0
  -22.7590  -13.5910   21.2600 C   0  0  0  0  0  0  0  0  0  0  0  0
  -22.0600  -12.8740   22.1320 N   0  0  0  0  0  0  0  0  0  0  0  0
  -22.3020  -14.6230   20.7700 O   0  0  0  0  0  0  0  0  0  0  0  0
  -22.4440  -12.0390   22.5500 H   0  0  0  0  0  0  0  0  0  0  0  0
  -21.1270  -13.1660   22.3900 H   0  0  0  0  0  0  0  0  0  0  0  0
  -25.3440  -15.2990   20.4170 N   0  0  0  0  0  0  0  0  0  0  0  0
  -24.5800  -15.9450   20.5780 H   0  0  0  0  0  0  0  0  0  0  0  0
  -26.1850  -15.7540   20.0850 H   0  0  0  0  0  0  0  0  0  0  0  0
  -27.8590  -23.9820   20.2220 C   0  0  0  0  0  2  0  0  0  0  0  0
  -28.1430  -25.6830   20.2920 O   0  0  0  0  0  0  0  0  0  0  0  0
  -24.6550  -31.8980   23.2160 C   0  0  0  0  0  0  0  0  0  0  0  0
  -27.1640  -26.8630   20.2390 C   0  0  0  0  0  0  0  0  0  0  0  0
  -23.4530  -30.4960   21.5940 C   0  0  0  0  0  3  0  0  0  0  0  0
  -24.8890  -28.8490   20.1820 C   0  0  0  0  0  0  0  0  0  0  0  0
  -26.0280  -30.6540   21.4490 C   0  0  0  0  0  2  0  0  0  0  0  0
  -26.0880  -29.2250   20.8020 C   0  0  0  0  0  0  0  0  0  0  0  0
  -27.2140  -28.2580   20.7990 C   0  0  0  0  0  3  0  0  0  0  0  0
  -25.9320  -26.6770   19.5670 C   0  0  0  0  0  3  0  0  0  0  0  0
  -24.8460  -27.5990   19.5410 C   0  0  0  0  0  3  0  0  0  0  0  0
  -23.6810  -29.7940   20.2250 C   0  0  0  0  0  2  0  0  0  0  0  0
  -24.7350  -31.0470   22.1390 N   0  0  0  0  0  0  0  0  0  0  0  0
  -23.5670  -32.2010   23.7340 O   0  0  0  0  0  0  0  0  0  0  0  0
  -22.7470  -29.5200   22.5740 C   0  0  0  0  0  0  0  0  0  0  0  0
  -21.4150  -29.3580   22.4500 N   0  0  0  0  0  0  0  0  0  0  0  0
  -23.4060  -28.9070   23.4170 O   0  0  0  0  0  0  0  0  0  0  0  0
  -20.9330  -29.9030   21.7500 H   0  0  0  0  0  0  0  0  0  0  0  0
  -18.0330  -28.1380   22.9690 C   0  0  0  0  0  0  0  0  0  0  0  0
  -20.5920  -28.4280   23.2330 C   0  0  0  0  0  3  0  0  0  0  0  0
  -20.7020  -26.9870   22.6790 C   0  0  0  0  0  2  0  0  0  0  0  0
  -19.6060  -26.6440   21.6670 C   0  0  0  0  0  2  0  0  0  0  0  0
  -18.2220  -26.7840   22.3060 C   0  0  0  0  0  2  0  0  0  0  0  0
  -19.1450  -28.9160   23.3890 C   0  0  0  0  0  0  0  0  0  0  0  0
  -18.9110  -30.1800   23.9740 C   0  0  0  0  0  3  0  0  0  0  0  0
  -17.6010  -30.6670   24.1390 C   0  0  0  0  0  3  0  0  0  0  0  0
  -16.5050  -29.8870   23.7320 C   0  0  0  0  0  3  0  0  0  0  0  0
  -16.7210  -28.6240   23.1530 C   0  0  0  0  0  3  0  0  0  0  0  0
  -25.9270  -32.5470   23.8440 C   0  0  0  0  0  3  0  0  0  0  0  0
  -26.4310  -31.7930   25.1380 C   0  0  1  0  0  0  0  0  0  0  0  0
  -25.3290  -31.5760   26.2020 C   0  0  0  0  0  1  0  0  0  0  0  0
  -27.0110  -30.4070   24.7810 C   0  0  0  0  0  1  0  0  0  0  0  0
  -27.5810  -32.5920   25.7950 C   0  0  0  0  0  1  0  0  0  0  0  0
  -25.6090  -33.9500   24.1740 N   0  0  0  0  0  0  0  0  0  0  0  0
  -25.9150  -35.0100   23.4120 C   0  0  0  0  0  0  0  0  0  0  0  0
  -26.5510  -34.9090   22.3610 O   0  0  0  0  0  0  0  0  0  0  0  0
  -25.0390  -34.1010   24.9930 H   0  0  0  0  0  0  0  0  0  0  0  0
  -24.1610  -36.7990   23.1410 C   0  0  0  0  0  1  0  0  0  0  0  0
  -25.4430  -36.4000   23.8900 C   0  0  0  0  0  3  0  0  0  0  0  0
  -27.6060  -37.3120   24.6160 C   0  0  0  0  0  1  0  0  0  0  0  0
  -26.4620  -37.4600   23.7200 N   0  0  0  0  0  0  0  0  0  0  0  0
  -26.0550  -38.3790   23.8760 H   0  0  0  0  0  0  0  0  0  0  0  0
  1  2  2  0
  1  3  1  0
  5  3  1  0
  5  6  1  0
  5  4  1  0
  7  6  1  0
  8 13  1  0
  9 10  1  0
  9  8  1  0
 11 10  1  0
 11 18  1  0
 11 12  1  0
 13  7  1  0
 13 12  1  0
 14  7  2  0
 15 16  2  0
 16 35  1  0
 17 16  1  0
 17 20  1  0
 18 19  1  0
 18 15  1  0
 19 17  2  0
 20 21  1  0
 21 22  2  0
 23 26  1  0
 23 22  1  0
 24 23  2  0
 25 24  1  0
 25 20  2  0
 26 27  1  0
 27 28  1  0
 28 29  2  0
 30 29  1  0
 30 34  1  0
 31 30  2  0
 32 27  2  0
 32 31  1  0
 33 32  1  0
 35 36  1  0
 36 39  1  0
 36 38  1  0
 37 35  2  0
 40 15  1  0
 40 41  1  0
 42 40  1  0
 43 44  1  0
 43  1  1  0
 45 56  2  0
 46 44  1  0
 46 51  1  0
 47 55  1  0
 47 57  1  0
 48 54  1  0
 48 50  1  0
 49 55  1  0
 50 49  1  0
 51 50  2  0
 52 46  2  0
 53 52  1  0
 53 48  2  0
 54 47  1  0
 55 45  1  0
 57 59  2  0
 58 57  1  0
 60 58  1  0
 61 70  2  0
 61 66  1  0
 62 58  1  0
 62 66  1  0
 63 62  1  0
 64 65  1  0
 64 63  1  0
 65 61  1  0
 66 67  2  0
 67 68  1  0
 69 68  2  0
 70 69  1  0
 71 45  1  0
 71 76  1  0
 71 72  1  0
 72 75  1  1
 72 73  1  0
 74 72  1  0
 76 79  1  0
 77 81  1  0
 77 76  1  0
 78 77  2  0
 81 80  1  0
 83 84  1  0
 83 81  1  0
 83 82  1  0
M  ISO  4   6 100   7 100  43 101  44 101
M  END
>  <TORSDO>  (34) 
F 20

>  <SCORE>  (34) 
-16.526

>  <name>  (34) 
33

>  <ligand_id>  (34) 
33

>  <original_smiles>  (34) 
[H]c1c([H])c([H])c2c(c1[H])C([H])([H])C([H])([H])C([H])([H])C2([H])N([H])C(=O)C1([H])N(C(=O)C([H])(N([H])C(=O)C([H])(N([H])C([H])([H])[H])C([H])([H])[H])C(C([H])([H])[H])(C([H])([H])[H])C([H])([H])[H])C([H])([H])c2c([H])c(OC([H])([H])C(=O)C([H])([H])C([H])(C([H])([H])[H])C([H])([H])C(=O)N3C([H])([H])C([H])([H])C([H])([H])C([H])(n4nc(-c5c([H])c([H])c(Oc6c([H])c([H])c(F)c([H])c6F)c([H])c5[H])c(C(=O)N([H])[H])c4N([H])[H])C3([H])[H])c([H])c([H])c2C1([H])[H]

>  <smiles>  (34) 
[H]c1c([H])c([H])c2c(c1[H])C([H])([H])C([H])([H])C([H])([H])C2([H])N([H])C(=O)C1([H])N(C(=O)C([H])(N([H])C(=O)C([H])(N([H])C([H])([H])[H])C([H])([H])[H])C(C([H])([H])[H])(C([H])([H])[H])C([H])([H])[H])C([H])([H])c2c([H])c(OC([H])([H])C(=O)C([H])([H])C([H])(C([H])([H])[H])C([H])([H])C(=O)N3C([H])([H])C([H])([H])C([H])([H])C([H])(n4nc(-c5c([H])c([H])c(Oc6c([H])c([H])c(F)c([H])c6F)c([H])c5[H])c(C(=O)N([H])[H])c4N([H])[H])C3([H])[H])c([H])c([H])c2C1([H])[H]

$$$$
34:0:0
     RDKit          3D

 84 91  0  0  1  0  0  0  0  0999 V2000
  -28.9370  -22.1810   20.2950 C   0  0  0  0  0  3  0  0  0  0  0  0
  -28.6680  -20.2640   20.3240 C   0  0  0  0  0  2  0  0  0  0  0  0
  -29.4160  -17.1540   20.2910 C   0  0  0  0  0  3  0  0  0  0  0  0
  -29.6260  -18.6790   20.2290 C   0  0  0  0  0  0  0  0  0  0  0  0
  -30.2670  -15.6700   20.1610 C   0  0  0  0  0  0  0  0  0  0  0  0
  -30.3590  -13.1340   19.3350 C   0  0  0  0  0  2  0  0  0  0  0  0
  -29.4520  -12.7760   18.1210 C   0  0  0  0  0  2  0  0  0  0  0  0
  -28.0300  -12.4210   18.5810 C   0  0  0  0  0  2  0  0  0  0  0  0
  -27.5350  -13.4000   19.6710 C   0  0  0  0  0  3  0  0  0  0  0  0
  -28.5770  -13.6860   20.7740 C   0  0  0  0  0  2  0  0  0  0  0  0
  -29.7590  -14.3000   20.1280 N   0  0  0  0  0  0  0  0  0  0  0  0
  -31.4920  -15.6000   19.9420 O   0  0  0  0  0  0  0  0  0  0  0  0
  -25.1800  -13.8950   20.4780 C   0  0  0  0  0  0  0  0  0  0  0  0
  -24.1360  -13.0990   20.8560 C   0  0  0  0  0  0  0  0  0  0  0  0
  -24.6250  -11.7560   20.8110 C   0  0  0  0  0  0  0  0  0  0  0  0
  -26.2300  -13.0410   20.2090 N   0  0  0  0  0  0  0  0  0  0  0  0
  -25.9140  -11.7460   20.4780 N   0  0  0  0  0  0  0  0  0  0  0  0
  -23.9180  -10.4830   21.0040 C   0  0  0  0  0  0  0  0  0  0  0  0
  -24.3630   -9.5200   21.9380 C   0  0  0  0  0  3  0  0  0  0  0  0
  -23.6490   -8.3160   22.1210 C   0  0  0  0  0  3  0  0  0  0  0  0
  -22.4760   -8.0640   21.3700 C   0  0  0  0  0  0  0  0  0  0  0  0
  -22.0490   -9.0140   20.4270 C   0  0  0  0  0  3  0  0  0  0  0  0
  -22.7630  -10.2110   20.2410 C   0  0  0  0  0  3  0  0  0  0  0  0
  -21.7340   -6.9110   21.4630 O   0  0  0  0  0  0  0  0  0  0  0  0
  -21.6870   -6.1750   22.6210 C   0  0  0  0  0  0  0  0  0  0  0  0
  -21.2290   -6.7290   23.8370 C   0  0  0  0  0  3  0  0  0  0  0  0
  -21.1300   -5.9190   24.9860 C   0  0  0  0  0  3  0  0  0  0  0  0
  -21.4800   -4.5580   24.9200 C   0  0  0  0  0  0  0  0  0  0  0  0
  -21.9300   -4.0030   23.7090 C   0  0  0  0  0  3  0  0  0  0  0  0
  -22.0290   -4.8100   22.5620 C   0  0  0  0  0  0  0  0  0  0  0  0
  -22.4440   -4.2650   21.3930 F   0  0  0  0  0  0  0  0  0  0  0  0
  -21.3770   -3.7770   26.0210 F   0  0  0  0  0  0  0  0  0  0  0  0
  -22.7360  -13.5540   21.1420 C   0  0  0  0  0  0  0  0  0  0  0  0
  -22.0290  -12.8520   22.0190 N   0  0  0  0  0  0  0  0  0  0  0  0
  -22.2790  -14.5720   20.6210 O   0  0  0  0  0  0  0  0  0  0  0  0
  -22.4120  -12.0300   22.4620 H   0  0  0  0  0  0  0  0  0  0  0  0
  -21.0900  -13.1420   22.2530 H   0  0  0  0  0  0  0  0  0  0  0  0
  -25.3180  -15.2700   20.3070 N   0  0  0  0  0  0  0  0  0  0  0  0
  -24.5420  -15.9110   20.4370 H   0  0  0  0  0  0  0  0  0  0  0  0
  -26.1520  -15.7230   19.9570 H   0  0  0  0  0  0  0  0  0  0  0  0
  -30.8830  -19.0910   20.0300 O   0  0  0  0  0  0  0  0  0  0  0  0
  -30.8720  -20.0400   20.0060 H   0  0  0  0  0  0  0  0  0  0  0  0
  -27.9450  -23.8480   20.2530 C   0  0  0  0  0  3  0  0  0  0  0  0
  -28.1420  -25.5910   20.3140 O   0  0  0  0  0  0  0  0  0  0  0  0
  -24.6580  -31.8820   23.2130 C   0  0  0  0  0  0  0  0  0  0  0  0
  -27.1650  -26.7930   20.2570 C   0  0  0  0  0  0  0  0  0  0  0  0
  -23.4620  -30.4790   21.5870 C   0  0  0  0  0  3  0  0  0  0  0  0
  -24.9020  -28.8190   20.1840 C   0  0  0  0  0  0  0  0  0  0  0  0
  -26.0410  -30.6170   21.4600 C   0  0  0  0  0  2  0  0  0  0  0  0
  -26.0990  -29.1810   20.8130 C   0  0  0  0  0  0  0  0  0  0  0  0
  -27.2160  -28.1960   20.8150 C   0  0  0  0  0  3  0  0  0  0  0  0
  -25.9340  -26.6330   19.5730 C   0  0  0  0  0  3  0  0  0  0  0  0
  -24.8580  -27.5700   19.5400 C   0  0  0  0  0  3  0  0  0  0  0  0
  -23.6980  -29.7720   20.2210 C   0  0  0  0  0  2  0  0  0  0  0  0
  -24.7440  -31.0250   22.1390 N   0  0  0  0  0  0  0  0  0  0  0  0
  -23.5670  -32.1890   23.7240 O   0  0  0  0  0  0  0  0  0  0  0  0
  -22.7450  -29.5090   22.5640 C   0  0  0  0  0  0  0  0  0  0  0  0
  -21.4120  -29.3590   22.4420 N   0  0  0  0  0  0  0  0  0  0  0  0
  -23.3990  -28.8880   23.4050 O   0  0  0  0  0  0  0  0  0  0  0  0
  -20.9340  -29.9100   21.7430 H   0  0  0  0  0  0  0  0  0  0  0  0
  -18.0200  -28.1640   22.9620 C   0  0  0  0  0  0  0  0  0  0  0  0
  -20.5820  -28.4320   23.2210 C   0  0  0  0  0  3  0  0  0  0  0  0
  -20.6790  -26.9930   22.6620 C   0  0  0  0  0  2  0  0  0  0  0  0
  -19.5780  -26.6640   21.6490 C   0  0  0  0  0  2  0  0  0  0  0  0
  -18.1960  -26.8120   22.2920 C   0  0  0  0  0  2  0  0  0  0  0  0
  -19.1400  -28.9310   23.3830 C   0  0  0  0  0  0  0  0  0  0  0  0
  -18.9160  -30.1930   23.9760 C   0  0  0  0  0  3  0  0  0  0  0  0
  -17.6100  -30.6890   24.1470 C   0  0  0  0  0  3  0  0  0  0  0  0
  -16.5070  -29.9210   23.7380 C   0  0  0  0  0  3  0  0  0  0  0  0
  -16.7130  -28.6590   23.1520 C   0  0  0  0  0  3  0  0  0  0  0  0
  -25.9250  -32.5300   23.8490 C   0  0  0  0  0  3  0  0  0  0  0  0
  -26.4260  -31.7710   25.1410 C   0  0  1  0  0  0  0  0  0  0  0  0
  -25.3230  -31.5510   26.2020 C   0  0  0  0  0  1  0  0  0  0  0  0
  -27.0070  -30.3870   24.7800 C   0  0  0  0  0  1  0  0  0  0  0  0
  -27.5760  -32.5670   25.8020 C   0  0  0  0  0  1  0  0  0  0  0  0
  -25.6050  -33.9320   24.1860 N   0  0  0  0  0  0  0  0  0  0  0  0
  -25.9130  -34.9970   23.4340 C   0  0  0  0  0  0  0  0  0  0  0  0
  -26.5530  -34.9040   22.3840 O   0  0  0  0  0  0  0  0  0  0  0  0
  -25.0300  -34.0760   25.0030 H   0  0  0  0  0  0  0  0  0  0  0  0
  -24.1570  -36.7870   23.1700 C   0  0  0  0  0  1  0  0  0  0  0  0
  -25.4390  -36.3840   23.9180 C   0  0  0  0  0  3  0  0  0  0  0  0
  -27.6010  -37.2930   24.6510 C   0  0  0  0  0  1  0  0  0  0  0  0
  -26.4560  -37.4470   23.7580 N   0  0  0  0  0  0  0  0  0  0  0  0
  -26.0490  -38.3640   23.9190 H   0  0  0  0  0  0  0  0  0  0  0  0
  1  2  1  0
  4  3  2  0
  4  2  1  0
  5  3  1  0
  6 11  1  0
  7  8  1  0
  7  6  1  0
  9  8  1  0
  9 16  1  0
  9 10  1  0
 11  5  1  0
 11 10  1  0
 12  5  2  0
 13 14  2  0
 14 33  1  0
 15 14  1  0
 15 18  1  0
 16 17  1  0
 16 13  1  0
 17 15  2  0
 18 19  1  0
 19 20  2  0
 21 24  1  0
 21 20  1  0
 22 21  2  0
 23 22  1  0
 23 18  2  0
 24 25  1  0
 25 26  1  0
 26 27  2  0
 28 27  1  0
 28 32  1  0
 29 28  2  0
 30 25  2  0
 30 29  1  0
 31 30  1  0
 33 34  1  0
 34 37  1  0
 34 36  1  0
 35 33  2  0
 38 39  1  0
 38 13  1  0
 40 38  1  0
 41  4  1  0
 42 41  1  0
 43  1  2  0
 43 44  1  0
 45 56  2  0
 46 44  1  0
 46 51  1  0
 47 55  1  0
 47 57  1  0
 48 54  1  0
 48 50  1  0
 49 55  1  0
 50 51  2  0
 50 49  1  0
 52 46  2  0
 53 52  1  0
 53 48  2  0
 54 47  1  0
 55 45  1  0
 57 59  2  0
 58 57  1  0
 60 58  1  0
 61 70  2  0
 61 66  1  0
 62 58  1  0
 62 66  1  0
 63 62  1  0
 64 65  1  0
 64 63  1  0
 65 61  1  0
 66 67  2  0
 67 68  1  0
 69 68  2  0
 70 69  1  0
 71 45  1  0
 71 76  1  0
 71 72  1  0
 72 75  1  1
 72 73  1  0
 74 72  1  0
 76 79  1  0
 77 81  1  0
 77 76  1  0
 78 77  2  0
 81 80  1  0
 83 81  1  0
 83 84  1  0
 83 82  1  0
M  ISO  4   3 100   5 100  43 101  44 101
M  END
>  <TORSDO>  (35) 
F 20

>  <SCORE>  (35) 
-16.153

>  <name>  (35) 
34

>  <ligand_id>  (35) 
34

>  <original_smiles>  (35) 
[H]OC(=C([H])C(=O)N1C([H])([H])C([H])([H])C([H])([H])C([H])(n2nc(-c3c([H])c([H])c(Oc4c([H])c([H])c(F)c([H])c4F)c([H])c3[H])c(C(=O)N([H])[H])c2N([H])[H])C1([H])[H])C([H])([H])C([H])([H])C([H])([H])Oc1c([H])c([H])c2c(c1[H])C([H])([H])N(C(=O)C([H])(N([H])C(=O)C([H])(N([H])C([H])([H])[H])C([H])([H])[H])C(C([H])([H])[H])(C([H])([H])[H])C([H])([H])[H])C([H])(C(=O)N([H])C1([H])c3c([H])c([H])c([H])c([H])c3C([H])([H])C([H])([H])C1([H])[H])C2([H])[H]

>  <smiles>  (35) 
[H]OC(=C([H])C(=O)N1C([H])([H])C([H])([H])C([H])([H])C([H])(n2nc(-c3c([H])c([H])c(Oc4c([H])c([H])c(F)c([H])c4F)c([H])c3[H])c(C(=O)N([H])[H])c2N([H])[H])C1([H])[H])C([H])([H])C([H])([H])C([H])([H])Oc1c([H])c([H])c2c(c1[H])C([H])([H])N(C(=O)C([H])(N([H])C(=O)C([H])(N([H])C([H])([H])[H])C([H])([H])[H])C(C([H])([H])[H])(C([H])([H])[H])C([H])([H])[H])C([H])(C(=O)N([H])C1([H])c3c([H])c([H])c([H])c([H])c3C([H])([H])C([H])([H])C1([H])[H])C2([H])[H]

$$$$
35:0:0
     RDKit          3D

 98106  0  0  1  0  0  0  0  0999 V2000
  -31.3270  -19.8280   20.9260 C   0  0  0  0  0  3  0  0  0  0  0  0
  -31.0830  -21.7500   24.8470 C   0  0  0  0  0  3  0  0  0  0  0  0
  -29.9230  -21.4690   24.1080 C   0  0  0  0  0  3  0  0  0  0  0  0
  -32.3450  -21.4230   24.3190 C   0  0  0  0  0  3  0  0  0  0  0  0
  -30.0290  -20.8590   22.8440 C   0  0  0  0  0  3  0  0  0  0  0  0
  -32.4650  -20.8120   23.0510 C   0  0  0  0  0  0  0  0  0  0  0  0
  -31.2910  -20.5180   22.2980 C   0  0  0  0  0  0  0  0  0  0  0  0
  -34.0360  -19.0340   22.1280 C   0  0  0  0  0  1  0  0  0  0  0  0
  -33.8720  -20.5000   22.5540 C   0  0  0  0  0  2  0  0  0  0  0  0
  -30.8660  -18.4350   21.1170 N   0  0  0  0  0  4  0  0  0  0  0  0
  -31.1580  -18.1800   22.0460 H   0  0  0  0  0  0  0  0  0  0  0  0
  -29.8590  -18.4250   21.1110 H   0  0  0  0  0  0  0  0  0  0  0  0
  -31.3860  -17.4050   20.1820 C   0  0  0  0  0  2  0  0  0  0  0  0
  -30.7780  -16.0220   20.5110 C   0  0  0  0  0  2  0  0  0  0  0  0
  -31.3920  -14.8200   19.7700 C   0  0  0  0  0  0  0  0  0  0  0  0
  -31.0990  -12.4970   18.9600 C   0  0  0  0  0  2  0  0  0  0  0  0
  -30.1030  -12.4630   17.7830 C   0  0  0  0  0  2  0  0  0  0  0  0
  -28.6470  -12.3890   18.2880 C   0  0  0  0  0  2  0  0  0  0  0  0
  -28.3430  -13.4450   19.3850 C   0  0  0  0  0  3  0  0  0  0  0  0
  -29.4360  -13.4120   20.4760 C   0  0  0  0  0  2  0  0  0  0  0  0
  -30.7380  -13.6290   19.8220 N   0  0  0  0  0  0  0  0  0  0  0  0
  -32.4290  -14.9790   19.1170 O   0  0  0  0  0  0  0  0  0  0  0  0
  -26.0580  -14.2120   20.2980 C   0  0  0  0  0  0  0  0  0  0  0  0
  -24.9570  -13.5110   20.7120 C   0  0  0  0  0  0  0  0  0  0  0  0
  -25.2980  -12.1300   20.5810 C   0  0  0  0  0  0  0  0  0  0  0  0
  -27.0060  -13.2620   19.9490 N   0  0  0  0  0  0  0  0  0  0  0  0
  -26.5540  -12.0020   20.1720 N   0  0  0  0  0  0  0  0  0  0  0  0
  -24.4830  -10.9210   20.7650 C   0  0  0  0  0  0  0  0  0  0  0  0
  -24.8610   -9.9100   21.6760 C   0  0  0  0  0  3  0  0  0  0  0  0
  -24.0520   -8.7660   21.8500 C   0  0  0  0  0  3  0  0  0  0  0  0
  -22.8530   -8.6250   21.1110 C   0  0  0  0  0  0  0  0  0  0  0  0
  -22.4950   -9.6250   20.1900 C   0  0  0  0  0  3  0  0  0  0  0  0
  -23.3020  -10.7610   20.0140 C   0  0  0  0  0  3  0  0  0  0  0  0
  -22.0190   -7.5370   21.1960 O   0  0  0  0  0  0  0  0  0  0  0  0
  -21.9030   -6.8070   22.3510 C   0  0  0  0  0  0  0  0  0  0  0  0
  -21.4590   -7.3890   23.5600 C   0  0  0  0  0  3  0  0  0  0  0  0
  -21.2880   -6.5870   24.7040 C   0  0  0  0  0  3  0  0  0  0  0  0
  -21.5500   -5.2050   24.6430 C   0  0  0  0  0  0  0  0  0  0  0  0
  -21.9860   -4.6230   23.4410 C   0  0  0  0  0  3  0  0  0  0  0  0
  -22.1590   -5.4220   22.2970 C   0  0  0  0  0  0  0  0  0  0  0  0
  -22.5600   -4.8530   21.1340 F   0  0  0  0  0  0  0  0  0  0  0  0
  -21.3780   -4.4330   25.7420 F   0  0  0  0  0  0  0  0  0  0  0  0
  -23.6290  -14.0830   21.1150 C   0  0  0  0  0  0  0  0  0  0  0  0
  -22.9100  -13.4010   22.0000 N   0  0  0  0  0  0  0  0  0  0  0  0
  -23.2420  -15.1680   20.6820 O   0  0  0  0  0  0  0  0  0  0  0  0
  -23.2350  -12.5210   22.3700 H   0  0  0  0  0  0  0  0  0  0  0  0
  -22.0200  -13.7650   22.3110 H   0  0  0  0  0  0  0  0  0  0  0  0
  -26.3260  -15.5720   20.1730 N   0  0  0  0  0  0  0  0  0  0  0  0
  -25.6220  -16.2790   20.3580 H   0  0  0  0  0  0  0  0  0  0  0  0
  -27.1730  -15.9540   19.7740 H   0  0  0  0  0  0  0  0  0  0  0  0
  -30.5050  -20.5890   19.8520 C   0  0  0  0  0  2  0  0  0  0  0  0
  -30.8440  -22.0940   19.7440 C   0  0  0  0  0  2  0  0  0  0  0  0
  -30.0090  -22.8240   18.6770 C   0  0  0  0  0  2  0  0  0  0  0  0
  -30.1880  -24.3520   18.7120 C   0  0  0  0  0  2  0  0  0  0  0  0
  -29.4710  -25.0370   17.5380 C   0  0  0  0  0  2  0  0  0  0  0  0
  -29.5500  -26.5780   17.5320 C   0  0  0  0  0  2  0  0  0  0  0  0
  -28.6650  -27.2990   18.5670 C   0  0  0  0  0  2  0  0  0  0  0  0
  -27.3140  -26.9260   18.3280 O   0  0  0  0  0  0  0  0  0  0  0  0
  -24.4080  -31.5780   22.9680 C   0  0  0  0  0  0  0  0  0  0  0  0
  -26.2680  -27.7100   18.7650 C   0  0  0  0  0  0  0  0  0  0  0  0
  -22.8690  -30.5340   21.3330 C   0  0  0  0  0  3  0  0  0  0  0  0
  -23.9830  -29.2300   19.4460 C   0  0  0  0  0  0  0  0  0  0  0  0
  -25.3430  -30.8480   20.7800 C   0  0  0  0  0  2  0  0  0  0  0  0
  -25.2450  -29.6080   19.9200 C   0  0  0  0  0  0  0  0  0  0  0  0
  -26.3900  -28.8500   19.5950 C   0  0  0  0  0  3  0  0  0  0  0  0
  -24.9890  -27.3360   18.3060 C   0  0  0  0  0  3  0  0  0  0  0  0
  -23.8460  -28.0850   18.6420 C   0  0  0  0  0  3  0  0  0  0  0  0
  -22.8140  -30.1040   19.8420 C   0  0  0  0  0  2  0  0  0  0  0  0
  -24.2340  -30.9890   21.7510 N   0  0  0  0  0  0  0  0  0  0  0  0
  -23.4480  -31.7840   23.7210 O   0  0  0  0  0  0  0  0  0  0  0  0
  -22.3190  -29.3790   22.1990 C   0  0  0  0  0  0  0  0  0  0  0  0
  -20.9880  -29.1950   22.1730 N   0  0  0  0  0  0  0  0  0  0  0  0
  -23.0800  -28.6570   22.8490 O   0  0  0  0  0  0  0  0  0  0  0  0
  -20.4330  -29.8350   21.6210 H   0  0  0  0  0  0  0  0  0  0  0  0
  -17.6950  -27.8110   22.6990 C   0  0  0  0  0  0  0  0  0  0  0  0
  -20.2520  -28.1470   22.8770 C   0  0  0  0  0  3  0  0  0  0  0  0
  -20.3790  -26.7900   22.1480 C   0  0  0  0  0  2  0  0  0  0  0  0
  -19.2400  -26.5270   21.1580 C   0  0  0  0  0  2  0  0  0  0  0  0
  -17.8880  -26.5460   21.8780 C   0  0  0  0  0  2  0  0  0  0  0  0
  -18.8040  -28.5710   23.1550 C   0  0  0  0  0  0  0  0  0  0  0  0
  -18.5690  -29.7570   23.8840 C   0  0  0  0  0  3  0  0  0  0  0  0
  -17.2570  -30.1830   24.1610 C   0  0  0  0  0  3  0  0  0  0  0  0
  -16.1620  -29.4180   23.7220 C   0  0  0  0  0  3  0  0  0  0  0  0
  -16.3830  -28.2330   22.9970 C   0  0  0  0  0  3  0  0  0  0  0  0
  -25.8170  -32.0400   23.4590 C   0  0  0  0  0  3  0  0  0  0  0  0
  -25.6670  -33.3870   24.0240 N   0  0  0  0  0  0  0  0  0  0  0  0
  -25.9990  -34.5190   23.3860 C   0  0  0  0  0  0  0  0  0  0  0  0
  -26.5380  -34.5290   22.2760 O   0  0  0  0  0  0  0  0  0  0  0  0
  -25.1840  -33.4560   24.9070 H   0  0  0  0  0  0  0  0  0  0  0  0
  -24.4110  -36.4640   23.4880 C   0  0  0  0  0  1  0  0  0  0  0  0
  -25.6820  -35.8490   24.0950 C   0  0  0  0  0  3  0  0  0  0  0  0
  -27.9490  -36.4410   24.8270 C   0  0  0  0  0  1  0  0  0  0  0  0
  -26.7900  -36.8280   24.0290 N   0  0  0  0  0  0  0  0  0  0  0  0
  -26.4800  -37.7420   24.3440 H   0  0  0  0  0  0  0  0  0  0  0  0
  -26.4600  -31.0590   24.5140 C   0  0  1  0  0  0  0  0  0  0  0  0
  -25.5260  -30.7240   25.6990 C   0  0  0  0  0  1  0  0  0  0  0  0
  -26.8690  -29.7280   23.8410 C   0  0  0  0  0  1  0  0  0  0  0  0
  -27.7540  -31.6820   25.0870 C   0  0  0  0  0  1  0  0  0  0  0  0
  1 51  1  0
  1 10  1  0
  1  7  1  0
  3  2  2  0
  4  2  1  0
  5  3  1  0
  6  4  2  0
  7  5  2  0
  7  6  1  0
  8  9  1  0
  9  6  1  0
 10 11  1  0
 12 10  1  0
 13 14  1  0
 13 10  1  0
 15 21  1  0
 15 14  1  0
 16 21  1  0
 17 18  1  0
 17 16  1  0
 19 18  1  0
 19 26  1  0
 19 20  1  0
 21 20  1  0
 22 15  2  0
 23 24  2  0
 24 43  1  0
 25 24  1  0
 25 28  1  0
 26 27  1  0
 26 23  1  0
 27 25  2  0
 28 29  1  0
 29 30  2  0
 31 34  1  0
 31 30  1  0
 32 31  2  0
 33 32  1  0
 33 28  2  0
 34 35  1  0
 35 36  1  0
 36 37  2  0
 38 37  1  0
 38 42  1  0
 39 38  2  0
 40 35  2  0
 40 39  1  0
 41 40  1  0
 43 44  1  0
 44 47  1  0
 44 46  1  0
 45 43  2  0
 48 23  1  0
 48 49  1  0
 50 48  1  0
 52 51  1  0
 53 54  1  0
 53 52  1  0
 55 54  1  0
 56 55  1  0
 56 57  1  0
 58 57  1  0
 58 60  1  0
 59 70  2  0
 60 65  1  0
 61 69  1  0
 61 71  1  0
 62 68  1  0
 62 64  1  0
 63 69  1  0
 64 63  1  0
 65 64  2  0
 66 67  1  0
 66 60  2  0
 67 62  2  0
 68 61  1  0
 69 59  1  0
 71 73  2  0
 72 71  1  0
 74 72  1  0
 75 84  2  0
 75 80  1  0
 76 72  1  0
 76 80  1  0
 77 76  1  0
 78 79  1  0
 78 77  1  0
 79 75  1  0
 80 81  2  0
 81 82  1  0
 83 82  2  0
 84 83  1  0
 85 59  1  0
 85 86  1  0
 85 95  1  0
 86 89  1  0
 87 86  1  0
 87 91  1  0
 88 87  2  0
 91 90  1  0
 93 91  1  0
 93 94  1  0
 93 92  1  0
 95 98  1  1
 95 96  1  0
 97 95  1  0
M  ISO  4  14 100  15 100  57 101  58 101
M  END
>  <TORSDO>  (36) 
F 28

>  <SCORE>  (36) 
-9.391

>  <name>  (36) 
35

>  <ligand_id>  (36) 
35

>  <original_smiles>  (36) 
[H]c1c([H])c([H])c(C([H])(C([H])([H])C([H])([H])C([H])([H])C([H])([H])C([H])([H])C([H])([H])C([H])([H])Oc2c([H])c([H])c3c(c2[H])C([H])([H])N(C(=O)C([H])(N([H])C(=O)C([H])(N([H])C([H])([H])[H])C([H])([H])[H])C(C([H])([H])[H])(C([H])([H])[H])C([H])([H])[H])C([H])(C(=O)N([H])C2([H])c4c([H])c([H])c([H])c([H])c4C([H])([H])C([H])([H])C2([H])[H])C3([H])[H])[N+]([H])([H])C([H])([H])C([H])([H])C(=O)N2C([H])([H])C([H])([H])C([H])([H])C([H])(n3nc(-c4c([H])c([H])c(Oc5c([H])c([H])c(F)c([H])c5F)c([H])c4[H])c(C(=O)N([H])[H])c3N([H])[H])C2([H])[H])c(C([H])([H])C([H])([H])[H])c1[H]

>  <smiles>  (36) 
[H]c1c([H])c([H])c(C([H])(C([H])([H])C([H])([H])C([H])([H])C([H])([H])C([H])([H])C([H])([H])C([H])([H])Oc2c([H])c([H])c3c(c2[H])C([H])([H])N(C(=O)C([H])(N([H])C(=O)C([H])(N([H])C([H])([H])[H])C([H])([H])[H])C(C([H])([H])[H])(C([H])([H])[H])C([H])([H])[H])C([H])(C(=O)N([H])C2([H])c4c([H])c([H])c([H])c([H])c4C([H])([H])C([H])([H])C2([H])[H])C3([H])[H])[N+]([H])([H])C([H])([H])C([H])([H])C(=O)N2C([H])([H])C([H])([H])C([H])([H])C([H])(n3nc(-c4c([H])c([H])c(Oc5c([H])c([H])c(F)c([H])c5F)c([H])c4[H])c(C(=O)N([H])[H])c3N([H])[H])C2([H])[H])c(C([H])([H])C([H])([H])[H])c1[H]

$$$$
36:0:0
     RDKit          3D

 88 95  0  0  1  0  0  0  0  0999 V2000
  -29.5770  -21.1830   20.2080 C   0  0  0  0  0  3  0  0  0  0  0  0
  -28.8660  -22.4820   20.8210 C   0  0  0  0  0  3  0  0  0  0  0  0
  -29.0480  -23.9290   20.1430 C   0  0  0  0  0  3  0  0  0  0  0  0
  -28.0340  -25.0900   20.5800 C   0  0  0  0  0  3  0  0  0  0  0  0
  -28.2400  -26.5000   20.1410 O   0  0  0  0  0  0  0  0  0  0  0  0
  -24.5260  -31.8990   23.2110 C   0  0  0  0  0  0  0  0  0  0  0  0
  -27.1230  -27.3550   20.1220 C   0  0  0  0  0  0  0  0  0  0  0  0
  -23.3090  -30.5000   21.5780 C   0  0  0  0  0  3  0  0  0  0  0  0
  -24.7510  -28.9600   20.1310 C   0  0  0  0  0  0  0  0  0  0  0  0
  -25.8460  -30.8270   21.3730 C   0  0  0  0  0  2  0  0  0  0  0  0
  -25.9220  -29.4500   20.7220 C   0  0  0  0  0  0  0  0  0  0  0  0
  -27.1120  -28.6600   20.7050 C   0  0  0  0  0  3  0  0  0  0  0  0
  -25.9370  -26.9300   19.4830 C   0  0  0  0  0  3  0  0  0  0  0  0
  -24.7620  -27.7080   19.4960 C   0  0  0  0  0  3  0  0  0  0  0  0
  -23.5120  -29.8300   20.1910 C   0  0  0  0  0  2  0  0  0  0  0  0
  -24.5790  -31.0940   22.1100 N   0  0  0  0  0  0  0  0  0  0  0  0
  -23.4470  -32.1700   23.7590 O   0  0  0  0  0  0  0  0  0  0  0  0
  -22.6620  -29.4770   22.5440 C   0  0  0  0  0  0  0  0  0  0  0  0
  -21.3370  -29.2870   22.4300 N   0  0  0  0  0  0  0  0  0  0  0  0
  -23.3530  -28.8570   23.3570 O   0  0  0  0  0  0  0  0  0  0  0  0
  -20.8370  -29.8440   21.7520 H   0  0  0  0  0  0  0  0  0  0  0  0
  -17.9760  -28.0570   22.9520 C   0  0  0  0  0  0  0  0  0  0  0  0
  -20.5320  -28.3420   23.2070 C   0  0  0  0  0  3  0  0  0  0  0  0
  -20.6430  -26.9080   22.6440 C   0  0  0  0  0  2  0  0  0  0  0  0
  -19.5410  -26.5690   21.6340 C   0  0  0  0  0  2  0  0  0  0  0  0
  -18.1620  -26.7050   22.2810 C   0  0  0  0  0  2  0  0  0  0  0  0
  -19.0890  -28.8320   23.3730 C   0  0  0  0  0  0  0  0  0  0  0  0
  -18.8610  -30.0950   23.9610 C   0  0  0  0  0  3  0  0  0  0  0  0
  -17.5510  -30.5840   24.1330 C   0  0  0  0  0  3  0  0  0  0  0  0
  -16.4530  -29.8050   23.7280 C   0  0  0  0  0  3  0  0  0  0  0  0
  -16.6660  -28.5440   23.1440 C   0  0  0  0  0  3  0  0  0  0  0  0
  -25.8130  -32.5380   23.8140 C   0  0  0  0  0  3  0  0  0  0  0  0
  -25.4960  -33.9320   24.1580 N   0  0  0  0  0  0  0  0  0  0  0  0
  -25.8010  -34.9930   23.4000 C   0  0  0  0  0  0  0  0  0  0  0  0
  -26.4510  -34.9040   22.3550 O   0  0  0  0  0  0  0  0  0  0  0  0
  -24.9190  -34.0730   24.9750 H   0  0  0  0  0  0  0  0  0  0  0  0
  -24.0480  -36.7730   23.0950 C   0  0  0  0  0  1  0  0  0  0  0  0
  -25.3090  -36.3740   23.8780 C   0  0  0  0  0  3  0  0  0  0  0  0
  -27.4540  -37.2740   24.6670 C   0  0  0  0  0  1  0  0  0  0  0  0
  -26.3280  -37.4380   23.7520 N   0  0  0  0  0  0  0  0  0  0  0  0
  -25.9140  -38.3520   23.9160 H   0  0  0  0  0  0  0  0  0  0  0  0
  -26.3550  -31.7640   25.0800 C   0  0  1  0  0  0  0  0  0  0  0  0
  -25.2840  -31.5170   26.1670 C   0  0  0  0  0  1  0  0  0  0  0  0
  -26.9410  -30.3900   24.6770 C   0  0  0  0  0  1  0  0  0  0  0  0
  -27.5110  -32.5630   25.7270 C   0  0  0  0  0  1  0  0  0  0  0  0
  -29.5660  -19.8130   21.0430 C   0  0  0  0  0  3  0  0  0  0  0  0
  -29.6890  -18.3960   20.3060 C   0  0  0  0  0  3  0  0  0  0  0  0
  -29.8370  -17.0950   21.2270 C   0  0  0  0  0  3  0  0  0  0  0  0
  -30.2840  -14.7120   20.1410 C   0  0  0  0  0  0  0  0  0  0  0  0
  -30.0240  -12.5440   18.9290 C   0  0  0  0  0  2  0  0  0  0  0  0
  -28.9980  -12.6930   17.7830 C   0  0  0  0  0  2  0  0  0  0  0  0
  -27.5630  -12.4780   18.3060 C   0  0  0  0  0  2  0  0  0  0  0  0
  -27.2680  -13.2840   19.5980 C   0  0  0  0  0  3  0  0  0  0  0  0
  -28.3990  -13.0950   20.6320 C   0  0  0  0  0  2  0  0  0  0  0  0
  -29.6550  -13.5010   19.9880 N   0  0  0  0  0  0  0  0  0  0  0  0
  -31.4240  -14.8980   19.7080 O   0  0  0  0  0  0  0  0  0  0  0  0
  -29.5250  -15.7310   20.6570 N   0  0  0  0  0  0  0  0  0  0  0  0
  -28.5700  -15.4470   20.8180 H   0  0  0  0  0  0  0  0  0  0  0  0
  -24.9030  -13.7960   20.4680 C   0  0  0  0  0  0  0  0  0  0  0  0
  -23.8830  -12.9830   20.8840 C   0  0  0  0  0  0  0  0  0  0  0  0
  -24.3860  -11.6480   20.8050 C   0  0  0  0  0  0  0  0  0  0  0  0
  -25.9600  -12.9540   20.1570 N   0  0  0  0  0  0  0  0  0  0  0  0
  -25.6570  -11.6580   20.4200 N   0  0  0  0  0  0  0  0  0  0  0  0
  -23.7140  -10.3580   21.0140 C   0  0  0  0  0  0  0  0  0  0  0  0
  -24.2200   -9.4020   21.9210 C   0  0  0  0  0  3  0  0  0  0  0  0
  -23.5480   -8.1760   22.1170 C   0  0  0  0  0  3  0  0  0  0  0  0
  -22.3550   -7.8990   21.4050 C   0  0  0  0  0  0  0  0  0  0  0  0
  -21.8700   -8.8450   20.4860 C   0  0  0  0  0  3  0  0  0  0  0  0
  -22.5450  -10.0610   20.2880 C   0  0  0  0  0  3  0  0  0  0  0  0
  -21.6490   -6.7250   21.5120 O   0  0  0  0  0  0  0  0  0  0  0  0
  -21.6590   -5.9820   22.6640 C   0  0  0  0  0  0  0  0  0  0  0  0
  -21.2550   -6.5230   23.9050 C   0  0  0  0  0  3  0  0  0  0  0  0
  -21.2150   -5.7030   25.0500 C   0  0  0  0  0  3  0  0  0  0  0  0
  -21.5710   -4.3440   24.9580 C   0  0  0  0  0  0  0  0  0  0  0  0
  -21.9700   -3.8040   23.7220 C   0  0  0  0  0  3  0  0  0  0  0  0
  -22.0110   -4.6200   22.5800 C   0  0  0  0  0  0  0  0  0  0  0  0
  -22.3780   -4.0900   21.3870 F   0  0  0  0  0  0  0  0  0  0  0  0
  -21.5250   -3.5550   26.0570 F   0  0  0  0  0  0  0  0  0  0  0  0
  -22.4880  -13.4070   21.2410 C   0  0  0  0  0  0  0  0  0  0  0  0
  -21.8350  -12.6790   22.1420 N   0  0  0  0  0  0  0  0  0  0  0  0
  -21.9850  -14.4200   20.7570 O   0  0  0  0  0  0  0  0  0  0  0  0
  -22.2570  -11.8650   22.5640 H   0  0  0  0  0  0  0  0  0  0  0  0
  -20.9000  -12.9450   22.4190 H   0  0  0  0  0  0  0  0  0  0  0  0
  -25.0150  -15.1740   20.3080 N   0  0  0  0  0  0  0  0  0  0  0  0
  -24.2440  -15.8070   20.4890 H   0  0  0  0  0  0  0  0  0  0  0  0
  -25.8340  -15.6480   19.9520 H   0  0  0  0  0  0  0  0  0  0  0  0
  -31.2630  -17.1860   23.3270 C   0  0  0  0  0  2  0  0  0  0  0  0
  -31.1540  -17.0860   21.9920 C   0  0  0  0  0  3  0  0  0  0  0  0
  1  2  2  0
  1 46  1  0
  3  4  2  0
  3  2  1  0
  5  4  1  0
  6 17  2  0
  7  5  1  0
  7 12  1  0
  8 16  1  0
  8 18  1  0
  9 15  1  0
  9 11  1  0
 10 16  1  0
 11 10  1  0
 12 11  2  0
 13 14  1  0
 13  7  2  0
 14  9  2  0
 15  8  1  0
 16  6  1  0
 18 20  2  0
 19 18  1  0
 21 19  1  0
 22 31  2  0
 22 27  1  0
 23 19  1  0
 23 27  1  0
 24 23  1  0
 25 26  1  0
 25 24  1  0
 26 22  1  0
 27 28  2  0
 28 29  1  0
 30 29  2  0
 31 30  1  0
 32  6  1  0
 32 33  1  0
 32 42  1  0
 33 36  1  0
 34 38  1  0
 34 33  1  0
 35 34  2  0
 38 37  1  0
 40 38  1  0
 40 41  1  0
 40 39  1  0
 42 45  1  1
 42 43  1  0
 44 42  1  0
 47 46  2  0
 48 47  1  0
 48 88  1  0
 49 57  1  0
 50 55  1  0
 51 52  1  0
 51 50  1  0
 53 52  1  0
 53 62  1  0
 53 54  1  0
 55 49  1  0
 55 54  1  0
 56 49  2  0
 57 58  1  0
 57 48  1  0
 59 60  2  0
 60 79  1  0
 61 60  1  0
 61 64  1  0
 62 63  1  0
 62 59  1  0
 63 61  2  0
 64 65  1  0
 65 66  2  0
 67 70  1  0
 67 66  1  0
 68 67  2  0
 69 68  1  0
 69 64  2  0
 70 71  1  0
 71 72  1  0
 72 73  2  0
 74 73  1  0
 74 78  1  0
 75 74  2  0
 76 71  2  0
 76 75  1  0
 77 76  1  0
 79 80  1  0
 80 83  1  0
 80 82  1  0
 81 79  2  0
 84 59  1  0
 84 85  1  0
 86 84  1  0
 88 87  2  0
M  ISO  4   4 101   5 101  49 100  57 100
M  END
>  <TORSDO>  (37) 
F 23

>  <SCORE>  (37) 
-11.599

>  <name>  (37) 
36

>  <ligand_id>  (37) 
36

>  <original_smiles>  (37) 
[H]C([H])=C([H])C([H])(N([H])C(=O)N1C([H])([H])C([H])([H])C([H])([H])C([H])(n2nc(-c3c([H])c([H])c(Oc4c([H])c([H])c(F)c([H])c4F)c([H])c3[H])c(C(=O)N([H])[H])c2N([H])[H])C1([H])[H])C([H])([H])C([H])([H])C([H])([H])C([H])([H])C([H])([H])C([H])([H])Oc1c([H])c([H])c2c(c1[H])C([H])([H])N(C(=O)C([H])(N([H])C(=O)C([H])(N([H])C([H])([H])[H])C([H])([H])[H])C(C([H])([H])[H])(C([H])([H])[H])C([H])([H])[H])C([H])(C(=O)N([H])C1([H])c3c([H])c([H])c([H])c([H])c3C([H])([H])C([H])([H])C1([H])[H])C2([H])[H]

>  <smiles>  (37) 
[H]C([H])=C([H])C([H])(N([H])C(=O)N1C([H])([H])C([H])([H])C([H])([H])C([H])(n2nc(-c3c([H])c([H])c(Oc4c([H])c([H])c(F)c([H])c4F)c([H])c3[H])c(C(=O)N([H])[H])c2N([H])[H])C1([H])[H])C([H])([H])C([H])([H])C([H])([H])C([H])([H])C([H])([H])C([H])([H])Oc1c([H])c([H])c2c(c1[H])C([H])([H])N(C(=O)C([H])(N([H])C(=O)C([H])(N([H])C([H])([H])[H])C([H])([H])[H])C(C([H])([H])[H])(C([H])([H])[H])C([H])([H])[H])C([H])(C(=O)N([H])C1([H])c3c([H])c([H])c([H])c([H])c3C([H])([H])C([H])([H])C1([H])[H])C2([H])[H]

$$$$
37:0:0
     RDKit          3D

 90 98  0  0  1  0  0  0  0  0999 V2000
  -29.2940  -21.9510   21.9510 C   0  0  0  0  0  3  0  0  0  0  0  0
  -29.3490  -20.5350   21.8380 C   0  0  0  0  0  3  0  0  0  0  0  0
  -28.8130  -22.1350   19.5960 C   0  0  0  0  0  3  0  0  0  0  0  0
  -29.0060  -22.7910   20.8410 C   0  0  0  0  0  0  0  0  0  0  0  0
  -29.1290  -19.8840   20.6030 C   0  0  0  0  0  0  0  0  0  0  0  0
  -28.8710  -20.7180   19.4800 C   0  0  0  0  0  0  0  0  0  0  0  0
  -28.6240  -20.1530   18.2730 F   0  0  0  0  0  0  0  0  0  0  0  0
  -28.9300  -24.3090   21.0370 C   0  0  0  0  0  0  0  0  0  0  0  0
  -29.2350  -24.8310   22.1160 O   0  0  0  0  0  0  0  0  0  0  0  0
  -28.4280  -25.2440   19.8890 C   0  0  0  0  0  2  0  0  0  0  0  0
  -28.4300  -26.6720   20.2500 O   0  0  0  0  0  0  0  0  0  0  0  0
  -24.6170  -31.9300   23.2840 C   0  0  0  0  0  0  0  0  0  0  0  0
  -27.2640  -27.4380   20.2020 C   0  0  0  0  0  0  0  0  0  0  0  0
  -23.4150  -30.5300   21.6410 C   0  0  0  0  0  3  0  0  0  0  0  0
  -24.8740  -28.9950   20.2120 C   0  0  0  0  0  0  0  0  0  0  0  0
  -25.9480  -30.8750   21.4500 C   0  0  0  0  0  2  0  0  0  0  0  0
  -26.0350  -29.5030   20.8020 C   0  0  0  0  0  0  0  0  0  0  0  0
  -27.2300  -28.7330   20.7930 C   0  0  0  0  0  3  0  0  0  0  0  0
  -26.0760  -26.9740   19.5840 C   0  0  0  0  0  3  0  0  0  0  0  0
  -24.8920  -27.7330   19.5990 C   0  0  0  0  0  3  0  0  0  0  0  0
  -23.6290  -29.8590   20.2590 C   0  0  0  0  0  2  0  0  0  0  0  0
  -24.6790  -31.1280   22.1820 N   0  0  0  0  0  0  0  0  0  0  0  0
  -23.5340  -32.1980   23.8240 O   0  0  0  0  0  0  0  0  0  0  0  0
  -22.7650  -29.5020   22.5970 C   0  0  0  0  0  0  0  0  0  0  0  0
  -21.4420  -29.3140   22.4680 N   0  0  0  0  0  0  0  0  0  0  0  0
  -23.4500  -28.8810   23.4140 O   0  0  0  0  0  0  0  0  0  0  0  0
  -20.9480  -29.8710   21.7830 H   0  0  0  0  0  0  0  0  0  0  0  0
  -18.0770  -28.0870   22.9490 C   0  0  0  0  0  0  0  0  0  0  0  0
  -20.6300  -28.3680   23.2340 C   0  0  0  0  0  3  0  0  0  0  0  0
  -20.7480  -26.9380   22.6590 C   0  0  0  0  0  2  0  0  0  0  0  0
  -19.6570  -26.6070   21.6380 C   0  0  0  0  0  2  0  0  0  0  0  0
  -18.2710  -26.7410   22.2740 C   0  0  0  0  0  2  0  0  0  0  0  0
  -19.1850  -28.8590   23.3850 C   0  0  0  0  0  0  0  0  0  0  0  0
  -18.9520  -30.1220   23.9740 C   0  0  0  0  0  3  0  0  0  0  0  0
  -17.6420  -30.6120   24.1300 C   0  0  0  0  0  3  0  0  0  0  0  0
  -16.5470  -29.8360   23.7110 C   0  0  0  0  0  3  0  0  0  0  0  0
  -16.7650  -28.5750   23.1280 C   0  0  0  0  0  3  0  0  0  0  0  0
  -25.9000  -32.5670   23.9030 C   0  0  0  0  0  3  0  0  0  0  0  0
  -25.5880  -33.9650   24.2280 N   0  0  0  0  0  0  0  0  0  0  0  0
  -25.9130  -35.0150   23.4630 C   0  0  0  0  0  0  0  0  0  0  0  0
  -26.5790  -34.9100   22.4290 O   0  0  0  0  0  0  0  0  0  0  0  0
  -24.9980  -34.1200   25.0330 H   0  0  0  0  0  0  0  0  0  0  0  0
  -24.1720  -36.7980   23.1140 C   0  0  0  0  0  1  0  0  0  0  0  0
  -25.4220  -36.4020   23.9180 C   0  0  0  0  0  3  0  0  0  0  0  0
  -27.5570  -37.3040   24.7290 C   0  0  0  0  0  1  0  0  0  0  0  0
  -26.4460  -37.4610   23.7940 N   0  0  0  0  0  0  0  0  0  0  0  0
  -26.0360  -38.3790   23.9400 H   0  0  0  0  0  0  0  0  0  0  0  0
  -26.4180  -31.8010   25.1820 C   0  0  1  0  0  0  0  0  0  0  0  0
  -25.3250  -31.5670   26.2510 C   0  0  0  0  0  1  0  0  0  0  0  0
  -27.0030  -30.4220   24.7970 C   0  0  0  0  0  1  0  0  0  0  0  0
  -27.5640  -32.6000   25.8440 C   0  0  0  0  0  1  0  0  0  0  0  0
  -28.9730  -18.3310   20.5350 C   0  0  0  0  0  2  0  0  0  0  0  0
  -30.2280  -17.3730   20.5480 C   0  0  0  0  0  2  0  0  0  0  0  0
  -29.8950  -15.8770   20.9630 C   0  0  0  0  0  2  0  0  0  0  0  0
  -30.6540  -14.6710   20.2900 C   0  0  0  0  0  0  0  0  0  0  0  0
  -30.4090  -12.4760   19.1330 C   0  0  0  0  0  2  0  0  0  0  0  0
  -29.4360  -12.6540   17.9470 C   0  0  0  0  0  2  0  0  0  0  0  0
  -27.9750  -12.4790   18.4080 C   0  0  0  0  0  2  0  0  0  0  0  0
  -27.6510  -13.3210   19.6710 C   0  0  0  0  0  3  0  0  0  0  0  0
  -28.7310  -13.1180   20.7590 C   0  0  0  0  0  2  0  0  0  0  0  0
  -30.0340  -13.4570   20.1670 N   0  0  0  0  0  0  0  0  0  0  0  0
  -31.7740  -14.8630   19.8070 O   0  0  0  0  0  0  0  0  0  0  0  0
  -25.2700  -13.9310   20.4290 C   0  0  0  0  0  0  0  0  0  0  0  0
  -24.2080  -13.1610   20.8190 C   0  0  0  0  0  0  0  0  0  0  0  0
  -24.6680  -11.8080   20.7820 C   0  0  0  0  0  0  0  0  0  0  0  0
  -26.3080  -13.0480   20.1770 N   0  0  0  0  0  0  0  0  0  0  0  0
  -25.9500  -11.7670   20.4450 N   0  0  0  0  0  0  0  0  0  0  0  0
  -23.9450  -10.5460   20.9860 C   0  0  0  0  0  0  0  0  0  0  0  0
  -24.3920   -9.5810   21.9140 C   0  0  0  0  0  3  0  0  0  0  0  0
  -23.6680   -8.3840   22.1030 C   0  0  0  0  0  3  0  0  0  0  0  0
  -22.4850   -8.1440   21.3660 C   0  0  0  0  0  0  0  0  0  0  0  0
  -22.0580   -9.0970   20.4250 C   0  0  0  0  0  3  0  0  0  0  0  0
  -22.7820  -10.2870   20.2330 C   0  0  0  0  0  3  0  0  0  0  0  0
  -21.7340   -7.0000   21.4650 O   0  0  0  0  0  0  0  0  0  0  0  0
  -21.6940   -6.2610   22.6210 C   0  0  0  0  0  0  0  0  0  0  0  0
  -21.2830   -6.8220   23.8490 C   0  0  0  0  0  3  0  0  0  0  0  0
  -21.1930   -6.0120   24.9990 C   0  0  0  0  0  3  0  0  0  0  0  0
  -21.5020   -4.6410   24.9200 C   0  0  0  0  0  0  0  0  0  0  0  0
  -21.9060   -4.0780   23.6960 C   0  0  0  0  0  3  0  0  0  0  0  0
  -21.9990   -4.8860   22.5500 C   0  0  0  0  0  0  0  0  0  0  0  0
  -22.3700   -4.3350   21.3690 F   0  0  0  0  0  0  0  0  0  0  0  0
  -21.4040   -3.8610   26.0230 F   0  0  0  0  0  0  0  0  0  0  0  0
  -22.8170  -13.6400   21.1200 C   0  0  0  0  0  0  0  0  0  0  0  0
  -22.1040  -12.9440   21.9980 N   0  0  0  0  0  0  0  0  0  0  0  0
  -22.3710  -14.6690   20.6100 O   0  0  0  0  0  0  0  0  0  0  0  0
  -22.4820  -12.1120   22.4260 H   0  0  0  0  0  0  0  0  0  0  0  0
  -21.1690  -13.2400   22.2420 H   0  0  0  0  0  0  0  0  0  0  0  0
  -25.4350  -15.3010   20.2470 N   0  0  0  0  0  0  0  0  0  0  0  0
  -24.6750  -15.9610   20.3630 H   0  0  0  0  0  0  0  0  0  0  0  0
  -26.2790  -15.7290   19.8900 H   0  0  0  0  0  0  0  0  0  0  0  0
  2  1  1  0
  3  4  1  0
  4  8  1  0
  4  1  2  0
  5  2  2  0
  6  3  2  0
  6  5  1  0
  7  6  1  0
  8  9  2  0
 10 11  1  0
 10  8  1  0
 12 23  2  0
 13 11  1  0
 13 18  1  0
 14 22  1  0
 14 24  1  0
 15 21  1  0
 15 17  1  0
 16 22  1  0
 17 16  1  0
 18 17  2  0
 19 20  1  0
 19 13  2  0
 20 15  2  0
 21 14  1  0
 22 12  1  0
 24 26  2  0
 25 24  1  0
 27 25  1  0
 28 37  2  0
 28 33  1  0
 29 25  1  0
 29 33  1  0
 30 29  1  0
 31 32  1  0
 31 30  1  0
 32 28  1  0
 33 34  2  0
 34 35  1  0
 36 35  2  0
 37 36  1  0
 38 12  1  0
 38 39  1  0
 38 48  1  0
 39 42  1  0
 40 44  1  0
 40 39  1  0
 41 40  2  0
 44 43  1  0
 46 44  1  0
 46 47  1  0
 46 45  1  0
 48 51  1  1
 48 49  1  0
 50 48  1  0
 52 53  1  0
 52  5  1  0
 53 54  1  0
 55 54  1  0
 56 61  1  0
 57 58  1  0
 57 56  1  0
 59 58  1  0
 59 66  1  0
 59 60  1  0
 61 55  1  0
 61 60  1  0
 62 55  2  0
 63 64  2  0
 64 83  1  0
 65 64  1  0
 65 68  1  0
 66 63  1  0
 66 67  1  0
 67 65  2  0
 68 69  1  0
 69 70  2  0
 71 74  1  0
 71 70  1  0
 72 71  2  0
 73 72  1  0
 73 68  2  0
 74 75  1  0
 75 76  1  0
 76 77  2  0
 78 77  1  0
 78 82  1  0
 79 78  2  0
 80 75  2  0
 80 79  1  0
 81 80  1  0
 83 84  1  0
 84 87  1  0
 84 86  1  0
 85 83  2  0
 88 89  1  0
 88 63  1  0
 90 88  1  0
M  ISO  4  10 101  11 101  54 100  55 100
M  END
>  <TORSDO>  (38) 
F 21

>  <SCORE>  (38) 
-13.392

>  <name>  (38) 
37

>  <ligand_id>  (38) 
37

>  <original_smiles>  (38) 
[H]c1c([H])c([H])c2c(c1[H])C([H])([H])C([H])([H])C([H])([H])C2([H])N([H])C(=O)C1([H])N(C(=O)C([H])(N([H])C(=O)C([H])(N([H])C([H])([H])[H])C([H])([H])[H])C(C([H])([H])[H])(C([H])([H])[H])C([H])([H])[H])C([H])([H])c2c([H])c(OC([H])([H])C(=O)c3c([H])c([H])c(C([H])([H])C([H])([H])C([H])([H])C(=O)N4C([H])([H])C([H])([H])C([H])([H])C([H])(n5nc(-c6c([H])c([H])c(Oc7c([H])c([H])c(F)c([H])c7F)c([H])c6[H])c(C(=O)N([H])[H])c5N([H])[H])C4([H])[H])c(F)c3[H])c([H])c([H])c2C1([H])[H]

>  <smiles>  (38) 
[H]c1c([H])c([H])c2c(c1[H])C([H])([H])C([H])([H])C([H])([H])C2([H])N([H])C(=O)C1([H])N(C(=O)C([H])(N([H])C(=O)C([H])(N([H])C([H])([H])[H])C([H])([H])[H])C(C([H])([H])[H])(C([H])([H])[H])C([H])([H])[H])C([H])([H])c2c([H])c(OC([H])([H])C(=O)c3c([H])c([H])c(C([H])([H])C([H])([H])C([H])([H])C(=O)N4C([H])([H])C([H])([H])C([H])([H])C([H])(n5nc(-c6c([H])c([H])c(Oc7c([H])c([H])c(F)c([H])c7F)c([H])c6[H])c(C(=O)N([H])[H])c5N([H])[H])C4([H])[H])c(F)c3[H])c([H])c([H])c2C1([H])[H]

$$$$
38:0:0
     RDKit          3D

 89 97  0  0  1  0  0  0  0  0999 V2000
  -28.5090  -21.2810   22.4730 C   0  0  0  0  0  3  0  0  0  0  0  0
  -27.5440  -21.9020   21.6620 C   0  0  0  0  0  3  0  0  0  0  0  0
  -29.7570  -20.9300   21.9230 C   0  0  0  0  0  3  0  0  0  0  0  0
  -27.9080  -22.4120   20.4060 C   0  0  0  0  0  3  0  0  0  0  0  0
  -30.0400  -21.2400   20.5720 C   0  0  0  0  0  0  0  0  0  0  0  0
  -29.2740  -22.4140   20.0430 C   0  0  0  0  0  0  0  0  0  0  0  0
  -30.5200  -19.9090   19.8030 C   0  0  0  0  0  0  0  0  0  0  0  0
  -30.4030  -19.8720   18.5760 O   0  0  0  0  0  0  0  0  0  0  0  0
  -31.1650  -18.5550   20.4900 C   0  0  0  0  0  2  0  0  0  0  0  0
  -30.6280  -16.9930   20.2300 C   0  0  0  0  0  2  0  0  0  0  0  0
  -31.5140  -15.6020   20.2580 C   0  0  0  0  0  0  0  0  0  0  0  0
  -31.4260  -13.2070   19.4550 C   0  0  0  0  0  2  0  0  0  0  0  0
  -30.5390  -13.1420   18.1870 C   0  0  0  0  0  2  0  0  0  0  0  0
  -29.0510  -12.9920   18.5590 C   0  0  0  0  0  2  0  0  0  0  0  0
  -28.6180  -13.9710   19.6820 C   0  0  0  0  0  3  0  0  0  0  0  0
  -29.6270  -13.9840   20.8480 C   0  0  0  0  0  2  0  0  0  0  0  0
  -30.9400  -14.3350   20.2940 N   0  0  0  0  0  0  0  0  0  0  0  0
  -32.7280  -15.6670   20.0280 O   0  0  0  0  0  0  0  0  0  0  0  0
  -26.2470  -14.6390   20.3830 C   0  0  0  0  0  0  0  0  0  0  0  0
  -25.1410  -13.9020   20.7100 C   0  0  0  0  0  0  0  0  0  0  0  0
  -25.5480  -12.5330   20.6520 C   0  0  0  0  0  0  0  0  0  0  0  0
  -27.2550  -13.7200   20.1410 N   0  0  0  0  0  0  0  0  0  0  0  0
  -26.8420  -12.4470   20.3680 N   0  0  0  0  0  0  0  0  0  0  0  0
  -24.7620  -11.3000   20.7920 C   0  0  0  0  0  0  0  0  0  0  0  0
  -25.0920  -10.3180   21.7490 C   0  0  0  0  0  3  0  0  0  0  0  0
  -24.3060   -9.1510   21.8790 C   0  0  0  0  0  3  0  0  0  0  0  0
  -23.1750   -8.9620   21.0470 C   0  0  0  0  0  0  0  0  0  0  0  0
  -22.8670   -9.9320   20.0790 C   0  0  0  0  0  3  0  0  0  0  0  0
  -23.6530  -11.0880   19.9490 C   0  0  0  0  0  3  0  0  0  0  0  0
  -22.3710   -7.8470   21.0830 O   0  0  0  0  0  0  0  0  0  0  0  0
  -22.1290   -7.1700   22.2520 C   0  0  0  0  0  0  0  0  0  0  0  0
  -21.5400   -7.7960   23.3730 C   0  0  0  0  0  3  0  0  0  0  0  0
  -21.2500   -7.0440   24.5280 C   0  0  0  0  0  3  0  0  0  0  0  0
  -21.5390   -5.6670   24.5620 C   0  0  0  0  0  0  0  0  0  0  0  0
  -22.1230   -5.0410   23.4450 C   0  0  0  0  0  3  0  0  0  0  0  0
  -22.4160   -5.7900   22.2930 C   0  0  0  0  0  0  0  0  0  0  0  0
  -22.9550   -5.1760   21.2140 F   0  0  0  0  0  0  0  0  0  0  0  0
  -21.2540   -4.9440   25.6690 F   0  0  0  0  0  0  0  0  0  0  0  0
  -23.7620  -14.4350   20.9590 C   0  0  0  0  0  0  0  0  0  0  0  0
  -22.9860  -13.7570   21.7980 N   0  0  0  0  0  0  0  0  0  0  0  0
  -23.3800  -15.4860   20.4470 O   0  0  0  0  0  0  0  0  0  0  0  0
  -23.3090  -12.9050   22.2370 H   0  0  0  0  0  0  0  0  0  0  0  0
  -22.0580  -14.0930   22.0060 H   0  0  0  0  0  0  0  0  0  0  0  0
  -26.4740  -16.0040   20.2490 N   0  0  0  0  0  0  0  0  0  0  0  0
  -25.7320  -16.6860   20.3660 H   0  0  0  0  0  0  0  0  0  0  0  0
  -27.3490  -16.4230   19.9560 H   0  0  0  0  0  0  0  0  0  0  0  0
  -29.7550  -23.9770   19.9090 C   0  0  0  0  0  3  0  0  0  0  0  0
  -28.6740  -25.2570   19.7640 C   0  0  0  0  0  3  0  0  0  0  0  0
  -28.8950  -26.7830   19.9150 O   0  0  0  0  0  0  0  0  0  0  0  0
  -24.8140  -31.9340   23.2580 C   0  0  0  0  0  0  0  0  0  0  0  0
  -27.7660  -27.6760   19.9320 C   0  0  0  0  0  0  0  0  0  0  0  0
  -23.7400  -30.5750   21.5080 C   0  0  0  0  0  3  0  0  0  0  0  0
  -25.3180  -29.2300   19.9980 C   0  0  0  0  0  0  0  0  0  0  0  0
  -26.2670  -31.0500   21.4020 C   0  0  0  0  0  2  0  0  0  0  0  0
  -26.4560  -29.7210   20.6520 C   0  0  0  0  0  0  0  0  0  0  0  0
  -27.6820  -28.9590   20.6050 C   0  0  0  0  0  3  0  0  0  0  0  0
  -26.5880  -27.2850   19.2560 C   0  0  0  0  0  3  0  0  0  0  0  0
  -25.3940  -28.0270   19.2870 C   0  0  0  0  0  3  0  0  0  0  0  0
  -24.0280  -30.0220   20.0890 C   0  0  0  0  0  2  0  0  0  0  0  0
  -24.9580  -31.2010   22.1140 N   0  0  0  0  0  0  0  0  0  0  0  0
  -23.7040  -32.0990   23.7860 O   0  0  0  0  0  0  0  0  0  0  0  0
  -23.1280  -29.4530   22.3810 C   0  0  0  0  0  0  0  0  0  0  0  0
  -21.8180  -29.1930   22.2160 N   0  0  0  0  0  0  0  0  0  0  0  0
  -23.8330  -28.8180   23.1700 O   0  0  0  0  0  0  0  0  0  0  0  0
  -21.3010  -29.7610   21.5590 H   0  0  0  0  0  0  0  0  0  0  0  0
  -18.5190  -27.7470   22.6050 C   0  0  0  0  0  0  0  0  0  0  0  0
  -21.0560  -28.1470   22.9060 C   0  0  0  0  0  3  0  0  0  0  0  0
  -21.2490  -26.7760   22.2190 C   0  0  0  0  0  2  0  0  0  0  0  0
  -20.1710  -26.4660   21.1770 C   0  0  0  0  0  2  0  0  0  0  0  0
  -18.7810  -26.4700   21.8220 C   0  0  0  0  0  2  0  0  0  0  0  0
  -19.5860  -28.5410   23.0980 C   0  0  0  0  0  0  0  0  0  0  0  0
  -19.2890  -29.7340   23.7920 C   0  0  0  0  0  3  0  0  0  0  0  0
  -17.9540  -30.1350   23.9950 C   0  0  0  0  0  3  0  0  0  0  0  0
  -16.9010  -29.3390   23.5150 C   0  0  0  0  0  3  0  0  0  0  0  0
  -17.1830  -28.1450   22.8270 C   0  0  0  0  0  3  0  0  0  0  0  0
  -26.0320  -32.6160   23.9490 C   0  0  0  0  0  3  0  0  0  0  0  0
  -25.6540  -34.0020   24.2650 N   0  0  0  0  0  0  0  0  0  0  0  0
  -25.9750  -35.0670   23.5200 C   0  0  0  0  0  0  0  0  0  0  0  0
  -26.6850  -34.9880   22.5150 O   0  0  0  0  0  0  0  0  0  0  0  0
  -25.0250  -34.1360   25.0430 H   0  0  0  0  0  0  0  0  0  0  0  0
  -24.1880  -36.7880   23.1110 C   0  0  0  0  0  1  0  0  0  0  0  0
  -25.4210  -36.4380   23.9580 C   0  0  0  0  0  3  0  0  0  0  0  0
  -27.4920  -37.4130   24.8460 C   0  0  0  0  0  1  0  0  0  0  0  0
  -26.4150  -37.5290   23.8670 N   0  0  0  0  0  0  0  0  0  0  0  0
  -25.9690  -38.4350   23.9920 H   0  0  0  0  0  0  0  0  0  0  0  0
  -26.5030  -31.8610   25.2530 C   0  0  1  0  0  0  0  0  0  0  0  0
  -25.3540  -31.5720   26.2490 C   0  0  0  0  0  1  0  0  0  0  0  0
  -27.1720  -30.5120   24.9030 C   0  0  0  0  0  1  0  0  0  0  0  0
  -27.5740  -32.7030   25.9870 C   0  0  0  0  0  1  0  0  0  0  0  0
  2  1  2  0
  3  1  1  0
  4  2  1  0
  5  3  2  0
  6  4  2  0
  6  5  1  0
  7  9  1  0
  7  5  1  0
  8  7  2  0
 10 11  1  0
 10  9  1  0
 11 17  1  0
 12 17  1  0
 13 14  1  0
 13 12  1  0
 15 14  1  0
 15 22  1  0
 15 16  1  0
 17 16  1  0
 18 11  2  0
 19 20  2  0
 20 39  1  0
 21 20  1  0
 21 24  1  0
 22 23  1  0
 22 19  1  0
 23 21  2  0
 24 25  1  0
 25 26  2  0
 27 30  1  0
 27 26  1  0
 28 27  2  0
 29 28  1  0
 29 24  2  0
 30 31  1  0
 31 36  2  0
 31 32  1  0
 32 33  2  0
 33 34  1  0
 34 38  1  0
 35 34  2  0
 36 35  1  0
 37 36  1  0
 39 40  1  0
 40 43  1  0
 40 42  1  0
 41 39  2  0
 44 45  1  0
 44 19  1  0
 46 44  1  0
 47  6  1  0
 48 47  2  0
 48 49  1  0
 49 51  1  0
 50 61  2  0
 51 56  1  0
 52 60  1  0
 52 62  1  0
 53 59  1  0
 53 55  1  0
 54 60  1  0
 55 54  1  0
 56 55  2  0
 57 58  1  0
 57 51  2  0
 58 53  2  0
 59 52  1  0
 60 50  1  0
 62 64  2  0
 63 62  1  0
 65 63  1  0
 66 75  2  0
 66 71  1  0
 67 63  1  0
 67 71  1  0
 68 67  1  0
 69 70  1  0
 69 68  1  0
 70 66  1  0
 71 72  2  0
 72 73  1  0
 74 73  2  0
 75 74  1  0
 76 50  1  0
 76 77  1  0
 76 86  1  0
 77 80  1  0
 78 82  1  0
 78 77  1  0
 79 78  2  0
 82 81  1  0
 84 82  1  0
 84 85  1  0
 84 83  1  0
 86 89  1  1
 86 87  1  0
 88 86  1  0
M  ISO  4  10 100  11 100  48 101  49 101
M  END
>  <TORSDO>  (39) 
F 21

>  <SCORE>  (39) 
-10.169

>  <name>  (39) 
38

>  <ligand_id>  (39) 
38

>  <original_smiles>  (39) 
[H]c1c([H])c([H])c(C([H])([H])C([H])([H])Oc2c([H])c([H])c3c(c2[H])C([H])([H])N(C(=O)C([H])(N([H])C(=O)C([H])(N([H])C([H])([H])[H])C([H])([H])[H])C(C([H])([H])[H])(C([H])([H])[H])C([H])([H])[H])C([H])(C(=O)N([H])C2([H])c4c([H])c([H])c([H])c([H])c4C([H])([H])C([H])([H])C2([H])[H])C3([H])[H])c(C(=O)C([H])([H])C([H])([H])C(=O)N2C([H])([H])C([H])([H])C([H])([H])C([H])(n3nc(-c4c([H])c([H])c(Oc5c([H])c([H])c(F)c([H])c5F)c([H])c4[H])c(C(=O)N([H])[H])c3N([H])[H])C2([H])[H])c1[H]

>  <smiles>  (39) 
[H]c1c([H])c([H])c(C([H])([H])C([H])([H])Oc2c([H])c([H])c3c(c2[H])C([H])([H])N(C(=O)C([H])(N([H])C(=O)C([H])(N([H])C([H])([H])[H])C([H])([H])[H])C(C([H])([H])[H])(C([H])([H])[H])C([H])([H])[H])C([H])(C(=O)N([H])C2([H])c4c([H])c([H])c([H])c([H])c4C([H])([H])C([H])([H])C2([H])[H])C3([H])[H])c(C(=O)C([H])([H])C([H])([H])C(=O)N2C([H])([H])C([H])([H])C([H])([H])C([H])(n3nc(-c4c([H])c([H])c(Oc5c([H])c([H])c(F)c([H])c5F)c([H])c4[H])c(C(=O)N([H])[H])c3N([H])[H])C2([H])[H])c1[H]

$$$$
39:0:0
     RDKit          3D

 93101  0  0  1  0  0  0  0  0999 V2000
  -29.4110  -23.7000   20.0650 C   0  0  0  0  0  3  0  0  0  0  0  0
  -30.2840  -19.7360   19.4970 C   0  0  0  0  0  3  0  0  0  0  0  0
  -28.6250  -19.8660   21.1600 C   0  0  0  0  0  2  0  0  0  0  0  0
  -30.1760  -21.1840   19.3400 C   0  0  0  0  0  3  0  0  0  0  0  0
  -28.5170  -21.3000   21.0080 C   0  0  0  0  0  3  0  0  0  0  0  0
  -29.5200  -18.9850   20.4490 C   0  0  0  0  0  0  0  0  0  0  0  0
  -29.3010  -22.0560   20.0920 C   0  0  0  0  0  0  0  0  0  0  0  0
  -29.4840  -17.4470   20.8670 C   0  0  0  0  0  0  0  0  0  0  0  0
  -29.8080  -16.0650   20.7620 C   0  0  0  0  0  3  0  0  0  0  0  0
  -30.5950  -14.9950   19.9900 C   0  0  0  0  0  0  0  0  0  0  0  0
  -30.4570  -12.6970   18.9050 C   0  0  0  0  0  2  0  0  0  0  0  0
  -29.4400  -12.7290   17.7370 C   0  0  0  0  0  2  0  0  0  0  0  0
  -27.9960  -12.5160   18.2360 C   0  0  0  0  0  2  0  0  0  0  0  0
  -27.6790  -13.3700   19.4910 C   0  0  0  0  0  3  0  0  0  0  0  0
  -28.7970  -13.2290   20.5420 C   0  0  0  0  0  2  0  0  0  0  0  0
  -30.0460  -13.7100   19.9180 N   0  0  0  0  0  0  0  0  0  0  0  0
  -31.6960  -15.1730   19.4570 O   0  0  0  0  0  0  0  0  0  0  0  0
  -25.3390  -13.9530   20.3610 C   0  0  0  0  0  0  0  0  0  0  0  0
  -24.2920  -13.1750   20.7750 C   0  0  0  0  0  0  0  0  0  0  0  0
  -24.7460  -11.8240   20.6870 C   0  0  0  0  0  0  0  0  0  0  0  0
  -26.3630  -13.0750   20.0450 N   0  0  0  0  0  0  0  0  0  0  0  0
  -26.0170  -11.7880   20.3020 N   0  0  0  0  0  0  0  0  0  0  0  0
  -24.0260  -10.5600   20.8920 C   0  0  0  0  0  0  0  0  0  0  0  0
  -24.4570   -9.6090   21.8430 C   0  0  0  0  0  3  0  0  0  0  0  0
  -23.7360   -8.4110   22.0350 C   0  0  0  0  0  3  0  0  0  0  0  0
  -22.5700   -8.1540   21.2760 C   0  0  0  0  0  0  0  0  0  0  0  0
  -22.1580   -9.0930   20.3150 C   0  0  0  0  0  3  0  0  0  0  0  0
  -22.8800  -10.2840   20.1210 C   0  0  0  0  0  3  0  0  0  0  0  0
  -21.8220   -7.0060   21.3750 O   0  0  0  0  0  0  0  0  0  0  0  0
  -21.7020   -6.3270   22.5610 C   0  0  0  0  0  0  0  0  0  0  0  0
  -21.1620   -6.9320   23.7160 C   0  0  0  0  0  3  0  0  0  0  0  0
  -20.9910   -6.1770   24.8920 C   0  0  0  0  0  3  0  0  0  0  0  0
  -21.3500   -4.8160   24.9140 C   0  0  0  0  0  0  0  0  0  0  0  0
  -21.8830   -4.2090   23.7640 C   0  0  0  0  0  3  0  0  0  0  0  0
  -22.0550   -4.9630   22.5890 C   0  0  0  0  0  0  0  0  0  0  0  0
  -22.5490   -4.3670   21.4760 F   0  0  0  0  0  0  0  0  0  0  0  0
  -21.1800   -4.0870   26.0420 F   0  0  0  0  0  0  0  0  0  0  0  0
  -22.9150  -13.6510   21.1360 C   0  0  0  0  0  0  0  0  0  0  0  0
  -22.2350  -12.9370   22.0270 N   0  0  0  0  0  0  0  0  0  0  0  0
  -22.4520  -14.6890   20.6640 O   0  0  0  0  0  0  0  0  0  0  0  0
  -22.6220  -12.0970   22.4280 H   0  0  0  0  0  0  0  0  0  0  0  0
  -21.3140  -13.2390   22.3130 H   0  0  0  0  0  0  0  0  0  0  0  0
  -25.5010  -15.3270   20.2080 N   0  0  0  0  0  0  0  0  0  0  0  0
  -24.7520  -15.9870   20.3850 H   0  0  0  0  0  0  0  0  0  0  0  0
  -26.3450  -15.7680   19.8610 H   0  0  0  0  0  0  0  0  0  0  0  0
  -30.3710  -24.0860   21.2180 C   0  0  0  0  0  2  0  0  0  0  0  0
  -31.0770  -25.4360   21.0430 C   0  0  0  0  0  0  0  0  0  0  0  0
  -31.0260  -26.3000   22.0490 N   0  0  0  0  0  0  0  0  0  0  0  0
  -31.6920  -25.6990   20.0120 O   0  0  0  0  0  0  0  0  0  0  0  0
  -30.5310  -26.0760   22.9020 H   0  0  0  0  0  0  0  0  0  0  0  0
  -31.4810  -27.1990   21.9720 H   0  0  0  0  0  0  0  0  0  0  0  0
  -28.1560  -24.8000   20.0120 C   0  0  0  0  0  2  0  0  0  0  0  0
  -28.3390  -26.3370   20.0270 O   0  0  0  0  0  0  0  0  0  0  0  0
  -24.6670  -31.8870   23.1360 C   0  0  0  0  0  0  0  0  0  0  0  0
  -27.2380  -27.2560   20.0180 C   0  0  0  0  0  0  0  0  0  0  0  0
  -23.4430  -30.4880   21.5140 C   0  0  0  0  0  3  0  0  0  0  0  0
  -24.8770  -28.9390   20.0510 C   0  0  0  0  0  0  0  0  0  0  0  0
  -25.9870  -30.7940   21.2900 C   0  0  0  0  0  2  0  0  0  0  0  0
  -26.0630  -29.4090   20.6290 C   0  0  0  0  0  0  0  0  0  0  0  0
  -27.2440  -28.5850   20.5930 C   0  0  0  0  0  3  0  0  0  0  0  0
  -26.0210  -26.8690   19.4140 C   0  0  0  0  0  3  0  0  0  0  0  0
  -24.8660  -27.6820   19.4290 C   0  0  0  0  0  3  0  0  0  0  0  0
  -23.6400  -29.8180   20.1280 C   0  0  0  0  0  2  0  0  0  0  0  0
  -24.7200  -31.0770   22.0350 N   0  0  0  0  0  0  0  0  0  0  0  0
  -23.5900  -32.1560   23.6900 O   0  0  0  0  0  0  0  0  0  0  0  0
  -22.7990  -29.4670   22.4860 C   0  0  0  0  0  0  0  0  0  0  0  0
  -21.4730  -29.2750   22.3780 N   0  0  0  0  0  0  0  0  0  0  0  0
  -23.4940  -28.8500   23.2970 O   0  0  0  0  0  0  0  0  0  0  0  0
  -20.9670  -29.8250   21.6970 H   0  0  0  0  0  0  0  0  0  0  0  0
  -18.1200  -28.0170   22.9230 C   0  0  0  0  0  0  0  0  0  0  0  0
  -20.6770  -28.3250   23.1610 C   0  0  0  0  0  3  0  0  0  0  0  0
  -20.7980  -26.8930   22.5870 C   0  0  0  0  0  2  0  0  0  0  0  0
  -19.6900  -26.5490   21.5860 C   0  0  0  0  0  2  0  0  0  0  0  0
  -18.3130  -26.6710   22.2460 C   0  0  0  0  0  2  0  0  0  0  0  0
  -19.2300  -28.8000   23.3380 C   0  0  0  0  0  0  0  0  0  0  0  0
  -18.9940  -30.0590   23.9330 C   0  0  0  0  0  3  0  0  0  0  0  0
  -17.6820  -30.5340   24.1150 C   0  0  0  0  0  3  0  0  0  0  0  0
  -16.5870  -29.7490   23.7160 C   0  0  0  0  0  3  0  0  0  0  0  0
  -16.8080  -28.4920   23.1240 C   0  0  0  0  0  3  0  0  0  0  0  0
  -25.9530  -32.5300   23.7380 C   0  0  0  0  0  3  0  0  0  0  0  0
  -25.6330  -33.9210   24.0930 N   0  0  0  0  0  0  0  0  0  0  0  0
  -25.9460  -34.9900   23.3500 C   0  0  0  0  0  0  0  0  0  0  0  0
  -26.6020  -34.9100   22.3080 O   0  0  0  0  0  0  0  0  0  0  0  0
  -25.0470  -34.0570   24.9040 H   0  0  0  0  0  0  0  0  0  0  0  0
  -24.2130  -36.7890   23.0360 C   0  0  0  0  0  1  0  0  0  0  0  0
  -25.4550  -36.3680   23.8380 C   0  0  0  0  0  3  0  0  0  0  0  0
  -27.5840  -37.2470   24.6920 C   0  0  0  0  0  1  0  0  0  0  0  0
  -26.4850  -37.4270   23.7480 N   0  0  0  0  0  0  0  0  0  0  0  0
  -26.0760  -38.3430   23.9080 H   0  0  0  0  0  0  0  0  0  0  0  0
  -26.5030  -31.7540   24.9980 C   0  0  1  0  0  0  0  0  0  0  0  0
  -25.4330  -31.4940   26.0850 C   0  0  0  0  0  1  0  0  0  0  0  0
  -27.0950  -30.3860   24.5860 C   0  0  0  0  0  1  0  0  0  0  0  0
  -27.6550  -32.5570   25.6460 C   0  0  0  0  0  1  0  0  0  0  0  0
  1 52  1  0
  1  7  1  0
  1 46  1  0
  2  6  1  0
  4  2  2  0
  4  7  1  0
  5  3  1  0
  6  8  2  0
  6  3  1  0
  7  5  2  0
  9  8  2  0
 10  9  1  0
 11 16  1  0
 12 13  1  0
 12 11  1  0
 14 13  1  0
 14 21  1  0
 14 15  1  0
 16 10  1  0
 16 15  1  0
 17 10  2  0
 18 19  2  0
 19 38  1  0
 20 19  1  0
 20 23  1  0
 21 22  1  0
 21 18  1  0
 22 20  2  0
 23 24  1  0
 24 25  2  0
 26 29  1  0
 26 25  1  0
 27 26  2  0
 28 27  1  0
 28 23  2  0
 29 30  1  0
 30 35  2  0
 30 31  1  0
 31 32  2  0
 32 33  1  0
 33 37  1  0
 34 33  2  0
 35 34  1  0
 36 35  1  0
 38 39  1  0
 39 42  1  0
 39 41  1  0
 40 38  2  0
 43 18  1  0
 43 44  1  0
 45 43  1  0
 47 46  1  0
 47 48  1  0
 48 50  1  0
 49 47  2  0
 51 48  1  0
 52 53  1  0
 54 65  2  0
 55 53  1  0
 55 60  1  0
 56 64  1  0
 56 66  1  0
 57 63  1  0
 57 59  1  0
 58 64  1  0
 59 58  1  0
 60 59  2  0
 61 62  1  0
 61 55  2  0
 62 57  2  0
 63 56  1  0
 64 54  1  0
 66 68  2  0
 67 66  1  0
 69 67  1  0
 70 79  2  0
 70 75  1  0
 71 67  1  0
 71 75  1  0
 72 71  1  0
 73 74  1  0
 73 72  1  0
 74 70  1  0
 75 76  2  0
 76 77  1  0
 78 77  2  0
 79 78  1  0
 80 54  1  0
 80 81  1  0
 80 90  1  0
 81 84  1  0
 82 86  1  0
 82 81  1  0
 83 82  2  0
 86 85  1  0
 88 86  1  0
 88 89  1  0
 88 87  1  0
 90 93  1  1
 90 91  1  0
 92 90  1  0
M  ISO  4   9 100  10 100  52 101  53 101
M  END
>  <TORSDO>  (40) 
F 21

>  <SCORE>  (40) 
-13.287

>  <name>  (40) 
39

>  <ligand_id>  (40) 
39

>  <original_smiles>  (40) 
[H]C(C(=O)N1C([H])([H])C([H])([H])C([H])([H])C([H])(n2nc(-c3c([H])c([H])c(Oc4c([H])c([H])c(F)c([H])c4F)c([H])c3[H])c(C(=O)N([H])[H])c2N([H])[H])C1([H])[H])=C([H])c1c([H])c([H])c(C([H])(C([H])([H])Oc2c([H])c([H])c3c(c2[H])C([H])([H])N(C(=O)C([H])(N([H])C(=O)C([H])(N([H])C([H])([H])[H])C([H])([H])[H])C(C([H])([H])[H])(C([H])([H])[H])C([H])([H])[H])C([H])(C(=O)N([H])C2([H])c4c([H])c([H])c([H])c([H])c4C([H])([H])C([H])([H])C2([H])[H])C3([H])[H])C([H])([H])C(=O)N([H])[H])c([H])c1[H]

>  <smiles>  (40) 
[H]C(C(=O)N1C([H])([H])C([H])([H])C([H])([H])C([H])(n2nc(-c3c([H])c([H])c(Oc4c([H])c([H])c(F)c([H])c4F)c([H])c3[H])c(C(=O)N([H])[H])c2N([H])[H])C1([H])[H])=C([H])c1c([H])c([H])c(C([H])(C([H])([H])Oc2c([H])c([H])c3c(c2[H])C([H])([H])N(C(=O)C([H])(N([H])C(=O)C([H])(N([H])C([H])([H])[H])C([H])([H])[H])C(C([H])([H])[H])(C([H])([H])[H])C([H])([H])[H])C([H])(C(=O)N([H])C2([H])c4c([H])c([H])c([H])c([H])c4C([H])([H])C([H])([H])C2([H])[H])C3([H])[H])C([H])([H])C(=O)N([H])[H])c([H])c1[H]

$$$$
40:0:0
     RDKit          3D

 94103  0  0  1  0  0  0  0  0999 V2000
  -28.7890  -21.2690   24.2640 C   0  0  0  0  0  3  0  0  0  0  0  0
  -29.2180  -22.6010   24.1250 C   0  0  0  0  0  3  0  0  0  0  0  0
  -28.7230  -20.4300   23.1390 C   0  0  0  0  0  3  0  0  0  0  0  0
  -29.5080  -22.2640   21.7280 C   0  0  0  0  0  3  0  0  0  0  0  0
  -29.5610  -23.1230   22.8560 C   0  0  0  0  0  0  0  0  0  0  0  0
  -29.0980  -20.9130   21.8690 C   0  0  0  0  0  0  0  0  0  0  0  0
  -30.0230  -24.5440   22.7760 C   0  0  0  0  0  0  0  0  0  0  0  0
  -30.4980  -25.1300   23.7540 O   0  0  0  0  0  0  0  0  0  0  0  0
  -29.8400  -25.3020   21.4510 C   0  0  0  0  0  2  0  0  0  0  0  0
  -30.0100  -26.8340   21.5950 C   0  0  0  0  0  2  0  0  0  0  0  0
  -29.6520  -27.5050   20.3860 O   0  0  0  0  0  0  0  0  0  0  0  0
  -24.9400  -31.9710   23.3460 C   0  0  0  0  0  0  0  0  0  0  0  0
  -28.3970  -28.0610   20.3750 C   0  0  0  0  0  0  0  0  0  0  0  0
  -24.0520  -30.4310   21.6220 C   0  0  0  0  0  3  0  0  0  0  0  0
  -25.8020  -29.1610   20.2660 C   0  0  0  0  0  0  0  0  0  0  0  0
  -26.4950  -31.1810   21.5670 C   0  0  0  0  0  2  0  0  0  0  0  0
  -26.8260  -29.8510   20.9290 C   0  0  0  0  0  0  0  0  0  0  0  0
  -28.1260  -29.3040   20.9890 C   0  0  0  0  0  3  0  0  0  0  0  0
  -27.3640  -27.3840   19.7000 C   0  0  0  0  0  3  0  0  0  0  0  0
  -26.0630  -27.9230   19.6520 C   0  0  0  0  0  3  0  0  0  0  0  0
  -24.4380  -29.8150   20.2500 C   0  0  0  0  0  2  0  0  0  0  0  0
  -25.1740  -31.2110   22.2380 N   0  0  0  0  0  0  0  0  0  0  0  0
  -23.8040  -32.0630   23.8280 O   0  0  0  0  0  0  0  0  0  0  0  0
  -23.5180  -29.3040   22.5350 C   0  0  0  0  0  0  0  0  0  0  0  0
  -22.2460  -28.9240   22.3330 N   0  0  0  0  0  0  0  0  0  0  0  0
  -24.2450  -28.7750   23.3790 O   0  0  0  0  0  0  0  0  0  0  0  0
  -21.7130  -29.4130   21.6270 H   0  0  0  0  0  0  0  0  0  0  0  0
  -19.0680  -27.2330   22.6370 C   0  0  0  0  0  0  0  0  0  0  0  0
  -21.5430  -27.8580   23.0460 C   0  0  0  0  0  3  0  0  0  0  0  0
  -21.8850  -26.4720   22.4520 C   0  0  0  0  0  2  0  0  0  0  0  0
  -20.8940  -26.0140   21.3770 C   0  0  0  0  0  2  0  0  0  0  0  0
  -19.4760  -25.9400   21.9520 C   0  0  0  0  0  2  0  0  0  0  0  0
  -20.0390  -28.1410   23.1370 C   0  0  0  0  0  0  0  0  0  0  0  0
  -19.6070  -29.3460   23.7330 C   0  0  0  0  0  3  0  0  0  0  0  0
  -18.2370  -29.6460   23.8390 C   0  0  0  0  0  3  0  0  0  0  0  0
  -17.2800  -28.7360   23.3570 C   0  0  0  0  0  3  0  0  0  0  0  0
  -17.6950  -27.5310   22.7610 C   0  0  0  0  0  3  0  0  0  0  0  0
  -26.0810  -32.7770   24.0420 C   0  0  0  0  0  3  0  0  0  0  0  0
  -26.5280  -32.1580   25.4220 C   0  0  1  0  0  0  0  0  0  0  0  0
  -25.3510  -31.8530   26.3770 C   0  0  0  0  0  1  0  0  0  0  0  0
  -27.3110  -30.8420   25.2010 C   0  0  0  0  0  1  0  0  0  0  0  0
  -27.4910  -33.1280   26.1440 C   0  0  0  0  0  1  0  0  0  0  0  0
  -25.6040  -34.1550   24.2200 N   0  0  0  0  0  0  0  0  0  0  0  0
  -25.9160  -35.1780   23.4120 C   0  0  0  0  0  0  0  0  0  0  0  0
  -26.7030  -35.0690   22.4670 O   0  0  0  0  0  0  0  0  0  0  0  0
  -24.9120  -34.3040   24.9390 H   0  0  0  0  0  0  0  0  0  0  0  0
  -24.0690  -36.7400   22.7270 C   0  0  0  0  0  1  0  0  0  0  0  0
  -25.2440  -36.5350   23.6940 C   0  0  0  0  0  3  0  0  0  0  0  0
  -27.1910  -37.6890   24.6460 C   0  0  0  0  0  1  0  0  0  0  0  0
  -26.1750  -37.6810   23.5970 N   0  0  0  0  0  0  0  0  0  0  0  0
  -25.6690  -38.5610   23.6390 H   0  0  0  0  0  0  0  0  0  0  0  0
  -29.0360  -19.9760   20.6640 C   0  0  0  0  0  2  0  0  0  0  0  0
  -31.7880  -14.9220   20.1630 C   0  0  0  0  0  0  0  0  0  0  0  0
  -31.3580  -12.6910   19.2210 C   0  0  0  0  0  2  0  0  0  0  0  0
  -30.4410  -12.8440   17.9900 C   0  0  0  0  0  2  0  0  0  0  0  0
  -28.9600  -12.8300   18.4130 C   0  0  0  0  0  2  0  0  0  0  0  0
  -28.6610  -13.7960   19.5910 C   0  0  0  0  0  3  0  0  0  0  0  0
  -29.6950  -13.6250   20.7260 C   0  0  0  0  0  2  0  0  0  0  0  0
  -31.0350  -13.7900   20.1420 N   0  0  0  0  0  0  0  0  0  0  0  0
  -32.9450  -14.9540   19.7260 O   0  0  0  0  0  0  0  0  0  0  0  0
  -30.2080  -18.1790   19.2870 C   0  0  0  0  0  2  0  0  0  0  0  0
  -29.9180  -17.7710   21.7290 C   0  0  0  0  0  2  0  0  0  0  0  0
  -31.3070  -17.1050   19.2750 C   0  0  0  0  0  2  0  0  0  0  0  0
  -31.0160  -16.6840   21.6560 C   0  0  0  0  0  2  0  0  0  0  0  0
  -30.1220  -18.8680   20.6580 C   0  0  0  0  0  3  0  0  0  0  0  0
  -31.1020  -16.0810   20.3180 N   0  0  0  0  0  0  0  0  0  0  0  0
  -26.3420  -14.6060   20.3530 C   0  0  0  0  0  0  0  0  0  0  0  0
  -25.2060  -13.9280   20.7090 C   0  0  0  0  0  0  0  0  0  0  0  0
  -25.5350  -12.5400   20.6290 C   0  0  0  0  0  0  0  0  0  0  0  0
  -27.2930  -13.6370   20.0790 N   0  0  0  0  0  0  0  0  0  0  0  0
  -26.8120  -12.3870   20.3030 N   0  0  0  0  0  0  0  0  0  0  0  0
  -24.6930  -11.3480   20.7860 C   0  0  0  0  0  0  0  0  0  0  0  0
  -25.0490  -10.3020   21.6680 C   0  0  0  0  0  3  0  0  0  0  0  0
  -24.2130   -9.1750   21.8160 C   0  0  0  0  0  3  0  0  0  0  0  0
  -23.0060   -9.0840   21.0820 C   0  0  0  0  0  0  0  0  0  0  0  0
  -22.6680  -10.1170   20.1900 C   0  0  0  0  0  3  0  0  0  0  0  0
  -23.5030  -11.2370   20.0390 C   0  0  0  0  0  3  0  0  0  0  0  0
  -22.1450   -8.0160   21.1430 O   0  0  0  0  0  0  0  0  0  0  0  0
  -22.0040   -7.2680   22.2850 C   0  0  0  0  0  0  0  0  0  0  0  0
  -21.6500   -7.8530   23.5190 C   0  0  0  0  0  3  0  0  0  0  0  0
  -21.4480   -7.0390   24.6520 C   0  0  0  0  0  3  0  0  0  0  0  0
  -21.5910   -5.6430   24.5510 C   0  0  0  0  0  0  0  0  0  0  0  0
  -21.9390   -5.0580   23.3210 C   0  0  0  0  0  3  0  0  0  0  0  0
  -22.1420   -5.8690   22.1900 C   0  0  0  0  0  0  0  0  0  0  0  0
  -22.4560   -5.2980   21.0020 F   0  0  0  0  0  0  0  0  0  0  0  0
  -21.3890   -4.8600   25.6370 F   0  0  0  0  0  0  0  0  0  0  0  0
  -23.8650  -14.5270   21.0160 C   0  0  0  0  0  0  0  0  0  0  0  0
  -23.0900  -13.8860   21.8840 N   0  0  0  0  0  0  0  0  0  0  0  0
  -23.5140  -15.5990   20.5220 O   0  0  0  0  0  0  0  0  0  0  0  0
  -23.3870  -13.0180   22.3050 H   0  0  0  0  0  0  0  0  0  0  0  0
  -22.1890  -14.2690   22.1320 H   0  0  0  0  0  0  0  0  0  0  0  0
  -26.6380  -15.9590   20.2200 N   0  0  0  0  0  0  0  0  0  0  0  0
  -25.9450  -16.6850   20.3690 H   0  0  0  0  0  0  0  0  0  0  0  0
  -27.5370  -16.3200   19.9300 H   0  0  0  0  0  0  0  0  0  0  0  0
  2  1  1  0
  3  1  2  0
  4  6  2  0
  4  5  1  0
  5  2  2  0
  6  3  1  0
  7  5  1  0
  7  8  2  0
  9 10  1  0
  9  7  1  0
 11 10  1  0
 12 23  2  0
 13 11  1  0
 13 18  1  0
 14 22  1  0
 14 24  1  0
 15 17  1  0
 16 22  1  0
 17 18  2  0
 17 16  1  0
 19 13  2  0
 20 19  1  0
 20 15  2  0
 21 15  1  0
 21 14  1  0
 22 12  1  0
 24 26  2  0
 25 24  1  0
 27 25  1  0
 28 37  2  0
 28 33  1  0
 29 25  1  0
 29 33  1  0
 30 29  1  0
 31 32  1  0
 31 30  1  0
 32 28  1  0
 33 34  2  0
 34 35  1  0
 36 35  2  0
 37 36  1  0
 38 12  1  0
 38 43  1  0
 38 39  1  0
 39 42  1  1
 39 40  1  0
 41 39  1  0
 43 46  1  0
 44 48  1  0
 44 43  1  0
 45 44  2  0
 48 47  1  0
 50 51  1  0
 50 48  1  0
 50 49  1  0
 52  6  1  0
 53 66  1  0
 54 59  1  0
 55 56  1  0
 55 54  1  0
 57 56  1  0
 57 70  1  0
 57 58  1  0
 59 53  1  0
 59 58  1  0
 60 53  2  0
 61 65  1  0
 63 61  1  0
 63 66  1  0
 64 62  1  0
 65 52  1  0
 65 62  1  0
 66 64  1  0
 67 68  2  0
 68 87  1  0
 69 68  1  0
 69 72  1  0
 70 71  1  0
 70 67  1  0
 71 69  2  0
 72 73  1  0
 73 74  2  0
 75 78  1  0
 75 74  1  0
 76 75  2  0
 77 76  1  0
 77 72  2  0
 78 79  1  0
 79 80  1  0
 80 81  2  0
 82 81  1  0
 82 86  1  0
 83 82  2  0
 84 79  2  0
 84 83  1  0
 85 84  1  0
 87 88  1  0
 88 91  1  0
 88 90  1  0
 89 87  2  0
 92 67  1  0
 92 93  1  0
 94 92  1  0
M  ISO  4  10 101  11 101  53 100  66 100
M  END
>  <TORSDO>  (41) 
F 20

>  <SCORE>  (41) 
-3.573

>  <name>  (41) 
40

>  <ligand_id>  (41) 
40

>  <original_smiles>  (41) 
[H]c1c([H])c([H])c2c(c1[H])C([H])([H])C([H])([H])C([H])([H])C2([H])N([H])C(=O)C1([H])N(C(=O)C([H])(N([H])C(=O)C([H])(N([H])C([H])([H])[H])C([H])([H])[H])C(C([H])([H])[H])(C([H])([H])[H])C([H])([H])[H])C([H])([H])c2c([H])c(OC([H])([H])C([H])([H])C(=O)c3c([H])c([H])c([H])c(C([H])([H])C4([H])C([H])([H])C([H])([H])N(C(=O)N5C([H])([H])C([H])([H])C([H])([H])C([H])(n6nc(-c7c([H])c([H])c(Oc8c([H])c([H])c(F)c([H])c8F)c([H])c7[H])c(C(=O)N([H])[H])c6N([H])[H])C5([H])[H])C([H])([H])C4([H])[H])c3[H])c([H])c([H])c2C1([H])[H]

>  <smiles>  (41) 
[H]c1c([H])c([H])c2c(c1[H])C([H])([H])C([H])([H])C([H])([H])C2([H])N([H])C(=O)C1([H])N(C(=O)C([H])(N([H])C(=O)C([H])(N([H])C([H])([H])[H])C([H])([H])[H])C(C([H])([H])[H])(C([H])([H])[H])C([H])([H])[H])C([H])([H])c2c([H])c(OC([H])([H])C([H])([H])C(=O)c3c([H])c([H])c([H])c(C([H])([H])C4([H])C([H])([H])C([H])([H])N(C(=O)N5C([H])([H])C([H])([H])C([H])([H])C([H])(n6nc(-c7c([H])c([H])c(Oc8c([H])c([H])c(F)c([H])c8F)c([H])c7[H])c(C(=O)N([H])[H])c6N([H])[H])C5([H])[H])C([H])([H])C4([H])[H])c3[H])c([H])c([H])c2C1([H])[H]

$$$$
41:0:0
     RDKit          3D

 96104  0  0  1  0  0  0  0  0999 V2000
  -24.8200  -23.0370   19.5390 C   0  0  0  0  0  0  0  0  0  0  0  0
  -23.7720  -23.9180   18.8530 N   0  0  0  0  0  0  0  0  0  0  0  0
  -24.9190  -23.2630   20.7450 O   0  0  0  0  0  0  0  0  0  0  0  0
  -23.8150  -23.7270   17.8590 H   0  0  0  0  0  0  0  0  0  0  0  0
  -25.6190  -20.1490   19.3210 C   0  0  0  0  0  2  0  0  0  0  0  0
  -27.7830  -18.2540   18.8120 C   0  0  0  0  0  2  0  0  0  0  0  0
  -28.6640  -19.8760   20.1300 C   0  0  0  0  0  2  0  0  0  0  0  0
  -25.9190  -21.6650   19.0180 C   0  0  0  0  0  3  0  0  0  0  0  0
  -28.9920  -18.1670   19.8480 C   0  0  0  0  0  3  0  0  0  0  0  0
  -26.9250  -19.6370   18.5290 C   0  0  2  0  0  0  0  0  0  0  0  0
  -27.5810  -20.8880   19.1500 C   0  0  2  0  0  0  0  0  0  0  0  0
  -26.6880  -19.5800   17.0020 C   0  0  0  0  0  1  0  0  0  0  0  0
  -28.5820  -21.6790   18.3030 C   0  0  0  0  0  1  0  0  0  0  0  0
  -31.5620  -16.1740   20.0460 C   0  0  0  0  0  0  0  0  0  0  0  0
  -32.4250  -13.6490   20.1610 C   0  0  0  0  0  2  0  0  0  0  0  0
  -31.8400  -12.7130   19.0600 C   0  0  0  0  0  2  0  0  0  0  0  0
  -30.4010  -12.3000   19.4110 C   0  0  0  0  0  2  0  0  0  0  0  0
  -29.6150  -13.5070   19.9740 C   0  0  0  0  0  3  0  0  0  0  0  0
  -30.3330  -14.2340   21.1060 C   0  0  0  0  0  2  0  0  0  0  0  0
  -31.4630  -14.8120   20.4460 N   0  0  0  0  0  0  0  0  0  0  0  0
  -32.7790  -16.3670   19.7800 O   0  0  0  0  0  0  0  0  0  0  0  0
  -30.4480  -17.1840   19.6170 N   0  0  0  0  0  0  0  0  0  0  0  0
  -30.9820  -17.7560   18.9760 H   0  0  0  0  0  0  0  0  0  0  0  0
  -27.2420  -14.0520   20.5840 C   0  0  0  0  0  0  0  0  0  0  0  0
  -26.1990  -13.3160   21.0300 C   0  0  0  0  0  0  0  0  0  0  0  0
  -26.6770  -11.9740   21.0390 C   0  0  0  0  0  0  0  0  0  0  0  0
  -28.2900  -13.1870   20.4080 N   0  0  0  0  0  0  0  0  0  0  0  0
  -27.9680  -11.9190   20.7390 N   0  0  0  0  0  0  0  0  0  0  0  0
  -25.9520  -10.7280   21.2280 C   0  0  0  0  0  0  0  0  0  0  0  0
  -26.0450   -9.9990   22.4300 C   0  0  0  0  0  3  0  0  0  0  0  0
  -25.3170   -8.8040   22.5870 C   0  0  0  0  0  3  0  0  0  0  0  0
  -24.4910   -8.3360   21.5370 C   0  0  0  0  0  0  0  0  0  0  0  0
  -24.4270   -9.0540   20.3310 C   0  0  0  0  0  3  0  0  0  0  0  0
  -25.1570  -10.2410   20.1730 C   0  0  0  0  0  3  0  0  0  0  0  0
  -23.7650   -7.1740   21.5950 O   0  0  0  0  0  0  0  0  0  0  0  0
  -22.8330   -6.9630   22.5770 C   0  0  0  0  0  0  0  0  0  0  0  0
  -21.7650   -7.8600   22.7950 C   0  0  0  0  0  3  0  0  0  0  0  0
  -20.7910   -7.5690   23.7700 C   0  0  0  0  0  3  0  0  0  0  0  0
  -20.8790   -6.3810   24.5190 C   0  0  0  0  0  0  0  0  0  0  0  0
  -21.9400   -5.4850   24.3000 C   0  0  0  0  0  3  0  0  0  0  0  0
  -22.9140   -5.7760   23.3300 C   0  0  0  0  0  0  0  0  0  0  0  0
  -23.9250   -4.9020   23.1060 F   0  0  0  0  0  0  0  0  0  0  0  0
  -19.9380   -6.0950   25.4490 F   0  0  0  0  0  0  0  0  0  0  0  0
  -24.8130  -13.8220   21.2860 C   0  0  0  0  0  0  0  0  0  0  0  0
  -24.0880  -13.1700   22.1850 N   0  0  0  0  0  0  0  0  0  0  0  0
  -24.3880  -14.8350   20.7290 O   0  0  0  0  0  0  0  0  0  0  0  0
  -24.4520  -12.3550   22.6560 H   0  0  0  0  0  0  0  0  0  0  0  0
  -23.1560  -13.4890   22.4090 H   0  0  0  0  0  0  0  0  0  0  0  0
  -27.3580  -15.3710   20.2480 N   0  0  0  0  0  0  0  0  0  0  0  0
  -26.5620  -15.9950   20.2950 H   0  0  0  0  0  0  0  0  0  0  0  0
  -28.1880  -15.7930   19.8540 H   0  0  0  0  0  0  0  0  0  0  0  0
  -22.3840  -24.9520   19.1680 C   0  0  0  0  0  2  0  0  0  0  0  0
  -21.2340  -26.2700   18.2150 C   0  0  0  0  0  3  0  0  0  0  0  0
  -22.2850  -27.3510   15.7580 C   0  0  0  0  0  2  0  0  0  0  0  0
  -24.2580  -26.9890   15.2970 C   0  0  0  0  0  1  0  0  0  0  0  0
  -25.8480  -26.2370   15.8500 O   0  0  0  0  0  0  0  0  0  0  0  0
  -26.0850  -28.1600   20.9620 C   0  0  0  0  0  0  0  0  0  0  0  0
  -27.2830  -26.4320   15.6730 C   0  0  0  0  0  3  0  0  0  0  0  0
  -25.0580  -28.6820   18.8150 C   0  0  0  0  0  3  0  0  0  0  0  0
  -26.5760  -28.6510   16.7130 C   0  0  0  0  0  3  0  0  0  0  0  0
  -27.5610  -28.2440   18.9580 C   0  0  0  0  0  2  0  0  0  0  0  0
  -27.4350  -27.8840   17.4990 C   0  0  0  0  0  3  0  0  0  0  0  0
  -27.9870  -26.7490   16.8800 C   0  0  0  0  0  2  0  0  0  0  0  0
  -27.3440  -27.4280   14.7410 C   0  0  0  0  0  2  0  0  0  0  0  0
  -26.7130  -28.5560   15.2930 C   0  0  0  0  0  2  0  0  0  0  0  0
  -25.4590  -29.3570   17.4490 C   0  0  0  0  0  2  0  0  0  0  0  0
  -26.2550  -28.3910   19.6350 N   0  0  0  0  0  0  0  0  0  0  0  0
  -24.9740  -28.2800   21.5030 O   0  0  0  0  0  0  0  0  0  0  0  0
  -24.2630  -27.3500   18.7490 C   0  0  0  0  0  0  0  0  0  0  0  0
  -23.0260  -27.3120   19.1530 N   0  0  0  0  0  4  0  0  0  0  0  0
  -24.7750  -26.2860   18.4290 O   0  0  0  0  0  0  0  0  0  0  0  0
  -22.6040  -28.1460   19.5360 H   0  0  0  0  0  0  0  0  0  0  0  0
  -19.4400  -27.5050   18.6330 C   0  0  0  0  0  0  0  0  0  0  0  0
  -22.1080  -26.2560   18.6790 C   0  0  0  0  0  0  0  0  0  0  0  0
  -22.3120  -25.7070   16.6830 C   0  0  0  0  0  2  0  0  0  0  0  0
  -20.4950  -26.6250   15.5280 C   0  0  0  0  0  1  0  0  0  0  0  0
  -19.2240  -27.4830   16.8570 C   0  0  0  0  0  1  0  0  0  0  0  0
  -20.6820  -27.0270   19.3650 C   0  0  0  0  0  0  0  0  0  0  0  0
  -20.7330  -27.3110   20.7940 C   0  0  0  0  0  3  0  0  0  0  0  0
  -19.6890  -27.8670   21.5780 C   0  0  0  0  0  3  0  0  0  0  0  0
  -18.4680  -28.1350   20.9480 C   0  0  0  0  0  3  0  0  0  0  0  0
  -18.3640  -27.9550   19.5300 C   0  0  0  0  0  3  0  0  0  0  0  0
  -27.2850  -27.7590   21.8520 C   0  0  0  0  0  3  0  0  0  0  0  0
  -27.1820  -28.5750   23.0640 N   0  0  0  0  0  0  0  0  0  0  0  0
  -27.8930  -29.6860   23.2850 C   0  0  0  0  0  0  0  0  0  0  0  0
  -28.7780  -30.0790   22.5170 O   0  0  0  0  0  0  0  0  0  0  0  0
  -26.4430  -28.3410   23.7090 H   0  0  0  0  0  0  0  0  0  0  0  0
  -26.7700  -31.7380   24.2030 C   0  0  0  0  0  1  0  0  0  0  0  0
  -27.5780  -30.4820   24.5630 C   0  0  0  0  0  3  0  0  0  0  0  0
  -29.4650  -29.7240   25.9350 C   0  0  0  0  0  1  0  0  0  0  0  0
  -28.7850  -30.8630   25.3250 N   0  0  0  0  0  0  0  0  0  0  0  0
  -28.5510  -31.5230   26.0610 H   0  0  0  0  0  0  0  0  0  0  0  0
  -27.3160  -26.2240   22.2040 C   0  0  1  0  0  0  0  0  0  0  0  0
  -25.9730  -25.6730   22.7340 C   0  0  0  0  0  1  0  0  0  0  0  0
  -27.7120  -25.3740   20.9730 C   0  0  0  0  0  1  0  0  0  0  0  0
  -28.4020  -25.9720   23.2750 C   0  0  0  0  0  1  0  0  0  0  0  0
  1  3  2  0
  2 52  1  0
  2  1  1  0
  4  2  1  0
  6  9  1  0
  8 11  1  0
  8  5  1  0
  8  1  1  0
  9 22  1  0
  9  7  1  0
 10 12  1  6
 10  6  1  0
 10 11  1  0
 10  5  1  0
 11 13  1  6
 11  7  1  0
 14 20  1  0
 15 20  1  0
 16 17  1  0
 16 15  1  0
 18 17  1  0
 18 27  1  0
 18 19  1  0
 20 19  1  0
 21 14  2  0
 22 14  1  0
 23 22  1  0
 24 25  2  0
 25 26  1  0
 25 44  1  0
 26 29  1  0
 27 24  1  0
 27 28  1  0
 28 26  2  0
 29 30  1  0
 30 31  2  0
 32 35  1  0
 32 31  1  0
 33 32  2  0
 34 33  1  0
 34 29  2  0
 35 36  1  0
 36 37  2  0
 36 41  1  0
 37 38  1  0
 38 39  2  0
 39 43  1  0
 40 39  1  0
 41 40  2  0
 42 41  1  0
 44 45  1  0
 45 48  1  0
 45 47  1  0
 46 44  2  0
 49 50  1  0
 49 24  1  0
 51 49  1  0
 53 75  1  0
 53 74  1  0
 53 78  1  0
 54 75  1  0
 55 56  1  0
 57 68  2  0
 58 56  1  0
 58 63  1  0
 59 69  1  0
 59 67  1  0
 60 65  1  0
 60 66  1  0
 60 62  1  0
 61 67  1  0
 62 63  1  0
 62 61  1  0
 64 65  1  0
 64 58  1  0
 66 59  1  0
 67 57  1  0
 69 70  1  0
 70 72  1  0
 71 69  2  0
 73 78  2  0
 73 82  1  0
 74 70  2  0
 74 52  1  0
 76 54  1  0
 77 73  1  0
 78 79  1  0
 79 80  2  0
 81 80  1  0
 82 81  2  0
 83 57  1  0
 83 93  1  0
 83 84  1  0
 84 85  1  0
 84 87  1  0
 85 89  1  0
 86 85  2  0
 89 88  1  0
 89 91  1  0
 91 90  1  0
 91 92  1  0
 93 94  1  1
 93 96  1  0
 95 93  1  0
M  ISO  4  14 100  22 100  55 101  56 101
M  END
>  <TORSDO>  (42) 
F 21

>  <SCORE>  (42) 
-6.432

>  <name>  (42) 
41

>  <ligand_id>  (42) 
41

>  <original_smiles>  (42) 
[H]c1c([H])c([H])c2c(c1[H])C([H])([H])C([H])([H])C([H])([H])C2([H])N([H])C(=O)C1([H])N(C(=O)C([H])(N([H])C(=O)C([H])(N([H])C([H])([H])[H])C([H])([H])[H])C(C([H])([H])[H])(C([H])([H])[H])C([H])([H])[H])C([H])([H])c2c([H])c(OC([H])([H])C([H])([H])C([H])([H])C([H])([H])N([H])C(=O)C3([H])C([H])([H])C4(C([H])([H])[H])C([H])([H])C([H])(N([H])C(=O)N5C([H])([H])C([H])([H])C([H])([H])C([H])(n6nc(-c7c([H])c([H])c(Oc8c([H])c([H])c(F)c([H])c8F)c([H])c7[H])c(C(=O)N([H])[H])c6N([H])[H])C5([H])[H])C([H])([H])C34C([H])([H])[H])c([H])c([H])c2C1([H])[H]

>  <smiles>  (42) 
[H]c1c([H])c([H])c2c(c1[H])C([H])([H])C([H])([H])C([H])([H])C2([H])N([H])C(=O)C1([H])N(C(=O)C([H])(N([H])C(=O)C([H])(N([H])C([H])([H])[H])C([H])([H])[H])C(C([H])([H])[H])(C([H])([H])[H])C([H])([H])[H])C([H])([H])c2c([H])c(OC([H])([H])C([H])([H])C([H])([H])C([H])([H])N([H])C(=O)C3([H])C([H])([H])C4(C([H])([H])[H])C([H])([H])C([H])(N([H])C(=O)N5C([H])([H])C([H])([H])C([H])([H])C([H])(n6nc(-c7c([H])c([H])c(Oc8c([H])c([H])c(F)c([H])c8F)c([H])c7[H])c(C(=O)N([H])[H])c6N([H])[H])C5([H])[H])C([H])([H])C34C([H])([H])[H])c([H])c([H])c2C1([H])[H]

$$$$
42:0:0
     RDKit          3D

 82 86  0  0  1  0  0  0  0  0999 V2000
  -28.1400  -24.4970   20.3040 O   0  0  0  0  0  1  0  0  0  0  0  0
  -24.7390  -31.7570   23.0960 C   0  0  0  0  0  0  0  0  0  0  0  0
  -27.2420  -26.0260   20.2660 C   0  0  0  0  0  0  0  0  0  0  0  0
  -23.5860  -30.3180   21.4810 C   0  0  0  0  0  3  0  0  0  0  0  0
  -25.0420  -28.5030   20.1500 C   0  0  0  0  0  0  0  0  0  0  0  0
  -26.1880  -30.2500   21.4590 C   0  0  0  0  0  2  0  0  0  0  0  0
  -26.2460  -28.7310   20.8250 C   0  0  0  0  0  0  0  0  0  0  0  0
  -27.2910  -27.5510   20.8290 C   0  0  0  0  0  3  0  0  0  0  0  0
  -25.9990  -26.1910   19.5270 C   0  0  0  0  0  3  0  0  0  0  0  0
  -25.0000  -27.2610   19.4750 C   0  0  0  0  0  3  0  0  0  0  0  0
  -23.8680  -29.5400   20.1500 C   0  0  0  0  0  2  0  0  0  0  0  0
  -24.8710  -30.8270   22.0630 N   0  0  0  0  0  0  0  0  0  0  0  0
  -23.6300  -32.0960   23.5550 O   0  0  0  0  0  0  0  0  0  0  0  0
  -22.7930  -29.4250   22.4790 C   0  0  0  0  0  0  0  0  0  0  0  0
  -21.4510  -29.3290   22.3620 N   0  0  0  0  0  0  0  0  0  0  0  0
  -23.4120  -28.8030   23.3460 O   0  0  0  0  0  0  0  0  0  0  0  0
  -20.9920  -29.8770   21.6490 H   0  0  0  0  0  0  0  0  0  0  0  0
  -18.0290  -28.1840   22.9210 C   0  0  0  0  0  0  0  0  0  0  0  0
  -20.6000  -28.4180   23.1470 C   0  0  0  0  0  3  0  0  0  0  0  0
  -20.6650  -26.9780   22.5830 C   0  0  0  0  0  2  0  0  0  0  0  0
  -19.5510  -26.6730   21.5780 C   0  0  0  0  0  2  0  0  0  0  0  0
  -18.1780  -26.8360   22.2340 C   0  0  0  0  0  2  0  0  0  0  0  0
  -19.1640  -28.9340   23.3330 C   0  0  0  0  0  0  0  0  0  0  0  0
  -18.9630  -30.1900   23.9470 C   0  0  0  0  0  3  0  0  0  0  0  0
  -17.6650  -30.6970   24.1440 C   0  0  0  0  0  3  0  0  0  0  0  0
  -16.5470  -29.9460   23.7410 C   0  0  0  0  0  3  0  0  0  0  0  0
  -16.7310  -28.6910   23.1360 C   0  0  0  0  0  3  0  0  0  0  0  0
  -25.9660  -32.4540   23.7650 C   0  0  0  0  0  3  0  0  0  0  0  0
  -25.6060  -33.8540   24.1100 N   0  0  0  0  0  0  0  0  0  0  0  0
  -25.9230  -34.9470   23.3990 C   0  0  0  0  0  0  0  0  0  0  0  0
  -26.5850  -34.8840   22.3610 O   0  0  0  0  0  0  0  0  0  0  0  0
  -25.0090  -33.9720   24.9150 H   0  0  0  0  0  0  0  0  0  0  0  0
  -24.1600  -36.7410   23.1590 C   0  0  0  0  0  1  0  0  0  0  0  0
  -25.4360  -36.3240   23.9100 C   0  0  0  0  0  3  0  0  0  0  0  0
  -27.5840  -37.2400   24.6830 C   0  0  0  0  0  1  0  0  0  0  0  0
  -26.4470  -37.3990   23.7810 N   0  0  0  0  0  0  0  0  0  0  0  0
  -26.0290  -38.3090   23.9560 H   0  0  0  0  0  0  0  0  0  0  0  0
  -26.4490  -31.7170   25.0780 C   0  0  1  0  0  0  0  0  0  0  0  0
  -25.3280  -31.4990   26.1240 C   0  0  0  0  0  1  0  0  0  0  0  0
  -27.0480  -30.3330   24.7540 C   0  0  0  0  0  1  0  0  0  0  0  0
  -27.5790  -32.5300   25.7520 C   0  0  0  0  0  1  0  0  0  0  0  0
  -28.1180  -22.3580   20.2130 C   0  0  0  0  0 15  0  0  0  0  0  0
  -29.0660  -18.5750   20.2070 C   0  0  0  0  0  1  0  0  0  0  0  0
  -29.1100  -20.3390   20.2280 C   0  0  0  0  0  2  0  0  0  0  0  0
  -29.8940  -16.7350   20.1760 C   0  0  0  0  0  2  0  0  0  0  0  0
  -30.3160  -13.9260   19.4650 C   0  0  0  0  0  2  0  0  0  0  0  0
  -29.5910  -13.0610   18.3440 C   0  0  0  0  0  2  0  0  0  0  0  0
  -28.2660  -12.4660   18.8210 C   0  0  0  0  0  2  0  0  0  0  0  0
  -27.5790  -13.5010   19.7210 C   0  0  0  0  0  3  0  0  0  0  0  0
  -28.4950  -14.2390   20.7700 C   0  0  0  0  0  2  0  0  0  0  0  0
  -29.5120  -15.1750   20.0970 N   0  0  0  0  0  0  0  0  0  0  0  0
  -31.1410  -16.4840   20.0980 O   0  0  0  0  0  1  0  0  0  0  0  0
  -25.2050  -13.8820   20.4610 C   0  0  0  0  0  0  0  0  0  0  0  0
  -24.1690  -13.0700   20.8120 C   0  0  0  0  0  0  0  0  0  0  0  0
  -24.6830  -11.7350   20.7970 C   0  0  0  0  0  0  0  0  0  0  0  0
  -26.2890  -13.0590   20.2480 N   0  0  0  0  0  0  0  0  0  0  0  0
  -25.9880  -11.7500   20.5020 N   0  0  0  0  0  0  0  0  0  0  0  0
  -23.9760  -10.4550   20.9860 C   0  0  0  0  0  0  0  0  0  0  0  0
  -24.4000   -9.5030   21.9400 C   0  0  0  0  0  3  0  0  0  0  0  0
  -23.6810   -8.3010   22.1260 C   0  0  0  0  0  3  0  0  0  0  0  0
  -22.5210   -8.0380   21.3570 C   0  0  0  0  0  0  0  0  0  0  0  0
  -22.1130   -8.9790   20.3950 C   0  0  0  0  0  3  0  0  0  0  0  0
  -22.8330  -10.1720   20.2090 C   0  0  0  0  0  3  0  0  0  0  0  0
  -21.7770   -6.8860   21.4480 O   0  0  0  0  0  0  0  0  0  0  0  0
  -21.7190   -6.1530   22.6070 C   0  0  0  0  0  0  0  0  0  0  0  0
  -21.2740   -6.7170   23.8230 C   0  0  0  0  0  3  0  0  0  0  0  0
  -21.1640   -5.9110   24.9740 C   0  0  0  0  0  3  0  0  0  0  0  0
  -21.4890   -4.5440   24.9110 C   0  0  0  0  0  0  0  0  0  0  0  0
  -21.9280   -3.9790   23.7010 C   0  0  0  0  0  3  0  0  0  0  0  0
  -22.0390   -4.7810   22.5510 C   0  0  0  0  0  0  0  0  0  0  0  0
  -22.4400   -4.2270   21.3820 F   0  0  0  0  0  0  0  0  0  0  0  0
  -21.3770   -3.7680   26.0150 F   0  0  0  0  0  0  0  0  0  0  0  0
  -22.7550  -13.5120   21.0440 C   0  0  0  0  0  0  0  0  0  0  0  0
  -22.0280  -12.8180   21.9100 N   0  0  0  0  0  0  0  0  0  0  0  0
  -22.3050  -14.5160   20.4930 O   0  0  0  0  0  0  0  0  0  0  0  0
  -22.4070  -12.0080   22.3790 H   0  0  0  0  0  0  0  0  0  0  0  0
  -21.0800  -13.1000   22.1100 H   0  0  0  0  0  0  0  0  0  0  0  0
  -25.3150  -15.2560   20.2650 N   0  0  0  0  0  0  0  0  0  0  0  0
  -24.5180  -15.8790   20.3480 H   0  0  0  0  0  0  0  0  0  0  0  0
  -26.1520  -15.7240   19.9410 H   0  0  0  0  0  0  0  0  0  0  0  0
  -30.3850  -20.7490   20.2590 O   0  0  0  0  0  0  0  0  0  0  0  0
  -30.3820  -21.7000   20.2650 H   0  0  0  0  0  0  0  0  0  0  0  0
  2 13  2  0
  3  1  1  0
  3  8  1  0
  4 12  1  0
  4 14  1  0
  5 11  1  0
  5  7  1  0
  6 12  1  0
  7  8  2  0
  7  6  1  0
  9  3  2  0
 10  9  1  0
 10  5  2  0
 11  4  1  0
 12  2  1  0
 14 16  2  0
 15 14  1  0
 17 15  1  0
 18 27  2  0
 18 23  1  0
 19 15  1  0
 19 23  1  0
 20 19  1  0
 21 22  1  0
 21 20  1  0
 22 18  1  0
 23 24  2  0
 24 25  1  0
 26 25  2  0
 27 26  1  0
 28  2  1  0
 28 29  1  0
 28 38  1  0
 29 32  1  0
 30 34  1  0
 30 29  1  0
 31 30  2  0
 34 33  1  0
 36 34  1  0
 36 37  1  0
 36 35  1  0
 38 41  1  1
 38 39  1  0
 40 38  1  0
 43 44  1  0
 44 81  1  0
 46 51  1  0
 47 48  1  0
 47 46  1  0
 49 48  1  0
 49 56  1  0
 49 50  1  0
 51 45  1  0
 51 50  1  0
 52 45  1  0
 53 54  2  0
 54 73  1  0
 55 54  1  0
 55 58  1  0
 56 53  1  0
 56 57  1  0
 57 55  2  0
 58 59  1  0
 59 60  2  0
 61 64  1  0
 61 60  1  0
 62 61  2  0
 63 62  1  0
 63 58  2  0
 64 65  1  0
 65 66  1  0
 66 67  2  0
 68 67  1  0
 68 72  1  0
 69 68  2  0
 70 65  2  0
 70 69  1  0
 71 70  1  0
 73 74  1  0
 74 77  1  0
 74 76  1  0
 75 73  2  0
 78 79  1  0
 78 53  1  0
 80 78  1  0
 81 82  1  0
M  ISO  4   1 101  42 101  43 100  45 100
M  END
>  <TORSDO>  (43) 
F 18

>  <SCORE>  (43) 
-16.106

>  <name>  (43) 
42

>  <ligand_id>  (43) 
42

>  <original_smiles>  (43) 
[H]OC(=C([H])C(=O)N1C([H])([H])C([H])([H])C([H])([H])C([H])(n2nc(-c3c([H])c([H])c(Oc4c([H])c([H])c(F)c([H])c4F)c([H])c3[H])c(C(=O)N([H])[H])c2N([H])[H])C1([H])[H])C([H])([H])Oc1c([H])c([H])c2c(c1[H])C([H])([H])N(C(=O)C([H])(N([H])C(=O)C([H])(N([H])C([H])([H])[H])C([H])([H])[H])C(C([H])([H])[H])(C([H])([H])[H])C([H])([H])[H])C([H])(C(=O)N([H])C1([H])c3c([H])c([H])c([H])c([H])c3C([H])([H])C([H])([H])C1([H])[H])C2([H])[H]

>  <smiles>  (43) 
[H]OC(=C([H])C(=O)N1C([H])([H])C([H])([H])C([H])([H])C([H])(n2nc(-c3c([H])c([H])c(Oc4c([H])c([H])c(F)c([H])c4F)c([H])c3[H])c(C(=O)N([H])[H])c2N([H])[H])C1([H])[H])C([H])([H])Oc1c([H])c([H])c2c(c1[H])C([H])([H])N(C(=O)C([H])(N([H])C(=O)C([H])(N([H])C([H])([H])[H])C([H])([H])[H])C(C([H])([H])[H])(C([H])([H])[H])C([H])([H])[H])C([H])(C(=O)N([H])C1([H])c3c([H])c([H])c([H])c([H])c3C([H])([H])C([H])([H])C1([H])[H])C2([H])[H]

$$$$
43:0:0
     RDKit          3D

 86 93  0  0  1  0  0  0  0  0999 V2000
  -28.5100  -21.8570   20.2920 C   0  0  0  0  0  2  0  0  0  0  0  0
  -29.5460  -20.5480   20.3860 C   0  0  0  0  0  3  0  0  0  0  0  0
  -29.1050  -18.9290   20.4160 C   0  0  0  0  0  3  0  0  0  0  0  0
  -30.9070  -17.8310   18.9330 C   0  0  0  0  0  1  0  0  0  0  0  0
  -30.1840  -17.6550   20.2820 C   0  0  0  0  0  3  0  0  0  0  0  0
  -30.5290  -14.9410   20.3290 C   0  0  0  0  0  0  0  0  0  0  0  0
  -30.3570  -12.6160   19.3700 C   0  0  0  0  0  2  0  0  0  0  0  0
  -29.4130  -12.6030   18.1470 C   0  0  0  0  0  2  0  0  0  0  0  0
  -27.9540  -12.4000   18.5960 C   0  0  0  0  0  2  0  0  0  0  0  0
  -27.5640  -13.3180   19.7850 C   0  0  0  0  0  3  0  0  0  0  0  0
  -28.6310  -13.3150   20.8990 C   0  0  0  0  0  2  0  0  0  0  0  0
  -29.9020  -13.7030   20.2770 N   0  0  0  0  0  0  0  0  0  0  0  0
  -31.7350  -14.9750   20.0690 O   0  0  0  0  0  0  0  0  0  0  0  0
  -29.7800  -16.1400   20.4450 N   0  0  0  0  0  0  0  0  0  0  0  0
  -28.7990  -15.9840   20.6220 H   0  0  0  0  0  0  0  0  0  0  0  0
  -25.1910  -13.8910   20.5550 C   0  0  0  0  0  0  0  0  0  0  0  0
  -24.1300  -13.1130   20.9280 C   0  0  0  0  0  0  0  0  0  0  0  0
  -24.5950  -11.7620   20.8790 C   0  0  0  0  0  0  0  0  0  0  0  0
  -26.2310  -13.0160   20.2960 N   0  0  0  0  0  0  0  0  0  0  0  0
  -25.8830  -11.7290   20.5560 N   0  0  0  0  0  0  0  0  0  0  0  0
  -23.8690  -10.4970   21.0610 C   0  0  0  0  0  0  0  0  0  0  0  0
  -24.3000   -9.5260   21.9920 C   0  0  0  0  0  3  0  0  0  0  0  0
  -23.5730   -8.3270   22.1630 C   0  0  0  0  0  3  0  0  0  0  0  0
  -22.4020   -8.0930   21.4030 C   0  0  0  0  0  0  0  0  0  0  0  0
  -21.9910   -9.0520   20.4620 C   0  0  0  0  0  3  0  0  0  0  0  0
  -22.7180  -10.2420   20.2890 C   0  0  0  0  0  3  0  0  0  0  0  0
  -21.6470   -6.9470   21.4840 O   0  0  0  0  0  0  0  0  0  0  0  0
  -21.5810   -6.2090   22.6380 C   0  0  0  0  0  0  0  0  0  0  0  0
  -21.1120   -6.7590   23.8500 C   0  0  0  0  0  3  0  0  0  0  0  0
  -20.9960   -5.9460   24.9940 C   0  0  0  0  0  3  0  0  0  0  0  0
  -21.3380   -4.5830   24.9280 C   0  0  0  0  0  0  0  0  0  0  0  0
  -21.8010   -4.0310   23.7210 C   0  0  0  0  0  3  0  0  0  0  0  0
  -21.9190   -4.8410   22.5780 C   0  0  0  0  0  0  0  0  0  0  0  0
  -22.3450   -4.2990   21.4110 F   0  0  0  0  0  0  0  0  0  0  0  0
  -21.2200   -3.7980   26.0250 F   0  0  0  0  0  0  0  0  0  0  0  0
  -22.7350  -13.5870   21.2150 C   0  0  0  0  0  0  0  0  0  0  0  0
  -22.0160  -12.8860   22.0850 N   0  0  0  0  0  0  0  0  0  0  0  0
  -22.2920  -14.6140   20.7030 O   0  0  0  0  0  0  0  0  0  0  0  0
  -22.3860  -12.0550   22.5210 H   0  0  0  0  0  0  0  0  0  0  0  0
  -21.0800  -13.1860   22.3180 H   0  0  0  0  0  0  0  0  0  0  0  0
  -25.3510  -15.2640   20.3900 N   0  0  0  0  0  0  0  0  0  0  0  0
  -24.5800  -15.9130   20.5080 H   0  0  0  0  0  0  0  0  0  0  0  0
  -26.1850  -15.7060   20.0270 H   0  0  0  0  0  0  0  0  0  0  0  0
  -28.9630  -23.4670   20.3790 C   0  0  0  0  0  3  0  0  0  0  0  0
  -27.9310  -24.7530   20.1240 C   0  0  0  0  0  3  0  0  0  0  0  0
  -28.2320  -26.2610   20.2840 O   0  0  0  0  0  0  0  0  0  0  0  0
  -24.6290  -31.9180   23.2750 C   0  0  0  0  0  0  0  0  0  0  0  0
  -27.1740  -27.2310   20.2190 C   0  0  0  0  0  0  0  0  0  0  0  0
  -23.4150  -30.5330   21.6360 C   0  0  0  0  0  3  0  0  0  0  0  0
  -24.8500  -28.9630   20.2020 C   0  0  0  0  0  0  0  0  0  0  0  0
  -25.9680  -30.7980   21.4590 C   0  0  0  0  0  2  0  0  0  0  0  0
  -26.0330  -29.4100   20.8030 C   0  0  0  0  0  0  0  0  0  0  0  0
  -27.1980  -28.5590   20.7960 C   0  0  0  0  0  3  0  0  0  0  0  0
  -25.9640  -26.8780   19.5800 C   0  0  0  0  0  3  0  0  0  0  0  0
  -24.8260  -27.7100   19.5760 C   0  0  0  0  0  3  0  0  0  0  0  0
  -23.6270  -29.8630   20.2540 C   0  0  0  0  0  2  0  0  0  0  0  0
  -24.6910  -31.1040   22.1780 N   0  0  0  0  0  0  0  0  0  0  0  0
  -23.5470  -32.2050   23.8090 O   0  0  0  0  0  0  0  0  0  0  0  0
  -22.7380  -29.5230   22.5960 C   0  0  0  0  0  0  0  0  0  0  0  0
  -21.4110  -29.3550   22.4690 N   0  0  0  0  0  0  0  0  0  0  0  0
  -23.4090  -28.8970   23.4200 O   0  0  0  0  0  0  0  0  0  0  0  0
  -20.9260  -29.9120   21.7780 H   0  0  0  0  0  0  0  0  0  0  0  0
  -18.0270  -28.1610   22.9630 C   0  0  0  0  0  0  0  0  0  0  0  0
  -20.5850  -28.4200   23.2380 C   0  0  0  0  0  3  0  0  0  0  0  0
  -20.6880  -26.9870   22.6670 C   0  0  0  0  0  2  0  0  0  0  0  0
  -19.5890  -26.6620   21.6510 C   0  0  0  0  0  2  0  0  0  0  0  0
  -18.2050  -26.8090   22.2900 C   0  0  0  0  0  2  0  0  0  0  0  0
  -19.1450  -28.9230   23.3940 C   0  0  0  0  0  0  0  0  0  0  0  0
  -18.9250  -30.1860   23.9850 C   0  0  0  0  0  3  0  0  0  0  0  0
  -17.6200  -30.6870   24.1480 C   0  0  0  0  0  3  0  0  0  0  0  0
  -16.5170  -29.9210   23.7330 C   0  0  0  0  0  3  0  0  0  0  0  0
  -16.7210  -28.6610   23.1470 C   0  0  0  0  0  3  0  0  0  0  0  0
  -25.9140  -32.5440   23.8980 C   0  0  0  0  0  3  0  0  0  0  0  0
  -25.6110  -33.9450   24.2320 N   0  0  0  0  0  0  0  0  0  0  0  0
  -25.9180  -34.9970   23.4610 C   0  0  0  0  0  0  0  0  0  0  0  0
  -26.5530  -34.8910   22.4090 O   0  0  0  0  0  0  0  0  0  0  0  0
  -25.0420  -34.1010   25.0510 H   0  0  0  0  0  0  0  0  0  0  0  0
  -24.1660  -36.7810   23.1820 C   0  0  0  0  0  1  0  0  0  0  0  0
  -25.4480  -36.3870   23.9330 C   0  0  0  0  0  3  0  0  0  0  0  0
  -27.6130  -37.2940   24.6530 C   0  0  0  0  0  1  0  0  0  0  0  0
  -26.4680  -37.4450   23.7610 N   0  0  0  0  0  0  0  0  0  0  0  0
  -26.0640  -38.3640   23.9160 H   0  0  0  0  0  0  0  0  0  0  0  0
  -26.4230  -31.7710   25.1770 C   0  0  1  0  0  0  0  0  0  0  0  0
  -25.3270  -31.5430   26.2430 C   0  0  0  0  0  1  0  0  0  0  0  0
  -26.9980  -30.3890   24.7910 C   0  0  0  0  0  1  0  0  0  0  0  0
  -27.5790  -32.5590   25.8390 C   0  0  0  0  0  1  0  0  0  0  0  0
  1 44  1  0
  1  2  1  0
  2  3  2  0
  5  4  1  0
  5  3  1  0
  5 14  1  0
  6 14  1  0
  7 12  1  0
  8  9  1  0
  8  7  1  0
 10  9  1  0
 10 19  1  0
 10 11  1  0
 12  6  1  0
 12 11  1  0
 13  6  2  0
 14 15  1  0
 16 17  2  0
 17 36  1  0
 18 17  1  0
 18 21  1  0
 19 16  1  0
 19 20  1  0
 20 18  2  0
 21 22  1  0
 22 23  2  0
 24 27  1  0
 24 23  1  0
 25 24  2  0
 26 25  1  0
 26 21  2  0
 27 28  1  0
 28 29  1  0
 29 30  2  0
 31 30  1  0
 31 35  1  0
 32 31  2  0
 33 28  2  0
 33 32  1  0
 34 33  1  0
 36 37  1  0
 37 40  1  0
 37 39  1  0
 38 36  2  0
 41 42  1  0
 41 16  1  0
 43 41  1  0
 45 46  1  0
 45 44  2  0
 47 58  2  0
 48 46  1  0
 48 53  1  0
 49 57  1  0
 49 59  1  0
 50 56  1  0
 50 52  1  0
 51 57  1  0
 52 51  1  0
 53 52  2  0
 54 48  2  0
 55 54  1  0
 55 50  2  0
 56 49  1  0
 57 47  1  0
 59 61  2  0
 60 59  1  0
 62 60  1  0
 63 72  2  0
 63 68  1  0
 64 60  1  0
 64 68  1  0
 65 64  1  0
 66 67  1  0
 66 65  1  0
 67 63  1  0
 68 69  2  0
 69 70  1  0
 71 70  2  0
 72 71  1  0
 73 47  1  0
 73 74  1  0
 73 83  1  0
 74 77  1  0
 75 79  1  0
 75 74  1  0
 76 75  2  0
 79 78  1  0
 81 82  1  0
 81 79  1  0
 81 80  1  0
 83 86  1  1
 83 84  1  0
 85 83  1  0
M  ISO  4   6 100  14 100  45 101  46 101
M  END
>  <TORSDO>  (44) 
F 21

>  <SCORE>  (44) 
-13.232

>  <name>  (44) 
43

>  <ligand_id>  (44) 
43

>  <original_smiles>  (44) 
[H]c1c([H])c([H])c2c(c1[H])C([H])([H])C([H])([H])C([H])([H])C2([H])N([H])C(=O)C1([H])N(C(=O)C([H])(N([H])C(=O)C([H])(N([H])C([H])([H])[H])C([H])([H])[H])C(C([H])([H])[H])(C([H])([H])[H])C([H])([H])[H])C([H])([H])c2c([H])c(OC([H])([H])C([H])([H])C([H])([H])C([H])([H])C([H])([H])C([H])(N([H])C(=O)N3C([H])([H])C([H])([H])C([H])([H])C([H])(n4nc(-c5c([H])c([H])c(Oc6c([H])c([H])c(F)c([H])c6F)c([H])c5[H])c(C(=O)N([H])[H])c4N([H])[H])C3([H])[H])C([H])([H])[H])c([H])c([H])c2C1([H])[H]

>  <smiles>  (44) 
[H]c1c([H])c([H])c2c(c1[H])C([H])([H])C([H])([H])C([H])([H])C2([H])N([H])C(=O)C1([H])N(C(=O)C([H])(N([H])C(=O)C([H])(N([H])C([H])([H])[H])C([H])([H])[H])C(C([H])([H])[H])(C([H])([H])[H])C([H])([H])[H])C([H])([H])c2c([H])c(OC([H])([H])C([H])([H])C([H])([H])C([H])([H])C([H])([H])C([H])(N([H])C(=O)N3C([H])([H])C([H])([H])C([H])([H])C([H])(n4nc(-c5c([H])c([H])c(Oc6c([H])c([H])c(F)c([H])c6F)c([H])c5[H])c(C(=O)N([H])[H])c4N([H])[H])C3([H])[H])C([H])([H])[H])c([H])c([H])c2C1([H])[H]

$$$$
44:0:0
     RDKit          3D

 87 94  0  0  1  0  0  0  0  0999 V2000
  -28.6430  -21.9640   20.2810 C   0  0  0  0  0  3  0  0  0  0  0  0
  -28.9050  -23.3670   20.2640 C   0  0  0  0  0  3  0  0  0  0  0  0
  -29.2280  -19.3190   20.3930 C   0  0  0  0  0  3  0  0  0  0  0  0
  -29.5720  -20.7070   20.3650 C   0  0  0  0  0  0  0  0  0  0  0  0
  -30.1300  -17.9770   20.4210 C   0  0  0  0  0  0  0  0  0  0  0  0
  -31.3520  -18.0980   20.2930 O   0  0  0  0  0  0  0  0  0  0  0  0
  -29.6020  -16.4110   20.6170 C   0  0  0  0  0  2  0  0  0  0  0  0
  -30.4740  -15.0080   20.3460 C   0  0  0  0  0  0  0  0  0  0  0  0
  -30.3750  -12.6590   19.3750 C   0  0  0  0  0  2  0  0  0  0  0  0
  -29.4320  -12.6500   18.1460 C   0  0  0  0  0  2  0  0  0  0  0  0
  -27.9680  -12.4330   18.5780 C   0  0  0  0  0  2  0  0  0  0  0  0
  -27.5700  -13.3340   19.7750 C   0  0  0  0  0  3  0  0  0  0  0  0
  -28.6310  -13.3180   20.8950 C   0  0  0  0  0  2  0  0  0  0  0  0
  -29.9100  -13.7300   20.3030 N   0  0  0  0  0  0  0  0  0  0  0  0
  -31.6690  -15.0710   20.0300 O   0  0  0  0  0  0  0  0  0  0  0  0
  -25.1880  -13.9000   20.5240 C   0  0  0  0  0  0  0  0  0  0  0  0
  -24.1290  -13.1200   20.8950 C   0  0  0  0  0  0  0  0  0  0  0  0
  -24.6000  -11.7710   20.8620 C   0  0  0  0  0  0  0  0  0  0  0  0
  -26.2360  -13.0280   20.2780 N   0  0  0  0  0  0  0  0  0  0  0  0
  -25.8910  -11.7420   20.5480 N   0  0  0  0  0  0  0  0  0  0  0  0
  -23.8790  -10.5050   21.0520 C   0  0  0  0  0  0  0  0  0  0  0  0
  -24.3200   -9.5350   21.9790 C   0  0  0  0  0  3  0  0  0  0  0  0
  -23.5980   -8.3360   22.1570 C   0  0  0  0  0  3  0  0  0  0  0  0
  -22.4210   -8.0960   21.4090 C   0  0  0  0  0  0  0  0  0  0  0  0
  -21.9990   -9.0560   20.4710 C   0  0  0  0  0  3  0  0  0  0  0  0
  -22.7220  -10.2460   20.2900 C   0  0  0  0  0  3  0  0  0  0  0  0
  -21.6700   -6.9490   21.4970 O   0  0  0  0  0  0  0  0  0  0  0  0
  -21.6340   -6.2000   22.6460 C   0  0  0  0  0  0  0  0  0  0  0  0
  -21.2090   -6.7440   23.8770 C   0  0  0  0  0  3  0  0  0  0  0  0
  -21.1210   -5.9200   25.0170 C   0  0  0  0  0  3  0  0  0  0  0  0
  -21.4450   -4.5540   24.9260 C   0  0  0  0  0  0  0  0  0  0  0  0
  -21.8630   -4.0090   23.7000 C   0  0  0  0  0  3  0  0  0  0  0  0
  -21.9530   -4.8300   22.5620 C   0  0  0  0  0  0  0  0  0  0  0  0
  -22.3350   -4.2950   21.3770 F   0  0  0  0  0  0  0  0  0  0  0  0
  -21.3530   -3.7600   26.0200 F   0  0  0  0  0  0  0  0  0  0  0  0
  -22.7300  -13.5900   21.1690 C   0  0  0  0  0  0  0  0  0  0  0  0
  -22.0090  -12.8930   22.0400 N   0  0  0  0  0  0  0  0  0  0  0  0
  -22.2850  -14.6110   20.6450 O   0  0  0  0  0  0  0  0  0  0  0  0
  -22.3810  -12.0680   22.4850 H   0  0  0  0  0  0  0  0  0  0  0  0
  -21.0700  -13.1910   22.2660 H   0  0  0  0  0  0  0  0  0  0  0  0
  -25.3450  -15.2720   20.3490 N   0  0  0  0  0  0  0  0  0  0  0  0
  -24.5750  -15.9220   20.4670 H   0  0  0  0  0  0  0  0  0  0  0  0
  -26.1910  -15.7160   20.0160 H   0  0  0  0  0  0  0  0  0  0  0  0
  -30.8770  -21.0050   20.3980 O   0  0  0  0  0  0  0  0  0  0  0  0
  -30.9530  -21.9500   20.3590 H   0  0  0  0  0  0  0  0  0  0  0  0
  -27.8870  -24.6530   20.0870 C   0  0  0  0  0  2  0  0  0  0  0  0
  -28.2280  -26.1680   20.2660 O   0  0  0  0  0  0  0  0  0  0  0  0
  -24.6480  -31.8990   23.2590 C   0  0  0  0  0  0  0  0  0  0  0  0
  -27.1870  -27.1730   20.2040 C   0  0  0  0  0  0  0  0  0  0  0  0
  -23.4340  -30.5140   21.6230 C   0  0  0  0  0  3  0  0  0  0  0  0
  -24.8680  -28.9390   20.1860 C   0  0  0  0  0  0  0  0  0  0  0  0
  -25.9900  -30.7650   21.4480 C   0  0  0  0  0  2  0  0  0  0  0  0
  -26.0540  -29.3750   20.7910 C   0  0  0  0  0  0  0  0  0  0  0  0
  -27.2150  -28.5080   20.7820 C   0  0  0  0  0  3  0  0  0  0  0  0
  -25.9710  -26.8460   19.5590 C   0  0  0  0  0  3  0  0  0  0  0  0
  -24.8410  -27.6890   19.5530 C   0  0  0  0  0  3  0  0  0  0  0  0
  -23.6460  -29.8430   20.2410 C   0  0  0  0  0  2  0  0  0  0  0  0
  -24.7120  -31.0810   22.1640 N   0  0  0  0  0  0  0  0  0  0  0  0
  -23.5660  -32.1880   23.7920 O   0  0  0  0  0  0  0  0  0  0  0  0
  -22.7550  -29.5070   22.5840 C   0  0  0  0  0  0  0  0  0  0  0  0
  -21.4270  -29.3340   22.4540 N   0  0  0  0  0  0  0  0  0  0  0  0
  -23.4240  -28.8850   23.4130 O   0  0  0  0  0  0  0  0  0  0  0  0
  -20.9420  -29.8870   21.7610 H   0  0  0  0  0  0  0  0  0  0  0  0
  -18.0490  -28.1160   22.9380 C   0  0  0  0  0  0  0  0  0  0  0  0
  -20.6040  -28.3990   23.2260 C   0  0  0  0  0  3  0  0  0  0  0  0
  -20.7200  -26.9620   22.6650 C   0  0  0  0  0  2  0  0  0  0  0  0
  -19.6290  -26.6220   21.6440 C   0  0  0  0  0  2  0  0  0  0  0  0
  -18.2410  -26.7630   22.2750 C   0  0  0  0  0  2  0  0  0  0  0  0
  -19.1580  -28.8910   23.3710 C   0  0  0  0  0  0  0  0  0  0  0  0
  -18.9230  -30.1560   23.9520 C   0  0  0  0  0  3  0  0  0  0  0  0
  -17.6130  -30.6470   24.1050 C   0  0  0  0  0  3  0  0  0  0  0  0
  -16.5190  -29.8700   23.6870 C   0  0  0  0  0  3  0  0  0  0  0  0
  -16.7370  -28.6070   23.1100 C   0  0  0  0  0  3  0  0  0  0  0  0
  -25.9320  -32.5280   23.8820 C   0  0  0  0  0  3  0  0  0  0  0  0
  -25.6250  -33.9260   24.2260 N   0  0  0  0  0  0  0  0  0  0  0  0
  -25.9350  -34.9860   23.4660 C   0  0  0  0  0  0  0  0  0  0  0  0
  -26.5740  -34.8890   22.4160 O   0  0  0  0  0  0  0  0  0  0  0  0
  -25.0530  -34.0730   25.0440 H   0  0  0  0  0  0  0  0  0  0  0  0
  -24.1840  -36.7730   23.1910 C   0  0  0  0  0  1  0  0  0  0  0  0
  -25.4600  -36.3710   23.9480 C   0  0  0  0  0  3  0  0  0  0  0  0
  -27.6220  -37.2680   24.6900 C   0  0  0  0  0  1  0  0  0  0  0  0
  -26.4810  -37.4300   23.7920 N   0  0  0  0  0  0  0  0  0  0  0  0
  -26.0770  -38.3480   23.9560 H   0  0  0  0  0  0  0  0  0  0  0  0
  -26.4470  -31.7500   25.1550 C   0  0  1  0  0  0  0  0  0  0  0  0
  -25.3560  -31.5150   26.2260 C   0  0  0  0  0  1  0  0  0  0  0  0
  -27.0220  -30.3700   24.7620 C   0  0  0  0  0  1  0  0  0  0  0  0
  -27.6030  -32.5360   25.8160 C   0  0  0  0  0  1  0  0  0  0  0  0
  1  4  1  0
  2  1  2  0
  3  5  1  0
  4  3  2  0
  4 44  1  0
  5  7  1  0
  6  5  2  0
  8  7  1  0
  9 14  1  0
 10 11  1  0
 10  9  1  0
 12 11  1  0
 12 19  1  0
 12 13  1  0
 14  8  1  0
 14 13  1  0
 15  8  2  0
 16 17  2  0
 17 36  1  0
 18 17  1  0
 18 21  1  0
 19 16  1  0
 19 20  1  0
 20 18  2  0
 21 22  1  0
 22 23  2  0
 24 27  1  0
 24 23  1  0
 25 24  2  0
 26 25  1  0
 26 21  2  0
 27 28  1  0
 28 29  1  0
 29 30  2  0
 31 30  1  0
 31 35  1  0
 32 31  2  0
 33 28  2  0
 33 32  1  0
 34 33  1  0
 36 37  1  0
 37 40  1  0
 37 39  1  0
 38 36  2  0
 41 42  1  0
 41 16  1  0
 43 41  1  0
 45 44  1  0
 46  2  1  0
 46 47  1  0
 48 59  2  0
 49 47  1  0
 49 54  1  0
 50 58  1  0
 50 60  1  0
 51 57  1  0
 51 53  1  0
 52 58  1  0
 53 52  1  0
 54 53  2  0
 55 49  2  0
 56 55  1  0
 56 51  2  0
 57 50  1  0
 58 48  1  0
 60 62  2  0
 61 60  1  0
 63 61  1  0
 64 73  2  0
 64 69  1  0
 65 61  1  0
 65 69  1  0
 66 65  1  0
 67 68  1  0
 67 66  1  0
 68 64  1  0
 69 70  2  0
 70 71  1  0
 72 71  2  0
 73 72  1  0
 74 48  1  0
 74 75  1  0
 74 84  1  0
 75 78  1  0
 76 80  1  0
 76 75  1  0
 77 76  2  0
 80 79  1  0
 82 80  1  0
 82 83  1  0
 82 81  1  0
 84 87  1  1
 84 85  1  0
 86 84  1  0
M  ISO  4   7 100   8 100  46 101  47 101
M  END
>  <TORSDO>  (45) 
F 21

>  <SCORE>  (45) 
-13.539

>  <name>  (45) 
44

>  <ligand_id>  (45) 
44

>  <original_smiles>  (45) 
[H]OC(=C([H])C(=O)C([H])([H])C(=O)N1C([H])([H])C([H])([H])C([H])([H])C([H])(n2nc(-c3c([H])c([H])c(Oc4c([H])c([H])c(F)c([H])c4F)c([H])c3[H])c(C(=O)N([H])[H])c2N([H])[H])C1([H])[H])C([H])=C([H])C([H])([H])Oc1c([H])c([H])c2c(c1[H])C([H])([H])N(C(=O)C([H])(N([H])C(=O)C([H])(N([H])C([H])([H])[H])C([H])([H])[H])C(C([H])([H])[H])(C([H])([H])[H])C([H])([H])[H])C([H])(C(=O)N([H])C1([H])c3c([H])c([H])c([H])c([H])c3C([H])([H])C([H])([H])C1([H])[H])C2([H])[H]

>  <smiles>  (45) 
[H]OC(=C([H])C(=O)C([H])([H])C(=O)N1C([H])([H])C([H])([H])C([H])([H])C([H])(n2nc(-c3c([H])c([H])c(Oc4c([H])c([H])c(F)c([H])c4F)c([H])c3[H])c(C(=O)N([H])[H])c2N([H])[H])C1([H])[H])C([H])=C([H])C([H])([H])Oc1c([H])c([H])c2c(c1[H])C([H])([H])N(C(=O)C([H])(N([H])C(=O)C([H])(N([H])C([H])([H])[H])C([H])([H])[H])C(C([H])([H])[H])(C([H])([H])[H])C([H])([H])[H])C([H])(C(=O)N([H])C1([H])c3c([H])c([H])c([H])c([H])c3C([H])([H])C([H])([H])C1([H])[H])C2([H])[H]

$$$$
45:0:0
     RDKit          3D

 89 97  0  0  1  0  0  0  0  0999 V2000
  -31.2020  -21.6330   18.9010 C   0  0  0  0  0  3  0  0  0  0  0  0
  -30.4510  -22.7690   19.2680 C   0  0  0  0  0  3  0  0  0  0  0  0
  -30.8430  -20.3410   19.3360 C   0  0  0  0  0  3  0  0  0  0  0  0
  -28.9610  -21.3170   20.5270 C   0  0  0  0  0  3  0  0  0  0  0  0
  -29.2930  -22.6520   20.0720 C   0  0  0  0  0  0  0  0  0  0  0  0
  -29.7260  -20.1430   20.1730 C   0  0  0  0  0  0  0  0  0  0  0  0
  -28.5200  -23.9270   20.4870 C   0  0  0  0  0  0  0  0  0  0  0  0
  -27.8370  -23.9440   21.5170 O   0  0  0  0  0  0  0  0  0  0  0  0
  -28.5260  -25.2230   19.5710 C   0  0  0  0  0  2  0  0  0  0  0  0
  -28.3850  -26.5320   20.2470 O   0  0  0  0  0  0  0  0  0  0  0  0
  -24.6230  -31.8710   23.2390 C   0  0  0  0  0  0  0  0  0  0  0  0
  -27.2270  -27.3170   20.1790 C   0  0  0  0  0  0  0  0  0  0  0  0
  -23.4110  -30.4670   21.6070 C   0  0  0  0  0  3  0  0  0  0  0  0
  -24.8510  -28.9100   20.1810 C   0  0  0  0  0  0  0  0  0  0  0  0
  -25.9460  -30.7870   21.4080 C   0  0  0  0  0  2  0  0  0  0  0  0
  -26.0200  -29.4090   20.7660 C   0  0  0  0  0  0  0  0  0  0  0  0
  -27.2060  -28.6230   20.7580 C   0  0  0  0  0  3  0  0  0  0  0  0
  -26.0290  -26.8530   19.5910 C   0  0  0  0  0  3  0  0  0  0  0  0
  -24.8550  -27.6340   19.5910 C   0  0  0  0  0  3  0  0  0  0  0  0
  -23.6140  -29.7830   20.2300 C   0  0  0  0  0  2  0  0  0  0  0  0
  -24.6790  -31.0610   22.1410 N   0  0  0  0  0  0  0  0  0  0  0  0
  -23.5420  -32.1480   23.7790 O   0  0  0  0  0  0  0  0  0  0  0  0
  -22.7550  -29.4540   22.5760 C   0  0  0  0  0  0  0  0  0  0  0  0
  -21.4290  -29.2760   22.4560 N   0  0  0  0  0  0  0  0  0  0  0  0
  -23.4390  -28.8330   23.3930 O   0  0  0  0  0  0  0  0  0  0  0  0
  -20.9390  -29.8310   21.7670 H   0  0  0  0  0  0  0  0  0  0  0  0
  -18.0550  -28.0750   22.9620 C   0  0  0  0  0  0  0  0  0  0  0  0
  -20.6120  -28.3430   23.2320 C   0  0  0  0  0  3  0  0  0  0  0  0
  -20.7190  -26.9070   22.6680 C   0  0  0  0  0  2  0  0  0  0  0  0
  -19.6190  -26.5740   21.6550 C   0  0  0  0  0  2  0  0  0  0  0  0
  -18.2360  -26.7190   22.2970 C   0  0  0  0  0  2  0  0  0  0  0  0
  -19.1710  -28.8430   23.3860 C   0  0  0  0  0  0  0  0  0  0  0  0
  -18.9480  -30.1090   23.9700 C   0  0  0  0  0  3  0  0  0  0  0  0
  -17.6430  -30.6080   24.1320 C   0  0  0  0  0  3  0  0  0  0  0  0
  -16.5410  -29.8360   23.7240 C   0  0  0  0  0  3  0  0  0  0  0  0
  -16.7470  -28.5710   23.1460 C   0  0  0  0  0  3  0  0  0  0  0  0
  -25.9080  -32.5050   23.8540 C   0  0  0  0  0  3  0  0  0  0  0  0
  -25.5960  -33.9030   24.1870 N   0  0  0  0  0  0  0  0  0  0  0  0
  -25.9250  -34.9580   23.4310 C   0  0  0  0  0  0  0  0  0  0  0  0
  -26.5890  -34.8580   22.3970 O   0  0  0  0  0  0  0  0  0  0  0  0
  -25.0000  -34.0530   24.9880 H   0  0  0  0  0  0  0  0  0  0  0  0
  -24.1860  -36.7480   23.1010 C   0  0  0  0  0  1  0  0  0  0  0  0
  -25.4380  -36.3460   23.8960 C   0  0  0  0  0  3  0  0  0  0  0  0
  -27.5830  -37.2320   24.6990 C   0  0  0  0  0  1  0  0  0  0  0  0
  -26.4670  -37.4020   23.7730 N   0  0  0  0  0  0  0  0  0  0  0  0
  -26.0610  -38.3210   23.9310 H   0  0  0  0  0  0  0  0  0  0  0  0
  -26.4330  -31.7380   25.1310 C   0  0  1  0  0  0  0  0  0  0  0  0
  -25.3490  -31.5020   26.2100 C   0  0  0  0  0  1  0  0  0  0  0  0
  -27.0110  -30.3610   24.7360 C   0  0  0  0  0  1  0  0  0  0  0  0
  -27.5850  -32.5360   25.7830 C   0  0  0  0  0  1  0  0  0  0  0  0
  -29.3690  -18.6940   20.6870 C   0  0  0  0  0  3  0  0  0  0  0  0
  -30.2340  -17.4140   20.2500 C   0  0  0  0  0  3  0  0  0  0  0  0
  -29.8370  -15.9890   20.8720 C   0  0  0  0  0  2  0  0  0  0  0  0
  -30.6020  -14.6730   20.4080 C   0  0  0  0  0  0  0  0  0  0  0  0
  -30.3710  -12.4220   19.3560 C   0  0  0  0  0  2  0  0  0  0  0  0
  -29.4300  -12.5430   18.1360 C   0  0  0  0  0  2  0  0  0  0  0  0
  -27.9630  -12.3710   18.5690 C   0  0  0  0  0  2  0  0  0  0  0  0
  -27.6000  -13.2580   19.7860 C   0  0  0  0  0  3  0  0  0  0  0  0
  -28.6570  -13.1410   20.9070 C   0  0  0  0  0  2  0  0  0  0  0  0
  -29.9710  -13.4550   20.3330 N   0  0  0  0  0  0  0  0  0  0  0  0
  -31.7620  -14.7920   20.0040 O   0  0  0  0  0  0  0  0  0  0  0  0
  -25.2150  -13.8650   20.5180 C   0  0  0  0  0  0  0  0  0  0  0  0
  -24.1450  -13.0960   20.8910 C   0  0  0  0  0  0  0  0  0  0  0  0
  -24.6040  -11.7440   20.8630 C   0  0  0  0  0  0  0  0  0  0  0  0
  -26.2530  -12.9800   20.2810 N   0  0  0  0  0  0  0  0  0  0  0  0
  -25.8930  -11.7000   20.5530 N   0  0  0  0  0  0  0  0  0  0  0  0
  -23.8730  -10.4830   21.0570 C   0  0  0  0  0  0  0  0  0  0  0  0
  -24.3160   -9.5100   21.9810 C   0  0  0  0  0  3  0  0  0  0  0  0
  -23.5860   -8.3170   22.1670 C   0  0  0  0  0  3  0  0  0  0  0  0
  -22.4020   -8.0870   21.4280 C   0  0  0  0  0  0  0  0  0  0  0  0
  -21.9790   -9.0470   20.4920 C   0  0  0  0  0  3  0  0  0  0  0  0
  -22.7090  -10.2320   20.3050 C   0  0  0  0  0  3  0  0  0  0  0  0
  -21.6460   -6.9430   21.5200 O   0  0  0  0  0  0  0  0  0  0  0  0
  -21.6240   -6.1840   22.6610 C   0  0  0  0  0  0  0  0  0  0  0  0
  -21.2510   -6.7270   23.9100 C   0  0  0  0  0  3  0  0  0  0  0  0
  -21.1770   -5.8960   25.0450 C   0  0  0  0  0  3  0  0  0  0  0  0
  -21.4630   -4.5220   24.9340 C   0  0  0  0  0  0  0  0  0  0  0  0
  -21.8270   -3.9780   23.6900 C   0  0  0  0  0  3  0  0  0  0  0  0
  -21.9040   -4.8070   22.5560 C   0  0  0  0  0  0  0  0  0  0  0  0
  -22.2360   -4.2730   21.3550 F   0  0  0  0  0  0  0  0  0  0  0  0
  -21.3820   -3.7220   26.0220 F   0  0  0  0  0  0  0  0  0  0  0  0
  -22.7480  -13.5760   21.1600 C   0  0  0  0  0  0  0  0  0  0  0  0
  -22.0220  -12.8820   22.0300 N   0  0  0  0  0  0  0  0  0  0  0  0
  -22.3080  -14.5970   20.6350 O   0  0  0  0  0  0  0  0  0  0  0  0
  -22.3970  -12.0590   22.4780 H   0  0  0  0  0  0  0  0  0  0  0  0
  -21.0820  -13.1770   22.2450 H   0  0  0  0  0  0  0  0  0  0  0  0
  -25.3870  -15.2330   20.3340 N   0  0  0  0  0  0  0  0  0  0  0  0
  -24.6380  -15.9040   20.4580 H   0  0  0  0  0  0  0  0  0  0  0  0
  -26.2440  -15.6590   20.0020 H   0  0  0  0  0  0  0  0  0  0  0  0
  1  2  2  0
  1  3  1  0
  2  5  1  0
  3  6  2  0
  5  7  1  0
  5  4  2  0
  6  4  1  0
  6 51  1  0
  7  8  2  0
  9 10  1  0
  9  7  1  0
 11 22  2  0
 12 10  1  0
 12 17  1  0
 13 21  1  0
 13 23  1  0
 14 20  1  0
 14 16  1  0
 15 21  1  0
 16 15  1  0
 17 16  2  0
 18 12  2  0
 19 18  1  0
 19 14  2  0
 20 13  1  0
 21 11  1  0
 23 25  2  0
 24 23  1  0
 26 24  1  0
 27 36  2  0
 27 32  1  0
 28 24  1  0
 28 32  1  0
 29 28  1  0
 30 31  1  0
 30 29  1  0
 31 27  1  0
 32 33  2  0
 33 34  1  0
 35 34  2  0
 36 35  1  0
 37 11  1  0
 37 38  1  0
 37 47  1  0
 38 41  1  0
 39 43  1  0
 39 38  1  0
 40 39  2  0
 43 42  1  0
 45 43  1  0
 45 46  1  0
 45 44  1  0
 47 50  1  1
 47 48  1  0
 49 47  1  0
 52 51  2  0
 52 53  1  0
 54 53  1  0
 55 60  1  0
 56 57  1  0
 56 55  1  0
 58 57  1  0
 58 65  1  0
 58 59  1  0
 60 54  1  0
 60 59  1  0
 61 54  2  0
 62 63  2  0
 63 82  1  0
 64 63  1  0
 64 67  1  0
 65 62  1  0
 65 66  1  0
 66 64  2  0
 67 68  1  0
 68 69  2  0
 70 73  1  0
 70 69  1  0
 71 70  2  0
 72 71  1  0
 72 67  2  0
 73 74  1  0
 74 75  1  0
 75 76  2  0
 77 76  1  0
 77 81  1  0
 78 77  2  0
 79 74  2  0
 79 78  1  0
 80 79  1  0
 82 83  1  0
 83 86  1  0
 83 85  1  0
 84 82  2  0
 87 88  1  0
 87 62  1  0
 89 87  1  0
M  ISO  4   9 101  10 101  53 100  54 100
M  END
>  <TORSDO>  (46) 
F 21

>  <SCORE>  (46) 
-13.385

>  <name>  (46) 
45

>  <ligand_id>  (46) 
45

>  <original_smiles>  (46) 
[H]c1c([H])c(C(=O)C([H])([H])Oc2c([H])c([H])c3c(c2[H])C([H])([H])N(C(=O)C([H])(N([H])C(=O)C([H])(N([H])C([H])([H])[H])C([H])([H])[H])C(C([H])([H])[H])(C([H])([H])[H])C([H])([H])[H])C([H])(C(=O)N([H])C2([H])c4c([H])c([H])c([H])c([H])c4C([H])([H])C([H])([H])C2([H])[H])C3([H])[H])c([H])c(C([H])([H])C([H])([H])C([H])([H])C(=O)N2C([H])([H])C([H])([H])C([H])([H])C([H])(n3nc(-c4c([H])c([H])c(Oc5c([H])c([H])c(F)c([H])c5F)c([H])c4[H])c(C(=O)N([H])[H])c3N([H])[H])C2([H])[H])c1[H]

>  <smiles>  (46) 
[H]c1c([H])c(C(=O)C([H])([H])Oc2c([H])c([H])c3c(c2[H])C([H])([H])N(C(=O)C([H])(N([H])C(=O)C([H])(N([H])C([H])([H])[H])C([H])([H])[H])C(C([H])([H])[H])(C([H])([H])[H])C([H])([H])[H])C([H])(C(=O)N([H])C2([H])c4c([H])c([H])c([H])c([H])c4C([H])([H])C([H])([H])C2([H])[H])C3([H])[H])c([H])c(C([H])([H])C([H])([H])C([H])([H])C(=O)N2C([H])([H])C([H])([H])C([H])([H])C([H])(n3nc(-c4c([H])c([H])c(Oc5c([H])c([H])c(F)c([H])c5F)c([H])c4[H])c(C(=O)N([H])[H])c3N([H])[H])C2([H])[H])c1[H]

$$$$
46:0:0
     RDKit          3D

 84 91  0  0  1  0  0  0  0  0999 V2000
  -28.8120  -22.8250   20.5790 C   0  0  0  0  0  3  0  0  0  0  0  0
  -28.9290  -21.2180   19.9190 C   0  0  0  0  0  0  0  0  0  0  0  0
  -28.7240  -21.2060   18.7030 O   0  0  0  0  0  0  0  0  0  0  0  0
  -29.2650  -19.7150   20.5960 C   0  0  0  0  0  3  0  0  0  0  0  0
  -29.5270  -18.3690   20.0640 C   0  0  0  0  0  3  0  0  0  0  0  0
  -29.6900  -16.7640   20.7030 C   0  0  0  0  0  2  0  0  0  0  0  0
  -30.4700  -15.2620   20.2730 C   0  0  0  0  0  0  0  0  0  0  0  0
  -30.4540  -12.8250   19.3830 C   0  0  0  0  0  2  0  0  0  0  0  0
  -29.5200  -12.6690   18.1550 C   0  0  0  0  0  2  0  0  0  0  0  0
  -28.0710  -12.4060   18.5980 C   0  0  0  0  0  2  0  0  0  0  0  0
  -27.6380  -13.3530   19.7450 C   0  0  0  0  0  3  0  0  0  0  0  0
  -28.6950  -13.4560   20.8650 C   0  0  0  0  0  2  0  0  0  0  0  0
  -29.9380  -13.9450   20.2490 N   0  0  0  0  0  0  0  0  0  0  0  0
  -31.6570  -15.2950   19.9150 O   0  0  0  0  0  0  0  0  0  0  0  0
  -25.2720  -13.9080   20.5230 C   0  0  0  0  0  0  0  0  0  0  0  0
  -24.2130  -13.1270   20.8950 C   0  0  0  0  0  0  0  0  0  0  0  0
  -24.6790  -11.7780   20.8490 C   0  0  0  0  0  0  0  0  0  0  0  0
  -26.3120  -13.0340   20.2610 N   0  0  0  0  0  0  0  0  0  0  0  0
  -25.9670  -11.7460   20.5250 N   0  0  0  0  0  0  0  0  0  0  0  0
  -23.9540  -10.5140   21.0360 C   0  0  0  0  0  0  0  0  0  0  0  0
  -24.3960   -9.5340   21.9520 C   0  0  0  0  0  3  0  0  0  0  0  0
  -23.6680   -8.3370   22.1290 C   0  0  0  0  0  3  0  0  0  0  0  0
  -22.4830   -8.1120   21.3890 C   0  0  0  0  0  0  0  0  0  0  0  0
  -22.0590   -9.0790   20.4620 C   0  0  0  0  0  3  0  0  0  0  0  0
  -22.7870  -10.2680   20.2830 C   0  0  0  0  0  3  0  0  0  0  0  0
  -21.7260   -6.9680   21.4760 O   0  0  0  0  0  0  0  0  0  0  0  0
  -21.6970   -6.2080   22.6180 C   0  0  0  0  0  0  0  0  0  0  0  0
  -21.2980   -6.7460   23.8600 C   0  0  0  0  0  3  0  0  0  0  0  0
  -21.2150   -5.9130   24.9940 C   0  0  0  0  0  3  0  0  0  0  0  0
  -21.5220   -4.5440   24.8860 C   0  0  0  0  0  0  0  0  0  0  0  0
  -21.9140   -4.0050   23.6480 C   0  0  0  0  0  3  0  0  0  0  0  0
  -21.9970   -4.8350   22.5170 C   0  0  0  0  0  0  0  0  0  0  0  0
  -22.3550   -4.3060   21.3220 F   0  0  0  0  0  0  0  0  0  0  0  0
  -21.4360   -3.7420   25.9740 F   0  0  0  0  0  0  0  0  0  0  0  0
  -22.8180  -13.6020   21.1810 C   0  0  0  0  0  0  0  0  0  0  0  0
  -22.0970  -12.9000   22.0460 N   0  0  0  0  0  0  0  0  0  0  0  0
  -22.3770  -14.6320   20.6710 O   0  0  0  0  0  0  0  0  0  0  0  0
  -22.4660  -12.0660   22.4800 H   0  0  0  0  0  0  0  0  0  0  0  0
  -21.1610  -13.2000   22.2810 H   0  0  0  0  0  0  0  0  0  0  0  0
  -25.4330  -15.2800   20.3570 N   0  0  0  0  0  0  0  0  0  0  0  0
  -24.6690  -15.9340   20.4880 H   0  0  0  0  0  0  0  0  0  0  0  0
  -26.2820  -15.7230   20.0290 H   0  0  0  0  0  0  0  0  0  0  0  0
  -28.0480  -24.3300   19.9800 C   0  0  0  0  0  3  0  0  0  0  0  0
  -28.2040  -25.9270   20.3130 O   0  0  0  0  0  0  0  0  0  0  0  0
  -24.6230  -31.8660   23.1980 C   0  0  0  0  0  0  0  0  0  0  0  0
  -27.1860  -27.0020   20.2070 C   0  0  0  0  0  0  0  0  0  0  0  0
  -23.4290  -30.4620   21.5650 C   0  0  0  0  0  3  0  0  0  0  0  0
  -24.8790  -28.8560   20.1480 C   0  0  0  0  0  0  0  0  0  0  0  0
  -25.9920  -30.6830   21.4170 C   0  0  0  0  0  2  0  0  0  0  0  0
  -26.0630  -29.2720   20.7690 C   0  0  0  0  0  0  0  0  0  0  0  0
  -27.2100  -28.3640   20.7770 C   0  0  0  0  0  3  0  0  0  0  0  0
  -25.9750  -26.7310   19.5310 C   0  0  0  0  0  3  0  0  0  0  0  0
  -24.8580  -27.6050   19.5090 C   0  0  0  0  0  3  0  0  0  0  0  0
  -23.6580  -29.7720   20.1910 C   0  0  0  0  0  2  0  0  0  0  0  0
  -24.7030  -31.0290   22.1130 N   0  0  0  0  0  0  0  0  0  0  0  0
  -23.5340  -32.1570   23.7180 O   0  0  0  0  0  0  0  0  0  0  0  0
  -22.7370  -29.4690   22.5360 C   0  0  0  0  0  0  0  0  0  0  0  0
  -21.4060  -29.3080   22.4160 N   0  0  0  0  0  0  0  0  0  0  0  0
  -23.4030  -28.8450   23.3650 O   0  0  0  0  0  0  0  0  0  0  0  0
  -20.9220  -29.8630   21.7240 H   0  0  0  0  0  0  0  0  0  0  0  0
  -18.0200  -28.1180   22.9410 C   0  0  0  0  0  0  0  0  0  0  0  0
  -20.5820  -28.3760   23.1930 C   0  0  0  0  0  3  0  0  0  0  0  0
  -20.6760  -26.9420   22.6200 C   0  0  0  0  0  2  0  0  0  0  0  0
  -19.5680  -26.6210   21.6120 C   0  0  0  0  0  2  0  0  0  0  0  0
  -18.1900  -26.7690   22.2620 C   0  0  0  0  0  2  0  0  0  0  0  0
  -19.1430  -28.8790   23.3630 C   0  0  0  0  0  0  0  0  0  0  0  0
  -18.9270  -30.1400   23.9600 C   0  0  0  0  0  3  0  0  0  0  0  0
  -17.6230  -30.6410   24.1390 C   0  0  0  0  0  3  0  0  0  0  0  0
  -16.5170  -29.8770   23.7290 C   0  0  0  0  0  3  0  0  0  0  0  0
  -16.7150  -28.6180   23.1370 C   0  0  0  0  0  3  0  0  0  0  0  0
  -25.8950  -32.5100   23.8280 C   0  0  0  0  0  3  0  0  0  0  0  0
  -26.4030  -31.7500   25.1150 C   0  0  1  0  0  0  0  0  0  0  0  0
  -25.3030  -31.5210   26.1790 C   0  0  0  0  0  1  0  0  0  0  0  0
  -26.9870  -30.3670   24.7450 C   0  0  0  0  0  1  0  0  0  0  0  0
  -27.5500  -32.5480   25.7770 C   0  0  0  0  0  1  0  0  0  0  0  0
  -25.5760  -33.9110   24.1600 N   0  0  0  0  0  0  0  0  0  0  0  0
  -25.9110  -34.9720   23.4120 C   0  0  0  0  0  0  0  0  0  0  0  0
  -26.5820  -34.8750   22.3830 O   0  0  0  0  0  0  0  0  0  0  0  0
  -24.9800  -34.0580   24.9600 H   0  0  0  0  0  0  0  0  0  0  0  0
  -24.1870  -36.7760   23.0720 C   0  0  0  0  0  1  0  0  0  0  0  0
  -25.4260  -36.3590   23.8810 C   0  0  0  0  0  3  0  0  0  0  0  0
  -27.5590  -37.2380   24.7260 C   0  0  0  0  0  1  0  0  0  0  0  0
  -26.4610  -37.4120   23.7790 N   0  0  0  0  0  0  0  0  0  0  0  0
  -26.0550  -38.3320   23.9290 H   0  0  0  0  0  0  0  0  0  0  0  0
  2  1  1  0
  2  4  1  0
  3  2  2  0
  5  4  2  0
  5  6  1  0
  7  6  1  0
  8 13  1  0
  9 10  1  0
  9  8  1  0
 11 10  1  0
 11 18  1  0
 11 12  1  0
 13  7  1  0
 13 12  1  0
 14  7  2  0
 15 16  2  0
 16 35  1  0
 17 16  1  0
 17 20  1  0
 18 15  1  0
 18 19  1  0
 19 17  2  0
 20 21  1  0
 21 22  2  0
 23 26  1  0
 23 22  1  0
 24 23  2  0
 25 24  1  0
 25 20  2  0
 26 27  1  0
 27 28  1  0
 28 29  2  0
 30 29  1  0
 30 34  1  0
 31 30  2  0
 32 27  2  0
 32 31  1  0
 33 32  1  0
 35 36  1  0
 36 39  1  0
 36 38  1  0
 37 35  2  0
 40 41  1  0
 40 15  1  0
 42 40  1  0
 43 44  1  0
 43  1  2  0
 45 56  2  0
 46 44  1  0
 46 51  1  0
 47 55  1  0
 47 57  1  0
 48 54  1  0
 48 50  1  0
 49 55  1  0
 50 51  2  0
 50 49  1  0
 52 46  2  0
 53 52  1  0
 53 48  2  0
 54 47  1  0
 55 45  1  0
 57 59  2  0
 58 57  1  0
 60 58  1  0
 61 70  2  0
 61 66  1  0
 62 58  1  0
 62 66  1  0
 63 62  1  0
 64 65  1  0
 64 63  1  0
 65 61  1  0
 66 67  2  0
 67 68  1  0
 69 68  2  0
 70 69  1  0
 71 45  1  0
 71 76  1  0
 71 72  1  0
 72 75  1  1
 72 73  1  0
 74 72  1  0
 76 79  1  0
 77 81  1  0
 77 76  1  0
 78 77  2  0
 81 80  1  0
 83 81  1  0
 83 84  1  0
 83 82  1  0
M  ISO  4   6 100   7 100  43 101  44 101
M  END
>  <TORSDO>  (47) 
F 20

>  <SCORE>  (47) 
-15.440

>  <name>  (47) 
46

>  <ligand_id>  (47) 
46

>  <original_smiles>  (47) 
[H]C(C(=O)C([H])([H])C([H])([H])Oc1c([H])c([H])c2c(c1[H])C([H])([H])N(C(=O)C([H])(N([H])C(=O)C([H])(N([H])C([H])([H])[H])C([H])([H])[H])C(C([H])([H])[H])(C([H])([H])[H])C([H])([H])[H])C([H])(C(=O)N([H])C1([H])c3c([H])c([H])c([H])c([H])c3C([H])([H])C([H])([H])C1([H])[H])C2([H])[H])=C([H])C([H])([H])C(=O)N1C([H])([H])C([H])([H])C([H])([H])C([H])(n2nc(-c3c([H])c([H])c(Oc4c([H])c([H])c(F)c([H])c4F)c([H])c3[H])c(C(=O)N([H])[H])c2N([H])[H])C1([H])[H]

>  <smiles>  (47) 
[H]C(C(=O)C([H])([H])C([H])([H])Oc1c([H])c([H])c2c(c1[H])C([H])([H])N(C(=O)C([H])(N([H])C(=O)C([H])(N([H])C([H])([H])[H])C([H])([H])[H])C(C([H])([H])[H])(C([H])([H])[H])C([H])([H])[H])C([H])(C(=O)N([H])C1([H])c3c([H])c([H])c([H])c([H])c3C([H])([H])C([H])([H])C1([H])[H])C2([H])[H])=C([H])C([H])([H])C(=O)N1C([H])([H])C([H])([H])C([H])([H])C([H])(n2nc(-c3c([H])c([H])c(Oc4c([H])c([H])c(F)c([H])c4F)c([H])c3[H])c(C(=O)N([H])[H])c2N([H])[H])C1([H])[H]

$$$$
47:0:0
     RDKit          3D

 89 97  0  0  1  0  0  0  0  0999 V2000
  -31.6480  -22.3460   21.0370 C   0  0  0  0  0  3  0  0  0  0  0  0
  -32.8920  -21.8660   21.4430 C   0  0  0  0  0  3  0  0  0  0  0  0
  -32.1080  -19.7260   21.4450 C   0  0  0  0  0  3  0  0  0  0  0  0
  -30.7960  -20.0440   20.9880 C   0  0  0  0  0  0  0  0  0  0  0  0
  -30.5330  -21.4930   20.8130 C   0  0  0  0  0  0  0  0  0  0  0  0
  -33.1220  -20.5740   21.6660 N   0  0  0  0  0  0  0  0  0  0  0  0
  -29.9390  -18.7680   20.8030 C   0  0  0  0  0  3  0  0  0  0  0  0
  -30.4220  -17.4580   20.7330 C   0  0  0  0  0  3  0  0  0  0  0  0
  -29.7140  -16.0430   20.7250 C   0  0  0  0  0  2  0  0  0  0  0  0
  -30.5220  -14.6960   20.4020 C   0  0  0  0  0  0  0  0  0  0  0  0
  -30.3290  -12.4280   19.3720 C   0  0  0  0  0  2  0  0  0  0  0  0
  -29.3920  -12.5310   18.1470 C   0  0  0  0  0  2  0  0  0  0  0  0
  -27.9190  -12.3620   18.5700 C   0  0  0  0  0  2  0  0  0  0  0  0
  -27.5480  -13.2380   19.7940 C   0  0  0  0  0  3  0  0  0  0  0  0
  -28.6020  -13.1290   20.9160 C   0  0  0  0  0  2  0  0  0  0  0  0
  -29.9110  -13.4640   20.3420 N   0  0  0  0  0  0  0  0  0  0  0  0
  -31.6980  -14.8010   20.0420 O   0  0  0  0  0  0  0  0  0  0  0  0
  -25.1540  -13.8310   20.5090 C   0  0  0  0  0  0  0  0  0  0  0  0
  -24.0880  -13.0580   20.8780 C   0  0  0  0  0  0  0  0  0  0  0  0
  -24.5540  -11.7070   20.8580 C   0  0  0  0  0  0  0  0  0  0  0  0
  -26.2010  -12.9520   20.2810 N   0  0  0  0  0  0  0  0  0  0  0  0
  -25.8460  -11.6700   20.5540 N   0  0  0  0  0  0  0  0  0  0  0  0
  -23.8290  -10.4440   21.0530 C   0  0  0  0  0  0  0  0  0  0  0  0
  -24.2700   -9.4750   21.9800 C   0  0  0  0  0  3  0  0  0  0  0  0
  -23.5450   -8.2780   22.1640 C   0  0  0  0  0  3  0  0  0  0  0  0
  -22.3660   -8.0410   21.4170 C   0  0  0  0  0  0  0  0  0  0  0  0
  -21.9450   -8.9990   20.4780 C   0  0  0  0  0  3  0  0  0  0  0  0
  -22.6700  -10.1880   20.2940 C   0  0  0  0  0  3  0  0  0  0  0  0
  -21.6110   -6.8950   21.5100 O   0  0  0  0  0  0  0  0  0  0  0  0
  -21.5840   -6.1420   22.6550 C   0  0  0  0  0  0  0  0  0  0  0  0
  -21.1870   -6.6880   23.8960 C   0  0  0  0  0  3  0  0  0  0  0  0
  -21.1060   -5.8610   25.0350 C   0  0  0  0  0  3  0  0  0  0  0  0
  -21.4120   -4.4910   24.9340 C   0  0  0  0  0  0  0  0  0  0  0  0
  -21.8020   -3.9450   23.6980 C   0  0  0  0  0  3  0  0  0  0  0  0
  -21.8840   -4.7690   22.5620 C   0  0  0  0  0  0  0  0  0  0  0  0
  -22.2410   -4.2340   21.3700 F   0  0  0  0  0  0  0  0  0  0  0  0
  -21.3260   -3.6950   26.0250 F   0  0  0  0  0  0  0  0  0  0  0  0
  -22.6890  -13.5330   21.1420 C   0  0  0  0  0  0  0  0  0  0  0  0
  -21.9620  -12.8410   22.0130 N   0  0  0  0  0  0  0  0  0  0  0  0
  -22.2500  -14.5520   20.6110 O   0  0  0  0  0  0  0  0  0  0  0  0
  -22.3330  -12.0180   22.4620 H   0  0  0  0  0  0  0  0  0  0  0  0
  -21.0220  -13.1390   22.2340 H   0  0  0  0  0  0  0  0  0  0  0  0
  -25.3180  -15.2010   20.3280 N   0  0  0  0  0  0  0  0  0  0  0  0
  -24.5530  -15.8570   20.4350 H   0  0  0  0  0  0  0  0  0  0  0  0
  -26.1760  -15.6410   20.0180 H   0  0  0  0  0  0  0  0  0  0  0  0
  -29.2060  -22.2900   20.4390 C   0  0  0  0  0  2  0  0  0  0  0  0
  -29.2760  -23.9270   20.4890 C   0  0  0  0  0  3  0  0  0  0  0  0
  -28.0610  -24.9200   20.1630 C   0  0  0  0  0  3  0  0  0  0  0  0
  -28.2820  -26.3990   20.2850 O   0  0  0  0  0  0  0  0  0  0  0  0
  -24.6150  -31.8930   23.2650 C   0  0  0  0  0  0  0  0  0  0  0  0
  -27.1770  -27.2750   20.2260 C   0  0  0  0  0  0  0  0  0  0  0  0
  -23.3980  -30.5010   21.6290 C   0  0  0  0  0  3  0  0  0  0  0  0
  -24.8320  -28.9310   20.2060 C   0  0  0  0  0  0  0  0  0  0  0  0
  -25.9420  -30.7890   21.4440 C   0  0  0  0  0  2  0  0  0  0  0  0
  -26.0080  -29.4060   20.8010 C   0  0  0  0  0  0  0  0  0  0  0  0
  -27.1840  -28.5910   20.7960 C   0  0  0  0  0  3  0  0  0  0  0  0
  -25.9760  -26.8620   19.6070 C   0  0  0  0  0  3  0  0  0  0  0  0
  -24.8200  -27.6670   19.5990 C   0  0  0  0  0  3  0  0  0  0  0  0
  -23.6040  -29.8200   20.2510 C   0  0  0  0  0  2  0  0  0  0  0  0
  -24.6710  -31.0790   22.1690 N   0  0  0  0  0  0  0  0  0  0  0  0
  -23.5340  -32.1830   23.7980 O   0  0  0  0  0  0  0  0  0  0  0  0
  -22.7240  -29.4950   22.5940 C   0  0  0  0  0  0  0  0  0  0  0  0
  -21.3950  -29.3310   22.4680 N   0  0  0  0  0  0  0  0  0  0  0  0
  -23.3960  -28.8650   23.4130 O   0  0  0  0  0  0  0  0  0  0  0  0
  -20.9130  -29.8920   21.7790 H   0  0  0  0  0  0  0  0  0  0  0  0
  -18.0070  -28.1660   22.9680 C   0  0  0  0  0  0  0  0  0  0  0  0
  -20.5680  -28.4050   23.2420 C   0  0  0  0  0  3  0  0  0  0  0  0
  -20.6580  -26.9690   22.6750 C   0  0  0  0  0  2  0  0  0  0  0  0
  -19.5550  -26.6500   21.6600 C   0  0  0  0  0  2  0  0  0  0  0  0
  -18.1730  -26.8110   22.3000 C   0  0  0  0  0  2  0  0  0  0  0  0
  -19.1310  -28.9210   23.3960 C   0  0  0  0  0  0  0  0  0  0  0  0
  -18.9220  -30.1880   23.9820 C   0  0  0  0  0  3  0  0  0  0  0  0
  -17.6200  -30.7010   24.1430 C   0  0  0  0  0  3  0  0  0  0  0  0
  -16.5110  -29.9420   23.7310 C   0  0  0  0  0  3  0  0  0  0  0  0
  -16.7050  -28.6770   23.1500 C   0  0  0  0  0  3  0  0  0  0  0  0
  -25.9040  -32.5150   23.8860 C   0  0  0  0  0  3  0  0  0  0  0  0
  -25.6040  -33.9140   24.2230 N   0  0  0  0  0  0  0  0  0  0  0  0
  -25.9180  -34.9670   23.4590 C   0  0  0  0  0  0  0  0  0  0  0  0
  -26.5630  -34.8640   22.4110 O   0  0  0  0  0  0  0  0  0  0  0  0
  -25.0280  -34.0680   25.0380 H   0  0  0  0  0  0  0  0  0  0  0  0
  -24.1730  -36.7560   23.1660 C   0  0  0  0  0  1  0  0  0  0  0  0
  -25.4470  -36.3560   23.9300 C   0  0  0  0  0  3  0  0  0  0  0  0
  -27.6090  -37.2500   24.6720 C   0  0  0  0  0  1  0  0  0  0  0  0
  -26.4720  -37.4120   23.7720 N   0  0  0  0  0  0  0  0  0  0  0  0
  -26.0680  -38.3320   23.9310 H   0  0  0  0  0  0  0  0  0  0  0  0
  -26.4190  -31.7350   25.1570 C   0  0  1  0  0  0  0  0  0  0  0  0
  -25.3270  -31.5020   26.2290 C   0  0  0  0  0  1  0  0  0  0  0  0
  -26.9910  -30.3550   24.7600 C   0  0  0  0  0  1  0  0  0  0  0  0
  -27.5780  -32.5200   25.8170 C   0  0  0  0  0  1  0  0  0  0  0  0
  1  2  1  0
  2  6  2  0
  3  6  1  0
  4  3  2  0
  5  4  1  0
  5  1  2  0
  7  4  1  0
  8  7  2  0
  9  8  1  0
 10  9  1  0
 11 16  1  0
 12 13  1  0
 12 11  1  0
 14 13  1  0
 14 21  1  0
 14 15  1  0
 16 10  1  0
 16 15  1  0
 17 10  2  0
 18 19  2  0
 19 38  1  0
 20 19  1  0
 20 23  1  0
 21 18  1  0
 21 22  1  0
 22 20  2  0
 23 24  1  0
 24 25  2  0
 26 29  1  0
 26 25  1  0
 27 26  2  0
 28 27  1  0
 28 23  2  0
 29 30  1  0
 30 31  1  0
 31 32  2  0
 33 32  1  0
 33 37  1  0
 34 33  2  0
 35 30  2  0
 35 34  1  0
 36 35  1  0
 38 39  1  0
 39 42  1  0
 39 41  1  0
 40 38  2  0
 43 44  1  0
 43 18  1  0
 45 43  1  0
 46 47  1  0
 46  5  1  0
 48 49  1  0
 48 47  2  0
 50 61  2  0
 51 49  1  0
 51 56  1  0
 52 60  1  0
 52 62  1  0
 53 59  1  0
 53 55  1  0
 54 60  1  0
 55 54  1  0
 56 55  2  0
 57 51  2  0
 58 57  1  0
 58 53  2  0
 59 52  1  0
 60 50  1  0
 62 64  2  0
 63 62  1  0
 65 63  1  0
 66 75  2  0
 66 71  1  0
 67 63  1  0
 67 71  1  0
 68 67  1  0
 69 70  1  0
 69 68  1  0
 70 66  1  0
 71 72  2  0
 72 73  1  0
 74 73  2  0
 75 74  1  0
 76 50  1  0
 76 77  1  0
 76 86  1  0
 77 80  1  0
 78 82  1  0
 78 77  1  0
 79 78  2  0
 82 81  1  0
 84 82  1  0
 84 85  1  0
 84 83  1  0
 86 89  1  1
 86 87  1  0
 88 86  1  0
M  ISO  4   9 100  10 100  48 101  49 101
M  END
>  <TORSDO>  (48) 
F 21

>  <SCORE>  (48) 
-13.096

>  <name>  (48) 
47

>  <ligand_id>  (48) 
47

>  <original_smiles>  (48) 
[H]C(=C([H])C([H])([H])C(=O)N1C([H])([H])C([H])([H])C([H])([H])C([H])(n2nc(-c3c([H])c([H])c(Oc4c([H])c([H])c(F)c([H])c4F)c([H])c3[H])c(C(=O)N([H])[H])c2N([H])[H])C1([H])[H])c1c([H])nc([H])c([H])c1C([H])([H])C([H])([H])C([H])([H])Oc1c([H])c([H])c2c(c1[H])C([H])([H])N(C(=O)C([H])(N([H])C(=O)C([H])(N([H])C([H])([H])[H])C([H])([H])[H])C(C([H])([H])[H])(C([H])([H])[H])C([H])([H])[H])C([H])(C(=O)N([H])C1([H])c3c([H])c([H])c([H])c([H])c3C([H])([H])C([H])([H])C1([H])[H])C2([H])[H]

>  <smiles>  (48) 
[H]C(=C([H])C([H])([H])C(=O)N1C([H])([H])C([H])([H])C([H])([H])C([H])(n2nc(-c3c([H])c([H])c(Oc4c([H])c([H])c(F)c([H])c4F)c([H])c3[H])c(C(=O)N([H])[H])c2N([H])[H])C1([H])[H])c1c([H])nc([H])c([H])c1C([H])([H])C([H])([H])C([H])([H])Oc1c([H])c([H])c2c(c1[H])C([H])([H])N(C(=O)C([H])(N([H])C(=O)C([H])(N([H])C([H])([H])[H])C([H])([H])[H])C(C([H])([H])[H])(C([H])([H])[H])C([H])([H])[H])C([H])(C(=O)N([H])C1([H])c3c([H])c([H])c([H])c([H])c3C([H])([H])C([H])([H])C1([H])[H])C2([H])[H]

$$$$
48:0:0
     RDKit          3D

 95104  0  0  1  0  0  0  0  0999 V2000
  -28.0480  -21.3870   17.4260 C   0  0  0  0  0  3  0  0  0  0  0  0
  -28.7310  -21.0250   18.5330 C   0  0  0  0  0  0  0  0  0  0  0  0
  -27.0750  -20.5000   16.6730 C   0  0  0  0  0  2  0  0  0  0  0  0
  -27.8520  -18.6350   18.1960 C   0  0  0  0  0  2  0  0  0  0  0  0
  -28.5870  -19.6120   19.1440 C   0  0  0  0  0  3  0  0  0  0  0  0
  -26.6510  -19.2720   17.4890 C   0  0  0  0  0  3  0  0  0  0  0  0
  -25.7430  -19.6350   18.3980 F   0  0  0  0  0  0  0  0  0  0  0  0
  -32.2790  -18.7830   19.9360 C   0  0  0  0  0  3  0  0  0  0  0  0
  -31.1470  -19.3980   19.3760 C   0  0  0  0  0  3  0  0  0  0  0  0
  -32.1350  -17.6410   20.7420 C   0  0  0  0  0  3  0  0  0  0  0  0
  -29.7210  -17.7460   20.4580 C   0  0  0  0  0  3  0  0  0  0  0  0
  -29.8520  -18.9260   19.6860 C   0  0  0  0  0  0  0  0  0  0  0  0
  -30.8590  -17.0660   20.9520 C   0  0  0  0  0  0  0  0  0  0  0  0
  -30.7130  -15.7220   21.6900 C   0  0  0  0  0  2  0  0  0  0  0  0
  -31.2690  -14.5330   20.8650 C   0  0  0  0  0  0  0  0  0  0  0  0
  -30.8610  -12.5510   19.4590 C   0  0  0  0  0  2  0  0  0  0  0  0
  -29.9740  -12.9600   18.2680 C   0  0  0  0  0  2  0  0  0  0  0  0
  -28.4830  -12.8560   18.6420 C   0  0  0  0  0  2  0  0  0  0  0  0
  -28.1540  -13.5510   19.9920 C   0  0  0  0  0  3  0  0  0  0  0  0
  -29.1660  -13.1460   21.0870 C   0  0  0  0  0  2  0  0  0  0  0  0
  -30.5180  -13.4330   20.5860 N   0  0  0  0  0  0  0  0  0  0  0  0
  -32.4060  -14.6520   20.3970 O   0  0  0  0  0  0  0  0  0  0  0  0
  -25.7420  -14.1830   20.6220 C   0  0  0  0  0  0  0  0  0  0  0  0
  -24.6430  -13.4210   20.9160 C   0  0  0  0  0  0  0  0  0  0  0  0
  -25.0760  -12.0610   20.8500 C   0  0  0  0  0  0  0  0  0  0  0  0
  -26.7770  -13.2880   20.4030 N   0  0  0  0  0  0  0  0  0  0  0  0
  -26.3770  -12.0050   20.5940 N   0  0  0  0  0  0  0  0  0  0  0  0
  -24.3150  -10.8100   20.9600 C   0  0  0  0  0  0  0  0  0  0  0  0
  -24.6660   -9.8120   21.8970 C   0  0  0  0  0  3  0  0  0  0  0  0
  -23.9070   -8.6250   21.9970 C   0  0  0  0  0  3  0  0  0  0  0  0
  -22.7840   -8.4280   21.1570 C   0  0  0  0  0  0  0  0  0  0  0  0
  -22.4530   -9.4140   20.2120 C   0  0  0  0  0  3  0  0  0  0  0  0
  -23.2120  -10.5920   20.1110 C   0  0  0  0  0  3  0  0  0  0  0  0
  -22.0070   -7.2960   21.1670 O   0  0  0  0  0  0  0  0  0  0  0  0
  -21.7990   -6.5720   22.3140 C   0  0  0  0  0  0  0  0  0  0  0  0
  -21.1790   -7.1380   23.4490 C   0  0  0  0  0  3  0  0  0  0  0  0
  -20.9240   -6.3400   24.5820 C   0  0  0  0  0  3  0  0  0  0  0  0
  -21.2770   -4.9770   24.5800 C   0  0  0  0  0  0  0  0  0  0  0  0
  -21.8890   -4.4120   23.4480 C   0  0  0  0  0  3  0  0  0  0  0  0
  -22.1460   -5.2060   22.3170 C   0  0  0  0  0  0  0  0  0  0  0  0
  -22.7180   -4.6510   21.2210 F   0  0  0  0  0  0  0  0  0  0  0  0
  -21.0230   -4.2090   25.6650 F   0  0  0  0  0  0  0  0  0  0  0  0
  -23.2460  -13.9190   21.1500 C   0  0  0  0  0  0  0  0  0  0  0  0
  -22.4740  -13.2150   21.9700 N   0  0  0  0  0  0  0  0  0  0  0  0
  -22.8460  -14.9660   20.6440 O   0  0  0  0  0  0  0  0  0  0  0  0
  -22.8070  -12.3660   22.4020 H   0  0  0  0  0  0  0  0  0  0  0  0
  -21.5360  -13.5320   22.1710 H   0  0  0  0  0  0  0  0  0  0  0  0
  -25.9460  -15.5550   20.5060 N   0  0  0  0  0  0  0  0  0  0  0  0
  -25.1950  -16.2290   20.6060 H   0  0  0  0  0  0  0  0  0  0  0  0
  -26.8250  -15.9780   20.2410 H   0  0  0  0  0  0  0  0  0  0  0  0
  -29.6130  -22.0640   19.2260 C   0  0  0  0  0  2  0  0  0  0  0  0
  -28.8450  -23.0290   20.1490 C   0  0  0  0  0  2  0  0  0  0  0  0
  -29.1540  -24.5130   19.8680 C   0  0  0  0  0  2  0  0  0  0  0  0
  -28.6180  -25.4460   20.9620 C   0  0  0  0  0  2  0  0  0  0  0  0
  -28.7090  -26.8120   20.5480 O   0  0  0  0  0  0  0  0  0  0  0  0
  -24.5750  -31.8830   23.2900 C   0  0  0  0  0  0  0  0  0  0  0  0
  -27.5150  -27.4880   20.4510 C   0  0  0  0  0  0  0  0  0  0  0  0
  -23.5030  -30.4210   21.6070 C   0  0  0  0  0  3  0  0  0  0  0  0
  -25.0770  -28.9030   20.2970 C   0  0  0  0  0  0  0  0  0  0  0  0
  -26.0210  -30.8560   21.5420 C   0  0  0  0  0  2  0  0  0  0  0  0
  -26.1830  -29.4780   20.9350 C   0  0  0  0  0  0  0  0  0  0  0  0
  -27.4050  -28.7790   21.0080 C   0  0  0  0  0  3  0  0  0  0  0  0
  -26.3970  -26.9210   19.7990 C   0  0  0  0  0  3  0  0  0  0  0  0
  -25.1780  -27.6210   19.7270 C   0  0  0  0  0  3  0  0  0  0  0  0
  -23.8070  -29.7220   20.2550 C   0  0  0  0  0  2  0  0  0  0  0  0
  -24.7150  -31.0690   22.2060 N   0  0  0  0  0  0  0  0  0  0  0  0
  -23.4590  -32.1330   23.7640 O   0  0  0  0  0  0  0  0  0  0  0  0
  -22.8270  -29.3980   22.5470 C   0  0  0  0  0  0  0  0  0  0  0  0
  -21.5140  -29.1870   22.3570 N   0  0  0  0  0  0  0  0  0  0  0  0
  -23.4820  -28.7950   23.4010 O   0  0  0  0  0  0  0  0  0  0  0  0
  -21.0480  -29.7250   21.6390 H   0  0  0  0  0  0  0  0  0  0  0  0
  -18.1360  -27.9660   22.7300 C   0  0  0  0  0  0  0  0  0  0  0  0
  -20.6790  -28.2430   23.0980 C   0  0  0  0  0  3  0  0  0  0  0  0
  -20.8160  -26.8140   22.5250 C   0  0  0  0  0  2  0  0  0  0  0  0
  -19.7540  -26.4820   21.4710 C   0  0  0  0  0  2  0  0  0  0  0  0
  -18.3480  -26.6180   22.0630 C   0  0  0  0  0  2  0  0  0  0  0  0
  -19.2320  -28.7360   23.2010 C   0  0  0  0  0  0  0  0  0  0  0  0
  -18.9820  -29.9990   23.7810 C   0  0  0  0  0  3  0  0  0  0  0  0
  -17.6680  -30.4930   23.8940 C   0  0  0  0  0  3  0  0  0  0  0  0
  -16.5860  -29.7180   23.4400 C   0  0  0  0  0  3  0  0  0  0  0  0
  -16.8200  -28.4570   22.8640 C   0  0  0  0  0  3  0  0  0  0  0  0
  -25.8070  -32.5590   23.9700 C   0  0  0  0  0  3  0  0  0  0  0  0
  -25.4610  -33.9650   24.2150 N   0  0  0  0  0  0  0  0  0  0  0  0
  -25.8400  -34.9870   23.4370 C   0  0  0  0  0  0  0  0  0  0  0  0
  -26.5890  -34.8480   22.4650 O   0  0  0  0  0  0  0  0  0  0  0  0
  -24.8100  -34.1470   24.9640 H   0  0  0  0  0  0  0  0  0  0  0  0
  -24.1440  -36.7470   22.8510 C   0  0  0  0  0  1  0  0  0  0  0  0
  -25.3040  -36.3870   23.7920 C   0  0  0  0  0  3  0  0  0  0  0  0
  -27.3350  -37.3310   24.7980 C   0  0  0  0  0  1  0  0  0  0  0  0
  -26.3370  -37.4440   23.7370 N   0  0  0  0  0  0  0  0  0  0  0  0
  -25.9130  -38.3660   23.7980 H   0  0  0  0  0  0  0  0  0  0  0  0
  -26.2450  -31.8490   25.3100 C   0  0  1  0  0  0  0  0  0  0  0  0
  -25.0820  -31.6260   26.3050 C   0  0  0  0  0  1  0  0  0  0  0  0
  -26.8840  -30.4720   25.0130 C   0  0  0  0  0  1  0  0  0  0  0  0
  -27.3290  -32.6940   26.0210 C   0  0  0  0  0  1  0  0  0  0  0  0
  1  2  2  0
  2  5  1  0
  2 51  1  0
  3  1  1  0
  3  6  1  0
  4  5  1  0
  5 12  1  0
  6  4  1  0
  6  7  1  0
  8 10  1  0
  9 12  1  0
  9  8  2  0
 10 13  2  0
 11 13  1  0
 12 11  2  0
 13 14  1  0
 15 14  1  0
 16 21  1  0
 17 18  1  0
 17 16  1  0
 19 18  1  0
 19 26  1  0
 19 20  1  0
 21 15  1  0
 21 20  1  0
 22 15  2  0
 23 24  2  0
 24 43  1  0
 25 24  1  0
 25 28  1  0
 26 27  1  0
 26 23  1  0
 27 25  2  0
 28 29  1  0
 29 30  2  0
 31 34  1  0
 31 30  1  0
 32 31  2  0
 33 32  1  0
 33 28  2  0
 34 35  1  0
 35 40  2  0
 35 36  1  0
 36 37  2  0
 38 37  1  0
 38 42  1  0
 39 38  2  0
 40 39  1  0
 41 40  1  0
 43 44  1  0
 44 47  1  0
 44 46  1  0
 45 43  2  0
 48 49  1  0
 48 23  1  0
 50 48  1  0
 51 52  1  0
 53 52  1  0
 53 54  1  0
 55 54  1  0
 56 67  2  0
 57 55  1  0
 57 62  1  0
 58 66  1  0
 58 68  1  0
 59 61  1  0
 60 66  1  0
 61 62  2  0
 61 60  1  0
 63 57  2  0
 64 63  1  0
 64 59  2  0
 65 59  1  0
 65 58  1  0
 66 56  1  0
 68 70  2  0
 69 68  1  0
 71 69  1  0
 72 81  2  0
 72 77  1  0
 73 69  1  0
 73 77  1  0
 74 73  1  0
 75 76  1  0
 75 74  1  0
 76 72  1  0
 77 78  2  0
 78 79  1  0
 80 79  2  0
 81 80  1  0
 82 56  1  0
 82 83  1  0
 82 92  1  0
 83 86  1  0
 84 88  1  0
 84 83  1  0
 85 84  2  0
 88 87  1  0
 90 88  1  0
 90 91  1  0
 90 89  1  0
 92 95  1  1
 92 93  1  0
 94 92  1  0
M  ISO  4  14 100  15 100  54 101  55 101
M  END
>  <TORSDO>  (49) 
F 22

>  <SCORE>  (49) 
-11.960

>  <name>  (49) 
48

>  <ligand_id>  (49) 
48

>  <original_smiles>  (49) 
[H]C1=C(C([H])([H])C([H])([H])C([H])([H])C([H])([H])Oc2c([H])c([H])c3c(c2[H])C([H])([H])N(C(=O)C([H])(N([H])C(=O)C([H])(N([H])C([H])([H])[H])C([H])([H])[H])C(C([H])([H])[H])(C([H])([H])[H])C([H])([H])[H])C([H])(C(=O)N([H])C2([H])c4c([H])c([H])c([H])c([H])c4C([H])([H])C([H])([H])C2([H])[H])C3([H])[H])C([H])(c2c([H])c([H])c([H])c(C([H])([H])C(=O)N3C([H])([H])C([H])([H])C([H])([H])C([H])(n4nc(-c5c([H])c([H])c(Oc6c([H])c([H])c(F)c([H])c6F)c([H])c5[H])c(C(=O)N([H])[H])c4N([H])[H])C3([H])[H])c2[H])C([H])([H])C([H])(F)C1([H])[H]

>  <smiles>  (49) 
[H]C1=C(C([H])([H])C([H])([H])C([H])([H])C([H])([H])Oc2c([H])c([H])c3c(c2[H])C([H])([H])N(C(=O)C([H])(N([H])C(=O)C([H])(N([H])C([H])([H])[H])C([H])([H])[H])C(C([H])([H])[H])(C([H])([H])[H])C([H])([H])[H])C([H])(C(=O)N([H])C2([H])c4c([H])c([H])c([H])c([H])c4C([H])([H])C([H])([H])C2([H])[H])C3([H])[H])C([H])(c2c([H])c([H])c([H])c(C([H])([H])C(=O)N3C([H])([H])C([H])([H])C([H])([H])C([H])(n4nc(-c5c([H])c([H])c(Oc6c([H])c([H])c(F)c([H])c6F)c([H])c5[H])c(C(=O)N([H])[H])c4N([H])[H])C3([H])[H])c2[H])C([H])([H])C([H])(F)C1([H])[H]

$$$$
50:0:0
     RDKit          3D

 93101  0  0  1  0  0  0  0  0999 V2000
  -27.3880  -20.5880   19.2470 C   0  0  0  0  0  2  0  0  0  0  0  0
  -29.8400  -21.0510   22.1550 C   0  0  0  0  0  3  0  0  0  0  0  0
  -30.8420  -20.1200   21.8260 C   0  0  0  0  0  3  0  0  0  0  0  0
  -28.7240  -21.2070   21.3100 C   0  0  0  0  0  3  0  0  0  0  0  0
  -29.6110  -19.4980   19.8110 C   0  0  0  0  0  3  0  0  0  0  0  0
  -30.7210  -19.3160   20.6680 C   0  0  0  0  0  0  0  0  0  0  0  0
  -28.6100  -20.4380   20.1340 C   0  0  0  0  0  0  0  0  0  0  0  0
  -31.7880  -18.3340   20.3530 C   0  0  0  0  0  0  0  0  0  0  0  0
  -32.9910  -18.5980   20.4540 O   0  0  0  0  0  0  0  0  0  0  0  0
  -31.3360  -16.9270   19.9610 C   0  0  0  0  0  2  0  0  0  0  0  0
  -32.2290  -15.8180   20.5500 C   0  0  0  0  0  2  0  0  0  0  0  0
  -32.3910  -14.6430   19.5890 C   0  0  0  0  0  0  0  0  0  0  0  0
  -31.7710  -12.3750   18.8410 C   0  0  0  0  0  2  0  0  0  0  0  0
  -30.7450  -12.4020   17.6960 C   0  0  0  0  0  2  0  0  0  0  0  0
  -29.3130  -12.4610   18.2590 C   0  0  0  0  0  2  0  0  0  0  0  0
  -29.1450  -13.5860   19.3130 C   0  0  0  0  0  3  0  0  0  0  0  0
  -30.2700  -13.5320   20.3700 C   0  0  0  0  0  2  0  0  0  0  0  0
  -31.5680  -13.5680   19.6730 N   0  0  0  0  0  0  0  0  0  0  0  0
  -33.3300  -14.7000   18.7890 O   0  0  0  0  0  0  0  0  0  0  0  0
  -27.0310  -14.5750   20.4070 C   0  0  0  0  0  0  0  0  0  0  0  0
  -25.8600  -13.9970   20.8190 C   0  0  0  0  0  0  0  0  0  0  0  0
  -26.0000  -12.5980   20.5640 C   0  0  0  0  0  0  0  0  0  0  0  0
  -27.8220  -13.5380   19.9310 N   0  0  0  0  0  0  0  0  0  0  0  0
  -27.2070  -12.3350   20.0830 N   0  0  0  0  0  0  0  0  0  0  0  0
  -25.0340  -11.5000   20.6990 C   0  0  0  0  0  0  0  0  0  0  0  0
  -25.3200  -10.3560   21.4750 C   0  0  0  0  0  3  0  0  0  0  0  0
  -24.3670   -9.3220   21.6040 C   0  0  0  0  0  3  0  0  0  0  0  0
  -23.1130   -9.4260   20.9550 C   0  0  0  0  0  0  0  0  0  0  0  0
  -22.8450  -10.5560   20.1620 C   0  0  0  0  0  3  0  0  0  0  0  0
  -23.7960  -11.5820   20.0310 C   0  0  0  0  0  3  0  0  0  0  0  0
  -22.1360   -8.4590   21.0030 O   0  0  0  0  0  0  0  0  0  0  0  0
  -21.9880   -7.6380   22.0920 C   0  0  0  0  0  0  0  0  0  0  0  0
  -21.7640   -8.1530   23.3880 C   0  0  0  0  0  3  0  0  0  0  0  0
  -21.5450   -7.2730   24.4660 C   0  0  0  0  0  3  0  0  0  0  0  0
  -21.5430   -5.8810   24.2510 C   0  0  0  0  0  0  0  0  0  0  0  0
  -21.7610   -5.3670   22.9610 C   0  0  0  0  0  3  0  0  0  0  0  0
  -21.9800   -6.2450   21.8840 C   0  0  0  0  0  0  0  0  0  0  0  0
  -22.1680   -5.7440   20.6410 F   0  0  0  0  0  0  0  0  0  0  0  0
  -21.3250   -5.0360   25.2870 F   0  0  0  0  0  0  0  0  0  0  0  0
  -24.6410  -14.7070   21.3330 C   0  0  0  0  0  0  0  0  0  0  0  0
  -23.9120  -14.0860   22.2540 N   0  0  0  0  0  0  0  0  0  0  0  0
  -24.3550  -15.8440   20.9540 O   0  0  0  0  0  0  0  0  0  0  0  0
  -24.1530  -13.1630   22.5780 H   0  0  0  0  0  0  0  0  0  0  0  0
  -23.0970  -14.5440   22.6400 H   0  0  0  0  0  0  0  0  0  0  0  0
  -27.4850  -15.8890   20.3790 N   0  0  0  0  0  0  0  0  0  0  0  0
  -26.9120  -16.6690   20.6850 H   0  0  0  0  0  0  0  0  0  0  0  0
  -28.3850  -16.1820   20.0200 H   0  0  0  0  0  0  0  0  0  0  0  0
  -27.3370  -21.9020   18.4540 C   0  0  0  0  0  2  0  0  0  0  0  0
  -27.4360  -23.1790   19.3090 C   0  0  0  0  0  2  0  0  0  0  0  0
  -27.1450  -24.4570   18.5130 C   0  0  0  0  0  0  0  0  0  0  0  0
  -26.3820  -24.4600   17.5400 O   0  0  0  0  0  0  0  0  0  0  0  0
  -27.8330  -25.7430   18.9830 C   0  0  0  0  0  2  0  0  0  0  0  0
  -26.9680  -26.8730   18.8480 O   0  0  0  0  0  0  0  0  0  0  0  0
  -27.6620  -31.2560   24.3790 C   0  0  0  0  0  0  0  0  0  0  0  0
  -26.4250  -27.3170   20.0280 C   0  0  0  0  0  0  0  0  0  0  0  0
  -25.9030  -29.5310   24.5910 C   0  0  0  0  0  3  0  0  0  0  0  0
  -25.3400  -28.2550   22.4570 C   0  0  0  0  0  0  0  0  0  0  0  0
  -26.5950  -30.4140   22.2950 C   0  0  0  0  0  2  0  0  0  0  0  0
  -26.2300  -29.0560   21.7320 C   0  0  0  0  0  0  0  0  0  0  0  0
  -26.7690  -28.5970   20.5120 C   0  0  0  0  0  3  0  0  0  0  0  0
  -25.5220  -26.5190   20.7650 C   0  0  0  0  0  3  0  0  0  0  0  0
  -24.9790  -26.9820   21.9770 C   0  0  0  0  0  3  0  0  0  0  0  0
  -24.8070  -28.8230   23.7500 C   0  0  0  0  0  2  0  0  0  0  0  0
  -26.7780  -30.4210   23.7650 N   0  0  0  0  0  0  0  0  0  0  0  0
  -27.7220  -31.3270   25.6140 O   0  0  0  0  0  0  0  0  0  0  0  0
  -26.6900  -28.4590   25.3770 C   0  0  0  0  0  0  0  0  0  0  0  0
  -26.2710  -28.2090   26.6280 N   0  0  0  0  0  0  0  0  0  0  0  0
  -27.6350  -27.8570   24.8580 O   0  0  0  0  0  0  0  0  0  0  0  0
  -25.4980  -28.7540   26.9850 H   0  0  0  0  0  0  0  0  0  0  0  0
  -26.1970  -27.0120   30.0370 C   0  0  0  0  0  0  0  0  0  0  0  0
  -26.8240  -27.2070   27.5370 C   0  0  0  0  0  3  0  0  0  0  0  0
  -26.1150  -25.8460   27.3530 C   0  0  0  0  0  2  0  0  0  0  0  0
  -24.9470  -25.6320   28.3240 C   0  0  0  0  0  2  0  0  0  0  0  0
  -25.4290  -25.7290   29.7720 C   0  0  0  0  0  2  0  0  0  0  0  0
  -26.8440  -27.7120   28.9850 C   0  0  0  0  0  0  0  0  0  0  0  0
  -27.5150  -28.9170   29.2770 C   0  0  0  0  0  3  0  0  0  0  0  0
  -27.5520  -29.4240   30.5910 C   0  0  0  0  0  3  0  0  0  0  0  0
  -26.9260  -28.7160   31.6310 C   0  0  0  0  0  3  0  0  0  0  0  0
  -26.2500  -27.5140   31.3540 C   0  0  0  0  0  3  0  0  0  0  0  0
  -28.6200  -32.1810   23.5620 C   0  0  0  0  0  3  0  0  0  0  0  0
  -28.6110  -33.5020   24.2050 N   0  0  0  0  0  0  0  0  0  0  0  0
  -27.9580  -34.5700   23.7320 C   0  0  0  0  0  0  0  0  0  0  0  0
  -27.3490  -34.5630   22.6590 O   0  0  0  0  0  0  0  0  0  0  0  0
  -29.0390  -33.5640   25.1160 H   0  0  0  0  0  0  0  0  0  0  0  0
  -26.6290  -36.0250   25.2930 C   0  0  0  0  0  1  0  0  0  0  0  0
  -27.9830  -35.8510   24.5870 C   0  0  0  0  0  3  0  0  0  0  0  0
  -29.6830  -37.1150   23.3470 C   0  0  0  0  0  1  0  0  0  0  0  0
  -28.2980  -37.0690   23.8080 N   0  0  0  0  0  0  0  0  0  0  0  0
  -28.1180  -37.9060   24.3570 H   0  0  0  0  0  0  0  0  0  0  0  0
  -30.0900  -31.6160   23.4620 C   0  0  1  0  0  0  0  0  0  0  0  0
  -30.7040  -31.2350   24.8300 C   0  0  0  0  0  1  0  0  0  0  0  0
  -30.1330  -30.3610   22.5590 C   0  0  0  0  0  1  0  0  0  0  0  0
  -31.0120  -32.6690   22.8030 C   0  0  0  0  0  1  0  0  0  0  0  0
  1  7  1  0
  3  2  1  0
  4  2  2  0
  5  7  2  0
  5  6  1  0
  6  3  2  0
  7  4  1  0
  8  9  2  0
  8  6  1  0
 10  8  1  0
 10 11  1  0
 12 18  1  0
 12 11  1  0
 13 18  1  0
 14 15  1  0
 14 13  1  0
 16 15  1  0
 16 23  1  0
 16 17  1  0
 18 17  1  0
 19 12  2  0
 20 21  2  0
 21 40  1  0
 22 25  1  0
 22 21  1  0
 23 24  1  0
 23 20  1  0
 24 22  2  0
 25 26  1  0
 26 27  2  0
 28 31  1  0
 28 27  1  0
 29 28  2  0
 30 29  1  0
 30 25  2  0
 31 32  1  0
 32 33  1  0
 33 34  2  0
 35 34  1  0
 35 39  1  0
 36 35  2  0
 37 32  2  0
 37 36  1  0
 38 37  1  0
 40 41  1  0
 41 43  1  0
 41 44  1  0
 42 40  2  0
 45 20  1  0
 45 46  1  0
 47 45  1  0
 48  1  1  0
 48 49  1  0
 50 52  1  0
 50 49  1  0
 51 50  2  0
 53 52  1  0
 53 55  1  0
 54 65  2  0
 55 60  2  0
 55 61  1  0
 56 66  1  0
 57 63  1  0
 58 64  1  0
 59 58  1  0
 59 57  2  0
 60 59  1  0
 61 62  2  0
 62 57  1  0
 63 56  1  0
 64 54  1  0
 64 56  1  0
 66 67  1  0
 67 69  1  0
 68 66  2  0
 70 79  1  0
 71 67  1  0
 71 75  1  0
 72 71  1  0
 72 73  1  0
 73 74  1  0
 74 70  1  0
 75 76  1  0
 75 70  2  0
 76 77  2  0
 77 78  1  0
 79 78  2  0
 80 81  1  0
 80 54  1  0
 81 84  1  0
 82 81  1  0
 82 86  1  0
 83 82  2  0
 86 85  1  0
 87 88  1  0
 88 89  1  0
 88 86  1  0
 90 80  1  0
 90 91  1  1
 92 90  1  0
 93 90  1  0
M  ISO  4  11 100  12 100  52 101  53 101
M  END
>  <TORSDO>  (50) 
F 24

>  <SCORE>  (50) 
-7.767

>  <name>  (50) 
50

>  <ligand_id>  (50) 
50

>  <original_smiles>  (50) 
[H]c1c([H])c(C(=O)C([H])([H])C([H])([H])C(=O)N2C([H])([H])C([H])([H])C([H])([H])C([H])(n3nc(-c4c([H])c([H])c(Oc5c([H])c([H])c(F)c([H])c5F)c([H])c4[H])c(C(=O)N([H])[H])c3N([H])[H])C2([H])[H])c([H])c(C([H])([H])C([H])([H])C([H])([H])C(=O)C([H])([H])Oc2c([H])c([H])c3c(c2[H])C([H])([H])N(C(=O)C([H])(N([H])C(=O)C([H])(N([H])C([H])([H])[H])C([H])([H])[H])C(C([H])([H])[H])(C([H])([H])[H])C([H])([H])[H])C([H])(C(=O)N([H])C2([H])c4c([H])c([H])c([H])c([H])c4C([H])([H])C([H])([H])C2([H])[H])C3([H])[H])c1[H]

>  <smiles>  (50) 
[H]c1c([H])c(C(=O)C([H])([H])C([H])([H])C(=O)N2C([H])([H])C([H])([H])C([H])([H])C([H])(n3nc(-c4c([H])c([H])c(Oc5c([H])c([H])c(F)c([H])c5F)c([H])c4[H])c(C(=O)N([H])[H])c3N([H])[H])C2([H])[H])c([H])c(C([H])([H])C([H])([H])C([H])([H])C(=O)C([H])([H])Oc2c([H])c([H])c3c(c2[H])C([H])([H])N(C(=O)C([H])(N([H])C(=O)C([H])(N([H])C([H])([H])[H])C([H])([H])[H])C(C([H])([H])[H])(C([H])([H])[H])C([H])([H])[H])C([H])(C(=O)N([H])C2([H])c4c([H])c([H])c([H])c([H])c4C([H])([H])C([H])([H])C2([H])[H])C3([H])[H])c1[H]

$$$$
51:0:0
     RDKit          3D

 92100  0  0  1  0  0  0  0  0999 V2000
  -28.1730  -22.1360   21.0170 C   0  0  0  0  0  3  0  0  0  0  0  0
  -27.4900  -20.9240   20.8060 C   0  0  0  0  0  3  0  0  0  0  0  0
  -30.2480  -21.0360   20.4170 C   0  0  0  0  0  3  0  0  0  0  0  0
  -29.5650  -22.2160   20.8160 C   0  0  0  0  0  0  0  0  0  0  0  0
  -28.1730  -19.7650   20.3750 C   0  0  0  0  0  0  0  0  0  0  0  0
  -29.5790  -19.8060   20.1820 C   0  0  0  0  0  0  0  0  0  0  0  0
  -27.3570  -18.5180   20.0860 C   0  0  0  0  0  1  0  0  0  0  0  0
  -30.3380  -23.4750   20.9560 C   0  0  0  0  0  3  0  0  0  0  0  0
  -30.0130  -24.7800   20.7700 C   0  0  0  0  0  3  0  0  0  0  0  0
  -28.7240  -25.4360   20.2870 C   0  0  0  0  0  2  0  0  0  0  0  0
  -28.7530  -26.8580   20.4970 O   0  0  0  0  0  0  0  0  0  0  0  0
  -24.7190  -31.9660   23.3610 C   0  0  0  0  0  0  0  0  0  0  0  0
  -27.5540  -27.5470   20.4250 C   0  0  0  0  0  0  0  0  0  0  0  0
  -23.5980  -30.5240   21.6980 C   0  0  0  0  0  3  0  0  0  0  0  0
  -25.1270  -29.0030   20.3390 C   0  0  0  0  0  0  0  0  0  0  0  0
  -26.1210  -30.9350   21.5760 C   0  0  0  0  0  2  0  0  0  0  0  0
  -26.2540  -29.5620   20.9500 C   0  0  0  0  0  0  0  0  0  0  0  0
  -27.4720  -28.8450   20.9800 C   0  0  0  0  0  3  0  0  0  0  0  0
  -26.4020  -27.0020   19.8110 C   0  0  0  0  0  3  0  0  0  0  0  0
  -25.1930  -27.7210   19.7680 C   0  0  0  0  0  3  0  0  0  0  0  0
  -23.8680  -29.8390   20.3310 C   0  0  0  0  0  2  0  0  0  0  0  0
  -24.8290  -31.1590   22.2700 N   0  0  0  0  0  0  0  0  0  0  0  0
  -23.6140  -32.2190   23.8620 O   0  0  0  0  0  0  0  0  0  0  0  0
  -22.9330  -29.5010   22.6430 C   0  0  0  0  0  0  0  0  0  0  0  0
  -21.6150  -29.2970   22.4750 N   0  0  0  0  0  0  0  0  0  0  0  0
  -23.5990  -28.8910   23.4850 O   0  0  0  0  0  0  0  0  0  0  0  0
  -21.1430  -29.8350   21.7620 H   0  0  0  0  0  0  0  0  0  0  0  0
  -18.2380  -28.0760   22.8960 C   0  0  0  0  0  0  0  0  0  0  0  0
  -20.7870  -28.3540   23.2270 C   0  0  0  0  0  3  0  0  0  0  0  0
  -20.9140  -26.9220   22.6610 C   0  0  0  0  0  2  0  0  0  0  0  0
  -19.8420  -26.6000   21.6140 C   0  0  0  0  0  2  0  0  0  0  0  0
  -18.4420  -26.7300   22.2230 C   0  0  0  0  0  2  0  0  0  0  0  0
  -19.3420  -28.8450   23.3520 C   0  0  0  0  0  0  0  0  0  0  0  0
  -19.1020  -30.1070   23.9380 C   0  0  0  0  0  3  0  0  0  0  0  0
  -17.7920  -30.6000   24.0720 C   0  0  0  0  0  3  0  0  0  0  0  0
  -16.7010  -29.8280   23.6340 C   0  0  0  0  0  3  0  0  0  0  0  0
  -16.9260  -28.5680   23.0500 C   0  0  0  0  0  3  0  0  0  0  0  0
  -25.9690  -32.6290   24.0190 C   0  0  0  0  0  3  0  0  0  0  0  0
  -25.6310  -34.0310   24.2980 N   0  0  0  0  0  0  0  0  0  0  0  0
  -25.9950  -35.0680   23.5340 C   0  0  0  0  0  0  0  0  0  0  0  0
  -26.7210  -34.9470   22.5430 O   0  0  0  0  0  0  0  0  0  0  0  0
  -24.9930  -34.1960   25.0620 H   0  0  0  0  0  0  0  0  0  0  0  0
  -24.2720  -36.8320   23.0440 C   0  0  0  0  0  1  0  0  0  0  0  0
  -25.4710  -36.4610   23.9310 C   0  0  0  0  0  3  0  0  0  0  0  0
  -27.5510  -37.3840   24.8510 C   0  0  0  0  0  1  0  0  0  0  0  0
  -26.5000  -37.5210   23.8460 N   0  0  0  0  0  0  0  0  0  0  0  0
  -26.0810  -38.4420   23.9460 H   0  0  0  0  0  0  0  0  0  0  0  0
  -26.4410  -31.8940   25.3340 C   0  0  1  0  0  0  0  0  0  0  0  0
  -25.2980  -31.6510   26.3480 C   0  0  0  0  0  1  0  0  0  0  0  0
  -27.0790  -30.5260   24.9980 C   0  0  0  0  0  1  0  0  0  0  0  0
  -27.5350  -32.7310   26.0350 C   0  0  0  0  0  1  0  0  0  0  0  0
  -30.3690  -18.6300   19.5580 C   0  0  0  0  0  2  0  0  0  0  0  0
  -31.0480  -17.5010   20.4300 C   0  0  0  0  0  3  0  0  0  0  0  0
  -31.9890  -18.8530   22.4400 C   0  0  0  0  0  1  0  0  0  0  0  0
  -31.0510  -17.7390   21.9570 C   0  0  0  0  0  2  0  0  0  0  0  0
  -30.4610  -16.0780   20.1080 C   0  0  0  0  0  2  0  0  0  0  0  0
  -31.3840  -14.8110   20.1360 C   0  0  0  0  0  0  0  0  0  0  0  0
  -31.1840  -12.5050   19.2930 C   0  0  0  0  0  2  0  0  0  0  0  0
  -30.2770  -12.5950   18.0440 C   0  0  0  0  0  2  0  0  0  0  0  0
  -28.7900  -12.4930   18.4470 C   0  0  0  0  0  2  0  0  0  0  0  0
  -28.4240  -13.4600   19.6050 C   0  0  0  0  0  3  0  0  0  0  0  0
  -29.4480  -13.3390   20.7540 C   0  0  0  0  0  2  0  0  0  0  0  0
  -30.7870  -13.5890   20.2040 N   0  0  0  0  0  0  0  0  0  0  0  0
  -32.5720  -14.9310   19.8190 O   0  0  0  0  0  0  0  0  0  0  0  0
  -26.0700  -14.2050   20.3230 C   0  0  0  0  0  0  0  0  0  0  0  0
  -24.9570  -13.4920   20.6860 C   0  0  0  0  0  0  0  0  0  0  0  0
  -25.3420  -12.1190   20.6470 C   0  0  0  0  0  0  0  0  0  0  0  0
  -27.0590  -13.2650   20.0810 N   0  0  0  0  0  0  0  0  0  0  0  0
  -26.6270  -12.0070   20.3350 N   0  0  0  0  0  0  0  0  0  0  0  0
  -24.5510  -10.8970   20.8270 C   0  0  0  0  0  0  0  0  0  0  0  0
  -24.8890   -9.9360   21.8060 C   0  0  0  0  0  3  0  0  0  0  0  0
  -24.1020   -8.7760   21.9700 C   0  0  0  0  0  3  0  0  0  0  0  0
  -22.9630   -8.5710   21.1550 C   0  0  0  0  0  0  0  0  0  0  0  0
  -22.6460   -9.5200   20.1690 C   0  0  0  0  0  3  0  0  0  0  0  0
  -23.4330  -10.6720   20.0030 C   0  0  0  0  0  3  0  0  0  0  0  0
  -22.1530   -7.4630   21.2290 O   0  0  0  0  0  0  0  0  0  0  0  0
  -21.9500   -6.8010   22.4120 C   0  0  0  0  0  0  0  0  0  0  0  0
  -21.4270   -7.4500   23.5520 C   0  0  0  0  0  3  0  0  0  0  0  0
  -21.1670   -6.7140   24.7240 C   0  0  0  0  0  3  0  0  0  0  0  0
  -21.4160   -5.3290   24.7560 C   0  0  0  0  0  0  0  0  0  0  0  0
  -21.9340   -4.6800   23.6200 C   0  0  0  0  0  3  0  0  0  0  0  0
  -22.1960   -5.4140   22.4500 C   0  0  0  0  0  0  0  0  0  0  0  0
  -22.6720   -4.7820   21.3520 F   0  0  0  0  0  0  0  0  0  0  0  0
  -21.1590   -4.6170   25.8780 F   0  0  0  0  0  0  0  0  0  0  0  0
  -23.5900  -14.0470   20.9600 C   0  0  0  0  0  0  0  0  0  0  0  0
  -22.8320  -13.3930   21.8320 N   0  0  0  0  0  0  0  0  0  0  0  0
  -23.2080  -15.0940   20.4390 O   0  0  0  0  0  0  0  0  0  0  0  0
  -23.1580  -12.5430   22.2700 H   0  0  0  0  0  0  0  0  0  0  0  0
  -21.9140  -13.7470   22.0610 H   0  0  0  0  0  0  0  0  0  0  0  0
  -26.3150  -15.5620   20.1590 N   0  0  0  0  0  0  0  0  0  0  0  0
  -25.5880  -16.2590   20.2650 H   0  0  0  0  0  0  0  0  0  0  0  0
  -27.1890  -15.9450   19.8270 H   0  0  0  0  0  0  0  0  0  0  0  0
  2  1  2  0
  3  4  2  0
  4  8  1  0
  4  1  1  0
  5  2  1  0
  6  5  2  0
  6  3  1  0
  7  5  1  0
  9  8  2  0
 10 11  1  0
 10  9  1  0
 12 23  2  0
 13 11  1  0
 13 18  1  0
 14 22  1  0
 14 24  1  0
 15 17  1  0
 16 22  1  0
 17 18  2  0
 17 16  1  0
 19 13  2  0
 20 19  1  0
 20 15  2  0
 21 15  1  0
 21 14  1  0
 22 12  1  0
 24 26  2  0
 25 24  1  0
 27 25  1  0
 28 37  2  0
 28 33  1  0
 29 25  1  0
 29 33  1  0
 30 29  1  0
 31 32  1  0
 31 30  1  0
 32 28  1  0
 33 34  2  0
 34 35  1  0
 36 35  2  0
 37 36  1  0
 38 12  1  0
 38 39  1  0
 38 48  1  0
 39 42  1  0
 40 44  1  0
 40 39  1  0
 41 40  2  0
 44 43  1  0
 46 44  1  0
 46 47  1  0
 46 45  1  0
 48 51  1  1
 48 49  1  0
 50 48  1  0
 52  6  1  0
 53 52  1  0
 53 55  1  0
 55 54  1  0
 56 57  1  0
 56 53  1  0
 57 63  1  0
 58 63  1  0
 59 60  1  0
 59 58  1  0
 61 60  1  0
 61 68  1  0
 61 62  1  0
 63 62  1  0
 64 57  2  0
 65 66  2  0
 66 85  1  0
 67 66  1  0
 67 70  1  0
 68 65  1  0
 68 69  1  0
 69 67  2  0
 70 71  1  0
 71 72  2  0
 73 76  1  0
 73 72  1  0
 74 73  2  0
 75 74  1  0
 75 70  2  0
 76 77  1  0
 77 82  2  0
 77 78  1  0
 78 79  2  0
 79 80  1  0
 80 84  1  0
 81 80  2  0
 82 81  1  0
 83 82  1  0
 85 86  1  0
 86 89  1  0
 86 88  1  0
 87 85  2  0
 90 91  1  0
 90 65  1  0
 92 90  1  0
M  ISO  4  10 101  11 101  56 100  57 100
M  END
>  <TORSDO>  (51) 
F 22

>  <SCORE>  (51) 
-11.990

>  <name>  (51) 
51

>  <ligand_id>  (51) 
51

>  <original_smiles>  (51) 
[H]C(=C([H])C([H])([H])Oc1c([H])c([H])c2c(c1[H])C([H])([H])N(C(=O)C([H])(N([H])C(=O)C([H])(N([H])C([H])([H])[H])C([H])([H])[H])C(C([H])([H])[H])(C([H])([H])[H])C([H])([H])[H])C([H])(C(=O)N([H])C1([H])c3c([H])c([H])c([H])c([H])c3C([H])([H])C([H])([H])C1([H])[H])C2([H])[H])c1c([H])c([H])c(C([H])([H])[H])c(C([H])([H])C([H])(C([H])([H])C(=O)N2C([H])([H])C([H])([H])C([H])([H])C([H])(n3nc(-c4c([H])c([H])c(Oc5c([H])c([H])c(F)c([H])c5F)c([H])c4[H])c(C(=O)N([H])[H])c3N([H])[H])C2([H])[H])C([H])([H])C([H])([H])[H])c1[H]

>  <smiles>  (51) 
[H]C(=C([H])C([H])([H])Oc1c([H])c([H])c2c(c1[H])C([H])([H])N(C(=O)C([H])(N([H])C(=O)C([H])(N([H])C([H])([H])[H])C([H])([H])[H])C(C([H])([H])[H])(C([H])([H])[H])C([H])([H])[H])C([H])(C(=O)N([H])C1([H])c3c([H])c([H])c([H])c([H])c3C([H])([H])C([H])([H])C1([H])[H])C2([H])[H])c1c([H])c([H])c(C([H])([H])[H])c(C([H])([H])C([H])(C([H])([H])C(=O)N2C([H])([H])C([H])([H])C([H])([H])C([H])(n3nc(-c4c([H])c([H])c(Oc5c([H])c([H])c(F)c([H])c5F)c([H])c4[H])c(C(=O)N([H])[H])c3N([H])[H])C2([H])[H])C([H])([H])C([H])([H])[H])c1[H]

$$$$
52:0:0
     RDKit          3D

 93101  0  0  1  0  0  0  0  0999 V2000
  -28.5460  -21.8280   20.8560 C   0  0  0  0  0  0  0  0  0  0  0  0
  -28.5190  -22.9550   20.1130 N   0  0  0  0  0  0  0  0  0  0  0  0
  -28.2580  -21.8350   22.0550 O   0  0  0  0  0  0  0  0  0  0  0  0
  -28.7940  -22.8710   19.1450 H   0  0  0  0  0  0  0  0  0  0  0  0
  -28.9350  -20.3890   18.7860 C   0  0  0  0  0  3  0  0  0  0  0  0
  -29.3990  -19.2120   18.1690 C   0  0  0  0  0  3  0  0  0  0  0  0
  -29.4870  -19.4330   20.9510 C   0  0  0  0  0  3  0  0  0  0  0  0
  -29.0060  -20.5390   20.1880 C   0  0  0  0  0  0  0  0  0  0  0  0
  -29.9320  -18.1470   18.9260 C   0  0  0  0  0  0  0  0  0  0  0  0
  -29.9550  -18.2270   20.3450 C   0  0  0  0  0  0  0  0  0  0  0  0
  -30.5190  -16.9660   18.1710 C   0  0  0  0  0  1  0  0  0  0  0  0
  -30.5750  -17.1160   21.2370 C   0  0  0  0  0  2  0  0  0  0  0  0
  -30.8850  -14.6550   20.6850 C   0  0  0  0  0  0  0  0  0  0  0  0
  -30.6630  -12.4580   19.5800 C   0  0  0  0  0  2  0  0  0  0  0  0
  -29.7760  -12.6150   18.3300 C   0  0  0  0  0  2  0  0  0  0  0  0
  -28.2860  -12.4730   18.6960 C   0  0  0  0  0  2  0  0  0  0  0  0
  -27.8790  -13.3380   19.9190 C   0  0  0  0  0  3  0  0  0  0  0  0
  -28.8860  -13.1660   21.0780 C   0  0  0  0  0  2  0  0  0  0  0  0
  -30.2280  -13.4700   20.5560 N   0  0  0  0  0  0  0  0  0  0  0  0
  -32.0580  -14.8020   20.3310 O   0  0  0  0  0  0  0  0  0  0  0  0
  -30.1270  -15.7140   21.0550 N   0  0  0  0  0  0  0  0  0  0  0  0
  -29.1680  -15.5130   21.2930 H   0  0  0  0  0  0  0  0  0  0  0  0
  -25.4500  -13.9430   20.5070 C   0  0  0  0  0  0  0  0  0  0  0  0
  -24.3700  -13.1710   20.8390 C   0  0  0  0  0  0  0  0  0  0  0  0
  -24.8390  -11.8220   20.8560 C   0  0  0  0  0  0  0  0  0  0  0  0
  -26.5080  -13.0640   20.3410 N   0  0  0  0  0  0  0  0  0  0  0  0
  -26.1420  -11.7840   20.6100 N   0  0  0  0  0  0  0  0  0  0  0  0
  -24.1100  -10.5590   21.0340 C   0  0  0  0  0  0  0  0  0  0  0  0
  -24.4960   -9.6150   22.0100 C   0  0  0  0  0  3  0  0  0  0  0  0
  -23.7680   -8.4170   22.1740 C   0  0  0  0  0  3  0  0  0  0  0  0
  -22.6410   -8.1540   21.3600 C   0  0  0  0  0  0  0  0  0  0  0  0
  -22.2750   -9.0880   20.3740 C   0  0  0  0  0  3  0  0  0  0  0  0
  -23.0040  -10.2760   20.2100 C   0  0  0  0  0  3  0  0  0  0  0  0
  -21.8890   -7.0070   21.4320 O   0  0  0  0  0  0  0  0  0  0  0  0
  -21.7720   -6.2950   22.5980 C   0  0  0  0  0  0  0  0  0  0  0  0
  -21.2470   -6.8730   23.7750 C   0  0  0  0  0  3  0  0  0  0  0  0
  -21.0780   -6.0860   24.9310 C   0  0  0  0  0  3  0  0  0  0  0  0
  -21.4260   -4.7220   24.9130 C   0  0  0  0  0  0  0  0  0  0  0  0
  -21.9420   -4.1420   23.7410 C   0  0  0  0  0  3  0  0  0  0  0  0
  -22.1130   -4.9260   22.5860 C   0  0  0  0  0  0  0  0  0  0  0  0
  -22.5930   -4.3580   21.4540 F   0  0  0  0  0  0  0  0  0  0  0  0
  -21.2560   -3.9640   26.0220 F   0  0  0  0  0  0  0  0  0  0  0  0
  -22.9570  -13.6450   21.0340 C   0  0  0  0  0  0  0  0  0  0  0  0
  -22.1890  -12.9600   21.8740 N   0  0  0  0  0  0  0  0  0  0  0  0
  -22.5410  -14.6600   20.4770 O   0  0  0  0  0  0  0  0  0  0  0  0
  -22.5350  -12.1400   22.3490 H   0  0  0  0  0  0  0  0  0  0  0  0
  -21.2430  -13.2680   22.0490 H   0  0  0  0  0  0  0  0  0  0  0  0
  -25.6120  -15.3130   20.3140 N   0  0  0  0  0  0  0  0  0  0  0  0
  -24.8340  -15.9580   20.3900 H   0  0  0  0  0  0  0  0  0  0  0  0
  -26.4640  -15.7600   19.9980 H   0  0  0  0  0  0  0  0  0  0  0  0
  -28.1220  -24.3000   20.5930 C   0  0  0  0  0  2  0  0  0  0  0  0
  -28.4830  -25.4440   19.6030 C   0  0  0  0  0  2  0  0  0  0  0  0
  -28.3780  -26.7740   20.1600 O   0  0  0  0  0  0  0  0  0  0  0  0
  -24.5290  -31.9100   23.2780 C   0  0  0  0  0  0  0  0  0  0  0  0
  -27.1800  -27.4730   20.1530 C   0  0  0  0  0  0  0  0  0  0  0  0
  -23.3270  -30.5190   21.6290 C   0  0  0  0  0  3  0  0  0  0  0  0
  -24.7800  -28.9910   20.1930 C   0  0  0  0  0  0  0  0  0  0  0  0
  -25.8540  -30.8780   21.4310 C   0  0  0  0  0  2  0  0  0  0  0  0
  -25.9400  -29.5110   20.7770 C   0  0  0  0  0  0  0  0  0  0  0  0
  -27.1400  -28.7600   20.7510 C   0  0  0  0  0  3  0  0  0  0  0  0
  -25.9910  -26.9680   19.5800 C   0  0  0  0  0  3  0  0  0  0  0  0
  -24.8010  -27.7190   19.5960 C   0  0  0  0  0  3  0  0  0  0  0  0
  -23.5380  -29.8520   20.2440 C   0  0  0  0  0  2  0  0  0  0  0  0
  -24.5880  -31.1180   22.1700 N   0  0  0  0  0  0  0  0  0  0  0  0
  -23.4480  -32.1760   23.8210 O   0  0  0  0  0  0  0  0  0  0  0  0
  -22.6790  -29.4880   22.5810 C   0  0  0  0  0  0  0  0  0  0  0  0
  -21.3560  -29.2980   22.4510 N   0  0  0  0  0  0  0  0  0  0  0  0
  -23.3640  -28.8620   23.3960 O   0  0  0  0  0  0  0  0  0  0  0  0
  -20.8650  -29.8520   21.7620 H   0  0  0  0  0  0  0  0  0  0  0  0
  -17.9850  -28.0860   22.9370 C   0  0  0  0  0  0  0  0  0  0  0  0
  -20.5430  -28.3510   23.2130 C   0  0  0  0  0  3  0  0  0  0  0  0
  -20.6510  -26.9260   22.6260 C   0  0  0  0  0  2  0  0  0  0  0  0
  -19.5510  -26.6070   21.6070 C   0  0  0  0  0  2  0  0  0  0  0  0
  -18.1690  -26.7420   22.2510 C   0  0  0  0  0  2  0  0  0  0  0  0
  -19.1010  -28.8490   23.3740 C   0  0  0  0  0  0  0  0  0  0  0  0
  -18.8770  -30.1070   23.9750 C   0  0  0  0  0  3  0  0  0  0  0  0
  -17.5720  -30.6020   24.1440 C   0  0  0  0  0  3  0  0  0  0  0  0
  -16.4700  -29.8360   23.7240 C   0  0  0  0  0  3  0  0  0  0  0  0
  -16.6780  -28.5790   23.1270 C   0  0  0  0  0  3  0  0  0  0  0  0
  -25.8140  -32.5400   23.9020 C   0  0  0  0  0  3  0  0  0  0  0  0
  -26.3150  -31.7840   25.1930 C   0  0  1  0  0  0  0  0  0  0  0  0
  -25.2120  -31.5650   26.2540 C   0  0  0  0  0  1  0  0  0  0  0  0
  -26.8930  -30.3980   24.8230 C   0  0  0  0  0  1  0  0  0  0  0  0
  -27.4670  -32.5780   25.8530 C   0  0  0  0  0  1  0  0  0  0  0  0
  -25.5140  -33.9460   24.2090 N   0  0  0  0  0  0  0  0  0  0  0  0
  -25.8690  -34.9840   23.4400 C   0  0  0  0  0  0  0  0  0  0  0  0
  -26.5580  -34.8590   22.4230 O   0  0  0  0  0  0  0  0  0  0  0  0
  -24.9060  -34.1160   24.9960 H   0  0  0  0  0  0  0  0  0  0  0  0
  -24.1770  -36.7930   23.0120 C   0  0  0  0  0  1  0  0  0  0  0  0
  -25.3870  -36.3820   23.8670 C   0  0  0  0  0  3  0  0  0  0  0  0
  -27.5040  -37.2510   24.7600 C   0  0  0  0  0  1  0  0  0  0  0  0
  -26.4380  -37.4200   23.7750 N   0  0  0  0  0  0  0  0  0  0  0  0
  -26.0390  -38.3470   23.8980 H   0  0  0  0  0  0  0  0  0  0  0  0
  1  3  2  0
  2 51  1  0
  2  1  1  0
  4  2  1  0
  5  8  1  0
  6  5  2  0
  6  9  1  0
  8  1  1  0
  8  7  2  0
  9 10  2  0
 10  7  1  0
 10 12  1  0
 11  9  1  0
 13 21  1  0
 14 19  1  0
 15 16  1  0
 15 14  1  0
 17 16  1  0
 17 26  1  0
 17 18  1  0
 19 13  1  0
 19 18  1  0
 20 13  2  0
 21 12  1  0
 21 22  1  0
 23 24  2  0
 24 25  1  0
 24 43  1  0
 25 28  1  0
 26 23  1  0
 26 27  1  0
 27 25  2  0
 28 29  1  0
 29 30  2  0
 31 34  1  0
 31 30  1  0
 32 31  2  0
 33 32  1  0
 33 28  2  0
 34 35  1  0
 35 36  1  0
 36 37  2  0
 38 37  1  0
 38 42  1  0
 39 38  2  0
 40 35  2  0
 40 39  1  0
 41 40  1  0
 43 44  1  0
 44 47  1  0
 44 46  1  0
 45 43  2  0
 48 49  1  0
 48 23  1  0
 50 48  1  0
 52 53  1  0
 52 51  1  0
 54 65  2  0
 55 53  1  0
 55 60  1  0
 56 64  1  0
 56 66  1  0
 57 63  1  0
 57 59  1  0
 58 64  1  0
 59 58  1  0
 60 59  2  0
 61 62  1  0
 61 55  2  0
 62 57  2  0
 63 56  1  0
 64 54  1  0
 66 68  2  0
 67 66  1  0
 69 67  1  0
 70 79  2  0
 70 75  1  0
 71 67  1  0
 71 75  1  0
 72 71  1  0
 73 74  1  0
 73 72  1  0
 74 70  1  0
 75 76  2  0
 76 77  1  0
 78 77  2  0
 79 78  1  0
 80 54  1  0
 80 85  1  0
 80 81  1  0
 81 84  1  1
 81 82  1  0
 83 81  1  0
 85 88  1  0
 86 90  1  0
 86 85  1  0
 87 86  2  0
 90 89  1  0
 92 90  1  0
 92 93  1  0
 92 91  1  0
M  ISO  4  13 100  21 100  52 101  53 101
M  END
>  <TORSDO>  (52) 
F 20

>  <SCORE>  (52) 
-13.721

>  <name>  (52) 
52

>  <ligand_id>  (52) 
52

>  <original_smiles>  (52) 
[H]c1c([H])c([H])c2c(c1[H])C([H])([H])C([H])([H])C([H])([H])C2([H])N([H])C(=O)C1([H])N(C(=O)C([H])(N([H])C(=O)C([H])(N([H])C([H])([H])[H])C([H])([H])[H])C(C([H])([H])[H])(C([H])([H])[H])C([H])([H])[H])C([H])([H])c2c([H])c(OC([H])([H])C([H])([H])N([H])C(=O)c3c([H])c([H])c(C([H])([H])[H])c(C([H])([H])N([H])C(=O)N4C([H])([H])C([H])([H])C([H])([H])C([H])(n5nc(-c6c([H])c([H])c(Oc7c([H])c([H])c(F)c([H])c7F)c([H])c6[H])c(C(=O)N([H])[H])c5N([H])[H])C4([H])[H])c3[H])c([H])c([H])c2C1([H])[H]

>  <smiles>  (52) 
[H]c1c([H])c([H])c2c(c1[H])C([H])([H])C([H])([H])C([H])([H])C2([H])N([H])C(=O)C1([H])N(C(=O)C([H])(N([H])C(=O)C([H])(N([H])C([H])([H])[H])C([H])([H])[H])C(C([H])([H])[H])(C([H])([H])[H])C([H])([H])[H])C([H])([H])c2c([H])c(OC([H])([H])C([H])([H])N([H])C(=O)c3c([H])c([H])c(C([H])([H])[H])c(C([H])([H])N([H])C(=O)N4C([H])([H])C([H])([H])C([H])([H])C([H])(n5nc(-c6c([H])c([H])c(Oc7c([H])c([H])c(F)c([H])c7F)c([H])c6[H])c(C(=O)N([H])[H])c5N([H])[H])C4([H])[H])c3[H])c([H])c([H])c2C1([H])[H]

$$$$
53:0:0
     RDKit          3D

101109  0  0  1  0  0  0  0  0999 V2000
  -31.0930  -21.9370   16.8890 C   0  0  0  0  0  3  0  0  0  0  0  0
  -31.7360  -21.1360   15.9300 C   0  0  0  0  0  3  0  0  0  0  0  0
  -29.0500  -20.6450   16.5940 C   0  0  0  0  0  3  0  0  0  0  0  0
  -29.7700  -21.6430   17.2840 C   0  0  0  0  0  0  0  0  0  0  0  0
  -31.0640  -20.0400   15.3520 C   0  0  0  0  0  0  0  0  0  0  0  0
  -29.6890  -19.8350   15.6340 C   0  0  0  0  0  0  0  0  0  0  0  0
  -28.9080  -18.6880   15.0150 C   0  0  0  0  0  1  0  0  0  0  0  0
  -29.1420  -22.3420   18.4520 C   0  0  0  0  0  0  0  0  0  0  0  0
  -29.9980  -22.6640   19.4280 N   0  0  0  0  0  0  0  0  0  0  0  0
  -27.9220  -22.5080   18.5280 O   0  0  0  0  0  0  0  0  0  0  0  0
  -30.9650  -22.4240   19.2670 H   0  0  0  0  0  0  0  0  0  0  0  0
  -29.6710  -23.2460   20.7240 C   0  0  0  0  0  2  0  0  0  0  0  0
  -29.6590  -24.7820   20.6790 C   0  0  0  0  0  2  0  0  0  0  0  0
  -28.3960  -25.3560   20.0340 C   0  0  0  0  0  2  0  0  0  0  0  0
  -28.4450  -26.7670   20.1680 O   0  0  0  0  0  0  0  0  0  0  0  0
  -24.6170  -31.8730   23.2190 C   0  0  0  0  0  0  0  0  0  0  0  0
  -27.2480  -27.4430   20.1500 C   0  0  0  0  0  0  0  0  0  0  0  0
  -23.4010  -30.4710   21.5830 C   0  0  0  0  0  3  0  0  0  0  0  0
  -24.8480  -28.9260   20.1610 C   0  0  0  0  0  0  0  0  0  0  0  0
  -25.9230  -30.8320   21.3720 C   0  0  0  0  0  2  0  0  0  0  0  0
  -26.0030  -29.4590   20.7430 C   0  0  0  0  0  0  0  0  0  0  0  0
  -27.2050  -28.7230   20.7380 C   0  0  0  0  0  3  0  0  0  0  0  0
  -26.0750  -26.9160   19.5620 C   0  0  0  0  0  3  0  0  0  0  0  0
  -24.8740  -27.6500   19.5720 C   0  0  0  0  0  3  0  0  0  0  0  0
  -23.6040  -29.7850   20.2040 C   0  0  0  0  0  2  0  0  0  0  0  0
  -24.6650  -31.0720   22.1180 N   0  0  0  0  0  0  0  0  0  0  0  0
  -23.5390  -32.1500   23.7630 O   0  0  0  0  0  0  0  0  0  0  0  0
  -22.7520  -29.4530   22.5460 C   0  0  0  0  0  0  0  0  0  0  0  0
  -21.4280  -29.2740   22.4190 N   0  0  0  0  0  0  0  0  0  0  0  0
  -23.4350  -28.8290   23.3630 O   0  0  0  0  0  0  0  0  0  0  0  0
  -20.9410  -29.8320   21.7330 H   0  0  0  0  0  0  0  0  0  0  0  0
  -18.0490  -28.0940   22.9060 C   0  0  0  0  0  0  0  0  0  0  0  0
  -20.6050  -28.3420   23.1910 C   0  0  0  0  0  3  0  0  0  0  0  0
  -20.7060  -26.9080   22.6180 C   0  0  0  0  0  2  0  0  0  0  0  0
  -19.6070  -26.5870   21.6000 C   0  0  0  0  0  2  0  0  0  0  0  0
  -18.2230  -26.7400   22.2380 C   0  0  0  0  0  2  0  0  0  0  0  0
  -19.1690  -28.8530   23.3390 C   0  0  0  0  0  0  0  0  0  0  0  0
  -18.9550  -30.1200   23.9210 C   0  0  0  0  0  3  0  0  0  0  0  0
  -17.6530  -30.6310   24.0780 C   0  0  0  0  0  3  0  0  0  0  0  0
  -16.5460  -29.8690   23.6650 C   0  0  0  0  0  3  0  0  0  0  0  0
  -16.7460  -28.6030   23.0840 C   0  0  0  0  0  3  0  0  0  0  0  0
  -25.9070  -32.4980   23.8370 C   0  0  0  0  0  3  0  0  0  0  0  0
  -25.6040  -33.8960   24.1690 N   0  0  0  0  0  0  0  0  0  0  0  0
  -25.9390  -34.9460   23.4080 C   0  0  0  0  0  0  0  0  0  0  0  0
  -26.6070  -34.8410   22.3750 O   0  0  0  0  0  0  0  0  0  0  0  0
  -25.0120  -34.0510   24.9720 H   0  0  0  0  0  0  0  0  0  0  0  0
  -24.2150  -36.7430   23.0490 C   0  0  0  0  0  1  0  0  0  0  0  0
  -25.4520  -36.3360   23.8640 C   0  0  0  0  0  3  0  0  0  0  0  0
  -27.5910  -37.2150   24.6930 C   0  0  0  0  0  1  0  0  0  0  0  0
  -26.4880  -37.3860   23.7500 N   0  0  0  0  0  0  0  0  0  0  0  0
  -26.0850  -38.3060   23.8980 H   0  0  0  0  0  0  0  0  0  0  0  0
  -26.4270  -31.7190   25.1070 C   0  0  1  0  0  0  0  0  0  0  0  0
  -25.3420  -31.4760   26.1800 C   0  0  0  0  0  1  0  0  0  0  0  0
  -27.0030  -30.3430   24.6980 C   0  0  0  0  0  1  0  0  0  0  0  0
  -27.5860  -32.5050   25.7660 C   0  0  0  0  0  1  0  0  0  0  0  0
  -31.8950  -18.9790   14.6370 C   0  0  0  0  0  2  0  0  0  0  0  0
  -32.7350  -17.8820   16.6770 C   0  0  0  0  0  0  0  0  0  0  0  0
  -32.0400  -17.8310   15.5340 N   0  0  0  0  0  0  0  0  0  0  0  0
  -33.7450  -18.5710   16.8240 O   0  0  0  0  0  0  0  0  0  0  0  0
  -31.2880  -17.1580   15.4950 H   0  0  0  0  0  0  0  0  0  0  0  0
  -32.1290  -17.1360   17.8670 C   0  0  0  0  0  2  0  0  0  0  0  0
  -31.1290  -18.0500   18.6180 C   0  0  0  0  0  2  0  0  0  0  0  0
  -30.1650  -17.2960   19.5460 C   0  0  0  0  0  2  0  0  0  0  0  0
  -30.7730  -16.9170   20.9110 C   0  0  0  0  0  2  0  0  0  0  0  0
  -30.2890  -15.5410   21.4200 C   0  0  0  0  0  2  0  0  0  0  0  0
  -30.8830  -14.3790   20.6020 C   0  0  0  0  0  0  0  0  0  0  0  0
  -30.5300  -12.2890   19.3490 C   0  0  0  0  0  2  0  0  0  0  0  0
  -29.6120  -12.5650   18.1420 C   0  0  0  0  0  2  0  0  0  0  0  0
  -28.1300  -12.4500   18.5450 C   0  0  0  0  0  2  0  0  0  0  0  0
  -27.7960  -13.2600   19.8280 C   0  0  0  0  0  3  0  0  0  0  0  0
  -28.8280  -12.9720   20.9420 C   0  0  0  0  0  2  0  0  0  0  0  0
  -30.1680  -13.2430   20.4050 N   0  0  0  0  0  0  0  0  0  0  0  0
  -31.9880  -14.5510   20.0780 O   0  0  0  0  0  0  0  0  0  0  0  0
  -25.3860  -13.9000   20.4660 C   0  0  0  0  0  0  0  0  0  0  0  0
  -24.3040  -13.1430   20.8230 C   0  0  0  0  0  0  0  0  0  0  0  0
  -24.7540  -11.7870   20.8260 C   0  0  0  0  0  0  0  0  0  0  0  0
  -26.4300  -13.0060   20.2780 N   0  0  0  0  0  0  0  0  0  0  0  0
  -26.0490  -11.7310   20.5470 N   0  0  0  0  0  0  0  0  0  0  0  0
  -24.0130  -10.5340   21.0220 C   0  0  0  0  0  0  0  0  0  0  0  0
  -24.4310   -9.5700   21.9670 C   0  0  0  0  0  3  0  0  0  0  0  0
  -23.6940   -8.3810   22.1500 C   0  0  0  0  0  3  0  0  0  0  0  0
  -22.5250   -8.1470   21.3880 C   0  0  0  0  0  0  0  0  0  0  0  0
  -22.1260   -9.0980   20.4350 C   0  0  0  0  0  3  0  0  0  0  0  0
  -22.8630  -10.2800   20.2500 C   0  0  0  0  0  3  0  0  0  0  0  0
  -21.7600   -7.0080   21.4800 O   0  0  0  0  0  0  0  0  0  0  0  0
  -21.7080   -6.2670   22.6330 C   0  0  0  0  0  0  0  0  0  0  0  0
  -21.3070   -6.8300   23.8640 C   0  0  0  0  0  3  0  0  0  0  0  0
  -21.2000   -6.0160   25.0090 C   0  0  0  0  0  3  0  0  0  0  0  0
  -21.4830   -4.6390   24.9240 C   0  0  0  0  0  0  0  0  0  0  0  0
  -21.8770   -4.0750   23.6980 C   0  0  0  0  0  3  0  0  0  0  0  0
  -21.9850   -4.8870   22.5550 C   0  0  0  0  0  0  0  0  0  0  0  0
  -22.3440   -4.3340   21.3710 F   0  0  0  0  0  0  0  0  0  0  0  0
  -21.3740   -3.8550   26.0220 F   0  0  0  0  0  0  0  0  0  0  0  0
  -22.9040  -13.6340   21.0580 C   0  0  0  0  0  0  0  0  0  0  0  0
  -22.1540  -12.9580   21.9200 N   0  0  0  0  0  0  0  0  0  0  0  0
  -22.4820  -14.6520   20.5100 O   0  0  0  0  0  0  0  0  0  0  0  0
  -22.5090  -12.1370   22.3890 H   0  0  0  0  0  0  0  0  0  0  0  0
  -21.2120  -13.2660   22.1180 H   0  0  0  0  0  0  0  0  0  0  0  0
  -25.5720  -15.2660   20.2680 N   0  0  0  0  0  0  0  0  0  0  0  0
  -24.8180  -15.9410   20.3420 H   0  0  0  0  0  0  0  0  0  0  0  0
  -26.4470  -15.6830   19.9760 H   0  0  0  0  0  0  0  0  0  0  0  0
  1  4  1  0
  2  1  2  0
  3  4  2  0
  4  8  1  0
  5  6  2  0
  5  2  1  0
  6  3  1  0
  7  6  1  0
  8 10  2  0
  8  9  1  0
  9 12  1  0
 11  9  1  0
 13 12  1  0
 14 15  1  0
 14 13  1  0
 16 27  2  0
 17 15  1  0
 17 22  1  0
 18 26  1  0
 18 28  1  0
 19 25  1  0
 19 21  1  0
 20 26  1  0
 21 20  1  0
 22 21  2  0
 23 24  1  0
 23 17  2  0
 24 19  2  0
 25 18  1  0
 26 16  1  0
 28 30  2  0
 29 28  1  0
 31 29  1  0
 32 41  2  0
 32 37  1  0
 33 29  1  0
 33 37  1  0
 34 33  1  0
 35 36  1  0
 35 34  1  0
 36 32  1  0
 37 38  2  0
 38 39  1  0
 40 39  2  0
 41 40  1  0
 42 16  1  0
 42 43  1  0
 42 52  1  0
 43 46  1  0
 44 48  1  0
 44 43  1  0
 45 44  2  0
 48 47  1  0
 50 48  1  0
 50 51  1  0
 50 49  1  0
 52 55  1  1
 52 53  1  0
 54 52  1  0
 56  5  1  0
 56 58  1  0
 57 59  2  0
 57 61  1  0
 58 57  1  0
 60 58  1  0
 61 62  1  0
 62 63  1  0
 63 64  1  0
 64 65  1  0
 66 65  1  0
 67 72  1  0
 68 69  1  0
 68 67  1  0
 70 69  1  0
 70 77  1  0
 70 71  1  0
 72 66  1  0
 72 71  1  0
 73 66  2  0
 74 75  2  0
 75 76  1  0
 75 94  1  0
 76 79  1  0
 77 74  1  0
 77 78  1  0
 78 76  2  0
 79 80  1  0
 80 81  2  0
 82 85  1  0
 82 81  1  0
 83 82  2  0
 84 83  1  0
 84 79  2  0
 85 86  1  0
 86 87  1  0
 87 88  2  0
 89 88  1  0
 89 93  1  0
 90 89  2  0
 91 86  2  0
 91 90  1  0
 92 91  1  0
 94 95  1  0
 95 98  1  0
 95 97  1  0
 96 94  2  0
 99100  1  0
 99 74  1  0
101 99  1  0
M  ISO  4  14 101  15 101  65 100  66 100
M  END
>  <TORSDO>  (53) 
F 27

>  <SCORE>  (53) 
-11.855

>  <name>  (53) 
53

>  <ligand_id>  (53) 
53

>  <original_smiles>  (53) 
[H]c1c([H])c([H])c2c(c1[H])C([H])([H])C([H])([H])C([H])([H])C2([H])N([H])C(=O)C1([H])N(C(=O)C([H])(N([H])C(=O)C([H])(N([H])C([H])([H])[H])C([H])([H])[H])C(C([H])([H])[H])(C([H])([H])[H])C([H])([H])[H])C([H])([H])c2c([H])c(OC([H])([H])C([H])([H])C([H])([H])N([H])C(=O)c3c([H])c([H])c(C([H])([H])N([H])C(=O)C([H])([H])C([H])([H])C([H])([H])C([H])([H])C([H])([H])C(=O)N4C([H])([H])C([H])([H])C([H])([H])C([H])(n5nc(-c6c([H])c([H])c(Oc7c([H])c([H])c(F)c([H])c7F)c([H])c6[H])c(C(=O)N([H])[H])c5N([H])[H])C4([H])[H])c(C([H])([H])[H])c3[H])c([H])c([H])c2C1([H])[H]

>  <smiles>  (53) 
[H]c1c([H])c([H])c2c(c1[H])C([H])([H])C([H])([H])C([H])([H])C2([H])N([H])C(=O)C1([H])N(C(=O)C([H])(N([H])C(=O)C([H])(N([H])C([H])([H])[H])C([H])([H])[H])C(C([H])([H])[H])(C([H])([H])[H])C([H])([H])[H])C([H])([H])c2c([H])c(OC([H])([H])C([H])([H])C([H])([H])N([H])C(=O)c3c([H])c([H])c(C([H])([H])N([H])C(=O)C([H])([H])C([H])([H])C([H])([H])C([H])([H])C([H])([H])C(=O)N4C([H])([H])C([H])([H])C([H])([H])C([H])(n5nc(-c6c([H])c([H])c(Oc7c([H])c([H])c(F)c([H])c7F)c([H])c6[H])c(C(=O)N([H])[H])c5N([H])[H])C4([H])[H])c(C([H])([H])[H])c3[H])c([H])c([H])c2C1([H])[H]

$$$$
54:0:0
     RDKit          3D

 86 93  0  0  1  0  0  0  0  0999 V2000
  -28.6910  -22.7400   20.5920 C   0  0  0  0  0  0  0  0  0  0  0  0
  -28.9570  -22.8910   21.7870 O   0  0  0  0  0  0  0  0  0  0  0  0
  -29.0060  -21.1670   19.9900 C   0  0  0  0  0  3  0  0  0  0  0  0
  -29.3070  -19.8230   20.5520 C   0  0  0  0  0  3  0  0  0  0  0  0
  -29.7340  -18.2950   18.4240 C   0  0  0  0  0  1  0  0  0  0  0  0
  -29.8590  -18.2550   19.9540 C   0  0  0  0  0  0  0  0  0  0  0  0
  -30.3930  -15.3440   20.2470 C   0  0  0  0  0  0  0  0  0  0  0  0
  -30.3610  -12.8860   19.3860 C   0  0  0  0  0  2  0  0  0  0  0  0
  -29.4480  -12.6800   18.1510 C   0  0  0  0  0  2  0  0  0  0  0  0
  -27.9980  -12.4060   18.5880 C   0  0  0  0  0  2  0  0  0  0  0  0
  -27.5470  -13.3680   19.7150 C   0  0  0  0  0  3  0  0  0  0  0  0
  -28.5910  -13.5230   20.8420 C   0  0  0  0  0  2  0  0  0  0  0  0
  -29.8230  -14.0320   20.2160 N   0  0  0  0  0  0  0  0  0  0  0  0
  -31.6010  -15.3270   19.9660 O   0  0  0  0  0  0  0  0  0  0  0  0
  -29.6540  -16.6380   20.3900 N   0  0  0  0  0  4  0  0  0  0  0  0
  -28.7060  -16.4580   20.6900 H   0  0  0  0  0  0  0  0  0  0  0  0
  -25.1740  -13.9220   20.4540 C   0  0  0  0  0  0  0  0  0  0  0  0
  -24.1130  -13.1460   20.8260 C   0  0  0  0  0  0  0  0  0  0  0  0
  -24.5830  -11.7960   20.8080 C   0  0  0  0  0  0  0  0  0  0  0  0
  -26.2190  -13.0490   20.2210 N   0  0  0  0  0  0  0  0  0  0  0  0
  -25.8760  -11.7630   20.5020 N   0  0  0  0  0  0  0  0  0  0  0  0
  -23.8570  -10.5340   21.0040 C   0  0  0  0  0  0  0  0  0  0  0  0
  -24.2860   -9.5720   21.9450 C   0  0  0  0  0  3  0  0  0  0  0  0
  -23.5570   -8.3780   22.1310 C   0  0  0  0  0  3  0  0  0  0  0  0
  -22.3850   -8.1350   21.3750 C   0  0  0  0  0  0  0  0  0  0  0  0
  -21.9750   -9.0860   20.4240 C   0  0  0  0  0  3  0  0  0  0  0  0
  -22.7050  -10.2710   20.2360 C   0  0  0  0  0  3  0  0  0  0  0  0
  -21.6280   -6.9930   21.4700 O   0  0  0  0  0  0  0  0  0  0  0  0
  -21.5770   -6.2560   22.6270 C   0  0  0  0  0  0  0  0  0  0  0  0
  -21.1560   -6.8190   23.8510 C   0  0  0  0  0  3  0  0  0  0  0  0
  -21.0530   -6.0090   24.9990 C   0  0  0  0  0  3  0  0  0  0  0  0
  -21.3610   -4.6380   24.9250 C   0  0  0  0  0  0  0  0  0  0  0  0
  -21.7760   -4.0740   23.7050 C   0  0  0  0  0  3  0  0  0  0  0  0
  -21.8800   -4.8820   22.5590 C   0  0  0  0  0  0  0  0  0  0  0  0
  -22.2600   -4.3290   21.3810 F   0  0  0  0  0  0  0  0  0  0  0  0
  -21.2550   -3.8570   26.0270 F   0  0  0  0  0  0  0  0  0  0  0  0
  -22.7130  -13.6210   21.0820 C   0  0  0  0  0  0  0  0  0  0  0  0
  -21.9810  -12.9340   21.9510 N   0  0  0  0  0  0  0  0  0  0  0  0
  -22.2780  -14.6420   20.5460 O   0  0  0  0  0  0  0  0  0  0  0  0
  -22.3460  -12.1110   22.4050 H   0  0  0  0  0  0  0  0  0  0  0  0
  -21.0410  -13.2360   22.1650 H   0  0  0  0  0  0  0  0  0  0  0  0
  -25.3310  -15.2920   20.2650 N   0  0  0  0  0  0  0  0  0  0  0  0
  -24.5570  -15.9410   20.3630 H   0  0  0  0  0  0  0  0  0  0  0  0
  -26.1690  -15.7280   19.9010 H   0  0  0  0  0  0  0  0  0  0  0  0
  -28.0480  -24.2240   19.8680 C   0  0  0  0  0  2  0  0  0  0  0  0
  -28.1720  -25.8170   20.3390 O   0  0  0  0  0  0  0  0  0  0  0  0
  -24.6250  -31.8530   23.2080 C   0  0  0  0  0  0  0  0  0  0  0  0
  -27.1780  -26.9350   20.2200 C   0  0  0  0  0  0  0  0  0  0  0  0
  -23.4320  -30.4480   21.5780 C   0  0  0  0  0  3  0  0  0  0  0  0
  -24.8820  -28.8320   20.1590 C   0  0  0  0  0  0  0  0  0  0  0  0
  -25.9990  -30.6500   21.4340 C   0  0  0  0  0  2  0  0  0  0  0  0
  -26.0680  -29.2340   20.7850 C   0  0  0  0  0  0  0  0  0  0  0  0
  -27.2060  -28.3050   20.7940 C   0  0  0  0  0  3  0  0  0  0  0  0
  -25.9650  -26.6970   19.5320 C   0  0  0  0  0  3  0  0  0  0  0  0
  -24.8570  -27.5860   19.5130 C   0  0  0  0  0  3  0  0  0  0  0  0
  -23.6620  -29.7550   20.2040 C   0  0  0  0  0  2  0  0  0  0  0  0
  -24.7070  -31.0120   22.1260 N   0  0  0  0  0  0  0  0  0  0  0  0
  -23.5350  -32.1480   23.7260 O   0  0  0  0  0  0  0  0  0  0  0  0
  -22.7360  -29.4600   22.5510 C   0  0  0  0  0  0  0  0  0  0  0  0
  -21.4030  -29.3000   22.4310 N   0  0  0  0  0  0  0  0  0  0  0  0
  -23.4000  -28.8360   23.3810 O   0  0  0  0  0  0  0  0  0  0  0  0
  -20.9200  -29.8530   21.7380 H   0  0  0  0  0  0  0  0  0  0  0  0
  -18.0200  -28.0930   22.9500 C   0  0  0  0  0  0  0  0  0  0  0  0
  -20.5810  -28.3680   23.2090 C   0  0  0  0  0  3  0  0  0  0  0  0
  -20.6840  -26.9300   22.6450 C   0  0  0  0  0  2  0  0  0  0  0  0
  -19.5820  -26.5980   21.6340 C   0  0  0  0  0  2  0  0  0  0  0  0
  -18.2000  -26.7420   22.2790 C   0  0  0  0  0  2  0  0  0  0  0  0
  -19.1380  -28.8630   23.3730 C   0  0  0  0  0  0  0  0  0  0  0  0
  -18.9140  -30.1250   23.9650 C   0  0  0  0  0  3  0  0  0  0  0  0
  -17.6060  -30.6190   24.1350 C   0  0  0  0  0  3  0  0  0  0  0  0
  -16.5040  -29.8480   23.7260 C   0  0  0  0  0  3  0  0  0  0  0  0
  -16.7130  -28.5870   23.1400 C   0  0  0  0  0  3  0  0  0  0  0  0
  -25.8950  -32.5020   23.8370 C   0  0  0  0  0  3  0  0  0  0  0  0
  -26.4000  -31.7450   25.1290 C   0  0  1  0  0  0  0  0  0  0  0  0
  -25.3000  -31.5240   26.1930 C   0  0  0  0  0  1  0  0  0  0  0  0
  -26.9830  -30.3600   24.7660 C   0  0  0  0  0  1  0  0  0  0  0  0
  -27.5500  -32.5440   25.7870 C   0  0  0  0  0  1  0  0  0  0  0  0
  -25.5760  -33.9030   24.1660 N   0  0  0  0  0  0  0  0  0  0  0  0
  -25.9050  -34.9630   23.4170 C   0  0  0  0  0  0  0  0  0  0  0  0
  -26.5730  -34.8650   22.3850 O   0  0  0  0  0  0  0  0  0  0  0  0
  -24.9800  -34.0510   24.9680 H   0  0  0  0  0  0  0  0  0  0  0  0
  -24.1730  -36.7630   23.0890 C   0  0  0  0  0  1  0  0  0  0  0  0
  -25.4230  -36.3520   23.8860 C   0  0  0  0  0  3  0  0  0  0  0  0
  -27.5630  -37.2400   24.7010 C   0  0  0  0  0  1  0  0  0  0  0  0
  -26.4530  -37.4080   23.7670 N   0  0  0  0  0  0  0  0  0  0  0  0
  -26.0460  -38.3260   23.9190 H   0  0  0  0  0  0  0  0  0  0  0  0
  1  2  2  0
  3  4  2  0
  3  1  1  0
  5  6  1  0
  6 15  2  0
  6  4  1  0
  7 15  1  0
  8 13  1  0
  9 10  1  0
  9  8  1  0
 11 10  1  0
 11 20  1  0
 11 12  1  0
 13  7  1  0
 13 12  1  0
 14  7  2  0
 15 16  1  0
 17 18  2  0
 18 37  1  0
 19 18  1  0
 19 22  1  0
 20 17  1  0
 20 21  1  0
 21 19  2  0
 22 23  1  0
 23 24  2  0
 25 28  1  0
 25 24  1  0
 26 25  2  0
 27 26  1  0
 27 22  2  0
 28 29  1  0
 29 30  1  0
 30 31  2  0
 32 31  1  0
 32 36  1  0
 33 32  2  0
 34 29  2  0
 34 33  1  0
 35 34  1  0
 37 38  1  0
 38 41  1  0
 38 40  1  0
 39 37  2  0
 42 43  1  0
 42 17  1  0
 44 42  1  0
 45 46  1  0
 45  1  1  0
 47 58  2  0
 48 46  1  0
 48 53  1  0
 49 57  1  0
 49 59  1  0
 50 56  1  0
 50 52  1  0
 51 57  1  0
 52 53  2  0
 52 51  1  0
 54 48  2  0
 55 54  1  0
 55 50  2  0
 56 49  1  0
 57 47  1  0
 59 61  2  0
 60 59  1  0
 62 60  1  0
 63 72  2  0
 63 68  1  0
 64 60  1  0
 64 68  1  0
 65 64  1  0
 66 67  1  0
 66 65  1  0
 67 63  1  0
 68 69  2  0
 69 70  1  0
 71 70  2  0
 72 71  1  0
 73 47  1  0
 73 78  1  0
 73 74  1  0
 74 77  1  1
 74 75  1  0
 76 74  1  0
 78 81  1  0
 79 83  1  0
 79 78  1  0
 80 79  2  0
 83 82  1  0
 85 83  1  0
 85 86  1  0
 85 84  1  0
M  ISO  4   7 100  15 100  45 101  46 101
M  END
>  <TORSDO>  (54) 
F 19

>  <SCORE>  (54) 
-16.493

>  <name>  (54) 
54

>  <ligand_id>  (54) 
54

>  <original_smiles>  (54) 
[H]C(C(=O)C([H])([H])Oc1c([H])c([H])c2c(c1[H])C([H])([H])N(C(=O)C([H])(N([H])C(=O)C([H])(N([H])C([H])([H])[H])C([H])([H])[H])C(C([H])([H])[H])(C([H])([H])[H])C([H])([H])[H])C([H])(C(=O)N([H])C1([H])c3c([H])c([H])c([H])c([H])c3C([H])([H])C([H])([H])C1([H])[H])C2([H])[H])=C([H])C([H])(N([H])C(=O)N1C([H])([H])C([H])([H])C([H])([H])C([H])(n2nc(-c3c([H])c([H])c(Oc4c([H])c([H])c(F)c([H])c4F)c([H])c3[H])c(C(=O)N([H])[H])c2N([H])[H])C1([H])[H])C([H])([H])[H]

>  <smiles>  (54) 
[H]C(C(=O)C([H])([H])Oc1c([H])c([H])c2c(c1[H])C([H])([H])N(C(=O)C([H])(N([H])C(=O)C([H])(N([H])C([H])([H])[H])C([H])([H])[H])C(C([H])([H])[H])(C([H])([H])[H])C([H])([H])[H])C([H])(C(=O)N([H])C1([H])c3c([H])c([H])c([H])c([H])c3C([H])([H])C([H])([H])C1([H])[H])C2([H])[H])=C([H])C([H])(N([H])C(=O)N1C([H])([H])C([H])([H])C([H])([H])C([H])(n2nc(-c3c([H])c([H])c(Oc4c([H])c([H])c(F)c([H])c4F)c([H])c3[H])c(C(=O)N([H])[H])c2N([H])[H])C1([H])[H])C([H])([H])[H]

$$$$
55:0:0
     RDKit          3D

 93102  0  0  1  0  0  0  0  0999 V2000
  -27.2890  -20.1510   20.6170 C   0  0  0  0  0  3  0  0  0  0  0  0
  -28.1210  -19.1020   20.1830 C   0  0  0  0  0  3  0  0  0  0  0  0
  -27.7950  -21.4580   20.7520 C   0  0  0  0  0  3  0  0  0  0  0  0
  -29.9760  -20.6660   20.0120 C   0  0  0  0  0  3  0  0  0  0  0  0
  -29.4760  -19.3360   19.8640 C   0  0  0  0  0  0  0  0  0  0  0  0
  -29.1430  -21.7370   20.4530 C   0  0  0  0  0  0  0  0  0  0  0  0
  -30.9900  -18.5300   17.9320 C   0  0  0  0  0  2  0  0  0  0  0  0
  -29.7990  -17.6160   17.9290 C   0  0  0  0  0  2  0  0  0  0  0  0
  -30.2980  -18.2010   19.2480 C   0  0  2  0  0  0  0  0  0  0  0  0
  -31.4830  -14.8680   20.2290 C   0  0  0  0  0  0  0  0  0  0  0  0
  -31.1590  -12.6160   19.2820 C   0  0  0  0  0  2  0  0  0  0  0  0
  -30.2340  -12.7340   18.0520 C   0  0  0  0  0  2  0  0  0  0  0  0
  -28.7540  -12.6610   18.4750 C   0  0  0  0  0  2  0  0  0  0  0  0
  -28.4170  -13.6040   19.6620 C   0  0  0  0  0  3  0  0  0  0  0  0
  -29.4600  -13.4730   20.7940 C   0  0  0  0  0  2  0  0  0  0  0  0
  -30.7870  -13.6980   20.2040 N   0  0  0  0  0  0  0  0  0  0  0  0
  -32.6870  -14.9050   19.9580 O   0  0  0  0  0  0  0  0  0  0  0  0
  -31.1410  -17.2740   20.1200 C   0  0  0  0  0  0  0  0  0  0  0  0
  -30.7150  -15.9890   20.2450 N   0  0  0  0  0  0  0  0  0  0  0  0
  -32.1920  -17.6840   20.6250 O   0  0  0  0  0  0  0  0  0  0  0  0
  -29.7320  -15.8330   20.1140 H   0  0  0  0  0  0  0  0  0  0  0  0
  -26.0740  -14.3330   20.4230 C   0  0  0  0  0  0  0  0  0  0  0  0
  -24.9620  -13.6170   20.7730 C   0  0  0  0  0  0  0  0  0  0  0  0
  -25.3370  -12.2410   20.6890 C   0  0  0  0  0  0  0  0  0  0  0  0
  -27.0570  -13.3950   20.1480 N   0  0  0  0  0  0  0  0  0  0  0  0
  -26.6190  -12.1300   20.3690 N   0  0  0  0  0  0  0  0  0  0  0  0
  -24.5320  -11.0210   20.8350 C   0  0  0  0  0  0  0  0  0  0  0  0
  -24.8650  -10.0240   21.7790 C   0  0  0  0  0  3  0  0  0  0  0  0
  -24.0670   -8.8680   21.9120 C   0  0  0  0  0  3  0  0  0  0  0  0
  -22.9190   -8.7020   21.1000 C   0  0  0  0  0  0  0  0  0  0  0  0
  -22.6060   -9.6850   20.1450 C   0  0  0  0  0  3  0  0  0  0  0  0
  -23.4060  -10.8320   20.0090 C   0  0  0  0  0  3  0  0  0  0  0  0
  -22.0970   -7.6010   21.1440 O   0  0  0  0  0  0  0  0  0  0  0  0
  -21.9030   -6.8940   22.3020 C   0  0  0  0  0  0  0  0  0  0  0  0
  -21.3370   -7.4880   23.4520 C   0  0  0  0  0  3  0  0  0  0  0  0
  -21.0890   -6.7070   24.5990 C   0  0  0  0  0  3  0  0  0  0  0  0
  -21.3970   -5.3340   24.5960 C   0  0  0  0  0  0  0  0  0  0  0  0
  -21.9560   -4.7400   23.4520 C   0  0  0  0  0  3  0  0  0  0  0  0
  -22.2050   -5.5170   22.3070 C   0  0  0  0  0  0  0  0  0  0  0  0
  -22.7250   -4.9350   21.2000 F   0  0  0  0  0  0  0  0  0  0  0  0
  -21.1520   -4.5830   25.6950 F   0  0  0  0  0  0  0  0  0  0  0  0
  -23.5990  -14.1700   21.0720 C   0  0  0  0  0  0  0  0  0  0  0  0
  -22.8410  -13.4960   21.9280 N   0  0  0  0  0  0  0  0  0  0  0  0
  -23.2180  -15.2320   20.5810 O   0  0  0  0  0  0  0  0  0  0  0  0
  -23.1650  -12.6340   22.3420 H   0  0  0  0  0  0  0  0  0  0  0  0
  -21.9250  -13.8440   22.1760 H   0  0  0  0  0  0  0  0  0  0  0  0
  -26.3250  -15.6960   20.2890 N   0  0  0  0  0  0  0  0  0  0  0  0
  -25.5940  -16.3890   20.4080 H   0  0  0  0  0  0  0  0  0  0  0  0
  -27.1680  -16.0790   19.8850 H   0  0  0  0  0  0  0  0  0  0  0  0
  -29.6900  -23.1560   20.7170 C   0  0  0  0  0  2  0  0  0  0  0  0
  -28.9670  -24.3700   20.0350 C   0  0  0  0  0  2  0  0  0  0  0  0
  -29.0600  -25.6940   20.8630 C   0  0  0  0  0  2  0  0  0  0  0  0
  -28.9470  -26.9390   20.1390 O   0  0  0  0  0  0  0  0  0  0  0  0
  -24.6960  -31.7480   23.3260 C   0  0  0  0  0  0  0  0  0  0  0  0
  -27.7360  -27.5990   20.1810 C   0  0  0  0  0  0  0  0  0  0  0  0
  -23.6530  -30.3640   21.5600 C   0  0  0  0  0  3  0  0  0  0  0  0
  -25.2610  -28.9760   20.1430 C   0  0  0  0  0  0  0  0  0  0  0  0
  -26.1610  -30.8710   21.5050 C   0  0  0  0  0  2  0  0  0  0  0  0
  -26.3580  -29.5350   20.8110 C   0  0  0  0  0  0  0  0  0  0  0  0
  -27.6020  -28.8570   20.8220 C   0  0  0  0  0  3  0  0  0  0  0  0
  -26.6220  -27.0540   19.5140 C   0  0  0  0  0  3  0  0  0  0  0  0
  -25.3890  -27.7360   19.4900 C   0  0  0  0  0  3  0  0  0  0  0  0
  -23.9680  -29.7630   20.1640 C   0  0  0  0  0  2  0  0  0  0  0  0
  -24.8510  -31.0080   22.1900 N   0  0  0  0  0  0  0  0  0  0  0  0
  -23.5760  -31.9320   23.8230 O   0  0  0  0  0  0  0  0  0  0  0  0
  -23.0150  -29.2640   22.4380 C   0  0  0  0  0  0  0  0  0  0  0  0
  -21.7110  -29.0170   22.2370 N   0  0  0  0  0  0  0  0  0  0  0  0
  -23.6940  -28.6370   23.2560 O   0  0  0  0  0  0  0  0  0  0  0  0
  -21.2230  -29.5830   21.5570 H   0  0  0  0  0  0  0  0  0  0  0  0
  -18.3850  -27.6380   22.5350 C   0  0  0  0  0  0  0  0  0  0  0  0
  -20.9160  -27.9940   22.9150 C   0  0  0  0  0  3  0  0  0  0  0  0
  -21.1090  -26.6090   22.2530 C   0  0  0  0  0  2  0  0  0  0  0  0
  -20.0560  -26.2980   21.1850 C   0  0  0  0  0  2  0  0  0  0  0  0
  -18.6480  -26.3420   21.7850 C   0  0  0  0  0  2  0  0  0  0  0  0
  -19.4510  -28.4210   23.0510 C   0  0  0  0  0  0  0  0  0  0  0  0
  -19.1540  -29.6340   23.7090 C   0  0  0  0  0  3  0  0  0  0  0  0
  -17.8230  -30.0660   23.8570 C   0  0  0  0  0  3  0  0  0  0  0  0
  -16.7710  -29.2790   23.3580 C   0  0  0  0  0  3  0  0  0  0  0  0
  -17.0520  -28.0670   22.7040 C   0  0  0  0  0  3  0  0  0  0  0  0
  -25.9110  -32.4170   24.0400 C   0  0  0  0  0  3  0  0  0  0  0  0
  -26.3360  -31.6790   25.3690 C   0  0  1  0  0  0  0  0  0  0  0  0
  -25.1630  -31.4310   26.3460 C   0  0  0  0  0  1  0  0  0  0  0  0
  -26.9810  -30.3100   25.0500 C   0  0  0  0  0  1  0  0  0  0  0  0
  -27.4070  -32.5120   26.1120 C   0  0  0  0  0  1  0  0  0  0  0  0
  -25.5500  -33.8140   24.3150 N   0  0  0  0  0  0  0  0  0  0  0  0
  -25.9210  -34.8570   23.5600 C   0  0  0  0  0  0  0  0  0  0  0  0
  -26.6720  -34.7460   22.5880 O   0  0  0  0  0  0  0  0  0  0  0  0
  -24.8910  -33.9730   25.0620 H   0  0  0  0  0  0  0  0  0  0  0  0
  -24.1800  -36.5970   23.0410 C   0  0  0  0  0  1  0  0  0  0  0  0
  -25.3710  -36.2440   23.9450 C   0  0  0  0  0  3  0  0  0  0  0  0
  -27.4130  -37.2130   24.9050 C   0  0  0  0  0  1  0  0  0  0  0  0
  -26.3840  -37.3190   23.8740 N   0  0  0  0  0  0  0  0  0  0  0  0
  -25.9470  -38.2330   23.9560 H   0  0  0  0  0  0  0  0  0  0  0  0
  1  3  1  0
  2  1  2  0
  4  6  1  0
  5  4  2  0
  5  2  1  0
  6 50  1  0
  6  3  2  0
  7  9  1  0
  8  7  1  0
  8  9  1  0
  9  5  1  0
  9 18  1  1
 10 19  1  0
 11 16  1  0
 12 13  1  0
 12 11  1  0
 14 13  1  0
 14 25  1  0
 14 15  1  0
 16 10  1  0
 16 15  1  0
 17 10  2  0
 18 19  1  0
 18 20  2  0
 21 19  1  0
 22 23  2  0
 23 42  1  0
 24 23  1  0
 24 27  1  0
 25 26  1  0
 25 22  1  0
 26 24  2  0
 27 28  1  0
 28 29  2  0
 30 33  1  0
 30 29  1  0
 31 30  2  0
 32 31  1  0
 32 27  2  0
 33 34  1  0
 34 39  2  0
 34 35  1  0
 35 36  2  0
 37 36  1  0
 37 41  1  0
 38 37  2  0
 39 38  1  0
 40 39  1  0
 42 43  1  0
 43 46  1  0
 43 45  1  0
 44 42  2  0
 47 48  1  0
 47 22  1  0
 49 47  1  0
 51 50  1  0
 51 52  1  0
 53 55  1  0
 53 52  1  0
 54 65  2  0
 55 60  1  0
 56 64  1  0
 56 66  1  0
 57 63  1  0
 57 59  1  0
 58 64  1  0
 59 60  2  0
 59 58  1  0
 61 55  2  0
 62 61  1  0
 62 57  2  0
 63 56  1  0
 64 54  1  0
 66 68  2  0
 67 66  1  0
 69 67  1  0
 70 79  2  0
 70 75  1  0
 71 67  1  0
 71 75  1  0
 72 71  1  0
 73 74  1  0
 73 72  1  0
 74 70  1  0
 75 76  2  0
 76 77  1  0
 78 77  2  0
 79 78  1  0
 80 54  1  0
 80 85  1  0
 80 81  1  0
 81 84  1  1
 81 82  1  0
 83 81  1  0
 85 88  1  0
 86 90  1  0
 86 85  1  0
 87 86  2  0
 90 89  1  0
 92 90  1  0
 92 93  1  0
 92 91  1  0
M  ISO  4  10 100  19 100  52 101  53 101
M  END
>  <TORSDO>  (55) 
F 20

>  <SCORE>  (55) 
-11.806

>  <name>  (55) 
55

>  <ligand_id>  (55) 
55

>  <original_smiles>  (55) 
[H]c1c([H])c([H])c2c(c1[H])C([H])([H])C([H])([H])C([H])([H])C2([H])N([H])C(=O)C1([H])N(C(=O)C([H])(N([H])C(=O)C([H])(N([H])C([H])([H])[H])C([H])([H])[H])C(C([H])([H])[H])(C([H])([H])[H])C([H])([H])[H])C([H])([H])c2c([H])c(OC([H])([H])C([H])([H])C([H])([H])c3c([H])c([H])c([H])c(C4(C(=O)N([H])C(=O)N5C([H])([H])C([H])([H])C([H])([H])C([H])(n6nc(-c7c([H])c([H])c(Oc8c([H])c([H])c(F)c([H])c8F)c([H])c7[H])c(C(=O)N([H])[H])c6N([H])[H])C5([H])[H])C([H])([H])C4([H])[H])c3[H])c([H])c([H])c2C1([H])[H]

>  <smiles>  (55) 
[H]c1c([H])c([H])c2c(c1[H])C([H])([H])C([H])([H])C([H])([H])C2([H])N([H])C(=O)C1([H])N(C(=O)C([H])(N([H])C(=O)C([H])(N([H])C([H])([H])[H])C([H])([H])[H])C(C([H])([H])[H])(C([H])([H])[H])C([H])([H])[H])C([H])([H])c2c([H])c(OC([H])([H])C([H])([H])C([H])([H])c3c([H])c([H])c([H])c(C4(C(=O)N([H])C(=O)N5C([H])([H])C([H])([H])C([H])([H])C([H])(n6nc(-c7c([H])c([H])c(Oc8c([H])c([H])c(F)c([H])c8F)c([H])c7[H])c(C(=O)N([H])[H])c6N([H])[H])C5([H])[H])C([H])([H])C4([H])[H])c3[H])c([H])c([H])c2C1([H])[H]

$$$$
56:0:0
     RDKit          3D

 93101  0  0  1  0  0  0  0  0999 V2000
  -27.1130  -21.8610   21.4830 C   0  0  0  0  0  3  0  0  0  0  0  0
  -27.2780  -23.1390   20.9140 C   0  0  0  0  0  3  0  0  0  0  0  0
  -27.7980  -20.7470   20.9620 C   0  0  0  0  0  3  0  0  0  0  0  0
  -28.7650  -22.1800   19.2350 C   0  0  0  0  0  3  0  0  0  0  0  0
  -28.1230  -23.3280   19.7890 C   0  0  0  0  0  0  0  0  0  0  0  0
  -28.6270  -20.8790   19.8280 C   0  0  0  0  0  0  0  0  0  0  0  0
  -28.2020  -24.7520   19.1710 C   0  0  0  0  0  3  0  0  0  0  0  0
  -29.0880  -25.8280   19.9150 C   0  0  0  0  0  3  0  0  0  0  0  0
  -29.0850  -27.2430   19.5060 O   0  0  0  0  0  0  0  0  0  0  0  0
  -24.7370  -31.5200   23.2880 C   0  0  0  0  0  0  0  0  0  0  0  0
  -27.8790  -27.9220   19.5880 C   0  0  0  0  0  0  0  0  0  0  0  0
  -23.7190  -30.2660   21.4160 C   0  0  0  0  0  3  0  0  0  0  0  0
  -25.3580  -29.1880   19.7900 C   0  0  0  0  0  0  0  0  0  0  0  0
  -26.2000  -30.9290   21.3530 C   0  0  0  0  0  2  0  0  0  0  0  0
  -26.4500  -29.7010   20.4970 C   0  0  0  0  0  0  0  0  0  0  0  0
  -27.7150  -29.0710   20.4030 C   0  0  0  0  0  3  0  0  0  0  0  0
  -26.7730  -27.4700   18.8320 C   0  0  0  0  0  3  0  0  0  0  0  0
  -25.5150  -28.0800   18.9480 C   0  0  0  0  0  3  0  0  0  0  0  0
  -24.0340  -29.8940   19.9470 C   0  0  0  0  0  2  0  0  0  0  0  0
  -24.9010  -30.9150   22.0790 N   0  0  0  0  0  0  0  0  0  0  0  0
  -23.6280  -31.5710   23.8340 O   0  0  0  0  0  0  0  0  0  0  0  0
  -23.2010  -29.0200   22.1720 C   0  0  0  0  0  0  0  0  0  0  0  0
  -21.9370  -28.6340   21.9140 N   0  0  0  0  0  0  0  0  0  0  0  0
  -23.9330  -28.4170   22.9620 O   0  0  0  0  0  0  0  0  0  0  0  0
  -21.3850  -29.1740   21.2580 H   0  0  0  0  0  0  0  0  0  0  0  0
  -18.7830  -26.9000   22.0150 C   0  0  0  0  0  0  0  0  0  0  0  0
  -21.2460  -27.4900   22.5050 C   0  0  0  0  0  3  0  0  0  0  0  0
  -21.6170  -26.1780   21.7820 C   0  0  0  0  0  2  0  0  0  0  0  0
  -20.6320  -25.7350   20.6860 C   0  0  0  0  0  2  0  0  0  0  0  0
  -19.1950  -25.6720   21.2210 C   0  0  0  0  0  2  0  0  0  0  0  0
  -19.7400  -27.7450   22.6250 C   0  0  0  0  0  0  0  0  0  0  0  0
  -19.3010  -28.8780   23.3400 C   0  0  0  0  0  3  0  0  0  0  0  0
  -17.9330  -29.1720   23.4660 C   0  0  0  0  0  3  0  0  0  0  0  0
  -16.9810  -28.3050   22.9000 C   0  0  0  0  0  3  0  0  0  0  0  0
  -17.4020  -27.1690   22.1810 C   0  0  0  0  0  3  0  0  0  0  0  0
  -25.9280  -32.1890   24.0320 C   0  0  0  0  0  3  0  0  0  0  0  0
  -25.5240  -33.5640   24.3590 N   0  0  0  0  0  0  0  0  0  0  0  0
  -25.8430  -34.6440   23.6340 C   0  0  0  0  0  0  0  0  0  0  0  0
  -26.5790  -34.5940   22.6490 O   0  0  0  0  0  0  0  0  0  0  0  0
  -24.8780  -33.6840   25.1220 H   0  0  0  0  0  0  0  0  0  0  0  0
  -24.0300  -36.3400   23.2030 C   0  0  0  0  0  1  0  0  0  0  0  0
  -25.2420  -35.9950   24.0810 C   0  0  0  0  0  3  0  0  0  0  0  0
  -27.2720  -36.9990   25.0390 C   0  0  0  0  0  1  0  0  0  0  0  0
  -26.2120  -37.1100   24.0410 N   0  0  0  0  0  0  0  0  0  0  0  0
  -25.7440  -38.0040   24.1690 H   0  0  0  0  0  0  0  0  0  0  0  0
  -26.3760  -31.4080   25.3240 C   0  0  1  0  0  0  0  0  0  0  0  0
  -25.2100  -31.0200   26.2640 C   0  0  0  0  0  1  0  0  0  0  0  0
  -27.1350  -30.1150   24.9350 C   0  0  0  0  0  1  0  0  0  0  0  0
  -27.3620  -32.2800   26.1360 C   0  0  0  0  0  1  0  0  0  0  0  0
  -29.2250  -19.5910   19.1750 C   0  0  0  0  0  3  0  0  0  0  0  0
  -29.6640  -18.5470   20.1640 N   0  0  0  0  0  4  0  0  0  0  0  0
  -30.3140  -18.9980   20.7870 H   0  0  0  0  0  0  0  0  0  0  0  0
  -28.8700  -18.2730   20.7110 H   0  0  0  0  0  0  0  0  0  0  0  0
  -30.3320  -17.3150   19.6000 C   0  0  0  0  0  2  0  0  0  0  0  0
  -30.6080  -16.1600   20.6340 C   0  0  0  0  0  2  0  0  0  0  0  0
  -31.2530  -14.8680   20.0190 C   0  0  0  0  0  0  0  0  0  0  0  0
  -30.9830  -12.5860   19.0840 C   0  0  0  0  0  2  0  0  0  0  0  0
  -30.0370  -12.6810   17.8710 C   0  0  0  0  0  2  0  0  0  0  0  0
  -28.5610  -12.6020   18.3180 C   0  0  0  0  0  2  0  0  0  0  0  0
  -28.2410  -13.4980   19.5480 C   0  0  0  0  0  3  0  0  0  0  0  0
  -29.3160  -13.3810   20.6500 C   0  0  0  0  0  2  0  0  0  0  0  0
  -30.6210  -13.6560   20.0330 N   0  0  0  0  0  0  0  0  0  0  0  0
  -32.3340  -15.0010   19.4360 O   0  0  0  0  0  0  0  0  0  0  0  0
  -25.9100  -14.1660   20.3990 C   0  0  0  0  0  0  0  0  0  0  0  0
  -24.8330  -13.4210   20.8040 C   0  0  0  0  0  0  0  0  0  0  0  0
  -25.2310  -12.0590   20.6780 C   0  0  0  0  0  0  0  0  0  0  0  0
  -26.8990  -13.2500   20.0720 N   0  0  0  0  0  0  0  0  0  0  0  0
  -26.4960  -11.9740   20.2900 N   0  0  0  0  0  0  0  0  0  0  0  0
  -24.4560  -10.8250   20.8540 C   0  0  0  0  0  0  0  0  0  0  0  0
  -24.8710   -9.8150   21.7460 C   0  0  0  0  0  3  0  0  0  0  0  0
  -24.0940   -8.6500   21.9180 C   0  0  0  0  0  3  0  0  0  0  0  0
  -22.8900   -8.4870   21.1920 C   0  0  0  0  0  0  0  0  0  0  0  0
  -22.4890   -9.4900   20.2930 C   0  0  0  0  0  3  0  0  0  0  0  0
  -23.2670  -10.6470   20.1190 C   0  0  0  0  0  3  0  0  0  0  0  0
  -22.0870   -7.3740   21.2690 O   0  0  0  0  0  0  0  0  0  0  0  0
  -21.9270   -6.6820   22.4430 C   0  0  0  0  0  0  0  0  0  0  0  0
  -21.4050   -7.2960   23.6030 C   0  0  0  0  0  3  0  0  0  0  0  0
  -21.1850   -6.5330   24.7650 C   0  0  0  0  0  3  0  0  0  0  0  0
  -21.4800   -5.1560   24.7710 C   0  0  0  0  0  0  0  0  0  0  0  0
  -21.9960   -4.5420   23.6170 C   0  0  0  0  0  3  0  0  0  0  0  0
  -22.2140   -5.3020   22.4540 C   0  0  0  0  0  0  0  0  0  0  0  0
  -22.6900   -4.7000   21.3380 F   0  0  0  0  0  0  0  0  0  0  0  0
  -21.2650   -4.4220   25.8880 F   0  0  0  0  0  0  0  0  0  0  0  0
  -23.4770  -13.9530   21.1630 C   0  0  0  0  0  0  0  0  0  0  0  0
  -22.7660  -13.2680   22.0560 N   0  0  0  0  0  0  0  0  0  0  0  0
  -23.0500  -15.0020   20.6900 O   0  0  0  0  0  0  0  0  0  0  0  0
  -23.1200  -12.4180   22.4630 H   0  0  0  0  0  0  0  0  0  0  0  0
  -21.8510  -13.5980   22.3310 H   0  0  0  0  0  0  0  0  0  0  0  0
  -26.1070  -15.5280   20.2610 N   0  0  0  0  0  0  0  0  0  0  0  0
  -25.2630  -16.0950   20.2710 H   0  0  0  0  0  0  0  0  0  0  0  0
  -26.7690  -15.8420   19.5650 H   0  0  0  0  0  0  0  0  0  0  0  0
  -27.4720  -20.0770   17.2930 C   0  0  0  0  0  1  0  0  0  0  0  0
  -28.2330  -19.0110   18.1110 C   0  0  0  0  0  2  0  0  0  0  0  0
  2  1  2  0
  3  1  1  0
  4  5  2  0
  4  6  1  0
  5  2  1  0
  6  3  2  0
  7  5  1  0
  7  8  2  0
  9 11  1  0
  9  8  1  0
 10 21  2  0
 11 16  1  0
 12 20  1  0
 12 22  1  0
 13 19  1  0
 13 15  1  0
 14 20  1  0
 15 14  1  0
 16 15  2  0
 17 18  1  0
 17 11  2  0
 18 13  2  0
 19 12  1  0
 20 10  1  0
 22 24  2  0
 23 22  1  0
 25 23  1  0
 26 35  2  0
 26 31  1  0
 27 23  1  0
 27 31  1  0
 28 27  1  0
 29 30  1  0
 29 28  1  0
 30 26  1  0
 31 32  2  0
 32 33  1  0
 34 33  2  0
 35 34  1  0
 36 10  1  0
 36 37  1  0
 36 46  1  0
 37 40  1  0
 38 42  1  0
 38 37  1  0
 39 38  2  0
 42 41  1  0
 44 42  1  0
 44 45  1  0
 44 43  1  0
 46 49  1  1
 46 47  1  0
 48 46  1  0
 50 93  1  0
 50  6  1  0
 50 51  1  0
 51 53  1  0
 51 52  1  0
 54 51  1  0
 54 55  1  0
 56 62  1  0
 56 55  1  0
 57 62  1  0
 58 59  1  0
 58 57  1  0
 60 59  1  0
 60 67  1  0
 60 61  1  0
 62 61  1  0
 63 56  2  0
 64 65  2  0
 65 84  1  0
 66 65  1  0
 66 69  1  0
 67 68  1  0
 67 64  1  0
 68 66  2  0
 69 70  1  0
 70 71  2  0
 72 75  1  0
 72 71  1  0
 73 72  2  0
 74 73  1  0
 74 69  2  0
 75 76  1  0
 76 81  2  0
 76 77  1  0
 77 78  2  0
 78 79  1  0
 79 83  1  0
 80 79  2  0
 81 80  1  0
 82 81  1  0
 84 85  1  0
 85 88  1  0
 85 87  1  0
 86 84  2  0
 89 90  1  0
 89 64  1  0
 91 89  1  0
 92 93  1  0
M  ISO  4   8 101   9 101  55 100  56 100
M  END
>  <TORSDO>  (56) 
F 23

>  <SCORE>  (56) 
-9.929

>  <name>  (56) 
56

>  <ligand_id>  (56) 
56

>  <original_smiles>  (56) 
[H]c1c([H])c([H])c2c(c1[H])C([H])([H])C([H])([H])C([H])([H])C2([H])N([H])C(=O)C1([H])N(C(=O)C([H])(N([H])C(=O)C([H])(N([H])C([H])([H])[H])C([H])([H])[H])C(C([H])([H])[H])(C([H])([H])[H])C([H])([H])[H])C([H])([H])c2c([H])c(OC([H])([H])C([H])([H])c3c([H])c([H])c([H])c(C([H])(C([H])([H])C([H])([H])[H])[N+]([H])([H])C([H])([H])C([H])([H])C(=O)N4C([H])([H])C([H])([H])C([H])([H])C([H])(n5nc(-c6c([H])c([H])c(Oc7c([H])c([H])c(F)c([H])c7F)c([H])c6[H])c(C(=O)N([H])[H])c5N([H])[H])C4([H])[H])c3[H])c([H])c([H])c2C1([H])[H]

>  <smiles>  (56) 
[H]c1c([H])c([H])c2c(c1[H])C([H])([H])C([H])([H])C([H])([H])C2([H])N([H])C(=O)C1([H])N(C(=O)C([H])(N([H])C(=O)C([H])(N([H])C([H])([H])[H])C([H])([H])[H])C(C([H])([H])[H])(C([H])([H])[H])C([H])([H])[H])C([H])([H])c2c([H])c(OC([H])([H])C([H])([H])c3c([H])c([H])c([H])c(C([H])(C([H])([H])C([H])([H])[H])[N+]([H])([H])C([H])([H])C([H])([H])C(=O)N4C([H])([H])C([H])([H])C([H])([H])C([H])(n5nc(-c6c([H])c([H])c(Oc7c([H])c([H])c(F)c([H])c7F)c([H])c6[H])c(C(=O)N([H])[H])c5N([H])[H])C4([H])[H])c3[H])c([H])c([H])c2C1([H])[H]

$$$$
57:0:0
     RDKit          3D

 84 91  0  0  1  0  0  0  0  0999 V2000
  -28.9620  -22.4170   20.2850 C   0  0  0  0  0  3  0  0  0  0  0  0
  -28.7080  -20.5490   20.3770 C   0  0  0  0  0  2  0  0  0  0  0  0
  -30.8370  -19.2280   21.3120 C   0  0  0  0  0  1  0  0  0  0  0  0
  -30.3820  -19.1100   18.8700 C   0  0  0  0  0  1  0  0  0  0  0  0
  -29.7450  -18.9780   20.2620 C   0  0  2  0  0  0  0  0  0  0  0  0
  -29.4290  -17.1230   20.4120 C   0  0  0  0  0  2  0  0  0  0  0  0
  -30.3110  -15.5310   20.2200 C   0  0  0  0  0  0  0  0  0  0  0  0
  -30.3980  -13.0290   19.3630 C   0  0  0  0  0  2  0  0  0  0  0  0
  -29.4720  -12.7550   18.1430 C   0  0  0  0  0  2  0  0  0  0  0  0
  -28.0400  -12.4250   18.5980 C   0  0  0  0  0  2  0  0  0  0  0  0
  -27.5710  -13.3810   19.7200 C   0  0  0  0  0  3  0  0  0  0  0  0
  -28.6250  -13.5900   20.8280 C   0  0  0  0  0  2  0  0  0  0  0  0
  -29.8260  -14.1680   20.1940 N   0  0  0  0  0  0  0  0  0  0  0  0
  -31.5270  -15.5260   19.9600 O   0  0  0  0  0  0  0  0  0  0  0  0
  -25.2140  -13.8890   20.5340 C   0  0  0  0  0  0  0  0  0  0  0  0
  -24.1690  -13.0950   20.9100 C   0  0  0  0  0  0  0  0  0  0  0  0
  -24.6510  -11.7500   20.8540 C   0  0  0  0  0  0  0  0  0  0  0  0
  -26.2610  -13.0300   20.2550 N   0  0  0  0  0  0  0  0  0  0  0  0
  -25.9380  -11.7360   20.5170 N   0  0  0  0  0  0  0  0  0  0  0  0
  -23.9410  -10.4790   21.0430 C   0  0  0  0  0  0  0  0  0  0  0  0
  -24.3860   -9.5120   21.9720 C   0  0  0  0  0  3  0  0  0  0  0  0
  -23.6700   -8.3080   22.1500 C   0  0  0  0  0  3  0  0  0  0  0  0
  -22.4960   -8.0610   21.4000 C   0  0  0  0  0  0  0  0  0  0  0  0
  -22.0690   -9.0160   20.4610 C   0  0  0  0  0  3  0  0  0  0  0  0
  -22.7850  -10.2110   20.2810 C   0  0  0  0  0  3  0  0  0  0  0  0
  -21.7520   -6.9090   21.4870 O   0  0  0  0  0  0  0  0  0  0  0  0
  -21.7000   -6.1700   22.6430 C   0  0  0  0  0  0  0  0  0  0  0  0
  -21.2410   -6.7210   23.8590 C   0  0  0  0  0  3  0  0  0  0  0  0
  -21.1400   -5.9080   25.0060 C   0  0  0  0  0  3  0  0  0  0  0  0
  -21.4860   -4.5450   24.9370 C   0  0  0  0  0  0  0  0  0  0  0  0
  -21.9380   -3.9940   23.7250 C   0  0  0  0  0  3  0  0  0  0  0  0
  -22.0410   -4.8040   22.5810 C   0  0  0  0  0  0  0  0  0  0  0  0
  -22.4570   -4.2620   21.4100 F   0  0  0  0  0  0  0  0  0  0  0  0
  -21.3810   -3.7630   26.0360 F   0  0  0  0  0  0  0  0  0  0  0  0
  -22.7710  -13.5530   21.2060 C   0  0  0  0  0  0  0  0  0  0  0  0
  -22.0660  -12.8460   22.0810 N   0  0  0  0  0  0  0  0  0  0  0  0
  -22.3140  -14.5770   20.6970 O   0  0  0  0  0  0  0  0  0  0  0  0
  -22.4490  -12.0180   22.5140 H   0  0  0  0  0  0  0  0  0  0  0  0
  -21.1280  -13.1350   22.3210 H   0  0  0  0  0  0  0  0  0  0  0  0
  -25.3590  -15.2640   20.3720 N   0  0  0  0  0  0  0  0  0  0  0  0
  -24.5910  -15.9100   20.5150 H   0  0  0  0  0  0  0  0  0  0  0  0
  -26.2030  -15.7180   20.0460 H   0  0  0  0  0  0  0  0  0  0  0  0
  -27.9420  -24.0050   20.2660 C   0  0  0  0  0  3  0  0  0  0  0  0
  -28.1580  -25.7060   20.2860 O   0  0  0  0  0  0  0  0  0  0  0  0
  -24.6300  -31.8640   23.2110 C   0  0  0  0  0  0  0  0  0  0  0  0
  -27.1610  -26.8600   20.2350 C   0  0  0  0  0  0  0  0  0  0  0  0
  -23.4330  -30.4580   21.5850 C   0  0  0  0  0  3  0  0  0  0  0  0
  -24.8760  -28.8200   20.1740 C   0  0  0  0  0  0  0  0  0  0  0  0
  -26.0060  -30.6320   21.4400 C   0  0  0  0  0  2  0  0  0  0  0  0
  -26.0710  -29.2060   20.7940 C   0  0  0  0  0  0  0  0  0  0  0  0
  -27.2030  -28.2520   20.7910 C   0  0  0  0  0  3  0  0  0  0  0  0
  -25.9310  -26.6560   19.5630 C   0  0  0  0  0  3  0  0  0  0  0  0
  -24.8380  -27.5690   19.5360 C   0  0  0  0  0  3  0  0  0  0  0  0
  -23.6630  -29.7580   20.2160 C   0  0  0  0  0  2  0  0  0  0  0  0
  -24.7130  -31.0150   22.1320 N   0  0  0  0  0  0  0  0  0  0  0  0
  -23.5410  -32.1620   23.7290 O   0  0  0  0  0  0  0  0  0  0  0  0
  -22.7310  -29.4770   22.5640 C   0  0  0  0  0  0  0  0  0  0  0  0
  -21.3990  -29.3170   22.4430 N   0  0  0  0  0  0  0  0  0  0  0  0
  -23.3930  -28.8600   23.4000 O   0  0  0  0  0  0  0  0  0  0  0  0
  -20.9160  -29.8640   21.7430 H   0  0  0  0  0  0  0  0  0  0  0  0
  -18.0170  -28.1010   22.9630 C   0  0  0  0  0  0  0  0  0  0  0  0
  -20.5760  -28.3850   23.2220 C   0  0  0  0  0  3  0  0  0  0  0  0
  -20.6840  -26.9470   22.6620 C   0  0  0  0  0  2  0  0  0  0  0  0
  -19.5840  -26.6090   21.6510 C   0  0  0  0  0  2  0  0  0  0  0  0
  -18.2020  -26.7500   22.2940 C   0  0  0  0  0  2  0  0  0  0  0  0
  -19.1310  -28.8760   23.3840 C   0  0  0  0  0  0  0  0  0  0  0  0
  -18.9020  -30.1370   23.9740 C   0  0  0  0  0  3  0  0  0  0  0  0
  -17.5920  -30.6260   24.1450 C   0  0  0  0  0  3  0  0  0  0  0  0
  -16.4940  -29.8500   23.7380 C   0  0  0  0  0  3  0  0  0  0  0  0
  -16.7070  -28.5890   23.1520 C   0  0  0  0  0  3  0  0  0  0  0  0
  -25.9000  -32.5140   23.8400 C   0  0  0  0  0  3  0  0  0  0  0  0
  -26.4150  -31.7490   25.1210 C   0  0  1  0  0  0  0  0  0  0  0  0
  -25.3200  -31.5140   26.1890 C   0  0  0  0  0  1  0  0  0  0  0  0
  -27.0010  -30.3690   24.7460 C   0  0  0  0  0  1  0  0  0  0  0  0
  -27.5630  -32.5480   25.7820 C   0  0  0  0  0  1  0  0  0  0  0  0
  -25.5750  -33.9110   24.1850 N   0  0  0  0  0  0  0  0  0  0  0  0
  -25.8780  -34.9800   23.4360 C   0  0  0  0  0  0  0  0  0  0  0  0
  -26.5190  -34.8950   22.3870 O   0  0  0  0  0  0  0  0  0  0  0  0
  -24.9980  -34.0490   25.0020 H   0  0  0  0  0  0  0  0  0  0  0  0
  -24.1190  -36.7650   23.1750 C   0  0  0  0  0  1  0  0  0  0  0  0
  -25.3970  -36.3620   23.9280 C   0  0  0  0  0  3  0  0  0  0  0  0
  -27.5520  -37.2720   24.6790 C   0  0  0  0  0  1  0  0  0  0  0  0
  -26.4120  -37.4280   23.7800 N   0  0  0  0  0  0  0  0  0  0  0  0
  -26.0010  -38.3440   23.9460 H   0  0  0  0  0  0  0  0  0  0  0  0
  1  2  1  0
  5  4  1  6
  5  2  1  0
  5  6  1  0
  5  3  1  0
  7  6  1  0
  8 13  1  0
  9 10  1  0
  9  8  1  0
 11 10  1  0
 11 18  1  0
 11 12  1  0
 13  7  1  0
 13 12  1  0
 14  7  2  0
 15 16  2  0
 16 35  1  0
 17 16  1  0
 17 20  1  0
 18 19  1  0
 18 15  1  0
 19 17  2  0
 20 21  1  0
 21 22  2  0
 23 26  1  0
 23 22  1  0
 24 23  2  0
 25 24  1  0
 25 20  2  0
 26 27  1  0
 27 28  1  0
 28 29  2  0
 30 29  1  0
 30 34  1  0
 31 30  2  0
 32 27  2  0
 32 31  1  0
 33 32  1  0
 35 36  1  0
 36 39  1  0
 36 38  1  0
 37 35  2  0
 40 41  1  0
 40 15  1  0
 42 40  1  0
 43  1  2  0
 43 44  1  0
 45 56  2  0
 46 44  1  0
 46 51  1  0
 47 55  1  0
 47 57  1  0
 48 54  1  0
 48 50  1  0
 49 55  1  0
 50 49  1  0
 51 50  2  0
 52 46  2  0
 53 52  1  0
 53 48  2  0
 54 47  1  0
 55 45  1  0
 57 59  2  0
 58 57  1  0
 60 58  1  0
 61 70  2  0
 61 66  1  0
 62 58  1  0
 62 66  1  0
 63 62  1  0
 64 65  1  0
 64 63  1  0
 65 61  1  0
 66 67  2  0
 67 68  1  0
 69 68  2  0
 70 69  1  0
 71 45  1  0
 71 76  1  0
 71 72  1  0
 72 75  1  1
 72 73  1  0
 74 72  1  0
 76 79  1  0
 77 81  1  0
 77 76  1  0
 78 77  2  0
 81 80  1  0
 83 81  1  0
 83 84  1  0
 83 82  1  0
M  ISO  4   6 100   7 100  43 101  44 101
M  END
>  <TORSDO>  (57) 
F 20

>  <SCORE>  (57) 
-16.558

>  <name>  (57) 
57

>  <ligand_id>  (57) 
57

>  <original_smiles>  (57) 
[H]c1c([H])c([H])c2c(c1[H])C([H])([H])C([H])([H])C([H])([H])C2([H])N([H])C(=O)C1([H])N(C(=O)C([H])(N([H])C(=O)C([H])(N([H])C([H])([H])[H])C([H])([H])[H])C(C([H])([H])[H])(C([H])([H])[H])C([H])([H])[H])C([H])([H])c2c([H])c(OC([H])([H])C([H])([H])C([H])([H])C(C([H])([H])[H])(C([H])([H])[H])C([H])([H])C(=O)N3C([H])([H])C([H])([H])C([H])([H])C([H])(n4nc(-c5c([H])c([H])c(Oc6c([H])c([H])c(F)c([H])c6F)c([H])c5[H])c(C(=O)N([H])[H])c4N([H])[H])C3([H])[H])c([H])c([H])c2C1([H])[H]

>  <smiles>  (57) 
[H]c1c([H])c([H])c2c(c1[H])C([H])([H])C([H])([H])C([H])([H])C2([H])N([H])C(=O)C1([H])N(C(=O)C([H])(N([H])C(=O)C([H])(N([H])C([H])([H])[H])C([H])([H])[H])C(C([H])([H])[H])(C([H])([H])[H])C([H])([H])[H])C([H])([H])c2c([H])c(OC([H])([H])C([H])([H])C([H])([H])C(C([H])([H])[H])(C([H])([H])[H])C([H])([H])C(=O)N3C([H])([H])C([H])([H])C([H])([H])C([H])(n4nc(-c5c([H])c([H])c(Oc6c([H])c([H])c(F)c([H])c6F)c([H])c5[H])c(C(=O)N([H])[H])c4N([H])[H])C3([H])[H])c([H])c([H])c2C1([H])[H]

$$$$
58:0:0
     RDKit          3D

 92 99  0  0  1  0  0  0  0  0999 V2000
  -30.1720  -19.8800   20.6960 C   0  0  0  0  0  0  0  0  0  0  0  0
  -29.7110  -18.6540   20.8480 N   0  0  0  0  0  0  0  0  0  0  0  0
  -29.3920  -21.1820   21.2010 C   0  0  0  0  0  2  0  0  0  0  0  0
  -28.9820  -22.3870   20.2270 C   0  0  0  0  0  2  0  0  0  0  0  0
  -28.9410  -23.8850   20.8090 C   0  0  0  0  0  3  0  0  0  0  0  0
  -28.1870  -25.0020   19.9520 C   0  0  0  0  0  3  0  0  0  0  0  0
  -28.3060  -26.4490   20.2870 O   0  0  0  0  0  0  0  0  0  0  0  0
  -24.5860  -31.8760   23.2340 C   0  0  0  0  0  0  0  0  0  0  0  0
  -27.1930  -27.3070   20.1830 C   0  0  0  0  0  0  0  0  0  0  0  0
  -23.3810  -30.4800   21.5900 C   0  0  0  0  0  3  0  0  0  0  0  0
  -24.8310  -28.9340   20.1560 C   0  0  0  0  0  0  0  0  0  0  0  0
  -25.9190  -30.7920   21.4120 C   0  0  0  0  0  2  0  0  0  0  0  0
  -25.9970  -29.4140   20.7640 C   0  0  0  0  0  0  0  0  0  0  0  0
  -27.1740  -28.6080   20.7750 C   0  0  0  0  0  3  0  0  0  0  0  0
  -26.0110  -26.9020   19.5150 C   0  0  0  0  0  3  0  0  0  0  0  0
  -24.8400  -27.6850   19.5200 C   0  0  0  0  0  3  0  0  0  0  0  0
  -23.5930  -29.8060   20.2080 C   0  0  0  0  0  2  0  0  0  0  0  0
  -24.6480  -31.0650   22.1360 N   0  0  0  0  0  0  0  0  0  0  0  0
  -23.5020  -32.1520   23.7680 O   0  0  0  0  0  0  0  0  0  0  0  0
  -22.7200  -29.4620   22.5480 C   0  0  0  0  0  0  0  0  0  0  0  0
  -21.3950  -29.2820   22.4170 N   0  0  0  0  0  0  0  0  0  0  0  0
  -23.3960  -28.8360   23.3680 O   0  0  0  0  0  0  0  0  0  0  0  0
  -20.9070  -29.8340   21.7250 H   0  0  0  0  0  0  0  0  0  0  0  0
  -18.0180  -28.0820   22.9110 C   0  0  0  0  0  0  0  0  0  0  0  0
  -20.5730  -28.3450   23.1860 C   0  0  0  0  0  3  0  0  0  0  0  0
  -20.6790  -26.9130   22.6140 C   0  0  0  0  0  2  0  0  0  0  0  0
  -19.5800  -26.5860   21.5980 C   0  0  0  0  0  2  0  0  0  0  0  0
  -18.1980  -26.7320   22.2340 C   0  0  0  0  0  2  0  0  0  0  0  0
  -19.1340  -28.8450   23.3440 C   0  0  0  0  0  0  0  0  0  0  0  0
  -18.9140  -30.1080   23.9360 C   0  0  0  0  0  3  0  0  0  0  0  0
  -17.6110  -30.6130   24.0870 C   0  0  0  0  0  3  0  0  0  0  0  0
  -16.5080  -29.8470   23.6740 C   0  0  0  0  0  3  0  0  0  0  0  0
  -16.7110  -28.5800   23.0960 C   0  0  0  0  0  3  0  0  0  0  0  0
  -25.8720  -32.5060   23.8540 C   0  0  0  0  0  3  0  0  0  0  0  0
  -26.3860  -31.7340   25.1310 C   0  0  1  0  0  0  0  0  0  0  0  0
  -25.2900  -31.5000   26.1960 C   0  0  0  0  0  1  0  0  0  0  0  0
  -26.9630  -30.3530   24.7410 C   0  0  0  0  0  1  0  0  0  0  0  0
  -27.5390  -32.5260   25.7870 C   0  0  0  0  0  1  0  0  0  0  0  0
  -25.5600  -33.9040   24.1810 N   0  0  0  0  0  0  0  0  0  0  0  0
  -25.9020  -34.9540   23.4250 C   0  0  0  0  0  0  0  0  0  0  0  0
  -26.5770  -34.8510   22.3980 O   0  0  0  0  0  0  0  0  0  0  0  0
  -24.9570  -34.0570   24.9750 H   0  0  0  0  0  0  0  0  0  0  0  0
  -24.1820  -36.7550   23.0630 C   0  0  0  0  0  1  0  0  0  0  0  0
  -25.4180  -36.3450   23.8780 C   0  0  0  0  0  3  0  0  0  0  0  0
  -27.5550  -37.2210   24.7210 C   0  0  0  0  0  1  0  0  0  0  0  0
  -26.4580  -37.3930   23.7720 N   0  0  0  0  0  0  0  0  0  0  0  0
  -26.0550  -38.3130   23.9230 H   0  0  0  0  0  0  0  0  0  0  0  0
  -30.5140  -17.4040   20.5590 C   0  0  0  0  0  3  0  0  0  0  0  0
  -29.8440  -15.9860   20.8880 C   0  0  0  0  0  3  0  0  0  0  0  0
  -30.6100  -14.6700   20.4160 C   0  0  0  0  0  0  0  0  0  0  0  0
  -30.3670  -12.4340   19.3280 C   0  0  0  0  0  2  0  0  0  0  0  0
  -29.4160  -12.5690   18.1170 C   0  0  0  0  0  2  0  0  0  0  0  0
  -27.9450  -12.4090   18.5540 C   0  0  0  0  0  2  0  0  0  0  0  0
  -27.5980  -13.2690   19.7950 C   0  0  0  0  0  3  0  0  0  0  0  0
  -28.6660  -13.1330   20.9050 C   0  0  0  0  0  2  0  0  0  0  0  0
  -29.9730  -13.4560   20.3200 N   0  0  0  0  0  0  0  0  0  0  0  0
  -31.7650  -14.7920   20.0020 O   0  0  0  0  0  0  0  0  0  0  0  0
  -25.2090  -13.8650   20.5300 C   0  0  0  0  0  0  0  0  0  0  0  0
  -24.1440  -13.0880   20.9050 C   0  0  0  0  0  0  0  0  0  0  0  0
  -24.6070  -11.7380   20.8690 C   0  0  0  0  0  0  0  0  0  0  0  0
  -26.2520  -12.9850   20.2900 N   0  0  0  0  0  0  0  0  0  0  0  0
  -25.8970  -11.7030   20.5570 N   0  0  0  0  0  0  0  0  0  0  0  0
  -23.8810  -10.4750   21.0610 C   0  0  0  0  0  0  0  0  0  0  0  0
  -24.3270   -9.5000   21.9830 C   0  0  0  0  0  3  0  0  0  0  0  0
  -23.6020   -8.3030   22.1640 C   0  0  0  0  0  3  0  0  0  0  0  0
  -22.4190   -8.0700   21.4230 C   0  0  0  0  0  0  0  0  0  0  0  0
  -21.9930   -9.0320   20.4920 C   0  0  0  0  0  3  0  0  0  0  0  0
  -22.7170  -10.2220   20.3080 C   0  0  0  0  0  3  0  0  0  0  0  0
  -21.6650   -6.9240   21.5150 O   0  0  0  0  0  0  0  0  0  0  0  0
  -21.6430   -6.1670   22.6590 C   0  0  0  0  0  0  0  0  0  0  0  0
  -21.2520   -6.7090   23.9040 C   0  0  0  0  0  3  0  0  0  0  0  0
  -21.1740   -5.8790   25.0400 C   0  0  0  0  0  3  0  0  0  0  0  0
  -21.4810   -4.5100   24.9340 C   0  0  0  0  0  0  0  0  0  0  0  0
  -21.8610   -3.9650   23.6950 C   0  0  0  0  0  3  0  0  0  0  0  0
  -21.9410   -4.7930   22.5600 C   0  0  0  0  0  0  0  0  0  0  0  0
  -22.2900   -4.2610   21.3630 F   0  0  0  0  0  0  0  0  0  0  0  0
  -21.3980   -3.7090   26.0220 F   0  0  0  0  0  0  0  0  0  0  0  0
  -22.7470  -13.5630   21.1840 C   0  0  0  0  0  0  0  0  0  0  0  0
  -22.0270  -12.8630   22.0540 N   0  0  0  0  0  0  0  0  0  0  0  0
  -22.3030  -14.5890   20.6680 O   0  0  0  0  0  0  0  0  0  0  0  0
  -22.3970  -12.0320   22.4890 H   0  0  0  0  0  0  0  0  0  0  0  0
  -21.0900  -13.1620   22.2880 H   0  0  0  0  0  0  0  0  0  0  0  0
  -25.3730  -15.2340   20.3540 N   0  0  0  0  0  0  0  0  0  0  0  0
  -24.6160  -15.9000   20.4630 H   0  0  0  0  0  0  0  0  0  0  0  0
  -26.2340  -15.6680   20.0390 H   0  0  0  0  0  0  0  0  0  0  0  0
  -31.5830  -20.1800   20.1210 C   0  0  0  0  0  3  0  0  0  0  0  0
  -31.4670  -20.6470   18.7240 N   0  0  0  0  0  4  0  0  0  0  0  0
  -30.9820  -21.5250   18.6650 H   0  0  0  0  0  0  0  0  0  0  0  0
  -30.9490  -19.9690   18.1890 H   0  0  0  0  0  0  0  0  0  0  0  0
  -32.3700  -20.7540   18.2930 H   0  0  0  0  0  0  0  0  0  0  0  0
  -32.6560  -20.6560   22.4620 C   0  0  0  0  0  1  0  0  0  0  0  0
  -32.4710  -21.1160   20.9980 C   0  0  0  0  0  2  0  0  0  0  0  0
  1  2  2  0
  1  3  1  0
  4  5  1  0
  4  3  1  0
  6  7  1  0
  6  5  2  0
  8 19  2  0
  9  7  1  0
  9 14  1  0
 10 18  1  0
 10 20  1  0
 11 17  1  0
 11 13  1  0
 12 18  1  0
 13 14  2  0
 13 12  1  0
 15 16  1  0
 15  9  2  0
 16 11  2  0
 17 10  1  0
 18  8  1  0
 20 22  2  0
 21 20  1  0
 23 21  1  0
 24 33  2  0
 24 29  1  0
 25 21  1  0
 25 29  1  0
 26 25  1  0
 27 28  1  0
 27 26  1  0
 28 24  1  0
 29 30  2  0
 30 31  1  0
 32 31  2  0
 33 32  1  0
 34  8  1  0
 34 39  1  0
 34 35  1  0
 35 38  1  1
 35 36  1  0
 37 35  1  0
 39 42  1  0
 40 44  1  0
 40 39  1  0
 41 40  2  0
 44 43  1  0
 46 44  1  0
 46 47  1  0
 46 45  1  0
 48  2  1  0
 48 49  2  0
 50 49  1  0
 51 56  1  0
 52 53  1  0
 52 51  1  0
 54 53  1  0
 54 61  1  0
 54 55  1  0
 56 50  1  0
 56 55  1  0
 57 50  2  0
 58 59  2  0
 59 78  1  0
 60 59  1  0
 60 63  1  0
 61 58  1  0
 61 62  1  0
 62 60  2  0
 63 64  1  0
 64 65  2  0
 66 69  1  0
 66 65  1  0
 67 66  2  0
 68 67  1  0
 68 63  2  0
 69 70  1  0
 70 71  1  0
 71 72  2  0
 73 72  1  0
 73 77  1  0
 74 73  2  0
 75 70  2  0
 75 74  1  0
 76 75  1  0
 78 79  1  0
 79 82  1  0
 79 81  1  0
 80 78  2  0
 83 84  1  0
 83 58  1  0
 85 83  1  0
 86  1  1  0
 86 92  1  0
 87 86  1  0
 88 87  1  0
 89 87  1  0
 90 87  1  0
 92 91  1  0
M  ISO  4   6 101   7 101  49 100  50 100
M  END
>  <TORSDO>  (58) 
F 25

>  <SCORE>  (58) 
-12.486

>  <name>  (58) 
58

>  <ligand_id>  (58) 
58

>  <original_smiles>  (58) 
[H]c1c([H])c([H])c2c(c1[H])C([H])([H])C([H])([H])C([H])([H])C2([H])N([H])C(=O)C1([H])N(C(=O)C([H])(N([H])C(=O)C([H])(N([H])C([H])([H])[H])C([H])([H])[H])C(C([H])([H])[H])(C([H])([H])[H])C([H])([H])[H])C([H])([H])c2c([H])c(OC([H])([H])C([H])([H])C([H])([H])C([H])([H])C(=NC([H])([H])C([H])([H])C(=O)N3C([H])([H])C([H])([H])C([H])([H])C([H])(n4nc(-c5c([H])c([H])c(Oc6c([H])c([H])c(F)c([H])c6F)c([H])c5[H])c(C(=O)N([H])[H])c4N([H])[H])C3([H])[H])C([H])(C([H])([H])C([H])([H])[H])[N+]([H])([H])[H])c([H])c([H])c2C1([H])[H]

>  <smiles>  (58) 
[H]c1c([H])c([H])c2c(c1[H])C([H])([H])C([H])([H])C([H])([H])C2([H])N([H])C(=O)C1([H])N(C(=O)C([H])(N([H])C(=O)C([H])(N([H])C([H])([H])[H])C([H])([H])[H])C(C([H])([H])[H])(C([H])([H])[H])C([H])([H])[H])C([H])([H])c2c([H])c(OC([H])([H])C([H])([H])C([H])([H])C([H])([H])C(=NC([H])([H])C([H])([H])C(=O)N3C([H])([H])C([H])([H])C([H])([H])C([H])(n4nc(-c5c([H])c([H])c(Oc6c([H])c([H])c(F)c([H])c6F)c([H])c5[H])c(C(=O)N([H])[H])c4N([H])[H])C3([H])[H])C([H])(C([H])([H])C([H])([H])[H])[N+]([H])([H])[H])c([H])c([H])c2C1([H])[H]

$$$$
59:0:0
     RDKit          3D

 96105  0  0  1  0  0  0  0  0999 V2000
  -29.5270  -23.4850   21.5220 C   0  0  0  0  0  2  0  0  0  0  0  0
  -29.2810  -25.0060   21.5980 C   0  0  0  0  0  2  0  0  0  0  0  0
  -28.7710  -22.9870   20.2710 C   0  0  0  0  0  3  0  0  0  0  0  0
  -28.5990  -24.2710   19.4240 C   0  0  0  0  0  3  0  0  0  0  0  0
  -28.2570  -25.3270   20.5010 C   0  0  0  0  0  3  0  0  0  0  0  0
  -30.0260  -20.4520   17.6370 C   0  0  0  0  0  3  0  0  0  0  0  0
  -29.5640  -21.6480   18.2130 C   0  0  0  0  0  3  0  0  0  0  0  0
  -30.3100  -19.3350   18.4400 C   0  0  0  0  0  3  0  0  0  0  0  0
  -29.6770  -20.6050   20.4140 C   0  0  0  0  0  3  0  0  0  0  0  0
  -29.3730  -21.7360   19.6110 C   0  0  0  0  0  0  0  0  0  0  0  0
  -30.1320  -19.3890   19.8440 C   0  0  0  0  0  0  0  0  0  0  0  0
  -31.5580  -18.4840   21.5260 C   0  0  0  0  0  1  0  0  0  0  0  0
  -30.3840  -18.2760   20.6810 N   0  0  0  0  0  0  0  0  0  0  0  0
  -30.2810  -16.9510   20.0490 C   0  0  0  0  0  2  0  0  0  0  0  0
  -30.0270  -15.7590   21.0250 C   0  0  0  0  0  2  0  0  0  0  0  0
  -30.6850  -14.4650   20.5000 C   0  0  0  0  0  0  0  0  0  0  0  0
  -30.3600  -12.3170   19.3580 C   0  0  0  0  0  2  0  0  0  0  0  0
  -29.4410  -12.5370   18.1400 C   0  0  0  0  0  2  0  0  0  0  0  0
  -27.9610  -12.4210   18.5480 C   0  0  0  0  0  2  0  0  0  0  0  0
  -27.6120  -13.2600   19.8050 C   0  0  0  0  0  3  0  0  0  0  0  0
  -28.6510  -13.0310   20.9230 C   0  0  0  0  0  2  0  0  0  0  0  0
  -29.9880  -13.3040   20.3800 N   0  0  0  0  0  0  0  0  0  0  0  0
  -31.8370  -14.5730   20.0720 O   0  0  0  0  0  0  0  0  0  0  0  0
  -25.2090  -13.8750   20.4790 C   0  0  0  0  0  0  0  0  0  0  0  0
  -24.1340  -13.1110   20.8400 C   0  0  0  0  0  0  0  0  0  0  0  0
  -24.5940  -11.7580   20.8360 C   0  0  0  0  0  0  0  0  0  0  0  0
  -26.2560  -12.9910   20.2710 N   0  0  0  0  0  0  0  0  0  0  0  0
  -25.8880  -11.7140   20.5420 N   0  0  0  0  0  0  0  0  0  0  0  0
  -23.8650  -10.4990   21.0330 C   0  0  0  0  0  0  0  0  0  0  0  0
  -24.2960   -9.5330   21.9680 C   0  0  0  0  0  3  0  0  0  0  0  0
  -23.5680   -8.3360   22.1520 C   0  0  0  0  0  3  0  0  0  0  0  0
  -22.3920   -8.0990   21.3980 C   0  0  0  0  0  0  0  0  0  0  0  0
  -21.9800   -9.0550   20.4530 C   0  0  0  0  0  3  0  0  0  0  0  0
  -22.7100  -10.2420   20.2680 C   0  0  0  0  0  3  0  0  0  0  0  0
  -21.6310   -6.9590   21.4920 O   0  0  0  0  0  0  0  0  0  0  0  0
  -21.5970   -6.2130   22.6420 C   0  0  0  0  0  0  0  0  0  0  0  0
  -21.2060   -6.7660   23.8810 C   0  0  0  0  0  3  0  0  0  0  0  0
  -21.1170   -5.9450   25.0210 C   0  0  0  0  0  3  0  0  0  0  0  0
  -21.4050   -4.5710   24.9270 C   0  0  0  0  0  0  0  0  0  0  0  0
  -21.7890   -4.0160   23.6940 C   0  0  0  0  0  3  0  0  0  0  0  0
  -21.8820   -4.8340   22.5540 C   0  0  0  0  0  0  0  0  0  0  0  0
  -22.2300   -4.2900   21.3630 F   0  0  0  0  0  0  0  0  0  0  0  0
  -21.3110   -3.7810   26.0220 F   0  0  0  0  0  0  0  0  0  0  0  0
  -22.7330  -13.5900   21.0880 C   0  0  0  0  0  0  0  0  0  0  0  0
  -21.9960  -12.9090   21.9580 N   0  0  0  0  0  0  0  0  0  0  0  0
  -22.3060  -14.6120   20.5500 O   0  0  0  0  0  0  0  0  0  0  0  0
  -22.3600  -12.0880   22.4160 H   0  0  0  0  0  0  0  0  0  0  0  0
  -21.0560  -13.2120   22.1670 H   0  0  0  0  0  0  0  0  0  0  0  0
  -25.3820  -15.2450   20.2860 N   0  0  0  0  0  0  0  0  0  0  0  0
  -24.6220  -15.9110   20.3820 H   0  0  0  0  0  0  0  0  0  0  0  0
  -26.2500  -15.6720   19.9860 H   0  0  0  0  0  0  0  0  0  0  0  0
  -27.5710  -24.1400   18.3700 N   0  0  0  0  0  4  0  0  0  0  0  0
  -26.6690  -23.9120   18.7500 H   0  0  0  0  0  0  0  0  0  0  0  0
  -27.8240  -23.4140   17.7250 H   0  0  0  0  0  0  0  0  0  0  0  0
  -27.4950  -24.9980   17.8510 H   0  0  0  0  0  0  0  0  0  0  0  0
  -28.3650  -26.7050   20.0960 O   0  0  0  0  0  0  0  0  0  0  0  0
  -24.5920  -31.8910   23.2260 C   0  0  0  0  0  0  0  0  0  0  0  0
  -27.1990  -27.4450   20.1200 C   0  0  0  0  0  0  0  0  0  0  0  0
  -23.3700  -30.4950   21.5950 C   0  0  0  0  0  3  0  0  0  0  0  0
  -24.8080  -28.9590   20.1590 C   0  0  0  0  0  0  0  0  0  0  0  0
  -25.8960  -30.8490   21.3750 C   0  0  0  0  0  2  0  0  0  0  0  0
  -25.9760  -29.4790   20.7320 C   0  0  0  0  0  0  0  0  0  0  0  0
  -27.1780  -28.7330   20.7040 C   0  0  0  0  0  3  0  0  0  0  0  0
  -26.0070  -26.9410   19.5500 C   0  0  0  0  0  3  0  0  0  0  0  0
  -24.8190  -27.6870   19.5680 C   0  0  0  0  0  3  0  0  0  0  0  0
  -23.5680  -29.8190   20.2140 C   0  0  0  0  0  2  0  0  0  0  0  0
  -24.6380  -31.0910   22.1230 N   0  0  0  0  0  0  0  0  0  0  0  0
  -23.5170  -32.1650   23.7740 O   0  0  0  0  0  0  0  0  0  0  0  0
  -22.7250  -29.4720   22.5580 C   0  0  0  0  0  0  0  0  0  0  0  0
  -21.4000  -29.2910   22.4390 N   0  0  0  0  0  0  0  0  0  0  0  0
  -23.4130  -28.8420   23.3660 O   0  0  0  0  0  0  0  0  0  0  0  0
  -20.9040  -29.8490   21.7570 H   0  0  0  0  0  0  0  0  0  0  0  0
  -18.0260  -28.1010   22.9550 C   0  0  0  0  0  0  0  0  0  0  0  0
  -20.5860  -28.3550   23.2130 C   0  0  0  0  0  3  0  0  0  0  0  0
  -20.6830  -26.9230   22.6380 C   0  0  0  0  0  2  0  0  0  0  0  0
  -19.5770  -26.6010   21.6300 C   0  0  0  0  0  2  0  0  0  0  0  0
  -18.1980  -26.7500   22.2800 C   0  0  0  0  0  2  0  0  0  0  0  0
  -19.1470  -28.8620   23.3790 C   0  0  0  0  0  0  0  0  0  0  0  0
  -18.9340  -30.1270   23.9670 C   0  0  0  0  0  3  0  0  0  0  0  0
  -17.6310  -30.6310   24.1370 C   0  0  0  0  0  3  0  0  0  0  0  0
  -16.5240  -29.8680   23.7290 C   0  0  0  0  0  3  0  0  0  0  0  0
  -16.7220  -28.6050   23.1440 C   0  0  0  0  0  3  0  0  0  0  0  0
  -25.8830  -32.5200   23.8360 C   0  0  0  0  0  3  0  0  0  0  0  0
  -25.5760  -33.9130   24.1790 N   0  0  0  0  0  0  0  0  0  0  0  0
  -25.8980  -34.9710   23.4230 C   0  0  0  0  0  0  0  0  0  0  0  0
  -26.5570  -34.8750   22.3840 O   0  0  0  0  0  0  0  0  0  0  0  0
  -24.9930  -34.0620   24.9910 H   0  0  0  0  0  0  0  0  0  0  0  0
  -24.1630  -36.7600   23.0990 C   0  0  0  0  0  1  0  0  0  0  0  0
  -25.4140  -36.3550   23.8940 C   0  0  0  0  0  3  0  0  0  0  0  0
  -27.5570  -37.2370   24.7040 C   0  0  0  0  0  1  0  0  0  0  0  0
  -26.4420  -37.4110   23.7760 N   0  0  0  0  0  0  0  0  0  0  0  0
  -26.0370  -38.3290   23.9360 H   0  0  0  0  0  0  0  0  0  0  0  0
  -26.4180  -31.7360   25.0970 C   0  0  1  0  0  0  0  0  0  0  0  0
  -25.3390  -31.4870   26.1780 C   0  0  0  0  0  1  0  0  0  0  0  0
  -26.9970  -30.3640   24.6820 C   0  0  0  0  0  1  0  0  0  0  0  0
  -27.5780  -32.5250   25.7500 C   0  0  0  0  0  1  0  0  0  0  0  0
  1  2  1  0
  3 10  1  0
  3  1  1  0
  4 52  1  0
  4  3  1  0
  4  5  1  0
  5 56  1  0
  5  2  1  0
  6  7  2  0
  6  8  1  0
  7 10  1  0
  8 11  2  0
 10  9  2  0
 11  9  1  0
 11 13  1  0
 13 12  1  0
 14 13  1  0
 14 15  1  0
 16 15  1  0
 17 22  1  0
 18 19  1  0
 18 17  1  0
 20 19  1  0
 20 27  1  0
 20 21  1  0
 22 16  1  0
 22 21  1  0
 23 16  2  0
 24 25  2  0
 25 44  1  0
 26 25  1  0
 26 29  1  0
 27 24  1  0
 27 28  1  0
 28 26  2  0
 29 30  1  0
 30 31  2  0
 32 35  1  0
 32 31  1  0
 33 32  2  0
 34 33  1  0
 34 29  2  0
 35 36  1  0
 36 37  1  0
 37 38  2  0
 39 38  1  0
 39 43  1  0
 40 39  2  0
 41 36  2  0
 41 40  1  0
 42 41  1  0
 44 45  1  0
 45 48  1  0
 45 47  1  0
 46 44  2  0
 49 50  1  0
 49 24  1  0
 51 49  1  0
 52 53  1  0
 54 52  1  0
 55 52  1  0
 56 58  1  0
 57 68  2  0
 58 63  1  0
 59 67  1  0
 59 69  1  0
 60 66  1  0
 60 62  1  0
 61 67  1  0
 62 61  1  0
 63 62  2  0
 64 65  1  0
 64 58  2  0
 65 60  2  0
 66 59  1  0
 67 57  1  0
 69 71  2  0
 70 69  1  0
 72 70  1  0
 73 82  2  0
 73 78  1  0
 74 70  1  0
 74 78  1  0
 75 74  1  0
 76 77  1  0
 76 75  1  0
 77 73  1  0
 78 79  2  0
 79 80  1  0
 81 80  2  0
 82 81  1  0
 83 57  1  0
 83 84  1  0
 83 93  1  0
 84 87  1  0
 85 89  1  0
 85 84  1  0
 86 85  2  0
 89 88  1  0
 91 89  1  0
 91 92  1  0
 91 90  1  0
 93 96  1  1
 93 94  1  0
 95 93  1  0
M  ISO  4   5 101  15 100  16 100  56 101
M  END
>  <TORSDO>  (59) 
F 21

>  <SCORE>  (59) 
-13.854

>  <name>  (59) 
59

>  <ligand_id>  (59) 
59

>  <original_smiles>  (59) 
[H]c1c([H])c([H])c2c(c1[H])C([H])([H])C([H])([H])C([H])([H])C2([H])N([H])C(=O)C1([H])N(C(=O)C([H])(N([H])C(=O)C([H])(N([H])C([H])([H])[H])C([H])([H])[H])C(C([H])([H])[H])(C([H])([H])[H])C([H])([H])[H])C([H])([H])c2c([H])c(OC3([H])C([H])([H])C([H])([H])C([H])(c4c([H])c([H])c([H])c(N(C([H])([H])[H])C([H])([H])C([H])([H])C(=O)N5C([H])([H])C([H])([H])C([H])([H])C([H])(n6nc(-c7c([H])c([H])c(Oc8c([H])c([H])c(F)c([H])c8F)c([H])c7[H])c(C(=O)N([H])[H])c6N([H])[H])C5([H])[H])c4[H])C3([H])[N+]([H])([H])[H])c([H])c([H])c2C1([H])[H]

>  <smiles>  (59) 
[H]c1c([H])c([H])c2c(c1[H])C([H])([H])C([H])([H])C([H])([H])C2([H])N([H])C(=O)C1([H])N(C(=O)C([H])(N([H])C(=O)C([H])(N([H])C([H])([H])[H])C([H])([H])[H])C(C([H])([H])[H])(C([H])([H])[H])C([H])([H])[H])C([H])([H])c2c([H])c(OC3([H])C([H])([H])C([H])([H])C([H])(c4c([H])c([H])c([H])c(N(C([H])([H])[H])C([H])([H])C([H])([H])C(=O)N5C([H])([H])C([H])([H])C([H])([H])C([H])(n6nc(-c7c([H])c([H])c(Oc8c([H])c([H])c(F)c([H])c8F)c([H])c7[H])c(C(=O)N([H])[H])c6N([H])[H])C5([H])[H])c4[H])C3([H])[N+]([H])([H])[H])c([H])c([H])c2C1([H])[H]

$$$$
60:0:0
     RDKit          3D

 92101  0  0  1  0  0  0  0  0999 V2000
  -30.3750  -20.4730   20.7450 C   0  0  0  0  0  3  0  0  0  0  0  0
  -28.1490  -20.5820   19.8360 C   0  0  0  0  0  3  0  0  0  0  0  0
  -30.4140  -21.8970   20.7750 C   0  0  0  0  0  3  0  0  0  0  0  0
  -28.1900  -22.0020   19.8570 C   0  0  0  0  0  3  0  0  0  0  0  0
  -29.2390  -19.7730   20.2670 C   0  0  0  0  0  0  0  0  0  0  0  0
  -29.3340  -22.7020   20.3180 C   0  0  0  0  0  0  0  0  0  0  0  0
  -30.0370  -25.1250   18.0960 C   0  0  0  0  0  2  0  0  0  0  0  0
  -30.6350  -24.7310   19.4570 C   0  0  0  0  0  2  0  0  0  0  0  0
  -28.5140  -25.1290   18.2760 C   0  0  0  0  0  2  0  0  0  0  0  0
  -29.4620  -24.2690   20.3410 C   0  0  0  0  0  3  0  0  0  0  0  0
  -28.2830  -25.1610   19.7950 C   0  0  0  0  0  3  0  0  0  0  0  0
  -28.3480  -26.5720   20.2010 O   0  0  0  0  0  0  0  0  0  0  0  0
  -24.5840  -31.8830   23.2320 C   0  0  0  0  0  0  0  0  0  0  0  0
  -27.1950  -27.3640   20.1560 C   0  0  0  0  0  0  0  0  0  0  0  0
  -23.3730  -30.4840   21.5960 C   0  0  0  0  0  3  0  0  0  0  0  0
  -24.8180  -28.9410   20.1670 C   0  0  0  0  0  0  0  0  0  0  0  0
  -25.9070  -30.8160   21.3980 C   0  0  0  0  0  2  0  0  0  0  0  0
  -25.9860  -29.4400   20.7530 C   0  0  0  0  0  0  0  0  0  0  0  0
  -27.1760  -28.6620   20.7420 C   0  0  0  0  0  3  0  0  0  0  0  0
  -25.9990  -26.9060   19.5520 C   0  0  0  0  0  3  0  0  0  0  0  0
  -24.8240  -27.6760   19.5610 C   0  0  0  0  0  3  0  0  0  0  0  0
  -23.5800  -29.8110   20.2160 C   0  0  0  0  0  2  0  0  0  0  0  0
  -24.6400  -31.0760   22.1320 N   0  0  0  0  0  0  0  0  0  0  0  0
  -23.5030  -32.1570   23.7730 O   0  0  0  0  0  0  0  0  0  0  0  0
  -22.7190  -29.4630   22.5580 C   0  0  0  0  0  0  0  0  0  0  0  0
  -21.3950  -29.2770   22.4290 N   0  0  0  0  0  0  0  0  0  0  0  0
  -23.4010  -28.8420   23.3770 O   0  0  0  0  0  0  0  0  0  0  0  0
  -20.9040  -29.8310   21.7410 H   0  0  0  0  0  0  0  0  0  0  0  0
  -18.0240  -28.0640   22.9220 C   0  0  0  0  0  0  0  0  0  0  0  0
  -20.5800  -28.3400   23.2030 C   0  0  0  0  0  3  0  0  0  0  0  0
  -20.6920  -26.9050   22.6380 C   0  0  0  0  0  2  0  0  0  0  0  0
  -19.5980  -26.5690   21.6210 C   0  0  0  0  0  2  0  0  0  0  0  0
  -18.2120  -26.7110   22.2560 C   0  0  0  0  0  2  0  0  0  0  0  0
  -19.1360  -28.8350   23.3520 C   0  0  0  0  0  0  0  0  0  0  0  0
  -18.9070  -30.1010   23.9340 C   0  0  0  0  0  3  0  0  0  0  0  0
  -17.5990  -30.5970   24.0880 C   0  0  0  0  0  3  0  0  0  0  0  0
  -16.5020  -29.8230   23.6740 C   0  0  0  0  0  3  0  0  0  0  0  0
  -16.7150  -28.5580   23.0980 C   0  0  0  0  0  3  0  0  0  0  0  0
  -25.8710  -32.5140   23.8470 C   0  0  0  0  0  3  0  0  0  0  0  0
  -26.3950  -31.7430   25.1210 C   0  0  1  0  0  0  0  0  0  0  0  0
  -25.3080  -31.5040   26.1940 C   0  0  0  0  0  1  0  0  0  0  0  0
  -26.9760  -30.3650   24.7250 C   0  0  0  0  0  1  0  0  0  0  0  0
  -27.5480  -32.5370   25.7780 C   0  0  0  0  0  1  0  0  0  0  0  0
  -25.5620  -33.9130   24.1780 N   0  0  0  0  0  0  0  0  0  0  0  0
  -25.8870  -34.9640   23.4140 C   0  0  0  0  0  0  0  0  0  0  0  0
  -26.5480  -34.8580   22.3770 O   0  0  0  0  0  0  0  0  0  0  0  0
  -24.9760  -34.0690   24.9840 H   0  0  0  0  0  0  0  0  0  0  0  0
  -24.1550  -36.7550   23.0700 C   0  0  0  0  0  1  0  0  0  0  0  0
  -25.4020  -36.3520   23.8720 C   0  0  0  0  0  3  0  0  0  0  0  0
  -27.5420  -37.2410   24.6850 C   0  0  0  0  0  1  0  0  0  0  0  0
  -26.4330  -37.4070   23.7510 N   0  0  0  0  0  0  0  0  0  0  0  0
  -26.0260  -38.3260   23.9020 H   0  0  0  0  0  0  0  0  0  0  0  0
  -29.1200  -18.2460   20.2050 C   0  0  0  0  0  0  0  0  0  0  0  0
  -28.0770  -17.7200   19.8020 O   0  0  0  0  0  0  0  0  0  0  0  0
  -30.2940  -17.2930   20.6040 C   0  0  0  0  0  2  0  0  0  0  0  0
  -29.8890  -15.8360   21.1020 C   0  0  0  0  0  2  0  0  0  0  0  0
  -30.6220  -14.6000   20.4730 C   0  0  0  0  0  0  0  0  0  0  0  0
  -30.3730  -12.4090   19.3240 C   0  0  0  0  0  2  0  0  0  0  0  0
  -29.4290  -12.5940   18.1160 C   0  0  0  0  0  2  0  0  0  0  0  0
  -27.9530  -12.4510   18.5390 C   0  0  0  0  0  2  0  0  0  0  0  0
  -27.6110  -13.2880   19.8010 C   0  0  0  0  0  3  0  0  0  0  0  0
  -28.6660  -13.0720   20.9090 C   0  0  0  0  0  2  0  0  0  0  0  0
  -29.9840  -13.3980   20.3460 N   0  0  0  0  0  0  0  0  0  0  0  0
  -31.7560  -14.7670   20.0150 O   0  0  0  0  0  0  0  0  0  0  0  0
  -25.2140  -13.9130   20.4930 C   0  0  0  0  0  0  0  0  0  0  0  0
  -24.1380  -13.1520   20.8610 C   0  0  0  0  0  0  0  0  0  0  0  0
  -24.5900  -11.7970   20.8420 C   0  0  0  0  0  0  0  0  0  0  0  0
  -26.2550  -13.0240   20.2750 N   0  0  0  0  0  0  0  0  0  0  0  0
  -25.8830  -11.7460   20.5440 N   0  0  0  0  0  0  0  0  0  0  0  0
  -23.8550  -10.5390   21.0360 C   0  0  0  0  0  0  0  0  0  0  0  0
  -24.2820   -9.5700   21.9710 C   0  0  0  0  0  3  0  0  0  0  0  0
  -23.5490   -8.3770   22.1530 C   0  0  0  0  0  3  0  0  0  0  0  0
  -22.3740   -8.1450   21.3980 C   0  0  0  0  0  0  0  0  0  0  0  0
  -21.9670   -9.1020   20.4530 C   0  0  0  0  0  3  0  0  0  0  0  0
  -22.7000  -10.2860   20.2710 C   0  0  0  0  0  3  0  0  0  0  0  0
  -21.6120   -7.0060   21.4890 O   0  0  0  0  0  0  0  0  0  0  0  0
  -21.5640   -6.2620   22.6390 C   0  0  0  0  0  0  0  0  0  0  0  0
  -21.1460   -6.8170   23.8690 C   0  0  0  0  0  3  0  0  0  0  0  0
  -21.0470   -5.9980   25.0110 C   0  0  0  0  0  3  0  0  0  0  0  0
  -21.3530   -4.6260   24.9250 C   0  0  0  0  0  0  0  0  0  0  0  0
  -21.7630   -4.0730   23.7000 C   0  0  0  0  0  3  0  0  0  0  0  0
  -21.8640   -4.8870   22.5580 C   0  0  0  0  0  0  0  0  0  0  0  0
  -22.2400   -4.3440   21.3760 F   0  0  0  0  0  0  0  0  0  0  0  0
  -21.2470   -3.8380   26.0200 F   0  0  0  0  0  0  0  0  0  0  0  0
  -22.7410  -13.6380   21.1200 C   0  0  0  0  0  0  0  0  0  0  0  0
  -22.0020  -12.9530   21.9870 N   0  0  0  0  0  0  0  0  0  0  0  0
  -22.3130  -14.6610   20.5890 O   0  0  0  0  0  0  0  0  0  0  0  0
  -22.3610  -12.1230   22.4370 H   0  0  0  0  0  0  0  0  0  0  0  0
  -21.0650  -13.2640   22.2030 H   0  0  0  0  0  0  0  0  0  0  0  0
  -25.3940  -15.2820   20.3060 N   0  0  0  0  0  0  0  0  0  0  0  0
  -24.6350  -15.9460   20.4050 H   0  0  0  0  0  0  0  0  0  0  0  0
  -26.2560  -15.7120   19.9910 H   0  0  0  0  0  0  0  0  0  0  0  0
  1  3  1  0
  2  4  2  0
  2  5  1  0
  4  6  1  0
  5  1  2  0
  6  3  2  0
  7  9  1  0
  7  8  1  0
  8 10  1  0
  9 11  1  0
 10  6  1  0
 11 12  1  0
 11 10  1  0
 13 24  2  0
 14 12  1  0
 14 19  1  0
 15 23  1  0
 15 25  1  0
 16 22  1  0
 16 18  1  0
 17 23  1  0
 18 17  1  0
 19 18  2  0
 20 21  1  0
 20 14  2  0
 21 16  2  0
 22 15  1  0
 23 13  1  0
 25 27  2  0
 26 25  1  0
 28 26  1  0
 29 38  2  0
 29 34  1  0
 30 26  1  0
 30 34  1  0
 31 30  1  0
 32 33  1  0
 32 31  1  0
 33 29  1  0
 34 35  2  0
 35 36  1  0
 37 36  2  0
 38 37  1  0
 39 13  1  0
 39 44  1  0
 39 40  1  0
 40 43  1  1
 40 41  1  0
 42 40  1  0
 44 47  1  0
 45 49  1  0
 45 44  1  0
 46 45  2  0
 49 48  1  0
 51 49  1  0
 51 52  1  0
 51 50  1  0
 53  5  1  0
 53 55  1  0
 54 53  2  0
 55 56  1  0
 57 56  1  0
 58 63  1  0
 59 60  1  0
 59 58  1  0
 61 60  1  0
 61 68  1  0
 61 62  1  0
 63 57  1  0
 63 62  1  0
 64 57  2  0
 65 66  2  0
 66 85  1  0
 67 66  1  0
 67 70  1  0
 68 65  1  0
 68 69  1  0
 69 67  2  0
 70 71  1  0
 71 72  2  0
 73 76  1  0
 73 72  1  0
 74 73  2  0
 75 74  1  0
 75 70  2  0
 76 77  1  0
 77 78  1  0
 78 79  2  0
 80 79  1  0
 80 84  1  0
 81 80  2  0
 82 77  2  0
 82 81  1  0
 83 82  1  0
 85 86  1  0
 86 89  1  0
 86 88  1  0
 87 85  2  0
 90 91  1  0
 90 65  1  0
 92 90  1  0
M  ISO  4  11 101  12 101  56 100  57 100
M  END
>  <TORSDO>  (60) 
F 20

>  <SCORE>  (60) 
-14.073

>  <name>  (60) 
60

>  <ligand_id>  (60) 
60

>  <original_smiles>  (60) 
[H]c1c([H])c([H])c2c(c1[H])C([H])([H])C([H])([H])C([H])([H])C2([H])N([H])C(=O)C1([H])N(C(=O)C([H])(N([H])C(=O)C([H])(N([H])C([H])([H])[H])C([H])([H])[H])C(C([H])([H])[H])(C([H])([H])[H])C([H])([H])[H])C([H])([H])c2c([H])c(OC3([H])C([H])([H])C([H])([H])C([H])([H])C3([H])c3c([H])c([H])c(C(=O)C([H])([H])C([H])([H])C(=O)N4C([H])([H])C([H])([H])C([H])([H])C([H])(n5nc(-c6c([H])c([H])c(Oc7c([H])c([H])c(F)c([H])c7F)c([H])c6[H])c(C(=O)N([H])[H])c5N([H])[H])C4([H])[H])c([H])c3[H])c([H])c([H])c2C1([H])[H]

>  <smiles>  (60) 
[H]c1c([H])c([H])c2c(c1[H])C([H])([H])C([H])([H])C([H])([H])C2([H])N([H])C(=O)C1([H])N(C(=O)C([H])(N([H])C(=O)C([H])(N([H])C([H])([H])[H])C([H])([H])[H])C(C([H])([H])[H])(C([H])([H])[H])C([H])([H])[H])C([H])([H])c2c([H])c(OC3([H])C([H])([H])C([H])([H])C([H])([H])C3([H])c3c([H])c([H])c(C(=O)C([H])([H])C([H])([H])C(=O)N4C([H])([H])C([H])([H])C([H])([H])C([H])(n5nc(-c6c([H])c([H])c(Oc7c([H])c([H])c(F)c([H])c7F)c([H])c6[H])c(C(=O)N([H])[H])c5N([H])[H])C4([H])[H])c([H])c3[H])c([H])c([H])c2C1([H])[H]

$$$$
61:0:0
     RDKit          3D

 87 94  0  0  1  0  0  0  0  0999 V2000
  -28.9060  -21.0780   19.7250 C   0  0  0  0  0  2  0  0  0  0  0  0
  -29.9170  -18.3460   19.5140 C   0  0  0  0  0  0  0  0  0  0  0  0
  -29.6720  -19.6620   20.1440 N   0  0  0  0  0  0  0  0  0  0  0  0
  -29.5920  -18.2630   18.3290 O   0  0  0  0  0  0  0  0  0  0  0  0
  -29.9880  -19.6750   21.1060 H   0  0  0  0  0  0  0  0  0  0  0  0
  -30.5530  -16.8800   20.2030 C   0  0  0  0  0  3  0  0  0  0  0  0
  -30.9280  -15.3160   19.4810 C   0  0  0  0  0  0  0  0  0  0  0  0
  -30.6270  -12.9320   18.4840 C   0  0  0  0  0  2  0  0  0  0  0  0
  -29.5650  -12.8790   17.3570 C   0  0  0  0  0  2  0  0  0  0  0  0
  -28.1640  -12.6520   17.9450 C   0  0  0  0  0  2  0  0  0  0  0  0
  -27.9060  -13.5540   19.1770 C   0  0  0  0  0  3  0  0  0  0  0  0
  -29.0870  -13.5640   20.1770 C   0  0  0  0  0  2  0  0  0  0  0  0
  -30.2770  -14.0440   19.4510 N   0  0  0  0  0  0  0  0  0  0  0  0
  -32.0340  -15.2440   18.9240 O   0  0  0  0  0  0  0  0  0  0  0  0
  -25.6560  -14.1570   20.2190 C   0  0  0  0  0  0  0  0  0  0  0  0
  -24.6170  -13.4040   20.6840 C   0  0  0  0  0  0  0  0  0  0  0  0
  -25.0160  -12.0410   20.5260 C   0  0  0  0  0  0  0  0  0  0  0  0
  -26.6300  -13.2610   19.8190 N   0  0  0  0  0  0  0  0  0  0  0  0
  -26.2600  -11.9750   20.0630 N   0  0  0  0  0  0  0  0  0  0  0  0
  -24.2540  -10.8010   20.7310 C   0  0  0  0  0  0  0  0  0  0  0  0
  -24.7000   -9.7980   21.6190 C   0  0  0  0  0  3  0  0  0  0  0  0
  -23.9370   -8.6260   21.8170 C   0  0  0  0  0  3  0  0  0  0  0  0
  -22.7130   -8.4500   21.1270 C   0  0  0  0  0  0  0  0  0  0  0  0
  -22.2860   -9.4420   20.2260 C   0  0  0  0  0  3  0  0  0  0  0  0
  -23.0490  -10.6040   20.0270 C   0  0  0  0  0  3  0  0  0  0  0  0
  -21.9200   -7.3330   21.2360 O   0  0  0  0  0  0  0  0  0  0  0  0
  -21.8420   -6.6180   22.4030 C   0  0  0  0  0  0  0  0  0  0  0  0
  -21.4410   -7.2140   23.6180 C   0  0  0  0  0  3  0  0  0  0  0  0
  -21.3070   -6.4260   24.7790 C   0  0  0  0  0  3  0  0  0  0  0  0
  -21.5650   -5.0440   24.7260 C   0  0  0  0  0  0  0  0  0  0  0  0
  -21.9600   -4.4470   23.5150 C   0  0  0  0  0  3  0  0  0  0  0  0
  -22.0940   -5.2310   22.3570 C   0  0  0  0  0  0  0  0  0  0  0  0
  -22.4540   -4.6470   21.1890 F   0  0  0  0  0  0  0  0  0  0  0  0
  -21.4290   -4.2850   25.8390 F   0  0  0  0  0  0  0  0  0  0  0  0
  -23.2870  -13.9220   21.1460 C   0  0  0  0  0  0  0  0  0  0  0  0
  -22.6500  -13.2270   22.0810 N   0  0  0  0  0  0  0  0  0  0  0  0
  -22.8280  -14.9800   20.7150 O   0  0  0  0  0  0  0  0  0  0  0  0
  -23.0370  -12.3710   22.4490 H   0  0  0  0  0  0  0  0  0  0  0  0
  -21.7630  -13.5560   22.4350 H   0  0  0  0  0  0  0  0  0  0  0  0
  -25.8360  -15.5270   20.0690 N   0  0  0  0  0  0  0  0  0  0  0  0
  -25.1060  -16.1930   20.2920 H   0  0  0  0  0  0  0  0  0  0  0  0
  -26.6450  -15.9560   19.6400 H   0  0  0  0  0  0  0  0  0  0  0  0
  -28.7400  -16.7650   22.0840 C   0  0  0  0  0  1  0  0  0  0  0  0
  -30.2280  -16.7770   21.7130 C   0  0  0  0  0  2  0  0  0  0  0  0
  -28.9140  -22.7340   20.4100 C   0  0  0  0  0  3  0  0  0  0  0  0
  -28.0220  -24.2320   19.9870 C   0  0  0  0  0  3  0  0  0  0  0  0
  -28.1450  -25.8180   20.3820 O   0  0  0  0  0  0  0  0  0  0  0  0
  -24.4550  -31.7490   23.1550 C   0  0  0  0  0  0  0  0  0  0  0  0
  -27.1200  -26.8840   20.2520 C   0  0  0  0  0  0  0  0  0  0  0  0
  -23.3060  -30.3220   21.5090 C   0  0  0  0  0  3  0  0  0  0  0  0
  -24.7980  -28.7180   20.1330 C   0  0  0  0  0  0  0  0  0  0  0  0
  -25.8690  -30.5630   21.4100 C   0  0  0  0  0  2  0  0  0  0  0  0
  -25.9660  -29.1490   20.7730 C   0  0  0  0  0  0  0  0  0  0  0  0
  -27.1210  -28.2510   20.8110 C   0  0  0  0  0  3  0  0  0  0  0  0
  -25.9240  -26.5970   19.5560 C   0  0  0  0  0  3  0  0  0  0  0  0
  -24.8000  -27.4620   19.5040 C   0  0  0  0  0  3  0  0  0  0  0  0
  -23.5680  -29.6240   20.1460 C   0  0  0  0  0  2  0  0  0  0  0  0
  -24.5630  -30.9050   22.0780 N   0  0  0  0  0  0  0  0  0  0  0  0
  -23.3530  -32.0350   23.6510 O   0  0  0  0  0  0  0  0  0  0  0  0
  -22.6020  -29.3320   22.4720 C   0  0  0  0  0  0  0  0  0  0  0  0
  -21.2770  -29.1510   22.3180 N   0  0  0  0  0  0  0  0  0  0  0  0
  -23.2540  -28.7260   23.3270 O   0  0  0  0  0  0  0  0  0  0  0  0
  -20.8040  -29.6890   21.6060 H   0  0  0  0  0  0  0  0  0  0  0  0
  -17.9000  -27.9000   22.7490 C   0  0  0  0  0  0  0  0  0  0  0  0
  -20.4460  -28.2140   23.0820 C   0  0  0  0  0  3  0  0  0  0  0  0
  -20.5890  -26.7740   22.5390 C   0  0  0  0  0  2  0  0  0  0  0  0
  -19.5230  -26.4130   21.5000 C   0  0  0  0  0  2  0  0  0  0  0  0
  -18.1210  -26.5440   22.1010 C   0  0  0  0  0  2  0  0  0  0  0  0
  -18.9920  -28.6910   23.1960 C   0  0  0  0  0  0  0  0  0  0  0  0
  -18.7320  -29.9570   23.7650 C   0  0  0  0  0  3  0  0  0  0  0  0
  -17.4130  -30.4340   23.8900 C   0  0  0  0  0  3  0  0  0  0  0  0
  -16.3350  -29.6410   23.4570 C   0  0  0  0  0  3  0  0  0  0  0  0
  -16.5790  -28.3760   22.8940 C   0  0  0  0  0  3  0  0  0  0  0  0
  -25.7080  -32.4070   23.8070 C   0  0  0  0  0  3  0  0  0  0  0  0
  -25.3750  -33.8090   24.1160 N   0  0  0  0  0  0  0  0  0  0  0  0
  -25.7070  -34.8630   23.3580 C   0  0  0  0  0  0  0  0  0  0  0  0
  -26.3890  -34.7580   22.3350 O   0  0  0  0  0  0  0  0  0  0  0  0
  -24.7680  -33.9630   24.9070 H   0  0  0  0  0  0  0  0  0  0  0  0
  -23.9660  -36.6440   22.9800 C   0  0  0  0  0  1  0  0  0  0  0  0
  -25.2050  -36.2530   23.8010 C   0  0  0  0  0  3  0  0  0  0  0  0
  -27.3240  -37.1680   24.6400 C   0  0  0  0  0  1  0  0  0  0  0  0
  -26.2290  -37.3140   23.6860 N   0  0  0  0  0  0  0  0  0  0  0  0
  -25.8140  -38.2320   23.8180 H   0  0  0  0  0  0  0  0  0  0  0  0
  -26.1900  -31.6640   25.1130 C   0  0  1  0  0  0  0  0  0  0  0  0
  -25.0650  -31.4310   26.1490 C   0  0  0  0  0  1  0  0  0  0  0  0
  -26.8020  -30.2870   24.7710 C   0  0  0  0  0  1  0  0  0  0  0  0
  -27.3080  -32.4830   25.7990 C   0  0  0  0  0  1  0  0  0  0  0  0
  1  3  1  0
  1 45  1  0
  2  3  1  0
  2  6  1  0
  3  5  1  0
  4  2  2  0
  6 44  1  0
  7  6  1  0
  8 13  1  0
  9 10  1  0
  9  8  1  0
 11 10  1  0
 11 18  1  0
 11 12  1  0
 13  7  1  0
 13 12  1  0
 14  7  2  0
 15 16  2  0
 16 35  1  0
 17 16  1  0
 17 20  1  0
 18 19  1  0
 18 15  1  0
 19 17  2  0
 20 21  1  0
 21 22  2  0
 23 26  1  0
 23 22  1  0
 24 23  2  0
 25 24  1  0
 25 20  2  0
 26 27  1  0
 27 28  1  0
 28 29  2  0
 30 29  1  0
 30 34  1  0
 31 30  2  0
 32 27  2  0
 32 31  1  0
 33 32  1  0
 35 36  1  0
 36 39  1  0
 36 38  1  0
 37 35  2  0
 40 15  1  0
 40 41  1  0
 42 40  1  0
 44 43  1  0
 46 47  1  0
 46 45  2  0
 48 59  2  0
 49 47  1  0
 49 54  1  0
 50 58  1  0
 50 60  1  0
 51 57  1  0
 51 53  1  0
 52 58  1  0
 53 54  2  0
 53 52  1  0
 55 49  2  0
 56 55  1  0
 56 51  2  0
 57 50  1  0
 58 48  1  0
 60 62  2  0
 61 60  1  0
 63 61  1  0
 64 73  2  0
 64 69  1  0
 65 61  1  0
 65 69  1  0
 66 65  1  0
 67 68  1  0
 67 66  1  0
 68 64  1  0
 69 70  2  0
 70 71  1  0
 72 71  2  0
 73 72  1  0
 74 48  1  0
 74 75  1  0
 74 84  1  0
 75 78  1  0
 76 80  1  0
 76 75  1  0
 77 76  2  0
 80 79  1  0
 82 80  1  0
 82 83  1  0
 82 81  1  0
 84 87  1  1
 84 85  1  0
 86 84  1  0
M  ISO  4   6 100   7 100  46 101  47 101
M  END
>  <TORSDO>  (61) 
F 21

>  <SCORE>  (61) 
-12.022

>  <name>  (61) 
61

>  <ligand_id>  (61) 
61

>  <original_smiles>  (61) 
[H]c1c([H])c([H])c2c(c1[H])C([H])([H])C([H])([H])C([H])([H])C2([H])N([H])C(=O)C1([H])N(C(=O)C([H])(N([H])C(=O)C([H])(N([H])C([H])([H])[H])C([H])([H])[H])C(C([H])([H])[H])(C([H])([H])[H])C([H])([H])[H])C([H])([H])c2c([H])c(OC([H])([H])C([H])([H])C([H])([H])N([H])C(=O)C([H])(C(=O)N3C([H])([H])C([H])([H])C([H])([H])C([H])(n4nc(-c5c([H])c([H])c(Oc6c([H])c([H])c(F)c([H])c6F)c([H])c5[H])c(C(=O)N([H])[H])c4N([H])[H])C3([H])[H])C([H])([H])C([H])([H])[H])c([H])c([H])c2C1([H])[H]

>  <smiles>  (61) 
[H]c1c([H])c([H])c2c(c1[H])C([H])([H])C([H])([H])C([H])([H])C2([H])N([H])C(=O)C1([H])N(C(=O)C([H])(N([H])C(=O)C([H])(N([H])C([H])([H])[H])C([H])([H])[H])C(C([H])([H])[H])(C([H])([H])[H])C([H])([H])[H])C([H])([H])c2c([H])c(OC([H])([H])C([H])([H])C([H])([H])N([H])C(=O)C([H])(C(=O)N3C([H])([H])C([H])([H])C([H])([H])C([H])(n4nc(-c5c([H])c([H])c(Oc6c([H])c([H])c(F)c([H])c6F)c([H])c5[H])c(C(=O)N([H])[H])c4N([H])[H])C3([H])[H])C([H])([H])C([H])([H])[H])c([H])c([H])c2C1([H])[H]

$$$$
62:0:0
     RDKit          3D

 87 94  0  0  1  0  0  0  0  0999 V2000
  -29.0370  -23.0760   19.1710 C   0  0  0  0  0  2  0  0  0  0  0  0
  -28.4940  -21.6360   19.3750 C   0  0  0  0  0  2  0  0  0  0  0  0
  -29.3500  -20.6550   20.2280 C   0  0  0  0  0  2  0  0  0  0  0  0
  -29.2670  -19.1940   19.7070 C   0  0  0  0  0  2  0  0  0  0  0  0
  -29.9440  -18.1110   20.5840 C   0  0  0  0  0  2  0  0  0  0  0  0
  -30.0280  -16.7280   19.8680 C   0  0  0  0  0  2  0  0  0  0  0  0
  -31.0420  -14.4950   20.1350 C   0  0  0  0  0  0  0  0  0  0  0  0
  -30.6500  -12.3760   18.9300 C   0  0  0  0  0  2  0  0  0  0  0  0
  -29.6620  -12.6250   17.7720 C   0  0  0  0  0  2  0  0  0  0  0  0
  -28.2040  -12.5000   18.2580 C   0  0  0  0  0  2  0  0  0  0  0  0
  -27.9340  -13.3170   19.5510 C   0  0  0  0  0  3  0  0  0  0  0  0
  -29.0260  -13.0440   20.6100 C   0  0  0  0  0  2  0  0  0  0  0  0
  -30.3350  -13.3370   20.0000 N   0  0  0  0  0  0  0  0  0  0  0  0
  -32.1300  -14.6760   19.5750 O   0  0  0  0  0  0  0  0  0  0  0  0
  -30.3980  -15.7010   22.1470 C   0  0  0  0  0  1  0  0  0  0  0  0
  -30.3710  -15.5370   20.6910 N   0  0  0  0  0  0  0  0  0  0  0  0
  -25.5780  -13.9690   20.3630 C   0  0  0  0  0  0  0  0  0  0  0  0
  -24.5080  -13.2140   20.7640 C   0  0  0  0  0  0  0  0  0  0  0  0
  -24.9390  -11.8530   20.6970 C   0  0  0  0  0  0  0  0  0  0  0  0
  -26.5950  -13.0670   20.0780 N   0  0  0  0  0  0  0  0  0  0  0  0
  -26.2140  -11.7900   20.3360 N   0  0  0  0  0  0  0  0  0  0  0  0
  -24.1950  -10.6040   20.9000 C   0  0  0  0  0  0  0  0  0  0  0  0
  -24.6100   -9.6440   21.8490 C   0  0  0  0  0  3  0  0  0  0  0  0
  -23.8690   -8.4570   22.0390 C   0  0  0  0  0  3  0  0  0  0  0  0
  -22.6990   -8.2240   21.2800 C   0  0  0  0  0  0  0  0  0  0  0  0
  -22.3020   -9.1720   20.3210 C   0  0  0  0  0  3  0  0  0  0  0  0
  -23.0420  -10.3490   20.1300 C   0  0  0  0  0  3  0  0  0  0  0  0
  -21.9300   -7.0890   21.3780 O   0  0  0  0  0  0  0  0  0  0  0  0
  -21.8220   -6.3920   22.5540 C   0  0  0  0  0  0  0  0  0  0  0  0
  -21.3570   -6.9990   23.7410 C   0  0  0  0  0  3  0  0  0  0  0  0
  -21.1970   -6.2290   24.9110 C   0  0  0  0  0  3  0  0  0  0  0  0
  -21.4900   -4.8520   24.8930 C   0  0  0  0  0  0  0  0  0  0  0  0
  -21.9450   -4.2440   23.7100 C   0  0  0  0  0  3  0  0  0  0  0  0
  -22.1080   -5.0120   22.5440 C   0  0  0  0  0  0  0  0  0  0  0  0
  -22.5290   -4.4160   21.4020 F   0  0  0  0  0  0  0  0  0  0  0  0
  -21.3290   -4.1100   26.0140 F   0  0  0  0  0  0  0  0  0  0  0  0
  -23.1330  -13.7160   21.0970 C   0  0  0  0  0  0  0  0  0  0  0  0
  -22.4280  -13.0310   21.9910 N   0  0  0  0  0  0  0  0  0  0  0  0
  -22.6910  -14.7500   20.5970 O   0  0  0  0  0  0  0  0  0  0  0  0
  -22.7960  -12.1960   22.4220 H   0  0  0  0  0  0  0  0  0  0  0  0
  -21.5040  -13.3470   22.2510 H   0  0  0  0  0  0  0  0  0  0  0  0
  -25.7670  -15.3390   20.1970 N   0  0  0  0  0  0  0  0  0  0  0  0
  -25.0250  -16.0120   20.3560 H   0  0  0  0  0  0  0  0  0  0  0  0
  -26.6270  -15.7650   19.8770 H   0  0  0  0  0  0  0  0  0  0  0  0
  -28.2940  -24.2240   19.9070 C   0  0  0  0  0  2  0  0  0  0  0  0
  -28.6070  -25.6120   19.2840 C   0  0  0  0  0  2  0  0  0  0  0  0
  -28.3780  -26.7310   20.1500 O   0  0  0  0  0  0  0  0  0  0  0  0
  -24.5480  -31.8690   23.2390 C   0  0  0  0  0  0  0  0  0  0  0  0
  -27.1800  -27.4200   20.1310 C   0  0  0  0  0  0  0  0  0  0  0  0
  -23.3330  -30.4680   21.6010 C   0  0  0  0  0  3  0  0  0  0  0  0
  -24.7780  -28.9280   20.1650 C   0  0  0  0  0  0  0  0  0  0  0  0
  -25.8580  -30.8190   21.3980 C   0  0  0  0  0  2  0  0  0  0  0  0
  -25.9370  -29.4490   20.7530 C   0  0  0  0  0  0  0  0  0  0  0  0
  -27.1340  -28.6980   20.7380 C   0  0  0  0  0  3  0  0  0  0  0  0
  -25.9980  -26.9090   19.5480 C   0  0  0  0  0  3  0  0  0  0  0  0
  -24.8040  -27.6580   19.5640 C   0  0  0  0  0  3  0  0  0  0  0  0
  -23.5350  -29.7870   20.2200 C   0  0  0  0  0  2  0  0  0  0  0  0
  -24.5980  -31.0660   22.1370 N   0  0  0  0  0  0  0  0  0  0  0  0
  -23.4690  -32.1430   23.7830 O   0  0  0  0  0  0  0  0  0  0  0  0
  -22.6850  -29.4490   22.5640 C   0  0  0  0  0  0  0  0  0  0  0  0
  -21.3600  -29.2700   22.4420 N   0  0  0  0  0  0  0  0  0  0  0  0
  -23.3700  -28.8220   23.3770 O   0  0  0  0  0  0  0  0  0  0  0  0
  -20.8690  -29.8230   21.7530 H   0  0  0  0  0  0  0  0  0  0  0  0
  -17.9850  -28.0860   22.9530 C   0  0  0  0  0  0  0  0  0  0  0  0
  -20.5440  -28.3340   23.2160 C   0  0  0  0  0  3  0  0  0  0  0  0
  -20.6410  -26.9040   22.6360 C   0  0  0  0  0  2  0  0  0  0  0  0
  -19.5330  -26.5870   21.6260 C   0  0  0  0  0  2  0  0  0  0  0  0
  -18.1550  -26.7360   22.2760 C   0  0  0  0  0  2  0  0  0  0  0  0
  -19.1070  -28.8430   23.3790 C   0  0  0  0  0  0  0  0  0  0  0  0
  -18.8950  -30.1080   23.9700 C   0  0  0  0  0  3  0  0  0  0  0  0
  -17.5930  -30.6140   24.1420 C   0  0  0  0  0  3  0  0  0  0  0  0
  -16.4840  -29.8530   23.7310 C   0  0  0  0  0  3  0  0  0  0  0  0
  -16.6810  -28.5910   23.1430 C   0  0  0  0  0  3  0  0  0  0  0  0
  -25.8380  -32.4970   23.8510 C   0  0  0  0  0  3  0  0  0  0  0  0
  -26.3600  -31.7280   25.1270 C   0  0  1  0  0  0  0  0  0  0  0  0
  -25.2700  -31.4960   26.1990 C   0  0  0  0  0  1  0  0  0  0  0  0
  -26.9390  -30.3480   24.7360 C   0  0  0  0  0  1  0  0  0  0  0  0
  -27.5130  -32.5240   25.7810 C   0  0  0  0  0  1  0  0  0  0  0  0
  -25.5350  -33.8970   24.1760 N   0  0  0  0  0  0  0  0  0  0  0  0
  -25.8780  -34.9460   23.4170 C   0  0  0  0  0  0  0  0  0  0  0  0
  -26.5520  -34.8360   22.3890 O   0  0  0  0  0  0  0  0  0  0  0  0
  -24.9350  -34.0560   24.9730 H   0  0  0  0  0  0  0  0  0  0  0  0
  -24.1630  -36.7460   23.0440 C   0  0  0  0  0  1  0  0  0  0  0  0
  -25.3940  -36.3370   23.8670 C   0  0  0  0  0  3  0  0  0  0  0  0
  -27.5260  -37.2080   24.7170 C   0  0  0  0  0  1  0  0  0  0  0  0
  -26.4340  -37.3840   23.7630 N   0  0  0  0  0  0  0  0  0  0  0  0
  -26.0320  -38.3070   23.9090 H   0  0  0  0  0  0  0  0  0  0  0  0
  1  2  1  0
  1 45  1  0
  2  3  1  0
  4  3  1  0
  4  5  1  0
  6  5  1  0
  6 16  1  0
  7 16  1  0
  8 13  1  0
  9 10  1  0
  9  8  1  0
 11 10  1  0
 11 20  1  0
 11 12  1  0
 13  7  1  0
 13 12  1  0
 14  7  2  0
 16 15  1  0
 17 18  2  0
 18 37  1  0
 19 18  1  0
 19 22  1  0
 20 21  1  0
 20 17  1  0
 21 19  2  0
 22 23  1  0
 23 24  2  0
 25 28  1  0
 25 24  1  0
 26 25  2  0
 27 26  1  0
 27 22  2  0
 28 29  1  0
 29 30  1  0
 30 31  2  0
 32 31  1  0
 32 36  1  0
 33 32  2  0
 34 29  2  0
 34 33  1  0
 35 34  1  0
 37 38  1  0
 38 41  1  0
 38 40  1  0
 39 37  2  0
 42 43  1  0
 42 17  1  0
 44 42  1  0
 46 45  1  0
 46 47  1  0
 48 59  2  0
 49 47  1  0
 49 54  1  0
 50 58  1  0
 50 60  1  0
 51 57  1  0
 51 53  1  0
 52 58  1  0
 53 52  1  0
 54 53  2  0
 55 56  1  0
 55 49  2  0
 56 51  2  0
 57 50  1  0
 58 48  1  0
 60 62  2  0
 61 60  1  0
 63 61  1  0
 64 73  2  0
 64 69  1  0
 65 61  1  0
 65 69  1  0
 66 65  1  0
 67 68  1  0
 67 66  1  0
 68 64  1  0
 69 70  2  0
 70 71  1  0
 72 71  2  0
 73 72  1  0
 74 48  1  0
 74 79  1  0
 74 75  1  0
 75 78  1  1
 75 76  1  0
 77 75  1  0
 79 82  1  0
 80 84  1  0
 80 79  1  0
 81 80  2  0
 84 83  1  0
 86 84  1  0
 86 87  1  0
 86 85  1  0
M  ISO  4   7 100  16 100  46 101  47 101
M  END
>  <TORSDO>  (62) 
F 23

>  <SCORE>  (62) 
-12.143

>  <name>  (62) 
62

>  <ligand_id>  (62) 
62

>  <original_smiles>  (62) 
[H]c1c([H])c([H])c2c(c1[H])C([H])([H])C([H])([H])C([H])([H])C2([H])N([H])C(=O)C1([H])N(C(=O)C([H])(N([H])C(=O)C([H])(N([H])C([H])([H])[H])C([H])([H])[H])C(C([H])([H])[H])(C([H])([H])[H])C([H])([H])[H])C([H])([H])c2c([H])c(OC([H])([H])C([H])([H])C([H])([H])C([H])([H])C([H])([H])C([H])([H])C([H])([H])C([H])([H])N(C(=O)N3C([H])([H])C([H])([H])C([H])([H])C([H])(n4nc(-c5c([H])c([H])c(Oc6c([H])c([H])c(F)c([H])c6F)c([H])c5[H])c(C(=O)N([H])[H])c4N([H])[H])C3([H])[H])C([H])([H])[H])c([H])c([H])c2C1([H])[H]

>  <smiles>  (62) 
[H]c1c([H])c([H])c2c(c1[H])C([H])([H])C([H])([H])C([H])([H])C2([H])N([H])C(=O)C1([H])N(C(=O)C([H])(N([H])C(=O)C([H])(N([H])C([H])([H])[H])C([H])([H])[H])C(C([H])([H])[H])(C([H])([H])[H])C([H])([H])[H])C([H])([H])c2c([H])c(OC([H])([H])C([H])([H])C([H])([H])C([H])([H])C([H])([H])C([H])([H])C([H])([H])C([H])([H])N(C(=O)N3C([H])([H])C([H])([H])C([H])([H])C([H])(n4nc(-c5c([H])c([H])c(Oc6c([H])c([H])c(F)c([H])c6F)c([H])c5[H])c(C(=O)N([H])[H])c4N([H])[H])C3([H])[H])C([H])([H])[H])c([H])c([H])c2C1([H])[H]

$$$$
63:0:0
     RDKit          3D

 83 90  0  0  1  0  0  0  0  0999 V2000
  -27.8800  -23.8320   20.1910 C   0  0  0  0  0  2  0  0  0  0  0  0
  -28.9470  -22.3010   20.2780 C   0  0  0  0  0  0  0  0  0  0  0  0
  -30.1340  -22.6280   20.3700 O   0  0  0  0  0  0  0  0  0  0  0  0
  -28.7350  -20.5030   20.2630 C   0  0  0  0  0  3  0  0  0  0  0  0
  -29.5440  -19.1880   20.2660 C   0  0  0  0  0  3  0  0  0  0  0  0
  -29.3460  -17.3340   20.3140 C   0  0  0  0  0  2  0  0  0  0  0  0
  -30.2340  -15.6910   20.1300 C   0  0  0  0  0  0  0  0  0  0  0  0
  -30.3710  -13.1520   19.2860 C   0  0  0  0  0  2  0  0  0  0  0  0
  -29.4570  -12.8000   18.0740 C   0  0  0  0  0  2  0  0  0  0  0  0
  -28.0350  -12.4380   18.5350 C   0  0  0  0  0  2  0  0  0  0  0  0
  -27.5430  -13.4080   19.6330 C   0  0  0  0  0  3  0  0  0  0  0  0
  -28.5890  -13.6790   20.7370 C   0  0  0  0  0  2  0  0  0  0  0  0
  -29.7680  -14.3040   20.0950 N   0  0  0  0  0  0  0  0  0  0  0  0
  -31.4570  -15.6660   19.8870 O   0  0  0  0  0  0  0  0  0  0  0  0
  -25.1840  -13.9020   20.4360 C   0  0  0  0  0  0  0  0  0  0  0  0
  -24.1420  -13.1040   20.8160 C   0  0  0  0  0  0  0  0  0  0  0  0
  -24.6320  -11.7630   20.7730 C   0  0  0  0  0  0  0  0  0  0  0  0
  -26.2370  -13.0470   20.1700 N   0  0  0  0  0  0  0  0  0  0  0  0
  -25.9210  -11.7530   20.4400 N   0  0  0  0  0  0  0  0  0  0  0  0
  -23.9260  -10.4880   20.9680 C   0  0  0  0  0  0  0  0  0  0  0  0
  -24.3670   -9.5340   21.9110 C   0  0  0  0  0  3  0  0  0  0  0  0
  -23.6560   -8.3280   22.0970 C   0  0  0  0  0  3  0  0  0  0  0  0
  -22.4900   -8.0670   21.3390 C   0  0  0  0  0  0  0  0  0  0  0  0
  -22.0680   -9.0110   20.3840 C   0  0  0  0  0  3  0  0  0  0  0  0
  -22.7800  -10.2080   20.1980 C   0  0  0  0  0  3  0  0  0  0  0  0
  -21.7500   -6.9120   21.4320 O   0  0  0  0  0  0  0  0  0  0  0  0
  -21.6860   -6.1910   22.5970 C   0  0  0  0  0  0  0  0  0  0  0  0
  -21.1990   -6.7540   23.7960 C   0  0  0  0  0  3  0  0  0  0  0  0
  -21.0840   -5.9580   24.9530 C   0  0  0  0  0  3  0  0  0  0  0  0
  -21.4460   -4.5990   24.9110 C   0  0  0  0  0  0  0  0  0  0  0  0
  -21.9260   -4.0340   23.7160 C   0  0  0  0  0  3  0  0  0  0  0  0
  -22.0410   -4.8280   22.5620 C   0  0  0  0  0  0  0  0  0  0  0  0
  -22.4840   -4.2730   21.4080 F   0  0  0  0  0  0  0  0  0  0  0  0
  -21.3300   -3.8310   26.0200 F   0  0  0  0  0  0  0  0  0  0  0  0
  -22.7410  -13.5580   21.1010 C   0  0  0  0  0  0  0  0  0  0  0  0
  -22.0350  -12.8540   21.9800 N   0  0  0  0  0  0  0  0  0  0  0  0
  -22.2810  -14.5740   20.5820 O   0  0  0  0  0  0  0  0  0  0  0  0
  -22.4220  -12.0340   22.4220 H   0  0  0  0  0  0  0  0  0  0  0  0
  -21.0960  -13.1420   22.2140 H   0  0  0  0  0  0  0  0  0  0  0  0
  -25.3200  -15.2760   20.2650 N   0  0  0  0  0  0  0  0  0  0  0  0
  -24.5460  -15.9180   20.3990 H   0  0  0  0  0  0  0  0  0  0  0  0
  -26.1620  -15.7340   19.9360 H   0  0  0  0  0  0  0  0  0  0  0  0
  -28.1440  -25.5690   20.2910 O   0  0  0  0  0  0  0  0  0  0  0  0
  -24.6620  -31.8700   23.2150 C   0  0  0  0  0  0  0  0  0  0  0  0
  -27.1780  -26.7850   20.2380 C   0  0  0  0  0  0  0  0  0  0  0  0
  -23.4720  -30.4750   21.5780 C   0  0  0  0  0  3  0  0  0  0  0  0
  -24.9160  -28.8210   20.1710 C   0  0  0  0  0  0  0  0  0  0  0  0
  -26.0510  -30.6090   21.4600 C   0  0  0  0  0  2  0  0  0  0  0  0
  -26.1120  -29.1760   20.8060 C   0  0  0  0  0  0  0  0  0  0  0  0
  -27.2280  -28.1880   20.8060 C   0  0  0  0  0  3  0  0  0  0  0  0
  -25.9480  -26.6370   19.5480 C   0  0  0  0  0  3  0  0  0  0  0  0
  -24.8720  -27.5760   19.5180 C   0  0  0  0  0  3  0  0  0  0  0  0
  -23.7120  -29.7750   20.2080 C   0  0  0  0  0  2  0  0  0  0  0  0
  -24.7520  -31.0180   22.1370 N   0  0  0  0  0  0  0  0  0  0  0  0
  -23.5690  -32.1750   23.7220 O   0  0  0  0  0  0  0  0  0  0  0  0
  -22.7500  -29.5010   22.5480 C   0  0  0  0  0  0  0  0  0  0  0  0
  -21.4160  -29.3540   22.4210 N   0  0  0  0  0  0  0  0  0  0  0  0
  -23.4000  -28.8770   23.3890 O   0  0  0  0  0  0  0  0  0  0  0  0
  -20.9410  -29.9070   21.7220 H   0  0  0  0  0  0  0  0  0  0  0  0
  -18.0220  -28.1570   22.9270 C   0  0  0  0  0  0  0  0  0  0  0  0
  -20.5840  -28.4230   23.1930 C   0  0  0  0  0  3  0  0  0  0  0  0
  -20.6810  -26.9870   22.6250 C   0  0  0  0  0  2  0  0  0  0  0  0
  -19.5820  -26.6640   21.6100 C   0  0  0  0  0  2  0  0  0  0  0  0
  -18.1990  -26.8090   22.2500 C   0  0  0  0  0  2  0  0  0  0  0  0
  -19.1400  -28.9220   23.3560 C   0  0  0  0  0  0  0  0  0  0  0  0
  -18.9180  -30.1810   23.9550 C   0  0  0  0  0  3  0  0  0  0  0  0
  -17.6110  -30.6760   24.1270 C   0  0  0  0  0  3  0  0  0  0  0  0
  -16.5090  -29.9100   23.7110 C   0  0  0  0  0  3  0  0  0  0  0  0
  -16.7150  -28.6530   23.1180 C   0  0  0  0  0  3  0  0  0  0  0  0
  -25.9270  -32.5160   23.8570 C   0  0  0  0  0  3  0  0  0  0  0  0
  -26.4220  -31.7520   25.1490 C   0  0  1  0  0  0  0  0  0  0  0  0
  -25.3130  -31.5300   26.2060 C   0  0  0  0  0  1  0  0  0  0  0  0
  -27.0020  -30.3670   24.7870 C   0  0  0  0  0  1  0  0  0  0  0  0
  -27.5680  -32.5450   25.8190 C   0  0  0  0  0  1  0  0  0  0  0  0
  -25.6060  -33.9160   24.1980 N   0  0  0  0  0  0  0  0  0  0  0  0
  -25.9170  -34.9830   23.4500 C   0  0  0  0  0  0  0  0  0  0  0  0
  -26.5610  -34.8930   22.4020 O   0  0  0  0  0  0  0  0  0  0  0  0
  -25.0280  -34.0580   25.0130 H   0  0  0  0  0  0  0  0  0  0  0  0
  -24.1650  -36.7760   23.1880 C   0  0  0  0  0  1  0  0  0  0  0  0
  -25.4440  -36.3700   23.9380 C   0  0  0  0  0  3  0  0  0  0  0  0
  -27.6040  -37.2740   24.6820 C   0  0  0  0  0  1  0  0  0  0  0  0
  -26.4630  -37.4320   23.7840 N   0  0  0  0  0  0  0  0  0  0  0  0
  -26.0550  -38.3480   23.9480 H   0  0  0  0  0  0  0  0  0  0  0  0
  1  2  1  0
  1 43  1  0
  2  3  2  0
  4  5  2  0
  4  2  1  0
  5  6  1  0
  7  6  1  0
  8 13  1  0
  9 10  1  0
  9  8  1  0
 11 10  1  0
 11 18  1  0
 11 12  1  0
 13  7  1  0
 13 12  1  0
 14  7  2  0
 15 16  2  0
 16 35  1  0
 17 16  1  0
 17 20  1  0
 18 15  1  0
 18 19  1  0
 19 17  2  0
 20 21  1  0
 21 22  2  0
 23 26  1  0
 23 22  1  0
 24 23  2  0
 25 24  1  0
 25 20  2  0
 26 27  1  0
 27 28  1  0
 28 29  2  0
 30 29  1  0
 30 34  1  0
 31 30  2  0
 32 27  2  0
 32 31  1  0
 33 32  1  0
 35 36  1  0
 36 39  1  0
 36 38  1  0
 37 35  2  0
 40 41  1  0
 40 15  1  0
 42 40  1  0
 44 55  2  0
 45 43  1  0
 45 50  1  0
 46 54  1  0
 46 56  1  0
 47 53  1  0
 47 49  1  0
 48 54  1  0
 49 48  1  0
 50 49  2  0
 51 45  2  0
 52 51  1  0
 52 47  2  0
 53 46  1  0
 54 44  1  0
 56 58  2  0
 57 56  1  0
 59 57  1  0
 60 69  2  0
 60 65  1  0
 61 57  1  0
 61 65  1  0
 62 61  1  0
 63 64  1  0
 63 62  1  0
 64 60  1  0
 65 66  2  0
 66 67  1  0
 68 67  2  0
 69 68  1  0
 70 44  1  0
 70 75  1  0
 70 71  1  0
 71 74  1  1
 71 72  1  0
 73 71  1  0
 75 78  1  0
 76 80  1  0
 76 75  1  0
 77 76  2  0
 80 79  1  0
 82 80  1  0
 82 83  1  0
 82 81  1  0
M  ISO  4   1 101   6 100   7 100  43 101
M  END
>  <TORSDO>  (63) 
F 19

>  <SCORE>  (63) 
-16.380

>  <name>  (63) 
63

>  <ligand_id>  (63) 
63

>  <original_smiles>  (63) 
[H]C(C(=O)C([H])([H])Oc1c([H])c([H])c2c(c1[H])C([H])([H])N(C(=O)C([H])(N([H])C(=O)C([H])(N([H])C([H])([H])[H])C([H])([H])[H])C(C([H])([H])[H])(C([H])([H])[H])C([H])([H])[H])C([H])(C(=O)N([H])C1([H])c3c([H])c([H])c([H])c([H])c3C([H])([H])C([H])([H])C1([H])[H])C2([H])[H])=C([H])C([H])([H])C(=O)N1C([H])([H])C([H])([H])C([H])([H])C([H])(n2nc(-c3c([H])c([H])c(Oc4c([H])c([H])c(F)c([H])c4F)c([H])c3[H])c(C(=O)N([H])[H])c2N([H])[H])C1([H])[H]

>  <smiles>  (63) 
[H]C(C(=O)C([H])([H])Oc1c([H])c([H])c2c(c1[H])C([H])([H])N(C(=O)C([H])(N([H])C(=O)C([H])(N([H])C([H])([H])[H])C([H])([H])[H])C(C([H])([H])[H])(C([H])([H])[H])C([H])([H])[H])C([H])(C(=O)N([H])C1([H])c3c([H])c([H])c([H])c([H])c3C([H])([H])C([H])([H])C1([H])[H])C2([H])[H])=C([H])C([H])([H])C(=O)N1C([H])([H])C([H])([H])C([H])([H])C([H])(n2nc(-c3c([H])c([H])c(Oc4c([H])c([H])c(F)c([H])c4F)c([H])c3[H])c(C(=O)N([H])[H])c2N([H])[H])C1([H])[H]

$$$$
64:0:0
     RDKit          3D

 95103  0  0  1  0  0  0  0  0999 V2000
  -27.5680  -21.8320   22.2540 C   0  0  0  0  0  1  0  0  0  0  0  0
  -27.6990  -22.2080   20.7660 C   0  0  0  0  0  3  0  0  0  0  0  0
  -27.7330  -18.8850   17.9670 C   0  0  0  0  0  3  0  0  0  0  0  0
  -28.2890  -19.7370   20.1880 C   0  0  0  0  0  3  0  0  0  0  0  0
  -27.2940  -21.2070   18.5040 C   0  0  0  0  0  3  0  0  0  0  0  0
  -28.2510  -18.6580   19.2660 C   0  0  0  0  0  0  0  0  0  0  0  0
  -27.2660  -20.1520   17.5780 C   0  0  0  0  0  0  0  0  0  0  0  0
  -27.7850  -21.0140   19.8120 C   0  0  0  0  0  0  0  0  0  0  0  0
  -26.7030  -20.3810   16.1880 C   0  0  0  0  0  1  0  0  0  0  0  0
  -28.5760  -17.2430   19.6220 C   0  0  0  0  0  0  0  0  0  0  0  0
  -27.9630  -16.3240   19.0730 O   0  0  0  0  0  0  0  0  0  0  0  0
  -29.7050  -16.8690   20.6110 C   0  0  0  0  0  2  0  0  0  0  0  0
  -30.6310  -15.7850   19.9880 C   0  0  0  0  0  2  0  0  0  0  0  0
  -31.2190  -14.6260   20.8390 C   0  0  0  0  0  0  0  0  0  0  0  0
  -30.9670  -12.3760   19.9650 C   0  0  0  0  0  2  0  0  0  0  0  0
  -30.1410  -12.5090   18.6670 C   0  0  0  0  0  2  0  0  0  0  0  0
  -28.6260  -12.4660   18.9720 C   0  0  0  0  0  2  0  0  0  0  0  0
  -28.2020  -13.3800   20.1530 C   0  0  0  0  0  3  0  0  0  0  0  0
  -29.1690  -13.2660   21.3490 C   0  0  0  0  0  2  0  0  0  0  0  0
  -30.5450  -13.4470   20.8740 N   0  0  0  0  0  0  0  0  0  0  0  0
  -32.4410  -14.6780   20.9560 O   0  0  0  0  0  0  0  0  0  0  0  0
  -25.7890  -14.0870   20.6980 C   0  0  0  0  0  0  0  0  0  0  0  0
  -24.6630  -13.3620   20.9680 C   0  0  0  0  0  0  0  0  0  0  0  0
  -25.0680  -11.9930   20.9550 C   0  0  0  0  0  0  0  0  0  0  0  0
  -26.8110  -13.1640   20.5370 N   0  0  0  0  0  0  0  0  0  0  0  0
  -26.3760  -11.8990   20.7570 N   0  0  0  0  0  0  0  0  0  0  0  0
  -24.2770  -10.7630   21.0630 C   0  0  0  0  0  0  0  0  0  0  0  0
  -24.6210   -9.7440   21.9780 C   0  0  0  0  0  3  0  0  0  0  0  0
  -23.8310   -8.5780   22.0780 C   0  0  0  0  0  3  0  0  0  0  0  0
  -22.6860   -8.4240   21.2610 C   0  0  0  0  0  0  0  0  0  0  0  0
  -22.3640   -9.4310   20.3330 C   0  0  0  0  0  3  0  0  0  0  0  0
  -23.1530  -10.5880   20.2310 C   0  0  0  0  0  3  0  0  0  0  0  0
  -21.8760   -7.3130   21.2710 O   0  0  0  0  0  0  0  0  0  0  0  0
  -21.7550   -6.5250   22.3860 C   0  0  0  0  0  0  0  0  0  0  0  0
  -21.2950   -7.0410   23.6180 C   0  0  0  0  0  3  0  0  0  0  0  0
  -21.1180   -6.1800   24.7210 C   0  0  0  0  0  3  0  0  0  0  0  0
  -21.3930   -4.8060   24.5910 C   0  0  0  0  0  0  0  0  0  0  0  0
  -21.8470   -4.2890   23.3640 C   0  0  0  0  0  3  0  0  0  0  0  0
  -22.0240   -5.1470   22.2640 C   0  0  0  0  0  0  0  0  0  0  0  0
  -22.4410   -4.6420   21.0790 F   0  0  0  0  0  0  0  0  0  0  0  0
  -21.2150   -3.9760   25.6460 F   0  0  0  0  0  0  0  0  0  0  0  0
  -23.2710  -13.8980   21.1260 C   0  0  0  0  0  0  0  0  0  0  0  0
  -22.4500  -13.2350   21.9330 N   0  0  0  0  0  0  0  0  0  0  0  0
  -22.9180  -14.9370   20.5670 O   0  0  0  0  0  0  0  0  0  0  0  0
  -22.7500  -12.3930   22.4010 H   0  0  0  0  0  0  0  0  0  0  0  0
  -21.5100  -13.5730   22.0870 H   0  0  0  0  0  0  0  0  0  0  0  0
  -26.0100  -15.4500   20.5430 N   0  0  0  0  0  0  0  0  0  0  0  0
  -25.2080  -16.0670   20.4710 H   0  0  0  0  0  0  0  0  0  0  0  0
  -26.8020  -15.7740   19.9930 H   0  0  0  0  0  0  0  0  0  0  0  0
  -28.8360  -23.1240   20.5230 N   0  0  0  0  0  4  0  0  0  0  0  0
  -29.6390  -22.7760   21.0220 H   0  0  0  0  0  0  0  0  0  0  0  0
  -29.0600  -23.0620   19.5430 H   0  0  0  0  0  0  0  0  0  0  0  0
  -28.6010  -24.5520   20.8690 C   0  0  0  0  0  2  0  0  0  0  0  0
  -28.8330  -25.4850   19.6610 C   0  0  0  0  0  2  0  0  0  0  0  0
  -28.6880  -26.8540   20.0470 O   0  0  0  0  0  0  0  0  0  0  0  0
  -24.6600  -31.7690   23.2040 C   0  0  0  0  0  0  0  0  0  0  0  0
  -27.4520  -27.4740   20.0520 C   0  0  0  0  0  0  0  0  0  0  0  0
  -23.5090  -30.3920   21.5000 C   0  0  0  0  0  3  0  0  0  0  0  0
  -25.0160  -28.9170   20.0690 C   0  0  0  0  0  0  0  0  0  0  0  0
  -26.0290  -30.8040   21.3610 C   0  0  0  0  0  2  0  0  0  0  0  0
  -26.1510  -29.4530   20.6890 C   0  0  0  0  0  0  0  0  0  0  0  0
  -27.3660  -28.7380   20.6770 C   0  0  0  0  0  3  0  0  0  0  0  0
  -26.2890  -26.9380   19.4470 C   0  0  0  0  0  3  0  0  0  0  0  0
  -25.0790  -27.6560   19.4500 C   0  0  0  0  0  3  0  0  0  0  0  0
  -23.7550  -29.7490   20.1090 C   0  0  0  0  0  2  0  0  0  0  0  0
  -24.7480  -31.0050   22.0780 N   0  0  0  0  0  0  0  0  0  0  0  0
  -23.5640  -32.0090   23.7280 O   0  0  0  0  0  0  0  0  0  0  0  0
  -22.8590  -29.3360   22.4190 C   0  0  0  0  0  0  0  0  0  0  0  0
  -21.5320  -29.1660   22.2890 N   0  0  0  0  0  0  0  0  0  0  0  0
  -23.5440  -28.6720   23.2030 O   0  0  0  0  0  0  0  0  0  0  0  0
  -21.0460  -29.7490   21.6210 H   0  0  0  0  0  0  0  0  0  0  0  0
  -18.1440  -28.0210   22.7900 C   0  0  0  0  0  0  0  0  0  0  0  0
  -20.7120  -28.2030   23.0180 C   0  0  0  0  0  3  0  0  0  0  0  0
  -20.7720  -26.8090   22.3530 C   0  0  0  0  0  2  0  0  0  0  0  0
  -19.6410  -26.5750   21.3480 C   0  0  0  0  0  2  0  0  0  0  0  0
  -18.2750  -26.7120   22.0300 C   0  0  0  0  0  2  0  0  0  0  0  0
  -19.2890  -28.7300   23.2400 C   0  0  0  0  0  0  0  0  0  0  0  0
  -19.1140  -29.9630   23.9070 C   0  0  0  0  0  3  0  0  0  0  0  0
  -17.8260  -30.4830   24.1320 C   0  0  0  0  0  3  0  0  0  0  0  0
  -16.6950  -29.7670   23.6990 C   0  0  0  0  0  3  0  0  0  0  0  0
  -16.8560  -28.5390   23.0350 C   0  0  0  0  0  3  0  0  0  0  0  0
  -25.9240  -32.4020   23.8660 C   0  0  0  0  0  3  0  0  0  0  0  0
  -25.5980  -33.7960   24.1940 N   0  0  0  0  0  0  0  0  0  0  0  0
  -25.9600  -34.8540   23.4570 C   0  0  0  0  0  0  0  0  0  0  0  0
  -26.6730  -34.7610   22.4540 O   0  0  0  0  0  0  0  0  0  0  0  0
  -24.9700  -33.9440   24.9710 H   0  0  0  0  0  0  0  0  0  0  0  0
  -24.2440  -36.6430   23.0400 C   0  0  0  0  0  1  0  0  0  0  0  0
  -25.4500  -36.2370   23.9020 C   0  0  0  0  0  3  0  0  0  0  0  0
  -27.5390  -37.1220   24.8400 C   0  0  0  0  0  1  0  0  0  0  0  0
  -26.4840  -37.2920   23.8440 N   0  0  0  0  0  0  0  0  0  0  0  0
  -26.0690  -38.2100   23.9760 H   0  0  0  0  0  0  0  0  0  0  0  0
  -26.4100  -31.6230   25.1500 C   0  0  1  0  0  0  0  0  0  0  0  0
  -25.2880  -31.3680   26.1830 C   0  0  0  0  0  1  0  0  0  0  0  0
  -27.0110  -30.2520   24.7600 C   0  0  0  0  0  1  0  0  0  0  0  0
  -27.5380  -32.4180   25.8510 C   0  0  0  0  0  1  0  0  0  0  0  0
  2  1  1  0
  3  6  1  0
  5  8  2  0
  6 10  1  0
  6  4  2  0
  7  3  2  0
  7  5  1  0
  8  4  1  0
  8  2  1  0
  9  7  1  0
 10 12  1  0
 11 10  2  0
 13 12  1  0
 13 14  1  0
 14 20  1  0
 14 21  2  0
 15 20  1  0
 16 17  1  0
 16 15  1  0
 18 17  1  0
 18 25  1  0
 18 19  1  0
 20 19  1  0
 22 23  2  0
 23 42  1  0
 24 23  1  0
 24 27  1  0
 25 22  1  0
 25 26  1  0
 26 24  2  0
 27 28  1  0
 28 29  2  0
 30 33  1  0
 30 29  1  0
 31 30  2  0
 32 31  1  0
 32 27  2  0
 33 34  1  0
 34 35  1  0
 35 36  2  0
 37 36  1  0
 37 41  1  0
 38 37  2  0
 39 34  2  0
 39 38  1  0
 40 39  1  0
 42 43  1  0
 43 46  1  0
 43 45  1  0
 44 42  2  0
 47 22  1  0
 48 47  1  0
 49 47  1  0
 50  2  1  0
 50 53  1  0
 50 51  1  0
 52 50  1  0
 54 55  1  0
 54 53  1  0
 55 57  1  0
 56 67  2  0
 57 62  1  0
 58 66  1  0
 58 68  1  0
 59 65  1  0
 59 61  1  0
 60 66  1  0
 61 60  1  0
 62 61  2  0
 63 64  1  0
 63 57  2  0
 64 59  2  0
 65 58  1  0
 66 56  1  0
 68 70  2  0
 69 68  1  0
 71 69  1  0
 72 81  2  0
 72 77  1  0
 73 69  1  0
 73 77  1  0
 74 73  1  0
 75 76  1  0
 75 74  1  0
 76 72  1  0
 77 78  2  0
 78 79  1  0
 80 79  2  0
 81 80  1  0
 82 56  1  0
 82 83  1  0
 82 92  1  0
 83 86  1  0
 84 88  1  0
 84 83  1  0
 85 84  2  0
 88 87  1  0
 90 88  1  0
 90 91  1  0
 90 89  1  0
 92 95  1  1
 92 93  1  0
 94 92  1  0
M  ISO  4  13 100  14 100  54 101  55 101
M  END
>  <TORSDO>  (64) 
F 23

>  <SCORE>  (64) 
-10.537

>  <name>  (64) 
64

>  <ligand_id>  (64) 
64

>  <original_smiles>  (64) 
[H]c1c([H])c([H])c2c(c1[H])C([H])([H])C([H])([H])C([H])([H])C2([H])N([H])C(=O)C1([H])N(C(=O)C([H])(N([H])C(=O)C([H])(N([H])C([H])([H])[H])C([H])([H])[H])C(C([H])([H])[H])(C([H])([H])[H])C([H])([H])[H])C([H])([H])c2c([H])c(OC([H])([H])C([H])([H])[N+]([H])([H])C([H])(c3c([H])c(C(=O)C([H])([H])C([H])([H])C(=O)N4C([H])([H])C([H])([H])C([H])([H])C([H])(n5nc(-c6c([H])c([H])c(Oc7c([H])c([H])c(F)c([H])c7F)c([H])c6[H])c(C(=O)N([H])[H])c5N([H])[H])C4([H])[H])c([H])c(C([H])([H])[H])c3[H])C([H])([H])[H])c([H])c([H])c2C1([H])[H]

>  <smiles>  (64) 
[H]c1c([H])c([H])c2c(c1[H])C([H])([H])C([H])([H])C([H])([H])C2([H])N([H])C(=O)C1([H])N(C(=O)C([H])(N([H])C(=O)C([H])(N([H])C([H])([H])[H])C([H])([H])[H])C(C([H])([H])[H])(C([H])([H])[H])C([H])([H])[H])C([H])([H])c2c([H])c(OC([H])([H])C([H])([H])[N+]([H])([H])C([H])(c3c([H])c(C(=O)C([H])([H])C([H])([H])C(=O)N4C([H])([H])C([H])([H])C([H])([H])C([H])(n5nc(-c6c([H])c([H])c(Oc7c([H])c([H])c(F)c([H])c7F)c([H])c6[H])c(C(=O)N([H])[H])c5N([H])[H])C4([H])[H])c([H])c(C([H])([H])[H])c3[H])C([H])([H])[H])c([H])c([H])c2C1([H])[H]

$$$$
65:0:0
     RDKit          3D

 94102  0  0  1  0  0  0  0  0999 V2000
  -30.6420  -18.7280   21.3560 C   0  0  0  0  0  3  0  0  0  0  0  0
  -30.4200  -20.0470   20.9000 C   0  0  0  0  0  3  0  0  0  0  0  0
  -28.8510  -17.9380   19.9340 C   0  0  0  0  0  3  0  0  0  0  0  0
  -29.9000  -17.6480   20.8290 C   0  0  0  0  0  0  0  0  0  0  0  0
  -29.4560  -20.3240   19.8980 C   0  0  0  0  0  0  0  0  0  0  0  0
  -28.6330  -19.2510   19.4530 C   0  0  0  0  0  0  0  0  0  0  0  0
  -27.5550  -19.4380   18.4000 C   0  0  0  0  0  1  0  0  0  0  0  0
  -29.4970  -21.6950   19.1930 C   0  0  0  0  0  3  0  0  0  0  0  0
  -28.3640  -22.7350   19.4680 C   0  0  0  0  0  3  0  0  0  0  0  0
  -29.4890  -24.1620   17.5780 C   0  0  0  0  0  1  0  0  0  0  0  0
  -28.4730  -24.1240   18.7380 C   0  0  0  0  0  3  0  0  0  0  0  0
  -28.6630  -25.3200   19.7160 C   0  0  0  0  0  2  0  0  0  0  0  0
  -28.5680  -26.6450   19.1580 O   0  0  0  0  0  0  0  0  0  0  0  0
  -24.7150  -31.2310   23.0580 C   0  0  0  0  0  0  0  0  0  0  0  0
  -27.3830  -27.3260   19.3360 C   0  0  0  0  0  0  0  0  0  0  0  0
  -23.5080  -30.0710   21.2360 C   0  0  0  0  0  3  0  0  0  0  0  0
  -24.9700  -28.7780   19.5950 C   0  0  0  0  0  0  0  0  0  0  0  0
  -26.0320  -30.4880   21.0800 C   0  0  0  0  0  2  0  0  0  0  0  0
  -26.1280  -29.2270   20.2450 C   0  0  0  0  0  0  0  0  0  0  0  0
  -27.3400  -28.5070   20.1160 C   0  0  0  0  0  3  0  0  0  0  0  0
  -26.2110  -26.8970   18.6810 C   0  0  0  0  0  3  0  0  0  0  0  0
  -25.0040  -27.6060   18.8200 C   0  0  0  0  0  3  0  0  0  0  0  0
  -23.7160  -29.6040   19.7710 C   0  0  0  0  0  2  0  0  0  0  0  0
  -24.7680  -30.6070   21.8480 N   0  0  0  0  0  0  0  0  0  0  0  0
  -23.6360  -31.4070   23.6400 O   0  0  0  0  0  0  0  0  0  0  0  0
  -22.8800  -28.9100   22.0430 C   0  0  0  0  0  0  0  0  0  0  0  0
  -21.5560  -28.7430   21.9180 N   0  0  0  0  0  0  0  0  0  0  0  0
  -23.5830  -28.1710   22.7390 O   0  0  0  0  0  0  0  0  0  0  0  0
  -21.0500  -29.3800   21.3200 H   0  0  0  0  0  0  0  0  0  0  0  0
  -18.2030  -27.4420   22.2420 C   0  0  0  0  0  0  0  0  0  0  0  0
  -20.7540  -27.6990   22.5540 C   0  0  0  0  0  3  0  0  0  0  0  0
  -20.8800  -26.3650   21.7860 C   0  0  0  0  0  2  0  0  0  0  0  0
  -19.7850  -26.1660   20.7340 C   0  0  0  0  0  2  0  0  0  0  0  0
  -18.4000  -26.1990   21.3870 C   0  0  0  0  0  2  0  0  0  0  0  0
  -19.3070  -28.1550   22.7770 C   0  0  0  0  0  0  0  0  0  0  0  0
  -19.0730  -29.3220   23.5370 C   0  0  0  0  0  3  0  0  0  0  0  0
  -17.7600  -29.7760   23.7670 C   0  0  0  0  0  3  0  0  0  0  0  0
  -16.6670  -29.0600   23.2490 C   0  0  0  0  0  3  0  0  0  0  0  0
  -16.8890  -27.8940   22.4920 C   0  0  0  0  0  3  0  0  0  0  0  0
  -26.0000  -31.7810   23.7530 C   0  0  0  0  0  3  0  0  0  0  0  0
  -25.7080  -33.1480   24.2060 N   0  0  0  0  0  0  0  0  0  0  0  0
  -26.0960  -34.2600   23.5630 C   0  0  0  0  0  0  0  0  0  0  0  0
  -26.8050  -34.2400   22.5540 O   0  0  0  0  0  0  0  0  0  0  0  0
  -25.0800  -33.2400   24.9910 H   0  0  0  0  0  0  0  0  0  0  0  0
  -24.4200  -36.1180   23.3130 C   0  0  0  0  0  1  0  0  0  0  0  0
  -25.6160  -35.6090   24.1320 C   0  0  0  0  0  3  0  0  0  0  0  0
  -27.7240  -36.3610   25.1410 C   0  0  0  0  0  1  0  0  0  0  0  0
  -26.6740  -36.6430   24.1660 N   0  0  0  0  0  0  0  0  0  0  0  0
  -26.2780  -37.5550   24.3770 H   0  0  0  0  0  0  0  0  0  0  0  0
  -26.4890  -30.8870   24.9580 C   0  0  1  0  0  0  0  0  0  0  0  0
  -25.3840  -30.5980   25.9990 C   0  0  0  0  0  1  0  0  0  0  0  0
  -27.0250  -29.5280   24.4510 C   0  0  0  0  0  1  0  0  0  0  0  0
  -27.6650  -31.5810   25.6870 C   0  0  0  0  0  1  0  0  0  0  0  0
  -30.2940  -16.1870   21.1150 C   0  0  0  0  0  3  0  0  0  0  0  0
  -31.5740  -14.5160   19.5500 C   0  0  0  0  0  0  0  0  0  0  0  0
  -31.0150  -12.3780   18.4620 C   0  0  0  0  0  2  0  0  0  0  0  0
  -29.9550  -12.5980   17.3670 C   0  0  0  0  0  2  0  0  0  0  0  0
  -28.5390  -12.5040   17.9670 C   0  0  0  0  0  2  0  0  0  0  0  0
  -28.3780  -13.3630   19.2480 C   0  0  0  0  0  3  0  0  0  0  0  0
  -29.5470  -13.1160   20.2260 C   0  0  0  0  0  2  0  0  0  0  0  0
  -30.7940  -13.3970   19.5060 N   0  0  0  0  0  0  0  0  0  0  0  0
  -32.6230  -14.5900   18.9130 O   0  0  0  0  0  0  0  0  0  0  0  0
  -31.0890  -15.6960   19.9870 N   0  0  0  0  0  0  0  0  0  0  0  0
  -31.6480  -16.4450   19.6120 H   0  0  0  0  0  0  0  0  0  0  0  0
  -26.1280  -14.0590   20.2830 C   0  0  0  0  0  0  0  0  0  0  0  0
  -25.0720  -13.3290   20.7510 C   0  0  0  0  0  0  0  0  0  0  0  0
  -25.4420  -11.9560   20.5990 C   0  0  0  0  0  0  0  0  0  0  0  0
  -27.0810  -13.1360   19.8810 N   0  0  0  0  0  0  0  0  0  0  0  0
  -26.6760  -11.8620   20.1220 N   0  0  0  0  0  0  0  0  0  0  0  0
  -24.6690  -10.7290   20.8260 C   0  0  0  0  0  0  0  0  0  0  0  0
  -25.0020   -9.8310   21.8660 C   0  0  0  0  0  3  0  0  0  0  0  0
  -24.2360   -8.6660   22.0800 C   0  0  0  0  0  3  0  0  0  0  0  0
  -23.1210   -8.3880   21.2520 C   0  0  0  0  0  0  0  0  0  0  0  0
  -22.8060   -9.2730   20.2060 C   0  0  0  0  0  3  0  0  0  0  0  0
  -23.5730  -10.4310   19.9920 C   0  0  0  0  0  3  0  0  0  0  0  0
  -22.3360   -7.2680   21.3680 O   0  0  0  0  0  0  0  0  0  0  0  0
  -21.9140   -6.8070   22.5910 C   0  0  0  0  0  0  0  0  0  0  0  0
  -21.1440   -7.6060   23.4610 C   0  0  0  0  0  3  0  0  0  0  0  0
  -20.6670   -7.0670   24.6730 C   0  0  0  0  0  3  0  0  0  0  0  0
  -20.9600   -5.7330   25.0150 C   0  0  0  0  0  0  0  0  0  0  0  0
  -21.7280   -4.9370   24.1490 C   0  0  0  0  0  3  0  0  0  0  0  0
  -22.2010   -5.4720   22.9370 C   0  0  0  0  0  0  0  0  0  0  0  0
  -22.9210   -4.6910   22.0950 F   0  0  0  0  0  0  0  0  0  0  0  0
  -20.4980   -5.2150   26.1770 F   0  0  0  0  0  0  0  0  0  0  0  0
  -23.7520  -13.8650   21.2280 C   0  0  0  0  0  0  0  0  0  0  0  0
  -23.1240  -13.1890   22.1830 N   0  0  0  0  0  0  0  0  0  0  0  0
  -23.2910  -14.9150   20.7820 O   0  0  0  0  0  0  0  0  0  0  0  0
  -23.5130  -12.3370   22.5590 H   0  0  0  0  0  0  0  0  0  0  0  0
  -22.2440  -13.5290   22.5440 H   0  0  0  0  0  0  0  0  0  0  0  0
  -26.3510  -15.4260   20.1460 N   0  0  0  0  0  0  0  0  0  0  0  0
  -25.6360  -16.1080   20.3700 H   0  0  0  0  0  0  0  0  0  0  0  0
  -27.1480  -15.8230   19.6680 H   0  0  0  0  0  0  0  0  0  0  0  0
  -30.3650  -16.8450   23.5850 C   0  0  0  0  0  1  0  0  0  0  0  0
  -31.0290  -16.0290   22.4660 C   0  0  0  0  0  2  0  0  0  0  0  0
  2  1  1  0
  3  4  1  0
  4 54  1  0
  4  1  2  0
  5  2  2  0
  6  5  1  0
  6  3  2  0
  7  6  1  0
  8  9  2  0
  8  5  1  0
 11 10  1  0
 11  9  1  0
 11 12  1  0
 13 15  1  0
 13 12  1  0
 14 25  2  0
 15 20  1  0
 16 24  1  0
 16 26  1  0
 17 23  1  0
 17 19  1  0
 18 24  1  0
 19 18  1  0
 20 19  2  0
 21 22  1  0
 21 15  2  0
 22 17  2  0
 23 16  1  0
 24 14  1  0
 26 28  2  0
 27 26  1  0
 29 27  1  0
 30 39  2  0
 30 35  1  0
 31 27  1  0
 31 35  1  0
 32 31  1  0
 33 34  1  0
 33 32  1  0
 34 30  1  0
 35 36  2  0
 36 37  1  0
 38 37  2  0
 39 38  1  0
 40 14  1  0
 40 41  1  0
 40 50  1  0
 41 44  1  0
 42 46  1  0
 42 41  1  0
 43 42  2  0
 46 45  1  0
 46 48  1  0
 48 49  1  0
 48 47  1  0
 50 53  1  1
 50 51  1  0
 52 50  1  0
 54 94  1  0
 55 63  1  0
 56 61  1  0
 57 58  1  0
 57 56  1  0
 59 58  1  0
 59 68  1  0
 59 60  1  0
 61 55  1  0
 61 60  1  0
 62 55  2  0
 63 54  1  0
 64 63  1  0
 65 66  2  0
 66 85  1  0
 67 66  1  0
 67 70  1  0
 68 69  1  0
 68 65  1  0
 69 67  2  0
 70 71  1  0
 71 72  2  0
 73 76  1  0
 73 72  1  0
 74 73  2  0
 75 74  1  0
 75 70  2  0
 76 77  1  0
 77 82  2  0
 77 78  1  0
 78 79  2  0
 79 80  1  0
 80 84  1  0
 81 80  2  0
 82 81  1  0
 83 82  1  0
 85 86  1  0
 86 89  1  0
 86 88  1  0
 87 85  2  0
 90 65  1  0
 90 91  1  0
 92 90  1  0
 94 93  1  0
M  ISO  4  12 101  13 101  55 100  63 100
M  END
>  <TORSDO>  (65) 
F 22

>  <SCORE>  (65) 
-8.523

>  <name>  (65) 
65

>  <ligand_id>  (65) 
65

>  <original_smiles>  (65) 
[H]c1c([H])c([H])c2c(c1[H])C([H])([H])C([H])([H])C([H])([H])C2([H])N([H])C(=O)C1([H])N(C(=O)C([H])(N([H])C(=O)C([H])(N([H])C([H])([H])[H])C([H])([H])[H])C(C([H])([H])[H])(C([H])([H])[H])C([H])([H])[H])C([H])([H])c2c([H])c(OC([H])([H])C([H])(C([H])([H])[H])C([H])([H])C([H])([H])c3c([H])c([H])c(C([H])(N([H])C(=O)N4C([H])([H])C([H])([H])C([H])([H])C([H])(n5nc(-c6c([H])c([H])c(Oc7c([H])c([H])c(F)c([H])c7F)c([H])c6[H])c(C(=O)N([H])[H])c5N([H])[H])C4([H])[H])C([H])([H])C([H])([H])[H])c([H])c3C([H])([H])[H])c([H])c([H])c2C1([H])[H]

>  <smiles>  (65) 
[H]c1c([H])c([H])c2c(c1[H])C([H])([H])C([H])([H])C([H])([H])C2([H])N([H])C(=O)C1([H])N(C(=O)C([H])(N([H])C(=O)C([H])(N([H])C([H])([H])[H])C([H])([H])[H])C(C([H])([H])[H])(C([H])([H])[H])C([H])([H])[H])C([H])([H])c2c([H])c(OC([H])([H])C([H])(C([H])([H])[H])C([H])([H])C([H])([H])c3c([H])c([H])c(C([H])(N([H])C(=O)N4C([H])([H])C([H])([H])C([H])([H])C([H])(n5nc(-c6c([H])c([H])c(Oc7c([H])c([H])c(F)c([H])c7F)c([H])c6[H])c(C(=O)N([H])[H])c5N([H])[H])C4([H])[H])C([H])([H])C([H])([H])[H])c([H])c3C([H])([H])[H])c([H])c([H])c2C1([H])[H]

$$$$
66:0:0
     RDKit          3D

 96105  0  0  1  0  0  0  0  0999 V2000
  -27.7000  -23.4590   21.4950 C   0  0  0  0  0  3  0  0  0  0  0  0
  -29.9370  -23.6600   20.5740 C   0  0  0  0  0  3  0  0  0  0  0  0
  -27.6490  -22.1160   21.0800 C   0  0  0  0  0  3  0  0  0  0  0  0
  -29.8860  -22.3080   20.1640 C   0  0  0  0  0  3  0  0  0  0  0  0
  -28.8550  -24.2460   21.2790 C   0  0  0  0  0  0  0  0  0  0  0  0
  -28.7480  -21.5150   20.4360 C   0  0  0  0  0  0  0  0  0  0  0  0
  -31.0810  -26.8290   21.8200 C   0  0  0  0  0  0  0  0  0  0  0  0
  -30.1880  -25.9430   22.6770 C   0  0  0  0  0  0  0  0  0  0  0  0
  -30.3320  -27.1850   20.5430 C   0  0  0  0  0  2  0  0  0  0  0  0
  -28.9020  -25.6600   21.8950 C   0  0  0  0  0  3  0  0  0  0  0  0
  -28.8830  -26.8740   20.9270 C   0  0  0  0  0  3  0  0  0  0  0  0
  -32.2150  -27.2160   22.1230 O   0  0  0  0  0  0  0  0  0  0  0  0
  -30.4270  -25.5950   23.8390 O   0  0  0  0  0  0  0  0  0  0  0  0
  -27.9960  -26.8220   19.7950 O   0  0  0  0  0  0  0  0  0  0  0  0
  -24.4720  -31.9680   23.2000 C   0  0  0  0  0  0  0  0  0  0  0  0
  -26.8700  -27.6220   19.8660 C   0  0  0  0  0  0  0  0  0  0  0  0
  -23.1360  -30.6240   21.6030 C   0  0  0  0  0  3  0  0  0  0  0  0
  -24.4790  -29.1270   20.0410 C   0  0  0  0  0  0  0  0  0  0  0  0
  -25.6390  -30.9990   21.2260 C   0  0  0  0  0  2  0  0  0  0  0  0
  -25.6710  -29.6470   20.5510 C   0  0  0  0  0  0  0  0  0  0  0  0
  -26.8660  -28.9150   20.4450 C   0  0  0  0  0  3  0  0  0  0  0  0
  -25.6640  -27.1140   19.3450 C   0  0  0  0  0  3  0  0  0  0  0  0
  -24.4680  -27.8590   19.4290 C   0  0  0  0  0  3  0  0  0  0  0  0
  -23.2480  -29.9900   20.1910 C   0  0  0  0  0  2  0  0  0  0  0  0
  -24.4370  -31.2100   22.0670 N   0  0  0  0  0  0  0  0  0  0  0  0
  -23.4330  -32.2190   23.8270 O   0  0  0  0  0  0  0  0  0  0  0  0
  -22.5520  -29.5760   22.5810 C   0  0  0  0  0  0  0  0  0  0  0  0
  -21.2330  -29.3440   22.4900 N   0  0  0  0  0  0  0  0  0  0  0  0
  -23.2820  -28.9750   23.3730 O   0  0  0  0  0  0  0  0  0  0  0  0
  -20.6980  -29.8920   21.8290 H   0  0  0  0  0  0  0  0  0  0  0  0
  -17.9400  -27.9430   22.9660 C   0  0  0  0  0  0  0  0  0  0  0  0
  -20.4710  -28.3760   23.2760 C   0  0  0  0  0  3  0  0  0  0  0  0
  -20.6810  -26.9390   22.7430 C   0  0  0  0  0  2  0  0  0  0  0  0
  -19.6210  -26.5120   21.7260 C   0  0  0  0  0  2  0  0  0  0  0  0
  -18.2170  -26.5890   22.3350 C   0  0  0  0  0  2  0  0  0  0  0  0
  -18.9970  -28.7890   23.3930 C   0  0  0  0  0  0  0  0  0  0  0  0
  -18.6890  -30.0550   23.9370 C   0  0  0  0  0  3  0  0  0  0  0  0
  -17.3520  -30.4730   24.0660 C   0  0  0  0  0  3  0  0  0  0  0  0
  -16.3090  -29.6230   23.6620 C   0  0  0  0  0  3  0  0  0  0  0  0
  -16.6010  -28.3600   23.1170 C   0  0  0  0  0  3  0  0  0  0  0  0
  -25.8030  -32.5760   23.7450 C   0  0  0  0  0  3  0  0  0  0  0  0
  -25.5380  -33.9760   24.1000 N   0  0  0  0  0  0  0  0  0  0  0  0
  -25.8640  -35.0270   23.3340 C   0  0  0  0  0  0  0  0  0  0  0  0
  -26.4850  -34.9160   22.2750 O   0  0  0  0  0  0  0  0  0  0  0  0
  -24.9890  -34.1390   24.9300 H   0  0  0  0  0  0  0  0  0  0  0  0
  -24.1560  -36.8560   23.0700 C   0  0  0  0  0  1  0  0  0  0  0  0
  -25.4250  -36.4220   23.8210 C   0  0  0  0  0  3  0  0  0  0  0  0
  -27.6140  -37.2520   24.5610 C   0  0  0  0  0  1  0  0  0  0  0  0
  -26.4730  -37.4560   23.6710 N   0  0  0  0  0  0  0  0  0  0  0  0
  -26.0920  -38.3820   23.8510 H   0  0  0  0  0  0  0  0  0  0  0  0
  -26.3830  -31.7900   24.9860 C   0  0  1  0  0  0  0  0  0  0  0  0
  -25.3440  -31.5420   26.1030 C   0  0  0  0  0  1  0  0  0  0  0  0
  -26.9420  -30.4180   24.5440 C   0  0  0  0  0  1  0  0  0  0  0  0
  -27.5710  -32.5700   25.5980 C   0  0  0  0  0  1  0  0  0  0  0  0
  -28.6750  -20.0430   20.0120 C   0  0  0  0  0  2  0  0  0  0  0  0
  -29.7920  -19.1530   20.6000 C   0  0  0  0  0  2  0  0  0  0  0  0
  -29.7640  -17.6620   20.1640 C   0  0  0  0  0  2  0  0  0  0  0  0
  -30.9520  -16.8830   20.7760 C   0  0  0  0  0  2  0  0  0  0  0  0
  -31.0900  -14.5750   19.8520 C   0  0  0  0  0  0  0  0  0  0  0  0
  -30.6380  -12.4150   18.7060 C   0  0  0  0  0  2  0  0  0  0  0  0
  -29.5910  -12.5490   17.5810 C   0  0  0  0  0  2  0  0  0  0  0  0
  -28.1600  -12.4360   18.1360 C   0  0  0  0  0  2  0  0  0  0  0  0
  -27.9290  -13.3420   19.3690 C   0  0  0  0  0  3  0  0  0  0  0  0
  -29.0620  -13.1480   20.3960 C   0  0  0  0  0  2  0  0  0  0  0  0
  -30.3550  -13.4260   19.7420 N   0  0  0  0  0  0  0  0  0  0  0  0
  -31.9890  -14.8580   19.0480 O   0  0  0  0  0  0  0  0  0  0  0  0
  -30.9010  -14.9470   22.2480 C   0  0  0  0  0  1  0  0  0  0  0  0
  -30.7610  -15.4170   20.8620 N   0  0  0  0  0  0  0  0  0  0  0  0
  -25.6280  -14.0100   20.3220 C   0  0  0  0  0  0  0  0  0  0  0  0
  -24.5690  -13.2650   20.7630 C   0  0  0  0  0  0  0  0  0  0  0  0
  -24.9730  -11.8980   20.6440 C   0  0  0  0  0  0  0  0  0  0  0  0
  -26.6150  -13.1040   19.9660 N   0  0  0  0  0  0  0  0  0  0  0  0
  -26.2250  -11.8250   20.2130 N   0  0  0  0  0  0  0  0  0  0  0  0
  -24.2190  -10.6560   20.8540 C   0  0  0  0  0  0  0  0  0  0  0  0
  -24.6530   -9.6770   21.7740 C   0  0  0  0  0  3  0  0  0  0  0  0
  -23.9010   -8.4990   21.9740 C   0  0  0  0  0  3  0  0  0  0  0  0
  -22.7000   -8.2910   21.2520 C   0  0  0  0  0  0  0  0  0  0  0  0
  -22.2860   -9.2600   20.3210 C   0  0  0  0  0  3  0  0  0  0  0  0
  -23.0400  -10.4290   20.1190 C   0  0  0  0  0  3  0  0  0  0  0  0
  -21.9180   -7.1670   21.3620 O   0  0  0  0  0  0  0  0  0  0  0  0
  -21.8070   -6.4810   22.5460 C   0  0  0  0  0  0  0  0  0  0  0  0
  -21.3530   -7.1030   23.7280 C   0  0  0  0  0  3  0  0  0  0  0  0
  -21.1870   -6.3440   24.9030 C   0  0  0  0  0  3  0  0  0  0  0  0
  -21.4630   -4.9640   24.8970 C   0  0  0  0  0  0  0  0  0  0  0  0
  -21.9100   -4.3420   23.7190 C   0  0  0  0  0  3  0  0  0  0  0  0
  -22.0790   -5.0980   22.5450 C   0  0  0  0  0  0  0  0  0  0  0  0
  -22.4890   -4.4880   21.4070 F   0  0  0  0  0  0  0  0  0  0  0  0
  -21.2980   -4.2320   26.0240 F   0  0  0  0  0  0  0  0  0  0  0  0
  -23.2210  -13.7800   21.1800 C   0  0  0  0  0  0  0  0  0  0  0  0
  -22.5510  -13.0850   22.0910 N   0  0  0  0  0  0  0  0  0  0  0  0
  -22.7740  -14.8380   20.7350 O   0  0  0  0  0  0  0  0  0  0  0  0
  -22.9220  -12.2260   22.4720 H   0  0  0  0  0  0  0  0  0  0  0  0
  -21.6540  -13.4170   22.4160 H   0  0  0  0  0  0  0  0  0  0  0  0
  -25.8240  -15.3810   20.1780 N   0  0  0  0  0  0  0  0  0  0  0  0
  -25.1010  -16.0530   20.4140 H   0  0  0  0  0  0  0  0  0  0  0  0
  -26.6500  -15.8130   19.7860 H   0  0  0  0  0  0  0  0  0  0  0  0
  2  5  2  0
  3  1  2  0
  4  6  2  0
  4  2  1  0
  5  1  1  0
  6  3  1  0
  7 12  2  0
  7  8  1  0
  8 13  2  0
  9 11  1  0
  9  7  1  0
 10  5  1  0
 10  8  1  0
 11 14  1  0
 11 10  1  0
 14 16  1  0
 15 26  2  0
 16 21  1  0
 17 25  1  0
 17 27  1  0
 18 24  1  0
 18 20  1  0
 19 25  1  0
 20 19  1  0
 21 20  2  0
 22 23  1  0
 22 16  2  0
 23 18  2  0
 24 17  1  0
 25 15  1  0
 27 29  2  0
 28 27  1  0
 30 28  1  0
 31 40  2  0
 31 36  1  0
 32 28  1  0
 32 36  1  0
 33 32  1  0
 34 35  1  0
 34 33  1  0
 35 31  1  0
 36 37  2  0
 37 38  1  0
 39 38  2  0
 40 39  1  0
 41 15  1  0
 41 42  1  0
 41 51  1  0
 42 45  1  0
 43 47  1  0
 43 42  1  0
 44 43  2  0
 47 46  1  0
 49 47  1  0
 49 50  1  0
 49 48  1  0
 51 54  1  1
 51 52  1  0
 53 51  1  0
 55  6  1  0
 55 56  1  0
 57 56  1  0
 57 58  1  0
 58 68  1  0
 59 68  1  0
 60 65  1  0
 61 62  1  0
 61 60  1  0
 63 62  1  0
 63 72  1  0
 63 64  1  0
 65 59  1  0
 65 64  1  0
 66 59  2  0
 68 67  1  0
 69 70  2  0
 70 89  1  0
 71 70  1  0
 71 74  1  0
 72 73  1  0
 72 69  1  0
 73 71  2  0
 74 75  1  0
 75 76  2  0
 77 80  1  0
 77 76  1  0
 78 77  2  0
 79 78  1  0
 79 74  2  0
 80 81  1  0
 81 82  1  0
 82 83  2  0
 84 83  1  0
 84 88  1  0
 85 84  2  0
 86 81  2  0
 86 85  1  0
 87 86  1  0
 89 90  1  0
 90 93  1  0
 90 92  1  0
 91 89  2  0
 94 69  1  0
 94 95  1  0
 96 94  1  0
M  ISO  4  11 101  14 101  59 100  68 100
M  END
>  <TORSDO>  (66) 
F 21

>  <SCORE>  (66) 
-11.928

>  <name>  (66) 
66

>  <ligand_id>  (66) 
66

>  <original_smiles>  (66) 
[H]c1c([H])c([H])c2c(c1[H])C([H])([H])C([H])([H])C([H])([H])C2([H])N([H])C(=O)C1([H])N(C(=O)C([H])(N([H])C(=O)C([H])(N([H])C([H])([H])[H])C([H])([H])[H])C(C([H])([H])[H])(C([H])([H])[H])C([H])([H])[H])C([H])([H])c2c([H])c(OC3([H])C([H])([H])C(=O)C(=O)C3([H])c3c([H])c([H])c(C([H])([H])C([H])([H])C([H])([H])C([H])([H])N(C(=O)N4C([H])([H])C([H])([H])C([H])([H])C([H])(n5nc(-c6c([H])c([H])c(Oc7c([H])c([H])c(F)c([H])c7F)c([H])c6[H])c(C(=O)N([H])[H])c5N([H])[H])C4([H])[H])C([H])([H])[H])c([H])c3[H])c([H])c([H])c2C1([H])[H]

>  <smiles>  (66) 
[H]c1c([H])c([H])c2c(c1[H])C([H])([H])C([H])([H])C([H])([H])C2([H])N([H])C(=O)C1([H])N(C(=O)C([H])(N([H])C(=O)C([H])(N([H])C([H])([H])[H])C([H])([H])[H])C(C([H])([H])[H])(C([H])([H])[H])C([H])([H])[H])C([H])([H])c2c([H])c(OC3([H])C([H])([H])C(=O)C(=O)C3([H])c3c([H])c([H])c(C([H])([H])C([H])([H])C([H])([H])C([H])([H])N(C(=O)N4C([H])([H])C([H])([H])C([H])([H])C([H])(n5nc(-c6c([H])c([H])c(Oc7c([H])c([H])c(F)c([H])c7F)c([H])c6[H])c(C(=O)N([H])[H])c5N([H])[H])C4([H])[H])C([H])([H])[H])c([H])c3[H])c([H])c([H])c2C1([H])[H]

$$$$
67:0:0
     RDKit          3D

 95104  0  0  1  0  0  0  0  0999 V2000
  -31.8500  -21.7150   19.8410 C   0  0  0  0  0  3  0  0  0  0  0  0
  -31.8100  -23.0220   19.3010 C   0  0  0  0  0  3  0  0  0  0  0  0
  -30.6870  -22.4790   21.8560 C   0  0  0  0  0  3  0  0  0  0  0  0
  -30.6760  -23.7760   21.3110 C   0  0  0  0  0  0  0  0  0  0  0  0
  -31.2910  -21.4280   21.1180 C   0  0  0  0  0  0  0  0  0  0  0  0
  -31.2160  -24.0440   20.0600 C   0  0  0  0  0  0  0  0  0  0  0  0
  -30.1700  -25.0150   21.9050 C   0  0  0  0  0  0  0  0  0  0  0  0
  -31.1040  -25.5050   19.6970 C   0  0  0  0  0  2  0  0  0  0  0  0
  -30.5990  -26.1920   21.0030 C   0  0  2  0  0  0  0  0  0  0  0  0
  -31.7770  -26.9190   21.6920 C   0  0  0  0  0  1  0  0  0  0  0  0
  -29.5620  -25.1360   22.9730 O   0  0  0  0  0  0  0  0  0  0  0  0
  -31.3210  -20.0560   21.7150 C   0  0  0  0  0  0  0  0  0  0  0  0
  -30.8050  -19.8000   22.8080 O   0  0  0  0  0  0  0  0  0  0  0  0
  -32.0530  -18.9430   20.9430 C   0  0  0  0  0  2  0  0  0  0  0  0
  -31.7620  -17.5020   21.4220 C   0  0  0  0  0  2  0  0  0  0  0  0
  -30.3700  -16.9940   20.9860 C   0  0  0  0  0  2  0  0  0  0  0  0
  -30.0250  -15.5440   21.4000 C   0  0  0  0  0  2  0  0  0  0  0  0
  -30.6040  -14.4490   20.4780 C   0  0  0  0  0  0  0  0  0  0  0  0
  -30.2740  -12.3540   19.2120 C   0  0  0  0  0  2  0  0  0  0  0  0
  -29.3140  -12.6080   18.0330 C   0  0  0  0  0  2  0  0  0  0  0  0
  -27.8440  -12.4670   18.4790 C   0  0  0  0  0  2  0  0  0  0  0  0
  -27.5350  -13.2590   19.7790 C   0  0  0  0  0  3  0  0  0  0  0  0
  -28.6030  -12.9640   20.8570 C   0  0  0  0  0  2  0  0  0  0  0  0
  -29.9210  -13.2890   20.2880 N   0  0  0  0  0  0  0  0  0  0  0  0
  -31.6650  -14.6840   19.8900 O   0  0  0  0  0  0  0  0  0  0  0  0
  -25.1330  -13.8600   20.4880 C   0  0  0  0  0  0  0  0  0  0  0  0
  -24.0700  -13.0830   20.8640 C   0  0  0  0  0  0  0  0  0  0  0  0
  -24.5390  -11.7340   20.8360 C   0  0  0  0  0  0  0  0  0  0  0  0
  -26.1830  -12.9840   20.2610 N   0  0  0  0  0  0  0  0  0  0  0  0
  -25.8270  -11.7000   20.5220 N   0  0  0  0  0  0  0  0  0  0  0  0
  -23.8210  -10.4690   21.0360 C   0  0  0  0  0  0  0  0  0  0  0  0
  -24.2780   -9.4980   21.9570 C   0  0  0  0  0  3  0  0  0  0  0  0
  -23.5610   -8.2970   22.1450 C   0  0  0  0  0  3  0  0  0  0  0  0
  -22.3740   -8.0570   21.4130 C   0  0  0  0  0  0  0  0  0  0  0  0
  -21.9370   -9.0150   20.4800 C   0  0  0  0  0  3  0  0  0  0  0  0
  -22.6550  -10.2080   20.2910 C   0  0  0  0  0  3  0  0  0  0  0  0
  -21.6270   -6.9090   21.5100 O   0  0  0  0  0  0  0  0  0  0  0  0
  -21.6180   -6.1510   22.6540 C   0  0  0  0  0  0  0  0  0  0  0  0
  -21.2470   -6.6930   23.9040 C   0  0  0  0  0  3  0  0  0  0  0  0
  -21.1840   -5.8630   25.0410 C   0  0  0  0  0  3  0  0  0  0  0  0
  -21.4830   -4.4910   24.9290 C   0  0  0  0  0  0  0  0  0  0  0  0
  -21.8480   -3.9490   23.6840 C   0  0  0  0  0  3  0  0  0  0  0  0
  -21.9120   -4.7760   22.5500 C   0  0  0  0  0  0  0  0  0  0  0  0
  -22.2430   -4.2450   21.3490 F   0  0  0  0  0  0  0  0  0  0  0  0
  -21.4150   -3.6920   26.0190 F   0  0  0  0  0  0  0  0  0  0  0  0
  -22.6710  -13.5530   21.1460 C   0  0  0  0  0  0  0  0  0  0  0  0
  -21.9550  -12.8530   22.0200 N   0  0  0  0  0  0  0  0  0  0  0  0
  -22.2230  -14.5730   20.6260 O   0  0  0  0  0  0  0  0  0  0  0  0
  -22.3340  -12.0270   22.4610 H   0  0  0  0  0  0  0  0  0  0  0  0
  -21.0180  -13.1470   22.2510 H   0  0  0  0  0  0  0  0  0  0  0  0
  -25.2870  -15.2310   20.3020 N   0  0  0  0  0  0  0  0  0  0  0  0
  -24.5190  -15.8840   20.4110 H   0  0  0  0  0  0  0  0  0  0  0  0
  -26.1420  -15.6730   19.9860 H   0  0  0  0  0  0  0  0  0  0  0  0
  -29.4550  -27.2090   20.7860 C   0  0  0  0  0  2  0  0  0  0  0  0
  -28.3250  -26.7070   20.0640 O   0  0  0  0  0  0  0  0  0  0  0  0
  -24.5050  -31.8820   23.1500 C   0  0  0  0  0  0  0  0  0  0  0  0
  -27.1740  -27.4720   20.0890 C   0  0  0  0  0  0  0  0  0  0  0  0
  -23.2880  -30.4680   21.5190 C   0  0  0  0  0  3  0  0  0  0  0  0
  -24.7410  -28.9250   20.0960 C   0  0  0  0  0  0  0  0  0  0  0  0
  -25.8000  -30.8530   21.2930 C   0  0  0  0  0  2  0  0  0  0  0  0
  -25.8910  -29.4790   20.6680 C   0  0  0  0  0  0  0  0  0  0  0  0
  -27.1030  -28.7670   20.6590 C   0  0  0  0  0  3  0  0  0  0  0  0
  -26.0060  -26.9260   19.5140 C   0  0  0  0  0  3  0  0  0  0  0  0
  -24.7910  -27.6450   19.5140 C   0  0  0  0  0  3  0  0  0  0  0  0
  -23.4880  -29.7720   20.1430 C   0  0  0  0  0  2  0  0  0  0  0  0
  -24.5490  -31.0810   22.0470 N   0  0  0  0  0  0  0  0  0  0  0  0
  -23.4290  -32.1540   23.6990 O   0  0  0  0  0  0  0  0  0  0  0  0
  -22.6460  -29.4540   22.4910 C   0  0  0  0  0  0  0  0  0  0  0  0
  -21.3180  -29.2870   22.3860 N   0  0  0  0  0  0  0  0  0  0  0  0
  -23.3380  -28.8190   23.2920 O   0  0  0  0  0  0  0  0  0  0  0  0
  -20.8230  -29.8510   21.7090 H   0  0  0  0  0  0  0  0  0  0  0  0
  -17.9390  -28.1430   22.9410 C   0  0  0  0  0  0  0  0  0  0  0  0
  -20.5050  -28.3580   23.1670 C   0  0  0  0  0  3  0  0  0  0  0  0
  -20.5740  -26.9290   22.5790 C   0  0  0  0  0  2  0  0  0  0  0  0
  -19.4480  -26.6320   21.5830 C   0  0  0  0  0  2  0  0  0  0  0  0
  -18.0810  -26.7940   22.2540 C   0  0  0  0  0  2  0  0  0  0  0  0
  -19.0770  -28.8840   23.3550 C   0  0  0  0  0  0  0  0  0  0  0  0
  -18.8910  -30.1480   23.9550 C   0  0  0  0  0  3  0  0  0  0  0  0
  -17.5980  -30.6700   24.1470 C   0  0  0  0  0  3  0  0  0  0  0  0
  -16.4740  -29.9250   23.7500 C   0  0  0  0  0  3  0  0  0  0  0  0
  -16.6450  -28.6630   23.1520 C   0  0  0  0  0  3  0  0  0  0  0  0
  -25.7970  -32.5130   23.7590 C   0  0  0  0  0  3  0  0  0  0  0  0
  -25.4810  -33.9010   24.1230 N   0  0  0  0  0  0  0  0  0  0  0  0
  -25.8030  -34.9710   23.3820 C   0  0  0  0  0  0  0  0  0  0  0  0
  -26.4660  -34.8940   22.3440 O   0  0  0  0  0  0  0  0  0  0  0  0
  -24.8920  -34.0350   24.9300 H   0  0  0  0  0  0  0  0  0  0  0  0
  -24.0610  -36.7570   23.0720 C   0  0  0  0  0  1  0  0  0  0  0  0
  -25.3080  -36.3450   23.8700 C   0  0  0  0  0  3  0  0  0  0  0  0
  -27.4420  -37.2220   24.7090 C   0  0  0  0  0  1  0  0  0  0  0  0
  -26.3330  -37.4070   23.7770 N   0  0  0  0  0  0  0  0  0  0  0  0
  -25.9220  -38.3210   23.9500 H   0  0  0  0  0  0  0  0  0  0  0  0
  -26.3500  -31.7200   25.0070 C   0  0  1  0  0  0  0  0  0  0  0  0
  -25.2820  -31.4410   26.0890 C   0  0  0  0  0  1  0  0  0  0  0  0
  -26.9460  -30.3630   24.5660 C   0  0  0  0  0  1  0  0  0  0  0  0
  -27.5020  -32.5160   25.6660 C   0  0  0  0  0  1  0  0  0  0  0  0
  1  5  1  0
  2  1  2  0
  2  6  1  0
  4  3  1  0
  4  7  1  0
  5 12  1  0
  5  3  2  0
  6  4  2  0
  7 11  2  0
  8  6  1  0
  8  9  1  0
  9 10  1  1
  9  7  1  0
 12 13  2  0
 14 15  1  0
 14 12  1  0
 16 17  1  0
 16 15  1  0
 18 17  1  0
 19 24  1  0
 20 21  1  0
 20 19  1  0
 22 21  1  0
 22 29  1  0
 22 23  1  0
 24 18  1  0
 24 23  1  0
 25 18  2  0
 26 27  2  0
 27 46  1  0
 28 27  1  0
 28 31  1  0
 29 26  1  0
 29 30  1  0
 30 28  2  0
 31 32  1  0
 32 33  2  0
 34 37  1  0
 34 33  1  0
 35 34  2  0
 36 35  1  0
 36 31  2  0
 37 38  1  0
 38 39  1  0
 39 40  2  0
 41 40  1  0
 41 45  1  0
 42 41  2  0
 43 38  2  0
 43 42  1  0
 44 43  1  0
 46 47  1  0
 47 50  1  0
 47 49  1  0
 48 46  2  0
 51 52  1  0
 51 26  1  0
 53 51  1  0
 54  9  1  0
 55 57  1  0
 55 54  1  0
 56 67  2  0
 57 62  1  0
 58 66  1  0
 58 68  1  0
 59 65  1  0
 59 61  1  0
 60 66  1  0
 61 60  1  0
 62 61  2  0
 63 57  2  0
 64 63  1  0
 64 59  2  0
 65 58  1  0
 66 56  1  0
 68 70  2  0
 69 68  1  0
 71 69  1  0
 72 81  2  0
 72 77  1  0
 73 69  1  0
 73 77  1  0
 74 73  1  0
 75 76  1  0
 75 74  1  0
 76 72  1  0
 77 78  2  0
 78 79  1  0
 80 79  2  0
 81 80  1  0
 82 56  1  0
 82 83  1  0
 82 92  1  0
 83 86  1  0
 84 88  1  0
 84 83  1  0
 85 84  2  0
 88 87  1  0
 90 88  1  0
 90 91  1  0
 90 89  1  0
 92 95  1  1
 92 93  1  0
 94 92  1  0
M  ISO  4  17 100  18 100  54 101  55 101
M  END
>  <TORSDO>  (67) 
F 22

>  <SCORE>  (67) 
-13.312

>  <name>  (67) 
67

>  <ligand_id>  (67) 
67

>  <original_smiles>  (67) 
[H]c1c([H])c([H])c2c(c1[H])C([H])([H])C([H])([H])C([H])([H])C2([H])N([H])C(=O)C1([H])N(C(=O)C([H])(N([H])C(=O)C([H])(N([H])C([H])([H])[H])C([H])([H])[H])C(C([H])([H])[H])(C([H])([H])[H])C([H])([H])[H])C([H])([H])c2c([H])c(OC([H])([H])C3(C([H])([H])[H])C(=O)c4c([H])c(C(=O)C([H])([H])C([H])([H])C([H])([H])C([H])([H])C(=O)N5C([H])([H])C([H])([H])C([H])([H])C([H])(n6nc(-c7c([H])c([H])c(Oc8c([H])c([H])c(F)c([H])c8F)c([H])c7[H])c(C(=O)N([H])[H])c6N([H])[H])C5([H])[H])c([H])c([H])c4C3([H])[H])c([H])c([H])c2C1([H])[H]

>  <smiles>  (67) 
[H]c1c([H])c([H])c2c(c1[H])C([H])([H])C([H])([H])C([H])([H])C2([H])N([H])C(=O)C1([H])N(C(=O)C([H])(N([H])C(=O)C([H])(N([H])C([H])([H])[H])C([H])([H])[H])C(C([H])([H])[H])(C([H])([H])[H])C([H])([H])[H])C([H])([H])c2c([H])c(OC([H])([H])C3(C([H])([H])[H])C(=O)c4c([H])c(C(=O)C([H])([H])C([H])([H])C([H])([H])C([H])([H])C(=O)N5C([H])([H])C([H])([H])C([H])([H])C([H])(n6nc(-c7c([H])c([H])c(Oc8c([H])c([H])c(F)c([H])c8F)c([H])c7[H])c(C(=O)N([H])[H])c6N([H])[H])C5([H])[H])c([H])c([H])c4C3([H])[H])c([H])c([H])c2C1([H])[H]

$$$$
68:0:0
     RDKit          3D

 92 90  0  0  1  0  0  0  0  0999 V2000
  -19.8100  -26.3690   18.7890 C   0  0  0  0  0  3  0  0  0  0  0  0
  -19.8260  -27.9050   19.4990 C   0  0  0  0  0  2  0  0  0  0  0  0
  -20.5690  -24.9420   19.2560 C   0  0  0  0  0  3  0  0  0  0  0  0
  -21.2120  -25.9200   21.6150 C   0  0  0  0  0  2  0  0  0  0  0  0
  -20.5610  -28.0740   21.0040 C   0  0  0  0  0  1  0  0  0  0  0  0
  -21.7150  -24.6010   20.3960 C   0  0  0  0  0  2  0  0  0  0  0  0
  -24.1670  -23.3840   21.3840 C   0  0  0  0  0  1  0  0  0  0  0  0
  -23.6140  -23.4430   19.9550 C   0  0  0  0  0  1  0  0  0  0  0  0
  -24.7780  -21.9520   19.0250 N   0  0  0  0  0  2  0  0  0  0  0  0
  -24.1380  -21.1810   19.1240 H   0  0  0  0  0  0  0  0  0  0  0  0
  -24.6620  -22.2440   18.0680 H   0  0  0  0  0  0  0  0  0  0  0  0
  -26.5770  -20.8610   18.8160 C   0  0  0  0  0 15  0  0  0  0  0  0
  -27.8630  -18.8250   18.6140 C   0  0  0  0  0 15  0  0  0  0  0  0
  -29.6300  -17.3730   18.5490 C   0  0  0  0  0  2  0  0  0  0  0  0
  -30.9260  -14.7570   18.1500 C   0  0  0  0  0  2  0  0  0  0  0  0
  -30.2330  -13.6090   17.2940 C   0  0  0  0  0  2  0  0  0  0  0  0
  -28.9600  -13.0910   17.9750 C   0  0  0  0  0  2  0  0  0  0  0  0
  -28.3490  -14.2830   18.7150 C   0  0  0  0  0  3  0  0  0  0  0  0
  -29.2820  -14.9780   19.6900 C   0  0  0  0  0  2  0  0  0  0  0  0
  -29.9460  -15.8710   18.7820 N   0  0  0  0  0  0  0  0  0  0  0  0
  -30.8480  -17.5330   18.1280 O   0  0  0  0  0  1  0  0  0  0  0  0
  -26.4070  -15.0920   19.9870 C   0  0  0  0  0  0  0  0  0  0  0  0
  -25.3600  -14.4600   20.5580 C   0  0  0  0  0  0  0  0  0  0  0  0
  -25.5570  -13.0720   20.2890 C   0  0  0  0  0  0  0  0  0  0  0  0
  -27.1460  -14.0920   19.4060 N   0  0  0  0  0  0  0  0  0  0  0  0
  -26.6970  -12.8540   19.6590 N   0  0  0  0  0  0  0  0  0  0  0  0
  -24.6770  -11.9420   20.5050 C   0  0  0  0  0  0  0  0  0  0  0  0
  -25.0340  -10.8850   21.3670 C   0  0  0  0  0  3  0  0  0  0  0  0
  -24.1450   -9.8110   21.5610 C   0  0  0  0  0  3  0  0  0  0  0  0
  -22.8980   -9.7980   20.8930 C   0  0  0  0  0  0  0  0  0  0  0  0
  -22.5670  -10.8420   20.0140 C   0  0  0  0  0  3  0  0  0  0  0  0
  -23.4530  -11.9080   19.8150 C   0  0  0  0  0  3  0  0  0  0  0  0
  -21.9770   -8.7890   21.0090 O   0  0  0  0  0  0  0  0  0  0  0  0
  -21.7600   -8.1580   22.2050 C   0  0  0  0  0  0  0  0  0  0  0  0
  -21.3540   -8.8640   23.3580 C   0  0  0  0  0  3  0  0  0  0  0  0
  -21.0740   -8.1630   24.5480 C   0  0  0  0  0  3  0  0  0  0  0  0
  -21.1910   -6.7600   24.5830 C   0  0  0  0  0  0  0  0  0  0  0  0
  -21.5940   -6.0570   23.4330 C   0  0  0  0  0  3  0  0  0  0  0  0
  -21.8760   -6.7550   22.2470 C   0  0  0  0  0  0  0  0  0  0  0  0
  -22.2430   -6.0750   21.1350 F   0  0  0  0  0  0  0  0  0  0  0  0
  -20.9120   -6.0840   25.7210 F   0  0  0  0  0  0  0  0  0  0  0  0
  -24.1890  -15.1370   21.1890 C   0  0  0  0  0  0  0  0  0  0  0  0
  -23.5620  -14.4850   22.1570 N   0  0  0  0  0  0  0  0  0  0  0  0
  -23.8600  -16.2760   20.8570 O   0  0  0  0  0  0  0  0  0  0  0  0
  -23.8540  -13.5610   22.4400 H   0  0  0  0  0  0  0  0  0  0  0  0
  -22.7790  -14.9160   22.6270 H   0  0  0  0  0  0  0  0  0  0  0  0
  -26.7570  -16.4250   19.8720 N   0  0  0  0  0  0  0  0  0  0  0  0
  -26.0760  -17.1260   20.1430 H   0  0  0  0  0  0  0  0  0  0  0  0
  -27.3770  -16.7420   19.1400 H   0  0  0  0  0  0  0  0  0  0  0  0
  -21.2840  -29.9960   22.0020 C   0  0  0  0  0 15  0  0  0  0  0  0
  -23.1330  -29.8500   23.6220 C   0  0  0  0  0 15  0  0  0  0  0  0
  -24.7160  -28.4990   23.6530 O   0  0  0  0  0  1  0  0  0  0  0  0
  -24.6290  -32.0720   22.6470 C   0  0  0  0  0  0  0  0  0  0  0  0
  -25.8870  -27.7340   22.9360 C   0  0  0  0  0  3  0  0  0  0  0  0
  -23.8060  -29.9500   21.0990 C   0  0  0  0  0  3  0  0  0  0  0  0
  -25.7380  -28.4480   20.5160 C   0  0  0  0  0  3  0  0  0  0  0  0
  -26.2540  -30.6220   21.6110 C   0  0  0  0  0  2  0  0  0  0  0  0
  -26.4750  -29.1670   21.4730 C   0  0  0  0  0  3  0  0  0  0  0  0
  -26.9700  -28.5080   22.5890 C   0  0  0  0  0  2  0  0  0  0  0  0
  -25.9030  -26.5990   22.0010 C   0  0  0  0  0  2  0  0  0  0  0  0
  -25.7760  -27.0210   20.6380 C   0  0  0  0  0  2  0  0  0  0  0  0
  -24.5700  -29.2570   19.9400 C   0  0  0  0  0  2  0  0  0  0  0  0
  -24.8410  -30.9060   21.8850 N   0  0  0  0  0  0  0  0  0  0  0  0
  -23.5040  -32.5970   22.6990 O   0  0  0  0  0  0  0  0  0  0  0  0
  -23.1070  -28.4710   21.6120 C   0  0  0  0  0  0  0  0  0  0  0  0
  -22.4360  -27.9250   22.7930 N   0  0  0  0  0  0  0  0  0  0  0  0
  -23.5160  -27.4640   21.5210 O   0  0  0  0  0  0  0  0  0  0  0  0
  -22.5500  -26.9460   22.5790 H   0  0  0  0  0  0  0  0  0  0  0  0
  -18.1640  -27.2540   23.4270 C   0  0  0  0  0  0  0  0  0  0  0  0
  -21.2920  -28.2010   24.1260 C   0  0  0  0  0  1  0  0  0  0  0  0
  -22.4510  -26.8830   23.7970 C   0  0  0  0  0  3  0  0  0  0  0  0
  -21.8670  -25.6320   22.5260 C   0  0  0  0  0  2  0  0  0  0  0  0
  -18.7390  -25.6120   22.8690 C   0  0  0  0  0  1  0  0  0  0  0  0
  -19.1960  -28.3740   23.9680 C   0  0  0  0  0  3  0  0  0  0  0  0
  -18.5090  -29.6850   23.7460 C   0  0  0  0  0  3  0  0  0  0  0  0
  -17.2450  -29.9950   23.1170 C   0  0  0  0  0  3  0  0  0  0  0  0
  -16.3710  -28.9700   22.7490 C   0  0  0  0  0  3  0  0  0  0  0  0
  -16.8400  -27.6410   22.9250 C   0  0  0  0  0  3  0  0  0  0  0  0
  -25.7260  -32.7690   23.5860 C   0  0  0  0  0  3  0  0  0  0  0  0
  -25.2290  -34.1030   23.9380 N   0  0  0  0  0  0  0  0  0  0  0  0
  -25.6480  -35.2360   23.3620 C   0  0  0  0  0  0  0  0  0  0  0  0
  -26.5290  -35.2610   22.4980 O   0  0  0  0  0  0  0  0  0  0  0  0
  -24.4620  -34.1470   24.5910 H   0  0  0  0  0  0  0  0  0  0  0  0
  -23.8910  -36.9250   22.7730 C   0  0  0  0  0  1  0  0  0  0  0  0
  -24.9700  -36.5470   23.7990 C   0  0  0  0  0  3  0  0  0  0  0  0
  -26.8070  -37.5100   25.1120 C   0  0  0  0  0  1  0  0  0  0  0  0
  -25.9140  -37.6710   23.9670 N   0  0  0  0  0  0  0  0  0  0  0  0
  -25.4130  -38.5480   24.0770 H   0  0  0  0  0  0  0  0  0  0  0  0
  -26.1760  -32.0270   24.9280 C   0  0  1  0  0  0  0  0  0  0  0  0
  -25.0240  -31.6390   25.8880 C   0  0  0  0  0  1  0  0  0  0  0  0
  -27.0270  -30.7810   24.6180 C   0  0  0  0  0  1  0  0  0  0  0  0
  -27.1150  -32.9430   25.7590 C   0  0  0  0  0  1  0  0  0  0  0  0
  1  3  2  0
  1  2  1  0
  2  5  1  0
  3  6  1  0
  4 72  1  0
  6  4  1  0
  8  7  1  0
  9 10  1  0
 11  9  1  0
 14 20  1  0
 15 20  1  0
 16 17  1  0
 16 15  1  0
 18 17  1  0
 18 25  1  0
 18 19  1  0
 20 19  1  0
 21 14  1  0
 22 23  2  0
 23 42  1  0
 24 27  1  0
 24 23  1  0
 25 26  1  0
 25 22  1  0
 26 24  2  0
 27 28  1  0
 28 29  2  0
 30 33  1  0
 30 29  1  0
 31 30  2  0
 32 31  1  0
 32 27  2  0
 33 34  1  0
 34 39  2  0
 34 35  1  0
 35 36  2  0
 36 37  1  0
 37 41  1  0
 38 37  2  0
 39 38  1  0
 40 39  1  0
 42 43  1  0
 43 45  1  0
 43 46  1  0
 44 42  2  0
 47 22  1  0
 47 48  1  0
 49 47  1  0
 53 64  2  0
 54 52  1  0
 55 65  1  0
 55 63  1  0
 56 62  1  0
 56 61  1  0
 56 58  1  0
 57 63  1  0
 58 57  1  0
 58 59  1  0
 59 54  1  0
 60 54  1  0
 61 60  1  0
 62 55  1  0
 63 53  1  0
 65 66  1  0
 66 71  1  0
 67 65  2  0
 68 66  1  0
 69 74  1  0
 71 70  1  0
 72 71  1  0
 73 69  1  0
 75 74  2  0
 76 75  1  0
 77 78  1  0
 77 76  2  0
 78 69  2  0
 79 53  1  0
 79 80  1  0
 79 89  1  0
 80 83  1  0
 81 85  1  0
 81 80  1  0
 82 81  2  0
 85 84  1  0
 85 87  1  0
 87 88  1  0
 87 86  1  0
 89 92  1  1
 89 90  1  0
 91 89  1  0
M  ISO  4  13 100  14 100  51 101  52 101
M  END
>  <TORSDO>  (68) 
F 22

>  <SCORE>  (68) 
-4.215

>  <name>  (68) 
68

>  <ligand_id>  (68) 
68

>  <original_smiles>  (68) 
[H]c1c([H])c([H])c2c(c1[H])C([H])([H])C([H])([H])C([H])([H])C2([H])N([H])C(=O)C1([H])N(C(=O)C([H])(N([H])C(=O)C([H])(N([H])C([H])([H])[H])C([H])([H])[H])C(C([H])([H])[H])(C([H])([H])[H])C([H])([H])[H])C([H])([H])c2c([H])c(OC([H])([H])C([H])([H])c3c([H])c([H])c([H])c(C([H])(C([H])([H])[H])[N+]([H])([H])C([H])([H])C([H])([H])C(=O)N4C([H])([H])C([H])([H])C([H])([H])C([H])(n5nc(-c6c([H])c([H])c(Oc7c([H])c([H])c(F)c([H])c7F)c([H])c6[H])c(C(=O)N([H])[H])c5N([H])[H])C4([H])[H])c3[H])c([H])c([H])c2C1([H])[H]

>  <smiles>  (68) 
[H]c1c([H])c([H])c2c(c1[H])C([H])([H])C([H])([H])C([H])([H])C2([H])N([H])C(=O)C1([H])N(C(=O)C([H])(N([H])C(=O)C([H])(N([H])C([H])([H])[H])C([H])([H])[H])C(C([H])([H])[H])(C([H])([H])[H])C([H])([H])[H])C([H])([H])c2c([H])c(OC([H])([H])C([H])([H])c3c([H])c([H])c([H])c(C([H])(C([H])([H])[H])[N+]([H])([H])C([H])([H])C([H])([H])C(=O)N4C([H])([H])C([H])([H])C([H])([H])C([H])(n5nc(-c6c([H])c([H])c(Oc7c([H])c([H])c(F)c([H])c7F)c([H])c6[H])c(C(=O)N([H])[H])c5N([H])[H])C4([H])[H])c3[H])c([H])c([H])c2C1([H])[H]

$$$$
69:0:0
     RDKit          3D

 90 97  0  0  1  0  0  0  0  0999 V2000
  -29.0420  -23.0260   19.7360 C   0  0  0  0  0  3  0  0  0  0  0  0
  -28.1570  -22.6510   18.5450 C   0  0  0  0  0  0  0  0  0  0  0  0
  -28.2350  -23.5200   17.2980 C   0  0  0  0  0  1  0  0  0  0  0  0
  -27.4200  -21.6600   18.5700 O   0  0  0  0  0  0  0  0  0  0  0  0
  -28.3710  -24.5460   20.3890 C   0  0  0  0  0  2  0  0  0  0  0  0
  -28.4710  -26.1310   20.0180 O   0  0  0  0  0  0  0  0  0  0  0  0
  -24.5670  -31.7790   23.1020 C   0  0  0  0  0  0  0  0  0  0  0  0
  -27.3800  -27.1290   20.0280 C   0  0  0  0  0  0  0  0  0  0  0  0
  -23.4530  -30.3600   21.4280 C   0  0  0  0  0  3  0  0  0  0  0  0
  -24.9860  -28.8570   19.9930 C   0  0  0  0  0  0  0  0  0  0  0  0
  -26.0020  -30.7130   21.3010 C   0  0  0  0  0  2  0  0  0  0  0  0
  -26.1480  -29.3240   20.6240 C   0  0  0  0  0  0  0  0  0  0  0  0
  -27.3430  -28.4820   20.6100 C   0  0  0  0  0  3  0  0  0  0  0  0
  -26.1820  -26.7960   19.3600 C   0  0  0  0  0  3  0  0  0  0  0  0
  -25.0240  -27.6140   19.3420 C   0  0  0  0  0  3  0  0  0  0  0  0
  -23.7240  -29.7120   20.0420 C   0  0  0  0  0  2  0  0  0  0  0  0
  -24.6940  -30.9760   21.9980 N   0  0  0  0  0  0  0  0  0  0  0  0
  -23.4610  -32.0060   23.6210 O   0  0  0  0  0  0  0  0  0  0  0  0
  -22.8030  -29.3120   22.3670 C   0  0  0  0  0  0  0  0  0  0  0  0
  -21.4860  -29.0790   22.2210 N   0  0  0  0  0  0  0  0  0  0  0  0
  -23.4930  -28.7080   23.1940 O   0  0  0  0  0  0  0  0  0  0  0  0
  -20.9830  -29.6180   21.5300 H   0  0  0  0  0  0  0  0  0  0  0  0
  -18.1670  -27.6800   22.6550 C   0  0  0  0  0  0  0  0  0  0  0  0
  -20.7030  -28.0880   22.9690 C   0  0  0  0  0  3  0  0  0  0  0  0
  -20.8960  -26.6710   22.3810 C   0  0  0  0  0  2  0  0  0  0  0  0
  -19.8330  -26.2970   21.3440 C   0  0  0  0  0  2  0  0  0  0  0  0
  -18.4330  -26.3530   21.9640 C   0  0  0  0  0  2  0  0  0  0  0  0
  -19.2330  -28.5010   23.1110 C   0  0  0  0  0  0  0  0  0  0  0  0
  -18.9280  -29.7380   23.7190 C   0  0  0  0  0  3  0  0  0  0  0  0
  -17.5920  -30.1570   23.8710 C   0  0  0  0  0  3  0  0  0  0  0  0
  -16.5420  -29.3330   23.4280 C   0  0  0  0  0  3  0  0  0  0  0  0
  -16.8310  -28.0960   22.8260 C   0  0  0  0  0  3  0  0  0  0  0  0
  -25.8030  -32.4680   23.7580 C   0  0  0  0  0  3  0  0  0  0  0  0
  -25.4240  -33.8510   24.0950 N   0  0  0  0  0  0  0  0  0  0  0  0
  -25.7450  -34.9320   23.3710 C   0  0  0  0  0  0  0  0  0  0  0  0
  -26.4530  -34.8710   22.3630 O   0  0  0  0  0  0  0  0  0  0  0  0
  -24.7970  -33.9680   24.8770 H   0  0  0  0  0  0  0  0  0  0  0  0
  -23.9710  -36.6770   22.9910 C   0  0  0  0  0  1  0  0  0  0  0  0
  -25.1960  -36.2960   23.8370 C   0  0  0  0  0  3  0  0  0  0  0  0
  -27.2660  -37.2380   24.7630 C   0  0  0  0  0  1  0  0  0  0  0  0
  -26.1950  -37.3850   23.7810 N   0  0  0  0  0  0  0  0  0  0  0  0
  -25.7520  -38.2890   23.9280 H   0  0  0  0  0  0  0  0  0  0  0  0
  -26.3190  -31.7160   25.0470 C   0  0  1  0  0  0  0  0  0  0  0  0
  -25.2110  -31.4330   26.0900 C   0  0  0  0  0  1  0  0  0  0  0  0
  -26.9670  -30.3620   24.6750 C   0  0  0  0  0  1  0  0  0  0  0  0
  -27.4210  -32.5560   25.7380 C   0  0  0  0  0  1  0  0  0  0  0  0
  -29.5530  -21.5030   20.5310 C   0  0  0  0  0  3  0  0  0  0  0  0
  -29.4790  -19.9550   19.9530 N   0  0  0  0  0  4  0  0  0  0  0  0
  -28.4970  -19.7270   19.9590 H   0  0  0  0  0  0  0  0  0  0  0  0
  -29.7220  -20.0160   18.9780 H   0  0  0  0  0  0  0  0  0  0  0  0
  -30.2640  -18.5990   20.4790 C   0  0  0  0  0  2  0  0  0  0  0  0
  -29.8880  -16.8910   20.1880 C   0  0  0  0  0  2  0  0  0  0  0  0
  -30.7850  -15.4050   20.2330 C   0  0  0  0  0  0  0  0  0  0  0  0
  -30.7770  -12.9820   19.3460 C   0  0  0  0  0  2  0  0  0  0  0  0
  -29.8580  -12.8610   18.1020 C   0  0  0  0  0  2  0  0  0  0  0  0
  -28.3930  -12.6200   18.5120 C   0  0  0  0  0  2  0  0  0  0  0  0
  -27.9530  -13.5490   19.6690 C   0  0  0  0  0  3  0  0  0  0  0  0
  -28.9930  -13.6200   20.8040 C   0  0  0  0  0  2  0  0  0  0  0  0
  -30.2550  -14.0920   20.2140 N   0  0  0  0  0  0  0  0  0  0  0  0
  -32.0090  -15.4370   20.0360 O   0  0  0  0  0  0  0  0  0  0  0  0
  -25.5730  -14.1110   20.4000 C   0  0  0  0  0  0  0  0  0  0  0  0
  -24.5060  -13.3360   20.7590 C   0  0  0  0  0  0  0  0  0  0  0  0
  -24.9730  -11.9840   20.7350 C   0  0  0  0  0  0  0  0  0  0  0  0
  -26.6170  -13.2360   20.1620 N   0  0  0  0  0  0  0  0  0  0  0  0
  -26.2670  -11.9500   20.4320 N   0  0  0  0  0  0  0  0  0  0  0  0
  -24.2440  -10.7230   20.9220 C   0  0  0  0  0  0  0  0  0  0  0  0
  -24.6260   -9.7820   21.9030 C   0  0  0  0  0  3  0  0  0  0  0  0
  -23.8930   -8.5870   22.0740 C   0  0  0  0  0  3  0  0  0  0  0  0
  -22.7630   -8.3240   21.2650 C   0  0  0  0  0  0  0  0  0  0  0  0
  -22.4000   -9.2530   20.2740 C   0  0  0  0  0  3  0  0  0  0  0  0
  -23.1330  -10.4390   20.1000 C   0  0  0  0  0  3  0  0  0  0  0  0
  -22.0070   -7.1790   21.3410 O   0  0  0  0  0  0  0  0  0  0  0  0
  -21.8560   -6.4950   22.5220 C   0  0  0  0  0  0  0  0  0  0  0  0
  -21.2960   -7.1030   23.6660 C   0  0  0  0  0  3  0  0  0  0  0  0
  -21.0920   -6.3450   24.8370 C   0  0  0  0  0  3  0  0  0  0  0  0
  -21.4410   -4.9810   24.8620 C   0  0  0  0  0  0  0  0  0  0  0  0
  -21.9960   -4.3730   23.7230 C   0  0  0  0  0  3  0  0  0  0  0  0
  -22.1990   -5.1290   22.5550 C   0  0  0  0  0  0  0  0  0  0  0  0
  -22.7140   -4.5340   21.4520 F   0  0  0  0  0  0  0  0  0  0  0  0
  -21.2390   -4.2520   25.9850 F   0  0  0  0  0  0  0  0  0  0  0  0
  -23.1070  -13.8130   21.0150 C   0  0  0  0  0  0  0  0  0  0  0  0
  -22.3760  -13.1270   21.8860 N   0  0  0  0  0  0  0  0  0  0  0  0
  -22.6690  -14.8300   20.4770 O   0  0  0  0  0  0  0  0  0  0  0  0
  -22.7440  -12.3040   22.3410 H   0  0  0  0  0  0  0  0  0  0  0  0
  -21.4350  -13.4240   22.1030 H   0  0  0  0  0  0  0  0  0  0  0  0
  -25.7370  -15.4830   20.2250 N   0  0  0  0  0  0  0  0  0  0  0  0
  -24.9670  -16.1360   20.3250 H   0  0  0  0  0  0  0  0  0  0  0  0
  -26.5850  -15.9190   19.8910 H   0  0  0  0  0  0  0  0  0  0  0  0
  -29.8000  -22.2100   23.0110 C   0  0  0  0  0  1  0  0  0  0  0  0
  -28.9560  -21.4770   21.9580 C   0  0  0  0  0  2  0  0  0  0  0  0
  1  5  1  0
  1 47  1  0
  2  4  2  0
  2  1  1  0
  3  2  1  0
  6  8  1  0
  6  5  1  0
  7 18  2  0
  8 13  1  0
  9 17  1  0
  9 19  1  0
 10 16  1  0
 10 12  1  0
 11 17  1  0
 12 11  1  0
 13 12  2  0
 14  8  2  0
 15 14  1  0
 15 10  2  0
 16  9  1  0
 17  7  1  0
 19 21  2  0
 20 19  1  0
 22 20  1  0
 23 32  2  0
 23 28  1  0
 24 20  1  0
 24 28  1  0
 25 24  1  0
 26 27  1  0
 26 25  1  0
 27 23  1  0
 28 29  2  0
 29 30  1  0
 31 30  2  0
 32 31  1  0
 33  7  1  0
 33 34  1  0
 33 43  1  0
 34 37  1  0
 35 39  1  0
 35 34  1  0
 36 35  2  0
 39 38  1  0
 41 39  1  0
 41 42  1  0
 41 40  1  0
 43 46  1  1
 43 44  1  0
 45 43  1  0
 47 90  1  0
 48 49  1  0
 48 51  1  0
 48 47  1  0
 50 48  1  0
 52 53  1  0
 52 51  1  0
 54 59  1  0
 55 56  1  0
 55 54  1  0
 57 56  1  0
 57 64  1  0
 57 58  1  0
 59 53  1  0
 59 58  1  0
 60 53  2  0
 61 62  2  0
 62 81  1  0
 63 62  1  0
 63 66  1  0
 64 61  1  0
 64 65  1  0
 65 63  2  0
 66 67  1  0
 67 68  2  0
 69 72  1  0
 69 68  1  0
 70 69  2  0
 71 70  1  0
 71 66  2  0
 72 73  1  0
 73 78  2  0
 73 74  1  0
 74 75  2  0
 75 76  1  0
 76 80  1  0
 77 76  2  0
 78 77  1  0
 79 78  1  0
 81 82  1  0
 82 85  1  0
 82 84  1  0
 83 81  2  0
 86 87  1  0
 86 61  1  0
 88 86  1  0
 90 89  1  0
M  ISO  4   5 101   6 101  52 100  53 100
M  END
>  <TORSDO>  (69) 
F 23

>  <SCORE>  (69) 
-14.368

>  <name>  (69) 
69

>  <ligand_id>  (69) 
69

>  <original_smiles>  (69) 
[H]c1c([H])c([H])c2c(c1[H])C([H])([H])C([H])([H])C([H])([H])C2([H])N([H])C(=O)C1([H])N(C(=O)C([H])(N([H])C(=O)C([H])(N([H])C([H])([H])[H])C([H])([H])[H])C(C([H])([H])[H])(C([H])([H])[H])C([H])([H])[H])C([H])([H])c2c([H])c(OC([H])([H])C([H])(C(=O)C([H])([H])[H])C([H])(C([H])([H])C([H])([H])[H])[N+]([H])([H])C([H])([H])C([H])([H])C(=O)N3C([H])([H])C([H])([H])C([H])([H])C([H])(n4nc(-c5c([H])c([H])c(Oc6c([H])c([H])c(F)c([H])c6F)c([H])c5[H])c(C(=O)N([H])[H])c4N([H])[H])C3([H])[H])c([H])c([H])c2C1([H])[H]

>  <smiles>  (69) 
[H]c1c([H])c([H])c2c(c1[H])C([H])([H])C([H])([H])C([H])([H])C2([H])N([H])C(=O)C1([H])N(C(=O)C([H])(N([H])C(=O)C([H])(N([H])C([H])([H])[H])C([H])([H])[H])C(C([H])([H])[H])(C([H])([H])[H])C([H])([H])[H])C([H])([H])c2c([H])c(OC([H])([H])C([H])(C(=O)C([H])([H])[H])C([H])(C([H])([H])C([H])([H])[H])[N+]([H])([H])C([H])([H])C([H])([H])C(=O)N3C([H])([H])C([H])([H])C([H])([H])C([H])(n4nc(-c5c([H])c([H])c(Oc6c([H])c([H])c(F)c([H])c6F)c([H])c5[H])c(C(=O)N([H])[H])c4N([H])[H])C3([H])[H])c([H])c([H])c2C1([H])[H]

$$$$
70:0:0
     RDKit          3D

 91 99  0  0  1  0  0  0  0  0999 V2000
  -29.3460  -22.4220   21.0330 C   0  0  0  0  0  0  0  0  0  0  0  0
  -28.8120  -22.9070   22.0360 O   0  0  0  0  0  0  0  0  0  0  0  0
  -30.3910  -19.1520   19.3930 C   0  0  0  0  0  3  0  0  0  0  0  0
  -29.6180  -18.6290   21.6360 C   0  0  0  0  0  3  0  0  0  0  0  0
  -30.0620  -20.4970   19.5870 C   0  0  0  0  0  3  0  0  0  0  0  0
  -29.3150  -19.9980   21.8450 C   0  0  0  0  0  3  0  0  0  0  0  0
  -30.2130  -18.2140   20.4240 C   0  0  0  0  0  0  0  0  0  0  0  0
  -29.5690  -20.9560   20.8270 C   0  0  0  0  0  0  0  0  0  0  0  0
  -30.6810  -16.8570   20.1280 C   0  0  0  0  0  3  0  0  0  0  0  0
  -30.2170  -15.6590   20.5590 C   0  0  0  0  0  3  0  0  0  0  0  0
  -30.9180  -14.4720   20.0700 C   0  0  0  0  0  0  0  0  0  0  0  0
  -30.4960  -12.3470   18.9240 C   0  0  0  0  0  2  0  0  0  0  0  0
  -29.5150  -12.6400   17.7730 C   0  0  0  0  0  2  0  0  0  0  0  0
  -28.0560  -12.5290   18.2580 C   0  0  0  0  0  2  0  0  0  0  0  0
  -27.7970  -13.3090   19.5790 C   0  0  0  0  0  3  0  0  0  0  0  0
  -28.9050  -13.0210   20.6160 C   0  0  0  0  0  2  0  0  0  0  0  0
  -30.2060  -13.3120   19.9950 N   0  0  0  0  0  0  0  0  0  0  0  0
  -32.0480  -14.5570   19.5790 O   0  0  0  0  0  0  0  0  0  0  0  0
  -25.4460  -13.8930   20.4470 C   0  0  0  0  0  0  0  0  0  0  0  0
  -24.3970  -13.1050   20.8520 C   0  0  0  0  0  0  0  0  0  0  0  0
  -24.8520  -11.7570   20.7450 C   0  0  0  0  0  0  0  0  0  0  0  0
  -26.4720  -13.0210   20.1220 N   0  0  0  0  0  0  0  0  0  0  0  0
  -26.1210  -11.7290   20.3610 N   0  0  0  0  0  0  0  0  0  0  0  0
  -24.1360  -10.4890   20.9370 C   0  0  0  0  0  0  0  0  0  0  0  0
  -24.5620   -9.5350   21.8900 C   0  0  0  0  0  3  0  0  0  0  0  0
  -23.8470   -8.3300   22.0650 C   0  0  0  0  0  3  0  0  0  0  0  0
  -22.6930   -8.0680   21.2870 C   0  0  0  0  0  0  0  0  0  0  0  0
  -22.2880   -9.0100   20.3230 C   0  0  0  0  0  3  0  0  0  0  0  0
  -23.0040  -10.2080   20.1460 C   0  0  0  0  0  3  0  0  0  0  0  0
  -21.9500   -6.9150   21.3670 O   0  0  0  0  0  0  0  0  0  0  0  0
  -21.8000   -6.2370   22.5520 C   0  0  0  0  0  0  0  0  0  0  0  0
  -21.2280   -6.8480   23.6890 C   0  0  0  0  0  3  0  0  0  0  0  0
  -21.0170   -6.0940   24.8630 C   0  0  0  0  0  3  0  0  0  0  0  0
  -21.3740   -4.7320   24.8980 C   0  0  0  0  0  0  0  0  0  0  0  0
  -21.9390   -4.1210   23.7660 C   0  0  0  0  0  3  0  0  0  0  0  0
  -22.1450   -4.8710   22.5940 C   0  0  0  0  0  0  0  0  0  0  0  0
  -22.6690   -4.2720   21.4980 F   0  0  0  0  0  0  0  0  0  0  0  0
  -21.1700   -4.0050   26.0240 F   0  0  0  0  0  0  0  0  0  0  0  0
  -23.0180  -13.5680   21.2280 C   0  0  0  0  0  0  0  0  0  0  0  0
  -22.3430  -12.8420   22.1130 N   0  0  0  0  0  0  0  0  0  0  0  0
  -22.5490  -14.6120   20.7750 O   0  0  0  0  0  0  0  0  0  0  0  0
  -22.7270  -11.9930   22.4970 H   0  0  0  0  0  0  0  0  0  0  0  0
  -21.4250  -13.1410   22.4110 H   0  0  0  0  0  0  0  0  0  0  0  0
  -25.5990  -15.2700   20.3090 N   0  0  0  0  0  0  0  0  0  0  0  0
  -24.8420  -15.9220   20.4910 H   0  0  0  0  0  0  0  0  0  0  0  0
  -26.4340  -15.7230   19.9650 H   0  0  0  0  0  0  0  0  0  0  0  0
  -29.8720  -23.3260   19.9010 C   0  0  0  0  0  2  0  0  0  0  0  0
  -31.0170  -25.4930   19.3130 C   0  0  0  0  0  1  0  0  0  0  0  0
  -29.8610  -24.8500   20.1100 C   0  0  0  0  0  3  0  0  0  0  0  0
  -28.4990  -25.4440   19.7100 C   0  0  0  0  0  2  0  0  0  0  0  0
  -28.4820  -26.8300   20.0250 O   0  0  0  0  0  0  0  0  0  0  0  0
  -24.5620  -31.8130   23.1750 C   0  0  0  0  0  0  0  0  0  0  0  0
  -27.2760  -27.4880   20.0130 C   0  0  0  0  0  0  0  0  0  0  0  0
  -23.3770  -30.4290   21.5070 C   0  0  0  0  0  3  0  0  0  0  0  0
  -24.8520  -28.9400   20.0540 C   0  0  0  0  0  0  0  0  0  0  0  0
  -25.8940  -30.8320   21.3180 C   0  0  0  0  0  2  0  0  0  0  0  0
  -25.9980  -29.4750   20.6510 C   0  0  0  0  0  0  0  0  0  0  0  0
  -27.2100  -28.7550   20.6280 C   0  0  0  0  0  3  0  0  0  0  0  0
  -26.1090  -26.9600   19.4090 C   0  0  0  0  0  3  0  0  0  0  0  0
  -24.8980  -27.6790   19.4340 C   0  0  0  0  0  3  0  0  0  0  0  0
  -23.5950  -29.7810   20.1140 C   0  0  0  0  0  2  0  0  0  0  0  0
  -24.6290  -31.0350   22.0590 N   0  0  0  0  0  0  0  0  0  0  0  0
  -23.4780  -32.0620   23.7220 O   0  0  0  0  0  0  0  0  0  0  0  0
  -22.7390  -29.3780   22.4410 C   0  0  0  0  0  0  0  0  0  0  0  0
  -21.4190  -29.1730   22.2970 N   0  0  0  0  0  0  0  0  0  0  0  0
  -23.4270  -28.7530   23.2520 O   0  0  0  0  0  0  0  0  0  0  0  0
  -20.9230  -29.7300   21.6150 H   0  0  0  0  0  0  0  0  0  0  0  0
  -18.0640  -27.9170   22.7370 C   0  0  0  0  0  0  0  0  0  0  0  0
  -20.6110  -28.2080   23.0440 C   0  0  0  0  0  3  0  0  0  0  0  0
  -20.7460  -26.7900   22.4450 C   0  0  0  0  0  2  0  0  0  0  0  0
  -19.6610  -26.4660   21.4130 C   0  0  0  0  0  2  0  0  0  0  0  0
  -18.2690  -26.5800   22.0440 C   0  0  0  0  0  2  0  0  0  0  0  0
  -19.1640  -28.6900   23.1930 C   0  0  0  0  0  0  0  0  0  0  0  0
  -18.9200  -29.9420   23.7980 C   0  0  0  0  0  3  0  0  0  0  0  0
  -17.6050  -30.4210   23.9520 C   0  0  0  0  0  3  0  0  0  0  0  0
  -16.5180  -29.6440   23.5160 C   0  0  0  0  0  3  0  0  0  0  0  0
  -16.7480  -28.3950   22.9140 C   0  0  0  0  0  3  0  0  0  0  0  0
  -25.8390  -32.4480   23.8100 C   0  0  0  0  0  3  0  0  0  0  0  0
  -25.5240  -33.8430   24.1410 N   0  0  0  0  0  0  0  0  0  0  0  0
  -25.8760  -34.8990   23.3940 C   0  0  0  0  0  0  0  0  0  0  0  0
  -26.5700  -34.8000   22.3770 O   0  0  0  0  0  0  0  0  0  0  0  0
  -24.9100  -33.9940   24.9270 H   0  0  0  0  0  0  0  0  0  0  0  0
  -24.1640  -36.6940   22.9940 C   0  0  0  0  0  1  0  0  0  0  0  0
  -25.3760  -36.2840   23.8450 C   0  0  0  0  0  3  0  0  0  0  0  0
  -27.4830  -37.1550   24.7560 C   0  0  0  0  0  1  0  0  0  0  0  0
  -26.4140  -37.3360   23.7770 N   0  0  0  0  0  0  0  0  0  0  0  0
  -26.0060  -38.2540   23.9220 H   0  0  0  0  0  0  0  0  0  0  0  0
  -26.3530  -31.6700   25.0840 C   0  0  1  0  0  0  0  0  0  0  0  0
  -25.2520  -31.4160   26.1410 C   0  0  0  0  0  1  0  0  0  0  0  0
  -26.9480  -30.3000   24.6820 C   0  0  0  0  0  1  0  0  0  0  0  0
  -27.4930  -32.4680   25.7590 C   0  0  0  0  0  1  0  0  0  0  0  0
  1  2  2  0
  3  5  2  0
  3  7  1  0
  4  6  1  0
  5  8  1  0
  7  4  2  0
  8  1  1  0
  8  6  2  0
  9  7  1  0
  9 10  2  0
 11 10  1  0
 12 17  1  0
 13 14  1  0
 13 12  1  0
 15 14  1  0
 15 22  1  0
 15 16  1  0
 17 11  1  0
 17 16  1  0
 18 11  2  0
 19 20  2  0
 20 39  1  0
 21 20  1  0
 21 24  1  0
 22 23  1  0
 22 19  1  0
 23 21  2  0
 24 25  1  0
 25 26  2  0
 27 30  1  0
 27 26  1  0
 28 27  2  0
 29 28  1  0
 29 24  2  0
 30 31  1  0
 31 36  2  0
 31 32  1  0
 32 33  2  0
 33 34  1  0
 34 38  1  0
 35 34  2  0
 36 35  1  0
 37 36  1  0
 39 40  1  0
 40 43  1  0
 40 42  1  0
 41 39  2  0
 44 19  1  0
 44 45  1  0
 46 44  1  0
 47 49  1  0
 47  1  1  0
 49 48  1  0
 50 51  1  0
 50 49  1  0
 52 63  2  0
 53 51  1  0
 53 58  1  0
 54 62  1  0
 54 64  1  0
 55 61  1  0
 55 57  1  0
 56 62  1  0
 57 56  1  0
 58 57  2  0
 59 60  1  0
 59 53  2  0
 60 55  2  0
 61 54  1  0
 62 52  1  0
 64 66  2  0
 65 64  1  0
 67 65  1  0
 68 77  2  0
 68 73  1  0
 69 65  1  0
 69 73  1  0
 70 69  1  0
 71 72  1  0
 71 70  1  0
 72 68  1  0
 73 74  2  0
 74 75  1  0
 76 75  2  0
 77 76  1  0
 78 52  1  0
 78 79  1  0
 78 88  1  0
 79 82  1  0
 80 84  1  0
 80 79  1  0
 81 80  2  0
 84 83  1  0
 86 84  1  0
 86 87  1  0
 86 85  1  0
 88 91  1  1
 88 89  1  0
 90 88  1  0
M  ISO  4  10 100  11 100  50 101  51 101
M  END
>  <TORSDO>  (70) 
F 21

>  <SCORE>  (70) 
-12.111

>  <name>  (70) 
70

>  <ligand_id>  (70) 
70

>  <original_smiles>  (70) 
[H]C(C(=O)N1C([H])([H])C([H])([H])C([H])([H])C([H])(n2nc(-c3c([H])c([H])c(Oc4c([H])c([H])c(F)c([H])c4F)c([H])c3[H])c(C(=O)N([H])[H])c2N([H])[H])C1([H])[H])=C([H])c1c([H])c([H])c(C(=O)C([H])([H])C([H])(C([H])([H])[H])C([H])([H])Oc2c([H])c([H])c3c(c2[H])C([H])([H])N(C(=O)C([H])(N([H])C(=O)C([H])(N([H])C([H])([H])[H])C([H])([H])[H])C(C([H])([H])[H])(C([H])([H])[H])C([H])([H])[H])C([H])(C(=O)N([H])C2([H])c4c([H])c([H])c([H])c([H])c4C([H])([H])C([H])([H])C2([H])[H])C3([H])[H])c([H])c1[H]

>  <smiles>  (70) 
[H]C(C(=O)N1C([H])([H])C([H])([H])C([H])([H])C([H])(n2nc(-c3c([H])c([H])c(Oc4c([H])c([H])c(F)c([H])c4F)c([H])c3[H])c(C(=O)N([H])[H])c2N([H])[H])C1([H])[H])=C([H])c1c([H])c([H])c(C(=O)C([H])([H])C([H])(C([H])([H])[H])C([H])([H])Oc2c([H])c([H])c3c(c2[H])C([H])([H])N(C(=O)C([H])(N([H])C(=O)C([H])(N([H])C([H])([H])[H])C([H])([H])[H])C(C([H])([H])[H])(C([H])([H])[H])C([H])([H])[H])C([H])(C(=O)N([H])C2([H])c4c([H])c([H])c([H])c([H])c4C([H])([H])C([H])([H])C2([H])[H])C3([H])[H])c([H])c1[H]

$$$$
71:0:0
     RDKit          3D

 92100  0  0  1  0  0  0  0  0999 V2000
  -30.1790  -22.9590   22.4720 C   0  0  0  0  0  3  0  0  0  0  0  0
  -29.4970  -24.0190   21.8390 C   0  0  0  0  0  3  0  0  0  0  0  0
  -30.2870  -21.6860   21.8680 C   0  0  0  0  0  3  0  0  0  0  0  0
  -28.9720  -22.5080   20.0060 C   0  0  0  0  0  3  0  0  0  0  0  0
  -28.8830  -23.8300   20.5860 C   0  0  0  0  0  0  0  0  0  0  0  0
  -29.6970  -21.4100   20.6130 C   0  0  0  0  0  0  0  0  0  0  0  0
  -28.0310  -24.9870   19.9450 C   0  0  0  0  0  2  0  0  0  0  0  0
  -28.2660  -26.4250   20.2710 O   0  0  0  0  0  0  0  0  0  0  0  0
  -24.6140  -31.9100   23.2370 C   0  0  0  0  0  0  0  0  0  0  0  0
  -27.1730  -27.3150   20.1760 C   0  0  0  0  0  0  0  0  0  0  0  0
  -23.3910  -30.5170   21.6080 C   0  0  0  0  0  3  0  0  0  0  0  0
  -24.8220  -28.9630   20.1690 C   0  0  0  0  0  0  0  0  0  0  0  0
  -25.9330  -30.8150   21.4100 C   0  0  0  0  0  2  0  0  0  0  0  0
  -25.9980  -29.4340   20.7660 C   0  0  0  0  0  0  0  0  0  0  0  0
  -27.1750  -28.6210   20.7660 C   0  0  0  0  0  3  0  0  0  0  0  0
  -25.9790  -26.9210   19.5240 C   0  0  0  0  0  3  0  0  0  0  0  0
  -24.8180  -27.7140   19.5360 C   0  0  0  0  0  3  0  0  0  0  0  0
  -23.5930  -29.8450   20.2250 C   0  0  0  0  0  2  0  0  0  0  0  0
  -24.6660  -31.0990   22.1410 N   0  0  0  0  0  0  0  0  0  0  0  0
  -23.5360  -32.1950   23.7780 O   0  0  0  0  0  0  0  0  0  0  0  0
  -22.7290  -29.5030   22.5740 C   0  0  0  0  0  0  0  0  0  0  0  0
  -21.4020  -29.3340   22.4550 N   0  0  0  0  0  0  0  0  0  0  0  0
  -23.4090  -28.8760   23.3900 O   0  0  0  0  0  0  0  0  0  0  0  0
  -20.9130  -29.8910   21.7680 H   0  0  0  0  0  0  0  0  0  0  0  0
  -18.0210  -28.1450   22.9670 C   0  0  0  0  0  0  0  0  0  0  0  0
  -20.5820  -28.4040   23.2330 C   0  0  0  0  0  3  0  0  0  0  0  0
  -20.6810  -26.9680   22.6680 C   0  0  0  0  0  2  0  0  0  0  0  0
  -19.5750  -26.6390   21.6590 C   0  0  0  0  0  2  0  0  0  0  0  0
  -18.1950  -26.7900   22.3020 C   0  0  0  0  0  2  0  0  0  0  0  0
  -19.1420  -28.9090   23.3900 C   0  0  0  0  0  0  0  0  0  0  0  0
  -18.9250  -30.1770   23.9730 C   0  0  0  0  0  3  0  0  0  0  0  0
  -17.6210  -30.6820   24.1370 C   0  0  0  0  0  3  0  0  0  0  0  0
  -16.5150  -29.9150   23.7300 C   0  0  0  0  0  3  0  0  0  0  0  0
  -16.7160  -28.6480   23.1510 C   0  0  0  0  0  3  0  0  0  0  0  0
  -25.9030  -32.5380   23.8490 C   0  0  0  0  0  3  0  0  0  0  0  0
  -25.6000  -33.9350   24.1920 N   0  0  0  0  0  0  0  0  0  0  0  0
  -25.9180  -34.9920   23.4320 C   0  0  0  0  0  0  0  0  0  0  0  0
  -26.5700  -34.8930   22.3880 O   0  0  0  0  0  0  0  0  0  0  0  0
  -25.0220  -34.0870   25.0060 H   0  0  0  0  0  0  0  0  0  0  0  0
  -24.1810  -36.7840   23.1180 C   0  0  0  0  0  1  0  0  0  0  0  0
  -25.4390  -36.3800   23.9030 C   0  0  0  0  0  3  0  0  0  0  0  0
  -27.5920  -37.2610   24.6890 C   0  0  0  0  0  1  0  0  0  0  0  0
  -26.4690  -37.4340   23.7710 N   0  0  0  0  0  0  0  0  0  0  0  0
  -26.0670  -38.3540   23.9310 H   0  0  0  0  0  0  0  0  0  0  0  0
  -26.4300  -31.7580   25.1150 C   0  0  1  0  0  0  0  0  0  0  0  0
  -25.3480  -31.5160   26.1930 C   0  0  0  0  0  1  0  0  0  0  0  0
  -27.0040  -30.3810   24.7090 C   0  0  0  0  0  1  0  0  0  0  0  0
  -27.5920  -32.5430   25.7670 C   0  0  0  0  0  1  0  0  0  0  0  0
  -30.0180  -20.0070   19.9320 C   0  0  0  0  0  3  0  0  0  0  0  0
  -29.5600  -18.7190   20.6160 N   0  0  0  0  0  4  0  0  0  0  0  0
  -29.6390  -18.8700   21.6090 H   0  0  0  0  0  0  0  0  0  0  0  0
  -28.5790  -18.6040   20.4230 H   0  0  0  0  0  0  0  0  0  0  0  0
  -30.3140  -17.4210   20.2830 C   0  0  0  0  0  3  0  0  0  0  0  0
  -29.8060  -16.0220   20.8890 C   0  0  0  0  0  3  0  0  0  0  0  0
  -30.5660  -14.6960   20.4360 C   0  0  0  0  0  0  0  0  0  0  0  0
  -30.3450  -12.4510   19.3680 C   0  0  0  0  0  2  0  0  0  0  0  0
  -29.4140  -12.5870   18.1430 C   0  0  0  0  0  2  0  0  0  0  0  0
  -27.9400  -12.4280   18.5580 C   0  0  0  0  0  2  0  0  0  0  0  0
  -27.5720  -13.2870   19.7960 C   0  0  0  0  0  3  0  0  0  0  0  0
  -28.6240  -13.1500   20.9200 C   0  0  0  0  0  2  0  0  0  0  0  0
  -29.9370  -13.4760   20.3510 N   0  0  0  0  0  0  0  0  0  0  0  0
  -31.7270  -14.8120   20.0310 O   0  0  0  0  0  0  0  0  0  0  0  0
  -25.1790  -13.8880   20.5030 C   0  0  0  0  0  0  0  0  0  0  0  0
  -24.1090  -13.1180   20.8720 C   0  0  0  0  0  0  0  0  0  0  0  0
  -24.5720  -11.7660   20.8560 C   0  0  0  0  0  0  0  0  0  0  0  0
  -26.2230  -13.0050   20.2790 N   0  0  0  0  0  0  0  0  0  0  0  0
  -25.8640  -11.7240   20.5510 N   0  0  0  0  0  0  0  0  0  0  0  0
  -23.8440  -10.5060   21.0550 C   0  0  0  0  0  0  0  0  0  0  0  0
  -24.2810   -9.5350   21.9820 C   0  0  0  0  0  3  0  0  0  0  0  0
  -23.5530   -8.3420   22.1670 C   0  0  0  0  0  3  0  0  0  0  0  0
  -22.3720   -8.1090   21.4230 C   0  0  0  0  0  0  0  0  0  0  0  0
  -21.9530   -9.0670   20.4830 C   0  0  0  0  0  3  0  0  0  0  0  0
  -22.6830  -10.2540   20.2970 C   0  0  0  0  0  3  0  0  0  0  0  0
  -21.6140   -6.9650   21.5160 O   0  0  0  0  0  0  0  0  0  0  0  0
  -21.5920   -6.2100   22.6610 C   0  0  0  0  0  0  0  0  0  0  0  0
  -21.2140   -6.7570   23.9070 C   0  0  0  0  0  3  0  0  0  0  0  0
  -21.1360   -5.9300   25.0450 C   0  0  0  0  0  3  0  0  0  0  0  0
  -21.4260   -4.5560   24.9380 C   0  0  0  0  0  0  0  0  0  0  0  0
  -21.7970   -4.0080   23.6970 C   0  0  0  0  0  3  0  0  0  0  0  0
  -21.8770   -4.8340   22.5620 C   0  0  0  0  0  0  0  0  0  0  0  0
  -22.2150   -4.2970   21.3640 F   0  0  0  0  0  0  0  0  0  0  0  0
  -21.3440   -3.7580   26.0290 F   0  0  0  0  0  0  0  0  0  0  0  0
  -22.7110  -13.5990   21.1290 C   0  0  0  0  0  0  0  0  0  0  0  0
  -21.9770  -12.9120   21.9960 N   0  0  0  0  0  0  0  0  0  0  0  0
  -22.2770  -14.6200   20.5950 O   0  0  0  0  0  0  0  0  0  0  0  0
  -22.3390  -12.0870   22.4500 H   0  0  0  0  0  0  0  0  0  0  0  0
  -21.0380  -13.2170   22.2090 H   0  0  0  0  0  0  0  0  0  0  0  0
  -25.3460  -15.2560   20.3140 N   0  0  0  0  0  0  0  0  0  0  0  0
  -24.5770  -15.9130   20.3970 H   0  0  0  0  0  0  0  0  0  0  0  0
  -26.1930  -15.6860   19.9670 H   0  0  0  0  0  0  0  0  0  0  0  0
  -30.6210  -20.8860   17.5640 C   0  0  0  0  0  1  0  0  0  0  0  0
  -29.6960  -19.9930   18.4120 C   0  0  0  0  0  2  0  0  0  0  0  0
  2  1  2  0
  3  1  1  0
  4  5  2  0
  4  6  1  0
  5  2  1  0
  6  3  2  0
  7  8  1  0
  7  5  1  0
  9 20  2  0
 10  8  1  0
 10 15  1  0
 11 19  1  0
 11 21  1  0
 12 18  1  0
 12 14  1  0
 13 19  1  0
 14 15  2  0
 14 13  1  0
 16 17  1  0
 16 10  2  0
 17 12  2  0
 18 11  1  0
 19  9  1  0
 21 23  2  0
 22 21  1  0
 24 22  1  0
 25 34  2  0
 25 30  1  0
 26 22  1  0
 26 30  1  0
 27 26  1  0
 28 29  1  0
 28 27  1  0
 29 25  1  0
 30 31  2  0
 31 32  1  0
 33 32  2  0
 34 33  1  0
 35  9  1  0
 35 36  1  0
 35 45  1  0
 36 39  1  0
 37 41  1  0
 37 36  1  0
 38 37  2  0
 41 40  1  0
 43 41  1  0
 43 44  1  0
 43 42  1  0
 45 48  1  1
 45 46  1  0
 47 45  1  0
 49 92  1  0
 49  6  1  0
 49 50  1  0
 50 51  1  0
 52 50  1  0
 53 50  1  0
 53 54  2  0
 55 54  1  0
 56 61  1  0
 57 58  1  0
 57 56  1  0
 59 58  1  0
 59 66  1  0
 59 60  1  0
 61 55  1  0
 61 60  1  0
 62 55  2  0
 63 64  2  0
 64 83  1  0
 65 64  1  0
 65 68  1  0
 66 63  1  0
 66 67  1  0
 67 65  2  0
 68 69  1  0
 69 70  2  0
 71 74  1  0
 71 70  1  0
 72 71  2  0
 73 72  1  0
 73 68  2  0
 74 75  1  0
 75 76  1  0
 76 77  2  0
 78 77  1  0
 78 82  1  0
 79 78  2  0
 80 75  2  0
 80 79  1  0
 81 80  1  0
 83 84  1  0
 84 87  1  0
 84 86  1  0
 85 83  2  0
 88 89  1  0
 88 63  1  0
 90 88  1  0
 91 92  1  0
M  ISO  4   7 101   8 101  54 100  55 100
M  END
>  <TORSDO>  (71) 
F 22

>  <SCORE>  (71) 
-13.342

>  <name>  (71) 
71

>  <ligand_id>  (71) 
71

>  <original_smiles>  (71) 
[H]c1c([H])c([H])c2c(c1[H])C([H])([H])C([H])([H])C([H])([H])C2([H])N([H])C(=O)C1([H])N(C(=O)C([H])(N([H])C(=O)C([H])(N([H])C([H])([H])[H])C([H])([H])[H])C(C([H])([H])[H])(C([H])([H])[H])C([H])([H])[H])C([H])([H])c2c([H])c(OC([H])([H])c3c([H])c([H])c([H])c(C([H])(C([H])([H])C([H])([H])[H])[N+]([H])([H])C([H])([H])C([H])([H])C(=O)N4C([H])([H])C([H])([H])C([H])([H])C([H])(n5nc(-c6c([H])c([H])c(Oc7c([H])c([H])c(F)c([H])c7F)c([H])c6[H])c(C(=O)N([H])[H])c5N([H])[H])C4([H])[H])c3[H])c([H])c([H])c2C1([H])[H]

>  <smiles>  (71) 
[H]c1c([H])c([H])c2c(c1[H])C([H])([H])C([H])([H])C([H])([H])C2([H])N([H])C(=O)C1([H])N(C(=O)C([H])(N([H])C(=O)C([H])(N([H])C([H])([H])[H])C([H])([H])[H])C(C([H])([H])[H])(C([H])([H])[H])C([H])([H])[H])C([H])([H])c2c([H])c(OC([H])([H])c3c([H])c([H])c([H])c(C([H])(C([H])([H])C([H])([H])[H])[N+]([H])([H])C([H])([H])C([H])([H])C(=O)N4C([H])([H])C([H])([H])C([H])([H])C([H])(n5nc(-c6c([H])c([H])c(Oc7c([H])c([H])c(F)c([H])c7F)c([H])c6[H])c(C(=O)N([H])[H])c5N([H])[H])C4([H])[H])c3[H])c([H])c([H])c2C1([H])[H]

$$$$
72:0:0
     RDKit          3D

 90 98  0  0  1  0  0  0  0  0999 V2000
  -28.3420  -20.9720   17.9080 C   0  0  0  0  0  3  0  0  0  0  0  0
  -28.8770  -19.8460   18.5720 C   0  0  0  0  0  3  0  0  0  0  0  0
  -28.3290  -22.2440   18.5160 C   0  0  0  0  0  3  0  0  0  0  0  0
  -29.3740  -21.2690   20.4780 C   0  0  0  0  0  3  0  0  0  0  0  0
  -29.4130  -19.9540   19.8760 C   0  0  0  0  0  0  0  0  0  0  0  0
  -28.8460  -22.4440   19.8180 C   0  0  0  0  0  0  0  0  0  0  0  0
  -29.9680  -18.7060   20.6110 C   0  0  0  0  0  0  0  0  0  0  0  0
  -30.3020  -18.7850   21.7960 O   0  0  0  0  0  0  0  0  0  0  0  0
  -30.1740  -17.3060   19.8980 C   0  0  0  0  0  2  0  0  0  0  0  0
  -30.0860  -15.9700   20.7850 C   0  0  0  0  0  2  0  0  0  0  0  0
  -30.7940  -14.6540   20.2550 C   0  0  0  0  0  0  0  0  0  0  0  0
  -30.5220  -12.4190   19.1810 C   0  0  0  0  0  2  0  0  0  0  0  0
  -29.5740  -12.5800   17.9690 C   0  0  0  0  0  2  0  0  0  0  0  0
  -28.1020  -12.4450   18.4100 C   0  0  0  0  0  2  0  0  0  0  0  0
  -27.7710  -13.3030   19.6620 C   0  0  0  0  0  3  0  0  0  0  0  0
  -28.8380  -13.1180   20.7640 C   0  0  0  0  0  2  0  0  0  0  0  0
  -30.1470  -13.4430   20.1780 N   0  0  0  0  0  0  0  0  0  0  0  0
  -31.9420  -14.7710   19.8170 O   0  0  0  0  0  0  0  0  0  0  0  0
  -25.3870  -13.9350   20.3790 C   0  0  0  0  0  0  0  0  0  0  0  0
  -24.3120  -13.1780   20.7610 C   0  0  0  0  0  0  0  0  0  0  0  0
  -24.7590  -11.8220   20.7430 C   0  0  0  0  0  0  0  0  0  0  0  0
  -26.4220  -13.0430   20.1540 N   0  0  0  0  0  0  0  0  0  0  0  0
  -26.0490  -11.7660   20.4320 N   0  0  0  0  0  0  0  0  0  0  0  0
  -24.0160  -10.5720   20.9500 C   0  0  0  0  0  0  0  0  0  0  0  0
  -24.4420   -9.6110   21.8930 C   0  0  0  0  0  3  0  0  0  0  0  0
  -23.7010   -8.4240   22.0860 C   0  0  0  0  0  3  0  0  0  0  0  0
  -22.5240   -8.1900   21.3380 C   0  0  0  0  0  0  0  0  0  0  0  0
  -22.1190   -9.1400   20.3840 C   0  0  0  0  0  3  0  0  0  0  0  0
  -22.8590  -10.3180   20.1890 C   0  0  0  0  0  3  0  0  0  0  0  0
  -21.7570   -7.0550   21.4390 O   0  0  0  0  0  0  0  0  0  0  0  0
  -21.7030   -6.3280   22.6020 C   0  0  0  0  0  0  0  0  0  0  0  0
  -21.2870   -6.9020   23.8230 C   0  0  0  0  0  3  0  0  0  0  0  0
  -21.1780   -6.1010   24.9770 C   0  0  0  0  0  3  0  0  0  0  0  0
  -21.4760   -4.7270   24.9130 C   0  0  0  0  0  0  0  0  0  0  0  0
  -21.8840   -4.1510   23.6960 C   0  0  0  0  0  3  0  0  0  0  0  0
  -21.9950   -4.9490   22.5450 C   0  0  0  0  0  0  0  0  0  0  0  0
  -22.3700   -4.3840   21.3700 F   0  0  0  0  0  0  0  0  0  0  0  0
  -21.3630   -3.9570   26.0200 F   0  0  0  0  0  0  0  0  0  0  0  0
  -22.9220  -13.6770   21.0310 C   0  0  0  0  0  0  0  0  0  0  0  0
  -22.1880  -12.9980   21.9060 N   0  0  0  0  0  0  0  0  0  0  0  0
  -22.4970  -14.7020   20.5010 O   0  0  0  0  0  0  0  0  0  0  0  0
  -22.5500  -12.1730   22.3640 H   0  0  0  0  0  0  0  0  0  0  0  0
  -21.2540  -13.3140   22.1280 H   0  0  0  0  0  0  0  0  0  0  0  0
  -25.5590  -15.3020   20.1850 N   0  0  0  0  0  0  0  0  0  0  0  0
  -24.7890  -15.9540   20.2800 H   0  0  0  0  0  0  0  0  0  0  0  0
  -26.4090  -15.7370   19.8450 H   0  0  0  0  0  0  0  0  0  0  0  0
  -30.0440  -24.1540   21.3210 C   0  0  0  0  0  1  0  0  0  0  0  0
  -28.7810  -23.8880   20.4810 C   0  0  0  0  0  3  0  0  0  0  0  0
  -28.5330  -25.1580   19.5410 C   0  0  0  0  0  2  0  0  0  0  0  0
  -28.4250  -26.5010   20.1650 O   0  0  0  0  0  0  0  0  0  0  0  0
  -24.6110  -31.8270   23.1990 C   0  0  0  0  0  0  0  0  0  0  0  0
  -27.2620  -27.2880   20.1340 C   0  0  0  0  0  0  0  0  0  0  0  0
  -23.4290  -30.4370   21.5400 C   0  0  0  0  0  3  0  0  0  0  0  0
  -24.8910  -28.8910   20.1290 C   0  0  0  0  0  0  0  0  0  0  0  0
  -25.9690  -30.7570   21.3820 C   0  0  0  0  0  2  0  0  0  0  0  0
  -26.0530  -29.3810   20.7310 C   0  0  0  0  0  0  0  0  0  0  0  0
  -27.2380  -28.5900   20.7220 C   0  0  0  0  0  3  0  0  0  0  0  0
  -26.0540  -26.8320   19.5470 C   0  0  0  0  0  3  0  0  0  0  0  0
  -24.8910  -27.6210   19.5380 C   0  0  0  0  0  3  0  0  0  0  0  0
  -23.6580  -29.7710   20.1600 C   0  0  0  0  0  2  0  0  0  0  0  0
  -24.6880  -31.0240   22.0980 N   0  0  0  0  0  0  0  0  0  0  0  0
  -23.5220  -32.0990   23.7230 O   0  0  0  0  0  0  0  0  0  0  0  0
  -22.7570  -29.4110   22.4850 C   0  0  0  0  0  0  0  0  0  0  0  0
  -21.4300  -29.2420   22.3490 N   0  0  0  0  0  0  0  0  0  0  0  0
  -23.4270  -28.7770   23.3050 O   0  0  0  0  0  0  0  0  0  0  0  0
  -20.9450  -29.8150   21.6720 H   0  0  0  0  0  0  0  0  0  0  0  0
  -18.0450  -28.0520   22.8060 C   0  0  0  0  0  0  0  0  0  0  0  0
  -20.6030  -28.2990   23.1070 C   0  0  0  0  0  3  0  0  0  0  0  0
  -20.7040  -26.8700   22.5260 C   0  0  0  0  0  2  0  0  0  0  0  0
  -19.6120  -26.5560   21.4980 C   0  0  0  0  0  2  0  0  0  0  0  0
  -18.2250  -26.7050   22.1290 C   0  0  0  0  0  2  0  0  0  0  0  0
  -19.1620  -28.8080   23.2510 C   0  0  0  0  0  0  0  0  0  0  0  0
  -18.9400  -30.0690   23.8460 C   0  0  0  0  0  3  0  0  0  0  0  0
  -17.6350  -30.5700   24.0060 C   0  0  0  0  0  3  0  0  0  0  0  0
  -16.5320  -29.8100   23.5800 C   0  0  0  0  0  3  0  0  0  0  0  0
  -16.7400  -28.5550   22.9800 C   0  0  0  0  0  3  0  0  0  0  0  0
  -25.8840  -32.4600   23.8380 C   0  0  0  0  0  3  0  0  0  0  0  0
  -25.5690  -33.8570   24.1710 N   0  0  0  0  0  0  0  0  0  0  0  0
  -25.9030  -34.9140   23.4180 C   0  0  0  0  0  0  0  0  0  0  0  0
  -26.5780  -34.8170   22.3900 O   0  0  0  0  0  0  0  0  0  0  0  0
  -24.9800  -34.0100   24.9770 H   0  0  0  0  0  0  0  0  0  0  0  0
  -24.1710  -36.7050   23.0630 C   0  0  0  0  0  1  0  0  0  0  0  0
  -25.4090  -36.2980   23.8790 C   0  0  0  0  0  3  0  0  0  0  0  0
  -27.5320  -37.1860   24.7330 C   0  0  0  0  0  1  0  0  0  0  0  0
  -26.4390  -37.3540   23.7800 N   0  0  0  0  0  0  0  0  0  0  0  0
  -26.0260  -38.2690   23.9330 H   0  0  0  0  0  0  0  0  0  0  0  0
  -26.3840  -31.6860   25.1210 C   0  0  1  0  0  0  0  0  0  0  0  0
  -25.2770  -31.4450   26.1720 C   0  0  0  0  0  1  0  0  0  0  0  0
  -26.9720  -30.3120   24.7310 C   0  0  0  0  0  1  0  0  0  0  0  0
  -27.5270  -32.4790   25.7990 C   0  0  0  0  0  1  0  0  0  0  0  0
  1  3  2  0
  1  2  1  0
  2  5  2  0
  3  6  1  0
  5  4  1  0
  5  7  1  0
  6  4  2  0
  6 48  1  0
  7  8  2  0
  9  7  1  0
  9 10  1  0
 11 10  1  0
 12 17  1  0
 13 14  1  0
 13 12  1  0
 15 14  1  0
 15 22  1  0
 15 16  1  0
 17 11  1  0
 17 16  1  0
 18 11  2  0
 19 20  2  0
 20 39  1  0
 21 20  1  0
 21 24  1  0
 22 19  1  0
 22 23  1  0
 23 21  2  0
 24 25  1  0
 25 26  2  0
 27 30  1  0
 27 26  1  0
 28 27  2  0
 29 28  1  0
 29 24  2  0
 30 31  1  0
 31 32  1  0
 32 33  2  0
 34 33  1  0
 34 38  1  0
 35 34  2  0
 36 31  2  0
 36 35  1  0
 37 36  1  0
 39 40  1  0
 40 43  1  0
 40 42  1  0
 41 39  2  0
 44 45  1  0
 44 19  1  0
 46 44  1  0
 48 47  1  0
 49 50  1  0
 49 48  1  0
 51 62  2  0
 52 50  1  0
 52 57  1  0
 53 61  1  0
 53 63  1  0
 54 60  1  0
 54 56  1  0
 55 61  1  0
 56 55  1  0
 57 56  2  0
 58 52  2  0
 59 58  1  0
 59 54  2  0
 60 53  1  0
 61 51  1  0
 63 65  2  0
 64 63  1  0
 66 64  1  0
 67 76  2  0
 67 72  1  0
 68 64  1  0
 68 72  1  0
 69 68  1  0
 70 71  1  0
 70 69  1  0
 71 67  1  0
 72 73  2  0
 73 74  1  0
 75 74  2  0
 76 75  1  0
 77 51  1  0
 77 78  1  0
 77 87  1  0
 78 81  1  0
 79 83  1  0
 79 78  1  0
 80 79  2  0
 83 82  1  0
 85 83  1  0
 85 86  1  0
 85 84  1  0
 87 90  1  1
 87 88  1  0
 89 87  1  0
M  ISO  4  10 100  11 100  49 101  50 101
M  END
>  <TORSDO>  (72) 
F 21

>  <SCORE>  (72) 
-13.472

>  <name>  (72) 
72

>  <ligand_id>  (72) 
72

>  <original_smiles>  (72) 
[H]c1c([H])c([H])c2c(c1[H])C([H])([H])C([H])([H])C([H])([H])C2([H])N([H])C(=O)C1([H])N(C(=O)C([H])(N([H])C(=O)C([H])(N([H])C([H])([H])[H])C([H])([H])[H])C(C([H])([H])[H])(C([H])([H])[H])C([H])([H])[H])C([H])([H])c2c([H])c(OC([H])([H])C([H])(c3c([H])c([H])c([H])c(C(=O)C([H])([H])C([H])([H])C(=O)N4C([H])([H])C([H])([H])C([H])([H])C([H])(n5nc(-c6c([H])c([H])c(Oc7c([H])c([H])c(F)c([H])c7F)c([H])c6[H])c(C(=O)N([H])[H])c5N([H])[H])C4([H])[H])c3[H])C([H])([H])[H])c([H])c([H])c2C1([H])[H]

>  <smiles>  (72) 
[H]c1c([H])c([H])c2c(c1[H])C([H])([H])C([H])([H])C([H])([H])C2([H])N([H])C(=O)C1([H])N(C(=O)C([H])(N([H])C(=O)C([H])(N([H])C([H])([H])[H])C([H])([H])[H])C(C([H])([H])[H])(C([H])([H])[H])C([H])([H])[H])C([H])([H])c2c([H])c(OC([H])([H])C([H])(c3c([H])c([H])c([H])c(C(=O)C([H])([H])C([H])([H])C(=O)N4C([H])([H])C([H])([H])C([H])([H])C([H])(n5nc(-c6c([H])c([H])c(Oc7c([H])c([H])c(F)c([H])c7F)c([H])c6[H])c(C(=O)N([H])[H])c5N([H])[H])C4([H])[H])c3[H])C([H])([H])[H])c([H])c([H])c2C1([H])[H]

$$$$
73:0:0
     RDKit          3D

 92100  0  0  1  0  0  0  0  0999 V2000
  -27.6120  -20.8030   17.0540 C   0  0  0  0  0  3  0  0  0  0  0  0
  -26.9570  -22.0390   17.0710 C   0  0  0  0  0  3  0  0  0  0  0  0
  -28.5530  -20.5090   18.0500 C   0  0  0  0  0  3  0  0  0  0  0  0
  -27.2720  -22.9820   18.0630 C   0  0  0  0  0  3  0  0  0  0  0  0
  -28.8600  -21.4220   19.0900 C   0  0  0  0  0  0  0  0  0  0  0  0
  -28.2450  -22.7350   19.0640 C   0  0  0  0  0  0  0  0  0  0  0  0
  -29.8600  -20.9020   20.1520 C   0  0  0  0  0  2  0  0  0  0  0  0
  -29.5870  -19.4690   20.7250 C   0  0  0  0  0  0  0  0  0  0  0  0
  -28.8610  -19.3490   21.7160 O   0  0  0  0  0  0  0  0  0  0  0  0
  -30.1890  -18.1890   20.0480 C   0  0  0  0  0  2  0  0  0  0  0  0
  -32.2960  -17.1650   21.1230 C   0  0  0  0  0  1  0  0  0  0  0  0
  -30.7640  -17.0750   21.0110 C   0  0  0  0  0  3  0  0  0  0  0  0
  -30.1910  -15.5970   20.9070 C   0  0  0  0  0  2  0  0  0  0  0  0
  -30.8830  -14.4280   20.1180 C   0  0  0  0  0  0  0  0  0  0  0  0
  -30.5570  -12.2630   18.9310 C   0  0  0  0  0  2  0  0  0  0  0  0
  -29.5730  -12.4710   17.7590 C   0  0  0  0  0  2  0  0  0  0  0  0
  -28.1100  -12.3470   18.2320 C   0  0  0  0  0  2  0  0  0  0  0  0
  -27.8260  -13.1870   19.5030 C   0  0  0  0  0  3  0  0  0  0  0  0
  -28.9080  -12.9340   20.5770 C   0  0  0  0  0  2  0  0  0  0  0  0
  -30.2190  -13.2400   19.9800 N   0  0  0  0  0  0  0  0  0  0  0  0
  -31.9780  -14.6090   19.5760 O   0  0  0  0  0  0  0  0  0  0  0  0
  -25.4640  -13.8600   20.2680 C   0  0  0  0  0  0  0  0  0  0  0  0
  -24.3870  -13.1180   20.6730 C   0  0  0  0  0  0  0  0  0  0  0  0
  -24.8160  -11.7560   20.6490 C   0  0  0  0  0  0  0  0  0  0  0  0
  -26.4810  -12.9500   20.0210 N   0  0  0  0  0  0  0  0  0  0  0  0
  -26.0960  -11.6800   20.3080 N   0  0  0  0  0  0  0  0  0  0  0  0
  -24.0660  -10.5130   20.8740 C   0  0  0  0  0  0  0  0  0  0  0  0
  -24.4860   -9.5580   21.8250 C   0  0  0  0  0  3  0  0  0  0  0  0
  -23.7370   -8.3800   22.0350 C   0  0  0  0  0  3  0  0  0  0  0  0
  -22.5550   -8.1500   21.2920 C   0  0  0  0  0  0  0  0  0  0  0  0
  -22.1550   -9.0930   20.3300 C   0  0  0  0  0  3  0  0  0  0  0  0
  -22.9030  -10.2620   20.1180 C   0  0  0  0  0  3  0  0  0  0  0  0
  -21.7780   -7.0230   21.4110 O   0  0  0  0  0  0  0  0  0  0  0  0
  -21.7040   -6.3200   22.5880 C   0  0  0  0  0  0  0  0  0  0  0  0
  -21.2800   -6.9260   23.7920 C   0  0  0  0  0  3  0  0  0  0  0  0
  -21.1510   -6.1530   24.9620 C   0  0  0  0  0  3  0  0  0  0  0  0
  -21.4340   -4.7740   24.9300 C   0  0  0  0  0  0  0  0  0  0  0  0
  -21.8520   -4.1670   23.7320 C   0  0  0  0  0  3  0  0  0  0  0  0
  -21.9840   -4.9380   22.5630 C   0  0  0  0  0  0  0  0  0  0  0  0
  -22.3650   -4.3450   21.4070 F   0  0  0  0  0  0  0  0  0  0  0  0
  -21.3020   -4.0280   26.0520 F   0  0  0  0  0  0  0  0  0  0  0  0
  -23.0090  -13.6320   20.9730 C   0  0  0  0  0  0  0  0  0  0  0  0
  -22.2900  -12.9670   21.8720 N   0  0  0  0  0  0  0  0  0  0  0  0
  -22.5770  -14.6570   20.4480 O   0  0  0  0  0  0  0  0  0  0  0  0
  -22.6530  -12.1390   22.3200 H   0  0  0  0  0  0  0  0  0  0  0  0
  -21.3660  -13.2920   22.1160 H   0  0  0  0  0  0  0  0  0  0  0  0
  -25.6570  -15.2230   20.0700 N   0  0  0  0  0  0  0  0  0  0  0  0
  -24.9120  -15.9010   20.1910 H   0  0  0  0  0  0  0  0  0  0  0  0
  -26.5160  -15.6360   19.7250 H   0  0  0  0  0  0  0  0  0  0  0  0
  -28.4950  -23.9120   20.0560 C   0  0  0  0  0  3  0  0  0  0  0  0
  -28.7280  -25.3350   19.3980 C   0  0  0  0  0  3  0  0  0  0  0  0
  -28.5270  -26.5230   20.2240 O   0  0  0  0  0  0  0  0  0  0  0  0
  -24.5840  -31.7420   23.1770 C   0  0  0  0  0  0  0  0  0  0  0  0
  -27.3450  -27.2620   20.1670 C   0  0  0  0  0  0  0  0  0  0  0  0
  -23.4390  -30.3310   21.5020 C   0  0  0  0  0  3  0  0  0  0  0  0
  -24.9440  -28.8000   20.1150 C   0  0  0  0  0  0  0  0  0  0  0  0
  -25.9740  -30.6860   21.3910 C   0  0  0  0  0  2  0  0  0  0  0  0
  -26.0830  -29.3140   20.7430 C   0  0  0  0  0  0  0  0  0  0  0  0
  -27.2830  -28.5500   20.7690 C   0  0  0  0  0  3  0  0  0  0  0  0
  -26.1730  -26.7730   19.5470 C   0  0  0  0  0  3  0  0  0  0  0  0
  -24.9870  -27.5310   19.5130 C   0  0  0  0  0  3  0  0  0  0  0  0
  -23.6940  -29.6550   20.1290 C   0  0  0  0  0  2  0  0  0  0  0  0
  -24.6820  -30.9370   22.0800 N   0  0  0  0  0  0  0  0  0  0  0  0
  -23.4830  -32.0110   23.6800 O   0  0  0  0  0  0  0  0  0  0  0  0
  -22.7650  -29.3060   22.4430 C   0  0  0  0  0  0  0  0  0  0  0  0
  -21.4420  -29.1310   22.2880 N   0  0  0  0  0  0  0  0  0  0  0  0
  -23.4290  -28.6730   23.2690 O   0  0  0  0  0  0  0  0  0  0  0  0
  -20.9690  -29.6930   21.5950 H   0  0  0  0  0  0  0  0  0  0  0  0
  -18.0510  -27.9560   22.7270 C   0  0  0  0  0  0  0  0  0  0  0  0
  -20.6060  -28.1910   23.0360 C   0  0  0  0  0  3  0  0  0  0  0  0
  -20.7060  -26.7670   22.4430 C   0  0  0  0  0  2  0  0  0  0  0  0
  -19.6150  -26.4660   21.4100 C   0  0  0  0  0  2  0  0  0  0  0  0
  -18.2260  -26.6130   22.0360 C   0  0  0  0  0  2  0  0  0  0  0  0
  -19.1690  -28.7040   23.1810 C   0  0  0  0  0  0  0  0  0  0  0  0
  -18.9520  -29.9620   23.7840 C   0  0  0  0  0  3  0  0  0  0  0  0
  -17.6480  -30.4720   23.9360 C   0  0  0  0  0  3  0  0  0  0  0  0
  -16.5450  -29.7200   23.4970 C   0  0  0  0  0  3  0  0  0  0  0  0
  -16.7470  -28.4630   22.9000 C   0  0  0  0  0  3  0  0  0  0  0  0
  -25.8460  -32.3810   23.8370 C   0  0  0  0  0  3  0  0  0  0  0  0
  -25.5140  -33.7750   24.1680 N   0  0  0  0  0  0  0  0  0  0  0  0
  -25.8460  -34.8340   23.4190 C   0  0  0  0  0  0  0  0  0  0  0  0
  -26.5350  -34.7430   22.3980 O   0  0  0  0  0  0  0  0  0  0  0  0
  -24.9030  -33.9190   24.9590 H   0  0  0  0  0  0  0  0  0  0  0  0
  -24.0940  -36.5980   23.0510 C   0  0  0  0  0  1  0  0  0  0  0  0
  -25.3340  -36.2140   23.8730 C   0  0  0  0  0  3  0  0  0  0  0  0
  -27.4480  -37.1290   24.7250 C   0  0  0  0  0  1  0  0  0  0  0  0
  -26.3520  -37.2820   23.7700 N   0  0  0  0  0  0  0  0  0  0  0  0
  -25.9320  -38.1970   23.9120 H   0  0  0  0  0  0  0  0  0  0  0  0
  -26.3380  -31.6070   25.1210 C   0  0  1  0  0  0  0  0  0  0  0  0
  -25.2190  -31.3510   26.1590 C   0  0  0  0  0  1  0  0  0  0  0  0
  -26.9430  -30.2370   24.7360 C   0  0  0  0  0  1  0  0  0  0  0  0
  -27.4650  -32.4070   25.8150 C   0  0  0  0  0  1  0  0  0  0  0  0
  1  2  2  0
  1  3  1  0
  2  4  1  0
  3  5  2  0
  4  6  2  0
  5  7  1  0
  6  5  1  0
  6 50  1  0
  7  8  1  0
  8  9  2  0
 10  8  1  0
 10 12  1  0
 12 11  1  0
 13 12  1  0
 14 13  1  0
 15 20  1  0
 16 17  1  0
 16 15  1  0
 18 17  1  0
 18 25  1  0
 18 19  1  0
 20 14  1  0
 20 19  1  0
 21 14  2  0
 22 23  2  0
 23 42  1  0
 24 23  1  0
 24 27  1  0
 25 22  1  0
 25 26  1  0
 26 24  2  0
 27 28  1  0
 28 29  2  0
 30 33  1  0
 30 29  1  0
 31 30  2  0
 32 31  1  0
 32 27  2  0
 33 34  1  0
 34 35  1  0
 35 36  2  0
 37 36  1  0
 37 41  1  0
 38 37  2  0
 39 34  2  0
 39 38  1  0
 40 39  1  0
 42 43  1  0
 43 46  1  0
 43 45  1  0
 44 42  2  0
 47 48  1  0
 47 22  1  0
 49 47  1  0
 51 50  2  0
 51 52  1  0
 53 64  2  0
 54 52  1  0
 54 59  1  0
 55 63  1  0
 55 65  1  0
 56 62  1  0
 56 58  1  0
 57 63  1  0
 58 59  2  0
 58 57  1  0
 60 54  2  0
 61 60  1  0
 61 56  2  0
 62 55  1  0
 63 53  1  0
 65 67  2  0
 66 65  1  0
 68 66  1  0
 69 78  2  0
 69 74  1  0
 70 66  1  0
 70 74  1  0
 71 70  1  0
 72 73  1  0
 72 71  1  0
 73 69  1  0
 74 75  2  0
 75 76  1  0
 77 76  2  0
 78 77  1  0
 79 53  1  0
 79 80  1  0
 79 89  1  0
 80 83  1  0
 81 85  1  0
 81 80  1  0
 82 81  2  0
 85 84  1  0
 87 85  1  0
 87 88  1  0
 87 86  1  0
 89 92  1  1
 89 90  1  0
 91 89  1  0
M  ISO  4  13 100  14 100  51 101  52 101
M  END
>  <TORSDO>  (73) 
F 23

>  <SCORE>  (73) 
-10.726

>  <name>  (73) 
73

>  <ligand_id>  (73) 
73

>  <original_smiles>  (73) 
[H]c1c([H])c([H])c(C([H])([H])C([H])([H])Oc2c([H])c([H])c3c(c2[H])C([H])([H])N(C(=O)C([H])(N([H])C(=O)C([H])(N([H])C([H])([H])[H])C([H])([H])[H])C(C([H])([H])[H])(C([H])([H])[H])C([H])([H])[H])C([H])(C(=O)N([H])C2([H])c4c([H])c([H])c([H])c([H])c4C([H])([H])C([H])([H])C2([H])[H])C3([H])[H])c(C([H])([H])C(=O)C([H])([H])C([H])(C([H])([H])[H])C([H])([H])C(=O)N2C([H])([H])C([H])([H])C([H])([H])C([H])(n3nc(-c4c([H])c([H])c(Oc5c([H])c([H])c(F)c([H])c5F)c([H])c4[H])c(C(=O)N([H])[H])c3N([H])[H])C2([H])[H])c1[H]

>  <smiles>  (73) 
[H]c1c([H])c([H])c(C([H])([H])C([H])([H])Oc2c([H])c([H])c3c(c2[H])C([H])([H])N(C(=O)C([H])(N([H])C(=O)C([H])(N([H])C([H])([H])[H])C([H])([H])[H])C(C([H])([H])[H])(C([H])([H])[H])C([H])([H])[H])C([H])(C(=O)N([H])C2([H])c4c([H])c([H])c([H])c([H])c4C([H])([H])C([H])([H])C2([H])[H])C3([H])[H])c(C([H])([H])C(=O)C([H])([H])C([H])(C([H])([H])[H])C([H])([H])C(=O)N2C([H])([H])C([H])([H])C([H])([H])C([H])(n3nc(-c4c([H])c([H])c(Oc5c([H])c([H])c(F)c([H])c5F)c([H])c4[H])c(C(=O)N([H])[H])c3N([H])[H])C2([H])[H])c1[H]

$$$$
74:0:0
     RDKit          3D

 87 95  0  0  1  0  0  0  0  0999 V2000
  -29.7970  -21.2820   21.4050 C   0  0  0  0  0  2  0  0  0  0  0  0
  -29.1630  -20.6550   20.3940 C   0  0  0  0  0  3  0  0  0  0  0  0
  -29.6030  -22.7780   21.4040 C   0  0  0  0  0  0  0  0  0  0  0  0
  -28.4320  -21.8370   19.6100 C   0  0  0  0  0  2  0  0  0  0  0  0
  -28.9110  -23.3160   20.1320 C   0  0  0  0  0  3  0  0  0  0  0  0
  -29.9760  -23.5320   22.3040 O   0  0  0  0  0  0  0  0  0  0  0  0
  -29.0420  -19.1030   20.2110 C   0  0  0  0  0  3  0  0  0  0  0  0
  -29.8480  -17.9680   20.4930 C   0  0  0  0  0  3  0  0  0  0  0  0
  -29.4970  -16.3610   20.3490 C   0  0  0  0  0  2  0  0  0  0  0  0
  -30.4440  -14.9940   20.2690 C   0  0  0  0  0  0  0  0  0  0  0  0
  -30.3780  -12.6370   19.3360 C   0  0  0  0  0  2  0  0  0  0  0  0
  -29.4280  -12.6250   18.1130 C   0  0  0  0  0  2  0  0  0  0  0  0
  -27.9630  -12.4110   18.5500 C   0  0  0  0  0  2  0  0  0  0  0  0
  -27.5720  -13.3070   19.7530 C   0  0  0  0  0  3  0  0  0  0  0  0
  -28.6420  -13.2820   20.8640 C   0  0  0  0  0  2  0  0  0  0  0  0
  -29.9130  -13.7040   20.2620 N   0  0  0  0  0  0  0  0  0  0  0  0
  -31.6470  -15.1010   20.0020 O   0  0  0  0  0  0  0  0  0  0  0  0
  -25.1930  -13.8680   20.5150 C   0  0  0  0  0  0  0  0  0  0  0  0
  -24.1370  -13.0840   20.8890 C   0  0  0  0  0  0  0  0  0  0  0  0
  -24.6100  -11.7370   20.8510 C   0  0  0  0  0  0  0  0  0  0  0  0
  -26.2400  -12.9980   20.2630 N   0  0  0  0  0  0  0  0  0  0  0  0
  -25.9000  -11.7100   20.5310 N   0  0  0  0  0  0  0  0  0  0  0  0
  -23.8940  -10.4690   21.0430 C   0  0  0  0  0  0  0  0  0  0  0  0
  -24.3430   -9.4990   21.9680 C   0  0  0  0  0  3  0  0  0  0  0  0
  -23.6250   -8.2970   22.1480 C   0  0  0  0  0  3  0  0  0  0  0  0
  -22.4450   -8.0550   21.4050 C   0  0  0  0  0  0  0  0  0  0  0  0
  -22.0150   -9.0140   20.4710 C   0  0  0  0  0  3  0  0  0  0  0  0
  -22.7330  -10.2080   20.2880 C   0  0  0  0  0  3  0  0  0  0  0  0
  -21.6960   -6.9070   21.4970 O   0  0  0  0  0  0  0  0  0  0  0  0
  -21.6660   -6.1580   22.6460 C   0  0  0  0  0  0  0  0  0  0  0  0
  -21.2510   -6.7040   23.8800 C   0  0  0  0  0  3  0  0  0  0  0  0
  -21.1690   -5.8810   25.0210 C   0  0  0  0  0  3  0  0  0  0  0  0
  -21.4900   -4.5140   24.9280 C   0  0  0  0  0  0  0  0  0  0  0  0
  -21.8970   -3.9670   23.6990 C   0  0  0  0  0  3  0  0  0  0  0  0
  -21.9830   -4.7860   22.5600 C   0  0  0  0  0  0  0  0  0  0  0  0
  -22.3560   -4.2510   21.3730 F   0  0  0  0  0  0  0  0  0  0  0  0
  -21.4030   -3.7210   26.0220 F   0  0  0  0  0  0  0  0  0  0  0  0
  -22.7370  -13.5490   21.1720 C   0  0  0  0  0  0  0  0  0  0  0  0
  -22.0230  -12.8510   22.0470 N   0  0  0  0  0  0  0  0  0  0  0  0
  -22.2870  -14.5710   20.6530 O   0  0  0  0  0  0  0  0  0  0  0  0
  -22.4010  -12.0250   22.4880 H   0  0  0  0  0  0  0  0  0  0  0  0
  -21.0860  -13.1440   22.2820 H   0  0  0  0  0  0  0  0  0  0  0  0
  -25.3440  -15.2410   20.3410 N   0  0  0  0  0  0  0  0  0  0  0  0
  -24.5720  -15.8880   20.4610 H   0  0  0  0  0  0  0  0  0  0  0  0
  -26.1930  -15.6910   20.0230 H   0  0  0  0  0  0  0  0  0  0  0  0
  -27.9070  -24.6810   20.1910 C   0  0  0  0  0  2  0  0  0  0  0  0
  -28.2220  -26.2070   20.2930 O   0  0  0  0  0  0  0  0  0  0  0  0
  -24.6360  -31.9390   23.2640 C   0  0  0  0  0  0  0  0  0  0  0  0
  -27.1710  -27.1980   20.2390 C   0  0  0  0  0  0  0  0  0  0  0  0
  -23.4240  -30.5540   21.6280 C   0  0  0  0  0  3  0  0  0  0  0  0
  -24.8570  -28.9680   20.2080 C   0  0  0  0  0  0  0  0  0  0  0  0
  -25.9810  -30.7900   21.4710 C   0  0  0  0  0  2  0  0  0  0  0  0
  -26.0420  -29.3990   20.8170 C   0  0  0  0  0  0  0  0  0  0  0  0
  -27.1980  -28.5310   20.8170 C   0  0  0  0  0  3  0  0  0  0  0  0
  -25.9550  -26.8690   19.5960 C   0  0  0  0  0  3  0  0  0  0  0  0
  -24.8270  -27.7150   19.5830 C   0  0  0  0  0  3  0  0  0  0  0  0
  -23.6410  -29.8800   20.2490 C   0  0  0  0  0  2  0  0  0  0  0  0
  -24.7000  -31.1150   22.1760 N   0  0  0  0  0  0  0  0  0  0  0  0
  -23.5520  -32.2380   23.7910 O   0  0  0  0  0  0  0  0  0  0  0  0
  -22.7370  -29.5510   22.5900 C   0  0  0  0  0  0  0  0  0  0  0  0
  -21.4090  -29.3900   22.4640 N   0  0  0  0  0  0  0  0  0  0  0  0
  -23.4050  -28.9210   23.4150 O   0  0  0  0  0  0  0  0  0  0  0  0
  -20.9280  -29.9540   21.7790 H   0  0  0  0  0  0  0  0  0  0  0  0
  -18.0160  -28.2190   22.9630 C   0  0  0  0  0  0  0  0  0  0  0  0
  -20.5770  -28.4630   23.2390 C   0  0  0  0  0  3  0  0  0  0  0  0
  -20.6670  -27.0250   22.6750 C   0  0  0  0  0  2  0  0  0  0  0  0
  -19.5670  -26.7040   21.6590 C   0  0  0  0  0  2  0  0  0  0  0  0
  -18.1850  -26.8640   22.2980 C   0  0  0  0  0  2  0  0  0  0  0  0
  -19.1400  -28.9770   23.3910 C   0  0  0  0  0  0  0  0  0  0  0  0
  -18.9280  -30.2440   23.9770 C   0  0  0  0  0  3  0  0  0  0  0  0
  -17.6270  -30.7550   24.1380 C   0  0  0  0  0  3  0  0  0  0  0  0
  -16.5180  -29.9950   23.7270 C   0  0  0  0  0  3  0  0  0  0  0  0
  -16.7130  -28.7300   23.1450 C   0  0  0  0  0  3  0  0  0  0  0  0
  -25.9190  -32.5690   23.8860 C   0  0  0  0  0  3  0  0  0  0  0  0
  -26.4290  -31.7960   25.1660 C   0  0  1  0  0  0  0  0  0  0  0  0
  -25.3340  -31.5670   26.2350 C   0  0  0  0  0  1  0  0  0  0  0  0
  -27.0040  -30.4130   24.7820 C   0  0  0  0  0  1  0  0  0  0  0  0
  -27.5840  -32.5860   25.8260 C   0  0  0  0  0  1  0  0  0  0  0  0
  -25.6150  -33.9680   24.2220 N   0  0  0  0  0  0  0  0  0  0  0  0
  -25.9300  -35.0240   23.4600 C   0  0  0  0  0  0  0  0  0  0  0  0
  -26.5750  -34.9220   22.4130 O   0  0  0  0  0  0  0  0  0  0  0  0
  -25.0360  -34.1190   25.0350 H   0  0  0  0  0  0  0  0  0  0  0  0
  -24.1830  -36.8140   23.1690 C   0  0  0  0  0  1  0  0  0  0  0  0
  -25.4550  -36.4120   23.9320 C   0  0  0  0  0  3  0  0  0  0  0  0
  -27.6190  -37.3070   24.6780 C   0  0  0  0  0  1  0  0  0  0  0  0
  -26.4790  -37.4700   23.7780 N   0  0  0  0  0  0  0  0  0  0  0  0
  -26.0760  -38.3880   23.9400 H   0  0  0  0  0  0  0  0  0  0  0  0
  2  7  1  0
  2  1  1  0
  3  1  1  0
  3  6  2  0
  4  5  1  0
  4  2  1  0
  5 46  1  0
  5  3  1  0
  7  8  2  0
  9  8  1  0
 10  9  1  0
 11 16  1  0
 12 13  1  0
 12 11  1  0
 14 13  1  0
 14 21  1  0
 14 15  1  0
 16 10  1  0
 16 15  1  0
 17 10  2  0
 18 19  2  0
 19 38  1  0
 20 19  1  0
 20 23  1  0
 21 18  1  0
 21 22  1  0
 22 20  2  0
 23 24  1  0
 24 25  2  0
 26 29  1  0
 26 25  1  0
 27 26  2  0
 28 27  1  0
 28 23  2  0
 29 30  1  0
 30 31  1  0
 31 32  2  0
 33 32  1  0
 33 37  1  0
 34 33  2  0
 35 30  2  0
 35 34  1  0
 36 35  1  0
 38 39  1  0
 39 42  1  0
 39 41  1  0
 40 38  2  0
 43 44  1  0
 43 18  1  0
 45 43  1  0
 46 47  1  0
 48 59  2  0
 49 47  1  0
 49 54  1  0
 50 58  1  0
 50 60  1  0
 51 57  1  0
 51 53  1  0
 52 58  1  0
 53 52  1  0
 54 53  2  0
 55 49  2  0
 56 55  1  0
 56 51  2  0
 57 50  1  0
 58 48  1  0
 60 62  2  0
 61 60  1  0
 63 61  1  0
 64 73  2  0
 64 69  1  0
 65 61  1  0
 65 69  1  0
 66 65  1  0
 67 68  1  0
 67 66  1  0
 68 64  1  0
 69 70  2  0
 70 71  1  0
 72 71  2  0
 73 72  1  0
 74 48  1  0
 74 79  1  0
 74 75  1  0
 75 78  1  1
 75 76  1  0
 77 75  1  0
 79 82  1  0
 80 84  1  0
 80 79  1  0
 81 80  2  0
 84 83  1  0
 86 84  1  0
 86 87  1  0
 86 85  1  0
M  ISO  4   9 100  10 100  46 101  47 101
M  END
>  <TORSDO>  (74) 
F 19

>  <SCORE>  (74) 
-14.878

>  <name>  (74) 
74

>  <ligand_id>  (74) 
74

>  <original_smiles>  (74) 
[H]C(=C([H])C([H])([H])C(=O)N1C([H])([H])C([H])([H])C([H])([H])C([H])(n2nc(-c3c([H])c([H])c(Oc4c([H])c([H])c(F)c([H])c4F)c([H])c3[H])c(C(=O)N([H])[H])c2N([H])[H])C1([H])[H])C1=C([H])C(=O)C([H])(C([H])([H])Oc2c([H])c([H])c3c(c2[H])C([H])([H])N(C(=O)C([H])(N([H])C(=O)C([H])(N([H])C([H])([H])[H])C([H])([H])[H])C(C([H])([H])[H])(C([H])([H])[H])C([H])([H])[H])C([H])(C(=O)N([H])C2([H])c4c([H])c([H])c([H])c([H])c4C([H])([H])C([H])([H])C2([H])[H])C3([H])[H])C1([H])[H]

>  <smiles>  (74) 
[H]C(=C([H])C([H])([H])C(=O)N1C([H])([H])C([H])([H])C([H])([H])C([H])(n2nc(-c3c([H])c([H])c(Oc4c([H])c([H])c(F)c([H])c4F)c([H])c3[H])c(C(=O)N([H])[H])c2N([H])[H])C1([H])[H])C1=C([H])C(=O)C([H])(C([H])([H])Oc2c([H])c([H])c3c(c2[H])C([H])([H])N(C(=O)C([H])(N([H])C(=O)C([H])(N([H])C([H])([H])[H])C([H])([H])[H])C(C([H])([H])[H])(C([H])([H])[H])C([H])([H])[H])C([H])(C(=O)N([H])C2([H])c4c([H])c([H])c([H])c([H])c4C([H])([H])C([H])([H])C2([H])[H])C3([H])[H])C1([H])[H]

$$$$
75:0:0
     RDKit          3D

 89 98  0  0  1  0  0  0  0  0999 V2000
  -29.1120  -19.1960   20.3700 C   0  0  0  0  0  0  0  0  0  0  0  0
  -29.3560  -20.5430   20.0100 N   0  0  0  0  0  0  0  0  0  0  0  0
  -28.1470  -18.9750   21.1020 O   0  0  0  0  0  0  0  0  0  0  0  0
  -30.1710  -20.6860   19.4270 H   0  0  0  0  0  0  0  0  0  0  0  0
  -31.0790  -17.4600   22.2650 C   0  0  0  0  0  2  0  0  0  0  0  0
  -30.0630  -16.3360   22.1150 C   0  0  0  0  0  2  0  0  0  0  0  0
  -29.9890  -17.9280   19.8750 C   0  0  0  0  0  3  0  0  0  0  0  0
  -31.1540  -17.5740   20.7600 C   0  0  0  0  0  3  0  0  0  0  0  0
  -30.1570  -16.4230   20.5930 C   0  0  2  0  0  0  0  0  0  0  0  0
  -30.8120  -15.0480   19.9870 C   0  0  0  0  0  0  0  0  0  0  0  0
  -30.5710  -12.7440   18.9450 C   0  0  0  0  0  2  0  0  0  0  0  0
  -29.5620  -12.7780   17.7710 C   0  0  0  0  0  2  0  0  0  0  0  0
  -28.1240  -12.5690   18.2820 C   0  0  0  0  0  2  0  0  0  0  0  0
  -27.8100  -13.4440   19.5210 C   0  0  0  0  0  3  0  0  0  0  0  0
  -28.9320  -13.3760   20.5750 C   0  0  0  0  0  2  0  0  0  0  0  0
  -30.1820  -13.8020   19.9270 N   0  0  0  0  0  0  0  0  0  0  0  0
  -31.9430  -15.0950   19.4880 O   0  0  0  0  0  0  0  0  0  0  0  0
  -25.4920  -14.0150   20.4440 C   0  0  0  0  0  0  0  0  0  0  0  0
  -24.4480  -13.2370   20.8590 C   0  0  0  0  0  0  0  0  0  0  0  0
  -24.8930  -11.8830   20.7440 C   0  0  0  0  0  0  0  0  0  0  0  0
  -26.5050  -13.1380   20.0970 N   0  0  0  0  0  0  0  0  0  0  0  0
  -26.1590  -11.8480   20.3420 N   0  0  0  0  0  0  0  0  0  0  0  0
  -24.1670  -10.6210   20.9380 C   0  0  0  0  0  0  0  0  0  0  0  0
  -24.5880   -9.6600   21.8830 C   0  0  0  0  0  3  0  0  0  0  0  0
  -23.8600   -8.4640   22.0630 C   0  0  0  0  0  3  0  0  0  0  0  0
  -22.6950   -8.2200   21.2970 C   0  0  0  0  0  0  0  0  0  0  0  0
  -22.2930   -9.1700   20.3410 C   0  0  0  0  0  3  0  0  0  0  0  0
  -23.0220  -10.3560   20.1600 C   0  0  0  0  0  3  0  0  0  0  0  0
  -21.9390   -7.0760   21.3850 O   0  0  0  0  0  0  0  0  0  0  0  0
  -21.7820   -6.4070   22.5720 C   0  0  0  0  0  0  0  0  0  0  0  0
  -21.2290   -7.0300   23.7130 C   0  0  0  0  0  3  0  0  0  0  0  0
  -21.0220   -6.2860   24.8910 C   0  0  0  0  0  3  0  0  0  0  0  0
  -21.3580   -4.9200   24.9290 C   0  0  0  0  0  0  0  0  0  0  0  0
  -21.9030   -4.2960   23.7940 C   0  0  0  0  0  3  0  0  0  0  0  0
  -22.1120   -5.0370   22.6170 C   0  0  0  0  0  0  0  0  0  0  0  0
  -22.6190   -4.4260   21.5200 F   0  0  0  0  0  0  0  0  0  0  0  0
  -21.1530   -4.2020   26.0590 F   0  0  0  0  0  0  0  0  0  0  0  0
  -23.0770  -13.7150   21.2440 C   0  0  0  0  0  0  0  0  0  0  0  0
  -22.4070  -12.9980   22.1380 N   0  0  0  0  0  0  0  0  0  0  0  0
  -22.6130  -14.7580   20.7870 O   0  0  0  0  0  0  0  0  0  0  0  0
  -22.7970  -12.1550   22.5320 H   0  0  0  0  0  0  0  0  0  0  0  0
  -21.4890  -13.2980   22.4370 H   0  0  0  0  0  0  0  0  0  0  0  0
  -25.6590  -15.3910   20.3110 N   0  0  0  0  0  0  0  0  0  0  0  0
  -24.9170  -16.0510   20.5170 H   0  0  0  0  0  0  0  0  0  0  0  0
  -26.5000  -15.8370   19.9660 H   0  0  0  0  0  0  0  0  0  0  0  0
  -28.4780  -21.8290   20.2590 C   0  0  0  0  0  2  0  0  0  0  0  0
  -28.9810  -23.4250   20.1430 C   0  0  0  0  0  3  0  0  0  0  0  0
  -27.9210  -24.7210   20.0770 C   0  0  0  0  0  3  0  0  0  0  0  0
  -28.2190  -26.2430   20.1440 O   0  0  0  0  0  0  0  0  0  0  0  0
  -24.5480  -31.8510   23.1880 C   0  0  0  0  0  0  0  0  0  0  0  0
  -27.1490  -27.2050   20.1000 C   0  0  0  0  0  0  0  0  0  0  0  0
  -23.3480  -30.4530   21.5530 C   0  0  0  0  0  3  0  0  0  0  0  0
  -24.8000  -28.9120   20.1030 C   0  0  0  0  0  0  0  0  0  0  0  0
  -25.8960  -30.7560   21.3630 C   0  0  0  0  0  2  0  0  0  0  0  0
  -25.9800  -29.3710   20.7010 C   0  0  0  0  0  0  0  0  0  0  0  0
  -27.1580  -28.5350   20.6820 C   0  0  0  0  0  3  0  0  0  0  0  0
  -25.9370  -26.8450   19.4660 C   0  0  0  0  0  3  0  0  0  0  0  0
  -24.7900  -27.6620   19.4700 C   0  0  0  0  0  3  0  0  0  0  0  0
  -23.5620  -29.7910   20.1670 C   0  0  0  0  0  2  0  0  0  0  0  0
  -24.6180  -31.0410   22.0900 N   0  0  0  0  0  0  0  0  0  0  0  0
  -23.4640  -32.1190   23.7290 O   0  0  0  0  0  0  0  0  0  0  0  0
  -22.6930  -29.4290   22.5130 C   0  0  0  0  0  0  0  0  0  0  0  0
  -21.3710  -29.2200   22.3770 N   0  0  0  0  0  0  0  0  0  0  0  0
  -23.3750  -28.8230   23.3430 O   0  0  0  0  0  0  0  0  0  0  0  0
  -20.8750  -29.7600   21.6820 H   0  0  0  0  0  0  0  0  0  0  0  0
  -18.0240  -27.9150   22.8410 C   0  0  0  0  0  0  0  0  0  0  0  0
  -20.5690  -28.2670   23.1470 C   0  0  0  0  0  3  0  0  0  0  0  0
  -20.7270  -26.8310   22.5930 C   0  0  0  0  0  2  0  0  0  0  0  0
  -19.6540  -26.4580   21.5660 C   0  0  0  0  0  2  0  0  0  0  0  0
  -18.2570  -26.5650   22.1850 C   0  0  0  0  0  2  0  0  0  0  0  0
  -19.1090  -28.7210   23.2780 C   0  0  0  0  0  0  0  0  0  0  0  0
  -18.8370  -29.9820   23.8530 C   0  0  0  0  0  3  0  0  0  0  0  0
  -17.5130  -30.4390   23.9930 C   0  0  0  0  0  3  0  0  0  0  0  0
  -16.4420  -29.6310   23.5700 C   0  0  0  0  0  3  0  0  0  0  0  0
  -16.6990  -28.3720   23.0000 C   0  0  0  0  0  3  0  0  0  0  0  0
  -25.8240  -32.4970   23.8070 C   0  0  0  0  0  3  0  0  0  0  0  0
  -26.3600  -31.7210   25.0730 C   0  0  1  0  0  0  0  0  0  0  0  0
  -25.2760  -31.4550   26.1440 C   0  0  0  0  0  1  0  0  0  0  0  0
  -26.9630  -30.3580   24.6670 C   0  0  0  0  0  1  0  0  0  0  0  0
  -27.5020  -32.5270   25.7370 C   0  0  0  0  0  1  0  0  0  0  0  0
  -25.4980  -33.8890   24.1580 N   0  0  0  0  0  0  0  0  0  0  0  0
  -25.7940  -34.9570   23.4050 C   0  0  0  0  0  0  0  0  0  0  0  0
  -26.4410  -34.8740   22.3580 O   0  0  0  0  0  0  0  0  0  0  0  0
  -24.9210  -34.0250   24.9750 H   0  0  0  0  0  0  0  0  0  0  0  0
  -24.0300  -36.7270   23.1170 C   0  0  0  0  0  1  0  0  0  0  0  0
  -25.2980  -36.3320   23.8900 C   0  0  0  0  0  3  0  0  0  0  0  0
  -27.4360  -37.2470   24.6790 C   0  0  0  0  0  1  0  0  0  0  0  0
  -26.3100  -37.4030   23.7630 N   0  0  0  0  0  0  0  0  0  0  0  0
  -25.8920  -38.3160   23.9280 H   0  0  0  0  0  0  0  0  0  0  0  0
  1  3  2  0
  2 46  1  0
  2  1  1  0
  4  2  1  0
  6  5  1  0
  7  1  1  0
  7  9  1  0
  7  8  1  0
  8  5  1  0
  9 10  1  6
  9  8  1  0
  9  6  1  0
 11 16  1  0
 12 13  1  0
 12 11  1  0
 14 13  1  0
 14 21  1  0
 14 15  1  0
 16 10  1  0
 16 15  1  0
 17 10  2  0
 18 19  2  0
 19 38  1  0
 20 19  1  0
 20 23  1  0
 21 22  1  0
 21 18  1  0
 22 20  2  0
 23 24  1  0
 24 25  2  0
 26 29  1  0
 26 25  1  0
 27 26  2  0
 28 27  1  0
 28 23  2  0
 29 30  1  0
 30 35  2  0
 30 31  1  0
 31 32  2  0
 32 33  1  0
 33 37  1  0
 34 33  2  0
 35 34  1  0
 36 35  1  0
 38 39  1  0
 39 42  1  0
 39 41  1  0
 40 38  2  0
 43 18  1  0
 43 44  1  0
 45 43  1  0
 47 46  1  0
 48 47  2  0
 48 49  1  0
 50 61  2  0
 51 49  1  0
 51 56  1  0
 52 60  1  0
 52 62  1  0
 53 59  1  0
 53 55  1  0
 54 60  1  0
 55 54  1  0
 56 55  2  0
 57 58  1  0
 57 51  2  0
 58 53  2  0
 59 52  1  0
 60 50  1  0
 62 64  2  0
 63 62  1  0
 65 63  1  0
 66 75  2  0
 66 71  1  0
 67 63  1  0
 67 71  1  0
 68 67  1  0
 69 70  1  0
 69 68  1  0
 70 66  1  0
 71 72  2  0
 72 73  1  0
 74 73  2  0
 75 74  1  0
 76 50  1  0
 76 81  1  0
 76 77  1  0
 77 80  1  1
 77 78  1  0
 79 77  1  0
 81 84  1  0
 82 86  1  0
 82 81  1  0
 83 82  2  0
 86 85  1  0
 88 86  1  0
 88 89  1  0
 88 87  1  0
M  ISO  4   9 100  10 100  48 101  49 101
M  END
>  <TORSDO>  (75) 
F 20

>  <SCORE>  (75) 
-13.011

>  <name>  (75) 
75

>  <ligand_id>  (75) 
75

>  <original_smiles>  (75) 
[H]c1c([H])c([H])c2c(c1[H])C([H])([H])C([H])([H])C([H])([H])C2([H])N([H])C(=O)C1([H])N(C(=O)C([H])(N([H])C(=O)C([H])(N([H])C([H])([H])[H])C([H])([H])[H])C(C([H])([H])[H])(C([H])([H])[H])C([H])([H])[H])C([H])([H])c2c([H])c(OC([H])([H])C([H])([H])C([H])([H])N([H])C(=O)C3([H])C4([H])C([H])([H])C([H])([H])C34C(=O)N3C([H])([H])C([H])([H])C([H])([H])C([H])(n4nc(-c5c([H])c([H])c(Oc6c([H])c([H])c(F)c([H])c6F)c([H])c5[H])c(C(=O)N([H])[H])c4N([H])[H])C3([H])[H])c([H])c([H])c2C1([H])[H]

>  <smiles>  (75) 
[H]c1c([H])c([H])c2c(c1[H])C([H])([H])C([H])([H])C([H])([H])C2([H])N([H])C(=O)C1([H])N(C(=O)C([H])(N([H])C(=O)C([H])(N([H])C([H])([H])[H])C([H])([H])[H])C(C([H])([H])[H])(C([H])([H])[H])C([H])([H])[H])C([H])([H])c2c([H])c(OC([H])([H])C([H])([H])C([H])([H])N([H])C(=O)C3([H])C4([H])C([H])([H])C([H])([H])C34C(=O)N3C([H])([H])C([H])([H])C([H])([H])C([H])(n4nc(-c5c([H])c([H])c(Oc6c([H])c([H])c(F)c([H])c6F)c([H])c5[H])c(C(=O)N([H])[H])c4N([H])[H])C3([H])[H])c([H])c([H])c2C1([H])[H]

$$$$
76:0:0
     RDKit          3D

 90 98  0  0  1  0  0  0  0  0999 V2000
  -31.2730  -21.9560   21.7420 C   0  0  0  0  0  2  0  0  0  0  0  0
  -29.1540  -18.9870   20.7990 C   0  0  0  0  0  3  0  0  0  0  0  0
  -29.2660  -20.3620   21.1480 C   0  0  0  0  0  3  0  0  0  0  0  0
  -30.4090  -18.4480   20.7720 C   0  0  0  0  0  0  0  0  0  0  0  0
  -30.5880  -20.6610   21.3390 C   0  0  0  0  0  0  0  0  0  0  0  0
  -32.7410  -19.3010   21.2860 C   0  0  0  0  0  1  0  0  0  0  0  0
  -31.2960  -19.4680   21.1390 N   0  0  0  0  0  0  0  0  0  0  0  0
  -30.8750  -17.1260   20.4240 C   0  0  0  0  0  3  0  0  0  0  0  0
  -30.2130  -15.9420   20.3310 C   0  0  0  0  0  3  0  0  0  0  0  0
  -30.9180  -14.7410   19.8500 C   0  0  0  0  0  0  0  0  0  0  0  0
  -30.6130  -12.4560   18.9700 C   0  0  0  0  0  2  0  0  0  0  0  0
  -29.6130  -12.4940   17.7970 C   0  0  0  0  0  2  0  0  0  0  0  0
  -28.1690  -12.3460   18.3130 C   0  0  0  0  0  2  0  0  0  0  0  0
  -27.8580  -13.3060   19.4940 C   0  0  0  0  0  3  0  0  0  0  0  0
  -28.9760  -13.2580   20.5600 C   0  0  0  0  0  2  0  0  0  0  0  0
  -30.2550  -13.5470   19.8970 N   0  0  0  0  0  0  0  0  0  0  0  0
  -32.0140  -14.8280   19.2910 O   0  0  0  0  0  0  0  0  0  0  0  0
  -25.5460  -13.9220   20.4350 C   0  0  0  0  0  0  0  0  0  0  0  0
  -24.4930  -13.1550   20.8590 C   0  0  0  0  0  0  0  0  0  0  0  0
  -24.9180  -11.7960   20.7250 C   0  0  0  0  0  0  0  0  0  0  0  0
  -26.5450  -13.0320   20.0730 N   0  0  0  0  0  0  0  0  0  0  0  0
  -26.1750  -11.7460   20.3020 N   0  0  0  0  0  0  0  0  0  0  0  0
  -24.1790  -10.5410   20.9170 C   0  0  0  0  0  0  0  0  0  0  0  0
  -24.6030   -9.5700   21.8530 C   0  0  0  0  0  3  0  0  0  0  0  0
  -23.8640   -8.3810   22.0350 C   0  0  0  0  0  3  0  0  0  0  0  0
  -22.6890   -8.1530   21.2800 C   0  0  0  0  0  0  0  0  0  0  0  0
  -22.2830   -9.1120   20.3340 C   0  0  0  0  0  3  0  0  0  0  0  0
  -23.0220  -10.2920   20.1510 C   0  0  0  0  0  3  0  0  0  0  0  0
  -21.9270   -7.0140   21.3670 O   0  0  0  0  0  0  0  0  0  0  0  0
  -21.7720   -6.3400   22.5530 C   0  0  0  0  0  0  0  0  0  0  0  0
  -21.2050   -6.9550   23.6900 C   0  0  0  0  0  3  0  0  0  0  0  0
  -21.0000   -6.2070   24.8660 C   0  0  0  0  0  3  0  0  0  0  0  0
  -21.3530   -4.8440   24.9060 C   0  0  0  0  0  0  0  0  0  0  0  0
  -21.9130   -4.2290   23.7720 C   0  0  0  0  0  3  0  0  0  0  0  0
  -22.1180   -4.9750   22.5980 C   0  0  0  0  0  0  0  0  0  0  0  0
  -22.6380   -4.3720   21.5020 F   0  0  0  0  0  0  0  0  0  0  0  0
  -21.1490   -4.1230   26.0320 F   0  0  0  0  0  0  0  0  0  0  0  0
  -23.1370  -13.6480   21.2740 C   0  0  0  0  0  0  0  0  0  0  0  0
  -22.4720  -12.9340   22.1760 N   0  0  0  0  0  0  0  0  0  0  0  0
  -22.6770  -14.7000   20.8350 O   0  0  0  0  0  0  0  0  0  0  0  0
  -22.8580  -12.0810   22.5550 H   0  0  0  0  0  0  0  0  0  0  0  0
  -21.5670  -13.2470   22.4960 H   0  0  0  0  0  0  0  0  0  0  0  0
  -25.7270  -15.2950   20.3120 N   0  0  0  0  0  0  0  0  0  0  0  0
  -24.9870  -15.9570   20.5220 H   0  0  0  0  0  0  0  0  0  0  0  0
  -26.5580  -15.7340   19.9340 H   0  0  0  0  0  0  0  0  0  0  0  0
  -30.3920  -23.2230   21.9650 C   0  0  0  0  0  2  0  0  0  0  0  0
  -30.3690  -24.2490   20.7940 C   0  0  0  0  0  2  0  0  0  0  0  0
  -30.7210  -25.7170   21.1800 C   0  0  0  0  0  2  0  0  0  0  0  0
  -29.5340  -26.6910   21.3730 C   0  0  0  0  0  2  0  0  0  0  0  0
  -28.9110  -26.9590   20.1170 O   0  0  0  0  0  0  0  0  0  0  0  0
  -24.6410  -31.8060   23.2090 C   0  0  0  0  0  0  0  0  0  0  0  0
  -27.7200  -27.6510   20.1480 C   0  0  0  0  0  0  0  0  0  0  0  0
  -23.6030  -30.3670   21.4840 C   0  0  0  0  0  3  0  0  0  0  0  0
  -25.2200  -28.9720   20.0860 C   0  0  0  0  0  0  0  0  0  0  0  0
  -26.0970  -30.9120   21.3980 C   0  0  0  0  0  2  0  0  0  0  0  0
  -26.3080  -29.5620   20.7430 C   0  0  0  0  0  0  0  0  0  0  0  0
  -27.5600  -28.9060   20.7820 C   0  0  0  0  0  3  0  0  0  0  0  0
  -26.6210  -27.0820   19.4750 C   0  0  0  0  0  3  0  0  0  0  0  0
  -25.3690  -27.7270   19.4530 C   0  0  0  0  0  3  0  0  0  0  0  0
  -23.9160  -29.7360   20.0990 C   0  0  0  0  0  2  0  0  0  0  0  0
  -24.7950  -31.0440   22.0900 N   0  0  0  0  0  0  0  0  0  0  0  0
  -23.5220  -31.9870   23.7120 O   0  0  0  0  0  0  0  0  0  0  0  0
  -22.9880  -29.2790   22.3940 C   0  0  0  0  0  0  0  0  0  0  0  0
  -21.6780  -29.0300   22.2290 N   0  0  0  0  0  0  0  0  0  0  0  0
  -23.6870  -28.6620   23.2030 O   0  0  0  0  0  0  0  0  0  0  0  0
  -21.1760  -29.5850   21.5500 H   0  0  0  0  0  0  0  0  0  0  0  0
  -18.3540  -27.6790   22.6440 C   0  0  0  0  0  0  0  0  0  0  0  0
  -20.8970  -28.0240   22.9450 C   0  0  0  0  0  3  0  0  0  0  0  0
  -21.0600  -26.6300   22.2990 C   0  0  0  0  0  2  0  0  0  0  0  0
  -19.9760  -26.3150   21.2620 C   0  0  0  0  0  2  0  0  0  0  0  0
  -18.5860  -26.3730   21.9030 C   0  0  0  0  0  2  0  0  0  0  0  0
  -19.4390  -28.4620   23.1190 C   0  0  0  0  0  0  0  0  0  0  0  0
  -19.1650  -29.6850   23.7700 C   0  0  0  0  0  3  0  0  0  0  0  0
  -17.8410  -30.1230   23.9530 C   0  0  0  0  0  3  0  0  0  0  0  0
  -16.7710  -29.3370   23.4940 C   0  0  0  0  0  3  0  0  0  0  0  0
  -17.0280  -28.1160   22.8440 C   0  0  0  0  0  3  0  0  0  0  0  0
  -25.8530  -32.5080   23.8970 C   0  0  0  0  0  3  0  0  0  0  0  0
  -25.4550  -33.8920   24.1910 N   0  0  0  0  0  0  0  0  0  0  0  0
  -25.7760  -34.9510   23.4350 C   0  0  0  0  0  0  0  0  0  0  0  0
  -26.5050  -34.8700   22.4430 O   0  0  0  0  0  0  0  0  0  0  0  0
  -24.8060  -34.0230   24.9530 H   0  0  0  0  0  0  0  0  0  0  0  0
  -23.9740  -36.6440   22.9700 C   0  0  0  0  0  1  0  0  0  0  0  0
  -25.1940  -36.3180   23.8460 C   0  0  0  0  0  3  0  0  0  0  0  0
  -27.2290  -37.3320   24.7710 C   0  0  0  0  0  1  0  0  0  0  0  0
  -26.1730  -37.4220   23.7660 N   0  0  0  0  0  0  0  0  0  0  0  0
  -25.7130  -38.3230   23.8690 H   0  0  0  0  0  0  0  0  0  0  0  0
  -26.3380  -31.7730   25.2080 C   0  0  1  0  0  0  0  0  0  0  0  0
  -25.1990  -31.4790   26.2130 C   0  0  0  0  0  1  0  0  0  0  0  0
  -27.0200  -30.4300   24.8600 C   0  0  0  0  0  1  0  0  0  0  0  0
  -27.4040  -32.6350   25.9260 C   0  0  0  0  0  1  0  0  0  0  0  0
  1 46  1  0
  2  3  1  0
  3  5  2  0
  4  2  2  0
  4  7  1  0
  5  1  1  0
  7  6  1  0
  7  5  1  0
  8  4  1  0
  9  8  2  0
 10 16  1  0
 10  9  1  0
 11 16  1  0
 12 13  1  0
 12 11  1  0
 14 13  1  0
 14 21  1  0
 14 15  1  0
 16 15  1  0
 17 10  2  0
 18 19  2  0
 19 38  1  0
 20 19  1  0
 20 23  1  0
 21 22  1  0
 21 18  1  0
 22 20  2  0
 23 24  1  0
 24 25  2  0
 26 29  1  0
 26 25  1  0
 27 26  2  0
 28 27  1  0
 28 23  2  0
 29 30  1  0
 30 35  2  0
 30 31  1  0
 31 32  2  0
 32 33  1  0
 33 37  1  0
 34 33  2  0
 35 34  1  0
 36 35  1  0
 38 39  1  0
 39 42  1  0
 39 41  1  0
 40 38  2  0
 43 18  1  0
 43 44  1  0
 45 43  1  0
 47 48  1  0
 47 46  1  0
 48 49  1  0
 50 52  1  0
 50 49  1  0
 51 62  2  0
 52 57  1  0
 53 61  1  0
 53 63  1  0
 54 60  1  0
 54 56  1  0
 55 61  1  0
 56 57  2  0
 56 55  1  0
 58 52  2  0
 59 58  1  0
 59 54  2  0
 60 53  1  0
 61 51  1  0
 63 65  2  0
 64 63  1  0
 66 64  1  0
 67 76  2  0
 67 72  1  0
 68 64  1  0
 68 72  1  0
 69 68  1  0
 70 71  1  0
 70 69  1  0
 71 67  1  0
 72 73  2  0
 73 74  1  0
 75 74  2  0
 76 75  1  0
 77 51  1  0
 77 78  1  0
 77 87  1  0
 78 81  1  0
 79 83  1  0
 79 78  1  0
 80 79  2  0
 83 82  1  0
 85 83  1  0
 85 86  1  0
 85 84  1  0
 87 90  1  1
 87 88  1  0
 89 87  1  0
M  ISO  4   9 100  10 100  49 101  50 101
M  END
>  <TORSDO>  (76) 
F 22

>  <SCORE>  (76) 
-12.653

>  <name>  (76) 
76

>  <ligand_id>  (76) 
76

>  <original_smiles>  (76) 
[H]C(C(=O)N1C([H])([H])C([H])([H])C([H])([H])C([H])(n2nc(-c3c([H])c([H])c(Oc4c([H])c([H])c(F)c([H])c4F)c([H])c3[H])c(C(=O)N([H])[H])c2N([H])[H])C1([H])[H])=C([H])c1c([H])c([H])c(C([H])([H])C([H])([H])C([H])([H])C([H])([H])C([H])([H])Oc2c([H])c([H])c3c(c2[H])C([H])([H])N(C(=O)C([H])(N([H])C(=O)C([H])(N([H])C([H])([H])[H])C([H])([H])[H])C(C([H])([H])[H])(C([H])([H])[H])C([H])([H])[H])C([H])(C(=O)N([H])C2([H])c4c([H])c([H])c([H])c([H])c4C([H])([H])C([H])([H])C2([H])[H])C3([H])[H])n1C([H])([H])[H]

>  <smiles>  (76) 
[H]C(C(=O)N1C([H])([H])C([H])([H])C([H])([H])C([H])(n2nc(-c3c([H])c([H])c(Oc4c([H])c([H])c(F)c([H])c4F)c([H])c3[H])c(C(=O)N([H])[H])c2N([H])[H])C1([H])[H])=C([H])c1c([H])c([H])c(C([H])([H])C([H])([H])C([H])([H])C([H])([H])C([H])([H])Oc2c([H])c([H])c3c(c2[H])C([H])([H])N(C(=O)C([H])(N([H])C(=O)C([H])(N([H])C([H])([H])[H])C([H])([H])[H])C(C([H])([H])[H])(C([H])([H])[H])C([H])([H])[H])C([H])(C(=O)N([H])C2([H])c4c([H])c([H])c([H])c([H])c4C([H])([H])C([H])([H])C2([H])[H])C3([H])[H])n1C([H])([H])[H]

$$$$
77:0:0
     RDKit          3D

 86 93  0  0  1  0  0  0  0  0999 V2000
  -29.2450  -19.8630   20.0660 C   0  0  0  0  0  3  0  0  0  0  0  0
  -29.1350  -21.2320   20.6000 C   0  0  0  0  0  0  0  0  0  0  0  0
  -29.7910  -18.3690   20.6410 C   0  0  0  0  0  0  0  0  0  0  0  0
  -30.5560  -18.4240   21.6080 O   0  0  0  0  0  0  0  0  0  0  0  0
  -29.4770  -16.7310   20.1520 C   0  0  0  0  0  2  0  0  0  0  0  0
  -30.3780  -15.2340   20.2380 C   0  0  0  0  0  0  0  0  0  0  0  0
  -30.3730  -12.7910   19.3770 C   0  0  0  0  0  2  0  0  0  0  0  0
  -29.4370  -12.6300   18.1490 C   0  0  0  0  0  2  0  0  0  0  0  0
  -27.9840  -12.3730   18.5920 C   0  0  0  0  0  2  0  0  0  0  0  0
  -27.5500  -13.3230   19.7340 C   0  0  0  0  0  3  0  0  0  0  0  0
  -28.6070  -13.4320   20.8510 C   0  0  0  0  0  2  0  0  0  0  0  0
  -29.8510  -13.9140   20.2330 N   0  0  0  0  0  0  0  0  0  0  0  0
  -31.6020  -15.2480   20.0370 O   0  0  0  0  0  0  0  0  0  0  0  0
  -25.1880  -13.8820   20.5200 C   0  0  0  0  0  0  0  0  0  0  0  0
  -24.1280  -13.1050   20.8950 C   0  0  0  0  0  0  0  0  0  0  0  0
  -24.5920  -11.7550   20.8500 C   0  0  0  0  0  0  0  0  0  0  0  0
  -26.2260  -13.0070   20.2550 N   0  0  0  0  0  0  0  0  0  0  0  0
  -25.8800  -11.7200   20.5240 N   0  0  0  0  0  0  0  0  0  0  0  0
  -23.8640  -10.4920   21.0380 C   0  0  0  0  0  0  0  0  0  0  0  0
  -24.2950   -9.5190   21.9660 C   0  0  0  0  0  3  0  0  0  0  0  0
  -23.5650   -8.3250   22.1430 C   0  0  0  0  0  3  0  0  0  0  0  0
  -22.3880   -8.0940   21.3920 C   0  0  0  0  0  0  0  0  0  0  0  0
  -21.9760   -9.0540   20.4520 C   0  0  0  0  0  3  0  0  0  0  0  0
  -22.7060  -10.2410   20.2730 C   0  0  0  0  0  3  0  0  0  0  0  0
  -21.6290   -6.9510   21.4780 O   0  0  0  0  0  0  0  0  0  0  0  0
  -21.5750   -6.2080   22.6300 C   0  0  0  0  0  0  0  0  0  0  0  0
  -21.1400   -6.7620   23.8540 C   0  0  0  0  0  3  0  0  0  0  0  0
  -21.0320   -5.9460   24.9970 C   0  0  0  0  0  3  0  0  0  0  0  0
  -21.3490   -4.5780   24.9190 C   0  0  0  0  0  0  0  0  0  0  0  0
  -21.7770   -4.0230   23.7000 C   0  0  0  0  0  3  0  0  0  0  0  0
  -21.8860   -4.8360   22.5580 C   0  0  0  0  0  0  0  0  0  0  0  0
  -22.2790   -4.2910   21.3810 F   0  0  0  0  0  0  0  0  0  0  0  0
  -21.2390   -3.7910   26.0160 F   0  0  0  0  0  0  0  0  0  0  0  0
  -22.7340  -13.5840   21.1800 C   0  0  0  0  0  0  0  0  0  0  0  0
  -22.0090  -12.8820   22.0420 N   0  0  0  0  0  0  0  0  0  0  0  0
  -22.2980  -14.6160   20.6710 O   0  0  0  0  0  0  0  0  0  0  0  0
  -22.3760  -12.0470   22.4750 H   0  0  0  0  0  0  0  0  0  0  0  0
  -21.0740  -13.1850   22.2750 H   0  0  0  0  0  0  0  0  0  0  0  0
  -25.3520  -15.2550   20.3530 N   0  0  0  0  0  0  0  0  0  0  0  0
  -24.5860  -15.9080   20.4790 H   0  0  0  0  0  0  0  0  0  0  0  0
  -26.1930  -15.6950   20.0060 H   0  0  0  0  0  0  0  0  0  0  0  0
  -29.4210  -21.4250   21.8940 O   0  0  0  0  0  0  0  0  0  0  0  0
  -29.3800  -22.3560   22.0670 H   0  0  0  0  0  0  0  0  0  0  0  0
  -28.7810  -22.8070   19.9560 C   0  0  0  0  0  2  0  0  0  0  0  0
  -28.1230  -24.3300   20.6330 C   0  0  0  0  0  2  0  0  0  0  0  0
  -28.2800  -25.9270   20.3040 O   0  0  0  0  0  0  0  0  0  0  0  0
  -24.6420  -31.8610   23.2220 C   0  0  0  0  0  0  0  0  0  0  0  0
  -27.2340  -26.9780   20.2970 C   0  0  0  0  0  0  0  0  0  0  0  0
  -23.4580  -30.4370   21.6010 C   0  0  0  0  0  3  0  0  0  0  0  0
  -24.9190  -28.8190   20.2130 C   0  0  0  0  0  0  0  0  0  0  0  0
  -26.0220  -30.6670   21.4550 C   0  0  0  0  0  2  0  0  0  0  0  0
  -26.1020  -29.2500   20.8240 C   0  0  0  0  0  0  0  0  0  0  0  0
  -27.2590  -28.3530   20.8340 C   0  0  0  0  0  3  0  0  0  0  0  0
  -26.0160  -26.6820   19.6460 C   0  0  0  0  0  3  0  0  0  0  0  0
  -24.8970  -27.5530   19.6020 C   0  0  0  0  0  3  0  0  0  0  0  0
  -23.6950  -29.7330   20.2360 C   0  0  0  0  0  2  0  0  0  0  0  0
  -24.7290  -31.0160   22.1460 N   0  0  0  0  0  0  0  0  0  0  0  0
  -23.5500  -32.1530   23.7370 O   0  0  0  0  0  0  0  0  0  0  0  0
  -22.7680  -29.4510   22.5780 C   0  0  0  0  0  0  0  0  0  0  0  0
  -21.4390  -29.2780   22.4490 N   0  0  0  0  0  0  0  0  0  0  0  0
  -23.4330  -28.8410   23.4190 O   0  0  0  0  0  0  0  0  0  0  0  0
  -20.9550  -29.8210   21.7470 H   0  0  0  0  0  0  0  0  0  0  0  0
  -18.0610  -28.0570   22.9560 C   0  0  0  0  0  0  0  0  0  0  0  0
  -20.6170  -28.3490   23.2310 C   0  0  0  0  0  3  0  0  0  0  0  0
  -20.7330  -26.9070   22.6820 C   0  0  0  0  0  2  0  0  0  0  0  0
  -19.6390  -26.5590   21.6660 C   0  0  0  0  0  2  0  0  0  0  0  0
  -18.2530  -26.7010   22.3010 C   0  0  0  0  0  2  0  0  0  0  0  0
  -19.1700  -28.8380   23.3780 C   0  0  0  0  0  0  0  0  0  0  0  0
  -18.9340  -30.1050   23.9540 C   0  0  0  0  0  3  0  0  0  0  0  0
  -17.6230  -30.5940   24.1110 C   0  0  0  0  0  3  0  0  0  0  0  0
  -16.5290  -29.8110   23.7010 C   0  0  0  0  0  3  0  0  0  0  0  0
  -16.7480  -28.5450   23.1300 C   0  0  0  0  0  3  0  0  0  0  0  0
  -25.9090  -32.5170   23.8510 C   0  0  0  0  0  3  0  0  0  0  0  0
  -25.5830  -33.9180   24.1690 N   0  0  0  0  0  0  0  0  0  0  0  0
  -25.9150  -34.9740   23.4150 C   0  0  0  0  0  0  0  0  0  0  0  0
  -26.5910  -34.8710   22.3870 O   0  0  0  0  0  0  0  0  0  0  0  0
  -24.9820  -34.0700   24.9650 H   0  0  0  0  0  0  0  0  0  0  0  0
  -24.1870  -36.7700   23.0500 C   0  0  0  0  0  1  0  0  0  0  0  0
  -25.4230  -36.3640   23.8680 C   0  0  0  0  0  3  0  0  0  0  0  0
  -27.5490  -37.2570   24.7140 C   0  0  0  0  0  1  0  0  0  0  0  0
  -26.4550  -37.4200   23.7620 N   0  0  0  0  0  0  0  0  0  0  0  0
  -26.0450  -38.3390   23.9020 H   0  0  0  0  0  0  0  0  0  0  0  0
  -26.4150  -31.7700   25.1470 C   0  0  1  0  0  0  0  0  0  0  0  0
  -25.3130  -31.5460   26.2090 C   0  0  0  0  0  1  0  0  0  0  0  0
  -27.0070  -30.3870   24.7910 C   0  0  0  0  0  1  0  0  0  0  0  0
  -27.5560  -32.5800   25.8060 C   0  0  0  0  0  1  0  0  0  0  0  0
  1  2  2  0
  1  3  1  0
  2 42  1  0
  3  4  2  0
  5  6  1  0
  5  3  1  0
  7 12  1  0
  8  9  1  0
  8  7  1  0
 10  9  1  0
 10 17  1  0
 10 11  1  0
 12  6  1  0
 12 11  1  0
 13  6  2  0
 14 15  2  0
 15 34  1  0
 16 15  1  0
 16 19  1  0
 17 14  1  0
 17 18  1  0
 18 16  2  0
 19 20  1  0
 20 21  2  0
 22 25  1  0
 22 21  1  0
 23 22  2  0
 24 23  1  0
 24 19  2  0
 25 26  1  0
 26 27  1  0
 27 28  2  0
 29 28  1  0
 29 33  1  0
 30 29  2  0
 31 26  2  0
 31 30  1  0
 32 31  1  0
 34 35  1  0
 35 38  1  0
 35 37  1  0
 36 34  2  0
 39 40  1  0
 39 14  1  0
 41 39  1  0
 42 43  1  0
 44  2  1  0
 44 45  1  0
 46 45  1  0
 47 58  2  0
 48 46  1  0
 48 53  1  0
 49 57  1  0
 49 59  1  0
 50 56  1  0
 50 52  1  0
 51 57  1  0
 52 53  2  0
 52 51  1  0
 54 48  2  0
 55 54  1  0
 55 50  2  0
 56 49  1  0
 57 47  1  0
 59 61  2  0
 60 59  1  0
 62 60  1  0
 63 72  2  0
 63 68  1  0
 64 60  1  0
 64 68  1  0
 65 64  1  0
 66 67  1  0
 66 65  1  0
 67 63  1  0
 68 69  2  0
 69 70  1  0
 71 70  2  0
 72 71  1  0
 73 47  1  0
 73 74  1  0
 73 83  1  0
 74 77  1  0
 75 79  1  0
 75 74  1  0
 76 75  2  0
 79 78  1  0
 81 79  1  0
 81 82  1  0
 81 80  1  0
 83 86  1  1
 83 84  1  0
 85 83  1  0
M  ISO  4   5 100   6 100  45 101  46 101
M  END
>  <TORSDO>  (77) 
F 21

>  <SCORE>  (77) 
-15.342

>  <name>  (77) 
77

>  <ligand_id>  (77) 
77

>  <original_smiles>  (77) 
[H]OC(=C([H])C(=O)C([H])([H])C(=O)N1C([H])([H])C([H])([H])C([H])([H])C([H])(n2nc(-c3c([H])c([H])c(Oc4c([H])c([H])c(F)c([H])c4F)c([H])c3[H])c(C(=O)N([H])[H])c2N([H])[H])C1([H])[H])C([H])([H])C([H])([H])Oc1c([H])c([H])c2c(c1[H])C([H])([H])N(C(=O)C([H])(N([H])C(=O)C([H])(N([H])C([H])([H])[H])C([H])([H])[H])C(C([H])([H])[H])(C([H])([H])[H])C([H])([H])[H])C([H])(C(=O)N([H])C1([H])c3c([H])c([H])c([H])c([H])c3C([H])([H])C([H])([H])C1([H])[H])C2([H])[H]

>  <smiles>  (77) 
[H]OC(=C([H])C(=O)C([H])([H])C(=O)N1C([H])([H])C([H])([H])C([H])([H])C([H])(n2nc(-c3c([H])c([H])c(Oc4c([H])c([H])c(F)c([H])c4F)c([H])c3[H])c(C(=O)N([H])[H])c2N([H])[H])C1([H])[H])C([H])([H])C([H])([H])Oc1c([H])c([H])c2c(c1[H])C([H])([H])N(C(=O)C([H])(N([H])C(=O)C([H])(N([H])C([H])([H])[H])C([H])([H])[H])C(C([H])([H])[H])(C([H])([H])[H])C([H])([H])[H])C([H])(C(=O)N([H])C1([H])c3c([H])c([H])c([H])c([H])c3C([H])([H])C([H])([H])C1([H])[H])C2([H])[H]

$$$$
78:0:0
     RDKit          3D

 94102  0  0  1  0  0  0  0  0999 V2000
  -29.1750  -22.3820   21.1770 C   0  0  0  0  0  3  0  0  0  0  0  0
  -28.1830  -21.7890   19.0420 C   0  0  0  0  0  3  0  0  0  0  0  0
  -29.0840  -23.7550   20.8390 C   0  0  0  0  0  3  0  0  0  0  0  0
  -28.1110  -23.1590   18.6980 C   0  0  0  0  0  3  0  0  0  0  0  0
  -28.7050  -21.3820   20.2940 C   0  0  0  0  0  0  0  0  0  0  0  0
  -28.5380  -24.1600   19.5970 C   0  0  0  0  0  0  0  0  0  0  0  0
  -28.5850  -19.9110   20.7510 C   0  0  0  0  0  2  0  0  0  0  0  0
  -29.2960  -18.8540   19.9660 N   0  0  0  0  0  4  0  0  0  0  0  0
  -29.1420  -19.0390   18.9880 H   0  0  0  0  0  0  0  0  0  0  0  0
  -28.8120  -17.9970   20.1720 H   0  0  0  0  0  0  0  0  0  0  0  0
  -30.7570  -18.6010   20.1910 C   0  0  0  0  0  3  0  0  0  0  0  0
  -30.6440  -18.1250   22.8060 C   0  0  0  0  0  1  0  0  0  0  0  0
  -31.2800  -18.8950   21.6290 C   0  0  0  0  0  2  0  0  0  0  0  0
  -32.8130  -17.3440   19.3530 C   0  0  0  0  0  1  0  0  0  0  0  0
  -31.2790  -17.2370   19.5720 C   0  0  0  0  0  3  0  0  0  0  0  0
  -30.8920  -15.9010   20.3310 C   0  0  0  0  0  2  0  0  0  0  0  0
  -31.4340  -14.5540   19.7480 C   0  0  0  0  0  0  0  0  0  0  0  0
  -31.0180  -12.2430   18.9480 C   0  0  0  0  0  2  0  0  0  0  0  0
  -30.0550  -12.2940   17.7450 C   0  0  0  0  0  2  0  0  0  0  0  0
  -28.5910  -12.2610   18.2280 C   0  0  0  0  0  2  0  0  0  0  0  0
  -28.3160  -13.2860   19.3620 C   0  0  0  0  0  3  0  0  0  0  0  0
  -29.4050  -13.2340   20.4610 C   0  0  0  0  0  2  0  0  0  0  0  0
  -30.7130  -13.3960   19.8160 N   0  0  0  0  0  0  0  0  0  0  0  0
  -32.5100  -14.5770   19.1480 O   0  0  0  0  0  0  0  0  0  0  0  0
  -26.0210  -14.0880   20.2040 C   0  0  0  0  0  0  0  0  0  0  0  0
  -24.9110  -13.4080   20.6300 C   0  0  0  0  0  0  0  0  0  0  0  0
  -25.2460  -12.0220   20.5580 C   0  0  0  0  0  0  0  0  0  0  0  0
  -26.9700  -13.1230   19.9100 N   0  0  0  0  0  0  0  0  0  0  0  0
  -26.5090  -11.8730   20.1810 N   0  0  0  0  0  0  0  0  0  0  0  0
  -24.4230  -10.8240   20.7750 C   0  0  0  0  0  0  0  0  0  0  0  0
  -24.7890   -9.8380   21.7170 C   0  0  0  0  0  3  0  0  0  0  0  0
  -23.9710   -8.7050   21.9200 C   0  0  0  0  0  3  0  0  0  0  0  0
  -22.7740   -8.5510   21.1820 C   0  0  0  0  0  0  0  0  0  0  0  0
  -22.4260   -9.5250   20.2300 C   0  0  0  0  0  3  0  0  0  0  0  0
  -23.2420  -10.6500   20.0240 C   0  0  0  0  0  3  0  0  0  0  0  0
  -21.9290   -7.4740   21.2960 O   0  0  0  0  0  0  0  0  0  0  0  0
  -21.7920   -6.7880   22.4760 C   0  0  0  0  0  0  0  0  0  0  0  0
  -21.3860   -7.4290   23.6650 C   0  0  0  0  0  3  0  0  0  0  0  0
  -21.1910   -6.6760   24.8400 C   0  0  0  0  0  3  0  0  0  0  0  0
  -21.3880   -5.2820   24.8260 C   0  0  0  0  0  0  0  0  0  0  0  0
  -21.7880   -4.6410   23.6400 C   0  0  0  0  0  3  0  0  0  0  0  0
  -21.9850   -5.3910   22.4670 C   0  0  0  0  0  0  0  0  0  0  0  0
  -22.3500   -4.7640   21.3230 F   0  0  0  0  0  0  0  0  0  0  0  0
  -21.1910   -4.5580   25.9520 F   0  0  0  0  0  0  0  0  0  0  0  0
  -23.5790  -14.0020   20.9890 C   0  0  0  0  0  0  0  0  0  0  0  0
  -22.8520  -13.3720   21.9040 N   0  0  0  0  0  0  0  0  0  0  0  0
  -23.1990  -15.0600   20.4900 O   0  0  0  0  0  0  0  0  0  0  0  0
  -23.1750  -12.5110   22.3230 H   0  0  0  0  0  0  0  0  0  0  0  0
  -21.9630  -13.7540   22.1930 H   0  0  0  0  0  0  0  0  0  0  0  0
  -26.2940  -15.4410   20.0250 N   0  0  0  0  0  0  0  0  0  0  0  0
  -25.5710  -16.1460   20.1250 H   0  0  0  0  0  0  0  0  0  0  0  0
  -27.1220  -15.7840   19.5600 H   0  0  0  0  0  0  0  0  0  0  0  0
  -28.5260  -25.6320   19.1590 C   0  0  0  0  0  2  0  0  0  0  0  0
  -28.2280  -26.6090   20.1700 O   0  0  0  0  0  0  0  0  0  0  0  0
  -24.5640  -31.8660   23.2470 C   0  0  0  0  0  0  0  0  0  0  0  0
  -27.0490  -27.3340   20.1440 C   0  0  0  0  0  0  0  0  0  0  0  0
  -23.2930  -30.4820   21.6370 C   0  0  0  0  0  3  0  0  0  0  0  0
  -24.6810  -28.8970   20.1940 C   0  0  0  0  0  0  0  0  0  0  0  0
  -25.8180  -30.7780   21.3860 C   0  0  0  0  0  2  0  0  0  0  0  0
  -25.8590  -29.3970   20.7580 C   0  0  0  0  0  0  0  0  0  0  0  0
  -27.0380  -28.6200   20.7370 C   0  0  0  0  0  3  0  0  0  0  0  0
  -25.8470  -26.8410   19.5830 C   0  0  0  0  0  3  0  0  0  0  0  0
  -24.6710  -27.6180   19.6050 C   0  0  0  0  0  3  0  0  0  0  0  0
  -23.4580  -29.7830   20.2590 C   0  0  0  0  0  2  0  0  0  0  0  0
  -24.5790  -31.0580   22.1470 N   0  0  0  0  0  0  0  0  0  0  0  0
  -23.5010  -32.1690   23.8050 O   0  0  0  0  0  0  0  0  0  0  0  0
  -22.6370  -29.4860   22.6210 C   0  0  0  0  0  0  0  0  0  0  0  0
  -21.3120  -29.3080   22.4940 N   0  0  0  0  0  0  0  0  0  0  0  0
  -23.3140  -28.8750   23.4490 O   0  0  0  0  0  0  0  0  0  0  0  0
  -20.8320  -29.8550   21.7930 H   0  0  0  0  0  0  0  0  0  0  0  0
  -17.9440  -28.0960   22.9690 C   0  0  0  0  0  0  0  0  0  0  0  0
  -20.4890  -28.3940   23.2870 C   0  0  0  0  0  3  0  0  0  0  0  0
  -20.6170  -26.9390   22.7770 C   0  0  0  0  0  2  0  0  0  0  0  0
  -19.5510  -26.5700   21.7370 C   0  0  0  0  0  2  0  0  0  0  0  0
  -18.1460  -26.7290   22.3320 C   0  0  0  0  0  2  0  0  0  0  0  0
  -19.0440  -28.8830   23.3980 C   0  0  0  0  0  0  0  0  0  0  0  0
  -18.8000  -30.1630   23.9420 C   0  0  0  0  0  3  0  0  0  0  0  0
  -17.4870  -30.6560   24.0600 C   0  0  0  0  0  3  0  0  0  0  0  0
  -16.3990  -29.8640   23.6510 C   0  0  0  0  0  3  0  0  0  0  0  0
  -16.6290  -28.5860   23.1140 C   0  0  0  0  0  3  0  0  0  0  0  0
  -25.8770  -32.4700   23.8380 C   0  0  0  0  0  3  0  0  0  0  0  0
  -25.6050  -33.8710   24.1850 N   0  0  0  0  0  0  0  0  0  0  0  0
  -25.9470  -34.9220   23.4260 C   0  0  0  0  0  0  0  0  0  0  0  0
  -26.5920  -34.8130   22.3800 O   0  0  0  0  0  0  0  0  0  0  0  0
  -25.0330  -34.0350   25.0020 H   0  0  0  0  0  0  0  0  0  0  0  0
  -24.2470  -36.7520   23.1220 C   0  0  0  0  0  1  0  0  0  0  0  0
  -25.4970  -36.3160   23.9030 C   0  0  0  0  0  3  0  0  0  0  0  0
  -27.6700  -37.1500   24.6900 C   0  0  0  0  0  1  0  0  0  0  0  0
  -26.5480  -37.3470   23.7740 N   0  0  0  0  0  0  0  0  0  0  0  0
  -26.1660  -38.2750   23.9380 H   0  0  0  0  0  0  0  0  0  0  0  0
  -26.4220  -31.6790   25.0910 C   0  0  1  0  0  0  0  0  0  0  0  0
  -25.3550  -31.4380   26.1840 C   0  0  0  0  0  1  0  0  0  0  0  0
  -26.9810  -30.2990   24.6670 C   0  0  0  0  0  1  0  0  0  0  0  0
  -27.5990  -32.4550   25.7330 C   0  0  0  0  0  1  0  0  0  0  0  0
  2  5  1  0
  3  1  1  0
  4  2  2  0
  4  6  1  0
  5  7  1  0
  5  1  2  0
  6  3  2  0
  8 10  1  0
  8 11  1  0
  8  7  1  0
  9  8  1  0
 11 13  1  0
 13 12  1  0
 15 14  1  0
 15 11  1  0
 15 16  1  0
 17 23  1  0
 17 16  1  0
 18 23  1  0
 19 20  1  0
 19 18  1  0
 21 20  1  0
 21 28  1  0
 21 22  1  0
 23 22  1  0
 24 17  2  0
 25 26  2  0
 26 45  1  0
 27 26  1  0
 27 30  1  0
 28 29  1  0
 28 25  1  0
 29 27  2  0
 30 31  1  0
 31 32  2  0
 33 36  1  0
 33 32  1  0
 34 33  2  0
 35 34  1  0
 35 30  2  0
 36 37  1  0
 37 38  1  0
 38 39  2  0
 40 39  1  0
 40 44  1  0
 41 40  2  0
 42 37  2  0
 42 41  1  0
 43 42  1  0
 45 46  1  0
 46 49  1  0
 46 48  1  0
 47 45  2  0
 50 51  1  0
 50 25  1  0
 52 50  1  0
 53  6  1  0
 53 54  1  0
 55 66  2  0
 56 54  1  0
 56 61  1  0
 57 65  1  0
 57 67  1  0
 58 64  1  0
 58 60  1  0
 59 65  1  0
 60 59  1  0
 61 60  2  0
 62 63  1  0
 62 56  2  0
 63 58  2  0
 64 57  1  0
 65 55  1  0
 67 69  2  0
 68 67  1  0
 70 68  1  0
 71 80  2  0
 71 76  1  0
 72 68  1  0
 72 76  1  0
 73 72  1  0
 74 75  1  0
 74 73  1  0
 75 71  1  0
 76 77  2  0
 77 78  1  0
 79 78  2  0
 80 79  1  0
 81 55  1  0
 81 82  1  0
 81 91  1  0
 82 85  1  0
 83 87  1  0
 83 82  1  0
 84 83  2  0
 87 86  1  0
 89 87  1  0
 89 90  1  0
 89 88  1  0
 91 94  1  1
 91 92  1  0
 93 91  1  0
M  ISO  4  16 100  17 100  53 101  54 101
M  END
>  <TORSDO>  (78) 
F 23

>  <SCORE>  (78) 
-12.090

>  <name>  (78) 
78

>  <ligand_id>  (78) 
78

>  <original_smiles>  (78) 
[H]c1c([H])c([H])c2c(c1[H])C([H])([H])C([H])([H])C([H])([H])C2([H])N([H])C(=O)C1([H])N(C(=O)C([H])(N([H])C(=O)C([H])(N([H])C([H])([H])[H])C([H])([H])[H])C(C([H])([H])[H])(C([H])([H])[H])C([H])([H])[H])C([H])([H])c2c([H])c(OC([H])([H])c3c([H])c([H])c(C([H])([H])[N+]([H])([H])C([H])(C([H])([H])C([H])([H])[H])C([H])(C([H])([H])[H])C([H])([H])C(=O)N4C([H])([H])C([H])([H])C([H])([H])C([H])(n5nc(-c6c([H])c([H])c(Oc7c([H])c([H])c(F)c([H])c7F)c([H])c6[H])c(C(=O)N([H])[H])c5N([H])[H])C4([H])[H])c([H])c3[H])c([H])c([H])c2C1([H])[H]

>  <smiles>  (78) 
[H]c1c([H])c([H])c2c(c1[H])C([H])([H])C([H])([H])C([H])([H])C2([H])N([H])C(=O)C1([H])N(C(=O)C([H])(N([H])C(=O)C([H])(N([H])C([H])([H])[H])C([H])([H])[H])C(C([H])([H])[H])(C([H])([H])[H])C([H])([H])[H])C([H])([H])c2c([H])c(OC([H])([H])c3c([H])c([H])c(C([H])([H])[N+]([H])([H])C([H])(C([H])([H])C([H])([H])[H])C([H])(C([H])([H])[H])C([H])([H])C(=O)N4C([H])([H])C([H])([H])C([H])([H])C([H])(n5nc(-c6c([H])c([H])c(Oc7c([H])c([H])c(F)c([H])c7F)c([H])c6[H])c(C(=O)N([H])[H])c5N([H])[H])C4([H])[H])c([H])c3[H])c([H])c([H])c2C1([H])[H]

$$$$
79:0:0
     RDKit          3D

 91 94  0  0  1  0  0  0  0  0999 V2000
  -26.9420  -30.7580   20.6600 C   0  0  0  0  0  3  0  0  0  0  0  0
  -25.5320  -30.0010   21.0580 C   0  0  0  0  0  3  0  0  0  0  0  0
  -28.3590  -29.9860   20.8490 C   0  0  0  0  0  3  0  0  0  0  0  0
  -27.5650  -27.4400   21.9530 C   0  0  0  0  0  2  0  0  0  0  0  0
  -25.9600  -27.6700   21.9180 C   0  0  0  0  0  2  0  0  0  0  0  0
  -28.6060  -28.4660   21.3570 C   0  0  0  0  0  3  0  0  0  0  0  0
  -26.0700  -25.5610   21.5180 C   0  0  0  0  0 15  0  0  0  0  0  0
  -27.3440  -23.7610   20.9590 C   0  0  0  0  0 15  0  0  0  0  0  0
  -26.0840  -21.3930   20.2250 C   0  0  0  0  0  1  0  0  0  0  0  0
  -27.4810  -21.8590   20.3490 N   0  0  0  0  0  2  0  0  0  0  0  0
  -27.6600  -22.0930   19.3830 H   0  0  0  0  0  0  0  0  0  0  0  0
  -28.5990  -20.1960   20.3100 C   0  0  0  0  0 15  0  0  0  0  0  0
  -28.7660  -17.9750   19.8880 C   0  0  0  0  0 15  0  0  0  0  0  0
  -29.8150  -16.1090   19.6770 C   0  0  0  0  0  2  0  0  0  0  0  0
  -30.2620  -13.3900   18.8640 C   0  0  0  0  0  2  0  0  0  0  0  0
  -29.3920  -12.6110   17.7970 C   0  0  0  0  0  2  0  0  0  0  0  0
  -28.0650  -12.1220   18.3830 C   0  0  0  0  0  2  0  0  0  0  0  0
  -27.5330  -13.1990   19.3390 C   0  0  0  0  0  3  0  0  0  0  0  0
  -28.5590  -13.7330   20.3620 C   0  0  0  0  0  2  0  0  0  0  0  0
  -29.5360  -14.5860   19.6290 N   0  0  0  0  0  0  0  0  0  0  0  0
  -31.0490  -16.0190   19.3870 O   0  0  0  0  0  1  0  0  0  0  0  0
  -25.3270  -13.7840   20.3760 C   0  0  0  0  0  0  0  0  0  0  0  0
  -24.2810  -13.0420   20.8330 C   0  0  0  0  0  0  0  0  0  0  0  0
  -24.6750  -11.6730   20.7040 C   0  0  0  0  0  0  0  0  0  0  0  0
  -26.2800  -12.8710   19.9780 N   0  0  0  0  0  0  0  0  0  0  0  0
  -25.9200  -11.5900   20.2380 N   0  0  0  0  0  0  0  0  0  0  0  0
  -23.9070  -10.4450   20.9370 C   0  0  0  0  0  0  0  0  0  0  0  0
  -24.3450   -9.4570   21.8460 C   0  0  0  0  0  3  0  0  0  0  0  0
  -23.5700   -8.2970   22.0670 C   0  0  0  0  0  3  0  0  0  0  0  0
  -22.3450   -8.1190   21.3820 C   0  0  0  0  0  0  0  0  0  0  0  0
  -21.9260   -9.0960   20.4630 C   0  0  0  0  0  3  0  0  0  0  0  0
  -22.7000  -10.2460   20.2390 C   0  0  0  0  0  3  0  0  0  0  0  0
  -21.5390   -7.0150   21.5160 O   0  0  0  0  0  0  0  0  0  0  0  0
  -21.4730   -6.3090   22.6900 C   0  0  0  0  0  0  0  0  0  0  0  0
  -21.0890   -6.9180   23.9050 C   0  0  0  0  0  3  0  0  0  0  0  0
  -20.9670   -6.1410   25.0740 C   0  0  0  0  0  3  0  0  0  0  0  0
  -21.2210   -4.7570   25.0300 C   0  0  0  0  0  0  0  0  0  0  0  0
  -21.5990   -4.1480   23.8200 C   0  0  0  0  0  3  0  0  0  0  0  0
  -21.7230   -4.9220   22.6530 C   0  0  0  0  0  0  0  0  0  0  0  0
  -22.0680   -4.3270   21.4850 F   0  0  0  0  0  0  0  0  0  0  0  0
  -21.0960   -4.0080   26.1500 F   0  0  0  0  0  0  0  0  0  0  0  0
  -22.9520  -13.5820   21.2630 C   0  0  0  0  0  0  0  0  0  0  0  0
  -22.2870  -12.9110   22.1940 N   0  0  0  0  0  0  0  0  0  0  0  0
  -22.5220  -14.6410   20.8070 O   0  0  0  0  0  0  0  0  0  0  0  0
  -22.6490  -12.0540   22.5860 H   0  0  0  0  0  0  0  0  0  0  0  0
  -21.3980  -13.2640   22.5200 H   0  0  0  0  0  0  0  0  0  0  0  0
  -25.5450  -15.1520   20.2280 N   0  0  0  0  0  0  0  0  0  0  0  0
  -24.8290  -15.8380   20.4410 H   0  0  0  0  0  0  0  0  0  0  0  0
  -26.3630  -15.5580   19.7960 H   0  0  0  0  0  0  0  0  0  0  0  0
  -29.4860  -27.5390   20.4590 C   0  0  0  0  0  2  0  0  0  0  0  0
  -28.6750  -26.4920   19.7340 O   0  0  0  0  0  0  0  0  0  0  0  0
  -24.2090  -31.0970   23.1300 C   0  0  0  0  0  0  0  0  0  0  0  0
  -27.6480  -26.9300   18.9040 C   0  0  0  0  0  3  0  0  0  0  0  0
  -23.2570  -29.4180   21.3460 C   0  0  0  0  0  3  0  0  0  0  0  0
  -25.0910  -28.0600   18.8840 C   0  0  0  0  0  3  0  0  0  0  0  0
  -26.1350  -29.5380   22.2110 C   0  0  0  0  0  3  0  0  0  0  0  0
  -26.5700  -28.4370   19.4750 C   0  0  0  0  0  2  0  0  0  0  0  0
  -27.6310  -28.2610   18.7130 C   0  0  0  0  0  2  0  0  0  0  0  0
  -26.5000  -26.2210   18.3710 C   0  0  0  0  0  3  0  0  0  0  0  0
  -25.2200  -26.8650   18.2290 C   0  0  0  0  0  3  0  0  0  0  0  0
  -23.5200  -28.4720   19.7270 C   0  0  0  0  0  2  0  0  0  0  0  0
  -24.4730  -29.9410   22.4470 N   0  0  1  0  0  4  0  0  0  0  0  0
  -23.0530  -31.5100   23.3060 O   0  0  0  0  0  0  0  0  0  0  0  0
  -22.3920  -28.6010   22.1650 C   0  0  0  0  0  0  0  0  0  0  0  0
  -21.0900  -28.6590   21.9180 N   0  0  0  0  0  0  0  0  0  0  0  0
  -22.9230  -27.8550   22.9760 O   0  0  0  0  0  0  0  0  0  0  0  0
  -20.7220  -29.2920   21.2230 H   0  0  0  0  0  0  0  0  0  0  0  0
  -17.6700  -27.7120   22.3020 C   0  0  0  0  0  0  0  0  0  0  0  0
  -20.2120  -27.6860   22.5120 C   0  0  0  0  0  3  0  0  0  0  0  0
  -20.1950  -26.4060   21.6490 C   0  0  0  0  0  2  0  0  0  0  0  0
  -19.0600  -26.4040   20.6310 C   0  0  0  0  0  2  0  0  0  0  0  0
  -17.7180  -26.5180   21.3620 C   0  0  0  0  0  2  0  0  0  0  0  0
  -18.8550  -28.2880   22.8140 C   0  0  0  0  0  0  0  0  0  0  0  0
  -18.7830  -29.4250   23.6440 C   0  0  0  0  0  3  0  0  0  0  0  0
  -17.5340  -29.9810   23.9800 C   0  0  0  0  0  3  0  0  0  0  0  0
  -16.3550  -29.3900   23.4940 C   0  0  0  0  0  3  0  0  0  0  0  0
  -16.4220  -28.2590   22.6590 C   0  0  0  0  0  3  0  0  0  0  0  0
  -25.3730  -31.9020   23.7890 C   0  0  0  0  0  3  0  0  0  0  0  0
  -25.0130  -33.3400   23.8640 N   0  0  0  0  0  0  0  0  0  0  0  0
  -25.5190  -34.3470   23.1310 C   0  0  0  0  0  0  0  0  0  0  0  0
  -26.3520  -34.1790   22.2380 O   0  0  0  0  0  0  0  0  0  0  0  0
  -24.2780  -33.5700   24.5160 H   0  0  0  0  0  0  0  0  0  0  0  0
  -23.8970  -36.1570   22.4560 C   0  0  0  0  0  1  0  0  0  0  0  0
  -25.0140  -35.7760   23.4380 C   0  0  0  0  0  3  0  0  0  0  0  0
  -27.0410  -36.6850   24.4920 C   0  0  0  0  0  1  0  0  0  0  0  0
  -26.0730  -36.8090   23.4050 N   0  0  0  0  0  0  0  0  0  0  0  0
  -25.6700  -37.7410   23.4500 H   0  0  0  0  0  0  0  0  0  0  0  0
  -25.7190  -31.3560   25.2490 C   0  0  1  0  0  0  0  0  0  0  0  0
  -24.4310  -31.1980   26.0840 C   0  0  0  0  0  1  0  0  0  0  0  0
  -26.4360  -29.9980   25.4510 C   0  0  0  0  0  1  0  0  0  0  0  0
  -26.7050  -32.3300   25.9220 C   0  0  0  0  0  1  0  0  0  0  0  0
  1  3  2  0
  2  1  1  0
  2 56  1  0
  2 62  1  0
  3  6  1  0
  5  4  1  0
  6 50  1  0
  6  4  1  0
  9 10  1  0
 11 10  1  0
 15 20  1  0
 16 17  1  0
 16 15  1  0
 18 17  1  0
 18 25  1  0
 18 19  1  0
 20 14  1  0
 20 19  1  0
 21 14  1  0
 22 23  2  0
 23 42  1  0
 24 23  1  0
 24 27  1  0
 25 26  1  0
 25 22  1  0
 26 24  2  0
 27 28  1  0
 28 29  2  0
 30 33  1  0
 30 29  1  0
 31 30  2  0
 32 31  1  0
 32 27  2  0
 33 34  1  0
 34 35  1  0
 35 36  2  0
 37 36  1  0
 37 41  1  0
 38 37  2  0
 39 34  2  0
 39 38  1  0
 40 39  1  0
 42 43  1  0
 43 46  1  0
 43 45  1  0
 44 42  2  0
 47 22  1  0
 47 48  1  0
 49 47  1  0
 51 50  1  0
 52 63  2  0
 53 59  1  0
 53 51  1  0
 54 64  1  0
 54 62  1  0
 55 60  1  0
 55 57  1  0
 55 61  1  0
 56  5  1  0
 56 62  1  0
 58 53  1  0
 58 57  1  0
 60 59  2  0
 61 54  1  0
 62 52  1  1
 64 66  2  0
 65 64  1  0
 67 65  1  0
 68 77  2  0
 68 73  1  0
 69 65  1  0
 69 73  1  0
 70 69  1  0
 71 72  1  0
 71 70  1  0
 72 68  1  0
 73 74  2  0
 74 75  1  0
 76 75  2  0
 77 76  1  0
 78 52  1  0
 78 79  1  0
 78 88  1  0
 79 82  1  0
 80 84  1  0
 80 79  1  0
 81 80  2  0
 84 83  1  0
 86 84  1  0
 86 87  1  0
 86 85  1  0
 88 90  1  6
 88 91  1  0
 88 89  1  0
M  ISO  4  13 100  14 100  50 101  51 101
M  END
>  <TORSDO>  (79) 
F 22

>  <SCORE>  (79) 
-7.446

>  <name>  (79) 
79

>  <ligand_id>  (79) 
79

>  <original_smiles>  (79) 
[H]c1c([H])c([H])c2c(c1[H])C([H])([H])C([H])([H])C([H])([H])C2([H])N([H])C(=O)C1([H])N(C(=O)C([H])(N([H])C(=O)C([H])(N([H])C([H])([H])[H])C([H])([H])[H])C(C([H])([H])[H])(C([H])([H])[H])C([H])([H])[H])C([H])([H])c2c([H])c(OC([H])([H])c3c([H])c([H])c([H])c(C([H])([H])C([H])([H])[N+]([H])(C([H])([H])[H])C([H])([H])C([H])([H])C(=O)N4C([H])([H])C([H])([H])C([H])([H])C([H])(n5nc(-c6c([H])c([H])c(Oc7c([H])c([H])c(F)c([H])c7F)c([H])c6[H])c(C(=O)N([H])[H])c5N([H])[H])C4([H])[H])c3[H])c([H])c([H])c2C1([H])[H]

>  <smiles>  (79) 
[H]c1c([H])c([H])c2c(c1[H])C([H])([H])C([H])([H])C([H])([H])C2([H])N([H])C(=O)C1([H])N(C(=O)C([H])(N([H])C(=O)C([H])(N([H])C([H])([H])[H])C([H])([H])[H])C(C([H])([H])[H])(C([H])([H])[H])C([H])([H])[H])C([H])([H])c2c([H])c(OC([H])([H])c3c([H])c([H])c([H])c(C([H])([H])C([H])([H])[N+]([H])(C([H])([H])[H])C([H])([H])C([H])([H])C(=O)N4C([H])([H])C([H])([H])C([H])([H])C([H])(n5nc(-c6c([H])c([H])c(Oc7c([H])c([H])c(F)c([H])c7F)c([H])c6[H])c(C(=O)N([H])[H])c5N([H])[H])C4([H])[H])c3[H])c([H])c([H])c2C1([H])[H]

$$$$
80:0:0
     RDKit          3D

 86 93  0  0  1  0  0  0  0  0999 V2000
  -29.0420  -21.2910   20.4550 C   0  0  0  0  0  2  0  0  0  0  0  0
  -29.3540  -19.8100   19.6380 C   0  0  0  0  0  0  0  0  0  0  0  0
  -28.9520  -19.7670   18.4730 O   0  0  0  0  0  0  0  0  0  0  0  0
  -31.6500  -18.6670   19.9910 C   0  0  0  0  0  1  0  0  0  0  0  0
  -29.8640  -18.3380   21.7050 C   0  0  0  0  0  1  0  0  0  0  0  0
  -30.1450  -18.3820   20.1900 C   0  0  1  0  0  0  0  0  0  0  0  0
  -29.8760  -16.7290   19.6370 C   0  0  0  0  0  2  0  0  0  0  0  0
  -30.7400  -15.2370   19.7510 C   0  0  0  0  0  0  0  0  0  0  0  0
  -30.6300  -12.8050   18.9250 C   0  0  0  0  0  2  0  0  0  0  0  0
  -29.6030  -12.6460   17.7730 C   0  0  0  0  0  2  0  0  0  0  0  0
  -28.1890  -12.4060   18.3320 C   0  0  0  0  0  2  0  0  0  0  0  0
  -27.8460  -13.3820   19.4850 C   0  0  0  0  0  3  0  0  0  0  0  0
  -28.9830  -13.5010   20.5190 C   0  0  0  0  0  2  0  0  0  0  0  0
  -30.1880  -13.9370   19.8040 N   0  0  0  0  0  0  0  0  0  0  0  0
  -31.9500  -15.2420   19.4900 O   0  0  0  0  0  0  0  0  0  0  0  0
  -25.5790  -13.9660   20.5020 C   0  0  0  0  0  0  0  0  0  0  0  0
  -24.5320  -13.1980   20.9280 C   0  0  0  0  0  0  0  0  0  0  0  0
  -24.9490  -11.8400   20.7800 C   0  0  0  0  0  0  0  0  0  0  0  0
  -26.5630  -13.0790   20.1070 N   0  0  0  0  0  0  0  0  0  0  0  0
  -26.2040  -11.7900   20.3440 N   0  0  0  0  0  0  0  0  0  0  0  0
  -24.2030  -10.5870   20.9670 C   0  0  0  0  0  0  0  0  0  0  0  0
  -24.6400   -9.5960   21.8750 C   0  0  0  0  0  3  0  0  0  0  0  0
  -23.8930   -8.4110   22.0530 C   0  0  0  0  0  3  0  0  0  0  0  0
  -22.6980   -8.2090   21.3240 C   0  0  0  0  0  0  0  0  0  0  0  0
  -22.2810   -9.1880   20.4060 C   0  0  0  0  0  3  0  0  0  0  0  0
  -23.0260  -10.3640   20.2250 C   0  0  0  0  0  3  0  0  0  0  0  0
  -21.9230   -7.0780   21.4140 O   0  0  0  0  0  0  0  0  0  0  0  0
  -21.8260   -6.3600   22.5780 C   0  0  0  0  0  0  0  0  0  0  0  0
  -21.3240   -6.9330   23.7670 C   0  0  0  0  0  3  0  0  0  0  0  0
  -21.1780   -6.1420   24.9230 C   0  0  0  0  0  3  0  0  0  0  0  0
  -21.5240   -4.7780   24.8930 C   0  0  0  0  0  0  0  0  0  0  0  0
  -22.0200   -4.2040   23.7100 C   0  0  0  0  0  3  0  0  0  0  0  0
  -22.1680   -4.9930   22.5550 C   0  0  0  0  0  0  0  0  0  0  0  0
  -22.6270   -4.4290   21.4100 F   0  0  0  0  0  0  0  0  0  0  0  0
  -21.3760   -4.0150   26.0020 F   0  0  0  0  0  0  0  0  0  0  0  0
  -23.1810  -13.6940   21.3560 C   0  0  0  0  0  0  0  0  0  0  0  0
  -22.5210  -12.9700   22.2500 N   0  0  0  0  0  0  0  0  0  0  0  0
  -22.7270  -14.7560   20.9310 O   0  0  0  0  0  0  0  0  0  0  0  0
  -22.9060  -12.1080   22.6080 H   0  0  0  0  0  0  0  0  0  0  0  0
  -21.6180  -13.2790   22.5840 H   0  0  0  0  0  0  0  0  0  0  0  0
  -25.7730  -15.3400   20.3890 N   0  0  0  0  0  0  0  0  0  0  0  0
  -25.0480  -16.0140   20.6140 H   0  0  0  0  0  0  0  0  0  0  0  0
  -26.6120  -15.7690   20.0210 H   0  0  0  0  0  0  0  0  0  0  0  0
  -28.9460  -22.9590   19.8810 C   0  0  0  0  0  2  0  0  0  0  0  0
  -28.1680  -24.3940   20.5480 C   0  0  0  0  0  2  0  0  0  0  0  0
  -28.3850  -25.9890   20.3830 O   0  0  0  0  0  0  0  0  0  0  0  0
  -24.6300  -31.8600   23.1820 C   0  0  0  0  0  0  0  0  0  0  0  0
  -27.3300  -27.0120   20.3360 C   0  0  0  0  0  0  0  0  0  0  0  0
  -23.4930  -30.4030   21.5550 C   0  0  0  0  0  3  0  0  0  0  0  0
  -24.9960  -28.8020   20.2010 C   0  0  0  0  0  0  0  0  0  0  0  0
  -26.0520  -30.6760   21.4520 C   0  0  0  0  0  2  0  0  0  0  0  0
  -26.1620  -29.2590   20.8300 C   0  0  0  0  0  0  0  0  0  0  0  0
  -27.3280  -28.3820   20.8750 C   0  0  0  0  0  3  0  0  0  0  0  0
  -26.1320  -26.6850   19.6640 C   0  0  0  0  0  3  0  0  0  0  0  0
  -25.0010  -27.5330   19.5990 C   0  0  0  0  0  3  0  0  0  0  0  0
  -23.7590  -29.6930   20.2010 C   0  0  0  0  0  2  0  0  0  0  0  0
  -24.7450  -31.0060   22.1150 N   0  0  0  0  0  0  0  0  0  0  0  0
  -23.5240  -32.1420   23.6750 O   0  0  0  0  0  0  0  0  0  0  0  0
  -22.8000  -29.4140   22.5280 C   0  0  0  0  0  0  0  0  0  0  0  0
  -21.4780  -29.2150   22.3700 N   0  0  0  0  0  0  0  0  0  0  0  0
  -23.4570  -28.8260   23.3900 O   0  0  0  0  0  0  0  0  0  0  0  0
  -21.0000  -29.7420   21.6550 H   0  0  0  0  0  0  0  0  0  0  0  0
  -18.1130  -27.9270   22.7950 C   0  0  0  0  0  0  0  0  0  0  0  0
  -20.6510  -28.2820   23.1440 C   0  0  0  0  0  3  0  0  0  0  0  0
  -20.8180  -26.8330   22.6290 C   0  0  0  0  0  2  0  0  0  0  0  0
  -19.7670  -26.4390   21.5880 C   0  0  0  0  0  2  0  0  0  0  0  0
  -18.3570  -26.5610   22.1740 C   0  0  0  0  0  2  0  0  0  0  0  0
  -19.1920  -28.7420   23.2330 C   0  0  0  0  0  0  0  0  0  0  0  0
  -18.9110  -30.0160   23.7740 C   0  0  0  0  0  3  0  0  0  0  0  0
  -17.5850  -30.4780   23.8790 C   0  0  0  0  0  3  0  0  0  0  0  0
  -16.5210  -29.6620   23.4560 C   0  0  0  0  0  3  0  0  0  0  0  0
  -16.7850  -28.3880   22.9210 C   0  0  0  0  0  3  0  0  0  0  0  0
  -25.8790  -32.5360   23.8230 C   0  0  0  0  0  3  0  0  0  0  0  0
  -25.5220  -33.9280   24.1400 N   0  0  0  0  0  0  0  0  0  0  0  0
  -25.8390  -34.9920   23.3890 C   0  0  0  0  0  0  0  0  0  0  0  0
  -26.5260  -34.9090   22.3690 O   0  0  0  0  0  0  0  0  0  0  0  0
  -24.9070  -34.0660   24.9280 H   0  0  0  0  0  0  0  0  0  0  0  0
  -24.0720  -36.7500   23.0270 C   0  0  0  0  0  1  0  0  0  0  0  0
  -25.3160  -36.3700   23.8460 C   0  0  0  0  0  3  0  0  0  0  0  0
  -27.4150  -37.3130   24.7060 C   0  0  0  0  0  1  0  0  0  0  0  0
  -26.3250  -37.4490   23.7440 N   0  0  0  0  0  0  0  0  0  0  0  0
  -25.8910  -38.3570   23.8870 H   0  0  0  0  0  0  0  0  0  0  0  0
  -26.3910  -31.7940   25.1190 C   0  0  1  0  0  0  0  0  0  0  0  0
  -25.2800  -31.5290   26.1640 C   0  0  0  0  0  1  0  0  0  0  0  0
  -27.0290  -30.4310   24.7610 C   0  0  0  0  0  1  0  0  0  0  0  0
  -27.4960  -32.6330   25.8000 C   0  0  0  0  0  1  0  0  0  0  0  0
  2  6  1  0
  2  1  1  0
  3  2  2  0
  6  4  1  1
  6  5  1  0
  7  8  1  0
  7  6  1  0
  8 14  1  0
  9 14  1  0
 10 11  1  0
 10  9  1  0
 12 11  1  0
 12 19  1  0
 12 13  1  0
 14 13  1  0
 15  8  2  0
 16 17  2  0
 17 36  1  0
 18 17  1  0
 18 21  1  0
 19 20  1  0
 19 16  1  0
 20 18  2  0
 21 22  1  0
 22 23  2  0
 24 27  1  0
 24 23  1  0
 25 24  2  0
 26 25  1  0
 26 21  2  0
 27 28  1  0
 28 29  1  0
 29 30  2  0
 31 30  1  0
 31 35  1  0
 32 31  2  0
 33 28  2  0
 33 32  1  0
 34 33  1  0
 36 37  1  0
 37 40  1  0
 37 39  1  0
 38 36  2  0
 41 16  1  0
 41 42  1  0
 43 41  1  0
 44  1  1  0
 44 45  1  0
 46 45  1  0
 47 58  2  0
 48 46  1  0
 48 53  1  0
 49 57  1  0
 49 59  1  0
 50 56  1  0
 50 52  1  0
 51 57  1  0
 52 53  2  0
 52 51  1  0
 54 48  2  0
 55 54  1  0
 55 50  2  0
 56 49  1  0
 57 47  1  0
 59 61  2  0
 60 59  1  0
 62 60  1  0
 63 72  2  0
 63 68  1  0
 64 60  1  0
 64 68  1  0
 65 64  1  0
 66 67  1  0
 66 65  1  0
 67 63  1  0
 68 69  2  0
 69 70  1  0
 71 70  2  0
 72 71  1  0
 73 47  1  0
 73 74  1  0
 73 83  1  0
 74 77  1  0
 75 79  1  0
 75 74  1  0
 76 75  2  0
 79 78  1  0
 81 79  1  0
 81 82  1  0
 81 80  1  0
 83 86  1  1
 83 84  1  0
 85 83  1  0
M  ISO  4   7 100   8 100  45 101  46 101
M  END
>  <TORSDO>  (80) 
F 21

>  <SCORE>  (80) 
-15.259

>  <name>  (80) 
80

>  <ligand_id>  (80) 
80

>  <original_smiles>  (80) 
[H]c1c([H])c([H])c2c(c1[H])C([H])([H])C([H])([H])C([H])([H])C2([H])N([H])C(=O)C1([H])N(C(=O)C([H])(N([H])C(=O)C([H])(N([H])C([H])([H])[H])C([H])([H])[H])C(C([H])([H])[H])(C([H])([H])[H])C([H])([H])[H])C([H])([H])c2c([H])c(OC([H])([H])C([H])([H])C([H])([H])C(=O)C(C([H])([H])[H])(C([H])([H])[H])C([H])([H])C(=O)N3C([H])([H])C([H])([H])C([H])([H])C([H])(n4nc(-c5c([H])c([H])c(Oc6c([H])c([H])c(F)c([H])c6F)c([H])c5[H])c(C(=O)N([H])[H])c4N([H])[H])C3([H])[H])c([H])c([H])c2C1([H])[H]

>  <smiles>  (80) 
[H]c1c([H])c([H])c2c(c1[H])C([H])([H])C([H])([H])C([H])([H])C2([H])N([H])C(=O)C1([H])N(C(=O)C([H])(N([H])C(=O)C([H])(N([H])C([H])([H])[H])C([H])([H])[H])C(C([H])([H])[H])(C([H])([H])[H])C([H])([H])[H])C([H])([H])c2c([H])c(OC([H])([H])C([H])([H])C([H])([H])C(=O)C(C([H])([H])[H])(C([H])([H])[H])C([H])([H])C(=O)N3C([H])([H])C([H])([H])C([H])([H])C([H])(n4nc(-c5c([H])c([H])c(Oc6c([H])c([H])c(F)c([H])c6F)c([H])c5[H])c(C(=O)N([H])[H])c4N([H])[H])C3([H])[H])c([H])c([H])c2C1([H])[H]

$$$$
81:0:0
     RDKit          3D

 96105  0  0  1  0  0  0  0  0999 V2000
  -28.3880  -22.1440   19.2510 C   0  0  0  0  0  3  0  0  0  0  0  0
  -28.5150  -19.7710   18.8840 C   0  0  0  0  0  3  0  0  0  0  0  0
  -28.5950  -23.2680   20.0540 C   0  0  0  0  0  3  0  0  0  0  0  0
  -28.9310  -18.5080   19.3140 C   0  0  0  0  0  3  0  0  0  0  0  0
  -28.7000  -20.8650   19.7380 C   0  0  0  0  0  0  0  0  0  0  0  0
  -29.3550  -21.8250   21.8790 C   0  0  0  0  0  0  0  0  0  0  0  0
  -29.2270  -20.6660   21.0430 C   0  0  0  0  0  0  0  0  0  0  0  0
  -29.0700  -23.1400   21.3760 C   0  0  0  0  0  0  0  0  0  0  0  0
  -29.5110  -18.3590   20.5870 C   0  0  0  0  0  0  0  0  0  0  0  0
  -29.7820  -21.6200   23.3330 C   0  0  0  0  0  1  0  0  0  0  0  0
  -29.6180  -19.4120   21.4440 N   0  0  0  0  0  0  0  0  0  0  0  0
  -29.9530  -15.9080   20.2670 C   0  0  0  0  0  3  0  0  0  0  0  0
  -30.2040  -17.0780   20.9110 C   0  0  0  0  0  0  0  0  0  0  0  0
  -30.8090  -14.7200   20.2100 C   0  0  0  0  0  0  0  0  0  0  0  0
  -30.5160  -12.5480   19.0780 C   0  0  0  0  0  2  0  0  0  0  0  0
  -29.5410  -12.7300   17.8950 C   0  0  0  0  0  2  0  0  0  0  0  0
  -28.0800  -12.5480   18.3570 C   0  0  0  0  0  2  0  0  0  0  0  0
  -27.7480  -13.3900   19.6160 C   0  0  0  0  0  3  0  0  0  0  0  0
  -28.8380  -13.2280   20.7000 C   0  0  0  0  0  2  0  0  0  0  0  0
  -30.1450  -13.5340   20.1040 N   0  0  0  0  0  0  0  0  0  0  0  0
  -31.9930  -14.8350   19.8830 O   0  0  0  0  0  0  0  0  0  0  0  0
  -25.3790  -13.9640   20.4260 C   0  0  0  0  0  0  0  0  0  0  0  0
  -24.3310  -13.1740   20.8150 C   0  0  0  0  0  0  0  0  0  0  0  0
  -24.8050  -11.8280   20.7430 C   0  0  0  0  0  0  0  0  0  0  0  0
  -26.4200  -13.0940   20.1400 N   0  0  0  0  0  0  0  0  0  0  0  0
  -26.0840  -11.8050   20.3930 N   0  0  0  0  0  0  0  0  0  0  0  0
  -24.1000  -10.5560   20.9280 C   0  0  0  0  0  0  0  0  0  0  0  0
  -24.5190   -9.6110   21.8900 C   0  0  0  0  0  3  0  0  0  0  0  0
  -23.8100   -8.4030   22.0630 C   0  0  0  0  0  3  0  0  0  0  0  0
  -22.6700   -8.1310   21.2720 C   0  0  0  0  0  0  0  0  0  0  0  0
  -22.2720   -9.0640   20.2980 C   0  0  0  0  0  3  0  0  0  0  0  0
  -22.9820  -10.2630   20.1240 C   0  0  0  0  0  3  0  0  0  0  0  0
  -21.9350   -6.9730   21.3510 O   0  0  0  0  0  0  0  0  0  0  0  0
  -21.7840   -6.2970   22.5350 C   0  0  0  0  0  0  0  0  0  0  0  0
  -21.1790   -6.8950   23.6630 C   0  0  0  0  0  3  0  0  0  0  0  0
  -20.9830   -6.1410   24.8370 C   0  0  0  0  0  3  0  0  0  0  0  0
  -21.3800   -4.7920   24.8820 C   0  0  0  0  0  0  0  0  0  0  0  0
  -21.9760   -4.1930   23.7600 C   0  0  0  0  0  3  0  0  0  0  0  0
  -22.1750   -4.9450   22.5880 C   0  0  0  0  0  0  0  0  0  0  0  0
  -22.7300   -4.3580   21.5000 F   0  0  0  0  0  0  0  0  0  0  0  0
  -21.1840   -4.0650   26.0090 F   0  0  0  0  0  0  0  0  0  0  0  0
  -22.9400  -13.6320   21.1410 C   0  0  0  0  0  0  0  0  0  0  0  0
  -22.2460  -12.9090   22.0140 N   0  0  0  0  0  0  0  0  0  0  0  0
  -22.4770  -14.6630   20.6560 O   0  0  0  0  0  0  0  0  0  0  0  0
  -22.6330  -12.0730   22.4250 H   0  0  0  0  0  0  0  0  0  0  0  0
  -21.3140  -13.1990   22.2740 H   0  0  0  0  0  0  0  0  0  0  0  0
  -25.5300  -15.3390   20.2680 N   0  0  0  0  0  0  0  0  0  0  0  0
  -24.7710  -15.9930   20.4230 H   0  0  0  0  0  0  0  0  0  0  0  0
  -26.3700  -15.7890   19.9260 H   0  0  0  0  0  0  0  0  0  0  0  0
  -31.1700  -17.2390   21.8270 O   0  0  0  0  0  0  0  0  0  0  0  0
  -31.0790  -18.1480   22.1070 H   0  0  0  0  0  0  0  0  0  0  0  0
  -30.5670  -24.5670   22.7240 C   0  0  0  0  0  1  0  0  0  0  0  0
  -29.2470  -24.3290   22.1340 N   0  0  0  0  0  0  0  0  0  0  0  0
  -28.3880  -25.5010   21.8620 C   0  0  0  0  0  2  0  0  0  0  0  0
  -29.0600  -26.6300   21.0280 C   0  0  0  0  0  2  0  0  0  0  0  0
  -28.3600  -26.9240   19.8170 O   0  0  0  0  0  0  0  0  0  0  0  0
  -24.4910  -31.9460   23.1250 C   0  0  0  0  0  0  0  0  0  0  0  0
  -27.2020  -27.6610   19.9140 C   0  0  0  0  0  0  0  0  0  0  0  0
  -23.2980  -30.5710   21.4490 C   0  0  0  0  0  3  0  0  0  0  0  0
  -24.7730  -29.1020   19.9720 C   0  0  0  0  0  0  0  0  0  0  0  0
  -25.8100  -30.9890   21.2410 C   0  0  0  0  0  2  0  0  0  0  0  0
  -25.9200  -29.6330   20.5760 C   0  0  0  0  0  0  0  0  0  0  0  0
  -27.1360  -28.9170   20.5570 C   0  0  0  0  0  3  0  0  0  0  0  0
  -26.0480  -27.1460   19.2900 C   0  0  0  0  0  3  0  0  0  0  0  0
  -24.8290  -27.8540   19.3270 C   0  0  0  0  0  3  0  0  0  0  0  0
  -23.5110  -29.9330   20.0480 C   0  0  0  0  0  2  0  0  0  0  0  0
  -24.5520  -31.1820   21.9980 N   0  0  0  0  0  0  0  0  0  0  0  0
  -23.4100  -32.1810   23.6830 O   0  0  0  0  0  0  0  0  0  0  0  0
  -22.6760  -29.5090   22.3850 C   0  0  0  0  0  0  0  0  0  0  0  0
  -21.3490  -29.3260   22.2810 N   0  0  0  0  0  0  0  0  0  0  0  0
  -23.3800  -28.8550   23.1580 O   0  0  0  0  0  0  0  0  0  0  0  0
  -20.8410  -29.9020   21.6250 H   0  0  0  0  0  0  0  0  0  0  0  0
  -17.9880  -28.1270   22.8460 C   0  0  0  0  0  0  0  0  0  0  0  0
  -20.5560  -28.3540   23.0330 C   0  0  0  0  0  3  0  0  0  0  0  0
  -20.6270  -26.9540   22.3800 C   0  0  0  0  0  2  0  0  0  0  0  0
  -19.4840  -26.6930   21.3940 C   0  0  0  0  0  2  0  0  0  0  0  0
  -18.1280  -26.8150   22.0950 C   0  0  0  0  0  2  0  0  0  0  0  0
  -19.1290  -28.8580   23.2730 C   0  0  0  0  0  0  0  0  0  0  0  0
  -18.9440  -30.0910   23.9360 C   0  0  0  0  0  3  0  0  0  0  0  0
  -17.6510  -30.5920   24.1770 C   0  0  0  0  0  3  0  0  0  0  0  0
  -16.5260  -29.8570   23.7650 C   0  0  0  0  0  3  0  0  0  0  0  0
  -16.6950  -28.6270   23.1050 C   0  0  0  0  0  3  0  0  0  0  0  0
  -25.7710  -32.5810   23.7540 C   0  0  0  0  0  3  0  0  0  0  0  0
  -25.4390  -33.9630   24.1240 N   0  0  0  0  0  0  0  0  0  0  0  0
  -25.7440  -35.0410   23.3880 C   0  0  0  0  0  0  0  0  0  0  0  0
  -26.4090  -34.9780   22.3490 O   0  0  0  0  0  0  0  0  0  0  0  0
  -24.8490  -34.0870   24.9330 H   0  0  0  0  0  0  0  0  0  0  0  0
  -23.9920  -36.8170   23.0770 C   0  0  0  0  0  1  0  0  0  0  0  0
  -25.2340  -36.4070   23.8840 C   0  0  0  0  0  3  0  0  0  0  0  0
  -27.3460  -37.3020   24.7590 C   0  0  0  0  0  1  0  0  0  0  0  0
  -26.2530  -37.4770   23.8070 N   0  0  0  0  0  0  0  0  0  0  0  0
  -25.8320  -38.3880   23.9720 H   0  0  0  0  0  0  0  0  0  0  0  0
  -26.3150  -31.7820   25.0010 C   0  0  1  0  0  0  0  0  0  0  0  0
  -25.2380  -31.4900   26.0710 C   0  0  0  0  0  1  0  0  0  0  0  0
  -26.9210  -30.4290   24.5590 C   0  0  0  0  0  1  0  0  0  0  0  0
  -27.4580  -32.5750   25.6750 C   0  0  0  0  0  1  0  0  0  0  0  0
  1  5  2  0
  1  3  1  0
  2  4  2  0
  2  5  1  0
  3  8  2  0
  4  9  1  0
  5  7  1  0
  6 10  1  0
  7 11  1  0
  7  6  2  0
  8  6  1  0
  8 53  1  0
  9 13  1  0
  9 11  2  0
 12 13  2  0
 13 50  1  0
 14 12  1  0
 15 20  1  0
 16 17  1  0
 16 15  1  0
 18 17  1  0
 18 25  1  0
 18 19  1  0
 20 14  1  0
 20 19  1  0
 21 14  2  0
 22 23  2  0
 23 42  1  0
 24 23  1  0
 24 27  1  0
 25 26  1  0
 25 22  1  0
 26 24  2  0
 27 28  1  0
 28 29  2  0
 30 33  1  0
 30 29  1  0
 31 30  2  0
 32 31  1  0
 32 27  2  0
 33 34  1  0
 34 39  2  0
 34 35  1  0
 35 36  2  0
 36 37  1  0
 37 41  1  0
 38 37  2  0
 39 38  1  0
 40 39  1  0
 42 43  1  0
 43 46  1  0
 43 45  1  0
 44 42  2  0
 47 48  1  0
 47 22  1  0
 49 47  1  0
 50 51  1  0
 53 52  1  0
 54 53  1  0
 55 54  1  0
 56 58  1  0
 56 55  1  0
 57 68  2  0
 58 63  1  0
 59 67  1  0
 59 69  1  0
 60 66  1  0
 60 62  1  0
 61 67  1  0
 62 61  1  0
 63 62  2  0
 64 65  1  0
 64 58  2  0
 65 60  2  0
 66 59  1  0
 67 57  1  0
 69 71  2  0
 70 69  1  0
 72 70  1  0
 73 82  2  0
 73 78  1  0
 74 70  1  0
 74 78  1  0
 75 74  1  0
 76 77  1  0
 76 75  1  0
 77 73  1  0
 78 79  2  0
 79 80  1  0
 81 80  2  0
 82 81  1  0
 83 57  1  0
 83 84  1  0
 83 93  1  0
 84 87  1  0
 85 89  1  0
 85 84  1  0
 86 85  2  0
 89 88  1  0
 91 89  1  0
 91 92  1  0
 91 90  1  0
 93 96  1  1
 93 94  1  0
 95 93  1  0
M  ISO  4  12 100  14 100  55 101  56 101
M  END
>  <TORSDO>  (81) 
F 21

>  <SCORE>  (81) 
-13.119

>  <name>  (81) 
81

>  <ligand_id>  (81) 
81

>  <original_smiles>  (81) 
[H]OC(=C([H])C(=O)N1C([H])([H])C([H])([H])C([H])([H])C([H])(n2nc(-c3c([H])c([H])c(Oc4c([H])c([H])c(F)c([H])c4F)c([H])c3[H])c(C(=O)N([H])[H])c2N([H])[H])C1([H])[H])c1nc2c(C([H])([H])[H])c(N(C([H])([H])[H])C([H])([H])C([H])([H])Oc3c([H])c([H])c4c(c3[H])C([H])([H])N(C(=O)C([H])(N([H])C(=O)C([H])(N([H])C([H])([H])[H])C([H])([H])[H])C(C([H])([H])[H])(C([H])([H])[H])C([H])([H])[H])C([H])(C(=O)N([H])C3([H])c5c([H])c([H])c([H])c([H])c5C([H])([H])C([H])([H])C3([H])[H])C4([H])[H])c([H])c([H])c2c([H])c1[H]

>  <smiles>  (81) 
[H]OC(=C([H])C(=O)N1C([H])([H])C([H])([H])C([H])([H])C([H])(n2nc(-c3c([H])c([H])c(Oc4c([H])c([H])c(F)c([H])c4F)c([H])c3[H])c(C(=O)N([H])[H])c2N([H])[H])C1([H])[H])c1nc2c(C([H])([H])[H])c(N(C([H])([H])[H])C([H])([H])C([H])([H])Oc3c([H])c([H])c4c(c3[H])C([H])([H])N(C(=O)C([H])(N([H])C(=O)C([H])(N([H])C([H])([H])[H])C([H])([H])[H])C(C([H])([H])[H])(C([H])([H])[H])C([H])([H])[H])C([H])(C(=O)N([H])C3([H])c5c([H])c([H])c([H])c([H])c5C([H])([H])C([H])([H])C3([H])[H])C4([H])[H])c([H])c([H])c2c([H])c1[H]

$$$$
82:0:0
     RDKit          3D

 95 95  0  0  1  0  0  0  0  0999 V2000
  -30.8340  -18.8270   20.1990 C   0  0  0  0  0  3  0  0  0  0  0  0
  -30.2370  -20.4160   20.3630 C   0  0  0  0  0  3  0  0  0  0  0  0
  -29.2670  -19.3520   18.6520 C   0  0  0  0  0  2  0  0  0  0  0  0
  -30.4410  -17.8800   18.9430 C   0  0  0  0  0  2  0  0  0  0  0  0
  -29.4650  -21.1890   19.1590 C   0  0  0  0  0  3  0  0  0  0  0  0
  -32.1620  -13.4110   17.8120 C   0  0  0  0  0  3  0  0  0  0  0  0
  -31.3520  -12.1030   18.4910 C   0  0  0  0  0  2  0  0  0  0  0  0
  -31.8460  -15.0460   18.0000 C   0  0  0  0  0  3  0  0  0  0  0  0
  -29.9420  -14.7420   19.6010 C   0  0  0  0  0  2  0  0  0  0  0  0
  -30.0690  -12.4510   19.5080 C   0  0  0  0  0  1  0  0  0  0  0  0
  -30.7290  -15.8970   18.8320 C   0  0  0  0  0  2  0  0  0  0  0  0
  -28.8650  -11.2390   20.5400 C   0  0  0  0  0  2  0  0  0  0  0  0
  -29.1400  -10.0440   20.6830 O   0  0  0  0  0  0  0  0  0  0  0  0
  -27.2030  -12.1160   21.6510 C   0  0  0  0  0 15  0  0  0  0  0  0
  -27.6190  -13.9110   22.5470 C   0  0  0  0  0 15  0  0  0  0  0  0
  -29.4990  -14.6180   22.2050 C   0  0  0  0  0  3  0  0  0  0  0  0
  -31.4490  -14.3010   20.1050 C   0  0  0  0  0  2  0  0  0  0  0  0
  -29.6730  -14.7250   17.5090 C   0  0  0  0  0  1  0  0  0  0  0  0
  -28.0030  -14.3270   18.0190 C   0  0  0  0  0  2  0  0  0  0  0  0
  -27.7160  -14.2160   19.7660 C   0  0  0  0  0  2  0  0  0  0  0  0
  -29.2990  -13.5050   21.3050 C   0  0  0  0  0  2  0  0  0  0  0  0
  -30.5050  -13.9930   21.4570 N   0  0  0  0  0  0  0  0  0  0  0  0
  -30.1510  -15.6720   22.3840 O   0  0  0  0  0  1  0  0  0  0  0  0
  -25.4220  -14.5400   20.7020 C   0  0  0  0  0  0  0  0  0  0  0  0
  -24.4210  -13.4840   21.4780 C   0  0  0  0  0  3  0  0  0  0  0  0
  -24.7620  -11.8030   20.9800 C   0  0  0  0  0  3  0  0  0  0  0  0
  -26.4530  -13.7050   19.5200 N   0  0  0  0  0  2  0  0  0  0  0  0
  -25.9440  -11.7850   19.6480 N   0  0  0  0  0  1  0  0  0  0  0  0
  -23.9100  -10.6930   21.0580 C   0  0  0  0  0  0  0  0  0  0  0  0
  -24.2420   -9.7210   21.9970 C   0  0  0  0  0  3  0  0  0  0  0  0
  -23.4520   -8.5740   22.0730 C   0  0  0  0  0  3  0  0  0  0  0  0
  -22.3280   -8.4330   21.2250 C   0  0  0  0  0  0  0  0  0  0  0  0
  -22.0100   -9.4320   20.2860 C   0  0  0  0  0  3  0  0  0  0  0  0
  -22.8100  -10.5760   20.1930 C   0  0  0  0  0  3  0  0  0  0  0  0
  -21.5280   -7.3270   21.2420 O   0  0  0  0  0  0  0  0  0  0  0  0
  -21.5580   -6.4760   22.3150 C   0  0  0  0  0  0  0  0  0  0  0  0
  -21.2150   -6.9120   23.6140 C   0  0  0  0  0  3  0  0  0  0  0  0
  -21.1940   -5.9910   24.6780 C   0  0  0  0  0  3  0  0  0  0  0  0
  -21.5030   -4.6380   24.4420 C   0  0  0  0  0  0  0  0  0  0  0  0
  -21.8540   -4.2070   23.1500 C   0  0  0  0  0  3  0  0  0  0  0  0
  -21.8820   -5.1260   22.0880 C   0  0  0  0  0  0  0  0  0  0  0  0
  -22.2070   -4.7110   20.8400 F   0  0  0  0  0  0  0  0  0  0  0  0
  -21.4610   -3.7470   25.4590 F   0  0  0  0  0  0  0  0  0  0  0  0
  -22.9600  -13.8920   21.1360 C   0  0  0  0  0  0  0  0  0  0  0  0
  -21.9760  -13.2440   21.7320 N   0  0  0  0  0  0  0  0  0  0  0  0
  -22.6610  -14.7200   20.2540 O   0  0  0  0  0  0  0  0  0  0  0  0
  -22.1660  -12.5470   22.4360 H   0  0  0  0  0  0  0  0  0  0  0  0
  -21.0160  -13.4620   21.5050 H   0  0  0  0  0  0  0  0  0  0  0  0
  -25.3450  -15.9130   20.5370 N   0  0  0  0  0  4  0  0  0  0  0  0
  -24.6000  -16.4540   20.9600 H   0  0  0  0  0  0  0  0  0  0  0  0
  -25.7930  -16.4060   19.7750 H   0  0  0  0  0  0  0  0  0  0  0  0
  -30.4580  -21.5490   18.2210 O   0  0  0  0  0  0  0  0  0  0  0  0
  -30.8630  -22.3550   18.5280 H   0  0  0  0  0  0  0  0  0  0  0  0
  -28.4510  -23.0350   19.2560 C   0  0  0  0  0 15  0  0  0  0  0  0
  -28.4380  -24.8900   19.6020 O   0  0  0  0  0  1  0  0  0  0  0  0
  -24.5680  -31.3160   22.7160 C   0  0  0  0  0  0  0  0  0  0  0  0
  -27.4070  -26.1450   19.6850 C   0  0  0  0  0  0  0  0  0  0  0  0
  -23.4820  -29.8280   21.1010 C   0  0  0  0  0  3  0  0  0  0  0  0
  -25.0220  -28.1800   19.7400 C   0  0  0  0  0  0  0  0  0  0  0  0
  -26.0720  -30.0140   21.0310 C   0  0  0  0  0  2  0  0  0  0  0  0
  -26.2140  -28.5590   20.3660 C   0  0  0  0  0  0  0  0  0  0  0  0
  -27.3750  -27.5710   20.3080 C   0  0  0  0  0  3  0  0  0  0  0  0
  -26.1340  -26.0200   19.0630 C   0  0  0  0  0  3  0  0  0  0  0  0
  -25.0250  -26.9360   19.0830 C   0  0  0  0  0  3  0  0  0  0  0  0
  -23.7800  -29.1010   19.7570 C   0  0  0  0  0  2  0  0  0  0  0  0
  -24.7330  -30.4250   21.6690 N   0  0  0  0  0  0  0  0  0  0  0  0
  -23.4470  -31.5860   23.1870 O   0  0  0  0  0  0  0  0  0  0  0  0
  -22.7670  -28.8600   22.0860 C   0  0  0  0  0  0  0  0  0  0  0  0
  -21.4250  -28.7440   22.0160 N   0  0  0  0  0  0  0  0  0  0  0  0
  -23.4360  -28.2070   22.8890 O   0  0  0  0  0  0  0  0  0  0  0  0
  -20.9300  -29.3220   21.3510 H   0  0  0  0  0  0  0  0  0  0  0  0
  -18.0280  -27.6390   22.7210 C   0  0  0  0  0  0  0  0  0  0  0  0
  -20.6110  -27.8060   22.8030 C   0  0  0  0  0  3  0  0  0  0  0  0
  -20.6120  -26.3980   22.1600 C   0  0  0  0  0  2  0  0  0  0  0  0
  -19.4300  -26.1660   21.2140 C   0  0  0  0  0  2  0  0  0  0  0  0
  -18.1040  -26.3240   21.9640 C   0  0  0  0  0  2  0  0  0  0  0  0
  -19.2030  -28.3430   23.1010 C   0  0  0  0  0  0  0  0  0  0  0  0
  -19.0710  -29.5730   23.7810 C   0  0  0  0  0  3  0  0  0  0  0  0
  -17.8000  -30.1000   24.0770 C   0  0  0  0  0  3  0  0  0  0  0  0
  -16.6420  -29.3940   23.7080 C   0  0  0  0  0  3  0  0  0  0  0  0
  -16.7570  -28.1640   23.0360 C   0  0  0  0  0  3  0  0  0  0  0  0
  -25.7720  -32.0530   23.3760 C   0  0  0  0  0  3  0  0  0  0  0  0
  -25.3330  -33.4070   23.7830 N   0  0  0  0  0  0  0  0  0  0  0  0
  -25.6980  -34.5540   23.1920 C   0  0  0  0  0  0  0  0  0  0  0  0
  -26.4910  -34.5860   22.2490 O   0  0  0  0  0  0  0  0  0  0  0  0
  -24.6350  -33.4500   24.5100 H   0  0  0  0  0  0  0  0  0  0  0  0
  -23.9400  -36.3260   22.8210 C   0  0  0  0  0  1  0  0  0  0  0  0
  -25.0960  -35.8720   23.7300 C   0  0  0  0  0  3  0  0  0  0  0  0
  -27.0700  -36.7480   24.9040 C   0  0  0  0  0  1  0  0  0  0  0  0
  -26.0820  -36.9690   23.8510 N   0  0  0  0  0  0  0  0  0  0  0  0
  -25.6170  -37.8540   24.0330 H   0  0  0  0  0  0  0  0  0  0  0  0
  -26.3440  -31.2900   24.6370 C   0  0  1  0  0  0  0  0  0  0  0  0
  -25.2740  -30.9470   25.7010 C   0  0  0  0  0  1  0  0  0  0  0  0
  -27.0280  -29.9680   24.2240 C   0  0  0  0  0  1  0  0  0  0  0  0
  -27.4340  -32.1490   25.3200 C   0  0  0  0  0  1  0  0  0  0  0  0
  1  2  2  0
  3  4  1  0
  3  5  1  0
  4  1  1  0
  5 52  1  0
  5  2  1  0
  6  8  2  0
  6  7  1  0
  7 10  1  0
  8 11  1  0
  9 17  1  0
 11  9  1  0
 12 13  2  0
 16 23  1  0
 17 22  1  0
 18 19  1  0
 19 20  1  0
 21 22  1  0
 21 16  1  0
 22 16  1  0
 25 24  1  0
 26 28  1  0
 26 29  1  0
 26 25  1  0
 27 20  1  0
 27 24  1  0
 29 30  1  0
 30 31  2  0
 32 35  1  0
 32 31  1  0
 33 32  2  0
 34 33  1  0
 34 29  2  0
 35 36  1  0
 36 37  1  0
 37 38  2  0
 39 38  1  0
 39 43  1  0
 40 39  2  0
 41 36  2  0
 41 40  1  0
 42 41  1  0
 44 25  1  0
 44 45  1  0
 45 47  1  0
 46 44  2  0
 48 45  1  0
 49 24  2  0
 49 50  1  0
 51 49  1  0
 52 53  1  0
 55 57  1  0
 56 67  2  0
 57 62  1  0
 58 66  1  0
 58 68  1  0
 59 65  1  0
 59 61  1  0
 60 66  1  0
 61 60  1  0
 62 61  2  0
 63 64  1  0
 63 57  2  0
 64 59  2  0
 65 58  1  0
 66 56  1  0
 68 70  2  0
 69 68  1  0
 71 69  1  0
 72 81  2  0
 72 77  1  0
 73 69  1  0
 73 77  1  0
 74 73  1  0
 75 76  1  0
 75 74  1  0
 76 72  1  0
 77 78  2  0
 78 79  1  0
 80 79  2  0
 81 80  1  0
 82 56  1  0
 82 83  1  0
 82 92  1  0
 83 86  1  0
 84 88  1  0
 84 83  1  0
 85 84  2  0
 88 87  1  0
 88 90  1  0
 90 91  1  0
 90 89  1  0
 92 95  1  1
 92 93  1  0
 94 92  1  0
M  ISO  4  15 100  16 100  54 101  55 101
M  END
>  <TORSDO>  (82) 
F 22

>  <SCORE>  (82) 
-7.125

>  <name>  (82) 
82

>  <ligand_id>  (82) 
82

>  <original_smiles>  (82) 
[H]OC1(C([H])([H])Oc2c([H])c([H])c3c(c2[H])C([H])([H])N(C(=O)C([H])(N([H])C(=O)C([H])(N([H])C([H])([H])[H])C([H])([H])[H])C(C([H])([H])[H])(C([H])([H])[H])C([H])([H])[H])C([H])(C(=O)N([H])C2([H])c4c([H])c([H])c([H])c([H])c4C([H])([H])C([H])([H])C2([H])[H])C3([H])[H])C([H])([H])C([H])([H])C([H])(c2c([H])c([H])c([H])c(C(=O)C([H])([H])C([H])([H])C(=O)N3C([H])([H])C([H])([H])C([H])([H])C([H])(n4nc(-c5c([H])c([H])c(Oc6c([H])c([H])c(F)c([H])c6F)c([H])c5[H])c(C(=O)N([H])[H])c4N([H])[H])C3([H])[H])c2[H])C1([H])[H]

>  <smiles>  (82) 
[H]OC1(C([H])([H])Oc2c([H])c([H])c3c(c2[H])C([H])([H])N(C(=O)C([H])(N([H])C(=O)C([H])(N([H])C([H])([H])[H])C([H])([H])[H])C(C([H])([H])[H])(C([H])([H])[H])C([H])([H])[H])C([H])(C(=O)N([H])C2([H])c4c([H])c([H])c([H])c([H])c4C([H])([H])C([H])([H])C2([H])[H])C3([H])[H])C([H])([H])C([H])([H])C([H])(c2c([H])c([H])c([H])c(C(=O)C([H])([H])C([H])([H])C(=O)N3C([H])([H])C([H])([H])C([H])([H])C([H])(n4nc(-c5c([H])c([H])c(Oc6c([H])c([H])c(F)c([H])c6F)c([H])c5[H])c(C(=O)N([H])[H])c4N([H])[H])C3([H])[H])c2[H])C1([H])[H]

$$$$
83:0:0
     RDKit          3D

 85 92  0  0  1  0  0  0  0  0999 V2000
  -28.0230  -23.9770   20.2610 C   0  0  0  0  0  3  0  0  0  0  0  0
  -28.8800  -22.6940   20.2500 C   0  0  0  0  0  0  0  0  0  0  0  0
  -28.6460  -20.8920   20.2780 C   0  0  0  0  0  0  0  0  0  0  0  0
  -27.4560  -20.5820   20.3510 O   0  0  0  0  0  0  0  0  0  0  0  0
  -29.6620  -19.3180   20.2270 C   0  0  0  0  0  3  0  0  0  0  0  0
  -29.4240  -17.3890   20.3560 C   0  0  0  0  0  3  0  0  0  0  0  0
  -30.3080  -15.7400   20.1650 C   0  0  0  0  0  0  0  0  0  0  0  0
  -30.4510  -13.1910   19.3410 C   0  0  0  0  0  2  0  0  0  0  0  0
  -29.5360  -12.8180   18.1360 C   0  0  0  0  0  2  0  0  0  0  0  0
  -28.1180  -12.4520   18.6070 C   0  0  0  0  0  2  0  0  0  0  0  0
  -27.6260  -13.4310   19.6960 C   0  0  0  0  0  3  0  0  0  0  0  0
  -28.6740  -13.7190   20.7920 C   0  0  0  0  0  2  0  0  0  0  0  0
  -29.8460  -14.3490   20.1420 N   0  0  0  0  0  0  0  0  0  0  0  0
  -31.5290  -15.7120   19.9140 O   0  0  0  0  0  0  0  0  0  0  0  0
  -25.2800  -13.9270   20.5360 C   0  0  0  0  0  0  0  0  0  0  0  0
  -24.2360  -13.1310   20.9120 C   0  0  0  0  0  0  0  0  0  0  0  0
  -24.7150  -11.7870   20.8400 C   0  0  0  0  0  0  0  0  0  0  0  0
  -26.3240  -13.0700   20.2410 N   0  0  0  0  0  0  0  0  0  0  0  0
  -26.0000  -11.7730   20.4920 N   0  0  0  0  0  0  0  0  0  0  0  0
  -24.0010  -10.5150   21.0200 C   0  0  0  0  0  0  0  0  0  0  0  0
  -24.4340   -9.5480   21.9550 C   0  0  0  0  0  3  0  0  0  0  0  0
  -23.7150   -8.3450   22.1260 C   0  0  0  0  0  3  0  0  0  0  0  0
  -22.5490   -8.0990   21.3630 C   0  0  0  0  0  0  0  0  0  0  0  0
  -22.1350   -9.0550   20.4180 C   0  0  0  0  0  3  0  0  0  0  0  0
  -22.8550  -10.2490   20.2450 C   0  0  0  0  0  3  0  0  0  0  0  0
  -21.8020   -6.9480   21.4430 O   0  0  0  0  0  0  0  0  0  0  0  0
  -21.7120   -6.2270   22.6070 C   0  0  0  0  0  0  0  0  0  0  0  0
  -21.2030   -6.7930   23.7960 C   0  0  0  0  0  3  0  0  0  0  0  0
  -21.0620   -5.9970   24.9500 C   0  0  0  0  0  3  0  0  0  0  0  0
  -21.4220   -4.6370   24.9160 C   0  0  0  0  0  0  0  0  0  0  0  0
  -21.9250   -4.0700   23.7320 C   0  0  0  0  0  3  0  0  0  0  0  0
  -22.0660   -4.8630   22.5800 C   0  0  0  0  0  0  0  0  0  0  0  0
  -22.5310   -4.3060   21.4350 F   0  0  0  0  0  0  0  0  0  0  0  0
  -21.2810   -3.8700   26.0230 F   0  0  0  0  0  0  0  0  0  0  0  0
  -22.8420  -13.5910   21.2220 C   0  0  0  0  0  0  0  0  0  0  0  0
  -22.1420  -12.8790   22.0970 N   0  0  0  0  0  0  0  0  0  0  0  0
  -22.3850  -14.6190   20.7240 O   0  0  0  0  0  0  0  0  0  0  0  0
  -22.5270  -12.0490   22.5220 H   0  0  0  0  0  0  0  0  0  0  0  0
  -21.2080  -13.1690   22.3470 H   0  0  0  0  0  0  0  0  0  0  0  0
  -25.4250  -15.3030   20.3860 N   0  0  0  0  0  0  0  0  0  0  0  0
  -24.6580  -15.9480   20.5400 H   0  0  0  0  0  0  0  0  0  0  0  0
  -26.2660  -15.7610   20.0570 H   0  0  0  0  0  0  0  0  0  0  0  0
  -30.1910  -22.9600   20.2150 O   0  0  0  0  0  0  0  0  0  0  0  0
  -30.2810  -23.9050   20.2050 H   0  0  0  0  0  0  0  0  0  0  0  0
  -28.2010  -25.5860   20.2610 O   0  0  0  0  0  0  0  0  0  0  0  0
  -24.6880  -31.8950   23.1840 C   0  0  0  0  0  0  0  0  0  0  0  0
  -27.2150  -26.7920   20.2350 C   0  0  0  0  0  0  0  0  0  0  0  0
  -23.4990  -30.4840   21.5600 C   0  0  0  0  0  3  0  0  0  0  0  0
  -24.9450  -28.8240   20.1610 C   0  0  0  0  0  0  0  0  0  0  0  0
  -26.0760  -30.6240   21.4360 C   0  0  0  0  0  2  0  0  0  0  0  0
  -26.1400  -29.1850   20.7950 C   0  0  0  0  0  0  0  0  0  0  0  0
  -27.2570  -28.1950   20.8020 C   0  0  0  0  0  3  0  0  0  0  0  0
  -25.9890  -26.6450   19.5380 C   0  0  0  0  0  3  0  0  0  0  0  0
  -24.9070  -27.5790   19.5090 C   0  0  0  0  0  3  0  0  0  0  0  0
  -23.7380  -29.7750   20.1960 C   0  0  0  0  0  2  0  0  0  0  0  0
  -24.7780  -31.0350   22.1130 N   0  0  0  0  0  0  0  0  0  0  0  0
  -23.5960  -32.1990   23.6940 O   0  0  0  0  0  0  0  0  0  0  0  0
  -22.7840  -29.5150   22.5400 C   0  0  0  0  0  0  0  0  0  0  0  0
  -21.4510  -29.3580   22.4170 N   0  0  0  0  0  0  0  0  0  0  0  0
  -23.4400  -28.9000   23.3840 O   0  0  0  0  0  0  0  0  0  0  0  0
  -20.9710  -29.9040   21.7150 H   0  0  0  0  0  0  0  0  0  0  0  0
  -18.0640  -28.1530   22.9490 C   0  0  0  0  0  0  0  0  0  0  0  0
  -20.6250  -28.4280   23.1990 C   0  0  0  0  0  3  0  0  0  0  0  0
  -20.7250  -26.9910   22.6360 C   0  0  0  0  0  2  0  0  0  0  0  0
  -19.6210  -26.6590   21.6280 C   0  0  0  0  0  2  0  0  0  0  0  0
  -18.2410  -26.8030   22.2760 C   0  0  0  0  0  2  0  0  0  0  0  0
  -19.1820  -28.9240   23.3680 C   0  0  0  0  0  0  0  0  0  0  0  0
  -18.9590  -30.1840   23.9640 C   0  0  0  0  0  3  0  0  0  0  0  0
  -17.6520  -30.6760   24.1400 C   0  0  0  0  0  3  0  0  0  0  0  0
  -16.5490  -29.9050   23.7340 C   0  0  0  0  0  3  0  0  0  0  0  0
  -16.7560  -28.6450   23.1450 C   0  0  0  0  0  3  0  0  0  0  0  0
  -25.9520  -32.5510   23.8180 C   0  0  0  0  0  3  0  0  0  0  0  0
  -26.4680  -31.7860   25.1010 C   0  0  1  0  0  0  0  0  0  0  0  0
  -25.3750  -31.5510   26.1700 C   0  0  0  0  0  1  0  0  0  0  0  0
  -27.0540  -30.4060   24.7260 C   0  0  0  0  0  1  0  0  0  0  0  0
  -27.6180  -32.5840   25.7590 C   0  0  0  0  0  1  0  0  0  0  0  0
  -25.6200  -33.9460   24.1710 N   0  0  0  0  0  0  0  0  0  0  0  0
  -25.9090  -35.0210   23.4250 C   0  0  0  0  0  0  0  0  0  0  0  0
  -26.5390  -34.9450   22.3680 O   0  0  0  0  0  0  0  0  0  0  0  0
  -25.0510  -34.0770   24.9950 H   0  0  0  0  0  0  0  0  0  0  0  0
  -24.1310  -36.7950   23.1960 C   0  0  0  0  0  1  0  0  0  0  0  0
  -25.4250  -36.3990   23.9270 C   0  0  0  0  0  3  0  0  0  0  0  0
  -27.5830  -37.3260   24.6490 C   0  0  0  0  0  1  0  0  0  0  0  0
  -26.4300  -37.4740   23.7660 N   0  0  0  0  0  0  0  0  0  0  0  0
  -26.0130  -38.3850   23.9390 H   0  0  0  0  0  0  0  0  0  0  0  0
  2  1  2  0
  2  3  1  0
  3  4  2  0
  5  3  1  0
  5  6  2  0
  7  6  1  0
  8 13  1  0
  9 10  1  0
  9  8  1  0
 11 10  1  0
 11 18  1  0
 11 12  1  0
 13  7  1  0
 13 12  1  0
 14  7  2  0
 15 16  2  0
 16 35  1  0
 17 16  1  0
 17 20  1  0
 18 19  1  0
 18 15  1  0
 19 17  2  0
 20 21  1  0
 21 22  2  0
 23 26  1  0
 23 22  1  0
 24 23  2  0
 25 24  1  0
 25 20  2  0
 26 27  1  0
 27 28  1  0
 28 29  2  0
 30 29  1  0
 30 34  1  0
 31 30  2  0
 32 27  2  0
 32 31  1  0
 33 32  1  0
 35 36  1  0
 36 39  1  0
 36 38  1  0
 37 35  2  0
 40 15  1  0
 40 41  1  0
 42 40  1  0
 43  2  1  0
 44 43  1  0
 45  1  1  0
 46 57  2  0
 47 45  1  0
 47 52  1  0
 48 56  1  0
 48 58  1  0
 49 55  1  0
 49 51  1  0
 50 56  1  0
 51 52  2  0
 51 50  1  0
 53 47  2  0
 54 53  1  0
 54 49  2  0
 55 48  1  0
 56 46  1  0
 58 60  2  0
 59 58  1  0
 61 59  1  0
 62 71  2  0
 62 67  1  0
 63 59  1  0
 63 67  1  0
 64 63  1  0
 65 66  1  0
 65 64  1  0
 66 62  1  0
 67 68  2  0
 68 69  1  0
 70 69  2  0
 71 70  1  0
 72 46  1  0
 72 77  1  0
 72 73  1  0
 73 76  1  1
 73 74  1  0
 75 73  1  0
 77 80  1  0
 78 82  1  0
 78 77  1  0
 79 78  2  0
 82 81  1  0
 84 82  1  0
 84 85  1  0
 84 83  1  0
M  ISO  4   1 101   6 100   7 100  45 101
M  END
>  <TORSDO>  (83) 
F 20

>  <SCORE>  (83) 
-15.175

>  <name>  (83) 
83

>  <ligand_id>  (83) 
83

>  <original_smiles>  (83) 
[H]OC(C(=O)C([H])([H])C([H])([H])C(=O)N1C([H])([H])C([H])([H])C([H])([H])C([H])(n2nc(-c3c([H])c([H])c(Oc4c([H])c([H])c(F)c([H])c4F)c([H])c3[H])c(C(=O)N([H])[H])c2N([H])[H])C1([H])[H])=C([H])Oc1c([H])c([H])c2c(c1[H])C([H])([H])N(C(=O)C([H])(N([H])C(=O)C([H])(N([H])C([H])([H])[H])C([H])([H])[H])C(C([H])([H])[H])(C([H])([H])[H])C([H])([H])[H])C([H])(C(=O)N([H])C1([H])c3c([H])c([H])c([H])c([H])c3C([H])([H])C([H])([H])C1([H])[H])C2([H])[H]

>  <smiles>  (83) 
[H]OC(C(=O)C([H])([H])C([H])([H])C(=O)N1C([H])([H])C([H])([H])C([H])([H])C([H])(n2nc(-c3c([H])c([H])c(Oc4c([H])c([H])c(F)c([H])c4F)c([H])c3[H])c(C(=O)N([H])[H])c2N([H])[H])C1([H])[H])=C([H])Oc1c([H])c([H])c2c(c1[H])C([H])([H])N(C(=O)C([H])(N([H])C(=O)C([H])(N([H])C([H])([H])[H])C([H])([H])[H])C(C([H])([H])[H])(C([H])([H])[H])C([H])([H])[H])C([H])(C(=O)N([H])C1([H])c3c([H])c([H])c([H])c([H])c3C([H])([H])C([H])([H])C1([H])[H])C2([H])[H]

$$$$
84:0:0
     RDKit          3D

 92100  0  0  1  0  0  0  0  0999 V2000
  -31.2390  -20.1910   22.1770 C   0  0  0  0  0  3  0  0  0  0  0  0
  -30.7970  -21.4650   22.5720 C   0  0  0  0  0  3  0  0  0  0  0  0
  -29.5900  -20.1670   20.3980 C   0  0  0  0  0  3  0  0  0  0  0  0
  -30.6390  -19.4990   21.1010 C   0  0  0  0  0  0  0  0  0  0  0  0
  -29.1460  -21.4800   20.7720 C   0  0  0  0  0  0  0  0  0  0  0  0
  -29.7450  -22.1160   21.8880 C   0  0  0  0  0  0  0  0  0  0  0  0
  -29.7990  -23.9680   23.4330 C   0  0  0  0  0  1  0  0  0  0  0  0
  -29.2610  -23.3460   22.2740 O   0  0  0  0  0  0  0  0  0  0  0  0
  -31.2420  -18.1440   20.7690 C   0  0  0  0  0  0  0  0  0  0  0  0
  -32.4170  -17.8880   21.0500 O   0  0  0  0  0  0  0  0  0  0  0  0
  -30.4250  -17.0120   20.1140 C   0  0  0  0  0  2  0  0  0  0  0  0
  -30.5000  -15.6330   20.8700 C   0  0  0  0  0  2  0  0  0  0  0  0
  -31.0730  -14.4260   20.0640 C   0  0  0  0  0  0  0  0  0  0  0  0
  -30.6630  -12.2920   18.8650 C   0  0  0  0  0  2  0  0  0  0  0  0
  -29.6490  -12.5510   17.7300 C   0  0  0  0  0  2  0  0  0  0  0  0
  -28.1990  -12.4500   18.2480 C   0  0  0  0  0  2  0  0  0  0  0  0
  -27.9770  -13.2540   19.5580 C   0  0  0  0  0  3  0  0  0  0  0  0
  -29.0910  -12.9430   20.5820 C   0  0  0  0  0  2  0  0  0  0  0  0
  -30.3790  -13.2540   19.9460 N   0  0  0  0  0  0  0  0  0  0  0  0
  -32.1500  -14.5880   19.4820 O   0  0  0  0  0  0  0  0  0  0  0  0
  -25.6530  -13.9350   20.4240 C   0  0  0  0  0  0  0  0  0  0  0  0
  -24.5780  -13.1960   20.8410 C   0  0  0  0  0  0  0  0  0  0  0  0
  -24.9810  -11.8290   20.7500 C   0  0  0  0  0  0  0  0  0  0  0  0
  -26.6470  -13.0200   20.1110 N   0  0  0  0  0  0  0  0  0  0  0  0
  -26.2480  -11.7460   20.3600 N   0  0  0  0  0  0  0  0  0  0  0  0
  -24.2180  -10.5920   20.9590 C   0  0  0  0  0  0  0  0  0  0  0  0
  -24.6390   -9.6110   21.8830 C   0  0  0  0  0  3  0  0  0  0  0  0
  -23.8780   -8.4370   22.0790 C   0  0  0  0  0  3  0  0  0  0  0  0
  -22.6810   -8.2380   21.3500 C   0  0  0  0  0  0  0  0  0  0  0  0
  -22.2800   -9.2080   20.4130 C   0  0  0  0  0  3  0  0  0  0  0  0
  -23.0400  -10.3730   20.2170 C   0  0  0  0  0  3  0  0  0  0  0  0
  -21.8920   -7.1190   21.4530 O   0  0  0  0  0  0  0  0  0  0  0  0
  -21.7940   -6.4140   22.6250 C   0  0  0  0  0  0  0  0  0  0  0  0
  -21.2920   -7.0010   23.8070 C   0  0  0  0  0  3  0  0  0  0  0  0
  -21.1450   -6.2210   24.9730 C   0  0  0  0  0  3  0  0  0  0  0  0
  -21.4870   -4.8550   24.9550 C   0  0  0  0  0  0  0  0  0  0  0  0
  -21.9810   -4.2680   23.7780 C   0  0  0  0  0  3  0  0  0  0  0  0
  -22.1300   -5.0450   22.6150 C   0  0  0  0  0  0  0  0  0  0  0  0
  -22.5880   -4.4690   21.4770 F   0  0  0  0  0  0  0  0  0  0  0  0
  -21.3370   -4.1040   26.0710 F   0  0  0  0  0  0  0  0  0  0  0  0
  -23.2220  -13.7210   21.2130 C   0  0  0  0  0  0  0  0  0  0  0  0
  -22.5320  -13.0440   22.1250 N   0  0  0  0  0  0  0  0  0  0  0  0
  -22.7850  -14.7650   20.7320 O   0  0  0  0  0  0  0  0  0  0  0  0
  -22.9030  -12.1990   22.5350 H   0  0  0  0  0  0  0  0  0  0  0  0
  -21.6230  -13.3730   22.4160 H   0  0  0  0  0  0  0  0  0  0  0  0
  -25.8640  -15.3010   20.2680 N   0  0  0  0  0  0  0  0  0  0  0  0
  -25.1360  -15.9880   20.4370 H   0  0  0  0  0  0  0  0  0  0  0  0
  -26.7150  -15.7100   19.9040 H   0  0  0  0  0  0  0  0  0  0  0  0
  -27.9760  -22.1730   20.0250 C   0  0  0  0  0  2  0  0  0  0  0  0
  -28.1790  -23.6270   19.4410 C   0  0  0  0  0  3  0  0  0  0  0  0
  -27.4470  -24.7820   20.2030 C   0  0  0  0  0  3  0  0  0  0  0  0
  -27.6980  -26.1360   19.7210 O   0  0  0  0  0  0  0  0  0  0  0  0
  -24.4420  -31.5650   23.0810 C   0  0  0  0  0  0  0  0  0  0  0  0
  -26.6180  -27.0060   19.7770 C   0  0  0  0  0  0  0  0  0  0  0  0
  -23.0720  -30.2970   21.4610 C   0  0  0  0  0  3  0  0  0  0  0  0
  -24.3510  -28.7050   19.9290 C   0  0  0  0  0  0  0  0  0  0  0  0
  -25.6090  -30.4770   21.1600 C   0  0  0  0  0  2  0  0  0  0  0  0
  -25.5710  -29.1220   20.4780 C   0  0  0  0  0  0  0  0  0  0  0  0
  -26.7120  -28.2810   20.3940 C   0  0  0  0  0  3  0  0  0  0  0  0
  -25.3850  -26.6250   19.2080 C   0  0  0  0  0  3  0  0  0  0  0  0
  -24.2550  -27.4580   19.2890 C   0  0  0  0  0  3  0  0  0  0  0  0
  -23.1740  -29.6480   20.0560 C   0  0  0  0  0  2  0  0  0  0  0  0
  -24.3960  -30.7930   21.9580 N   0  0  0  0  0  0  0  0  0  0  0  0
  -23.4060  -31.8940   23.6760 O   0  0  0  0  0  0  0  0  0  0  0  0
  -22.3930  -29.2960   22.4240 C   0  0  0  0  0  0  0  0  0  0  0  0
  -21.0550  -29.2040   22.3500 N   0  0  0  0  0  0  0  0  0  0  0  0
  -23.0660  -28.6050   23.1940 O   0  0  0  0  0  0  0  0  0  0  0  0
  -20.5730  -29.8090   21.7000 H   0  0  0  0  0  0  0  0  0  0  0  0
  -17.6360  -28.1850   22.9350 C   0  0  0  0  0  0  0  0  0  0  0  0
  -20.2110  -28.2990   23.1320 C   0  0  0  0  0  3  0  0  0  0  0  0
  -20.2180  -26.8730   22.5320 C   0  0  0  0  0  2  0  0  0  0  0  0
  -19.0700  -26.6260   21.5480 C   0  0  0  0  0  2  0  0  0  0  0  0
  -17.7170  -26.8380   22.2360 C   0  0  0  0  0  2  0  0  0  0  0  0
  -18.8070  -28.8770   23.3410 C   0  0  0  0  0  0  0  0  0  0  0  0
  -18.6750  -30.1410   23.9560 C   0  0  0  0  0  3  0  0  0  0  0  0
  -17.4060  -30.7110   24.1680 C   0  0  0  0  0  3  0  0  0  0  0  0
  -16.2500  -30.0130   23.7790 C   0  0  0  0  0  3  0  0  0  0  0  0
  -16.3650  -28.7520   23.1680 C   0  0  0  0  0  3  0  0  0  0  0  0
  -25.7930  -32.0920   23.6570 C   0  0  0  0  0  3  0  0  0  0  0  0
  -25.5900  -33.4920   24.0540 N   0  0  0  0  0  0  0  0  0  0  0  0
  -25.9710  -34.5520   23.3270 C   0  0  0  0  0  0  0  0  0  0  0  0
  -26.6010  -34.4470   22.2710 O   0  0  0  0  0  0  0  0  0  0  0  0
  -25.0330  -33.6520   24.8800 H   0  0  0  0  0  0  0  0  0  0  0  0
  -24.3680  -36.4750   23.0910 C   0  0  0  0  0  1  0  0  0  0  0  0
  -25.5940  -35.9480   23.8560 C   0  0  0  0  0  3  0  0  0  0  0  0
  -27.7930  -36.6530   24.6880 C   0  0  0  0  0  1  0  0  0  0  0  0
  -26.6960  -36.9300   23.7650 N   0  0  0  0  0  0  0  0  0  0  0  0
  -26.3580  -37.8710   23.9500 H   0  0  0  0  0  0  0  0  0  0  0  0
  -26.3240  -31.2400   24.8740 C   0  0  1  0  0  0  0  0  0  0  0  0
  -25.2770  -31.0400   25.9950 C   0  0  0  0  0  1  0  0  0  0  0  0
  -26.7830  -29.8400   24.4040 C   0  0  0  0  0  1  0  0  0  0  0  0
  -27.5630  -31.9260   25.4940 C   0  0  0  0  0  1  0  0  0  0  0  0
  1  2  1  0
  3  5  2  0
  3  4  1  0
  4  1  2  0
  5  6  1  0
  6  8  1  0
  6  2  2  0
  8  7  1  0
  9 10  2  0
  9  4  1  0
 11  9  1  0
 11 12  1  0
 13 12  1  0
 14 19  1  0
 15 16  1  0
 15 14  1  0
 17 16  1  0
 17 24  1  0
 17 18  1  0
 19 13  1  0
 19 18  1  0
 20 13  2  0
 21 22  2  0
 22 41  1  0
 23 22  1  0
 23 26  1  0
 24 25  1  0
 24 21  1  0
 25 23  2  0
 26 27  1  0
 27 28  2  0
 29 32  1  0
 29 28  1  0
 30 29  2  0
 31 30  1  0
 31 26  2  0
 32 33  1  0
 33 34  1  0
 34 35  2  0
 36 35  1  0
 36 40  1  0
 37 36  2  0
 38 33  2  0
 38 37  1  0
 39 38  1  0
 41 42  1  0
 42 45  1  0
 42 44  1  0
 43 41  2  0
 46 21  1  0
 46 47  1  0
 48 46  1  0
 49  5  1  0
 50 49  1  0
 50 51  2  0
 52 54  1  0
 52 51  1  0
 53 64  2  0
 54 59  1  0
 55 63  1  0
 55 65  1  0
 56 62  1  0
 56 58  1  0
 57 63  1  0
 58 57  1  0
 59 58  2  0
 60 61  1  0
 60 54  2  0
 61 56  2  0
 62 55  1  0
 63 53  1  0
 65 67  2  0
 66 65  1  0
 68 66  1  0
 69 78  2  0
 69 74  1  0
 70 66  1  0
 70 74  1  0
 71 70  1  0
 72 73  1  0
 72 71  1  0
 73 69  1  0
 74 75  2  0
 75 76  1  0
 77 76  2  0
 78 77  1  0
 79 53  1  0
 79 80  1  0
 79 89  1  0
 80 83  1  0
 81 85  1  0
 81 80  1  0
 82 81  2  0
 85 84  1  0
 87 85  1  0
 87 88  1  0
 87 86  1  0
 89 92  1  1
 89 90  1  0
 91 89  1  0
M  ISO  4  12 100  13 100  51 101  52 101
M  END
>  <TORSDO>  (84) 
F 23

>  <SCORE>  (84) 
-12.349

>  <name>  (84) 
84

>  <ligand_id>  (84) 
84

>  <original_smiles>  (84) 
[H]c1c([H])c([H])c2c(c1[H])C([H])([H])C([H])([H])C([H])([H])C2([H])N([H])C(=O)C1([H])N(C(=O)C([H])(N([H])C(=O)C([H])(N([H])C([H])([H])[H])C([H])([H])[H])C(C([H])([H])[H])(C([H])([H])[H])C([H])([H])[H])C([H])([H])c2c([H])c(OC([H])([H])C([H])([H])C([H])([H])c3c([H])c(C(=O)C([H])([H])C([H])([H])C(=O)N4C([H])([H])C([H])([H])C([H])([H])C([H])(n5nc(-c6c([H])c([H])c(Oc7c([H])c([H])c(F)c([H])c7F)c([H])c6[H])c(C(=O)N([H])[H])c5N([H])[H])C4([H])[H])c([H])c([H])c3OC([H])([H])[H])c([H])c([H])c2C1([H])[H]

>  <smiles>  (84) 
[H]c1c([H])c([H])c2c(c1[H])C([H])([H])C([H])([H])C([H])([H])C2([H])N([H])C(=O)C1([H])N(C(=O)C([H])(N([H])C(=O)C([H])(N([H])C([H])([H])[H])C([H])([H])[H])C(C([H])([H])[H])(C([H])([H])[H])C([H])([H])[H])C([H])([H])c2c([H])c(OC([H])([H])C([H])([H])C([H])([H])c3c([H])c(C(=O)C([H])([H])C([H])([H])C(=O)N4C([H])([H])C([H])([H])C([H])([H])C([H])(n5nc(-c6c([H])c([H])c(Oc7c([H])c([H])c(F)c([H])c7F)c([H])c6[H])c(C(=O)N([H])[H])c5N([H])[H])C4([H])[H])c([H])c([H])c3OC([H])([H])[H])c([H])c([H])c2C1([H])[H]

$$$$
85:0:0
     RDKit          3D

 92100  0  0  1  0  0  0  0  0999 V2000
  -28.8810  -21.6790   20.3480 C   0  0  0  0  0  3  0  0  0  0  0  0
  -30.7520  -21.2810   21.8460 C   0  0  0  0  0  3  0  0  0  0  0  0
  -28.8430  -20.3060   20.0300 C   0  0  0  0  0  3  0  0  0  0  0  0
  -30.7170  -19.9070   21.5270 C   0  0  0  0  0  3  0  0  0  0  0  0
  -29.8230  -22.1790   21.2770 C   0  0  0  0  0  0  0  0  0  0  0  0
  -29.7450  -19.4040   20.6360 C   0  0  0  0  0  0  0  0  0  0  0  0
  -29.2190  -17.2220   21.7870 C   0  0  0  0  0  1  0  0  0  0  0  0
  -29.5700  -17.9000   20.4410 C   0  0  0  0  0  3  0  0  0  0  0  0
  -30.6760  -17.1830   19.5860 C   0  0  0  0  0  3  0  0  0  0  0  0
  -33.1540  -17.7190   19.4930 C   0  0  0  0  0  2  0  0  0  0  0  0
  -32.0730  -17.3150   20.1800 C   0  0  0  0  0  3  0  0  0  0  0  0
  -30.2370  -15.7040   19.4290 C   0  0  0  0  0  2  0  0  0  0  0  0
  -31.2520  -14.5300   19.4620 C   0  0  0  0  0  0  0  0  0  0  0  0
  -31.1790  -12.0980   19.0710 C   0  0  0  0  0  2  0  0  0  0  0  0
  -30.1760  -11.8580   17.9150 C   0  0  0  0  0  2  0  0  0  0  0  0
  -28.7170  -11.7900   18.4260 C   0  0  0  0  0  2  0  0  0  0  0  0
  -28.3680  -12.9570   19.3840 C   0  0  0  0  0  3  0  0  0  0  0  0
  -29.4650  -13.0760   20.4680 C   0  0  0  0  0  2  0  0  0  0  0  0
  -30.7510  -13.3050   19.7880 N   0  0  0  0  0  0  0  0  0  0  0  0
  -32.3760  -14.6780   18.9650 O   0  0  0  0  0  0  0  0  0  0  0  0
  -26.1010  -13.7840   20.2880 C   0  0  0  0  0  0  0  0  0  0  0  0
  -24.9950  -13.1060   20.7200 C   0  0  0  0  0  0  0  0  0  0  0  0
  -25.3220  -11.7180   20.6270 C   0  0  0  0  0  0  0  0  0  0  0  0
  -27.0360  -12.8100   19.9620 N   0  0  0  0  0  0  0  0  0  0  0  0
  -26.5740  -11.5620   20.2230 N   0  0  0  0  0  0  0  0  0  0  0  0
  -24.4990  -10.5220   20.8440 C   0  0  0  0  0  0  0  0  0  0  0  0
  -24.8390   -9.5580   21.8180 C   0  0  0  0  0  3  0  0  0  0  0  0
  -24.0190   -8.4260   22.0170 C   0  0  0  0  0  3  0  0  0  0  0  0
  -22.8480   -8.2500   21.2420 C   0  0  0  0  0  0  0  0  0  0  0  0
  -22.5300   -9.2020   20.2570 C   0  0  0  0  0  3  0  0  0  0  0  0
  -23.3480  -10.3250   20.0550 C   0  0  0  0  0  3  0  0  0  0  0  0
  -22.0100   -7.1680   21.3500 O   0  0  0  0  0  0  0  0  0  0  0  0
  -21.7870   -6.5480   22.5540 C   0  0  0  0  0  0  0  0  0  0  0  0
  -21.2600   -7.2460   23.6630 C   0  0  0  0  0  3  0  0  0  0  0  0
  -20.9820   -6.5550   24.8610 C   0  0  0  0  0  3  0  0  0  0  0  0
  -21.2220   -5.1710   24.9480 C   0  0  0  0  0  0  0  0  0  0  0  0
  -21.7440   -4.4750   23.8430 C   0  0  0  0  0  3  0  0  0  0  0  0
  -22.0240   -5.1630   22.6490 C   0  0  0  0  0  0  0  0  0  0  0  0
  -22.5070   -4.4850   21.5790 F   0  0  0  0  0  0  0  0  0  0  0  0
  -20.9460   -4.5020   26.0920 F   0  0  0  0  0  0  0  0  0  0  0  0
  -23.6750  -13.7010   21.1180 C   0  0  0  0  0  0  0  0  0  0  0  0
  -22.9810  -13.0710   22.0580 N   0  0  0  0  0  0  0  0  0  0  0  0
  -23.2760  -14.7590   20.6320 O   0  0  0  0  0  0  0  0  0  0  0  0
  -23.3230  -12.2190   22.4790 H   0  0  0  0  0  0  0  0  0  0  0  0
  -22.0990  -13.4500   22.3710 H   0  0  0  0  0  0  0  0  0  0  0  0
  -26.3880  -15.1390   20.1260 N   0  0  0  0  0  0  0  0  0  0  0  0
  -25.7110  -15.8690   20.3130 H   0  0  0  0  0  0  0  0  0  0  0  0
  -27.2680  -15.4940   19.7770 H   0  0  0  0  0  0  0  0  0  0  0  0
  -29.8470  -23.6500   21.7080 C   0  0  0  0  0  2  0  0  0  0  0  0
  -29.0560  -24.6340   20.8120 C   0  0  0  0  0  2  0  0  0  0  0  0
  -29.2180  -26.1180   21.2000 C   0  0  0  0  0  2  0  0  0  0  0  0
  -28.9220  -26.9390   20.0670 O   0  0  0  0  0  0  0  0  0  0  0  0
  -24.5900  -31.6540   23.1890 C   0  0  0  0  0  0  0  0  0  0  0  0
  -27.7040  -27.5680   20.0920 C   0  0  0  0  0  0  0  0  0  0  0  0
  -23.5630  -30.2200   21.4530 C   0  0  0  0  0  3  0  0  0  0  0  0
  -25.1940  -28.8530   20.0420 C   0  0  0  0  0  0  0  0  0  0  0  0
  -26.0560  -30.7890   21.3700 C   0  0  0  0  0  2  0  0  0  0  0  0
  -26.2780  -29.4520   20.7010 C   0  0  0  0  0  0  0  0  0  0  0  0
  -27.5340  -28.8110   20.7350 C   0  0  0  0  0  3  0  0  0  0  0  0
  -26.6140  -26.9800   19.4200 C   0  0  0  0  0  3  0  0  0  0  0  0
  -25.3540  -27.6100   19.4040 C   0  0  0  0  0  3  0  0  0  0  0  0
  -23.8800  -29.6040   20.0630 C   0  0  0  0  0  2  0  0  0  0  0  0
  -24.7520  -30.9010   22.0650 N   0  0  0  0  0  0  0  0  0  0  0  0
  -23.4690  -31.8220   23.6920 O   0  0  0  0  0  0  0  0  0  0  0  0
  -22.9610  -29.1180   22.3510 C   0  0  0  0  0  0  0  0  0  0  0  0
  -21.6700  -28.8140   22.1370 N   0  0  0  0  0  0  0  0  0  0  0  0
  -23.6520  -28.5390   23.1930 O   0  0  0  0  0  0  0  0  0  0  0  0
  -21.1720  -29.3340   21.4280 H   0  0  0  0  0  0  0  0  0  0  0  0
  -18.4090  -27.2800   22.3850 C   0  0  0  0  0  0  0  0  0  0  0  0
  -20.9040  -27.7820   22.8360 C   0  0  0  0  0  3  0  0  0  0  0  0
  -21.1890  -26.3830   22.2440 C   0  0  0  0  0  2  0  0  0  0  0  0
  -20.1940  -25.9770   21.1530 C   0  0  0  0  0  2  0  0  0  0  0  0
  -18.7630  -25.9710   21.7030 C   0  0  0  0  0  2  0  0  0  0  0  0
  -19.4140  -28.1390   22.9030 C   0  0  0  0  0  0  0  0  0  0  0  0
  -19.0340  -29.3620   23.4950 C   0  0  0  0  0  3  0  0  0  0  0  0
  -17.6770  -29.7270   23.5830 C   0  0  0  0  0  3  0  0  0  0  0  0
  -16.6850  -28.8660   23.0840 C   0  0  0  0  0  3  0  0  0  0  0  0
  -17.0500  -27.6460   22.4900 C   0  0  0  0  0  3  0  0  0  0  0  0
  -25.7960  -32.3580   23.8840 C   0  0  0  0  0  3  0  0  0  0  0  0
  -25.3900  -33.7370   24.1890 N   0  0  0  0  0  0  0  0  0  0  0  0
  -25.7250  -34.8060   23.4550 C   0  0  0  0  0  0  0  0  0  0  0  0
  -26.4770  -34.7410   22.4790 O   0  0  0  0  0  0  0  0  0  0  0  0
  -24.7300  -33.8620   24.9420 H   0  0  0  0  0  0  0  0  0  0  0  0
  -23.9500  -36.5130   22.9480 C   0  0  0  0  0  1  0  0  0  0  0  0
  -25.1290  -36.1650   23.8680 C   0  0  0  0  0  3  0  0  0  0  0  0
  -27.1370  -37.1410   24.8930 C   0  0  0  0  0  1  0  0  0  0  0  0
  -26.1170  -37.2660   23.8550 N   0  0  0  0  0  0  0  0  0  0  0  0
  -25.6550  -38.1640   23.9740 H   0  0  0  0  0  0  0  0  0  0  0  0
  -26.2850  -31.6160   25.1890 C   0  0  1  0  0  0  0  0  0  0  0  0
  -25.1430  -31.2810   26.1770 C   0  0  0  0  0  1  0  0  0  0  0  0
  -26.9980  -30.2910   24.8310 C   0  0  0  0  0  1  0  0  0  0  0  0
  -27.3220  -32.4890   25.9340 C   0  0  0  0  0  1  0  0  0  0  0  0
  1  5  1  0
  3  1  2  0
  3  6  1  0
  4  2  1  0
  5 49  1  0
  5  2  2  0
  6  4  2  0
  8  6  1  0
  8  7  1  0
  9 12  1  0
  9 11  1  0
  9  8  1  0
 10 11  2  0
 12 13  1  0
 13 19  1  0
 14 19  1  0
 15 16  1  0
 15 14  1  0
 17 16  1  0
 17 24  1  0
 17 18  1  0
 19 18  1  0
 20 13  2  0
 21 22  2  0
 22 41  1  0
 23 22  1  0
 23 26  1  0
 24 25  1  0
 24 21  1  0
 25 23  2  0
 26 27  1  0
 27 28  2  0
 29 32  1  0
 29 28  1  0
 30 29  2  0
 31 30  1  0
 31 26  2  0
 32 33  1  0
 33 38  2  0
 33 34  1  0
 34 35  2  0
 35 36  1  0
 36 40  1  0
 37 36  2  0
 38 37  1  0
 39 38  1  0
 41 42  1  0
 42 45  1  0
 42 44  1  0
 43 41  2  0
 46 21  1  0
 46 47  1  0
 48 46  1  0
 50 51  1  0
 50 49  1  0
 52 54  1  0
 52 51  1  0
 53 64  2  0
 54 59  1  0
 55 63  1  0
 55 65  1  0
 56 62  1  0
 56 58  1  0
 57 63  1  0
 58 59  2  0
 58 57  1  0
 60 54  2  0
 61 60  1  0
 61 56  2  0
 62 55  1  0
 63 53  1  0
 65 67  2  0
 66 65  1  0
 68 66  1  0
 69 78  2  0
 69 74  1  0
 70 66  1  0
 70 74  1  0
 71 70  1  0
 72 73  1  0
 72 71  1  0
 73 69  1  0
 74 75  2  0
 75 76  1  0
 77 76  2  0
 78 77  1  0
 79 53  1  0
 79 80  1  0
 79 89  1  0
 80 83  1  0
 81 85  1  0
 81 80  1  0
 82 81  2  0
 85 84  1  0
 87 85  1  0
 87 88  1  0
 87 86  1  0
 89 92  1  1
 89 90  1  0
 91 89  1  0
M  ISO  4  12 100  13 100  51 101  52 101
M  END
>  <TORSDO>  (85) 
F 23

>  <SCORE>  (85) 
-11.361

>  <name>  (85) 
85

>  <ligand_id>  (85) 
85

>  <original_smiles>  (85) 
[H]C([H])=C([H])C([H])(C([H])([H])C(=O)N1C([H])([H])C([H])([H])C([H])([H])C([H])(n2nc(-c3c([H])c([H])c(Oc4c([H])c([H])c(F)c([H])c4F)c([H])c3[H])c(C(=O)N([H])[H])c2N([H])[H])C1([H])[H])C([H])(c1c([H])c([H])c(C([H])([H])C([H])([H])C([H])([H])Oc2c([H])c([H])c3c(c2[H])C([H])([H])N(C(=O)C([H])(N([H])C(=O)C([H])(N([H])C([H])([H])[H])C([H])([H])[H])C(C([H])([H])[H])(C([H])([H])[H])C([H])([H])[H])C([H])(C(=O)N([H])C2([H])c4c([H])c([H])c([H])c([H])c4C([H])([H])C([H])([H])C2([H])[H])C3([H])[H])c([H])c1[H])C([H])([H])[H]

>  <smiles>  (85) 
[H]C([H])=C([H])C([H])(C([H])([H])C(=O)N1C([H])([H])C([H])([H])C([H])([H])C([H])(n2nc(-c3c([H])c([H])c(Oc4c([H])c([H])c(F)c([H])c4F)c([H])c3[H])c(C(=O)N([H])[H])c2N([H])[H])C1([H])[H])C([H])(c1c([H])c([H])c(C([H])([H])C([H])([H])C([H])([H])Oc2c([H])c([H])c3c(c2[H])C([H])([H])N(C(=O)C([H])(N([H])C(=O)C([H])(N([H])C([H])([H])[H])C([H])([H])[H])C(C([H])([H])[H])(C([H])([H])[H])C([H])([H])[H])C([H])(C(=O)N([H])C2([H])c4c([H])c([H])c([H])c([H])c4C([H])([H])C([H])([H])C2([H])[H])C3([H])[H])c([H])c1[H])C([H])([H])[H]

$$$$
86:0:0
     RDKit          3D

 91 99  0  0  1  0  0  0  0  0999 V2000
  -27.7240  -19.8310   17.3820 C   0  0  0  0  0  3  0  0  0  0  0  0
  -27.2440  -21.1080   17.6460 C   0  0  0  0  0  3  0  0  0  0  0  0
  -28.5630  -19.2040   18.3120 C   0  0  0  0  0  3  0  0  0  0  0  0
  -27.6780  -21.7690   18.7970 C   0  0  0  0  0  3  0  0  0  0  0  0
  -28.9660  -19.7880   19.5510 C   0  0  0  0  0  0  0  0  0  0  0  0
  -28.5850  -21.2180   19.7380 C   0  0  0  0  0  0  0  0  0  0  0  0
  -29.7100  -18.7310   20.4480 C   0  0  0  0  0  0  0  0  0  0  0  0
  -30.3030  -19.0070   21.4890 O   0  0  0  0  0  0  0  0  0  0  0  0
  -29.7090  -17.1890   20.0200 C   0  0  0  0  0  2  0  0  0  0  0  0
  -30.0310  -15.9910   21.0350 C   0  0  0  0  0  2  0  0  0  0  0  0
  -30.7030  -14.6730   20.4460 C   0  0  0  0  0  0  0  0  0  0  0  0
  -30.4680  -12.4470   19.3370 C   0  0  0  0  0  2  0  0  0  0  0  0
  -29.5350  -12.5900   18.1130 C   0  0  0  0  0  2  0  0  0  0  0  0
  -28.0570  -12.4490   18.5250 C   0  0  0  0  0  2  0  0  0  0  0  0
  -27.7040  -13.2990   19.7770 C   0  0  0  0  0  3  0  0  0  0  0  0
  -28.7500  -13.1110   20.8970 C   0  0  0  0  0  2  0  0  0  0  0  0
  -30.0640  -13.4600   20.3400 N   0  0  0  0  0  0  0  0  0  0  0  0
  -31.8470  -14.7920   19.9970 O   0  0  0  0  0  0  0  0  0  0  0  0
  -25.3050  -13.9220   20.4470 C   0  0  0  0  0  0  0  0  0  0  0  0
  -24.2250  -13.1610   20.8080 C   0  0  0  0  0  0  0  0  0  0  0  0
  -24.6760  -11.8060   20.8000 C   0  0  0  0  0  0  0  0  0  0  0  0
  -26.3460  -13.0320   20.2420 N   0  0  0  0  0  0  0  0  0  0  0  0
  -25.9720  -11.7540   20.5130 N   0  0  0  0  0  0  0  0  0  0  0  0
  -23.9370  -10.5510   20.9920 C   0  0  0  0  0  0  0  0  0  0  0  0
  -24.3490   -9.5870   21.9400 C   0  0  0  0  0  3  0  0  0  0  0  0
  -23.6080   -8.3990   22.1210 C   0  0  0  0  0  3  0  0  0  0  0  0
  -22.4440   -8.1640   21.3530 C   0  0  0  0  0  0  0  0  0  0  0  0
  -22.0500   -9.1170   20.3970 C   0  0  0  0  0  3  0  0  0  0  0  0
  -22.7900  -10.2960   20.2140 C   0  0  0  0  0  3  0  0  0  0  0  0
  -21.6770   -7.0270   21.4410 O   0  0  0  0  0  0  0  0  0  0  0  0
  -21.6050   -6.2960   22.6000 C   0  0  0  0  0  0  0  0  0  0  0  0
  -21.1730   -6.8700   23.8150 C   0  0  0  0  0  3  0  0  0  0  0  0
  -21.0470   -6.0670   24.9670 C   0  0  0  0  0  3  0  0  0  0  0  0
  -21.3430   -4.6930   24.9030 C   0  0  0  0  0  0  0  0  0  0  0  0
  -21.7680   -4.1190   23.6920 C   0  0  0  0  0  3  0  0  0  0  0  0
  -21.8960   -4.9190   22.5430 C   0  0  0  0  0  0  0  0  0  0  0  0
  -22.2860   -4.3580   21.3730 F   0  0  0  0  0  0  0  0  0  0  0  0
  -21.2140   -3.9190   26.0060 F   0  0  0  0  0  0  0  0  0  0  0  0
  -22.8280  -13.6540   21.0520 C   0  0  0  0  0  0  0  0  0  0  0  0
  -22.0820  -12.9780   21.9200 N   0  0  0  0  0  0  0  0  0  0  0  0
  -22.4070  -14.6770   20.5130 O   0  0  0  0  0  0  0  0  0  0  0  0
  -22.4380  -12.1580   22.3850 H   0  0  0  0  0  0  0  0  0  0  0  0
  -21.1430  -13.2890   22.1290 H   0  0  0  0  0  0  0  0  0  0  0  0
  -25.4820  -15.2890   20.2580 N   0  0  0  0  0  0  0  0  0  0  0  0
  -24.7200  -15.9490   20.3660 H   0  0  0  0  0  0  0  0  0  0  0  0
  -26.3450  -15.7270   19.9640 H   0  0  0  0  0  0  0  0  0  0  0  0
  -30.0220  -21.9130   21.8150 C   0  0  0  0  0  1  0  0  0  0  0  0
  -28.9190  -22.3230   20.8330 C   0  0  0  0  0  3  0  0  0  0  0  0
  -29.2010  -23.8590   20.3450 C   0  0  0  0  0  2  0  0  0  0  0  0
  -28.0390  -24.9500   20.1750 C   0  0  0  0  0  2  0  0  0  0  0  0
  -28.3030  -26.4160   20.2480 O   0  0  0  0  0  0  0  0  0  0  0  0
  -24.5860  -31.8600   23.2360 C   0  0  0  0  0  0  0  0  0  0  0  0
  -27.1900  -27.2810   20.1910 C   0  0  0  0  0  0  0  0  0  0  0  0
  -23.3790  -30.4580   21.6060 C   0  0  0  0  0  3  0  0  0  0  0  0
  -24.8260  -28.9100   20.1760 C   0  0  0  0  0  0  0  0  0  0  0  0
  -25.9200  -30.7740   21.4140 C   0  0  0  0  0  2  0  0  0  0  0  0
  -25.9990  -29.3960   20.7640 C   0  0  0  0  0  0  0  0  0  0  0  0
  -27.1870  -28.5980   20.7560 C   0  0  0  0  0  3  0  0  0  0  0  0
  -25.9850  -26.8540   19.5830 C   0  0  0  0  0  3  0  0  0  0  0  0
  -24.8230  -27.6450   19.5730 C   0  0  0  0  0  3  0  0  0  0  0  0
  -23.5900  -29.7860   20.2250 C   0  0  0  0  0  2  0  0  0  0  0  0
  -24.6490  -31.0470   22.1410 N   0  0  0  0  0  0  0  0  0  0  0  0
  -23.5030  -32.1410   23.7710 O   0  0  0  0  0  0  0  0  0  0  0  0
  -22.7220  -29.4390   22.5670 C   0  0  0  0  0  0  0  0  0  0  0  0
  -21.3960  -29.2590   22.4410 N   0  0  0  0  0  0  0  0  0  0  0  0
  -23.4010  -28.8170   23.3870 O   0  0  0  0  0  0  0  0  0  0  0  0
  -20.9070  -29.8100   21.7500 H   0  0  0  0  0  0  0  0  0  0  0  0
  -18.0210  -28.0690   22.9590 C   0  0  0  0  0  0  0  0  0  0  0  0
  -20.5800  -28.3250   23.2180 C   0  0  0  0  0  3  0  0  0  0  0  0
  -20.6770  -26.8940   22.6440 C   0  0  0  0  0  2  0  0  0  0  0  0
  -19.5700  -26.5720   21.6350 C   0  0  0  0  0  2  0  0  0  0  0  0
  -18.1920  -26.7180   22.2840 C   0  0  0  0  0  2  0  0  0  0  0  0
  -19.1410  -28.8300   23.3820 C   0  0  0  0  0  0  0  0  0  0  0  0
  -18.9260  -30.0960   23.9710 C   0  0  0  0  0  3  0  0  0  0  0  0
  -17.6210  -30.5980   24.1410 C   0  0  0  0  0  3  0  0  0  0  0  0
  -16.5150  -29.8340   23.7300 C   0  0  0  0  0  3  0  0  0  0  0  0
  -16.7160  -28.5700   23.1460 C   0  0  0  0  0  3  0  0  0  0  0  0
  -25.8700  -32.4950   23.8510 C   0  0  0  0  0  3  0  0  0  0  0  0
  -25.5590  -33.8930   24.1840 N   0  0  0  0  0  0  0  0  0  0  0  0
  -25.8800  -34.9470   23.4220 C   0  0  0  0  0  0  0  0  0  0  0  0
  -26.5420  -34.8460   22.3860 O   0  0  0  0  0  0  0  0  0  0  0  0
  -24.9660  -34.0440   24.9870 H   0  0  0  0  0  0  0  0  0  0  0  0
  -24.1420  -36.7310   23.0790 C   0  0  0  0  0  1  0  0  0  0  0  0
  -25.3910  -36.3330   23.8820 C   0  0  0  0  0  3  0  0  0  0  0  0
  -27.5280  -37.2270   24.6970 C   0  0  0  0  0  1  0  0  0  0  0  0
  -26.4180  -37.3900   23.7620 N   0  0  0  0  0  0  0  0  0  0  0  0
  -26.0100  -38.3100   23.9100 H   0  0  0  0  0  0  0  0  0  0  0  0
  -26.3910  -31.7230   25.1250 C   0  0  1  0  0  0  0  0  0  0  0  0
  -25.3010  -31.4810   26.1960 C   0  0  0  0  0  1  0  0  0  0  0  0
  -26.9720  -30.3460   24.7300 C   0  0  0  0  0  1  0  0  0  0  0  0
  -27.5440  -32.5170   25.7830 C   0  0  0  0  0  1  0  0  0  0  0  0
  1  2  2  0
  1  3  1  0
  2  4  1  0
  3  5  2  0
  4  6  2  0
  5  6  1  0
  5  7  1  0
  6 48  1  0
  7  8  2  0
  9  7  1  0
  9 10  1  0
 11 10  1  0
 12 17  1  0
 13 14  1  0
 13 12  1  0
 15 14  1  0
 15 22  1  0
 15 16  1  0
 17 11  1  0
 17 16  1  0
 18 11  2  0
 19 20  2  0
 20 39  1  0
 21 20  1  0
 21 24  1  0
 22 19  1  0
 22 23  1  0
 23 21  2  0
 24 25  1  0
 25 26  2  0
 27 30  1  0
 27 26  1  0
 28 27  2  0
 29 28  1  0
 29 24  2  0
 30 31  1  0
 31 32  1  0
 32 33  2  0
 34 33  1  0
 34 38  1  0
 35 34  2  0
 36 31  2  0
 36 35  1  0
 37 36  1  0
 39 40  1  0
 40 43  1  0
 40 42  1  0
 41 39  2  0
 44 45  1  0
 44 19  1  0
 46 44  1  0
 48 47  1  0
 49 48  1  0
 50 51  1  0
 50 49  1  0
 52 63  2  0
 53 51  1  0
 53 58  1  0
 54 62  1  0
 54 64  1  0
 55 61  1  0
 55 57  1  0
 56 62  1  0
 57 56  1  0
 58 57  2  0
 59 53  2  0
 60 59  1  0
 60 55  2  0
 61 54  1  0
 62 52  1  0
 64 66  2  0
 65 64  1  0
 67 65  1  0
 68 77  2  0
 68 73  1  0
 69 65  1  0
 69 73  1  0
 70 69  1  0
 71 72  1  0
 71 70  1  0
 72 68  1  0
 73 74  2  0
 74 75  1  0
 76 75  2  0
 77 76  1  0
 78 52  1  0
 78 79  1  0
 78 88  1  0
 79 82  1  0
 80 84  1  0
 80 79  1  0
 81 80  2  0
 84 83  1  0
 86 84  1  0
 86 87  1  0
 86 85  1  0
 88 91  1  1
 88 89  1  0
 90 88  1  0
M  ISO  4  10 100  11 100  50 101  51 101
M  END
>  <TORSDO>  (86) 
F 22

>  <SCORE>  (86) 
-13.343

>  <name>  (86) 
86

>  <ligand_id>  (86) 
86

>  <original_smiles>  (86) 
[H]c1c([H])c([H])c(C([H])(C([H])([H])[H])C([H])([H])C([H])([H])Oc2c([H])c([H])c3c(c2[H])C([H])([H])N(C(=O)C([H])(N([H])C(=O)C([H])(N([H])C([H])([H])[H])C([H])([H])[H])C(C([H])([H])[H])(C([H])([H])[H])C([H])([H])[H])C([H])(C(=O)N([H])C2([H])c4c([H])c([H])c([H])c([H])c4C([H])([H])C([H])([H])C2([H])[H])C3([H])[H])c(C(=O)C([H])([H])C([H])([H])C(=O)N2C([H])([H])C([H])([H])C([H])([H])C([H])(n3nc(-c4c([H])c([H])c(Oc5c([H])c([H])c(F)c([H])c5F)c([H])c4[H])c(C(=O)N([H])[H])c3N([H])[H])C2([H])[H])c1[H]

>  <smiles>  (86) 
[H]c1c([H])c([H])c(C([H])(C([H])([H])[H])C([H])([H])C([H])([H])Oc2c([H])c([H])c3c(c2[H])C([H])([H])N(C(=O)C([H])(N([H])C(=O)C([H])(N([H])C([H])([H])[H])C([H])([H])[H])C(C([H])([H])[H])(C([H])([H])[H])C([H])([H])[H])C([H])(C(=O)N([H])C2([H])c4c([H])c([H])c([H])c([H])c4C([H])([H])C([H])([H])C2([H])[H])C3([H])[H])c(C(=O)C([H])([H])C([H])([H])C(=O)N2C([H])([H])C([H])([H])C([H])([H])C([H])(n3nc(-c4c([H])c([H])c(Oc5c([H])c([H])c(F)c([H])c5F)c([H])c4[H])c(C(=O)N([H])[H])c3N([H])[H])C2([H])[H])c1[H]

$$$$
87:0:0
     RDKit          3D

 93101  0  0  1  0  0  0  0  0999 V2000
  -32.3300  -19.8880   20.8650 C   0  0  0  0  0  3  0  0  0  0  0  0
  -32.8280  -21.1630   20.5310 C   0  0  0  0  0  3  0  0  0  0  0  0
  -30.0890  -20.6980   20.4230 C   0  0  0  0  0  3  0  0  0  0  0  0
  -30.9400  -19.6430   20.8070 C   0  0  0  0  0  0  0  0  0  0  0  0
  -30.5690  -21.9730   19.9970 C   0  0  0  0  0  0  0  0  0  0  0  0
  -31.9800  -22.2010   20.0610 C   0  0  0  0  0  0  0  0  0  0  0  0
  -32.9050  -24.4780   20.7420 C   0  0  0  0  0  1  0  0  0  0  0  0
  -32.6870  -23.4720   19.6030 C   0  0  0  0  0  2  0  0  0  0  0  0
  -29.5090  -22.8850   19.4170 C   0  0  0  0  0  0  0  0  0  0  0  0
  -28.4600  -22.4040   18.9730 O   0  0  0  0  0  0  0  0  0  0  0  0
  -29.6590  -24.4280   19.3900 C   0  0  0  0  0  2  0  0  0  0  0  0
  -28.2940  -25.1420   19.2660 C   0  0  0  0  0  2  0  0  0  0  0  0
  -28.3950  -26.5670   19.3670 O   0  0  0  0  0  0  0  0  0  0  0  0
  -24.6810  -31.5080   22.9020 C   0  0  0  0  0  0  0  0  0  0  0  0
  -27.2050  -27.2740   19.4480 C   0  0  0  0  0  0  0  0  0  0  0  0
  -23.4080  -30.1940   21.2410 C   0  0  0  0  0  3  0  0  0  0  0  0
  -24.7980  -28.7530   19.6690 C   0  0  0  0  0  0  0  0  0  0  0  0
  -25.9180  -30.5850   20.9460 C   0  0  0  0  0  2  0  0  0  0  0  0
  -25.9820  -29.2520   20.2280 C   0  0  0  0  0  0  0  0  0  0  0  0
  -27.1840  -28.5170   20.1190 C   0  0  0  0  0  3  0  0  0  0  0  0
  -26.0000  -26.7910   18.8860 C   0  0  0  0  0  3  0  0  0  0  0  0
  -24.8020  -27.5180   18.9990 C   0  0  0  0  0  3  0  0  0  0  0  0
  -23.5540  -29.5930   19.8200 C   0  0  0  0  0  2  0  0  0  0  0  0
  -24.6920  -30.7720   21.7560 N   0  0  0  0  0  0  0  0  0  0  0  0
  -23.6270  -31.7430   23.5050 O   0  0  0  0  0  0  0  0  0  0  0  0
  -22.8090  -29.1120   22.1710 C   0  0  0  0  0  0  0  0  0  0  0  0
  -21.4800  -28.9390   22.1040 N   0  0  0  0  0  0  0  0  0  0  0  0
  -23.5330  -28.4390   22.9080 O   0  0  0  0  0  0  0  0  0  0  0  0
  -20.9520  -29.5290   21.4760 H   0  0  0  0  0  0  0  0  0  0  0  0
  -18.1310  -27.7130   22.6970 C   0  0  0  0  0  0  0  0  0  0  0  0
  -20.7010  -27.9520   22.8560 C   0  0  0  0  0  3  0  0  0  0  0  0
  -20.7730  -26.5630   22.1820 C   0  0  0  0  0  2  0  0  0  0  0  0
  -19.6200  -26.3030   21.2110 C   0  0  0  0  0  2  0  0  0  0  0  0
  -18.2690  -26.4080   21.9310 C   0  0  0  0  0  2  0  0  0  0  0  0
  -19.2730  -28.4450   23.1170 C   0  0  0  0  0  0  0  0  0  0  0  0
  -19.0890  -29.6730   23.7910 C   0  0  0  0  0  3  0  0  0  0  0  0
  -17.7960  -30.1650   24.0520 C   0  0  0  0  0  3  0  0  0  0  0  0
  -16.6700  -29.4250   23.6520 C   0  0  0  0  0  3  0  0  0  0  0  0
  -16.8380  -28.2010   22.9800 C   0  0  0  0  0  3  0  0  0  0  0  0
  -25.9920  -32.1140   23.4950 C   0  0  0  0  0  3  0  0  0  0  0  0
  -25.6870  -33.4820   23.9370 N   0  0  0  0  0  0  0  0  0  0  0  0
  -26.0420  -34.5910   23.2760 C   0  0  0  0  0  0  0  0  0  0  0  0
  -26.7340  -34.5700   22.2540 O   0  0  0  0  0  0  0  0  0  0  0  0
  -25.0730  -33.5710   24.7320 H   0  0  0  0  0  0  0  0  0  0  0  0
  -24.3520  -36.4370   23.0220 C   0  0  0  0  0  1  0  0  0  0  0  0
  -25.5540  -35.9400   23.8400 C   0  0  0  0  0  3  0  0  0  0  0  0
  -27.6580  -36.7200   24.8350 C   0  0  0  0  0  1  0  0  0  0  0  0
  -26.6010  -36.9810   23.8620 N   0  0  0  0  0  0  0  0  0  0  0  0
  -26.1990  -37.8920   24.0680 H   0  0  0  0  0  0  0  0  0  0  0  0
  -26.5850  -31.2620   24.6840 C   0  0  1  0  0  0  0  0  0  0  0  0
  -25.5570  -30.9510   25.7970 C   0  0  0  0  0  1  0  0  0  0  0  0
  -27.1430  -29.9130   24.1670 C   0  0  0  0  0  1  0  0  0  0  0  0
  -27.7700  -32.0160   25.3310 C   0  0  0  0  0  1  0  0  0  0  0  0
  -30.3550  -18.3140   21.1810 C   0  0  0  0  0  0  0  0  0  0  0  0
  -29.3460  -18.2350   21.8870 O   0  0  0  0  0  0  0  0  0  0  0  0
  -31.0120  -17.0420   20.5900 C   0  0  0  0  0  2  0  0  0  0  0  0
  -30.2890  -15.7050   20.9670 C   0  0  0  0  0  2  0  0  0  0  0  0
  -30.8620  -14.4800   20.2190 C   0  0  0  0  0  0  0  0  0  0  0  0
  -30.4430  -12.3400   19.0500 C   0  0  0  0  0  2  0  0  0  0  0  0
  -29.4590  -12.5690   17.8830 C   0  0  0  0  0  2  0  0  0  0  0  0
  -28.0020  -12.4610   18.3720 C   0  0  0  0  0  2  0  0  0  0  0  0
  -27.7300  -13.2970   19.6510 C   0  0  0  0  0  3  0  0  0  0  0  0
  -28.8280  -13.0760   20.7110 C   0  0  0  0  0  2  0  0  0  0  0  0
  -30.1390  -13.3320   20.0930 N   0  0  0  0  0  0  0  0  0  0  0  0
  -31.9580  -14.6190   19.6660 O   0  0  0  0  0  0  0  0  0  0  0  0
  -25.3770  -13.9400   20.4700 C   0  0  0  0  0  0  0  0  0  0  0  0
  -24.3110  -13.1870   20.8750 C   0  0  0  0  0  0  0  0  0  0  0  0
  -24.7400  -11.8250   20.8080 C   0  0  0  0  0  0  0  0  0  0  0  0
  -26.3920  -13.0390   20.1870 N   0  0  0  0  0  0  0  0  0  0  0  0
  -26.0120  -11.7610   20.4460 N   0  0  0  0  0  0  0  0  0  0  0  0
  -24.0010  -10.5760   21.0080 C   0  0  0  0  0  0  0  0  0  0  0  0
  -24.4480   -9.5860   21.9080 C   0  0  0  0  0  3  0  0  0  0  0  0
  -23.7060   -8.4020   22.1040 C   0  0  0  0  0  3  0  0  0  0  0  0
  -22.4970   -8.1960   21.3980 C   0  0  0  0  0  0  0  0  0  0  0  0
  -22.0680   -9.1730   20.4830 C   0  0  0  0  0  3  0  0  0  0  0  0
  -22.8130  -10.3460   20.2870 C   0  0  0  0  0  3  0  0  0  0  0  0
  -21.7240   -7.0620   21.4970 O   0  0  0  0  0  0  0  0  0  0  0  0
  -21.7020   -6.3060   22.6400 C   0  0  0  0  0  0  0  0  0  0  0  0
  -21.3140   -6.8410   23.8870 C   0  0  0  0  0  3  0  0  0  0  0  0
  -21.2380   -6.0050   25.0180 C   0  0  0  0  0  3  0  0  0  0  0  0
  -21.5500   -4.6360   24.9090 C   0  0  0  0  0  0  0  0  0  0  0  0
  -21.9350   -4.1030   23.6670 C   0  0  0  0  0  3  0  0  0  0  0  0
  -22.0120   -4.9360   22.5370 C   0  0  0  0  0  0  0  0  0  0  0  0
  -22.3600   -4.4050   21.3400 F   0  0  0  0  0  0  0  0  0  0  0  0
  -21.4730   -3.8360   26.0000 F   0  0  0  0  0  0  0  0  0  0  0  0
  -22.9370  -13.6830   21.2180 C   0  0  0  0  0  0  0  0  0  0  0  0
  -22.2310  -12.9840   22.0950 N   0  0  0  0  0  0  0  0  0  0  0  0
  -22.4990  -14.7250   20.7300 O   0  0  0  0  0  0  0  0  0  0  0  0
  -22.6050  -12.1390   22.5110 H   0  0  0  0  0  0  0  0  0  0  0  0
  -21.3080  -13.2900   22.3590 H   0  0  0  0  0  0  0  0  0  0  0  0
  -25.5740  -15.3080   20.2970 N   0  0  0  0  0  0  0  0  0  0  0  0
  -24.8420  -15.9990   20.4390 H   0  0  0  0  0  0  0  0  0  0  0  0
  -26.4300  -15.7160   19.9450 H   0  0  0  0  0  0  0  0  0  0  0  0
  2  1  2  0
  3  4  2  0
  4  1  1  0
  4 54  1  0
  5  6  2  0
  5  3  1  0
  6  2  1  0
  8  6  1  0
  8  7  1  0
  9  5  1  0
 10  9  2  0
 11  9  1  0
 12 13  1  0
 12 11  1  0
 13 15  1  0
 14 25  2  0
 15 20  1  0
 16 24  1  0
 16 26  1  0
 17 23  1  0
 17 19  1  0
 18 24  1  0
 19 18  1  0
 20 19  2  0
 21 22  1  0
 21 15  2  0
 22 17  2  0
 23 16  1  0
 24 14  1  0
 26 28  2  0
 27 26  1  0
 29 27  1  0
 30 39  2  0
 30 35  1  0
 31 27  1  0
 31 35  1  0
 32 31  1  0
 33 34  1  0
 33 32  1  0
 34 30  1  0
 35 36  2  0
 36 37  1  0
 38 37  2  0
 39 38  1  0
 40 14  1  0
 40 41  1  0
 40 50  1  0
 41 44  1  0
 42 46  1  0
 42 41  1  0
 43 42  2  0
 46 45  1  0
 46 48  1  0
 48 49  1  0
 48 47  1  0
 50 53  1  1
 50 51  1  0
 52 50  1  0
 54 55  2  0
 56 57  1  0
 56 54  1  0
 58 57  1  0
 59 64  1  0
 60 61  1  0
 60 59  1  0
 62 61  1  0
 62 69  1  0
 62 63  1  0
 64 58  1  0
 64 63  1  0
 65 58  2  0
 66 67  2  0
 67 86  1  0
 68 67  1  0
 68 71  1  0
 69 70  1  0
 69 66  1  0
 70 68  2  0
 71 72  1  0
 72 73  2  0
 74 77  1  0
 74 73  1  0
 75 74  2  0
 76 75  1  0
 76 71  2  0
 77 78  1  0
 78 79  1  0
 79 80  2  0
 81 80  1  0
 81 85  1  0
 82 81  2  0
 83 78  2  0
 83 82  1  0
 84 83  1  0
 86 87  1  0
 87 90  1  0
 87 89  1  0
 88 86  2  0
 91 92  1  0
 91 66  1  0
 93 91  1  0
M  ISO  4  12 101  13 101  57 100  58 100
M  END
>  <TORSDO>  (87) 
F 23

>  <SCORE>  (87) 
-10.991

>  <name>  (87) 
87

>  <ligand_id>  (87) 
87

>  <original_smiles>  (87) 
[H]c1c([H])c([H])c2c(c1[H])C([H])([H])C([H])([H])C([H])([H])C2([H])N([H])C(=O)C1([H])N(C(=O)C([H])(N([H])C(=O)C([H])(N([H])C([H])([H])[H])C([H])([H])[H])C(C([H])([H])[H])(C([H])([H])[H])C([H])([H])[H])C([H])([H])c2c([H])c(OC([H])([H])C([H])([H])C(=O)c3c([H])c(C(=O)C([H])([H])C([H])([H])C(=O)N4C([H])([H])C([H])([H])C([H])([H])C([H])(n5nc(-c6c([H])c([H])c(Oc7c([H])c([H])c(F)c([H])c7F)c([H])c6[H])c(C(=O)N([H])[H])c5N([H])[H])C4([H])[H])c([H])c([H])c3C([H])([H])C([H])([H])[H])c([H])c([H])c2C1([H])[H]

>  <smiles>  (87) 
[H]c1c([H])c([H])c2c(c1[H])C([H])([H])C([H])([H])C([H])([H])C2([H])N([H])C(=O)C1([H])N(C(=O)C([H])(N([H])C(=O)C([H])(N([H])C([H])([H])[H])C([H])([H])[H])C(C([H])([H])[H])(C([H])([H])[H])C([H])([H])[H])C([H])([H])c2c([H])c(OC([H])([H])C([H])([H])C(=O)c3c([H])c(C(=O)C([H])([H])C([H])([H])C(=O)N4C([H])([H])C([H])([H])C([H])([H])C([H])(n5nc(-c6c([H])c([H])c(Oc7c([H])c([H])c(F)c([H])c7F)c([H])c6[H])c(C(=O)N([H])[H])c5N([H])[H])C4([H])[H])c([H])c([H])c3C([H])([H])C([H])([H])[H])c([H])c([H])c2C1([H])[H]

$$$$
88:0:0
     RDKit          3D

100108  0  0  1  0  0  0  0  0999 V2000
  -33.5470  -23.2850   19.3990 C   0  0  0  0  0  3  0  0  0  0  0  0
  -33.6820  -21.8840   19.4910 C   0  0  0  0  0  3  0  0  0  0  0  0
  -31.3910  -22.9940   18.3140 C   0  0  0  0  0  3  0  0  0  0  0  0
  -32.3870  -23.8490   18.8280 C   0  0  0  0  0  0  0  0  0  0  0  0
  -32.6570  -21.0280   19.0300 C   0  0  0  0  0  0  0  0  0  0  0  0
  -31.5040  -21.5950   18.4190 C   0  0  0  0  0  0  0  0  0  0  0  0
  -30.3590  -20.7660   17.8540 C   0  0  0  0  0  1  0  0  0  0  0  0
  -32.2160  -25.3360   18.7530 C   0  0  0  0  0  0  0  0  0  0  0  0
  -30.9580  -25.7590   18.9160 N   0  0  0  0  0  0  0  0  0  0  0  0
  -33.1800  -26.0920   18.6220 O   0  0  0  0  0  0  0  0  0  0  0  0
  -30.2570  -25.0450   19.0540 H   0  0  0  0  0  0  0  0  0  0  0  0
  -30.5140  -27.1390   19.0540 C   0  0  0  0  0  2  0  0  0  0  0  0
  -29.6900  -27.2940   20.3380 C   0  0  0  0  0  2  0  0  0  0  0  0
  -28.3970  -26.7100   20.1480 O   0  0  0  0  0  0  0  0  0  0  0  0
  -24.5350  -31.8880   23.2550 C   0  0  0  0  0  0  0  0  0  0  0  0
  -27.2550  -27.4830   20.2100 C   0  0  0  0  0  0  0  0  0  0  0  0
  -23.3420  -30.4680   21.6140 C   0  0  0  0  0  3  0  0  0  0  0  0
  -24.8180  -28.9240   20.2130 C   0  0  0  0  0  0  0  0  0  0  0  0
  -25.8590  -30.8510   21.4210 C   0  0  0  0  0  2  0  0  0  0  0  0
  -25.9590  -29.4730   20.8060 C   0  0  0  0  0  0  0  0  0  0  0  0
  -27.1720  -28.7570   20.8200 C   0  0  0  0  0  3  0  0  0  0  0  0
  -26.0900  -26.9350   19.6280 C   0  0  0  0  0  3  0  0  0  0  0  0
  -24.8720  -27.6480   19.6260 C   0  0  0  0  0  3  0  0  0  0  0  0
  -23.5630  -29.7700   20.2410 C   0  0  0  0  0  2  0  0  0  0  0  0
  -24.5970  -31.0830   22.1590 N   0  0  0  0  0  0  0  0  0  0  0  0
  -23.4510  -32.1590   23.7920 O   0  0  0  0  0  0  0  0  0  0  0  0
  -22.6900  -29.4540   22.5790 C   0  0  0  0  0  0  0  0  0  0  0  0
  -21.3690  -29.2630   22.4410 N   0  0  0  0  0  0  0  0  0  0  0  0
  -23.3710  -28.8400   23.4070 O   0  0  0  0  0  0  0  0  0  0  0  0
  -20.8840  -29.8070   21.7420 H   0  0  0  0  0  0  0  0  0  0  0  0
  -17.9920  -28.0730   22.9190 C   0  0  0  0  0  0  0  0  0  0  0  0
  -20.5480  -28.3270   23.2100 C   0  0  0  0  0  3  0  0  0  0  0  0
  -20.6520  -26.8940   22.6360 C   0  0  0  0  0  2  0  0  0  0  0  0
  -19.5570  -26.5720   21.6170 C   0  0  0  0  0  2  0  0  0  0  0  0
  -18.1720  -26.7210   22.2490 C   0  0  0  0  0  2  0  0  0  0  0  0
  -19.1090  -28.8330   23.3560 C   0  0  0  0  0  0  0  0  0  0  0  0
  -18.8890  -30.1010   23.9370 C   0  0  0  0  0  3  0  0  0  0  0  0
  -17.5840  -30.6070   24.0900 C   0  0  0  0  0  3  0  0  0  0  0  0
  -16.4810  -29.8420   23.6740 C   0  0  0  0  0  3  0  0  0  0  0  0
  -16.6860  -28.5770   23.0940 C   0  0  0  0  0  3  0  0  0  0  0  0
  -25.8180  -32.5240   23.8780 C   0  0  0  0  0  3  0  0  0  0  0  0
  -26.3290  -31.7700   25.1650 C   0  0  1  0  0  0  0  0  0  0  0  0
  -25.2310  -31.5450   26.2290 C   0  0  0  0  0  1  0  0  0  0  0  0
  -26.9120  -30.3870   24.7880 C   0  0  0  0  0  1  0  0  0  0  0  0
  -27.4750  -32.5730   25.8230 C   0  0  0  0  0  1  0  0  0  0  0  0
  -25.5110  -33.9270   24.1820 N   0  0  0  0  0  0  0  0  0  0  0  0
  -25.8770  -34.9670   23.4190 C   0  0  0  0  0  0  0  0  0  0  0  0
  -26.5780  -34.8460   22.4100 O   0  0  0  0  0  0  0  0  0  0  0  0
  -24.8920  -34.0990   24.9620 H   0  0  0  0  0  0  0  0  0  0  0  0
  -24.1890  -36.7760   22.9740 C   0  0  0  0  0  1  0  0  0  0  0  0
  -25.3880  -36.3640   23.8440 C   0  0  0  0  0  3  0  0  0  0  0  0
  -27.4930  -37.2270   24.7670 C   0  0  0  0  0  1  0  0  0  0  0  0
  -26.4390  -37.4040   23.7710 N   0  0  0  0  0  0  0  0  0  0  0  0
  -26.0390  -38.3300   23.8950 H   0  0  0  0  0  0  0  0  0  0  0  0
  -32.8010  -19.5180   19.2050 C   0  0  0  0  0  2  0  0  0  0  0  0
  -32.0490  -19.0100   20.4550 C   0  0  0  0  0  2  0  0  0  0  0  0
  -31.8120  -17.5430   20.4380 N   0  0  0  0  0  4  0  0  0  0  0  0
  -32.5140  -17.0530   20.9690 H   0  0  0  0  0  0  0  0  0  0  0  0
  -31.8740  -17.2300   19.4770 H   0  0  0  0  0  0  0  0  0  0  0  0
  -30.4330  -17.1270   20.8160 C   0  0  0  0  0  3  0  0  0  0  0  0
  -29.6350  -17.2020   19.5020 C   0  0  0  0  0  0  0  0  0  0  0  0
  -28.1290  -17.3930   19.5800 C   0  0  0  0  0  1  0  0  0  0  0  0
  -30.1830  -17.1310   18.3980 O   0  0  0  0  0  0  0  0  0  0  0  0
  -30.3150  -15.7230   21.5090 C   0  0  0  0  0  2  0  0  0  0  0  0
  -30.8750  -14.5260   20.7080 C   0  0  0  0  0  0  0  0  0  0  0  0
  -30.5150  -12.4620   19.4100 C   0  0  0  0  0  2  0  0  0  0  0  0
  -29.6020  -12.7900   18.2100 C   0  0  0  0  0  2  0  0  0  0  0  0
  -28.1160  -12.6680   18.6070 C   0  0  0  0  0  2  0  0  0  0  0  0
  -27.7830  -13.3940   19.9390 C   0  0  0  0  0  3  0  0  0  0  0  0
  -28.8300  -13.0680   21.0320 C   0  0  0  0  0  2  0  0  0  0  0  0
  -30.1620  -13.3850   20.5000 N   0  0  0  0  0  0  0  0  0  0  0  0
  -31.9830  -14.6990   20.1990 O   0  0  0  0  0  0  0  0  0  0  0  0
  -25.3560  -13.9740   20.5760 C   0  0  0  0  0  0  0  0  0  0  0  0
  -24.2860  -13.1900   20.9140 C   0  0  0  0  0  0  0  0  0  0  0  0
  -24.7590  -11.8430   20.8900 C   0  0  0  0  0  0  0  0  0  0  0  0
  -26.4180  -13.1040   20.3780 N   0  0  0  0  0  0  0  0  0  0  0  0
  -26.0600  -11.8170   20.6210 N   0  0  0  0  0  0  0  0  0  0  0  0
  -24.0370  -10.5750   21.0570 C   0  0  0  0  0  0  0  0  0  0  0  0
  -24.4500   -9.6120   22.0030 C   0  0  0  0  0  3  0  0  0  0  0  0
  -23.7310   -8.4070   22.1610 C   0  0  0  0  0  3  0  0  0  0  0  0
  -22.5860   -8.1570   21.3680 C   0  0  0  0  0  0  0  0  0  0  0  0
  -22.1930   -9.1070   20.4090 C   0  0  0  0  0  3  0  0  0  0  0  0
  -22.9130  -10.3030   20.2520 C   0  0  0  0  0  3  0  0  0  0  0  0
  -21.8400   -7.0040   21.4320 O   0  0  0  0  0  0  0  0  0  0  0  0
  -21.7550   -6.2630   22.5830 C   0  0  0  0  0  0  0  0  0  0  0  0
  -21.2690   -6.8150   23.7880 C   0  0  0  0  0  3  0  0  0  0  0  0
  -21.1350   -6.0010   24.9300 C   0  0  0  0  0  3  0  0  0  0  0  0
  -21.4730   -4.6360   24.8660 C   0  0  0  0  0  0  0  0  0  0  0  0
  -21.9520   -4.0830   23.6640 C   0  0  0  0  0  3  0  0  0  0  0  0
  -22.0880   -4.8950   22.5250 C   0  0  0  0  0  0  0  0  0  0  0  0
  -22.5280   -4.3540   21.3630 F   0  0  0  0  0  0  0  0  0  0  0  0
  -21.3380   -3.8500   25.9590 F   0  0  0  0  0  0  0  0  0  0  0  0
  -22.8770  -13.6530   21.1500 C   0  0  0  0  0  0  0  0  0  0  0  0
  -22.1330  -12.9490   21.9960 N   0  0  0  0  0  0  0  0  0  0  0  0
  -22.4440  -14.6740   20.6190 O   0  0  0  0  0  0  0  0  0  0  0  0
  -22.4920  -12.1250   22.4540 H   0  0  0  0  0  0  0  0  0  0  0  0
  -21.1870  -13.2440   22.1940 H   0  0  0  0  0  0  0  0  0  0  0  0
  -25.5080  -15.3450   20.4000 N   0  0  0  0  0  0  0  0  0  0  0  0
  -24.7230  -15.9830   20.4810 H   0  0  0  0  0  0  0  0  0  0  0  0
  -26.3440  -15.7870   20.0520 H   0  0  0  0  0  0  0  0  0  0  0  0
  1  2  1  0
  3  6  2  0
  3  4  1  0
  4  1  2  0
  5 55  1  0
  5  2  2  0
  6  5  1  0
  7  6  1  0
  8  4  1  0
  8  9  1  0
  9 11  1  0
  9 12  1  0
 10  8  2  0
 12 13  1  0
 14 16  1  0
 14 13  1  0
 15 26  2  0
 16 21  1  0
 17 25  1  0
 17 27  1  0
 18 24  1  0
 18 20  1  0
 19 25  1  0
 20 21  2  0
 20 19  1  0
 22 16  2  0
 23 22  1  0
 23 18  2  0
 24 17  1  0
 25 15  1  0
 27 29  2  0
 28 27  1  0
 30 28  1  0
 31 40  2  0
 31 36  1  0
 32 28  1  0
 32 36  1  0
 33 32  1  0
 34 35  1  0
 34 33  1  0
 35 31  1  0
 36 37  2  0
 37 38  1  0
 39 38  2  0
 40 39  1  0
 41 15  1  0
 41 46  1  0
 41 42  1  0
 42 45  1  1
 42 43  1  0
 44 42  1  0
 46 49  1  0
 47 51  1  0
 47 46  1  0
 48 47  2  0
 51 50  1  0
 53 51  1  0
 53 54  1  0
 53 52  1  0
 55 56  1  0
 57 56  1  0
 57 60  1  0
 57 58  1  0
 59 57  1  0
 60 64  1  0
 61 62  1  0
 61 60  1  0
 63 61  2  0
 65 64  1  0
 66 71  1  0
 67 68  1  0
 67 66  1  0
 69 68  1  0
 69 76  1  0
 69 70  1  0
 71 65  1  0
 71 70  1  0
 72 65  2  0
 73 74  2  0
 74 93  1  0
 75 74  1  0
 75 78  1  0
 76 73  1  0
 76 77  1  0
 77 75  2  0
 78 79  1  0
 79 80  2  0
 81 84  1  0
 81 80  1  0
 82 81  2  0
 83 82  1  0
 83 78  2  0
 84 85  1  0
 85 86  1  0
 86 87  2  0
 88 87  1  0
 88 92  1  0
 89 88  2  0
 90 85  2  0
 90 89  1  0
 91 90  1  0
 93 94  1  0
 94 97  1  0
 94 96  1  0
 95 93  2  0
 98 99  1  0
 98 73  1  0
100 98  1  0
M  ISO  4  13 101  14 101  64 100  65 100
M  END
>  <TORSDO>  (88) 
F 25

>  <SCORE>  (88) 
-12.331

>  <name>  (88) 
88

>  <ligand_id>  (88) 
88

>  <original_smiles>  (88) 
[H]c1c([H])c([H])c2c(c1[H])C([H])([H])C([H])([H])C([H])([H])C2([H])N([H])C(=O)C1([H])N(C(=O)C([H])(N([H])C(=O)C([H])(N([H])C([H])([H])[H])C([H])([H])[H])C(C([H])([H])[H])(C([H])([H])[H])C([H])([H])[H])C([H])([H])c2c([H])c(OC([H])([H])C([H])([H])N([H])C(=O)c3c([H])c([H])c(C([H])([H])C([H])([H])[N+]([H])([H])C([H])(C(=O)C([H])([H])[H])C([H])([H])C(=O)N4C([H])([H])C([H])([H])C([H])([H])C([H])(n5nc(-c6c([H])c([H])c(Oc7c([H])c([H])c(F)c([H])c7F)c([H])c6[H])c(C(=O)N([H])[H])c5N([H])[H])C4([H])[H])c(C([H])([H])[H])c3[H])c([H])c([H])c2C1([H])[H]

>  <smiles>  (88) 
[H]c1c([H])c([H])c2c(c1[H])C([H])([H])C([H])([H])C([H])([H])C2([H])N([H])C(=O)C1([H])N(C(=O)C([H])(N([H])C(=O)C([H])(N([H])C([H])([H])[H])C([H])([H])[H])C(C([H])([H])[H])(C([H])([H])[H])C([H])([H])[H])C([H])([H])c2c([H])c(OC([H])([H])C([H])([H])N([H])C(=O)c3c([H])c([H])c(C([H])([H])C([H])([H])[N+]([H])([H])C([H])(C(=O)C([H])([H])[H])C([H])([H])C(=O)N4C([H])([H])C([H])([H])C([H])([H])C([H])(n5nc(-c6c([H])c([H])c(Oc7c([H])c([H])c(F)c([H])c7F)c([H])c6[H])c(C(=O)N([H])[H])c5N([H])[H])C4([H])[H])c(C([H])([H])[H])c3[H])c([H])c([H])c2C1([H])[H]

$$$$
89:0:0
     RDKit          3D

 93102  0  0  1  0  0  0  0  0999 V2000
  -30.7150  -22.9910   21.8860 C   0  0  0  0  0  3  0  0  0  0  0  0
  -30.4760  -21.6510   21.4950 C   0  0  0  0  0  3  0  0  0  0  0  0
  -29.9740  -24.0670   21.3490 C   0  0  0  0  0  3  0  0  0  0  0  0
  -28.7490  -22.4530   20.0050 C   0  0  0  0  0  3  0  0  0  0  0  0
  -29.4900  -21.3250   20.5310 C   0  0  0  0  0  0  0  0  0  0  0  0
  -28.9620  -23.8260   20.4020 C   0  0  0  0  0  0  0  0  0  0  0  0
  -30.7520  -18.7560   18.1180 C   0  0  0  0  0  2  0  0  0  0  0  0
  -30.3290  -17.3620   18.5760 C   0  0  0  0  0  2  0  0  0  0  0  0
  -29.7050  -19.8050   18.5130 C   0  0  0  0  0  2  0  0  0  0  0  0
  -29.9310  -18.5880   20.8380 C   0  0  0  0  0  2  0  0  0  0  0  0
  -30.4430  -17.2430   20.1020 C   0  0  0  0  0  3  0  0  0  0  0  0
  -29.2680  -19.8250   20.0150 C   0  0  1  0  0  0  0  0  0  0  0  0
  -27.7500  -19.5410   20.0840 C   0  0  0  0  0  1  0  0  0  0  0  0
  -30.6930  -14.6940   20.3180 C   0  0  0  0  0  0  0  0  0  0  0  0
  -30.3890  -12.4710   19.2650 C   0  0  0  0  0  2  0  0  0  0  0  0
  -29.4640  -12.6340   18.0410 C   0  0  0  0  0  2  0  0  0  0  0  0
  -27.9910  -12.4780   18.4650 C   0  0  0  0  0  2  0  0  0  0  0  0
  -27.6360  -13.3340   19.7090 C   0  0  0  0  0  3  0  0  0  0  0  0
  -28.6940  -13.2070   20.8290 C   0  0  0  0  0  2  0  0  0  0  0  0
  -30.0050  -13.5100   20.2450 N   0  0  0  0  0  0  0  0  0  0  0  0
  -31.8710  -14.7500   19.9580 O   0  0  0  0  0  0  0  0  0  0  0  0
  -29.9950  -15.8600   20.5460 N   0  0  0  0  0  0  0  0  0  0  0  0
  -29.0380  -15.7660   20.8540 H   0  0  0  0  0  0  0  0  0  0  0  0
  -25.2430  -13.9310   20.4240 C   0  0  0  0  0  0  0  0  0  0  0  0
  -24.1770  -13.1600   20.7960 C   0  0  0  0  0  0  0  0  0  0  0  0
  -24.6400  -11.8090   20.7790 C   0  0  0  0  0  0  0  0  0  0  0  0
  -26.2890  -13.0500   20.1980 N   0  0  0  0  0  0  0  0  0  0  0  0
  -25.9320  -11.7690   20.4740 N   0  0  0  0  0  0  0  0  0  0  0  0
  -23.9100  -10.5480   20.9780 C   0  0  0  0  0  0  0  0  0  0  0  0
  -24.3410   -9.5860   21.9180 C   0  0  0  0  0  3  0  0  0  0  0  0
  -23.6150   -8.3910   22.1060 C   0  0  0  0  0  3  0  0  0  0  0  0
  -22.4410   -8.1470   21.3530 C   0  0  0  0  0  0  0  0  0  0  0  0
  -22.0290   -9.0980   20.4010 C   0  0  0  0  0  3  0  0  0  0  0  0
  -22.7570  -10.2840   20.2140 C   0  0  0  0  0  3  0  0  0  0  0  0
  -21.6860   -7.0050   21.4490 O   0  0  0  0  0  0  0  0  0  0  0  0
  -21.6340   -6.2690   22.6070 C   0  0  0  0  0  0  0  0  0  0  0  0
  -21.2090   -6.8350   23.8290 C   0  0  0  0  0  3  0  0  0  0  0  0
  -21.1060   -6.0270   24.9790 C   0  0  0  0  0  3  0  0  0  0  0  0
  -21.4160   -4.6560   24.9080 C   0  0  0  0  0  0  0  0  0  0  0  0
  -21.8340   -4.0890   23.6900 C   0  0  0  0  0  3  0  0  0  0  0  0
  -21.9400   -4.8950   22.5420 C   0  0  0  0  0  0  0  0  0  0  0  0
  -22.3220   -4.3420   21.3660 F   0  0  0  0  0  0  0  0  0  0  0  0
  -21.3100   -3.8780   26.0100 F   0  0  0  0  0  0  0  0  0  0  0  0
  -22.7790  -13.6400   21.0590 C   0  0  0  0  0  0  0  0  0  0  0  0
  -22.0480  -12.9540   21.9330 N   0  0  0  0  0  0  0  0  0  0  0  0
  -22.3420  -14.6580   20.5230 O   0  0  0  0  0  0  0  0  0  0  0  0
  -22.4150  -12.1310   22.3890 H   0  0  0  0  0  0  0  0  0  0  0  0
  -21.1090  -13.2570   22.1470 H   0  0  0  0  0  0  0  0  0  0  0  0
  -25.4110  -15.2980   20.2330 N   0  0  0  0  0  0  0  0  0  0  0  0
  -24.6440  -15.9530   20.3260 H   0  0  0  0  0  0  0  0  0  0  0  0
  -26.2610  -15.7290   19.8910 H   0  0  0  0  0  0  0  0  0  0  0  0
  -28.0580  -24.9970   19.8700 C   0  0  0  0  0  2  0  0  0  0  0  0
  -28.3100  -26.4300   20.2130 O   0  0  0  0  0  0  0  0  0  0  0  0
  -24.6180  -31.8770   23.2300 C   0  0  0  0  0  0  0  0  0  0  0  0
  -27.2140  -27.3180   20.1370 C   0  0  0  0  0  0  0  0  0  0  0  0
  -23.4090  -30.4860   21.5890 C   0  0  0  0  0  3  0  0  0  0  0  0
  -24.8560  -28.9520   20.1420 C   0  0  0  0  0  0  0  0  0  0  0  0
  -25.9500  -30.8000   21.4030 C   0  0  0  0  0  2  0  0  0  0  0  0
  -26.0270  -29.4250   20.7480 C   0  0  0  0  0  0  0  0  0  0  0  0
  -27.2080  -28.6160   20.7430 C   0  0  0  0  0  3  0  0  0  0  0  0
  -26.0220  -26.9210   19.4860 C   0  0  0  0  0  3  0  0  0  0  0  0
  -24.8550  -27.7050   19.5050 C   0  0  0  0  0  3  0  0  0  0  0  0
  -23.6210  -29.8260   20.2020 C   0  0  0  0  0  2  0  0  0  0  0  0
  -24.6780  -31.0720   22.1290 N   0  0  0  0  0  0  0  0  0  0  0  0
  -23.5360  -32.1540   23.7680 O   0  0  0  0  0  0  0  0  0  0  0  0
  -22.7520  -29.4620   22.5450 C   0  0  0  0  0  0  0  0  0  0  0  0
  -21.4240  -29.2880   22.4270 N   0  0  0  0  0  0  0  0  0  0  0  0
  -23.4350  -28.8290   23.3550 O   0  0  0  0  0  0  0  0  0  0  0  0
  -20.9310  -29.8520   21.7490 H   0  0  0  0  0  0  0  0  0  0  0  0
  -18.0480  -28.0950   22.9430 C   0  0  0  0  0  0  0  0  0  0  0  0
  -20.6080  -28.3480   23.1990 C   0  0  0  0  0  3  0  0  0  0  0  0
  -20.7050  -26.9190   22.6150 C   0  0  0  0  0  2  0  0  0  0  0  0
  -19.5970  -26.6030   21.6070 C   0  0  0  0  0  2  0  0  0  0  0  0
  -18.2190  -26.7490   22.2590 C   0  0  0  0  0  2  0  0  0  0  0  0
  -19.1710  -28.8530   23.3690 C   0  0  0  0  0  0  0  0  0  0  0  0
  -18.9570  -30.1140   23.9660 C   0  0  0  0  0  3  0  0  0  0  0  0
  -17.6540  -30.6150   24.1470 C   0  0  0  0  0  3  0  0  0  0  0  0
  -16.5460  -29.8540   23.7360 C   0  0  0  0  0  3  0  0  0  0  0  0
  -16.7440  -28.5970   23.1370 C   0  0  0  0  0  3  0  0  0  0  0  0
  -25.9030  -32.5090   23.8480 C   0  0  0  0  0  3  0  0  0  0  0  0
  -25.5930  -33.9050   24.1850 N   0  0  0  0  0  0  0  0  0  0  0  0
  -25.9080  -34.9630   23.4260 C   0  0  0  0  0  0  0  0  0  0  0  0
  -26.5640  -34.8670   22.3850 O   0  0  0  0  0  0  0  0  0  0  0  0
  -25.0110  -34.0520   24.9970 H   0  0  0  0  0  0  0  0  0  0  0  0
  -24.1680  -36.7520   23.1040 C   0  0  0  0  0  1  0  0  0  0  0  0
  -25.4210  -36.3480   23.8970 C   0  0  0  0  0  3  0  0  0  0  0  0
  -27.5640  -37.2390   24.7020 C   0  0  0  0  0  1  0  0  0  0  0  0
  -26.4480  -37.4050   23.7740 N   0  0  0  0  0  0  0  0  0  0  0  0
  -26.0400  -38.3230   23.9300 H   0  0  0  0  0  0  0  0  0  0  0  0
  -26.4250  -31.7320   25.1190 C   0  0  1  0  0  0  0  0  0  0  0  0
  -25.3370  -31.4910   26.1910 C   0  0  0  0  0  1  0  0  0  0  0  0
  -27.0090  -30.3570   24.7220 C   0  0  0  0  0  1  0  0  0  0  0  0
  -27.5760  -32.5270   25.7810 C   0  0  0  0  0  1  0  0  0  0  0  0
  2  1  1  0
  3  1  2  0
  4  6  2  0
  4  5  1  0
  5  2  2  0
  6  3  1  0
  7  9  1  0
  7  8  1  0
  8 11  1  0
  9 12  1  0
 11 22  1  0
 11 10  1  0
 12 13  1  6
 12  5  1  0
 12 10  1  0
 14 22  1  0
 15 20  1  0
 16 17  1  0
 16 15  1  0
 18 17  1  0
 18 27  1  0
 18 19  1  0
 20 14  1  0
 20 19  1  0
 21 14  2  0
 22 23  1  0
 24 25  2  0
 25 44  1  0
 26 25  1  0
 26 29  1  0
 27 24  1  0
 27 28  1  0
 28 26  2  0
 29 30  1  0
 30 31  2  0
 32 35  1  0
 32 31  1  0
 33 32  2  0
 34 33  1  0
 34 29  2  0
 35 36  1  0
 36 37  1  0
 37 38  2  0
 39 38  1  0
 39 43  1  0
 40 39  2  0
 41 36  2  0
 41 40  1  0
 42 41  1  0
 44 45  1  0
 45 48  1  0
 45 47  1  0
 46 44  2  0
 49 50  1  0
 49 24  1  0
 51 49  1  0
 52 53  1  0
 52  6  1  0
 54 65  2  0
 55 53  1  0
 55 60  1  0
 56 64  1  0
 56 66  1  0
 57 63  1  0
 57 59  1  0
 58 64  1  0
 59 58  1  0
 60 59  2  0
 61 62  1  0
 61 55  2  0
 62 57  2  0
 63 56  1  0
 64 54  1  0
 66 68  2  0
 67 66  1  0
 69 67  1  0
 70 79  2  0
 70 75  1  0
 71 67  1  0
 71 75  1  0
 72 71  1  0
 73 74  1  0
 73 72  1  0
 74 70  1  0
 75 76  2  0
 76 77  1  0
 78 77  2  0
 79 78  1  0
 80 54  1  0
 80 81  1  0
 80 90  1  0
 81 84  1  0
 82 86  1  0
 82 81  1  0
 83 82  2  0
 86 85  1  0
 88 86  1  0
 88 89  1  0
 88 87  1  0
 90 93  1  1
 90 91  1  0
 92 90  1  0
M  ISO  4  14 100  22 100  52 101  53 101
M  END
>  <TORSDO>  (89) 
F 18

>  <SCORE>  (89) 
-14.818

>  <name>  (89) 
89

>  <ligand_id>  (89) 
89

>  <original_smiles>  (89) 
[H]c1c([H])c([H])c2c(c1[H])C([H])([H])C([H])([H])C([H])([H])C2([H])N([H])C(=O)C1([H])N(C(=O)C([H])(N([H])C(=O)C([H])(N([H])C([H])([H])[H])C([H])([H])[H])C(C([H])([H])[H])(C([H])([H])[H])C([H])([H])[H])C([H])([H])c2c([H])c(OC([H])([H])c3c([H])c([H])c([H])c(C4(C([H])([H])[H])C([H])([H])C([H])([H])C([H])([H])C([H])(N([H])C(=O)N5C([H])([H])C([H])([H])C([H])([H])C([H])(n6nc(-c7c([H])c([H])c(Oc8c([H])c([H])c(F)c([H])c8F)c([H])c7[H])c(C(=O)N([H])[H])c6N([H])[H])C5([H])[H])C4([H])[H])c3[H])c([H])c([H])c2C1([H])[H]

>  <smiles>  (89) 
[H]c1c([H])c([H])c2c(c1[H])C([H])([H])C([H])([H])C([H])([H])C2([H])N([H])C(=O)C1([H])N(C(=O)C([H])(N([H])C(=O)C([H])(N([H])C([H])([H])[H])C([H])([H])[H])C(C([H])([H])[H])(C([H])([H])[H])C([H])([H])[H])C([H])([H])c2c([H])c(OC([H])([H])c3c([H])c([H])c([H])c(C4(C([H])([H])[H])C([H])([H])C([H])([H])C([H])([H])C([H])(N([H])C(=O)N5C([H])([H])C([H])([H])C([H])([H])C([H])(n6nc(-c7c([H])c([H])c(Oc8c([H])c([H])c(F)c([H])c8F)c([H])c7[H])c(C(=O)N([H])[H])c6N([H])[H])C5([H])[H])C4([H])[H])c3[H])c([H])c([H])c2C1([H])[H]

$$$$
90:0:0
     RDKit          3D

 91 99  0  0  1  0  0  0  0  0999 V2000
  -32.2500  -23.4390   21.0770 C   0  0  0  0  0  3  0  0  0  0  0  0
  -31.9360  -24.7920   20.9410 C   0  0  0  0  0  3  0  0  0  0  0  0
  -31.2990  -22.4670   20.7410 C   0  0  0  0  0  3  0  0  0  0  0  0
  -30.6600  -25.1600   20.4990 C   0  0  0  0  0  3  0  0  0  0  0  0
  -29.9960  -22.7810   20.2620 C   0  0  0  0  0  0  0  0  0  0  0  0
  -29.6430  -24.2210   20.1730 C   0  0  0  0  0  0  0  0  0  0  0  0
  -29.1430  -21.4820   19.9230 C   0  0  0  0  0  2  0  0  0  0  0  0
  -29.4380  -18.8410   20.1800 C   0  0  0  0  0  0  0  0  0  0  0  0
  -29.8470  -20.1130   19.8240 N   0  0  0  0  0  0  0  0  0  0  0  0
  -28.3330  -18.6780   20.6960 O   0  0  0  0  0  0  0  0  0  0  0  0
  -30.7560  -20.1510   19.3810 H   0  0  0  0  0  0  0  0  0  0  0  0
  -30.3490  -17.5400   19.9500 C   0  0  0  0  0  3  0  0  0  0  0  0
  -29.8770  -16.0830   20.5020 C   0  0  0  0  0  3  0  0  0  0  0  0
  -30.5770  -14.7380   19.9720 C   0  0  0  0  0  0  0  0  0  0  0  0
  -30.2920  -12.4640   18.9550 C   0  0  0  0  0  2  0  0  0  0  0  0
  -29.2880  -12.5710   17.7860 C   0  0  0  0  0  2  0  0  0  0  0  0
  -27.8380  -12.4240   18.2900 C   0  0  0  0  0  2  0  0  0  0  0  0
  -27.5490  -13.2910   19.5430 C   0  0  0  0  0  3  0  0  0  0  0  0
  -28.6750  -13.1760   20.5980 C   0  0  0  0  0  2  0  0  0  0  0  0
  -29.9450  -13.5130   19.9430 N   0  0  0  0  0  0  0  0  0  0  0  0
  -31.7060  -14.8390   19.4850 O   0  0  0  0  0  0  0  0  0  0  0  0
  -25.2160  -13.8940   20.4230 C   0  0  0  0  0  0  0  0  0  0  0  0
  -24.1620  -13.1260   20.8430 C   0  0  0  0  0  0  0  0  0  0  0  0
  -24.6040  -11.7700   20.7580 C   0  0  0  0  0  0  0  0  0  0  0  0
  -26.2330  -13.0070   20.1090 N   0  0  0  0  0  0  0  0  0  0  0  0
  -25.8740  -11.7220   20.3710 N   0  0  0  0  0  0  0  0  0  0  0  0
  -23.8710  -10.5140   20.9670 C   0  0  0  0  0  0  0  0  0  0  0  0
  -24.3330   -9.5310   21.8710 C   0  0  0  0  0  3  0  0  0  0  0  0
  -23.6000   -8.3410   22.0700 C   0  0  0  0  0  3  0  0  0  0  0  0
  -22.3900   -8.1250   21.3680 C   0  0  0  0  0  0  0  0  0  0  0  0
  -21.9460   -9.0980   20.4540 C   0  0  0  0  0  3  0  0  0  0  0  0
  -22.6790  -10.2780   20.2510 C   0  0  0  0  0  3  0  0  0  0  0  0
  -21.6250   -6.9880   21.4770 O   0  0  0  0  0  0  0  0  0  0  0  0
  -21.6050   -6.2420   22.6290 C   0  0  0  0  0  0  0  0  0  0  0  0
  -21.2250   -6.7980   23.8720 C   0  0  0  0  0  3  0  0  0  0  0  0
  -21.1500   -5.9790   25.0160 C   0  0  0  0  0  3  0  0  0  0  0  0
  -21.4490   -4.6060   24.9210 C   0  0  0  0  0  0  0  0  0  0  0  0
  -21.8230   -4.0500   23.6850 C   0  0  0  0  0  3  0  0  0  0  0  0
  -21.8980   -4.8660   22.5420 C   0  0  0  0  0  0  0  0  0  0  0  0
  -22.2370   -4.3210   21.3490 F   0  0  0  0  0  0  0  0  0  0  0  0
  -21.3700   -3.8170   26.0200 F   0  0  0  0  0  0  0  0  0  0  0  0
  -22.7920  -13.6150   21.2120 C   0  0  0  0  0  0  0  0  0  0  0  0
  -22.1090  -12.9140   22.1080 N   0  0  0  0  0  0  0  0  0  0  0  0
  -22.3390  -14.6560   20.7380 O   0  0  0  0  0  0  0  0  0  0  0  0
  -22.4890  -12.0720   22.5170 H   0  0  0  0  0  0  0  0  0  0  0  0
  -21.1910  -13.2230   22.3950 H   0  0  0  0  0  0  0  0  0  0  0  0
  -25.3880  -15.2650   20.2630 N   0  0  0  0  0  0  0  0  0  0  0  0
  -24.6460  -15.9300   20.4550 H   0  0  0  0  0  0  0  0  0  0  0  0
  -26.2350  -15.7030   19.9260 H   0  0  0  0  0  0  0  0  0  0  0  0
  -28.2860  -24.9500   19.7810 C   0  0  0  0  0  2  0  0  0  0  0  0
  -28.2930  -26.4500   19.9180 O   0  0  0  0  0  0  0  0  0  0  0  0
  -24.4540  -31.7230   23.0560 C   0  0  0  0  0  0  0  0  0  0  0  0
  -27.1330  -27.2530   19.8990 C   0  0  0  0  0  0  0  0  0  0  0  0
  -23.2670  -30.3440   21.3840 C   0  0  0  0  0  3  0  0  0  0  0  0
  -24.7370  -28.8390   19.9210 C   0  0  0  0  0  0  0  0  0  0  0  0
  -25.8010  -30.6980   21.2050 C   0  0  0  0  0  2  0  0  0  0  0  0
  -25.8990  -29.3340   20.5260 C   0  0  0  0  0  0  0  0  0  0  0  0
  -27.0970  -28.5550   20.4970 C   0  0  0  0  0  3  0  0  0  0  0  0
  -25.9450  -26.8060   19.2800 C   0  0  0  0  0  3  0  0  0  0  0  0
  -24.7650  -27.5830   19.2870 C   0  0  0  0  0  3  0  0  0  0  0  0
  -23.4890  -29.6990   19.9890 C   0  0  0  0  0  2  0  0  0  0  0  0
  -24.5260  -30.9400   21.9380 N   0  0  0  0  0  0  0  0  0  0  0  0
  -23.3680  -31.9730   23.5980 O   0  0  0  0  0  0  0  0  0  0  0  0
  -22.6180  -29.3010   22.3240 C   0  0  0  0  0  0  0  0  0  0  0  0
  -21.2910  -29.1240   22.2060 N   0  0  0  0  0  0  0  0  0  0  0  0
  -23.3070  -28.6560   23.1170 O   0  0  0  0  0  0  0  0  0  0  0  0
  -20.7950  -29.6970   21.5380 H   0  0  0  0  0  0  0  0  0  0  0  0
  -17.9190  -27.9180   22.7190 C   0  0  0  0  0  0  0  0  0  0  0  0
  -20.4820  -28.1620   22.9570 C   0  0  0  0  0  3  0  0  0  0  0  0
  -20.5710  -26.7530   22.3280 C   0  0  0  0  0  2  0  0  0  0  0  0
  -19.4520  -26.4700   21.3220 C   0  0  0  0  0  2  0  0  0  0  0  0
  -18.0810  -26.5930   21.9930 C   0  0  0  0  0  2  0  0  0  0  0  0
  -19.0470  -28.6620   23.1580 C   0  0  0  0  0  0  0  0  0  0  0  0
  -18.8400  -29.9040   23.7980 C   0  0  0  0  0  3  0  0  0  0  0  0
  -17.5400  -30.3990   24.0050 C   0  0  0  0  0  3  0  0  0  0  0  0
  -16.4260  -29.6500   23.5840 C   0  0  0  0  0  3  0  0  0  0  0  0
  -16.6170  -28.4120   22.9450 C   0  0  0  0  0  3  0  0  0  0  0  0
  -25.7280  -32.3560   23.6930 C   0  0  0  0  0  3  0  0  0  0  0  0
  -25.4040  -33.7440   24.0530 N   0  0  0  0  0  0  0  0  0  0  0  0
  -25.7120  -34.8170   23.3120 C   0  0  0  0  0  0  0  0  0  0  0  0
  -26.3680  -34.7430   22.2700 O   0  0  0  0  0  0  0  0  0  0  0  0
  -24.8170  -33.8740   24.8640 H   0  0  0  0  0  0  0  0  0  0  0  0
  -23.9450  -36.5860   23.0310 C   0  0  0  0  0  1  0  0  0  0  0  0
  -25.2140  -36.1900   23.8040 C   0  0  0  0  0  3  0  0  0  0  0  0
  -27.3530  -37.1000   24.5960 C   0  0  0  0  0  1  0  0  0  0  0  0
  -26.2250  -37.2620   23.6810 N   0  0  0  0  0  0  0  0  0  0  0  0
  -25.8070  -38.1740   23.8510 H   0  0  0  0  0  0  0  0  0  0  0  0
  -26.2520  -31.5650   24.9530 C   0  0  1  0  0  0  0  0  0  0  0  0
  -25.1600  -31.2970   26.0170 C   0  0  0  0  0  1  0  0  0  0  0  0
  -26.8480  -30.2010   24.5360 C   0  0  0  0  0  1  0  0  0  0  0  0
  -27.3960  -32.3550   25.6310 C   0  0  0  0  0  1  0  0  0  0  0  0
  2  1  1  0
  3  1  2  0
  4  2  2  0
  5  3  1  0
  6  5  2  0
  6  4  1  0
  7  5  1  0
  8 10  2  0
  9  7  1  0
  9  8  1  0
 11  9  1  0
 12  8  1  0
 12 13  2  0
 14 13  1  0
 15 20  1  0
 16 17  1  0
 16 15  1  0
 18 17  1  0
 18 25  1  0
 18 19  1  0
 20 14  1  0
 20 19  1  0
 21 14  2  0
 22 23  2  0
 23 42  1  0
 24 23  1  0
 24 27  1  0
 25 26  1  0
 25 22  1  0
 26 24  2  0
 27 28  1  0
 28 29  2  0
 30 33  1  0
 30 29  1  0
 31 30  2  0
 32 31  1  0
 32 27  2  0
 33 34  1  0
 34 35  1  0
 35 36  2  0
 37 36  1  0
 37 41  1  0
 38 37  2  0
 39 34  2  0
 39 38  1  0
 40 39  1  0
 42 43  1  0
 43 46  1  0
 43 45  1  0
 44 42  2  0
 47 22  1  0
 47 48  1  0
 49 47  1  0
 50 51  1  0
 50  6  1  0
 52 63  2  0
 53 51  1  0
 53 58  1  0
 54 62  1  0
 54 64  1  0
 55 61  1  0
 55 57  1  0
 56 62  1  0
 57 56  1  0
 58 57  2  0
 59 60  1  0
 59 53  2  0
 60 55  2  0
 61 54  1  0
 62 52  1  0
 64 66  2  0
 65 64  1  0
 67 65  1  0
 68 77  2  0
 68 73  1  0
 69 65  1  0
 69 73  1  0
 70 69  1  0
 71 72  1  0
 71 70  1  0
 72 68  1  0
 73 74  2  0
 74 75  1  0
 76 75  2  0
 77 76  1  0
 78 52  1  0
 78 79  1  0
 78 88  1  0
 79 82  1  0
 80 84  1  0
 80 79  1  0
 81 80  2  0
 84 83  1  0
 86 84  1  0
 86 87  1  0
 86 85  1  0
 88 91  1  1
 88 89  1  0
 90 88  1  0
M  ISO  4  13 100  14 100  50 101  51 101
M  END
>  <TORSDO>  (90) 
F 21

>  <SCORE>  (90) 
-12.304

>  <name>  (90) 
90

>  <ligand_id>  (90) 
90

>  <original_smiles>  (90) 
[H]c1c([H])c([H])c(C([H])([H])N([H])C(=O)C([H])([H])C([H])([H])C(=O)N2C([H])([H])C([H])([H])C([H])([H])C([H])(n3nc(-c4c([H])c([H])c(Oc5c([H])c([H])c(F)c([H])c5F)c([H])c4[H])c(C(=O)N([H])[H])c3N([H])[H])C2([H])[H])c(C([H])([H])Oc2c([H])c([H])c3c(c2[H])C([H])([H])N(C(=O)C([H])(N([H])C(=O)C([H])(N([H])C([H])([H])[H])C([H])([H])[H])C(C([H])([H])[H])(C([H])([H])[H])C([H])([H])[H])C([H])(C(=O)N([H])C2([H])c4c([H])c([H])c([H])c([H])c4C([H])([H])C([H])([H])C2([H])[H])C3([H])[H])c1[H]

>  <smiles>  (90) 
[H]c1c([H])c([H])c(C([H])([H])N([H])C(=O)C([H])([H])C([H])([H])C(=O)N2C([H])([H])C([H])([H])C([H])([H])C([H])(n3nc(-c4c([H])c([H])c(Oc5c([H])c([H])c(F)c([H])c5F)c([H])c4[H])c(C(=O)N([H])[H])c3N([H])[H])C2([H])[H])c(C([H])([H])Oc2c([H])c([H])c3c(c2[H])C([H])([H])N(C(=O)C([H])(N([H])C(=O)C([H])(N([H])C([H])([H])[H])C([H])([H])[H])C(C([H])([H])[H])(C([H])([H])[H])C([H])([H])[H])C([H])(C(=O)N([H])C2([H])c4c([H])c([H])c([H])c([H])c4C([H])([H])C([H])([H])C2([H])[H])C3([H])[H])c1[H]

$$$$
91:0:0
     RDKit          3D

 96104  0  0  1  0  0  0  0  0999 V2000
  -28.0480  -20.0430   20.7810 C   0  0  0  0  0  3  0  0  0  0  0  0
  -28.7460  -18.9450   21.3220 C   0  0  0  0  0  3  0  0  0  0  0  0
  -30.1460  -20.9910   20.0150 C   0  0  0  0  0  3  0  0  0  0  0  0
  -28.7400  -21.0810   20.1140 C   0  0  0  0  0  0  0  0  0  0  0  0
  -30.1530  -18.8660   21.2400 C   0  0  0  0  0  0  0  0  0  0  0  0
  -30.8560  -19.9110   20.5850 C   0  0  0  0  0  0  0  0  0  0  0  0
  -32.3730  -19.9190   20.4920 C   0  0  0  0  0  1  0  0  0  0  0  0
  -26.6850  -21.8450   18.7980 C   0  0  0  0  0  1  0  0  0  0  0  0
  -28.0010  -22.2690   19.4780 C   0  0  0  0  0  3  0  0  0  0  0  0
  -27.7380  -23.3460   20.4660 N   0  0  0  0  0  4  0  0  0  0  0  0
  -26.8370  -23.7490   20.2620 H   0  0  0  0  0  0  0  0  0  0  0  0
  -27.6560  -22.8990   21.3660 H   0  0  0  0  0  0  0  0  0  0  0  0
  -28.7390  -24.4460   20.5770 C   0  0  0  0  0  2  0  0  0  0  0  0
  -28.8010  -25.4100   19.3580 C   0  0  0  0  0  2  0  0  0  0  0  0
  -28.6740  -26.7940   19.7370 O   0  0  0  0  0  0  0  0  0  0  0  0
  -24.5910  -31.6030   23.0480 C   0  0  0  0  0  0  0  0  0  0  0  0
  -27.4420  -27.4250   19.7640 C   0  0  0  0  0  0  0  0  0  0  0  0
  -23.4540  -30.2250   21.3390 C   0  0  0  0  0  3  0  0  0  0  0  0
  -24.9770  -28.8240   19.8510 C   0  0  0  0  0  0  0  0  0  0  0  0
  -25.9630  -30.7080   21.1660 C   0  0  0  0  0  2  0  0  0  0  0  0
  -26.1100  -29.3720   20.4620 C   0  0  0  0  0  0  0  0  0  0  0  0
  -27.3430  -28.6810   20.4110 C   0  0  0  0  0  3  0  0  0  0  0  0
  -26.2800  -26.8910   19.1570 C   0  0  0  0  0  3  0  0  0  0  0  0
  -25.0570  -27.5840   19.1970 C   0  0  0  0  0  3  0  0  0  0  0  0
  -23.6960  -29.6220   19.9300 C   0  0  0  0  0  2  0  0  0  0  0  0
  -24.6870  -30.8600   21.9100 N   0  0  0  0  0  0  0  0  0  0  0  0
  -23.4980  -31.7980   23.5970 O   0  0  0  0  0  0  0  0  0  0  0  0
  -22.8520  -29.1300   22.2480 C   0  0  0  0  0  0  0  0  0  0  0  0
  -21.5460  -28.8630   22.0800 N   0  0  0  0  0  0  0  0  0  0  0  0
  -23.5560  -28.5240   23.0610 O   0  0  0  0  0  0  0  0  0  0  0  0
  -21.0370  -29.4080   21.3970 H   0  0  0  0  0  0  0  0  0  0  0  0
  -18.2590  -27.4020   22.4170 C   0  0  0  0  0  0  0  0  0  0  0  0
  -20.7760  -27.8470   22.7970 C   0  0  0  0  0  3  0  0  0  0  0  0
  -21.0110  -26.4440   22.1910 C   0  0  0  0  0  2  0  0  0  0  0  0
  -19.9760  -26.0660   21.1280 C   0  0  0  0  0  2  0  0  0  0  0  0
  -18.5640  -26.0880   21.7180 C   0  0  0  0  0  2  0  0  0  0  0  0
  -19.2970  -28.2350   22.9100 C   0  0  0  0  0  0  0  0  0  0  0  0
  -18.9610  -29.4630   23.5180 C   0  0  0  0  0  3  0  0  0  0  0  0
  -17.6160  -29.8600   23.6430 C   0  0  0  0  0  3  0  0  0  0  0  0
  -16.5910  -29.0240   23.1700 C   0  0  0  0  0  3  0  0  0  0  0  0
  -16.9120  -27.7980   22.5620 C   0  0  0  0  0  3  0  0  0  0  0  0
  -25.8470  -32.2630   23.7010 C   0  0  0  0  0  3  0  0  0  0  0  0
  -25.4840  -33.6380   24.0660 N   0  0  0  0  0  0  0  0  0  0  0  0
  -25.7970  -34.7250   23.3490 C   0  0  0  0  0  0  0  0  0  0  0  0
  -26.4920  -34.6780   22.3300 O   0  0  0  0  0  0  0  0  0  0  0  0
  -24.8670  -33.7460   24.8580 H   0  0  0  0  0  0  0  0  0  0  0  0
  -24.0310  -36.4800   22.9870 C   0  0  0  0  0  1  0  0  0  0  0  0
  -25.2490  -36.0800   23.8360 C   0  0  0  0  0  3  0  0  0  0  0  0
  -27.3180  -36.9930   24.7920 C   0  0  0  0  0  1  0  0  0  0  0  0
  -26.2520  -37.1660   23.8090 N   0  0  0  0  0  0  0  0  0  0  0  0
  -25.8120  -38.0680   23.9740 H   0  0  0  0  0  0  0  0  0  0  0  0
  -26.3800  -31.4750   24.9580 C   0  0  1  0  0  0  0  0  0  0  0  0
  -25.2880  -31.1640   26.0070 C   0  0  0  0  0  1  0  0  0  0  0  0
  -27.0180  -30.1330   24.5280 C   0  0  0  0  0  1  0  0  0  0  0  0
  -27.4920  -32.2930   25.6560 C   0  0  0  0  0  1  0  0  0  0  0  0
  -30.8640  -17.6970   21.9300 C   0  0  0  0  0  2  0  0  0  0  0  0
  -30.5840  -15.5030   20.6240 C   0  0  0  0  0  3  0  0  0  0  0  0
  -31.3380  -16.5520   21.0360 C   0  0  0  0  0  0  0  0  0  0  0  0
  -31.1120  -14.4260   19.7760 C   0  0  0  0  0  0  0  0  0  0  0  0
  -30.6340  -12.2910   18.6220 C   0  0  0  0  0  2  0  0  0  0  0  0
  -29.5910  -12.5030   17.5060 C   0  0  0  0  0  2  0  0  0  0  0  0
  -28.1610  -12.3840   18.0730 C   0  0  0  0  0  2  0  0  0  0  0  0
  -27.9540  -13.2360   19.3550 C   0  0  0  0  0  3  0  0  0  0  0  0
  -29.1010  -12.9890   20.3630 C   0  0  0  0  0  2  0  0  0  0  0  0
  -30.3700  -13.2840   19.6790 N   0  0  0  0  0  0  0  0  0  0  0  0
  -32.1510  -14.5730   19.1250 O   0  0  0  0  0  0  0  0  0  0  0  0
  -25.6630  -13.8920   20.3270 C   0  0  0  0  0  0  0  0  0  0  0  0
  -24.6060  -13.1380   20.7630 C   0  0  0  0  0  0  0  0  0  0  0  0
  -25.0070  -11.7740   20.6210 C   0  0  0  0  0  0  0  0  0  0  0  0
  -26.6450  -12.9870   19.9540 N   0  0  0  0  0  0  0  0  0  0  0  0
  -26.2580  -11.7060   20.1850 N   0  0  0  0  0  0  0  0  0  0  0  0
  -24.2530  -10.5300   20.8190 C   0  0  0  0  0  0  0  0  0  0  0  0
  -24.6410   -9.5780   21.7900 C   0  0  0  0  0  3  0  0  0  0  0  0
  -23.8900   -8.3960   21.9740 C   0  0  0  0  0  3  0  0  0  0  0  0
  -22.7370   -8.1600   21.1890 C   0  0  0  0  0  0  0  0  0  0  0  0
  -22.3700   -9.0960   20.2070 C   0  0  0  0  0  3  0  0  0  0  0  0
  -23.1220  -10.2680   20.0200 C   0  0  0  0  0  3  0  0  0  0  0  0
  -21.9600   -7.0310   21.2810 O   0  0  0  0  0  0  0  0  0  0  0  0
  -21.7440   -6.4010   22.4800 C   0  0  0  0  0  0  0  0  0  0  0  0
  -21.1370   -7.0600   23.5710 C   0  0  0  0  0  3  0  0  0  0  0  0
  -20.8740   -6.3550   24.7630 C   0  0  0  0  0  3  0  0  0  0  0  0
  -21.2070   -4.9910   24.8620 C   0  0  0  0  0  0  0  0  0  0  0  0
  -21.8070   -4.3320   23.7740 C   0  0  0  0  0  3  0  0  0  0  0  0
  -22.0720   -5.0340   22.5870 C   0  0  0  0  0  0  0  0  0  0  0  0
  -22.6310   -4.3880   21.5350 F   0  0  0  0  0  0  0  0  0  0  0  0
  -20.9470   -4.3110   26.0030 F   0  0  0  0  0  0  0  0  0  0  0  0
  -23.2600  -13.6470   21.1980 C   0  0  0  0  0  0  0  0  0  0  0  0
  -22.6120  -12.9550   22.1290 N   0  0  0  0  0  0  0  0  0  0  0  0
  -22.8000  -14.6940   20.7470 O   0  0  0  0  0  0  0  0  0  0  0  0
  -22.9990  -12.1090   22.5190 H   0  0  0  0  0  0  0  0  0  0  0  0
  -21.7130  -13.2790   22.4580 H   0  0  0  0  0  0  0  0  0  0  0  0
  -25.8640  -15.2620   20.2040 N   0  0  0  0  0  0  0  0  0  0  0  0
  -25.1420  -15.9400   20.4320 H   0  0  0  0  0  0  0  0  0  0  0  0
  -26.7090  -15.6880   19.8440 H   0  0  0  0  0  0  0  0  0  0  0  0
  -32.6410  -16.7110   20.7440 O   0  0  0  0  0  0  0  0  0  0  0  0
  -32.8840  -16.0060   20.1500 H   0  0  0  0  0  0  0  0  0  0  0  0
  1  2  1  0
  3  4  1  0
  3  6  2  0
  4  1  2  0
  5  2  2  0
  5 56  1  0
  6  5  1  0
  7  6  1  0
  9  8  1  0
  9  4  1  0
  9 10  1  0
 10 13  1  0
 10 12  1  0
 11 10  1  0
 14 15  1  0
 14 13  1  0
 15 17  1  0
 16 27  2  0
 17 22  1  0
 18 26  1  0
 18 28  1  0
 19 25  1  0
 19 21  1  0
 20 26  1  0
 21 20  1  0
 22 21  2  0
 23 24  1  0
 23 17  2  0
 24 19  2  0
 25 18  1  0
 26 16  1  0
 28 30  2  0
 29 28  1  0
 31 29  1  0
 32 41  2  0
 32 37  1  0
 33 29  1  0
 33 37  1  0
 34 33  1  0
 35 36  1  0
 35 34  1  0
 36 32  1  0
 37 38  2  0
 38 39  1  0
 40 39  2  0
 41 40  1  0
 42 16  1  0
 42 43  1  0
 42 52  1  0
 43 46  1  0
 44 48  1  0
 44 43  1  0
 45 44  2  0
 48 47  1  0
 50 48  1  0
 50 51  1  0
 50 49  1  0
 52 55  1  1
 52 53  1  0
 54 52  1  0
 57 58  2  0
 58 56  1  0
 59 57  1  0
 60 65  1  0
 61 62  1  0
 61 60  1  0
 63 62  1  0
 63 70  1  0
 63 64  1  0
 65 59  1  0
 65 64  1  0
 66 59  2  0
 67 68  2  0
 68 87  1  0
 69 68  1  0
 69 72  1  0
 70 71  1  0
 70 67  1  0
 71 69  2  0
 72 73  1  0
 73 74  2  0
 75 78  1  0
 75 74  1  0
 76 75  2  0
 77 76  1  0
 77 72  2  0
 78 79  1  0
 79 84  2  0
 79 80  1  0
 80 81  2  0
 81 82  1  0
 82 86  1  0
 83 82  2  0
 84 83  1  0
 85 84  1  0
 87 88  1  0
 88 91  1  0
 88 90  1  0
 89 87  2  0
 92 67  1  0
 92 93  1  0
 94 92  1  0
 95 58  1  0
 96 95  1  0
M  ISO  4  14 101  15 101  57 100  59 100
M  END
>  <TORSDO>  (91) 
F 23

>  <SCORE>  (91) 
-11.037

>  <name>  (91) 
91

>  <ligand_id>  (91) 
91

>  <original_smiles>  (91) 
[H]OC(=C([H])C(=O)N1C([H])([H])C([H])([H])C([H])([H])C([H])(n2nc(-c3c([H])c([H])c(Oc4c([H])c([H])c(F)c([H])c4F)c([H])c3[H])c(C(=O)N([H])[H])c2N([H])[H])C1([H])[H])C([H])([H])c1c([H])c([H])c(C([H])(C([H])([H])[H])[N+]([H])([H])C([H])([H])C([H])([H])Oc2c([H])c([H])c3c(c2[H])C([H])([H])N(C(=O)C([H])(N([H])C(=O)C([H])(N([H])C([H])([H])[H])C([H])([H])[H])C(C([H])([H])[H])(C([H])([H])[H])C([H])([H])[H])C([H])(C(=O)N([H])C2([H])c4c([H])c([H])c([H])c([H])c4C([H])([H])C([H])([H])C2([H])[H])C3([H])[H])c([H])c1C([H])([H])[H]

>  <smiles>  (91) 
[H]OC(=C([H])C(=O)N1C([H])([H])C([H])([H])C([H])([H])C([H])(n2nc(-c3c([H])c([H])c(Oc4c([H])c([H])c(F)c([H])c4F)c([H])c3[H])c(C(=O)N([H])[H])c2N([H])[H])C1([H])[H])C([H])([H])c1c([H])c([H])c(C([H])(C([H])([H])[H])[N+]([H])([H])C([H])([H])C([H])([H])Oc2c([H])c([H])c3c(c2[H])C([H])([H])N(C(=O)C([H])(N([H])C(=O)C([H])(N([H])C([H])([H])[H])C([H])([H])[H])C(C([H])([H])[H])(C([H])([H])[H])C([H])([H])[H])C([H])(C(=O)N([H])C2([H])c4c([H])c([H])c([H])c([H])c4C([H])([H])C([H])([H])C2([H])[H])C3([H])[H])c([H])c1C([H])([H])[H]

$$$$
92:0:0
     RDKit          3D

 92100  0  0  1  0  0  0  0  0999 V2000
  -30.8720  -22.4750   20.4520 C   0  0  0  0  0  3  0  0  0  0  0  0
  -29.0110  -22.5640   18.8920 C   0  0  0  0  0  3  0  0  0  0  0  0
  -31.0480  -21.1050   20.1700 C   0  0  0  0  0  3  0  0  0  0  0  0
  -29.1760  -21.1900   18.6240 C   0  0  0  0  0  3  0  0  0  0  0  0
  -29.8560  -23.2220   19.8170 C   0  0  0  0  0  0  0  0  0  0  0  0
  -30.1970  -20.4450   19.2560 C   0  0  0  0  0  0  0  0  0  0  0  0
  -31.7030  -18.7650   18.1030 C   0  0  0  0  0  1  0  0  0  0  0  0
  -30.4010  -18.9690   18.9020 C   0  0  0  0  0  3  0  0  0  0  0  0
  -30.3450  -18.0890   20.0970 N   0  0  0  0  0  4  0  0  0  0  0  0
  -31.2840  -17.9680   20.4400 H   0  0  0  0  0  0  0  0  0  0  0  0
  -29.8160  -18.5770   20.8030 H   0  0  0  0  0  0  0  0  0  0  0  0
  -29.7130  -16.7630   19.8590 C   0  0  0  0  0  2  0  0  0  0  0  0
  -29.9210  -15.7240   21.0020 C   0  0  0  0  0  2  0  0  0  0  0  0
  -30.6610  -14.4600   20.5050 C   0  0  0  0  0  0  0  0  0  0  0  0
  -30.3870  -12.3020   19.3560 C   0  0  0  0  0  2  0  0  0  0  0  0
  -29.4580  -12.5420   18.1450 C   0  0  0  0  0  2  0  0  0  0  0  0
  -27.9730  -12.4260   18.5530 C   0  0  0  0  0  2  0  0  0  0  0  0
  -27.6370  -13.2400   19.8330 C   0  0  0  0  0  3  0  0  0  0  0  0
  -28.6790  -12.9630   20.9390 C   0  0  0  0  0  2  0  0  0  0  0  0
  -30.0090  -13.2710   20.3960 N   0  0  0  0  0  0  0  0  0  0  0  0
  -31.8010  -14.6280   20.0620 O   0  0  0  0  0  0  0  0  0  0  0  0
  -25.2290  -13.8720   20.5000 C   0  0  0  0  0  0  0  0  0  0  0  0
  -24.1520  -13.1090   20.8660 C   0  0  0  0  0  0  0  0  0  0  0  0
  -24.6050  -11.7550   20.8520 C   0  0  0  0  0  0  0  0  0  0  0  0
  -26.2730  -12.9820   20.2930 N   0  0  0  0  0  0  0  0  0  0  0  0
  -25.8980  -11.7040   20.5570 N   0  0  0  0  0  0  0  0  0  0  0  0
  -23.8700  -10.4990   21.0470 C   0  0  0  0  0  0  0  0  0  0  0  0
  -24.3030   -9.5280   21.9770 C   0  0  0  0  0  3  0  0  0  0  0  0
  -23.5710   -8.3340   22.1590 C   0  0  0  0  0  3  0  0  0  0  0  0
  -22.3920   -8.1050   21.4120 C   0  0  0  0  0  0  0  0  0  0  0  0
  -21.9770   -9.0650   20.4720 C   0  0  0  0  0  3  0  0  0  0  0  0
  -22.7100  -10.2490   20.2870 C   0  0  0  0  0  3  0  0  0  0  0  0
  -21.6290   -6.9640   21.5060 O   0  0  0  0  0  0  0  0  0  0  0  0
  -21.5990   -6.2100   22.6510 C   0  0  0  0  0  0  0  0  0  0  0  0
  -21.2210   -6.7600   23.8950 C   0  0  0  0  0  3  0  0  0  0  0  0
  -21.1320   -5.9330   25.0320 C   0  0  0  0  0  3  0  0  0  0  0  0
  -21.4160   -4.5580   24.9270 C   0  0  0  0  0  0  0  0  0  0  0  0
  -21.7880   -4.0070   23.6880 C   0  0  0  0  0  3  0  0  0  0  0  0
  -21.8760   -4.8310   22.5520 C   0  0  0  0  0  0  0  0  0  0  0  0
  -22.2140   -4.2910   21.3560 F   0  0  0  0  0  0  0  0  0  0  0  0
  -21.3260   -3.7630   26.0180 F   0  0  0  0  0  0  0  0  0  0  0  0
  -22.7540  -13.5960   21.1210 C   0  0  0  0  0  0  0  0  0  0  0  0
  -22.0150  -12.9120   21.9890 N   0  0  0  0  0  0  0  0  0  0  0  0
  -22.3250  -14.6180   20.5860 O   0  0  0  0  0  0  0  0  0  0  0  0
  -22.3760  -12.0890   22.4470 H   0  0  0  0  0  0  0  0  0  0  0  0
  -21.0750  -13.2170   22.1980 H   0  0  0  0  0  0  0  0  0  0  0  0
  -25.4020  -15.2390   20.3090 N   0  0  0  0  0  0  0  0  0  0  0  0
  -24.6390  -15.9010   20.4100 H   0  0  0  0  0  0  0  0  0  0  0  0
  -26.2600  -15.6690   19.9870 H   0  0  0  0  0  0  0  0  0  0  0  0
  -29.7210  -24.7130   20.1410 C   0  0  0  0  0  2  0  0  0  0  0  0
  -28.4090  -25.3910   19.7000 C   0  0  0  0  0  2  0  0  0  0  0  0
  -28.4030  -26.7570   20.1230 O   0  0  0  0  0  0  0  0  0  0  0  0
  -24.5690  -31.8720   23.2250 C   0  0  0  0  0  0  0  0  0  0  0  0
  -27.2060  -27.4450   20.1160 C   0  0  0  0  0  0  0  0  0  0  0  0
  -23.3540  -30.4710   21.5850 C   0  0  0  0  0  3  0  0  0  0  0  0
  -24.8010  -28.9370   20.1530 C   0  0  0  0  0  0  0  0  0  0  0  0
  -25.8760  -30.8320   21.3760 C   0  0  0  0  0  2  0  0  0  0  0  0
  -25.9590  -29.4620   20.7370 C   0  0  0  0  0  0  0  0  0  0  0  0
  -27.1600  -28.7210   20.7230 C   0  0  0  0  0  3  0  0  0  0  0  0
  -26.0250  -26.9320   19.5260 C   0  0  0  0  0  3  0  0  0  0  0  0
  -24.8270  -27.6690   19.5510 C   0  0  0  0  0  3  0  0  0  0  0  0
  -23.5570  -29.7920   20.2050 C   0  0  0  0  0  2  0  0  0  0  0  0
  -24.6180  -31.0740   22.1210 N   0  0  0  0  0  0  0  0  0  0  0  0
  -23.4910  -32.1440   23.7700 O   0  0  0  0  0  0  0  0  0  0  0  0
  -22.7070  -29.4500   22.5450 C   0  0  0  0  0  0  0  0  0  0  0  0
  -21.3820  -29.2680   22.4230 N   0  0  0  0  0  0  0  0  0  0  0  0
  -23.3940  -28.8200   23.3550 O   0  0  0  0  0  0  0  0  0  0  0  0
  -20.8880  -29.8330   21.7450 H   0  0  0  0  0  0  0  0  0  0  0  0
  -18.0090  -28.0780   22.9210 C   0  0  0  0  0  0  0  0  0  0  0  0
  -20.5660  -28.3310   23.1930 C   0  0  0  0  0  3  0  0  0  0  0  0
  -20.6660  -26.9010   22.6160 C   0  0  0  0  0  2  0  0  0  0  0  0
  -19.5630  -26.5820   21.6000 C   0  0  0  0  0  2  0  0  0  0  0  0
  -18.1820  -26.7290   22.2450 C   0  0  0  0  0  2  0  0  0  0  0  0
  -19.1290  -28.8380   23.3520 C   0  0  0  0  0  0  0  0  0  0  0  0
  -18.9130  -30.1030   23.9410 C   0  0  0  0  0  3  0  0  0  0  0  0
  -17.6100  -30.6100   24.1050 C   0  0  0  0  0  3  0  0  0  0  0  0
  -16.5040  -29.8450   23.6930 C   0  0  0  0  0  3  0  0  0  0  0  0
  -16.7040  -28.5830   23.1070 C   0  0  0  0  0  3  0  0  0  0  0  0
  -25.8580  -32.4990   23.8400 C   0  0  0  0  0  3  0  0  0  0  0  0
  -25.5550  -33.8940   24.1840 N   0  0  0  0  0  0  0  0  0  0  0  0
  -25.8820  -34.9510   23.4250 C   0  0  0  0  0  0  0  0  0  0  0  0
  -26.5420  -34.8530   22.3870 O   0  0  0  0  0  0  0  0  0  0  0  0
  -24.9690  -34.0450   24.9910 H   0  0  0  0  0  0  0  0  0  0  0  0
  -24.1460  -36.7370   23.0970 C   0  0  0  0  0  1  0  0  0  0  0  0
  -25.3970  -36.3350   23.8950 C   0  0  0  0  0  3  0  0  0  0  0  0
  -27.5400  -37.2160   24.7030 C   0  0  0  0  0  1  0  0  0  0  0  0
  -26.4250  -37.3900   23.7750 N   0  0  0  0  0  0  0  0  0  0  0  0
  -26.0200  -38.3090   23.9330 H   0  0  0  0  0  0  0  0  0  0  0  0
  -26.3920  -31.7140   25.1000 C   0  0  1  0  0  0  0  0  0  0  0  0
  -25.3120  -31.4630   26.1790 C   0  0  0  0  0  1  0  0  0  0  0  0
  -26.9700  -30.3430   24.6830 C   0  0  0  0  0  1  0  0  0  0  0  0
  -27.5520  -32.5010   25.7560 C   0  0  0  0  0  1  0  0  0  0  0  0
  2  5  1  0
  3  1  1  0
  4  2  2  0
  4  6  1  0
  5 50  1  0
  5  1  2  0
  6  3  2  0
  8  7  1  0
  8  6  1  0
  8  9  1  0
  9 10  1  0
  9 11  1  0
 12  9  1  0
 12 13  1  0
 14 13  1  0
 15 20  1  0
 16 17  1  0
 16 15  1  0
 18 17  1  0
 18 25  1  0
 18 19  1  0
 20 14  1  0
 20 19  1  0
 21 14  2  0
 22 23  2  0
 23 42  1  0
 24 23  1  0
 24 27  1  0
 25 22  1  0
 25 26  1  0
 26 24  2  0
 27 28  1  0
 28 29  2  0
 30 33  1  0
 30 29  1  0
 31 30  2  0
 32 31  1  0
 32 27  2  0
 33 34  1  0
 34 35  1  0
 35 36  2  0
 37 36  1  0
 37 41  1  0
 38 37  2  0
 39 34  2  0
 39 38  1  0
 40 39  1  0
 42 43  1  0
 43 46  1  0
 43 45  1  0
 44 42  2  0
 47 48  1  0
 47 22  1  0
 49 47  1  0
 51 52  1  0
 51 50  1  0
 53 64  2  0
 54 52  1  0
 54 59  1  0
 55 63  1  0
 55 65  1  0
 56 62  1  0
 56 58  1  0
 57 63  1  0
 58 57  1  0
 59 58  2  0
 60 61  1  0
 60 54  2  0
 61 56  2  0
 62 55  1  0
 63 53  1  0
 65 67  2  0
 66 65  1  0
 68 66  1  0
 69 78  2  0
 69 74  1  0
 70 66  1  0
 70 74  1  0
 71 70  1  0
 72 73  1  0
 72 71  1  0
 73 69  1  0
 74 75  2  0
 75 76  1  0
 77 76  2  0
 78 77  1  0
 79 53  1  0
 79 80  1  0
 79 89  1  0
 80 83  1  0
 81 85  1  0
 81 80  1  0
 82 81  2  0
 85 84  1  0
 87 85  1  0
 87 88  1  0
 87 86  1  0
 89 92  1  1
 89 90  1  0
 91 89  1  0
M  ISO  4  13 100  14 100  51 101  52 101
M  END
>  <TORSDO>  (92) 
F 22

>  <SCORE>  (92) 
-13.080

>  <name>  (92) 
92

>  <ligand_id>  (92) 
92

>  <original_smiles>  (92) 
[H]c1c([H])c([H])c2c(c1[H])C([H])([H])C([H])([H])C([H])([H])C2([H])N([H])C(=O)C1([H])N(C(=O)C([H])(N([H])C(=O)C([H])(N([H])C([H])([H])[H])C([H])([H])[H])C(C([H])([H])[H])(C([H])([H])[H])C([H])([H])[H])C([H])([H])c2c([H])c(OC([H])([H])C([H])([H])c3c([H])c([H])c(C([H])(C([H])([H])[H])[N+]([H])([H])C([H])([H])C([H])([H])C(=O)N4C([H])([H])C([H])([H])C([H])([H])C([H])(n5nc(-c6c([H])c([H])c(Oc7c([H])c([H])c(F)c([H])c7F)c([H])c6[H])c(C(=O)N([H])[H])c5N([H])[H])C4([H])[H])c([H])c3[H])c([H])c([H])c2C1([H])[H]

>  <smiles>  (92) 
[H]c1c([H])c([H])c2c(c1[H])C([H])([H])C([H])([H])C([H])([H])C2([H])N([H])C(=O)C1([H])N(C(=O)C([H])(N([H])C(=O)C([H])(N([H])C([H])([H])[H])C([H])([H])[H])C(C([H])([H])[H])(C([H])([H])[H])C([H])([H])[H])C([H])([H])c2c([H])c(OC([H])([H])C([H])([H])c3c([H])c([H])c(C([H])(C([H])([H])[H])[N+]([H])([H])C([H])([H])C([H])([H])C(=O)N4C([H])([H])C([H])([H])C([H])([H])C([H])(n5nc(-c6c([H])c([H])c(Oc7c([H])c([H])c(F)c([H])c7F)c([H])c6[H])c(C(=O)N([H])[H])c5N([H])[H])C4([H])[H])c([H])c3[H])c([H])c([H])c2C1([H])[H]

$$$$
93:0:0
     RDKit          3D

 90 97  0  0  1  0  0  0  0  0999 V2000
  -29.0920  -21.8940   20.0700 C   0  0  0  0  0  0  0  0  0  0  0  0
  -28.9090  -23.0760   20.6740 N   0  0  0  0  0  0  0  0  0  0  0  0
  -29.2620  -21.8060   18.8520 O   0  0  0  0  0  0  0  0  0  0  0  0
  -28.7840  -23.0820   21.6790 H   0  0  0  0  0  0  0  0  0  0  0  0
  -29.0740  -20.6330   20.9510 C   0  0  0  0  0  2  0  0  0  0  0  0
  -29.7290  -19.3980   20.2800 C   0  0  0  0  0  2  0  0  0  0  0  0
  -29.6240  -18.1530   21.0890 N   0  0  0  0  0  4  0  0  0  0  0  0
  -30.0200  -18.3190   22.0010 H   0  0  0  0  0  0  0  0  0  0  0  0
  -28.6480  -17.9370   21.2110 H   0  0  0  0  0  0  0  0  0  0  0  0
  -30.3100  -16.9840   20.4790 C   0  0  0  0  0  2  0  0  0  0  0  0
  -30.0030  -15.6300   21.1740 C   0  0  0  0  0  2  0  0  0  0  0  0
  -30.6510  -14.4400   20.4240 C   0  0  0  0  0  0  0  0  0  0  0  0
  -30.3310  -12.3180   19.2030 C   0  0  0  0  0  2  0  0  0  0  0  0
  -29.3770  -12.5690   18.0170 C   0  0  0  0  0  2  0  0  0  0  0  0
  -27.9040  -12.4380   18.4580 C   0  0  0  0  0  2  0  0  0  0  0  0
  -27.5930  -13.2400   19.7530 C   0  0  0  0  0  3  0  0  0  0  0  0
  -28.6580  -12.9550   20.8370 C   0  0  0  0  0  2  0  0  0  0  0  0
  -29.9760  -13.2690   20.2670 N   0  0  0  0  0  0  0  0  0  0  0  0
  -31.7510  -14.6310   19.8980 O   0  0  0  0  0  0  0  0  0  0  0  0
  -25.1990  -13.8600   20.4710 C   0  0  0  0  0  0  0  0  0  0  0  0
  -24.1320  -13.0920   20.8530 C   0  0  0  0  0  0  0  0  0  0  0  0
  -24.5890  -11.7390   20.8230 C   0  0  0  0  0  0  0  0  0  0  0  0
  -26.2410  -12.9740   20.2380 N   0  0  0  0  0  0  0  0  0  0  0  0
  -25.8760  -11.6940   20.5040 N   0  0  0  0  0  0  0  0  0  0  0  0
  -23.8620  -10.4790   21.0260 C   0  0  0  0  0  0  0  0  0  0  0  0
  -24.3100   -9.5080   21.9480 C   0  0  0  0  0  3  0  0  0  0  0  0
  -23.5850   -8.3120   22.1370 C   0  0  0  0  0  3  0  0  0  0  0  0
  -22.3980   -8.0800   21.4050 C   0  0  0  0  0  0  0  0  0  0  0  0
  -21.9680   -9.0390   20.4710 C   0  0  0  0  0  3  0  0  0  0  0  0
  -22.6940  -10.2270   20.2800 C   0  0  0  0  0  3  0  0  0  0  0  0
  -21.6420   -6.9360   21.5030 O   0  0  0  0  0  0  0  0  0  0  0  0
  -21.6250   -6.1830   22.6490 C   0  0  0  0  0  0  0  0  0  0  0  0
  -21.2450   -6.7290   23.8950 C   0  0  0  0  0  3  0  0  0  0  0  0
  -21.1740   -5.9030   25.0340 C   0  0  0  0  0  3  0  0  0  0  0  0
  -21.4720   -4.5300   24.9280 C   0  0  0  0  0  0  0  0  0  0  0  0
  -21.8450   -3.9840   23.6880 C   0  0  0  0  0  3  0  0  0  0  0  0
  -21.9180   -4.8080   22.5510 C   0  0  0  0  0  0  0  0  0  0  0  0
  -22.2570   -4.2720   21.3540 F   0  0  0  0  0  0  0  0  0  0  0  0
  -21.3960   -3.7340   26.0200 F   0  0  0  0  0  0  0  0  0  0  0  0
  -22.7380  -13.5740   21.1340 C   0  0  0  0  0  0  0  0  0  0  0  0
  -22.0150  -12.8840   22.0080 N   0  0  0  0  0  0  0  0  0  0  0  0
  -22.2980  -14.5980   20.6140 O   0  0  0  0  0  0  0  0  0  0  0  0
  -22.3830  -12.0550   22.4520 H   0  0  0  0  0  0  0  0  0  0  0  0
  -21.0800  -13.1900   22.2370 H   0  0  0  0  0  0  0  0  0  0  0  0
  -25.3660  -15.2290   20.2830 N   0  0  0  0  0  0  0  0  0  0  0  0
  -24.5920  -15.8790   20.3760 H   0  0  0  0  0  0  0  0  0  0  0  0
  -26.1980  -15.6530   19.8950 H   0  0  0  0  0  0  0  0  0  0  0  0
  -28.9110  -24.3690   19.9860 C   0  0  0  0  0  2  0  0  0  0  0  0
  -28.3410  -25.4920   20.8680 C   0  0  0  0  0  2  0  0  0  0  0  0
  -28.4100  -26.7490   20.1900 O   0  0  0  0  0  0  0  0  0  0  0  0
  -24.5830  -31.8920   23.2370 C   0  0  0  0  0  0  0  0  0  0  0  0
  -27.2380  -27.4660   20.1820 C   0  0  0  0  0  0  0  0  0  0  0  0
  -23.3770  -30.4800   21.6000 C   0  0  0  0  0  3  0  0  0  0  0  0
  -24.8330  -28.9410   20.1790 C   0  0  0  0  0  0  0  0  0  0  0  0
  -25.8960  -30.8550   21.3910 C   0  0  0  0  0  2  0  0  0  0  0  0
  -25.9870  -29.4810   20.7630 C   0  0  0  0  0  0  0  0  0  0  0  0
  -27.1940  -28.7510   20.7610 C   0  0  0  0  0  3  0  0  0  0  0  0
  -26.0740  -26.9320   19.5930 C   0  0  0  0  0  3  0  0  0  0  0  0
  -24.8700  -27.6630   19.5900 C   0  0  0  0  0  3  0  0  0  0  0  0
  -23.5860  -29.7950   20.2220 C   0  0  0  0  0  2  0  0  0  0  0  0
  -24.6370  -31.0900   22.1350 N   0  0  0  0  0  0  0  0  0  0  0  0
  -23.5030  -32.1600   23.7800 O   0  0  0  0  0  0  0  0  0  0  0  0
  -22.7320  -29.4590   22.5660 C   0  0  0  0  0  0  0  0  0  0  0  0
  -21.4090  -29.2710   22.4400 N   0  0  0  0  0  0  0  0  0  0  0  0
  -23.4200  -28.8400   23.3820 O   0  0  0  0  0  0  0  0  0  0  0  0
  -20.9150  -29.8240   21.7530 H   0  0  0  0  0  0  0  0  0  0  0  0
  -18.0410  -28.0660   22.9390 C   0  0  0  0  0  0  0  0  0  0  0  0
  -20.5970  -28.3330   23.2140 C   0  0  0  0  0  3  0  0  0  0  0  0
  -20.7060  -26.9000   22.6440 C   0  0  0  0  0  2  0  0  0  0  0  0
  -19.6070  -26.5690   21.6300 C   0  0  0  0  0  2  0  0  0  0  0  0
  -18.2240  -26.7130   22.2710 C   0  0  0  0  0  2  0  0  0  0  0  0
  -19.1560  -28.8330   23.3680 C   0  0  0  0  0  0  0  0  0  0  0  0
  -18.9340  -30.0990   23.9500 C   0  0  0  0  0  3  0  0  0  0  0  0
  -17.6270  -30.5990   24.1100 C   0  0  0  0  0  3  0  0  0  0  0  0
  -16.5260  -29.8280   23.6990 C   0  0  0  0  0  3  0  0  0  0  0  0
  -16.7330  -28.5630   23.1180 C   0  0  0  0  0  3  0  0  0  0  0  0
  -25.8700  -32.5260   23.8510 C   0  0  0  0  0  3  0  0  0  0  0  0
  -25.5640  -33.9260   24.1720 N   0  0  0  0  0  0  0  0  0  0  0  0
  -25.9000  -34.9730   23.4040 C   0  0  0  0  0  0  0  0  0  0  0  0
  -26.5720  -34.8600   22.3760 O   0  0  0  0  0  0  0  0  0  0  0  0
  -24.9730  -34.0870   24.9750 H   0  0  0  0  0  0  0  0  0  0  0  0
  -24.1730  -36.7590   23.0240 C   0  0  0  0  0  1  0  0  0  0  0  0
  -25.4090  -36.3640   23.8490 C   0  0  0  0  0  3  0  0  0  0  0  0
  -27.5410  -37.2500   24.6840 C   0  0  0  0  0  1  0  0  0  0  0  0
  -26.4430  -37.4150   23.7340 N   0  0  0  0  0  0  0  0  0  0  0  0
  -26.0370  -38.3370   23.8740 H   0  0  0  0  0  0  0  0  0  0  0  0
  -26.3920  -31.7610   25.1280 C   0  0  1  0  0  0  0  0  0  0  0  0
  -25.3040  -31.5280   26.2020 C   0  0  0  0  0  1  0  0  0  0  0  0
  -26.9740  -30.3830   24.7360 C   0  0  0  0  0  1  0  0  0  0  0  0
  -27.5450  -32.5580   25.7840 C   0  0  0  0  0  1  0  0  0  0  0  0
  1  2  1  0
  1  5  1  0
  2  4  1  0
  3  1  2  0
  6  5  1  0
  6  7  1  0
  7  9  1  0
  7  8  1  0
 10  7  1  0
 10 11  1  0
 12 11  1  0
 13 18  1  0
 14 15  1  0
 14 13  1  0
 16 15  1  0
 16 23  1  0
 16 17  1  0
 18 12  1  0
 18 17  1  0
 19 12  2  0
 20 21  2  0
 21 40  1  0
 22 21  1  0
 22 25  1  0
 23 20  1  0
 23 24  1  0
 24 22  2  0
 25 26  1  0
 26 27  2  0
 28 31  1  0
 28 27  1  0
 29 28  2  0
 30 29  1  0
 30 25  2  0
 31 32  1  0
 32 33  1  0
 33 34  2  0
 35 34  1  0
 35 39  1  0
 36 35  2  0
 37 32  2  0
 37 36  1  0
 38 37  1  0
 40 41  1  0
 41 44  1  0
 41 43  1  0
 42 40  2  0
 45 46  1  0
 45 20  1  0
 47 45  1  0
 48  2  1  0
 48 49  1  0
 50 49  1  0
 51 62  2  0
 52 50  1  0
 52 57  1  0
 53 61  1  0
 53 63  1  0
 54 60  1  0
 54 56  1  0
 55 61  1  0
 56 55  1  0
 57 56  2  0
 58 52  2  0
 59 58  1  0
 59 54  2  0
 60 53  1  0
 61 51  1  0
 63 65  2  0
 64 63  1  0
 66 64  1  0
 67 76  2  0
 67 72  1  0
 68 64  1  0
 68 72  1  0
 69 68  1  0
 70 71  1  0
 70 69  1  0
 71 67  1  0
 72 73  2  0
 73 74  1  0
 75 74  2  0
 76 75  1  0
 77 51  1  0
 77 78  1  0
 77 87  1  0
 78 81  1  0
 79 83  1  0
 79 78  1  0
 80 79  2  0
 83 82  1  0
 85 83  1  0
 85 86  1  0
 85 84  1  0
 87 90  1  1
 87 88  1  0
 89 87  1  0
M  ISO  4  11 100  12 100  49 101  50 101
M  END
>  <TORSDO>  (93) 
F 23

>  <SCORE>  (93) 
-12.801

>  <name>  (93) 
93

>  <ligand_id>  (93) 
93

>  <original_smiles>  (93) 
[H]c1c([H])c([H])c2c(c1[H])C([H])([H])C([H])([H])C([H])([H])C2([H])N([H])C(=O)C1([H])N(C(=O)C([H])(N([H])C(=O)C([H])(N([H])C([H])([H])[H])C([H])([H])[H])C(C([H])([H])[H])(C([H])([H])[H])C([H])([H])[H])C([H])([H])c2c([H])c(OC([H])([H])C([H])([H])N([H])C(=O)C([H])([H])C([H])([H])[N+]([H])([H])C([H])([H])C([H])([H])C(=O)N3C([H])([H])C([H])([H])C([H])([H])C([H])(n4nc(-c5c([H])c([H])c(Oc6c([H])c([H])c(F)c([H])c6F)c([H])c5[H])c(C(=O)N([H])[H])c4N([H])[H])C3([H])[H])c([H])c([H])c2C1([H])[H]

>  <smiles>  (93) 
[H]c1c([H])c([H])c2c(c1[H])C([H])([H])C([H])([H])C([H])([H])C2([H])N([H])C(=O)C1([H])N(C(=O)C([H])(N([H])C(=O)C([H])(N([H])C([H])([H])[H])C([H])([H])[H])C(C([H])([H])[H])(C([H])([H])[H])C([H])([H])[H])C([H])([H])c2c([H])c(OC([H])([H])C([H])([H])N([H])C(=O)C([H])([H])C([H])([H])[N+]([H])([H])C([H])([H])C([H])([H])C(=O)N3C([H])([H])C([H])([H])C([H])([H])C([H])(n4nc(-c5c([H])c([H])c(Oc6c([H])c([H])c(F)c([H])c6F)c([H])c5[H])c(C(=O)N([H])[H])c4N([H])[H])C3([H])[H])c([H])c([H])c2C1([H])[H]

$$$$
94:0:0
     RDKit          3D

 91 99  0  0  1  0  0  0  0  0999 V2000
  -29.1880  -20.9530   18.0410 C   0  0  0  0  0  3  0  0  0  0  0  0
  -29.1210  -19.6580   18.6000 C   0  0  0  0  0  3  0  0  0  0  0  0
  -29.1650  -22.0940   18.8660 C   0  0  0  0  0  3  0  0  0  0  0  0
  -29.1210  -20.6290   20.8140 C   0  0  0  0  0  3  0  0  0  0  0  0
  -29.1400  -19.4620   20.0020 C   0  0  0  0  0  0  0  0  0  0  0  0
  -29.0700  -21.9400   20.2600 C   0  0  0  0  0  0  0  0  0  0  0  0
  -28.9940  -18.0500   20.6520 C   0  0  0  0  0  2  0  0  0  0  0  0
  -29.9330  -15.6620   20.8990 C   0  0  0  0  0  3  0  0  0  0  0  0
  -29.8070  -16.8170   20.1830 C   0  0  0  0  0  0  0  0  0  0  0  0
  -30.7090  -14.4970   20.4430 C   0  0  0  0  0  0  0  0  0  0  0  0
  -30.3830  -12.2950   19.3540 C   0  0  0  0  0  2  0  0  0  0  0  0
  -29.4780  -12.5600   18.1270 C   0  0  0  0  0  2  0  0  0  0  0  0
  -27.9880  -12.4640   18.5210 C   0  0  0  0  0  2  0  0  0  0  0  0
  -27.6540  -13.2580   19.8170 C   0  0  0  0  0  3  0  0  0  0  0  0
  -28.7070  -13.0150   20.9220 C   0  0  0  0  0  2  0  0  0  0  0  0
  -30.0360  -13.3090   20.3680 N   0  0  0  0  0  0  0  0  0  0  0  0
  -31.8680  -14.6130   20.0340 O   0  0  0  0  0  0  0  0  0  0  0  0
  -25.2490  -13.8740   20.5050 C   0  0  0  0  0  0  0  0  0  0  0  0
  -24.1720  -13.1100   20.8550 C   0  0  0  0  0  0  0  0  0  0  0  0
  -24.6250  -11.7550   20.8360 C   0  0  0  0  0  0  0  0  0  0  0  0
  -26.2970  -12.9890   20.2870 N   0  0  0  0  0  0  0  0  0  0  0  0
  -25.9210  -11.7060   20.5460 N   0  0  0  0  0  0  0  0  0  0  0  0
  -23.8890  -10.4990   21.0220 C   0  0  0  0  0  0  0  0  0  0  0  0
  -24.3000   -9.5370   21.9710 C   0  0  0  0  0  3  0  0  0  0  0  0
  -23.5670   -8.3470   22.1520 C   0  0  0  0  0  3  0  0  0  0  0  0
  -22.4040   -8.1070   21.3830 C   0  0  0  0  0  0  0  0  0  0  0  0
  -22.0110   -9.0550   20.4230 C   0  0  0  0  0  3  0  0  0  0  0  0
  -22.7440  -10.2390   20.2390 C   0  0  0  0  0  3  0  0  0  0  0  0
  -21.6420   -6.9670   21.4630 O   0  0  0  0  0  0  0  0  0  0  0  0
  -21.5680   -6.2360   22.6200 C   0  0  0  0  0  0  0  0  0  0  0  0
  -21.1170   -6.7990   23.8350 C   0  0  0  0  0  3  0  0  0  0  0  0
  -20.9970   -5.9920   24.9830 C   0  0  0  0  0  3  0  0  0  0  0  0
  -21.3090   -4.6230   24.9190 C   0  0  0  0  0  0  0  0  0  0  0  0
  -21.7510   -4.0570   23.7090 C   0  0  0  0  0  3  0  0  0  0  0  0
  -21.8800   -4.8610   22.5630 C   0  0  0  0  0  0  0  0  0  0  0  0
  -22.2860   -4.3060   21.3970 F   0  0  0  0  0  0  0  0  0  0  0  0
  -21.1850   -3.8460   26.0200 F   0  0  0  0  0  0  0  0  0  0  0  0
  -22.7730  -13.5930   21.1080 C   0  0  0  0  0  0  0  0  0  0  0  0
  -22.0350  -12.9070   21.9660 N   0  0  0  0  0  0  0  0  0  0  0  0
  -22.3490  -14.6210   20.5770 O   0  0  0  0  0  0  0  0  0  0  0  0
  -22.3890  -12.0710   22.4090 H   0  0  0  0  0  0  0  0  0  0  0  0
  -21.1000  -13.2200   22.1840 H   0  0  0  0  0  0  0  0  0  0  0  0
  -25.4060  -15.2470   20.3200 N   0  0  0  0  0  0  0  0  0  0  0  0
  -24.6180  -15.8820   20.4060 H   0  0  0  0  0  0  0  0  0  0  0  0
  -26.2540  -15.7100   20.0290 H   0  0  0  0  0  0  0  0  0  0  0  0
  -30.3270  -16.9820   18.9520 O   0  0  0  0  0  0  0  0  0  0  0  0
  -29.8080  -17.6450   18.5100 H   0  0  0  0  0  0  0  0  0  0  0  0
  -28.8310  -23.1620   21.1640 C   0  0  0  0  0  2  0  0  0  0  0  0
  -27.8990  -24.2730   20.5750 C   0  0  0  0  0  2  0  0  0  0  0  0
  -28.5860  -25.3970   19.7440 C   0  0  0  0  0  2  0  0  0  0  0  0
  -28.4700  -26.7330   20.2670 O   0  0  0  0  0  0  0  0  0  0  0  0
  -24.5890  -31.8750   23.2340 C   0  0  0  0  0  0  0  0  0  0  0  0
  -27.2780  -27.4310   20.1960 C   0  0  0  0  0  0  0  0  0  0  0  0
  -23.4010  -30.4760   21.5730 C   0  0  0  0  0  3  0  0  0  0  0  0
  -24.8780  -28.9400   20.1600 C   0  0  0  0  0  0  0  0  0  0  0  0
  -25.9270  -30.8350   21.4090 C   0  0  0  0  0  2  0  0  0  0  0  0
  -26.0210  -29.4620   20.7750 C   0  0  0  0  0  0  0  0  0  0  0  0
  -27.2160  -28.7080   20.8020 C   0  0  0  0  0  3  0  0  0  0  0  0
  -26.1150  -26.9280   19.5690 C   0  0  0  0  0  3  0  0  0  0  0  0
  -24.9190  -27.6730   19.5560 C   0  0  0  0  0  3  0  0  0  0  0  0
  -23.6290  -29.7940   20.1940 C   0  0  0  0  0  2  0  0  0  0  0  0
  -24.6560  -31.0780   22.1310 N   0  0  0  0  0  0  0  0  0  0  0  0
  -23.5020  -32.1440   23.7640 O   0  0  0  0  0  0  0  0  0  0  0  0
  -22.7450  -29.4510   22.5280 C   0  0  0  0  0  0  0  0  0  0  0  0
  -21.4200  -29.2740   22.3940 N   0  0  0  0  0  0  0  0  0  0  0  0
  -23.4250  -28.8160   23.3380 O   0  0  0  0  0  0  0  0  0  0  0  0
  -20.9310  -29.8330   21.7100 H   0  0  0  0  0  0  0  0  0  0  0  0
  -18.0390  -28.1150   22.9030 C   0  0  0  0  0  0  0  0  0  0  0  0
  -20.6000  -28.3350   23.1580 C   0  0  0  0  0  3  0  0  0  0  0  0
  -20.6810  -26.9150   22.5530 C   0  0  0  0  0  2  0  0  0  0  0  0
  -19.5670  -26.6250   21.5430 C   0  0  0  0  0  2  0  0  0  0  0  0
  -18.1920  -26.7750   22.2010 C   0  0  0  0  0  2  0  0  0  0  0  0
  -19.1690  -28.8550   23.3370 C   0  0  0  0  0  0  0  0  0  0  0  0
  -18.9740  -30.1120   23.9510 C   0  0  0  0  0  3  0  0  0  0  0  0
  -17.6780  -30.6280   24.1340 C   0  0  0  0  0  3  0  0  0  0  0  0
  -16.5600  -29.8860   23.7170 C   0  0  0  0  0  3  0  0  0  0  0  0
  -16.7400  -28.6310   23.1080 C   0  0  0  0  0  3  0  0  0  0  0  0
  -25.8680  -32.5070   23.8690 C   0  0  0  0  0  3  0  0  0  0  0  0
  -25.5570  -33.9050   24.1960 N   0  0  0  0  0  0  0  0  0  0  0  0
  -25.8990  -34.9570   23.4390 C   0  0  0  0  0  0  0  0  0  0  0  0
  -26.5780  -34.8540   22.4140 O   0  0  0  0  0  0  0  0  0  0  0  0
  -24.9630  -34.0640   24.9970 H   0  0  0  0  0  0  0  0  0  0  0  0
  -24.1770  -36.7470   23.0650 C   0  0  0  0  0  1  0  0  0  0  0  0
  -25.4070  -36.3460   23.8940 C   0  0  0  0  0  3  0  0  0  0  0  0
  -27.5310  -37.2260   24.7540 C   0  0  0  0  0  1  0  0  0  0  0  0
  -26.4410  -37.3990   23.7970 N   0  0  0  0  0  0  0  0  0  0  0  0
  -26.0330  -38.3190   23.9440 H   0  0  0  0  0  0  0  0  0  0  0  0
  -26.3790  -31.7330   25.1450 C   0  0  1  0  0  0  0  0  0  0  0  0
  -25.2800  -31.4900   26.2040 C   0  0  0  0  0  1  0  0  0  0  0  0
  -26.9660  -30.3570   24.7510 C   0  0  0  0  0  1  0  0  0  0  0  0
  -27.5240  -32.5290   25.8140 C   0  0  0  0  0  1  0  0  0  0  0  0
  1  2  2  0
  1  3  1  0
  2  5  1  0
  3  6  2  0
  5  7  1  0
  5  4  2  0
  6  4  1  0
  6 48  1  0
  9  7  1  0
  9  8  2  0
 10  8  1  0
 11 16  1  0
 12 13  1  0
 12 11  1  0
 14 13  1  0
 14 21  1  0
 14 15  1  0
 16 10  1  0
 16 15  1  0
 17 10  2  0
 18 19  2  0
 19 38  1  0
 20 19  1  0
 20 23  1  0
 21 18  1  0
 21 22  1  0
 22 20  2  0
 23 24  1  0
 24 25  2  0
 26 29  1  0
 26 25  1  0
 27 26  2  0
 28 27  1  0
 28 23  2  0
 29 30  1  0
 30 31  1  0
 31 32  2  0
 33 32  1  0
 33 37  1  0
 34 33  2  0
 35 30  2  0
 35 34  1  0
 36 35  1  0
 38 39  1  0
 39 42  1  0
 39 41  1  0
 40 38  2  0
 43 44  1  0
 43 18  1  0
 45 43  1  0
 46  9  1  0
 47 46  1  0
 49 48  1  0
 50 51  1  0
 50 49  1  0
 52 63  2  0
 53 51  1  0
 53 58  1  0
 54 62  1  0
 54 64  1  0
 55 61  1  0
 55 57  1  0
 56 62  1  0
 57 58  2  0
 57 56  1  0
 59 53  2  0
 60 59  1  0
 60 55  2  0
 61 54  1  0
 62 52  1  0
 64 66  2  0
 65 64  1  0
 67 65  1  0
 68 77  2  0
 68 73  1  0
 69 65  1  0
 69 73  1  0
 70 69  1  0
 71 72  1  0
 71 70  1  0
 72 68  1  0
 73 74  2  0
 74 75  1  0
 76 75  2  0
 77 76  1  0
 78 52  1  0
 78 79  1  0
 78 88  1  0
 79 82  1  0
 80 84  1  0
 80 79  1  0
 81 80  2  0
 84 83  1  0
 86 84  1  0
 86 87  1  0
 86 85  1  0
 88 91  1  1
 88 89  1  0
 90 88  1  0
M  ISO  4   8 100  10 100  50 101  51 101
M  END
>  <TORSDO>  (94) 
F 22

>  <SCORE>  (94) 
-13.455

>  <name>  (94) 
94

>  <ligand_id>  (94) 
94

>  <original_smiles>  (94) 
[H]OC(=C([H])C(=O)N1C([H])([H])C([H])([H])C([H])([H])C([H])(n2nc(-c3c([H])c([H])c(Oc4c([H])c([H])c(F)c([H])c4F)c([H])c3[H])c(C(=O)N([H])[H])c2N([H])[H])C1([H])[H])C([H])([H])c1c([H])c([H])c([H])c(C([H])([H])C([H])([H])C([H])([H])Oc2c([H])c([H])c3c(c2[H])C([H])([H])N(C(=O)C([H])(N([H])C(=O)C([H])(N([H])C([H])([H])[H])C([H])([H])[H])C(C([H])([H])[H])(C([H])([H])[H])C([H])([H])[H])C([H])(C(=O)N([H])C2([H])c4c([H])c([H])c([H])c([H])c4C([H])([H])C([H])([H])C2([H])[H])C3([H])[H])c1[H]

>  <smiles>  (94) 
[H]OC(=C([H])C(=O)N1C([H])([H])C([H])([H])C([H])([H])C([H])(n2nc(-c3c([H])c([H])c(Oc4c([H])c([H])c(F)c([H])c4F)c([H])c3[H])c(C(=O)N([H])[H])c2N([H])[H])C1([H])[H])C([H])([H])c1c([H])c([H])c([H])c(C([H])([H])C([H])([H])C([H])([H])Oc2c([H])c([H])c3c(c2[H])C([H])([H])N(C(=O)C([H])(N([H])C(=O)C([H])(N([H])C([H])([H])[H])C([H])([H])[H])C(C([H])([H])[H])(C([H])([H])[H])C([H])([H])[H])C([H])(C(=O)N([H])C2([H])c4c([H])c([H])c([H])c([H])c4C([H])([H])C([H])([H])C2([H])[H])C3([H])[H])c1[H]

$$$$
95:0:0
     RDKit          3D

 94103  0  0  1  0  0  0  0  0999 V2000
  -30.5040  -21.5600   22.5530 C   0  0  0  0  0  3  0  0  0  0  0  0
  -30.3620  -20.2680   22.0140 C   0  0  0  0  0  3  0  0  0  0  0  0
  -29.9980  -22.6970   21.8890 C   0  0  0  0  0  3  0  0  0  0  0  0
  -29.2180  -21.2490   20.1070 C   0  0  0  0  0  3  0  0  0  0  0  0
  -29.7220  -20.0640   20.7770 C   0  0  0  0  0  0  0  0  0  0  0  0
  -29.3300  -22.5970   20.6470 C   0  0  0  0  0  0  0  0  0  0  0  0
  -30.6930  -14.8800   20.0450 C   0  0  0  0  0  0  0  0  0  0  0  0
  -30.4170  -12.6480   18.9320 C   0  0  0  0  0  2  0  0  0  0  0  0
  -29.3940  -12.7260   17.7770 C   0  0  0  0  0  2  0  0  0  0  0  0
  -27.9620  -12.4940   18.3010 C   0  0  0  0  0  2  0  0  0  0  0  0
  -27.6590  -13.3400   19.5620 C   0  0  0  0  0  3  0  0  0  0  0  0
  -28.7990  -13.2120   20.6020 C   0  0  0  0  0  2  0  0  0  0  0  0
  -30.0290  -13.6670   19.9410 N   0  0  0  0  0  0  0  0  0  0  0  0
  -31.8610  -14.9370   19.6410 O   0  0  0  0  0  0  0  0  0  0  0  0
  -28.4830  -17.8300   21.1430 C   0  0  0  0  0  2  0  0  0  0  0  0
  -28.6550  -16.3410   20.7850 C   0  0  0  0  0  2  0  0  0  0  0  0
  -30.6440  -17.4720   20.2800 C   0  0  0  0  0  2  0  0  0  0  0  0
  -29.4940  -18.5750   20.2870 C   0  0  0  0  0  3  0  0  0  0  0  0
  -30.0420  -16.0840   20.3660 N   0  0  0  0  0  0  0  0  0  0  0  0
  -25.3200  -13.9240   20.4530 C   0  0  0  0  0  0  0  0  0  0  0  0
  -24.2830  -13.1370   20.8710 C   0  0  0  0  0  0  0  0  0  0  0  0
  -24.7460  -11.7910   20.7710 C   0  0  0  0  0  0  0  0  0  0  0  0
  -26.3500  -13.0520   20.1310 N   0  0  0  0  0  0  0  0  0  0  0  0
  -26.0150  -11.7640   20.3840 N   0  0  0  0  0  0  0  0  0  0  0  0
  -24.0390  -10.5210   20.9620 C   0  0  0  0  0  0  0  0  0  0  0  0
  -24.5010   -9.5530   21.8800 C   0  0  0  0  0  3  0  0  0  0  0  0
  -23.7920   -8.3450   22.0600 C   0  0  0  0  0  3  0  0  0  0  0  0
  -22.6080   -8.1010   21.3240 C   0  0  0  0  0  0  0  0  0  0  0  0
  -22.1670   -9.0600   20.3970 C   0  0  0  0  0  3  0  0  0  0  0  0
  -22.8760  -10.2580   20.2120 C   0  0  0  0  0  3  0  0  0  0  0  0
  -21.8700   -6.9470   21.4150 O   0  0  0  0  0  0  0  0  0  0  0  0
  -21.7950   -6.2330   22.5840 C   0  0  0  0  0  0  0  0  0  0  0  0
  -21.3010   -6.8060   23.7770 C   0  0  0  0  0  3  0  0  0  0  0  0
  -21.1780   -6.0170   24.9380 C   0  0  0  0  0  3  0  0  0  0  0  0
  -21.5350   -4.6540   24.9060 C   0  0  0  0  0  0  0  0  0  0  0  0
  -22.0210   -4.0820   23.7170 C   0  0  0  0  0  3  0  0  0  0  0  0
  -22.1470   -4.8690   22.5590 C   0  0  0  0  0  0  0  0  0  0  0  0
  -22.5960   -4.3080   21.4100 F   0  0  0  0  0  0  0  0  0  0  0  0
  -21.4090   -3.8930   26.0170 F   0  0  0  0  0  0  0  0  0  0  0  0
  -22.9040  -13.6020   21.2370 C   0  0  0  0  0  0  0  0  0  0  0  0
  -22.2330  -12.8870   22.1340 N   0  0  0  0  0  0  0  0  0  0  0  0
  -22.4310  -14.6340   20.7620 O   0  0  0  0  0  0  0  0  0  0  0  0
  -22.6250  -12.0510   22.5390 H   0  0  0  0  0  0  0  0  0  0  0  0
  -21.3120  -13.1860   22.4190 H   0  0  0  0  0  0  0  0  0  0  0  0
  -25.4530  -15.3000   20.2990 N   0  0  0  0  0  0  0  0  0  0  0  0
  -24.6750  -15.9260   20.4770 H   0  0  0  0  0  0  0  0  0  0  0  0
  -26.2570  -15.7650   19.9020 H   0  0  0  0  0  0  0  0  0  0  0  0
  -28.8210  -23.9260   19.9130 C   0  0  0  0  0  3  0  0  0  0  0  0
  -27.6150  -23.6070   19.1250 N   0  0  0  0  0  4  0  0  0  0  0  0
  -27.4220  -24.3440   18.4720 H   0  0  0  0  0  0  0  0  0  0  0  0
  -26.8180  -23.4770   19.7240 H   0  0  0  0  0  0  0  0  0  0  0  0
  -27.7570  -22.7650   18.5970 H   0  0  0  0  0  0  0  0  0  0  0  0
  -28.5410  -25.2860   20.7590 C   0  0  0  0  0  2  0  0  0  0  0  0
  -28.5270  -26.6290   20.1140 O   0  0  0  0  0  0  0  0  0  0  0  0
  -24.6650  -31.9150   23.2310 C   0  0  0  0  0  0  0  0  0  0  0  0
  -27.3740  -27.4280   20.1560 C   0  0  0  0  0  0  0  0  0  0  0  0
  -23.4890  -30.5130   21.5710 C   0  0  0  0  0  3  0  0  0  0  0  0
  -24.9730  -28.9920   20.1440 C   0  0  0  0  0  0  0  0  0  0  0  0
  -26.0240  -30.8770   21.3980 C   0  0  0  0  0  2  0  0  0  0  0  0
  -26.1300  -29.5010   20.7480 C   0  0  0  0  0  0  0  0  0  0  0  0
  -27.3330  -28.7340   20.7390 C   0  0  0  0  0  3  0  0  0  0  0  0
  -26.1920  -26.9640   19.5400 C   0  0  0  0  0  3  0  0  0  0  0  0
  -25.0070  -27.7280   19.5330 C   0  0  0  0  0  3  0  0  0  0  0  0
  -23.7200  -29.8450   20.1890 C   0  0  0  0  0  2  0  0  0  0  0  0
  -24.7440  -31.1200   22.1230 N   0  0  0  0  0  0  0  0  0  0  0  0
  -23.5750  -32.1650   23.7660 O   0  0  0  0  0  0  0  0  0  0  0  0
  -22.8430  -29.4770   22.5220 C   0  0  0  0  0  0  0  0  0  0  0  0
  -21.5180  -29.2880   22.3990 N   0  0  0  0  0  0  0  0  0  0  0  0
  -23.5320  -28.8460   23.3270 O   0  0  0  0  0  0  0  0  0  0  0  0
  -21.0200  -29.8550   21.7260 H   0  0  0  0  0  0  0  0  0  0  0  0
  -18.1510  -28.0610   22.9010 C   0  0  0  0  0  0  0  0  0  0  0  0
  -20.7110  -28.3310   23.1570 C   0  0  0  0  0  3  0  0  0  0  0  0
  -20.8170  -26.9120   22.5530 C   0  0  0  0  0  2  0  0  0  0  0  0
  -19.7100  -26.6000   21.5420 C   0  0  0  0  0  2  0  0  0  0  0  0
  -18.3320  -26.7250   22.1980 C   0  0  0  0  0  2  0  0  0  0  0  0
  -19.2690  -28.8220   23.3370 C   0  0  0  0  0  0  0  0  0  0  0  0
  -19.0480  -30.0730   23.9530 C   0  0  0  0  0  3  0  0  0  0  0  0
  -17.7420  -30.5630   24.1380 C   0  0  0  0  0  3  0  0  0  0  0  0
  -16.6380  -29.8000   23.7180 C   0  0  0  0  0  3  0  0  0  0  0  0
  -16.8450  -28.5510   23.1060 C   0  0  0  0  0  3  0  0  0  0  0  0
  -25.9340  -32.5630   23.8650 C   0  0  0  0  0  3  0  0  0  0  0  0
  -26.4390  -31.8050   25.1550 C   0  0  1  0  0  0  0  0  0  0  0  0
  -25.3350  -31.5610   26.2100 C   0  0  0  0  0  1  0  0  0  0  0  0
  -27.0400  -30.4300   24.7790 C   0  0  0  0  0  1  0  0  0  0  0  0
  -27.5680  -32.6190   25.8300 C   0  0  0  0  0  1  0  0  0  0  0  0
  -25.6100  -33.9610   24.1850 N   0  0  0  0  0  0  0  0  0  0  0  0
  -25.9510  -35.0120   23.4280 C   0  0  0  0  0  0  0  0  0  0  0  0
  -26.6400  -34.9070   22.4090 O   0  0  0  0  0  0  0  0  0  0  0  0
  -25.0000  -34.1170   24.9740 H   0  0  0  0  0  0  0  0  0  0  0  0
  -24.2250  -36.7980   23.0280 C   0  0  0  0  0  1  0  0  0  0  0  0
  -25.4460  -36.3990   23.8710 C   0  0  0  0  0  3  0  0  0  0  0  0
  -27.5540  -37.2950   24.7570 C   0  0  0  0  0  1  0  0  0  0  0  0
  -26.4780  -37.4570   23.7820 N   0  0  0  0  0  0  0  0  0  0  0  0
  -26.0650  -38.3760   23.9160 H   0  0  0  0  0  0  0  0  0  0  0  0
  2  1  1  0
  3  1  2  0
  4  6  2  0
  4  5  1  0
  5  2  2  0
  6  3  1  0
  7 19  1  0
  8 13  1  0
  9 10  1  0
  9  8  1  0
 11 10  1  0
 11 23  1  0
 11 12  1  0
 13  7  1  0
 13 12  1  0
 14  7  2  0
 16 15  1  0
 17 18  1  0
 17 19  1  0
 18  5  1  0
 18 15  1  0
 19 16  1  0
 20 21  2  0
 21 40  1  0
 22 21  1  0
 22 25  1  0
 23 24  1  0
 23 20  1  0
 24 22  2  0
 25 26  1  0
 26 27  2  0
 28 31  1  0
 28 27  1  0
 29 28  2  0
 30 29  1  0
 30 25  2  0
 31 32  1  0
 32 33  1  0
 33 34  2  0
 35 34  1  0
 35 39  1  0
 36 35  2  0
 37 32  2  0
 37 36  1  0
 38 37  1  0
 40 41  1  0
 41 44  1  0
 41 43  1  0
 42 40  2  0
 45 20  1  0
 45 46  1  0
 47 45  1  0
 48  6  1  0
 48 53  1  0
 49 51  1  0
 49 48  1  0
 50 49  1  0
 52 49  1  0
 54 56  1  0
 54 53  1  0
 55 66  2  0
 56 61  1  0
 57 65  1  0
 57 67  1  0
 58 64  1  0
 58 60  1  0
 59 65  1  0
 60 59  1  0
 61 60  2  0
 62 56  2  0
 63 62  1  0
 63 58  2  0
 64 57  1  0
 65 55  1  0
 67 69  2  0
 68 67  1  0
 70 68  1  0
 71 80  2  0
 71 76  1  0
 72 68  1  0
 72 76  1  0
 73 72  1  0
 74 75  1  0
 74 73  1  0
 75 71  1  0
 76 77  2  0
 77 78  1  0
 79 78  2  0
 80 79  1  0
 81 55  1  0
 81 86  1  0
 81 82  1  0
 82 85  1  1
 82 83  1  0
 84 82  1  0
 86 89  1  0
 87 91  1  0
 87 86  1  0
 88 87  2  0
 91 90  1  0
 93 91  1  0
 93 94  1  0
 93 92  1  0
M  ISO  4   7 100  19 100  53 101  54 101
M  END
>  <TORSDO>  (95) 
F 19

>  <SCORE>  (95) 
-13.840

>  <name>  (95) 
95

>  <ligand_id>  (95) 
95

>  <original_smiles>  (95) 
[H]c1c([H])c([H])c2c(c1[H])C([H])([H])C([H])([H])C([H])([H])C2([H])N([H])C(=O)C1([H])N(C(=O)C([H])(N([H])C(=O)C([H])(N([H])C([H])([H])[H])C([H])([H])[H])C(C([H])([H])[H])(C([H])([H])[H])C([H])([H])[H])C([H])([H])c2c([H])c(OC([H])([H])C([H])(c3c([H])c([H])c([H])c(C4([H])C([H])([H])N(C(=O)N5C([H])([H])C([H])([H])C([H])([H])C([H])(n6nc(-c7c([H])c([H])c(Oc8c([H])c([H])c(F)c([H])c8F)c([H])c7[H])c(C(=O)N([H])[H])c6N([H])[H])C5([H])[H])C([H])([H])C4([H])[H])c3[H])[N+]([H])([H])[H])c([H])c([H])c2C1([H])[H]

>  <smiles>  (95) 
[H]c1c([H])c([H])c2c(c1[H])C([H])([H])C([H])([H])C([H])([H])C2([H])N([H])C(=O)C1([H])N(C(=O)C([H])(N([H])C(=O)C([H])(N([H])C([H])([H])[H])C([H])([H])[H])C(C([H])([H])[H])(C([H])([H])[H])C([H])([H])[H])C([H])([H])c2c([H])c(OC([H])([H])C([H])(c3c([H])c([H])c([H])c(C4([H])C([H])([H])N(C(=O)N5C([H])([H])C([H])([H])C([H])([H])C([H])(n6nc(-c7c([H])c([H])c(Oc8c([H])c([H])c(F)c([H])c8F)c([H])c7[H])c(C(=O)N([H])[H])c6N([H])[H])C5([H])[H])C([H])([H])C4([H])[H])c3[H])[N+]([H])([H])[H])c([H])c([H])c2C1([H])[H]

$$$$
96:0:0
     RDKit          3D

 96104  0  0  1  0  0  0  0  0999 V2000
  -28.8970  -21.9210   20.2120 C   0  0  0  0  0  3  0  0  0  0  0  0
  -28.4020  -23.2190   20.4780 C   0  0  0  0  0  3  0  0  0  0  0  0
  -30.6650  -24.0290   20.6770 C   0  0  0  0  0  3  0  0  0  0  0  0
  -30.2850  -21.6330   20.1540 C   0  0  0  0  0  0  0  0  0  0  0  0
  -29.2750  -24.3030   20.7010 C   0  0  0  0  0  0  0  0  0  0  0  0
  -31.1790  -22.7260   20.4170 C   0  0  0  0  0  0  0  0  0  0  0  0
  -30.7690  -20.2390   19.7550 C   0  0  0  0  0  0  0  0  0  0  0  0
  -31.7950  -20.0880   19.0800 O   0  0  0  0  0  0  0  0  0  0  0  0
  -28.8780  -18.5930   19.1470 C   0  0  0  0  0  1  0  0  0  0  0  0
  -29.9770  -18.9540   20.1730 C   0  0  0  0  0  3  0  0  0  0  0  0
  -30.9560  -17.8230   20.2310 N   0  0  0  0  0  4  0  0  0  0  0  0
  -30.9660  -17.3240   19.3560 H   0  0  0  0  0  0  0  0  0  0  0  0
  -31.8470  -18.3030   20.2690 H   0  0  0  0  0  0  0  0  0  0  0  0
  -30.9030  -16.8800   21.3960 C   0  0  0  0  0  2  0  0  0  0  0  0
  -30.0710  -15.5580   21.2330 C   0  0  0  0  0  2  0  0  0  0  0  0
  -30.6580  -14.4310   20.3360 C   0  0  0  0  0  0  0  0  0  0  0  0
  -30.2940  -12.3280   19.0690 C   0  0  0  0  0  2  0  0  0  0  0  0
  -29.2910  -12.5560   17.9160 C   0  0  0  0  0  2  0  0  0  0  0  0
  -27.8400  -12.3860   18.4110 C   0  0  0  0  0  2  0  0  0  0  0  0
  -27.5630  -13.1960   19.7060 C   0  0  0  0  0  3  0  0  0  0  0  0
  -28.6650  -12.9480   20.7600 C   0  0  0  0  0  2  0  0  0  0  0  0
  -29.9670  -13.2680   20.1520 N   0  0  0  0  0  0  0  0  0  0  0  0
  -31.7190  -14.6560   19.7450 O   0  0  0  0  0  0  0  0  0  0  0  0
  -25.2030  -13.8060   20.5320 C   0  0  0  0  0  0  0  0  0  0  0  0
  -24.1440  -13.0390   20.9280 C   0  0  0  0  0  0  0  0  0  0  0  0
  -24.5880  -11.6830   20.8460 C   0  0  0  0  0  0  0  0  0  0  0  0
  -26.2270  -12.9220   20.2350 N   0  0  0  0  0  0  0  0  0  0  0  0
  -25.8640  -11.6380   20.4850 N   0  0  0  0  0  0  0  0  0  0  0  0
  -23.8610  -10.4220   21.0400 C   0  0  0  0  0  0  0  0  0  0  0  0
  -24.2990   -9.4510   21.9660 C   0  0  0  0  0  3  0  0  0  0  0  0
  -23.5760   -8.2540   22.1450 C   0  0  0  0  0  3  0  0  0  0  0  0
  -22.3970   -8.0200   21.3980 C   0  0  0  0  0  0  0  0  0  0  0  0
  -21.9780   -8.9780   20.4600 C   0  0  0  0  0  3  0  0  0  0  0  0
  -22.7020  -10.1690   20.2800 C   0  0  0  0  0  3  0  0  0  0  0  0
  -21.6420   -6.8750   21.4850 O   0  0  0  0  0  0  0  0  0  0  0  0
  -21.5790   -6.1430   22.6420 C   0  0  0  0  0  0  0  0  0  0  0  0
  -21.0940   -6.6920   23.8480 C   0  0  0  0  0  3  0  0  0  0  0  0
  -20.9830   -5.8810   24.9960 C   0  0  0  0  0  3  0  0  0  0  0  0
  -21.3480   -4.5210   24.9370 C   0  0  0  0  0  0  0  0  0  0  0  0
  -21.8260   -3.9710   23.7340 C   0  0  0  0  0  3  0  0  0  0  0  0
  -21.9360   -4.7790   22.5900 C   0  0  0  0  0  0  0  0  0  0  0  0
  -22.3770   -4.2410   21.4270 F   0  0  0  0  0  0  0  0  0  0  0  0
  -21.2350   -3.7420   26.0370 F   0  0  0  0  0  0  0  0  0  0  0  0
  -22.7660  -13.5230   21.2750 C   0  0  0  0  0  0  0  0  0  0  0  0
  -22.0650  -12.8100   22.1480 N   0  0  0  0  0  0  0  0  0  0  0  0
  -22.3180  -14.5690   20.8040 O   0  0  0  0  0  0  0  0  0  0  0  0
  -22.4430  -11.9660   22.5560 H   0  0  0  0  0  0  0  0  0  0  0  0
  -21.1370  -13.1080   22.4130 H   0  0  0  0  0  0  0  0  0  0  0  0
  -25.3840  -15.1800   20.3800 N   0  0  0  0  0  0  0  0  0  0  0  0
  -24.6390  -15.8510   20.5240 H   0  0  0  0  0  0  0  0  0  0  0  0
  -26.2330  -15.6010   20.0230 H   0  0  0  0  0  0  0  0  0  0  0  0
  -28.7190  -25.6950   21.0900 C   0  0  0  0  0  2  0  0  0  0  0  0
  -28.5810  -26.6560   20.0180 O   0  0  0  0  0  0  0  0  0  0  0  0
  -24.5410  -31.7210   23.1090 C   0  0  0  0  0  0  0  0  0  0  0  0
  -27.4120  -27.4020   20.0330 C   0  0  0  0  0  0  0  0  0  0  0  0
  -23.4270  -30.3240   21.3950 C   0  0  0  0  0  3  0  0  0  0  0  0
  -24.9740  -28.8540   19.9890 C   0  0  0  0  0  0  0  0  0  0  0  0
  -25.9470  -30.7510   21.2910 C   0  0  0  0  0  2  0  0  0  0  0  0
  -26.0980  -29.3950   20.6290 C   0  0  0  0  0  0  0  0  0  0  0  0
  -27.3210  -28.6740   20.6500 C   0  0  0  0  0  3  0  0  0  0  0  0
  -26.2730  -26.8830   19.3830 C   0  0  0  0  0  3  0  0  0  0  0  0
  -25.0570  -27.5980   19.3630 C   0  0  0  0  0  3  0  0  0  0  0  0
  -23.7000  -29.6670   20.0140 C   0  0  0  0  0  2  0  0  0  0  0  0
  -24.6540  -30.9470   21.9910 N   0  0  0  0  0  0  0  0  0  0  0  0
  -23.4370  -31.9540   23.6170 O   0  0  0  0  0  0  0  0  0  0  0  0
  -22.7630  -29.2730   22.3150 C   0  0  0  0  0  0  0  0  0  0  0  0
  -21.4380  -29.1010   22.1700 N   0  0  0  0  0  0  0  0  0  0  0  0
  -23.4370  -28.6130   23.1090 O   0  0  0  0  0  0  0  0  0  0  0  0
  -20.9570  -29.6910   21.5060 H   0  0  0  0  0  0  0  0  0  0  0  0
  -18.0510  -27.9350   22.6440 C   0  0  0  0  0  0  0  0  0  0  0  0
  -20.6160  -28.1320   22.8920 C   0  0  0  0  0  3  0  0  0  0  0  0
  -20.6840  -26.7360   22.2300 C   0  0  0  0  0  2  0  0  0  0  0  0
  -19.5620  -26.4920   21.2170 C   0  0  0  0  0  2  0  0  0  0  0  0
  -18.1890  -26.6290   21.8810 C   0  0  0  0  0  2  0  0  0  0  0  0
  -19.1880  -28.6520   23.1010 C   0  0  0  0  0  0  0  0  0  0  0  0
  -19.0000  -29.8820   23.7670 C   0  0  0  0  0  3  0  0  0  0  0  0
  -17.7070  -30.3950   23.9820 C   0  0  0  0  0  3  0  0  0  0  0  0
  -16.5840  -29.6730   23.5430 C   0  0  0  0  0  3  0  0  0  0  0  0
  -16.7570  -28.4450   22.8820 C   0  0  0  0  0  3  0  0  0  0  0  0
  -25.7900  -32.3690   23.7860 C   0  0  0  0  0  3  0  0  0  0  0  0
  -25.4450  -33.7580   24.1230 N   0  0  0  0  0  0  0  0  0  0  0  0
  -25.7670  -34.8230   23.3790 C   0  0  0  0  0  0  0  0  0  0  0  0
  -26.4570  -34.7420   22.3570 O   0  0  0  0  0  0  0  0  0  0  0  0
  -24.8480  -33.8960   24.9270 H   0  0  0  0  0  0  0  0  0  0  0  0
  -24.0020  -36.5750   23.0060 C   0  0  0  0  0  1  0  0  0  0  0  0
  -25.2390  -36.1950   23.8380 C   0  0  0  0  0  3  0  0  0  0  0  0
  -27.3330  -37.1240   24.7210 C   0  0  0  0  0  1  0  0  0  0  0  0
  -26.2470  -37.2730   23.7550 N   0  0  0  0  0  0  0  0  0  0  0  0
  -25.8130  -38.1800   23.9060 H   0  0  0  0  0  0  0  0  0  0  0  0
  -26.2780  -31.5890   25.0700 C   0  0  1  0  0  0  0  0  0  0  0  0
  -25.1510  -31.3110   26.0890 C   0  0  0  0  0  1  0  0  0  0  0  0
  -26.9050  -30.2300   24.6790 C   0  0  0  0  0  1  0  0  0  0  0  0
  -27.3870  -32.3960   25.7850 C   0  0  0  0  0  1  0  0  0  0  0  0
  -32.7030  -22.5530   20.4730 C   0  0  0  0  0  2  0  0  0  0  0  0
  -33.1120  -21.6000   21.4400 O   0  0  0  0  0  0  0  0  0  0  0  0
  -33.1080  -22.0240   22.2930 H   0  0  0  0  0  0  0  0  0  0  0  0
  1  2  1  0
  2  5  2  0
  3  5  1  0
  4  1  2  0
  4  6  1  0
  5 52  1  0
  6 94  1  0
  6  3  2  0
  7  4  1  0
  7 10  1  0
  8  7  2  0
 10  9  1  0
 10 11  1  0
 11 13  1  0
 11 14  1  0
 12 11  1  0
 15 14  1  0
 16 15  1  0
 17 22  1  0
 18 19  1  0
 18 17  1  0
 20 19  1  0
 20 27  1  0
 20 21  1  0
 22 16  1  0
 22 21  1  0
 23 16  2  0
 24 25  2  0
 25 44  1  0
 26 25  1  0
 26 29  1  0
 27 28  1  0
 27 24  1  0
 28 26  2  0
 29 30  1  0
 30 31  2  0
 32 35  1  0
 32 31  1  0
 33 32  2  0
 34 33  1  0
 34 29  2  0
 35 36  1  0
 36 37  1  0
 37 38  2  0
 39 38  1  0
 39 43  1  0
 40 39  2  0
 41 36  2  0
 41 40  1  0
 42 41  1  0
 44 45  1  0
 45 48  1  0
 45 47  1  0
 46 44  2  0
 49 50  1  0
 49 24  1  0
 51 49  1  0
 53 55  1  0
 53 52  1  0
 54 65  2  0
 55 60  1  0
 56 64  1  0
 56 66  1  0
 57 63  1  0
 57 59  1  0
 58 64  1  0
 59 60  2  0
 59 58  1  0
 61 55  2  0
 62 61  1  0
 62 57  2  0
 63 56  1  0
 64 54  1  0
 66 68  2  0
 67 66  1  0
 69 67  1  0
 70 79  2  0
 70 75  1  0
 71 67  1  0
 71 75  1  0
 72 71  1  0
 73 74  1  0
 73 72  1  0
 74 70  1  0
 75 76  2  0
 76 77  1  0
 78 77  2  0
 79 78  1  0
 80 54  1  0
 80 81  1  0
 80 90  1  0
 81 84  1  0
 82 86  1  0
 82 81  1  0
 83 82  2  0
 86 85  1  0
 88 86  1  0
 88 89  1  0
 88 87  1  0
 90 93  1  1
 90 91  1  0
 92 90  1  0
 94 95  1  0
 95 96  1  0
M  ISO  4  15 100  16 100  52 101  53 101
M  END
>  <TORSDO>  (96) 
F 24

>  <SCORE>  (96) 
-12.672

>  <name>  (96) 
96

>  <ligand_id>  (96) 
96

>  <original_smiles>  (96) 
[H]OC([H])([H])c1c([H])c(C([H])([H])Oc2c([H])c([H])c3c(c2[H])C([H])([H])N(C(=O)C([H])(N([H])C(=O)C([H])(N([H])C([H])([H])[H])C([H])([H])[H])C(C([H])([H])[H])(C([H])([H])[H])C([H])([H])[H])C([H])(C(=O)N([H])C2([H])c4c([H])c([H])c([H])c([H])c4C([H])([H])C([H])([H])C2([H])[H])C3([H])[H])c([H])c([H])c1C(=O)C([H])(C([H])([H])[H])[N+]([H])([H])C([H])([H])C([H])([H])C(=O)N1C([H])([H])C([H])([H])C([H])([H])C([H])(n2nc(-c3c([H])c([H])c(Oc4c([H])c([H])c(F)c([H])c4F)c([H])c3[H])c(C(=O)N([H])[H])c2N([H])[H])C1([H])[H]

>  <smiles>  (96) 
[H]OC([H])([H])c1c([H])c(C([H])([H])Oc2c([H])c([H])c3c(c2[H])C([H])([H])N(C(=O)C([H])(N([H])C(=O)C([H])(N([H])C([H])([H])[H])C([H])([H])[H])C(C([H])([H])[H])(C([H])([H])[H])C([H])([H])[H])C([H])(C(=O)N([H])C2([H])c4c([H])c([H])c([H])c([H])c4C([H])([H])C([H])([H])C2([H])[H])C3([H])[H])c([H])c([H])c1C(=O)C([H])(C([H])([H])[H])[N+]([H])([H])C([H])([H])C([H])([H])C(=O)N1C([H])([H])C([H])([H])C([H])([H])C([H])(n2nc(-c3c([H])c([H])c(Oc4c([H])c([H])c(F)c([H])c4F)c([H])c3[H])c(C(=O)N([H])[H])c2N([H])[H])C1([H])[H]

$$$$
97:0:0
     RDKit          3D

 85 89  0  0  1  0  0  0  0  0999 V2000
  -28.7230  -21.2580   20.6210 C   0  0  0  0  0  1  0  0  0  0  0  0
  -29.5620  -21.5220   21.8060 N   0  0  0  0  0  4  0  0  0  0  0  0
  -30.4800  -21.8250   21.5320 H   0  0  0  0  0  0  0  0  0  0  0  0
  -29.6540  -20.6970   22.3710 H   0  0  0  0  0  0  0  0  0  0  0  0
  -29.1560  -22.2460   22.3740 H   0  0  0  0  0  0  0  0  0  0  0  0
  -29.2980  -17.7860   20.4290 C   0  0  0  0  0  2  0  0  0  0  0  0
  -29.3850  -19.3960   20.1720 C   0  0  0  0  0  1  0  0  0  0  0  0
  -30.0680  -16.1330   20.1860 C   0  0  0  0  0  0  0  0  0  0  0  0
  -30.2860  -13.4590   19.4640 C   0  0  0  0  0  2  0  0  0  0  0  0
  -29.4510  -12.8740   18.2730 C   0  0  0  0  0  2  0  0  0  0  0  0
  -28.0580  -12.4300   18.7310 C   0  0  0  0  0  2  0  0  0  0  0  0
  -27.4830  -13.4560   19.7250 C   0  0  0  0  0  3  0  0  0  0  0  0
  -28.4720  -13.9440   20.8210 C   0  0  0  0  0  2  0  0  0  0  0  0
  -29.6050  -14.6830   20.1720 N   0  0  0  0  0  0  0  0  0  0  0  0
  -31.2920  -15.9730   19.9560 O   0  0  0  0  0  0  0  0  0  0  0  0
  -25.1270  -13.9390   20.5020 C   0  0  0  0  0  0  0  0  0  0  0  0
  -24.0740  -13.1500   20.8640 C   0  0  0  0  0  0  0  0  0  0  0  0
  -24.5530  -11.8030   20.8240 C   0  0  0  0  0  0  0  0  0  0  0  0
  -26.1780  -13.0800   20.2520 N   0  0  0  0  0  0  0  0  0  0  0  0
  -25.8480  -11.7840   20.5100 N   0  0  0  0  0  0  0  0  0  0  0  0
  -23.8260  -10.5370   21.0080 C   0  0  0  0  0  0  0  0  0  0  0  0
  -24.2520   -9.5660   21.9420 C   0  0  0  0  0  3  0  0  0  0  0  0
  -23.5180   -8.3720   22.1190 C   0  0  0  0  0  3  0  0  0  0  0  0
  -22.3440   -8.1400   21.3620 C   0  0  0  0  0  0  0  0  0  0  0  0
  -21.9370   -9.0990   20.4190 C   0  0  0  0  0  3  0  0  0  0  0  0
  -22.6710  -10.2840   20.2410 C   0  0  0  0  0  3  0  0  0  0  0  0
  -21.5840   -6.9970   21.4470 O   0  0  0  0  0  0  0  0  0  0  0  0
  -21.5280   -6.2540   22.5990 C   0  0  0  0  0  0  0  0  0  0  0  0
  -21.0830   -6.8050   23.8200 C   0  0  0  0  0  3  0  0  0  0  0  0
  -20.9750   -5.9880   24.9630 C   0  0  0  0  0  3  0  0  0  0  0  0
  -21.3000   -4.6200   24.8860 C   0  0  0  0  0  0  0  0  0  0  0  0
  -21.7360   -4.0680   23.6690 C   0  0  0  0  0  3  0  0  0  0  0  0
  -21.8470   -4.8820   22.5280 C   0  0  0  0  0  0  0  0  0  0  0  0
  -22.2470   -4.3400   21.3530 F   0  0  0  0  0  0  0  0  0  0  0  0
  -21.1890   -3.8330   25.9810 F   0  0  0  0  0  0  0  0  0  0  0  0
  -22.6750  -13.6210   21.1280 C   0  0  0  0  0  0  0  0  0  0  0  0
  -21.9460  -12.9230   21.9900 N   0  0  0  0  0  0  0  0  0  0  0  0
  -22.2400  -14.6470   20.6060 O   0  0  0  0  0  0  0  0  0  0  0  0
  -22.3130  -12.0940   22.4340 H   0  0  0  0  0  0  0  0  0  0  0  0
  -21.0060  -13.2210   22.2090 H   0  0  0  0  0  0  0  0  0  0  0  0
  -25.2790  -15.3120   20.3320 N   0  0  0  0  0  0  0  0  0  0  0  0
  -24.5070  -15.9590   20.4460 H   0  0  0  0  0  0  0  0  0  0  0  0
  -26.1260  -15.7600   20.0040 H   0  0  0  0  0  0  0  0  0  0  0  0
  -28.2710  -23.2500   20.0080 C   0  0  0  0  0 15  0  0  0  0  0  0
  -28.1210  -25.1260   20.4100 O   0  0  0  0  0  1  0  0  0  0  0  0
  -24.6450  -31.8200   23.1800 C   0  0  0  0  0  0  0  0  0  0  0  0
  -27.1900  -26.4720   20.2810 C   0  0  0  0  0  0  0  0  0  0  0  0
  -23.4850  -30.4010   21.5460 C   0  0  0  0  0  3  0  0  0  0  0  0
  -24.9500  -28.6870   20.1730 C   0  0  0  0  0  0  0  0  0  0  0  0
  -26.0750  -30.4600   21.4850 C   0  0  0  0  0  2  0  0  0  0  0  0
  -26.1410  -28.9920   20.8390 C   0  0  0  0  0  0  0  0  0  0  0  0
  -27.2260  -27.9200   20.8570 C   0  0  0  0  0  3  0  0  0  0  0  0
  -25.9660  -26.4580   19.5390 C   0  0  0  0  0  3  0  0  0  0  0  0
  -24.9200  -27.4510   19.4980 C   0  0  0  0  0  3  0  0  0  0  0  0
  -23.7530  -29.6710   20.1920 C   0  0  0  0  0  2  0  0  0  0  0  0
  -24.7620  -30.9350   22.1220 N   0  0  0  0  0  0  0  0  0  0  0  0
  -23.5410  -32.1360   23.6620 O   0  0  0  0  0  0  0  0  0  0  0  0
  -22.7320  -29.4570   22.5260 C   0  0  0  0  0  0  0  0  0  0  0  0
  -21.3950  -29.3290   22.4010 N   0  0  0  0  0  0  0  0  0  0  0  0
  -23.3680  -28.8330   23.3780 O   0  0  0  0  0  0  0  0  0  0  0  0
  -20.9260  -29.8810   21.6960 H   0  0  0  0  0  0  0  0  0  0  0  0
  -17.9900  -28.1540   22.9290 C   0  0  0  0  0  0  0  0  0  0  0  0
  -20.5550  -28.4040   23.1750 C   0  0  0  0  0  3  0  0  0  0  0  0
  -20.6390  -26.9680   22.6050 C   0  0  0  0  0  2  0  0  0  0  0  0
  -19.5310  -26.6570   21.5930 C   0  0  0  0  0  2  0  0  0  0  0  0
  -18.1530  -26.8090   22.2420 C   0  0  0  0  0  2  0  0  0  0  0  0
  -19.1160  -28.9100   23.3520 C   0  0  0  0  0  0  0  0  0  0  0  0
  -18.9040  -30.1650   23.9620 C   0  0  0  0  0  3  0  0  0  0  0  0
  -17.6020  -30.6660   24.1480 C   0  0  0  0  0  3  0  0  0  0  0  0
  -16.4910  -29.9100   23.7350 C   0  0  0  0  0  3  0  0  0  0  0  0
  -16.6870  -28.6540   23.1320 C   0  0  0  0  0  3  0  0  0  0  0  0
  -25.8890  -32.4920   23.8400 C   0  0  0  0  0  3  0  0  0  0  0  0
  -26.3520  -31.7640   25.1630 C   0  0  1  0  0  0  0  0  0  0  0  0
  -25.2210  -31.5700   26.2020 C   0  0  0  0  0  1  0  0  0  0  0  0
  -26.9390  -30.3690   24.8580 C   0  0  0  0  0  1  0  0  0  0  0  0
  -27.4850  -32.5730   25.8370 C   0  0  0  0  0  1  0  0  0  0  0  0
  -25.5560  -33.9000   24.1470 N   0  0  0  0  0  0  0  0  0  0  0  0
  -25.9050  -34.9630   23.4080 C   0  0  0  0  0  0  0  0  0  0  0  0
  -26.5890  -34.8610   22.3870 O   0  0  0  0  0  0  0  0  0  0  0  0
  -24.9450  -34.0530   24.9370 H   0  0  0  0  0  0  0  0  0  0  0  0
  -24.1880  -36.7780   23.0540 C   0  0  0  0  0  1  0  0  0  0  0  0
  -25.4240  -36.3590   23.8660 C   0  0  0  0  0  3  0  0  0  0  0  0
  -27.5550  -37.2490   24.7090 C   0  0  0  0  0  1  0  0  0  0  0  0
  -26.4620  -37.4090   23.7550 N   0  0  0  0  0  0  0  0  0  0  0  0
  -26.0570  -38.3320   23.8890 H   0  0  0  0  0  0  0  0  0  0  0  0
  1  2  1  0
  2  4  1  0
  2  5  1  0
  3  2  1  0
  7  6  1  0
  8  6  1  0
  9 14  1  0
 10 11  1  0
 10  9  1  0
 12 11  1  0
 12 19  1  0
 12 13  1  0
 14  8  1  0
 14 13  1  0
 15  8  2  0
 16 17  2  0
 17 36  1  0
 18 17  1  0
 18 21  1  0
 19 16  1  0
 19 20  1  0
 20 18  2  0
 21 22  1  0
 22 23  2  0
 24 27  1  0
 24 23  1  0
 25 24  2  0
 26 25  1  0
 26 21  2  0
 27 28  1  0
 28 29  1  0
 29 30  2  0
 31 30  1  0
 31 35  1  0
 32 31  2  0
 33 28  2  0
 33 32  1  0
 34 33  1  0
 36 37  1  0
 37 40  1  0
 37 39  1  0
 38 36  2  0
 41 42  1  0
 41 16  1  0
 43 41  1  0
 46 57  2  0
 47 45  1  0
 47 52  1  0
 48 56  1  0
 48 58  1  0
 49 55  1  0
 49 51  1  0
 50 56  1  0
 51 52  2  0
 51 50  1  0
 53 47  2  0
 54 53  1  0
 54 49  2  0
 55 48  1  0
 56 46  1  0
 58 60  2  0
 59 58  1  0
 61 59  1  0
 62 71  2  0
 62 67  1  0
 63 59  1  0
 63 67  1  0
 64 63  1  0
 65 66  1  0
 65 64  1  0
 66 62  1  0
 67 68  2  0
 68 69  1  0
 70 69  2  0
 71 70  1  0
 72 46  1  0
 72 77  1  0
 72 73  1  0
 73 76  1  1
 73 74  1  0
 75 73  1  0
 77 80  1  0
 78 82  1  0
 78 77  1  0
 79 78  2  0
 82 81  1  0
 84 82  1  0
 84 85  1  0
 84 83  1  0
M  ISO  4   6 100   8 100  44 101  45 101
M  END
>  <TORSDO>  (97) 
F 19

>  <SCORE>  (97) 
-16.216

>  <name>  (97) 
97

>  <ligand_id>  (97) 
97

>  <original_smiles>  (97) 
[H]C(C(=O)N1C([H])([H])C([H])([H])C([H])([H])C([H])(n2nc(-c3c([H])c([H])c(Oc4c([H])c([H])c(F)c([H])c4F)c([H])c3[H])c(C(=O)N([H])[H])c2N([H])[H])C1([H])[H])=C([H])C([H])(C([H])([H])Oc1c([H])c([H])c2c(c1[H])C([H])([H])N(C(=O)C([H])(N([H])C(=O)C([H])(N([H])C([H])([H])[H])C([H])([H])[H])C(C([H])([H])[H])(C([H])([H])[H])C([H])([H])[H])C([H])(C(=O)N([H])C1([H])c3c([H])c([H])c([H])c([H])c3C([H])([H])C([H])([H])C1([H])[H])C2([H])[H])[N+]([H])([H])[H]

>  <smiles>  (97) 
[H]C(C(=O)N1C([H])([H])C([H])([H])C([H])([H])C([H])(n2nc(-c3c([H])c([H])c(Oc4c([H])c([H])c(F)c([H])c4F)c([H])c3[H])c(C(=O)N([H])[H])c2N([H])[H])C1([H])[H])=C([H])C([H])(C([H])([H])Oc1c([H])c([H])c2c(c1[H])C([H])([H])N(C(=O)C([H])(N([H])C(=O)C([H])(N([H])C([H])([H])[H])C([H])([H])[H])C(C([H])([H])[H])(C([H])([H])[H])C([H])([H])[H])C([H])(C(=O)N([H])C1([H])c3c([H])c([H])c([H])c([H])c3C([H])([H])C([H])([H])C1([H])[H])C2([H])[H])[N+]([H])([H])[H]

$$$$
98:0:0
     RDKit          3D

 91 99  0  0  1  0  0  0  0  0999 V2000
  -29.7870  -21.8470   20.7410 C   0  0  0  0  0  3  0  0  0  0  0  0
  -31.9930  -22.3650   19.8590 C   0  0  0  0  0  3  0  0  0  0  0  0
  -30.2690  -20.6140   21.2230 C   0  0  0  0  0  3  0  0  0  0  0  0
  -32.4770  -21.1380   20.3440 C   0  0  0  0  0  3  0  0  0  0  0  0
  -30.6460  -22.7340   20.0490 C   0  0  0  0  0  0  0  0  0  0  0  0
  -31.6190  -20.2550   21.0310 C   0  0  0  0  0  0  0  0  0  0  0  0
  -30.1990  -24.0360   19.5280 C   0  0  0  0  0  3  0  0  0  0  0  0
  -28.9740  -24.5800   19.6380 C   0  0  0  0  0  3  0  0  0  0  0  0
  -28.6100  -25.9370   19.0750 C   0  0  0  0  0  2  0  0  0  0  0  0
  -28.3140  -26.8470   20.1310 O   0  0  0  0  0  0  0  0  0  0  0  0
  -24.5440  -31.9560   23.2920 C   0  0  0  0  0  0  0  0  0  0  0  0
  -27.1110  -27.5180   20.1470 C   0  0  0  0  0  0  0  0  0  0  0  0
  -23.3030  -30.5750   21.6580 C   0  0  0  0  0  3  0  0  0  0  0  0
  -24.7200  -29.0230   20.2160 C   0  0  0  0  0  0  0  0  0  0  0  0
  -25.8280  -30.9070   21.4310 C   0  0  0  0  0  2  0  0  0  0  0  0
  -25.8870  -29.5380   20.7910 C   0  0  0  0  0  0  0  0  0  0  0  0
  -27.0800  -28.7870   20.7630 C   0  0  0  0  0  3  0  0  0  0  0  0
  -25.9150  -26.9950   19.5990 C   0  0  0  0  0  3  0  0  0  0  0  0
  -24.7260  -27.7470   19.6250 C   0  0  0  0  0  3  0  0  0  0  0  0
  -23.4870  -29.8940   20.2750 C   0  0  0  0  0  2  0  0  0  0  0  0
  -24.5770  -31.1600   22.1860 N   0  0  0  0  0  0  0  0  0  0  0  0
  -23.4740  -32.2390   23.8450 O   0  0  0  0  0  0  0  0  0  0  0  0
  -22.6510  -29.5580   22.6220 C   0  0  0  0  0  0  0  0  0  0  0  0
  -21.3280  -29.3760   22.4920 N   0  0  0  0  0  0  0  0  0  0  0  0
  -23.3330  -28.9350   23.4400 O   0  0  0  0  0  0  0  0  0  0  0  0
  -20.8410  -29.9310   21.8020 H   0  0  0  0  0  0  0  0  0  0  0  0
  -17.9550  -28.1700   22.9580 C   0  0  0  0  0  0  0  0  0  0  0  0
  -20.5070  -28.4440   23.2640 C   0  0  0  0  0  3  0  0  0  0  0  0
  -20.6250  -27.0070   22.7060 C   0  0  0  0  0  2  0  0  0  0  0  0
  -19.5390  -26.6650   21.6820 C   0  0  0  0  0  2  0  0  0  0  0  0
  -18.1470  -26.8120   22.3040 C   0  0  0  0  0  2  0  0  0  0  0  0
  -19.0630  -28.9430   23.3950 C   0  0  0  0  0  0  0  0  0  0  0  0
  -18.8310  -30.2140   23.9650 C   0  0  0  0  0  3  0  0  0  0  0  0
  -17.5220  -30.7110   24.1050 C   0  0  0  0  0  3  0  0  0  0  0  0
  -16.4270  -29.9340   23.6870 C   0  0  0  0  0  3  0  0  0  0  0  0
  -16.6450  -28.6660   23.1200 C   0  0  0  0  0  3  0  0  0  0  0  0
  -25.8460  -32.5670   23.9000 C   0  0  0  0  0  3  0  0  0  0  0  0
  -25.5640  -33.9690   24.2310 N   0  0  0  0  0  0  0  0  0  0  0  0
  -25.9070  -35.0140   23.4660 C   0  0  0  0  0  0  0  0  0  0  0  0
  -26.5660  -34.9000   22.4300 O   0  0  0  0  0  0  0  0  0  0  0  0
  -24.9780  -34.1330   25.0360 H   0  0  0  0  0  0  0  0  0  0  0  0
  -24.2000  -36.8290   23.1210 C   0  0  0  0  0  1  0  0  0  0  0  0
  -25.4410  -36.4110   23.9250 C   0  0  0  0  0  3  0  0  0  0  0  0
  -27.5970  -37.2610   24.7340 C   0  0  0  0  0  1  0  0  0  0  0  0
  -26.4870  -37.4490   23.8050 N   0  0  0  0  0  0  0  0  0  0  0  0
  -26.0960  -38.3730   23.9630 H   0  0  0  0  0  0  0  0  0  0  0  0
  -26.3660  -31.7860   25.1690 C   0  0  1  0  0  0  0  0  0  0  0  0
  -25.2820  -31.5620   26.2490 C   0  0  0  0  0  1  0  0  0  0  0  0
  -26.9240  -30.4020   24.7660 C   0  0  0  0  0  1  0  0  0  0  0  0
  -27.5370  -32.5620   25.8190 C   0  0  0  0  0  1  0  0  0  0  0  0
  -32.1730  -18.9230   21.5170 C   0  0  0  0  0  2  0  0  0  0  0  0
  -31.6480  -18.4360   22.8900 C   0  0  0  0  0  2  0  0  0  0  0  0
  -30.5440  -17.3610   22.8320 C   0  0  0  0  0  2  0  0  0  0  0  0
  -30.1520  -15.5180   21.1300 C   0  0  0  0  0  3  0  0  0  0  0  0
  -30.9600  -16.1850   21.9720 C   0  0  0  0  0  3  0  0  0  0  0  0
  -30.7210  -14.5180   20.2420 C   0  0  0  0  0  0  0  0  0  0  0  0
  -30.2920  -12.4560   18.9630 C   0  0  0  0  0  2  0  0  0  0  0  0
  -29.2910  -12.7250   17.8220 C   0  0  0  0  0  2  0  0  0  0  0  0
  -27.8420  -12.5820   18.3230 C   0  0  0  0  0  2  0  0  0  0  0  0
  -27.5830  -13.3680   19.6380 C   0  0  0  0  0  3  0  0  0  0  0  0
  -28.6880  -13.0780   20.6770 C   0  0  0  0  0  2  0  0  0  0  0  0
  -29.9850  -13.3910   20.0540 N   0  0  0  0  0  0  0  0  0  0  0  0
  -31.7740  -14.7300   19.6300 O   0  0  0  0  0  0  0  0  0  0  0  0
  -25.2140  -13.9600   20.4530 C   0  0  0  0  0  0  0  0  0  0  0  0
  -24.1650  -13.1790   20.8610 C   0  0  0  0  0  0  0  0  0  0  0  0
  -24.6300  -11.8300   20.7960 C   0  0  0  0  0  0  0  0  0  0  0  0
  -26.2520  -13.0850   20.1710 N   0  0  0  0  0  0  0  0  0  0  0  0
  -25.9050  -11.7990   20.4310 N   0  0  0  0  0  0  0  0  0  0  0  0
  -23.9180  -10.5630   21.0060 C   0  0  0  0  0  0  0  0  0  0  0  0
  -24.3840   -9.5990   21.9260 C   0  0  0  0  0  3  0  0  0  0  0  0
  -23.6710   -8.3960   22.1240 C   0  0  0  0  0  3  0  0  0  0  0  0
  -22.4810   -8.1500   21.4010 C   0  0  0  0  0  0  0  0  0  0  0  0
  -22.0340   -9.1030   20.4680 C   0  0  0  0  0  3  0  0  0  0  0  0
  -22.7470  -10.2970   20.2690 C   0  0  0  0  0  3  0  0  0  0  0  0
  -21.7380   -6.9980   21.5080 O   0  0  0  0  0  0  0  0  0  0  0  0
  -21.7070   -6.2670   22.6680 C   0  0  0  0  0  0  0  0  0  0  0  0
  -21.3000   -6.8350   23.8960 C   0  0  0  0  0  3  0  0  0  0  0  0
  -21.2160   -6.0300   25.0500 C   0  0  0  0  0  3  0  0  0  0  0  0
  -21.5280   -4.6600   24.9780 C   0  0  0  0  0  0  0  0  0  0  0  0
  -21.9280   -4.0920   23.7550 C   0  0  0  0  0  3  0  0  0  0  0  0
  -22.0140   -4.8940   22.6040 C   0  0  0  0  0  0  0  0  0  0  0  0
  -22.3800   -4.3360   21.4230 F   0  0  0  0  0  0  0  0  0  0  0  0
  -21.4400   -3.8840   26.0840 F   0  0  0  0  0  0  0  0  0  0  0  0
  -22.7810  -13.6490   21.2020 C   0  0  0  0  0  0  0  0  0  0  0  0
  -22.0960  -12.9390   22.0920 N   0  0  0  0  0  0  0  0  0  0  0  0
  -22.3170  -14.6790   20.7140 O   0  0  0  0  0  0  0  0  0  0  0  0
  -22.4860  -12.1060   22.5070 H   0  0  0  0  0  0  0  0  0  0  0  0
  -21.1680  -13.2330   22.3620 H   0  0  0  0  0  0  0  0  0  0  0  0
  -25.3660  -15.3330   20.2820 N   0  0  0  0  0  0  0  0  0  0  0  0
  -24.6030  -15.9830   20.4320 H   0  0  0  0  0  0  0  0  0  0  0  0
  -26.2040  -15.7800   19.9340 H   0  0  0  0  0  0  0  0  0  0  0  0
  1  3  1  0
  2  5  1  0
  2  4  2  0
  4  6  1  0
  5  1  2  0
  6  3  2  0
  6 51  1  0
  7  8  2  0
  7  5  1  0
  9  8  1  0
  9 10  1  0
 10 12  1  0
 11 22  2  0
 12 17  1  0
 13 21  1  0
 13 23  1  0
 14 20  1  0
 14 16  1  0
 15 21  1  0
 16 15  1  0
 17 16  2  0
 18 19  1  0
 18 12  2  0
 19 14  2  0
 20 13  1  0
 21 11  1  0
 23 25  2  0
 24 23  1  0
 26 24  1  0
 27 36  2  0
 27 32  1  0
 28 24  1  0
 28 32  1  0
 29 28  1  0
 30 31  1  0
 30 29  1  0
 31 27  1  0
 32 33  2  0
 33 34  1  0
 35 34  2  0
 36 35  1  0
 37 11  1  0
 37 38  1  0
 37 47  1  0
 38 41  1  0
 39 43  1  0
 39 38  1  0
 40 39  2  0
 43 42  1  0
 45 43  1  0
 45 46  1  0
 45 44  1  0
 47 50  1  1
 47 48  1  0
 49 47  1  0
 51 52  1  0
 53 52  1  0
 54 55  2  0
 55 53  1  0
 56 54  1  0
 57 62  1  0
 58 59  1  0
 58 57  1  0
 60 59  1  0
 60 67  1  0
 60 61  1  0
 62 56  1  0
 62 61  1  0
 63 56  2  0
 64 65  2  0
 65 84  1  0
 66 65  1  0
 66 69  1  0
 67 68  1  0
 67 64  1  0
 68 66  2  0
 69 70  1  0
 70 71  2  0
 72 75  1  0
 72 71  1  0
 73 72  2  0
 74 73  1  0
 74 69  2  0
 75 76  1  0
 76 77  1  0
 77 78  2  0
 79 78  1  0
 79 83  1  0
 80 79  2  0
 81 76  2  0
 81 80  1  0
 82 81  1  0
 84 85  1  0
 85 88  1  0
 85 87  1  0
 86 84  2  0
 89 90  1  0
 89 64  1  0
 91 89  1  0
M  ISO  4   9 101  10 101  54 100  56 100
M  END
>  <TORSDO>  (98) 
F 22

>  <SCORE>  (98) 
-12.595

>  <name>  (98) 
98

>  <ligand_id>  (98) 
98

>  <original_smiles>  (98) 
[H]C(C(=O)N1C([H])([H])C([H])([H])C([H])([H])C([H])(n2nc(-c3c([H])c([H])c(Oc4c([H])c([H])c(F)c([H])c4F)c([H])c3[H])c(C(=O)N([H])[H])c2N([H])[H])C1([H])[H])=C([H])C([H])([H])C([H])([H])C([H])([H])c1c([H])c([H])c(C([H])=C([H])C([H])([H])Oc2c([H])c([H])c3c(c2[H])C([H])([H])N(C(=O)C([H])(N([H])C(=O)C([H])(N([H])C([H])([H])[H])C([H])([H])[H])C(C([H])([H])[H])(C([H])([H])[H])C([H])([H])[H])C([H])(C(=O)N([H])C2([H])c4c([H])c([H])c([H])c([H])c4C([H])([H])C([H])([H])C2([H])[H])C3([H])[H])c([H])c1[H]

>  <smiles>  (98) 
[H]C(C(=O)N1C([H])([H])C([H])([H])C([H])([H])C([H])(n2nc(-c3c([H])c([H])c(Oc4c([H])c([H])c(F)c([H])c4F)c([H])c3[H])c(C(=O)N([H])[H])c2N([H])[H])C1([H])[H])=C([H])C([H])([H])C([H])([H])C([H])([H])c1c([H])c([H])c(C([H])=C([H])C([H])([H])Oc2c([H])c([H])c3c(c2[H])C([H])([H])N(C(=O)C([H])(N([H])C(=O)C([H])(N([H])C([H])([H])[H])C([H])([H])[H])C(C([H])([H])[H])(C([H])([H])[H])C([H])([H])[H])C([H])(C(=O)N([H])C2([H])c4c([H])c([H])c([H])c([H])c4C([H])([H])C([H])([H])C2([H])[H])C3([H])[H])c([H])c1[H]

$$$$
