0:0:0
     RDKit          3D

 90 97  0  0  1  0  0  0  0  0999 V2000
  -29.4340  -20.5140   20.1670 C   0  0  0  0  0  3  0  0  0  0  0  0
  -28.5720  -21.9030   19.7990 C   0  0  0  0  0  3  0  0  0  0  0  0
  -28.9910  -23.4760   20.1850 C   0  0  0  0  0  3  0  0  0  0  0  0
  -28.0190  -24.7980   19.8810 C   0  0  0  0  0  3  0  0  0  0  0  0
  -28.2680  -26.2710   20.2600 O   0  0  0  0  0  0  0  0  0  0  0  0
  -24.6380  -31.9180   23.2950 C   0  0  0  0  0  0  0  0  0  0  0  0
  -27.2030  -27.2330   20.2240 C   0  0  0  0  0  0  0  0  0  0  0  0
  -23.4340  -30.5340   21.6500 C   0  0  0  0  0  3  0  0  0  0  0  0
  -24.8760  -28.9650   20.2270 C   0  0  0  0  0  0  0  0  0  0  0  0
  -25.9870  -30.7990   21.4860 C   0  0  0  0  0  2  0  0  0  0  0  0
  -26.0570  -29.4090   20.8330 C   0  0  0  0  0  0  0  0  0  0  0  0
  -27.2200  -28.5570   20.8200 C   0  0  0  0  0  3  0  0  0  0  0  0
  -25.9920  -26.8860   19.5850 C   0  0  0  0  0  3  0  0  0  0  0  0
  -24.8500  -27.7140   19.5950 C   0  0  0  0  0  3  0  0  0  0  0  0
  -23.6550  -29.8670   20.2680 C   0  0  0  0  0  2  0  0  0  0  0  0
  -24.7080  -31.1020   22.2020 N   0  0  0  0  0  0  0  0  0  0  0  0
  -23.5540  -32.2050   23.8250 O   0  0  0  0  0  0  0  0  0  0  0  0
  -22.7460  -29.5280   22.6050 C   0  0  0  0  0  0  0  0  0  0  0  0
  -21.4160  -29.3670   22.4720 N   0  0  0  0  0  0  0  0  0  0  0  0
  -23.4110  -28.8920   23.4290 O   0  0  0  0  0  0  0  0  0  0  0  0
  -20.9380  -29.9270   21.7800 H   0  0  0  0  0  0  0  0  0  0  0  0
  -18.0240  -28.2010   22.9560 C   0  0  0  0  0  0  0  0  0  0  0  0
  -20.5860  -28.4390   23.2400 C   0  0  0  0  0  3  0  0  0  0  0  0
  -20.6790  -27.0060   22.6630 C   0  0  0  0  0  2  0  0  0  0  0  0
  -19.5790  -26.6940   21.6460 C   0  0  0  0  0  2  0  0  0  0  0  0
  -18.1930  -26.8490   22.2820 C   0  0  0  0  0  2  0  0  0  0  0  0
  -19.1480  -28.9530   23.3930 C   0  0  0  0  0  0  0  0  0  0  0  0
  -18.9360  -30.2170   23.9840 C   0  0  0  0  0  3  0  0  0  0  0  0
  -17.6340  -30.7270   24.1490 C   0  0  0  0  0  3  0  0  0  0  0  0
  -16.5260  -29.9720   23.7280 C   0  0  0  0  0  3  0  0  0  0  0  0
  -16.7220  -28.7130   23.1320 C   0  0  0  0  0  3  0  0  0  0  0  0
  -25.9210  -32.5400   23.9240 C   0  0  0  0  0  3  0  0  0  0  0  0
  -25.6260  -33.9430   24.2440 N   0  0  0  0  0  0  0  0  0  0  0  0
  -25.9540  -34.9900   23.4760 C   0  0  0  0  0  0  0  0  0  0  0  0
  -26.6060  -34.8750   22.4330 O   0  0  0  0  0  0  0  0  0  0  0  0
  -25.0480  -34.1070   25.0550 H   0  0  0  0  0  0  0  0  0  0  0  0
  -24.2330  -36.7970   23.1450 C   0  0  0  0  0  1  0  0  0  0  0  0
  -25.4870  -36.3860   23.9330 C   0  0  0  0  0  3  0  0  0  0  0  0
  -27.6410  -37.2700   24.7120 C   0  0  0  0  0  1  0  0  0  0  0  0
  -26.5200  -37.4330   23.7880 N   0  0  0  0  0  0  0  0  0  0  0  0
  -26.1230  -38.3560   23.9360 H   0  0  0  0  0  0  0  0  0  0  0  0
  -26.4140  -31.7700   25.2100 C   0  0  1  0  0  0  0  0  0  0  0  0
  -25.3090  -31.5570   26.2710 C   0  0  0  0  0  1  0  0  0  0  0  0
  -26.9780  -30.3790   24.8350 C   0  0  0  0  0  1  0  0  0  0  0  0
  -27.5670  -32.5530   25.8820 C   0  0  0  0  0  1  0  0  0  0  0  0
  -28.9660  -18.9640   19.7450 C   0  0  0  0  0  3  0  0  0  0  0  0
  -27.6060  -18.7110   20.2430 N   0  0  0  0  0  4  0  0  0  0  0  0
  -27.5820  -18.5800   21.2380 H   0  0  0  0  0  0  0  0  0  0  0  0
  -27.2240  -17.9010   19.7900 H   0  0  0  0  0  0  0  0  0  0  0  0
  -27.0060  -19.4830   20.0100 H   0  0  0  0  0  0  0  0  0  0  0  0
  -29.5990  -16.2510   20.1860 C   0  0  0  0  0  3  0  0  0  0  0  0
  -29.8990  -17.6090   19.9020 C   0  0  0  0  0  0  0  0  0  0  0  0
  -30.4990  -14.9830   20.2010 C   0  0  0  0  0  0  0  0  0  0  0  0
  -30.3850  -12.6150   19.3640 C   0  0  0  0  0  2  0  0  0  0  0  0
  -29.4430  -12.5720   18.1360 C   0  0  0  0  0  2  0  0  0  0  0  0
  -27.9890  -12.3340   18.5890 C   0  0  0  0  0  2  0  0  0  0  0  0
  -27.5740  -13.2870   19.7370 C   0  0  0  0  0  3  0  0  0  0  0  0
  -28.6390  -13.3460   20.8550 C   0  0  0  0  0  2  0  0  0  0  0  0
  -29.9210  -13.7210   20.2420 N   0  0  0  0  0  0  0  0  0  0  0  0
  -31.7170  -15.0130   19.9870 O   0  0  0  0  0  0  0  0  0  0  0  0
  -25.2120  -13.8580   20.5450 C   0  0  0  0  0  0  0  0  0  0  0  0
  -24.1550  -13.0810   20.9310 C   0  0  0  0  0  0  0  0  0  0  0  0
  -24.6240  -11.7310   20.8760 C   0  0  0  0  0  0  0  0  0  0  0  0
  -26.2490  -12.9830   20.2690 N   0  0  0  0  0  0  0  0  0  0  0  0
  -25.9100  -11.6990   20.5420 N   0  0  0  0  0  0  0  0  0  0  0  0
  -23.9050  -10.4660   21.0640 C   0  0  0  0  0  0  0  0  0  0  0  0
  -24.3540   -9.4890   21.9790 C   0  0  0  0  0  3  0  0  0  0  0  0
  -23.6350   -8.2880   22.1550 C   0  0  0  0  0  3  0  0  0  0  0  0
  -22.4480   -8.0580   21.4200 C   0  0  0  0  0  0  0  0  0  0  0  0
  -22.0180   -9.0230   20.4920 C   0  0  0  0  0  3  0  0  0  0  0  0
  -22.7410  -10.2160   20.3130 C   0  0  0  0  0  3  0  0  0  0  0  0
  -21.7010   -6.9120   21.5090 O   0  0  0  0  0  0  0  0  0  0  0  0
  -21.6730   -6.1540   22.6530 C   0  0  0  0  0  0  0  0  0  0  0  0
  -21.2630   -6.6910   23.8920 C   0  0  0  0  0  3  0  0  0  0  0  0
  -21.1870   -5.8600   25.0280 C   0  0  0  0  0  3  0  0  0  0  0  0
  -21.5030   -4.4920   24.9220 C   0  0  0  0  0  0  0  0  0  0  0  0
  -21.9090   -3.9550   23.6880 C   0  0  0  0  0  3  0  0  0  0  0  0
  -21.9880   -4.7840   22.5540 C   0  0  0  0  0  0  0  0  0  0  0  0
  -22.3570   -4.2550   21.3620 F   0  0  0  0  0  0  0  0  0  0  0  0
  -21.4250   -3.6930   26.0130 F   0  0  0  0  0  0  0  0  0  0  0  0
  -22.7590  -13.5530   21.2180 C   0  0  0  0  0  0  0  0  0  0  0  0
  -22.0420  -12.8540   22.0880 N   0  0  0  0  0  0  0  0  0  0  0  0
  -22.3160  -14.5820   20.7090 O   0  0  0  0  0  0  0  0  0  0  0  0
  -22.4110  -12.0230   22.5250 H   0  0  0  0  0  0  0  0  0  0  0  0
  -21.1040  -13.1490   22.3150 H   0  0  0  0  0  0  0  0  0  0  0  0
  -25.3720  -15.2300   20.3730 N   0  0  0  0  0  0  0  0  0  0  0  0
  -24.6030  -15.8840   20.4880 H   0  0  0  0  0  0  0  0  0  0  0  0
  -26.1970  -15.6450   19.9690 H   0  0  0  0  0  0  0  0  0  0  0  0
  -31.1500  -17.9800   19.6110 O   0  0  0  0  0  0  0  0  0  0  0  0
  -31.1070  -18.8530   19.2390 H   0  0  0  0  0  0  0  0  0  0  0  0
  2  1  2  0
  2  3  1  0
  4  3  2  0
  4  5  1  0
  6 17  2  0
  7  5  1  0
  7 12  1  0
  8 16  1  0
  8 18  1  0
  9 15  1  0
  9 11  1  0
 10 16  1  0
 11 10  1  0
 12 11  2  0
 13 14  1  0
 13  7  2  0
 14  9  2  0
 15  8  1  0
 16  6  1  0
 18 20  2  0
 19 18  1  0
 21 19  1  0
 22 31  2  0
 22 27  1  0
 23 19  1  0
 23 27  1  0
 24 23  1  0
 25 26  1  0
 25 24  1  0
 26 22  1  0
 27 28  2  0
 28 29  1  0
 30 29  2  0
 31 30  1  0
 32  6  1  0
 32 33  1  0
 32 42  1  0
 33 36  1  0
 34 38  1  0
 34 33  1  0
 35 34  2  0
 38 37  1  0
 40 38  1  0
 40 41  1  0
 40 39  1  0
 42 45  1  1
 42 43  1  0
 44 42  1  0
 46 52  1  0
 46  1  1  0
 46 47  1  0
 47 48  1  0
 49 47  1  0
 50 47  1  0
 51 53  1  0
 52 51  2  0
 53 59  1  0
 54 59  1  0
 55 56  1  0
 55 54  1  0
 57 56  1  0
 57 64  1  0
 57 58  1  0
 59 58  1  0
 60 53  2  0
 61 62  2  0
 62 81  1  0
 63 62  1  0
 63 66  1  0
 64 65  1  0
 64 61  1  0
 65 63  2  0
 66 67  1  0
 67 68  2  0
 69 72  1  0
 69 68  1  0
 70 69  2  0
 71 70  1  0
 71 66  2  0
 72 73  1  0
 73 74  1  0
 74 75  2  0
 76 75  1  0
 76 80  1  0
 77 76  2  0
 78 73  2  0
 78 77  1  0
 79 78  1  0
 81 82  1  0
 82 85  1  0
 82 84  1  0
 83 81  2  0
 86 87  1  0
 86 61  1  0
 88 86  1  0
 89 52  1  0
 90 89  1  0
M  ISO  4   4 101   5 101  51 100  53 100
M  END
>  <TORSDO>  (1) 
F 23

>  <SCORE>  (1) 
-13.088

>  <name>  (1) 
0

>  <ligand_id>  (1) 
0

>  <original_smiles>  (1) 
[H]OC(=C([H])C(=O)N1C([H])([H])C([H])([H])C([H])([H])C([H])(n2nc(-c3c([H])c([H])c(Oc4c([H])c([H])c(F)c([H])c4F)c([H])c3[H])c(C(=O)N([H])[H])c2N([H])[H])C1([H])[H])C([H])(C([H])([H])C([H])([H])C([H])([H])C([H])([H])Oc1c([H])c([H])c2c(c1[H])C([H])([H])N(C(=O)C([H])(N([H])C(=O)C([H])(N([H])C([H])([H])[H])C([H])([H])[H])C(C([H])([H])[H])(C([H])([H])[H])C([H])([H])[H])C([H])(C(=O)N([H])C1([H])c3c([H])c([H])c([H])c([H])c3C([H])([H])C([H])([H])C1([H])[H])C2([H])[H])[N+]([H])([H])[H]

>  <smiles>  (1) 
[H]OC(=C([H])C(=O)N1C([H])([H])C([H])([H])C([H])([H])C([H])(n2nc(-c3c([H])c([H])c(Oc4c([H])c([H])c(F)c([H])c4F)c([H])c3[H])c(C(=O)N([H])[H])c2N([H])[H])C1([H])[H])C([H])(C([H])([H])C([H])([H])C([H])([H])C([H])([H])Oc1c([H])c([H])c2c(c1[H])C([H])([H])N(C(=O)C([H])(N([H])C(=O)C([H])(N([H])C([H])([H])[H])C([H])([H])[H])C(C([H])([H])[H])(C([H])([H])[H])C([H])([H])[H])C([H])(C(=O)N([H])C1([H])c3c([H])c([H])c([H])c([H])c3C([H])([H])C([H])([H])C1([H])[H])C2([H])[H])[N+]([H])([H])[H]

$$$$
1:0:0
     RDKit          3D

 89 96  0  0  1  0  0  0  0  0999 V2000
  -28.1640  -21.7740   21.0540 C   0  0  0  0  0  2  0  0  0  0  0  0
  -28.8140  -22.9610   20.2940 C   0  0  0  0  0  2  0  0  0  0  0  0
  -28.0840  -24.3210   20.5220 C   0  0  0  0  0  2  0  0  0  0  0  0
  -28.4950  -25.4520   19.5440 C   0  0  0  0  0  2  0  0  0  0  0  0
  -28.3560  -26.7840   20.0650 O   0  0  0  0  0  0  0  0  0  0  0  0
  -24.5530  -31.8930   23.2080 C   0  0  0  0  0  0  0  0  0  0  0  0
  -27.1500  -27.4590   20.0590 C   0  0  0  0  0  0  0  0  0  0  0  0
  -23.3200  -30.5000   21.5740 C   0  0  0  0  0  3  0  0  0  0  0  0
  -24.7480  -28.9690   20.1170 C   0  0  0  0  0  0  0  0  0  0  0  0
  -25.8410  -30.8570   21.3390 C   0  0  0  0  0  2  0  0  0  0  0  0
  -25.9120  -29.4880   20.6910 C   0  0  0  0  0  0  0  0  0  0  0  0
  -27.1100  -28.7410   20.6580 C   0  0  0  0  0  3  0  0  0  0  0  0
  -25.9620  -26.9520   19.4810 C   0  0  0  0  0  3  0  0  0  0  0  0
  -24.7660  -27.7000   19.5100 C   0  0  0  0  0  3  0  0  0  0  0  0
  -23.5060  -29.8300   20.1880 C   0  0  0  0  0  2  0  0  0  0  0  0
  -24.5900  -31.0980   22.0990 N   0  0  0  0  0  0  0  0  0  0  0  0
  -23.4790  -32.1600   23.7680 O   0  0  0  0  0  0  0  0  0  0  0  0
  -22.6850  -29.4760   22.5380 C   0  0  0  0  0  0  0  0  0  0  0  0
  -21.3590  -29.2980   22.4280 N   0  0  0  0  0  0  0  0  0  0  0  0
  -23.3770  -28.8460   23.3420 O   0  0  0  0  0  0  0  0  0  0  0  0
  -20.8590  -29.8600   21.7520 H   0  0  0  0  0  0  0  0  0  0  0  0
  -17.9900  -28.0980   22.9510 C   0  0  0  0  0  0  0  0  0  0  0  0
  -20.5500  -28.3580   23.2010 C   0  0  0  0  0  3  0  0  0  0  0  0
  -20.6480  -26.9280   22.6210 C   0  0  0  0  0  2  0  0  0  0  0  0
  -19.5360  -26.6060   21.6170 C   0  0  0  0  0  2  0  0  0  0  0  0
  -18.1620  -26.7510   22.2710 C   0  0  0  0  0  2  0  0  0  0  0  0
  -19.1110  -28.8600   23.3720 C   0  0  0  0  0  0  0  0  0  0  0  0
  -18.8980  -30.1210   23.9690 C   0  0  0  0  0  3  0  0  0  0  0  0
  -17.5970  -30.6240   24.1460 C   0  0  0  0  0  3  0  0  0  0  0  0
  -16.4890  -29.8590   23.7440 C   0  0  0  0  0  3  0  0  0  0  0  0
  -16.6860  -28.5990   23.1510 C   0  0  0  0  0  3  0  0  0  0  0  0
  -25.8490  -32.5170   23.8150 C   0  0  0  0  0  3  0  0  0  0  0  0
  -25.5480  -33.9140   24.1540 N   0  0  0  0  0  0  0  0  0  0  0  0
  -25.8870  -34.9690   23.4010 C   0  0  0  0  0  0  0  0  0  0  0  0
  -26.5530  -34.8690   22.3680 O   0  0  0  0  0  0  0  0  0  0  0  0
  -24.9520  -34.0680   24.9540 H   0  0  0  0  0  0  0  0  0  0  0  0
  -24.1740  -36.7750   23.0600 C   0  0  0  0  0  1  0  0  0  0  0  0
  -25.4100  -36.3560   23.8700 C   0  0  0  0  0  3  0  0  0  0  0  0
  -27.5510  -37.2160   24.7100 C   0  0  0  0  0  1  0  0  0  0  0  0
  -26.4500  -37.4020   23.7680 N   0  0  0  0  0  0  0  0  0  0  0  0
  -26.0510  -38.3240   23.9210 H   0  0  0  0  0  0  0  0  0  0  0  0
  -26.3850  -31.7360   25.0770 C   0  0  1  0  0  0  0  0  0  0  0  0
  -25.3080  -31.4920   26.1610 C   0  0  0  0  0  1  0  0  0  0  0  0
  -26.9560  -30.3610   24.6590 C   0  0  0  0  0  1  0  0  0  0  0  0
  -27.5480  -32.5220   25.7250 C   0  0  0  0  0  1  0  0  0  0  0  0
  -29.0850  -20.6240   21.5500 C   0  0  0  0  0  2  0  0  0  0  0  0
  -29.4370  -19.4450   20.5990 C   0  0  0  0  0  2  0  0  0  0  0  0
  -30.9610  -18.4170   22.4100 C   0  0  0  0  0  1  0  0  0  0  0  0
  -29.8610  -18.1370   21.3690 C   0  0  0  0  0  3  0  0  0  0  0  0
  -30.3670  -15.6430   20.9490 C   0  0  0  0  0  3  0  0  0  0  0  0
  -30.3090  -16.9340   20.5200 C   0  0  0  0  0  0  0  0  0  0  0  0
  -30.9450  -14.5600   20.1410 C   0  0  0  0  0  0  0  0  0  0  0  0
  -30.5370  -12.4410   18.9440 C   0  0  0  0  0  2  0  0  0  0  0  0
  -29.5480  -12.6780   17.7830 C   0  0  0  0  0  2  0  0  0  0  0  0
  -28.0950  -12.5440   18.2690 C   0  0  0  0  0  2  0  0  0  0  0  0
  -27.8180  -13.3610   19.5560 C   0  0  0  0  0  3  0  0  0  0  0  0
  -28.9100  -13.1150   20.6190 C   0  0  0  0  0  2  0  0  0  0  0  0
  -30.2220  -13.4100   20.0140 N   0  0  0  0  0  0  0  0  0  0  0  0
  -32.0270  -14.7000   19.5670 O   0  0  0  0  0  0  0  0  0  0  0  0
  -25.4450  -13.9690   20.3480 C   0  0  0  0  0  0  0  0  0  0  0  0
  -24.3900  -13.1950   20.7620 C   0  0  0  0  0  0  0  0  0  0  0  0
  -24.8510  -11.8440   20.7150 C   0  0  0  0  0  0  0  0  0  0  0  0
  -26.4800  -13.0860   20.0820 N   0  0  0  0  0  0  0  0  0  0  0  0
  -26.1270  -11.8050   20.3580 N   0  0  0  0  0  0  0  0  0  0  0  0
  -24.1330  -10.5810   20.9270 C   0  0  0  0  0  0  0  0  0  0  0  0
  -24.5660   -9.6350   21.8830 C   0  0  0  0  0  3  0  0  0  0  0  0
  -23.8450   -8.4380   22.0820 C   0  0  0  0  0  3  0  0  0  0  0  0
  -22.6780   -8.1770   21.3230 C   0  0  0  0  0  0  0  0  0  0  0  0
  -22.2670   -9.1100   20.3530 C   0  0  0  0  0  3  0  0  0  0  0  0
  -22.9890  -10.2990   20.1530 C   0  0  0  0  0  3  0  0  0  0  0  0
  -21.9300   -7.0280   21.4310 O   0  0  0  0  0  0  0  0  0  0  0  0
  -21.8360   -6.3370   22.6120 C   0  0  0  0  0  0  0  0  0  0  0  0
  -21.3520   -6.9420   23.7930 C   0  0  0  0  0  3  0  0  0  0  0  0
  -21.2050   -6.1770   24.9670 C   0  0  0  0  0  3  0  0  0  0  0  0
  -21.5320   -4.8090   24.9610 C   0  0  0  0  0  0  0  0  0  0  0  0
  -22.0060   -4.2020   23.7860 C   0  0  0  0  0  3  0  0  0  0  0  0
  -22.1560   -4.9640   22.6140 C   0  0  0  0  0  0  0  0  0  0  0  0
  -22.5940   -4.3690   21.4780 F   0  0  0  0  0  0  0  0  0  0  0  0
  -21.3840   -4.0720   26.0880 F   0  0  0  0  0  0  0  0  0  0  0  0
  -23.0030  -13.6710   21.0870 C   0  0  0  0  0  0  0  0  0  0  0  0
  -22.3090  -12.9720   21.9780 N   0  0  0  0  0  0  0  0  0  0  0  0
  -22.5460  -14.6980   20.5900 O   0  0  0  0  0  0  0  0  0  0  0  0
  -22.6920  -12.1380   22.4010 H   0  0  0  0  0  0  0  0  0  0  0  0
  -21.3860  -13.2820   22.2450 H   0  0  0  0  0  0  0  0  0  0  0  0
  -25.6040  -15.3390   20.1600 N   0  0  0  0  0  0  0  0  0  0  0  0
  -24.8530  -16.0110   20.2720 H   0  0  0  0  0  0  0  0  0  0  0  0
  -26.4480  -15.7540   19.7820 H   0  0  0  0  0  0  0  0  0  0  0  0
  -30.6610  -17.3320   19.2880 O   0  0  0  0  0  0  0  0  0  0  0  0
  -30.5670  -18.2770   19.2640 H   0  0  0  0  0  0  0  0  0  0  0  0
  1 46  1  0
  2  3  1  0
  2  1  1  0
  4  5  1  0
  4  3  1  0
  6 17  2  0
  7  5  1  0
  7 12  1  0
  8 16  1  0
  8 18  1  0
  9 15  1  0
  9 11  1  0
 10 16  1  0
 11 10  1  0
 12 11  2  0
 13 14  1  0
 13  7  2  0
 14  9  2  0
 15  8  1  0
 16  6  1  0
 18 20  2  0
 19 18  1  0
 21 19  1  0
 22 31  2  0
 22 27  1  0
 23 19  1  0
 23 27  1  0
 24 23  1  0
 25 26  1  0
 25 24  1  0
 26 22  1  0
 27 28  2  0
 28 29  1  0
 30 29  2  0
 31 30  1  0
 32  6  1  0
 32 33  1  0
 32 42  1  0
 33 36  1  0
 34 38  1  0
 34 33  1  0
 35 34  2  0
 38 37  1  0
 40 38  1  0
 40 41  1  0
 40 39  1  0
 42 45  1  1
 42 43  1  0
 44 42  1  0
 47 49  1  0
 47 46  1  0
 49 48  1  0
 51 50  2  0
 51 49  1  0
 52 50  1  0
 53 58  1  0
 54 55  1  0
 54 53  1  0
 56 55  1  0
 56 63  1  0
 56 57  1  0
 58 52  1  0
 58 57  1  0
 59 52  2  0
 60 61  2  0
 61 80  1  0
 62 61  1  0
 62 65  1  0
 63 60  1  0
 63 64  1  0
 64 62  2  0
 65 66  1  0
 66 67  2  0
 68 71  1  0
 68 67  1  0
 69 68  2  0
 70 69  1  0
 70 65  2  0
 71 72  1  0
 72 77  2  0
 72 73  1  0
 73 74  2  0
 75 74  1  0
 75 79  1  0
 76 75  2  0
 77 76  1  0
 78 77  1  0
 80 81  1  0
 81 84  1  0
 81 83  1  0
 82 80  2  0
 85 86  1  0
 85 60  1  0
 87 85  1  0
 88 51  1  0
 89 88  1  0
M  ISO  4   4 101   5 101  50 100  52 100
M  END
>  <TORSDO>  (2) 
F 24

>  <SCORE>  (2) 
-12.062

>  <name>  (2) 
1

>  <ligand_id>  (2) 
1

>  <original_smiles>  (2) 
[H]OC(=C([H])C(=O)N1C([H])([H])C([H])([H])C([H])([H])C([H])(n2nc(-c3c([H])c([H])c(Oc4c([H])c([H])c(F)c([H])c4F)c([H])c3[H])c(C(=O)N([H])[H])c2N([H])[H])C1([H])[H])C([H])(C([H])([H])[H])C([H])([H])C([H])([H])C([H])([H])C([H])([H])C([H])([H])C([H])([H])Oc1c([H])c([H])c2c(c1[H])C([H])([H])N(C(=O)C([H])(N([H])C(=O)C([H])(N([H])C([H])([H])[H])C([H])([H])[H])C(C([H])([H])[H])(C([H])([H])[H])C([H])([H])[H])C([H])(C(=O)N([H])C1([H])c3c([H])c([H])c([H])c([H])c3C([H])([H])C([H])([H])C1([H])[H])C2([H])[H]

>  <smiles>  (2) 
[H]OC(=C([H])C(=O)N1C([H])([H])C([H])([H])C([H])([H])C([H])(n2nc(-c3c([H])c([H])c(Oc4c([H])c([H])c(F)c([H])c4F)c([H])c3[H])c(C(=O)N([H])[H])c2N([H])[H])C1([H])[H])C([H])(C([H])([H])[H])C([H])([H])C([H])([H])C([H])([H])C([H])([H])C([H])([H])C([H])([H])Oc1c([H])c([H])c2c(c1[H])C([H])([H])N(C(=O)C([H])(N([H])C(=O)C([H])(N([H])C([H])([H])[H])C([H])([H])[H])C(C([H])([H])[H])(C([H])([H])[H])C([H])([H])[H])C([H])(C(=O)N([H])C1([H])c3c([H])c([H])c([H])c([H])c3C([H])([H])C([H])([H])C1([H])[H])C2([H])[H]

$$$$
2:0:0
     RDKit          3D

 94102  0  0  1  0  0  0  0  0999 V2000
  -29.6000  -22.0070   22.5530 C   0  0  0  0  0  3  0  0  0  0  0  0
  -30.3790  -21.4850   20.3050 C   0  0  0  0  0  3  0  0  0  0  0  0
  -29.7150  -23.3810   22.2680 C   0  0  0  0  0  3  0  0  0  0  0  0
  -30.4840  -22.8580   20.0150 C   0  0  0  0  0  3  0  0  0  0  0  0
  -29.9210  -21.0540   21.5660 C   0  0  0  0  0  0  0  0  0  0  0  0
  -30.1450  -23.8120   20.9950 C   0  0  0  0  0  0  0  0  0  0  0  0
  -29.7510  -19.5730   21.8470 C   0  0  0  0  0  2  0  0  0  0  0  0
  -31.0390  -18.9030   22.3620 C   0  0  0  0  0  2  0  0  0  0  0  0
  -31.1630  -17.4210   21.9580 C   0  0  0  0  0  2  0  0  0  0  0  0
  -31.1100  -17.1690   20.4220 C   0  0  0  0  0  3  0  0  0  0  0  0
  -32.4860  -17.4370   19.7390 C   0  0  0  0  0  2  0  0  0  0  0  0
  -32.7550  -18.8880   19.3440 C   0  0  0  0  0  0  0  0  0  0  0  0
  -31.9320  -19.4610   18.1990 C   0  0  0  0  0  1  0  0  0  0  0  0
  -33.6350  -19.5550   19.8920 O   0  0  0  0  0  0  0  0  0  0  0  0
  -30.3660  -15.8300   20.0690 C   0  0  0  0  0  2  0  0  0  0  0  0
  -31.1320  -14.5080   19.7940 C   0  0  0  0  0  0  0  0  0  0  0  0
  -30.8130  -12.2170   18.9570 C   0  0  0  0  0  2  0  0  0  0  0  0
  -29.8400  -12.2770   17.7590 C   0  0  0  0  0  2  0  0  0  0  0  0
  -28.3740  -12.2100   18.2380 C   0  0  0  0  0  2  0  0  0  0  0  0
  -28.0750  -13.2040   19.3940 C   0  0  0  0  0  3  0  0  0  0  0  0
  -29.1570  -13.0930   20.4880 C   0  0  0  0  0  2  0  0  0  0  0  0
  -30.4700  -13.3200   19.8670 N   0  0  0  0  0  0  0  0  0  0  0  0
  -32.2520  -14.5750   19.2880 O   0  0  0  0  0  0  0  0  0  0  0  0
  -25.7500  -13.9320   20.2300 C   0  0  0  0  0  0  0  0  0  0  0  0
  -24.6620  -13.2110   20.6510 C   0  0  0  0  0  0  0  0  0  0  0  0
  -25.0510  -11.8380   20.5870 C   0  0  0  0  0  0  0  0  0  0  0  0
  -26.7350  -13.0000   19.9380 N   0  0  0  0  0  0  0  0  0  0  0  0
  -26.3190  -11.7360   20.2080 N   0  0  0  0  0  0  0  0  0  0  0  0
  -24.2760  -10.6110   20.8060 C   0  0  0  0  0  0  0  0  0  0  0  0
  -24.6470   -9.6650   21.7870 C   0  0  0  0  0  3  0  0  0  0  0  0
  -23.8730   -8.5030   21.9890 C   0  0  0  0  0  3  0  0  0  0  0  0
  -22.7120   -8.2800   21.2130 C   0  0  0  0  0  0  0  0  0  0  0  0
  -22.3600   -9.2130   20.2210 C   0  0  0  0  0  3  0  0  0  0  0  0
  -23.1360  -10.3670   20.0160 C   0  0  0  0  0  3  0  0  0  0  0  0
  -21.9130   -7.1680   21.3250 O   0  0  0  0  0  0  0  0  0  0  0  0
  -21.7420   -6.5220   22.5240 C   0  0  0  0  0  0  0  0  0  0  0  0
  -21.2230   -7.1860   23.6580 C   0  0  0  0  0  3  0  0  0  0  0  0
  -20.9910   -6.4670   24.8470 C   0  0  0  0  0  3  0  0  0  0  0  0
  -21.2720   -5.0890   24.9060 C   0  0  0  0  0  0  0  0  0  0  0  0
  -21.7850   -4.4260   23.7770 C   0  0  0  0  0  3  0  0  0  0  0  0
  -22.0140   -5.1400   22.5880 C   0  0  0  0  0  0  0  0  0  0  0  0
  -22.4870   -4.4940   21.4960 F   0  0  0  0  0  0  0  0  0  0  0  0
  -21.0440   -4.3970   26.0470 F   0  0  0  0  0  0  0  0  0  0  0  0
  -23.3080  -13.7570   20.9980 C   0  0  0  0  0  0  0  0  0  0  0  0
  -22.5990  -13.1040   21.9120 N   0  0  0  0  0  0  0  0  0  0  0  0
  -22.8920  -14.7980   20.4950 O   0  0  0  0  0  0  0  0  0  0  0  0
  -22.9480  -12.2640   22.3460 H   0  0  0  0  0  0  0  0  0  0  0  0
  -21.6940  -13.4610   22.1870 H   0  0  0  0  0  0  0  0  0  0  0  0
  -25.9770  -15.2930   20.0490 N   0  0  0  0  0  0  0  0  0  0  0  0
  -25.2590  -15.9920   20.1960 H   0  0  0  0  0  0  0  0  0  0  0  0
  -26.8350  -15.6830   19.6810 H   0  0  0  0  0  0  0  0  0  0  0  0
  -30.1950  -25.2950   20.6700 C   0  0  0  0  0  2  0  0  0  0  0  0
  -28.7890  -25.8980   20.6660 C   0  0  0  0  0  2  0  0  0  0  0  0
  -28.8270  -27.2340   20.1750 O   0  0  0  0  0  0  0  0  0  0  0  0
  -24.5780  -31.9520   23.3380 C   0  0  0  0  0  0  0  0  0  0  0  0
  -27.6000  -27.8460   20.1810 C   0  0  0  0  0  0  0  0  0  0  0  0
  -23.4990  -30.4830   21.6640 C   0  0  0  0  0  3  0  0  0  0  0  0
  -25.0800  -29.1070   20.2180 C   0  0  0  0  0  0  0  0  0  0  0  0
  -25.9770  -31.0750   21.4740 C   0  0  0  0  0  2  0  0  0  0  0  0
  -26.1840  -29.7310   20.8120 C   0  0  0  0  0  0  0  0  0  0  0  0
  -27.4500  -29.1100   20.7880 C   0  0  0  0  0  3  0  0  0  0  0  0
  -26.4800  -27.2290   19.5830 C   0  0  0  0  0  3  0  0  0  0  0  0
  -25.2190  -27.8520   19.6020 C   0  0  0  0  0  3  0  0  0  0  0  0
  -23.7660  -29.8460   20.2750 C   0  0  0  0  0  2  0  0  0  0  0  0
  -24.7020  -31.1820   22.2190 N   0  0  0  0  0  0  0  0  0  0  0  0
  -23.4760  -32.1200   23.8810 O   0  0  0  0  0  0  0  0  0  0  0  0
  -22.9380  -29.3910   22.6030 C   0  0  0  0  0  0  0  0  0  0  0  0
  -21.6510  -29.0570   22.4260 N   0  0  0  0  0  0  0  0  0  0  0  0
  -23.6590  -28.8470   23.4420 O   0  0  0  0  0  0  0  0  0  0  0  0
  -21.1250  -29.5560   21.7230 H   0  0  0  0  0  0  0  0  0  0  0  0
  -18.4470  -27.4170   22.7290 C   0  0  0  0  0  0  0  0  0  0  0  0
  -20.9190  -28.0300   23.1680 C   0  0  0  0  0  3  0  0  0  0  0  0
  -21.2570  -26.6150   22.6430 C   0  0  0  0  0  2  0  0  0  0  0  0
  -20.2850  -26.1240   21.5650 C   0  0  0  0  0  2  0  0  0  0  0  0
  -18.8540  -26.0900   22.1080 C   0  0  0  0  0  2  0  0  0  0  0  0
  -19.4170  -28.3330   23.2130 C   0  0  0  0  0  0  0  0  0  0  0  0
  -18.9870  -29.5690   23.7450 C   0  0  0  0  0  3  0  0  0  0  0  0
  -17.6180  -29.8900   23.8030 C   0  0  0  0  0  3  0  0  0  0  0  0
  -16.6600  -28.9710   23.3400 C   0  0  0  0  0  3  0  0  0  0  0  0
  -17.0750  -27.7380   22.8080 C   0  0  0  0  0  3  0  0  0  0  0  0
  -25.8050  -32.6770   23.9720 C   0  0  0  0  0  3  0  0  0  0  0  0
  -26.3230  -31.9840   25.2910 C   0  0  1  0  0  0  0  0  0  0  0  0
  -25.2090  -31.6940   26.3230 C   0  0  0  0  0  1  0  0  0  0  0  0
  -27.0220  -30.6440   24.9600 C   0  0  0  0  0  1  0  0  0  0  0  0
  -27.3840  -32.8780   25.9720 C   0  0  0  0  0  1  0  0  0  0  0  0
  -25.4150  -34.0680   24.2350 N   0  0  0  0  0  0  0  0  0  0  0  0
  -25.7400  -35.1090   23.4570 C   0  0  0  0  0  0  0  0  0  0  0  0
  -26.4740  -35.0040   22.4720 O   0  0  0  0  0  0  0  0  0  0  0  0
  -24.7750  -34.2170   25.0010 H   0  0  0  0  0  0  0  0  0  0  0  0
  -23.9610  -36.7990   22.9160 C   0  0  0  0  0  1  0  0  0  0  0  0
  -25.1560  -36.4860   23.8300 C   0  0  0  0  0  3  0  0  0  0  0  0
  -27.1880  -37.4930   24.7740 C   0  0  0  0  0  1  0  0  0  0  0  0
  -26.1460  -37.5820   23.7540 N   0  0  0  0  0  0  0  0  0  0  0  0
  -25.6900  -38.4870   23.8460 H   0  0  0  0  0  0  0  0  0  0  0  0
  2  5  1  0
  3  1  1  0
  4  2  2  0
  4  6  1  0
  5  7  1  0
  5  1  2  0
  6  3  2  0
  7  8  1  0
  9  8  1  0
 10 11  1  0
 10  9  1  0
 12 11  1  0
 12 14  2  0
 13 12  1  0
 15 10  1  0
 16 22  1  0
 16 15  1  0
 17 22  1  0
 18 19  1  0
 18 17  1  0
 20 19  1  0
 20 27  1  0
 20 21  1  0
 22 21  1  0
 23 16  2  0
 24 25  2  0
 25 44  1  0
 26 25  1  0
 26 29  1  0
 27 28  1  0
 27 24  1  0
 28 26  2  0
 29 30  1  0
 30 31  2  0
 32 35  1  0
 32 31  1  0
 33 32  2  0
 34 33  1  0
 34 29  2  0
 35 36  1  0
 36 41  2  0
 36 37  1  0
 37 38  2  0
 38 39  1  0
 39 43  1  0
 40 39  2  0
 41 40  1  0
 42 41  1  0
 44 45  1  0
 45 48  1  0
 45 47  1  0
 46 44  2  0
 49 50  1  0
 49 24  1  0
 51 49  1  0
 52  6  1  0
 53 52  1  0
 54 56  1  0
 54 53  1  0
 55 66  2  0
 56 61  1  0
 57 65  1  0
 57 67  1  0
 58 64  1  0
 58 60  1  0
 59 65  1  0
 60 59  1  0
 61 60  2  0
 62 63  1  0
 62 56  2  0
 63 58  2  0
 64 57  1  0
 65 55  1  0
 67 69  2  0
 68 67  1  0
 70 68  1  0
 71 80  2  0
 71 76  1  0
 72 68  1  0
 72 76  1  0
 73 72  1  0
 74 75  1  0
 74 73  1  0
 75 71  1  0
 76 77  2  0
 77 78  1  0
 79 78  2  0
 80 79  1  0
 81 55  1  0
 81 86  1  0
 81 82  1  0
 82 85  1  1
 82 83  1  0
 84 82  1  0
 86 89  1  0
 87 91  1  0
 87 86  1  0
 88 87  2  0
 91 90  1  0
 93 91  1  0
 93 94  1  0
 93 92  1  0
M  ISO  4  15 100  16 100  53 101  54 101
M  END
>  <TORSDO>  (3) 
F 25

>  <SCORE>  (3) 
-11.119

>  <name>  (3) 
2

>  <ligand_id>  (3) 
2

>  <original_smiles>  (3) 
[H]c1c([H])c([H])c2c(c1[H])C([H])([H])C([H])([H])C([H])([H])C2([H])N([H])C(=O)C1([H])N(C(=O)C([H])(N([H])C(=O)C([H])(N([H])C([H])([H])[H])C([H])([H])[H])C(C([H])([H])[H])(C([H])([H])[H])C([H])([H])[H])C([H])([H])c2c([H])c(OC([H])([H])C([H])([H])c3c([H])c([H])c(C([H])([H])C([H])([H])C([H])([H])C([H])(C([H])([H])C(=O)N4C([H])([H])C([H])([H])C([H])([H])C([H])(n5nc(-c6c([H])c([H])c(Oc7c([H])c([H])c(F)c([H])c7F)c([H])c6[H])c(C(=O)N([H])[H])c5N([H])[H])C4([H])[H])C([H])([H])C(=O)C([H])([H])[H])c([H])c3[H])c([H])c([H])c2C1([H])[H]

>  <smiles>  (3) 
[H]c1c([H])c([H])c2c(c1[H])C([H])([H])C([H])([H])C([H])([H])C2([H])N([H])C(=O)C1([H])N(C(=O)C([H])(N([H])C(=O)C([H])(N([H])C([H])([H])[H])C([H])([H])[H])C(C([H])([H])[H])(C([H])([H])[H])C([H])([H])[H])C([H])([H])c2c([H])c(OC([H])([H])C([H])([H])c3c([H])c([H])c(C([H])([H])C([H])([H])C([H])([H])C([H])(C([H])([H])C(=O)N4C([H])([H])C([H])([H])C([H])([H])C([H])(n5nc(-c6c([H])c([H])c(Oc7c([H])c([H])c(F)c([H])c7F)c([H])c6[H])c(C(=O)N([H])[H])c5N([H])[H])C4([H])[H])C([H])([H])C(=O)C([H])([H])[H])c([H])c3[H])c([H])c([H])c2C1([H])[H]

$$$$
3:0:0
     RDKit          3D

 94102  0  0  1  0  0  0  0  0999 V2000
  -29.6270  -20.6360   21.1260 C   0  0  0  0  0  3  0  0  0  0  0  0
  -29.7120  -19.2380   21.1840 C   0  0  0  0  0  3  0  0  0  0  0  0
  -29.9270  -20.5620   18.7160 C   0  0  0  0  0  3  0  0  0  0  0  0
  -29.6960  -21.3040   19.8890 C   0  0  0  0  0  0  0  0  0  0  0  0
  -30.0590  -19.1570   18.7640 C   0  0  0  0  0  0  0  0  0  0  0  0
  -29.8930  -18.4790   20.0020 C   0  0  0  0  0  0  0  0  0  0  0  0
  -31.6080  -18.9410   16.7390 C   0  0  0  0  0  1  0  0  0  0  0  0
  -29.1550  -18.2900   16.5580 C   0  0  0  0  0  1  0  0  0  0  0  0
  -30.3790  -18.3810   17.4810 C   0  0  0  0  0  3  0  0  0  0  0  0
  -29.5660  -22.7590   19.8320 C   0  0  0  0  0  3  0  0  0  0  0  0
  -30.0980  -23.5820   20.7550 C   0  0  0  0  0  3  0  0  0  0  0  0
  -29.8570  -25.0270   20.7620 C   0  0  0  0  0  0  0  0  0  0  0  0
  -30.6510  -25.8040   21.3030 O   0  0  0  0  0  0  0  0  0  0  0  0
  -28.5660  -25.5610   20.1230 C   0  0  0  0  0  2  0  0  0  0  0  0
  -28.5010  -26.9640   20.3240 O   0  0  0  0  0  0  0  0  0  0  0  0
  -24.5820  -32.0020   23.3480 C   0  0  0  0  0  0  0  0  0  0  0  0
  -27.2760  -27.5820   20.3130 C   0  0  0  0  0  0  0  0  0  0  0  0
  -23.3860  -30.5910   21.7000 C   0  0  0  0  0  3  0  0  0  0  0  0
  -24.8550  -29.0350   20.3090 C   0  0  0  0  0  0  0  0  0  0  0  0
  -25.9070  -30.9570   21.5220 C   0  0  0  0  0  2  0  0  0  0  0  0
  -26.0010  -29.5830   20.8960 C   0  0  0  0  0  0  0  0  0  0  0  0
  -27.2090  -28.8620   20.8920 C   0  0  0  0  0  3  0  0  0  0  0  0
  -26.1120  -27.0270   19.7310 C   0  0  0  0  0  3  0  0  0  0  0  0
  -24.9030  -27.7520   19.7300 C   0  0  0  0  0  3  0  0  0  0  0  0
  -23.6040  -29.8840   20.3350 C   0  0  0  0  0  2  0  0  0  0  0  0
  -24.6420  -31.1980   22.2490 N   0  0  0  0  0  0  0  0  0  0  0  0
  -23.4980  -32.2800   23.8770 O   0  0  0  0  0  0  0  0  0  0  0  0
  -22.7200  -29.5840   22.6640 C   0  0  0  0  0  0  0  0  0  0  0  0
  -21.3990  -29.3960   22.5120 N   0  0  0  0  0  0  0  0  0  0  0  0
  -23.3900  -28.9700   23.4970 O   0  0  0  0  0  0  0  0  0  0  0  0
  -20.9210  -29.9410   21.8080 H   0  0  0  0  0  0  0  0  0  0  0  0
  -18.0240  -28.2040   22.9540 C   0  0  0  0  0  0  0  0  0  0  0  0
  -20.5730  -28.4650   23.2750 C   0  0  0  0  0  3  0  0  0  0  0  0
  -20.6910  -27.0290   22.7130 C   0  0  0  0  0  2  0  0  0  0  0  0
  -19.6100  -26.6960   21.6800 C   0  0  0  0  0  2  0  0  0  0  0  0
  -18.2140  -26.8480   22.2940 C   0  0  0  0  0  2  0  0  0  0  0  0
  -19.1320  -28.9710   23.3980 C   0  0  0  0  0  0  0  0  0  0  0  0
  -18.9010  -30.2410   23.9720 C   0  0  0  0  0  3  0  0  0  0  0  0
  -17.5940  -30.7440   24.1050 C   0  0  0  0  0  3  0  0  0  0  0  0
  -16.4990  -29.9720   23.6820 C   0  0  0  0  0  3  0  0  0  0  0  0
  -16.7150  -28.7050   23.1100 C   0  0  0  0  0  3  0  0  0  0  0  0
  -25.8670  -32.6290   23.9780 C   0  0  0  0  0  3  0  0  0  0  0  0
  -25.5660  -34.0310   24.2960 N   0  0  0  0  0  0  0  0  0  0  0  0
  -25.9050  -35.0740   23.5250 C   0  0  0  0  0  0  0  0  0  0  0  0
  -26.5750  -34.9570   22.4960 O   0  0  0  0  0  0  0  0  0  0  0  0
  -24.9750  -34.1970   25.0980 H   0  0  0  0  0  0  0  0  0  0  0  0
  -24.1730  -36.8570   23.1580 C   0  0  0  0  0  1  0  0  0  0  0  0
  -25.4200  -36.4690   23.9670 C   0  0  0  0  0  3  0  0  0  0  0  0
  -27.5610  -37.3610   24.7700 C   0  0  0  0  0  1  0  0  0  0  0  0
  -26.4530  -37.5190   23.8330 N   0  0  0  0  0  0  0  0  0  0  0  0
  -26.0480  -38.4410   23.9740 H   0  0  0  0  0  0  0  0  0  0  0  0
  -26.3720  -31.8620   25.2610 C   0  0  1  0  0  0  0  0  0  0  0  0
  -25.2690  -31.6230   26.3180 C   0  0  0  0  0  1  0  0  0  0  0  0
  -26.9600  -30.4840   24.8770 C   0  0  0  0  0  1  0  0  0  0  0  0
  -27.5150  -32.6600   25.9330 C   0  0  0  0  0  1  0  0  0  0  0  0
  -29.9380  -17.1040   19.9800 O   0  0  0  0  0  0  0  0  0  0  0  0
  -29.4550  -16.3200   21.0700 C   0  0  0  0  0  2  0  0  0  0  0  0
  -30.5380  -15.3020   21.4530 C   0  0  0  0  0  2  0  0  0  0  0  0
  -30.8780  -14.3580   20.2930 C   0  0  0  0  0  0  0  0  0  0  0  0
  -30.4230  -12.3240   18.9720 C   0  0  0  0  0  2  0  0  0  0  0  0
  -29.4410  -12.5930   17.8170 C   0  0  0  0  0  2  0  0  0  0  0  0
  -27.9850  -12.4570   18.3000 C   0  0  0  0  0  2  0  0  0  0  0  0
  -27.7130  -13.2750   19.5880 C   0  0  0  0  0  3  0  0  0  0  0  0
  -28.7960  -12.9890   20.6570 C   0  0  0  0  0  2  0  0  0  0  0  0
  -30.1170  -13.2570   20.0650 N   0  0  0  0  0  0  0  0  0  0  0  0
  -31.8710  -14.6310   19.6120 O   0  0  0  0  0  0  0  0  0  0  0  0
  -25.3420  -13.9210   20.3640 C   0  0  0  0  0  0  0  0  0  0  0  0
  -24.2750  -13.1620   20.7680 C   0  0  0  0  0  0  0  0  0  0  0  0
  -24.7190  -11.8040   20.7250 C   0  0  0  0  0  0  0  0  0  0  0  0
  -26.3680  -13.0250   20.1040 N   0  0  0  0  0  0  0  0  0  0  0  0
  -25.9970  -11.7480   20.3780 N   0  0  0  0  0  0  0  0  0  0  0  0
  -23.9840  -10.5500   20.9400 C   0  0  0  0  0  0  0  0  0  0  0  0
  -24.4250   -9.5870   21.8740 C   0  0  0  0  0  3  0  0  0  0  0  0
  -23.6930   -8.3960   22.0740 C   0  0  0  0  0  3  0  0  0  0  0  0
  -22.5070   -8.1600   21.3390 C   0  0  0  0  0  0  0  0  0  0  0  0
  -22.0860   -9.1130   20.3940 C   0  0  0  0  0  3  0  0  0  0  0  0
  -22.8190  -10.2940   20.1930 C   0  0  0  0  0  3  0  0  0  0  0  0
  -21.7470   -7.0220   21.4490 O   0  0  0  0  0  0  0  0  0  0  0  0
  -21.6980   -6.2960   22.6130 C   0  0  0  0  0  0  0  0  0  0  0  0
  -21.2940   -6.8770   23.8350 C   0  0  0  0  0  3  0  0  0  0  0  0
  -21.1920   -6.0810   24.9930 C   0  0  0  0  0  3  0  0  0  0  0  0
  -21.4840   -4.7060   24.9320 C   0  0  0  0  0  0  0  0  0  0  0  0
  -21.8820   -4.1250   23.7150 C   0  0  0  0  0  3  0  0  0  0  0  0
  -21.9860   -4.9180   22.5580 C   0  0  0  0  0  0  0  0  0  0  0  0
  -22.3490   -4.3490   21.3840 F   0  0  0  0  0  0  0  0  0  0  0  0
  -21.3780   -3.9390   26.0420 F   0  0  0  0  0  0  0  0  0  0  0  0
  -22.8920  -13.6550   21.0800 C   0  0  0  0  0  0  0  0  0  0  0  0
  -22.1820  -12.9690   21.9700 N   0  0  0  0  0  0  0  0  0  0  0  0
  -22.4470  -14.6830   20.5710 O   0  0  0  0  0  0  0  0  0  0  0  0
  -22.5520  -12.1380   22.4060 H   0  0  0  0  0  0  0  0  0  0  0  0
  -21.2540  -13.2810   22.2180 H   0  0  0  0  0  0  0  0  0  0  0  0
  -25.5170  -15.2900   20.1750 N   0  0  0  0  0  0  0  0  0  0  0  0
  -24.7610  -15.9550   20.2990 H   0  0  0  0  0  0  0  0  0  0  0  0
  -26.3570  -15.7120   19.8000 H   0  0  0  0  0  0  0  0  0  0  0  0
  1  2  1  0
  3  5  2  0
  3  4  1  0
  4  1  2  0
  5  6  1  0
  6  2  2  0
  7  9  1  0
  8  9  1  0
  9  5  1  0
 10  4  1  0
 10 11  2  0
 11 12  1  0
 12 13  2  0
 14 15  1  0
 14 12  1  0
 16 27  2  0
 17 15  1  0
 17 22  1  0
 18 26  1  0
 18 28  1  0
 19 25  1  0
 19 21  1  0
 20 26  1  0
 21 20  1  0
 22 21  2  0
 23 17  2  0
 24 23  1  0
 24 19  2  0
 25 18  1  0
 26 16  1  0
 28 30  2  0
 29 28  1  0
 31 29  1  0
 32 41  2  0
 32 37  1  0
 33 29  1  0
 33 37  1  0
 34 33  1  0
 35 36  1  0
 35 34  1  0
 36 32  1  0
 37 38  2  0
 38 39  1  0
 40 39  2  0
 41 40  1  0
 42 16  1  0
 42 43  1  0
 42 52  1  0
 43 46  1  0
 44 48  1  0
 44 43  1  0
 45 44  2  0
 48 47  1  0
 50 48  1  0
 50 51  1  0
 50 49  1  0
 52 55  1  1
 52 53  1  0
 54 52  1  0
 56  6  1  0
 56 57  1  0
 57 58  1  0
 59 58  1  0
 60 65  1  0
 61 62  1  0
 61 60  1  0
 63 62  1  0
 63 70  1  0
 63 64  1  0
 65 59  1  0
 65 64  1  0
 66 59  2  0
 67 68  2  0
 68 87  1  0
 69 68  1  0
 69 72  1  0
 70 67  1  0
 70 71  1  0
 71 69  2  0
 72 73  1  0
 73 74  2  0
 75 78  1  0
 75 74  1  0
 76 75  2  0
 77 76  1  0
 77 72  2  0
 78 79  1  0
 79 80  1  0
 80 81  2  0
 82 81  1  0
 82 86  1  0
 83 82  2  0
 84 79  2  0
 84 83  1  0
 85 84  1  0
 87 88  1  0
 88 91  1  0
 88 90  1  0
 89 87  2  0
 92 93  1  0
 92 67  1  0
 94 92  1  0
M  ISO  4  14 101  15 101  58 100  59 100
M  END
>  <TORSDO>  (4) 
F 23

>  <SCORE>  (4) 
-12.717

>  <name>  (4) 
3

>  <ligand_id>  (4) 
3

>  <original_smiles>  (4) 
[H]C(C(=O)C([H])([H])Oc1c([H])c([H])c2c(c1[H])C([H])([H])N(C(=O)C([H])(N([H])C(=O)C([H])(N([H])C([H])([H])[H])C([H])([H])[H])C(C([H])([H])[H])(C([H])([H])[H])C([H])([H])[H])C([H])(C(=O)N([H])C1([H])c3c([H])c([H])c([H])c([H])c3C([H])([H])C([H])([H])C1([H])[H])C2([H])[H])=C([H])c1c([H])c([H])c(OC([H])([H])C([H])([H])C(=O)N2C([H])([H])C([H])([H])C([H])([H])C([H])(n3nc(-c4c([H])c([H])c(Oc5c([H])c([H])c(F)c([H])c5F)c([H])c4[H])c(C(=O)N([H])[H])c3N([H])[H])C2([H])[H])c(C([H])(C([H])([H])[H])C([H])([H])[H])c1[H]

>  <smiles>  (4) 
[H]C(C(=O)C([H])([H])Oc1c([H])c([H])c2c(c1[H])C([H])([H])N(C(=O)C([H])(N([H])C(=O)C([H])(N([H])C([H])([H])[H])C([H])([H])[H])C(C([H])([H])[H])(C([H])([H])[H])C([H])([H])[H])C([H])(C(=O)N([H])C1([H])c3c([H])c([H])c([H])c([H])c3C([H])([H])C([H])([H])C1([H])[H])C2([H])[H])=C([H])c1c([H])c([H])c(OC([H])([H])C([H])([H])C(=O)N2C([H])([H])C([H])([H])C([H])([H])C([H])(n3nc(-c4c([H])c([H])c(Oc5c([H])c([H])c(F)c([H])c5F)c([H])c4[H])c(C(=O)N([H])[H])c3N([H])[H])C2([H])[H])c(C([H])(C([H])([H])[H])C([H])([H])[H])c1[H]

$$$$
4:0:0
     RDKit          3D

 93101  0  0  1  0  0  0  0  0999 V2000
  -29.2750  -22.3320   23.6870 C   0  0  0  0  0  3  0  0  0  0  0  0
  -29.9920  -22.6550   21.3860 C   0  0  0  0  0  3  0  0  0  0  0  0
  -29.8130  -21.0270   23.6750 C   0  0  0  0  0  3  0  0  0  0  0  0
  -30.5270  -21.3500   21.3720 C   0  0  0  0  0  3  0  0  0  0  0  0
  -29.3430  -23.1560   22.5390 C   0  0  0  0  0  0  0  0  0  0  0  0
  -30.4310  -20.5190   22.5130 C   0  0  0  0  0  0  0  0  0  0  0  0
  -31.0430  -19.1450   22.5110 C   0  0  0  0  0  0  0  0  0  0  0  0
  -30.7470  -18.3870   21.4480 N   0  0  0  0  0  0  0  0  0  0  0  0
  -31.7670  -18.7640   23.4340 O   0  0  0  0  0  0  0  0  0  0  0  0
  -30.0900  -18.7880   20.7920 H   0  0  0  0  0  0  0  0  0  0  0  0
  -31.4560  -17.1760   21.0300 C   0  0  0  0  0  2  0  0  0  0  0  0
  -30.7310  -15.8530   21.3850 C   0  0  0  0  0  2  0  0  0  0  0  0
  -31.3660  -14.6260   20.6950 C   0  0  0  0  0  0  0  0  0  0  0  0
  -31.0410  -12.4440   19.5890 C   0  0  0  0  0  2  0  0  0  0  0  0
  -30.1610  -12.6340   18.3370 C   0  0  0  0  0  2  0  0  0  0  0  0
  -28.6660  -12.5550   18.7050 C   0  0  0  0  0  2  0  0  0  0  0  0
  -28.3010  -13.4570   19.9150 C   0  0  0  0  0  3  0  0  0  0  0  0
  -29.2990  -13.2550   21.0780 C   0  0  0  0  0  2  0  0  0  0  0  0
  -30.6570  -13.4760   20.5630 N   0  0  0  0  0  0  0  0  0  0  0  0
  -32.4910  -14.7560   20.1980 O   0  0  0  0  0  0  0  0  0  0  0  0
  -25.9060  -14.1680   20.5370 C   0  0  0  0  0  0  0  0  0  0  0  0
  -24.7920  -13.4420   20.8630 C   0  0  0  0  0  0  0  0  0  0  0  0
  -25.1940  -12.0720   20.8430 C   0  0  0  0  0  0  0  0  0  0  0  0
  -26.9200  -13.2420   20.3420 N   0  0  0  0  0  0  0  0  0  0  0  0
  -26.4920  -11.9760   20.5810 N   0  0  0  0  0  0  0  0  0  0  0  0
  -24.4070  -10.8410   21.0020 C   0  0  0  0  0  0  0  0  0  0  0  0
  -24.7350   -9.8760   21.9780 C   0  0  0  0  0  3  0  0  0  0  0  0
  -23.9520   -8.7110   22.1250 C   0  0  0  0  0  3  0  0  0  0  0  0
  -22.8260   -8.5040   21.2920 C   0  0  0  0  0  0  0  0  0  0  0  0
  -22.5170   -9.4580   20.3060 C   0  0  0  0  0  3  0  0  0  0  0  0
  -23.3010  -10.6150   20.1600 C   0  0  0  0  0  3  0  0  0  0  0  0
  -22.0220   -7.3910   21.3440 O   0  0  0  0  0  0  0  0  0  0  0  0
  -21.7820   -6.7310   22.5230 C   0  0  0  0  0  0  0  0  0  0  0  0
  -21.1990   -7.3780   23.6340 C   0  0  0  0  0  3  0  0  0  0  0  0
  -20.9060   -6.6450   24.8010 C   0  0  0  0  0  3  0  0  0  0  0  0
  -21.1850   -5.2670   24.8570 C   0  0  0  0  0  0  0  0  0  0  0  0
  -21.7620   -4.6200   23.7500 C   0  0  0  0  0  3  0  0  0  0  0  0
  -22.0560   -5.3490   22.5860 C   0  0  0  0  0  0  0  0  0  0  0  0
  -22.5920   -4.7170   21.5140 F   0  0  0  0  0  0  0  0  0  0  0  0
  -20.8970   -4.5610   25.9760 F   0  0  0  0  0  0  0  0  0  0  0  0
  -23.4080  -13.9800   21.0900 C   0  0  0  0  0  0  0  0  0  0  0  0
  -22.6320  -13.3290   21.9490 N   0  0  0  0  0  0  0  0  0  0  0  0
  -23.0240  -15.0100   20.5390 O   0  0  0  0  0  0  0  0  0  0  0  0
  -22.9560  -12.4940   22.4160 H   0  0  0  0  0  0  0  0  0  0  0  0
  -21.7010  -13.6680   22.1440 H   0  0  0  0  0  0  0  0  0  0  0  0
  -26.1370  -15.5310   20.3690 N   0  0  0  0  0  0  0  0  0  0  0  0
  -25.3970  -16.2190   20.4490 H   0  0  0  0  0  0  0  0  0  0  0  0
  -27.0220  -15.9320   20.0880 H   0  0  0  0  0  0  0  0  0  0  0  0
  -28.7790  -24.5400   22.5940 C   0  0  0  0  0  0  0  0  0  0  0  0
  -28.6510  -25.1670   23.6500 O   0  0  0  0  0  0  0  0  0  0  0  0
  -28.2890  -25.1860   21.2940 C   0  0  0  0  0  2  0  0  0  0  0  0
  -29.1480  -26.3920   20.8660 C   0  0  0  0  0  2  0  0  0  0  0  0
  -28.6860  -26.9480   19.6340 O   0  0  0  0  0  0  0  0  0  0  0  0
  -24.6690  -31.6890   23.1130 C   0  0  0  0  0  0  0  0  0  0  0  0
  -27.4970  -27.6220   19.7270 C   0  0  0  0  0  0  0  0  0  0  0  0
  -23.5110  -30.3280   21.4000 C   0  0  0  0  0  3  0  0  0  0  0  0
  -25.0240  -28.9650   19.8640 C   0  0  0  0  0  0  0  0  0  0  0  0
  -26.0060  -30.8410   21.1930 C   0  0  0  0  0  2  0  0  0  0  0  0
  -26.1560  -29.5190   20.4740 C   0  0  0  0  0  0  0  0  0  0  0  0
  -27.3970  -28.8500   20.4150 C   0  0  0  0  0  3  0  0  0  0  0  0
  -26.3560  -27.0770   19.1050 C   0  0  0  0  0  3  0  0  0  0  0  0
  -25.1160  -27.7380   19.1810 C   0  0  0  0  0  3  0  0  0  0  0  0
  -23.7350  -29.7470   19.9780 C   0  0  0  0  0  2  0  0  0  0  0  0
  -24.7460  -30.9640   21.9620 N   0  0  0  0  0  0  0  0  0  0  0  0
  -23.5840  -31.8700   23.6850 O   0  0  0  0  0  0  0  0  0  0  0  0
  -22.9340  -29.2150   22.3040 C   0  0  0  0  0  0  0  0  0  0  0  0
  -21.6180  -28.9730   22.1870 N   0  0  0  0  0  0  0  0  0  0  0  0
  -23.6640  -28.5740   23.0640 O   0  0  0  0  0  0  0  0  0  0  0  0
  -21.0890  -29.5500   21.5480 H   0  0  0  0  0  0  0  0  0  0  0  0
  -18.3190  -27.5750   22.6450 C   0  0  0  0  0  0  0  0  0  0  0  0
  -20.8620  -27.9490   22.9080 C   0  0  0  0  0  3  0  0  0  0  0  0
  -21.0330  -26.5640   22.2440 C   0  0  0  0  0  2  0  0  0  0  0  0
  -19.9360  -26.2450   21.2240 C   0  0  0  0  0  2  0  0  0  0  0  0
  -18.5570  -26.2770   21.8900 C   0  0  0  0  0  2  0  0  0  0  0  0
  -19.4020  -28.3660   23.1090 C   0  0  0  0  0  0  0  0  0  0  0  0
  -19.1270  -29.5800   23.7760 C   0  0  0  0  0  3  0  0  0  0  0  0
  -17.8010  -30.0020   23.9850 C   0  0  0  0  0  3  0  0  0  0  0  0
  -16.7320  -29.2060   23.5380 C   0  0  0  0  0  3  0  0  0  0  0  0
  -16.9920  -27.9940   22.8740 C   0  0  0  0  0  3  0  0  0  0  0  0
  -25.9310  -32.3470   23.7530 C   0  0  0  0  0  3  0  0  0  0  0  0
  -25.5750  -33.7250   24.1160 N   0  0  0  0  0  0  0  0  0  0  0  0
  -25.8840  -34.8070   23.3870 C   0  0  0  0  0  0  0  0  0  0  0  0
  -26.5710  -34.7510   22.3630 O   0  0  0  0  0  0  0  0  0  0  0  0
  -24.9580  -33.8390   24.9060 H   0  0  0  0  0  0  0  0  0  0  0  0
  -24.1040  -36.5520   23.0520 C   0  0  0  0  0  1  0  0  0  0  0  0
  -25.3450  -36.1660   23.8720 C   0  0  0  0  0  3  0  0  0  0  0  0
  -27.4360  -37.0950   24.7600 C   0  0  0  0  0  1  0  0  0  0  0  0
  -26.3450  -37.2530   23.8030 N   0  0  0  0  0  0  0  0  0  0  0  0
  -25.9090  -38.1560   23.9680 H   0  0  0  0  0  0  0  0  0  0  0  0
  -26.4730  -31.5590   25.0090 C   0  0  1  0  0  0  0  0  0  0  0  0
  -25.3860  -31.2540   26.0670 C   0  0  0  0  0  1  0  0  0  0  0  0
  -27.1040  -30.2160   24.5770 C   0  0  0  0  0  1  0  0  0  0  0  0
  -27.5940  -32.3740   25.6940 C   0  0  0  0  0  1  0  0  0  0  0  0
  2  5  1  0
  3  1  1  0
  4  2  2  0
  4  6  1  0
  5 49  1  0
  5  1  2  0
  6  3  2  0
  7  6  1  0
  7  9  2  0
  8  7  1  0
 10  8  1  0
 11 12  1  0
 11  8  1  0
 13 12  1  0
 14 19  1  0
 15 16  1  0
 15 14  1  0
 17 16  1  0
 17 24  1  0
 17 18  1  0
 19 13  1  0
 19 18  1  0
 20 13  2  0
 21 22  2  0
 22 41  1  0
 23 22  1  0
 23 26  1  0
 24 21  1  0
 24 25  1  0
 25 23  2  0
 26 27  1  0
 27 28  2  0
 29 32  1  0
 29 28  1  0
 30 29  2  0
 31 30  1  0
 31 26  2  0
 32 33  1  0
 33 38  2  0
 33 34  1  0
 34 35  2  0
 35 36  1  0
 36 40  1  0
 37 36  2  0
 38 37  1  0
 39 38  1  0
 41 42  1  0
 42 45  1  0
 42 44  1  0
 43 41  2  0
 46 47  1  0
 46 21  1  0
 48 46  1  0
 49 50  2  0
 51 49  1  0
 52 51  1  0
 53 55  1  0
 53 52  1  0
 54 65  2  0
 55 60  1  0
 56 64  1  0
 56 66  1  0
 57 63  1  0
 57 59  1  0
 58 64  1  0
 59 58  1  0
 60 59  2  0
 61 62  1  0
 61 55  2  0
 62 57  2  0
 63 56  1  0
 64 54  1  0
 66 68  2  0
 67 66  1  0
 69 67  1  0
 70 79  2  0
 70 75  1  0
 71 67  1  0
 71 75  1  0
 72 71  1  0
 73 74  1  0
 73 72  1  0
 74 70  1  0
 75 76  2  0
 76 77  1  0
 78 77  2  0
 79 78  1  0
 80 54  1  0
 80 81  1  0
 80 90  1  0
 81 84  1  0
 82 86  1  0
 82 81  1  0
 83 82  2  0
 86 85  1  0
 88 86  1  0
 88 89  1  0
 88 87  1  0
 90 93  1  1
 90 91  1  0
 92 90  1  0
M  ISO  4  12 100  13 100  52 101  53 101
M  END
>  <TORSDO>  (5) 
F 22

>  <SCORE>  (5) 
-11.043

>  <name>  (5) 
4

>  <ligand_id>  (5) 
4

>  <original_smiles>  (5) 
[H]c1c([H])c([H])c2c(c1[H])C([H])([H])C([H])([H])C([H])([H])C2([H])N([H])C(=O)C1([H])N(C(=O)C([H])(N([H])C(=O)C([H])(N([H])C([H])([H])[H])C([H])([H])[H])C(C([H])([H])[H])(C([H])([H])[H])C([H])([H])[H])C([H])([H])c2c([H])c(OC([H])([H])C([H])([H])C(=O)c3c([H])c([H])c(C(=O)N([H])C([H])([H])C([H])([H])C(=O)N4C([H])([H])C([H])([H])C([H])([H])C([H])(n5nc(-c6c([H])c([H])c(Oc7c([H])c([H])c(F)c([H])c7F)c([H])c6[H])c(C(=O)N([H])[H])c5N([H])[H])C4([H])[H])c([H])c3[H])c([H])c([H])c2C1([H])[H]

>  <smiles>  (5) 
[H]c1c([H])c([H])c2c(c1[H])C([H])([H])C([H])([H])C([H])([H])C2([H])N([H])C(=O)C1([H])N(C(=O)C([H])(N([H])C(=O)C([H])(N([H])C([H])([H])[H])C([H])([H])[H])C(C([H])([H])[H])(C([H])([H])[H])C([H])([H])[H])C([H])([H])c2c([H])c(OC([H])([H])C([H])([H])C(=O)c3c([H])c([H])c(C(=O)N([H])C([H])([H])C([H])([H])C(=O)N4C([H])([H])C([H])([H])C([H])([H])C([H])(n5nc(-c6c([H])c([H])c(Oc7c([H])c([H])c(F)c([H])c7F)c([H])c6[H])c(C(=O)N([H])[H])c5N([H])[H])C4([H])[H])c([H])c3[H])c([H])c([H])c2C1([H])[H]

$$$$
5:0:0
     RDKit          3D

 96105  0  0  1  0  0  0  0  0999 V2000
  -29.5460  -23.1890   23.5660 C   0  0  0  0  0  3  0  0  0  0  0  0
  -29.3880  -24.5840   23.6640 C   0  0  0  0  0  3  0  0  0  0  0  0
  -29.0110  -23.3100   21.1940 C   0  0  0  0  0  3  0  0  0  0  0  0
  -29.3600  -22.5440   22.3280 C   0  0  0  0  0  0  0  0  0  0  0  0
  -28.8700  -24.7150   21.2770 C   0  0  0  0  0  0  0  0  0  0  0  0
  -29.0580  -25.3490   22.5290 C   0  0  0  0  0  0  0  0  0  0  0  0
  -28.9380  -26.6920   22.6710 F   0  0  0  0  0  0  0  0  0  0  0  0
  -29.5750  -21.0400   22.2100 C   0  0  0  0  0  2  0  0  0  0  0  0
  -32.3340  -20.0810   19.7040 C   0  0  0  0  0  2  0  0  0  0  0  0
  -31.1610  -20.9690   20.1470 C   0  0  0  0  0  2  0  0  0  0  0  0
  -32.7760  -19.3310   20.9660 C   0  0  0  0  0  2  0  0  0  0  0  0
  -30.9760  -20.7060   21.6520 C   0  0  0  0  0  3  0  0  0  0  0  0
  -31.5290  -19.2810   21.8770 C   0  0  0  0  0  3  0  0  0  0  0  0
  -30.5500  -18.2110   21.5150 N   0  0  0  0  0  4  0  0  0  0  0  0
  -30.0400  -18.4990   20.6950 H   0  0  0  0  0  0  0  0  0  0  0  0
  -29.8890  -18.1290   22.2730 H   0  0  0  0  0  0  0  0  0  0  0  0
  -31.1430  -16.8780   21.2490 C   0  0  0  0  0  2  0  0  0  0  0  0
  -30.1300  -15.7000   21.1590 C   0  0  0  0  0  2  0  0  0  0  0  0
  -30.7080  -14.5010   20.3770 C   0  0  0  0  0  0  0  0  0  0  0  0
  -30.3310  -12.3840   19.1770 C   0  0  0  0  0  2  0  0  0  0  0  0
  -29.3880  -12.6310   17.9830 C   0  0  0  0  0  2  0  0  0  0  0  0
  -27.9170  -12.5040   18.4230 C   0  0  0  0  0  2  0  0  0  0  0  0
  -27.6000  -13.3300   19.6980 C   0  0  0  0  0  3  0  0  0  0  0  0
  -28.6620  -13.0930   20.7960 C   0  0  0  0  0  2  0  0  0  0  0  0
  -29.9890  -13.3580   20.2230 N   0  0  0  0  0  0  0  0  0  0  0  0
  -31.8010  -14.6490   19.8240 O   0  0  0  0  0  0  0  0  0  0  0  0
  -25.2050  -13.9400   20.4140 C   0  0  0  0  0  0  0  0  0  0  0  0
  -24.1390  -13.1700   20.7950 C   0  0  0  0  0  0  0  0  0  0  0  0
  -24.6010  -11.8180   20.7710 C   0  0  0  0  0  0  0  0  0  0  0  0
  -26.2490  -13.0590   20.1860 N   0  0  0  0  0  0  0  0  0  0  0  0
  -25.8900  -11.7780   20.4570 N   0  0  0  0  0  0  0  0  0  0  0  0
  -23.8770  -10.5560   20.9740 C   0  0  0  0  0  0  0  0  0  0  0  0
  -24.3160   -9.5950   21.9110 C   0  0  0  0  0  3  0  0  0  0  0  0
  -23.5930   -8.3990   22.1020 C   0  0  0  0  0  3  0  0  0  0  0  0
  -22.4170   -8.1530   21.3550 C   0  0  0  0  0  0  0  0  0  0  0  0
  -21.9960   -9.1030   20.4080 C   0  0  0  0  0  3  0  0  0  0  0  0
  -22.7190  -10.2920   20.2160 C   0  0  0  0  0  3  0  0  0  0  0  0
  -21.6650   -7.0080   21.4550 O   0  0  0  0  0  0  0  0  0  0  0  0
  -21.6270   -6.2700   22.6110 C   0  0  0  0  0  0  0  0  0  0  0  0
  -21.2170   -6.8310   23.8400 C   0  0  0  0  0  3  0  0  0  0  0  0
  -21.1260   -6.0210   24.9880 C   0  0  0  0  0  3  0  0  0  0  0  0
  -21.4310   -4.6490   24.9090 C   0  0  0  0  0  0  0  0  0  0  0  0
  -21.8330   -4.0870   23.6850 C   0  0  0  0  0  3  0  0  0  0  0  0
  -21.9270   -4.8950   22.5380 C   0  0  0  0  0  0  0  0  0  0  0  0
  -22.2940   -4.3440   21.3560 F   0  0  0  0  0  0  0  0  0  0  0  0
  -21.3360   -3.8680   26.0100 F   0  0  0  0  0  0  0  0  0  0  0  0
  -22.7420  -13.6480   21.0710 C   0  0  0  0  0  0  0  0  0  0  0  0
  -22.0210  -12.9570   21.9460 N   0  0  0  0  0  0  0  0  0  0  0  0
  -22.3000  -14.6680   20.5450 O   0  0  0  0  0  0  0  0  0  0  0  0
  -22.3910  -12.1310   22.3930 H   0  0  0  0  0  0  0  0  0  0  0  0
  -21.0830  -13.2580   22.1730 H   0  0  0  0  0  0  0  0  0  0  0  0
  -25.3690  -15.3090   20.2270 N   0  0  0  0  0  0  0  0  0  0  0  0
  -24.6030  -15.9650   20.3330 H   0  0  0  0  0  0  0  0  0  0  0  0
  -26.2180  -15.7450   19.8900 H   0  0  0  0  0  0  0  0  0  0  0  0
  -28.5480  -25.4720   19.9900 C   0  0  0  0  0  2  0  0  0  0  0  0
  -28.4880  -26.8980   20.1100 O   0  0  0  0  0  0  0  0  0  0  0  0
  -24.6160  -31.9650   23.2430 C   0  0  0  0  0  0  0  0  0  0  0  0
  -27.2740  -27.5520   20.1380 C   0  0  0  0  0  0  0  0  0  0  0  0
  -23.4090  -30.5570   21.6070 C   0  0  0  0  0  3  0  0  0  0  0  0
  -24.8620  -29.0360   20.1740 C   0  0  0  0  0  0  0  0  0  0  0  0
  -25.9320  -30.9350   21.3970 C   0  0  0  0  0  2  0  0  0  0  0  0
  -26.0190  -29.5680   20.7560 C   0  0  0  0  0  0  0  0  0  0  0  0
  -27.2240  -28.8310   20.7350 C   0  0  0  0  0  3  0  0  0  0  0  0
  -26.0950  -27.0360   19.5490 C   0  0  0  0  0  3  0  0  0  0  0  0
  -24.8950  -27.7670   19.5730 C   0  0  0  0  0  3  0  0  0  0  0  0
  -23.6150  -29.8860   20.2250 C   0  0  0  0  0  2  0  0  0  0  0  0
  -24.6700  -31.1690   22.1390 N   0  0  0  0  0  0  0  0  0  0  0  0
  -23.5360  -32.2290   23.7900 O   0  0  0  0  0  0  0  0  0  0  0  0
  -22.7760  -29.5260   22.5690 C   0  0  0  0  0  0  0  0  0  0  0  0
  -21.4540  -29.3280   22.4460 N   0  0  0  0  0  0  0  0  0  0  0  0
  -23.4700  -28.9070   23.3800 O   0  0  0  0  0  0  0  0  0  0  0  0
  -20.9540  -29.8830   21.7650 H   0  0  0  0  0  0  0  0  0  0  0  0
  -18.0950  -28.0970   22.9460 C   0  0  0  0  0  0  0  0  0  0  0  0
  -20.6490  -28.3850   23.2210 C   0  0  0  0  0  3  0  0  0  0  0  0
  -20.7700  -26.9530   22.6490 C   0  0  0  0  0  2  0  0  0  0  0  0
  -19.6740  -26.6150   21.6350 C   0  0  0  0  0  2  0  0  0  0  0  0
  -18.2880  -26.7470   22.2770 C   0  0  0  0  0  2  0  0  0  0  0  0
  -19.2060  -28.8720   23.3750 C   0  0  0  0  0  0  0  0  0  0  0  0
  -18.9720  -30.1350   23.9610 C   0  0  0  0  0  3  0  0  0  0  0  0
  -17.6630  -30.6240   24.1220 C   0  0  0  0  0  3  0  0  0  0  0  0
  -16.5670  -29.8460   23.7120 C   0  0  0  0  0  3  0  0  0  0  0  0
  -16.7850  -28.5840   23.1290 C   0  0  0  0  0  3  0  0  0  0  0  0
  -25.9020  -32.6040   23.8540 C   0  0  0  0  0  3  0  0  0  0  0  0
  -25.5900  -34.0030   24.1780 N   0  0  0  0  0  0  0  0  0  0  0  0
  -25.9160  -35.0520   23.4130 C   0  0  0  0  0  0  0  0  0  0  0  0
  -26.5830  -34.9470   22.3800 O   0  0  0  0  0  0  0  0  0  0  0  0
  -24.9990  -34.1590   24.9800 H   0  0  0  0  0  0  0  0  0  0  0  0
  -24.1750  -36.8300   23.0520 C   0  0  0  0  0  1  0  0  0  0  0  0
  -25.4210  -36.4400   23.8630 C   0  0  0  0  0  3  0  0  0  0  0  0
  -27.5540  -37.3370   24.6800 C   0  0  0  0  0  1  0  0  0  0  0  0
  -26.4460  -37.4990   23.7440 N   0  0  0  0  0  0  0  0  0  0  0  0
  -26.0360  -38.4160   23.8940 H   0  0  0  0  0  0  0  0  0  0  0  0
  -26.4330  -31.8400   25.1290 C   0  0  1  0  0  0  0  0  0  0  0  0
  -25.3470  -31.6010   26.2040 C   0  0  0  0  0  1  0  0  0  0  0  0
  -27.0210  -30.4660   24.7360 C   0  0  0  0  0  1  0  0  0  0  0  0
  -27.5820  -32.6430   25.7820 C   0  0  0  0  0  1  0  0  0  0  0  0
  1  2  1  0
  3  5  2  0
  3  4  1  0
  4  1  2  0
  5  6  1  0
  6  7  1  0
  6  2  2  0
  8  4  1  0
  9 10  1  0
  9 11  1  0
 10 12  1  0
 11 13  1  0
 12 13  1  0
 12  8  1  0
 13 14  1  0
 14 16  1  0
 15 14  1  0
 17 14  1  0
 18 17  1  0
 19 18  1  0
 20 25  1  0
 21 22  1  0
 21 20  1  0
 23 22  1  0
 23 30  1  0
 23 24  1  0
 25 19  1  0
 25 24  1  0
 26 19  2  0
 27 28  2  0
 28 47  1  0
 29 28  1  0
 29 32  1  0
 30 27  1  0
 30 31  1  0
 31 29  2  0
 32 33  1  0
 33 34  2  0
 35 38  1  0
 35 34  1  0
 36 35  2  0
 37 36  1  0
 37 32  2  0
 38 39  1  0
 39 40  1  0
 40 41  2  0
 42 41  1  0
 42 46  1  0
 43 42  2  0
 44 39  2  0
 44 43  1  0
 45 44  1  0
 47 48  1  0
 48 51  1  0
 48 50  1  0
 49 47  2  0
 52 53  1  0
 52 27  1  0
 54 52  1  0
 55 56  1  0
 55  5  1  0
 56 58  1  0
 57 68  2  0
 58 63  1  0
 59 67  1  0
 59 69  1  0
 60 66  1  0
 60 62  1  0
 61 67  1  0
 62 61  1  0
 63 62  2  0
 64 65  1  0
 64 58  2  0
 65 60  2  0
 66 59  1  0
 67 57  1  0
 69 71  2  0
 70 69  1  0
 72 70  1  0
 73 82  2  0
 73 78  1  0
 74 70  1  0
 74 78  1  0
 75 74  1  0
 76 77  1  0
 76 75  1  0
 77 73  1  0
 78 79  2  0
 79 80  1  0
 81 80  2  0
 82 81  1  0
 83 57  1  0
 83 84  1  0
 83 93  1  0
 84 87  1  0
 85 89  1  0
 85 84  1  0
 86 85  2  0
 89 88  1  0
 91 89  1  0
 91 92  1  0
 91 90  1  0
 93 96  1  1
 93 94  1  0
 95 93  1  0
M  ISO  4  18 100  19 100  55 101  56 101
M  END
>  <TORSDO>  (6) 
F 22

>  <SCORE>  (6) 
-13.337

>  <name>  (6) 
5

>  <ligand_id>  (6) 
5

>  <original_smiles>  (6) 
[H]c1c([H])c([H])c2c(c1[H])C([H])([H])C([H])([H])C([H])([H])C2([H])N([H])C(=O)C1([H])N(C(=O)C([H])(N([H])C(=O)C([H])(N([H])C([H])([H])[H])C([H])([H])[H])C(C([H])([H])[H])(C([H])([H])[H])C([H])([H])[H])C([H])([H])c2c([H])c(OC([H])([H])c3c([H])c(C([H])([H])C4([H])C([H])([H])C([H])([H])C([H])([H])C4([H])[N+]([H])([H])C([H])([H])C([H])([H])C(=O)N4C([H])([H])C([H])([H])C([H])([H])C([H])(n5nc(-c6c([H])c([H])c(Oc7c([H])c([H])c(F)c([H])c7F)c([H])c6[H])c(C(=O)N([H])[H])c5N([H])[H])C4([H])[H])c([H])c([H])c3F)c([H])c([H])c2C1([H])[H]

>  <smiles>  (6) 
[H]c1c([H])c([H])c2c(c1[H])C([H])([H])C([H])([H])C([H])([H])C2([H])N([H])C(=O)C1([H])N(C(=O)C([H])(N([H])C(=O)C([H])(N([H])C([H])([H])[H])C([H])([H])[H])C(C([H])([H])[H])(C([H])([H])[H])C([H])([H])[H])C([H])([H])c2c([H])c(OC([H])([H])c3c([H])c(C([H])([H])C4([H])C([H])([H])C([H])([H])C([H])([H])C4([H])[N+]([H])([H])C([H])([H])C([H])([H])C(=O)N4C([H])([H])C([H])([H])C([H])([H])C([H])(n5nc(-c6c([H])c([H])c(Oc7c([H])c([H])c(F)c([H])c7F)c([H])c6[H])c(C(=O)N([H])[H])c5N([H])[H])C4([H])[H])c([H])c([H])c3F)c([H])c([H])c2C1([H])[H]

$$$$
6:0:0
     RDKit          3D

 97103  0  0  1  0  0  0  0  0999 V2000
  -29.4160  -14.0540   18.6030 C   0  0  0  0  0  1  0  0  0  0  0  0
  -27.5560  -14.7600   19.2780 C   0  0  0  0  0  1  0  0  0  0  0  0
  -30.3220  -16.5130   18.2580 C   0  0  0  0  0  2  0  0  0  0  0  0
  -30.4940  -15.0330   18.2470 C   0  0  0  0  0  3  0  0  0  0  0  0
  -27.7640  -16.5520   19.1990 C   0  0  0  0  0  3  0  0  0  0  0  0
  -29.2160  -17.3610   18.7910 C   0  0  0  0  0  3  0  0  0  0  0  0
  -26.6910  -17.3920   19.8090 C   0  0  0  0  0  0  0  0  0  0  0  0
  -25.7700  -16.6970   20.7990 C   0  0  0  0  0  1  0  0  0  0  0  0
  -26.5410  -18.5930   19.5720 O   0  0  0  0  0  0  0  0  0  0  0  0
  -31.8450  -14.4820   18.5320 C   0  0  0  0  0  0  0  0  0  0  0  0
  -32.4520  -13.7340   17.7630 O   0  0  0  0  0  0  0  0  0  0  0  0
  -32.4500  -14.8510   19.9210 C   0  0  0  0  0  2  0  0  0  0  0  0
  -32.0560  -14.0940   21.2670 C   0  0  0  0  0  2  0  0  0  0  0  0
  -31.6710  -12.5740   21.2230 C   0  0  0  0  0  0  0  0  0  0  0  0
  -30.1320  -10.5700   20.7400 C   0  0  0  0  0  3  0  0  0  0  0  0
  -28.7310  -10.3660   19.5850 C   0  0  0  0  0  3  0  0  0  0  0  0
  -27.2680  -11.3680   19.3060 C   0  0  0  0  0  2  0  0  0  0  0  0
  -26.8480  -12.8400   20.3920 C   0  0  0  0  0  2  0  0  0  0  0  0
  -29.6800  -13.2610   22.1650 C   0  0  0  0  0  1  0  0  0  0  0  0
  -30.6160  -11.9240   21.7100 N   0  0  0  0  0  0  0  0  0  0  0  0
  -32.4240  -11.9910   20.5150 O   0  0  0  0  0  0  0  0  0  0  0  0
  -24.5130  -12.5220   21.2290 C   0  0  0  0  0  0  0  0  0  0  0  0
  -23.6650  -11.5540   21.6350 C   0  0  0  0  0  0  0  0  0  0  0  0
  -24.3930  -10.3350   21.7870 C   0  0  0  0  0  3  0  0  0  0  0  0
  -25.6940  -11.9590   21.0130 N   0  0  0  0  0  0  0  0  0  0  0  0
  -25.6810  -10.6310   21.5370 N   0  0  0  0  0  2  0  0  0  0  0  0
  -23.8500   -8.9530   21.9950 C   0  0  0  0  0  0  0  0  0  0  0  0
  -24.2870   -8.0500   22.9980 C   0  0  0  0  0  3  0  0  0  0  0  0
  -23.6500   -6.7920   23.1820 C   0  0  0  0  0  3  0  0  0  0  0  0
  -22.5570   -6.4130   22.3640 C   0  0  0  0  0  0  0  0  0  0  0  0
  -22.1380   -7.2970   21.3550 C   0  0  0  0  0  3  0  0  0  0  0  0
  -22.7760   -8.5390   21.1740 C   0  0  0  0  0  3  0  0  0  0  0  0
  -21.8910   -5.2080   22.4390 O   0  0  0  0  0  0  0  0  0  0  0  0
  -21.7080   -4.5400   23.6240 C   0  0  0  0  0  0  0  0  0  0  0  0
  -21.0760   -5.1480   24.7310 C   0  0  0  0  0  3  0  0  0  0  0  0
  -20.8470   -4.4080   25.9090 C   0  0  0  0  0  3  0  0  0  0  0  0
  -21.2390   -3.0580   25.9820 C   0  0  0  0  0  0  0  0  0  0  0  0
  -21.8570   -2.4460   24.8770 C   0  0  0  0  0  3  0  0  0  0  0  0
  -22.0840   -3.1830   23.7010 C   0  0  0  0  0  0  0  0  0  0  0  0
  -22.6580   -2.5770   22.6340 F   0  0  0  0  0  0  0  0  0  0  0  0
  -21.0200   -2.3460   27.1120 F   0  0  0  0  0  0  0  0  0  0  0  0
  -22.2050  -11.7850   21.6530 C   0  0  0  0  0  0  0  0  0  0  0  0
  -21.4740  -11.0740   22.4900 N   0  0  0  0  0  0  0  0  0  0  0  0
  -21.7200  -12.6620   20.9390 O   0  0  0  0  0  0  0  0  0  0  0  0
  -21.8870  -10.3700   23.0840 H   0  0  0  0  0  0  0  0  0  0  0  0
  -20.4780  -11.2360   22.5380 H   0  0  0  0  0  0  0  0  0  0  0  0
  -24.3800  -13.8650   20.9290 N   0  0  0  0  0  0  0  0  0  0  0  0
  -25.1530  -14.4430   20.6220 H   0  0  0  0  0  0  0  0  0  0  0  0
  -23.4840  -14.3380   20.9240 H   0  0  0  0  0  0  0  0  0  0  0  0
  -30.9560  -18.7760   20.3110 C   0  0  0  0  0  1  0  0  0  0  0  0
  -29.9900  -19.0340   19.1460 C   0  0  0  0  0  3  0  0  0  0  0  0
  -30.7720  -20.3440   18.2360 N   0  0  0  0  0  4  0  0  0  0  0  0
  -31.5800  -19.8970   17.8360 H   0  0  0  0  0  0  0  0  0  0  0  0
  -30.1530  -20.4750   17.4520 H   0  0  0  0  0  0  0  0  0  0  0  0
  -31.3730  -21.9820   18.5860 C   0  0  0  0  0  2  0  0  0  0  0  0
  -31.0990  -23.8120   17.9610 C   0  0  0  0  0  2  0  0  0  0  0  0
  -31.2960  -25.5190   18.4100 O   0  0  0  0  0  0  0  0  0  0  0  0
  -26.3340  -29.4260   22.8040 C   0  0  0  0  0  0  0  0  0  0  0  0
  -30.3090  -26.6790   18.6560 C   0  0  0  0  0  0  0  0  0  0  0  0
  -25.8550  -28.9790   20.4410 C   0  0  0  0  0  3  0  0  0  0  0  0
  -27.8690  -28.4140   18.9040 C   0  0  0  0  0  0  0  0  0  0  0  0
  -28.3100  -29.3230   21.1660 C   0  0  0  0  0  2  0  0  0  0  0  0
  -28.7880  -28.4330   19.9580 C   0  0  0  0  0  0  0  0  0  0  0  0
  -30.0140  -27.5980   19.8200 C   0  0  0  0  0  3  0  0  0  0  0  0
  -29.3870  -26.9300   17.6240 C   0  0  0  0  0  3  0  0  0  0  0  0
  -28.2140  -27.7170   17.7370 C   0  0  0  0  0  3  0  0  0  0  0  0
  -26.5210  -29.1280   19.0450 C   0  0  0  0  0  2  0  0  0  0  0  0
  -26.8390  -29.2490   21.5370 N   0  0  0  0  0  0  0  0  0  0  0  0
  -25.1170  -29.3460   23.0440 O   0  0  0  0  0  0  0  0  0  0  0  0
  -25.1830  -27.5840   20.5670 C   0  0  0  0  0  0  0  0  0  0  0  0
  -23.9610  -27.4230   20.0260 N   0  0  0  0  0  0  0  0  0  0  0  0
  -25.7760  -26.6630   21.1350 O   0  0  0  0  0  0  0  0  0  0  0  0
  -23.5240  -28.2230   19.5870 H   0  0  0  0  0  0  0  0  0  0  0  0
  -20.8460  -25.8900   18.9550 C   0  0  0  0  0  0  0  0  0  0  0  0
  -23.2030  -26.1660   19.9910 C   0  0  0  0  0  3  0  0  0  0  0  0
  -23.6960  -25.2510   18.8440 C   0  0  0  0  0  2  0  0  0  0  0  0
  -22.8990  -25.4270   17.5490 C   0  0  0  0  0  2  0  0  0  0  0  0
  -21.4180  -25.1130   17.7810 C   0  0  0  0  0  2  0  0  0  0  0  0
  -21.6850  -26.3980   19.9840 C   0  0  0  0  0  0  0  0  0  0  0  0
  -21.1050  -27.1370   21.0370 C   0  0  0  0  0  3  0  0  0  0  0  0
  -19.7180  -27.3730   21.0720 C   0  0  0  0  0  3  0  0  0  0  0  0
  -18.8920  -26.8590   20.0580 C   0  0  0  0  0  3  0  0  0  0  0  0
  -19.4550  -26.1160   19.0060 C   0  0  0  0  0  3  0  0  0  0  0  0
  -27.2560  -29.7560   24.0170 C   0  0  0  0  0  3  0  0  0  0  0  0
  -26.5230  -30.6720   24.9140 N   0  0  0  0  0  0  0  0  0  0  0  0
  -26.7500  -31.9860   25.0310 C   0  0  0  0  0  0  0  0  0  0  0  0
  -27.6530  -32.5600   24.4190 O   0  0  0  0  0  0  0  0  0  0  0  0
  -25.7290  -30.2810   25.4010 H   0  0  0  0  0  0  0  0  0  0  0  0
  -24.7980  -33.5780   25.1550 C   0  0  0  0  0  1  0  0  0  0  0  0
  -25.8350  -32.7950   25.9770 C   0  0  0  0  0  3  0  0  0  0  0  0
  -27.3690  -33.0550   27.8770 C   0  0  0  0  0  1  0  0  0  0  0  0
  -26.5720  -33.7290   26.8560 N   0  0  0  0  0  0  0  0  0  0  0  0
  -25.9320  -34.3650   27.3240 H   0  0  0  0  0  0  0  0  0  0  0  0
  -27.7050  -28.4700   24.8160 C   0  0  1  0  0  0  0  0  0  0  0  0
  -26.5310  -27.5590   25.2470 C   0  0  0  0  0  1  0  0  0  0  0  0
  -28.6780  -27.6050   23.9840 C   0  0  0  0  0  1  0  0  0  0  0  0
  -28.4760  -28.8930   26.0880 C   0  0  0  0  0  1  0  0  0  0  0  0
  4  3  1  0
  4 10  1  0
  4  1  1  0
  5  2  1  0
  5  7  1  0
  6  3  1  0
  6 51  1  0
  6  5  1  0
  7  8  1  0
  9  7  2  0
 10 12  1  0
 11 10  2  0
 12 13  1  0
 14 13  1  0
 14 20  1  0
 15 20  1  0
 16 15  2  0
 17 16  1  0
 17 18  1  0
 18 25  1  0
 20 19  1  0
 21 14  2  0
 22 23  2  0
 23 42  1  0
 23 24  1  0
 24 27  1  0
 25 22  1  0
 25 26  1  0
 26 24  1  0
 27 28  1  0
 28 29  2  0
 30 33  1  0
 30 29  1  0
 31 30  2  0
 32 31  1  0
 32 27  2  0
 33 34  1  0
 34 39  2  0
 34 35  1  0
 35 36  2  0
 36 37  1  0
 37 41  1  0
 38 37  2  0
 39 38  1  0
 40 39  1  0
 42 43  1  0
 43 46  1  0
 43 45  1  0
 44 42  2  0
 47 22  1  0
 48 47  1  0
 49 47  1  0
 51 50  1  0
 52 55  1  0
 52 51  1  0
 53 52  1  0
 54 52  1  0
 56 57  1  0
 56 55  1  0
 57 59  1  0
 58 69  2  0
 59 64  1  0
 60 70  1  0
 60 68  1  0
 61 67  1  0
 61 63  1  0
 62 68  1  0
 63 62  1  0
 64 63  2  0
 65 66  1  0
 65 59  2  0
 66 61  2  0
 67 60  1  0
 68 58  1  0
 70 72  2  0
 71 70  1  0
 73 71  1  0
 74 83  2  0
 74 79  1  0
 75 71  1  0
 76 75  1  0
 77 78  1  0
 77 76  1  0
 78 74  1  0
 79 75  1  0
 79 80  2  0
 80 81  1  0
 82 81  2  0
 83 82  1  0
 84 58  1  0
 84 94  1  0
 84 85  1  0
 85 86  1  0
 85 88  1  0
 86 90  1  0
 87 86  2  0
 90 89  1  0
 90 92  1  0
 92 93  1  0
 92 91  1  0
 94 95  1  1
 94 97  1  0
 96 94  1  0
M  ISO  4  13 100  14 100  56 101  57 101
M  END
>  <TORSDO>  (7) 
F 24

>  <SCORE>  (7) 
2.841

>  <name>  (7) 
6

>  <ligand_id>  (7) 
6

>  <original_smiles>  (7) 
[H]c1c([H])c([H])c2c(c1[H])C([H])([H])C([H])([H])C([H])([H])C2([H])N([H])C(=O)C1([H])N(C(=O)C([H])(N([H])C(=O)C([H])(N([H])C([H])([H])[H])C([H])([H])[H])C(C([H])([H])[H])(C([H])([H])[H])C([H])([H])[H])C([H])([H])c2c([H])c(OC([H])([H])C([H])([H])[N+]([H])([H])C([H])(c3c([H])c(C(=O)C([H])([H])C([H])([H])C(=O)N4C([H])([H])C([H])([H])C([H])([H])C([H])(n5nc(-c6c([H])c([H])c(Oc7c([H])c([H])c(F)c([H])c7F)c([H])c6[H])c(C(=O)N([H])[H])c5N([H])[H])C4([H])[H])c([H])c([H])c3C(=O)C([H])([H])[H])C([H])([H])[H])c([H])c([H])c2C1([H])[H]

>  <smiles>  (7) 
[H]c1c([H])c([H])c2c(c1[H])C([H])([H])C([H])([H])C([H])([H])C2([H])N([H])C(=O)C1([H])N(C(=O)C([H])(N([H])C(=O)C([H])(N([H])C([H])([H])[H])C([H])([H])[H])C(C([H])([H])[H])(C([H])([H])[H])C([H])([H])[H])C([H])([H])c2c([H])c(OC([H])([H])C([H])([H])[N+]([H])([H])C([H])(c3c([H])c(C(=O)C([H])([H])C([H])([H])C(=O)N4C([H])([H])C([H])([H])C([H])([H])C([H])(n5nc(-c6c([H])c([H])c(Oc7c([H])c([H])c(F)c([H])c7F)c([H])c6[H])c(C(=O)N([H])[H])c5N([H])[H])C4([H])[H])c([H])c([H])c3C(=O)C([H])([H])[H])C([H])([H])[H])c([H])c([H])c2C1([H])[H]

$$$$
7:0:0
     RDKit          3D

 91 99  0  0  1  0  0  0  0  0999 V2000
  -27.3670  -19.1900   20.3960 C   0  0  0  0  0  3  0  0  0  0  0  0
  -28.1740  -18.0530   20.2270 C   0  0  0  0  0  3  0  0  0  0  0  0
  -27.9610  -20.4540   20.5410 C   0  0  0  0  0  3  0  0  0  0  0  0
  -30.1690  -19.4410   20.3340 C   0  0  0  0  0  3  0  0  0  0  0  0
  -29.5800  -18.1540   20.2090 C   0  0  0  0  0  0  0  0  0  0  0  0
  -29.3640  -20.5950   20.4900 C   0  0  0  0  0  0  0  0  0  0  0  0
  -30.0300  -15.6980   20.4760 C   0  0  0  0  0  3  0  0  0  0  0  0
  -30.4010  -16.9340   20.0330 C   0  0  0  0  0  0  0  0  0  0  0  0
  -30.7980  -14.4740   20.2120 C   0  0  0  0  0  0  0  0  0  0  0  0
  -30.4240  -12.2970   19.1580 C   0  0  0  0  0  2  0  0  0  0  0  0
  -29.4840  -12.5300   17.9560 C   0  0  0  0  0  2  0  0  0  0  0  0
  -28.0110  -12.4200   18.4020 C   0  0  0  0  0  2  0  0  0  0  0  0
  -27.6920  -13.2620   19.6690 C   0  0  0  0  0  3  0  0  0  0  0  0
  -28.7670  -13.0420   20.7610 C   0  0  0  0  0  2  0  0  0  0  0  0
  -30.0890  -13.3090   20.1700 N   0  0  0  0  0  0  0  0  0  0  0  0
  -31.9760  -14.5070   19.8550 O   0  0  0  0  0  0  0  0  0  0  0  0
  -25.2940  -13.8720   20.3870 C   0  0  0  0  0  0  0  0  0  0  0  0
  -24.2260  -13.1100   20.7770 C   0  0  0  0  0  0  0  0  0  0  0  0
  -24.6890  -11.7570   20.7640 C   0  0  0  0  0  0  0  0  0  0  0  0
  -26.3400  -12.9920   20.1640 N   0  0  0  0  0  0  0  0  0  0  0  0
  -25.9780  -11.7140   20.4480 N   0  0  0  0  0  0  0  0  0  0  0  0
  -23.9620  -10.4990   20.9750 C   0  0  0  0  0  0  0  0  0  0  0  0
  -24.3870   -9.5500   21.9310 C   0  0  0  0  0  3  0  0  0  0  0  0
  -23.6600   -8.3540   22.1260 C   0  0  0  0  0  3  0  0  0  0  0  0
  -22.4930   -8.1010   21.3660 C   0  0  0  0  0  0  0  0  0  0  0  0
  -22.0870   -9.0410   20.4020 C   0  0  0  0  0  3  0  0  0  0  0  0
  -22.8150  -10.2250   20.2050 C   0  0  0  0  0  3  0  0  0  0  0  0
  -21.7390   -6.9580   21.4710 O   0  0  0  0  0  0  0  0  0  0  0  0
  -21.6760   -6.2460   22.6410 C   0  0  0  0  0  0  0  0  0  0  0  0
  -21.2100   -6.8260   23.8410 C   0  0  0  0  0  3  0  0  0  0  0  0
  -21.0910   -6.0380   25.0020 C   0  0  0  0  0  3  0  0  0  0  0  0
  -21.4310   -4.6730   24.9680 C   0  0  0  0  0  0  0  0  0  0  0  0
  -21.8940   -4.0940   23.7740 C   0  0  0  0  0  3  0  0  0  0  0  0
  -22.0140   -4.8790   22.6140 C   0  0  0  0  0  0  0  0  0  0  0  0
  -22.4390   -4.3080   21.4590 F   0  0  0  0  0  0  0  0  0  0  0  0
  -21.3110   -3.9160   26.0840 F   0  0  0  0  0  0  0  0  0  0  0  0
  -22.8330  -13.5960   21.0450 C   0  0  0  0  0  0  0  0  0  0  0  0
  -22.1000  -12.9190   21.9220 N   0  0  0  0  0  0  0  0  0  0  0  0
  -22.4000  -14.6140   20.5080 O   0  0  0  0  0  0  0  0  0  0  0  0
  -22.4660  -12.1000   22.3820 H   0  0  0  0  0  0  0  0  0  0  0  0
  -21.1640  -13.2350   22.1440 H   0  0  0  0  0  0  0  0  0  0  0  0
  -25.4530  -15.2410   20.1800 N   0  0  0  0  0  0  0  0  0  0  0  0
  -24.6900  -15.8980   20.2990 H   0  0  0  0  0  0  0  0  0  0  0  0
  -26.2870  -15.6590   19.7950 H   0  0  0  0  0  0  0  0  0  0  0  0
  -31.5090  -17.1640   19.3060 O   0  0  0  0  0  0  0  0  0  0  0  0
  -31.4870  -18.0740   19.0370 H   0  0  0  0  0  0  0  0  0  0  0  0
  -29.9920  -21.9760   20.6500 C   0  0  0  0  0  2  0  0  0  0  0  0
  -29.4130  -23.0400   19.6890 C   0  0  0  0  0  2  0  0  0  0  0  0
  -29.5460  -24.4930   20.1950 C   0  0  0  0  0  2  0  0  0  0  0  0
  -28.4290  -25.3900   19.6430 C   0  0  0  0  0  2  0  0  0  0  0  0
  -28.4600  -26.7100   20.1970 O   0  0  0  0  0  0  0  0  0  0  0  0
  -24.6010  -31.8590   23.2400 C   0  0  0  0  0  0  0  0  0  0  0  0
  -27.2810  -27.4340   20.1640 C   0  0  0  0  0  0  0  0  0  0  0  0
  -23.4200  -30.4710   21.5700 C   0  0  0  0  0  3  0  0  0  0  0  0
  -24.8910  -28.9460   20.1630 C   0  0  0  0  0  0  0  0  0  0  0  0
  -25.9500  -30.8250   21.4190 C   0  0  0  0  0  2  0  0  0  0  0  0
  -26.0410  -29.4570   20.7790 C   0  0  0  0  0  0  0  0  0  0  0  0
  -27.2360  -28.7020   20.7890 C   0  0  0  0  0  3  0  0  0  0  0  0
  -26.1110  -26.9610   19.5170 C   0  0  0  0  0  3  0  0  0  0  0  0
  -24.9170  -27.6960   19.5340 C   0  0  0  0  0  3  0  0  0  0  0  0
  -23.6510  -29.8030   20.1910 C   0  0  0  0  0  2  0  0  0  0  0  0
  -24.6740  -31.0660   22.1330 N   0  0  0  0  0  0  0  0  0  0  0  0
  -23.5110  -32.1240   23.7670 O   0  0  0  0  0  0  0  0  0  0  0  0
  -22.7590  -29.4390   22.5120 C   0  0  0  0  0  0  0  0  0  0  0  0
  -21.4330  -29.2660   22.3760 N   0  0  0  0  0  0  0  0  0  0  0  0
  -23.4380  -28.8000   23.3230 O   0  0  0  0  0  0  0  0  0  0  0  0
  -20.9470  -29.8320   21.6940 H   0  0  0  0  0  0  0  0  0  0  0  0
  -18.0500  -28.0980   22.8590 C   0  0  0  0  0  0  0  0  0  0  0  0
  -20.6100  -28.3260   23.1340 C   0  0  0  0  0  3  0  0  0  0  0  0
  -20.6980  -26.9000   22.5420 C   0  0  0  0  0  2  0  0  0  0  0  0
  -19.5930  -26.6020   21.5240 C   0  0  0  0  0  2  0  0  0  0  0  0
  -18.2120  -26.7560   22.1670 C   0  0  0  0  0  2  0  0  0  0  0  0
  -19.1760  -28.8420   23.3010 C   0  0  0  0  0  0  0  0  0  0  0  0
  -18.9690  -30.1000   23.9090 C   0  0  0  0  0  3  0  0  0  0  0  0
  -17.6700  -30.6150   24.0780 C   0  0  0  0  0  3  0  0  0  0  0  0
  -16.5580  -29.8700   23.6480 C   0  0  0  0  0  3  0  0  0  0  0  0
  -16.7500  -28.6130   23.0480 C   0  0  0  0  0  3  0  0  0  0  0  0
  -25.8790  -32.4870   23.8790 C   0  0  0  0  0  3  0  0  0  0  0  0
  -25.5680  -33.8880   24.1920 N   0  0  0  0  0  0  0  0  0  0  0  0
  -25.9060  -34.9290   23.4200 C   0  0  0  0  0  0  0  0  0  0  0  0
  -26.5830  -34.8130   22.3960 O   0  0  0  0  0  0  0  0  0  0  0  0
  -24.9760  -34.0530   24.9940 H   0  0  0  0  0  0  0  0  0  0  0  0
  -24.1810  -36.7200   23.0330 C   0  0  0  0  0  1  0  0  0  0  0  0
  -25.4150  -36.3220   23.8570 C   0  0  0  0  0  3  0  0  0  0  0  0
  -27.5380  -37.2270   24.6980 C   0  0  0  0  0  1  0  0  0  0  0  0
  -26.4470  -37.3750   23.7390 N   0  0  0  0  0  0  0  0  0  0  0  0
  -26.0340  -38.2950   23.8700 H   0  0  0  0  0  0  0  0  0  0  0  0
  -26.3750  -31.7190   25.1660 C   0  0  1  0  0  0  0  0  0  0  0  0
  -25.2680  -31.4880   26.2200 C   0  0  0  0  0  1  0  0  0  0  0  0
  -26.9590  -30.3360   24.7860 C   0  0  0  0  0  1  0  0  0  0  0  0
  -27.5130  -32.5120   25.8490 C   0  0  0  0  0  1  0  0  0  0  0  0
  1  3  1  0
  2  1  2  0
  4  6  1  0
  5  2  1  0
  5  4  2  0
  6  3  2  0
  6 47  1  0
  8  5  1  0
  8  7  2  0
  9  7  1  0
 10 15  1  0
 11 12  1  0
 11 10  1  0
 13 12  1  0
 13 20  1  0
 13 14  1  0
 15  9  1  0
 15 14  1  0
 16  9  2  0
 17 18  2  0
 18 37  1  0
 19 18  1  0
 19 22  1  0
 20 17  1  0
 20 21  1  0
 21 19  2  0
 22 23  1  0
 23 24  2  0
 25 28  1  0
 25 24  1  0
 26 25  2  0
 27 26  1  0
 27 22  2  0
 28 29  1  0
 29 30  1  0
 30 31  2  0
 32 31  1  0
 32 36  1  0
 33 32  2  0
 34 29  2  0
 34 33  1  0
 35 34  1  0
 37 38  1  0
 38 41  1  0
 38 40  1  0
 39 37  2  0
 42 43  1  0
 42 17  1  0
 44 42  1  0
 45  8  1  0
 46 45  1  0
 48 49  1  0
 48 47  1  0
 50 49  1  0
 50 51  1  0
 52 63  2  0
 53 51  1  0
 53 58  1  0
 54 62  1  0
 54 64  1  0
 55 61  1  0
 55 57  1  0
 56 62  1  0
 57 58  2  0
 57 56  1  0
 59 60  1  0
 59 53  2  0
 60 55  2  0
 61 54  1  0
 62 52  1  0
 64 66  2  0
 65 64  1  0
 67 65  1  0
 68 77  2  0
 68 73  1  0
 69 65  1  0
 69 73  1  0
 70 69  1  0
 71 72  1  0
 71 70  1  0
 72 68  1  0
 73 74  2  0
 74 75  1  0
 76 75  2  0
 77 76  1  0
 78 52  1  0
 78 79  1  0
 78 88  1  0
 79 82  1  0
 80 84  1  0
 80 79  1  0
 81 80  2  0
 84 83  1  0
 86 84  1  0
 86 87  1  0
 86 85  1  0
 88 91  1  1
 88 89  1  0
 90 88  1  0
M  ISO  4   7 100   9 100  50 101  51 101
M  END
>  <TORSDO>  (8) 
F 22

>  <SCORE>  (8) 
-13.085

>  <name>  (8) 
7

>  <ligand_id>  (8) 
7

>  <original_smiles>  (8) 
[H]OC(=C([H])C(=O)N1C([H])([H])C([H])([H])C([H])([H])C([H])(n2nc(-c3c([H])c([H])c(Oc4c([H])c([H])c(F)c([H])c4F)c([H])c3[H])c(C(=O)N([H])[H])c2N([H])[H])C1([H])[H])c1c([H])c([H])c([H])c(C([H])([H])C([H])([H])C([H])([H])C([H])([H])Oc2c([H])c([H])c3c(c2[H])C([H])([H])N(C(=O)C([H])(N([H])C(=O)C([H])(N([H])C([H])([H])[H])C([H])([H])[H])C(C([H])([H])[H])(C([H])([H])[H])C([H])([H])[H])C([H])(C(=O)N([H])C2([H])c4c([H])c([H])c([H])c([H])c4C([H])([H])C([H])([H])C2([H])[H])C3([H])[H])c1[H]

>  <smiles>  (8) 
[H]OC(=C([H])C(=O)N1C([H])([H])C([H])([H])C([H])([H])C([H])(n2nc(-c3c([H])c([H])c(Oc4c([H])c([H])c(F)c([H])c4F)c([H])c3[H])c(C(=O)N([H])[H])c2N([H])[H])C1([H])[H])c1c([H])c([H])c([H])c(C([H])([H])C([H])([H])C([H])([H])C([H])([H])Oc2c([H])c([H])c3c(c2[H])C([H])([H])N(C(=O)C([H])(N([H])C(=O)C([H])(N([H])C([H])([H])[H])C([H])([H])[H])C(C([H])([H])[H])(C([H])([H])[H])C([H])([H])[H])C([H])(C(=O)N([H])C2([H])c4c([H])c([H])c([H])c([H])c4C([H])([H])C([H])([H])C2([H])[H])C3([H])[H])c1[H]

$$$$
8:0:0
     RDKit          3D

 90 98  0  0  1  0  0  0  0  0999 V2000
  -30.3690  -20.9260   20.5250 C   0  0  0  0  0  3  0  0  0  0  0  0
  -28.5090  -19.7310   20.2530 C   0  0  0  0  0  3  0  0  0  0  0  0
  -29.8390  -19.5940   20.5300 C   0  0  0  0  0  0  0  0  0  0  0  0
  -29.3920  -21.8240   20.1460 C   0  0  0  0  0  0  0  0  0  0  0  0
  -26.9100  -21.4650   19.5110 C   0  0  0  0  0  1  0  0  0  0  0  0
  -28.2350  -21.0570   19.9530 N   0  0  0  0  0  0  0  0  0  0  0  0
  -30.4950  -18.2690   20.7990 C   0  0  0  0  0  0  0  0  0  0  0  0
  -31.5800  -18.2110   21.3830 O   0  0  0  0  0  0  0  0  0  0  0  0
  -29.8680  -16.9710   20.2300 C   0  0  0  0  0  2  0  0  0  0  0  0
  -30.0710  -15.6850   21.0980 C   0  0  0  0  0  2  0  0  0  0  0  0
  -30.6350  -14.4780   20.3090 C   0  0  0  0  0  0  0  0  0  0  0  0
  -30.2720  -12.3250   19.1410 C   0  0  0  0  0  2  0  0  0  0  0  0
  -29.3280  -12.6200   17.9540 C   0  0  0  0  0  2  0  0  0  0  0  0
  -27.8670  -12.4470   18.4060 C   0  0  0  0  0  2  0  0  0  0  0  0
  -27.5650  -13.2630   19.6890 C   0  0  0  0  0  3  0  0  0  0  0  0
  -28.6330  -12.9860   20.7710 C   0  0  0  0  0  2  0  0  0  0  0  0
  -29.9530  -13.2980   20.1970 N   0  0  0  0  0  0  0  0  0  0  0  0
  -31.7100  -14.6630   19.7310 O   0  0  0  0  0  0  0  0  0  0  0  0
  -25.1780  -13.8880   20.4260 C   0  0  0  0  0  0  0  0  0  0  0  0
  -24.1140  -13.1220   20.8170 C   0  0  0  0  0  0  0  0  0  0  0  0
  -24.5760  -11.7680   20.7930 C   0  0  0  0  0  0  0  0  0  0  0  0
  -26.2160  -13.0040   20.1850 N   0  0  0  0  0  0  0  0  0  0  0  0
  -25.8570  -11.7240   20.4560 N   0  0  0  0  0  0  0  0  0  0  0  0
  -23.8580  -10.5080   21.0050 C   0  0  0  0  0  0  0  0  0  0  0  0
  -24.3130   -9.5380   21.9260 C   0  0  0  0  0  3  0  0  0  0  0  0
  -23.5840   -8.3460   22.1220 C   0  0  0  0  0  3  0  0  0  0  0  0
  -22.3940   -8.1160   21.3940 C   0  0  0  0  0  0  0  0  0  0  0  0
  -21.9640   -9.0730   20.4580 C   0  0  0  0  0  3  0  0  0  0  0  0
  -22.6930  -10.2570   20.2600 C   0  0  0  0  0  3  0  0  0  0  0  0
  -21.6380   -6.9740   21.4940 O   0  0  0  0  0  0  0  0  0  0  0  0
  -21.6240   -6.2240   22.6420 C   0  0  0  0  0  0  0  0  0  0  0  0
  -21.2500   -6.7730   23.8880 C   0  0  0  0  0  3  0  0  0  0  0  0
  -21.1730   -5.9500   25.0270 C   0  0  0  0  0  3  0  0  0  0  0  0
  -21.4740   -4.5760   24.9260 C   0  0  0  0  0  0  0  0  0  0  0  0
  -21.8540   -4.0290   23.6870 C   0  0  0  0  0  3  0  0  0  0  0  0
  -21.9230   -4.8490   22.5490 C   0  0  0  0  0  0  0  0  0  0  0  0
  -22.2650   -4.3120   21.3530 F   0  0  0  0  0  0  0  0  0  0  0  0
  -21.4010   -3.7820   26.0190 F   0  0  0  0  0  0  0  0  0  0  0  0
  -22.7220  -13.6010   21.1180 C   0  0  0  0  0  0  0  0  0  0  0  0
  -22.0150  -12.9150   22.0060 N   0  0  0  0  0  0  0  0  0  0  0  0
  -22.2740  -14.6270   20.6030 O   0  0  0  0  0  0  0  0  0  0  0  0
  -22.3860  -12.0770   22.4290 H   0  0  0  0  0  0  0  0  0  0  0  0
  -21.0890  -13.2240   22.2670 H   0  0  0  0  0  0  0  0  0  0  0  0
  -25.3510  -15.2590   20.2360 N   0  0  0  0  0  0  0  0  0  0  0  0
  -24.5780  -15.9130   20.2550 H   0  0  0  0  0  0  0  0  0  0  0  0
  -26.2240  -15.6860   19.9560 H   0  0  0  0  0  0  0  0  0  0  0  0
  -29.5240  -23.3390   19.9140 C   0  0  0  0  0  2  0  0  0  0  0  0
  -28.3090  -24.2630   20.2520 C   0  0  0  0  0  2  0  0  0  0  0  0
  -28.5980  -25.6360   20.9320 C   0  0  0  0  0  2  0  0  0  0  0  0
  -28.5140  -26.7930   20.0850 O   0  0  0  0  0  0  0  0  0  0  0  0
  -24.6290  -31.9070   23.2710 C   0  0  0  0  0  0  0  0  0  0  0  0
  -27.3320  -27.5040   20.1550 C   0  0  0  0  0  0  0  0  0  0  0  0
  -23.4330  -30.5020   21.6250 C   0  0  0  0  0  3  0  0  0  0  0  0
  -24.9090  -28.9690   20.2140 C   0  0  0  0  0  0  0  0  0  0  0  0
  -25.9630  -30.8750   21.4390 C   0  0  0  0  0  2  0  0  0  0  0  0
  -26.0670  -29.5090   20.7890 C   0  0  0  0  0  0  0  0  0  0  0  0
  -27.2870  -28.7870   20.7500 C   0  0  0  0  0  3  0  0  0  0  0  0
  -26.1540  -26.9710   19.5990 C   0  0  0  0  0  3  0  0  0  0  0  0
  -24.9420  -27.6880   19.6340 C   0  0  0  0  0  3  0  0  0  0  0  0
  -23.6600  -29.8310   20.2450 C   0  0  0  0  0  2  0  0  0  0  0  0
  -24.6920  -31.1120   22.1660 N   0  0  0  0  0  0  0  0  0  0  0  0
  -23.5480  -32.1650   23.8160 O   0  0  0  0  0  0  0  0  0  0  0  0
  -22.7860  -29.4690   22.5820 C   0  0  0  0  0  0  0  0  0  0  0  0
  -21.4610  -29.2830   22.4650 N   0  0  0  0  0  0  0  0  0  0  0  0
  -23.4770  -28.8420   23.3890 O   0  0  0  0  0  0  0  0  0  0  0  0
  -20.9570  -29.8530   21.8000 H   0  0  0  0  0  0  0  0  0  0  0  0
  -18.0920  -28.0700   22.9520 C   0  0  0  0  0  0  0  0  0  0  0  0
  -20.6470  -28.3390   23.2350 C   0  0  0  0  0  3  0  0  0  0  0  0
  -20.7580  -26.9060   22.6590 C   0  0  0  0  0  2  0  0  0  0  0  0
  -19.6610  -26.5830   21.6360 C   0  0  0  0  0  2  0  0  0  0  0  0
  -18.2770  -26.7220   22.2720 C   0  0  0  0  0  2  0  0  0  0  0  0
  -19.2050  -28.8360   23.3860 C   0  0  0  0  0  0  0  0  0  0  0  0
  -18.9770  -30.1020   23.9730 C   0  0  0  0  0  3  0  0  0  0  0  0
  -17.6690  -30.5910   24.1410 C   0  0  0  0  0  3  0  0  0  0  0  0
  -16.5700  -29.8200   23.7260 C   0  0  0  0  0  3  0  0  0  0  0  0
  -16.7830  -28.5640   23.1320 C   0  0  0  0  0  3  0  0  0  0  0  0
  -25.9100  -32.5520   23.8840 C   0  0  0  0  0  3  0  0  0  0  0  0
  -25.5960  -33.9500   24.2090 N   0  0  0  0  0  0  0  0  0  0  0  0
  -25.9180  -35.0000   23.4400 C   0  0  0  0  0  0  0  0  0  0  0  0
  -26.5860  -34.8930   22.4060 O   0  0  0  0  0  0  0  0  0  0  0  0
  -25.0150  -34.1010   25.0210 H   0  0  0  0  0  0  0  0  0  0  0  0
  -24.1810  -36.7740   23.0690 C   0  0  0  0  0  1  0  0  0  0  0  0
  -25.4260  -36.3900   23.8870 C   0  0  0  0  0  3  0  0  0  0  0  0
  -27.5600  -37.2920   24.6970 C   0  0  0  0  0  1  0  0  0  0  0  0
  -26.4520  -37.4490   23.7580 N   0  0  0  0  0  0  0  0  0  0  0  0
  -26.0460  -38.3700   23.8980 H   0  0  0  0  0  0  0  0  0  0  0  0
  -26.4320  -31.7890   25.1630 C   0  0  1  0  0  0  0  0  0  0  0  0
  -25.3420  -31.5450   26.2320 C   0  0  0  0  0  1  0  0  0  0  0  0
  -27.0210  -30.4140   24.7760 C   0  0  0  0  0  1  0  0  0  0  0  0
  -27.5840  -32.5840   25.8190 C   0  0  0  0  0  1  0  0  0  0  0  0
  1  3  1  0
  2  3  2  0
  3  7  1  0
  4  1  2  0
  5  6  1  0
  6  4  1  0
  6  2  1  0
  7  8  2  0
  9  7  1  0
  9 10  1  0
 11 10  1  0
 12 17  1  0
 13 14  1  0
 13 12  1  0
 15 14  1  0
 15 22  1  0
 15 16  1  0
 17 11  1  0
 17 16  1  0
 18 11  2  0
 19 20  2  0
 20 39  1  0
 21 20  1  0
 21 24  1  0
 22 19  1  0
 22 23  1  0
 23 21  2  0
 24 25  1  0
 25 26  2  0
 27 30  1  0
 27 26  1  0
 28 27  2  0
 29 28  1  0
 29 24  2  0
 30 31  1  0
 31 32  1  0
 32 33  2  0
 34 33  1  0
 34 38  1  0
 35 34  2  0
 36 31  2  0
 36 35  1  0
 37 36  1  0
 39 40  1  0
 40 43  1  0
 40 42  1  0
 41 39  2  0
 44 45  1  0
 44 19  1  0
 46 44  1  0
 47  4  1  0
 47 48  1  0
 48 49  1  0
 50 52  1  0
 50 49  1  0
 51 62  2  0
 52 57  1  0
 53 61  1  0
 53 63  1  0
 54 60  1  0
 54 56  1  0
 55 61  1  0
 56 55  1  0
 57 56  2  0
 58 59  1  0
 58 52  2  0
 59 54  2  0
 60 53  1  0
 61 51  1  0
 63 65  2  0
 64 63  1  0
 66 64  1  0
 67 76  2  0
 67 72  1  0
 68 64  1  0
 68 72  1  0
 69 68  1  0
 70 71  1  0
 70 69  1  0
 71 67  1  0
 72 73  2  0
 73 74  1  0
 75 74  2  0
 76 75  1  0
 77 51  1  0
 77 78  1  0
 77 87  1  0
 78 81  1  0
 79 83  1  0
 79 78  1  0
 80 79  2  0
 83 82  1  0
 85 83  1  0
 85 86  1  0
 85 84  1  0
 87 90  1  1
 87 88  1  0
 89 87  1  0
M  ISO  4  10 100  11 100  49 101  50 101
M  END
>  <TORSDO>  (9) 
F 22

>  <SCORE>  (9) 
-13.108

>  <name>  (9) 
8

>  <ligand_id>  (9) 
8

>  <original_smiles>  (9) 
[H]c1c([H])c([H])c2c(c1[H])C([H])([H])C([H])([H])C([H])([H])C2([H])N([H])C(=O)C1([H])N(C(=O)C([H])(N([H])C(=O)C([H])(N([H])C([H])([H])[H])C([H])([H])[H])C(C([H])([H])[H])(C([H])([H])[H])C([H])([H])[H])C([H])([H])c2c([H])c(OC([H])([H])C([H])([H])C([H])([H])c3c([H])c(C(=O)C([H])([H])C([H])([H])C(=O)N4C([H])([H])C([H])([H])C([H])([H])C([H])(n5nc(-c6c([H])c([H])c(Oc7c([H])c([H])c(F)c([H])c7F)c([H])c6[H])c(C(=O)N([H])[H])c5N([H])[H])C4([H])[H])c([H])n3C([H])([H])[H])c([H])c([H])c2C1([H])[H]

>  <smiles>  (9) 
[H]c1c([H])c([H])c2c(c1[H])C([H])([H])C([H])([H])C([H])([H])C2([H])N([H])C(=O)C1([H])N(C(=O)C([H])(N([H])C(=O)C([H])(N([H])C([H])([H])[H])C([H])([H])[H])C(C([H])([H])[H])(C([H])([H])[H])C([H])([H])[H])C([H])([H])c2c([H])c(OC([H])([H])C([H])([H])C([H])([H])c3c([H])c(C(=O)C([H])([H])C([H])([H])C(=O)N4C([H])([H])C([H])([H])C([H])([H])C([H])(n5nc(-c6c([H])c([H])c(Oc7c([H])c([H])c(F)c([H])c7F)c([H])c6[H])c(C(=O)N([H])[H])c5N([H])[H])C4([H])[H])c([H])n3C([H])([H])[H])c([H])c([H])c2C1([H])[H]

$$$$
9:0:0
     RDKit          3D

 98106  0  0  1  0  0  0  0  0999 V2000
  -31.2060  -18.2880   23.4640 C   0  0  0  0  0  3  0  0  0  0  0  0
  -31.9350  -17.3810   22.6980 C   0  0  0  0  0  3  0  0  0  0  0  0
  -30.5470  -19.3570   22.8320 C   0  0  0  0  0  3  0  0  0  0  0  0
  -31.9750  -17.5150   21.3000 C   0  0  0  0  0  0  0  0  0  0  0  0
  -30.5670  -19.5130   21.4200 C   0  0  0  0  0  0  0  0  0  0  0  0
  -31.3380  -18.6050   20.6220 C   0  0  0  0  0  0  0  0  0  0  0  0
  -31.9520  -15.1750   20.7540 C   0  0  0  0  0  3  0  0  0  0  0  0
  -32.5570  -16.3760   20.6210 C   0  0  0  0  0  0  0  0  0  0  0  0
  -32.4270  -13.9240   20.1980 C   0  0  0  0  0  0  0  0  0  0  0  0
  -31.8000  -11.6300   19.5890 C   0  0  0  0  0  2  0  0  0  0  0  0
  -30.8390  -11.6640   18.3870 C   0  0  0  0  0  2  0  0  0  0  0  0
  -29.3790  -11.8060   18.8530 C   0  0  0  0  0  2  0  0  0  0  0  0
  -29.1900  -12.9520   19.8800 C   0  0  0  0  0  3  0  0  0  0  0  0
  -30.2480  -12.8560   20.9990 C   0  0  0  0  0  2  0  0  0  0  0  0
  -31.5870  -12.8590   20.3670 N   0  0  0  0  0  0  0  0  0  0  0  0
  -33.4990  -13.8260   19.5870 O   0  0  0  0  0  0  0  0  0  0  0  0
  -27.0730  -14.0440   20.8740 C   0  0  0  0  0  0  0  0  0  0  0  0
  -25.8540  -13.5140   21.2110 C   0  0  0  0  0  0  0  0  0  0  0  0
  -25.9290  -12.1200   20.9200 C   0  0  0  0  0  0  0  0  0  0  0  0
  -27.8340  -12.9690   20.4250 N   0  0  0  0  0  0  0  0  0  0  0  0
  -27.1480  -11.7990   20.5040 N   0  0  0  0  0  0  0  0  0  0  0  0
  -24.8980  -11.0740   20.9650 C   0  0  0  0  0  0  0  0  0  0  0  0
  -25.0710   -9.8920   21.7160 C   0  0  0  0  0  3  0  0  0  0  0  0
  -24.0530   -8.9170   21.7590 C   0  0  0  0  0  3  0  0  0  0  0  0
  -22.8500   -9.1150   21.0390 C   0  0  0  0  0  0  0  0  0  0  0  0
  -22.6960  -10.2810   20.2690 C   0  0  0  0  0  3  0  0  0  0  0  0
  -23.7140  -11.2480   20.2240 C   0  0  0  0  0  3  0  0  0  0  0  0
  -21.8130   -8.2140   21.0010 O   0  0  0  0  0  0  0  0  0  0  0  0
  -21.4750   -7.4590   22.0930 C   0  0  0  0  0  0  0  0  0  0  0  0
  -21.1030   -8.0510   23.3190 C   0  0  0  0  0  3  0  0  0  0  0  0
  -20.6930   -7.2420   24.3950 C   0  0  0  0  0  3  0  0  0  0  0  0
  -20.6510   -5.8410   24.2500 C   0  0  0  0  0  0  0  0  0  0  0  0
  -21.0200   -5.2490   23.0290 C   0  0  0  0  0  3  0  0  0  0  0  0
  -21.4260   -6.0570   21.9510 C   0  0  0  0  0  0  0  0  0  0  0  0
  -21.7590   -5.4830   20.7690 F   0  0  0  0  0  0  0  0  0  0  0  0
  -20.2500   -5.0610   25.2800 F   0  0  0  0  0  0  0  0  0  0  0  0
  -24.6510  -14.2830   21.6810 C   0  0  0  0  0  0  0  0  0  0  0  0
  -23.8200  -13.6630   22.5160 N   0  0  0  0  0  0  0  0  0  0  0  0
  -24.4680  -15.4530   21.3530 O   0  0  0  0  0  0  0  0  0  0  0  0
  -23.9920  -12.7120   22.8100 H   0  0  0  0  0  0  0  0  0  0  0  0
  -23.0020  -14.1390   22.8680 H   0  0  0  0  0  0  0  0  0  0  0  0
  -27.5800  -15.3330   20.8970 N   0  0  0  0  0  0  0  0  0  0  0  0
  -27.0280  -16.1280   21.1900 H   0  0  0  0  0  0  0  0  0  0  0  0
  -28.5000  -15.5950   20.5690 H   0  0  0  0  0  0  0  0  0  0  0  0
  -33.6890  -16.6510   19.9610 O   0  0  0  0  0  0  0  0  0  0  0  0
  -33.8970  -17.5520   20.1740 H   0  0  0  0  0  0  0  0  0  0  0  0
  -31.3300  -18.6580   19.0720 C   0  0  0  0  0  2  0  0  0  0  0  0
  -31.4090  -20.0510   18.3790 C   0  0  0  0  0  2  0  0  0  0  0  0
  -32.3400  -21.1480   18.9540 C   0  0  0  0  0  2  0  0  0  0  0  0
  -31.5520  -22.4550   19.2340 C   0  0  0  0  0  2  0  0  0  0  0  0
  -32.1290  -23.3390   20.3650 C   0  0  0  0  0  2  0  0  0  0  0  0
  -31.6440  -24.7910   20.2490 C   0  0  0  0  0  2  0  0  0  0  0  0
  -31.5730  -25.5780   21.5690 C   0  0  0  0  0  2  0  0  0  0  0  0
  -31.5540  -26.9880   21.3160 O   0  0  0  0  0  0  0  0  0  0  0  0
  -26.3820  -30.5330   24.6230 C   0  0  0  0  0  0  0  0  0  0  0  0
  -30.3120  -27.5670   21.2080 C   0  0  0  0  0  0  0  0  0  0  0  0
  -25.8190  -29.6690   22.3750 C   0  0  0  0  0  3  0  0  0  0  0  0
  -27.7800  -28.8020   21.0010 C   0  0  0  0  0  0  0  0  0  0  0  0
  -28.2270  -30.2640   22.9770 C   0  0  0  0  0  2  0  0  0  0  0  0
  -28.6670  -29.1840   22.0120 C   0  0  0  0  0  0  0  0  0  0  0  0
  -29.9310  -28.5660   22.1260 C   0  0  0  0  0  3  0  0  0  0  0  0
  -29.4280  -27.2190   20.1600 C   0  0  0  0  0  3  0  0  0  0  0  0
  -28.1600  -27.8210   20.0660 C   0  0  0  0  0  3  0  0  0  0  0  0
  -26.4390  -29.5000   20.9650 C   0  0  0  0  0  2  0  0  0  0  0  0
  -26.8100  -30.1500   23.3870 N   0  0  0  0  0  0  0  0  0  0  0  0
  -25.1780  -30.5320   24.9100 O   0  0  0  0  0  0  0  0  0  0  0  0
  -25.1290  -28.3420   22.7810 C   0  0  0  0  0  0  0  0  0  0  0  0
  -23.9370  -28.0940   22.2100 N   0  0  0  0  0  0  0  0  0  0  0  0
  -25.6710  -27.5630   23.5640 O   0  0  0  0  0  0  0  0  0  0  0  0
  -23.5550  -28.7880   21.5830 H   0  0  0  0  0  0  0  0  0  0  0  0
  -20.8250  -26.5110   21.2680 C   0  0  0  0  0  0  0  0  0  0  0  0
  -23.1170  -26.8970   22.3970 C   0  0  0  0  0  3  0  0  0  0  0  0
  -23.6280  -25.7410   21.5080 C   0  0  0  0  0  2  0  0  0  0  0  0
  -22.9230  -25.6620   20.1510 C   0  0  0  0  0  2  0  0  0  0  0  0
  -21.4210  -25.4610   20.3440 C   0  0  0  0  0  2  0  0  0  0  0  0
  -21.6230  -27.2000   22.2190 C   0  0  0  0  0  0  0  0  0  0  0  0
  -21.0300  -28.1940   23.0280 C   0  0  0  0  0  3  0  0  0  0  0  0
  -19.6650  -28.5000   22.9030 C   0  0  0  0  0  3  0  0  0  0  0  0
  -18.8770  -27.8060   21.9690 C   0  0  0  0  0  3  0  0  0  0  0  0
  -19.4550  -26.8210   21.1510 C   0  0  0  0  0  3  0  0  0  0  0  0
  -27.3790  -31.0140   25.7230 C   0  0  0  0  0  3  0  0  0  0  0  0
  -27.4740  -30.0250   26.9500 C   0  0  1  0  0  0  0  0  0  0  0  0
  -26.1020  -29.6610   27.5620 C   0  0  0  0  0  1  0  0  0  0  0  0
  -28.1720  -28.7090   26.5370 C   0  0  0  0  0  1  0  0  0  0  0  0
  -28.3380  -30.6550   28.0690 C   0  0  0  0  0  1  0  0  0  0  0  0
  -26.9440  -32.3480   26.1600 N   0  0  0  0  0  0  0  0  0  0  0  0
  -27.5120  -33.4960   25.7650 C   0  0  0  0  0  0  0  0  0  0  0  0
  -28.5150  -33.5410   25.0480 O   0  0  0  0  0  0  0  0  0  0  0  0
  -26.0980  -32.3900   26.7080 H   0  0  0  0  0  0  0  0  0  0  0  0
  -26.0150  -35.4160   25.1240 C   0  0  0  0  0  1  0  0  0  0  0  0
  -26.8650  -34.8070   26.2510 C   0  0  0  0  0  3  0  0  0  0  0  0
  -28.5050  -35.4290   27.9720 C   0  0  0  0  0  1  0  0  0  0  0  0
  -27.8480  -35.8070   26.7230 N   0  0  0  0  0  0  0  0  0  0  0  0
  -27.4000  -36.7080   26.8650 H   0  0  0  0  0  0  0  0  0  0  0  0
  -29.6650  -20.5900   20.7960 C   0  0  0  0  0  2  0  0  0  0  0  0
  -28.2190  -20.6080   21.3460 C   0  0  0  0  0  2  0  0  0  0  0  0
  -27.3540  -21.4240   20.5810 O   0  0  0  0  0  0  0  0  0  0  0  0
  -27.4510  -22.3290   20.8720 H   0  0  0  0  0  0  0  0  0  0  0  0
  2  1  2  0
  3  1  1  0
  4  2  1  0
  5  3  2  0
  6  4  2  0
  6  5  1  0
  8  7  2  0
  8  4  1  0
  9 15  1  0
  9  7  1  0
 10 15  1  0
 11 12  1  0
 11 10  1  0
 13 12  1  0
 13 20  1  0
 13 14  1  0
 15 14  1  0
 16  9  2  0
 17 42  1  0
 17 18  2  0
 18 37  1  0
 19 22  1  0
 19 18  1  0
 20 21  1  0
 20 17  1  0
 21 19  2  0
 22 23  1  0
 23 24  2  0
 25 24  1  0
 26 25  2  0
 27 26  1  0
 27 22  2  0
 28 25  1  0
 28 29  1  0
 29 30  1  0
 30 31  2  0
 32 31  1  0
 32 36  1  0
 33 32  2  0
 34 29  2  0
 34 33  1  0
 35 34  1  0
 37 38  1  0
 38 40  1  0
 38 41  1  0
 39 37  2  0
 42 43  1  0
 44 42  1  0
 45 46  1  0
 45  8  1  0
 47  6  1  0
 48 49  1  0
 48 47  1  0
 49 50  1  0
 50 51  1  0
 52 51  1  0
 52 53  1  0
 54 53  1  0
 55 66  2  0
 56 54  1  0
 56 61  1  0
 57 67  1  0
 57 65  1  0
 58 60  1  0
 59 65  1  0
 60 61  2  0
 60 59  1  0
 62 56  2  0
 63 62  1  0
 63 58  2  0
 64 58  1  0
 64 57  1  0
 65 55  1  0
 67 69  2  0
 68 67  1  0
 70 68  1  0
 71 76  1  0
 72 68  1  0
 73 72  1  0
 74 75  1  0
 74 73  1  0
 75 71  1  0
 76 72  1  0
 76 77  2  0
 78 77  1  0
 79 78  2  0
 80 71  2  0
 80 79  1  0
 81 55  1  0
 81 86  1  0
 81 82  1  0
 82 83  1  1
 82 85  1  0
 84 82  1  0
 86 89  1  0
 87 86  1  0
 87 91  1  0
 88 87  2  0
 91 90  1  0
 91 93  1  0
 93 94  1  0
 93 92  1  0
 95 96  1  0
 95  5  1  0
 97 98  1  0
 97 96  1  0
M  ISO  4   7 100   9 100  53 101  54 101
M  END
>  <TORSDO>  (10) 
F 28

>  <SCORE>  (10) 
-4.460

>  <name>  (10) 
9

>  <ligand_id>  (10) 
9

>  <original_smiles>  (10) 
[H]OC(=C([H])C(=O)N1C([H])([H])C([H])([H])C([H])([H])C([H])(n2nc(-c3c([H])c([H])c(Oc4c([H])c([H])c(F)c([H])c4F)c([H])c3[H])c(C(=O)N([H])[H])c2N([H])[H])C1([H])[H])c1c([H])c([H])c([H])c(C([H])([H])C([H])([H])O[H])c1C([H])([H])C([H])([H])C([H])([H])C([H])([H])C([H])([H])C([H])([H])C([H])([H])Oc1c([H])c([H])c2c(c1[H])C([H])([H])N(C(=O)C([H])(N([H])C(=O)C([H])(N([H])C([H])([H])[H])C([H])([H])[H])C(C([H])([H])[H])(C([H])([H])[H])C([H])([H])[H])C([H])(C(=O)N([H])C1([H])c3c([H])c([H])c([H])c([H])c3C([H])([H])C([H])([H])C1([H])[H])C2([H])[H]

>  <smiles>  (10) 
[H]OC(=C([H])C(=O)N1C([H])([H])C([H])([H])C([H])([H])C([H])(n2nc(-c3c([H])c([H])c(Oc4c([H])c([H])c(F)c([H])c4F)c([H])c3[H])c(C(=O)N([H])[H])c2N([H])[H])C1([H])[H])c1c([H])c([H])c([H])c(C([H])([H])C([H])([H])O[H])c1C([H])([H])C([H])([H])C([H])([H])C([H])([H])C([H])([H])C([H])([H])C([H])([H])Oc1c([H])c([H])c2c(c1[H])C([H])([H])N(C(=O)C([H])(N([H])C(=O)C([H])(N([H])C([H])([H])[H])C([H])([H])[H])C(C([H])([H])[H])(C([H])([H])[H])C([H])([H])[H])C([H])(C(=O)N([H])C1([H])c3c([H])c([H])c([H])c([H])c3C([H])([H])C([H])([H])C1([H])[H])C2([H])[H]

$$$$
10:0:0
     RDKit          3D

 90 98  0  0  1  0  0  0  0  0999 V2000
  -29.3370  -21.5950   19.3960 C   0  0  0  0  0  3  0  0  0  0  0  0
  -29.6990  -20.1890   19.2330 C   0  0  0  0  0  3  0  0  0  0  0  0
  -29.8030  -21.3710   21.6810 C   0  0  0  0  0  2  0  0  0  0  0  0
  -29.3420  -22.2790   20.6550 C   0  0  0  0  0  0  0  0  0  0  0  0
  -30.1710  -19.9670   21.5370 C   0  0  0  0  0  0  0  0  0  0  0  0
  -30.1210  -19.2790   20.2780 C   0  0  0  0  0  0  0  0  0  0  0  0
  -31.3070  -19.7620   23.7740 C   0  0  0  0  0  2  0  0  0  0  0  0
  -30.6950  -19.2280   22.7020 C   0  0  0  0  0  3  0  0  0  0  0  0
  -28.8720  -23.7450   21.1140 C   0  0  0  0  0  0  0  0  0  0  0  0
  -28.6290  -25.1470   20.9730 C   0  0  0  0  0  3  0  0  0  0  0  0
  -28.7850  -26.3040   20.1090 O   0  0  0  0  0  0  0  0  0  0  0  0
  -24.6780  -31.6550   23.1210 C   0  0  0  0  0  0  0  0  0  0  0  0
  -27.6940  -27.2440   20.0640 C   0  0  0  0  0  0  0  0  0  0  0  0
  -23.6250  -30.1890   21.4420 C   0  0  0  0  0  3  0  0  0  0  0  0
  -25.2250  -28.7690   20.0170 C   0  0  0  0  0  0  0  0  0  0  0  0
  -26.1480  -30.6780   21.3200 C   0  0  0  0  0  2  0  0  0  0  0  0
  -26.3520  -29.3080   20.6540 C   0  0  0  0  0  0  0  0  0  0  0  0
  -27.5900  -28.5600   20.6660 C   0  0  0  0  0  3  0  0  0  0  0  0
  -26.5370  -26.8020   19.3890 C   0  0  0  0  0  3  0  0  0  0  0  0
  -25.3270  -27.5290   19.3690 C   0  0  0  0  0  3  0  0  0  0  0  0
  -23.9230  -29.5540   20.0580 C   0  0  0  0  0  2  0  0  0  0  0  0
  -24.8340  -30.8640   22.0170 N   0  0  0  0  0  0  0  0  0  0  0  0
  -23.5640  -31.8380   23.6370 O   0  0  0  0  0  0  0  0  0  0  0  0
  -23.0230  -29.1120   22.3790 C   0  0  0  0  0  0  0  0  0  0  0  0
  -21.7250  -28.8050   22.2060 N   0  0  0  0  0  0  0  0  0  0  0  0
  -23.7280  -28.5560   23.2250 O   0  0  0  0  0  0  0  0  0  0  0  0
  -21.2080  -29.3130   21.5010 H   0  0  0  0  0  0  0  0  0  0  0  0
  -18.4900  -27.2120   22.5420 C   0  0  0  0  0  0  0  0  0  0  0  0
  -20.9800  -27.7840   22.9470 C   0  0  0  0  0  3  0  0  0  0  0  0
  -21.2850  -26.3690   22.4030 C   0  0  0  0  0  2  0  0  0  0  0  0
  -20.2890  -25.9060   21.3350 C   0  0  0  0  0  2  0  0  0  0  0  0
  -18.8660  -25.8870   21.8980 C   0  0  0  0  0  2  0  0  0  0  0  0
  -19.4820  -28.1080   23.0200 C   0  0  0  0  0  0  0  0  0  0  0  0
  -19.0800  -29.3400   23.5780 C   0  0  0  0  0  3  0  0  0  0  0  0
  -17.7170  -29.6800   23.6680 C   0  0  0  0  0  3  0  0  0  0  0  0
  -16.7380  -28.7850   23.2050 C   0  0  0  0  0  3  0  0  0  0  0  0
  -17.1250  -27.5520   22.6480 C   0  0  0  0  0  3  0  0  0  0  0  0
  -25.8890  -32.3850   23.7770 C   0  0  0  0  0  3  0  0  0  0  0  0
  -26.4390  -31.6450   25.0580 C   0  0  1  0  0  0  0  0  0  0  0  0
  -25.3480  -31.3150   26.1020 C   0  0  0  0  0  1  0  0  0  0  0  0
  -27.1350  -30.3200   24.6720 C   0  0  0  0  0  1  0  0  0  0  0  0
  -27.5130  -32.5220   25.7470 C   0  0  0  0  0  1  0  0  0  0  0  0
  -25.4550  -33.7500   24.1190 N   0  0  0  0  0  0  0  0  0  0  0  0
  -25.7120  -34.8400   23.3830 C   0  0  0  0  0  0  0  0  0  0  0  0
  -26.4030  -34.8090   22.3620 O   0  0  0  0  0  0  0  0  0  0  0  0
  -24.8360  -33.8410   24.9100 H   0  0  0  0  0  0  0  0  0  0  0  0
  -23.8430  -36.4930   23.0330 C   0  0  0  0  0  1  0  0  0  0  0  0
  -25.1050  -36.1770   23.8540 C   0  0  0  0  0  3  0  0  0  0  0  0
  -27.1500  -37.2230   24.7230 C   0  0  0  0  0  1  0  0  0  0  0  0
  -26.0480  -37.3140   23.7700 N   0  0  0  0  0  0  0  0  0  0  0  0
  -25.5660  -38.1950   23.9270 H   0  0  0  0  0  0  0  0  0  0  0  0
  -30.7100  -17.7610   19.9390 C   0  0  0  0  0  2  0  0  0  0  0  0
  -30.9420  -15.0830   20.1810 C   0  0  0  0  0  0  0  0  0  0  0  0
  -30.7510  -12.7270   19.2740 C   0  0  0  0  0  2  0  0  0  0  0  0
  -29.8270  -12.7030   18.0340 C   0  0  0  0  0  2  0  0  0  0  0  0
  -28.3550  -12.5310   18.4580 C   0  0  0  0  0  2  0  0  0  0  0  0
  -27.9630  -13.4640   19.6350 C   0  0  0  0  0  3  0  0  0  0  0  0
  -29.0170  -13.4770   20.7620 C   0  0  0  0  0  2  0  0  0  0  0  0
  -30.3010  -13.8460   20.1540 N   0  0  0  0  0  0  0  0  0  0  0  0
  -32.1380  -15.1020   19.8700 O   0  0  0  0  0  0  0  0  0  0  0  0
  -30.2350  -16.3080   20.3250 N   0  0  0  0  0  0  0  0  0  0  0  0
  -29.2570  -16.2170   20.5580 H   0  0  0  0  0  0  0  0  0  0  0  0
  -25.5920  -14.0650   20.3860 C   0  0  0  0  0  0  0  0  0  0  0  0
  -24.5220  -13.3030   20.7610 C   0  0  0  0  0  0  0  0  0  0  0  0
  -24.9700  -11.9460   20.7280 C   0  0  0  0  0  0  0  0  0  0  0  0
  -26.6240  -13.1770   20.1390 N   0  0  0  0  0  0  0  0  0  0  0  0
  -26.2590  -11.8960   20.4110 N   0  0  0  0  0  0  0  0  0  0  0  0
  -24.2280  -10.6940   20.9200 C   0  0  0  0  0  0  0  0  0  0  0  0
  -24.6240   -9.7380   21.8810 C   0  0  0  0  0  3  0  0  0  0  0  0
  -23.8790   -8.5520   22.0620 C   0  0  0  0  0  3  0  0  0  0  0  0
  -22.7240   -8.3130   21.2810 C   0  0  0  0  0  0  0  0  0  0  0  0
  -22.3460   -9.2560   20.3100 C   0  0  0  0  0  3  0  0  0  0  0  0
  -23.0910  -10.4330   20.1270 C   0  0  0  0  0  3  0  0  0  0  0  0
  -21.9540   -7.1770   21.3680 O   0  0  0  0  0  0  0  0  0  0  0  0
  -21.8210   -6.4880   22.5470 C   0  0  0  0  0  0  0  0  0  0  0  0
  -21.3270   -7.1030   23.7170 C   0  0  0  0  0  3  0  0  0  0  0  0
  -21.1380   -6.3390   24.8870 C   0  0  0  0  0  3  0  0  0  0  0  0
  -21.4340   -4.9630   24.8870 C   0  0  0  0  0  0  0  0  0  0  0  0
  -21.9210   -4.3480   23.7200 C   0  0  0  0  0  3  0  0  0  0  0  0
  -22.1120   -5.1090   22.5530 C   0  0  0  0  0  0  0  0  0  0  0  0
  -22.5610   -4.5050   21.4250 F   0  0  0  0  0  0  0  0  0  0  0  0
  -21.2460   -4.2290   26.0080 F   0  0  0  0  0  0  0  0  0  0  0  0
  -23.1310  -13.7980   21.0360 C   0  0  0  0  0  0  0  0  0  0  0  0
  -22.4020  -13.1260   21.9200 N   0  0  0  0  0  0  0  0  0  0  0  0
  -22.7000  -14.8170   20.4990 O   0  0  0  0  0  0  0  0  0  0  0  0
  -22.7600  -12.3000   22.3780 H   0  0  0  0  0  0  0  0  0  0  0  0
  -21.4710  -13.4450   22.1440 H   0  0  0  0  0  0  0  0  0  0  0  0
  -25.7650  -15.4350   20.2090 N   0  0  0  0  0  0  0  0  0  0  0  0
  -24.9970  -16.0870   20.3300 H   0  0  0  0  0  0  0  0  0  0  0  0
  -26.6020  -15.8770   19.8520 H   0  0  0  0  0  0  0  0  0  0  0  0
  1  4  1  0
  2  1  2  0
  2  6  1  0
  4  9  2  0
  4  3  1  0
  5  3  1  0
  5  8  1  0
  6  5  2  0
  8  7  2  0
 10  9  2  0
 11 10  1  0
 12 23  2  0
 13 11  1  0
 13 18  1  0
 14 22  1  0
 14 24  1  0
 15 21  1  0
 15 17  1  0
 16 22  1  0
 17 18  2  0
 17 16  1  0
 19 13  2  0
 20 19  1  0
 20 15  2  0
 21 14  1  0
 22 12  1  0
 24 26  2  0
 25 24  1  0
 27 25  1  0
 28 37  2  0
 28 33  1  0
 29 25  1  0
 29 33  1  0
 30 29  1  0
 31 32  1  0
 31 30  1  0
 32 28  1  0
 33 34  2  0
 34 35  1  0
 36 35  2  0
 37 36  1  0
 38 12  1  0
 38 43  1  0
 38 39  1  0
 39 42  1  1
 39 40  1  0
 41 39  1  0
 43 46  1  0
 44 48  1  0
 44 43  1  0
 45 44  2  0
 48 47  1  0
 50 48  1  0
 50 51  1  0
 50 49  1  0
 52  6  1  0
 52 61  1  0
 53 61  1  0
 54 59  1  0
 55 56  1  0
 55 54  1  0
 57 56  1  0
 57 66  1  0
 57 58  1  0
 59 53  1  0
 59 58  1  0
 60 53  2  0
 61 62  1  0
 63 64  2  0
 64 83  1  0
 65 64  1  0
 65 68  1  0
 66 63  1  0
 66 67  1  0
 67 65  2  0
 68 69  1  0
 69 70  2  0
 71 74  1  0
 71 70  1  0
 72 71  2  0
 73 72  1  0
 73 68  2  0
 74 75  1  0
 75 80  2  0
 75 76  1  0
 76 77  2  0
 77 78  1  0
 78 82  1  0
 79 78  2  0
 80 79  1  0
 81 80  1  0
 83 84  1  0
 84 87  1  0
 84 86  1  0
 85 83  2  0
 88 89  1  0
 88 63  1  0
 90 88  1  0
M  ISO  4  10 101  11 101  53 100  61 100
M  END
>  <TORSDO>  (11) 
F 19

>  <SCORE>  (11) 
-13.149

>  <name>  (11) 
10

>  <ligand_id>  (11) 
10

>  <original_smiles>  (11) 
[H]C([H])=C([H])c1c([H])c(C([H])=C([H])Oc2c([H])c([H])c3c(c2[H])C([H])([H])N(C(=O)C([H])(N([H])C(=O)C([H])(N([H])C([H])([H])[H])C([H])([H])[H])C(C([H])([H])[H])(C([H])([H])[H])C([H])([H])[H])C([H])(C(=O)N([H])C2([H])c4c([H])c([H])c([H])c([H])c4C([H])([H])C([H])([H])C2([H])[H])C3([H])[H])c([H])c([H])c1C([H])([H])N([H])C(=O)N1C([H])([H])C([H])([H])C([H])([H])C([H])(n2nc(-c3c([H])c([H])c(Oc4c([H])c([H])c(F)c([H])c4F)c([H])c3[H])c(C(=O)N([H])[H])c2N([H])[H])C1([H])[H]

>  <smiles>  (11) 
[H]C([H])=C([H])c1c([H])c(C([H])=C([H])Oc2c([H])c([H])c3c(c2[H])C([H])([H])N(C(=O)C([H])(N([H])C(=O)C([H])(N([H])C([H])([H])[H])C([H])([H])[H])C(C([H])([H])[H])(C([H])([H])[H])C([H])([H])[H])C([H])(C(=O)N([H])C2([H])c4c([H])c([H])c([H])c([H])c4C([H])([H])C([H])([H])C2([H])[H])C3([H])[H])c([H])c([H])c1C([H])([H])N([H])C(=O)N1C([H])([H])C([H])([H])C([H])([H])C([H])(n2nc(-c3c([H])c([H])c(Oc4c([H])c([H])c(F)c([H])c4F)c([H])c3[H])c(C(=O)N([H])[H])c2N([H])[H])C1([H])[H]

$$$$
11:0:0
     RDKit          3D

 93101  0  0  1  0  0  0  0  0999 V2000
  -25.0800  -22.3140   19.9400 C   0  0  0  0  0  3  0  0  0  0  0  0
  -24.8800  -23.5830   20.4830 C   0  0  0  0  0  3  0  0  0  0  0  0
  -26.3860  -21.8310   19.7840 C   0  0  0  0  0  3  0  0  0  0  0  0
  -25.9880  -24.4020   20.7250 C   0  0  0  0  0  3  0  0  0  0  0  0
  -27.5410  -22.5880   20.1300 C   0  0  0  0  0  0  0  0  0  0  0  0
  -27.3240  -24.0180   20.4210 C   0  0  0  0  0  0  0  0  0  0  0  0
  -28.8790  -21.7410   20.2650 C   0  0  0  0  0  2  0  0  0  0  0  0
  -28.8450  -20.1350   19.9690 C   0  0  0  0  0  2  0  0  0  0  0  0
  -29.8010  -19.0610   20.6810 C   0  0  0  0  0  2  0  0  0  0  0  0
  -30.0290  -17.6120   19.9910 C   0  0  0  0  0  3  0  0  0  0  0  0
  -31.2120  -17.7140   19.1090 N   0  0  0  0  0  4  0  0  0  0  0  0
  -31.4000  -16.8340   18.6600 H   0  0  0  0  0  0  0  0  0  0  0  0
  -32.0300  -17.9600   19.6390 H   0  0  0  0  0  0  0  0  0  0  0  0
  -31.0740  -18.4120   18.3990 H   0  0  0  0  0  0  0  0  0  0  0  0
  -30.0770  -16.2750   20.9120 C   0  0  0  0  0  2  0  0  0  0  0  0
  -30.7740  -14.9310   20.3900 C   0  0  0  0  0  0  0  0  0  0  0  0
  -30.6100  -12.6500   19.3870 C   0  0  0  0  0  2  0  0  0  0  0  0
  -29.7000  -12.7170   18.1410 C   0  0  0  0  0  2  0  0  0  0  0  0
  -28.2230  -12.5330   18.5380 C   0  0  0  0  0  2  0  0  0  0  0  0
  -27.8170  -13.4270   19.7410 C   0  0  0  0  0  3  0  0  0  0  0  0
  -28.8500  -13.3440   20.8860 C   0  0  0  0  0  2  0  0  0  0  0  0
  -30.1610  -13.7000   20.3310 N   0  0  0  0  0  0  0  0  0  0  0  0
  -31.9190  -15.0470   19.9440 O   0  0  0  0  0  0  0  0  0  0  0  0
  -25.4020  -13.9910   20.4020 C   0  0  0  0  0  0  0  0  0  0  0  0
  -24.3400  -13.2060   20.7620 C   0  0  0  0  0  0  0  0  0  0  0  0
  -24.8250  -11.8630   20.7630 C   0  0  0  0  0  0  0  0  0  0  0  0
  -26.4650  -13.1260   20.2030 N   0  0  0  0  0  0  0  0  0  0  0  0
  -26.1220  -11.8410   20.4810 N   0  0  0  0  0  0  0  0  0  0  0  0
  -24.1150  -10.5920   20.9590 C   0  0  0  0  0  0  0  0  0  0  0  0
  -24.5300   -9.6580   21.9350 C   0  0  0  0  0  3  0  0  0  0  0  0
  -23.8200   -8.4520   22.1190 C   0  0  0  0  0  3  0  0  0  0  0  0
  -22.6800   -8.1710   21.3280 C   0  0  0  0  0  0  0  0  0  0  0  0
  -22.2860   -9.0940   20.3430 C   0  0  0  0  0  3  0  0  0  0  0  0
  -22.9970  -10.2910   20.1570 C   0  0  0  0  0  3  0  0  0  0  0  0
  -21.9460   -7.0150   21.4180 O   0  0  0  0  0  0  0  0  0  0  0  0
  -21.8460   -6.3140   22.5930 C   0  0  0  0  0  0  0  0  0  0  0  0
  -21.3270   -6.9000   23.7680 C   0  0  0  0  0  3  0  0  0  0  0  0
  -21.1770   -6.1240   24.9360 C   0  0  0  0  0  3  0  0  0  0  0  0
  -21.5370   -4.7630   24.9280 C   0  0  0  0  0  0  0  0  0  0  0  0
  -22.0490   -4.1770   23.7570 C   0  0  0  0  0  3  0  0  0  0  0  0
  -22.2010   -4.9500   22.5920 C   0  0  0  0  0  0  0  0  0  0  0  0
  -22.6740   -4.3750   21.4610 F   0  0  0  0  0  0  0  0  0  0  0  0
  -21.3870   -4.0160   26.0460 F   0  0  0  0  0  0  0  0  0  0  0  0
  -22.9310  -13.6650   20.9970 C   0  0  0  0  0  0  0  0  0  0  0  0
  -22.2000  -12.9750   21.8650 N   0  0  0  0  0  0  0  0  0  0  0  0
  -22.4850  -14.6710   20.4460 O   0  0  0  0  0  0  0  0  0  0  0  0
  -22.5740  -12.1620   22.3330 H   0  0  0  0  0  0  0  0  0  0  0  0
  -21.2530  -13.2650   22.0670 H   0  0  0  0  0  0  0  0  0  0  0  0
  -25.5480  -15.3610   20.2040 N   0  0  0  0  0  0  0  0  0  0  0  0
  -24.7720  -16.0060   20.2950 H   0  0  0  0  0  0  0  0  0  0  0  0
  -26.3990  -15.8070   19.8880 H   0  0  0  0  0  0  0  0  0  0  0  0
  -28.3990  -25.1860   20.4760 C   0  0  0  0  0  2  0  0  0  0  0  0
  -28.3250  -26.6550   20.0960 O   0  0  0  0  0  0  0  0  0  0  0  0
  -24.5580  -31.9680   23.2600 C   0  0  0  0  0  0  0  0  0  0  0  0
  -27.1890  -27.4900   20.0990 C   0  0  0  0  0  0  0  0  0  0  0  0
  -23.3630  -30.6050   21.5830 C   0  0  0  0  0  3  0  0  0  0  0  0
  -24.8230  -29.1070   20.1090 C   0  0  0  0  0  0  0  0  0  0  0  0
  -25.9000  -30.9410   21.4120 C   0  0  0  0  0  2  0  0  0  0  0  0
  -25.9850  -29.5770   20.7350 C   0  0  0  0  0  0  0  0  0  0  0  0
  -27.1680  -28.7770   20.7270 C   0  0  0  0  0  3  0  0  0  0  0  0
  -26.0320  -27.1180   19.3850 C   0  0  0  0  0  3  0  0  0  0  0  0
  -24.8490  -27.8820   19.4230 C   0  0  0  0  0  3  0  0  0  0  0  0
  -23.5810  -29.9730   20.1830 C   0  0  0  0  0  2  0  0  0  0  0  0
  -24.6250  -31.1890   22.1410 N   0  0  0  0  0  0  0  0  0  0  0  0
  -23.4740  -32.2220   23.8030 O   0  0  0  0  0  0  0  0  0  0  0  0
  -22.7120  -29.5550   22.5150 C   0  0  0  0  0  0  0  0  0  0  0  0
  -21.3890  -29.3610   22.3770 N   0  0  0  0  0  0  0  0  0  0  0  0
  -23.3950  -28.9210   23.3230 O   0  0  0  0  0  0  0  0  0  0  0  0
  -20.8950  -29.9280   21.7020 H   0  0  0  0  0  0  0  0  0  0  0  0
  -18.0310  -28.0950   22.8250 C   0  0  0  0  0  0  0  0  0  0  0  0
  -20.5820  -28.3940   23.1210 C   0  0  0  0  0  3  0  0  0  0  0  0
  -20.7150  -26.9760   22.5170 C   0  0  0  0  0  2  0  0  0  0  0  0
  -19.6260  -26.6530   21.4910 C   0  0  0  0  0  2  0  0  0  0  0  0
  -18.2370  -26.7600   22.1300 C   0  0  0  0  0  2  0  0  0  0  0  0
  -19.1330  -28.8680   23.2790 C   0  0  0  0  0  0  0  0  0  0  0  0
  -18.8880  -30.1150   23.8940 C   0  0  0  0  0  3  0  0  0  0  0  0
  -17.5740  -30.5890   24.0630 C   0  0  0  0  0  3  0  0  0  0  0  0
  -16.4860  -29.8130   23.6260 C   0  0  0  0  0  3  0  0  0  0  0  0
  -16.7160  -28.5690   23.0110 C   0  0  0  0  0  3  0  0  0  0  0  0
  -25.8370  -32.5940   23.8960 C   0  0  0  0  0  3  0  0  0  0  0  0
  -26.3240  -31.8300   25.1890 C   0  0  1  0  0  0  0  0  0  0  0  0
  -25.2110  -31.6150   26.2410 C   0  0  0  0  0  1  0  0  0  0  0  0
  -26.9010  -30.4430   24.8230 C   0  0  0  0  0  1  0  0  0  0  0  0
  -27.4710  -32.6220   25.8630 C   0  0  0  0  0  1  0  0  0  0  0  0
  -25.5360  -33.9990   24.2070 N   0  0  0  0  0  0  0  0  0  0  0  0
  -25.8900  -35.0410   23.4440 C   0  0  0  0  0  0  0  0  0  0  0  0
  -26.5740  -34.9210   22.4250 O   0  0  0  0  0  0  0  0  0  0  0  0
  -24.9290  -34.1670   24.9960 H   0  0  0  0  0  0  0  0  0  0  0  0
  -24.1880  -36.8500   23.0450 C   0  0  0  0  0  1  0  0  0  0  0  0
  -25.4110  -36.4390   23.8820 C   0  0  0  0  0  3  0  0  0  0  0  0
  -27.5370  -37.3100   24.7450 C   0  0  0  0  0  1  0  0  0  0  0  0
  -26.4560  -37.4800   23.7790 N   0  0  0  0  0  0  0  0  0  0  0  0
  -26.0570  -38.4060   23.9060 H   0  0  0  0  0  0  0  0  0  0  0  0
  1  2  1  0
  2  4  2  0
  3  1  2  0
  3  5  1  0
  5  7  1  0
  5  6  2  0
  6 52  1  0
  6  4  1  0
  8  7  1  0
  8  9  1  0
 10  9  1  0
 10 15  1  0
 11 13  1  0
 11 10  1  0
 12 11  1  0
 14 11  1  0
 16 15  1  0
 17 22  1  0
 18 19  1  0
 18 17  1  0
 20 19  1  0
 20 27  1  0
 20 21  1  0
 22 16  1  0
 22 21  1  0
 23 16  2  0
 24 25  2  0
 25 26  1  0
 25 44  1  0
 26 29  1  0
 27 24  1  0
 27 28  1  0
 28 26  2  0
 29 30  1  0
 30 31  2  0
 32 35  1  0
 32 31  1  0
 33 32  2  0
 34 33  1  0
 34 29  2  0
 35 36  1  0
 36 37  1  0
 37 38  2  0
 39 38  1  0
 39 43  1  0
 40 39  2  0
 41 36  2  0
 41 40  1  0
 42 41  1  0
 44 45  1  0
 45 48  1  0
 45 47  1  0
 46 44  2  0
 49 50  1  0
 49 24  1  0
 51 49  1  0
 53 55  1  0
 53 52  1  0
 54 65  2  0
 55 60  1  0
 56 64  1  0
 56 66  1  0
 57 63  1  0
 57 59  1  0
 58 64  1  0
 59 58  1  0
 60 59  2  0
 61 62  1  0
 61 55  2  0
 62 57  2  0
 63 56  1  0
 64 54  1  0
 66 68  2  0
 67 66  1  0
 69 67  1  0
 70 79  2  0
 70 75  1  0
 71 67  1  0
 71 75  1  0
 72 71  1  0
 73 74  1  0
 73 72  1  0
 74 70  1  0
 75 76  2  0
 76 77  1  0
 78 77  2  0
 79 78  1  0
 80 54  1  0
 80 85  1  0
 80 81  1  0
 81 84  1  1
 81 82  1  0
 83 81  1  0
 85 88  1  0
 86 90  1  0
 86 85  1  0
 87 86  2  0
 90 89  1  0
 92 90  1  0
 92 93  1  0
 92 91  1  0
M  ISO  4  15 100  16 100  52 101  53 101
M  END
>  <TORSDO>  (12) 
F 23

>  <SCORE>  (12) 
-12.153

>  <name>  (12) 
11

>  <ligand_id>  (12) 
11

>  <original_smiles>  (12) 
[H]c1c([H])c([H])c(C([H])([H])C([H])([H])C([H])([H])C([H])(C([H])([H])C(=O)N2C([H])([H])C([H])([H])C([H])([H])C([H])(n3nc(-c4c([H])c([H])c(Oc5c([H])c([H])c(F)c([H])c5F)c([H])c4[H])c(C(=O)N([H])[H])c3N([H])[H])C2([H])[H])[N+]([H])([H])[H])c(C([H])([H])Oc2c([H])c([H])c3c(c2[H])C([H])([H])N(C(=O)C([H])(N([H])C(=O)C([H])(N([H])C([H])([H])[H])C([H])([H])[H])C(C([H])([H])[H])(C([H])([H])[H])C([H])([H])[H])C([H])(C(=O)N([H])C2([H])c4c([H])c([H])c([H])c([H])c4C([H])([H])C([H])([H])C2([H])[H])C3([H])[H])c1[H]

>  <smiles>  (12) 
[H]c1c([H])c([H])c(C([H])([H])C([H])([H])C([H])([H])C([H])(C([H])([H])C(=O)N2C([H])([H])C([H])([H])C([H])([H])C([H])(n3nc(-c4c([H])c([H])c(Oc5c([H])c([H])c(F)c([H])c5F)c([H])c4[H])c(C(=O)N([H])[H])c3N([H])[H])C2([H])[H])[N+]([H])([H])[H])c(C([H])([H])Oc2c([H])c([H])c3c(c2[H])C([H])([H])N(C(=O)C([H])(N([H])C(=O)C([H])(N([H])C([H])([H])[H])C([H])([H])[H])C(C([H])([H])[H])(C([H])([H])[H])C([H])([H])[H])C([H])(C(=O)N([H])C2([H])c4c([H])c([H])c([H])c([H])c4C([H])([H])C([H])([H])C2([H])[H])C3([H])[H])c1[H]

$$$$
12:0:0
     RDKit          3D

 96105  0  0  1  0  0  0  0  0999 V2000
  -31.6400  -22.8620   19.5950 C   0  0  0  0  0  3  0  0  0  0  0  0
  -31.6290  -21.4910   19.9370 C   0  0  0  0  0  3  0  0  0  0  0  0
  -29.2510  -22.7960   19.2550 C   0  0  0  0  0  3  0  0  0  0  0  0
  -30.4540  -23.5370   19.2230 C   0  0  0  0  0  0  0  0  0  0  0  0
  -30.4300  -20.7380   19.9450 C   0  0  0  0  0  0  0  0  0  0  0  0
  -29.2190  -21.4110   19.5900 C   0  0  0  0  0  0  0  0  0  0  0  0
  -31.5450  -15.1080   19.8550 C   0  0  0  0  0  0  0  0  0  0  0  0
  -31.1720  -12.8190   18.9880 C   0  0  0  0  0  2  0  0  0  0  0  0
  -30.1990  -12.8430   17.7940 C   0  0  0  0  0  2  0  0  0  0  0  0
  -28.7430  -12.7260   18.2840 C   0  0  0  0  0  2  0  0  0  0  0  0
  -28.4210  -13.7240   19.4250 C   0  0  0  0  0  3  0  0  0  0  0  0
  -29.5170  -13.7200   20.5170 C   0  0  0  0  0  2  0  0  0  0  0  0
  -30.8190  -13.9480   19.8680 N   0  0  0  0  0  0  0  0  0  0  0  0
  -32.6940  -15.1470   19.4070 O   0  0  0  0  0  0  0  0  0  0  0  0
  -29.9530  -18.3380   19.1730 C   0  0  0  0  0  2  0  0  0  0  0  0
  -31.8230  -18.6350   20.7260 C   0  0  0  0  0  2  0  0  0  0  0  0
  -29.8080  -16.8520   19.5840 C   0  0  0  0  0  2  0  0  0  0  0  0
  -31.6700  -17.1700   21.2290 C   0  0  0  0  0  2  0  0  0  0  0  0
  -30.4630  -19.2270   20.3110 C   0  0  0  0  0  3  0  0  0  0  0  0
  -30.9560  -16.2540   20.3070 N   0  0  0  0  0  0  0  0  0  0  0  0
  -26.1240  -14.4610   20.3080 C   0  0  0  0  0  0  0  0  0  0  0  0
  -25.0270  -13.7480   20.7040 C   0  0  0  0  0  0  0  0  0  0  0  0
  -25.3920  -12.3710   20.5890 C   0  0  0  0  0  0  0  0  0  0  0  0
  -27.0880  -13.5210   19.9780 N   0  0  0  0  0  0  0  0  0  0  0  0
  -26.6570  -12.2570   20.2080 N   0  0  0  0  0  0  0  0  0  0  0  0
  -24.5930  -11.1540   20.7610 C   0  0  0  0  0  0  0  0  0  0  0  0
  -24.9780  -10.1430   21.6690 C   0  0  0  0  0  3  0  0  0  0  0  0
  -24.1860   -8.9860   21.8300 C   0  0  0  0  0  3  0  0  0  0  0  0
  -22.9940   -8.8340   21.0830 C   0  0  0  0  0  0  0  0  0  0  0  0
  -22.6280   -9.8330   20.1630 C   0  0  0  0  0  3  0  0  0  0  0  0
  -23.4200  -10.9810   19.9990 C   0  0  0  0  0  3  0  0  0  0  0  0
  -22.1730   -7.7360   21.1560 O   0  0  0  0  0  0  0  0  0  0  0  0
  -22.0270   -7.0240   22.3190 C   0  0  0  0  0  0  0  0  0  0  0  0
  -21.5640   -7.6260   23.5100 C   0  0  0  0  0  3  0  0  0  0  0  0
  -21.3630   -6.8430   24.6630 C   0  0  0  0  0  3  0  0  0  0  0  0
  -21.6140   -5.4580   24.6270 C   0  0  0  0  0  0  0  0  0  0  0  0
  -22.0690   -4.8560   23.4400 C   0  0  0  0  0  3  0  0  0  0  0  0
  -22.2720   -5.6360   22.2890 C   0  0  0  0  0  0  0  0  0  0  0  0
  -22.6920   -5.0480   21.1430 F   0  0  0  0  0  0  0  0  0  0  0  0
  -21.4130   -4.7040   25.7320 F   0  0  0  0  0  0  0  0  0  0  0  0
  -23.6810  -14.3050   21.0710 C   0  0  0  0  0  0  0  0  0  0  0  0
  -22.9670  -13.6380   21.9700 N   0  0  0  0  0  0  0  0  0  0  0  0
  -23.2780  -15.3660   20.5970 O   0  0  0  0  0  0  0  0  0  0  0  0
  -23.3060  -12.7790   22.3770 H   0  0  0  0  0  0  0  0  0  0  0  0
  -22.0640  -13.9930   22.2550 H   0  0  0  0  0  0  0  0  0  0  0  0
  -26.3710  -15.8250   20.1770 N   0  0  0  0  0  0  0  0  0  0  0  0
  -25.6550  -16.5230   20.3500 H   0  0  0  0  0  0  0  0  0  0  0  0
  -27.2250  -16.2190   19.8050 H   0  0  0  0  0  0  0  0  0  0  0  0
  -30.4940  -25.0100   18.8820 C   0  0  0  0  0  0  0  0  0  0  0  0
  -31.5270  -25.6780   19.0070 O   0  0  0  0  0  0  0  0  0  0  0  0
  -29.2290  -25.6840   18.2900 C   0  0  0  0  0  2  0  0  0  0  0  0
  -29.1460  -27.0960   18.6090 O   0  0  0  0  0  0  0  0  0  0  0  0
  -24.7270  -30.8770   22.7350 C   0  0  0  0  0  0  0  0  0  0  0  0
  -27.8750  -27.6310   18.7490 C   0  0  0  0  0  0  0  0  0  0  0  0
  -23.6720  -29.6690   20.8510 C   0  0  0  0  0  3  0  0  0  0  0  0
  -25.2740  -28.7160   19.1070 C   0  0  0  0  0  0  0  0  0  0  0  0
  -26.1010  -30.4600   20.6950 C   0  0  0  0  0  2  0  0  0  0  0  0
  -26.3670  -29.2830   19.7750 C   0  0  0  0  0  0  0  0  0  0  0  0
  -27.6670  -28.7530   19.5880 C   0  0  0  0  0  3  0  0  0  0  0  0
  -26.7560  -27.0820   18.0780 C   0  0  0  0  0  3  0  0  0  0  0  0
  -25.4650  -27.6180   18.2540 C   0  0  0  0  0  3  0  0  0  0  0  0
  -23.9150  -29.3320   19.3550 C   0  0  0  0  0  2  0  0  0  0  0  0
  -24.8510  -30.3410   21.4860 N   0  0  0  0  0  0  0  0  0  0  0  0
  -23.6440  -30.8520   23.3370 O   0  0  0  0  0  0  0  0  0  0  0  0
  -23.2320  -28.3810   21.5840 C   0  0  0  0  0  0  0  0  0  0  0  0
  -21.9440  -28.0260   21.4530 N   0  0  0  0  0  0  0  0  0  0  0  0
  -24.0460  -27.7120   22.2250 O   0  0  0  0  0  0  0  0  0  0  0  0
  -21.3380  -28.6300   20.9140 H   0  0  0  0  0  0  0  0  0  0  0  0
  -18.8060  -26.2640   21.7990 C   0  0  0  0  0  0  0  0  0  0  0  0
  -21.3190  -26.8310   22.0210 C   0  0  0  0  0  3  0  0  0  0  0  0
  -21.5730  -25.5940   21.1300 C   0  0  0  0  0  2  0  0  0  0  0  0
  -20.4550  -25.3430   20.1120 C   0  0  0  0  0  2  0  0  0  0  0  0
  -19.1150  -25.1370   20.8260 C   0  0  0  0  0  2  0  0  0  0  0  0
  -19.8400  -27.0690   22.3470 C   0  0  0  0  0  0  0  0  0  0  0  0
  -19.4960  -28.1260   23.2170 C   0  0  0  0  0  3  0  0  0  0  0  0
  -18.1510  -28.3810   23.5440 C   0  0  0  0  0  3  0  0  0  0  0  0
  -17.1330  -27.5700   23.0120 C   0  0  0  0  0  3  0  0  0  0  0  0
  -17.4620  -26.5120   22.1450 C   0  0  0  0  0  3  0  0  0  0  0  0
  -25.9290  -31.5630   23.4540 C   0  0  0  0  0  3  0  0  0  0  0  0
  -26.4920  -30.7230   24.6650 C   0  0  1  0  0  0  0  0  0  0  0  0
  -25.4080  -30.2830   25.6750 C   0  0  0  0  0  1  0  0  0  0  0  0
  -27.2100  -29.4490   24.1580 C   0  0  0  0  0  1  0  0  0  0  0  0
  -27.5540  -31.5500   25.4290 C   0  0  0  0  0  1  0  0  0  0  0  0
  -25.4780  -32.8860   23.9060 N   0  0  0  0  0  0  0  0  0  0  0  0
  -25.7400  -34.0370   23.2720 C   0  0  0  0  0  0  0  0  0  0  0  0
  -26.4570  -34.1010   22.2690 O   0  0  0  0  0  0  0  0  0  0  0  0
  -24.8400  -32.9040   24.6890 H   0  0  0  0  0  0  0  0  0  0  0  0
  -23.8700  -35.6970   23.0040 C   0  0  0  0  0  1  0  0  0  0  0  0
  -25.1050  -35.3220   23.8380 C   0  0  0  0  0  3  0  0  0  0  0  0
  -27.1080  -36.2980   24.8690 C   0  0  0  0  0  1  0  0  0  0  0  0
  -26.0390  -36.4670   23.8880 N   0  0  0  0  0  0  0  0  0  0  0  0
  -25.5430  -37.3270   24.1030 H   0  0  0  0  0  0  0  0  0  0  0  0
  -27.0870  -21.0300   20.8850 C   0  0  0  0  0  1  0  0  0  0  0  0
  -27.8630  -20.6840   19.6040 C   0  0  0  0  0  3  0  0  0  0  0  0
  -27.6980  -20.6710   17.0220 C   0  0  0  0  0  1  0  0  0  0  0  0
  -26.9750  -20.9070   18.3570 C   0  0  0  0  0  2  0  0  0  0  0  0
  1  2  1  0
  2  5  2  0
  3  6  2  0
  4  3  1  0
  4  1  2  0
  6 94  1  0
  6  5  1  0
  7 13  1  0
  7 20  1  0
  8 13  1  0
  9 10  1  0
  9  8  1  0
 11 10  1  0
 11 24  1  0
 11 12  1  0
 13 12  1  0
 14  7  2  0
 15 17  1  0
 15 19  1  0
 16 18  1  0
 17 20  1  0
 19  5  1  0
 19 16  1  0
 20 18  1  0
 21 22  2  0
 22 41  1  0
 23 22  1  0
 23 26  1  0
 24 25  1  0
 24 21  1  0
 25 23  2  0
 26 27  1  0
 27 28  2  0
 29 32  1  0
 29 28  1  0
 30 29  2  0
 31 30  1  0
 31 26  2  0
 32 33  1  0
 33 34  1  0
 34 35  2  0
 36 35  1  0
 36 40  1  0
 37 36  2  0
 38 33  2  0
 38 37  1  0
 39 38  1  0
 41 42  1  0
 42 45  1  0
 42 44  1  0
 43 41  2  0
 46 21  1  0
 46 47  1  0
 48 46  1  0
 49 50  2  0
 49  4  1  0
 51 52  1  0
 51 49  1  0
 52 54  1  0
 53 64  2  0
 54 59  1  0
 55 63  1  0
 55 65  1  0
 56 62  1  0
 56 58  1  0
 57 63  1  0
 58 57  1  0
 59 58  2  0
 60 61  1  0
 60 54  2  0
 61 56  2  0
 62 55  1  0
 63 53  1  0
 65 67  2  0
 66 65  1  0
 68 66  1  0
 69 78  2  0
 69 74  1  0
 70 66  1  0
 70 74  1  0
 71 70  1  0
 72 73  1  0
 72 71  1  0
 73 69  1  0
 74 75  2  0
 75 76  1  0
 77 76  2  0
 78 77  1  0
 79 53  1  0
 79 84  1  0
 79 80  1  0
 80 83  1  1
 80 81  1  0
 82 80  1  0
 84 87  1  0
 85 89  1  0
 85 84  1  0
 86 85  2  0
 89 88  1  0
 89 91  1  0
 91 92  1  0
 91 90  1  0
 94 93  1  0
 95 96  1  0
 96 94  1  0
M  ISO  4   7 100  20 100  51 101  52 101
M  END
>  <TORSDO>  (13) 
F 20

>  <SCORE>  (13) 
-8.088

>  <name>  (13) 
12

>  <ligand_id>  (13) 
12

>  <original_smiles>  (13) 
[H]c1c([H])c([H])c2c(c1[H])C([H])([H])C([H])([H])C([H])([H])C2([H])N([H])C(=O)C1([H])N(C(=O)C([H])(N([H])C(=O)C([H])(N([H])C([H])([H])[H])C([H])([H])[H])C(C([H])([H])[H])(C([H])([H])[H])C([H])([H])[H])C([H])([H])c2c([H])c(OC([H])([H])C(=O)c3c([H])c([H])c(C4([H])C([H])([H])C([H])([H])N(C(=O)N5C([H])([H])C([H])([H])C([H])([H])C([H])(n6nc(-c7c([H])c([H])c(Oc8c([H])c([H])c(F)c([H])c8F)c([H])c7[H])c(C(=O)N([H])[H])c6N([H])[H])C5([H])[H])C([H])([H])C4([H])[H])c(C([H])(C([H])([H])[H])C([H])([H])C([H])([H])[H])c3[H])c([H])c([H])c2C1([H])[H]

>  <smiles>  (13) 
[H]c1c([H])c([H])c2c(c1[H])C([H])([H])C([H])([H])C([H])([H])C2([H])N([H])C(=O)C1([H])N(C(=O)C([H])(N([H])C(=O)C([H])(N([H])C([H])([H])[H])C([H])([H])[H])C(C([H])([H])[H])(C([H])([H])[H])C([H])([H])[H])C([H])([H])c2c([H])c(OC([H])([H])C(=O)c3c([H])c([H])c(C4([H])C([H])([H])C([H])([H])N(C(=O)N5C([H])([H])C([H])([H])C([H])([H])C([H])(n6nc(-c7c([H])c([H])c(Oc8c([H])c([H])c(F)c([H])c8F)c([H])c7[H])c(C(=O)N([H])[H])c6N([H])[H])C5([H])[H])C([H])([H])C4([H])[H])c(C([H])(C([H])([H])[H])C([H])([H])C([H])([H])[H])c3[H])c([H])c([H])c2C1([H])[H]

$$$$
13:0:0
     RDKit          3D

 92 99  0  0  1  0  0  0  0  0999 V2000
  -30.3080  -20.8900   20.4940 C   0  0  0  0  0  3  0  0  0  0  0  0
  -31.5850  -21.5390   20.1270 N   0  0  0  0  0  4  0  0  0  0  0  0
  -32.3620  -21.0000   20.4630 H   0  0  0  0  0  0  0  0  0  0  0  0
  -31.6500  -22.4640   20.5100 H   0  0  0  0  0  0  0  0  0  0  0  0
  -31.6610  -21.5870   19.1240 H   0  0  0  0  0  0  0  0  0  0  0  0
  -30.3090  -19.5180   19.7890 C   0  0  0  0  0  0  0  0  0  0  0  0
  -30.5430  -19.4040   18.5780 O   0  0  0  0  0  0  0  0  0  0  0  0
  -30.0340  -18.2500   20.6490 C   0  0  0  0  0  0  0  0  0  0  0  0
  -29.7530  -18.3340   21.8510 O   0  0  0  0  0  0  0  0  0  0  0  0
  -30.1140  -16.8880   19.9460 C   0  0  0  0  0  2  0  0  0  0  0  0
  -30.0660  -15.6580   20.8950 C   0  0  0  0  0  2  0  0  0  0  0  0
  -30.7260  -14.4260   20.2470 C   0  0  0  0  0  0  0  0  0  0  0  0
  -30.3520  -12.3240   19.0200 C   0  0  0  0  0  2  0  0  0  0  0  0
  -29.3740  -12.6190   17.8630 C   0  0  0  0  0  2  0  0  0  0  0  0
  -27.9100  -12.5050   18.3370 C   0  0  0  0  0  2  0  0  0  0  0  0
  -27.6430  -13.2820   19.6540 C   0  0  0  0  0  3  0  0  0  0  0  0
  -28.7310  -12.9610   20.7040 C   0  0  0  0  0  2  0  0  0  0  0  0
  -30.0400  -13.2610   20.1090 N   0  0  0  0  0  0  0  0  0  0  0  0
  -31.8430  -14.5920   19.7460 O   0  0  0  0  0  0  0  0  0  0  0  0
  -25.2670  -13.9080   20.4300 C   0  0  0  0  0  0  0  0  0  0  0  0
  -24.2020  -13.1430   20.8260 C   0  0  0  0  0  0  0  0  0  0  0  0
  -24.6520  -11.7880   20.7770 C   0  0  0  0  0  0  0  0  0  0  0  0
  -26.2990  -13.0190   20.1700 N   0  0  0  0  0  0  0  0  0  0  0  0
  -25.9330  -11.7390   20.4330 N   0  0  0  0  0  0  0  0  0  0  0  0
  -23.9210  -10.5310   20.9820 C   0  0  0  0  0  0  0  0  0  0  0  0
  -24.3730   -9.5590   21.9020 C   0  0  0  0  0  3  0  0  0  0  0  0
  -23.6460   -8.3640   22.0980 C   0  0  0  0  0  3  0  0  0  0  0  0
  -22.4520   -8.1350   21.3730 C   0  0  0  0  0  0  0  0  0  0  0  0
  -22.0190   -9.0940   20.4410 C   0  0  0  0  0  3  0  0  0  0  0  0
  -22.7470  -10.2800   20.2430 C   0  0  0  0  0  3  0  0  0  0  0  0
  -21.6940   -6.9940   21.4780 O   0  0  0  0  0  0  0  0  0  0  0  0
  -21.6670   -6.2500   22.6310 C   0  0  0  0  0  0  0  0  0  0  0  0
  -21.2760   -6.8050   23.8690 C   0  0  0  0  0  3  0  0  0  0  0  0
  -21.1970   -5.9880   25.0130 C   0  0  0  0  0  3  0  0  0  0  0  0
  -21.4980   -4.6150   24.9210 C   0  0  0  0  0  0  0  0  0  0  0  0
  -21.8840   -4.0600   23.6880 C   0  0  0  0  0  3  0  0  0  0  0  0
  -21.9650   -4.8750   22.5460 C   0  0  0  0  0  0  0  0  0  0  0  0
  -22.3150   -4.3300   21.3560 F   0  0  0  0  0  0  0  0  0  0  0  0
  -21.4140   -3.8280   26.0190 F   0  0  0  0  0  0  0  0  0  0  0  0
  -22.8140  -13.6300   21.1360 C   0  0  0  0  0  0  0  0  0  0  0  0
  -22.1040  -12.9370   22.0200 N   0  0  0  0  0  0  0  0  0  0  0  0
  -22.3690  -14.6570   20.6280 O   0  0  0  0  0  0  0  0  0  0  0  0
  -22.4760  -12.1060   22.4540 H   0  0  0  0  0  0  0  0  0  0  0  0
  -21.1730  -13.2430   22.2690 H   0  0  0  0  0  0  0  0  0  0  0  0
  -25.4370  -15.2770   20.2490 N   0  0  0  0  0  0  0  0  0  0  0  0
  -24.6740  -15.9340   20.3750 H   0  0  0  0  0  0  0  0  0  0  0  0
  -26.2800  -15.7110   19.8970 H   0  0  0  0  0  0  0  0  0  0  0  0
  -29.0970  -21.7670   20.0660 C   0  0  0  0  0  2  0  0  0  0  0  0
  -28.9260  -23.0540   20.9120 C   0  0  0  0  0  2  0  0  0  0  0  0
  -28.5140  -24.2980   20.0980 C   0  0  0  0  0  2  0  0  0  0  0  0
  -28.4400  -25.5660   20.9680 C   0  0  0  0  0  2  0  0  0  0  0  0
  -28.4190  -26.7470   20.1720 O   0  0  0  0  0  0  0  0  0  0  0  0
  -24.5440  -31.8630   23.2320 C   0  0  0  0  0  0  0  0  0  0  0  0
  -27.2400  -27.4440   20.1930 C   0  0  0  0  0  0  0  0  0  0  0  0
  -23.3590  -30.4540   21.5770 C   0  0  0  0  0  3  0  0  0  0  0  0
  -24.8340  -28.9140   20.1790 C   0  0  0  0  0  0  0  0  0  0  0  0
  -25.8820  -30.8270   21.4040 C   0  0  0  0  0  2  0  0  0  0  0  0
  -25.9820  -29.4550   20.7740 C   0  0  0  0  0  0  0  0  0  0  0  0
  -27.1900  -28.7290   20.7740 C   0  0  0  0  0  3  0  0  0  0  0  0
  -26.0800  -26.9030   19.6040 C   0  0  0  0  0  3  0  0  0  0  0  0
  -24.8760  -27.6340   19.5950 C   0  0  0  0  0  3  0  0  0  0  0  0
  -23.5850  -29.7680   20.2040 C   0  0  0  0  0  2  0  0  0  0  0  0
  -24.6130  -31.0630   22.1310 N   0  0  0  0  0  0  0  0  0  0  0  0
  -23.4570  -32.1330   23.7590 O   0  0  0  0  0  0  0  0  0  0  0  0
  -22.7000  -29.4350   22.5330 C   0  0  0  0  0  0  0  0  0  0  0  0
  -21.3770  -29.2530   22.3910 N   0  0  0  0  0  0  0  0  0  0  0  0
  -23.3760  -28.8090   23.3540 O   0  0  0  0  0  0  0  0  0  0  0  0
  -20.8950  -29.8110   21.7000 H   0  0  0  0  0  0  0  0  0  0  0  0
  -17.9960  -28.0710   22.8540 C   0  0  0  0  0  0  0  0  0  0  0  0
  -20.5520  -28.3170   23.1530 C   0  0  0  0  0  3  0  0  0  0  0  0
  -20.6560  -26.8870   22.5740 C   0  0  0  0  0  2  0  0  0  0  0  0
  -19.5630  -26.5710   21.5490 C   0  0  0  0  0  2  0  0  0  0  0  0
  -18.1750  -26.7210   22.1800 C   0  0  0  0  0  2  0  0  0  0  0  0
  -19.1130  -28.8280   23.2970 C   0  0  0  0  0  0  0  0  0  0  0  0
  -18.8950  -30.0920   23.8850 C   0  0  0  0  0  3  0  0  0  0  0  0
  -17.5910  -30.5990   24.0380 C   0  0  0  0  0  3  0  0  0  0  0  0
  -16.4880  -29.8400   23.6130 C   0  0  0  0  0  3  0  0  0  0  0  0
  -16.6920  -28.5770   23.0270 C   0  0  0  0  0  3  0  0  0  0  0  0
  -25.8230  -32.4950   23.8660 C   0  0  0  0  0  3  0  0  0  0  0  0
  -26.3240  -31.7290   25.1520 C   0  0  1  0  0  0  0  0  0  0  0  0
  -25.2190  -31.4970   26.2080 C   0  0  0  0  0  1  0  0  0  0  0  0
  -26.9110  -30.3500   24.7690 C   0  0  0  0  0  1  0  0  0  0  0  0
  -27.4650  -32.5260   25.8250 C   0  0  0  0  0  1  0  0  0  0  0  0
  -25.5120  -33.8940   24.1830 N   0  0  0  0  0  0  0  0  0  0  0  0
  -25.8530  -34.9400   23.4200 C   0  0  0  0  0  0  0  0  0  0  0  0
  -26.5360  -34.8290   22.3970 O   0  0  0  0  0  0  0  0  0  0  0  0
  -24.9070  -34.0560   24.9750 H   0  0  0  0  0  0  0  0  0  0  0  0
  -24.1270  -36.7280   23.0310 C   0  0  0  0  0  1  0  0  0  0  0  0
  -25.3590  -36.3320   23.8610 C   0  0  0  0  0  3  0  0  0  0  0  0
  -27.4830  -37.2240   24.7090 C   0  0  0  0  0  1  0  0  0  0  0  0
  -26.3920  -37.3850   23.7510 N   0  0  0  0  0  0  0  0  0  0  0  0
  -25.9830  -38.3050   23.8890 H   0  0  0  0  0  0  0  0  0  0  0  0
  1 48  1  0
  2  3  1  0
  2  1  1  0
  2  4  1  0
  5  2  1  0
  6  1  1  0
  6  8  1  0
  7  6  2  0
  8  9  2  0
 10  8  1  0
 10 11  1  0
 12 11  1  0
 13 18  1  0
 14 15  1  0
 14 13  1  0
 16 15  1  0
 16 23  1  0
 16 17  1  0
 18 12  1  0
 18 17  1  0
 19 12  2  0
 20 21  2  0
 21 40  1  0
 22 21  1  0
 22 25  1  0
 23 20  1  0
 23 24  1  0
 24 22  2  0
 25 26  1  0
 26 27  2  0
 28 31  1  0
 28 27  1  0
 29 28  2  0
 30 29  1  0
 30 25  2  0
 31 32  1  0
 32 33  1  0
 33 34  2  0
 35 34  1  0
 35 39  1  0
 36 35  2  0
 37 32  2  0
 37 36  1  0
 38 37  1  0
 40 41  1  0
 41 44  1  0
 41 43  1  0
 42 40  2  0
 45 46  1  0
 45 20  1  0
 47 45  1  0
 48 49  1  0
 50 49  1  0
 50 51  1  0
 52 54  1  0
 52 51  1  0
 53 64  2  0
 54 59  1  0
 55 63  1  0
 55 65  1  0
 56 62  1  0
 56 58  1  0
 57 63  1  0
 58 57  1  0
 59 58  2  0
 60 54  2  0
 61 60  1  0
 61 56  2  0
 62 55  1  0
 63 53  1  0
 65 67  2  0
 66 65  1  0
 68 66  1  0
 69 78  2  0
 69 74  1  0
 70 66  1  0
 70 74  1  0
 71 70  1  0
 72 73  1  0
 72 71  1  0
 73 69  1  0
 74 75  2  0
 75 76  1  0
 77 76  2  0
 78 77  1  0
 79 53  1  0
 79 84  1  0
 79 80  1  0
 80 83  1  1
 80 81  1  0
 82 80  1  0
 84 87  1  0
 85 89  1  0
 85 84  1  0
 86 85  2  0
 89 88  1  0
 91 89  1  0
 91 92  1  0
 91 90  1  0
M  ISO  4  11 100  12 100  51 101  52 101
M  END
>  <TORSDO>  (14) 
F 25

>  <SCORE>  (14) 
-12.023

>  <name>  (14) 
13

>  <ligand_id>  (14) 
13

>  <original_smiles>  (14) 
[H]c1c([H])c([H])c2c(c1[H])C([H])([H])C([H])([H])C([H])([H])C2([H])N([H])C(=O)C1([H])N(C(=O)C([H])(N([H])C(=O)C([H])(N([H])C([H])([H])[H])C([H])([H])[H])C(C([H])([H])[H])(C([H])([H])[H])C([H])([H])[H])C([H])([H])c2c([H])c(OC([H])([H])C([H])([H])C([H])([H])C([H])([H])C([H])(C(=O)C(=O)C([H])([H])C([H])([H])C(=O)N3C([H])([H])C([H])([H])C([H])([H])C([H])(n4nc(-c5c([H])c([H])c(Oc6c([H])c([H])c(F)c([H])c6F)c([H])c5[H])c(C(=O)N([H])[H])c4N([H])[H])C3([H])[H])[N+]([H])([H])[H])c([H])c([H])c2C1([H])[H]

>  <smiles>  (14) 
[H]c1c([H])c([H])c2c(c1[H])C([H])([H])C([H])([H])C([H])([H])C2([H])N([H])C(=O)C1([H])N(C(=O)C([H])(N([H])C(=O)C([H])(N([H])C([H])([H])[H])C([H])([H])[H])C(C([H])([H])[H])(C([H])([H])[H])C([H])([H])[H])C([H])([H])c2c([H])c(OC([H])([H])C([H])([H])C([H])([H])C([H])([H])C([H])(C(=O)C(=O)C([H])([H])C([H])([H])C(=O)N3C([H])([H])C([H])([H])C([H])([H])C([H])(n4nc(-c5c([H])c([H])c(Oc6c([H])c([H])c(F)c([H])c6F)c([H])c5[H])c(C(=O)N([H])[H])c4N([H])[H])C3([H])[H])[N+]([H])([H])[H])c([H])c([H])c2C1([H])[H]

$$$$
14:0:0
     RDKit          3D

 92100  0  0  1  0  0  0  0  0999 V2000
  -26.2780  -22.4300   17.8490 C   0  0  0  0  0  3  0  0  0  0  0  0
  -26.3310  -21.0410   17.9490 C   0  0  0  0  0  3  0  0  0  0  0  0
  -27.1570  -23.2030   18.6160 C   0  0  0  0  0  3  0  0  0  0  0  0
  -27.2960  -20.4410   18.7680 C   0  0  0  0  0  3  0  0  0  0  0  0
  -28.1050  -22.6450   19.5130 C   0  0  0  0  0  0  0  0  0  0  0  0
  -28.2470  -21.1750   19.5350 C   0  0  0  0  0  0  0  0  0  0  0  0
  -28.8560  -23.7650   20.2580 C   0  0  0  0  0  0  0  0  0  0  0  0
  -30.0540  -23.6750   20.5380 O   0  0  0  0  0  0  0  0  0  0  0  0
  -28.0280  -25.0420   20.7620 C   0  0  0  0  0  2  0  0  0  0  0  0
  -28.3200  -26.4020   20.2160 O   0  0  0  0  0  0  0  0  0  0  0  0
  -24.5970  -31.8590   23.2110 C   0  0  0  0  0  0  0  0  0  0  0  0
  -27.2260  -27.2860   20.1810 C   0  0  0  0  0  0  0  0  0  0  0  0
  -23.4040  -30.4580   21.5650 C   0  0  0  0  0  3  0  0  0  0  0  0
  -24.8650  -28.9090   20.1500 C   0  0  0  0  0  0  0  0  0  0  0  0
  -25.9460  -30.7770   21.3960 C   0  0  0  0  0  2  0  0  0  0  0  0
  -26.0320  -29.3960   20.7540 C   0  0  0  0  0  0  0  0  0  0  0  0
  -27.2190  -28.5980   20.7570 C   0  0  0  0  0  3  0  0  0  0  0  0
  -26.0380  -26.8620   19.5500 C   0  0  0  0  0  3  0  0  0  0  0  0
  -24.8710  -27.6490   19.5350 C   0  0  0  0  0  3  0  0  0  0  0  0
  -23.6280  -29.7830   20.1870 C   0  0  0  0  0  2  0  0  0  0  0  0
  -24.6680  -31.0490   22.1150 N   0  0  0  0  0  0  0  0  0  0  0  0
  -23.5100  -32.1370   23.7380 O   0  0  0  0  0  0  0  0  0  0  0  0
  -22.7350  -29.4430   22.5220 C   0  0  0  0  0  0  0  0  0  0  0  0
  -21.4070  -29.2800   22.4010 N   0  0  0  0  0  0  0  0  0  0  0  0
  -23.4110  -28.8050   23.3350 O   0  0  0  0  0  0  0  0  0  0  0  0
  -20.9210  -29.8470   21.7200 H   0  0  0  0  0  0  0  0  0  0  0  0
  -18.0160  -28.1280   22.9260 C   0  0  0  0  0  0  0  0  0  0  0  0
  -20.5800  -28.3460   23.1700 C   0  0  0  0  0  3  0  0  0  0  0  0
  -20.6540  -26.9200   22.5780 C   0  0  0  0  0  2  0  0  0  0  0  0
  -19.5360  -26.6240   21.5730 C   0  0  0  0  0  2  0  0  0  0  0  0
  -18.1640  -26.7830   22.2340 C   0  0  0  0  0  2  0  0  0  0  0  0
  -19.1510  -28.8690   23.3500 C   0  0  0  0  0  0  0  0  0  0  0  0
  -18.9580  -30.1280   23.9600 C   0  0  0  0  0  3  0  0  0  0  0  0
  -17.6610  -30.6470   24.1440 C   0  0  0  0  0  3  0  0  0  0  0  0
  -16.5420  -29.9040   23.7340 C   0  0  0  0  0  3  0  0  0  0  0  0
  -16.7200  -28.6460   23.1300 C   0  0  0  0  0  3  0  0  0  0  0  0
  -25.8740  -32.4930   23.8400 C   0  0  0  0  0  3  0  0  0  0  0  0
  -25.5610  -33.8910   24.1710 N   0  0  0  0  0  0  0  0  0  0  0  0
  -25.8930  -34.9460   23.4150 C   0  0  0  0  0  0  0  0  0  0  0  0
  -26.5660  -34.8450   22.3860 O   0  0  0  0  0  0  0  0  0  0  0  0
  -24.9660  -34.0430   24.9730 H   0  0  0  0  0  0  0  0  0  0  0  0
  -24.1690  -36.7410   23.0530 C   0  0  0  0  0  1  0  0  0  0  0  0
  -25.4020  -36.3330   23.8740 C   0  0  0  0  0  3  0  0  0  0  0  0
  -27.5280  -37.2160   24.7280 C   0  0  0  0  0  1  0  0  0  0  0  0
  -26.4360  -37.3860   23.7730 N   0  0  0  0  0  0  0  0  0  0  0  0
  -26.0280  -38.3060   23.9180 H   0  0  0  0  0  0  0  0  0  0  0  0
  -26.3850  -31.7210   25.1200 C   0  0  1  0  0  0  0  0  0  0  0  0
  -25.2870  -31.4830   26.1820 C   0  0  0  0  0  1  0  0  0  0  0  0
  -26.9700  -30.3440   24.7300 C   0  0  0  0  0  1  0  0  0  0  0  0
  -27.5310  -32.5170   25.7880 C   0  0  0  0  0  1  0  0  0  0  0  0
  -29.3180  -20.2690   20.2850 C   0  0  0  0  0  3  0  0  0  0  0  0
  -29.1890  -18.6530   20.1130 C   0  0  0  0  0  3  0  0  0  0  0  0
  -30.7290  -17.8140   21.9810 C   0  0  0  0  0  1  0  0  0  0  0  0
  -31.5130  -17.7880   19.6030 C   0  0  0  0  0  1  0  0  0  0  0  0
  -30.2970  -17.5570   20.5250 C   0  0  2  0  0  0  0  0  0  0  0  0
  -29.7380  -16.0290   20.4070 C   0  0  0  0  0  2  0  0  0  0  0  0
  -30.6230  -14.6910   20.2970 C   0  0  0  0  0  0  0  0  0  0  0  0
  -30.4300  -12.4240   19.2890 C   0  0  0  0  0  2  0  0  0  0  0  0
  -29.4840  -12.5390   18.0710 C   0  0  0  0  0  2  0  0  0  0  0  0
  -28.0120  -12.3700   18.5010 C   0  0  0  0  0  2  0  0  0  0  0  0
  -27.6490  -13.2400   19.7340 C   0  0  0  0  0  3  0  0  0  0  0  0
  -28.7150  -13.1170   20.8440 C   0  0  0  0  0  2  0  0  0  0  0  0
  -30.0210  -13.4560   20.2650 N   0  0  0  0  0  0  0  0  0  0  0  0
  -31.8150  -14.7840   19.9960 O   0  0  0  0  0  0  0  0  0  0  0  0
  -25.2610  -13.8310   20.4730 C   0  0  0  0  0  0  0  0  0  0  0  0
  -24.1980  -13.0550   20.8490 C   0  0  0  0  0  0  0  0  0  0  0  0
  -24.6640  -11.7040   20.8160 C   0  0  0  0  0  0  0  0  0  0  0  0
  -26.3060  -12.9510   20.2310 N   0  0  0  0  0  0  0  0  0  0  0  0
  -25.9530  -11.6690   20.5000 N   0  0  0  0  0  0  0  0  0  0  0  0
  -23.9400  -10.4420   21.0110 C   0  0  0  0  0  0  0  0  0  0  0  0
  -24.3770   -9.4780   21.9470 C   0  0  0  0  0  3  0  0  0  0  0  0
  -23.6550   -8.2790   22.1300 C   0  0  0  0  0  3  0  0  0  0  0  0
  -22.4820   -8.0350   21.3770 C   0  0  0  0  0  0  0  0  0  0  0  0
  -22.0640   -8.9870   20.4300 C   0  0  0  0  0  3  0  0  0  0  0  0
  -22.7870  -10.1790   20.2460 C   0  0  0  0  0  3  0  0  0  0  0  0
  -21.7310   -6.8880   21.4690 O   0  0  0  0  0  0  0  0  0  0  0  0
  -21.6800   -6.1510   22.6240 C   0  0  0  0  0  0  0  0  0  0  0  0
  -21.2360   -6.7050   23.8440 C   0  0  0  0  0  3  0  0  0  0  0  0
  -21.1350   -5.8930   24.9910 C   0  0  0  0  0  3  0  0  0  0  0  0
  -21.4690   -4.5270   24.9190 C   0  0  0  0  0  0  0  0  0  0  0  0
  -21.9060   -3.9720   23.7030 C   0  0  0  0  0  3  0  0  0  0  0  0
  -22.0080   -4.7810   22.5590 C   0  0  0  0  0  0  0  0  0  0  0  0
  -22.4100   -4.2360   21.3840 F   0  0  0  0  0  0  0  0  0  0  0  0
  -21.3640   -3.7440   26.0180 F   0  0  0  0  0  0  0  0  0  0  0  0
  -22.8020  -13.5300   21.1260 C   0  0  0  0  0  0  0  0  0  0  0  0
  -22.0790  -12.8330   21.9970 N   0  0  0  0  0  0  0  0  0  0  0  0
  -22.3590  -14.5530   20.6060 O   0  0  0  0  0  0  0  0  0  0  0  0
  -22.4490  -12.0070   22.4420 H   0  0  0  0  0  0  0  0  0  0  0  0
  -21.1400  -13.1330   22.2230 H   0  0  0  0  0  0  0  0  0  0  0  0
  -25.4240  -15.2020   20.2960 N   0  0  0  0  0  0  0  0  0  0  0  0
  -24.6610  -15.8590   20.4220 H   0  0  0  0  0  0  0  0  0  0  0  0
  -26.2790  -15.6440   19.9840 H   0  0  0  0  0  0  0  0  0  0  0  0
  1  2  2  0
  1  3  1  0
  2  4  1  0
  3  5  2  0
  4  6  2  0
  5  6  1  0
  5  7  1  0
  6 51  1  0
  7  8  2  0
  7  9  1  0
 10  9  1  0
 11 22  2  0
 12 10  1  0
 12 17  1  0
 13 21  1  0
 13 23  1  0
 14 20  1  0
 14 16  1  0
 15 21  1  0
 16 17  2  0
 16 15  1  0
 18 12  2  0
 19 18  1  0
 19 14  2  0
 20 13  1  0
 21 11  1  0
 23 25  2  0
 24 23  1  0
 26 24  1  0
 27 36  2  0
 27 32  1  0
 28 24  1  0
 28 32  1  0
 29 28  1  0
 30 31  1  0
 30 29  1  0
 31 27  1  0
 32 33  2  0
 33 34  1  0
 35 34  2  0
 36 35  1  0
 37 11  1  0
 37 38  1  0
 37 47  1  0
 38 41  1  0
 39 43  1  0
 39 38  1  0
 40 39  2  0
 43 42  1  0
 45 43  1  0
 45 46  1  0
 45 44  1  0
 47 50  1  1
 47 48  1  0
 49 47  1  0
 52 51  2  0
 52 55  1  0
 55 54  1  6
 55 53  1  0
 56 55  1  0
 57 56  1  0
 58 63  1  0
 59 60  1  0
 59 58  1  0
 61 60  1  0
 61 68  1  0
 61 62  1  0
 63 57  1  0
 63 62  1  0
 64 57  2  0
 65 66  2  0
 66 85  1  0
 67 66  1  0
 67 70  1  0
 68 65  1  0
 68 69  1  0
 69 67  2  0
 70 71  1  0
 71 72  2  0
 73 76  1  0
 73 72  1  0
 74 73  2  0
 75 74  1  0
 75 70  2  0
 76 77  1  0
 77 78  1  0
 78 79  2  0
 80 79  1  0
 80 84  1  0
 81 80  2  0
 82 77  2  0
 82 81  1  0
 83 82  1  0
 85 86  1  0
 86 89  1  0
 86 88  1  0
 87 85  2  0
 90 91  1  0
 90 65  1  0
 92 90  1  0
M  ISO  4   9 101  10 101  56 100  57 100
M  END
>  <TORSDO>  (15) 
F 22

>  <SCORE>  (15) 
-13.376

>  <name>  (15) 
14

>  <ligand_id>  (15) 
14

>  <original_smiles>  (15) 
[H]c1c([H])c([H])c(C([H])([H])C([H])([H])C(C([H])([H])[H])(C([H])([H])[H])C([H])([H])C(=O)N2C([H])([H])C([H])([H])C([H])([H])C([H])(n3nc(-c4c([H])c([H])c(Oc5c([H])c([H])c(F)c([H])c5F)c([H])c4[H])c(C(=O)N([H])[H])c3N([H])[H])C2([H])[H])c(C(=O)C([H])([H])Oc2c([H])c([H])c3c(c2[H])C([H])([H])N(C(=O)C([H])(N([H])C(=O)C([H])(N([H])C([H])([H])[H])C([H])([H])[H])C(C([H])([H])[H])(C([H])([H])[H])C([H])([H])[H])C([H])(C(=O)N([H])C2([H])c4c([H])c([H])c([H])c([H])c4C([H])([H])C([H])([H])C2([H])[H])C3([H])[H])c1[H]

>  <smiles>  (15) 
[H]c1c([H])c([H])c(C([H])([H])C([H])([H])C(C([H])([H])[H])(C([H])([H])[H])C([H])([H])C(=O)N2C([H])([H])C([H])([H])C([H])([H])C([H])(n3nc(-c4c([H])c([H])c(Oc5c([H])c([H])c(F)c([H])c5F)c([H])c4[H])c(C(=O)N([H])[H])c3N([H])[H])C2([H])[H])c(C(=O)C([H])([H])Oc2c([H])c([H])c3c(c2[H])C([H])([H])N(C(=O)C([H])(N([H])C(=O)C([H])(N([H])C([H])([H])[H])C([H])([H])[H])C(C([H])([H])[H])(C([H])([H])[H])C([H])([H])[H])C([H])(C(=O)N([H])C2([H])c4c([H])c([H])c([H])c([H])c4C([H])([H])C([H])([H])C2([H])[H])C3([H])[H])c1[H]

$$$$
15:0:0
     RDKit          3D

 84 87  0  0  1  0  0  0  0  0999 V2000
  -28.2290  -23.5130   19.9370 C   0  0  0  0  0  1  0  0  0  0  0  0
  -28.4010  -21.5030   21.8080 C   0  0  0  0  0  1  0  0  0  0  0  0
  -30.5000  -22.0750   20.5880 C   0  0  0  0  0  1  0  0  0  0  0  0
  -29.0240  -21.6810   20.4220 C   0  0  0  0  0  2  0  0  0  0  0  0
  -29.2550  -19.7180   19.8450 C   0  0  0  0  0 15  0  0  0  0  0  0
  -30.6550  -18.1570   21.6090 C   0  0  0  0  0  1  0  0  0  0  0  0
  -29.6830  -17.8060   20.4700 C   0  0  0  0  0  1  0  0  0  0  0  0
  -30.3130  -15.9830   20.0320 C   0  0  0  0  0  2  0  0  0  0  0  0
  -30.4320  -13.3550   19.2520 C   0  0  0  0  0  2  0  0  0  0  0  0
  -29.5290  -12.8790   18.0670 C   0  0  0  0  0  2  0  0  0  0  0  0
  -28.1320  -12.4840   18.5610 C   0  0  0  0  0  2  0  0  0  0  0  0
  -27.6300  -13.4940   19.6120 C   0  0  0  0  0  3  0  0  0  0  0  0
  -28.6750  -13.8880   20.6900 C   0  0  0  0  0  2  0  0  0  0  0  0
  -29.8210  -14.5650   20.0150 N   0  0  0  0  0  0  0  0  0  0  0  0
  -31.5160  -15.8430   19.7190 O   0  0  0  0  0  1  0  0  0  0  0  0
  -25.2900  -14.0050   20.4350 C   0  0  0  0  0  0  0  0  0  0  0  0
  -24.2390  -13.2240   20.8180 C   0  0  0  0  0  0  0  0  0  0  0  0
  -24.7070  -11.8750   20.7720 C   0  0  0  0  0  0  0  0  0  0  0  0
  -26.3310  -13.1400   20.1650 N   0  0  0  0  0  0  0  0  0  0  0  0
  -25.9950  -11.8460   20.4310 N   0  0  0  0  0  0  0  0  0  0  0  0
  -23.9790  -10.6140   20.9760 C   0  0  0  0  0  0  0  0  0  0  0  0
  -24.4250   -9.6390   21.8970 C   0  0  0  0  0  3  0  0  0  0  0  0
  -23.6920   -8.4500   22.0940 C   0  0  0  0  0  3  0  0  0  0  0  0
  -22.4970   -8.2240   21.3720 C   0  0  0  0  0  0  0  0  0  0  0  0
  -22.0670   -9.1870   20.4400 C   0  0  0  0  0  3  0  0  0  0  0  0
  -22.8010  -10.3680   20.2420 C   0  0  0  0  0  3  0  0  0  0  0  0
  -21.7350   -7.0850   21.4760 O   0  0  0  0  0  0  0  0  0  0  0  0
  -21.7150   -6.3330   22.6230 C   0  0  0  0  0  0  0  0  0  0  0  0
  -21.3360   -6.8830   23.8670 C   0  0  0  0  0  3  0  0  0  0  0  0
  -21.2640   -6.0600   25.0080 C   0  0  0  0  0  3  0  0  0  0  0  0
  -21.5590   -4.6870   24.9070 C   0  0  0  0  0  0  0  0  0  0  0  0
  -21.9300   -4.1360   23.6680 C   0  0  0  0  0  3  0  0  0  0  0  0
  -22.0050   -4.9560   22.5280 C   0  0  0  0  0  0  0  0  0  0  0  0
  -22.3440   -4.4160   21.3330 F   0  0  0  0  0  0  0  0  0  0  0  0
  -21.4810   -3.8940   26.0010 F   0  0  0  0  0  0  0  0  0  0  0  0
  -22.8490  -13.7030   21.1120 C   0  0  0  0  0  0  0  0  0  0  0  0
  -22.1410  -13.0160   21.9980 N   0  0  0  0  0  0  0  0  0  0  0  0
  -22.4030  -14.7270   20.5920 O   0  0  0  0  0  0  0  0  0  0  0  0
  -22.5190  -12.1870   22.4350 H   0  0  0  0  0  0  0  0  0  0  0  0
  -21.2100  -13.3210   22.2440 H   0  0  0  0  0  0  0  0  0  0  0  0
  -25.4430  -15.3780   20.2590 N   0  0  0  0  0  0  0  0  0  0  0  0
  -24.6700  -16.0200   20.3950 H   0  0  0  0  0  0  0  0  0  0  0  0
  -26.2820  -15.8310   19.9190 H   0  0  0  0  0  0  0  0  0  0  0  0
  -28.2030  -25.3300   20.2940 O   0  0  0  0  0  0  0  0  0  0  0  0
  -24.6590  -31.8180   23.1380 C   0  0  0  0  0  0  0  0  0  0  0  0
  -27.2420  -26.6100   20.1930 C   0  0  0  0  0  0  0  0  0  0  0  0
  -23.4970  -30.4020   21.5000 C   0  0  0  0  0  3  0  0  0  0  0  0
  -24.9680  -28.7260   20.1110 C   0  0  0  0  0  0  0  0  0  0  0  0
  -26.0840  -30.5140   21.4140 C   0  0  0  0  0  2  0  0  0  0  0  0
  -26.1610  -29.0640   20.7610 C   0  0  0  0  0  0  0  0  0  0  0  0
  -27.2700  -28.0380   20.7670 C   0  0  0  0  0  3  0  0  0  0  0  0
  -26.0130  -26.5250   19.4770 C   0  0  0  0  0  3  0  0  0  0  0  0
  -24.9430  -27.4860   19.4450 C   0  0  0  0  0  3  0  0  0  0  0  0
  -23.7590  -29.6880   20.1410 C   0  0  0  0  0  2  0  0  0  0  0  0
  -24.7720  -30.9500   22.0690 N   0  0  0  0  0  0  0  0  0  0  0  0
  -23.5570  -32.1210   23.6300 O   0  0  0  0  0  0  0  0  0  0  0  0
  -22.7640  -29.4390   22.4760 C   0  0  0  0  0  0  0  0  0  0  0  0
  -21.4290  -29.2960   22.3530 N   0  0  0  0  0  0  0  0  0  0  0  0
  -23.4120  -28.8150   23.3200 O   0  0  0  0  0  0  0  0  0  0  0  0
  -20.9510  -29.8480   21.6540 H   0  0  0  0  0  0  0  0  0  0  0  0
  -18.0370  -28.0840   22.8700 C   0  0  0  0  0  0  0  0  0  0  0  0
  -20.5980  -28.3610   23.1260 C   0  0  0  0  0  3  0  0  0  0  0  0
  -20.7000  -26.9260   22.5560 C   0  0  0  0  0  2  0  0  0  0  0  0
  -19.5990  -26.6030   21.5400 C   0  0  0  0  0  2  0  0  0  0  0  0
  -18.2170  -26.7400   22.1850 C   0  0  0  0  0  2  0  0  0  0  0  0
  -19.1540  -28.8530   23.2960 C   0  0  0  0  0  0  0  0  0  0  0  0
  -18.9260  -30.1090   23.9020 C   0  0  0  0  0  3  0  0  0  0  0  0
  -17.6180  -30.5980   24.0780 C   0  0  0  0  0  3  0  0  0  0  0  0
  -16.5170  -29.8280   23.6630 C   0  0  0  0  0  3  0  0  0  0  0  0
  -16.7280  -28.5720   23.0660 C   0  0  0  0  0  3  0  0  0  0  0  0
  -25.9050  -32.4870   23.7920 C   0  0  0  0  0  3  0  0  0  0  0  0
  -26.3910  -31.7420   25.0980 C   0  0  1  0  0  0  0  0  0  0  0  0
  -25.2740  -31.5210   26.1460 C   0  0  0  0  0  1  0  0  0  0  0  0
  -26.9850  -30.3570   24.7610 C   0  0  0  0  0  1  0  0  0  0  0  0
  -27.5260  -32.5520   25.7700 C   0  0  0  0  0  1  0  0  0  0  0  0
  -25.5660  -33.8880   24.1230 N   0  0  0  0  0  0  0  0  0  0  0  0
  -25.9000  -34.9600   23.3910 C   0  0  0  0  0  0  0  0  0  0  0  0
  -26.5780  -34.8740   22.3640 O   0  0  0  0  0  0  0  0  0  0  0  0
  -24.9630  -34.0270   24.9190 H   0  0  0  0  0  0  0  0  0  0  0  0
  -24.1630  -36.7590   23.0680 C   0  0  0  0  0  1  0  0  0  0  0  0
  -25.4090  -36.3450   23.8670 C   0  0  0  0  0  3  0  0  0  0  0  0
  -27.5400  -37.2420   24.7020 C   0  0  0  0  0  1  0  0  0  0  0  0
  -26.4340  -37.4070   23.7610 N   0  0  0  0  0  0  0  0  0  0  0  0
  -26.0220  -38.3230   23.9140 H   0  0  0  0  0  0  0  0  0  0  0  0
  1 44  1  0
  4  3  1  0
  4  2  1  0
  7  6  1  0
  9 14  1  0
 10 11  1  0
 10  9  1  0
 12 11  1  0
 12 19  1  0
 12 13  1  0
 14  8  1  0
 14 13  1  0
 15  8  1  0
 16 17  2  0
 17 36  1  0
 18 17  1  0
 18 21  1  0
 19 20  1  0
 19 16  1  0
 20 18  2  0
 21 22  1  0
 22 23  2  0
 24 27  1  0
 24 23  1  0
 25 24  2  0
 26 25  1  0
 26 21  2  0
 27 28  1  0
 28 29  1  0
 29 30  2  0
 31 30  1  0
 31 35  1  0
 32 31  2  0
 33 28  2  0
 33 32  1  0
 34 33  1  0
 36 37  1  0
 37 40  1  0
 37 39  1  0
 38 36  2  0
 41 42  1  0
 41 16  1  0
 43 41  1  0
 45 56  2  0
 46 44  1  0
 46 51  1  0
 47 55  1  0
 47 57  1  0
 48 54  1  0
 48 50  1  0
 49 55  1  0
 50 51  2  0
 50 49  1  0
 52 46  2  0
 53 52  1  0
 53 48  2  0
 54 47  1  0
 55 45  1  0
 57 59  2  0
 58 57  1  0
 60 58  1  0
 61 70  2  0
 61 66  1  0
 62 58  1  0
 62 66  1  0
 63 62  1  0
 64 65  1  0
 64 63  1  0
 65 61  1  0
 66 67  2  0
 67 68  1  0
 69 68  2  0
 70 69  1  0
 71 45  1  0
 71 76  1  0
 71 72  1  0
 72 75  1  1
 72 73  1  0
 74 72  1  0
 76 79  1  0
 77 81  1  0
 77 76  1  0
 78 77  2  0
 81 80  1  0
 83 81  1  0
 83 84  1  0
 83 82  1  0
M  ISO  4   1 101   7 100   8 100  44 101
M  END
>  <TORSDO>  (16) 
F 19

>  <SCORE>  (16) 
-16.267

>  <name>  (16) 
15

>  <ligand_id>  (16) 
15

>  <original_smiles>  (16) 
[H]c1c([H])c([H])c2c(c1[H])C([H])([H])C([H])([H])C([H])([H])C2([H])N([H])C(=O)C1([H])N(C(=O)C([H])(N([H])C(=O)C([H])(N([H])C([H])([H])[H])C([H])([H])[H])C(C([H])([H])[H])(C([H])([H])[H])C([H])([H])[H])C([H])([H])c2c([H])c(OC([H])([H])C(C([H])([H])[H])(C([H])([H])[H])C([H])([H])C([H])(C(=O)N3C([H])([H])C([H])([H])C([H])([H])C([H])(n4nc(-c5c([H])c([H])c(Oc6c([H])c([H])c(F)c([H])c6F)c([H])c5[H])c(C(=O)N([H])[H])c4N([H])[H])C3([H])[H])C([H])([H])[H])c([H])c([H])c2C1([H])[H]

>  <smiles>  (16) 
[H]c1c([H])c([H])c2c(c1[H])C([H])([H])C([H])([H])C([H])([H])C2([H])N([H])C(=O)C1([H])N(C(=O)C([H])(N([H])C(=O)C([H])(N([H])C([H])([H])[H])C([H])([H])[H])C(C([H])([H])[H])(C([H])([H])[H])C([H])([H])[H])C([H])([H])c2c([H])c(OC([H])([H])C(C([H])([H])[H])(C([H])([H])[H])C([H])([H])C([H])(C(=O)N3C([H])([H])C([H])([H])C([H])([H])C([H])(n4nc(-c5c([H])c([H])c(Oc6c([H])c([H])c(F)c([H])c6F)c([H])c5[H])c(C(=O)N([H])[H])c4N([H])[H])C3([H])[H])C([H])([H])[H])c([H])c([H])c2C1([H])[H]

$$$$
16:0:0
     RDKit          3D

 95103  0  0  1  0  0  0  0  0999 V2000
  -28.7250  -19.4190   20.8900 C   0  0  0  0  0  3  0  0  0  0  0  0
  -28.0130  -20.5860   21.2260 C   0  0  0  0  0  3  0  0  0  0  0  0
  -29.8120  -20.7080   19.1670 C   0  0  0  0  0  3  0  0  0  0  0  0
  -29.7080  -19.3990   19.8890 C   0  0  0  0  0  0  0  0  0  0  0  0
  -28.1710  -21.8290   20.5650 C   0  0  0  0  0  0  0  0  0  0  0  0
  -29.0560  -21.9770   19.4400 C   0  0  0  0  0  0  0  0  0  0  0  0
  -27.3740  -22.9570   21.1470 C   0  0  0  0  0  0  0  0  0  0  0  0
  -26.0630  -22.8650   20.9580 N   0  0  0  0  0  0  0  0  0  0  0  0
  -27.8930  -23.8840   21.7640 O   0  0  0  0  0  0  0  0  0  0  0  0
  -25.6880  -22.0570   20.4830 H   0  0  0  0  0  0  0  0  0  0  0  0
  -25.4450  -23.6030   21.2690 H   0  0  0  0  0  0  0  0  0  0  0  0
  -30.4820  -17.9900   19.7500 C   0  0  0  0  0  3  0  0  0  0  0  0
  -30.1930  -16.6760   20.2280 C   0  0  0  0  0  3  0  0  0  0  0  0
  -31.0190  -15.3650   20.1150 C   0  0  0  0  0  0  0  0  0  0  0  0
  -30.9240  -12.9180   19.4740 C   0  0  0  0  0  2  0  0  0  0  0  0
  -30.0460  -12.7420   18.2130 C   0  0  0  0  0  2  0  0  0  0  0  0
  -28.5690  -12.5600   18.6150 C   0  0  0  0  0  2  0  0  0  0  0  0
  -28.1020  -13.6020   19.6670 C   0  0  0  0  0  3  0  0  0  0  0  0
  -29.1180  -13.7720   20.8210 C   0  0  0  0  0  2  0  0  0  0  0  0
  -30.4220  -14.1070   20.2280 N   0  0  0  0  0  0  0  0  0  0  0  0
  -32.2130  -15.3690   19.8070 O   0  0  0  0  0  0  0  0  0  0  0  0
  -25.7260  -14.2350   20.3900 C   0  0  0  0  0  0  0  0  0  0  0  0
  -24.6310  -13.4860   20.7380 C   0  0  0  0  0  0  0  0  0  0  0  0
  -25.0550  -12.1230   20.6900 C   0  0  0  0  0  0  0  0  0  0  0  0
  -26.7480  -13.3310   20.1460 N   0  0  0  0  0  0  0  0  0  0  0  0
  -26.3500  -12.0540   20.3930 N   0  0  0  0  0  0  0  0  0  0  0  0
  -24.2830  -10.8780   20.8530 C   0  0  0  0  0  0  0  0  0  0  0  0
  -24.6640   -9.8850   21.7840 C   0  0  0  0  0  3  0  0  0  0  0  0
  -23.8890   -8.7150   21.9440 C   0  0  0  0  0  3  0  0  0  0  0  0
  -22.7250   -8.5230   21.1650 C   0  0  0  0  0  0  0  0  0  0  0  0
  -22.3590   -9.5040   20.2270 C   0  0  0  0  0  3  0  0  0  0  0  0
  -23.1320  -10.6670   20.0660 C   0  0  0  0  0  3  0  0  0  0  0  0
  -21.9290   -7.4050   21.2270 O   0  0  0  0  0  0  0  0  0  0  0  0
  -21.8210   -6.6610   22.3730 C   0  0  0  0  0  0  0  0  0  0  0  0
  -21.3650   -7.2240   23.5860 C   0  0  0  0  0  3  0  0  0  0  0  0
  -21.2040   -6.4110   24.7250 C   0  0  0  0  0  3  0  0  0  0  0  0
  -21.4910   -5.0350   24.6570 C   0  0  0  0  0  0  0  0  0  0  0  0
  -21.9380   -4.4690   23.4500 C   0  0  0  0  0  3  0  0  0  0  0  0
  -22.1030   -5.2800   22.3130 C   0  0  0  0  0  0  0  0  0  0  0  0
  -22.5150   -4.7250   21.1480 F   0  0  0  0  0  0  0  0  0  0  0  0
  -21.3290   -4.2540   25.7500 F   0  0  0  0  0  0  0  0  0  0  0  0
  -23.2490  -14.0060   21.0030 C   0  0  0  0  0  0  0  0  0  0  0  0
  -22.4910  -13.3230   21.8570 N   0  0  0  0  0  0  0  0  0  0  0  0
  -22.8480  -15.0500   20.4900 O   0  0  0  0  0  0  0  0  0  0  0  0
  -22.8260  -12.4800   22.2980 H   0  0  0  0  0  0  0  0  0  0  0  0
  -21.5600  -13.6510   22.0710 H   0  0  0  0  0  0  0  0  0  0  0  0
  -25.9290  -15.6010   20.2270 N   0  0  0  0  0  0  0  0  0  0  0  0
  -25.1890  -16.2850   20.3600 H   0  0  0  0  0  0  0  0  0  0  0  0
  -26.7920  -16.0190   19.8980 H   0  0  0  0  0  0  0  0  0  0  0  0
  -29.2150  -23.4330   18.5930 C   0  0  0  0  0  3  0  0  0  0  0  0
  -30.6980  -23.9060   18.5710 C   0  0  0  0  0  2  0  0  0  0  0  0
  -31.4460  -23.3180   17.5000 O   0  0  0  0  0  0  0  0  0  0  0  0
  -32.3120  -23.7240   17.4700 H   0  0  0  0  0  0  0  0  0  0  0  0
  -28.1450  -24.7860   18.5050 C   0  0  0  0  0  2  0  0  0  0  0  0
  -28.3730  -26.3400   18.4970 O   0  0  0  0  0  0  0  0  0  0  0  0
  -24.7490  -31.2410   22.7130 C   0  0  0  0  0  0  0  0  0  0  0  0
  -27.2840  -27.2790   18.7020 C   0  0  0  0  0  0  0  0  0  0  0  0
  -23.5070  -30.1680   20.8800 C   0  0  0  0  0  3  0  0  0  0  0  0
  -24.9150  -28.9500   19.1250 C   0  0  0  0  0  0  0  0  0  0  0  0
  -26.0510  -30.5300   20.6730 C   0  0  0  0  0  2  0  0  0  0  0  0
  -26.1230  -29.3030   19.7390 C   0  0  0  0  0  0  0  0  0  0  0  0
  -27.3060  -28.4950   19.5030 C   0  0  0  0  0  3  0  0  0  0  0  0
  -26.0270  -27.0250   18.0920 C   0  0  0  0  0  3  0  0  0  0  0  0
  -24.8810  -27.8120   18.3080 C   0  0  0  0  0  3  0  0  0  0  0  0
  -23.6690  -29.7800   19.3880 C   0  0  0  0  0  2  0  0  0  0  0  0
  -24.7920  -30.6490   21.4800 N   0  0  0  0  0  0  0  0  0  0  0  0
  -23.6770  -31.3950   23.3200 O   0  0  0  0  0  0  0  0  0  0  0  0
  -22.8960  -28.9710   21.6380 C   0  0  0  0  0  0  0  0  0  0  0  0
  -21.5630  -28.8130   21.5550 N   0  0  0  0  0  0  0  0  0  0  0  0
  -23.6240  -28.2000   22.2670 O   0  0  0  0  0  0  0  0  0  0  0  0
  -21.0400  -29.4990   21.0310 H   0  0  0  0  0  0  0  0  0  0  0  0
  -18.2120  -27.5380   22.0240 C   0  0  0  0  0  0  0  0  0  0  0  0
  -20.7900  -27.7250   22.1560 C   0  0  0  0  0  3  0  0  0  0  0  0
  -20.8300  -26.4630   21.2620 C   0  0  0  0  0  2  0  0  0  0  0  0
  -19.6530  -26.3880   20.2840 C   0  0  0  0  0  2  0  0  0  0  0  0
  -18.3200  -26.3810   21.0420 C   0  0  0  0  0  2  0  0  0  0  0  0
  -19.3730  -28.1790   22.5290 C   0  0  0  0  0  0  0  0  0  0  0  0
  -19.2230  -29.2710   23.4110 C   0  0  0  0  0  3  0  0  0  0  0  0
  -17.9440  -29.7210   23.7860 C   0  0  0  0  0  3  0  0  0  0  0  0
  -16.7970  -29.0730   23.3070 C   0  0  0  0  0  3  0  0  0  0  0  0
  -16.9330  -27.9790   22.4290 C   0  0  0  0  0  3  0  0  0  0  0  0
  -26.0410  -31.7660   23.4070 C   0  0  0  0  0  3  0  0  0  0  0  0
  -25.7190  -33.0620   24.0260 N   0  0  0  0  0  0  0  0  0  0  0  0
  -26.0120  -34.2540   23.4980 C   0  0  0  0  0  0  0  0  0  0  0  0
  -26.6580  -34.3850   22.4550 O   0  0  0  0  0  0  0  0  0  0  0  0
  -25.1240  -33.0480   24.8420 H   0  0  0  0  0  0  0  0  0  0  0  0
  -24.2560  -36.0600   23.5610 C   0  0  0  0  0  1  0  0  0  0  0  0
  -25.5130  -35.5030   24.2460 C   0  0  0  0  0  3  0  0  0  0  0  0
  -27.6360  -36.2280   25.2370 C   0  0  0  0  0  1  0  0  0  0  0  0
  -26.5250  -36.5710   24.3540 N   0  0  0  0  0  0  0  0  0  0  0  0
  -26.1000  -37.4280   24.6970 H   0  0  0  0  0  0  0  0  0  0  0  0
  -26.6180  -30.7690   24.4860 C   0  0  1  0  0  0  0  0  0  0  0  0
  -25.5630  -30.3180   25.5200 C   0  0  0  0  0  1  0  0  0  0  0  0
  -27.2020  -29.5000   23.8180 C   0  0  0  0  0  1  0  0  0  0  0  0
  -27.7750  -31.4410   25.2600 C   0  0  0  0  0  1  0  0  0  0  0  0
  1  2  1  0
  3  6  2  0
  3  4  1  0
  4  1  2  0
  5  7  1  0
  5  2  2  0
  6  5  1  0
  7  9  2  0
  8  7  1  0
  8 11  1  0
 10  8  1  0
 12  4  1  0
 12 13  2  0
 14 20  1  0
 14 13  1  0
 15 20  1  0
 16 17  1  0
 16 15  1  0
 18 17  1  0
 18 25  1  0
 18 19  1  0
 20 19  1  0
 21 14  2  0
 22 23  2  0
 23 42  1  0
 24 23  1  0
 24 27  1  0
 25 22  1  0
 25 26  1  0
 26 24  2  0
 27 28  1  0
 28 29  2  0
 30 33  1  0
 30 29  1  0
 31 30  2  0
 32 31  1  0
 32 27  2  0
 33 34  1  0
 34 35  1  0
 35 36  2  0
 37 36  1  0
 37 41  1  0
 38 37  2  0
 39 34  2  0
 39 38  1  0
 40 39  1  0
 42 43  1  0
 43 46  1  0
 43 45  1  0
 44 42  2  0
 47 48  1  0
 47 22  1  0
 49 47  1  0
 50 54  1  0
 50  6  1  0
 51 50  1  0
 52 51  1  0
 53 52  1  0
 55 54  1  0
 55 57  1  0
 56 67  2  0
 57 62  1  0
 58 66  1  0
 58 68  1  0
 59 65  1  0
 59 61  1  0
 60 66  1  0
 61 60  1  0
 62 61  2  0
 63 64  1  0
 63 57  2  0
 64 59  2  0
 65 58  1  0
 66 56  1  0
 68 70  2  0
 69 68  1  0
 71 69  1  0
 72 81  2  0
 72 77  1  0
 73 69  1  0
 73 77  1  0
 74 73  1  0
 75 76  1  0
 75 74  1  0
 76 72  1  0
 77 78  2  0
 78 79  1  0
 80 79  2  0
 81 80  1  0
 82 56  1  0
 82 83  1  0
 82 92  1  0
 83 86  1  0
 84 83  1  0
 84 88  1  0
 85 84  2  0
 88 87  1  0
 88 90  1  0
 90 91  1  0
 90 89  1  0
 92 95  1  1
 92 93  1  0
 94 92  1  0
M  ISO  4  13 100  14 100  54 101  55 101
M  END
>  <TORSDO>  (17) 
F 22

>  <SCORE>  (17) 
-10.771

>  <name>  (17) 
16

>  <ligand_id>  (17) 
16

>  <original_smiles>  (17) 
[H]OC([H])([H])C([H])(c1c([H])c(C([H])=C([H])C(=O)N2C([H])([H])C([H])([H])C([H])([H])C([H])(n3nc(-c4c([H])c([H])c(Oc5c([H])c([H])c(F)c([H])c5F)c([H])c4[H])c(C(=O)N([H])[H])c3N([H])[H])C2([H])[H])c([H])c([H])c1C(=O)N([H])[H])C([H])([H])Oc1c([H])c([H])c2c(c1[H])C([H])([H])N(C(=O)C([H])(N([H])C(=O)C([H])(N([H])C([H])([H])[H])C([H])([H])[H])C(C([H])([H])[H])(C([H])([H])[H])C([H])([H])[H])C([H])(C(=O)N([H])C1([H])c3c([H])c([H])c([H])c([H])c3C([H])([H])C([H])([H])C1([H])[H])C2([H])[H]

>  <smiles>  (17) 
[H]OC([H])([H])C([H])(c1c([H])c(C([H])=C([H])C(=O)N2C([H])([H])C([H])([H])C([H])([H])C([H])(n3nc(-c4c([H])c([H])c(Oc5c([H])c([H])c(F)c([H])c5F)c([H])c4[H])c(C(=O)N([H])[H])c3N([H])[H])C2([H])[H])c([H])c([H])c1C(=O)N([H])[H])C([H])([H])Oc1c([H])c([H])c2c(c1[H])C([H])([H])N(C(=O)C([H])(N([H])C(=O)C([H])(N([H])C([H])([H])[H])C([H])([H])[H])C(C([H])([H])[H])(C([H])([H])[H])C([H])([H])[H])C([H])(C(=O)N([H])C1([H])c3c([H])c([H])c([H])c([H])c3C([H])([H])C([H])([H])C1([H])[H])C2([H])[H]

$$$$
17:0:0
     RDKit          3D

 93 94  0  0  1  0  0  0  0  0999 V2000
  -28.1690  -17.7740   20.0870 C   0  0  0  0  0  0  0  0  0  0  0  0
  -28.3770  -19.3650   20.4150 N   0  0  0  0  0  0  0  0  0  0  0  0
  -27.1440  -17.6790   19.4180 O   0  0  0  0  0  0  0  0  0  0  0  0
  -29.1630  -19.4150   21.0480 H   0  0  0  0  0  0  0  0  0  0  0  0
  -30.2880  -12.1340   19.6770 C   0  0  0  0  0 15  0  0  0  0  0  0
  -28.9620  -12.6320   21.1270 C   0  0  0  0  0 15  0  0  0  0  0  0
  -31.1530  -13.7580   18.6610 C   0  0  0  0  0 15  0  0  0  0  0  0
  -28.1210  -14.5650   21.4420 C   0  0  0  0  0  1  0  0  0  0  0  0
  -30.2870  -15.5170   19.0740 C   0  0  0  0  0  2  0  0  0  0  0  0
  -28.8350  -16.0130   20.2330 C   0  0  0  0  0  2  0  0  0  0  0  0
  -30.8060  -16.7040   18.3650 C   0  0  0  0  0  0  0  0  0  0  0  0
  -30.5220  -16.9780   17.1970 O   0  0  0  0  0  0  0  0  0  0  0  0
  -31.7220  -17.6230   19.1940 C   0  0  0  0  0  2  0  0  0  0  0  0
  -31.8490  -17.2490   20.7040 C   0  0  0  0  0  2  0  0  0  0  0  0
  -32.1010  -15.7420   20.9030 C   0  0  0  0  0  0  0  0  0  0  0  0
  -30.6000  -13.9920   21.0300 C   0  0  0  0  0  2  0  0  0  0  0  0
  -28.6400  -13.9280   18.8370 C   0  0  0  0  0  2  0  0  0  0  0  0
  -27.7110  -12.9810   18.4740 C   0  0  0  0  0  1  0  0  0  0  0  0
  -27.8180  -14.1650   19.4170 C   0  0  0  0  0  2  0  0  0  0  0  0
  -29.9200  -14.7480   21.3370 C   0  0  0  0  0  3  0  0  0  0  0  0
  -31.2280  -14.9790   21.4780 N   0  0  0  0  0  0  0  0  0  0  0  0
  -33.0000  -15.2250   20.2930 O   0  0  0  0  0  0  0  0  0  0  0  0
  -25.2930  -14.3530   20.3960 C   0  0  0  0  0  0  0  0  0  0  0  0
  -24.3230  -13.5050   20.8210 C   0  0  0  0  0  0  0  0  0  0  0  0
  -24.8370  -12.1800   20.7700 C   0  0  0  0  0  0  0  0  0  0  0  0
  -26.3550  -13.5840   19.9670 N   0  0  0  0  0  0  0  0  0  0  0  0
  -26.0610  -12.2410   20.3030 N   0  0  0  0  0  0  0  0  0  0  0  0
  -24.1680  -10.8790   20.9490 C   0  0  0  0  0  0  0  0  0  0  0  0
  -24.5760   -9.9000   21.8820 C   0  0  0  0  0  3  0  0  0  0  0  0
  -23.8560   -8.6870   22.0120 C   0  0  0  0  0  3  0  0  0  0  0  0
  -22.7140   -8.4470   21.2080 C   0  0  0  0  0  0  0  0  0  0  0  0
  -22.3350   -9.4140   20.2610 C   0  0  0  0  0  3  0  0  0  0  0  0
  -23.0560  -10.6100   20.1320 C   0  0  0  0  0  3  0  0  0  0  0  0
  -21.9680   -7.2930   21.2350 O   0  0  0  0  0  0  0  0  0  0  0  0
  -21.8660   -6.5220   22.3650 C   0  0  0  0  0  0  0  0  0  0  0  0
  -21.4100   -7.0470   23.5940 C   0  0  0  0  0  3  0  0  0  0  0  0
  -21.2590   -6.1980   24.7090 C   0  0  0  0  0  3  0  0  0  0  0  0
  -21.5480   -4.8260   24.5930 C   0  0  0  0  0  0  0  0  0  0  0  0
  -21.9870   -4.2970   23.3670 C   0  0  0  0  0  3  0  0  0  0  0  0
  -22.1420   -5.1430   22.2540 C   0  0  0  0  0  0  0  0  0  0  0  0
  -22.5470   -4.6270   21.0680 F   0  0  0  0  0  0  0  0  0  0  0  0
  -21.3940   -4.0070   25.6600 F   0  0  0  0  0  0  0  0  0  0  0  0
  -22.9230  -13.9310   21.0680 C   0  0  0  0  0  0  0  0  0  0  0  0
  -22.1920  -13.2130   21.9060 N   0  0  0  0  0  0  0  0  0  0  0  0
  -22.4840  -14.9450   20.5260 O   0  0  0  0  0  0  0  0  0  0  0  0
  -22.5660  -12.4040   22.3820 H   0  0  0  0  0  0  0  0  0  0  0  0
  -21.2370  -13.4810   22.0960 H   0  0  0  0  0  0  0  0  0  0  0  0
  -25.3160  -15.7440   20.3160 N   0  0  0  0  0  0  0  0  0  0  0  0
  -24.4900  -16.2880   20.5380 H   0  0  0  0  0  0  0  0  0  0  0  0
  -26.0010  -16.2780   19.7910 H   0  0  0  0  0  0  0  0  0  0  0  0
  -27.8830  -21.1670   19.9740 C   0  0  0  0  0  1  0  0  0  0  0  0
  -27.6290  -23.1820   20.5490 C   0  0  0  0  0 15  0  0  0  0  0  0
  -27.7830  -25.0560   20.2270 O   0  0  0  0  0  1  0  0  0  0  0  0
  -24.6140  -31.8420   23.1580 C   0  0  0  0  0  0  0  0  0  0  0  0
  -26.9360  -26.4420   20.2490 C   0  0  0  0  0  0  0  0  0  0  0  0
  -23.4080  -30.4270   21.5670 C   0  0  0  0  0  3  0  0  0  0  0  0
  -24.8050  -28.7090   20.1630 C   0  0  0  0  0  0  0  0  0  0  0  0
  -25.9960  -30.4600   21.4390 C   0  0  0  0  0  2  0  0  0  0  0  0
  -26.0170  -28.9880   20.8060 C   0  0  0  0  0  0  0  0  0  0  0  0
  -27.0690  -27.8890   20.8050 C   0  0  0  0  0  3  0  0  0  0  0  0
  -25.7190  -26.4600   19.5230 C   0  0  0  0  0  3  0  0  0  0  0  0
  -24.7130  -27.4780   19.4910 C   0  0  0  0  0  3  0  0  0  0  0  0
  -23.6350  -29.7110   20.2040 C   0  0  0  0  0  2  0  0  0  0  0  0
  -24.7040  -30.9510   22.1050 N   0  0  0  0  0  0  0  0  0  0  0  0
  -23.5220  -32.1610   23.6670 O   0  0  0  0  0  0  0  0  0  0  0  0
  -22.6930  -29.4680   22.5600 C   0  0  0  0  0  0  0  0  0  0  0  0
  -21.3600  -29.3070   22.4490 N   0  0  0  0  0  0  0  0  0  0  0  0
  -23.3550  -28.8670   23.4100 O   0  0  0  0  0  0  0  0  0  0  0  0
  -20.8730  -29.8490   21.7490 H   0  0  0  0  0  0  0  0  0  0  0  0
  -17.9940  -28.0340   22.9770 C   0  0  0  0  0  0  0  0  0  0  0  0
  -20.5450  -28.3800   23.2470 C   0  0  0  0  0  3  0  0  0  0  0  0
  -20.6860  -26.9290   22.7280 C   0  0  0  0  0  2  0  0  0  0  0  0
  -19.6000  -26.5420   21.7180 C   0  0  0  0  0  2  0  0  0  0  0  0
  -18.2100  -26.6710   22.3440 C   0  0  0  0  0  2  0  0  0  0  0  0
  -19.0880  -28.8430   23.3870 C   0  0  0  0  0  0  0  0  0  0  0  0
  -18.8250  -30.1130   23.9440 C   0  0  0  0  0  3  0  0  0  0  0  0
  -17.5030  -30.5750   24.0950 C   0  0  0  0  0  3  0  0  0  0  0  0
  -16.4250  -29.7640   23.6960 C   0  0  0  0  0  3  0  0  0  0  0  0
  -16.6720  -28.4960   23.1430 C   0  0  0  0  0  3  0  0  0  0  0  0
  -25.8730  -32.5220   23.7750 C   0  0  0  0  0  3  0  0  0  0  0  0
  -25.5330  -33.9220   24.1110 N   0  0  0  0  0  0  0  0  0  0  0  0
  -25.8910  -35.0020   23.4020 C   0  0  0  0  0  0  0  0  0  0  0  0
  -26.5950  -34.9250   22.3950 O   0  0  0  0  0  0  0  0  0  0  0  0
  -24.9080  -34.0520   24.8930 H   0  0  0  0  0  0  0  0  0  0  0  0
  -24.1950  -36.8370   23.0410 C   0  0  0  0  0  1  0  0  0  0  0  0
  -25.3970  -36.3850   23.8870 C   0  0  0  0  0  3  0  0  0  0  0  0
  -27.5010  -37.2350   24.8350 C   0  0  0  0  0  1  0  0  0  0  0  0
  -26.4410  -37.4330   23.8510 N   0  0  0  0  0  0  0  0  0  0  0  0
  -26.0340  -38.3520   24.0020 H   0  0  0  0  0  0  0  0  0  0  0  0
  -26.3910  -31.7860   25.0730 C   0  0  1  0  0  0  0  0  0  0  0  0
  -25.2980  -31.5670   26.1480 C   0  0  0  0  0  1  0  0  0  0  0  0
  -26.9800  -30.4030   24.7250 C   0  0  0  0  0  1  0  0  0  0  0  0
  -27.5410  -32.5990   25.7150 C   0  0  0  0  0  1  0  0  0  0  0  0
  1 10  1  0
  1  2  1  0
  2  4  1  0
  3  1  2  0
  9 10  1  0
 11  9  1  0
 11 13  1  0
 12 11  2  0
 13 14  1  0
 14 15  1  0
 15 21  1  0
 16 20  1  0
 16 21  1  0
 17 19  1  0
 18 17  1  0
 19 26  1  0
 20  8  1  0
 20 21  1  0
 22 15  2  0
 23 24  2  0
 24 43  1  0
 25 24  1  0
 25 28  1  0
 26 27  1  0
 26 23  1  0
 27 25  2  0
 28 29  1  0
 29 30  2  0
 31 34  1  0
 31 30  1  0
 32 31  2  0
 33 32  1  0
 33 28  2  0
 34 35  1  0
 35 36  1  0
 36 37  2  0
 38 37  1  0
 38 42  1  0
 39 38  2  0
 40 35  2  0
 40 39  1  0
 41 40  1  0
 43 44  1  0
 44 47  1  0
 44 46  1  0
 45 43  2  0
 48 23  1  0
 48 49  1  0
 50 48  1  0
 51  2  1  0
 53 55  1  0
 54 65  2  0
 55 60  1  0
 56 64  1  0
 56 66  1  0
 57 63  1  0
 57 59  1  0
 58 64  1  0
 59 58  1  0
 60 59  2  0
 61 55  2  0
 62 61  1  0
 62 57  2  0
 63 56  1  0
 64 54  1  0
 66 68  2  0
 67 66  1  0
 69 67  1  0
 70 79  2  0
 70 75  1  0
 71 67  1  0
 71 75  1  0
 72 71  1  0
 73 74  1  0
 73 72  1  0
 74 70  1  0
 75 76  2  0
 76 77  1  0
 78 77  2  0
 79 78  1  0
 80 54  1  0
 80 81  1  0
 80 90  1  0
 81 84  1  0
 82 86  1  0
 82 81  1  0
 83 82  2  0
 86 85  1  0
 88 86  1  0
 88 89  1  0
 88 87  1  0
 90 93  1  1
 90 91  1  0
 92 90  1  0
M  ISO  4  14 100  15 100  52 101  53 101
M  END
>  <TORSDO>  (18) 
F 22

>  <SCORE>  (18) 
-14.121

>  <name>  (18) 
17

>  <ligand_id>  (18) 
17

>  <original_smiles>  (18) 
[H]c1c([H])c([H])c(C(=O)C([H])([H])C([H])([H])C(=O)N2C([H])([H])C([H])([H])C([H])([H])C([H])(n3nc(-c4c([H])c([H])c(Oc5c([H])c([H])c(F)c([H])c5F)c([H])c4[H])c(C(=O)N([H])[H])c3N([H])[H])C2([H])[H])c(C(=O)N([H])C([H])([H])C([H])([H])Oc2c([H])c([H])c3c(c2[H])C([H])([H])N(C(=O)C([H])(N([H])C(=O)C([H])(N([H])C([H])([H])[H])C([H])([H])[H])C(C([H])([H])[H])(C([H])([H])[H])C([H])([H])[H])C([H])(C(=O)N([H])C2([H])c4c([H])c([H])c([H])c([H])c4C([H])([H])C([H])([H])C2([H])[H])C3([H])[H])c1[H]

>  <smiles>  (18) 
[H]c1c([H])c([H])c(C(=O)C([H])([H])C([H])([H])C(=O)N2C([H])([H])C([H])([H])C([H])([H])C([H])(n3nc(-c4c([H])c([H])c(Oc5c([H])c([H])c(F)c([H])c5F)c([H])c4[H])c(C(=O)N([H])[H])c3N([H])[H])C2([H])[H])c(C(=O)N([H])C([H])([H])C([H])([H])Oc2c([H])c([H])c3c(c2[H])C([H])([H])N(C(=O)C([H])(N([H])C(=O)C([H])(N([H])C([H])([H])[H])C([H])([H])[H])C(C([H])([H])[H])(C([H])([H])[H])C([H])([H])[H])C([H])(C(=O)N([H])C2([H])c4c([H])c([H])c([H])c([H])c4C([H])([H])C([H])([H])C2([H])[H])C3([H])[H])c1[H]

$$$$
18:0:0
     RDKit          3D

 91 99  0  0  1  0  0  0  0  0999 V2000
  -29.8990  -23.5990   19.8320 C   0  0  0  0  0  3  0  0  0  0  0  0
  -30.3040  -22.2630   19.5440 C   0  0  0  0  0  3  0  0  0  0  0  0
  -27.7780  -22.7600   20.5940 C   0  0  0  0  0  3  0  0  0  0  0  0
  -28.6170  -23.8830   20.3580 C   0  0  0  0  0  0  0  0  0  0  0  0
  -29.4610  -21.1380   19.7690 C   0  0  0  0  0  0  0  0  0  0  0  0
  -28.1740  -21.4190   20.3120 C   0  0  0  0  0  0  0  0  0  0  0  0
  -27.1930  -20.2970   20.6110 C   0  0  0  0  0  1  0  0  0  0  0  0
  -29.9210  -19.7060   19.3010 C   0  0  0  0  0  2  0  0  0  0  0  0
  -31.2310  -19.0750   21.3140 C   0  0  0  0  0  1  0  0  0  0  0  0
  -30.2410  -18.6210   20.3100 N   0  0  2  0  0  4  0  0  0  0  0  0
  -29.3800  -18.4610   20.8100 H   0  0  0  0  0  0  0  0  0  0  0  0
  -30.6320  -17.2870   19.6840 C   0  0  0  0  0  3  0  0  0  0  0  0
  -30.3550  -15.9630   20.5220 C   0  0  0  0  0  3  0  0  0  0  0  0
  -31.0450  -14.6450   19.9980 C   0  0  0  0  0  0  0  0  0  0  0  0
  -30.7340  -12.4150   18.9510 C   0  0  0  0  0  2  0  0  0  0  0  0
  -29.7630  -12.5810   17.7610 C   0  0  0  0  0  2  0  0  0  0  0  0
  -28.3000  -12.4570   18.2310 C   0  0  0  0  0  2  0  0  0  0  0  0
  -28.0000  -13.3260   19.4820 C   0  0  0  0  0  3  0  0  0  0  0  0
  -29.0870  -13.1480   20.5650 C   0  0  0  0  0  2  0  0  0  0  0  0
  -30.3870  -13.4450   19.9510 N   0  0  0  0  0  0  0  0  0  0  0  0
  -32.1810  -14.7510   19.5260 O   0  0  0  0  0  0  0  0  0  0  0  0
  -25.6410  -13.9750   20.2700 C   0  0  0  0  0  0  0  0  0  0  0  0
  -24.5710  -13.2230   20.6740 C   0  0  0  0  0  0  0  0  0  0  0  0
  -25.0060  -11.8630   20.6330 C   0  0  0  0  0  0  0  0  0  0  0  0
  -26.6600  -13.0730   20.0070 N   0  0  0  0  0  0  0  0  0  0  0  0
  -26.2850  -11.7980   20.2850 N   0  0  0  0  0  0  0  0  0  0  0  0
  -24.2610  -10.6150   20.8490 C   0  0  0  0  0  0  0  0  0  0  0  0
  -24.6620   -9.6740   21.8230 C   0  0  0  0  0  3  0  0  0  0  0  0
  -23.9180   -8.4900   22.0230 C   0  0  0  0  0  3  0  0  0  0  0  0
  -22.7580   -8.2430   21.2510 C   0  0  0  0  0  0  0  0  0  0  0  0
  -22.3770   -9.1720   20.2670 C   0  0  0  0  0  3  0  0  0  0  0  0
  -23.1210  -10.3460   20.0650 C   0  0  0  0  0  3  0  0  0  0  0  0
  -21.9870   -7.1100   21.3590 O   0  0  0  0  0  0  0  0  0  0  0  0
  -21.8530   -6.4430   22.5510 C   0  0  0  0  0  0  0  0  0  0  0  0
  -21.3240   -7.0670   23.7010 C   0  0  0  0  0  3  0  0  0  0  0  0
  -21.1390   -6.3240   24.8830 C   0  0  0  0  0  3  0  0  0  0  0  0
  -21.4720   -4.9580   24.9170 C   0  0  0  0  0  0  0  0  0  0  0  0
  -21.9940   -4.3320   23.7700 C   0  0  0  0  0  3  0  0  0  0  0  0
  -22.1810   -5.0720   22.5900 C   0  0  0  0  0  0  0  0  0  0  0  0
  -22.6640   -4.4600   21.4830 F   0  0  0  0  0  0  0  0  0  0  0  0
  -21.2880   -4.2420   26.0510 F   0  0  0  0  0  0  0  0  0  0  0  0
  -23.1920  -13.7290   20.9890 C   0  0  0  0  0  0  0  0  0  0  0  0
  -22.4800  -13.0520   21.8830 N   0  0  0  0  0  0  0  0  0  0  0  0
  -22.7570  -14.7590   20.4760 O   0  0  0  0  0  0  0  0  0  0  0  0
  -22.8430  -12.2170   22.3180 H   0  0  0  0  0  0  0  0  0  0  0  0
  -21.5540  -13.3730   22.1350 H   0  0  0  0  0  0  0  0  0  0  0  0
  -25.8280  -15.3410   20.0800 N   0  0  0  0  0  0  0  0  0  0  0  0
  -25.0700  -16.0060   20.1890 H   0  0  0  0  0  0  0  0  0  0  0  0
  -26.6640  -15.7540   19.6880 H   0  0  0  0  0  0  0  0  0  0  0  0
  -28.1890  -25.3060   20.8500 C   0  0  0  0  0  2  0  0  0  0  0  0
  -28.2960  -26.4680   19.9700 O   0  0  0  0  0  0  0  0  0  0  0  0
  -24.5740  -31.7260   23.1920 C   0  0  0  0  0  0  0  0  0  0  0  0
  -27.1900  -27.3150   19.9860 C   0  0  0  0  0  0  0  0  0  0  0  0
  -23.3690  -30.3900   21.4960 C   0  0  0  0  0  3  0  0  0  0  0  0
  -24.8230  -28.8910   20.0200 C   0  0  0  0  0  0  0  0  0  0  0  0
  -25.9040  -30.7260   21.3230 C   0  0  0  0  0  2  0  0  0  0  0  0
  -25.9870  -29.3720   20.6350 C   0  0  0  0  0  0  0  0  0  0  0  0
  -27.1770  -28.5930   20.6100 C   0  0  0  0  0  3  0  0  0  0  0  0
  -26.0120  -26.8710   19.3560 C   0  0  0  0  0  3  0  0  0  0  0  0
  -24.8350  -27.6440   19.3720 C   0  0  0  0  0  3  0  0  0  0  0  0
  -23.5840  -29.7590   20.0940 C   0  0  0  0  0  2  0  0  0  0  0  0
  -24.6350  -30.9610   22.0620 N   0  0  0  0  0  0  0  0  0  0  0  0
  -23.4910  -31.9850   23.7360 O   0  0  0  0  0  0  0  0  0  0  0  0
  -22.7060  -29.3410   22.4180 C   0  0  0  0  0  0  0  0  0  0  0  0
  -21.3750  -29.1890   22.2990 N   0  0  0  0  0  0  0  0  0  0  0  0
  -23.3830  -28.6670   23.1990 O   0  0  0  0  0  0  0  0  0  0  0  0
  -20.8900  -29.7850   21.6410 H   0  0  0  0  0  0  0  0  0  0  0  0
  -17.9800  -28.0550   22.8070 C   0  0  0  0  0  0  0  0  0  0  0  0
  -20.5490  -28.2330   23.0340 C   0  0  0  0  0  3  0  0  0  0  0  0
  -20.6010  -26.8340   22.3780 C   0  0  0  0  0  2  0  0  0  0  0  0
  -19.4690  -26.5940   21.3740 C   0  0  0  0  0  2  0  0  0  0  0  0
  -18.1040  -26.7410   22.0530 C   0  0  0  0  0  2  0  0  0  0  0  0
  -19.1270  -28.7640   23.2520 C   0  0  0  0  0  0  0  0  0  0  0  0
  -18.9570  -29.9970   23.9170 C   0  0  0  0  0  3  0  0  0  0  0  0
  -17.6710  -30.5220   24.1400 C   0  0  0  0  0  3  0  0  0  0  0  0
  -16.5370  -29.8100   23.7110 C   0  0  0  0  0  3  0  0  0  0  0  0
  -16.6920  -28.5780   23.0500 C   0  0  0  0  0  3  0  0  0  0  0  0
  -25.8590  -32.3300   23.8390 C   0  0  0  0  0  3  0  0  0  0  0  0
  -25.5500  -33.7130   24.2280 N   0  0  0  0  0  0  0  0  0  0  0  0
  -25.8880  -34.7980   23.5180 C   0  0  0  0  0  0  0  0  0  0  0  0
  -26.5600  -34.7380   22.4840 O   0  0  0  0  0  0  0  0  0  0  0  0
  -24.9610  -33.8330   25.0380 H   0  0  0  0  0  0  0  0  0  0  0  0
  -24.1640  -36.6070   23.2300 C   0  0  0  0  0  1  0  0  0  0  0  0
  -25.3980  -36.1650   24.0330 C   0  0  0  0  0  3  0  0  0  0  0  0
  -27.5250  -37.0070   24.9220 C   0  0  0  0  0  1  0  0  0  0  0  0
  -26.4310  -37.2210   23.9780 N   0  0  0  0  0  0  0  0  0  0  0  0
  -26.0230  -38.1320   24.1700 H   0  0  0  0  0  0  0  0  0  0  0  0
  -26.3760  -31.5050   25.0810 C   0  0  1  0  0  0  0  0  0  0  0  0
  -25.2840  -31.2170   26.1370 C   0  0  0  0  0  1  0  0  0  0  0  0
  -26.9630  -30.1490   24.6260 C   0  0  0  0  0  1  0  0  0  0  0  0
  -27.5240  -32.2720   25.7790 C   0  0  0  0  0  1  0  0  0  0  0  0
  1  4  1  0
  2  5  1  0
  2  1  2  0
  4  3  2  0
  4 50  1  0
  5  6  2  0
  6  3  1  0
  6  7  1  0
  8  5  1  0
  8 10  1  0
 10 11  1  1
 10  9  1  0
 12 10  1  0
 12 13  2  0
 14 13  1  0
 15 20  1  0
 16 17  1  0
 16 15  1  0
 18 17  1  0
 18 25  1  0
 18 19  1  0
 20 14  1  0
 20 19  1  0
 21 14  2  0
 22 23  2  0
 23 42  1  0
 24 23  1  0
 24 27  1  0
 25 22  1  0
 25 26  1  0
 26 24  2  0
 27 28  1  0
 28 29  2  0
 30 33  1  0
 30 29  1  0
 31 30  2  0
 32 31  1  0
 32 27  2  0
 33 34  1  0
 34 39  2  0
 34 35  1  0
 35 36  2  0
 36 37  1  0
 37 41  1  0
 38 37  2  0
 39 38  1  0
 40 39  1  0
 42 43  1  0
 43 46  1  0
 43 45  1  0
 44 42  2  0
 47 48  1  0
 47 22  1  0
 49 47  1  0
 51 53  1  0
 51 50  1  0
 52 63  2  0
 53 58  1  0
 54 62  1  0
 54 64  1  0
 55 61  1  0
 55 57  1  0
 56 62  1  0
 57 56  1  0
 58 57  2  0
 59 60  1  0
 59 53  2  0
 60 55  2  0
 61 54  1  0
 62 52  1  0
 64 66  2  0
 65 64  1  0
 67 65  1  0
 68 77  2  0
 68 73  1  0
 69 65  1  0
 69 73  1  0
 70 69  1  0
 71 72  1  0
 71 70  1  0
 72 68  1  0
 73 74  2  0
 74 75  1  0
 76 75  2  0
 77 76  1  0
 78 52  1  0
 78 79  1  0
 78 88  1  0
 79 82  1  0
 80 84  1  0
 80 79  1  0
 81 80  2  0
 84 83  1  0
 86 84  1  0
 86 87  1  0
 86 85  1  0
 88 91  1  1
 88 89  1  0
 90 88  1  0
M  ISO  4  13 100  14 100  50 101  51 101
M  END
>  <TORSDO>  (19) 
F 21

>  <SCORE>  (19) 
-12.234

>  <name>  (19) 
18

>  <ligand_id>  (19) 
18

>  <original_smiles>  (19) 
[H]c1c([H])c([H])c2c(c1[H])C([H])([H])C([H])([H])C([H])([H])C2([H])N([H])C(=O)C1([H])N(C(=O)C([H])(N([H])C(=O)C([H])(N([H])C([H])([H])[H])C([H])([H])[H])C(C([H])([H])[H])(C([H])([H])[H])C([H])([H])[H])C([H])([H])c2c([H])c(OC([H])([H])c3c([H])c([H])c(C([H])([H])[N+]([H])(C([H])([H])[H])C([H])([H])C([H])([H])C(=O)N4C([H])([H])C([H])([H])C([H])([H])C([H])(n5nc(-c6c([H])c([H])c(Oc7c([H])c([H])c(F)c([H])c7F)c([H])c6[H])c(C(=O)N([H])[H])c5N([H])[H])C4([H])[H])c(C([H])([H])[H])c3[H])c([H])c([H])c2C1([H])[H]

>  <smiles>  (19) 
[H]c1c([H])c([H])c2c(c1[H])C([H])([H])C([H])([H])C([H])([H])C2([H])N([H])C(=O)C1([H])N(C(=O)C([H])(N([H])C(=O)C([H])(N([H])C([H])([H])[H])C([H])([H])[H])C(C([H])([H])[H])(C([H])([H])[H])C([H])([H])[H])C([H])([H])c2c([H])c(OC([H])([H])c3c([H])c([H])c(C([H])([H])[N+]([H])(C([H])([H])[H])C([H])([H])C([H])([H])C(=O)N4C([H])([H])C([H])([H])C([H])([H])C([H])(n5nc(-c6c([H])c([H])c(Oc7c([H])c([H])c(F)c([H])c7F)c([H])c6[H])c(C(=O)N([H])[H])c5N([H])[H])C4([H])[H])c(C([H])([H])[H])c3[H])c([H])c([H])c2C1([H])[H]

$$$$
19:0:0
     RDKit          3D

 91 99  0  0  1  0  0  0  0  0999 V2000
  -29.0540  -20.1300   19.6520 C   0  0  0  0  0  3  0  0  0  0  0  0
  -28.8190  -21.5040   19.3610 C   0  0  0  0  0  3  0  0  0  0  0  0
  -29.8850  -20.7600   21.8260 C   0  0  0  0  0  3  0  0  0  0  0  0
  -29.6140  -19.7240   20.8910 C   0  0  0  0  0  0  0  0  0  0  0  0
  -29.1340  -22.5350   20.2860 C   0  0  0  0  0  0  0  0  0  0  0  0
  -29.6660  -22.1430   21.5400 C   0  0  0  0  0  0  0  0  0  0  0  0
  -29.8840  -18.2710   21.2940 C   0  0  0  0  0  0  0  0  0  0  0  0
  -30.1740  -17.9970   22.4640 O   0  0  0  0  0  0  0  0  0  0  0  0
  -29.8680  -17.0950   20.2650 C   0  0  0  0  0  2  0  0  0  0  0  0
  -29.7220  -15.6290   20.8600 C   0  0  0  0  0  2  0  0  0  0  0  0
  -30.4500  -14.4430   20.1280 C   0  0  0  0  0  0  0  0  0  0  0  0
  -30.1740  -12.2890   18.9150 C   0  0  0  0  0  2  0  0  0  0  0  0
  -29.1350  -12.5010   17.7910 C   0  0  0  0  0  2  0  0  0  0  0  0
  -27.6990  -12.3040   18.3210 C   0  0  0  0  0  2  0  0  0  0  0  0
  -27.4430  -13.0860   19.6360 C   0  0  0  0  0  3  0  0  0  0  0  0
  -28.5820  -12.8350   20.6500 C   0  0  0  0  0  2  0  0  0  0  0  0
  -29.8440  -13.2230   20.0070 N   0  0  0  0  0  0  0  0  0  0  0  0
  -31.5390  -14.6630   19.5880 O   0  0  0  0  0  0  0  0  0  0  0  0
  -25.1090  -13.6460   20.5580 C   0  0  0  0  0  0  0  0  0  0  0  0
  -24.0730  -12.8510   20.9740 C   0  0  0  0  0  0  0  0  0  0  0  0
  -24.5340  -11.5060   20.8470 C   0  0  0  0  0  0  0  0  0  0  0  0
  -26.1330  -12.7810   20.2050 N   0  0  0  0  0  0  0  0  0  0  0  0
  -25.7960  -11.4870   20.4370 N   0  0  0  0  0  0  0  0  0  0  0  0
  -23.8290  -10.2330   21.0400 C   0  0  0  0  0  0  0  0  0  0  0  0
  -24.2990   -9.2580   21.9480 C   0  0  0  0  0  3  0  0  0  0  0  0
  -23.5960   -8.0480   22.1260 C   0  0  0  0  0  3  0  0  0  0  0  0
  -22.4080   -7.8030   21.3960 C   0  0  0  0  0  0  0  0  0  0  0  0
  -21.9580   -8.7660   20.4750 C   0  0  0  0  0  3  0  0  0  0  0  0
  -22.6610   -9.9690   20.2950 C   0  0  0  0  0  3  0  0  0  0  0  0
  -21.6730   -6.6460   21.4850 O   0  0  0  0  0  0  0  0  0  0  0  0
  -21.6300   -5.9060   22.6410 C   0  0  0  0  0  0  0  0  0  0  0  0
  -21.1310   -6.4410   23.8480 C   0  0  0  0  0  3  0  0  0  0  0  0
  -21.0410   -5.6260   24.9940 C   0  0  0  0  0  3  0  0  0  0  0  0
  -21.4390   -4.2770   24.9330 C   0  0  0  0  0  0  0  0  0  0  0  0
  -21.9310   -3.7420   23.7290 C   0  0  0  0  0  3  0  0  0  0  0  0
  -22.0240   -4.5540   22.5850 C   0  0  0  0  0  0  0  0  0  0  0  0
  -22.4790   -4.0280   21.4240 F   0  0  0  0  0  0  0  0  0  0  0  0
  -21.3450   -3.4910   26.0310 F   0  0  0  0  0  0  0  0  0  0  0  0
  -22.6990  -13.3080   21.3740 C   0  0  0  0  0  0  0  0  0  0  0  0
  -22.0420  -12.5680   22.2600 N   0  0  0  0  0  0  0  0  0  0  0  0
  -22.2200  -14.3540   20.9390 O   0  0  0  0  0  0  0  0  0  0  0  0
  -22.4460  -11.7220   22.6340 H   0  0  0  0  0  0  0  0  0  0  0  0
  -21.1220  -12.8500   22.5690 H   0  0  0  0  0  0  0  0  0  0  0  0
  -25.2560  -15.0240   20.4330 N   0  0  0  0  0  0  0  0  0  0  0  0
  -24.5010  -15.6720   20.6320 H   0  0  0  0  0  0  0  0  0  0  0  0
  -26.0760  -15.4760   20.0500 H   0  0  0  0  0  0  0  0  0  0  0  0
  -30.2790  -22.8270   23.7660 C   0  0  0  0  0  1  0  0  0  0  0  0
  -29.9780  -23.1600   22.4180 O   0  0  0  0  0  0  0  0  0  0  0  0
  -29.0440  -24.0420   19.8840 C   0  0  0  0  0  2  0  0  0  0  0  0
  -28.0340  -24.9840   20.6320 C   0  0  0  0  0  2  0  0  0  0  0  0
  -28.2180  -26.4190   20.3750 O   0  0  0  0  0  0  0  0  0  0  0  0
  -24.5360  -31.8830   23.2570 C   0  0  0  0  0  0  0  0  0  0  0  0
  -27.0880  -27.2320   20.3440 C   0  0  0  0  0  0  0  0  0  0  0  0
  -23.3170  -30.4660   21.6420 C   0  0  0  0  0  3  0  0  0  0  0  0
  -24.7470  -28.8500   20.2740 C   0  0  0  0  0  0  0  0  0  0  0  0
  -25.8590  -30.7370   21.4730 C   0  0  0  0  0  2  0  0  0  0  0  0
  -25.9150  -29.3430   20.8670 C   0  0  0  0  0  0  0  0  0  0  0  0
  -27.0910  -28.5440   20.8940 C   0  0  0  0  0  3  0  0  0  0  0  0
  -25.9030  -26.7770   19.7260 C   0  0  0  0  0  3  0  0  0  0  0  0
  -24.7390  -27.5700   19.6960 C   0  0  0  0  0  3  0  0  0  0  0  0
  -23.5280  -29.7520   20.2800 C   0  0  0  0  0  2  0  0  0  0  0  0
  -24.5890  -31.0470   22.1800 N   0  0  0  0  0  0  0  0  0  0  0  0
  -23.4550  -32.1970   23.7740 O   0  0  0  0  0  0  0  0  0  0  0  0
  -22.6280  -29.4860   22.6220 C   0  0  0  0  0  0  0  0  0  0  0  0
  -21.3000  -29.3350   22.4870 N   0  0  0  0  0  0  0  0  0  0  0  0
  -23.2880  -28.8670   23.4620 O   0  0  0  0  0  0  0  0  0  0  0  0
  -20.8320  -29.8820   21.7780 H   0  0  0  0  0  0  0  0  0  0  0  0
  -17.8880  -28.2550   23.0090 C   0  0  0  0  0  0  0  0  0  0  0  0
  -20.4540  -28.4380   23.2750 C   0  0  0  0  0  3  0  0  0  0  0  0
  -20.5110  -26.9940   22.7220 C   0  0  0  0  0  2  0  0  0  0  0  0
  -19.3970  -26.6890   21.7160 C   0  0  0  0  0  2  0  0  0  0  0  0
  -18.0210  -26.8890   22.3580 C   0  0  0  0  0  2  0  0  0  0  0  0
  -19.0310  -28.9880   23.4260 C   0  0  0  0  0  0  0  0  0  0  0  0
  -18.8530  -30.2690   23.9950 C   0  0  0  0  0  3  0  0  0  0  0  0
  -17.5650  -30.8140   24.1540 C   0  0  0  0  0  3  0  0  0  0  0  0
  -16.4360  -30.0760   23.7540 C   0  0  0  0  0  3  0  0  0  0  0  0
  -16.5990  -28.8000   23.1870 C   0  0  0  0  0  3  0  0  0  0  0  0
  -25.8290  -32.5030   23.8750 C   0  0  0  0  0  3  0  0  0  0  0  0
  -25.5420  -33.9100   24.1850 N   0  0  0  0  0  0  0  0  0  0  0  0
  -25.8840  -34.9470   23.4080 C   0  0  0  0  0  0  0  0  0  0  0  0
  -26.5470  -34.8170   22.3750 O   0  0  0  0  0  0  0  0  0  0  0  0
  -24.9620  -34.0860   24.9920 H   0  0  0  0  0  0  0  0  0  0  0  0
  -24.1810  -36.7570   23.0290 C   0  0  0  0  0  1  0  0  0  0  0  0
  -25.4170  -36.3480   23.8460 C   0  0  0  0  0  3  0  0  0  0  0  0
  -27.5600  -37.2180   24.6700 C   0  0  0  0  0  1  0  0  0  0  0  0
  -26.4650  -37.3840   23.7190 N   0  0  0  0  0  0  0  0  0  0  0  0
  -26.0710  -38.3120   23.8460 H   0  0  0  0  0  0  0  0  0  0  0  0
  -26.3320  -31.7390   25.1620 C   0  0  1  0  0  0  0  0  0  0  0  0
  -25.2290  -31.5150   26.2220 C   0  0  0  0  0  1  0  0  0  0  0  0
  -26.9110  -30.3550   24.7850 C   0  0  0  0  0  1  0  0  0  0  0  0
  -27.4820  -32.5320   25.8260 C   0  0  0  0  0  1  0  0  0  0  0  0
  1  4  1  0
  2  1  2  0
  2  5  1  0
  4  7  1  0
  4  3  2  0
  5  6  2  0
  6  3  1  0
  6 48  1  0
  7  8  2  0
  9 10  1  0
  9  7  1  0
 11 10  1  0
 12 17  1  0
 13 14  1  0
 13 12  1  0
 15 14  1  0
 15 22  1  0
 15 16  1  0
 17 11  1  0
 17 16  1  0
 18 11  2  0
 19 20  2  0
 20 39  1  0
 21 20  1  0
 21 24  1  0
 22 23  1  0
 22 19  1  0
 23 21  2  0
 24 25  1  0
 25 26  2  0
 27 30  1  0
 27 26  1  0
 28 27  2  0
 29 28  1  0
 29 24  2  0
 30 31  1  0
 31 32  1  0
 32 33  2  0
 34 33  1  0
 34 38  1  0
 35 34  2  0
 36 31  2  0
 36 35  1  0
 37 36  1  0
 39 40  1  0
 40 43  1  0
 40 42  1  0
 41 39  2  0
 44 19  1  0
 44 45  1  0
 46 44  1  0
 48 47  1  0
 49  5  1  0
 49 50  1  0
 51 50  1  0
 52 63  2  0
 53 51  1  0
 53 58  1  0
 54 62  1  0
 54 64  1  0
 55 61  1  0
 55 57  1  0
 56 62  1  0
 57 58  2  0
 57 56  1  0
 59 53  2  0
 60 59  1  0
 60 55  2  0
 61 54  1  0
 62 52  1  0
 64 66  2  0
 65 64  1  0
 67 65  1  0
 68 77  2  0
 68 73  1  0
 69 65  1  0
 69 73  1  0
 70 69  1  0
 71 72  1  0
 71 70  1  0
 72 68  1  0
 73 74  2  0
 74 75  1  0
 76 75  2  0
 77 76  1  0
 78 52  1  0
 78 79  1  0
 78 88  1  0
 79 82  1  0
 80 84  1  0
 80 79  1  0
 81 80  2  0
 84 83  1  0
 86 87  1  0
 86 84  1  0
 86 85  1  0
 88 91  1  1
 88 89  1  0
 90 88  1  0
M  ISO  4  10 100  11 100  50 101  51 101
M  END
>  <TORSDO>  (20) 
F 22

>  <SCORE>  (20) 
-12.443

>  <name>  (20) 
19

>  <ligand_id>  (20) 
19

>  <original_smiles>  (20) 
[H]c1c([H])c([H])c2c(c1[H])C([H])([H])C([H])([H])C([H])([H])C2([H])N([H])C(=O)C1([H])N(C(=O)C([H])(N([H])C(=O)C([H])(N([H])C([H])([H])[H])C([H])([H])[H])C(C([H])([H])[H])(C([H])([H])[H])C([H])([H])[H])C([H])([H])c2c([H])c(OC([H])([H])C([H])([H])c3c([H])c([H])c(C(=O)C([H])([H])C([H])([H])C(=O)N4C([H])([H])C([H])([H])C([H])([H])C([H])(n5nc(-c6c([H])c([H])c(Oc7c([H])c([H])c(F)c([H])c7F)c([H])c6[H])c(C(=O)N([H])[H])c5N([H])[H])C4([H])[H])c([H])c3OC([H])([H])[H])c([H])c([H])c2C1([H])[H]

>  <smiles>  (20) 
[H]c1c([H])c([H])c2c(c1[H])C([H])([H])C([H])([H])C([H])([H])C2([H])N([H])C(=O)C1([H])N(C(=O)C([H])(N([H])C(=O)C([H])(N([H])C([H])([H])[H])C([H])([H])[H])C(C([H])([H])[H])(C([H])([H])[H])C([H])([H])[H])C([H])([H])c2c([H])c(OC([H])([H])C([H])([H])c3c([H])c([H])c(C(=O)C([H])([H])C([H])([H])C(=O)N4C([H])([H])C([H])([H])C([H])([H])C([H])(n5nc(-c6c([H])c([H])c(Oc7c([H])c([H])c(F)c([H])c7F)c([H])c6[H])c(C(=O)N([H])[H])c5N([H])[H])C4([H])[H])c([H])c3OC([H])([H])[H])c([H])c([H])c2C1([H])[H]

$$$$
20:0:0
     RDKit          3D

 89 96  0  0  1  0  0  0  0  0999 V2000
  -29.7250  -19.9890   19.8870 C   0  0  0  0  0  0  0  0  0  0  0  0
  -28.9800  -21.0970   20.2440 N   0  0  0  0  0  0  0  0  0  0  0  0
  -30.7770  -20.1460   19.2690 O   0  0  0  0  0  0  0  0  0  0  0  0
  -28.1410  -20.9180   20.7810 H   0  0  0  0  0  0  0  0  0  0  0  0
  -28.0130  -18.1980   19.3350 C   0  0  0  0  0  1  0  0  0  0  0  0
  -29.2570  -18.4900   20.1910 C   0  0  0  0  0  3  0  0  0  0  0  0
  -30.3220  -17.2740   19.9910 C   0  0  0  0  0  2  0  0  0  0  0  0
  -30.6490  -14.7060   20.0750 C   0  0  0  0  0  0  0  0  0  0  0  0
  -30.3010  -12.5100   18.9250 C   0  0  0  0  0  2  0  0  0  0  0  0
  -29.2930  -12.6910   17.7670 C   0  0  0  0  0  2  0  0  0  0  0  0
  -27.8480  -12.5210   18.2770 C   0  0  0  0  0  2  0  0  0  0  0  0
  -27.5750  -13.3270   19.5740 C   0  0  0  0  0  3  0  0  0  0  0  0
  -28.6940  -13.1120   20.6090 C   0  0  0  0  0  2  0  0  0  0  0  0
  -29.9640  -13.5060   19.9710 N   0  0  0  0  0  0  0  0  0  0  0  0
  -31.7660  -14.8010   19.5540 O   0  0  0  0  0  0  0  0  0  0  0  0
  -29.5080  -15.9280   21.8850 C   0  0  0  0  0  1  0  0  0  0  0  0
  -29.9940  -15.8640   20.5010 N   0  0  0  0  0  0  0  0  0  0  0  0
  -25.2250  -13.9000   20.4250 C   0  0  0  0  0  0  0  0  0  0  0  0
  -24.1810  -13.1180   20.8430 C   0  0  0  0  0  0  0  0  0  0  0  0
  -24.6420  -11.7680   20.7670 C   0  0  0  0  0  0  0  0  0  0  0  0
  -26.2570  -13.0250   20.1280 N   0  0  0  0  0  0  0  0  0  0  0  0
  -25.9140  -11.7380   20.3890 N   0  0  0  0  0  0  0  0  0  0  0  0
  -23.9270  -10.5010   20.9780 C   0  0  0  0  0  0  0  0  0  0  0  0
  -24.3850   -9.5360   21.9010 C   0  0  0  0  0  3  0  0  0  0  0  0
  -23.6650   -8.3360   22.1000 C   0  0  0  0  0  3  0  0  0  0  0  0
  -22.4760   -8.0920   21.3720 C   0  0  0  0  0  0  0  0  0  0  0  0
  -22.0400   -9.0480   20.4370 C   0  0  0  0  0  3  0  0  0  0  0  0
  -22.7600  -10.2360   20.2360 C   0  0  0  0  0  3  0  0  0  0  0  0
  -21.7250   -6.9460   21.4810 O   0  0  0  0  0  0  0  0  0  0  0  0
  -21.6730   -6.2290   22.6490 C   0  0  0  0  0  0  0  0  0  0  0  0
  -21.2360   -6.8090   23.8610 C   0  0  0  0  0  3  0  0  0  0  0  0
  -21.1400   -6.0220   25.0260 C   0  0  0  0  0  3  0  0  0  0  0  0
  -21.4600   -4.6520   24.9800 C   0  0  0  0  0  0  0  0  0  0  0  0
  -21.8850   -4.0690   23.7730 C   0  0  0  0  0  3  0  0  0  0  0  0
  -21.9920   -4.8550   22.6130 C   0  0  0  0  0  0  0  0  0  0  0  0
  -22.3830   -4.2840   21.4470 F   0  0  0  0  0  0  0  0  0  0  0  0
  -21.3570   -3.8930   26.0960 F   0  0  0  0  0  0  0  0  0  0  0  0
  -22.8000  -13.5920   21.1980 C   0  0  0  0  0  0  0  0  0  0  0  0
  -22.1220  -12.8780   22.0920 N   0  0  0  0  0  0  0  0  0  0  0  0
  -22.3320  -14.6240   20.7210 O   0  0  0  0  0  0  0  0  0  0  0  0
  -22.5140  -12.0410   22.4970 H   0  0  0  0  0  0  0  0  0  0  0  0
  -21.2020  -13.1740   22.3780 H   0  0  0  0  0  0  0  0  0  0  0  0
  -25.3740  -15.2710   20.2560 N   0  0  0  0  0  0  0  0  0  0  0  0
  -24.6270  -15.9250   20.4670 H   0  0  0  0  0  0  0  0  0  0  0  0
  -26.2170  -15.7220   19.9220 H   0  0  0  0  0  0  0  0  0  0  0  0
  -29.1940  -22.5270   19.7690 C   0  0  0  0  0  3  0  0  0  0  0  0
  -28.3780  -23.7600   20.4060 C   0  0  0  0  0  3  0  0  0  0  0  0
  -28.5520  -25.1830   19.6760 C   0  0  0  0  0  2  0  0  0  0  0  0
  -28.3770  -26.4970   20.3470 O   0  0  0  0  0  0  0  0  0  0  0  0
  -24.6150  -31.9150   23.2390 C   0  0  0  0  0  0  0  0  0  0  0  0
  -27.2390  -27.3160   20.2410 C   0  0  0  0  0  0  0  0  0  0  0  0
  -23.4180  -30.5070   21.6010 C   0  0  0  0  0  3  0  0  0  0  0  0
  -24.8750  -28.9410   20.1900 C   0  0  0  0  0  0  0  0  0  0  0  0
  -25.9570  -30.8170   21.4310 C   0  0  0  0  0  2  0  0  0  0  0  0
  -26.0380  -29.4320   20.7960 C   0  0  0  0  0  0  0  0  0  0  0  0
  -27.2180  -28.6290   20.8120 C   0  0  0  0  0  3  0  0  0  0  0  0
  -26.0520  -26.8750   19.6190 C   0  0  0  0  0  3  0  0  0  0  0  0
  -24.8860  -27.6690   19.5920 C   0  0  0  0  0  3  0  0  0  0  0  0
  -23.6380  -29.8180   20.2260 C   0  0  0  0  0  2  0  0  0  0  0  0
  -24.6820  -31.0960   22.1500 N   0  0  0  0  0  0  0  0  0  0  0  0
  -23.5300  -32.2000   23.7670 O   0  0  0  0  0  0  0  0  0  0  0  0
  -22.7460  -29.5000   22.5610 C   0  0  0  0  0  0  0  0  0  0  0  0
  -21.4170  -29.3370   22.4380 N   0  0  0  0  0  0  0  0  0  0  0  0
  -23.4190  -28.8660   23.3790 O   0  0  0  0  0  0  0  0  0  0  0  0
  -20.9330  -29.8990   21.7540 H   0  0  0  0  0  0  0  0  0  0  0  0
  -18.0320  -28.1860   22.9560 C   0  0  0  0  0  0  0  0  0  0  0  0
  -20.5920  -28.4120   23.2150 C   0  0  0  0  0  3  0  0  0  0  0  0
  -20.6740  -26.9790   22.6380 C   0  0  0  0  0  2  0  0  0  0  0  0
  -19.5630  -26.6710   21.6300 C   0  0  0  0  0  2  0  0  0  0  0  0
  -18.1850  -26.8350   22.2780 C   0  0  0  0  0  2  0  0  0  0  0  0
  -19.1610  -28.9330   23.3820 C   0  0  0  0  0  0  0  0  0  0  0  0
  -18.9610  -30.1990   23.9750 C   0  0  0  0  0  3  0  0  0  0  0  0
  -17.6630  -30.7180   24.1440 C   0  0  0  0  0  3  0  0  0  0  0  0
  -16.5490  -29.9680   23.7350 C   0  0  0  0  0  3  0  0  0  0  0  0
  -16.7330  -28.7030   23.1460 C   0  0  0  0  0  3  0  0  0  0  0  0
  -25.8970  -32.5490   23.8630 C   0  0  0  0  0  3  0  0  0  0  0  0
  -25.5860  -33.9470   24.2000 N   0  0  0  0  0  0  0  0  0  0  0  0
  -25.9170  -35.0030   23.4470 C   0  0  0  0  0  0  0  0  0  0  0  0
  -26.5870  -34.9050   22.4150 O   0  0  0  0  0  0  0  0  0  0  0  0
  -24.9980  -34.0960   25.0070 H   0  0  0  0  0  0  0  0  0  0  0  0
  -24.1900  -36.7960   23.0990 C   0  0  0  0  0  1  0  0  0  0  0  0
  -25.4300  -36.3900   23.9110 C   0  0  0  0  0  3  0  0  0  0  0  0
  -27.5620  -37.2720   24.7490 C   0  0  0  0  0  1  0  0  0  0  0  0
  -26.4620  -37.4440   23.8030 N   0  0  0  0  0  0  0  0  0  0  0  0
  -26.0560  -38.3630   23.9530 H   0  0  0  0  0  0  0  0  0  0  0  0
  -26.4140  -31.7720   25.1350 C   0  0  1  0  0  0  0  0  0  0  0  0
  -25.3180  -31.5300   26.1980 C   0  0  0  0  0  1  0  0  0  0  0  0
  -27.0010  -30.3980   24.7380 C   0  0  0  0  0  1  0  0  0  0  0  0
  -27.5640  -32.5640   25.8030 C   0  0  0  0  0  1  0  0  0  0  0  0
  1  6  1  0
  1  2  1  0
  2  4  1  0
  3  1  2  0
  6  5  1  0
  7  6  1  0
  7 17  1  0
  8 17  1  0
  9 14  1  0
 10 11  1  0
 10  9  1  0
 12 11  1  0
 12 21  1  0
 12 13  1  0
 14  8  1  0
 14 13  1  0
 15  8  2  0
 17 16  1  0
 18 19  2  0
 19 38  1  0
 20 19  1  0
 20 23  1  0
 21 22  1  0
 21 18  1  0
 22 20  2  0
 23 24  1  0
 24 25  2  0
 26 29  1  0
 26 25  1  0
 27 26  2  0
 28 27  1  0
 28 23  2  0
 29 30  1  0
 30 31  1  0
 31 32  2  0
 33 32  1  0
 33 37  1  0
 34 33  2  0
 35 30  2  0
 35 34  1  0
 36 35  1  0
 38 39  1  0
 39 42  1  0
 39 41  1  0
 40 38  2  0
 43 18  1  0
 43 44  1  0
 45 43  1  0
 46  2  1  0
 46 47  2  0
 48 49  1  0
 48 47  1  0
 50 61  2  0
 51 49  1  0
 51 56  1  0
 52 60  1  0
 52 62  1  0
 53 59  1  0
 53 55  1  0
 54 60  1  0
 55 56  2  0
 55 54  1  0
 57 51  2  0
 58 57  1  0
 58 53  2  0
 59 52  1  0
 60 50  1  0
 62 64  2  0
 63 62  1  0
 65 63  1  0
 66 75  2  0
 66 71  1  0
 67 63  1  0
 67 71  1  0
 68 67  1  0
 69 70  1  0
 69 68  1  0
 70 66  1  0
 71 72  2  0
 72 73  1  0
 74 73  2  0
 75 74  1  0
 76 50  1  0
 76 77  1  0
 76 86  1  0
 77 80  1  0
 78 82  1  0
 78 77  1  0
 79 78  2  0
 82 81  1  0
 84 82  1  0
 84 85  1  0
 84 83  1  0
 86 89  1  1
 86 87  1  0
 88 86  1  0
M  ISO  4   8 100  17 100  48 101  49 101
M  END
>  <TORSDO>  (21) 
F 21

>  <SCORE>  (21) 
-12.868

>  <name>  (21) 
20

>  <ligand_id>  (21) 
20

>  <original_smiles>  (21) 
[H]c1c([H])c([H])c2c(c1[H])C([H])([H])C([H])([H])C([H])([H])C2([H])N([H])C(=O)C1([H])N(C(=O)C([H])(N([H])C(=O)C([H])(N([H])C([H])([H])[H])C([H])([H])[H])C(C([H])([H])[H])(C([H])([H])[H])C([H])([H])[H])C([H])([H])c2c([H])c(OC([H])([H])C([H])([H])C([H])([H])N([H])C(=O)C([H])(C([H])([H])[H])C([H])([H])N(C(=O)N3C([H])([H])C([H])([H])C([H])([H])C([H])(n4nc(-c5c([H])c([H])c(Oc6c([H])c([H])c(F)c([H])c6F)c([H])c5[H])c(C(=O)N([H])[H])c4N([H])[H])C3([H])[H])C([H])([H])[H])c([H])c([H])c2C1([H])[H]

>  <smiles>  (21) 
[H]c1c([H])c([H])c2c(c1[H])C([H])([H])C([H])([H])C([H])([H])C2([H])N([H])C(=O)C1([H])N(C(=O)C([H])(N([H])C(=O)C([H])(N([H])C([H])([H])[H])C([H])([H])[H])C(C([H])([H])[H])(C([H])([H])[H])C([H])([H])[H])C([H])([H])c2c([H])c(OC([H])([H])C([H])([H])C([H])([H])N([H])C(=O)C([H])(C([H])([H])[H])C([H])([H])N(C(=O)N3C([H])([H])C([H])([H])C([H])([H])C([H])(n4nc(-c5c([H])c([H])c(Oc6c([H])c([H])c(F)c([H])c6F)c([H])c5[H])c(C(=O)N([H])[H])c4N([H])[H])C3([H])[H])C([H])([H])[H])c([H])c([H])c2C1([H])[H]

$$$$
21:0:0
     RDKit          3D

 84 88  0  0  1  0  0  0  0  0999 V2000
  -28.2670  -23.2490   20.5250 C   0  0  0  0  0 15  0  0  0  0  0  0
  -29.1370  -21.4980   18.4610 C   0  0  0  0  0  1  0  0  0  0  0  0
  -28.6450  -21.2470   19.8900 C   0  0  0  0  0  1  0  0  0  0  0  0
  -29.3070  -17.8090   19.9960 C   0  0  0  0  0  2  0  0  0  0  0  0
  -29.4140  -19.4150   20.2700 C   0  0  0  0  0  2  0  0  0  0  0  0
  -30.0960  -16.1470   20.1000 C   0  0  0  0  0  0  0  0  0  0  0  0
  -30.3040  -13.4900   19.3200 C   0  0  0  0  0  2  0  0  0  0  0  0
  -29.4490  -12.8760   18.1590 C   0  0  0  0  0  2  0  0  0  0  0  0
  -28.0670  -12.4300   18.6480 C   0  0  0  0  0  2  0  0  0  0  0  0
  -27.5000  -13.4600   19.6440 C   0  0  0  0  0  3  0  0  0  0  0  0
  -28.5110  -13.9620   20.7110 C   0  0  0  0  0  2  0  0  0  0  0  0
  -29.6130  -14.7090   20.0170 N   0  0  0  0  0  0  0  0  0  0  0  0
  -31.3380  -15.9640   20.0240 O   0  0  0  0  0  0  0  0  0  0  0  0
  -25.1610  -13.9420   20.4690 C   0  0  0  0  0  0  0  0  0  0  0  0
  -24.1130  -13.1520   20.8450 C   0  0  0  0  0  0  0  0  0  0  0  0
  -24.5920  -11.8060   20.7970 C   0  0  0  0  0  0  0  0  0  0  0  0
  -26.2070  -13.0850   20.2000 N   0  0  0  0  0  0  0  0  0  0  0  0
  -25.8820  -11.7880   20.4620 N   0  0  0  0  0  0  0  0  0  0  0  0
  -23.8700  -10.5390   20.9900 C   0  0  0  0  0  0  0  0  0  0  0  0
  -24.3080   -9.5690   21.9170 C   0  0  0  0  0  3  0  0  0  0  0  0
  -23.5790   -8.3730   22.1030 C   0  0  0  0  0  3  0  0  0  0  0  0
  -22.3970   -8.1390   21.3610 C   0  0  0  0  0  0  0  0  0  0  0  0
  -21.9750   -9.0990   20.4240 C   0  0  0  0  0  3  0  0  0  0  0  0
  -22.7050  -10.2850   20.2360 C   0  0  0  0  0  3  0  0  0  0  0  0
  -21.6400   -6.9960   21.4560 O   0  0  0  0  0  0  0  0  0  0  0  0
  -21.6000   -6.2510   22.6070 C   0  0  0  0  0  0  0  0  0  0  0  0
  -21.1750   -6.8010   23.8360 C   0  0  0  0  0  3  0  0  0  0  0  0
  -21.0830   -5.9820   24.9790 C   0  0  0  0  0  3  0  0  0  0  0  0
  -21.4040   -4.6150   24.8950 C   0  0  0  0  0  0  0  0  0  0  0  0
  -21.8220   -4.0630   23.6710 C   0  0  0  0  0  3  0  0  0  0  0  0
  -21.9160   -4.8790   22.5300 C   0  0  0  0  0  0  0  0  0  0  0  0
  -22.2980   -4.3380   21.3480 F   0  0  0  0  0  0  0  0  0  0  0  0
  -21.3090   -3.8270   25.9910 F   0  0  0  0  0  0  0  0  0  0  0  0
  -22.7180  -13.6210   21.1280 C   0  0  0  0  0  0  0  0  0  0  0  0
  -22.0020  -12.9230   22.0020 N   0  0  0  0  0  0  0  0  0  0  0  0
  -22.2720  -14.6450   20.6120 O   0  0  0  0  0  0  0  0  0  0  0  0
  -22.3770  -12.0960   22.4420 H   0  0  0  0  0  0  0  0  0  0  0  0
  -21.0650  -13.2210   22.2350 H   0  0  0  0  0  0  0  0  0  0  0  0
  -25.3060  -15.3160   20.2980 N   0  0  0  0  0  0  0  0  0  0  0  0
  -24.5340  -15.9600   20.4320 H   0  0  0  0  0  0  0  0  0  0  0  0
  -26.1480  -15.7690   19.9670 H   0  0  0  0  0  0  0  0  0  0  0  0
  -30.4870  -19.7390   21.0010 O   0  0  0  0  0  0  0  0  0  0  0  0
  -30.5130  -20.6860   21.0660 H   0  0  0  0  0  0  0  0  0  0  0  0
  -28.1690  -25.1480   20.2420 O   0  0  0  0  0  1  0  0  0  0  0  0
  -24.6310  -31.8140   23.1660 C   0  0  0  0  0  0  0  0  0  0  0  0
  -27.1940  -26.4680   20.2850 C   0  0  0  0  0  0  0  0  0  0  0  0
  -23.4740  -30.3850   21.5400 C   0  0  0  0  0  3  0  0  0  0  0  0
  -24.9420  -28.6720   20.1800 C   0  0  0  0  0  0  0  0  0  0  0  0
  -26.0660  -30.4590   21.4660 C   0  0  0  0  0  2  0  0  0  0  0  0
  -26.1400  -28.9870   20.8310 C   0  0  0  0  0  0  0  0  0  0  0  0
  -27.2380  -27.9270   20.8350 C   0  0  0  0  0  3  0  0  0  0  0  0
  -25.9530  -26.4380   19.5760 C   0  0  0  0  0  3  0  0  0  0  0  0
  -24.9040  -27.4250   19.5270 C   0  0  0  0  0  3  0  0  0  0  0  0
  -23.7430  -29.6520   20.1900 C   0  0  0  0  0  2  0  0  0  0  0  0
  -24.7520  -30.9270   22.1090 N   0  0  0  0  0  0  0  0  0  0  0  0
  -23.5280  -32.1230   23.6500 O   0  0  0  0  0  0  0  0  0  0  0  0
  -22.7310  -29.4380   22.5240 C   0  0  0  0  0  0  0  0  0  0  0  0
  -21.3950  -29.2980   22.3990 N   0  0  0  0  0  0  0  0  0  0  0  0
  -23.3730  -28.8210   23.3760 O   0  0  0  0  0  0  0  0  0  0  0  0
  -20.9220  -29.8440   21.6930 H   0  0  0  0  0  0  0  0  0  0  0  0
  -17.9990  -28.0960   22.9330 C   0  0  0  0  0  0  0  0  0  0  0  0
  -20.5630  -28.3690   23.1780 C   0  0  0  0  0  3  0  0  0  0  0  0
  -20.6580  -26.9320   22.6110 C   0  0  0  0  0  2  0  0  0  0  0  0
  -19.5520  -26.6080   21.6010 C   0  0  0  0  0  2  0  0  0  0  0  0
  -18.1730  -26.7500   22.2510 C   0  0  0  0  0  2  0  0  0  0  0  0
  -19.1190  -28.8640   23.3520 C   0  0  0  0  0  0  0  0  0  0  0  0
  -18.8970  -30.1200   23.9590 C   0  0  0  0  0  3  0  0  0  0  0  0
  -17.5900  -30.6100   24.1420 C   0  0  0  0  0  3  0  0  0  0  0  0
  -16.4860  -29.8430   23.7330 C   0  0  0  0  0  3  0  0  0  0  0  0
  -16.6910  -28.5870   23.1350 C   0  0  0  0  0  3  0  0  0  0  0  0
  -25.8730  -32.4940   23.8210 C   0  0  0  0  0  3  0  0  0  0  0  0
  -26.3530  -31.7610   25.1360 C   0  0  1  0  0  0  0  0  0  0  0  0
  -25.2320  -31.5470   26.1790 C   0  0  0  0  0  1  0  0  0  0  0  0
  -26.9540  -30.3760   24.8140 C   0  0  0  0  0  1  0  0  0  0  0  0
  -27.4810  -32.5790   25.8090 C   0  0  0  0  0  1  0  0  0  0  0  0
  -25.5270  -33.8970   24.1400 N   0  0  0  0  0  0  0  0  0  0  0  0
  -25.8600  -34.9680   23.4060 C   0  0  0  0  0  0  0  0  0  0  0  0
  -26.5390  -34.8790   22.3810 O   0  0  0  0  0  0  0  0  0  0  0  0
  -24.9190  -34.0370   24.9340 H   0  0  0  0  0  0  0  0  0  0  0  0
  -24.1210  -36.7660   23.0750 C   0  0  0  0  0  1  0  0  0  0  0  0
  -25.3670  -36.3550   23.8770 C   0  0  0  0  0  3  0  0  0  0  0  0
  -27.4960  -37.2590   24.7100 C   0  0  0  0  0  1  0  0  0  0  0  0
  -26.3920  -37.4190   23.7670 N   0  0  0  0  0  0  0  0  0  0  0  0
  -25.9770  -38.3350   23.9170 H   0  0  0  0  0  0  0  0  0  0  0  0
  2  3  1  0
  4  6  1  0
  4  5  1  0
  5 42  1  0
  7 12  1  0
  8  9  1  0
  8  7  1  0
 10  9  1  0
 10 17  1  0
 10 11  1  0
 12  6  1  0
 12 11  1  0
 13  6  2  0
 14 15  2  0
 15 34  1  0
 16 15  1  0
 16 19  1  0
 17 18  1  0
 17 14  1  0
 18 16  2  0
 19 20  1  0
 20 21  2  0
 22 25  1  0
 22 21  1  0
 23 22  2  0
 24 23  1  0
 24 19  2  0
 25 26  1  0
 26 27  1  0
 27 28  2  0
 29 28  1  0
 29 33  1  0
 30 29  2  0
 31 26  2  0
 31 30  1  0
 32 31  1  0
 34 35  1  0
 35 38  1  0
 35 37  1  0
 36 34  2  0
 39 40  1  0
 39 14  1  0
 41 39  1  0
 42 43  1  0
 44 46  1  0
 45 56  2  0
 46 51  1  0
 47 55  1  0
 47 57  1  0
 48 54  1  0
 48 50  1  0
 49 55  1  0
 50 51  2  0
 50 49  1  0
 52 46  2  0
 53 52  1  0
 53 48  2  0
 54 47  1  0
 55 45  1  0
 57 59  2  0
 58 57  1  0
 60 58  1  0
 61 70  2  0
 61 66  1  0
 62 58  1  0
 62 66  1  0
 63 62  1  0
 64 65  1  0
 64 63  1  0
 65 61  1  0
 66 67  2  0
 67 68  1  0
 69 68  2  0
 70 69  1  0
 71 45  1  0
 71 76  1  0
 71 72  1  0
 72 75  1  1
 72 73  1  0
 74 72  1  0
 76 79  1  0
 77 81  1  0
 77 76  1  0
 78 77  2  0
 81 80  1  0
 83 81  1  0
 83 84  1  0
 83 82  1  0
M  ISO  4   1 101   4 100   6 100  44 101
M  END
>  <TORSDO>  (22) 
F 19

>  <SCORE>  (22) 
-16.022

>  <name>  (22) 
21

>  <ligand_id>  (22) 
21

>  <original_smiles>  (22) 
[H]OC(=C([H])C(=O)N1C([H])([H])C([H])([H])C([H])([H])C([H])(n2nc(-c3c([H])c([H])c(Oc4c([H])c([H])c(F)c([H])c4F)c([H])c3[H])c(C(=O)N([H])[H])c2N([H])[H])C1([H])[H])C([H])(C([H])([H])[H])C([H])([H])Oc1c([H])c([H])c2c(c1[H])C([H])([H])N(C(=O)C([H])(N([H])C(=O)C([H])(N([H])C([H])([H])[H])C([H])([H])[H])C(C([H])([H])[H])(C([H])([H])[H])C([H])([H])[H])C([H])(C(=O)N([H])C1([H])c3c([H])c([H])c([H])c([H])c3C([H])([H])C([H])([H])C1([H])[H])C2([H])[H]

>  <smiles>  (22) 
[H]OC(=C([H])C(=O)N1C([H])([H])C([H])([H])C([H])([H])C([H])(n2nc(-c3c([H])c([H])c(Oc4c([H])c([H])c(F)c([H])c4F)c([H])c3[H])c(C(=O)N([H])[H])c2N([H])[H])C1([H])[H])C([H])(C([H])([H])[H])C([H])([H])Oc1c([H])c([H])c2c(c1[H])C([H])([H])N(C(=O)C([H])(N([H])C(=O)C([H])(N([H])C([H])([H])[H])C([H])([H])[H])C(C([H])([H])[H])(C([H])([H])[H])C([H])([H])[H])C([H])(C(=O)N([H])C1([H])c3c([H])c([H])c([H])c([H])c3C([H])([H])C([H])([H])C1([H])[H])C2([H])[H]

$$$$
22:0:0
     RDKit          3D

 94102  0  0  1  0  0  0  0  0999 V2000
  -27.6960  -21.2790   21.4840 C   0  0  0  0  0  1  0  0  0  0  0  0
  -28.7960  -20.7560   20.5160 C   0  0  0  0  0  3  0  0  0  0  0  0
  -28.6980  -18.1610   18.1750 C   0  0  0  0  0  3  0  0  0  0  0  0
  -27.6280  -18.2070   19.0950 C   0  0  0  0  0  2  0  0  0  0  0  0
  -30.0130  -18.2480   18.6740 C   0  0  0  0  0  3  0  0  0  0  0  0
  -27.8840  -18.5220   20.4470 C   0  0  0  0  0  2  0  0  0  0  0  0
  -30.1800  -18.5370   20.0460 C   0  0  0  0  0  3  0  0  0  0  0  0
  -29.0930  -19.2080   20.7120 C   0  0  0  0  0  3  0  0  0  0  0  0
  -31.1420  -17.5650   20.7930 C   0  0  0  0  0  2  0  0  0  0  0  0
  -31.4260  -15.0260   20.4910 C   0  0  0  0  0  0  0  0  0  0  0  0
  -31.1440  -12.7900   19.4580 C   0  0  0  0  0  2  0  0  0  0  0  0
  -30.2640  -12.9330   18.1970 C   0  0  0  0  0  2  0  0  0  0  0  0
  -28.7710  -12.8310   18.5650 C   0  0  0  0  0  2  0  0  0  0  0  0
  -28.3880  -13.7280   19.7740 C   0  0  0  0  0  3  0  0  0  0  0  0
  -29.3960  -13.5760   20.9360 C   0  0  0  0  0  2  0  0  0  0  0  0
  -30.7400  -13.8460   20.4030 N   0  0  0  0  0  0  0  0  0  0  0  0
  -32.5970  -15.1260   20.1180 O   0  0  0  0  0  0  0  0  0  0  0  0
  -30.7080  -16.1300   20.8330 N   0  0  0  0  0  0  0  0  0  0  0  0
  -29.7500  -15.9690   21.0990 H   0  0  0  0  0  0  0  0  0  0  0  0
  -25.9900  -14.3930   20.4070 C   0  0  0  0  0  0  0  0  0  0  0  0
  -24.8840  -13.6570   20.7260 C   0  0  0  0  0  0  0  0  0  0  0  0
  -25.2990  -12.2920   20.6940 C   0  0  0  0  0  0  0  0  0  0  0  0
  -27.0140  -13.4850   20.2040 N   0  0  0  0  0  0  0  0  0  0  0  0
  -26.6000  -12.2110   20.4330 N   0  0  0  0  0  0  0  0  0  0  0  0
  -24.5230  -11.0570   20.8420 C   0  0  0  0  0  0  0  0  0  0  0  0
  -24.8630  -10.0840   21.8060 C   0  0  0  0  0  3  0  0  0  0  0  0
  -24.0890   -8.9110   21.9400 C   0  0  0  0  0  3  0  0  0  0  0  0
  -22.9590   -8.7080   21.1120 C   0  0  0  0  0  0  0  0  0  0  0  0
  -22.6390   -9.6710   20.1390 C   0  0  0  0  0  3  0  0  0  0  0  0
  -23.4130  -10.8350   20.0040 C   0  0  0  0  0  3  0  0  0  0  0  0
  -22.1650   -7.5880   21.1560 O   0  0  0  0  0  0  0  0  0  0  0  0
  -21.9780   -6.8850   22.3180 C   0  0  0  0  0  0  0  0  0  0  0  0
  -21.4540   -7.4920   23.4820 C   0  0  0  0  0  3  0  0  0  0  0  0
  -21.2150   -6.7160   24.6340 C   0  0  0  0  0  3  0  0  0  0  0  0
  -21.4880   -5.3350   24.6220 C   0  0  0  0  0  0  0  0  0  0  0  0
  -22.0030   -4.7280   23.4640 C   0  0  0  0  0  3  0  0  0  0  0  0
  -22.2440   -5.5000   22.3150 C   0  0  0  0  0  0  0  0  0  0  0  0
  -22.7230   -4.9080   21.1940 F   0  0  0  0  0  0  0  0  0  0  0  0
  -21.2490   -4.5880   25.7250 F   0  0  0  0  0  0  0  0  0  0  0  0
  -23.4960  -14.1850   20.9500 C   0  0  0  0  0  0  0  0  0  0  0  0
  -22.7160  -13.5140   21.7910 N   0  0  0  0  0  0  0  0  0  0  0  0
  -23.1120  -15.2270   20.4190 O   0  0  0  0  0  0  0  0  0  0  0  0
  -23.0370  -12.6710   22.2400 H   0  0  0  0  0  0  0  0  0  0  0  0
  -21.7820  -13.8500   21.9890 H   0  0  0  0  0  0  0  0  0  0  0  0
  -26.1980  -15.7540   20.2640 N   0  0  0  0  0  0  0  0  0  0  0  0
  -25.4550  -16.4230   20.4260 H   0  0  0  0  0  0  0  0  0  0  0  0
  -27.0900  -16.1920   20.0660 H   0  0  0  0  0  0  0  0  0  0  0  0
  -29.9110  -21.7590   20.4950 N   0  0  0  0  0  4  0  0  0  0  0  0
  -30.2320  -21.9590   21.4290 H   0  0  0  0  0  0  0  0  0  0  0  0
  -30.6800  -21.3140   20.0190 H   0  0  0  0  0  0  0  0  0  0  0  0
  -29.6190  -23.0400   19.7330 C   0  0  0  0  0  2  0  0  0  0  0  0
  -29.3720  -24.3890   20.5310 C   0  0  0  0  0  2  0  0  0  0  0  0
  -28.7130  -25.5260   19.6620 C   0  0  0  0  0  2  0  0  0  0  0  0
  -28.6310  -26.8720   20.2420 O   0  0  0  0  0  0  0  0  0  0  0  0
  -24.6920  -31.9910   23.3640 C   0  0  0  0  0  0  0  0  0  0  0  0
  -27.4550  -27.6300   20.1820 C   0  0  0  0  0  0  0  0  0  0  0  0
  -23.5390  -30.6170   21.6690 C   0  0  0  0  0  3  0  0  0  0  0  0
  -25.0370  -29.1540   20.2090 C   0  0  0  0  0  0  0  0  0  0  0  0
  -26.0690  -31.0060   21.5250 C   0  0  0  0  0  2  0  0  0  0  0  0
  -26.1850  -29.6570   20.8340 C   0  0  0  0  0  0  0  0  0  0  0  0
  -27.3910  -28.9020   20.8170 C   0  0  0  0  0  3  0  0  0  0  0  0
  -26.2800  -27.1760   19.5330 C   0  0  0  0  0  3  0  0  0  0  0  0
  -25.0840  -27.9160   19.5560 C   0  0  0  0  0  3  0  0  0  0  0  0
  -23.7770  -29.9900   20.2700 C   0  0  0  0  0  2  0  0  0  0  0  0
  -24.7840  -31.2210   22.2420 N   0  0  0  0  0  0  0  0  0  0  0  0
  -23.5990  -32.2280   23.8930 O   0  0  0  0  0  0  0  0  0  0  0  0
  -22.8930  -29.5550   22.5900 C   0  0  0  0  0  0  0  0  0  0  0  0
  -21.5720  -29.3580   22.4480 N   0  0  0  0  0  0  0  0  0  0  0  0
  -23.5790  -28.9160   23.3930 O   0  0  0  0  0  0  0  0  0  0  0  0
  -21.0780  -29.9300   21.7780 H   0  0  0  0  0  0  0  0  0  0  0  0
  -18.2190  -28.0800   22.9000 C   0  0  0  0  0  0  0  0  0  0  0  0
  -20.7680  -28.3780   23.1790 C   0  0  0  0  0  3  0  0  0  0  0  0
  -20.8990  -26.9730   22.5510 C   0  0  0  0  0  2  0  0  0  0  0  0
  -19.8030  -26.6680   21.5270 C   0  0  0  0  0  2  0  0  0  0  0  0
  -18.4230  -26.7540   22.1850 C   0  0  0  0  0  2  0  0  0  0  0  0
  -19.3230  -28.8500   23.3520 C   0  0  0  0  0  0  0  0  0  0  0  0
  -19.0830  -30.0970   23.9700 C   0  0  0  0  0  3  0  0  0  0  0  0
  -17.7700  -30.5730   24.1460 C   0  0  0  0  0  3  0  0  0  0  0  0
  -16.6780  -29.7980   23.7150 C   0  0  0  0  0  3  0  0  0  0  0  0
  -16.9040  -28.5530   23.1000 C   0  0  0  0  0  3  0  0  0  0  0  0
  -25.9550  -32.6320   24.0170 C   0  0  0  0  0  3  0  0  0  0  0  0
  -25.6260  -34.0270   24.3390 N   0  0  0  0  0  0  0  0  0  0  0  0
  -25.9630  -35.0830   23.5860 C   0  0  0  0  0  0  0  0  0  0  0  0
  -26.6590  -34.9850   22.5700 O   0  0  0  0  0  0  0  0  0  0  0  0
  -25.0060  -34.1740   25.1210 H   0  0  0  0  0  0  0  0  0  0  0  0
  -24.2200  -36.8540   23.1960 C   0  0  0  0  0  1  0  0  0  0  0  0
  -25.4520  -36.4660   24.0300 C   0  0  0  0  0  3  0  0  0  0  0  0
  -27.5590  -37.3790   24.8990 C   0  0  0  0  0  1  0  0  0  0  0  0
  -26.4730  -37.5310   23.9340 N   0  0  0  0  0  0  0  0  0  0  0  0
  -26.0540  -38.4470   24.0740 H   0  0  0  0  0  0  0  0  0  0  0  0
  -26.4460  -31.8640   25.3060 C   0  0  1  0  0  0  0  0  0  0  0  0
  -25.3260  -31.6030   26.3390 C   0  0  0  0  0  1  0  0  0  0  0  0
  -27.0690  -30.5000   24.9300 C   0  0  0  0  0  1  0  0  0  0  0  0
  -27.5590  -32.6800   26.0050 C   0  0  0  0  0  1  0  0  0  0  0  0
  2  1  1  0
  3  5  2  0
  3  4  1  0
  4  6  1  0
  5  7  1  0
  6  8  1  0
  7  8  1  0
  7  9  1  0
  8  2  1  0
  9 18  1  0
 10 18  1  0
 11 16  1  0
 12 13  1  0
 12 11  1  0
 14 13  1  0
 14 23  1  0
 14 15  1  0
 16 10  1  0
 16 15  1  0
 17 10  2  0
 18 19  1  0
 20 21  2  0
 21 40  1  0
 22 21  1  0
 22 25  1  0
 23 20  1  0
 23 24  1  0
 24 22  2  0
 25 26  1  0
 26 27  2  0
 28 31  1  0
 28 27  1  0
 29 28  2  0
 30 29  1  0
 30 25  2  0
 31 32  1  0
 32 33  1  0
 33 34  2  0
 35 34  1  0
 35 39  1  0
 36 35  2  0
 37 32  2  0
 37 36  1  0
 38 37  1  0
 40 41  1  0
 41 44  1  0
 41 43  1  0
 42 40  2  0
 45 20  1  0
 45 46  1  0
 47 45  1  0
 48  2  1  0
 48 49  1  0
 50 48  1  0
 51 48  1  0
 51 52  1  0
 53 54  1  0
 53 52  1  0
 55 66  2  0
 56 54  1  0
 56 61  1  0
 57 65  1  0
 57 67  1  0
 58 64  1  0
 58 60  1  0
 59 65  1  0
 60 59  1  0
 61 60  2  0
 62 63  1  0
 62 56  2  0
 63 58  2  0
 64 57  1  0
 65 55  1  0
 67 69  2  0
 68 67  1  0
 70 68  1  0
 71 80  2  0
 71 76  1  0
 72 68  1  0
 72 76  1  0
 73 72  1  0
 74 75  1  0
 74 73  1  0
 75 71  1  0
 76 77  2  0
 77 78  1  0
 79 78  2  0
 80 79  1  0
 81 55  1  0
 81 82  1  0
 81 91  1  0
 82 85  1  0
 83 87  1  0
 83 82  1  0
 84 83  2  0
 87 86  1  0
 89 87  1  0
 89 90  1  0
 89 88  1  0
 91 94  1  1
 91 92  1  0
 93 91  1  0
M  ISO  4  10 100  18 100  53 101  54 101
M  END
>  <TORSDO>  (23) 
F 22

>  <SCORE>  (23) 
-12.028

>  <name>  (23) 
22

>  <ligand_id>  (23) 
22

>  <original_smiles>  (23) 
[H]c1c([H])c([H])c(C([H])(C([H])([H])[H])[N+]([H])([H])C([H])([H])C([H])([H])C([H])([H])Oc2c([H])c([H])c3c(c2[H])C([H])([H])N(C(=O)C([H])(N([H])C(=O)C([H])(N([H])C([H])([H])[H])C([H])([H])[H])C(C([H])([H])[H])(C([H])([H])[H])C([H])([H])[H])C([H])(C(=O)N([H])C2([H])c4c([H])c([H])c([H])c([H])c4C([H])([H])C([H])([H])C2([H])[H])C3([H])[H])c(C([H])([H])N([H])C(=O)N2C([H])([H])C([H])([H])C([H])([H])C([H])(n3nc(-c4c([H])c([H])c(Oc5c([H])c([H])c(F)c([H])c5F)c([H])c4[H])c(C(=O)N([H])[H])c3N([H])[H])C2([H])[H])c1[H]

>  <smiles>  (23) 
[H]c1c([H])c([H])c(C([H])(C([H])([H])[H])[N+]([H])([H])C([H])([H])C([H])([H])C([H])([H])Oc2c([H])c([H])c3c(c2[H])C([H])([H])N(C(=O)C([H])(N([H])C(=O)C([H])(N([H])C([H])([H])[H])C([H])([H])[H])C(C([H])([H])[H])(C([H])([H])[H])C([H])([H])[H])C([H])(C(=O)N([H])C2([H])c4c([H])c([H])c([H])c([H])c4C([H])([H])C([H])([H])C2([H])[H])C3([H])[H])c(C([H])([H])N([H])C(=O)N2C([H])([H])C([H])([H])C([H])([H])C([H])(n3nc(-c4c([H])c([H])c(Oc5c([H])c([H])c(F)c([H])c5F)c([H])c4[H])c(C(=O)N([H])[H])c3N([H])[H])C2([H])[H])c1[H]

$$$$
23:0:0
     RDKit          3D

 92100  0  0  1  0  0  0  0  0999 V2000
  -29.3550  -20.2550   20.2220 C   0  0  0  0  0  2  0  0  0  0  0  0
  -29.3140  -18.9480   16.6130 C   0  0  0  0  0  3  0  0  0  0  0  0
  -30.0100  -17.7360   16.6740 C   0  0  0  0  0  3  0  0  0  0  0  0
  -29.1290  -19.7050   17.7820 C   0  0  0  0  0  3  0  0  0  0  0  0
  -30.4930  -17.2770   17.9070 C   0  0  0  0  0  3  0  0  0  0  0  0
  -29.6420  -19.2920   19.0370 C   0  0  0  0  0  0  0  0  0  0  0  0
  -30.3110  -18.0090   19.1040 C   0  0  0  0  0  0  0  0  0  0  0  0
  -30.9190  -17.3580   20.3670 C   0  0  0  0  0  2  0  0  0  0  0  0
  -31.0620  -14.8220   20.3410 C   0  0  0  0  0  0  0  0  0  0  0  0
  -30.7380  -12.6700   19.1360 C   0  0  0  0  0  2  0  0  0  0  0  0
  -29.7840  -12.8500   17.9360 C   0  0  0  0  0  2  0  0  0  0  0  0
  -28.3140  -12.6950   18.3650 C   0  0  0  0  0  2  0  0  0  0  0  0
  -27.9870  -13.5270   19.6310 C   0  0  0  0  0  3  0  0  0  0  0  0
  -29.0420  -13.2560   20.7230 C   0  0  0  0  0  2  0  0  0  0  0  0
  -30.3520  -13.6530   20.1750 N   0  0  0  0  0  0  0  0  0  0  0  0
  -32.2030  -14.9050   19.8750 O   0  0  0  0  0  0  0  0  0  0  0  0
  -29.4650  -16.0570   21.8490 C   0  0  0  0  0  1  0  0  0  0  0  0
  -30.4160  -15.9830   20.7290 N   0  0  0  0  0  0  0  0  0  0  0  0
  -25.5970  -14.1710   20.3220 C   0  0  0  0  0  0  0  0  0  0  0  0
  -24.5200  -13.4130   20.6940 C   0  0  0  0  0  0  0  0  0  0  0  0
  -24.9670  -12.0570   20.6830 C   0  0  0  0  0  0  0  0  0  0  0  0
  -26.6310  -13.2740   20.1060 N   0  0  0  0  0  0  0  0  0  0  0  0
  -26.2580  -11.9990   20.3810 N   0  0  0  0  0  0  0  0  0  0  0  0
  -24.2270  -10.8050   20.8830 C   0  0  0  0  0  0  0  0  0  0  0  0
  -24.6150   -9.8680   21.8670 C   0  0  0  0  0  3  0  0  0  0  0  0
  -23.8780   -8.6780   22.0520 C   0  0  0  0  0  3  0  0  0  0  0  0
  -22.7390   -8.4180   21.2530 C   0  0  0  0  0  0  0  0  0  0  0  0
  -22.3740   -9.3400   20.2580 C   0  0  0  0  0  3  0  0  0  0  0  0
  -23.1110  -10.5220   20.0720 C   0  0  0  0  0  3  0  0  0  0  0  0
  -21.9720   -7.2810   21.3470 O   0  0  0  0  0  0  0  0  0  0  0  0
  -21.8210   -6.6120   22.5340 C   0  0  0  0  0  0  0  0  0  0  0  0
  -21.2860   -7.2390   23.6800 C   0  0  0  0  0  3  0  0  0  0  0  0
  -21.0890   -6.4950   24.8610 C   0  0  0  0  0  3  0  0  0  0  0  0
  -21.4080   -5.1250   24.8930 C   0  0  0  0  0  0  0  0  0  0  0  0
  -21.9290   -4.4970   23.7480 C   0  0  0  0  0  3  0  0  0  0  0  0
  -22.1350   -5.2390   22.5720 C   0  0  0  0  0  0  0  0  0  0  0  0
  -22.6200   -4.6240   21.4660 F   0  0  0  0  0  0  0  0  0  0  0  0
  -21.2070   -4.4080   26.0230 F   0  0  0  0  0  0  0  0  0  0  0  0
  -23.1260  -13.9060   20.9560 C   0  0  0  0  0  0  0  0  0  0  0  0
  -22.3910  -13.2300   21.8320 N   0  0  0  0  0  0  0  0  0  0  0  0
  -22.6980  -14.9270   20.4190 O   0  0  0  0  0  0  0  0  0  0  0  0
  -22.7500  -12.4030   22.2850 H   0  0  0  0  0  0  0  0  0  0  0  0
  -21.4550  -13.5420   22.0520 H   0  0  0  0  0  0  0  0  0  0  0  0
  -25.7730  -15.5380   20.1310 N   0  0  0  0  0  0  0  0  0  0  0  0
  -25.0190  -16.2010   20.2650 H   0  0  0  0  0  0  0  0  0  0  0  0
  -26.6270  -15.9730   19.8020 H   0  0  0  0  0  0  0  0  0  0  0  0
  -29.7660  -21.7710   20.0320 C   0  0  0  0  0  3  0  0  0  0  0  0
  -28.8900  -22.8350   20.7820 C   0  0  0  0  0  3  0  0  0  0  0  0
  -29.1880  -24.3280   20.4540 C   0  0  0  0  0  0  0  0  0  0  0  0
  -30.1520  -24.6430   19.7480 O   0  0  0  0  0  0  0  0  0  0  0  0
  -28.2430  -25.4060   21.0540 C   0  0  0  0  0  2  0  0  0  0  0  0
  -28.4540  -26.7410   20.5200 O   0  0  0  0  0  0  0  0  0  0  0  0
  -24.5700  -32.0370   23.3510 C   0  0  0  0  0  0  0  0  0  0  0  0
  -27.3100  -27.5140   20.4550 C   0  0  0  0  0  0  0  0  0  0  0  0
  -23.4170  -30.5970   21.7040 C   0  0  0  0  0  3  0  0  0  0  0  0
  -24.9160  -29.0340   20.3550 C   0  0  0  0  0  0  0  0  0  0  0  0
  -25.9500  -30.9530   21.5750 C   0  0  0  0  0  2  0  0  0  0  0  0
  -26.0600  -29.5690   20.9640 C   0  0  0  0  0  0  0  0  0  0  0  0
  -27.2610  -28.8190   21.0060 C   0  0  0  0  0  3  0  0  0  0  0  0
  -26.1530  -27.0050   19.8250 C   0  0  0  0  0  3  0  0  0  0  0  0
  -24.9610  -27.7540   19.7770 C   0  0  0  0  0  3  0  0  0  0  0  0
  -23.6690  -29.8910   20.3460 C   0  0  0  0  0  2  0  0  0  0  0  0
  -24.6630  -31.2120   22.2690 N   0  0  0  0  0  0  0  0  0  0  0  0
  -23.4730  -32.3180   23.8530 O   0  0  0  0  0  0  0  0  0  0  0  0
  -22.7400  -29.5940   22.6680 C   0  0  0  0  0  0  0  0  0  0  0  0
  -21.4180  -29.4100   22.5110 N   0  0  0  0  0  0  0  0  0  0  0  0
  -23.4020  -28.9850   23.5120 O   0  0  0  0  0  0  0  0  0  0  0  0
  -20.9460  -29.9530   21.8010 H   0  0  0  0  0  0  0  0  0  0  0  0
  -18.0290  -28.2420   22.9580 C   0  0  0  0  0  0  0  0  0  0  0  0
  -20.5810  -28.4880   23.2780 C   0  0  0  0  0  3  0  0  0  0  0  0
  -20.6860  -27.0480   22.7230 C   0  0  0  0  0  2  0  0  0  0  0  0
  -19.6030  -26.7180   21.6920 C   0  0  0  0  0  2  0  0  0  0  0  0
  -18.2100  -26.8820   22.3060 C   0  0  0  0  0  2  0  0  0  0  0  0
  -19.1420  -29.0030   23.4010 C   0  0  0  0  0  0  0  0  0  0  0  0
  -18.9200  -30.2750   23.9690 C   0  0  0  0  0  3  0  0  0  0  0  0
  -17.6150  -30.7870   24.1020 C   0  0  0  0  0  3  0  0  0  0  0  0
  -16.5140  -30.0230   23.6760 C   0  0  0  0  0  3  0  0  0  0  0  0
  -16.7220  -28.7520   23.1110 C   0  0  0  0  0  3  0  0  0  0  0  0
  -25.8350  -32.6850   23.9940 C   0  0  0  0  0  3  0  0  0  0  0  0
  -25.5180  -34.0920   24.2730 N   0  0  0  0  0  0  0  0  0  0  0  0
  -25.8750  -35.1220   23.4940 C   0  0  0  0  0  0  0  0  0  0  0  0
  -26.5770  -34.9880   22.4870 O   0  0  0  0  0  0  0  0  0  0  0  0
  -24.9000  -34.2700   25.0510 H   0  0  0  0  0  0  0  0  0  0  0  0
  -24.1520  -36.8970   23.0390 C   0  0  0  0  0  1  0  0  0  0  0  0
  -25.3740  -36.5220   23.8940 C   0  0  0  0  0  3  0  0  0  0  0  0
  -27.4850  -37.4390   24.7500 C   0  0  0  0  0  1  0  0  0  0  0  0
  -26.4070  -37.5740   23.7730 N   0  0  0  0  0  0  0  0  0  0  0  0
  -25.9960  -38.4970   23.8790 H   0  0  0  0  0  0  0  0  0  0  0  0
  -26.3120  -31.9500   25.3070 C   0  0  1  0  0  0  0  0  0  0  0  0
  -25.1810  -31.7160   26.3340 C   0  0  0  0  0  1  0  0  0  0  0  0
  -26.9350  -30.5770   24.9670 C   0  0  0  0  0  1  0  0  0  0  0  0
  -27.4210  -32.7790   25.9990 C   0  0  0  0  0  1  0  0  0  0  0  0
  2  3  2  0
  2  4  1  0
  3  5  1  0
  4  6  2  0
  5  7  2  0
  6  7  1  0
  6  1  1  0
  7  8  1  0
  8 18  1  0
  9 18  1  0
 10 15  1  0
 11 12  1  0
 11 10  1  0
 13 12  1  0
 13 22  1  0
 13 14  1  0
 15  9  1  0
 15 14  1  0
 16  9  2  0
 18 17  1  0
 19 20  2  0
 20 39  1  0
 21 20  1  0
 21 24  1  0
 22 19  1  0
 22 23  1  0
 23 21  2  0
 24 25  1  0
 25 26  2  0
 27 30  1  0
 27 26  1  0
 28 27  2  0
 29 28  1  0
 29 24  2  0
 30 31  1  0
 31 36  2  0
 31 32  1  0
 32 33  2  0
 33 34  1  0
 34 38  1  0
 35 34  2  0
 36 35  1  0
 37 36  1  0
 39 40  1  0
 40 43  1  0
 40 42  1  0
 41 39  2  0
 44 45  1  0
 44 19  1  0
 46 44  1  0
 47  1  1  0
 47 48  2  0
 49 48  1  0
 49 51  1  0
 50 49  2  0
 52 51  1  0
 53 64  2  0
 54 52  1  0
 54 59  1  0
 55 63  1  0
 55 65  1  0
 56 58  1  0
 57 63  1  0
 58 59  2  0
 58 57  1  0
 60 54  2  0
 61 60  1  0
 61 56  2  0
 62 56  1  0
 62 55  1  0
 63 53  1  0
 65 67  2  0
 66 65  1  0
 68 66  1  0
 69 78  2  0
 69 74  1  0
 70 66  1  0
 70 74  1  0
 71 70  1  0
 72 73  1  0
 72 71  1  0
 73 69  1  0
 74 75  2  0
 75 76  1  0
 77 76  2  0
 78 77  1  0
 79 53  1  0
 79 80  1  0
 79 89  1  0
 80 83  1  0
 81 85  1  0
 81 80  1  0
 82 81  2  0
 85 84  1  0
 87 88  1  0
 87 85  1  0
 87 86  1  0
 89 92  1  1
 89 90  1  0
 91 89  1  0
M  ISO  4   9 100  18 100  51 101  52 101
M  END
>  <TORSDO>  (24) 
F 22

>  <SCORE>  (24) 
-11.754

>  <name>  (24) 
23

>  <ligand_id>  (24) 
23

>  <original_smiles>  (24) 
[H]c1c([H])c([H])c(C([H])([H])C([H])([H])C([H])([H])C(=O)C([H])([H])Oc2c([H])c([H])c3c(c2[H])C([H])([H])N(C(=O)C([H])(N([H])C(=O)C([H])(N([H])C([H])([H])[H])C([H])([H])[H])C(C([H])([H])[H])(C([H])([H])[H])C([H])([H])[H])C([H])(C(=O)N([H])C2([H])c4c([H])c([H])c([H])c([H])c4C([H])([H])C([H])([H])C2([H])[H])C3([H])[H])c(C([H])([H])N(C(=O)N2C([H])([H])C([H])([H])C([H])([H])C([H])(n3nc(-c4c([H])c([H])c(Oc5c([H])c([H])c(F)c([H])c5F)c([H])c4[H])c(C(=O)N([H])[H])c3N([H])[H])C2([H])[H])C([H])([H])[H])c1[H]

>  <smiles>  (24) 
[H]c1c([H])c([H])c(C([H])([H])C([H])([H])C([H])([H])C(=O)C([H])([H])Oc2c([H])c([H])c3c(c2[H])C([H])([H])N(C(=O)C([H])(N([H])C(=O)C([H])(N([H])C([H])([H])[H])C([H])([H])[H])C(C([H])([H])[H])(C([H])([H])[H])C([H])([H])[H])C([H])(C(=O)N([H])C2([H])c4c([H])c([H])c([H])c([H])c4C([H])([H])C([H])([H])C2([H])[H])C3([H])[H])c(C([H])([H])N(C(=O)N2C([H])([H])C([H])([H])C([H])([H])C([H])(n3nc(-c4c([H])c([H])c(Oc5c([H])c([H])c(F)c([H])c5F)c([H])c4[H])c(C(=O)N([H])[H])c3N([H])[H])C2([H])[H])C([H])([H])[H])c1[H]

$$$$
24:0:0
     RDKit          3D

 95103  0  0  1  0  0  0  0  0999 V2000
  -30.7710  -20.7290   20.6390 C   0  0  0  0  0  3  0  0  0  0  0  0
  -30.5030  -20.1310   22.9880 C   0  0  0  0  0  3  0  0  0  0  0  0
  -30.3700  -22.0430   20.9320 C   0  0  0  0  0  3  0  0  0  0  0  0
  -30.0950  -21.4490   23.2800 C   0  0  0  0  0  3  0  0  0  0  0  0
  -30.8390  -19.7620   21.6620 C   0  0  0  0  0  0  0  0  0  0  0  0
  -30.0310  -22.4140   22.2540 C   0  0  0  0  0  0  0  0  0  0  0  0
  -31.1760  -18.3440   21.3070 C   0  0  0  0  0  0  0  0  0  0  0  0
  -31.4560  -17.5280   22.3260 N   0  0  0  0  0  0  0  0  0  0  0  0
  -31.1990  -17.9820   20.1290 O   0  0  0  0  0  0  0  0  0  0  0  0
  -31.4720  -17.9390   23.2500 H   0  0  0  0  0  0  0  0  0  0  0  0
  -31.6980  -16.0900   22.2210 C   0  0  0  0  0  2  0  0  0  0  0  0
  -30.4720  -15.3220   21.6680 C   0  0  0  0  0  2  0  0  0  0  0  0
  -30.6230  -14.6940   20.2650 C   0  0  0  0  0  0  0  0  0  0  0  0
  -30.1910  -12.6890   18.8810 C   0  0  0  0  0  2  0  0  0  0  0  0
  -29.1400  -12.8740   17.7770 C   0  0  0  0  0  2  0  0  0  0  0  0
  -27.7210  -12.6560   18.3310 C   0  0  0  0  0  2  0  0  0  0  0  0
  -27.4600  -13.4780   19.6180 C   0  0  0  0  0  3  0  0  0  0  0  0
  -28.5960  -13.2630   20.6420 C   0  0  0  0  0  2  0  0  0  0  0  0
  -29.8740  -13.5980   19.9910 N   0  0  0  0  0  0  0  0  0  0  0  0
  -31.4880  -15.1110   19.4860 O   0  0  0  0  0  0  0  0  0  0  0  0
  -25.1180  -14.0220   20.5460 C   0  0  0  0  0  0  0  0  0  0  0  0
  -24.0890  -13.2160   20.9580 C   0  0  0  0  0  0  0  0  0  0  0  0
  -24.5590  -11.8740   20.8150 C   0  0  0  0  0  0  0  0  0  0  0  0
  -26.1510  -13.1680   20.1880 N   0  0  0  0  0  0  0  0  0  0  0  0
  -25.8200  -11.8680   20.4000 N   0  0  0  0  0  0  0  0  0  0  0  0
  -23.8630  -10.5940   20.9940 C   0  0  0  0  0  0  0  0  0  0  0  0
  -24.3360   -9.6180   21.8980 C   0  0  0  0  0  3  0  0  0  0  0  0
  -23.6410   -8.4010   22.0670 C   0  0  0  0  0  3  0  0  0  0  0  0
  -22.4580   -8.1520   21.3310 C   0  0  0  0  0  0  0  0  0  0  0  0
  -22.0040   -9.1170   20.4140 C   0  0  0  0  0  3  0  0  0  0  0  0
  -22.7010  -10.3270   20.2440 C   0  0  0  0  0  3  0  0  0  0  0  0
  -21.7310   -6.9890   21.4090 O   0  0  0  0  0  0  0  0  0  0  0  0
  -21.6740   -6.2530   22.5660 C   0  0  0  0  0  0  0  0  0  0  0  0
  -21.1870   -6.8010   23.7740 C   0  0  0  0  0  3  0  0  0  0  0  0
  -21.0800   -5.9900   24.9210 C   0  0  0  0  0  3  0  0  0  0  0  0
  -21.4480   -4.6320   24.8620 C   0  0  0  0  0  0  0  0  0  0  0  0
  -21.9270   -4.0840   23.6590 C   0  0  0  0  0  3  0  0  0  0  0  0
  -22.0370   -4.8920   22.5140 C   0  0  0  0  0  0  0  0  0  0  0  0
  -22.4790   -4.3550   21.3520 F   0  0  0  0  0  0  0  0  0  0  0  0
  -21.3370   -3.8510   25.9610 F   0  0  0  0  0  0  0  0  0  0  0  0
  -22.7150  -13.6580   21.3690 C   0  0  0  0  0  0  0  0  0  0  0  0
  -22.0670  -12.9060   22.2520 N   0  0  0  0  0  0  0  0  0  0  0  0
  -22.2240  -14.7020   20.9420 O   0  0  0  0  0  0  0  0  0  0  0  0
  -22.4750  -12.0560   22.6140 H   0  0  0  0  0  0  0  0  0  0  0  0
  -21.1460  -13.1790   22.5640 H   0  0  0  0  0  0  0  0  0  0  0  0
  -25.2580  -15.4010   20.4310 N   0  0  0  0  0  0  0  0  0  0  0  0
  -24.5020  -16.0470   20.6360 H   0  0  0  0  0  0  0  0  0  0  0  0
  -26.0830  -15.8630   20.0660 H   0  0  0  0  0  0  0  0  0  0  0  0
  -29.5460  -23.8030   22.5340 C   0  0  0  0  0  0  0  0  0  0  0  0
  -30.2590  -24.7530   21.9310 N   0  0  0  0  0  0  0  0  0  0  0  0
  -28.5580  -24.0210   23.2380 O   0  0  0  0  0  0  0  0  0  0  0  0
  -31.0970  -24.4350   21.4620 H   0  0  0  0  0  0  0  0  0  0  0  0
  -29.7660  -26.0590   21.5320 C   0  0  0  0  0  2  0  0  0  0  0  0
  -29.5550  -26.0450   20.0070 C   0  0  0  0  0  2  0  0  0  0  0  0
  -29.3050  -27.3540   19.5280 O   0  0  0  0  0  0  0  0  0  0  0  0
  -24.7470  -31.5070   23.0330 C   0  0  0  0  0  0  0  0  0  0  0  0
  -28.0170  -27.8070   19.6210 C   0  0  0  0  0  0  0  0  0  0  0  0
  -23.7550  -30.0610   21.2870 C   0  0  0  0  0  3  0  0  0  0  0  0
  -25.4140  -28.8770   19.7560 C   0  0  0  0  0  0  0  0  0  0  0  0
  -26.1930  -30.8180   21.1370 C   0  0  0  0  0  2  0  0  0  0  0  0
  -26.4780  -29.5380   20.3840 C   0  0  0  0  0  0  0  0  0  0  0  0
  -27.7820  -29.0100   20.3150 C   0  0  0  0  0  3  0  0  0  0  0  0
  -26.9400  -27.1440   18.9930 C   0  0  0  0  0  3  0  0  0  0  0  0
  -25.6370  -27.6750   19.0620 C   0  0  0  0  0  3  0  0  0  0  0  0
  -24.0520  -29.5230   19.8620 C   0  0  0  0  0  2  0  0  0  0  0  0
  -24.9130  -30.8090   21.8750 N   0  0  0  0  0  0  0  0  0  0  0  0
  -23.6420  -31.5720   23.5890 O   0  0  0  0  0  0  0  0  0  0  0  0
  -23.2810  -28.8830   22.1660 C   0  0  0  0  0  0  0  0  0  0  0  0
  -22.0100  -28.4840   21.9940 N   0  0  0  0  0  0  0  0  0  0  0  0
  -24.0530  -28.3310   22.9540 O   0  0  0  0  0  0  0  0  0  0  0  0
  -21.4420  -28.9960   21.3350 H   0  0  0  0  0  0  0  0  0  0  0  0
  -18.9050  -26.6630   22.2790 C   0  0  0  0  0  0  0  0  0  0  0  0
  -21.3570  -27.3710   22.6800 C   0  0  0  0  0  3  0  0  0  0  0  0
  -21.7470  -26.0180   22.0410 C   0  0  0  0  0  2  0  0  0  0  0  0
  -20.7610  -25.5540   20.9640 C   0  0  0  0  0  2  0  0  0  0  0  0
  -19.3540  -25.4070   21.5500 C   0  0  0  0  0  2  0  0  0  0  0  0
  -19.8450  -27.5940   22.7950 C   0  0  0  0  0  0  0  0  0  0  0  0
  -19.3760  -28.7640   23.4290 C   0  0  0  0  0  3  0  0  0  0  0  0
  -17.9960  -29.0120   23.5510 C   0  0  0  0  0  3  0  0  0  0  0  0
  -17.0690  -28.0800   23.0540 C   0  0  0  0  0  3  0  0  0  0  0  0
  -17.5230  -26.9050   22.4280 C   0  0  0  0  0  3  0  0  0  0  0  0
  -25.9320  -32.2760   23.6990 C   0  0  0  0  0  3  0  0  0  0  0  0
  -25.4410  -33.6110   24.0630 N   0  0  0  0  0  0  0  0  0  0  0  0
  -25.6620  -34.7230   23.3510 C   0  0  0  0  0  0  0  0  0  0  0  0
  -26.3720  -34.7440   22.3430 O   0  0  0  0  0  0  0  0  0  0  0  0
  -24.8090  -33.6610   24.8500 H   0  0  0  0  0  0  0  0  0  0  0  0
  -23.7290  -36.2890   22.9910 C   0  0  0  0  0  1  0  0  0  0  0  0
  -24.9860  -36.0200   23.8350 C   0  0  0  0  0  3  0  0  0  0  0  0
  -26.9630  -37.1350   24.7720 C   0  0  0  0  0  1  0  0  0  0  0  0
  -25.8770  -37.2010   23.7970 N   0  0  0  0  0  0  0  0  0  0  0  0
  -25.3490  -38.0540   23.9690 H   0  0  0  0  0  0  0  0  0  0  0  0
  -26.5260  -31.5390   24.9630 C   0  0  1  0  0  0  0  0  0  0  0  0
  -25.4560  -31.1260   26.0010 C   0  0  0  0  0  1  0  0  0  0  0  0
  -27.2890  -30.2600   24.5410 C   0  0  0  0  0  1  0  0  0  0  0  0
  -27.5500  -32.4540   25.6760 C   0  0  0  0  0  1  0  0  0  0  0  0
  1  3  2  0
  1  5  1  0
  2  4  1  0
  3  6  1  0
  5  2  2  0
  6 49  1  0
  6  4  2  0
  7  5  1  0
  7  8  1  0
  8 10  1  0
  9  7  2  0
 11  8  1  0
 12 11  1  0
 13 12  1  0
 14 19  1  0
 15 16  1  0
 15 14  1  0
 17 16  1  0
 17 24  1  0
 17 18  1  0
 19 13  1  0
 19 18  1  0
 20 13  2  0
 21 22  2  0
 22 41  1  0
 23 22  1  0
 23 26  1  0
 24 25  1  0
 24 21  1  0
 25 23  2  0
 26 27  1  0
 27 28  2  0
 29 32  1  0
 29 28  1  0
 30 29  2  0
 31 30  1  0
 31 26  2  0
 32 33  1  0
 33 34  1  0
 34 35  2  0
 36 35  1  0
 36 40  1  0
 37 36  2  0
 38 33  2  0
 38 37  1  0
 39 38  1  0
 41 42  1  0
 42 45  1  0
 42 44  1  0
 43 41  2  0
 46 21  1  0
 46 47  1  0
 48 46  1  0
 49 51  2  0
 50 49  1  0
 52 50  1  0
 53 50  1  0
 54 53  1  0
 55 57  1  0
 55 54  1  0
 56 67  2  0
 57 62  1  0
 58 66  1  0
 58 68  1  0
 59 65  1  0
 59 61  1  0
 60 66  1  0
 61 60  1  0
 62 61  2  0
 63 64  1  0
 63 57  2  0
 64 59  2  0
 65 58  1  0
 66 56  1  0
 68 70  2  0
 69 68  1  0
 71 69  1  0
 72 81  2  0
 72 77  1  0
 73 69  1  0
 73 77  1  0
 74 73  1  0
 75 76  1  0
 75 74  1  0
 76 72  1  0
 77 78  2  0
 78 79  1  0
 80 79  2  0
 81 80  1  0
 82 56  1  0
 82 83  1  0
 82 92  1  0
 83 86  1  0
 84 88  1  0
 84 83  1  0
 85 84  2  0
 88 87  1  0
 90 88  1  0
 90 91  1  0
 90 89  1  0
 92 95  1  1
 92 93  1  0
 94 92  1  0
M  ISO  4  12 100  13 100  54 101  55 101
M  END
>  <TORSDO>  (25) 
F 22

>  <SCORE>  (25) 
-9.541

>  <name>  (25) 
24

>  <ligand_id>  (25) 
24

>  <original_smiles>  (25) 
[H]c1c([H])c([H])c2c(c1[H])C([H])([H])C([H])([H])C([H])([H])C2([H])N([H])C(=O)C1([H])N(C(=O)C([H])(N([H])C(=O)C([H])(N([H])C([H])([H])[H])C([H])([H])[H])C(C([H])([H])[H])(C([H])([H])[H])C([H])([H])[H])C([H])([H])c2c([H])c(OC([H])([H])C([H])([H])N([H])C(=O)c3c([H])c([H])c(C(=O)N([H])C([H])([H])C([H])([H])C(=O)N4C([H])([H])C([H])([H])C([H])([H])C([H])(n5nc(-c6c([H])c([H])c(Oc7c([H])c([H])c(F)c([H])c7F)c([H])c6[H])c(C(=O)N([H])[H])c5N([H])[H])C4([H])[H])c([H])c3[H])c([H])c([H])c2C1([H])[H]

>  <smiles>  (25) 
[H]c1c([H])c([H])c2c(c1[H])C([H])([H])C([H])([H])C([H])([H])C2([H])N([H])C(=O)C1([H])N(C(=O)C([H])(N([H])C(=O)C([H])(N([H])C([H])([H])[H])C([H])([H])[H])C(C([H])([H])[H])(C([H])([H])[H])C([H])([H])[H])C([H])([H])c2c([H])c(OC([H])([H])C([H])([H])N([H])C(=O)c3c([H])c([H])c(C(=O)N([H])C([H])([H])C([H])([H])C(=O)N4C([H])([H])C([H])([H])C([H])([H])C([H])(n5nc(-c6c([H])c([H])c(Oc7c([H])c([H])c(F)c([H])c7F)c([H])c6[H])c(C(=O)N([H])[H])c5N([H])[H])C4([H])[H])c([H])c3[H])c([H])c([H])c2C1([H])[H]

$$$$
25:0:0
     RDKit          3D

 89 96  0  0  1  0  0  0  0  0999 V2000
  -28.8930  -21.2350   20.0940 C   0  0  0  0  0  3  0  0  0  0  0  0
  -28.9960  -22.6620   20.7760 C   0  0  0  0  0  3  0  0  0  0  0  0
  -28.4830  -23.9430   19.9880 C   0  0  0  0  0  3  0  0  0  0  0  0
  -28.3230  -25.2690   20.8410 C   0  0  0  0  0  2  0  0  0  0  0  0
  -28.3740  -26.5730   20.1730 O   0  0  0  0  0  0  0  0  0  0  0  0
  -24.5990  -31.8830   23.2440 C   0  0  0  0  0  0  0  0  0  0  0  0
  -27.2290  -27.3640   20.1960 C   0  0  0  0  0  0  0  0  0  0  0  0
  -23.3960  -30.4740   21.6060 C   0  0  0  0  0  3  0  0  0  0  0  0
  -24.8490  -28.9210   20.1900 C   0  0  0  0  0  0  0  0  0  0  0  0
  -25.9280  -30.8140   21.4150 C   0  0  0  0  0  2  0  0  0  0  0  0
  -26.0120  -29.4350   20.7760 C   0  0  0  0  0  0  0  0  0  0  0  0
  -27.2080  -28.6670   20.7670 C   0  0  0  0  0  3  0  0  0  0  0  0
  -26.0460  -26.8780   19.6040 C   0  0  0  0  0  3  0  0  0  0  0  0
  -24.8630  -27.6450   19.5960 C   0  0  0  0  0  3  0  0  0  0  0  0
  -23.6070  -29.7880   20.2320 C   0  0  0  0  0  2  0  0  0  0  0  0
  -24.6590  -31.0740   22.1450 N   0  0  0  0  0  0  0  0  0  0  0  0
  -23.5160  -32.1580   23.7790 O   0  0  0  0  0  0  0  0  0  0  0  0
  -22.7390  -29.4620   22.5720 C   0  0  0  0  0  0  0  0  0  0  0  0
  -21.4140  -29.2790   22.4450 N   0  0  0  0  0  0  0  0  0  0  0  0
  -23.4200  -28.8390   23.3920 O   0  0  0  0  0  0  0  0  0  0  0  0
  -20.9250  -29.8330   21.7550 H   0  0  0  0  0  0  0  0  0  0  0  0
  -18.0410  -28.0790   22.9450 C   0  0  0  0  0  0  0  0  0  0  0  0
  -20.5970  -28.3430   23.2170 C   0  0  0  0  0  3  0  0  0  0  0  0
  -20.7020  -26.9100   22.6440 C   0  0  0  0  0  2  0  0  0  0  0  0
  -19.6010  -26.5820   21.6320 C   0  0  0  0  0  2  0  0  0  0  0  0
  -18.2180  -26.7280   22.2730 C   0  0  0  0  0  2  0  0  0  0  0  0
  -19.1570  -28.8440   23.3740 C   0  0  0  0  0  0  0  0  0  0  0  0
  -18.9360  -30.1080   23.9610 C   0  0  0  0  0  3  0  0  0  0  0  0
  -17.6300  -30.6080   24.1260 C   0  0  0  0  0  3  0  0  0  0  0  0
  -16.5270  -29.8390   23.7140 C   0  0  0  0  0  3  0  0  0  0  0  0
  -16.7340  -28.5770   23.1300 C   0  0  0  0  0  3  0  0  0  0  0  0
  -25.8820  -32.5170   23.8640 C   0  0  0  0  0  3  0  0  0  0  0  0
  -26.4020  -31.7470   25.1410 C   0  0  1  0  0  0  0  0  0  0  0  0
  -25.3100  -31.5070   26.2080 C   0  0  0  0  0  1  0  0  0  0  0  0
  -26.9860  -30.3700   24.7490 C   0  0  0  0  0  1  0  0  0  0  0  0
  -27.5530  -32.5430   25.8000 C   0  0  0  0  0  1  0  0  0  0  0  0
  -25.5720  -33.9160   24.1940 N   0  0  0  0  0  0  0  0  0  0  0  0
  -25.9020  -34.9680   23.4330 C   0  0  0  0  0  0  0  0  0  0  0  0
  -26.5720  -34.8640   22.4030 O   0  0  0  0  0  0  0  0  0  0  0  0
  -24.9750  -34.0690   24.9930 H   0  0  0  0  0  0  0  0  0  0  0  0
  -24.1720  -36.7590   23.0750 C   0  0  0  0  0  1  0  0  0  0  0  0
  -25.4130  -36.3560   23.8900 C   0  0  0  0  0  3  0  0  0  0  0  0
  -27.5460  -37.2430   24.7220 C   0  0  0  0  0  1  0  0  0  0  0  0
  -26.4450  -37.4100   23.7780 N   0  0  0  0  0  0  0  0  0  0  0  0
  -26.0370  -38.3290   23.9250 H   0  0  0  0  0  0  0  0  0  0  0  0
  -29.7570  -20.0620   20.7220 C   0  0  0  0  0  3  0  0  0  0  0  0
  -29.3320  -18.5700   20.3960 C   0  0  0  0  0  2  0  0  0  0  0  0
  -30.4020  -17.3960   20.5280 C   0  0  0  0  0  3  0  0  0  0  0  0
  -31.3310  -17.4550   19.3800 N   0  0  0  0  0  4  0  0  0  0  0  0
  -30.8400  -17.4610   18.5020 H   0  0  0  0  0  0  0  0  0  0  0  0
  -31.9310  -16.6410   19.4020 H   0  0  0  0  0  0  0  0  0  0  0  0
  -31.9110  -18.2750   19.4260 H   0  0  0  0  0  0  0  0  0  0  0  0
  -29.7780  -15.9370   20.7320 C   0  0  0  0  0  2  0  0  0  0  0  0
  -30.6180  -14.6310   20.4290 C   0  0  0  0  0  0  0  0  0  0  0  0
  -30.4050  -12.3960   19.3690 C   0  0  0  0  0  2  0  0  0  0  0  0
  -29.4690  -12.5370   18.1480 C   0  0  0  0  0  2  0  0  0  0  0  0
  -27.9930  -12.3740   18.5640 C   0  0  0  0  0  2  0  0  0  0  0  0
  -27.6250  -13.2410   19.7950 C   0  0  0  0  0  3  0  0  0  0  0  0
  -28.6770  -13.0990   20.9190 C   0  0  0  0  0  2  0  0  0  0  0  0
  -29.9990  -13.4120   20.3590 N   0  0  0  0  0  0  0  0  0  0  0  0
  -31.7900  -14.7660   20.0620 O   0  0  0  0  0  0  0  0  0  0  0  0
  -25.2270  -13.8460   20.5000 C   0  0  0  0  0  0  0  0  0  0  0  0
  -24.1580  -13.0740   20.8660 C   0  0  0  0  0  0  0  0  0  0  0  0
  -24.6230  -11.7230   20.8470 C   0  0  0  0  0  0  0  0  0  0  0  0
  -26.2740  -12.9650   20.2760 N   0  0  0  0  0  0  0  0  0  0  0  0
  -25.9160  -11.6840   20.5470 N   0  0  0  0  0  0  0  0  0  0  0  0
  -23.8960  -10.4610   21.0380 C   0  0  0  0  0  0  0  0  0  0  0  0
  -24.3270   -9.4960   21.9740 C   0  0  0  0  0  3  0  0  0  0  0  0
  -23.6020   -8.2970   22.1530 C   0  0  0  0  0  3  0  0  0  0  0  0
  -22.4330   -8.0570   21.3920 C   0  0  0  0  0  0  0  0  0  0  0  0
  -22.0220   -9.0100   20.4440 C   0  0  0  0  0  3  0  0  0  0  0  0
  -22.7460  -10.2000   20.2650 C   0  0  0  0  0  3  0  0  0  0  0  0
  -21.6780   -6.9110   21.4800 O   0  0  0  0  0  0  0  0  0  0  0  0
  -21.6310   -6.1680   22.6310 C   0  0  0  0  0  0  0  0  0  0  0  0
  -21.2050   -6.7210   23.8580 C   0  0  0  0  0  3  0  0  0  0  0  0
  -21.1050   -5.9050   25.0030 C   0  0  0  0  0  3  0  0  0  0  0  0
  -21.4210   -4.5350   24.9190 C   0  0  0  0  0  0  0  0  0  0  0  0
  -21.8410   -3.9810   23.6960 C   0  0  0  0  0  3  0  0  0  0  0  0
  -21.9430   -4.7950   22.5560 C   0  0  0  0  0  0  0  0  0  0  0  0
  -22.3270   -4.2530   21.3750 F   0  0  0  0  0  0  0  0  0  0  0  0
  -21.3180   -3.7480   26.0150 F   0  0  0  0  0  0  0  0  0  0  0  0
  -22.7570  -13.5510   21.1210 C   0  0  0  0  0  0  0  0  0  0  0  0
  -22.0210  -12.8570   21.9820 N   0  0  0  0  0  0  0  0  0  0  0  0
  -22.3220  -14.5730   20.5950 O   0  0  0  0  0  0  0  0  0  0  0  0
  -22.3840  -12.0300   22.4320 H   0  0  0  0  0  0  0  0  0  0  0  0
  -21.0800  -13.1590   22.1940 H   0  0  0  0  0  0  0  0  0  0  0  0
  -25.3910  -15.2170   20.3170 N   0  0  0  0  0  0  0  0  0  0  0  0
  -24.6210  -15.8700   20.4180 H   0  0  0  0  0  0  0  0  0  0  0  0
  -26.2400  -15.6580   19.9880 H   0  0  0  0  0  0  0  0  0  0  0  0
  1 46  2  0
  1  2  1  0
  3  2  2  0
  3  4  1  0
  5  7  1  0
  5  4  1  0
  6 17  2  0
  7 12  1  0
  8 16  1  0
  8 18  1  0
  9 15  1  0
  9 11  1  0
 10 16  1  0
 11 10  1  0
 12 11  2  0
 13  7  2  0
 14 13  1  0
 14  9  2  0
 15  8  1  0
 16  6  1  0
 18 20  2  0
 19 18  1  0
 21 19  1  0
 22 31  2  0
 22 27  1  0
 23 19  1  0
 23 27  1  0
 24 23  1  0
 25 26  1  0
 25 24  1  0
 26 22  1  0
 27 28  2  0
 28 29  1  0
 30 29  2  0
 31 30  1  0
 32  6  1  0
 32 37  1  0
 32 33  1  0
 33 36  1  1
 33 34  1  0
 35 33  1  0
 37 40  1  0
 38 42  1  0
 38 37  1  0
 39 38  2  0
 42 41  1  0
 44 42  1  0
 44 45  1  0
 44 43  1  0
 47 46  1  0
 48 47  1  0
 48 53  1  0
 49 51  1  0
 49 52  1  0
 49 48  1  0
 50 49  1  0
 54 53  1  0
 55 60  1  0
 56 57  1  0
 56 55  1  0
 58 57  1  0
 58 65  1  0
 58 59  1  0
 60 54  1  0
 60 59  1  0
 61 54  2  0
 62 63  2  0
 63 82  1  0
 64 63  1  0
 64 67  1  0
 65 62  1  0
 65 66  1  0
 66 64  2  0
 67 68  1  0
 68 69  2  0
 70 73  1  0
 70 69  1  0
 71 70  2  0
 72 71  1  0
 72 67  2  0
 73 74  1  0
 74 75  1  0
 75 76  2  0
 77 76  1  0
 77 81  1  0
 78 77  2  0
 79 74  2  0
 79 78  1  0
 80 79  1  0
 82 83  1  0
 83 86  1  0
 83 85  1  0
 84 82  2  0
 87 88  1  0
 87 62  1  0
 89 87  1  0
M  ISO  4   4 101   5 101  53 100  54 100
M  END
>  <TORSDO>  (26) 
F 24

>  <SCORE>  (26) 
-12.470

>  <name>  (26) 
25

>  <ligand_id>  (26) 
25

>  <original_smiles>  (26) 
[H]c1c([H])c([H])c2c(c1[H])C([H])([H])C([H])([H])C([H])([H])C2([H])N([H])C(=O)C1([H])N(C(=O)C([H])(N([H])C(=O)C([H])(N([H])C([H])([H])[H])C([H])([H])[H])C(C([H])([H])[H])(C([H])([H])[H])C([H])([H])[H])C([H])([H])c2c([H])c(OC([H])([H])C([H])([H])C([H])([H])C([H])([H])C([H])([H])C([H])([H])C([H])(C([H])([H])C(=O)N3C([H])([H])C([H])([H])C([H])([H])C([H])(n4nc(-c5c([H])c([H])c(Oc6c([H])c([H])c(F)c([H])c6F)c([H])c5[H])c(C(=O)N([H])[H])c4N([H])[H])C3([H])[H])[N+]([H])([H])[H])c([H])c([H])c2C1([H])[H]

>  <smiles>  (26) 
[H]c1c([H])c([H])c2c(c1[H])C([H])([H])C([H])([H])C([H])([H])C2([H])N([H])C(=O)C1([H])N(C(=O)C([H])(N([H])C(=O)C([H])(N([H])C([H])([H])[H])C([H])([H])[H])C(C([H])([H])[H])(C([H])([H])[H])C([H])([H])[H])C([H])([H])c2c([H])c(OC([H])([H])C([H])([H])C([H])([H])C([H])([H])C([H])([H])C([H])([H])C([H])(C([H])([H])C(=O)N3C([H])([H])C([H])([H])C([H])([H])C([H])(n4nc(-c5c([H])c([H])c(Oc6c([H])c([H])c(F)c([H])c6F)c([H])c5[H])c(C(=O)N([H])[H])c4N([H])[H])C3([H])[H])[N+]([H])([H])[H])c([H])c([H])c2C1([H])[H]

$$$$
26:0:0
     RDKit          3D

 94 97  0  0  1  0  0  0  0  0999 V2000
  -20.9900  -23.3220   19.4770 C   0  0  0  0  0  3  0  0  0  0  0  0
  -19.9570  -24.9580   18.1520 C   0  0  0  0  0  3  0  0  0  0  0  0
  -20.1220  -23.6760   20.5730 C   0  0  0  0  0  3  0  0  0  0  0  0
  -19.0770  -25.3240   19.2470 C   0  0  0  0  0  3  0  0  0  0  0  0
  -21.0520  -24.0160   18.2250 C   0  0  0  0  0  0  0  0  0  0  0  0
  -19.1460  -24.7220   20.5410 C   0  0  0  0  0  0  0  0  0  0  0  0
  -22.1640  -23.6940   17.0850 C   0  0  0  0  0  2  0  0  0  0  0  0
  -23.4890  -24.2190   16.7390 C   0  0  0  0  0  1  0  0  0  0  0  0
  -25.0310  -26.2310   17.9120 C   0  0  0  0  0 15  0  0  0  0  0  0
  -24.3840  -27.4220   19.5020 O   0  0  0  0  0  1  0  0  0  0  0  0
  -26.3220  -27.2940   24.6080 C   0  0  0  0  0  0  0  0  0  0  0  0
  -23.5960  -28.5730   20.2590 C   0  0  0  0  0  3  0  0  0  0  0  0
  -25.4270  -26.1660   22.6410 C   0  0  0  0  0  3  0  0  0  0  0  0
  -23.0040  -26.7810   21.8270 C   0  0  0  0  0  3  0  0  0  0  0  0
  -23.9820  -27.8080   23.8870 C   0  0  0  0  0  2  0  0  0  0  0  0
  -23.3250  -27.9310   22.5350 C   0  0  0  0  0  3  0  0  0  0  0  0
  -23.5520  -28.9940   21.6610 C   0  0  0  0  0  2  0  0  0  0  0  0
  -22.2670  -28.2150   20.0140 C   0  0  0  0  0  2  0  0  0  0  0  0
  -22.2250  -26.9460   20.6340 C   0  0  0  0  0  2  0  0  0  0  0  0
  -24.0410  -25.6900   22.0110 C   0  0  0  0  0  2  0  0  0  0  0  0
  -25.2520  -27.0680   23.7970 N   0  0  0  0  0  0  0  0  0  0  0  0
  -27.3840  -26.6670   24.4740 O   0  0  0  0  0  0  0  0  0  0  0  0
  -26.4210  -26.9310   21.7360 C   0  0  0  0  0  0  0  0  0  0  0  0
  -27.5170  -26.3400   21.3920 N   0  0  0  0  0  0  0  0  0  0  0  0
  -26.2870  -28.0920   21.3770 O   0  0  0  0  0  0  0  0  0  0  0  0
  -27.7460  -25.4310   21.7720 H   0  0  0  0  0  0  0  0  0  0  0  0
  -31.0480  -26.7150   20.9760 C   0  0  0  0  0  0  0  0  0  0  0  0
  -28.1560  -26.7270   20.1480 C   0  0  0  0  0  2  0  0  0  0  0  0
  -28.1930  -25.3390   18.4430 C   0  0  0  0  0 15  0  0  0  0  0  0
  -30.3660  -24.3790   18.5140 C   0  0  0  0  0 15  0  0  0  0  0  0
  -31.5180  -25.2850   19.9550 C   0  0  0  0  0  1  0  0  0  0  0  0
  -29.6020  -27.2360   21.1030 C   0  0  0  0  0  0  0  0  0  0  0  0
  -29.4090  -28.3650   21.9890 C   0  0  0  0  0  3  0  0  0  0  0  0
  -30.4340  -29.1080   22.6280 C   0  0  0  0  0  3  0  0  0  0  0  0
  -31.7660  -28.7960   22.3340 C   0  0  0  0  0  3  0  0  0  0  0  0
  -32.0480  -27.6510   21.5200 C   0  0  0  0  0  3  0  0  0  0  0  0
  -26.2410  -28.3330   25.7490 C   0  0  0  0  0  3  0  0  0  0  0  0
  -26.5420  -27.5930   26.9760 N   0  0  0  0  0  0  0  0  0  0  0  0
  -25.7840  -27.6320   28.0750 C   0  0  0  0  0  0  0  0  0  0  0  0
  -24.8100  -28.3820   28.1900 O   0  0  0  0  0  0  0  0  0  0  0  0
  -27.2950  -26.9220   26.9320 H   0  0  0  0  0  0  0  0  0  0  0  0
  -24.9660  -25.8420   29.6400 C   0  0  0  0  0  1  0  0  0  0  0  0
  -26.1750  -26.6990   29.2340 C   0  0  0  0  0  3  0  0  0  0  0  0
  -28.0010  -28.0380   30.1790 C   0  0  0  0  0  1  0  0  0  0  0  0
  -26.6960  -27.4230   30.4120 N   0  0  0  0  0  0  0  0  0  0  0  0
  -26.7750  -26.8010   31.2110 H   0  0  0  0  0  0  0  0  0  0  0  0
  -27.2280  -29.5490   25.5690 C   0  0  1  0  0  0  0  0  0  0  0  0
  -28.7170  -29.1950   25.7970 C   0  0  0  0  0  1  0  0  0  0  0  0
  -27.1060  -30.1580   24.1550 C   0  0  0  0  0  1  0  0  0  0  0  0
  -26.8370  -30.6640   26.5640 C   0  0  0  0  0  1  0  0  0  0  0  0
  -18.3350  -25.1080   21.9020 C   0  0  0  0  0  3  0  0  0  0  0  0
  -17.1430  -26.2180   22.1600 C   0  0  0  0  0  3  0  0  0  0  0  0
  -16.6530  -26.4650   23.6290 N   0  0  0  0  0  4  0  0  0  0  0  0
  -17.3630  -27.0160   24.0830 H   0  0  0  0  0  0  0  0  0  0  0  0
  -16.6520  -25.5690   24.0900 H   0  0  0  0  0  0  0  0  0  0  0  0
  -15.2860  -27.1370   23.9680 C   0  0  0  0  0  2  0  0  0  0  0  0
  -14.6110  -26.9810   25.4720 C   0  0  0  0  0  3  0  0  0  0  0  0
  -13.0030  -27.1410   25.7810 C   0  0  0  0  0  3  0  0  0  0  0  0
  -12.2160  -26.7430   27.1600 C   0  0  0  0  0  0  0  0  0  0  0  0
  -11.1480  -25.0260   28.6770 C   0  0  0  0  0  2  0  0  0  0  0  0
  -12.2410  -24.1160   29.2900 C   0  0  0  0  0  2  0  0  0  0  0  0
  -12.6600  -23.0070   28.3030 C   0  0  0  0  0  2  0  0  0  0  0  0
  -12.9110  -23.5610   26.8760 C   0  0  0  0  0  3  0  0  0  0  0  0
  -11.7330  -24.4330   26.4090 C   0  0  0  0  0  2  0  0  0  0  0  0
  -11.6310  -25.5230   27.3640 N   0  0  0  0  0  0  0  0  0  0  0  0
  -12.0870  -27.5940   28.0590 O   0  0  0  0  0  0  0  0  0  0  0  0
  -14.2220  -22.3970   25.0050 C   0  0  0  0  0  0  0  0  0  0  0  0
  -14.0230  -21.2130   24.3560 C   0  0  0  0  0  0  0  0  0  0  0  0
  -12.8520  -20.6380   24.9350 C   0  0  0  0  0  0  0  0  0  0  0  0
  -13.1800  -22.5100   25.9100 N   0  0  0  0  0  0  0  0  0  0  0  0
  -12.3210  -21.4650   25.8260 N   0  0  0  0  0  0  0  0  0  0  0  0
  -12.2430  -19.3200   24.7430 C   0  0  0  0  0  0  0  0  0  0  0  0
  -10.9800  -19.1730   24.1280 C   0  0  0  0  0  3  0  0  0  0  0  0
  -10.4250  -17.8890   23.9370 C   0  0  0  0  0  3  0  0  0  0  0  0
  -11.1350  -16.7400   24.3580 C   0  0  0  0  0  0  0  0  0  0  0  0
  -12.3810  -16.8950   24.9910 C   0  0  0  0  0  3  0  0  0  0  0  0
  -12.9290  -18.1720   25.1870 C   0  0  0  0  0  3  0  0  0  0  0  0
  -10.6640  -15.4550   24.2360 O   0  0  0  0  0  0  0  0  0  0  0  0
   -9.8460  -15.0860   23.1990 C   0  0  0  0  0  0  0  0  0  0  0  0
  -10.3550  -14.8060   21.9120 C   0  0  0  0  0  3  0  0  0  0  0  0
   -9.4870  -14.3610   20.8940 C   0  0  0  0  0  3  0  0  0  0  0  0
   -8.1170  -14.1870   21.1630 C   0  0  0  0  0  0  0  0  0  0  0  0
   -7.6100  -14.4590   22.4450 C   0  0  0  0  0  3  0  0  0  0  0  0
   -8.4730  -14.9040   23.4610 C   0  0  0  0  0  0  0  0  0  0  0  0
   -7.9840  -15.1460   24.7010 F   0  0  0  0  0  0  0  0  0  0  0  0
   -7.2850  -13.7500   20.1870 F   0  0  0  0  0  0  0  0  0  0  0  0
  -14.9370  -20.5960   23.3410 C   0  0  0  0  0  0  0  0  0  0  0  0
  -14.4070  -20.2360   22.1780 N   0  0  0  0  0  0  0  0  0  0  0  0
  -16.1420  -20.4790   23.5580 O   0  0  0  0  0  0  0  0  0  0  0  0
  -13.4220  -20.3540   21.9920 H   0  0  0  0  0  0  0  0  0  0  0  0
  -14.9950  -19.8330   21.4620 H   0  0  0  0  0  0  0  0  0  0  0  0
  -15.2300  -23.3530   24.9210 N   0  0  0  0  0  0  0  0  0  0  0  0
  -16.0840  -23.0230   24.4860 H   0  0  0  0  0  0  0  0  0  0  0  0
  -15.4160  -23.8980   25.7530 H   0  0  0  0  0  0  0  0  0  0  0  0
  1  3  1  0
  2  5  1  0
  2  4  2  0
  4  6  1  0
  5  1  2  0
  6  3  2  0
  6 51  1  0
  7  5  1  0
  8  7  1  0
 12 10  1  0
 12 17  1  0
 13 23  1  0
 13 21  1  0
 14 19  1  0
 14 20  1  0
 14 16  1  0
 16 17  1  0
 16 15  1  0
 18 12  1  0
 18 19  1  0
 20 13  1  0
 21 15  1  0
 21 11  1  0
 22 11  2  0
 24 23  1  0
 24 26  1  0
 25 23  2  0
 27 32  2  0
 27 36  1  0
 28 32  1  0
 28 24  1  0
 31 27  1  0
 32 33  1  0
 33 34  2  0
 35 34  1  0
 36 35  2  0
 37 11  1  0
 37 38  1  0
 38 39  1  0
 39 40  2  0
 39 43  1  0
 41 38  1  0
 43 42  1  0
 43 45  1  0
 44 45  1  0
 45 46  1  0
 47 37  1  0
 47 48  1  1
 47 50  1  0
 49 47  1  0
 51 52  2  0
 52 53  1  0
 53 56  1  0
 53 54  1  0
 53 55  1  0
 56 57  1  0
 57 58  2  0
 58 59  1  0
 59 65  1  0
 59 66  2  0
 60 61  1  0
 62 61  1  0
 63 70  1  0
 63 62  1  0
 64 63  1  0
 64 65  1  0
 65 60  1  0
 67 70  1  0
 68 69  1  0
 68 67  2  0
 69 71  2  0
 71 70  1  0
 72 69  1  0
 72 77  1  0
 73 72  2  0
 74 73  1  0
 74 75  2  0
 75 76  1  0
 76 77  2  0
 78 75  1  0
 79 84  1  0
 79 78  1  0
 80 79  2  0
 81 82  2  0
 81 80  1  0
 82 83  1  0
 83 84  2  0
 84 85  1  0
 86 82  1  0
 87 89  2  0
 87 68  1  0
 88 87  1  0
 90 88  1  0
 91 88  1  0
 92 67  1  0
 92 94  1  0
 93 92  1  0
M  ISO  4   9 101  10 101  58 100  59 100
M  END
>  <TORSDO>  (27) 
F 24

>  <SCORE>  (27) 
-8.063

>  <name>  (27) 
26

>  <ligand_id>  (27) 
26

>  <original_smiles>  (27) 
[H]C(=C([H])C([H])([H])Oc1c([H])c([H])c2c(c1[H])C([H])([H])N(C(=O)C([H])(N([H])C(=O)C([H])(N([H])C([H])([H])[H])C([H])([H])[H])C(C([H])([H])[H])(C([H])([H])[H])C([H])([H])[H])C([H])(C(=O)N([H])C1([H])c3c([H])c([H])c([H])c([H])c3C([H])([H])C([H])([H])C1([H])[H])C2([H])[H])c1c([H])c([H])c(C([H])([H])C([H])([H])[N+]([H])([H])C([H])([H])C([H])([H])C([H])([H])C(=O)N2C([H])([H])C([H])([H])C([H])([H])C([H])(n3nc(-c4c([H])c([H])c(Oc5c([H])c([H])c(F)c([H])c5F)c([H])c4[H])c(C(=O)N([H])[H])c3N([H])[H])C2([H])[H])c([H])c1[H]

>  <smiles>  (27) 
[H]C(=C([H])C([H])([H])Oc1c([H])c([H])c2c(c1[H])C([H])([H])N(C(=O)C([H])(N([H])C(=O)C([H])(N([H])C([H])([H])[H])C([H])([H])[H])C(C([H])([H])[H])(C([H])([H])[H])C([H])([H])[H])C([H])(C(=O)N([H])C1([H])c3c([H])c([H])c([H])c([H])c3C([H])([H])C([H])([H])C1([H])[H])C2([H])[H])c1c([H])c([H])c(C([H])([H])C([H])([H])[N+]([H])([H])C([H])([H])C([H])([H])C([H])([H])C(=O)N2C([H])([H])C([H])([H])C([H])([H])C([H])(n3nc(-c4c([H])c([H])c(Oc5c([H])c([H])c(F)c([H])c5F)c([H])c4[H])c(C(=O)N([H])[H])c3N([H])[H])C2([H])[H])c([H])c1[H]

$$$$
27:0:0
     RDKit          3D

 91 99  0  0  1  0  0  0  0  0999 V2000
  -28.1420  -20.8060   19.8340 C   0  0  0  0  0  3  0  0  0  0  0  0
  -27.6370  -22.1500   19.7040 C   0  0  0  0  0  3  0  0  0  0  0  0
  -30.3270  -21.7060   19.9250 C   0  0  0  0  0  3  0  0  0  0  0  0
  -29.5260  -20.5120   19.9670 C   0  0  0  0  0  0  0  0  0  0  0  0
  -28.4280  -23.3500   19.6820 C   0  0  0  0  0  0  0  0  0  0  0  0
  -29.8320  -23.0670   19.7700 C   0  0  0  0  0  0  0  0  0  0  0  0
  -31.4640  -24.2250   18.2500 C   0  0  0  0  0  1  0  0  0  0  0  0
  -31.9350  -24.1460   20.7390 C   0  0  0  0  0  1  0  0  0  0  0  0
  -30.8450  -24.2040   19.6560 C   0  0  0  0  0  3  0  0  0  0  0  0
  -30.1620  -19.0920   20.3080 C   0  0  0  0  0  0  0  0  0  0  0  0
  -31.0960  -19.0680   21.1130 O   0  0  0  0  0  0  0  0  0  0  0  0
  -29.7840  -17.6490   19.6840 C   0  0  0  0  0  2  0  0  0  0  0  0
  -29.9790  -16.2520   20.5480 C   0  0  0  0  0  2  0  0  0  0  0  0
  -30.6820  -14.8990   19.9900 C   0  0  0  0  0  0  0  0  0  0  0  0
  -30.4740  -12.5930   18.9950 C   0  0  0  0  0  2  0  0  0  0  0  0
  -29.4910  -12.6480   17.8020 C   0  0  0  0  0  2  0  0  0  0  0  0
  -28.0330  -12.4830   18.2760 C   0  0  0  0  0  2  0  0  0  0  0  0
  -27.7060  -13.3730   19.5050 C   0  0  0  0  0  3  0  0  0  0  0  0
  -28.8050  -13.2800   20.5880 C   0  0  0  0  0  2  0  0  0  0  0  0
  -30.0790  -13.6510   19.9600 N   0  0  0  0  0  0  0  0  0  0  0  0
  -31.8190  -15.0000   19.5180 O   0  0  0  0  0  0  0  0  0  0  0  0
  -25.3530  -13.9790   20.3260 C   0  0  0  0  0  0  0  0  0  0  0  0
  -24.2930  -13.2130   20.7300 C   0  0  0  0  0  0  0  0  0  0  0  0
  -24.7400  -11.8580   20.6710 C   0  0  0  0  0  0  0  0  0  0  0  0
  -26.3780  -13.0910   20.0440 N   0  0  0  0  0  0  0  0  0  0  0  0
  -26.0170  -11.8100   20.3130 N   0  0  0  0  0  0  0  0  0  0  0  0
  -24.0060  -10.6030   20.8800 C   0  0  0  0  0  0  0  0  0  0  0  0
  -24.4410   -9.6380   21.8140 C   0  0  0  0  0  3  0  0  0  0  0  0
  -23.7060   -8.4500   22.0110 C   0  0  0  0  0  3  0  0  0  0  0  0
  -22.5210   -8.2170   21.2730 C   0  0  0  0  0  0  0  0  0  0  0  0
  -22.1050   -9.1700   20.3270 C   0  0  0  0  0  3  0  0  0  0  0  0
  -22.8400  -10.3510   20.1280 C   0  0  0  0  0  3  0  0  0  0  0  0
  -21.7570   -7.0800   21.3800 O   0  0  0  0  0  0  0  0  0  0  0  0
  -21.6810   -6.3690   22.5510 C   0  0  0  0  0  0  0  0  0  0  0  0
  -21.2040   -6.9490   23.7460 C   0  0  0  0  0  3  0  0  0  0  0  0
  -21.0790   -6.1620   24.9090 C   0  0  0  0  0  3  0  0  0  0  0  0
  -21.4210   -4.7970   24.8760 C   0  0  0  0  0  0  0  0  0  0  0  0
  -21.8910   -4.2170   23.6850 C   0  0  0  0  0  3  0  0  0  0  0  0
  -22.0180   -5.0010   22.5250 C   0  0  0  0  0  0  0  0  0  0  0  0
  -22.4510   -4.4310   21.3750 F   0  0  0  0  0  0  0  0  0  0  0  0
  -21.2950   -4.0390   25.9910 F   0  0  0  0  0  0  0  0  0  0  0  0
  -22.9130  -13.7050   21.0580 C   0  0  0  0  0  0  0  0  0  0  0  0
  -22.2080  -13.0110   21.9450 N   0  0  0  0  0  0  0  0  0  0  0  0
  -22.4710  -14.7420   20.5630 O   0  0  0  0  0  0  0  0  0  0  0  0
  -22.5770  -12.1690   22.3640 H   0  0  0  0  0  0  0  0  0  0  0  0
  -21.2830  -13.3220   22.2050 H   0  0  0  0  0  0  0  0  0  0  0  0
  -25.5240  -15.3490   20.1540 N   0  0  0  0  0  0  0  0  0  0  0  0
  -24.7640  -16.0040   20.2970 H   0  0  0  0  0  0  0  0  0  0  0  0
  -26.3620  -15.7840   19.7910 H   0  0  0  0  0  0  0  0  0  0  0  0
  -27.6280  -24.7560   19.4810 C   0  0  0  0  0  2  0  0  0  0  0  0
  -28.0170  -26.2150   19.7400 O   0  0  0  0  0  0  0  0  0  0  0  0
  -24.5060  -31.7620   23.0290 C   0  0  0  0  0  0  0  0  0  0  0  0
  -26.9650  -27.1960   19.7280 C   0  0  0  0  0  0  0  0  0  0  0  0
  -23.2400  -30.4140   21.4010 C   0  0  0  0  0  3  0  0  0  0  0  0
  -24.6260  -28.9040   19.8650 C   0  0  0  0  0  0  0  0  0  0  0  0
  -25.7820  -30.7020   21.1350 C   0  0  0  0  0  2  0  0  0  0  0  0
  -25.8280  -29.3360   20.4390 C   0  0  0  0  0  0  0  0  0  0  0  0
  -26.9980  -28.4950   20.3640 C   0  0  0  0  0  3  0  0  0  0  0  0
  -25.7330  -26.8740   19.1030 C   0  0  0  0  0  3  0  0  0  0  0  0
  -24.5870  -27.6840   19.1840 C   0  0  0  0  0  3  0  0  0  0  0  0
  -23.3980  -29.7860   19.9940 C   0  0  0  0  0  2  0  0  0  0  0  0
  -24.5320  -30.9760   21.9110 N   0  0  0  0  0  0  0  0  0  0  0  0
  -23.4440  -32.0260   23.6110 O   0  0  0  0  0  0  0  0  0  0  0  0
  -22.6070  -29.3720   22.3580 C   0  0  0  0  0  0  0  0  0  0  0  0
  -21.2780  -29.1860   22.2660 N   0  0  0  0  0  0  0  0  0  0  0  0
  -23.3110  -28.7360   23.1450 O   0  0  0  0  0  0  0  0  0  0  0  0
  -20.7660  -29.7520   21.6050 H   0  0  0  0  0  0  0  0  0  0  0  0
  -17.9330  -27.9080   22.8110 C   0  0  0  0  0  0  0  0  0  0  0  0
  -20.4890  -28.2250   23.0410 C   0  0  0  0  0  3  0  0  0  0  0  0
  -20.6130  -26.8000   22.4540 C   0  0  0  0  0  2  0  0  0  0  0  0
  -19.5020  -26.4600   21.4560 C   0  0  0  0  0  2  0  0  0  0  0  0
  -18.1280  -26.5700   22.1210 C   0  0  0  0  0  2  0  0  0  0  0  0
  -19.0400  -28.6930   23.2290 C   0  0  0  0  0  0  0  0  0  0  0  0
  -18.8010  -29.9450   23.8380 C   0  0  0  0  0  3  0  0  0  0  0  0
  -17.4870  -30.4120   24.0320 C   0  0  0  0  0  3  0  0  0  0  0  0
  -16.3940  -29.6240   23.6290 C   0  0  0  0  0  3  0  0  0  0  0  0
  -16.6180  -28.3740   23.0240 C   0  0  0  0  0  3  0  0  0  0  0  0
  -25.8100  -32.3830   23.6170 C   0  0  0  0  0  3  0  0  0  0  0  0
  -25.5050  -33.7650   24.0180 N   0  0  0  0  0  0  0  0  0  0  0  0
  -25.8380  -34.8550   23.3140 C   0  0  0  0  0  0  0  0  0  0  0  0
  -26.5040  -34.8020   22.2750 O   0  0  0  0  0  0  0  0  0  0  0  0
  -24.9180  -33.8790   24.8310 H   0  0  0  0  0  0  0  0  0  0  0  0
  -24.1440  -36.6950   23.0340 C   0  0  0  0  0  1  0  0  0  0  0  0
  -25.3620  -36.2220   23.8440 C   0  0  0  0  0  3  0  0  0  0  0  0
  -27.4860  -37.0240   24.7780 C   0  0  0  0  0  1  0  0  0  0  0  0
  -26.4110  -37.2640   23.8190 N   0  0  0  0  0  0  0  0  0  0  0  0
  -26.0150  -38.1790   24.0120 H   0  0  0  0  0  0  0  0  0  0  0  0
  -26.3840  -31.5670   24.8410 C   0  0  1  0  0  0  0  0  0  0  0  0
  -25.3400  -31.2840   25.9460 C   0  0  0  0  0  1  0  0  0  0  0  0
  -26.9540  -30.2070   24.3760 C   0  0  0  0  0  1  0  0  0  0  0  0
  -27.5620  -32.3410   25.4760 C   0  0  0  0  0  1  0  0  0  0  0  0
  1  4  1  0
  2  1  2  0
  3  4  2  0
  4 10  1  0
  5  2  1  0
  5  6  2  0
  6  3  1  0
  7  9  1  0
  9  6  1  0
  9  8  1  0
 10 11  2  0
 12 10  1  0
 12 13  1  0
 14 13  1  0
 15 20  1  0
 16 17  1  0
 16 15  1  0
 18 17  1  0
 18 25  1  0
 18 19  1  0
 20 14  1  0
 20 19  1  0
 21 14  2  0
 22 23  2  0
 23 42  1  0
 24 23  1  0
 24 27  1  0
 25 26  1  0
 25 22  1  0
 26 24  2  0
 27 28  1  0
 28 29  2  0
 30 33  1  0
 30 29  1  0
 31 30  2  0
 32 31  1  0
 32 27  2  0
 33 34  1  0
 34 35  1  0
 35 36  2  0
 37 36  1  0
 37 41  1  0
 38 37  2  0
 39 34  2  0
 39 38  1  0
 40 39  1  0
 42 43  1  0
 43 46  1  0
 43 45  1  0
 44 42  2  0
 47 48  1  0
 47 22  1  0
 49 47  1  0
 50  5  1  0
 50 51  1  0
 52 63  2  0
 53 51  1  0
 53 58  1  0
 54 62  1  0
 54 64  1  0
 55 61  1  0
 55 57  1  0
 56 62  1  0
 57 56  1  0
 58 57  2  0
 59 60  1  0
 59 53  2  0
 60 55  2  0
 61 54  1  0
 62 52  1  0
 64 66  2  0
 65 64  1  0
 67 65  1  0
 68 77  2  0
 68 73  1  0
 69 65  1  0
 69 73  1  0
 70 69  1  0
 71 72  1  0
 71 70  1  0
 72 68  1  0
 73 74  2  0
 74 75  1  0
 76 75  2  0
 77 76  1  0
 78 52  1  0
 78 79  1  0
 78 88  1  0
 79 82  1  0
 80 84  1  0
 80 79  1  0
 81 80  2  0
 84 83  1  0
 86 84  1  0
 86 87  1  0
 86 85  1  0
 88 91  1  1
 88 89  1  0
 90 88  1  0
M  ISO  4  13 100  14 100  50 101  51 101
M  END
>  <TORSDO>  (28) 
F 21

>  <SCORE>  (28) 
-13.002

>  <name>  (28) 
27

>  <ligand_id>  (28) 
27

>  <original_smiles>  (28) 
[H]c1c([H])c([H])c2c(c1[H])C([H])([H])C([H])([H])C([H])([H])C2([H])N([H])C(=O)C1([H])N(C(=O)C([H])(N([H])C(=O)C([H])(N([H])C([H])([H])[H])C([H])([H])[H])C(C([H])([H])[H])(C([H])([H])[H])C([H])([H])[H])C([H])([H])c2c([H])c(OC([H])([H])c3c([H])c([H])c(C(=O)C([H])([H])C([H])([H])C(=O)N4C([H])([H])C([H])([H])C([H])([H])C([H])(n5nc(-c6c([H])c([H])c(Oc7c([H])c([H])c(F)c([H])c7F)c([H])c6[H])c(C(=O)N([H])[H])c5N([H])[H])C4([H])[H])c([H])c3C([H])(C([H])([H])[H])C([H])([H])[H])c([H])c([H])c2C1([H])[H]

>  <smiles>  (28) 
[H]c1c([H])c([H])c2c(c1[H])C([H])([H])C([H])([H])C([H])([H])C2([H])N([H])C(=O)C1([H])N(C(=O)C([H])(N([H])C(=O)C([H])(N([H])C([H])([H])[H])C([H])([H])[H])C(C([H])([H])[H])(C([H])([H])[H])C([H])([H])[H])C([H])([H])c2c([H])c(OC([H])([H])c3c([H])c([H])c(C(=O)C([H])([H])C([H])([H])C(=O)N4C([H])([H])C([H])([H])C([H])([H])C([H])(n5nc(-c6c([H])c([H])c(Oc7c([H])c([H])c(F)c([H])c7F)c([H])c6[H])c(C(=O)N([H])[H])c5N([H])[H])C4([H])[H])c([H])c3C([H])(C([H])([H])[H])C([H])([H])[H])c([H])c([H])c2C1([H])[H]

$$$$
28:0:0
     RDKit          3D

 97105  0  0  1  0  0  0  0  0999 V2000
  -29.2370  -22.0980   19.9240 C   0  0  0  0  0  2  0  0  0  0  0  0
  -31.6130  -23.8940   17.4640 C   0  0  0  0  0  3  0  0  0  0  0  0
  -31.3070  -25.2490   17.6340 C   0  0  0  0  0  3  0  0  0  0  0  0
  -30.9150  -22.9240   18.1990 C   0  0  0  0  0  3  0  0  0  0  0  0
  -30.2870  -25.6210   18.5210 C   0  0  0  0  0  3  0  0  0  0  0  0
  -29.9060  -23.2670   19.1430 C   0  0  0  0  0  0  0  0  0  0  0  0
  -29.5630  -24.6640   19.2770 C   0  0  0  0  0  0  0  0  0  0  0  0
  -28.4160  -25.2190   20.1490 C   0  0  0  0  0  2  0  0  0  0  0  0
  -28.3880  -26.6770   20.2000 O   0  0  0  0  0  0  0  0  0  0  0  0
  -24.5480  -31.8810   23.2410 C   0  0  0  0  0  0  0  0  0  0  0  0
  -27.1970  -27.3920   20.1920 C   0  0  0  0  0  0  0  0  0  0  0  0
  -23.3480  -30.4770   21.5960 C   0  0  0  0  0  3  0  0  0  0  0  0
  -24.8050  -28.9320   20.1790 C   0  0  0  0  0  0  0  0  0  0  0  0
  -25.8780  -30.8260   21.4090 C   0  0  0  0  0  2  0  0  0  0  0  0
  -25.9630  -29.4480   20.7740 C   0  0  0  0  0  0  0  0  0  0  0  0
  -27.1590  -28.6870   20.7720 C   0  0  0  0  0  3  0  0  0  0  0  0
  -26.0200  -26.9050   19.5790 C   0  0  0  0  0  3  0  0  0  0  0  0
  -24.8320  -27.6630   19.5770 C   0  0  0  0  0  3  0  0  0  0  0  0
  -23.5630  -29.7950   20.2180 C   0  0  0  0  0  2  0  0  0  0  0  0
  -24.6090  -31.0770   22.1400 N   0  0  0  0  0  0  0  0  0  0  0  0
  -23.4630  -32.1550   23.7750 O   0  0  0  0  0  0  0  0  0  0  0  0
  -22.6930  -29.4580   22.5570 C   0  0  0  0  0  0  0  0  0  0  0  0
  -21.3680  -29.2800   22.4290 N   0  0  0  0  0  0  0  0  0  0  0  0
  -23.3740  -28.8290   23.3720 O   0  0  0  0  0  0  0  0  0  0  0  0
  -20.8810  -29.8380   21.7430 H   0  0  0  0  0  0  0  0  0  0  0  0
  -17.9860  -28.1120   22.9360 C   0  0  0  0  0  0  0  0  0  0  0  0
  -20.5480  -28.3440   23.1970 C   0  0  0  0  0  3  0  0  0  0  0  0
  -20.6350  -26.9170   22.6080 C   0  0  0  0  0  2  0  0  0  0  0  0
  -19.5230  -26.6120   21.5980 C   0  0  0  0  0  2  0  0  0  0  0  0
  -18.1470  -26.7650   22.2510 C   0  0  0  0  0  2  0  0  0  0  0  0
  -19.1130  -28.8600   23.3660 C   0  0  0  0  0  0  0  0  0  0  0  0
  -18.9100  -30.1220   23.9660 C   0  0  0  0  0  3  0  0  0  0  0  0
  -17.6110  -30.6330   24.1440 C   0  0  0  0  0  3  0  0  0  0  0  0
  -16.4970  -29.8820   23.7310 C   0  0  0  0  0  3  0  0  0  0  0  0
  -16.6860  -28.6230   23.1320 C   0  0  0  0  0  3  0  0  0  0  0  0
  -25.8290  -32.5130   23.8650 C   0  0  0  0  0  3  0  0  0  0  0  0
  -25.5210  -33.9140   24.1850 N   0  0  0  0  0  0  0  0  0  0  0  0
  -25.8720  -34.9620   23.4270 C   0  0  0  0  0  0  0  0  0  0  0  0
  -26.5610  -34.8510   22.4090 O   0  0  0  0  0  0  0  0  0  0  0  0
  -24.9090  -34.0740   24.9710 H   0  0  0  0  0  0  0  0  0  0  0  0
  -24.1700  -36.7680   23.0210 C   0  0  0  0  0  1  0  0  0  0  0  0
  -25.3820  -36.3540   23.8690 C   0  0  0  0  0  3  0  0  0  0  0  0
  -27.4980  -37.2230   24.7650 C   0  0  0  0  0  1  0  0  0  0  0  0
  -26.4270  -37.3980   23.7870 N   0  0  0  0  0  0  0  0  0  0  0  0
  -26.0240  -38.3220   23.9200 H   0  0  0  0  0  0  0  0  0  0  0  0
  -26.3380  -31.7470   25.1490 C   0  0  1  0  0  0  0  0  0  0  0  0
  -25.2380  -31.5160   26.2110 C   0  0  0  0  0  1  0  0  0  0  0  0
  -26.9210  -30.3670   24.7650 C   0  0  0  0  0  1  0  0  0  0  0  0
  -27.4840  -32.5450   25.8140 C   0  0  0  0  0  1  0  0  0  0  0  0
  -30.1280  -20.8900   20.0270 N   0  0  0  0  0  4  0  0  0  0  0  0
  -30.9300  -21.1890   20.5610 H   0  0  0  0  0  0  0  0  0  0  0  0
  -30.4550  -20.7110   19.0930 H   0  0  0  0  0  0  0  0  0  0  0  0
  -28.3720  -19.0710   19.9070 C   0  0  0  0  0  1  0  0  0  0  0  0
  -29.6480  -19.5840   20.6050 C   0  0  0  0  0  3  0  0  0  0  0  0
  -30.8010  -18.5030   20.5340 C   0  0  0  0  0  2  0  0  0  0  0  0
  -30.7790  -17.1430   21.3480 C   0  0  0  0  0  3  0  0  0  0  0  0
  -30.4890  -17.3350   22.7900 N   0  0  0  0  0  4  0  0  0  0  0  0
  -29.5340  -17.5940   22.9630 H   0  0  0  0  0  0  0  0  0  0  0  0
  -31.0860  -18.0420   23.1840 H   0  0  0  0  0  0  0  0  0  0  0  0
  -30.6730  -16.4910   23.3030 H   0  0  0  0  0  0  0  0  0  0  0  0
  -30.0020  -15.9150   20.7310 C   0  0  0  0  0  2  0  0  0  0  0  0
  -30.8190  -14.6090   20.4300 C   0  0  0  0  0  0  0  0  0  0  0  0
  -30.5810  -12.4160   19.3220 C   0  0  0  0  0  2  0  0  0  0  0  0
  -29.6440  -12.6170   18.1100 C   0  0  0  0  0  2  0  0  0  0  0  0
  -28.1650  -12.4690   18.5270 C   0  0  0  0  0  2  0  0  0  0  0  0
  -27.8170  -13.2970   19.7940 C   0  0  0  0  0  3  0  0  0  0  0  0
  -28.8700  -13.0790   20.9030 C   0  0  0  0  0  2  0  0  0  0  0  0
  -30.1910  -13.4000   20.3460 N   0  0  0  0  0  0  0  0  0  0  0  0
  -31.9880  -14.7420   20.0560 O   0  0  0  0  0  0  0  0  0  0  0  0
  -25.4150  -13.8950   20.4890 C   0  0  0  0  0  0  0  0  0  0  0  0
  -24.3480  -13.1210   20.8540 C   0  0  0  0  0  0  0  0  0  0  0  0
  -24.8150  -11.7710   20.8320 C   0  0  0  0  0  0  0  0  0  0  0  0
  -26.4640  -13.0160   20.2680 N   0  0  0  0  0  0  0  0  0  0  0  0
  -26.1070  -11.7340   20.5340 N   0  0  0  0  0  0  0  0  0  0  0  0
  -24.0900  -10.5070   21.0240 C   0  0  0  0  0  0  0  0  0  0  0  0
  -24.5150   -9.5500   21.9720 C   0  0  0  0  0  3  0  0  0  0  0  0
  -23.7930   -8.3510   22.1510 C   0  0  0  0  0  3  0  0  0  0  0  0
  -22.6320   -8.0990   21.3810 C   0  0  0  0  0  0  0  0  0  0  0  0
  -22.2270   -9.0450   20.4230 C   0  0  0  0  0  3  0  0  0  0  0  0
  -22.9490  -10.2360   20.2420 C   0  0  0  0  0  3  0  0  0  0  0  0
  -21.8840   -6.9500   21.4680 O   0  0  0  0  0  0  0  0  0  0  0  0
  -21.8190   -6.2210   22.6270 C   0  0  0  0  0  0  0  0  0  0  0  0
  -21.3540   -6.7830   23.8360 C   0  0  0  0  0  3  0  0  0  0  0  0
  -21.2360   -5.9780   24.9880 C   0  0  0  0  0  3  0  0  0  0  0  0
  -21.5730   -4.6120   24.9300 C   0  0  0  0  0  0  0  0  0  0  0  0
  -22.0310   -4.0500   23.7250 C   0  0  0  0  0  3  0  0  0  0  0  0
  -22.1500   -4.8520   22.5770 C   0  0  0  0  0  0  0  0  0  0  0  0
  -22.5720   -4.3000   21.4130 F   0  0  0  0  0  0  0  0  0  0  0  0
  -21.4520   -3.8360   26.0330 F   0  0  0  0  0  0  0  0  0  0  0  0
  -22.9470  -13.5950   21.1130 C   0  0  0  0  0  0  0  0  0  0  0  0
  -22.2150  -12.8970   21.9750 N   0  0  0  0  0  0  0  0  0  0  0  0
  -22.5100  -14.6170   20.5880 O   0  0  0  0  0  0  0  0  0  0  0  0
  -22.5810  -12.0700   22.4220 H   0  0  0  0  0  0  0  0  0  0  0  0
  -21.2740  -13.1950   22.1900 H   0  0  0  0  0  0  0  0  0  0  0  0
  -25.5760  -15.2660   20.3060 N   0  0  0  0  0  0  0  0  0  0  0  0
  -24.7990  -15.9110   20.3920 H   0  0  0  0  0  0  0  0  0  0  0  0
  -26.4170  -15.7040   19.9520 H   0  0  0  0  0  0  0  0  0  0  0  0
  1 50  1  0
  2  3  2  0
  2  4  1  0
  3  5  1  0
  4  6  2  0
  5  7  2  0
  6  7  1  0
  6  1  1  0
  7  8  1  0
  8  9  1  0
 10 21  2  0
 11  9  1  0
 11 16  1  0
 12 20  1  0
 12 22  1  0
 13 19  1  0
 13 15  1  0
 14 20  1  0
 15 14  1  0
 16 15  2  0
 17 11  2  0
 18 17  1  0
 18 13  2  0
 19 12  1  0
 20 10  1  0
 22 24  2  0
 23 22  1  0
 25 23  1  0
 26 35  2  0
 26 31  1  0
 27 23  1  0
 27 31  1  0
 28 27  1  0
 29 30  1  0
 29 28  1  0
 30 26  1  0
 31 32  2  0
 32 33  1  0
 34 33  2  0
 35 34  1  0
 36 10  1  0
 36 37  1  0
 36 46  1  0
 37 40  1  0
 38 42  1  0
 38 37  1  0
 39 38  2  0
 42 41  1  0
 44 42  1  0
 44 45  1  0
 44 43  1  0
 46 49  1  1
 46 47  1  0
 48 46  1  0
 50 51  1  0
 50 54  1  0
 52 50  1  0
 54 53  1  0
 55 54  1  0
 56 55  1  0
 56 57  1  0
 57 58  1  0
 57 59  1  0
 57 60  1  0
 61 56  1  0
 62 61  1  0
 63 68  1  0
 64 65  1  0
 64 63  1  0
 66 65  1  0
 66 73  1  0
 66 67  1  0
 68 62  1  0
 68 67  1  0
 69 62  2  0
 70 71  2  0
 71 90  1  0
 72 71  1  0
 72 75  1  0
 73 70  1  0
 73 74  1  0
 74 72  2  0
 75 76  1  0
 76 77  2  0
 78 81  1  0
 78 77  1  0
 79 78  2  0
 80 79  1  0
 80 75  2  0
 81 82  1  0
 82 83  1  0
 83 84  2  0
 85 84  1  0
 85 89  1  0
 86 85  2  0
 87 82  2  0
 87 86  1  0
 88 87  1  0
 90 91  1  0
 91 94  1  0
 91 93  1  0
 92 90  2  0
 95 96  1  0
 95 70  1  0
 97 95  1  0
M  ISO  4   8 101   9 101  61 100  62 100
M  END
>  <TORSDO>  (29) 
F 24

>  <SCORE>  (29) 
-12.822

>  <name>  (29) 
28

>  <ligand_id>  (29) 
28

>  <original_smiles>  (29) 
[H]c1c([H])c([H])c(C([H])([H])[N+]([H])([H])C([H])(C([H])([H])[H])C([H])([H])C([H])(C([H])([H])C(=O)N2C([H])([H])C([H])([H])C([H])([H])C([H])(n3nc(-c4c([H])c([H])c(Oc5c([H])c([H])c(F)c([H])c5F)c([H])c4[H])c(C(=O)N([H])[H])c3N([H])[H])C2([H])[H])[N+]([H])([H])[H])c(C([H])([H])Oc2c([H])c([H])c3c(c2[H])C([H])([H])N(C(=O)C([H])(N([H])C(=O)C([H])(N([H])C([H])([H])[H])C([H])([H])[H])C(C([H])([H])[H])(C([H])([H])[H])C([H])([H])[H])C([H])(C(=O)N([H])C2([H])c4c([H])c([H])c([H])c([H])c4C([H])([H])C([H])([H])C2([H])[H])C3([H])[H])c1[H]

>  <smiles>  (29) 
[H]c1c([H])c([H])c(C([H])([H])[N+]([H])([H])C([H])(C([H])([H])[H])C([H])([H])C([H])(C([H])([H])C(=O)N2C([H])([H])C([H])([H])C([H])([H])C([H])(n3nc(-c4c([H])c([H])c(Oc5c([H])c([H])c(F)c([H])c5F)c([H])c4[H])c(C(=O)N([H])[H])c3N([H])[H])C2([H])[H])[N+]([H])([H])[H])c(C([H])([H])Oc2c([H])c([H])c3c(c2[H])C([H])([H])N(C(=O)C([H])(N([H])C(=O)C([H])(N([H])C([H])([H])[H])C([H])([H])[H])C(C([H])([H])[H])(C([H])([H])[H])C([H])([H])[H])C([H])(C(=O)N([H])C2([H])c4c([H])c([H])c([H])c([H])c4C([H])([H])C([H])([H])C2([H])[H])C3([H])[H])c1[H]

$$$$
29:0:0
     RDKit          3D

 94102  0  0  1  0  0  0  0  0999 V2000
  -31.6370  -19.7910   19.6090 C   0  0  0  0  0  3  0  0  0  0  0  0
  -32.0330  -21.1320   19.7670 C   0  0  0  0  0  3  0  0  0  0  0  0
  -30.8690  -19.7520   21.9200 C   0  0  0  0  0  3  0  0  0  0  0  0
  -31.0670  -19.0850   20.6890 C   0  0  0  0  0  0  0  0  0  0  0  0
  -31.8350  -21.7980   20.9940 C   0  0  0  0  0  0  0  0  0  0  0  0
  -31.2400  -21.1050   22.0770 C   0  0  0  0  0  0  0  0  0  0  0  0
  -30.9720  -21.7910   23.4060 C   0  0  0  0  0  1  0  0  0  0  0  0
  -30.6150  -17.6850   20.4820 C   0  0  0  0  0  0  0  0  0  0  0  0
  -30.0480  -17.3160   19.4480 O   0  0  0  0  0  0  0  0  0  0  0  0
  -30.9410  -16.6740   21.5920 C   0  0  0  0  0  2  0  0  0  0  0  0
  -30.1320  -15.3610   21.5070 C   0  0  0  0  0  2  0  0  0  0  0  0
  -30.6800  -14.3410   20.4940 C   0  0  0  0  0  0  0  0  0  0  0  0
  -30.3160  -12.2750   19.1860 C   0  0  0  0  0  2  0  0  0  0  0  0
  -29.3580  -12.5440   18.0100 C   0  0  0  0  0  2  0  0  0  0  0  0
  -27.8880  -12.4110   18.4560 C   0  0  0  0  0  2  0  0  0  0  0  0
  -27.5850  -13.2100   19.7510 C   0  0  0  0  0  3  0  0  0  0  0  0
  -28.6450  -12.9120   20.8340 C   0  0  0  0  0  2  0  0  0  0  0  0
  -29.9720  -13.2060   20.2670 N   0  0  0  0  0  0  0  0  0  0  0  0
  -31.7310  -14.5950   19.8960 O   0  0  0  0  0  0  0  0  0  0  0  0
  -25.1910  -13.8390   20.4650 C   0  0  0  0  0  0  0  0  0  0  0  0
  -24.1190  -13.0760   20.8420 C   0  0  0  0  0  0  0  0  0  0  0  0
  -24.5700  -11.7210   20.8120 C   0  0  0  0  0  0  0  0  0  0  0  0
  -26.2300  -12.9510   20.2340 N   0  0  0  0  0  0  0  0  0  0  0  0
  -25.8590  -11.6710   20.4960 N   0  0  0  0  0  0  0  0  0  0  0  0
  -23.8380  -10.4640   21.0110 C   0  0  0  0  0  0  0  0  0  0  0  0
  -24.2730   -9.4950   21.9410 C   0  0  0  0  0  3  0  0  0  0  0  0
  -23.5430   -8.3020   22.1270 C   0  0  0  0  0  3  0  0  0  0  0  0
  -22.3620   -8.0690   21.3820 C   0  0  0  0  0  0  0  0  0  0  0  0
  -21.9450   -9.0270   20.4400 C   0  0  0  0  0  3  0  0  0  0  0  0
  -22.6770  -10.2110   20.2530 C   0  0  0  0  0  3  0  0  0  0  0  0
  -21.6020   -6.9270   21.4770 O   0  0  0  0  0  0  0  0  0  0  0  0
  -21.5630   -6.1830   22.6280 C   0  0  0  0  0  0  0  0  0  0  0  0
  -21.1560   -6.7370   23.8610 C   0  0  0  0  0  3  0  0  0  0  0  0
  -21.0650   -5.9190   25.0040 C   0  0  0  0  0  3  0  0  0  0  0  0
  -21.3700   -4.5480   24.9170 C   0  0  0  0  0  0  0  0  0  0  0  0
  -21.7700   -3.9930   23.6880 C   0  0  0  0  0  3  0  0  0  0  0  0
  -21.8630   -4.8090   22.5460 C   0  0  0  0  0  0  0  0  0  0  0  0
  -22.2290   -4.2640   21.3610 F   0  0  0  0  0  0  0  0  0  0  0  0
  -21.2750   -3.7590   26.0130 F   0  0  0  0  0  0  0  0  0  0  0  0
  -22.7260  -13.5620   21.1240 C   0  0  0  0  0  0  0  0  0  0  0  0
  -21.9990  -12.8710   21.9960 N   0  0  0  0  0  0  0  0  0  0  0  0
  -22.2900  -14.5890   20.6050 O   0  0  0  0  0  0  0  0  0  0  0  0
  -22.3640  -12.0390   22.4360 H   0  0  0  0  0  0  0  0  0  0  0  0
  -21.0660  -13.1780   22.2260 H   0  0  0  0  0  0  0  0  0  0  0  0
  -25.3660  -15.2090   20.2820 N   0  0  0  0  0  0  0  0  0  0  0  0
  -24.6090  -15.8740   20.3950 H   0  0  0  0  0  0  0  0  0  0  0  0
  -26.2230  -15.6360   19.9540 H   0  0  0  0  0  0  0  0  0  0  0  0
  -32.2300  -23.2650   21.0910 C   0  0  0  0  0  2  0  0  0  0  0  0
  -31.1370  -24.1700   20.5060 C   0  0  0  0  0  2  0  0  0  0  0  0
  -31.5220  -25.6590   20.5020 C   0  0  0  0  0  2  0  0  0  0  0  0
  -30.5280  -26.4730   19.6790 C   0  0  0  0  0  0  0  0  0  0  0  0
  -30.6130  -26.5090   18.4480 O   0  0  0  0  0  0  0  0  0  0  0  0
  -29.4180  -27.2180   20.4190 C   0  0  0  0  0  2  0  0  0  0  0  0
  -28.1680  -26.6940   19.9810 O   0  0  0  0  0  0  0  0  0  0  0  0
  -24.4740  -31.9170   23.2060 C   0  0  0  0  0  0  0  0  0  0  0  0
  -27.0390  -27.4730   20.0930 C   0  0  0  0  0  0  0  0  0  0  0  0
  -23.2210  -30.5170   21.5930 C   0  0  0  0  0  3  0  0  0  0  0  0
  -24.6350  -28.9580   20.1540 C   0  0  0  0  0  0  0  0  0  0  0  0
  -25.7390  -30.8630   21.3420 C   0  0  0  0  0  2  0  0  0  0  0  0
  -25.8030  -29.4870   20.7190 C   0  0  0  0  0  0  0  0  0  0  0  0
  -27.0030  -28.7500   20.7000 C   0  0  0  0  0  3  0  0  0  0  0  0
  -25.8530  -26.9460   19.5420 C   0  0  0  0  0  3  0  0  0  0  0  0
  -24.6510  -27.6790   19.5700 C   0  0  0  0  0  3  0  0  0  0  0  0
  -23.3970  -29.8230   20.2150 C   0  0  0  0  0  2  0  0  0  0  0  0
  -24.4970  -31.1130   22.1060 N   0  0  0  0  0  0  0  0  0  0  0  0
  -23.4080  -32.2020   23.7670 O   0  0  0  0  0  0  0  0  0  0  0  0
  -22.5800  -29.5090   22.5720 C   0  0  0  0  0  0  0  0  0  0  0  0
  -21.2530  -29.3350   22.4640 N   0  0  0  0  0  0  0  0  0  0  0  0
  -23.2720  -28.8840   23.3800 O   0  0  0  0  0  0  0  0  0  0  0  0
  -20.7580  -29.8910   21.7800 H   0  0  0  0  0  0  0  0  0  0  0  0
  -17.8770  -28.1750   23.0120 C   0  0  0  0  0  0  0  0  0  0  0  0
  -20.4390  -28.4110   23.2530 C   0  0  0  0  0  3  0  0  0  0  0  0
  -20.5230  -26.9750   22.6850 C   0  0  0  0  0  2  0  0  0  0  0  0
  -19.4070  -26.6540   21.6870 C   0  0  0  0  0  2  0  0  0  0  0  0
  -18.0340  -26.8180   22.3470 C   0  0  0  0  0  2  0  0  0  0  0  0
  -19.0080  -28.9300   23.4230 C   0  0  0  0  0  0  0  0  0  0  0  0
  -18.8090  -30.2010   24.0030 C   0  0  0  0  0  3  0  0  0  0  0  0
  -17.5110  -30.7170   24.1800 C   0  0  0  0  0  3  0  0  0  0  0  0
  -16.3950  -29.9580   23.7870 C   0  0  0  0  0  3  0  0  0  0  0  0
  -16.5790  -28.6890   23.2080 C   0  0  0  0  0  3  0  0  0  0  0  0
  -25.7820  -32.5330   23.7980 C   0  0  0  0  0  3  0  0  0  0  0  0
  -25.4960  -33.9350   24.1310 N   0  0  0  0  0  0  0  0  0  0  0  0
  -25.8410  -34.9820   23.3690 C   0  0  0  0  0  0  0  0  0  0  0  0
  -26.5050  -34.8680   22.3340 O   0  0  0  0  0  0  0  0  0  0  0  0
  -24.9100  -34.0980   24.9360 H   0  0  0  0  0  0  0  0  0  0  0  0
  -24.1500  -36.8060   23.0070 C   0  0  0  0  0  1  0  0  0  0  0  0
  -25.3770  -36.3770   23.8280 C   0  0  0  0  0  3  0  0  0  0  0  0
  -27.5200  -37.2180   24.6800 C   0  0  0  0  0  1  0  0  0  0  0  0
  -26.4290  -37.4100   23.7280 N   0  0  0  0  0  0  0  0  0  0  0  0
  -26.0400  -38.3370   23.8760 H   0  0  0  0  0  0  0  0  0  0  0  0
  -26.3220  -31.7550   25.0600 C   0  0  1  0  0  0  0  0  0  0  0  0
  -25.2520  -31.5260   26.1530 C   0  0  0  0  0  1  0  0  0  0  0  0
  -26.8840  -30.3740   24.6490 C   0  0  0  0  0  1  0  0  0  0  0  0
  -27.4950  -32.5390   25.6970 C   0  0  0  0  0  1  0  0  0  0  0  0
  1  2  2  0
  1  4  1  0
  2  5  1  0
  3  6  1  0
  4  3  2  0
  5 48  1  0
  5  6  2  0
  6  7  1  0
  8  4  1  0
  8 10  1  0
  9  8  2  0
 11 10  1  0
 12 11  1  0
 13 18  1  0
 14 15  1  0
 14 13  1  0
 16 15  1  0
 16 23  1  0
 16 17  1  0
 18 12  1  0
 18 17  1  0
 19 12  2  0
 20 21  2  0
 21 40  1  0
 22 21  1  0
 22 25  1  0
 23 20  1  0
 23 24  1  0
 24 22  2  0
 25 26  1  0
 26 27  2  0
 28 31  1  0
 28 27  1  0
 29 28  2  0
 30 29  1  0
 30 25  2  0
 31 32  1  0
 32 33  1  0
 33 34  2  0
 35 34  1  0
 35 39  1  0
 36 35  2  0
 37 32  2  0
 37 36  1  0
 38 37  1  0
 40 41  1  0
 41 44  1  0
 41 43  1  0
 42 40  2  0
 45 46  1  0
 45 20  1  0
 47 45  1  0
 49 48  1  0
 50 49  1  0
 51 53  1  0
 51 50  1  0
 52 51  2  0
 54 56  1  0
 54 53  1  0
 55 66  2  0
 56 61  1  0
 57 65  1  0
 57 67  1  0
 58 64  1  0
 58 60  1  0
 59 65  1  0
 60 59  1  0
 61 60  2  0
 62 63  1  0
 62 56  2  0
 63 58  2  0
 64 57  1  0
 65 55  1  0
 67 69  2  0
 68 67  1  0
 70 68  1  0
 71 80  2  0
 71 76  1  0
 72 68  1  0
 72 76  1  0
 73 72  1  0
 74 75  1  0
 74 73  1  0
 75 71  1  0
 76 77  2  0
 77 78  1  0
 79 78  2  0
 80 79  1  0
 81 55  1  0
 81 82  1  0
 81 91  1  0
 82 85  1  0
 83 87  1  0
 83 82  1  0
 84 83  2  0
 87 86  1  0
 89 87  1  0
 89 90  1  0
 89 88  1  0
 91 94  1  1
 91 92  1  0
 93 91  1  0
M  ISO  4  11 100  12 100  53 101  54 101
M  END
>  <TORSDO>  (30) 
F 24

>  <SCORE>  (30) 
-12.189

>  <name>  (30) 
29

>  <ligand_id>  (30) 
29

>  <original_smiles>  (30) 
[H]c1c([H])c([H])c2c(c1[H])C([H])([H])C([H])([H])C([H])([H])C2([H])N([H])C(=O)C1([H])N(C(=O)C([H])(N([H])C(=O)C([H])(N([H])C([H])([H])[H])C([H])([H])[H])C(C([H])([H])[H])(C([H])([H])[H])C([H])([H])[H])C([H])([H])c2c([H])c(OC([H])([H])C(=O)C([H])([H])C([H])([H])C([H])([H])c3c([H])c([H])c(C(=O)C([H])([H])C([H])([H])C(=O)N4C([H])([H])C([H])([H])C([H])([H])C([H])(n5nc(-c6c([H])c([H])c(Oc7c([H])c([H])c(F)c([H])c7F)c([H])c6[H])c(C(=O)N([H])[H])c5N([H])[H])C4([H])[H])c([H])c3C([H])([H])[H])c([H])c([H])c2C1([H])[H]

>  <smiles>  (30) 
[H]c1c([H])c([H])c2c(c1[H])C([H])([H])C([H])([H])C([H])([H])C2([H])N([H])C(=O)C1([H])N(C(=O)C([H])(N([H])C(=O)C([H])(N([H])C([H])([H])[H])C([H])([H])[H])C(C([H])([H])[H])(C([H])([H])[H])C([H])([H])[H])C([H])([H])c2c([H])c(OC([H])([H])C(=O)C([H])([H])C([H])([H])C([H])([H])c3c([H])c([H])c(C(=O)C([H])([H])C([H])([H])C(=O)N4C([H])([H])C([H])([H])C([H])([H])C([H])(n5nc(-c6c([H])c([H])c(Oc7c([H])c([H])c(F)c([H])c7F)c([H])c6[H])c(C(=O)N([H])[H])c5N([H])[H])C4([H])[H])c([H])c3C([H])([H])[H])c([H])c([H])c2C1([H])[H]

$$$$
30:0:0
     RDKit          3D

 96104  0  0  1  0  0  0  0  0999 V2000
  -28.5220  -19.3320   20.4730 C   0  0  0  0  0  2  0  0  0  0  0  0
  -25.5660  -16.1320   20.2710 C   0  0  0  0  0  3  0  0  0  0  0  0
  -26.8670  -15.8380   20.7220 C   0  0  0  0  0  3  0  0  0  0  0  0
  -25.3380  -17.3350   19.5850 C   0  0  0  0  0  3  0  0  0  0  0  0
  -27.9190  -16.7920   20.6340 C   0  0  0  0  0  0  0  0  0  0  0  0
  -26.3820  -18.2770   19.4650 C   0  0  0  0  0  0  0  0  0  0  0  0
  -27.6080  -18.1140   20.1880 C   0  0  0  0  0  0  0  0  0  0  0  0
  -26.2110  -19.3640   18.4170 C   0  0  0  0  0  1  0  0  0  0  0  0
  -29.4430  -14.9560   20.2410 C   0  0  0  0  0  3  0  0  0  0  0  0
  -29.3090  -16.2350   20.6750 C   0  0  0  0  0  0  0  0  0  0  0  0
  -30.5510  -13.9700   20.1580 C   0  0  0  0  0  0  0  0  0  0  0  0
  -30.7020  -11.5000   19.8260 C   0  0  0  0  0  2  0  0  0  0  0  0
  -29.8240  -11.0800   18.6220 C   0  0  0  0  0  2  0  0  0  0  0  0
  -28.3340  -10.9240   18.9860 C   0  0  0  0  0  2  0  0  0  0  0  0
  -27.8190  -12.1380   19.7900 C   0  0  0  0  0  3  0  0  0  0  0  0
  -28.7790  -12.3620   20.9870 C   0  0  0  0  0  2  0  0  0  0  0  0
  -30.1000  -12.7010   20.4290 N   0  0  0  0  0  0  0  0  0  0  0  0
  -31.6910  -14.1760   19.7270 O   0  0  0  0  0  0  0  0  0  0  0  0
  -25.4210  -12.9290   20.3060 C   0  0  0  0  0  0  0  0  0  0  0  0
  -24.3050  -12.2470   20.7110 C   0  0  0  0  0  0  0  0  0  0  0  0
  -24.7170  -10.8850   20.8390 C   0  0  0  0  0  0  0  0  0  0  0  0
  -26.4340  -11.9870   20.2220 N   0  0  0  0  0  0  0  0  0  0  0  0
  -26.0120  -10.7530   20.5970 N   0  0  0  0  0  0  0  0  0  0  0  0
  -23.9380   -9.6710   21.1170 C   0  0  0  0  0  0  0  0  0  0  0  0
  -24.3820   -8.7100   22.0530 C   0  0  0  0  0  3  0  0  0  0  0  0
  -23.6100   -7.5570   22.3120 C   0  0  0  0  0  3  0  0  0  0  0  0
  -22.3820   -7.3620   21.6360 C   0  0  0  0  0  0  0  0  0  0  0  0
  -21.9630   -8.3050   20.6850 C   0  0  0  0  0  3  0  0  0  0  0  0
  -22.7350   -9.4490   20.4240 C   0  0  0  0  0  3  0  0  0  0  0  0
  -21.5850   -6.2610   21.8050 O   0  0  0  0  0  0  0  0  0  0  0  0
  -21.6190   -5.5190   22.9580 C   0  0  0  0  0  0  0  0  0  0  0  0
  -21.3790   -6.0990   24.2240 C   0  0  0  0  0  3  0  0  0  0  0  0
  -21.3510   -5.2850   25.3760 C   0  0  0  0  0  3  0  0  0  0  0  0
  -21.5590   -3.8960   25.2620 C   0  0  0  0  0  0  0  0  0  0  0  0
  -21.7970   -3.3190   24.0020 C   0  0  0  0  0  3  0  0  0  0  0  0
  -21.8220   -4.1280   22.8550 C   0  0  0  0  0  0  0  0  0  0  0  0
  -22.0260   -3.5680   21.6380 F   0  0  0  0  0  0  0  0  0  0  0  0
  -21.5280   -3.1150   26.3650 F   0  0  0  0  0  0  0  0  0  0  0  0
  -22.9130  -12.7890   20.8580 C   0  0  0  0  0  0  0  0  0  0  0  0
  -22.1240  -12.2110   21.7610 N   0  0  0  0  0  0  0  0  0  0  0  0
  -22.5270  -13.7640   20.2160 O   0  0  0  0  0  0  0  0  0  0  0  0
  -22.4600  -11.4410   22.3180 H   0  0  0  0  0  0  0  0  0  0  0  0
  -21.1920  -12.5690   21.9110 H   0  0  0  0  0  0  0  0  0  0  0  0
  -25.6340  -14.2570   19.9540 N   0  0  0  0  0  0  0  0  0  0  0  0
  -24.9040  -14.9510   20.0450 H   0  0  0  0  0  0  0  0  0  0  0  0
  -26.5320  -14.6710   19.7420 H   0  0  0  0  0  0  0  0  0  0  0  0
  -30.2790  -17.0100   21.1780 O   0  0  0  0  0  0  0  0  0  0  0  0
  -29.8620  -17.8130   21.4590 H   0  0  0  0  0  0  0  0  0  0  0  0
  -27.7280  -20.6490   20.7550 C   0  0  0  0  0  2  0  0  0  0  0  0
  -28.4520  -21.9040   21.2780 C   0  0  0  0  0  0  0  0  0  0  0  0
  -27.9420  -23.0650   20.8330 N   0  0  0  0  0  0  0  0  0  0  0  0
  -29.3630  -21.8470   22.1030 O   0  0  0  0  0  0  0  0  0  0  0  0
  -27.1950  -22.9770   20.1590 H   0  0  0  0  0  0  0  0  0  0  0  0
  -28.1910  -24.4300   21.3190 C   0  0  0  0  0  2  0  0  0  0  0  0
  -29.0800  -25.2440   20.3450 C   0  0  0  0  0  2  0  0  0  0  0  0
  -29.0540  -26.6630   20.6010 O   0  0  0  0  0  0  0  0  0  0  0  0
  -24.8550  -31.7090   23.3070 C   0  0  0  0  0  0  0  0  0  0  0  0
  -27.8540  -27.3350   20.4690 C   0  0  0  0  0  0  0  0  0  0  0  0
  -23.8060  -30.2290   21.6310 C   0  0  0  0  0  3  0  0  0  0  0  0
  -25.4060  -28.7440   20.3070 C   0  0  0  0  0  0  0  0  0  0  0  0
  -26.3170  -30.6920   21.5820 C   0  0  0  0  0  2  0  0  0  0  0  0
  -26.5010  -29.3240   20.9590 C   0  0  0  0  0  0  0  0  0  0  0  0
  -27.7310  -28.6280   21.0290 C   0  0  0  0  0  3  0  0  0  0  0  0
  -26.7380  -26.7790   19.8020 C   0  0  0  0  0  3  0  0  0  0  0  0
  -25.5230  -27.4750   19.7130 C   0  0  0  0  0  3  0  0  0  0  0  0
  -24.1200  -29.5380   20.2770 C   0  0  0  0  0  2  0  0  0  0  0  0
  -25.0050  -30.8840   22.2340 N   0  0  0  0  0  0  0  0  0  0  0  0
  -23.7370  -31.9540   23.7790 O   0  0  0  0  0  0  0  0  0  0  0  0
  -23.1370  -29.1950   22.5550 C   0  0  0  0  0  0  0  0  0  0  0  0
  -21.8300  -28.9860   22.3550 N   0  0  0  0  0  0  0  0  0  0  0  0
  -23.7850  -28.5800   23.4040 O   0  0  0  0  0  0  0  0  0  0  0  0
  -21.3710  -29.5530   21.6510 H   0  0  0  0  0  0  0  0  0  0  0  0
  -18.4290  -27.8080   22.7370 C   0  0  0  0  0  0  0  0  0  0  0  0
  -20.9840  -28.0220   23.0560 C   0  0  0  0  0  3  0  0  0  0  0  0
  -21.0930  -26.6050   22.4350 C   0  0  0  0  0  2  0  0  0  0  0  0
  -20.0010  -26.3330   21.4040 C   0  0  0  0  0  2  0  0  0  0  0  0
  -18.6040  -26.4700   22.0300 C   0  0  0  0  0  2  0  0  0  0  0  0
  -19.5460  -28.5440   23.1930 C   0  0  0  0  0  0  0  0  0  0  0  0
  -19.3470  -29.7970   23.7980 C   0  0  0  0  0  3  0  0  0  0  0  0
  -18.0560  -30.3330   23.9450 C   0  0  0  0  0  3  0  0  0  0  0  0
  -16.9430  -29.6060   23.4860 C   0  0  0  0  0  3  0  0  0  0  0  0
  -17.1310  -28.3350   22.8860 C   0  0  0  0  0  3  0  0  0  0  0  0
  -26.0790  -32.3840   24.0030 C   0  0  0  0  0  3  0  0  0  0  0  0
  -25.7160  -33.7760   24.2810 N   0  0  0  0  0  0  0  0  0  0  0  0
  -26.0710  -34.8220   23.5160 C   0  0  0  0  0  0  0  0  0  0  0  0
  -26.8070  -34.7140   22.5290 O   0  0  0  0  0  0  0  0  0  0  0  0
  -25.0670  -33.9390   25.0400 H   0  0  0  0  0  0  0  0  0  0  0  0
  -24.3120  -36.5500   22.9980 C   0  0  0  0  0  1  0  0  0  0  0  0
  -25.5100  -36.2040   23.8980 C   0  0  0  0  0  3  0  0  0  0  0  0
  -27.5630  -37.1690   24.8410 C   0  0  0  0  0  1  0  0  0  0  0  0
  -26.5200  -37.2840   23.8260 N   0  0  0  0  0  0  0  0  0  0  0  0
  -26.0790  -38.1930   23.9270 H   0  0  0  0  0  0  0  0  0  0  0  0
  -26.5290  -31.6520   25.3230 C   0  0  1  0  0  0  0  0  0  0  0  0
  -25.3680  -31.3570   26.2990 C   0  0  0  0  0  1  0  0  0  0  0  0
  -27.2030  -30.2990   25.0000 C   0  0  0  0  0  1  0  0  0  0  0  0
  -27.5760  -32.5090   26.0710 C   0  0  0  0  0  1  0  0  0  0  0  0
  1 49  1  0
  2  3  1  0
  4  2  2  0
  5 10  1  0
  5  3  2  0
  6  4  1  0
  6  7  2  0
  7  1  1  0
  7  5  1  0
  8  6  1  0
  9 10  2  0
 10 47  1  0
 11  9  1  0
 11 17  1  0
 12 17  1  0
 13 14  1  0
 13 12  1  0
 15 14  1  0
 15 22  1  0
 15 16  1  0
 17 16  1  0
 18 11  2  0
 19 20  2  0
 20 21  1  0
 20 39  1  0
 21 24  1  0
 22 19  1  0
 22 23  1  0
 23 21  2  0
 24 25  1  0
 25 26  2  0
 27 30  1  0
 27 26  1  0
 28 27  2  0
 29 28  1  0
 29 24  2  0
 30 31  1  0
 31 32  1  0
 32 33  2  0
 34 33  1  0
 34 38  1  0
 35 34  2  0
 36 31  2  0
 36 35  1  0
 37 36  1  0
 39 40  1  0
 40 43  1  0
 40 42  1  0
 41 39  2  0
 44 45  1  0
 44 19  1  0
 46 44  1  0
 47 48  1  0
 49 50  1  0
 50 52  2  0
 51 50  1  0
 51 54  1  0
 53 51  1  0
 55 56  1  0
 55 54  1  0
 57 68  2  0
 58 56  1  0
 58 63  1  0
 59 67  1  0
 59 69  1  0
 60 62  1  0
 61 67  1  0
 62 63  2  0
 62 61  1  0
 64 58  2  0
 65 64  1  0
 65 60  2  0
 66 60  1  0
 66 59  1  0
 67 57  1  0
 69 71  2  0
 70 69  1  0
 72 70  1  0
 73 82  2  0
 73 78  1  0
 74 70  1  0
 74 78  1  0
 75 74  1  0
 76 77  1  0
 76 75  1  0
 77 73  1  0
 78 79  2  0
 79 80  1  0
 81 80  2  0
 82 81  1  0
 83 57  1  0
 83 84  1  0
 83 93  1  0
 84 87  1  0
 85 89  1  0
 85 84  1  0
 86 85  2  0
 89 88  1  0
 91 89  1  0
 91 92  1  0
 91 90  1  0
 93 96  1  1
 93 94  1  0
 95 93  1  0
M  ISO  4   9 100  11 100  55 101  56 101
M  END
>  <TORSDO>  (31) 
F 23

>  <SCORE>  (31) 
-10.357

>  <name>  (31) 
30

>  <ligand_id>  (31) 
30

>  <original_smiles>  (31) 
[H]OC(=C([H])C(=O)N1C([H])([H])C([H])([H])C([H])([H])C([H])(n2nc(-c3c([H])c([H])c(Oc4c([H])c([H])c(F)c([H])c4F)c([H])c3[H])c(C(=O)N([H])[H])c2N([H])[H])C1([H])[H])c1c([H])c([H])c([H])c(C([H])([H])[H])c1C([H])([H])C([H])([H])C(=O)N([H])C([H])([H])C([H])([H])Oc1c([H])c([H])c2c(c1[H])C([H])([H])N(C(=O)C([H])(N([H])C(=O)C([H])(N([H])C([H])([H])[H])C([H])([H])[H])C(C([H])([H])[H])(C([H])([H])[H])C([H])([H])[H])C([H])(C(=O)N([H])C1([H])c3c([H])c([H])c([H])c([H])c3C([H])([H])C([H])([H])C1([H])[H])C2([H])[H]

>  <smiles>  (31) 
[H]OC(=C([H])C(=O)N1C([H])([H])C([H])([H])C([H])([H])C([H])(n2nc(-c3c([H])c([H])c(Oc4c([H])c([H])c(F)c([H])c4F)c([H])c3[H])c(C(=O)N([H])[H])c2N([H])[H])C1([H])[H])c1c([H])c([H])c([H])c(C([H])([H])[H])c1C([H])([H])C([H])([H])C(=O)N([H])C([H])([H])C([H])([H])Oc1c([H])c([H])c2c(c1[H])C([H])([H])N(C(=O)C([H])(N([H])C(=O)C([H])(N([H])C([H])([H])[H])C([H])([H])[H])C(C([H])([H])[H])(C([H])([H])[H])C([H])([H])[H])C([H])(C(=O)N([H])C1([H])c3c([H])c([H])c([H])c([H])c3C([H])([H])C([H])([H])C1([H])[H])C2([H])[H]

$$$$
31:0:0
     RDKit          3D

 95103  0  0  1  0  0  0  0  0999 V2000
  -26.4370  -22.3790   21.3250 C   0  0  0  0  0  3  0  0  0  0  0  0
  -26.8840  -23.5240   22.0000 C   0  0  0  0  0  3  0  0  0  0  0  0
  -27.2650  -21.7760   20.3660 C   0  0  0  0  0  3  0  0  0  0  0  0
  -28.0020  -24.2390   21.5240 C   0  0  0  0  0  0  0  0  0  0  0  0
  -28.5030  -22.3520   19.9950 C   0  0  0  0  0  0  0  0  0  0  0  0
  -28.6040  -23.8340   20.3000 C   0  0  0  0  0  0  0  0  0  0  0  0
  -28.4710  -25.4570   22.2730 C   0  0  0  0  0  0  0  0  0  0  0  0
  -27.5270  -26.2220   22.8100 N   0  0  0  0  0  0  0  0  0  0  0  0
  -29.6650  -25.7430   22.3470 O   0  0  0  0  0  0  0  0  0  0  0  0
  -26.5570  -25.9680   22.7070 H   0  0  0  0  0  0  0  0  0  0  0  0
  -27.7670  -27.0780   23.2860 H   0  0  0  0  0  0  0  0  0  0  0  0
  -29.6910  -21.1890   20.0130 C   0  0  0  0  0  2  0  0  0  0  0  0
  -28.5100  -19.3470   18.5790 C   0  0  0  0  0  1  0  0  0  0  0  0
  -29.6150  -19.6650   19.5100 N   0  0  2  0  0  4  0  0  0  0  0  0
  -30.3550  -19.7490   18.8290 H   0  0  0  0  0  0  0  0  0  0  0  0
  -30.1880  -18.3980   20.3060 C   0  0  0  0  0  2  0  0  0  0  0  0
  -29.8250  -16.7680   19.9550 C   0  0  0  0  0  2  0  0  0  0  0  0
  -30.7640  -15.3850   20.0630 C   0  0  0  0  0  0  0  0  0  0  0  0
  -30.7390  -12.9910   19.2400 C   0  0  0  0  0  2  0  0  0  0  0  0
  -29.7840  -12.8720   18.0260 C   0  0  0  0  0  2  0  0  0  0  0  0
  -28.3200  -12.6780   18.4670 C   0  0  0  0  0  2  0  0  0  0  0  0
  -27.9130  -13.6330   19.6200 C   0  0  0  0  0  3  0  0  0  0  0  0
  -28.9770  -13.6760   20.7320 C   0  0  0  0  0  2  0  0  0  0  0  0
  -30.2420  -14.0900   20.1120 N   0  0  0  0  0  0  0  0  0  0  0  0
  -31.9760  -15.4720   19.8390 O   0  0  0  0  0  0  0  0  0  0  0  0
  -25.5590  -14.2180   20.4440 C   0  0  0  0  0  0  0  0  0  0  0  0
  -24.4910  -13.4490   20.8150 C   0  0  0  0  0  0  0  0  0  0  0  0
  -24.9320  -12.0930   20.7160 C   0  0  0  0  0  0  0  0  0  0  0  0
  -26.5810  -13.3350   20.1400 N   0  0  0  0  0  0  0  0  0  0  0  0
  -26.2150  -12.0470   20.3680 N   0  0  0  0  0  0  0  0  0  0  0  0
  -24.1830  -10.8360   20.8690 C   0  0  0  0  0  0  0  0  0  0  0  0
  -24.5720   -9.8580   21.8100 C   0  0  0  0  0  3  0  0  0  0  0  0
  -23.8290   -8.6660   21.9510 C   0  0  0  0  0  3  0  0  0  0  0  0
  -22.6820   -8.4490   21.1560 C   0  0  0  0  0  0  0  0  0  0  0  0
  -22.3110   -9.4130   20.2040 C   0  0  0  0  0  3  0  0  0  0  0  0
  -23.0530  -10.5960   20.0600 C   0  0  0  0  0  3  0  0  0  0  0  0
  -21.9150   -7.3090   21.2090 O   0  0  0  0  0  0  0  0  0  0  0  0
  -21.7570   -6.6020   22.3730 C   0  0  0  0  0  0  0  0  0  0  0  0
  -21.1950   -7.1830   23.5310 C   0  0  0  0  0  3  0  0  0  0  0  0
  -20.9870   -6.3990   24.6820 C   0  0  0  0  0  3  0  0  0  0  0  0
  -21.3300   -5.0330   24.6760 C   0  0  0  0  0  0  0  0  0  0  0  0
  -21.8840   -4.4510   23.5210 C   0  0  0  0  0  3  0  0  0  0  0  0
  -22.0920   -5.2340   22.3720 C   0  0  0  0  0  0  0  0  0  0  0  0
  -22.6030   -4.6600   21.2540 F   0  0  0  0  0  0  0  0  0  0  0  0
  -21.1230   -4.2760   25.7770 F   0  0  0  0  0  0  0  0  0  0  0  0
  -23.1080  -13.9370   21.1370 C   0  0  0  0  0  0  0  0  0  0  0  0
  -22.3830  -13.2270   21.9970 N   0  0  0  0  0  0  0  0  0  0  0  0
  -22.6730  -14.9840   20.6610 O   0  0  0  0  0  0  0  0  0  0  0  0
  -22.7390  -12.3810   22.4180 H   0  0  0  0  0  0  0  0  0  0  0  0
  -21.4500  -13.5330   22.2320 H   0  0  0  0  0  0  0  0  0  0  0  0
  -25.7430  -15.5890   20.3080 N   0  0  0  0  0  0  0  0  0  0  0  0
  -25.0040  -16.2540   20.5110 H   0  0  0  0  0  0  0  0  0  0  0  0
  -26.5820  -16.0310   19.9580 H   0  0  0  0  0  0  0  0  0  0  0  0
  -28.5250  -25.0930   19.2450 C   0  0  0  0  0  2  0  0  0  0  0  0
  -28.4390  -26.5990   19.6390 O   0  0  0  0  0  0  0  0  0  0  0  0
  -24.5640  -31.8360   23.0710 C   0  0  0  0  0  0  0  0  0  0  0  0
  -27.2840  -27.4590   19.6630 C   0  0  0  0  0  0  0  0  0  0  0  0
  -23.3830  -30.4790   21.3870 C   0  0  0  0  0  3  0  0  0  0  0  0
  -24.8590  -29.0630   19.8290 C   0  0  0  0  0  0  0  0  0  0  0  0
  -25.9140  -30.8780   21.1670 C   0  0  0  0  0  2  0  0  0  0  0  0
  -26.0320  -29.5370   20.4240 C   0  0  0  0  0  0  0  0  0  0  0  0
  -27.2390  -28.7500   20.3280 C   0  0  0  0  0  3  0  0  0  0  0  0
  -26.0710  -27.0700   19.0530 C   0  0  0  0  0  3  0  0  0  0  0  0
  -24.8870  -27.8400   19.1370 C   0  0  0  0  0  3  0  0  0  0  0  0
  -23.5950  -29.8960   19.9650 C   0  0  0  0  0  2  0  0  0  0  0  0
  -24.6400  -31.0850   21.9300 N   0  0  0  0  0  0  0  0  0  0  0  0
  -23.4820  -32.0390   23.6430 O   0  0  0  0  0  0  0  0  0  0  0  0
  -22.7840  -29.3850   22.3030 C   0  0  0  0  0  0  0  0  0  0  0  0
  -21.4670  -29.1410   22.1920 N   0  0  0  0  0  0  0  0  0  0  0  0
  -23.5090  -28.7550   23.0790 O   0  0  0  0  0  0  0  0  0  0  0  0
  -20.9360  -29.7020   21.5390 H   0  0  0  0  0  0  0  0  0  0  0  0
  -18.1750  -27.7090   22.6600 C   0  0  0  0  0  0  0  0  0  0  0  0
  -20.7140  -28.1200   22.9240 C   0  0  0  0  0  3  0  0  0  0  0  0
  -20.9030  -26.7280   22.2780 C   0  0  0  0  0  2  0  0  0  0  0  0
  -19.8120  -26.3820   21.2590 C   0  0  0  0  0  2  0  0  0  0  0  0
  -18.4310  -26.4070   21.9190 C   0  0  0  0  0  2  0  0  0  0  0  0
  -19.2470  -28.5210   23.1160 C   0  0  0  0  0  0  0  0  0  0  0  0
  -18.9530  -29.7380   23.7700 C   0  0  0  0  0  3  0  0  0  0  0  0
  -17.6210  -30.1430   23.9750 C   0  0  0  0  0  3  0  0  0  0  0  0
  -16.5640  -29.3270   23.5370 C   0  0  0  0  0  3  0  0  0  0  0  0
  -16.8410  -28.1130   22.8840 C   0  0  0  0  0  3  0  0  0  0  0  0
  -25.8270  -32.4980   23.6980 C   0  0  0  0  0  3  0  0  0  0  0  0
  -25.4830  -33.8830   24.0600 N   0  0  0  0  0  0  0  0  0  0  0  0
  -25.8020  -34.9630   23.3340 C   0  0  0  0  0  0  0  0  0  0  0  0
  -26.4870  -34.9020   22.3110 O   0  0  0  0  0  0  0  0  0  0  0  0
  -24.8820  -34.0040   24.8620 H   0  0  0  0  0  0  0  0  0  0  0  0
  -24.0500  -36.7370   23.0000 C   0  0  0  0  0  1  0  0  0  0  0  0
  -25.2810  -36.3280   23.8240 C   0  0  0  0  0  3  0  0  0  0  0  0
  -27.3760  -37.2310   24.7350 C   0  0  0  0  0  1  0  0  0  0  0  0
  -26.2960  -37.4020   23.7660 N   0  0  0  0  0  0  0  0  0  0  0  0
  -25.8680  -38.3110   23.9280 H   0  0  0  0  0  0  0  0  0  0  0  0
  -26.3740  -31.7250   24.9640 C   0  0  1  0  0  0  0  0  0  0  0  0
  -25.2970  -31.4490   26.0380 C   0  0  0  0  0  1  0  0  0  0  0  0
  -26.9900  -30.3670   24.5570 C   0  0  0  0  0  1  0  0  0  0  0  0
  -27.5060  -32.5410   25.6320 C   0  0  0  0  0  1  0  0  0  0  0  0
  1  2  1  0
  3  1  2  0
  4  2  2  0
  4  7  1  0
  5 12  1  0
  5  6  2  3
  5  3  1  0
  6  4  1  0
  7  9  2  0
  7  8  1  0
  8 11  1  0
 10  8  1  0
 13 14  1  0
 14 12  1  0
 14 16  1  0
 14 15  1  6
 17 18  1  0
 17 16  1  0
 18 24  1  0
 19 24  1  0
 20 21  1  0
 20 19  1  0
 22 21  1  0
 22 29  1  0
 22 23  1  0
 24 23  1  0
 25 18  2  0
 26 27  2  0
 27 46  1  0
 28 27  1  0
 28 31  1  0
 29 30  1  0
 29 26  1  0
 30 28  2  0
 31 32  1  0
 32 33  2  0
 34 37  1  0
 34 33  1  0
 35 34  2  0
 36 35  1  0
 36 31  2  0
 37 38  1  0
 38 39  1  0
 39 40  2  0
 41 40  1  0
 41 45  1  0
 42 41  2  0
 43 38  2  0
 43 42  1  0
 44 43  1  0
 46 47  1  0
 47 50  1  0
 47 49  1  0
 48 46  2  0
 51 26  1  0
 51 52  1  0
 53 51  1  0
 54 55  1  0
 54  6  1  0
 55 57  1  0
 56 67  2  0
 57 62  1  0
 58 66  1  0
 58 68  1  0
 59 65  1  0
 59 61  1  0
 60 66  1  0
 61 60  1  0
 62 61  2  0
 63 64  1  0
 63 57  2  0
 64 59  2  0
 65 58  1  0
 66 56  1  0
 68 70  2  0
 69 68  1  0
 71 69  1  0
 72 81  2  0
 72 77  1  0
 73 69  1  0
 73 77  1  0
 74 73  1  0
 75 76  1  0
 75 74  1  0
 76 72  1  0
 77 78  2  0
 78 79  1  0
 80 79  2  0
 81 80  1  0
 82 56  1  0
 82 83  1  0
 82 92  1  0
 83 86  1  0
 84 88  1  0
 84 83  1  0
 85 84  2  0
 88 87  1  0
 90 88  1  0
 90 91  1  0
 90 89  1  0
 92 95  1  1
 92 93  1  0
 94 92  1  0
M  ISO  4  17 100  18 100  54 101  55 101
M  END
>  <TORSDO>  (32) 
F 22

>  <SCORE>  (32) 
-12.487

>  <name>  (32) 
31

>  <ligand_id>  (32) 
31

>  <original_smiles>  (32) 
[H]c1c([H])c([H])c2c(c1[H])C([H])([H])C([H])([H])C([H])([H])C2([H])N([H])C(=O)C1([H])N(C(=O)C([H])(N([H])C(=O)C([H])(N([H])C([H])([H])[H])C([H])([H])[H])C(C([H])([H])[H])(C([H])([H])[H])C([H])([H])[H])C([H])([H])c2c([H])c(OC([H])([H])c3c(C(=O)N([H])[H])c([H])c([H])c([H])c3C([H])([H])[N+]([H])(C([H])([H])[H])C([H])([H])C([H])([H])C(=O)N3C([H])([H])C([H])([H])C([H])([H])C([H])(n4nc(-c5c([H])c([H])c(Oc6c([H])c([H])c(F)c([H])c6F)c([H])c5[H])c(C(=O)N([H])[H])c4N([H])[H])C3([H])[H])c([H])c([H])c2C1([H])[H]

>  <smiles>  (32) 
[H]c1c([H])c([H])c2c(c1[H])C([H])([H])C([H])([H])C([H])([H])C2([H])N([H])C(=O)C1([H])N(C(=O)C([H])(N([H])C(=O)C([H])(N([H])C([H])([H])[H])C([H])([H])[H])C(C([H])([H])[H])(C([H])([H])[H])C([H])([H])[H])C([H])([H])c2c([H])c(OC([H])([H])c3c(C(=O)N([H])[H])c([H])c([H])c([H])c3C([H])([H])[N+]([H])(C([H])([H])[H])C([H])([H])C([H])([H])C(=O)N3C([H])([H])C([H])([H])C([H])([H])C([H])(n4nc(-c5c([H])c([H])c(Oc6c([H])c([H])c(F)c([H])c6F)c([H])c5[H])c(C(=O)N([H])[H])c4N([H])[H])C3([H])[H])c([H])c([H])c2C1([H])[H]

$$$$
32:0:0
     RDKit          3D

 90 98  0  0  1  0  0  0  0  0999 V2000
  -28.8380  -21.1630   18.7730 C   0  0  0  0  0  3  0  0  0  0  0  0
  -28.8630  -22.5750   18.9770 C   0  0  0  0  0  3  0  0  0  0  0  0
  -29.9100  -20.5120   19.3310 C   0  0  0  0  0  0  0  0  0  0  0  0
  -29.9530  -22.9950   19.6960 C   0  0  0  0  0  0  0  0  0  0  0  0
  -30.9370  -21.6370   20.1880 S   0  0  0  0  0  0  0  0  0  0  0  0
  -30.2800  -19.0640   19.1540 C   0  0  0  0  0  2  0  0  0  0  0  0
  -30.1000  -18.1580   20.3810 C   0  0  0  0  0  0  0  0  0  0  0  0
  -30.3070  -18.5530   21.5340 O   0  0  0  0  0  0  0  0  0  0  0  0
  -29.6550  -16.7230   20.0820 C   0  0  0  0  0  2  0  0  0  0  0  0
  -30.0590  -15.6410   21.1190 C   0  0  0  0  0  2  0  0  0  0  0  0
  -30.7130  -14.4320   20.4210 C   0  0  0  0  0  0  0  0  0  0  0  0
  -30.3920  -12.3200   19.1880 C   0  0  0  0  0  2  0  0  0  0  0  0
  -29.4410  -12.5890   18.0030 C   0  0  0  0  0  2  0  0  0  0  0  0
  -27.9650  -12.4650   18.4340 C   0  0  0  0  0  2  0  0  0  0  0  0
  -27.6570  -13.2550   19.7340 C   0  0  0  0  0  3  0  0  0  0  0  0
  -28.7130  -12.9410   20.8170 C   0  0  0  0  0  2  0  0  0  0  0  0
  -30.0380  -13.2600   20.2630 N   0  0  0  0  0  0  0  0  0  0  0  0
  -31.8200  -14.6230   19.9090 O   0  0  0  0  0  0  0  0  0  0  0  0
  -25.2590  -13.8890   20.4270 C   0  0  0  0  0  0  0  0  0  0  0  0
  -24.1850  -13.1290   20.8000 C   0  0  0  0  0  0  0  0  0  0  0  0
  -24.6360  -11.7730   20.7840 C   0  0  0  0  0  0  0  0  0  0  0  0
  -26.2990  -12.9990   20.2080 N   0  0  0  0  0  0  0  0  0  0  0  0
  -25.9250  -11.7210   20.4760 N   0  0  0  0  0  0  0  0  0  0  0  0
  -23.9010  -10.5190   20.9870 C   0  0  0  0  0  0  0  0  0  0  0  0
  -24.3310   -9.5550   21.9260 C   0  0  0  0  0  3  0  0  0  0  0  0
  -23.5970   -8.3640   22.1180 C   0  0  0  0  0  3  0  0  0  0  0  0
  -22.4200   -8.1300   21.3690 C   0  0  0  0  0  0  0  0  0  0  0  0
  -22.0090   -9.0820   20.4190 C   0  0  0  0  0  3  0  0  0  0  0  0
  -22.7440  -10.2640   20.2270 C   0  0  0  0  0  3  0  0  0  0  0  0
  -21.6560   -6.9910   21.4690 O   0  0  0  0  0  0  0  0  0  0  0  0
  -21.6110   -6.2540   22.6240 C   0  0  0  0  0  0  0  0  0  0  0  0
  -21.2060   -6.8200   23.8530 C   0  0  0  0  0  3  0  0  0  0  0  0
  -21.1090   -6.0110   25.0020 C   0  0  0  0  0  3  0  0  0  0  0  0
  -21.4030   -4.6370   24.9230 C   0  0  0  0  0  0  0  0  0  0  0  0
  -21.8020   -4.0700   23.6980 C   0  0  0  0  0  3  0  0  0  0  0  0
  -21.9030   -4.8770   22.5520 C   0  0  0  0  0  0  0  0  0  0  0  0
  -22.2670   -4.3220   21.3710 F   0  0  0  0  0  0  0  0  0  0  0  0
  -21.3000   -3.8560   26.0240 F   0  0  0  0  0  0  0  0  0  0  0  0
  -22.7900  -13.6180   21.0660 C   0  0  0  0  0  0  0  0  0  0  0  0
  -22.0610  -12.9360   21.9410 N   0  0  0  0  0  0  0  0  0  0  0  0
  -22.3580  -14.6400   20.5360 O   0  0  0  0  0  0  0  0  0  0  0  0
  -22.4270  -12.1070   22.3860 H   0  0  0  0  0  0  0  0  0  0  0  0
  -21.1250  -13.2440   22.1640 H   0  0  0  0  0  0  0  0  0  0  0  0
  -25.4350  -15.2570   20.2370 N   0  0  0  0  0  0  0  0  0  0  0  0
  -24.6750  -15.9200   20.3360 H   0  0  0  0  0  0  0  0  0  0  0  0
  -26.2920  -15.6850   19.9120 H   0  0  0  0  0  0  0  0  0  0  0  0
  -30.3460  -24.4030   20.0320 C   0  0  0  0  0  2  0  0  0  0  0  0
  -29.6780  -24.9700   21.2940 C   0  0  0  0  0  2  0  0  0  0  0  0
  -28.2910  -25.5770   21.0420 C   0  0  0  0  0  2  0  0  0  0  0  0
  -28.3970  -26.7250   20.2000 O   0  0  0  0  0  0  0  0  0  0  0  0
  -24.5870  -31.8700   23.2340 C   0  0  0  0  0  0  0  0  0  0  0  0
  -27.2400  -27.4570   20.1650 C   0  0  0  0  0  0  0  0  0  0  0  0
  -23.3810  -30.4640   21.5910 C   0  0  0  0  0  3  0  0  0  0  0  0
  -24.8400  -28.9310   20.1670 C   0  0  0  0  0  0  0  0  0  0  0  0
  -25.9040  -30.8410   21.3860 C   0  0  0  0  0  2  0  0  0  0  0  0
  -25.9960  -29.4720   20.7480 C   0  0  0  0  0  0  0  0  0  0  0  0
  -27.2030  -28.7450   20.7370 C   0  0  0  0  0  3  0  0  0  0  0  0
  -26.0740  -26.9180   19.5810 C   0  0  0  0  0  3  0  0  0  0  0  0
  -24.8740  -27.6540   19.5790 C   0  0  0  0  0  3  0  0  0  0  0  0
  -23.5920  -29.7830   20.2120 C   0  0  0  0  0  2  0  0  0  0  0  0
  -24.6420  -31.0720   22.1300 N   0  0  0  0  0  0  0  0  0  0  0  0
  -23.5060  -32.1400   23.7740 O   0  0  0  0  0  0  0  0  0  0  0  0
  -22.7340  -29.4440   22.5530 C   0  0  0  0  0  0  0  0  0  0  0  0
  -21.4090  -29.2650   22.4290 N   0  0  0  0  0  0  0  0  0  0  0  0
  -23.4200  -28.8160   23.3640 O   0  0  0  0  0  0  0  0  0  0  0  0
  -20.9180  -29.8240   21.7460 H   0  0  0  0  0  0  0  0  0  0  0  0
  -18.0330  -28.0860   22.9330 C   0  0  0  0  0  0  0  0  0  0  0  0
  -20.5920  -28.3300   23.2000 C   0  0  0  0  0  3  0  0  0  0  0  0
  -20.6860  -26.8990   22.6220 C   0  0  0  0  0  2  0  0  0  0  0  0
  -19.5800  -26.5840   21.6090 C   0  0  0  0  0  2  0  0  0  0  0  0
  -18.1990  -26.7360   22.2550 C   0  0  0  0  0  2  0  0  0  0  0  0
  -19.1560  -28.8410   23.3620 C   0  0  0  0  0  0  0  0  0  0  0  0
  -18.9450  -30.1050   23.9520 C   0  0  0  0  0  3  0  0  0  0  0  0
  -17.6430  -30.6160   24.1200 C   0  0  0  0  0  3  0  0  0  0  0  0
  -16.5340  -29.8560   23.7090 C   0  0  0  0  0  3  0  0  0  0  0  0
  -16.7300  -28.5930   23.1210 C   0  0  0  0  0  3  0  0  0  0  0  0
  -25.8740  -32.5010   23.8520 C   0  0  0  0  0  3  0  0  0  0  0  0
  -25.5660  -33.8990   24.1810 N   0  0  0  0  0  0  0  0  0  0  0  0
  -25.9060  -34.9500   23.4230 C   0  0  0  0  0  0  0  0  0  0  0  0
  -26.5800  -34.8440   22.3950 O   0  0  0  0  0  0  0  0  0  0  0  0
  -24.9640  -34.0550   24.9770 H   0  0  0  0  0  0  0  0  0  0  0  0
  -24.1810  -36.7410   23.0580 C   0  0  0  0  0  1  0  0  0  0  0  0
  -25.4180  -36.3380   23.8770 C   0  0  0  0  0  3  0  0  0  0  0  0
  -27.5520  -37.2150   24.7160 C   0  0  0  0  0  1  0  0  0  0  0  0
  -26.4510  -37.3900   23.7720 N   0  0  0  0  0  0  0  0  0  0  0  0
  -26.0460  -38.3090   23.9270 H   0  0  0  0  0  0  0  0  0  0  0  0
  -26.3970  -31.7280   25.1250 C   0  0  1  0  0  0  0  0  0  0  0  0
  -25.3070  -31.4880   26.1960 C   0  0  0  0  0  1  0  0  0  0  0  0
  -26.9780  -30.3520   24.7250 C   0  0  0  0  0  1  0  0  0  0  0  0
  -27.5500  -32.5210   25.7830 C   0  0  0  0  0  1  0  0  0  0  0  0
  1  2  1  0
  1  3  2  0
  2  4  2  0
  3  5  1  0
  4 47  1  0
  4  5  1  0
  6  3  1  0
  6  7  1  0
  7  8  2  0
  9  7  1  0
  9 10  1  0
 11 10  1  0
 12 17  1  0
 13 14  1  0
 13 12  1  0
 15 14  1  0
 15 22  1  0
 15 16  1  0
 17 11  1  0
 17 16  1  0
 18 11  2  0
 19 20  2  0
 20 39  1  0
 21 20  1  0
 21 24  1  0
 22 19  1  0
 22 23  1  0
 23 21  2  0
 24 25  1  0
 25 26  2  0
 27 30  1  0
 27 26  1  0
 28 27  2  0
 29 28  1  0
 29 24  2  0
 30 31  1  0
 31 32  1  0
 32 33  2  0
 34 33  1  0
 34 38  1  0
 35 34  2  0
 36 31  2  0
 36 35  1  0
 37 36  1  0
 39 40  1  0
 40 43  1  0
 40 42  1  0
 41 39  2  0
 44 45  1  0
 44 19  1  0
 46 44  1  0
 47 48  1  0
 49 48  1  0
 50 49  1  0
 51 62  2  0
 52 50  1  0
 52 57  1  0
 53 61  1  0
 53 63  1  0
 54 60  1  0
 54 56  1  0
 55 61  1  0
 56 55  1  0
 57 56  2  0
 58 52  2  0
 59 58  1  0
 59 54  2  0
 60 53  1  0
 61 51  1  0
 63 65  2  0
 64 63  1  0
 66 64  1  0
 67 76  2  0
 67 72  1  0
 68 64  1  0
 68 72  1  0
 69 68  1  0
 70 71  1  0
 70 69  1  0
 71 67  1  0
 72 73  2  0
 73 74  1  0
 75 74  2  0
 76 75  1  0
 77 51  1  0
 77 78  1  0
 77 87  1  0
 78 81  1  0
 79 83  1  0
 79 78  1  0
 80 79  2  0
 83 82  1  0
 85 83  1  0
 85 86  1  0
 85 84  1  0
 87 90  1  1
 87 88  1  0
 89 87  1  0
M  ISO  4  10 100  11 100  49 101  50 101
M  END
>  <TORSDO>  (33) 
F 23

>  <SCORE>  (33) 
-12.764

>  <name>  (33) 
32

>  <ligand_id>  (33) 
32

>  <original_smiles>  (33) 
[H]c1c(C([H])([H])C(=O)C([H])([H])C([H])([H])C(=O)N2C([H])([H])C([H])([H])C([H])([H])C([H])(n3nc(-c4c([H])c([H])c(Oc5c([H])c([H])c(F)c([H])c5F)c([H])c4[H])c(C(=O)N([H])[H])c3N([H])[H])C2([H])[H])sc(C([H])([H])C([H])([H])C([H])([H])Oc2c([H])c([H])c3c(c2[H])C([H])([H])N(C(=O)C([H])(N([H])C(=O)C([H])(N([H])C([H])([H])[H])C([H])([H])[H])C(C([H])([H])[H])(C([H])([H])[H])C([H])([H])[H])C([H])(C(=O)N([H])C2([H])c4c([H])c([H])c([H])c([H])c4C([H])([H])C([H])([H])C2([H])[H])C3([H])[H])c1[H]

>  <smiles>  (33) 
[H]c1c(C([H])([H])C(=O)C([H])([H])C([H])([H])C(=O)N2C([H])([H])C([H])([H])C([H])([H])C([H])(n3nc(-c4c([H])c([H])c(Oc5c([H])c([H])c(F)c([H])c5F)c([H])c4[H])c(C(=O)N([H])[H])c3N([H])[H])C2([H])[H])sc(C([H])([H])C([H])([H])C([H])([H])Oc2c([H])c([H])c3c(c2[H])C([H])([H])N(C(=O)C([H])(N([H])C(=O)C([H])(N([H])C([H])([H])[H])C([H])([H])[H])C(C([H])([H])[H])(C([H])([H])[H])C([H])([H])[H])C([H])(C(=O)N([H])C2([H])c4c([H])c([H])c([H])c([H])c4C([H])([H])C([H])([H])C2([H])[H])C3([H])[H])c1[H]

$$$$
33:0:0
     RDKit          3D

100109  0  0  1  0  0  0  0  0999 V2000
  -30.2430  -18.1330   17.9420 C   0  0  0  0  0  3  0  0  0  0  0  0
  -30.2630  -19.0470   16.8810 C   0  0  0  0  0  3  0  0  0  0  0  0
  -29.9770  -20.8420   18.4600 C   0  0  0  0  0  3  0  0  0  0  0  0
  -30.1210  -18.5040   19.3100 C   0  0  0  0  0  0  0  0  0  0  0  0
  -30.1640  -20.4200   17.1310 C   0  0  0  0  0  0  0  0  0  0  0  0
  -29.9280  -19.9550   19.5670 C   0  0  0  0  0  0  0  0  0  0  0  0
  -31.7030  -21.9310   15.8110 C   0  0  0  0  0  0  0  0  0  0  0  0
  -29.4540  -22.7030   16.1400 C   0  0  0  0  0  3  0  0  0  0  0  0
  -30.4750  -23.8390   16.3330 C   0  0  0  0  0  3  0  0  0  0  0  0
  -30.2760  -21.4100   15.9680 C   0  0  0  0  0  3  0  0  0  0  0  0
  -31.7590  -23.2430   16.0190 N   0  0  0  0  0  0  0  0  0  0  0  0
  -32.6700  -21.2240   15.5180 O   0  0  0  0  0  0  0  0  0  0  0  0
  -32.6130  -23.7840   15.9660 H   0  0  0  0  0  0  0  0  0  0  0  0
  -30.3780  -17.2400   20.1760 C   0  0  0  0  0  2  0  0  0  0  0  0
  -30.1230  -15.9190   19.8030 C   0  0  0  0  0  2  0  0  0  0  0  0
  -30.8430  -14.6590   20.2320 C   0  0  0  0  0  0  0  0  0  0  0  0
  -30.5400  -12.4040   19.2250 C   0  0  0  0  0  2  0  0  0  0  0  0
  -29.5960  -12.5270   18.0090 C   0  0  0  0  0  2  0  0  0  0  0  0
  -28.1240  -12.3890   18.4500 C   0  0  0  0  0  2  0  0  0  0  0  0
  -27.7820  -13.2700   19.6800 C   0  0  0  0  0  3  0  0  0  0  0  0
  -28.8530  -13.1700   20.7830 C   0  0  0  0  0  2  0  0  0  0  0  0
  -30.1560  -13.4650   20.1790 N   0  0  0  0  0  0  0  0  0  0  0  0
  -32.0720  -14.6370   20.1690 O   0  0  0  0  0  0  0  0  0  0  0  0
  -25.4190  -13.9140   20.4330 C   0  0  0  0  0  0  0  0  0  0  0  0
  -24.3350  -13.1660   20.8010 C   0  0  0  0  0  0  0  0  0  0  0  0
  -24.7680  -11.8040   20.7670 C   0  0  0  0  0  0  0  0  0  0  0  0
  -26.4390  -13.0110   20.1860 N   0  0  0  0  0  0  0  0  0  0  0  0
  -26.0570  -11.7370   20.4550 N   0  0  0  0  0  0  0  0  0  0  0  0
  -24.0130  -10.5580   20.9530 C   0  0  0  0  0  0  0  0  0  0  0  0
  -24.4100   -9.5880   21.9000 C   0  0  0  0  0  3  0  0  0  0  0  0
  -23.6590   -8.4070   22.0750 C   0  0  0  0  0  3  0  0  0  0  0  0
  -22.4910   -8.1880   21.3030 C   0  0  0  0  0  0  0  0  0  0  0  0
  -22.1120   -9.1470   20.3460 C   0  0  0  0  0  3  0  0  0  0  0  0
  -22.8650  -10.3190   20.1700 C   0  0  0  0  0  3  0  0  0  0  0  0
  -21.7120   -7.0600   21.3870 O   0  0  0  0  0  0  0  0  0  0  0  0
  -21.6340   -6.3230   22.5410 C   0  0  0  0  0  0  0  0  0  0  0  0
  -21.1860   -6.8840   23.7570 C   0  0  0  0  0  3  0  0  0  0  0  0
  -21.0580   -6.0720   24.9020 C   0  0  0  0  0  3  0  0  0  0  0  0
  -21.3680   -4.7000   24.8300 C   0  0  0  0  0  0  0  0  0  0  0  0
  -21.8090   -4.1390   23.6190 C   0  0  0  0  0  3  0  0  0  0  0  0
  -21.9390   -4.9480   22.4770 C   0  0  0  0  0  0  0  0  0  0  0  0
  -22.3450   -4.3990   21.3070 F   0  0  0  0  0  0  0  0  0  0  0  0
  -21.2380   -3.9180   25.9270 F   0  0  0  0  0  0  0  0  0  0  0  0
  -22.9510  -13.6760   21.0720 C   0  0  0  0  0  0  0  0  0  0  0  0
  -22.2040  -12.9930   21.9320 N   0  0  0  0  0  0  0  0  0  0  0  0
  -22.5390  -14.7140   20.5560 O   0  0  0  0  0  0  0  0  0  0  0  0
  -22.5520  -12.1530   22.3720 H   0  0  0  0  0  0  0  0  0  0  0  0
  -21.2730  -13.3140   22.1580 H   0  0  0  0  0  0  0  0  0  0  0  0
  -25.6160  -15.2810   20.2610 N   0  0  0  0  0  0  0  0  0  0  0  0
  -24.8640  -15.9520   20.3860 H   0  0  0  0  0  0  0  0  0  0  0  0
  -26.4850  -15.7060   19.9650 H   0  0  0  0  0  0  0  0  0  0  0  0
  -29.6190  -20.7180   20.9120 C   0  0  0  0  0  2  0  0  0  0  0  0
  -29.8140  -22.3420   21.1100 C   0  0  0  0  0  2  0  0  0  0  0  0
  -28.9760  -23.5780   20.4360 C   0  0  0  0  0  3  0  0  0  0  0  0
  -27.6350  -23.1150   20.0130 N   0  0  0  0  0  4  0  0  0  0  0  0
  -27.0410  -22.9260   20.8030 H   0  0  0  0  0  0  0  0  0  0  0  0
  -27.6880  -22.2770   19.4600 H   0  0  0  0  0  0  0  0  0  0  0  0
  -27.1790  -23.8140   19.4490 H   0  0  0  0  0  0  0  0  0  0  0  0
  -28.8380  -24.9750   21.2760 C   0  0  0  0  0  2  0  0  0  0  0  0
  -28.8770  -26.3560   20.6860 O   0  0  0  0  0  0  0  0  0  0  0  0
  -24.7350  -31.7320   23.3440 C   0  0  0  0  0  0  0  0  0  0  0  0
  -27.7220  -27.1630   20.6280 C   0  0  0  0  0  0  0  0  0  0  0  0
  -23.7040  -30.2490   21.6610 C   0  0  0  0  0  3  0  0  0  0  0  0
  -25.3090  -28.7030   20.3970 C   0  0  0  0  0  0  0  0  0  0  0  0
  -26.2400  -30.6480   21.6520 C   0  0  0  0  0  2  0  0  0  0  0  0
  -26.4160  -29.2490   21.0610 C   0  0  0  0  0  0  0  0  0  0  0  0
  -27.6270  -28.4930   21.1600 C   0  0  0  0  0  3  0  0  0  0  0  0
  -26.5910  -26.6730   19.9440 C   0  0  0  0  0  3  0  0  0  0  0  0
  -25.4010  -27.4200   19.8300 C   0  0  0  0  0  3  0  0  0  0  0  0
  -24.0440  -29.5380   20.3230 C   0  0  0  0  0  2  0  0  0  0  0  0
  -24.9080  -30.8970   22.2760 N   0  0  0  0  0  0  0  0  0  0  0  0
  -23.6060  -31.9840   23.7910 O   0  0  0  0  0  0  0  0  0  0  0  0
  -23.0060  -29.2370   22.6020 C   0  0  0  0  0  0  0  0  0  0  0  0
  -21.6970  -29.0190   22.3940 N   0  0  0  0  0  0  0  0  0  0  0  0
  -23.6450  -28.6480   23.4770 O   0  0  0  0  0  0  0  0  0  0  0  0
  -21.2390  -29.5480   21.6640 H   0  0  0  0  0  0  0  0  0  0  0  0
  -18.3180  -27.7670   22.7300 C   0  0  0  0  0  0  0  0  0  0  0  0
  -20.8540  -28.0730   23.1290 C   0  0  0  0  0  3  0  0  0  0  0  0
  -21.0100  -26.6390   22.5740 C   0  0  0  0  0  2  0  0  0  0  0  0
  -19.9690  -26.2890   21.5060 C   0  0  0  0  0  2  0  0  0  0  0  0
  -18.5530  -26.4150   22.0750 C   0  0  0  0  0  2  0  0  0  0  0  0
  -19.3990  -28.5520   23.2110 C   0  0  0  0  0  0  0  0  0  0  0  0
  -19.1290  -29.8140   23.7810 C   0  0  0  0  0  3  0  0  0  0  0  0
  -17.8090  -30.2930   23.8770 C   0  0  0  0  0  3  0  0  0  0  0  0
  -16.7410  -29.5050   23.4140 C   0  0  0  0  0  3  0  0  0  0  0  0
  -16.9960  -28.2440   22.8470 C   0  0  0  0  0  3  0  0  0  0  0  0
  -25.9440  -32.4290   24.0410 C   0  0  0  0  0  3  0  0  0  0  0  0
  -26.3720  -31.7280   25.3880 C   0  0  1  0  0  0  0  0  0  0  0  0
  -25.1990  -31.4990   26.3700 C   0  0  0  0  0  1  0  0  0  0  0  0
  -27.0240  -30.3550   25.1070 C   0  0  0  0  0  1  0  0  0  0  0  0
  -27.4400  -32.5850   26.1090 C   0  0  0  0  0  1  0  0  0  0  0  0
  -25.5730  -33.8310   24.2860 N   0  0  0  0  0  0  0  0  0  0  0  0
  -25.9330  -34.8610   23.5090 C   0  0  0  0  0  0  0  0  0  0  0  0
  -26.6800  -34.7350   22.5340 O   0  0  0  0  0  0  0  0  0  0  0  0
  -24.9200  -34.0000   25.0360 H   0  0  0  0  0  0  0  0  0  0  0  0
  -24.1830  -36.5820   22.9570 C   0  0  0  0  0  1  0  0  0  0  0  0
  -25.3760  -36.2530   23.8690 C   0  0  0  0  0  3  0  0  0  0  0  0
  -27.4170  -37.2460   24.8050 C   0  0  0  0  0  1  0  0  0  0  0  0
  -26.3840  -37.3320   23.7770 N   0  0  0  0  0  0  0  0  0  0  0  0
  -25.9400  -38.2440   23.8460 H   0  0  0  0  0  0  0  0  0  0  0  0
  1  4  1  0
  2  5  1  0
  2  1  2  0
  3  6  1  0
  4  6  2  0
  4 14  1  0
  5  3  2  0
  6 52  1  0
  7 10  1  0
  7 11  1  0
  8  9  2  0
 10  8  1  0
 10  5  1  0
 11  9  1  0
 12  7  2  0
 13 11  1  0
 15 14  1  0
 15 16  1  0
 17 22  1  0
 18 19  1  0
 18 17  1  0
 20 19  1  0
 20 27  1  0
 20 21  1  0
 22 16  1  0
 22 21  1  0
 23 16  2  0
 24 25  2  0
 25 44  1  0
 26 25  1  0
 26 29  1  0
 27 24  1  0
 27 28  1  0
 28 26  2  0
 29 30  1  0
 30 31  2  0
 32 35  1  0
 32 31  1  0
 33 32  2  0
 34 33  1  0
 34 29  2  0
 35 36  1  0
 36 37  1  0
 37 38  2  0
 39 38  1  0
 39 43  1  0
 40 39  2  0
 41 36  2  0
 41 40  1  0
 42 41  1  0
 44 45  1  0
 45 48  1  0
 45 47  1  0
 46 44  2  0
 49 50  1  0
 49 24  1  0
 51 49  1  0
 52 53  1  0
 54 53  1  0
 54 59  1  0
 55 54  1  0
 55 56  1  0
 57 55  1  0
 58 55  1  0
 60 59  1  0
 61 72  2  0
 62 60  1  0
 62 67  1  0
 63 71  1  0
 63 73  1  0
 64 66  1  0
 65 71  1  0
 66 67  2  0
 66 65  1  0
 68 62  2  0
 69 68  1  0
 69 64  2  0
 70 64  1  0
 70 63  1  0
 71 61  1  0
 73 75  2  0
 74 73  1  0
 76 74  1  0
 77 86  2  0
 77 82  1  0
 78 74  1  0
 78 82  1  0
 79 78  1  0
 80 81  1  0
 80 79  1  0
 81 77  1  0
 82 83  2  0
 83 84  1  0
 85 84  2  0
 86 85  1  0
 87 61  1  0
 87 92  1  0
 87 88  1  0
 88 91  1  1
 88 89  1  0
 90 88  1  0
 92 95  1  0
 93 97  1  0
 93 92  1  0
 94 93  2  0
 97 96  1  0
 99100  1  0
 99 97  1  0
 99 98  1  0
M  ISO  4  15 100  16 100  59 101  60 101
M  END
>  <TORSDO>  (34) 
F 23

>  <SCORE>  (34) 
-12.650

>  <name>  (34) 
33

>  <ligand_id>  (34) 
33

>  <original_smiles>  (34) 
[H]C(C(=O)N1C([H])([H])C([H])([H])C([H])([H])C([H])(n2nc(-c3c([H])c([H])c(Oc4c([H])c([H])c(F)c([H])c4F)c([H])c3[H])c(C(=O)N([H])[H])c2N([H])[H])C1([H])[H])=C([H])c1c([H])c([H])c(C2([H])C(=O)N([H])C([H])([H])C2([H])[H])c([H])c1C([H])([H])C([H])([H])C([H])(C([H])([H])Oc1c([H])c([H])c2c(c1[H])C([H])([H])N(C(=O)C([H])(N([H])C(=O)C([H])(N([H])C([H])([H])[H])C([H])([H])[H])C(C([H])([H])[H])(C([H])([H])[H])C([H])([H])[H])C([H])(C(=O)N([H])C1([H])c3c([H])c([H])c([H])c([H])c3C([H])([H])C([H])([H])C1([H])[H])C2([H])[H])[N+]([H])([H])[H]

>  <smiles>  (34) 
[H]C(C(=O)N1C([H])([H])C([H])([H])C([H])([H])C([H])(n2nc(-c3c([H])c([H])c(Oc4c([H])c([H])c(F)c([H])c4F)c([H])c3[H])c(C(=O)N([H])[H])c2N([H])[H])C1([H])[H])=C([H])c1c([H])c([H])c(C2([H])C(=O)N([H])C([H])([H])C2([H])[H])c([H])c1C([H])([H])C([H])([H])C([H])(C([H])([H])Oc1c([H])c([H])c2c(c1[H])C([H])([H])N(C(=O)C([H])(N([H])C(=O)C([H])(N([H])C([H])([H])[H])C([H])([H])[H])C(C([H])([H])[H])(C([H])([H])[H])C([H])([H])[H])C([H])(C(=O)N([H])C1([H])c3c([H])c([H])c([H])c([H])c3C([H])([H])C([H])([H])C1([H])[H])C2([H])[H])[N+]([H])([H])[H]

$$$$
34:0:0
     RDKit          3D

 92100  0  0  1  0  0  0  0  0999 V2000
  -30.0020  -20.4600   20.2390 C   0  0  0  0  0  0  0  0  0  0  0  0
  -30.2600  -20.0260   19.1130 O   0  0  0  0  0  0  0  0  0  0  0  0
  -30.5660  -20.0190   23.9910 C   0  0  0  0  0  3  0  0  0  0  0  0
  -31.2490  -18.8100   24.0950 C   0  0  0  0  0  3  0  0  0  0  0  0
  -30.1620  -20.4740   22.7290 C   0  0  0  0  0  3  0  0  0  0  0  0
  -31.4780  -18.0460   22.9430 C   0  0  0  0  0  3  0  0  0  0  0  0
  -30.4160  -19.7510   21.5250 C   0  0  0  0  0  0  0  0  0  0  0  0
  -31.0450  -18.4450   21.6450 C   0  0  0  0  0  0  0  0  0  0  0  0
  -31.2750  -17.4120   20.4850 C   0  0  0  0  0  2  0  0  0  0  0  0
  -31.3620  -15.9110   20.9790 C   0  0  0  0  0  2  0  0  0  0  0  0
  -31.9810  -14.7530   20.1280 C   0  0  0  0  0  0  0  0  0  0  0  0
  -31.6060  -12.5660   18.9910 C   0  0  0  0  0  2  0  0  0  0  0  0
  -30.6360  -12.7710   17.8060 C   0  0  0  0  0  2  0  0  0  0  0  0
  -29.1620  -12.7420   18.2650 C   0  0  0  0  0  2  0  0  0  0  0  0
  -28.9090  -13.6260   19.5160 C   0  0  0  0  0  3  0  0  0  0  0  0
  -29.9650  -13.3090   20.6000 C   0  0  0  0  0  2  0  0  0  0  0  0
  -31.2880  -13.5790   20.0120 N   0  0  0  0  0  0  0  0  0  0  0  0
  -33.0720  -14.9170   19.5720 O   0  0  0  0  0  0  0  0  0  0  0  0
  -26.5970  -14.4540   20.2940 C   0  0  0  0  0  0  0  0  0  0  0  0
  -25.4640  -13.7810   20.6680 C   0  0  0  0  0  0  0  0  0  0  0  0
  -25.7860  -12.3910   20.5870 C   0  0  0  0  0  0  0  0  0  0  0  0
  -27.5440  -13.4780   20.0180 N   0  0  0  0  0  0  0  0  0  0  0  0
  -27.0580  -12.2310   20.2450 N   0  0  0  0  0  0  0  0  0  0  0  0
  -24.9400  -11.2030   20.7600 C   0  0  0  0  0  0  0  0  0  0  0  0
  -25.2380  -10.2230   21.7330 C   0  0  0  0  0  3  0  0  0  0  0  0
  -24.4000   -9.0970   21.8920 C   0  0  0  0  0  3  0  0  0  0  0  0
  -23.2530   -8.9450   21.0770 C   0  0  0  0  0  0  0  0  0  0  0  0
  -22.9750   -9.9130   20.0960 C   0  0  0  0  0  3  0  0  0  0  0  0
  -23.8120  -11.0300   19.9340 C   0  0  0  0  0  3  0  0  0  0  0  0
  -22.3970   -7.8720   21.1440 O   0  0  0  0  0  0  0  0  0  0  0  0
  -22.1260   -7.2410   22.3310 C   0  0  0  0  0  0  0  0  0  0  0  0
  -21.5920   -7.9350   23.4390 C   0  0  0  0  0  3  0  0  0  0  0  0
  -21.2630   -7.2340   24.6170 C   0  0  0  0  0  3  0  0  0  0  0  0
  -21.4590   -5.8420   24.6860 C   0  0  0  0  0  0  0  0  0  0  0  0
  -21.9860   -5.1490   23.5820 C   0  0  0  0  0  3  0  0  0  0  0  0
  -22.3160   -5.8460   22.4070 C   0  0  0  0  0  0  0  0  0  0  0  0
  -22.8040   -5.1710   21.3390 F   0  0  0  0  0  0  0  0  0  0  0  0
  -21.1350   -5.1660   25.8130 F   0  0  0  0  0  0  0  0  0  0  0  0
  -24.1280  -14.3880   20.9910 C   0  0  0  0  0  0  0  0  0  0  0  0
  -23.3700  -13.7610   21.8850 N   0  0  0  0  0  0  0  0  0  0  0  0
  -23.7680  -15.4490   20.4860 O   0  0  0  0  0  0  0  0  0  0  0  0
  -23.6740  -12.9000   22.3160 H   0  0  0  0  0  0  0  0  0  0  0  0
  -22.4740  -14.1470   22.1430 H   0  0  0  0  0  0  0  0  0  0  0  0
  -26.8950  -15.8050   20.1510 N   0  0  0  0  0  0  0  0  0  0  0  0
  -26.2070  -16.5320   20.3140 H   0  0  0  0  0  0  0  0  0  0  0  0
  -27.7900  -16.1680   19.8500 H   0  0  0  0  0  0  0  0  0  0  0  0
  -29.2340  -21.8200   20.3770 C   0  0  0  0  0  2  0  0  0  0  0  0
  -29.3380  -22.8730   19.2320 C   0  0  0  0  0  2  0  0  0  0  0  0
  -28.1610  -23.8870   19.1490 C   0  0  0  0  0  0  0  0  0  0  0  0
  -27.2930  -23.7400   18.2850 O   0  0  0  0  0  0  0  0  0  0  0  0
  -28.0840  -25.0750   20.1490 C   0  0  0  0  0  2  0  0  0  0  0  0
  -28.0980  -26.3830   19.5100 O   0  0  0  0  0  0  0  0  0  0  0  0
  -24.6710  -31.5740   23.0680 C   0  0  0  0  0  0  0  0  0  0  0  0
  -26.9640  -27.1670   19.6400 C   0  0  0  0  0  0  0  0  0  0  0  0
  -23.3250  -30.3030   21.4280 C   0  0  0  0  0  3  0  0  0  0  0  0
  -24.6370  -28.7780   19.8560 C   0  0  0  0  0  0  0  0  0  0  0  0
  -25.8510  -30.5700   21.1100 C   0  0  0  0  0  2  0  0  0  0  0  0
  -25.8480  -29.2270   20.3990 C   0  0  0  0  0  0  0  0  0  0  0  0
  -27.0160  -28.4330   20.2790 C   0  0  0  0  0  3  0  0  0  0  0  0
  -25.7340  -26.7380   19.0990 C   0  0  0  0  0  3  0  0  0  0  0  0
  -24.5770  -27.5360   19.2010 C   0  0  0  0  0  3  0  0  0  0  0  0
  -23.4340  -29.6840   20.0090 C   0  0  0  0  0  2  0  0  0  0  0  0
  -24.6380  -30.8270   21.9270 N   0  0  0  0  0  0  0  0  0  0  0  0
  -23.6310  -31.8580   23.6790 O   0  0  0  0  0  0  0  0  0  0  0  0
  -22.6820  -29.2620   22.3740 C   0  0  0  0  0  0  0  0  0  0  0  0
  -21.3550  -29.0880   22.2640 N   0  0  0  0  0  0  0  0  0  0  0  0
  -23.3760  -28.6130   23.1620 O   0  0  0  0  0  0  0  0  0  0  0  0
  -20.8570  -29.6640   21.6000 H   0  0  0  0  0  0  0  0  0  0  0  0
  -17.9960  -27.8400   22.7270 C   0  0  0  0  0  0  0  0  0  0  0  0
  -20.5470  -28.1340   23.0210 C   0  0  0  0  0  3  0  0  0  0  0  0
  -20.6750  -26.7080   22.4350 C   0  0  0  0  0  2  0  0  0  0  0  0
  -19.5860  -26.3760   21.4110 C   0  0  0  0  0  2  0  0  0  0  0  0
  -18.1970  -26.4970   22.0440 C   0  0  0  0  0  2  0  0  0  0  0  0
  -19.0990  -28.6150   23.1720 C   0  0  0  0  0  0  0  0  0  0  0  0
  -18.8570  -29.8720   23.7690 C   0  0  0  0  0  3  0  0  0  0  0  0
  -17.5430  -30.3520   23.9260 C   0  0  0  0  0  3  0  0  0  0  0  0
  -16.4550  -29.5750   23.5000 C   0  0  0  0  0  3  0  0  0  0  0  0
  -16.6810  -28.3200   22.9060 C   0  0  0  0  0  3  0  0  0  0  0  0
  -26.0120  -32.1240   23.6470 C   0  0  0  0  0  3  0  0  0  0  0  0
  -25.7670  -33.4990   24.1020 N   0  0  0  0  0  0  0  0  0  0  0  0
  -26.1080  -34.5990   23.4170 C   0  0  0  0  0  0  0  0  0  0  0  0
  -26.7330  -34.5580   22.3540 O   0  0  0  0  0  0  0  0  0  0  0  0
  -25.2090  -33.6070   24.9370 H   0  0  0  0  0  0  0  0  0  0  0  0
  -24.4280  -36.4650   23.2860 C   0  0  0  0  0  1  0  0  0  0  0  0
  -25.6880  -35.9590   24.0050 C   0  0  0  0  0  3  0  0  0  0  0  0
  -27.8860  -36.7090   24.8020 C   0  0  0  0  0  1  0  0  0  0  0  0
  -26.7510  -36.9860   23.9270 N   0  0  0  0  0  0  0  0  0  0  0  0
  -26.3840  -37.9040   24.1650 H   0  0  0  0  0  0  0  0  0  0  0  0
  -26.5890  -31.2430   24.8220 C   0  0  1  0  0  0  0  0  0  0  0  0
  -25.5620  -30.9440   25.9390 C   0  0  0  0  0  1  0  0  0  0  0  0
  -27.1100  -29.8890   24.2840 C   0  0  0  0  0  1  0  0  0  0  0  0
  -27.8010  -31.9570   25.4670 C   0  0  0  0  0  1  0  0  0  0  0  0
  1 47  1  0
  1  7  1  0
  2  1  2  0
  3  4  1  0
  5  3  2  0
  6  4  2  0
  7  8  2  0
  7  5  1  0
  8  6  1  0
  9 10  1  0
  9  8  1  0
 11 10  1  0
 12 17  1  0
 13 14  1  0
 13 12  1  0
 15 14  1  0
 15 22  1  0
 15 16  1  0
 17 11  1  0
 17 16  1  0
 18 11  2  0
 19 20  2  0
 20 39  1  0
 21 20  1  0
 21 24  1  0
 22 23  1  0
 22 19  1  0
 23 21  2  0
 24 25  1  0
 25 26  2  0
 27 30  1  0
 27 26  1  0
 28 27  2  0
 29 28  1  0
 29 24  2  0
 30 31  1  0
 31 36  2  0
 31 32  1  0
 32 33  2  0
 33 34  1  0
 34 38  1  0
 35 34  2  0
 36 35  1  0
 37 36  1  0
 39 40  1  0
 40 43  1  0
 40 42  1  0
 41 39  2  0
 44 19  1  0
 44 45  1  0
 46 44  1  0
 48 47  1  0
 49 48  1  0
 49 51  1  0
 50 49  2  0
 52 54  1  0
 52 51  1  0
 53 64  2  0
 54 59  1  0
 55 63  1  0
 55 65  1  0
 56 62  1  0
 56 58  1  0
 57 63  1  0
 58 57  1  0
 59 58  2  0
 60 61  1  0
 60 54  2  0
 61 56  2  0
 62 55  1  0
 63 53  1  0
 65 67  2  0
 66 65  1  0
 68 66  1  0
 69 78  2  0
 69 74  1  0
 70 66  1  0
 70 74  1  0
 71 70  1  0
 72 73  1  0
 72 71  1  0
 73 69  1  0
 74 75  2  0
 75 76  1  0
 77 76  2  0
 78 77  1  0
 79 53  1  0
 79 80  1  0
 79 89  1  0
 80 83  1  0
 81 85  1  0
 81 80  1  0
 82 81  2  0
 85 84  1  0
 87 85  1  0
 87 88  1  0
 87 86  1  0
 89 92  1  1
 89 90  1  0
 91 89  1  0
M  ISO  4  10 100  11 100  51 101  52 101
M  END
>  <TORSDO>  (35) 
F 23

>  <SCORE>  (35) 
-9.544

>  <name>  (35) 
34

>  <ligand_id>  (35) 
34

>  <original_smiles>  (35) 
[H]c1c([H])c([H])c(C([H])([H])C([H])([H])C(=O)N2C([H])([H])C([H])([H])C([H])([H])C([H])(n3nc(-c4c([H])c([H])c(Oc5c([H])c([H])c(F)c([H])c5F)c([H])c4[H])c(C(=O)N([H])[H])c3N([H])[H])C2([H])[H])c(C(=O)C([H])([H])C([H])([H])C(=O)C([H])([H])Oc2c([H])c([H])c3c(c2[H])C([H])([H])N(C(=O)C([H])(N([H])C(=O)C([H])(N([H])C([H])([H])[H])C([H])([H])[H])C(C([H])([H])[H])(C([H])([H])[H])C([H])([H])[H])C([H])(C(=O)N([H])C2([H])c4c([H])c([H])c([H])c([H])c4C([H])([H])C([H])([H])C2([H])[H])C3([H])[H])c1[H]

>  <smiles>  (35) 
[H]c1c([H])c([H])c(C([H])([H])C([H])([H])C(=O)N2C([H])([H])C([H])([H])C([H])([H])C([H])(n3nc(-c4c([H])c([H])c(Oc5c([H])c([H])c(F)c([H])c5F)c([H])c4[H])c(C(=O)N([H])[H])c3N([H])[H])C2([H])[H])c(C(=O)C([H])([H])C([H])([H])C(=O)C([H])([H])Oc2c([H])c([H])c3c(c2[H])C([H])([H])N(C(=O)C([H])(N([H])C(=O)C([H])(N([H])C([H])([H])[H])C([H])([H])[H])C(C([H])([H])[H])(C([H])([H])[H])C([H])([H])[H])C([H])(C(=O)N([H])C2([H])c4c([H])c([H])c([H])c([H])c4C([H])([H])C([H])([H])C2([H])[H])C3([H])[H])c1[H]

$$$$
35:0:0
     RDKit          3D

 94102  0  0  1  0  0  0  0  0999 V2000
  -28.3750  -21.0320   21.3040 C   0  0  0  0  0  0  0  0  0  0  0  0
  -28.1590  -22.2460   20.7880 N   0  0  0  0  0  0  0  0  0  0  0  0
  -28.4120  -20.8050   22.5150 O   0  0  0  0  0  0  0  0  0  0  0  0
  -28.1870  -22.3430   19.7820 H   0  0  0  0  0  0  0  0  0  0  0  0
  -28.3010  -18.7320   18.2350 C   0  0  0  0  0  3  0  0  0  0  0  0
  -28.0440  -19.8420   19.0690 C   0  0  0  0  0  3  0  0  0  0  0  0
  -29.1700  -17.7070   18.6530 C   0  0  0  0  0  3  0  0  0  0  0  0
  -29.5400  -18.9060   20.7380 C   0  0  0  0  0  3  0  0  0  0  0  0
  -28.6700  -19.9290   20.3310 C   0  0  0  0  0  0  0  0  0  0  0  0
  -29.7920  -17.7910   19.9190 C   0  0  0  0  0  0  0  0  0  0  0  0
  -30.6830  -16.6980   20.4910 C   0  0  0  0  0  2  0  0  0  0  0  0
  -32.0520  -14.7590   20.0840 C   0  0  0  0  0  0  0  0  0  0  0  0
  -31.6400  -12.4730   19.3690 C   0  0  0  0  0  2  0  0  0  0  0  0
  -30.6960  -12.5420   18.1510 C   0  0  0  0  0  2  0  0  0  0  0  0
  -29.2180  -12.5520   18.5970 C   0  0  0  0  0  2  0  0  0  0  0  0
  -28.9250  -13.5940   19.7090 C   0  0  0  0  0  3  0  0  0  0  0  0
  -29.9870  -13.4780   20.8270 C   0  0  0  0  0  2  0  0  0  0  0  0
  -31.3110  -13.6290   20.2060 N   0  0  0  0  0  0  0  0  0  0  0  0
  -33.2710  -14.7250   19.9020 O   0  0  0  0  0  0  0  0  0  0  0  0
  -31.8800  -16.4040   18.3120 C   0  0  0  0  0  1  0  0  0  0  0  0
  -31.3700  -15.8000   19.5610 N   0  0  0  0  0  0  0  0  0  0  0  0
  -26.6400  -14.4550   20.5360 C   0  0  0  0  0  0  0  0  0  0  0  0
  -25.4900  -13.8000   20.8750 C   0  0  0  0  0  0  0  0  0  0  0  0
  -25.7740  -12.4060   20.7360 C   0  0  0  0  0  0  0  0  0  0  0  0
  -27.5610  -13.4680   20.2170 N   0  0  0  0  0  0  0  0  0  0  0  0
  -27.0420  -12.2270   20.3930 N   0  0  0  0  0  0  0  0  0  0  0  0
  -24.8990  -11.2370   20.8580 C   0  0  0  0  0  0  0  0  0  0  0  0
  -25.1970  -10.1830   21.7500 C   0  0  0  0  0  3  0  0  0  0  0  0
  -24.3310   -9.0760   21.8610 C   0  0  0  0  0  3  0  0  0  0  0  0
  -23.1520   -9.0150   21.0850 C   0  0  0  0  0  0  0  0  0  0  0  0
  -22.8750  -10.0530   20.1780 C   0  0  0  0  0  3  0  0  0  0  0  0
  -23.7380  -11.1540   20.0630 C   0  0  0  0  0  3  0  0  0  0  0  0
  -22.2650   -7.9650   21.1110 O   0  0  0  0  0  0  0  0  0  0  0  0
  -22.0050   -7.2700   22.2640 C   0  0  0  0  0  0  0  0  0  0  0  0
  -21.4850   -7.9040   23.4130 C   0  0  0  0  0  3  0  0  0  0  0  0
  -21.1630   -7.1420   24.5540 C   0  0  0  0  0  3  0  0  0  0  0  0
  -21.3520   -5.7470   24.5460 C   0  0  0  0  0  0  0  0  0  0  0  0
  -21.8650   -5.1130   23.4010 C   0  0  0  0  0  3  0  0  0  0  0  0
  -22.1880   -5.8720   22.2620 C   0  0  0  0  0  0  0  0  0  0  0  0
  -22.6600   -5.2540   21.1520 F   0  0  0  0  0  0  0  0  0  0  0  0
  -21.0400   -5.0110   25.6390 F   0  0  0  0  0  0  0  0  0  0  0  0
  -24.1690  -14.4250   21.2240 C   0  0  0  0  0  0  0  0  0  0  0  0
  -23.3940  -13.7820   22.0880 N   0  0  0  0  0  0  0  0  0  0  0  0
  -23.8380  -15.5180   20.7630 O   0  0  0  0  0  0  0  0  0  0  0  0
  -23.6750  -12.8920   22.4740 H   0  0  0  0  0  0  0  0  0  0  0  0
  -22.5070  -14.1800   22.3680 H   0  0  0  0  0  0  0  0  0  0  0  0
  -26.9770  -15.8030   20.4600 N   0  0  0  0  0  0  0  0  0  0  0  0
  -26.3130  -16.5340   20.6870 H   0  0  0  0  0  0  0  0  0  0  0  0
  -27.8950  -16.1670   20.2390 H   0  0  0  0  0  0  0  0  0  0  0  0
  -27.9140  -23.4400   21.5930 C   0  0  0  0  0  2  0  0  0  0  0  0
  -28.8270  -24.6060   21.1980 C   0  0  0  0  0  2  0  0  0  0  0  0
  -28.3220  -25.3410   19.9530 C   0  0  0  0  0  2  0  0  0  0  0  0
  -28.9000  -26.7520   19.7800 C   0  0  0  0  0  2  0  0  0  0  0  0
  -28.2520  -27.3810   18.6830 O   0  0  0  0  0  0  0  0  0  0  0  0
  -24.5490  -31.6500   23.0280 C   0  0  0  0  0  0  0  0  0  0  0  0
  -27.0610  -27.9880   18.9890 C   0  0  0  0  0  0  0  0  0  0  0  0
  -23.2380  -30.4410   21.3110 C   0  0  0  0  0  3  0  0  0  0  0  0
  -24.5980  -29.2510   19.5120 C   0  0  0  0  0  0  0  0  0  0  0  0
  -25.6950  -31.0100   20.9120 C   0  0  0  0  0  2  0  0  0  0  0  0
  -25.7810  -29.7640   20.0590 C   0  0  0  0  0  0  0  0  0  0  0  0
  -27.0160  -29.1330   19.8090 C   0  0  0  0  0  3  0  0  0  0  0  0
  -25.8700  -27.4780   18.4390 C   0  0  0  0  0  3  0  0  0  0  0  0
  -24.6330  -28.0970   18.7060 C   0  0  0  0  0  3  0  0  0  0  0  0
  -23.3220  -29.9950   19.8260 C   0  0  0  0  0  2  0  0  0  0  0  0
  -24.5180  -31.0390   21.8100 N   0  0  0  0  0  0  0  0  0  0  0  0
  -23.5280  -31.7610   23.7170 O   0  0  0  0  0  0  0  0  0  0  0  0
  -22.7560  -29.2420   22.1560 C   0  0  0  0  0  0  0  0  0  0  0  0
  -21.4450  -28.9520   22.0920 N   0  0  0  0  0  0  0  0  0  0  0  0
  -23.5530  -28.5810   22.8230 O   0  0  0  0  0  0  0  0  0  0  0  0
  -20.8540  -29.5470   21.5300 H   0  0  0  0  0  0  0  0  0  0  0  0
  -18.2640  -27.2970   22.5080 C   0  0  0  0  0  0  0  0  0  0  0  0
  -20.7790  -27.8360   22.7640 C   0  0  0  0  0  3  0  0  0  0  0  0
  -21.0350  -26.5010   22.0240 C   0  0  0  0  0  2  0  0  0  0  0  0
  -19.9490  -26.1600   20.9990 C   0  0  0  0  0  2  0  0  0  0  0  0
  -18.5810  -26.0650   21.6790 C   0  0  0  0  0  2  0  0  0  0  0  0
  -19.2950  -28.1400   23.0040 C   0  0  0  0  0  0  0  0  0  0  0  0
  -18.9440  -29.2960   23.7350 C   0  0  0  0  0  3  0  0  0  0  0  0
  -17.5940  -29.6160   23.9740 C   0  0  0  0  0  3  0  0  0  0  0  0
  -16.5780  -28.7700   23.4960 C   0  0  0  0  0  3  0  0  0  0  0  0
  -16.9130  -27.6110   22.7710 C   0  0  0  0  0  3  0  0  0  0  0  0
  -25.8660  -32.2630   23.6010 C   0  0  0  0  0  3  0  0  0  0  0  0
  -25.5610  -33.6260   24.0540 N   0  0  0  0  0  0  0  0  0  0  0  0
  -25.8590  -34.7390   23.3720 C   0  0  0  0  0  0  0  0  0  0  0  0
  -26.4940  -34.7280   22.3120 O   0  0  0  0  0  0  0  0  0  0  0  0
  -24.9890  -33.7060   24.8820 H   0  0  0  0  0  0  0  0  0  0  0  0
  -24.1100  -36.5400   23.2140 C   0  0  0  0  0  1  0  0  0  0  0  0
  -25.3750  -36.0790   23.9550 C   0  0  0  0  0  3  0  0  0  0  0  0
  -27.5220  -36.9130   24.8050 C   0  0  0  0  0  1  0  0  0  0  0  0
  -26.3980  -37.1460   23.9030 N   0  0  0  0  0  0  0  0  0  0  0  0
  -25.9880  -38.0480   24.1320 H   0  0  0  0  0  0  0  0  0  0  0  0
  -26.4890  -31.4090   24.7730 C   0  0  1  0  0  0  0  0  0  0  0  0
  -25.4840  -31.0800   25.9010 C   0  0  0  0  0  1  0  0  0  0  0  0
  -27.0530  -30.0740   24.2350 C   0  0  0  0  0  1  0  0  0  0  0  0
  -27.6790  -32.1720   25.4040 C   0  0  0  0  0  1  0  0  0  0  0  0
  1  3  2  0
  2  1  1  0
  2 50  1  0
  4  2  1  0
  5  7  2  0
  5  6  1  0
  6  9  2  0
  7 10  1  0
  9  8  1  0
  9  1  1  0
 10 11  1  0
 10  8  2  0
 12 18  1  0
 13 18  1  0
 14 15  1  0
 14 13  1  0
 16 15  1  0
 16 25  1  0
 16 17  1  0
 18 17  1  0
 19 12  2  0
 20 21  1  0
 21 12  1  0
 21 11  1  0
 22 23  2  0
 23 42  1  0
 24 27  1  0
 24 23  1  0
 25 26  1  0
 25 22  1  0
 26 24  2  0
 27 28  1  0
 28 29  2  0
 30 33  1  0
 30 29  1  0
 31 30  2  0
 32 31  1  0
 32 27  2  0
 33 34  1  0
 34 35  1  0
 35 36  2  0
 37 36  1  0
 37 41  1  0
 38 37  2  0
 39 34  2  0
 39 38  1  0
 40 39  1  0
 42 43  1  0
 43 46  1  0
 43 45  1  0
 44 42  2  0
 47 22  1  0
 47 48  1  0
 49 47  1  0
 51 50  1  0
 52 51  1  0
 53 52  1  0
 54 56  1  0
 54 53  1  0
 55 66  2  0
 56 61  1  0
 57 65  1  0
 57 67  1  0
 58 64  1  0
 58 60  1  0
 59 65  1  0
 60 59  1  0
 61 60  2  0
 62 63  1  0
 62 56  2  0
 63 58  2  0
 64 57  1  0
 65 55  1  0
 67 69  2  0
 68 67  1  0
 70 68  1  0
 71 80  2  0
 71 76  1  0
 72 68  1  0
 72 76  1  0
 73 72  1  0
 74 75  1  0
 74 73  1  0
 75 71  1  0
 76 77  2  0
 77 78  1  0
 79 78  2  0
 80 79  1  0
 81 55  1  0
 81 82  1  0
 81 91  1  0
 82 85  1  0
 83 87  1  0
 83 82  1  0
 84 83  2  0
 87 86  1  0
 89 87  1  0
 89 90  1  0
 89 88  1  0
 91 94  1  1
 91 92  1  0
 93 91  1  0
M  ISO  4  12 100  21 100  53 101  54 101
M  END
>  <TORSDO>  (36) 
F 22

>  <SCORE>  (36) 
-9.204

>  <name>  (36) 
35

>  <ligand_id>  (36) 
35

>  <original_smiles>  (36) 
[H]c1c([H])c(C(=O)N([H])C([H])([H])C([H])([H])C([H])([H])C([H])([H])Oc2c([H])c([H])c3c(c2[H])C([H])([H])N(C(=O)C([H])(N([H])C(=O)C([H])(N([H])C([H])([H])[H])C([H])([H])[H])C(C([H])([H])[H])(C([H])([H])[H])C([H])([H])[H])C([H])(C(=O)N([H])C2([H])c4c([H])c([H])c([H])c([H])c4C([H])([H])C([H])([H])C2([H])[H])C3([H])[H])c([H])c(C([H])([H])N(C(=O)N2C([H])([H])C([H])([H])C([H])([H])C([H])(n3nc(-c4c([H])c([H])c(Oc5c([H])c([H])c(F)c([H])c5F)c([H])c4[H])c(C(=O)N([H])[H])c3N([H])[H])C2([H])[H])C([H])([H])[H])c1[H]

>  <smiles>  (36) 
[H]c1c([H])c(C(=O)N([H])C([H])([H])C([H])([H])C([H])([H])C([H])([H])Oc2c([H])c([H])c3c(c2[H])C([H])([H])N(C(=O)C([H])(N([H])C(=O)C([H])(N([H])C([H])([H])[H])C([H])([H])[H])C(C([H])([H])[H])(C([H])([H])[H])C([H])([H])[H])C([H])(C(=O)N([H])C2([H])c4c([H])c([H])c([H])c([H])c4C([H])([H])C([H])([H])C2([H])[H])C3([H])[H])c([H])c(C([H])([H])N(C(=O)N2C([H])([H])C([H])([H])C([H])([H])C([H])(n3nc(-c4c([H])c([H])c(Oc5c([H])c([H])c(F)c([H])c5F)c([H])c4[H])c(C(=O)N([H])[H])c3N([H])[H])C2([H])[H])C([H])([H])[H])c1[H]

$$$$
36:0:0
     RDKit          3D

 86 93  0  0  1  0  0  0  0  0999 V2000
  -28.9370  -23.4740   20.3580 C   0  0  0  0  0  0  0  0  0  0  0  0
  -30.1030  -23.7510   20.6520 O   0  0  0  0  0  0  0  0  0  0  0  0
  -28.5230  -21.8760   20.2740 C   0  0  0  0  0  3  0  0  0  0  0  0
  -29.5660  -20.5640   20.4050 C   0  0  0  0  0  3  0  0  0  0  0  0
  -29.1230  -18.9400   20.3810 C   0  0  0  0  0  3  0  0  0  0  0  0
  -30.1870  -17.6430   20.4530 C   0  0  0  0  0  3  0  0  0  0  0  0
  -30.5360  -14.9420   20.3350 C   0  0  0  0  0  0  0  0  0  0  0  0
  -30.3890  -12.6100   19.3740 C   0  0  0  0  0  2  0  0  0  0  0  0
  -29.4480  -12.5910   18.1480 C   0  0  0  0  0  2  0  0  0  0  0  0
  -27.9870  -12.3820   18.5900 C   0  0  0  0  0  2  0  0  0  0  0  0
  -27.5910  -13.2970   19.7790 C   0  0  0  0  0  3  0  0  0  0  0  0
  -28.6540  -13.2950   20.8980 C   0  0  0  0  0  2  0  0  0  0  0  0
  -29.9250  -13.6950   20.2830 N   0  0  0  0  0  0  0  0  0  0  0  0
  -31.7350  -15.0070   20.0430 O   0  0  0  0  0  0  0  0  0  0  0  0
  -29.7760  -16.1250   20.5060 N   0  0  0  0  0  0  0  0  0  0  0  0
  -28.7990  -15.9560   20.6910 H   0  0  0  0  0  0  0  0  0  0  0  0
  -25.2110  -13.8630   20.5320 C   0  0  0  0  0  0  0  0  0  0  0  0
  -24.1520  -13.0820   20.9050 C   0  0  0  0  0  0  0  0  0  0  0  0
  -24.6220  -11.7340   20.8680 C   0  0  0  0  0  0  0  0  0  0  0  0
  -26.2560  -12.9910   20.2840 N   0  0  0  0  0  0  0  0  0  0  0  0
  -25.9130  -11.7040   20.5520 N   0  0  0  0  0  0  0  0  0  0  0  0
  -23.9020  -10.4680   21.0570 C   0  0  0  0  0  0  0  0  0  0  0  0
  -24.3440   -9.4960   21.9820 C   0  0  0  0  0  3  0  0  0  0  0  0
  -23.6230   -8.2960   22.1590 C   0  0  0  0  0  3  0  0  0  0  0  0
  -22.4450   -8.0590   21.4120 C   0  0  0  0  0  0  0  0  0  0  0  0
  -22.0220   -9.0190   20.4770 C   0  0  0  0  0  3  0  0  0  0  0  0
  -22.7440  -10.2110   20.2970 C   0  0  0  0  0  3  0  0  0  0  0  0
  -21.6930   -6.9110   21.5000 O   0  0  0  0  0  0  0  0  0  0  0  0
  -21.6590   -6.1600   22.6470 C   0  0  0  0  0  0  0  0  0  0  0  0
  -21.2440   -6.7040   23.8820 C   0  0  0  0  0  3  0  0  0  0  0  0
  -21.1580   -5.8790   25.0210 C   0  0  0  0  0  3  0  0  0  0  0  0
  -21.4740   -4.5110   24.9260 C   0  0  0  0  0  0  0  0  0  0  0  0
  -21.8820   -3.9660   23.6970 C   0  0  0  0  0  3  0  0  0  0  0  0
  -21.9710   -4.7880   22.5590 C   0  0  0  0  0  0  0  0  0  0  0  0
  -22.3440   -4.2540   21.3720 F   0  0  0  0  0  0  0  0  0  0  0  0
  -21.3840   -3.7160   26.0190 F   0  0  0  0  0  0  0  0  0  0  0  0
  -22.7530  -13.5520   21.1810 C   0  0  0  0  0  0  0  0  0  0  0  0
  -22.0340  -12.8560   22.0540 N   0  0  0  0  0  0  0  0  0  0  0  0
  -22.3080  -14.5720   20.6580 O   0  0  0  0  0  0  0  0  0  0  0  0
  -22.4080  -12.0320   22.5000 H   0  0  0  0  0  0  0  0  0  0  0  0
  -21.0950  -13.1540   22.2830 H   0  0  0  0  0  0  0  0  0  0  0  0
  -25.3660  -15.2350   20.3560 N   0  0  0  0  0  0  0  0  0  0  0  0
  -24.5910  -15.8810   20.4680 H   0  0  0  0  0  0  0  0  0  0  0  0
  -26.1990  -15.6790   19.9950 H   0  0  0  0  0  0  0  0  0  0  0  0
  -27.8850  -24.7100   20.0710 C   0  0  0  0  0  2  0  0  0  0  0  0
  -28.2340  -26.2110   20.2590 O   0  0  0  0  0  0  0  0  0  0  0  0
  -24.6410  -31.9010   23.2400 C   0  0  0  0  0  0  0  0  0  0  0  0
  -27.1880  -27.1980   20.1900 C   0  0  0  0  0  0  0  0  0  0  0  0
  -23.4280  -30.5140   21.6020 C   0  0  0  0  0  3  0  0  0  0  0  0
  -24.8650  -28.9420   20.1690 C   0  0  0  0  0  0  0  0  0  0  0  0
  -25.9830  -30.7750   21.4270 C   0  0  0  0  0  2  0  0  0  0  0  0
  -26.0490  -29.3850   20.7730 C   0  0  0  0  0  0  0  0  0  0  0  0
  -27.2120  -28.5290   20.7670 C   0  0  0  0  0  3  0  0  0  0  0  0
  -25.9780  -26.8550   19.5450 C   0  0  0  0  0  3  0  0  0  0  0  0
  -24.8420  -27.6900   19.5390 C   0  0  0  0  0  3  0  0  0  0  0  0
  -23.6410  -29.8410   20.2210 C   0  0  0  0  0  2  0  0  0  0  0  0
  -24.7040  -31.0840   22.1440 N   0  0  0  0  0  0  0  0  0  0  0  0
  -23.5580  -32.1900   23.7720 O   0  0  0  0  0  0  0  0  0  0  0  0
  -22.7500  -29.5070   22.5640 C   0  0  0  0  0  0  0  0  0  0  0  0
  -21.4210  -29.3440   22.4410 N   0  0  0  0  0  0  0  0  0  0  0  0
  -23.4210  -28.8750   23.3830 O   0  0  0  0  0  0  0  0  0  0  0  0
  -20.9350  -29.9050   21.7550 H   0  0  0  0  0  0  0  0  0  0  0  0
  -18.0340  -28.1640   22.9530 C   0  0  0  0  0  0  0  0  0  0  0  0
  -20.5950  -28.4110   23.2140 C   0  0  0  0  0  3  0  0  0  0  0  0
  -20.6870  -26.9780   22.6400 C   0  0  0  0  0  2  0  0  0  0  0  0
  -19.5810  -26.6610   21.6280 C   0  0  0  0  0  2  0  0  0  0  0  0
  -18.2010  -26.8130   22.2760 C   0  0  0  0  0  2  0  0  0  0  0  0
  -19.1580  -28.9200   23.3790 C   0  0  0  0  0  0  0  0  0  0  0  0
  -18.9460  -30.1830   23.9740 C   0  0  0  0  0  3  0  0  0  0  0  0
  -17.6430  -30.6890   24.1460 C   0  0  0  0  0  3  0  0  0  0  0  0
  -16.5340  -29.9300   23.7330 C   0  0  0  0  0  3  0  0  0  0  0  0
  -16.7310  -28.6680   23.1430 C   0  0  0  0  0  3  0  0  0  0  0  0
  -25.9250  -32.5290   23.8630 C   0  0  0  0  0  3  0  0  0  0  0  0
  -25.6200  -33.9270   24.2040 N   0  0  0  0  0  0  0  0  0  0  0  0
  -25.9290  -34.9840   23.4420 C   0  0  0  0  0  0  0  0  0  0  0  0
  -26.5700  -34.8850   22.3910 O   0  0  0  0  0  0  0  0  0  0  0  0
  -25.0470  -34.0770   25.0200 H   0  0  0  0  0  0  0  0  0  0  0  0
  -24.1770  -36.7700   23.1620 C   0  0  0  0  0  1  0  0  0  0  0  0
  -25.4550  -36.3720   23.9190 C   0  0  0  0  0  3  0  0  0  0  0  0
  -27.6180  -37.2710   24.6550 C   0  0  0  0  0  1  0  0  0  0  0  0
  -26.4760  -37.4300   23.7600 N   0  0  0  0  0  0  0  0  0  0  0  0
  -26.0710  -38.3480   23.9220 H   0  0  0  0  0  0  0  0  0  0  0  0
  -26.4390  -31.7520   25.1370 C   0  0  1  0  0  0  0  0  0  0  0  0
  -25.3460  -31.5180   26.2070 C   0  0  0  0  0  1  0  0  0  0  0  0
  -27.0130  -30.3700   24.7450 C   0  0  0  0  0  1  0  0  0  0  0  0
  -27.5950  -32.5380   25.7980 C   0  0  0  0  0  1  0  0  0  0  0  0
  1  2  2  0
  3  1  1  0
  3  4  2  0
  5  4  1  0
  5  6  2  0
  6 15  1  0
  7 15  1  0
  8 13  1  0
  9 10  1  0
  9  8  1  0
 11 10  1  0
 11 20  1  0
 11 12  1  0
 13  7  1  0
 13 12  1  0
 14  7  2  0
 15 16  1  0
 17 18  2  0
 18 37  1  0
 19 18  1  0
 19 22  1  0
 20 17  1  0
 20 21  1  0
 21 19  2  0
 22 23  1  0
 23 24  2  0
 25 28  1  0
 25 24  1  0
 26 25  2  0
 27 26  1  0
 27 22  2  0
 28 29  1  0
 29 30  1  0
 30 31  2  0
 32 31  1  0
 32 36  1  0
 33 32  2  0
 34 29  2  0
 34 33  1  0
 35 34  1  0
 37 38  1  0
 38 41  1  0
 38 40  1  0
 39 37  2  0
 42 43  1  0
 42 17  1  0
 44 42  1  0
 45 46  1  0
 45  1  1  0
 47 58  2  0
 48 46  1  0
 48 53  1  0
 49 57  1  0
 49 59  1  0
 50 56  1  0
 50 52  1  0
 51 57  1  0
 52 51  1  0
 53 52  2  0
 54 48  2  0
 55 54  1  0
 55 50  2  0
 56 49  1  0
 57 47  1  0
 59 61  2  0
 60 59  1  0
 62 60  1  0
 63 72  2  0
 63 68  1  0
 64 60  1  0
 64 68  1  0
 65 64  1  0
 66 67  1  0
 66 65  1  0
 67 63  1  0
 68 69  2  0
 69 70  1  0
 71 70  2  0
 72 71  1  0
 73 47  1  0
 73 74  1  0
 73 83  1  0
 74 77  1  0
 75 79  1  0
 75 74  1  0
 76 75  2  0
 79 78  1  0
 81 79  1  0
 81 82  1  0
 81 80  1  0
 83 86  1  1
 83 84  1  0
 85 83  1  0
M  ISO  4   7 100  15 100  45 101  46 101
M  END
>  <TORSDO>  (37) 
F 21

>  <SCORE>  (37) 
-13.224

>  <name>  (37) 
36

>  <ligand_id>  (37) 
36

>  <original_smiles>  (37) 
[H]c1c([H])c([H])c2c(c1[H])C([H])([H])C([H])([H])C([H])([H])C2([H])N([H])C(=O)C1([H])N(C(=O)C([H])(N([H])C(=O)C([H])(N([H])C([H])([H])[H])C([H])([H])[H])C(C([H])([H])[H])(C([H])([H])[H])C([H])([H])[H])C([H])([H])c2c([H])c(OC([H])([H])C(=O)C([H])([H])C([H])([H])C([H])([H])C([H])([H])N([H])C(=O)N3C([H])([H])C([H])([H])C([H])([H])C([H])(n4nc(-c5c([H])c([H])c(Oc6c([H])c([H])c(F)c([H])c6F)c([H])c5[H])c(C(=O)N([H])[H])c4N([H])[H])C3([H])[H])c([H])c([H])c2C1([H])[H]

>  <smiles>  (37) 
[H]c1c([H])c([H])c2c(c1[H])C([H])([H])C([H])([H])C([H])([H])C2([H])N([H])C(=O)C1([H])N(C(=O)C([H])(N([H])C(=O)C([H])(N([H])C([H])([H])[H])C([H])([H])[H])C(C([H])([H])[H])(C([H])([H])[H])C([H])([H])[H])C([H])([H])c2c([H])c(OC([H])([H])C(=O)C([H])([H])C([H])([H])C([H])([H])C([H])([H])N([H])C(=O)N3C([H])([H])C([H])([H])C([H])([H])C([H])(n4nc(-c5c([H])c([H])c(Oc6c([H])c([H])c(F)c([H])c6F)c([H])c5[H])c(C(=O)N([H])[H])c4N([H])[H])C3([H])[H])c([H])c([H])c2C1([H])[H]

$$$$
37:0:0
     RDKit          3D

 89 97  0  0  1  0  0  0  0  0999 V2000
  -29.3630  -22.6570   20.6650 C   0  0  0  0  0  3  0  0  0  0  0  0
  -28.6470  -23.7070   18.7360 C   0  0  0  0  0  3  0  0  0  0  0  0
  -28.8000  -23.8910   20.0900 C   0  0  0  0  0  0  0  0  0  0  0  0
  -29.6420  -21.6000   19.7880 C   0  0  0  0  0  0  0  0  0  0  0  0
  -29.1690  -22.1170   18.1830 S   0  0  0  0  0  0  0  0  0  0  0  0
  -28.3300  -25.1740   20.8810 C   0  0  0  0  0  2  0  0  0  0  0  0
  -28.4900  -26.5520   20.3350 O   0  0  0  0  0  0  0  0  0  0  0  0
  -24.5130  -31.8670   23.2850 C   0  0  0  0  0  0  0  0  0  0  0  0
  -27.3580  -27.3860   20.3150 C   0  0  0  0  0  0  0  0  0  0  0  0
  -23.4060  -30.4480   21.5960 C   0  0  0  0  0  3  0  0  0  0  0  0
  -24.9520  -28.9370   20.2160 C   0  0  0  0  0  0  0  0  0  0  0  0
  -25.9420  -30.8290   21.5090 C   0  0  0  0  0  2  0  0  0  0  0  0
  -26.0840  -29.4550   20.8580 C   0  0  0  0  0  0  0  0  0  0  0  0
  -27.2940  -28.6930   20.8950 C   0  0  0  0  0  3  0  0  0  0  0  0
  -26.2030  -26.9150   19.6600 C   0  0  0  0  0  3  0  0  0  0  0  0
  -25.0150  -27.6730   19.6050 C   0  0  0  0  0  3  0  0  0  0  0  0
  -23.6890  -29.7810   20.2230 C   0  0  0  0  0  2  0  0  0  0  0  0
  -24.6360  -31.0640   22.1890 N   0  0  0  0  0  0  0  0  0  0  0  0
  -23.4050  -32.1160   23.7830 O   0  0  0  0  0  0  0  0  0  0  0  0
  -22.7310  -29.4130   22.5290 C   0  0  0  0  0  0  0  0  0  0  0  0
  -21.4180  -29.1950   22.3470 N   0  0  0  0  0  0  0  0  0  0  0  0
  -23.3900  -28.8070   23.3800 O   0  0  0  0  0  0  0  0  0  0  0  0
  -20.9450  -29.7370   21.6360 H   0  0  0  0  0  0  0  0  0  0  0  0
  -18.0590  -27.8910   22.6940 C   0  0  0  0  0  0  0  0  0  0  0  0
  -20.5940  -28.2310   23.0780 C   0  0  0  0  0  3  0  0  0  0  0  0
  -20.7670  -26.8060   22.5080 C   0  0  0  0  0  2  0  0  0  0  0  0
  -19.7220  -26.4480   21.4480 C   0  0  0  0  0  2  0  0  0  0  0  0
  -18.3080  -26.5470   22.0290 C   0  0  0  0  0  2  0  0  0  0  0  0
  -19.1330  -28.6870   23.1730 C   0  0  0  0  0  0  0  0  0  0  0  0
  -18.8500  -29.9410   23.7560 C   0  0  0  0  0  3  0  0  0  0  0  0
  -17.5250  -30.4020   23.8640 C   0  0  0  0  0  3  0  0  0  0  0  0
  -16.4650  -29.6030   23.4050 C   0  0  0  0  0  3  0  0  0  0  0  0
  -16.7320  -28.3490   22.8260 C   0  0  0  0  0  3  0  0  0  0  0  0
  -25.7560  -32.5300   23.9590 C   0  0  0  0  0  3  0  0  0  0  0  0
  -25.4200  -33.9350   24.2290 N   0  0  0  0  0  0  0  0  0  0  0  0
  -25.7840  -34.9680   23.4570 C   0  0  0  0  0  0  0  0  0  0  0  0
  -26.5050  -34.8390   22.4640 O   0  0  0  0  0  0  0  0  0  0  0  0
  -24.7800  -34.1060   24.9910 H   0  0  0  0  0  0  0  0  0  0  0  0
  -24.0640  -36.7370   22.9580 C   0  0  0  0  0  1  0  0  0  0  0  0
  -25.2620  -36.3650   23.8480 C   0  0  0  0  0  3  0  0  0  0  0  0
  -27.3340  -37.2960   24.7720 C   0  0  0  0  0  1  0  0  0  0  0  0
  -26.2910  -37.4230   23.7590 N   0  0  0  0  0  0  0  0  0  0  0  0
  -25.8700  -38.3450   23.8510 H   0  0  0  0  0  0  0  0  0  0  0  0
  -26.2030  -31.8050   25.2880 C   0  0  1  0  0  0  0  0  0  0  0  0
  -25.0500  -31.5780   26.2940 C   0  0  0  0  0  1  0  0  0  0  0  0
  -26.8360  -30.4290   24.9790 C   0  0  0  0  0  1  0  0  0  0  0  0
  -27.2950  -32.6390   25.9940 C   0  0  0  0  0  1  0  0  0  0  0  0
  -30.4080  -20.2350   20.0010 C   0  0  0  0  0  2  0  0  0  0  0  0
  -28.5660  -18.7560   20.7860 C   0  0  0  0  0  1  0  0  0  0  0  0
  -29.7250  -18.8700   19.8690 N   0  0  2  0  0  4  0  0  0  0  0  0
  -29.3420  -18.8680   18.9350 H   0  0  0  0  0  0  0  0  0  0  0  0
  -30.6580  -17.6410   19.9420 C   0  0  0  0  0  2  0  0  0  0  0  0
  -30.0480  -16.1870   20.3110 C   0  0  0  0  0  2  0  0  0  0  0  0
  -30.8300  -14.8500   19.9110 C   0  0  0  0  0  0  0  0  0  0  0  0
  -30.6010  -12.5380   18.9840 C   0  0  0  0  0  2  0  0  0  0  0  0
  -29.6220  -12.5710   17.7880 C   0  0  0  0  0  2  0  0  0  0  0  0
  -28.1670  -12.4160   18.2750 C   0  0  0  0  0  2  0  0  0  0  0  0
  -27.8310  -13.3590   19.4590 C   0  0  0  0  0  3  0  0  0  0  0  0
  -28.9250  -13.3180   20.5500 C   0  0  0  0  0  2  0  0  0  0  0  0
  -30.2140  -13.6200   19.9130 N   0  0  0  0  0  0  0  0  0  0  0  0
  -31.9780  -14.9550   19.4680 O   0  0  0  0  0  0  0  0  0  0  0  0
  -25.4890  -13.9850   20.3090 C   0  0  0  0  0  0  0  0  0  0  0  0
  -24.4290  -13.2220   20.7190 C   0  0  0  0  0  0  0  0  0  0  0  0
  -24.8680  -11.8650   20.6500 C   0  0  0  0  0  0  0  0  0  0  0  0
  -26.5060  -13.0900   20.0080 N   0  0  0  0  0  0  0  0  0  0  0  0
  -26.1410  -11.8110   20.2800 N   0  0  0  0  0  0  0  0  0  0  0  0
  -24.1310  -10.6110   20.8530 C   0  0  0  0  0  0  0  0  0  0  0  0
  -24.5270   -9.6680   21.8270 C   0  0  0  0  0  3  0  0  0  0  0  0
  -23.7880   -8.4800   22.0140 C   0  0  0  0  0  3  0  0  0  0  0  0
  -22.6390   -8.2270   21.2270 C   0  0  0  0  0  0  0  0  0  0  0  0
  -22.2630   -9.1580   20.2420 C   0  0  0  0  0  3  0  0  0  0  0  0
  -23.0040  -10.3360   20.0530 C   0  0  0  0  0  3  0  0  0  0  0  0
  -21.8720   -7.0910   21.3250 O   0  0  0  0  0  0  0  0  0  0  0  0
  -21.7090   -6.4310   22.5170 C   0  0  0  0  0  0  0  0  0  0  0  0
  -21.1230   -7.0570   23.6390 C   0  0  0  0  0  3  0  0  0  0  0  0
  -20.9100   -6.3230   24.8230 C   0  0  0  0  0  3  0  0  0  0  0  0
  -21.2750   -4.9640   24.8860 C   0  0  0  0  0  0  0  0  0  0  0  0
  -21.8530   -4.3390   23.7680 C   0  0  0  0  0  3  0  0  0  0  0  0
  -22.0670   -5.0710   22.5860 C   0  0  0  0  0  0  0  0  0  0  0  0
  -22.6060   -4.4560   21.5040 F   0  0  0  0  0  0  0  0  0  0  0  0
  -21.0630   -4.2560   26.0190 F   0  0  0  0  0  0  0  0  0  0  0  0
  -23.0530  -13.7170   21.0610 C   0  0  0  0  0  0  0  0  0  0  0  0
  -22.3460  -13.0160   21.9420 N   0  0  0  0  0  0  0  0  0  0  0  0
  -22.6120  -14.7600   20.5810 O   0  0  0  0  0  0  0  0  0  0  0  0
  -22.7080  -12.1640   22.3430 H   0  0  0  0  0  0  0  0  0  0  0  0
  -21.4290  -13.3360   22.2130 H   0  0  0  0  0  0  0  0  0  0  0  0
  -25.6680  -15.3530   20.1410 N   0  0  0  0  0  0  0  0  0  0  0  0
  -24.9150  -16.0190   20.2850 H   0  0  0  0  0  0  0  0  0  0  0  0
  -26.5040  -15.7780   19.7600 H   0  0  0  0  0  0  0  0  0  0  0  0
  2  3  2  0
  3  1  1  0
  3  6  1  0
  4 48  1  0
  4  1  2  0
  5  2  1  0
  5  4  1  0
  7  6  1  0
  8 19  2  0
  9  7  1  0
  9 14  1  0
 10 18  1  0
 10 20  1  0
 11 17  1  0
 11 13  1  0
 12 18  1  0
 13 14  2  0
 13 12  1  0
 15  9  2  0
 16 15  1  0
 16 11  2  0
 17 10  1  0
 18  8  1  0
 20 22  2  0
 21 20  1  0
 23 21  1  0
 24 33  2  0
 24 29  1  0
 25 21  1  0
 25 29  1  0
 26 25  1  0
 27 28  1  0
 27 26  1  0
 28 24  1  0
 29 30  2  0
 30 31  1  0
 32 31  2  0
 33 32  1  0
 34  8  1  0
 34 35  1  0
 34 44  1  0
 35 38  1  0
 36 40  1  0
 36 35  1  0
 37 36  2  0
 40 39  1  0
 42 40  1  0
 42 43  1  0
 42 41  1  0
 44 47  1  1
 44 45  1  0
 46 44  1  0
 50 52  1  0
 50 48  1  0
 50 49  1  0
 50 51  1  6
 52 53  1  0
 54 60  1  0
 54 53  1  0
 55 60  1  0
 56 57  1  0
 56 55  1  0
 58 57  1  0
 58 65  1  0
 58 59  1  0
 60 59  1  0
 61 54  2  0
 62 63  2  0
 63 82  1  0
 64 63  1  0
 64 67  1  0
 65 66  1  0
 65 62  1  0
 66 64  2  0
 67 68  1  0
 68 69  2  0
 70 73  1  0
 70 69  1  0
 71 70  2  0
 72 71  1  0
 72 67  2  0
 73 74  1  0
 74 79  2  0
 74 75  1  0
 75 76  2  0
 76 77  1  0
 77 81  1  0
 78 77  2  0
 79 78  1  0
 80 79  1  0
 82 83  1  0
 83 86  1  0
 83 85  1  0
 84 82  2  0
 87 88  1  0
 87 62  1  0
 89 87  1  0
M  ISO  4   6 101   7 101  53 100  54 100
M  END
>  <TORSDO>  (38) 
F 21

>  <SCORE>  (38) 
-12.833

>  <name>  (38) 
37

>  <ligand_id>  (38) 
37

>  <original_smiles>  (38) 
[H]c1sc(C([H])([H])[N+]([H])(C([H])([H])[H])C([H])([H])C([H])([H])C(=O)N2C([H])([H])C([H])([H])C([H])([H])C([H])(n3nc(-c4c([H])c([H])c(Oc5c([H])c([H])c(F)c([H])c5F)c([H])c4[H])c(C(=O)N([H])[H])c3N([H])[H])C2([H])[H])c([H])c1C([H])([H])Oc1c([H])c([H])c2c(c1[H])C([H])([H])N(C(=O)C([H])(N([H])C(=O)C([H])(N([H])C([H])([H])[H])C([H])([H])[H])C(C([H])([H])[H])(C([H])([H])[H])C([H])([H])[H])C([H])(C(=O)N([H])C1([H])c3c([H])c([H])c([H])c([H])c3C([H])([H])C([H])([H])C1([H])[H])C2([H])[H]

>  <smiles>  (38) 
[H]c1sc(C([H])([H])[N+]([H])(C([H])([H])[H])C([H])([H])C([H])([H])C(=O)N2C([H])([H])C([H])([H])C([H])([H])C([H])(n3nc(-c4c([H])c([H])c(Oc5c([H])c([H])c(F)c([H])c5F)c([H])c4[H])c(C(=O)N([H])[H])c3N([H])[H])C2([H])[H])c([H])c1C([H])([H])Oc1c([H])c([H])c2c(c1[H])C([H])([H])N(C(=O)C([H])(N([H])C(=O)C([H])(N([H])C([H])([H])[H])C([H])([H])[H])C(C([H])([H])[H])(C([H])([H])[H])C([H])([H])[H])C([H])(C(=O)N([H])C1([H])c3c([H])c([H])c([H])c([H])c3C([H])([H])C([H])([H])C1([H])[H])C2([H])[H]

$$$$
38:0:0
     RDKit          3D

 95103  0  0  1  0  0  0  0  0999 V2000
  -31.0830  -21.4700   21.3060 C   0  0  0  0  0  1  0  0  0  0  0  0
  -29.9780  -20.9500   20.3650 C   0  0  0  0  0  3  0  0  0  0  0  0
  -31.6330  -19.9140   17.0800 C   0  0  0  0  0  3  0  0  0  0  0  0
  -31.9240  -18.5540   17.1780 C   0  0  0  0  0  3  0  0  0  0  0  0
  -31.0170  -20.5610   18.1590 C   0  0  0  0  0  3  0  0  0  0  0  0
  -31.6200  -17.8620   18.3560 C   0  0  0  0  0  3  0  0  0  0  0  0
  -30.6500  -19.9020   19.3640 C   0  0  0  0  0  0  0  0  0  0  0  0
  -31.0180  -18.4600   19.4950 C   0  0  0  0  0  0  0  0  0  0  0  0
  -29.2930  -16.9210   20.4400 C   0  0  0  0  0  1  0  0  0  0  0  0
  -30.7500  -17.3710   20.6400 C   0  0  2  0  0  0  0  0  0  0  0  0
  -29.6870  -18.4700   22.8260 C   0  0  0  0  0  1  0  0  0  0  0  0
  -30.9420  -18.0280   22.0510 C   0  0  0  0  0  2  0  0  0  0  0  0
  -31.6270  -15.9690   20.7550 C   0  0  0  0  0  2  0  0  0  0  0  0
  -31.8190  -14.7170   19.7700 C   0  0  0  0  0  0  0  0  0  0  0  0
  -31.2150  -12.5620   18.6350 C   0  0  0  0  0  2  0  0  0  0  0  0
  -30.1930  -12.8090   17.5050 C   0  0  0  0  0  2  0  0  0  0  0  0
  -28.7600  -12.7530   18.0640 C   0  0  0  0  0  2  0  0  0  0  0  0
  -28.5920  -13.6060   19.3460 C   0  0  0  0  0  3  0  0  0  0  0  0
  -29.7330  -13.3580   20.3630 C   0  0  0  0  0  2  0  0  0  0  0  0
  -31.0110  -13.5970   19.6810 N   0  0  0  0  0  0  0  0  0  0  0  0
  -32.8570  -14.7360   19.1070 O   0  0  0  0  0  0  0  0  0  0  0  0
  -26.3410  -14.3900   20.3120 C   0  0  0  0  0  0  0  0  0  0  0  0
  -25.2410  -13.7030   20.7400 C   0  0  0  0  0  0  0  0  0  0  0  0
  -25.5540  -12.3170   20.5920 C   0  0  0  0  0  0  0  0  0  0  0  0
  -27.2700  -13.4280   19.9400 N   0  0  0  0  0  0  0  0  0  0  0  0
  -26.8040  -12.1730   20.1660 N   0  0  0  0  0  0  0  0  0  0  0  0
  -24.7150  -11.1260   20.7770 C   0  0  0  0  0  0  0  0  0  0  0  0
  -25.0780  -10.0990   21.6750 C   0  0  0  0  0  3  0  0  0  0  0  0
  -24.2450   -8.9730   21.8490 C   0  0  0  0  0  3  0  0  0  0  0  0
  -23.0310   -8.8690   21.1280 C   0  0  0  0  0  0  0  0  0  0  0  0
  -22.6870   -9.8830   20.2190 C   0  0  0  0  0  3  0  0  0  0  0  0
  -23.5200  -10.9990   20.0410 C   0  0  0  0  0  3  0  0  0  0  0  0
  -22.1720   -7.7990   21.2100 O   0  0  0  0  0  0  0  0  0  0  0  0
  -22.0210   -7.0890   22.3730 C   0  0  0  0  0  0  0  0  0  0  0  0
  -21.6310   -7.7090   23.5790 C   0  0  0  0  0  3  0  0  0  0  0  0
  -21.4220   -6.9330   24.7350 C   0  0  0  0  0  3  0  0  0  0  0  0
  -21.5900   -5.5370   24.6850 C   0  0  0  0  0  0  0  0  0  0  0  0
  -21.9760   -4.9150   23.4830 C   0  0  0  0  0  3  0  0  0  0  0  0
  -22.1870   -5.6900   22.3280 C   0  0  0  0  0  0  0  0  0  0  0  0
  -22.5340   -5.0860   21.1660 F   0  0  0  0  0  0  0  0  0  0  0  0
  -21.3810   -4.7870   25.7920 F   0  0  0  0  0  0  0  0  0  0  0  0
  -23.9310  -14.3020   21.1640 C   0  0  0  0  0  0  0  0  0  0  0  0
  -23.2320  -13.6510   22.0860 N   0  0  0  0  0  0  0  0  0  0  0  0
  -23.5430  -15.3790   20.7120 O   0  0  0  0  0  0  0  0  0  0  0  0
  -23.5640  -12.7810   22.4740 H   0  0  0  0  0  0  0  0  0  0  0  0
  -22.3500  -14.0250   22.4040 H   0  0  0  0  0  0  0  0  0  0  0  0
  -26.6090  -15.7480   20.1860 N   0  0  0  0  0  0  0  0  0  0  0  0
  -25.9150  -16.4490   20.4290 H   0  0  0  0  0  0  0  0  0  0  0  0
  -27.4550  -16.1480   19.8060 H   0  0  0  0  0  0  0  0  0  0  0  0
  -29.2130  -22.1320   19.7150 N   0  0  0  0  0  4  0  0  0  0  0  0
  -29.5130  -22.1560   18.7530 H   0  0  0  0  0  0  0  0  0  0  0  0
  -28.2460  -21.8480   19.6860 H   0  0  0  0  0  0  0  0  0  0  0  0
  -29.2800  -23.5830   20.2610 C   0  0  0  0  0  3  0  0  0  0  0  0
  -28.3630  -24.7220   19.5580 C   0  0  0  0  0  3  0  0  0  0  0  0
  -28.5410  -26.1980   19.8300 O   0  0  0  0  0  0  0  0  0  0  0  0
  -24.7090  -31.5260   22.9340 C   0  0  0  0  0  0  0  0  0  0  0  0
  -27.4250  -27.0700   19.7650 C   0  0  0  0  0  0  0  0  0  0  0  0
  -23.5410  -30.1350   21.2660 C   0  0  0  0  0  3  0  0  0  0  0  0
  -25.0290  -28.6640   19.7930 C   0  0  0  0  0  0  0  0  0  0  0  0
  -26.0740  -30.5140   21.0880 C   0  0  0  0  0  2  0  0  0  0  0  0
  -26.1890  -29.1520   20.4070 C   0  0  0  0  0  0  0  0  0  0  0  0
  -27.3870  -28.3650   20.3880 C   0  0  0  0  0  3  0  0  0  0  0  0
  -26.2420  -26.6640   19.1030 C   0  0  0  0  0  3  0  0  0  0  0  0
  -25.0620  -27.4280   19.1310 C   0  0  0  0  0  3  0  0  0  0  0  0
  -23.7690  -29.5050   19.8680 C   0  0  0  0  0  2  0  0  0  0  0  0
  -24.7940  -30.7420   21.8190 N   0  0  0  0  0  0  0  0  0  0  0  0
  -23.6190  -31.7590   23.4780 O   0  0  0  0  0  0  0  0  0  0  0  0
  -22.9120  -29.0740   22.2000 C   0  0  0  0  0  0  0  0  0  0  0  0
  -21.5840  -28.8890   22.1030 N   0  0  0  0  0  0  0  0  0  0  0  0
  -23.6170  -28.4250   22.9780 O   0  0  0  0  0  0  0  0  0  0  0  0
  -21.0730  -29.4650   21.4490 H   0  0  0  0  0  0  0  0  0  0  0  0
  -18.2260  -27.6670   22.6770 C   0  0  0  0  0  0  0  0  0  0  0  0
  -20.7950  -27.9140   22.8580 C   0  0  0  0  0  3  0  0  0  0  0  0
  -20.8720  -26.5120   22.2100 C   0  0  0  0  0  2  0  0  0  0  0  0
  -19.7300  -26.2380   21.2250 C   0  0  0  0  0  2  0  0  0  0  0  0
  -18.3750  -26.3520   21.9290 C   0  0  0  0  0  2  0  0  0  0  0  0
  -19.3630  -28.4070   23.1000 C   0  0  0  0  0  0  0  0  0  0  0  0
  -19.1690  -29.6390   23.7620 C   0  0  0  0  0  3  0  0  0  0  0  0
  -17.8720  -30.1300   24.0040 C   0  0  0  0  0  3  0  0  0  0  0  0
  -16.7520  -29.3850   23.5980 C   0  0  0  0  0  3  0  0  0  0  0  0
  -16.9300  -28.1550   22.9400 C   0  0  0  0  0  3  0  0  0  0  0  0
  -25.9740  -32.1840   23.5690 C   0  0  0  0  0  3  0  0  0  0  0  0
  -25.6030  -33.5440   23.9840 N   0  0  0  0  0  0  0  0  0  0  0  0
  -25.8920  -34.6570   23.2980 C   0  0  0  0  0  0  0  0  0  0  0  0
  -26.5670  -34.6500   22.2650 O   0  0  0  0  0  0  0  0  0  0  0  0
  -25.0010  -33.6200   24.7910 H   0  0  0  0  0  0  0  0  0  0  0  0
  -24.0870  -36.3950   23.0600 C   0  0  0  0  0  1  0  0  0  0  0  0
  -25.3460  -35.9920   23.8420 C   0  0  0  0  0  3  0  0  0  0  0  0
  -27.4420  -36.9160   24.7300 C   0  0  0  0  0  1  0  0  0  0  0  0
  -26.3330  -37.0930   23.7970 N   0  0  0  0  0  0  0  0  0  0  0  0
  -25.8870  -37.9840   24.0030 H   0  0  0  0  0  0  0  0  0  0  0  0
  -26.5480  -31.3690   24.7910 C   0  0  1  0  0  0  0  0  0  0  0  0
  -25.4880  -31.0230   25.8630 C   0  0  0  0  0  1  0  0  0  0  0  0
  -27.1880  -30.0450   24.3160 C   0  0  0  0  0  1  0  0  0  0  0  0
  -27.6750  -32.1790   25.4770 C   0  0  0  0  0  1  0  0  0  0  0  0
  2  1  1  0
  3  4  2  0
  3  5  1  0
  4  6  1  0
  5  7  2  0
  6  8  2  0
  7  8  1  0
  7  2  1  0
  8 10  1  0
 10  9  1  1
 10 13  1  0
 10 12  1  0
 12 11  1  0
 14 13  1  0
 15 20  1  0
 16 17  1  0
 16 15  1  0
 18 17  1  0
 18 25  1  0
 18 19  1  0
 20 14  1  0
 20 19  1  0
 21 14  2  0
 22 23  2  0
 23 42  1  0
 24 23  1  0
 24 27  1  0
 25 26  1  0
 25 22  1  0
 26 24  2  0
 27 28  1  0
 28 29  2  0
 30 33  1  0
 30 29  1  0
 31 30  2  0
 32 31  1  0
 32 27  2  0
 33 34  1  0
 34 35  1  0
 35 36  2  0
 37 36  1  0
 37 41  1  0
 38 37  2  0
 39 34  2  0
 39 38  1  0
 40 39  1  0
 42 43  1  0
 43 46  1  0
 43 45  1  0
 44 42  2  0
 47 22  1  0
 47 48  1  0
 49 47  1  0
 50 53  1  0
 50  2  1  0
 51 50  1  0
 52 50  1  0
 54 55  1  0
 54 53  2  0
 56 67  2  0
 57 55  1  0
 57 62  1  0
 58 66  1  0
 58 68  1  0
 59 65  1  0
 59 61  1  0
 60 66  1  0
 61 60  1  0
 62 61  2  0
 63 64  1  0
 63 57  2  0
 64 59  2  0
 65 58  1  0
 66 56  1  0
 68 70  2  0
 69 68  1  0
 71 69  1  0
 72 81  2  0
 72 77  1  0
 73 69  1  0
 73 77  1  0
 74 73  1  0
 75 76  1  0
 75 74  1  0
 76 72  1  0
 77 78  2  0
 78 79  1  0
 80 79  2  0
 81 80  1  0
 82 56  1  0
 82 83  1  0
 82 92  1  0
 83 86  1  0
 84 88  1  0
 84 83  1  0
 85 84  2  0
 88 87  1  0
 90 88  1  0
 90 91  1  0
 90 89  1  0
 92 95  1  1
 92 93  1  0
 94 92  1  0
M  ISO  4  13 100  14 100  54 101  55 101
M  END
>  <TORSDO>  (39) 
F 23

>  <SCORE>  (39) 
-9.439

>  <name>  (39) 
38

>  <ligand_id>  (39) 
38

>  <original_smiles>  (39) 
[H]c1c([H])c([H])c2c(c1[H])C([H])([H])C([H])([H])C([H])([H])C2([H])N([H])C(=O)C1([H])N(C(=O)C([H])(N([H])C(=O)C([H])(N([H])C([H])([H])[H])C([H])([H])[H])C(C([H])([H])[H])(C([H])([H])[H])C([H])([H])[H])C([H])([H])c2c([H])c(OC([H])([H])C([H])([H])[N+]([H])([H])C([H])(c3c([H])c([H])c([H])c([H])c3C(C([H])([H])[H])(C([H])([H])C(=O)N3C([H])([H])C([H])([H])C([H])([H])C([H])(n4nc(-c5c([H])c([H])c(Oc6c([H])c([H])c(F)c([H])c6F)c([H])c5[H])c(C(=O)N([H])[H])c4N([H])[H])C3([H])[H])C([H])([H])C([H])([H])[H])C([H])([H])[H])c([H])c([H])c2C1([H])[H]

>  <smiles>  (39) 
[H]c1c([H])c([H])c2c(c1[H])C([H])([H])C([H])([H])C([H])([H])C2([H])N([H])C(=O)C1([H])N(C(=O)C([H])(N([H])C(=O)C([H])(N([H])C([H])([H])[H])C([H])([H])[H])C(C([H])([H])[H])(C([H])([H])[H])C([H])([H])[H])C([H])([H])c2c([H])c(OC([H])([H])C([H])([H])[N+]([H])([H])C([H])(c3c([H])c([H])c([H])c([H])c3C(C([H])([H])[H])(C([H])([H])C(=O)N3C([H])([H])C([H])([H])C([H])([H])C([H])(n4nc(-c5c([H])c([H])c(Oc6c([H])c([H])c(F)c([H])c6F)c([H])c5[H])c(C(=O)N([H])[H])c4N([H])[H])C3([H])[H])C([H])([H])C([H])([H])[H])C([H])([H])[H])c([H])c([H])c2C1([H])[H]

$$$$
39:0:0
     RDKit          3D

 92 99  0  0  1  0  0  0  0  0999 V2000
  -30.2610  -19.6800   21.3220 C   0  0  0  0  0  0  0  0  0  0  0  0
  -29.3790  -20.6650   21.5670 N   0  0  0  0  0  0  0  0  0  0  0  0
  -31.4420  -19.9060   21.0470 O   0  0  0  0  0  0  0  0  0  0  0  0
  -28.4300  -20.3830   21.7760 H   0  0  0  0  0  0  0  0  0  0  0  0
  -29.7610  -18.2230   21.4610 C   0  0  0  0  0  2  0  0  0  0  0  0
  -30.6180  -17.1020   20.7800 C   0  0  0  0  0  3  0  0  0  0  0  0
  -32.0500  -17.1790   21.1560 N   0  0  0  0  0  4  0  0  0  0  0  0
  -32.2030  -16.9800   22.1280 H   0  0  0  0  0  0  0  0  0  0  0  0
  -32.3870  -18.1130   20.9660 H   0  0  0  0  0  0  0  0  0  0  0  0
  -32.5880  -16.5310   20.6020 H   0  0  0  0  0  0  0  0  0  0  0  0
  -30.0260  -15.6720   21.0340 C   0  0  0  0  0  2  0  0  0  0  0  0
  -30.6380  -14.5230   20.1930 C   0  0  0  0  0  0  0  0  0  0  0  0
  -30.2750  -12.4220   18.9380 C   0  0  0  0  0  2  0  0  0  0  0  0
  -29.2710  -12.6690   17.7940 C   0  0  0  0  0  2  0  0  0  0  0  0
  -27.8210  -12.5120   18.2930 C   0  0  0  0  0  2  0  0  0  0  0  0
  -27.5500  -13.3050   19.6000 C   0  0  0  0  0  3  0  0  0  0  0  0
  -28.6580  -13.0390   20.6440 C   0  0  0  0  0  2  0  0  0  0  0  0
  -29.9550  -13.3580   20.0260 N   0  0  0  0  0  0  0  0  0  0  0  0
  -31.7140  -14.7360   19.6260 O   0  0  0  0  0  0  0  0  0  0  0  0
  -25.1760  -13.8880   20.4090 C   0  0  0  0  0  0  0  0  0  0  0  0
  -24.1300  -13.1030   20.8190 C   0  0  0  0  0  0  0  0  0  0  0  0
  -24.6030  -11.7570   20.7630 C   0  0  0  0  0  0  0  0  0  0  0  0
  -26.2190  -13.0180   20.1330 N   0  0  0  0  0  0  0  0  0  0  0  0
  -25.8800  -11.7300   20.4020 N   0  0  0  0  0  0  0  0  0  0  0  0
  -23.8990  -10.4850   20.9770 C   0  0  0  0  0  0  0  0  0  0  0  0
  -24.3610   -9.5330   21.9100 C   0  0  0  0  0  3  0  0  0  0  0  0
  -23.6570   -8.3260   22.1100 C   0  0  0  0  0  3  0  0  0  0  0  0
  -22.4750   -8.0640   21.3770 C   0  0  0  0  0  0  0  0  0  0  0  0
  -22.0320   -9.0070   20.4310 C   0  0  0  0  0  3  0  0  0  0  0  0
  -22.7380  -10.2040   20.2290 C   0  0  0  0  0  3  0  0  0  0  0  0
  -21.7390   -6.9090   21.4870 O   0  0  0  0  0  0  0  0  0  0  0  0
  -21.7010   -6.1880   22.6530 C   0  0  0  0  0  0  0  0  0  0  0  0
  -21.2630   -6.7600   23.8680 C   0  0  0  0  0  3  0  0  0  0  0  0
  -21.1740   -5.9650   25.0280 C   0  0  0  0  0  3  0  0  0  0  0  0
  -21.5110   -4.6000   24.9750 C   0  0  0  0  0  0  0  0  0  0  0  0
  -21.9410   -4.0280   23.7660 C   0  0  0  0  0  3  0  0  0  0  0  0
  -22.0330   -4.8190   22.6070 C   0  0  0  0  0  0  0  0  0  0  0  0
  -22.4280   -4.2580   21.4390 F   0  0  0  0  0  0  0  0  0  0  0  0
  -21.4170   -3.8340   26.0870 F   0  0  0  0  0  0  0  0  0  0  0  0
  -22.7410  -13.5640   21.1500 C   0  0  0  0  0  0  0  0  0  0  0  0
  -22.0560  -12.8540   22.0410 N   0  0  0  0  0  0  0  0  0  0  0  0
  -22.2720  -14.5890   20.6580 O   0  0  0  0  0  0  0  0  0  0  0  0
  -22.4490  -12.0240   22.4610 H   0  0  0  0  0  0  0  0  0  0  0  0
  -21.1240  -13.1440   22.3050 H   0  0  0  0  0  0  0  0  0  0  0  0
  -25.3210  -15.2600   20.2290 N   0  0  0  0  0  0  0  0  0  0  0  0
  -24.5540  -15.9090   20.3650 H   0  0  0  0  0  0  0  0  0  0  0  0
  -26.1530  -15.7050   19.8630 H   0  0  0  0  0  0  0  0  0  0  0  0
  -29.6810  -22.0930   21.7430 C   0  0  0  0  0  2  0  0  0  0  0  0
  -29.0570  -22.9850   20.6470 C   0  0  0  0  0  2  0  0  0  0  0  0
  -29.1240  -24.4990   20.9710 C   0  0  0  0  0  2  0  0  0  0  0  0
  -28.5800  -25.3920   19.8350 C   0  0  0  0  0  2  0  0  0  0  0  0
  -28.5070  -26.7740   20.2390 O   0  0  0  0  0  0  0  0  0  0  0  0
  -24.6270  -31.9190   23.2810 C   0  0  0  0  0  0  0  0  0  0  0  0
  -27.3070  -27.4690   20.2100 C   0  0  0  0  0  0  0  0  0  0  0  0
  -23.4380  -30.5130   21.6330 C   0  0  0  0  0  3  0  0  0  0  0  0
  -24.9040  -28.9840   20.2180 C   0  0  0  0  0  0  0  0  0  0  0  0
  -25.9670  -30.8740   21.4570 C   0  0  0  0  0  2  0  0  0  0  0  0
  -26.0580  -29.5030   20.8150 C   0  0  0  0  0  0  0  0  0  0  0  0
  -27.2570  -28.7510   20.8110 C   0  0  0  0  0  3  0  0  0  0  0  0
  -26.1280  -26.9780   19.5970 C   0  0  0  0  0  3  0  0  0  0  0  0
  -24.9340  -27.7210   19.6110 C   0  0  0  0  0  3  0  0  0  0  0  0
  -23.6590  -29.8400   20.2550 C   0  0  0  0  0  2  0  0  0  0  0  0
  -24.6950  -31.1170   22.1810 N   0  0  0  0  0  0  0  0  0  0  0  0
  -23.5410  -32.1870   23.8130 O   0  0  0  0  0  0  0  0  0  0  0  0
  -22.7860  -29.4850   22.5870 C   0  0  0  0  0  0  0  0  0  0  0  0
  -21.4670  -29.2860   22.4430 N   0  0  0  0  0  0  0  0  0  0  0  0
  -23.4660  -28.8700   23.4130 O   0  0  0  0  0  0  0  0  0  0  0  0
  -20.9770  -29.8380   21.7540 H   0  0  0  0  0  0  0  0  0  0  0  0
  -18.1000  -28.0470   22.8910 C   0  0  0  0  0  0  0  0  0  0  0  0
  -20.6500  -28.3420   23.2070 C   0  0  0  0  0  3  0  0  0  0  0  0
  -20.7810  -26.9080   22.6440 C   0  0  0  0  0  2  0  0  0  0  0  0
  -19.7010  -26.5620   21.6120 C   0  0  0  0  0  2  0  0  0  0  0  0
  -18.3060  -26.6940   22.2310 C   0  0  0  0  0  2  0  0  0  0  0  0
  -19.2020  -28.8270   23.3350 C   0  0  0  0  0  0  0  0  0  0  0  0
  -18.9560  -30.0920   23.9090 C   0  0  0  0  0  3  0  0  0  0  0  0
  -17.6430  -30.5780   24.0470 C   0  0  0  0  0  3  0  0  0  0  0  0
  -16.5570  -29.7960   23.6210 C   0  0  0  0  0  3  0  0  0  0  0  0
  -16.7860  -28.5330   23.0470 C   0  0  0  0  0  3  0  0  0  0  0  0
  -25.9060  -32.5570   23.9070 C   0  0  0  0  0  3  0  0  0  0  0  0
  -26.4160  -31.7940   25.1910 C   0  0  1  0  0  0  0  0  0  0  0  0
  -25.3160  -31.5570   26.2530 C   0  0  0  0  0  1  0  0  0  0  0  0
  -27.0100  -30.4170   24.8100 C   0  0  0  0  0  1  0  0  0  0  0  0
  -27.5570  -32.5980   25.8580 C   0  0  0  0  0  1  0  0  0  0  0  0
  -25.5920  -33.9560   24.2240 N   0  0  0  0  0  0  0  0  0  0  0  0
  -25.9250  -35.0030   23.4590 C   0  0  0  0  0  0  0  0  0  0  0  0
  -26.6020  -34.8930   22.4320 O   0  0  0  0  0  0  0  0  0  0  0  0
  -24.9920  -34.1160   25.0200 H   0  0  0  0  0  0  0  0  0  0  0  0
  -24.1890  -36.7810   23.0810 C   0  0  0  0  0  1  0  0  0  0  0  0
  -25.4290  -36.3920   23.9020 C   0  0  0  0  0  3  0  0  0  0  0  0
  -27.5570  -37.2930   24.7320 C   0  0  0  0  0  1  0  0  0  0  0  0
  -26.4570  -37.4500   23.7830 N   0  0  0  0  0  0  0  0  0  0  0  0
  -26.0460  -38.3690   23.9250 H   0  0  0  0  0  0  0  0  0  0  0  0
  1  5  1  0
  1  2  1  0
  2 48  1  0
  2  4  1  0
  3  1  2  0
  6 11  1  0
  6  7  1  0
  6  5  1  0
  7  8  1  0
  9  7  1  0
 10  7  1  0
 12 11  1  0
 13 18  1  0
 14 15  1  0
 14 13  1  0
 16 15  1  0
 16 23  1  0
 16 17  1  0
 18 12  1  0
 18 17  1  0
 19 12  2  0
 20 21  2  0
 21 40  1  0
 22 21  1  0
 22 25  1  0
 23 24  1  0
 23 20  1  0
 24 22  2  0
 25 26  1  0
 26 27  2  0
 28 31  1  0
 28 27  1  0
 29 28  2  0
 30 29  1  0
 30 25  2  0
 31 32  1  0
 32 33  1  0
 33 34  2  0
 35 34  1  0
 35 39  1  0
 36 35  2  0
 37 32  2  0
 37 36  1  0
 38 37  1  0
 40 41  1  0
 41 44  1  0
 41 43  1  0
 42 40  2  0
 45 46  1  0
 45 20  1  0
 47 45  1  0
 49 50  1  0
 49 48  1  0
 51 52  1  0
 51 50  1  0
 53 64  2  0
 54 52  1  0
 54 59  1  0
 55 63  1  0
 55 65  1  0
 56 62  1  0
 56 58  1  0
 57 63  1  0
 58 57  1  0
 59 58  2  0
 60 61  1  0
 60 54  2  0
 61 56  2  0
 62 55  1  0
 63 53  1  0
 65 67  2  0
 66 65  1  0
 68 66  1  0
 69 78  2  0
 69 74  1  0
 70 66  1  0
 70 74  1  0
 71 70  1  0
 72 73  1  0
 72 71  1  0
 73 69  1  0
 74 75  2  0
 75 76  1  0
 77 76  2  0
 78 77  1  0
 79 53  1  0
 79 84  1  0
 79 80  1  0
 80 83  1  1
 80 81  1  0
 82 80  1  0
 84 87  1  0
 85 89  1  0
 85 84  1  0
 86 85  2  0
 89 88  1  0
 91 89  1  0
 91 92  1  0
 91 90  1  0
M  ISO  4  11 100  12 100  51 101  52 101
M  END
>  <TORSDO>  (40) 
F 24

>  <SCORE>  (40) 
-12.310

>  <name>  (40) 
39

>  <ligand_id>  (40) 
39

>  <original_smiles>  (40) 
[H]c1c([H])c([H])c2c(c1[H])C([H])([H])C([H])([H])C([H])([H])C2([H])N([H])C(=O)C1([H])N(C(=O)C([H])(N([H])C(=O)C([H])(N([H])C([H])([H])[H])C([H])([H])[H])C(C([H])([H])[H])(C([H])([H])[H])C([H])([H])[H])C([H])([H])c2c([H])c(OC([H])([H])C([H])([H])C([H])([H])C([H])([H])N([H])C(=O)C([H])([H])C([H])(C([H])([H])C(=O)N3C([H])([H])C([H])([H])C([H])([H])C([H])(n4nc(-c5c([H])c([H])c(Oc6c([H])c([H])c(F)c([H])c6F)c([H])c5[H])c(C(=O)N([H])[H])c4N([H])[H])C3([H])[H])[N+]([H])([H])[H])c([H])c([H])c2C1([H])[H]

>  <smiles>  (40) 
[H]c1c([H])c([H])c2c(c1[H])C([H])([H])C([H])([H])C([H])([H])C2([H])N([H])C(=O)C1([H])N(C(=O)C([H])(N([H])C(=O)C([H])(N([H])C([H])([H])[H])C([H])([H])[H])C(C([H])([H])[H])(C([H])([H])[H])C([H])([H])[H])C([H])([H])c2c([H])c(OC([H])([H])C([H])([H])C([H])([H])C([H])([H])N([H])C(=O)C([H])([H])C([H])(C([H])([H])C(=O)N3C([H])([H])C([H])([H])C([H])([H])C([H])(n4nc(-c5c([H])c([H])c(Oc6c([H])c([H])c(F)c([H])c6F)c([H])c5[H])c(C(=O)N([H])[H])c4N([H])[H])C3([H])[H])[N+]([H])([H])[H])c([H])c([H])c2C1([H])[H]

$$$$
40:0:0
     RDKit          3D

 91 99  0  0  1  0  0  0  0  0999 V2000
  -28.8770  -22.6260   18.9460 C   0  0  0  0  0  3  0  0  0  0  0  0
  -29.1560  -21.2200   19.1290 C   0  0  0  0  0  3  0  0  0  0  0  0
  -29.2150  -23.0080   21.2550 C   0  0  0  0  0  3  0  0  0  0  0  0
  -28.8430  -23.5920   20.0030 C   0  0  0  0  0  0  0  0  0  0  0  0
  -29.4370  -20.6150   20.3940 C   0  0  0  0  0  0  0  0  0  0  0  0
  -29.5060  -21.5950   21.4470 C   0  0  0  0  0  0  0  0  0  0  0  0
  -29.8090  -21.1280   22.8590 C   0  0  0  0  0  1  0  0  0  0  0  0
  -29.3770  -18.9950   20.6320 C   0  0  0  0  0  2  0  0  0  0  0  0
  -30.5390  -17.8360   20.4660 C   0  0  0  0  0  3  0  0  0  0  0  0
  -30.8950  -15.1470   20.3890 C   0  0  0  0  0  0  0  0  0  0  0  0
  -30.7130  -12.8550   19.3740 C   0  0  0  0  0  2  0  0  0  0  0  0
  -29.7920  -12.9020   18.1340 C   0  0  0  0  0  2  0  0  0  0  0  0
  -28.3200  -12.7120   18.5460 C   0  0  0  0  0  2  0  0  0  0  0  0
  -27.9210  -13.5950   19.7580 C   0  0  0  0  0  3  0  0  0  0  0  0
  -28.9690  -13.5370   20.8910 C   0  0  0  0  0  2  0  0  0  0  0  0
  -30.2600  -13.9180   20.3060 N   0  0  0  0  0  0  0  0  0  0  0  0
  -32.0970  -15.2000   20.1140 O   0  0  0  0  0  0  0  0  0  0  0  0
  -30.1480  -16.3230   20.5810 N   0  0  0  0  0  0  0  0  0  0  0  0
  -29.1710  -16.1620   20.7630 H   0  0  0  0  0  0  0  0  0  0  0  0
  -25.5240  -14.1640   20.4570 C   0  0  0  0  0  0  0  0  0  0  0  0
  -24.4560  -13.3840   20.8060 C   0  0  0  0  0  0  0  0  0  0  0  0
  -24.9280  -12.0340   20.7800 C   0  0  0  0  0  0  0  0  0  0  0  0
  -26.5750  -13.2920   20.2320 N   0  0  0  0  0  0  0  0  0  0  0  0
  -26.2230  -12.0060   20.4920 N   0  0  0  0  0  0  0  0  0  0  0  0
  -24.2030  -10.7680   20.9540 C   0  0  0  0  0  0  0  0  0  0  0  0
  -24.6070   -9.8100   21.9090 C   0  0  0  0  0  3  0  0  0  0  0  0
  -23.8810   -8.6100   22.0720 C   0  0  0  0  0  3  0  0  0  0  0  0
  -22.7360   -8.3600   21.2790 C   0  0  0  0  0  0  0  0  0  0  0  0
  -22.3510   -9.3070   20.3120 C   0  0  0  0  0  3  0  0  0  0  0  0
  -23.0790  -10.4980   20.1480 C   0  0  0  0  0  3  0  0  0  0  0  0
  -21.9850   -7.2120   21.3500 O   0  0  0  0  0  0  0  0  0  0  0  0
  -21.8320   -6.5240   22.5260 C   0  0  0  0  0  0  0  0  0  0  0  0
  -21.2540   -7.1190   23.6680 C   0  0  0  0  0  3  0  0  0  0  0  0
  -21.0510   -6.3540   24.8340 C   0  0  0  0  0  3  0  0  0  0  0  0
  -21.4170   -4.9960   24.8580 C   0  0  0  0  0  0  0  0  0  0  0  0
  -21.9880   -4.4000   23.7210 C   0  0  0  0  0  3  0  0  0  0  0  0
  -22.1920   -5.1600   22.5570 C   0  0  0  0  0  0  0  0  0  0  0  0
  -22.7230   -4.5760   21.4560 F   0  0  0  0  0  0  0  0  0  0  0  0
  -21.2150   -4.2590   25.9760 F   0  0  0  0  0  0  0  0  0  0  0  0
  -23.0520  -13.8530   21.0530 C   0  0  0  0  0  0  0  0  0  0  0  0
  -22.3200  -13.1650   21.9220 N   0  0  0  0  0  0  0  0  0  0  0  0
  -22.6140  -14.8670   20.5120 O   0  0  0  0  0  0  0  0  0  0  0  0
  -22.6910  -12.3450   22.3810 H   0  0  0  0  0  0  0  0  0  0  0  0
  -21.3780  -13.4610   22.1320 H   0  0  0  0  0  0  0  0  0  0  0  0
  -25.6810  -15.5370   20.2860 N   0  0  0  0  0  0  0  0  0  0  0  0
  -24.9060  -16.1830   20.3880 H   0  0  0  0  0  0  0  0  0  0  0  0
  -26.5210  -15.9830   19.9420 H   0  0  0  0  0  0  0  0  0  0  0  0
  -31.3450  -18.0930   19.1890 C   0  0  0  0  0  3  0  0  0  0  0  0
  -30.9200  -17.8570   18.0550 O   0  0  0  0  0  0  0  0  0  0  0  0
  -28.0390  -25.0000   19.8230 C   0  0  0  0  0  2  0  0  0  0  0  0
  -28.4200  -26.4540   20.1390 O   0  0  0  0  0  0  0  0  0  0  0  0
  -24.6350  -31.8980   23.3070 C   0  0  0  0  0  0  0  0  0  0  0  0
  -27.3660  -27.4330   20.0810 C   0  0  0  0  0  0  0  0  0  0  0  0
  -23.4990  -30.5780   21.5660 C   0  0  0  0  0  3  0  0  0  0  0  0
  -25.0090  -29.1240   20.0930 C   0  0  0  0  0  0  0  0  0  0  0  0
  -26.0520  -30.9000   21.4830 C   0  0  0  0  0  2  0  0  0  0  0  0
  -26.1660  -29.5540   20.7560 C   0  0  0  0  0  0  0  0  0  0  0  0
  -27.3470  -28.7230   20.7400 C   0  0  0  0  0  3  0  0  0  0  0  0
  -26.1810  -27.1160   19.3720 C   0  0  0  0  0  3  0  0  0  0  0  0
  -25.0270  -27.9180   19.3890 C   0  0  0  0  0  3  0  0  0  0  0  0
  -23.7640  -29.9910   20.1570 C   0  0  0  0  0  2  0  0  0  0  0  0
  -24.7470  -31.1420   22.1750 N   0  0  0  0  0  0  0  0  0  0  0  0
  -23.5320  -32.1350   23.8210 O   0  0  0  0  0  0  0  0  0  0  0  0
  -22.8180  -29.5020   22.4490 C   0  0  0  0  0  0  0  0  0  0  0  0
  -21.4920  -29.3370   22.2990 N   0  0  0  0  0  0  0  0  0  0  0  0
  -23.4860  -28.8230   23.2340 O   0  0  0  0  0  0  0  0  0  0  0  0
  -21.0120  -29.9370   21.6430 H   0  0  0  0  0  0  0  0  0  0  0  0
  -18.1000  -28.1440   22.7330 C   0  0  0  0  0  0  0  0  0  0  0  0
  -20.6640  -28.3540   23.0010 C   0  0  0  0  0  3  0  0  0  0  0  0
  -20.7440  -26.9690   22.3180 C   0  0  0  0  0  2  0  0  0  0  0  0
  -19.6310  -26.7380   21.2900 C   0  0  0  0  0  2  0  0  0  0  0  0
  -18.2550  -26.8490   21.9520 C   0  0  0  0  0  2  0  0  0  0  0  0
  -19.2310  -28.8580   23.2110 C   0  0  0  0  0  0  0  0  0  0  0  0
  -19.0310  -30.0730   23.9030 C   0  0  0  0  0  3  0  0  0  0  0  0
  -17.7320  -30.5730   24.1190 C   0  0  0  0  0  3  0  0  0  0  0  0
  -16.6160  -29.8550   23.6550 C   0  0  0  0  0  3  0  0  0  0  0  0
  -16.8010  -28.6420   22.9690 C   0  0  0  0  0  3  0  0  0  0  0  0
  -25.8880  -32.5160   23.9980 C   0  0  0  0  0  3  0  0  0  0  0  0
  -26.3160  -31.7470   25.3100 C   0  0  1  0  0  0  0  0  0  0  0  0
  -25.1570  -31.5350   26.3120 C   0  0  0  0  0  1  0  0  0  0  0  0
  -26.9000  -30.3580   24.9680 C   0  0  0  0  0  1  0  0  0  0  0  0
  -27.4360  -32.5310   26.0320 C   0  0  0  0  0  1  0  0  0  0  0  0
  -25.5800  -33.9210   24.3040 N   0  0  0  0  0  0  0  0  0  0  0  0
  -25.9310  -34.9640   23.5400 C   0  0  0  0  0  0  0  0  0  0  0  0
  -26.6180  -34.8440   22.5230 O   0  0  0  0  0  0  0  0  0  0  0  0
  -24.9710  -34.0880   25.0920 H   0  0  0  0  0  0  0  0  0  0  0  0
  -24.2070  -36.7560   23.1560 C   0  0  0  0  0  1  0  0  0  0  0  0
  -25.4460  -36.3610   23.9740 C   0  0  0  0  0  3  0  0  0  0  0  0
  -27.5730  -37.2660   24.8060 C   0  0  0  0  0  1  0  0  0  0  0  0
  -26.4820  -37.4100   23.8460 N   0  0  0  0  0  0  0  0  0  0  0  0
  -26.0740  -38.3340   23.9660 H   0  0  0  0  0  0  0  0  0  0  0  0
  1  2  2  0
  1  4  1  0
  2  5  1  0
  3  6  1  0
  4  3  2  0
  5  8  1  0
  5  6  2  0
  6  7  1  0
  9 48  1  0
  9 18  1  0
  9  8  1  0
 10 18  1  0
 11 16  1  0
 12 13  1  0
 12 11  1  0
 14 13  1  0
 14 23  1  0
 14 15  1  0
 16 10  1  0
 16 15  1  0
 17 10  2  0
 18 19  1  0
 20 21  2  0
 21 40  1  0
 22 21  1  0
 22 25  1  0
 23 20  1  0
 23 24  1  0
 24 22  2  0
 25 26  1  0
 26 27  2  0
 28 31  1  0
 28 27  1  0
 29 28  2  0
 30 29  1  0
 30 25  2  0
 31 32  1  0
 32 37  2  0
 32 33  1  0
 33 34  2  0
 34 35  1  0
 35 39  1  0
 36 35  2  0
 37 36  1  0
 38 37  1  0
 40 41  1  0
 41 44  1  0
 41 43  1  0
 42 40  2  0
 45 46  1  0
 45 20  1  0
 47 45  1  0
 49 48  2  0
 50  4  1  0
 50 51  1  0
 52 63  2  0
 53 51  1  0
 53 58  1  0
 54 62  1  0
 54 64  1  0
 55 61  1  0
 55 57  1  0
 56 62  1  0
 57 56  1  0
 58 57  2  0
 59 60  1  0
 59 53  2  0
 60 55  2  0
 61 54  1  0
 62 52  1  0
 64 66  2  0
 65 64  1  0
 67 65  1  0
 68 77  2  0
 68 73  1  0
 69 65  1  0
 69 73  1  0
 70 69  1  0
 71 72  1  0
 71 70  1  0
 72 68  1  0
 73 74  2  0
 74 75  1  0
 76 75  2  0
 77 76  1  0
 78 52  1  0
 78 83  1  0
 78 79  1  0
 79 82  1  1
 79 80  1  0
 81 79  1  0
 83 86  1  0
 84 88  1  0
 84 83  1  0
 85 84  2  0
 88 87  1  0
 90 91  1  0
 90 88  1  0
 90 89  1  0
M  ISO  4  10 100  18 100  50 101  51 101
M  END
>  <TORSDO>  (41) 
F 20

>  <SCORE>  (41) 
-13.635

>  <name>  (41) 
40

>  <ligand_id>  (41) 
40

>  <original_smiles>  (41) 
[H]C(=O)C([H])(N([H])C(=O)N1C([H])([H])C([H])([H])C([H])([H])C([H])(n2nc(-c3c([H])c([H])c(Oc4c([H])c([H])c(F)c([H])c4F)c([H])c3[H])c(C(=O)N([H])[H])c2N([H])[H])C1([H])[H])C([H])([H])c1c([H])c([H])c(C([H])([H])Oc2c([H])c([H])c3c(c2[H])C([H])([H])N(C(=O)C([H])(N([H])C(=O)C([H])(N([H])C([H])([H])[H])C([H])([H])[H])C(C([H])([H])[H])(C([H])([H])[H])C([H])([H])[H])C([H])(C(=O)N([H])C2([H])c4c([H])c([H])c([H])c([H])c4C([H])([H])C([H])([H])C2([H])[H])C3([H])[H])c([H])c1C([H])([H])[H]

>  <smiles>  (41) 
[H]C(=O)C([H])(N([H])C(=O)N1C([H])([H])C([H])([H])C([H])([H])C([H])(n2nc(-c3c([H])c([H])c(Oc4c([H])c([H])c(F)c([H])c4F)c([H])c3[H])c(C(=O)N([H])[H])c2N([H])[H])C1([H])[H])C([H])([H])c1c([H])c([H])c(C([H])([H])Oc2c([H])c([H])c3c(c2[H])C([H])([H])N(C(=O)C([H])(N([H])C(=O)C([H])(N([H])C([H])([H])[H])C([H])([H])[H])C(C([H])([H])[H])(C([H])([H])[H])C([H])([H])[H])C([H])(C(=O)N([H])C2([H])c4c([H])c([H])c([H])c([H])c4C([H])([H])C([H])([H])C2([H])[H])C3([H])[H])c([H])c1C([H])([H])[H]

$$$$
41:0:0
     RDKit          3D

 95103  0  0  1  0  0  0  0  0999 V2000
  -31.3950  -21.0940   23.3330 C   0  0  0  0  0  1  0  0  0  0  0  0
  -30.3590  -20.8370   22.2240 C   0  0  0  0  0  3  0  0  0  0  0  0
  -30.5990  -18.9690   20.3850 C   0  0  0  0  0  3  0  0  0  0  0  0
  -30.8280  -17.1670   21.7360 C   0  0  0  0  0  3  0  0  0  0  0  0
  -30.7770  -17.5550   20.4310 C   0  0  0  0  0  0  0  0  0  0  0  0
  -30.5170  -19.4280   21.6750 C   0  0  0  0  0  0  0  0  0  0  0  0
  -30.6050  -18.3010   23.9640 C   0  0  0  0  0  1  0  0  0  0  0  0
  -30.6590  -18.3110   22.5090 N   0  0  0  0  0  0  0  0  0  0  0  0
  -31.0700  -15.4260   18.9750 C   0  0  0  0  0  3  0  0  0  0  0  0
  -30.6430  -16.6810   19.2560 C   0  0  0  0  0  0  0  0  0  0  0  0
  -31.8950  -14.4640   19.7140 C   0  0  0  0  0  0  0  0  0  0  0  0
  -31.4460  -12.2060   18.9130 C   0  0  0  0  0  2  0  0  0  0  0  0
  -30.4140  -12.3330   17.7690 C   0  0  0  0  0  2  0  0  0  0  0  0
  -28.9660  -12.4080   18.3050 C   0  0  0  0  0  2  0  0  0  0  0  0
  -28.7830  -13.3550   19.5240 C   0  0  0  0  0  3  0  0  0  0  0  0
  -29.9250  -13.1740   20.5530 C   0  0  0  0  0  2  0  0  0  0  0  0
  -31.2210  -13.2960   19.8720 N   0  0  0  0  0  0  0  0  0  0  0  0
  -33.1220  -14.5090   19.6010 O   0  0  0  0  0  0  0  0  0  0  0  0
  -26.6190  -14.2060   20.6200 C   0  0  0  0  0  0  0  0  0  0  0  0
  -25.4740  -13.5620   21.0010 C   0  0  0  0  0  0  0  0  0  0  0  0
  -25.6950  -12.1750   20.7340 C   0  0  0  0  0  0  0  0  0  0  0  0
  -27.4660  -13.2170   20.1390 N   0  0  0  0  0  0  0  0  0  0  0  0
  -26.9240  -11.9810   20.2750 N   0  0  0  0  0  0  0  0  0  0  0  0
  -24.7890  -11.0250   20.8310 C   0  0  0  0  0  0  0  0  0  0  0  0
  -25.1280   -9.8810   21.5870 C   0  0  0  0  0  3  0  0  0  0  0  0
  -24.2320   -8.7940   21.6760 C   0  0  0  0  0  3  0  0  0  0  0  0
  -22.9830   -8.8470   21.0140 C   0  0  0  0  0  0  0  0  0  0  0  0
  -22.6620   -9.9770   20.2420 C   0  0  0  0  0  3  0  0  0  0  0  0
  -23.5570  -11.0550   20.1480 C   0  0  0  0  0  3  0  0  0  0  0  0
  -22.0610   -7.8290   21.0240 O   0  0  0  0  0  0  0  0  0  0  0  0
  -21.8640   -7.0510   22.1360 C   0  0  0  0  0  0  0  0  0  0  0  0
  -21.5110   -7.6080   23.3840 C   0  0  0  0  0  3  0  0  0  0  0  0
  -21.2530   -6.7660   24.4840 C   0  0  0  0  0  3  0  0  0  0  0  0
  -21.3360   -5.3680   24.3340 C   0  0  0  0  0  0  0  0  0  0  0  0
  -21.6810   -4.8100   23.0910 C   0  0  0  0  0  3  0  0  0  0  0  0
  -21.9440   -5.6500   21.9950 C   0  0  0  0  0  0  0  0  0  0  0  0
  -22.2570   -5.1090   20.7920 F   0  0  0  0  0  0  0  0  0  0  0  0
  -21.0770   -4.5570   25.3860 F   0  0  0  0  0  0  0  0  0  0  0  0
  -24.2110  -14.2020   21.4970 C   0  0  0  0  0  0  0  0  0  0  0  0
  -23.4890  -13.5270   22.3840 N   0  0  0  0  0  0  0  0  0  0  0  0
  -23.8830  -15.3340   21.1380 O   0  0  0  0  0  0  0  0  0  0  0  0
  -23.7770  -12.6130   22.7020 H   0  0  0  0  0  0  0  0  0  0  0  0
  -22.6410  -13.9310   22.7570 H   0  0  0  0  0  0  0  0  0  0  0  0
  -27.0040  -15.5430   20.6200 N   0  0  0  0  0  0  0  0  0  0  0  0
  -26.3590  -16.2870   20.8630 H   0  0  0  0  0  0  0  0  0  0  0  0
  -27.9110  -15.8760   20.3150 H   0  0  0  0  0  0  0  0  0  0  0  0
  -29.8880  -17.2790   18.3280 O   0  0  0  0  0  0  0  0  0  0  0  0
  -29.6340  -18.1270   18.6750 H   0  0  0  0  0  0  0  0  0  0  0  0
  -30.4910  -21.8980   21.1880 N   0  0  0  0  0  4  0  0  0  0  0  0
  -31.1920  -22.5340   21.5270 H   0  0  0  0  0  0  0  0  0  0  0  0
  -30.8530  -21.4750   20.3500 H   0  0  0  0  0  0  0  0  0  0  0  0
  -29.2950  -22.7180   20.8510 C   0  0  0  0  0  2  0  0  0  0  0  0
  -29.5830  -24.2520   20.8490 C   0  0  0  0  0  2  0  0  0  0  0  0
  -28.3980  -25.0990   20.3290 C   0  0  0  0  0  2  0  0  0  0  0  0
  -28.5840  -26.5290   20.4480 O   0  0  0  0  0  0  0  0  0  0  0  0
  -24.6490  -31.7870   23.2350 C   0  0  0  0  0  0  0  0  0  0  0  0
  -27.4330  -27.2950   20.3370 C   0  0  0  0  0  0  0  0  0  0  0  0
  -23.5190  -30.3540   21.5650 C   0  0  0  0  0  3  0  0  0  0  0  0
  -25.0410  -28.8110   20.2240 C   0  0  0  0  0  0  0  0  0  0  0  0
  -26.0520  -30.7230   21.4720 C   0  0  0  0  0  2  0  0  0  0  0  0
  -26.1720  -29.3430   20.8540 C   0  0  0  0  0  0  0  0  0  0  0  0
  -27.3730  -28.5910   20.9100 C   0  0  0  0  0  3  0  0  0  0  0  0
  -26.2830  -26.8010   19.6740 C   0  0  0  0  0  3  0  0  0  0  0  0
  -25.0910  -27.5420   19.6320 C   0  0  0  0  0  3  0  0  0  0  0  0
  -23.7900  -29.6610   20.2050 C   0  0  0  0  0  2  0  0  0  0  0  0
  -24.7560  -30.9690   22.1500 N   0  0  0  0  0  0  0  0  0  0  0  0
  -23.5440  -32.0590   23.7230 O   0  0  0  0  0  0  0  0  0  0  0  0
  -22.8360  -29.3400   22.5110 C   0  0  0  0  0  0  0  0  0  0  0  0
  -21.5100  -29.1840   22.3620 N   0  0  0  0  0  0  0  0  0  0  0  0
  -23.4950  -28.6990   23.3320 O   0  0  0  0  0  0  0  0  0  0  0  0
  -21.0400  -29.7560   21.6730 H   0  0  0  0  0  0  0  0  0  0  0  0
  -18.1050  -28.0600   22.8030 C   0  0  0  0  0  0  0  0  0  0  0  0
  -20.6620  -28.2610   23.1170 C   0  0  0  0  0  3  0  0  0  0  0  0
  -20.7440  -26.8310   22.5360 C   0  0  0  0  0  2  0  0  0  0  0  0
  -19.6520  -26.5370   21.5030 C   0  0  0  0  0  2  0  0  0  0  0  0
  -18.2630  -26.7080   22.1260 C   0  0  0  0  0  2  0  0  0  0  0  0
  -19.2320  -28.7960   23.2550 C   0  0  0  0  0  0  0  0  0  0  0  0
  -19.0310  -30.0620   23.8460 C   0  0  0  0  0  3  0  0  0  0  0  0
  -17.7350  -30.5930   23.9870 C   0  0  0  0  0  3  0  0  0  0  0  0
  -16.6220  -29.8530   23.5530 C   0  0  0  0  0  3  0  0  0  0  0  0
  -16.8070  -28.5880   22.9670 C   0  0  0  0  0  3  0  0  0  0  0  0
  -25.9030  -32.4330   23.8980 C   0  0  0  0  0  3  0  0  0  0  0  0
  -25.5660  -33.8290   24.2120 N   0  0  0  0  0  0  0  0  0  0  0  0
  -25.9310  -34.8810   23.4710 C   0  0  0  0  0  0  0  0  0  0  0  0
  -26.6570  -34.7810   22.4780 O   0  0  0  0  0  0  0  0  0  0  0  0
  -24.9220  -33.9790   24.9750 H   0  0  0  0  0  0  0  0  0  0  0  0
  -24.2020  -36.6530   23.0240 C   0  0  0  0  0  1  0  0  0  0  0  0
  -25.4080  -36.2660   23.8970 C   0  0  0  0  0  3  0  0  0  0  0  0
  -27.4860  -37.1760   24.8340 C   0  0  0  0  0  1  0  0  0  0  0  0
  -26.4330  -37.3290   23.8320 N   0  0  0  0  0  0  0  0  0  0  0  0
  -26.0100  -38.2450   23.9540 H   0  0  0  0  0  0  0  0  0  0  0  0
  -26.3820  -31.6710   25.1940 C   0  0  1  0  0  0  0  0  0  0  0  0
  -25.2550  -31.4310   26.2260 C   0  0  0  0  0  1  0  0  0  0  0  0
  -26.9830  -30.2950   24.8240 C   0  0  0  0  0  1  0  0  0  0  0  0
  -27.5050  -32.4730   25.8910 C   0  0  0  0  0  1  0  0  0  0  0  0
  2  1  1  0
  3  5  1  0
  3  6  2  0
  4  8  1  0
  5  4  2  0
  6  2  1  0
  6  8  1  0
  8  7  1  0
  9 10  2  0
  9 11  1  0
 10  5  1  0
 11 17  1  0
 12 17  1  0
 13 14  1  0
 13 12  1  0
 15 14  1  0
 15 22  1  0
 15 16  1  0
 17 16  1  0
 18 11  2  0
 19 44  1  0
 19 20  2  0
 20 39  1  0
 21 24  1  0
 21 20  1  0
 22 23  1  0
 22 19  1  0
 23 21  2  0
 24 25  1  0
 25 26  2  0
 27 30  1  0
 27 26  1  0
 28 27  2  0
 29 28  1  0
 29 24  2  0
 30 31  1  0
 31 32  1  0
 32 33  2  0
 34 33  1  0
 34 38  1  0
 35 34  2  0
 36 31  2  0
 36 35  1  0
 37 36  1  0
 39 40  1  0
 40 42  1  0
 40 43  1  0
 41 39  2  0
 44 45  1  0
 46 44  1  0
 47 48  1  0
 47 10  1  0
 49 50  1  0
 49  2  1  0
 51 49  1  0
 52 49  1  0
 53 52  1  0
 54 55  1  0
 54 53  1  0
 56 67  2  0
 57 55  1  0
 57 62  1  0
 58 66  1  0
 58 68  1  0
 59 61  1  0
 60 66  1  0
 61 62  2  0
 61 60  1  0
 63 57  2  0
 64 63  1  0
 64 59  2  0
 65 59  1  0
 65 58  1  0
 66 56  1  0
 68 70  2  0
 69 68  1  0
 71 69  1  0
 72 81  2  0
 72 77  1  0
 73 69  1  0
 73 77  1  0
 74 73  1  0
 75 76  1  0
 75 74  1  0
 76 72  1  0
 77 78  2  0
 78 79  1  0
 80 79  2  0
 81 80  1  0
 82 56  1  0
 82 83  1  0
 82 92  1  0
 83 86  1  0
 84 88  1  0
 84 83  1  0
 85 84  2  0
 88 87  1  0
 90 88  1  0
 90 91  1  0
 90 89  1  0
 92 95  1  1
 92 93  1  0
 94 92  1  0
M  ISO  4   9 100  11 100  54 101  55 101
M  END
>  <TORSDO>  (42) 
F 23

>  <SCORE>  (42) 
-11.024

>  <name>  (42) 
41

>  <ligand_id>  (42) 
41

>  <original_smiles>  (42) 
[H]OC(=C([H])C(=O)N1C([H])([H])C([H])([H])C([H])([H])C([H])(n2nc(-c3c([H])c([H])c(Oc4c([H])c([H])c(F)c([H])c4F)c([H])c3[H])c(C(=O)N([H])[H])c2N([H])[H])C1([H])[H])c1c([H])c(C([H])(C([H])([H])[H])[N+]([H])([H])C([H])([H])C([H])([H])C([H])([H])Oc2c([H])c([H])c3c(c2[H])C([H])([H])N(C(=O)C([H])(N([H])C(=O)C([H])(N([H])C([H])([H])[H])C([H])([H])[H])C(C([H])([H])[H])(C([H])([H])[H])C([H])([H])[H])C([H])(C(=O)N([H])C2([H])c4c([H])c([H])c([H])c([H])c4C([H])([H])C([H])([H])C2([H])[H])C3([H])[H])n(C([H])([H])[H])c1[H]

>  <smiles>  (42) 
[H]OC(=C([H])C(=O)N1C([H])([H])C([H])([H])C([H])([H])C([H])(n2nc(-c3c([H])c([H])c(Oc4c([H])c([H])c(F)c([H])c4F)c([H])c3[H])c(C(=O)N([H])[H])c2N([H])[H])C1([H])[H])c1c([H])c(C([H])(C([H])([H])[H])[N+]([H])([H])C([H])([H])C([H])([H])C([H])([H])Oc2c([H])c([H])c3c(c2[H])C([H])([H])N(C(=O)C([H])(N([H])C(=O)C([H])(N([H])C([H])([H])[H])C([H])([H])[H])C(C([H])([H])[H])(C([H])([H])[H])C([H])([H])[H])C([H])(C(=O)N([H])C2([H])c4c([H])c([H])c([H])c([H])c4C([H])([H])C([H])([H])C2([H])[H])C3([H])[H])n(C([H])([H])[H])c1[H]

$$$$
42:0:0
     RDKit          3D

 91100  0  0  1  0  0  0  0  0999 V2000
  -31.0060  -22.3920   18.8350 C   0  0  0  0  0  3  0  0  0  0  0  0
  -30.7720  -21.0530   19.2490 C   0  0  0  0  0  3  0  0  0  0  0  0
  -30.2140  -23.4880   19.2620 C   0  0  0  0  0  3  0  0  0  0  0  0
  -28.9370  -21.8910   20.5670 C   0  0  0  0  0  3  0  0  0  0  0  0
  -29.7400  -20.7020   20.1490 C   0  0  0  0  0  0  0  0  0  0  0  0
  -29.1320  -23.3110   20.1430 C   0  0  0  0  0  0  0  0  0  0  0  0
  -31.4610  -18.3640   22.0290 C   0  0  0  0  0  2  0  0  0  0  0  0
  -30.0460  -18.9760   22.0660 C   0  0  0  0  0  2  0  0  0  0  0  0
  -31.7440  -17.9710   20.5770 C   0  0  0  0  0  2  0  0  0  0  0  0
  -29.5610  -19.1020   20.6090 C   0  0  0  0  0  3  0  0  0  0  0  0
  -30.3630  -17.7510   19.9460 C   0  0  0  0  0  3  0  0  0  0  0  0
  -30.6630  -14.9820   19.9110 C   0  0  0  0  0  0  0  0  0  0  0  0
  -30.4260  -12.6320   18.9720 C   0  0  0  0  0  2  0  0  0  0  0  0
  -29.4230  -12.6100   17.7960 C   0  0  0  0  0  2  0  0  0  0  0  0
  -27.9910  -12.3990   18.3170 C   0  0  0  0  0  2  0  0  0  0  0  0
  -27.6650  -13.3160   19.5240 C   0  0  0  0  0  3  0  0  0  0  0  0
  -28.7890  -13.3280   20.5820 C   0  0  0  0  0  2  0  0  0  0  0  0
  -30.0240  -13.7370   19.8970 N   0  0  0  0  0  0  0  0  0  0  0  0
  -31.8330  -14.9920   19.5140 O   0  0  0  0  0  0  0  0  0  0  0  0
  -29.9720  -16.2130   20.1610 N   0  0  0  0  0  0  0  0  0  0  0  0
  -29.0210  -16.0760   20.4730 H   0  0  0  0  0  0  0  0  0  0  0  0
  -25.3620  -13.9020   20.4640 C   0  0  0  0  0  0  0  0  0  0  0  0
  -24.3100  -13.1310   20.8830 C   0  0  0  0  0  0  0  0  0  0  0  0
  -24.7410  -11.7760   20.7570 C   0  0  0  0  0  0  0  0  0  0  0  0
  -26.3630  -13.0140   20.1080 N   0  0  0  0  0  0  0  0  0  0  0  0
  -26.0040  -11.7270   20.3490 N   0  0  0  0  0  0  0  0  0  0  0  0
  -24.0020  -10.5210   20.9470 C   0  0  0  0  0  0  0  0  0  0  0  0
  -24.4250   -9.5510   21.8820 C   0  0  0  0  0  3  0  0  0  0  0  0
  -23.6850   -8.3620   22.0630 C   0  0  0  0  0  3  0  0  0  0  0  0
  -22.5090   -8.1360   21.3100 C   0  0  0  0  0  0  0  0  0  0  0  0
  -22.1030   -9.0960   20.3660 C   0  0  0  0  0  3  0  0  0  0  0  0
  -22.8420  -10.2770   20.1840 C   0  0  0  0  0  3  0  0  0  0  0  0
  -21.7410   -6.9990   21.4040 O   0  0  0  0  0  0  0  0  0  0  0  0
  -21.6290   -6.2990   22.5790 C   0  0  0  0  0  0  0  0  0  0  0  0
  -21.1070   -6.8900   23.7520 C   0  0  0  0  0  3  0  0  0  0  0  0
  -20.9340   -6.1120   24.9140 C   0  0  0  0  0  3  0  0  0  0  0  0
  -21.2820   -4.7480   24.9080 C   0  0  0  0  0  0  0  0  0  0  0  0
  -21.8000   -4.1580   23.7420 C   0  0  0  0  0  3  0  0  0  0  0  0
  -21.9680   -4.9300   22.5800 C   0  0  0  0  0  0  0  0  0  0  0  0
  -22.4460   -4.3520   21.4530 F   0  0  0  0  0  0  0  0  0  0  0  0
  -21.1120   -4.0010   26.0240 F   0  0  0  0  0  0  0  0  0  0  0  0
  -22.9490  -13.6260   21.2740 C   0  0  0  0  0  0  0  0  0  0  0  0
  -22.2650  -12.9140   22.1630 N   0  0  0  0  0  0  0  0  0  0  0  0
  -22.5020  -14.6810   20.8290 O   0  0  0  0  0  0  0  0  0  0  0  0
  -22.6370  -12.0580   22.5450 H   0  0  0  0  0  0  0  0  0  0  0  0
  -21.3560  -13.2310   22.4690 H   0  0  0  0  0  0  0  0  0  0  0  0
  -25.5480  -15.2730   20.3300 N   0  0  0  0  0  0  0  0  0  0  0  0
  -24.8110  -15.9460   20.5100 H   0  0  0  0  0  0  0  0  0  0  0  0
  -26.3810  -15.6960   19.9400 H   0  0  0  0  0  0  0  0  0  0  0  0
  -28.1630  -24.6080   20.4790 C   0  0  0  0  0  2  0  0  0  0  0  0
  -28.4800  -26.1350   20.3180 O   0  0  0  0  0  0  0  0  0  0  0  0
  -24.6850  -31.8330   23.1630 C   0  0  0  0  0  0  0  0  0  0  0  0
  -27.4120  -27.1130   20.2530 C   0  0  0  0  0  0  0  0  0  0  0  0
  -23.5490  -30.4010   21.5130 C   0  0  0  0  0  3  0  0  0  0  0  0
  -25.0580  -28.8310   20.1490 C   0  0  0  0  0  0  0  0  0  0  0  0
  -26.1040  -30.6990   21.4090 C   0  0  0  0  0  2  0  0  0  0  0  0
  -26.2180  -29.2980   20.7790 C   0  0  0  0  0  0  0  0  0  0  0  0
  -27.3970  -28.4580   20.8110 C   0  0  0  0  0  3  0  0  0  0  0  0
  -26.2210  -26.7560   19.5760 C   0  0  0  0  0  3  0  0  0  0  0  0
  -25.0730  -27.5740   19.5320 C   0  0  0  0  0  3  0  0  0  0  0  0
  -23.8190  -29.7110   20.1500 C   0  0  0  0  0  2  0  0  0  0  0  0
  -24.7990  -30.9990   22.0850 N   0  0  0  0  0  0  0  0  0  0  0  0
  -23.5820  -32.1080   23.6600 O   0  0  0  0  0  0  0  0  0  0  0  0
  -22.8610  -29.3950   22.4690 C   0  0  0  0  0  0  0  0  0  0  0  0
  -21.5370  -29.2080   22.3150 N   0  0  0  0  0  0  0  0  0  0  0  0
  -23.5210  -28.7830   23.3130 O   0  0  0  0  0  0  0  0  0  0  0  0
  -21.0650  -29.7560   21.6100 H   0  0  0  0  0  0  0  0  0  0  0  0
  -18.1590  -27.9760   22.7470 C   0  0  0  0  0  0  0  0  0  0  0  0
  -20.7080  -28.2690   23.0720 C   0  0  0  0  0  3  0  0  0  0  0  0
  -20.8400  -26.8360   22.5090 C   0  0  0  0  0  2  0  0  0  0  0  0
  -19.7650  -26.4920   21.4740 C   0  0  0  0  0  2  0  0  0  0  0  0
  -18.3680  -26.6250   22.0840 C   0  0  0  0  0  2  0  0  0  0  0  0
  -19.2580  -28.7570   23.1950 C   0  0  0  0  0  0  0  0  0  0  0  0
  -19.0110  -30.0200   23.7740 C   0  0  0  0  0  3  0  0  0  0  0  0
  -17.6950  -30.5060   23.9060 C   0  0  0  0  0  3  0  0  0  0  0  0
  -16.6100  -29.7240   23.4730 C   0  0  0  0  0  3  0  0  0  0  0  0
  -16.8430  -28.4600   22.9020 C   0  0  0  0  0  3  0  0  0  0  0  0
  -25.9380  -32.4950   23.8160 C   0  0  0  0  0  3  0  0  0  0  0  0
  -25.5900  -33.8860   24.1420 N   0  0  0  0  0  0  0  0  0  0  0  0
  -25.9200  -34.9520   23.4000 C   0  0  0  0  0  0  0  0  0  0  0  0
  -26.6130  -34.8660   22.3830 O   0  0  0  0  0  0  0  0  0  0  0  0
  -24.9720  -34.0230   24.9300 H   0  0  0  0  0  0  0  0  0  0  0  0
  -24.1740  -36.7230   23.0080 C   0  0  0  0  0  1  0  0  0  0  0  0
  -25.3970  -36.3310   23.8530 C   0  0  0  0  0  3  0  0  0  0  0  0
  -27.4870  -37.2490   24.7590 C   0  0  0  0  0  1  0  0  0  0  0  0
  -26.4150  -37.4020   23.7780 N   0  0  0  0  0  0  0  0  0  0  0  0
  -25.9900  -38.3140   23.9140 H   0  0  0  0  0  0  0  0  0  0  0  0
  -26.4340  -31.7360   25.1080 C   0  0  1  0  0  0  0  0  0  0  0  0
  -25.3180  -31.4800   26.1480 C   0  0  0  0  0  1  0  0  0  0  0  0
  -27.0560  -30.3710   24.7390 C   0  0  0  0  0  1  0  0  0  0  0  0
  -27.5510  -32.5550   25.7990 C   0  0  0  0  0  1  0  0  0  0  0  0
  1  2  2  0
  1  3  1  0
  2  5  1  0
  3  6  2  0
  5  4  2  0
  6 50  1  0
  6  4  1  0
  7  8  1  0
  9  7  1  0
 10  5  1  0
 10  8  1  0
 11 20  1  0
 11  9  1  0
 11 10  1  0
 12 20  1  0
 13 18  1  0
 14 15  1  0
 14 13  1  0
 16 15  1  0
 16 25  1  0
 16 17  1  0
 18 12  1  0
 18 17  1  0
 19 12  2  0
 20 21  1  0
 22 23  2  0
 23 42  1  0
 24 23  1  0
 24 27  1  0
 25 26  1  0
 25 22  1  0
 26 24  2  0
 27 28  1  0
 28 29  2  0
 30 33  1  0
 30 29  1  0
 31 30  2  0
 32 31  1  0
 32 27  2  0
 33 34  1  0
 34 39  2  0
 34 35  1  0
 35 36  2  0
 37 36  1  0
 37 41  1  0
 38 37  2  0
 39 38  1  0
 40 39  1  0
 42 43  1  0
 43 46  1  0
 43 45  1  0
 44 42  2  0
 47 22  1  0
 47 48  1  0
 49 47  1  0
 51 50  1  0
 52 63  2  0
 53 51  1  0
 53 58  1  0
 54 62  1  0
 54 64  1  0
 55 61  1  0
 55 57  1  0
 56 62  1  0
 57 58  2  0
 57 56  1  0
 59 53  2  0
 60 59  1  0
 60 55  2  0
 61 54  1  0
 62 52  1  0
 64 66  2  0
 65 64  1  0
 67 65  1  0
 68 77  2  0
 68 73  1  0
 69 65  1  0
 69 73  1  0
 70 69  1  0
 71 72  1  0
 71 70  1  0
 72 68  1  0
 73 74  2  0
 74 75  1  0
 76 75  2  0
 77 76  1  0
 78 52  1  0
 78 79  1  0
 78 88  1  0
 79 82  1  0
 80 84  1  0
 80 79  1  0
 81 80  2  0
 84 83  1  0
 86 84  1  0
 86 87  1  0
 86 85  1  0
 88 91  1  1
 88 89  1  0
 90 88  1  0
M  ISO  4  12 100  20 100  50 101  51 101
M  END
>  <TORSDO>  (43) 
F 18

>  <SCORE>  (43) 
-13.836

>  <name>  (43) 
42

>  <ligand_id>  (43) 
42

>  <original_smiles>  (43) 
[H]c1c([H])c([H])c2c(c1[H])C([H])([H])C([H])([H])C([H])([H])C2([H])N([H])C(=O)C1([H])N(C(=O)C([H])(N([H])C(=O)C([H])(N([H])C([H])([H])[H])C([H])([H])[H])C(C([H])([H])[H])(C([H])([H])[H])C([H])([H])[H])C([H])([H])c2c([H])c(OC([H])([H])c3c([H])c([H])c([H])c(C4([H])C([H])([H])C([H])([H])C([H])([H])C4([H])N([H])C(=O)N4C([H])([H])C([H])([H])C([H])([H])C([H])(n5nc(-c6c([H])c([H])c(Oc7c([H])c([H])c(F)c([H])c7F)c([H])c6[H])c(C(=O)N([H])[H])c5N([H])[H])C4([H])[H])c3[H])c([H])c([H])c2C1([H])[H]

>  <smiles>  (43) 
[H]c1c([H])c([H])c2c(c1[H])C([H])([H])C([H])([H])C([H])([H])C2([H])N([H])C(=O)C1([H])N(C(=O)C([H])(N([H])C(=O)C([H])(N([H])C([H])([H])[H])C([H])([H])[H])C(C([H])([H])[H])(C([H])([H])[H])C([H])([H])[H])C([H])([H])c2c([H])c(OC([H])([H])c3c([H])c([H])c([H])c(C4([H])C([H])([H])C([H])([H])C([H])([H])C4([H])N([H])C(=O)N4C([H])([H])C([H])([H])C([H])([H])C([H])(n5nc(-c6c([H])c([H])c(Oc7c([H])c([H])c(F)c([H])c7F)c([H])c6[H])c(C(=O)N([H])[H])c5N([H])[H])C4([H])[H])c3[H])c([H])c([H])c2C1([H])[H]

$$$$
43:0:0
     RDKit          3D

 91 99  0  0  1  0  0  0  0  0999 V2000
  -29.1440  -20.3750   19.5740 C   0  0  0  0  0  3  0  0  0  0  0  0
  -29.8310  -19.9810   21.7890 C   0  0  0  0  0  3  0  0  0  0  0  0
  -29.4200  -18.9770   19.2870 C   0  0  0  0  0  3  0  0  0  0  0  0
  -30.1470  -18.5960   21.4940 C   0  0  0  0  0  3  0  0  0  0  0  0
  -29.3910  -20.9800   20.8390 C   0  0  0  0  0  0  0  0  0  0  0  0
  -30.0370  -18.0220   20.1910 C   0  0  0  0  0  0  0  0  0  0  0  0
  -29.3120  -22.4970   21.3100 C   0  0  0  0  0  3  0  0  0  0  0  0
  -28.9990  -23.8720   21.0820 C   0  0  0  0  0  0  0  0  0  0  0  0
  -29.3400  -24.7870   22.2660 C   0  0  0  0  0  1  0  0  0  0  0  0
  -28.3710  -24.8060   19.9090 C   0  0  0  0  0  2  0  0  0  0  0  0
  -28.4100  -26.3540   20.0330 O   0  0  0  0  0  0  0  0  0  0  0  0
  -24.5670  -31.7790   23.0300 C   0  0  0  0  0  0  0  0  0  0  0  0
  -27.2920  -27.2470   19.9240 C   0  0  0  0  0  0  0  0  0  0  0  0
  -23.4070  -30.3670   21.3740 C   0  0  0  0  0  3  0  0  0  0  0  0
  -24.9020  -28.8880   19.9000 C   0  0  0  0  0  0  0  0  0  0  0  0
  -25.9420  -30.7460   21.1950 C   0  0  0  0  0  2  0  0  0  0  0  0
  -26.0610  -29.3740   20.5150 C   0  0  0  0  0  0  0  0  0  0  0  0
  -27.2570  -28.5730   20.5020 C   0  0  0  0  0  3  0  0  0  0  0  0
  -26.1120  -26.8570   19.2520 C   0  0  0  0  0  3  0  0  0  0  0  0
  -24.9390  -27.6470   19.2430 C   0  0  0  0  0  3  0  0  0  0  0  0
  -23.6380  -29.7300   19.9770 C   0  0  0  0  0  2  0  0  0  0  0  0
  -24.6570  -30.9890   21.9170 N   0  0  0  0  0  0  0  0  0  0  0  0
  -23.4760  -32.0080   23.5730 O   0  0  0  0  0  0  0  0  0  0  0  0
  -22.7810  -29.3130   22.3210 C   0  0  0  0  0  0  0  0  0  0  0  0
  -21.4550  -29.1160   22.2220 N   0  0  0  0  0  0  0  0  0  0  0  0
  -23.4870  -28.6770   23.1050 O   0  0  0  0  0  0  0  0  0  0  0  0
  -20.9430  -29.6910   21.5690 H   0  0  0  0  0  0  0  0  0  0  0  0
  -18.1030  -27.8420   22.7560 C   0  0  0  0  0  0  0  0  0  0  0  0
  -20.6630  -28.1370   22.9730 C   0  0  0  0  0  3  0  0  0  0  0  0
  -20.7740  -26.7270   22.3470 C   0  0  0  0  0  2  0  0  0  0  0  0
  -19.6520  -26.4200   21.3510 C   0  0  0  0  0  2  0  0  0  0  0  0
  -18.2860  -26.5180   22.0350 C   0  0  0  0  0  2  0  0  0  0  0  0
  -19.2200  -28.6100   23.1800 C   0  0  0  0  0  0  0  0  0  0  0  0
  -18.9940  -29.8480   23.8200 C   0  0  0  0  0  3  0  0  0  0  0  0
  -17.6840  -30.3120   24.0510 C   0  0  0  0  0  3  0  0  0  0  0  0
  -16.5820  -29.5400   23.6390 C   0  0  0  0  0  3  0  0  0  0  0  0
  -16.7940  -28.3110   22.9920 C   0  0  0  0  0  3  0  0  0  0  0  0
  -25.8280  -32.4450   23.6600 C   0  0  0  0  0  3  0  0  0  0  0  0
  -26.3860  -31.6620   24.9130 C   0  0  1  0  0  0  0  0  0  0  0  0
  -25.3130  -31.3530   25.9830 C   0  0  0  0  0  1  0  0  0  0  0  0
  -27.0170  -30.3160   24.4890 C   0  0  0  0  0  1  0  0  0  0  0  0
  -27.5150  -32.4840   25.5810 C   0  0  0  0  0  1  0  0  0  0  0  0
  -25.4630  -33.8200   24.0350 N   0  0  0  0  0  0  0  0  0  0  0  0
  -25.7650  -34.9100   23.3200 C   0  0  0  0  0  0  0  0  0  0  0  0
  -26.4410  -34.8720   22.2890 O   0  0  0  0  0  0  0  0  0  0  0  0
  -24.8510  -33.9280   24.8300 H   0  0  0  0  0  0  0  0  0  0  0  0
  -23.9860  -36.6670   23.0230 C   0  0  0  0  0  1  0  0  0  0  0  0
  -25.2280  -36.2590   23.8320 C   0  0  0  0  0  3  0  0  0  0  0  0
  -27.3130  -37.1760   24.7410 C   0  0  0  0  0  1  0  0  0  0  0  0
  -26.2240  -37.3510   23.7860 N   0  0  0  0  0  0  0  0  0  0  0  0
  -25.7800  -38.2460   23.9710 H   0  0  0  0  0  0  0  0  0  0  0  0
  -30.5830  -16.5390   18.1010 C   0  0  0  0  0  1  0  0  0  0  0  0
  -30.8920  -16.7160   19.6250 C   0  0  2  0  0  0  0  0  0  0  0  0
  -31.0420  -15.1030   20.1600 C   0  0  0  0  0  0  0  0  0  0  0  0
  -30.6490  -12.8400   19.1440 C   0  0  0  0  0  2  0  0  0  0  0  0
  -29.6820  -12.7690   17.9530 C   0  0  0  0  0  2  0  0  0  0  0  0
  -28.2460  -12.5550   18.4470 C   0  0  0  0  0  2  0  0  0  0  0  0
  -27.8710  -13.4980   19.6180 C   0  0  0  0  0  3  0  0  0  0  0  0
  -28.9730  -13.6070   20.6930 C   0  0  0  0  0  2  0  0  0  0  0  0
  -30.2180  -13.9850   20.0000 N   0  0  0  0  0  0  0  0  0  0  0  0
  -32.2220  -14.7630   20.2390 O   0  0  0  0  0  0  0  0  0  0  0  0
  -25.5320  -14.0640   20.4700 C   0  0  0  0  0  0  0  0  0  0  0  0
  -24.4670  -13.2850   20.8460 C   0  0  0  0  0  0  0  0  0  0  0  0
  -24.9240  -11.9330   20.7750 C   0  0  0  0  0  0  0  0  0  0  0  0
  -26.5580  -13.1850   20.1770 N   0  0  0  0  0  0  0  0  0  0  0  0
  -26.2060  -11.8980   20.4320 N   0  0  0  0  0  0  0  0  0  0  0  0
  -24.1900  -10.6720   20.9550 C   0  0  0  0  0  0  0  0  0  0  0  0
  -24.5880   -9.7130   21.9120 C   0  0  0  0  0  3  0  0  0  0  0  0
  -23.8510   -8.5210   22.0800 C   0  0  0  0  0  3  0  0  0  0  0  0
  -22.7040   -8.2770   21.2870 C   0  0  0  0  0  0  0  0  0  0  0  0
  -22.3300   -9.2220   20.3160 C   0  0  0  0  0  3  0  0  0  0  0  0
  -23.0670  -10.4050   20.1490 C   0  0  0  0  0  3  0  0  0  0  0  0
  -21.9440   -7.1330   21.3590 O   0  0  0  0  0  0  0  0  0  0  0  0
  -21.7800   -6.4510   22.5370 C   0  0  0  0  0  0  0  0  0  0  0  0
  -21.2020   -7.0550   23.6750 C   0  0  0  0  0  3  0  0  0  0  0  0
  -20.9920   -6.2980   24.8440 C   0  0  0  0  0  3  0  0  0  0  0  0
  -21.3510   -4.9370   24.8760 C   0  0  0  0  0  0  0  0  0  0  0  0
  -21.9200   -4.3310   23.7420 C   0  0  0  0  0  3  0  0  0  0  0  0
  -22.1340   -5.0860   22.5760 C   0  0  0  0  0  0  0  0  0  0  0  0
  -22.6630   -4.4940   21.4780 F   0  0  0  0  0  0  0  0  0  0  0  0
  -21.1430   -4.2050   25.9950 F   0  0  0  0  0  0  0  0  0  0  0  0
  -23.0810  -13.7670   21.1530 C   0  0  0  0  0  0  0  0  0  0  0  0
  -22.3720  -13.0570   22.0270 N   0  0  0  0  0  0  0  0  0  0  0  0
  -22.6330  -14.7960   20.6530 O   0  0  0  0  0  0  0  0  0  0  0  0
  -22.7530  -12.2270   22.4530 H   0  0  0  0  0  0  0  0  0  0  0  0
  -21.4380  -13.3460   22.2740 H   0  0  0  0  0  0  0  0  0  0  0  0
  -25.7060  -15.4330   20.3200 N   0  0  0  0  0  0  0  0  0  0  0  0
  -24.9550  -16.1010   20.4600 H   0  0  0  0  0  0  0  0  0  0  0  0
  -26.5690  -15.8710   20.0240 H   0  0  0  0  0  0  0  0  0  0  0  0
  -32.7200  -18.8120   19.7750 C   0  0  0  0  0  1  0  0  0  0  0  0
  -32.4020  -17.2910   19.6680 C   0  0  0  0  0  2  0  0  0  0  0  0
  1  5  1  0
  3  1  2  0
  3  6  1  0
  4  2  1  0
  5  7  1  0
  5  2  2  0
  6  4  2  0
  8  7  2  0
  8  9  1  0
 10 11  1  0
 10  8  1  0
 12 23  2  0
 13 11  1  0
 13 18  1  0
 14 22  1  0
 14 24  1  0
 15 21  1  0
 15 17  1  0
 16 22  1  0
 17 16  1  0
 18 17  2  0
 19 13  2  0
 20 19  1  0
 20 15  2  0
 21 14  1  0
 22 12  1  0
 24 26  2  0
 25 24  1  0
 27 25  1  0
 28 37  2  0
 28 33  1  0
 29 25  1  0
 29 33  1  0
 30 29  1  0
 31 32  1  0
 31 30  1  0
 32 28  1  0
 33 34  2  0
 34 35  1  0
 36 35  2  0
 37 36  1  0
 38 12  1  0
 38 43  1  0
 38 39  1  0
 39 42  1  1
 39 40  1  0
 41 39  1  0
 43 46  1  0
 44 48  1  0
 44 43  1  0
 45 44  2  0
 48 47  1  0
 50 48  1  0
 50 51  1  0
 50 49  1  0
 53 52  1  6
 53 91  1  0
 53 54  1  0
 53  6  1  0
 54 61  2  0
 55 60  1  0
 56 57  1  0
 56 55  1  0
 58 57  1  0
 58 65  1  0
 58 59  1  0
 60 54  1  0
 60 59  1  0
 62 63  2  0
 63 82  1  0
 64 63  1  0
 64 67  1  0
 65 66  1  0
 65 62  1  0
 66 64  2  0
 67 68  1  0
 68 69  2  0
 70 73  1  0
 70 69  1  0
 71 70  2  0
 72 71  1  0
 72 67  2  0
 73 74  1  0
 74 79  2  0
 74 75  1  0
 75 76  2  0
 76 77  1  0
 77 81  1  0
 78 77  2  0
 79 78  1  0
 80 79  1  0
 82 83  1  0
 83 86  1  0
 83 85  1  0
 84 82  2  0
 87 88  1  0
 87 62  1  0
 89 87  1  0
 91 90  1  0
M  ISO  4  10 101  11 101  53 100  54 100
M  END
>  <TORSDO>  (44) 
F 20

>  <SCORE>  (44) 
-13.389

>  <name>  (44) 
43

>  <ligand_id>  (44) 
43

>  <original_smiles>  (44) 
[H]C(=C(C([H])([H])[H])C([H])([H])Oc1c([H])c([H])c2c(c1[H])C([H])([H])N(C(=O)C([H])(N([H])C(=O)C([H])(N([H])C([H])([H])[H])C([H])([H])[H])C(C([H])([H])[H])(C([H])([H])[H])C([H])([H])[H])C([H])(C(=O)N([H])C1([H])c3c([H])c([H])c([H])c([H])c3C([H])([H])C([H])([H])C1([H])[H])C2([H])[H])c1c([H])c([H])c(C(C(=O)N2C([H])([H])C([H])([H])C([H])([H])C([H])(n3nc(-c4c([H])c([H])c(Oc5c([H])c([H])c(F)c([H])c5F)c([H])c4[H])c(C(=O)N([H])[H])c3N([H])[H])C2([H])[H])(C([H])([H])[H])C([H])([H])C([H])([H])[H])c([H])c1[H]

>  <smiles>  (44) 
[H]C(=C(C([H])([H])[H])C([H])([H])Oc1c([H])c([H])c2c(c1[H])C([H])([H])N(C(=O)C([H])(N([H])C(=O)C([H])(N([H])C([H])([H])[H])C([H])([H])[H])C(C([H])([H])[H])(C([H])([H])[H])C([H])([H])[H])C([H])(C(=O)N([H])C1([H])c3c([H])c([H])c([H])c([H])c3C([H])([H])C([H])([H])C1([H])[H])C2([H])[H])c1c([H])c([H])c(C(C(=O)N2C([H])([H])C([H])([H])C([H])([H])C([H])(n3nc(-c4c([H])c([H])c(Oc5c([H])c([H])c(F)c([H])c5F)c([H])c4[H])c(C(=O)N([H])[H])c3N([H])[H])C2([H])[H])(C([H])([H])[H])C([H])([H])C([H])([H])[H])c([H])c1[H]

$$$$
44:0:0
     RDKit          3D

 94102  0  0  1  0  0  0  0  0999 V2000
  -27.4960  -23.1980   18.3640 C   0  0  0  0  0  3  0  0  0  0  0  0
  -29.2210  -24.3090   19.6700 C   0  0  0  0  0  3  0  0  0  0  0  0
  -27.4390  -22.1650   19.3190 C   0  0  0  0  0  3  0  0  0  0  0  0
  -29.1790  -23.2680   20.6170 C   0  0  0  0  0  3  0  0  0  0  0  0
  -28.3860  -24.2800   18.5310 C   0  0  0  0  0  0  0  0  0  0  0  0
  -28.2820  -22.1930   20.4500 C   0  0  0  0  0  0  0  0  0  0  0  0
  -28.3530  -25.3820   17.5560 C   0  0  0  0  0  3  0  0  0  0  0  0
  -28.2410  -26.6940   17.8400 C   0  0  0  0  0  3  0  0  0  0  0  0
  -28.1120  -27.1900   19.1080 O   0  0  0  0  0  0  0  0  0  0  0  0
  -24.8920  -31.5490   23.7080 C   0  0  0  0  0  0  0  0  0  0  0  0
  -26.9880  -27.9310   19.3910 C   0  0  0  0  0  0  0  0  0  0  0  0
  -23.4740  -30.6750   21.8810 C   0  0  0  0  0  3  0  0  0  0  0  0
  -24.7050  -29.4760   20.0020 C   0  0  0  0  0  0  0  0  0  0  0  0
  -25.9960  -30.9450   21.5600 C   0  0  0  0  0  2  0  0  0  0  0  0
  -25.9360  -29.7780   20.5980 C   0  0  0  0  0  0  0  0  0  0  0  0
  -27.0790  -29.0060   20.2990 C   0  0  0  0  0  3  0  0  0  0  0  0
  -25.7340  -27.6250   18.8150 C   0  0  0  0  0  3  0  0  0  0  0  0
  -24.5960  -28.3930   19.1130 C   0  0  0  0  0  3  0  0  0  0  0  0
  -23.5330  -30.3570   20.3630 C   0  0  0  0  0  2  0  0  0  0  0  0
  -24.8110  -31.0540   22.4410 N   0  0  0  0  0  0  0  0  0  0  0  0
  -23.8740  -31.7330   24.3890 O   0  0  0  0  0  0  0  0  0  0  0  0
  -22.8190  -29.4790   22.6090 C   0  0  0  0  0  0  0  0  0  0  0  0
  -21.5010  -29.3140   22.4180 N   0  0  0  0  0  0  0  0  0  0  0  0
  -23.4960  -28.7120   23.2990 O   0  0  0  0  0  0  0  0  0  0  0  0
  -21.0160  -29.9910   21.8460 H   0  0  0  0  0  0  0  0  0  0  0  0
  -18.1950  -27.8600   22.3710 C   0  0  0  0  0  0  0  0  0  0  0  0
  -20.6810  -28.2350   22.9690 C   0  0  0  0  0  3  0  0  0  0  0  0
  -20.9530  -26.8990   22.2390 C   0  0  0  0  0  2  0  0  0  0  0  0
  -19.9940  -26.6450   21.0720 C   0  0  0  0  0  2  0  0  0  0  0  0
  -18.5440  -26.6210   21.5630 C   0  0  0  0  0  2  0  0  0  0  0  0
  -19.1990  -28.6270   23.0180 C   0  0  0  0  0  0  0  0  0  0  0  0
  -18.8240  -29.7900   23.7240 C   0  0  0  0  0  3  0  0  0  0  0  0
  -17.4760  -30.1880   23.7930 C   0  0  0  0  0  3  0  0  0  0  0  0
  -16.4830  -29.4150   23.1650 C   0  0  0  0  0  3  0  0  0  0  0  0
  -16.8430  -28.2530   22.4610 C   0  0  0  0  0  3  0  0  0  0  0  0
  -26.2630  -31.9290   24.3520 C   0  0  0  0  0  3  0  0  0  0  0  0
  -26.1120  -33.2600   24.9550 N   0  0  0  0  0  0  0  0  0  0  0  0
  -26.5320  -34.4010   24.3930 C   0  0  0  0  0  0  0  0  0  0  0  0
  -27.1590  -34.4330   23.3300 O   0  0  0  0  0  0  0  0  0  0  0  0
  -25.5610  -33.3140   25.7990 H   0  0  0  0  0  0  0  0  0  0  0  0
  -24.9950  -36.3900   24.4540 C   0  0  0  0  0  1  0  0  0  0  0  0
  -26.2030  -35.7160   25.1250 C   0  0  0  0  0  3  0  0  0  0  0  0
  -28.4350  -36.2030   26.0250 C   0  0  0  0  0  1  0  0  0  0  0  0
  -27.3400  -36.6610   25.1750 N   0  0  0  0  0  0  0  0  0  0  0  0
  -27.0370  -37.5720   25.5100 H   0  0  0  0  0  0  0  0  0  0  0  0
  -26.7610  -30.8810   25.4210 C   0  0  1  0  0  0  0  0  0  0  0  0
  -25.7050  -30.5440   26.4990 C   0  0  0  0  0  1  0  0  0  0  0  0
  -27.1760  -29.5600   24.7360 C   0  0  0  0  0  1  0  0  0  0  0  0
  -28.0210  -31.4230   26.1390 C   0  0  0  0  0  1  0  0  0  0  0  0
  -28.2290  -21.0730   21.4810 C   0  0  0  0  0  2  0  0  0  0  0  0
  -28.4420  -19.6750   20.8710 C   0  0  0  0  0  2  0  0  0  0  0  0
  -29.8770  -19.4390   20.3380 C   0  0  0  0  0  2  0  0  0  0  0  0
  -30.0900  -18.0850   19.6570 C   0  0  0  0  0  0  0  0  0  0  0  0
  -31.2180  -17.4330   19.9580 N   0  0  0  0  0  0  0  0  0  0  0  0
  -29.2740  -17.6420   18.8460 O   0  0  0  0  0  0  0  0  0  0  0  0
  -31.8490  -17.8620   20.6230 H   0  0  0  0  0  0  0  0  0  0  0  0
  -31.6490  -16.2020   19.2980 C   0  0  0  0  0  2  0  0  0  0  0  0
  -32.3170  -15.2130   20.2660 C   0  0  0  0  0  2  0  0  0  0  0  0
  -32.5720  -13.8820   19.5450 C   0  0  0  0  0  0  0  0  0  0  0  0
  -31.8460  -11.6350   18.8300 C   0  0  0  0  0  2  0  0  0  0  0  0
  -30.8170  -11.7340   17.6870 C   0  0  0  0  0  2  0  0  0  0  0  0
  -29.3890  -11.8800   18.2490 C   0  0  0  0  0  2  0  0  0  0  0  0
  -29.2870  -12.9930   19.3230 C   0  0  0  0  0  3  0  0  0  0  0  0
  -30.4160  -12.8520   20.3700 C   0  0  0  0  0  2  0  0  0  0  0  0
  -31.7120  -12.8360   19.6690 N   0  0  0  0  0  0  0  0  0  0  0  0
  -33.5670  -13.8340   18.8150 O   0  0  0  0  0  0  0  0  0  0  0  0
  -27.2260  -14.0930   20.4100 C   0  0  0  0  0  0  0  0  0  0  0  0
  -26.0350  -13.5740   20.8410 C   0  0  0  0  0  0  0  0  0  0  0  0
  -26.1140  -12.1650   20.6140 C   0  0  0  0  0  0  0  0  0  0  0  0
  -27.9680  -13.0140   19.9520 N   0  0  0  0  0  0  0  0  0  0  0  0
  -27.3070  -11.8420   20.1300 N   0  0  0  0  0  0  0  0  0  0  0  0
  -25.1020  -11.1140   20.7760 C   0  0  0  0  0  0  0  0  0  0  0  0
  -25.3390   -9.9780   21.5830 C   0  0  0  0  0  3  0  0  0  0  0  0
  -24.3440   -8.9890   21.7370 C   0  0  0  0  0  3  0  0  0  0  0  0
  -23.0960   -9.1310   21.0860 C   0  0  0  0  0  0  0  0  0  0  0  0
  -22.8730  -10.2520   20.2670 C   0  0  0  0  0  3  0  0  0  0  0  0
  -23.8670  -11.2320   20.1100 C   0  0  0  0  0  3  0  0  0  0  0  0
  -22.0810   -8.2070   21.1570 O   0  0  0  0  0  0  0  0  0  0  0  0
  -21.8590   -7.4670   22.2900 C   0  0  0  0  0  0  0  0  0  0  0  0
  -21.6070   -8.0730   23.5410 C   0  0  0  0  0  3  0  0  0  0  0  0
  -21.3150   -7.2740   24.6650 C   0  0  0  0  0  3  0  0  0  0  0  0
  -21.2660   -5.8740   24.5400 C   0  0  0  0  0  0  0  0  0  0  0  0
  -21.5120   -5.2680   23.2950 C   0  0  0  0  0  3  0  0  0  0  0  0
  -21.8040   -6.0630   22.1720 C   0  0  0  0  0  0  0  0  0  0  0  0
  -22.0190   -5.4760   20.9700 F   0  0  0  0  0  0  0  0  0  0  0  0
  -20.9790   -5.1060   25.6160 F   0  0  0  0  0  0  0  0  0  0  0  0
  -24.8540  -14.3480   21.3500 C   0  0  0  0  0  0  0  0  0  0  0  0
  -24.0800  -13.7620   22.2580 N   0  0  0  0  0  0  0  0  0  0  0  0
  -24.6340  -15.5010   20.9790 O   0  0  0  0  0  0  0  0  0  0  0  0
  -24.2720  -12.8250   22.5780 H   0  0  0  0  0  0  0  0  0  0  0  0
  -23.2850  -14.2560   22.6360 H   0  0  0  0  0  0  0  0  0  0  0  0
  -27.7260  -15.3890   20.3570 N   0  0  0  0  0  0  0  0  0  0  0  0
  -27.1660  -16.1860   20.6420 H   0  0  0  0  0  0  0  0  0  0  0  0
  -28.6440  -15.6620   20.0220 H   0  0  0  0  0  0  0  0  0  0  0  0
  1  5  2  0
  1  3  1  0
  2  4  2  0
  3  6  2  0
  5  2  1  0
  6  4  1  0
  6 50  1  0
  7  8  2  0
  7  5  1  0
  8  9  1  0
  9 11  1  0
 10 21  2  0
 11 16  1  0
 12 20  1  0
 12 22  1  0
 13 19  1  0
 13 15  1  0
 14 20  1  0
 15 14  1  0
 16 15  2  0
 17 18  1  0
 17 11  2  0
 18 13  2  0
 19 12  1  0
 20 10  1  0
 22 24  2  0
 23 22  1  0
 25 23  1  0
 26 35  2  0
 26 31  1  0
 27 23  1  0
 27 31  1  0
 28 27  1  0
 29 30  1  0
 29 28  1  0
 30 26  1  0
 31 32  2  0
 32 33  1  0
 34 33  2  0
 35 34  1  0
 36 10  1  0
 36 37  1  0
 36 46  1  0
 37 40  1  0
 38 37  1  0
 38 42  1  0
 39 38  2  0
 42 41  1  0
 42 44  1  0
 44 45  1  0
 44 43  1  0
 46 49  1  1
 46 47  1  0
 48 46  1  0
 51 50  1  0
 52 51  1  0
 53 54  1  0
 53 52  1  0
 54 56  1  0
 55 53  2  0
 57 54  1  0
 57 58  1  0
 59 65  1  0
 59 58  1  0
 60 65  1  0
 61 62  1  0
 61 60  1  0
 63 62  1  0
 63 70  1  0
 63 64  1  0
 65 64  1  0
 66 59  2  0
 67 68  2  0
 68 87  1  0
 69 72  1  0
 69 68  1  0
 70 71  1  0
 70 67  1  0
 71 69  2  0
 72 73  1  0
 73 74  2  0
 75 78  1  0
 75 74  1  0
 76 75  2  0
 77 76  1  0
 77 72  2  0
 78 79  1  0
 79 80  1  0
 80 81  2  0
 82 81  1  0
 82 86  1  0
 83 82  2  0
 84 79  2  0
 84 83  1  0
 85 84  1  0
 87 88  1  0
 88 90  1  0
 88 91  1  0
 89 87  2  0
 92 67  1  0
 92 93  1  0
 94 92  1  0
M  ISO  4   8 101   9 101  58 100  59 100
M  END
>  <TORSDO>  (45) 
F 23

>  <SCORE>  (45) 
-9.514

>  <name>  (45) 
44

>  <ligand_id>  (45) 
44

>  <original_smiles>  (45) 
[H]C(Oc1c([H])c([H])c2c(c1[H])C([H])([H])N(C(=O)C([H])(N([H])C(=O)C([H])(N([H])C([H])([H])[H])C([H])([H])[H])C(C([H])([H])[H])(C([H])([H])[H])C([H])([H])[H])C([H])(C(=O)N([H])C1([H])c3c([H])c([H])c([H])c([H])c3C([H])([H])C([H])([H])C1([H])[H])C2([H])[H])=C([H])c1c([H])c([H])c(C([H])([H])C([H])([H])C([H])([H])C(=O)N([H])C([H])([H])C([H])([H])C(=O)N2C([H])([H])C([H])([H])C([H])([H])C([H])(n3nc(-c4c([H])c([H])c(Oc5c([H])c([H])c(F)c([H])c5F)c([H])c4[H])c(C(=O)N([H])[H])c3N([H])[H])C2([H])[H])c([H])c1[H]

>  <smiles>  (45) 
[H]C(Oc1c([H])c([H])c2c(c1[H])C([H])([H])N(C(=O)C([H])(N([H])C(=O)C([H])(N([H])C([H])([H])[H])C([H])([H])[H])C(C([H])([H])[H])(C([H])([H])[H])C([H])([H])[H])C([H])(C(=O)N([H])C1([H])c3c([H])c([H])c([H])c([H])c3C([H])([H])C([H])([H])C1([H])[H])C2([H])[H])=C([H])c1c([H])c([H])c(C([H])([H])C([H])([H])C([H])([H])C(=O)N([H])C([H])([H])C([H])([H])C(=O)N2C([H])([H])C([H])([H])C([H])([H])C([H])(n3nc(-c4c([H])c([H])c(Oc5c([H])c([H])c(F)c([H])c5F)c([H])c4[H])c(C(=O)N([H])[H])c3N([H])[H])C2([H])[H])c([H])c1[H]

$$$$
45:0:0
     RDKit          3D

 90 98  0  0  1  0  0  0  0  0999 V2000
  -28.4870  -22.7270   22.6020 C   0  0  0  0  0  3  0  0  0  0  0  0
  -28.8800  -21.5130   22.0040 C   0  0  0  0  0  3  0  0  0  0  0  0
  -28.3640  -23.8930   21.8210 C   0  0  0  0  0  3  0  0  0  0  0  0
  -29.1540  -21.4650   20.6220 C   0  0  0  0  0  0  0  0  0  0  0  0
  -28.6400  -23.8410   20.4460 C   0  0  0  0  0  0  0  0  0  0  0  0
  -29.0280  -22.6320   19.8740 N   0  0  0  0  0  0  0  0  0  0  0  0
  -29.6620  -20.1130   19.9530 C   0  0  0  0  0  2  0  0  0  0  0  0
  -29.5210  -18.7850   20.7030 N   0  0  0  0  0  4  0  0  0  0  0  0
  -28.5350  -18.6410   20.8340 H   0  0  0  0  0  0  0  0  0  0  0  0
  -29.9260  -18.9280   21.6120 H   0  0  0  0  0  0  0  0  0  0  0  0
  -30.1390  -17.5090   20.1080 C   0  0  0  0  0  3  0  0  0  0  0  0
  -29.8470  -16.0870   20.8280 C   0  0  0  0  0  3  0  0  0  0  0  0
  -30.5880  -14.7630   20.3190 C   0  0  0  0  0  0  0  0  0  0  0  0
  -30.3650  -12.5030   19.2690 C   0  0  0  0  0  2  0  0  0  0  0  0
  -29.4120  -12.6140   18.0570 C   0  0  0  0  0  2  0  0  0  0  0  0
  -27.9430  -12.4580   18.4990 C   0  0  0  0  0  2  0  0  0  0  0  0
  -27.5970  -13.3320   19.7330 C   0  0  0  0  0  3  0  0  0  0  0  0
  -28.6650  -13.1980   20.8410 C   0  0  0  0  0  2  0  0  0  0  0  0
  -29.9670  -13.5360   20.2500 N   0  0  0  0  0  0  0  0  0  0  0  0
  -31.7400  -14.8770   19.8860 O   0  0  0  0  0  0  0  0  0  0  0  0
  -25.2160  -13.9470   20.4740 C   0  0  0  0  0  0  0  0  0  0  0  0
  -24.1480  -13.1820   20.8580 C   0  0  0  0  0  0  0  0  0  0  0  0
  -24.6020  -11.8280   20.8290 C   0  0  0  0  0  0  0  0  0  0  0  0
  -26.2530  -13.0590   20.2330 N   0  0  0  0  0  0  0  0  0  0  0  0
  -25.8900  -11.7800   20.5080 N   0  0  0  0  0  0  0  0  0  0  0  0
  -23.8690  -10.5710   21.0300 C   0  0  0  0  0  0  0  0  0  0  0  0
  -24.3120   -9.5960   21.9500 C   0  0  0  0  0  3  0  0  0  0  0  0
  -23.5780   -8.4050   22.1390 C   0  0  0  0  0  3  0  0  0  0  0  0
  -22.3880   -8.1800   21.4070 C   0  0  0  0  0  0  0  0  0  0  0  0
  -21.9650   -9.1430   20.4750 C   0  0  0  0  0  3  0  0  0  0  0  0
  -22.6990  -10.3250   20.2840 C   0  0  0  0  0  3  0  0  0  0  0  0
  -21.6250   -7.0410   21.5070 O   0  0  0  0  0  0  0  0  0  0  0  0
  -21.6040   -6.2870   22.6520 C   0  0  0  0  0  0  0  0  0  0  0  0
  -21.2350   -6.8350   23.9000 C   0  0  0  0  0  3  0  0  0  0  0  0
  -21.1600   -6.0070   25.0380 C   0  0  0  0  0  3  0  0  0  0  0  0
  -21.4440   -4.6330   24.9300 C   0  0  0  0  0  0  0  0  0  0  0  0
  -21.8080   -4.0840   23.6880 C   0  0  0  0  0  3  0  0  0  0  0  0
  -21.8840   -4.9090   22.5520 C   0  0  0  0  0  0  0  0  0  0  0  0
  -22.2140   -4.3700   21.3530 F   0  0  0  0  0  0  0  0  0  0  0  0
  -21.3660   -3.8360   26.0210 F   0  0  0  0  0  0  0  0  0  0  0  0
  -22.7560  -13.6690   21.1390 C   0  0  0  0  0  0  0  0  0  0  0  0
  -22.0330  -12.9820   22.0150 N   0  0  0  0  0  0  0  0  0  0  0  0
  -22.3220  -14.6950   20.6180 O   0  0  0  0  0  0  0  0  0  0  0  0
  -22.3970  -12.1520   22.4580 H   0  0  0  0  0  0  0  0  0  0  0  0
  -21.0980  -13.2900   22.2460 H   0  0  0  0  0  0  0  0  0  0  0  0
  -25.3890  -15.3150   20.2870 N   0  0  0  0  0  0  0  0  0  0  0  0
  -24.6260  -15.9740   20.3920 H   0  0  0  0  0  0  0  0  0  0  0  0
  -26.2270  -15.7370   19.9080 H   0  0  0  0  0  0  0  0  0  0  0  0
  -28.4790  -25.1490   19.5590 C   0  0  0  0  0  2  0  0  0  0  0  0
  -28.3810  -26.5070   20.1840 O   0  0  0  0  0  0  0  0  0  0  0  0
  -24.6380  -31.9010   23.2240 C   0  0  0  0  0  0  0  0  0  0  0  0
  -27.2380  -27.3340   20.1260 C   0  0  0  0  0  0  0  0  0  0  0  0
  -23.4240  -30.5000   21.5940 C   0  0  0  0  0  3  0  0  0  0  0  0
  -24.8650  -28.9580   20.1480 C   0  0  0  0  0  0  0  0  0  0  0  0
  -25.9620  -30.8240   21.3850 C   0  0  0  0  0  2  0  0  0  0  0  0
  -26.0390  -29.4450   20.7330 C   0  0  0  0  0  0  0  0  0  0  0  0
  -27.2240  -28.6440   20.7130 C   0  0  0  0  0  3  0  0  0  0  0  0
  -26.0290  -26.9020   19.5300 C   0  0  0  0  0  3  0  0  0  0  0  0
  -24.8650  -27.6940   19.5390 C   0  0  0  0  0  3  0  0  0  0  0  0
  -23.6260  -29.8290   20.2110 C   0  0  0  0  0  2  0  0  0  0  0  0
  -24.6950  -31.0930   22.1240 N   0  0  0  0  0  0  0  0  0  0  0  0
  -23.5590  -32.1720   23.7710 O   0  0  0  0  0  0  0  0  0  0  0  0
  -22.7760  -29.4780   22.5600 C   0  0  0  0  0  0  0  0  0  0  0  0
  -21.4510  -29.2900   22.4440 N   0  0  0  0  0  0  0  0  0  0  0  0
  -23.4650  -28.8570   23.3730 O   0  0  0  0  0  0  0  0  0  0  0  0
  -20.9530  -29.8460   21.7620 H   0  0  0  0  0  0  0  0  0  0  0  0
  -18.0880  -28.0570   22.9570 C   0  0  0  0  0  0  0  0  0  0  0  0
  -20.6440  -28.3460   23.2190 C   0  0  0  0  0  3  0  0  0  0  0  0
  -20.7600  -26.9130   22.6510 C   0  0  0  0  0  2  0  0  0  0  0  0
  -19.6600  -26.5740   21.6400 C   0  0  0  0  0  2  0  0  0  0  0  0
  -18.2780  -26.7080   22.2860 C   0  0  0  0  0  2  0  0  0  0  0  0
  -19.1990  -28.8330   23.3810 C   0  0  0  0  0  0  0  0  0  0  0  0
  -18.9660  -30.0970   23.9670 C   0  0  0  0  0  3  0  0  0  0  0  0
  -17.6550  -30.5820   24.1350 C   0  0  0  0  0  3  0  0  0  0  0  0
  -16.5590  -29.8030   23.7270 C   0  0  0  0  0  3  0  0  0  0  0  0
  -16.7760  -28.5430   23.1430 C   0  0  0  0  0  3  0  0  0  0  0  0
  -25.9240  -32.5390   23.8360 C   0  0  0  0  0  3  0  0  0  0  0  0
  -25.6080  -33.9340   24.1770 N   0  0  0  0  0  0  0  0  0  0  0  0
  -25.9250  -34.9930   23.4210 C   0  0  0  0  0  0  0  0  0  0  0  0
  -26.5830  -34.8980   22.3810 O   0  0  0  0  0  0  0  0  0  0  0  0
  -25.0250  -34.0800   24.9880 H   0  0  0  0  0  0  0  0  0  0  0  0
  -24.1810  -36.7760   23.0990 C   0  0  0  0  0  1  0  0  0  0  0  0
  -25.4350  -36.3760   23.8910 C   0  0  0  0  0  3  0  0  0  0  0  0
  -27.5780  -37.2700   24.6960 C   0  0  0  0  0  1  0  0  0  0  0  0
  -26.4590  -37.4370   23.7690 N   0  0  0  0  0  0  0  0  0  0  0  0
  -26.0500  -38.3530   23.9280 H   0  0  0  0  0  0  0  0  0  0  0  0
  -26.4580  -31.7660   25.1050 C   0  0  1  0  0  0  0  0  0  0  0  0
  -25.3780  -31.5230   26.1870 C   0  0  0  0  0  1  0  0  0  0  0  0
  -27.0400  -30.3920   24.7040 C   0  0  0  0  0  1  0  0  0  0  0  0
  -27.6140  -32.5630   25.7540 C   0  0  0  0  0  1  0  0  0  0  0  0
  2  1  1  0
  3  1  2  0
  4  2  2  0
  5  3  1  0
  6  5  2  0
  6  4  1  0
  7  4  1  0
  7  8  1  0
  8  9  1  0
  8 10  1  0
 11  8  1  0
 11 12  2  0
 13 12  1  0
 14 19  1  0
 15 16  1  0
 15 14  1  0
 17 16  1  0
 17 24  1  0
 17 18  1  0
 19 13  1  0
 19 18  1  0
 20 13  2  0
 21 22  2  0
 22 41  1  0
 23 22  1  0
 23 26  1  0
 24 21  1  0
 24 25  1  0
 25 23  2  0
 26 27  1  0
 27 28  2  0
 29 32  1  0
 29 28  1  0
 30 29  2  0
 31 30  1  0
 31 26  2  0
 32 33  1  0
 33 34  1  0
 34 35  2  0
 36 35  1  0
 36 40  1  0
 37 36  2  0
 38 33  2  0
 38 37  1  0
 39 38  1  0
 41 42  1  0
 42 45  1  0
 42 44  1  0
 43 41  2  0
 46 47  1  0
 46 21  1  0
 48 46  1  0
 49 50  1  0
 49  5  1  0
 51 62  2  0
 52 50  1  0
 52 57  1  0
 53 61  1  0
 53 63  1  0
 54 60  1  0
 54 56  1  0
 55 61  1  0
 56 55  1  0
 57 56  2  0
 58 59  1  0
 58 52  2  0
 59 54  2  0
 60 53  1  0
 61 51  1  0
 63 65  2  0
 64 63  1  0
 66 64  1  0
 67 76  2  0
 67 72  1  0
 68 64  1  0
 68 72  1  0
 69 68  1  0
 70 71  1  0
 70 69  1  0
 71 67  1  0
 72 73  2  0
 73 74  1  0
 75 74  2  0
 76 75  1  0
 77 51  1  0
 77 78  1  0
 77 87  1  0
 78 81  1  0
 79 83  1  0
 79 78  1  0
 80 79  2  0
 83 82  1  0
 85 83  1  0
 85 86  1  0
 85 84  1  0
 87 90  1  1
 87 88  1  0
 89 87  1  0
M  ISO  4  12 100  13 100  49 101  50 101
M  END
>  <TORSDO>  (46) 
F 21

>  <SCORE>  (46) 
-13.151

>  <name>  (46) 
45

>  <ligand_id>  (46) 
45

>  <original_smiles>  (46) 
[H]c1c(C([H])([H])Oc2c([H])c([H])c3c(c2[H])C([H])([H])N(C(=O)C([H])(N([H])C(=O)C([H])(N([H])C([H])([H])[H])C([H])([H])[H])C(C([H])([H])[H])(C([H])([H])[H])C([H])([H])[H])C([H])(C(=O)N([H])C2([H])c4c([H])c([H])c([H])c([H])c4C([H])([H])C([H])([H])C2([H])[H])C3([H])[H])nc(C([H])([H])[N+]([H])([H])C([H])([H])C([H])([H])C(=O)N2C([H])([H])C([H])([H])C([H])([H])C([H])(n3nc(-c4c([H])c([H])c(Oc5c([H])c([H])c(F)c([H])c5F)c([H])c4[H])c(C(=O)N([H])[H])c3N([H])[H])C2([H])[H])c([H])c1[H]

>  <smiles>  (46) 
[H]c1c(C([H])([H])Oc2c([H])c([H])c3c(c2[H])C([H])([H])N(C(=O)C([H])(N([H])C(=O)C([H])(N([H])C([H])([H])[H])C([H])([H])[H])C(C([H])([H])[H])(C([H])([H])[H])C([H])([H])[H])C([H])(C(=O)N([H])C2([H])c4c([H])c([H])c([H])c([H])c4C([H])([H])C([H])([H])C2([H])[H])C3([H])[H])nc(C([H])([H])[N+]([H])([H])C([H])([H])C([H])([H])C(=O)N2C([H])([H])C([H])([H])C([H])([H])C([H])(n3nc(-c4c([H])c([H])c(Oc5c([H])c([H])c(F)c([H])c5F)c([H])c4[H])c(C(=O)N([H])[H])c3N([H])[H])C2([H])[H])c([H])c1[H]

$$$$
46:0:0
     RDKit          3D

 93102  0  0  1  0  0  0  0  0999 V2000
  -30.2340  -20.1020   23.0740 C   0  0  0  0  0  3  0  0  0  0  0  0
  -30.3250  -21.4570   22.6780 C   0  0  0  0  0  3  0  0  0  0  0  0
  -31.3780  -20.7950   20.5700 C   0  0  0  0  0  3  0  0  0  0  0  0
  -30.7320  -19.1080   22.2100 C   0  0  0  0  0  0  0  0  0  0  0  0
  -31.2900  -19.4450   20.9790 C   0  0  0  0  0  0  0  0  0  0  0  0
  -30.8970  -21.8190   21.4300 C   0  0  0  0  0  0  0  0  0  0  0  0
  -30.7670  -17.6450   22.4090 C   0  0  0  0  0  0  0  0  0  0  0  0
  -31.7670  -18.2170   20.2230 C   0  0  0  0  0  2  0  0  0  0  0  0
  -31.3870  -17.0150   21.1440 C   0  0  0  0  0  3  0  0  0  0  0  0
  -30.3630  -17.0310   23.4010 O   0  0  0  0  0  0  0  0  0  0  0  0
  -31.0730  -14.8990   19.9080 C   0  0  0  0  0  0  0  0  0  0  0  0
  -30.6610  -12.7270   18.7940 C   0  0  0  0  0  2  0  0  0  0  0  0
  -29.6560  -12.8870   17.6360 C   0  0  0  0  0  2  0  0  0  0  0  0
  -28.2120  -12.7210   18.1500 C   0  0  0  0  0  2  0  0  0  0  0  0
  -27.9290  -13.5910   19.3990 C   0  0  0  0  0  3  0  0  0  0  0  0
  -29.0530  -13.4450   20.4580 C   0  0  0  0  0  2  0  0  0  0  0  0
  -30.3380  -13.7490   19.8070 N   0  0  0  0  0  0  0  0  0  0  0  0
  -32.2120  -14.9730   19.4400 O   0  0  0  0  0  0  0  0  0  0  0  0
  -29.2430  -16.5460   19.9850 C   0  0  0  0  0  1  0  0  0  0  0  0
  -30.5170  -16.0030   20.4850 N   0  0  0  0  0  0  0  0  0  0  0  0
  -25.5990  -14.2460   20.2650 C   0  0  0  0  0  0  0  0  0  0  0  0
  -24.5400  -13.4910   20.6840 C   0  0  0  0  0  0  0  0  0  0  0  0
  -24.9710  -12.1320   20.6060 C   0  0  0  0  0  0  0  0  0  0  0  0
  -26.6090  -13.3440   19.9600 N   0  0  0  0  0  0  0  0  0  0  0  0
  -26.2400  -12.0690   20.2260 N   0  0  0  0  0  0  0  0  0  0  0  0
  -24.2330  -10.8820   20.8120 C   0  0  0  0  0  0  0  0  0  0  0  0
  -24.6700   -9.9140   21.7420 C   0  0  0  0  0  3  0  0  0  0  0  0
  -23.9350   -8.7260   21.9350 C   0  0  0  0  0  3  0  0  0  0  0  0
  -22.7490   -8.4980   21.1970 C   0  0  0  0  0  0  0  0  0  0  0  0
  -22.3310   -9.4550   20.2550 C   0  0  0  0  0  3  0  0  0  0  0  0
  -23.0680  -10.6350   20.0600 C   0  0  0  0  0  3  0  0  0  0  0  0
  -21.9830   -7.3620   21.3010 O   0  0  0  0  0  0  0  0  0  0  0  0
  -21.8980   -6.6590   22.4750 C   0  0  0  0  0  0  0  0  0  0  0  0
  -21.4310   -7.2530   23.6680 C   0  0  0  0  0  3  0  0  0  0  0  0
  -21.2930   -6.4750   24.8350 C   0  0  0  0  0  3  0  0  0  0  0  0
  -21.6110   -5.1040   24.8090 C   0  0  0  0  0  0  0  0  0  0  0  0
  -22.0710   -4.5100   23.6200 C   0  0  0  0  0  3  0  0  0  0  0  0
  -22.2110   -5.2850   22.4560 C   0  0  0  0  0  0  0  0  0  0  0  0
  -22.6340   -4.7030   21.3080 F   0  0  0  0  0  0  0  0  0  0  0  0
  -21.4710   -4.3530   25.9260 F   0  0  0  0  0  0  0  0  0  0  0  0
  -23.1690  -13.9920   21.0390 C   0  0  0  0  0  0  0  0  0  0  0  0
  -22.4800  -13.3000   21.9390 N   0  0  0  0  0  0  0  0  0  0  0  0
  -22.7210  -15.0300   20.5550 O   0  0  0  0  0  0  0  0  0  0  0  0
  -22.8560  -12.4590   22.3520 H   0  0  0  0  0  0  0  0  0  0  0  0
  -21.5630  -13.6160   22.2210 H   0  0  0  0  0  0  0  0  0  0  0  0
  -25.7760  -15.6170   20.0950 N   0  0  0  0  0  0  0  0  0  0  0  0
  -25.0260  -16.2790   20.2570 H   0  0  0  0  0  0  0  0  0  0  0  0
  -26.6090  -16.0460   19.7140 H   0  0  0  0  0  0  0  0  0  0  0  0
  -31.1000  -23.2930   21.0510 C   0  0  0  0  0  2  0  0  0  0  0  0
  -29.9120  -24.2710   21.2740 C   0  0  0  0  0  2  0  0  0  0  0  0
  -30.3250  -25.7500   21.0430 C   0  0  0  0  0  2  0  0  0  0  0  0
  -29.2290  -26.8250   21.2480 C   0  0  0  0  0  2  0  0  0  0  0  0
  -28.3840  -26.9160   20.1030 O   0  0  0  0  0  0  0  0  0  0  0  0
  -24.6640  -32.1030   23.3810 C   0  0  0  0  0  0  0  0  0  0  0  0
  -27.2570  -27.7040   20.2010 C   0  0  0  0  0  0  0  0  0  0  0  0
  -23.4230  -30.7130   21.7520 C   0  0  0  0  0  3  0  0  0  0  0  0
  -24.8510  -29.1940   20.2800 C   0  0  0  0  0  0  0  0  0  0  0  0
  -25.9410  -31.0840   21.5000 C   0  0  0  0  0  2  0  0  0  0  0  0
  -26.0180  -29.7160   20.8560 C   0  0  0  0  0  0  0  0  0  0  0  0
  -27.2240  -28.9750   20.8260 C   0  0  0  0  0  3  0  0  0  0  0  0
  -26.0790  -27.2040   19.6120 C   0  0  0  0  0  3  0  0  0  0  0  0
  -24.8750  -27.9340   19.6590 C   0  0  0  0  0  3  0  0  0  0  0  0
  -23.6040  -30.0460   20.3620 C   0  0  0  0  0  2  0  0  0  0  0  0
  -24.6950  -31.3140   22.2700 N   0  0  0  0  0  0  0  0  0  0  0  0
  -23.5960  -32.3660   23.9500 O   0  0  0  0  0  0  0  0  0  0  0  0
  -22.7980  -29.6810   22.7180 C   0  0  0  0  0  0  0  0  0  0  0  0
  -21.4820  -29.4510   22.5800 N   0  0  0  0  0  0  0  0  0  0  0  0
  -23.4950  -29.0880   23.5470 O   0  0  0  0  0  0  0  0  0  0  0  0
  -20.9800  -29.9820   21.8820 H   0  0  0  0  0  0  0  0  0  0  0  0
  -18.1560  -28.1090   23.0170 C   0  0  0  0  0  0  0  0  0  0  0  0
  -20.6900  -28.4940   23.3510 C   0  0  0  0  0  3  0  0  0  0  0  0
  -20.8760  -27.0560   22.8140 C   0  0  0  0  0  2  0  0  0  0  0  0
  -19.8190  -26.6580   21.7790 C   0  0  0  0  0  2  0  0  0  0  0  0
  -18.4150  -26.7530   22.3810 C   0  0  0  0  0  2  0  0  0  0  0  0
  -19.2260  -28.9330   23.4590 C   0  0  0  0  0  0  0  0  0  0  0  0
  -18.9320  -30.1990   24.0110 C   0  0  0  0  0  3  0  0  0  0  0  0
  -17.6020  -30.6420   24.1260 C   0  0  0  0  0  3  0  0  0  0  0  0
  -16.5460  -29.8170   23.7030 C   0  0  0  0  0  3  0  0  0  0  0  0
  -16.8240  -28.5520   23.1550 C   0  0  0  0  0  3  0  0  0  0  0  0
  -25.9630  -32.7300   23.9750 C   0  0  0  0  0  3  0  0  0  0  0  0
  -26.4900  -31.9750   25.2580 C   0  0  1  0  0  0  0  0  0  0  0  0
  -25.4030  -31.7510   26.3340 C   0  0  0  0  0  1  0  0  0  0  0  0
  -27.0710  -30.5930   24.8770 C   0  0  0  0  0  1  0  0  0  0  0  0
  -27.6440  -32.7770   25.9010 C   0  0  0  0  0  1  0  0  0  0  0  0
  -25.6760  -34.1370   24.2810 N   0  0  0  0  0  0  0  0  0  0  0  0
  -26.0320  -35.1710   23.5060 C   0  0  0  0  0  0  0  0  0  0  0  0
  -26.7070  -35.0400   22.4820 O   0  0  0  0  0  0  0  0  0  0  0  0
  -25.0790  -34.3150   25.0740 H   0  0  0  0  0  0  0  0  0  0  0  0
  -24.3370  -36.9840   23.1040 C   0  0  0  0  0  1  0  0  0  0  0  0
  -25.5630  -36.5740   23.9350 C   0  0  0  0  0  3  0  0  0  0  0  0
  -27.7010  -37.4380   24.7750 C   0  0  0  0  0  1  0  0  0  0  0  0
  -26.6140  -37.6080   23.8160 N   0  0  0  0  0  0  0  0  0  0  0  0
  -26.2210  -38.5370   23.9430 H   0  0  0  0  0  0  0  0  0  0  0  0
  2  1  1  0
  3  5  2  0
  3  6  1  0
  4  7  1  0
  4  1  2  0
  5  4  1  0
  6  2  2  0
  7 10  2  0
  8  5  1  0
  8  9  1  0
  9 20  1  0
  9  7  1  0
 11 20  1  0
 12 17  1  0
 13 14  1  0
 13 12  1  0
 15 14  1  0
 15 24  1  0
 15 16  1  0
 17 11  1  0
 17 16  1  0
 18 11  2  0
 19 20  1  0
 21 22  2  0
 22 41  1  0
 23 22  1  0
 23 26  1  0
 24 25  1  0
 24 21  1  0
 25 23  2  0
 26 27  1  0
 27 28  2  0
 29 32  1  0
 29 28  1  0
 30 29  2  0
 31 30  1  0
 31 26  2  0
 32 33  1  0
 33 34  1  0
 34 35  2  0
 36 35  1  0
 36 40  1  0
 37 36  2  0
 38 33  2  0
 38 37  1  0
 39 38  1  0
 41 42  1  0
 42 45  1  0
 42 44  1  0
 43 41  2  0
 46 47  1  0
 46 21  1  0
 48 46  1  0
 49 50  1  0
 49  6  1  0
 51 52  1  0
 51 50  1  0
 53 55  1  0
 53 52  1  0
 54 65  2  0
 55 60  1  0
 56 64  1  0
 56 66  1  0
 57 63  1  0
 57 59  1  0
 58 64  1  0
 59 58  1  0
 60 59  2  0
 61 62  1  0
 61 55  2  0
 62 57  2  0
 63 56  1  0
 64 54  1  0
 66 68  2  0
 67 66  1  0
 69 67  1  0
 70 79  2  0
 70 75  1  0
 71 67  1  0
 71 75  1  0
 72 71  1  0
 73 74  1  0
 73 72  1  0
 74 70  1  0
 75 76  2  0
 76 77  1  0
 78 77  2  0
 79 78  1  0
 80 54  1  0
 80 85  1  0
 80 81  1  0
 81 84  1  1
 81 82  1  0
 83 81  1  0
 85 88  1  0
 86 90  1  0
 86 85  1  0
 87 86  2  0
 90 89  1  0
 92 90  1  0
 92 93  1  0
 92 91  1  0
M  ISO  4  11 100  20 100  52 101  53 101
M  END
>  <TORSDO>  (47) 
F 20

>  <SCORE>  (47) 
-12.545

>  <name>  (47) 
46

>  <ligand_id>  (47) 
46

>  <original_smiles>  (47) 
[H]c1c([H])c([H])c2c(c1[H])C([H])([H])C([H])([H])C([H])([H])C2([H])N([H])C(=O)C1([H])N(C(=O)C([H])(N([H])C(=O)C([H])(N([H])C([H])([H])[H])C([H])([H])[H])C(C([H])([H])[H])(C([H])([H])[H])C([H])([H])[H])C([H])([H])c2c([H])c(OC([H])([H])C([H])([H])C([H])([H])C([H])([H])c3c([H])c([H])c4c(c3[H])C([H])([H])C([H])(N(C(=O)N3C([H])([H])C([H])([H])C([H])([H])C([H])(n5nc(-c6c([H])c([H])c(Oc7c([H])c([H])c(F)c([H])c7F)c([H])c6[H])c(C(=O)N([H])[H])c5N([H])[H])C3([H])[H])C([H])([H])[H])C4=O)c([H])c([H])c2C1([H])[H]

>  <smiles>  (47) 
[H]c1c([H])c([H])c2c(c1[H])C([H])([H])C([H])([H])C([H])([H])C2([H])N([H])C(=O)C1([H])N(C(=O)C([H])(N([H])C(=O)C([H])(N([H])C([H])([H])[H])C([H])([H])[H])C(C([H])([H])[H])(C([H])([H])[H])C([H])([H])[H])C([H])([H])c2c([H])c(OC([H])([H])C([H])([H])C([H])([H])C([H])([H])c3c([H])c([H])c4c(c3[H])C([H])([H])C([H])(N(C(=O)N3C([H])([H])C([H])([H])C([H])([H])C([H])(n5nc(-c6c([H])c([H])c(Oc7c([H])c([H])c(F)c([H])c7F)c([H])c6[H])c(C(=O)N([H])[H])c5N([H])[H])C3([H])[H])C([H])([H])[H])C4=O)c([H])c([H])c2C1([H])[H]

$$$$
47:0:0
     RDKit          3D

 94102  0  0  1  0  0  0  0  0999 V2000
  -32.2360  -19.6740   17.4010 C   0  0  0  0  0  3  0  0  0  0  0  0
  -31.5690  -19.0710   19.6640 C   0  0  0  0  0  3  0  0  0  0  0  0
  -32.0210  -21.0350   17.7010 C   0  0  0  0  0  3  0  0  0  0  0  0
  -31.3540  -20.4320   19.9650 C   0  0  0  0  0  3  0  0  0  0  0  0
  -32.0420  -18.6830   18.3880 C   0  0  0  0  0  0  0  0  0  0  0  0
  -31.6010  -21.4200   18.9910 C   0  0  0  0  0  0  0  0  0  0  0  0
  -32.3390  -17.2390   18.0820 C   0  0  0  0  0  0  0  0  0  0  0  0
  -32.8430  -16.5470   19.1070 N   0  0  0  0  0  0  0  0  0  0  0  0
  -32.1950  -16.7720   16.9510 O   0  0  0  0  0  0  0  0  0  0  0  0
  -32.9300  -17.0550   19.9770 H   0  0  0  0  0  0  0  0  0  0  0  0
  -33.3090  -15.1580   19.1190 C   0  0  0  0  0  2  0  0  0  0  0  0
  -32.2110  -14.0560   19.1240 C   0  0  0  0  0  2  0  0  0  0  0  0
  -31.1050  -14.1320   20.2150 C   0  0  0  0  0  0  0  0  0  0  0  0
  -30.2370  -12.0540   19.3510 C   0  0  0  0  0  2  0  0  0  0  0  0
  -29.3810  -12.4250   18.1420 C   0  0  0  0  0  2  0  0  0  0  0  0
  -27.9210  -12.4380   18.5930 C   0  0  0  0  0  2  0  0  0  0  0  0
  -27.6670  -13.2950   19.8670 C   0  0  0  0  0  3  0  0  0  0  0  0
  -28.8020  -13.1630   20.9450 C   0  0  0  0  0  2  0  0  0  0  0  0
  -30.1360  -13.1690   20.2800 N   0  0  0  0  0  0  0  0  0  0  0  0
  -31.2020  -15.0970   20.9220 O   0  0  0  0  0  0  0  0  0  0  0  0
  -25.2400  -13.9060   20.5340 C   0  0  0  0  0  0  0  0  0  0  0  0
  -24.1570  -13.1410   20.8790 C   0  0  0  0  0  0  0  0  0  0  0  0
  -24.6140  -11.7880   20.8810 C   0  0  0  0  0  0  0  0  0  0  0  0
  -26.3040  -13.0290   20.3640 N   0  0  0  0  0  0  0  0  0  0  0  0
  -25.9200  -11.7470   20.6260 N   0  0  0  0  0  0  0  0  0  0  0  0
  -23.8710  -10.5290   21.0610 C   0  0  0  0  0  0  0  0  0  0  0  0
  -24.2870   -9.5560   21.9970 C   0  0  0  0  0  3  0  0  0  0  0  0
  -23.5480   -8.3650   22.1730 C   0  0  0  0  0  3  0  0  0  0  0  0
  -22.3750   -8.1370   21.4160 C   0  0  0  0  0  0  0  0  0  0  0  0
  -21.9750   -9.0990   20.4700 C   0  0  0  0  0  3  0  0  0  0  0  0
  -22.7160  -10.2800   20.2910 C   0  0  0  0  0  3  0  0  0  0  0  0
  -21.6090   -7.0000   21.5040 O   0  0  0  0  0  0  0  0  0  0  0  0
  -21.5640   -6.2470   22.6510 C   0  0  0  0  0  0  0  0  0  0  0  0
  -21.1760   -6.8010   23.8910 C   0  0  0  0  0  3  0  0  0  0  0  0
  -21.0770   -5.9770   25.0300 C   0  0  0  0  0  3  0  0  0  0  0  0
  -21.3550   -4.6000   24.9300 C   0  0  0  0  0  0  0  0  0  0  0  0
  -21.7360   -4.0460   23.6960 C   0  0  0  0  0  3  0  0  0  0  0  0
  -21.8370   -4.8680   22.5590 C   0  0  0  0  0  0  0  0  0  0  0  0
  -22.1820   -4.3230   21.3660 F   0  0  0  0  0  0  0  0  0  0  0  0
  -21.2520   -3.8070   26.0230 F   0  0  0  0  0  0  0  0  0  0  0  0
  -22.7520  -13.6240   21.1030 C   0  0  0  0  0  0  0  0  0  0  0  0
  -21.9980  -12.9430   21.9610 N   0  0  0  0  0  0  0  0  0  0  0  0
  -22.3280  -14.6420   20.5550 O   0  0  0  0  0  0  0  0  0  0  0  0
  -22.3520  -12.1220   22.4270 H   0  0  0  0  0  0  0  0  0  0  0  0
  -21.0550  -13.2500   22.1550 H   0  0  0  0  0  0  0  0  0  0  0  0
  -25.4060  -15.2720   20.3260 N   0  0  0  0  0  0  0  0  0  0  0  0
  -24.6350  -15.9280   20.3970 H   0  0  0  0  0  0  0  0  0  0  0  0
  -26.2770  -15.7090   20.0500 H   0  0  0  0  0  0  0  0  0  0  0  0
  -31.4490  -22.8900   19.3430 C   0  0  0  0  0  2  0  0  0  0  0  0
  -29.9890  -23.3780   19.2940 C   0  0  0  0  0  2  0  0  0  0  0  0
  -29.8310  -24.8580   19.6640 C   0  0  0  0  0  0  0  0  0  0  0  0
  -30.7950  -25.5430   20.0260 O   0  0  0  0  0  0  0  0  0  0  0  0
  -28.4220  -25.4490   19.5580 C   0  0  0  0  0  2  0  0  0  0  0  0
  -28.4010  -26.7710   20.1000 O   0  0  0  0  0  0  0  0  0  0  0  0
  -24.5930  -31.8740   23.2440 C   0  0  0  0  0  0  0  0  0  0  0  0
  -27.2000  -27.4450   20.1170 C   0  0  0  0  0  0  0  0  0  0  0  0
  -23.3660  -30.4790   21.6110 C   0  0  0  0  0  3  0  0  0  0  0  0
  -24.7990  -28.9410   20.1710 C   0  0  0  0  0  0  0  0  0  0  0  0
  -25.8890  -30.8320   21.3910 C   0  0  0  0  0  2  0  0  0  0  0  0
  -25.9630  -29.4630   20.7480 C   0  0  0  0  0  0  0  0  0  0  0  0
  -27.1620  -28.7200   20.7220 C   0  0  0  0  0  3  0  0  0  0  0  0
  -26.0120  -26.9250   19.5480 C   0  0  0  0  0  3  0  0  0  0  0  0
  -24.8170  -27.6690   19.5730 C   0  0  0  0  0  3  0  0  0  0  0  0
  -23.5600  -29.8020   20.2270 C   0  0  0  0  0  2  0  0  0  0  0  0
  -24.6340  -31.0750   22.1400 N   0  0  0  0  0  0  0  0  0  0  0  0
  -23.5170  -32.1490   23.7940 O   0  0  0  0  0  0  0  0  0  0  0  0
  -22.7220  -29.4570   22.5730 C   0  0  0  0  0  0  0  0  0  0  0  0
  -21.3970  -29.2740   22.4520 N   0  0  0  0  0  0  0  0  0  0  0  0
  -23.4090  -28.8310   23.3850 O   0  0  0  0  0  0  0  0  0  0  0  0
  -20.9050  -29.8290   21.7650 H   0  0  0  0  0  0  0  0  0  0  0  0
  -18.0260  -28.0730   22.9490 C   0  0  0  0  0  0  0  0  0  0  0  0
  -20.5820  -28.3370   23.2240 C   0  0  0  0  0  3  0  0  0  0  0  0
  -20.6900  -26.9050   22.6520 C   0  0  0  0  0  2  0  0  0  0  0  0
  -19.5900  -26.5760   21.6380 C   0  0  0  0  0  2  0  0  0  0  0  0
  -18.2070  -26.7210   22.2800 C   0  0  0  0  0  2  0  0  0  0  0  0
  -19.1430  -28.8390   23.3770 C   0  0  0  0  0  0  0  0  0  0  0  0
  -18.9210  -30.1050   23.9610 C   0  0  0  0  0  3  0  0  0  0  0  0
  -17.6150  -30.6060   24.1200 C   0  0  0  0  0  3  0  0  0  0  0  0
  -16.5130  -29.8360   23.7090 C   0  0  0  0  0  3  0  0  0  0  0  0
  -16.7190  -28.5720   23.1290 C   0  0  0  0  0  3  0  0  0  0  0  0
  -25.8880  -32.4960   23.8540 C   0  0  0  0  0  3  0  0  0  0  0  0
  -25.5880  -33.8930   24.1940 N   0  0  0  0  0  0  0  0  0  0  0  0
  -25.9140  -34.9470   23.4340 C   0  0  0  0  0  0  0  0  0  0  0  0
  -26.5720  -34.8460   22.3960 O   0  0  0  0  0  0  0  0  0  0  0  0
  -25.0040  -34.0470   25.0030 H   0  0  0  0  0  0  0  0  0  0  0  0
  -24.1840  -36.7400   23.1030 C   0  0  0  0  0  1  0  0  0  0  0  0
  -25.4320  -36.3340   23.9010 C   0  0  0  0  0  3  0  0  0  0  0  0
  -27.5810  -37.2080   24.7060 C   0  0  0  0  0  1  0  0  0  0  0  0
  -26.4640  -37.3870   23.7810 N   0  0  0  0  0  0  0  0  0  0  0  0
  -26.0620  -38.3060   23.9450 H   0  0  0  0  0  0  0  0  0  0  0  0
  -26.4180  -31.7140   25.1170 C   0  0  1  0  0  0  0  0  0  0  0  0
  -25.3410  -31.4750   26.2000 C   0  0  0  0  0  1  0  0  0  0  0  0
  -26.9890  -30.3370   24.7070 C   0  0  0  0  0  1  0  0  0  0  0  0
  -27.5850  -32.4970   25.7670 C   0  0  0  0  0  1  0  0  0  0  0  0
  1  3  2  0
  1  5  1  0
  2  4  1  0
  3  6  1  0
  5  2  2  0
  6 49  1  0
  6  4  2  0
  7  5  1  0
  7  8  1  0
  8 11  1  0
  8 10  1  0
  9  7  2  0
 11 12  1  0
 12 13  1  0
 13 19  1  0
 13 20  2  0
 14 19  1  0
 15 16  1  0
 15 14  1  0
 17 16  1  0
 17 24  1  0
 17 18  1  0
 19 18  1  0
 21 22  2  0
 22 23  1  0
 22 41  1  0
 23 26  1  0
 24 21  1  0
 24 25  1  0
 25 23  2  0
 26 27  1  0
 27 28  2  0
 29 32  1  0
 29 28  1  0
 30 29  2  0
 31 30  1  0
 31 26  2  0
 32 33  1  0
 33 34  1  0
 34 35  2  0
 36 35  1  0
 36 40  1  0
 37 36  2  0
 38 33  2  0
 38 37  1  0
 39 38  1  0
 41 42  1  0
 42 45  1  0
 42 44  1  0
 43 41  2  0
 46 47  1  0
 46 21  1  0
 48 46  1  0
 50 49  1  0
 50 51  1  0
 51 52  2  0
 53 51  1  0
 53 54  1  0
 54 56  1  0
 55 66  2  0
 56 61  1  0
 57 65  1  0
 57 67  1  0
 58 64  1  0
 58 60  1  0
 59 65  1  0
 60 59  1  0
 61 60  2  0
 62 63  1  0
 62 56  2  0
 63 58  2  0
 64 57  1  0
 65 55  1  0
 67 69  2  0
 68 67  1  0
 70 68  1  0
 71 80  2  0
 71 76  1  0
 72 68  1  0
 72 76  1  0
 73 72  1  0
 74 75  1  0
 74 73  1  0
 75 71  1  0
 76 77  2  0
 77 78  1  0
 79 78  2  0
 80 79  1  0
 81 55  1  0
 81 82  1  0
 81 91  1  0
 82 85  1  0
 83 87  1  0
 83 82  1  0
 84 83  2  0
 87 86  1  0
 89 87  1  0
 89 90  1  0
 89 88  1  0
 91 94  1  1
 91 92  1  0
 93 91  1  0
M  ISO  4  12 100  13 100  53 101  54 101
M  END
>  <TORSDO>  (48) 
F 23

>  <SCORE>  (48) 
-12.640

>  <name>  (48) 
47

>  <ligand_id>  (48) 
47

>  <original_smiles>  (48) 
[H]c1c([H])c([H])c2c(c1[H])C([H])([H])C([H])([H])C([H])([H])C2([H])N([H])C(=O)C1([H])N(C(=O)C([H])(N([H])C(=O)C([H])(N([H])C([H])([H])[H])C([H])([H])[H])C(C([H])([H])[H])(C([H])([H])[H])C([H])([H])[H])C([H])([H])c2c([H])c(OC([H])([H])C(=O)C([H])([H])C([H])([H])c3c([H])c([H])c(C(=O)N([H])C([H])([H])C([H])([H])C(=O)N4C([H])([H])C([H])([H])C([H])([H])C([H])(n5nc(-c6c([H])c([H])c(Oc7c([H])c([H])c(F)c([H])c7F)c([H])c6[H])c(C(=O)N([H])[H])c5N([H])[H])C4([H])[H])c([H])c3[H])c([H])c([H])c2C1([H])[H]

>  <smiles>  (48) 
[H]c1c([H])c([H])c2c(c1[H])C([H])([H])C([H])([H])C([H])([H])C2([H])N([H])C(=O)C1([H])N(C(=O)C([H])(N([H])C(=O)C([H])(N([H])C([H])([H])[H])C([H])([H])[H])C(C([H])([H])[H])(C([H])([H])[H])C([H])([H])[H])C([H])([H])c2c([H])c(OC([H])([H])C(=O)C([H])([H])C([H])([H])c3c([H])c([H])c(C(=O)N([H])C([H])([H])C([H])([H])C(=O)N4C([H])([H])C([H])([H])C([H])([H])C([H])(n5nc(-c6c([H])c([H])c(Oc7c([H])c([H])c(F)c([H])c7F)c([H])c6[H])c(C(=O)N([H])[H])c5N([H])[H])C4([H])[H])c([H])c3[H])c([H])c([H])c2C1([H])[H]

$$$$
48:0:0
     RDKit          3D

 93101  0  0  1  0  0  0  0  0999 V2000
  -29.8850  -19.1410   18.6300 C   0  0  0  0  0  3  0  0  0  0  0  0
  -29.5890  -20.5290   18.5970 C   0  0  0  0  0  3  0  0  0  0  0  0
  -29.3170  -19.0570   20.9620 C   0  0  0  0  0  3  0  0  0  0  0  0
  -29.7280  -18.3540   19.8020 C   0  0  0  0  0  0  0  0  0  0  0  0
  -29.0970  -21.2220   19.7320 C   0  0  0  0  0  0  0  0  0  0  0  0
  -29.0010  -20.4560   20.9360 C   0  0  0  0  0  0  0  0  0  0  0  0
  -28.5050  -21.0750   22.2310 C   0  0  0  0  0  1  0  0  0  0  0  0
  -30.9070  -14.9040   20.7100 C   0  0  0  0  0  0  0  0  0  0  0  0
  -30.6820  -12.5970   19.8240 C   0  0  0  0  0  2  0  0  0  0  0  0
  -29.8340  -12.6010   18.5380 C   0  0  0  0  0  2  0  0  0  0  0  0
  -28.3360  -12.4880   18.8800 C   0  0  0  0  0  2  0  0  0  0  0  0
  -27.8920  -13.4710   19.9980 C   0  0  0  0  0  3  0  0  0  0  0  0
  -28.8730  -13.4650   21.1880 C   0  0  0  0  0  2  0  0  0  0  0  0
  -30.2150  -13.7230   20.6520 N   0  0  0  0  0  0  0  0  0  0  0  0
  -32.1190  -14.9370   20.4870 O   0  0  0  0  0  0  0  0  0  0  0  0
  -29.8480  -16.8200   19.7190 C   0  0  0  0  0  0  0  0  0  0  0  0
  -30.2210  -16.0800   20.8010 N   0  0  0  0  0  0  0  0  0  0  0  0
  -29.6310  -16.2970   18.6190 O   0  0  0  0  0  0  0  0  0  0  0  0
  -30.5390  -16.6800   21.5450 H   0  0  0  0  0  0  0  0  0  0  0  0
  -25.4870  -14.1340   20.6090 C   0  0  0  0  0  0  0  0  0  0  0  0
  -24.3790  -13.3920   20.9090 C   0  0  0  0  0  0  0  0  0  0  0  0
  -24.7990  -12.0260   20.8850 C   0  0  0  0  0  0  0  0  0  0  0  0
  -26.5140  -13.2240   20.4160 N   0  0  0  0  0  0  0  0  0  0  0  0
  -26.1030  -11.9520   20.6480 N   0  0  0  0  0  0  0  0  0  0  0  0
  -24.0250  -10.7840   21.0190 C   0  0  0  0  0  0  0  0  0  0  0  0
  -24.4080   -9.7680   21.9220 C   0  0  0  0  0  3  0  0  0  0  0  0
  -23.6340   -8.5940   22.0470 C   0  0  0  0  0  3  0  0  0  0  0  0
  -22.4650   -8.4270   21.2660 C   0  0  0  0  0  0  0  0  0  0  0  0
  -22.1020   -9.4330   20.3540 C   0  0  0  0  0  3  0  0  0  0  0  0
  -22.8750  -10.5980   20.2270 C   0  0  0  0  0  3  0  0  0  0  0  0
  -21.6670   -7.3090   21.3030 O   0  0  0  0  0  0  0  0  0  0  0  0
  -21.6180   -6.4950   22.4060 C   0  0  0  0  0  0  0  0  0  0  0  0
  -21.2480   -6.9850   23.6770 C   0  0  0  0  0  3  0  0  0  0  0  0
  -21.1400   -6.1010   24.7700 C   0  0  0  0  0  3  0  0  0  0  0  0
  -21.3930   -4.7280   24.5920 C   0  0  0  0  0  0  0  0  0  0  0  0
  -21.7570   -4.2380   23.3270 C   0  0  0  0  0  3  0  0  0  0  0  0
  -21.8650   -5.1170   22.2360 C   0  0  0  0  0  0  0  0  0  0  0  0
  -22.1960   -4.6350   21.0130 F   0  0  0  0  0  0  0  0  0  0  0  0
  -21.2830   -3.8770   25.6400 F   0  0  0  0  0  0  0  0  0  0  0  0
  -22.9830  -13.9100   21.1080 C   0  0  0  0  0  0  0  0  0  0  0  0
  -22.1900  -13.2360   21.9330 N   0  0  0  0  0  0  0  0  0  0  0  0
  -22.6050  -14.9480   20.5680 O   0  0  0  0  0  0  0  0  0  0  0  0
  -22.5080  -12.3970   22.3940 H   0  0  0  0  0  0  0  0  0  0  0  0
  -21.2510  -13.5660   22.1070 H   0  0  0  0  0  0  0  0  0  0  0  0
  -25.7010  -15.5010   20.4550 N   0  0  0  0  0  0  0  0  0  0  0  0
  -24.9460  -16.1740   20.5260 H   0  0  0  0  0  0  0  0  0  0  0  0
  -26.5710  -15.9130   20.1410 H   0  0  0  0  0  0  0  0  0  0  0  0
  -28.4490  -22.6450   19.5290 C   0  0  0  0  0  2  0  0  0  0  0  0
  -29.4580  -24.1560   21.3480 C   0  0  0  0  0  1  0  0  0  0  0  0
  -30.4560  -24.1800   19.0530 C   0  0  0  0  0  1  0  0  0  0  0  0
  -29.1480  -24.0480   19.8460 C   0  0  1  0  0  0  0  0  0  0  0  0
  -28.1410  -25.2160   19.4420 C   0  0  0  0  0  2  0  0  0  0  0  0
  -28.3700  -26.6570   19.6930 O   0  0  0  0  0  0  0  0  0  0  0  0
  -24.5040  -31.7700   23.0050 C   0  0  0  0  0  0  0  0  0  0  0  0
  -27.2280  -27.4780   19.6830 C   0  0  0  0  0  0  0  0  0  0  0  0
  -23.3210  -30.3940   21.3330 C   0  0  0  0  0  3  0  0  0  0  0  0
  -24.8000  -28.9840   19.8060 C   0  0  0  0  0  0  0  0  0  0  0  0
  -25.8410  -30.8340   21.1090 C   0  0  0  0  0  2  0  0  0  0  0  0
  -25.9630  -29.4920   20.3980 C   0  0  0  0  0  0  0  0  0  0  0  0
  -27.1800  -28.7490   20.3330 C   0  0  0  0  0  3  0  0  0  0  0  0
  -26.0380  -27.0420   19.0490 C   0  0  0  0  0  3  0  0  0  0  0  0
  -24.8380  -27.7630   19.1250 C   0  0  0  0  0  3  0  0  0  0  0  0
  -23.5300  -29.7970   19.9200 C   0  0  0  0  0  2  0  0  0  0  0  0
  -24.5740  -31.0150   21.8720 N   0  0  0  0  0  0  0  0  0  0  0  0
  -23.4230  -31.9740   23.5760 O   0  0  0  0  0  0  0  0  0  0  0  0
  -22.7310  -29.3030   22.2580 C   0  0  0  0  0  0  0  0  0  0  0  0
  -21.4090  -29.0800   22.1620 N   0  0  0  0  0  0  0  0  0  0  0  0
  -23.4580  -28.6650   23.0230 O   0  0  0  0  0  0  0  0  0  0  0  0
  -20.8790  -29.6510   21.5190 H   0  0  0  0  0  0  0  0  0  0  0  0
  -18.0960  -27.7310   22.7030 C   0  0  0  0  0  0  0  0  0  0  0  0
  -20.6510  -28.0770   22.9110 C   0  0  0  0  0  3  0  0  0  0  0  0
  -20.7880  -26.6780   22.2660 C   0  0  0  0  0  2  0  0  0  0  0  0
  -19.6680  -26.3590   21.2710 C   0  0  0  0  0  2  0  0  0  0  0  0
  -18.3030  -26.4220   21.9610 C   0  0  0  0  0  2  0  0  0  0  0  0
  -19.1980  -28.5150   23.1360 C   0  0  0  0  0  0  0  0  0  0  0  0
  -18.9510  -29.7400   23.7930 C   0  0  0  0  0  3  0  0  0  0  0  0
  -17.6340  -30.1830   24.0190 C   0  0  0  0  0  3  0  0  0  0  0  0
  -16.5470  -29.3960   23.6000 C   0  0  0  0  0  3  0  0  0  0  0  0
  -16.7790  -28.1710   22.9510 C   0  0  0  0  0  3  0  0  0  0  0  0
  -25.7730  -32.4320   23.6250 C   0  0  0  0  0  3  0  0  0  0  0  0
  -26.3510  -31.6330   24.8580 C   0  0  1  0  0  0  0  0  0  0  0  0
  -25.2940  -31.3150   25.9420 C   0  0  0  0  0  1  0  0  0  0  0  0
  -26.9740  -30.2940   24.4000 C   0  0  0  0  0  1  0  0  0  0  0  0
  -27.4870  -32.4460   25.5220 C   0  0  0  0  0  1  0  0  0  0  0  0
  -25.4110  -33.8000   24.0180 N   0  0  0  0  0  0  0  0  0  0  0  0
  -25.6850  -34.8970   23.2980 C   0  0  0  0  0  0  0  0  0  0  0  0
  -26.3380  -34.8640   22.2520 O   0  0  0  0  0  0  0  0  0  0  0  0
  -24.8270  -33.8960   24.8360 H   0  0  0  0  0  0  0  0  0  0  0  0
  -23.8730  -36.6250   23.0530 C   0  0  0  0  0  1  0  0  0  0  0  0
  -25.1480  -36.2420   23.8230 C   0  0  0  0  0  3  0  0  0  0  0  0
  -27.2610  -37.1860   24.6460 C   0  0  0  0  0  1  0  0  0  0  0  0
  -26.1330  -37.3430   23.7310 N   0  0  0  0  0  0  0  0  0  0  0  0
  -25.6910  -38.2380   23.9220 H   0  0  0  0  0  0  0  0  0  0  0  0
  1  4  1  0
  2  1  2  0
  2  5  1  0
  4  3  2  0
  5  6  2  0
  6  3  1  0
  6  7  1  0
  8 17  1  0
  9 14  1  0
 10 11  1  0
 10  9  1  0
 12 11  1  0
 12 23  1  0
 12 13  1  0
 14  8  1  0
 14 13  1  0
 15  8  2  0
 16  4  1  0
 16 17  1  0
 17 19  1  0
 18 16  2  0
 20 21  2  0
 21 40  1  0
 22 21  1  0
 22 25  1  0
 23 20  1  0
 23 24  1  0
 24 22  2  0
 25 26  1  0
 26 27  2  0
 28 31  1  0
 28 27  1  0
 29 28  2  0
 30 29  1  0
 30 25  2  0
 31 32  1  0
 32 33  1  0
 33 34  2  0
 35 34  1  0
 35 39  1  0
 36 35  2  0
 37 32  2  0
 37 36  1  0
 38 37  1  0
 40 41  1  0
 41 44  1  0
 41 43  1  0
 42 40  2  0
 45 46  1  0
 45 20  1  0
 47 45  1  0
 48  5  1  0
 48 51  1  0
 51 50  1  6
 51 49  1  0
 52 53  1  0
 52 51  1  0
 54 65  2  0
 55 53  1  0
 55 60  1  0
 56 64  1  0
 56 66  1  0
 57 63  1  0
 57 59  1  0
 58 64  1  0
 59 58  1  0
 60 59  2  0
 61 62  1  0
 61 55  2  0
 62 57  2  0
 63 56  1  0
 64 54  1  0
 66 68  2  0
 67 66  1  0
 69 67  1  0
 70 79  2  0
 70 75  1  0
 71 67  1  0
 71 75  1  0
 72 71  1  0
 73 74  1  0
 73 72  1  0
 74 70  1  0
 75 76  2  0
 76 77  1  0
 78 77  2  0
 79 78  1  0
 80 54  1  0
 80 85  1  0
 80 81  1  0
 81 84  1  1
 81 82  1  0
 83 81  1  0
 85 88  1  0
 86 90  1  0
 86 85  1  0
 87 86  2  0
 90 89  1  0
 92 90  1  0
 92 93  1  0
 92 91  1  0
M  ISO  4   8 100  17 100  52 101  53 101
M  END
>  <TORSDO>  (49) 
F 19

>  <SCORE>  (49) 
-12.587

>  <name>  (49) 
48

>  <ligand_id>  (49) 
48

>  <original_smiles>  (49) 
[H]c1c([H])c([H])c2c(c1[H])C([H])([H])C([H])([H])C([H])([H])C2([H])N([H])C(=O)C1([H])N(C(=O)C([H])(N([H])C(=O)C([H])(N([H])C([H])([H])[H])C([H])([H])[H])C(C([H])([H])[H])(C([H])([H])[H])C([H])([H])[H])C([H])([H])c2c([H])c(OC([H])([H])C(C([H])([H])[H])(C([H])([H])[H])C([H])([H])c3c([H])c([H])c(C(=O)N([H])C(=O)N4C([H])([H])C([H])([H])C([H])([H])C([H])(n5nc(-c6c([H])c([H])c(Oc7c([H])c([H])c(F)c([H])c7F)c([H])c6[H])c(C(=O)N([H])[H])c5N([H])[H])C4([H])[H])c([H])c3C([H])([H])[H])c([H])c([H])c2C1([H])[H]

>  <smiles>  (49) 
[H]c1c([H])c([H])c2c(c1[H])C([H])([H])C([H])([H])C([H])([H])C2([H])N([H])C(=O)C1([H])N(C(=O)C([H])(N([H])C(=O)C([H])(N([H])C([H])([H])[H])C([H])([H])[H])C(C([H])([H])[H])(C([H])([H])[H])C([H])([H])[H])C([H])([H])c2c([H])c(OC([H])([H])C(C([H])([H])[H])(C([H])([H])[H])C([H])([H])c3c([H])c([H])c(C(=O)N([H])C(=O)N4C([H])([H])C([H])([H])C([H])([H])C([H])(n5nc(-c6c([H])c([H])c(Oc7c([H])c([H])c(F)c([H])c7F)c([H])c6[H])c(C(=O)N([H])[H])c5N([H])[H])C4([H])[H])c([H])c3C([H])([H])[H])c([H])c([H])c2C1([H])[H]

$$$$
49:0:0
     RDKit          3D

 97105  0  0  1  0  0  0  0  0999 V2000
  -31.8900  -22.6620   20.0970 C   0  0  0  0  0  3  0  0  0  0  0  0
  -31.1570  -23.2450   19.1310 C   0  0  0  0  0  3  0  0  0  0  0  0
  -32.3020  -21.2060   22.0400 C   0  0  0  0  0  3  0  0  0  0  0  0
  -32.1120  -20.0310   22.7860 C   0  0  0  0  0  3  0  0  0  0  0  0
  -30.6570  -20.4490   20.4180 C   0  0  0  0  0  3  0  0  0  0  0  0
  -31.5920  -21.4250   20.8440 C   0  0  0  0  0  0  0  0  0  0  0  0
  -30.4780  -19.2410   21.1420 C   0  0  0  0  0  0  0  0  0  0  0  0
  -31.2100  -19.0410   22.3490 C   0  0  0  0  0  0  0  0  0  0  0  0
  -31.0470  -17.7980   23.2120 C   0  0  0  0  0  1  0  0  0  0  0  0
  -29.5590  -18.1990   20.5900 C   0  0  0  0  0  0  0  0  0  0  0  0
  -28.3670  -18.4270   20.3700 O   0  0  0  0  0  0  0  0  0  0  0  0
  -30.1990  -16.9150   20.2580 C   0  0  0  0  0  3  0  0  0  0  0  0
  -29.5450  -15.7330   20.1630 C   0  0  0  0  0  3  0  0  0  0  0  0
  -30.2960  -14.5530   19.7340 C   0  0  0  0  0  0  0  0  0  0  0  0
  -30.0630  -12.2390   18.9320 C   0  0  0  0  0  2  0  0  0  0  0  0
  -29.0310  -12.2120   17.7860 C   0  0  0  0  0  2  0  0  0  0  0  0
  -27.6100  -12.0170   18.3470 C   0  0  0  0  0  2  0  0  0  0  0  0
  -27.2860  -13.0000   19.5050 C   0  0  0  0  0  3  0  0  0  0  0  0
  -28.4310  -13.0280   20.5440 C   0  0  0  0  0  2  0  0  0  0  0  0
  -29.6840  -13.3390   19.8370 N   0  0  0  0  0  0  0  0  0  0  0  0
  -31.3840  -14.6720   19.1610 O   0  0  0  0  0  0  0  0  0  0  0  0
  -24.9860  -13.5470   20.5150 C   0  0  0  0  0  0  0  0  0  0  0  0
  -23.9710  -12.7470   20.9670 C   0  0  0  0  0  0  0  0  0  0  0  0
  -24.4320  -11.4020   20.8210 C   0  0  0  0  0  0  0  0  0  0  0  0
  -26.0010  -12.6880   20.1250 N   0  0  0  0  0  0  0  0  0  0  0  0
  -25.6780  -11.3910   20.3650 N   0  0  0  0  0  0  0  0  0  0  0  0
  -23.7380  -10.1250   21.0350 C   0  0  0  0  0  0  0  0  0  0  0  0
  -24.2470   -9.1480   21.9170 C   0  0  0  0  0  3  0  0  0  0  0  0
  -23.5520   -7.9350   22.1200 C   0  0  0  0  0  3  0  0  0  0  0  0
  -22.3350   -7.6920   21.4400 C   0  0  0  0  0  0  0  0  0  0  0  0
  -21.8450   -8.6590   20.5450 C   0  0  0  0  0  3  0  0  0  0  0  0
  -22.5390   -9.8640   20.3400 C   0  0  0  0  0  3  0  0  0  0  0  0
  -21.6040   -6.5350   21.5550 O   0  0  0  0  0  0  0  0  0  0  0  0
  -21.6110   -5.7910   22.7080 C   0  0  0  0  0  0  0  0  0  0  0  0
  -21.2080   -6.3350   23.9480 C   0  0  0  0  0  3  0  0  0  0  0  0
  -21.1640   -5.5170   25.0940 C   0  0  0  0  0  3  0  0  0  0  0  0
  -21.5140   -4.1560   25.0020 C   0  0  0  0  0  0  0  0  0  0  0  0
  -21.9100   -3.6120   23.7680 C   0  0  0  0  0  3  0  0  0  0  0  0
  -21.9570   -4.4280   22.6240 C   0  0  0  0  0  0  0  0  0  0  0  0
  -22.3210   -3.8940   21.4320 F   0  0  0  0  0  0  0  0  0  0  0  0
  -21.4640   -3.3670   26.1020 F   0  0  0  0  0  0  0  0  0  0  0  0
  -22.6120  -13.2000   21.4180 C   0  0  0  0  0  0  0  0  0  0  0  0
  -21.9940  -12.4660   22.3370 N   0  0  0  0  0  0  0  0  0  0  0  0
  -22.1100  -14.2380   20.9910 O   0  0  0  0  0  0  0  0  0  0  0  0
  -22.4160  -11.6250   22.7040 H   0  0  0  0  0  0  0  0  0  0  0  0
  -21.0890  -12.7510   22.6790 H   0  0  0  0  0  0  0  0  0  0  0  0
  -25.1210  -14.9260   20.3840 N   0  0  0  0  0  0  0  0  0  0  0  0
  -24.3690  -15.5660   20.6160 H   0  0  0  0  0  0  0  0  0  0  0  0
  -25.9340  -15.3920   20.0010 H   0  0  0  0  0  0  0  0  0  0  0  0
  -31.6090  -24.2120   16.8550 C   0  0  0  0  0  1  0  0  0  0  0  0
  -31.6170  -24.4840   18.3690 C   0  0  0  0  0  3  0  0  0  0  0  0
  -30.8060  -25.6780   18.6990 N   0  0  0  0  0  4  0  0  0  0  0  0
  -31.0860  -26.4260   18.0840 H   0  0  0  0  0  0  0  0  0  0  0  0
  -29.8310  -25.4940   18.5070 H   0  0  0  0  0  0  0  0  0  0  0  0
  -30.9010  -26.1800   20.0960 C   0  0  0  0  0  2  0  0  0  0  0  0
  -29.8970  -27.3220   20.3350 C   0  0  0  0  0  2  0  0  0  0  0  0
  -28.6570  -26.8240   19.8580 O   0  0  0  0  0  0  0  0  0  0  0  0
  -24.6210  -31.7620   23.1330 C   0  0  0  0  0  0  0  0  0  0  0  0
  -27.5170  -27.5850   19.9370 C   0  0  0  0  0  0  0  0  0  0  0  0
  -23.5020  -30.3620   21.4270 C   0  0  0  0  0  3  0  0  0  0  0  0
  -25.0460  -28.9510   19.9720 C   0  0  0  0  0  0  0  0  0  0  0  0
  -26.0060  -30.8590   21.2710 C   0  0  0  0  0  2  0  0  0  0  0  0
  -26.1700  -29.5170   20.5920 C   0  0  0  0  0  0  0  0  0  0  0  0
  -27.4110  -28.8430   20.5780 C   0  0  0  0  0  3  0  0  0  0  0  0
  -26.3770  -27.0290   19.3250 C   0  0  0  0  0  3  0  0  0  0  0  0
  -25.1420  -27.7030   19.3380 C   0  0  0  0  0  3  0  0  0  0  0  0
  -23.7600  -29.7430   20.0280 C   0  0  0  0  0  2  0  0  0  0  0  0
  -24.7270  -31.0070   22.0030 N   0  0  0  0  0  0  0  0  0  0  0  0
  -23.5230  -31.9630   23.6690 O   0  0  0  0  0  0  0  0  0  0  0  0
  -22.8930  -29.2760   22.3430 C   0  0  0  0  0  0  0  0  0  0  0  0
  -21.5770  -29.0460   22.2030 N   0  0  0  0  0  0  0  0  0  0  0  0
  -23.6000  -28.6460   23.1330 O   0  0  0  0  0  0  0  0  0  0  0  0
  -21.0660  -29.6130   21.5420 H   0  0  0  0  0  0  0  0  0  0  0  0
  -18.2480  -27.7180   22.6530 C   0  0  0  0  0  0  0  0  0  0  0  0
  -20.7970  -28.0460   22.9310 C   0  0  0  0  0  3  0  0  0  0  0  0
  -20.9430  -26.6470   22.2880 C   0  0  0  0  0  2  0  0  0  0  0  0
  -19.8480  -26.3350   21.2610 C   0  0  0  0  0  2  0  0  0  0  0  0
  -18.4660  -26.4070   21.9150 C   0  0  0  0  0  2  0  0  0  0  0  0
  -19.3430  -28.4950   23.1160 C   0  0  0  0  0  0  0  0  0  0  0  0
  -19.0860  -29.7220   23.7630 C   0  0  0  0  0  3  0  0  0  0  0  0
  -17.7670  -30.1740   23.9530 C   0  0  0  0  0  3  0  0  0  0  0  0
  -16.6870  -29.3940   23.5080 C   0  0  0  0  0  3  0  0  0  0  0  0
  -16.9270  -28.1670   22.8660 C   0  0  0  0  0  3  0  0  0  0  0  0
  -25.8700  -32.4320   23.7890 C   0  0  0  0  0  3  0  0  0  0  0  0
  -25.5010  -33.8100   24.1350 N   0  0  0  0  0  0  0  0  0  0  0  0
  -25.8100  -34.8860   23.4000 C   0  0  0  0  0  0  0  0  0  0  0  0
  -26.5070  -34.8260   22.3840 O   0  0  0  0  0  0  0  0  0  0  0  0
  -24.8830  -33.9280   24.9250 H   0  0  0  0  0  0  0  0  0  0  0  0
  -24.0220  -36.6150   23.0310 C   0  0  0  0  0  1  0  0  0  0  0  0
  -25.2580  -36.2470   23.8670 C   0  0  0  0  0  3  0  0  0  0  0  0
  -27.3370  -37.1980   24.7630 C   0  0  0  0  0  1  0  0  0  0  0  0
  -26.2510  -37.3410   23.7970 N   0  0  0  0  0  0  0  0  0  0  0  0
  -25.8060  -38.2420   23.9500 H   0  0  0  0  0  0  0  0  0  0  0  0
  -26.3970  -31.6560   25.0580 C   0  0  1  0  0  0  0  0  0  0  0  0
  -25.2960  -31.3560   26.1030 C   0  0  0  0  0  1  0  0  0  0  0  0
  -27.0390  -30.3110   24.6460 C   0  0  0  0  0  1  0  0  0  0  0  0
  -27.5060  -32.4810   25.7530 C   0  0  0  0  0  1  0  0  0  0  0  0
  1  6  1  0
  2  1  2  0
  3  4  1  0
  5  6  1  0
  5  7  2  0
  6  3  2  0
  7  8  1  0
  8  4  2  0
  8  9  1  0
 10  7  1  0
 11 10  2  0
 12 10  1  0
 13 12  2  0
 14 20  1  0
 14 13  1  0
 15 20  1  0
 16 17  1  0
 16 15  1  0
 18 17  1  0
 18 25  1  0
 18 19  1  0
 20 19  1  0
 21 14  2  0
 22 23  2  0
 23 42  1  0
 24 23  1  0
 24 27  1  0
 25 26  1  0
 25 22  1  0
 26 24  2  0
 27 28  1  0
 28 29  2  0
 30 33  1  0
 30 29  1  0
 31 30  2  0
 32 31  1  0
 32 27  2  0
 33 34  1  0
 34 35  1  0
 35 36  2  0
 37 36  1  0
 37 41  1  0
 38 37  2  0
 39 34  2  0
 39 38  1  0
 40 39  1  0
 42 43  1  0
 43 46  1  0
 43 45  1  0
 44 42  2  0
 47 22  1  0
 47 48  1  0
 49 47  1  0
 51 50  1  0
 51 52  1  0
 51  2  1  0
 52 55  1  0
 53 52  1  0
 54 52  1  0
 55 56  1  0
 57 59  1  0
 57 56  1  0
 58 69  2  0
 59 64  1  0
 60 68  1  0
 60 70  1  0
 61 67  1  0
 61 63  1  0
 62 68  1  0
 63 62  1  0
 64 63  2  0
 65 66  1  0
 65 59  2  0
 66 61  2  0
 67 60  1  0
 68 58  1  0
 70 72  2  0
 71 70  1  0
 73 71  1  0
 74 83  2  0
 74 79  1  0
 75 71  1  0
 75 79  1  0
 76 75  1  0
 77 78  1  0
 77 76  1  0
 78 74  1  0
 79 80  2  0
 80 81  1  0
 82 81  2  0
 83 82  1  0
 84 58  1  0
 84 85  1  0
 84 94  1  0
 85 88  1  0
 86 90  1  0
 86 85  1  0
 87 86  2  0
 90 89  1  0
 92 90  1  0
 92 93  1  0
 92 91  1  0
 94 97  1  1
 94 95  1  0
 96 94  1  0
M  ISO  4  13 100  14 100  56 101  57 101
M  END
>  <TORSDO>  (50) 
F 23

>  <SCORE>  (50) 
-11.880

>  <name>  (50) 
49

>  <ligand_id>  (50) 
49

>  <original_smiles>  (50) 
[H]C(C(=O)c1c([H])c(C([H])=C([H])C([H])(C([H])([H])[H])[N+]([H])([H])C([H])([H])C([H])([H])Oc2c([H])c([H])c3c(c2[H])C([H])([H])N(C(=O)C([H])(N([H])C(=O)C([H])(N([H])C([H])([H])[H])C([H])([H])[H])C(C([H])([H])[H])(C([H])([H])[H])C([H])([H])[H])C([H])(C(=O)N([H])C2([H])c4c([H])c([H])c([H])c([H])c4C([H])([H])C([H])([H])C2([H])[H])C3([H])[H])c([H])c([H])c1C([H])([H])[H])=C([H])C(=O)N1C([H])([H])C([H])([H])C([H])([H])C([H])(n2nc(-c3c([H])c([H])c(Oc4c([H])c([H])c(F)c([H])c4F)c([H])c3[H])c(C(=O)N([H])[H])c2N([H])[H])C1([H])[H]

>  <smiles>  (50) 
[H]C(C(=O)c1c([H])c(C([H])=C([H])C([H])(C([H])([H])[H])[N+]([H])([H])C([H])([H])C([H])([H])Oc2c([H])c([H])c3c(c2[H])C([H])([H])N(C(=O)C([H])(N([H])C(=O)C([H])(N([H])C([H])([H])[H])C([H])([H])[H])C(C([H])([H])[H])(C([H])([H])[H])C([H])([H])[H])C([H])(C(=O)N([H])C2([H])c4c([H])c([H])c([H])c([H])c4C([H])([H])C([H])([H])C2([H])[H])C3([H])[H])c([H])c([H])c1C([H])([H])[H])=C([H])C(=O)N1C([H])([H])C([H])([H])C([H])([H])C([H])(n2nc(-c3c([H])c([H])c(Oc4c([H])c([H])c(F)c([H])c4F)c([H])c3[H])c(C(=O)N([H])[H])c2N([H])[H])C1([H])[H]

$$$$
50:0:0
     RDKit          3D

 89 97  0  0  1  0  0  0  0  0999 V2000
  -28.7560  -20.6370   20.6260 C   0  0  0  0  0  3  0  0  0  0  0  0
  -29.0280  -19.2290   20.7340 C   0  0  0  0  0  3  0  0  0  0  0  0
  -30.5260  -20.8360   19.0270 C   0  0  0  0  0  3  0  0  0  0  0  0
  -29.5060  -21.4820   19.7610 C   0  0  0  0  0  0  0  0  0  0  0  0
  -30.0780  -18.5950   20.0060 C   0  0  0  0  0  0  0  0  0  0  0  0
  -30.8060  -19.4500   19.1250 C   0  0  0  0  0  0  0  0  0  0  0  0
  -31.9190  -18.9150   18.2330 C   0  0  0  0  0  1  0  0  0  0  0  0
  -29.3410  -22.9700   19.4930 C   0  0  0  0  0  3  0  0  0  0  0  0
  -28.5600  -23.9830   19.9770 C   0  0  0  0  0  3  0  0  0  0  0  0
  -28.5970  -25.4260   19.3700 C   0  0  0  0  0  2  0  0  0  0  0  0
  -28.4080  -26.5920   20.2400 O   0  0  0  0  0  0  0  0  0  0  0  0
  -24.5950  -31.9060   23.2200 C   0  0  0  0  0  0  0  0  0  0  0  0
  -27.2540  -27.3810   20.1730 C   0  0  0  0  0  0  0  0  0  0  0  0
  -23.4060  -30.5000   21.5730 C   0  0  0  0  0  3  0  0  0  0  0  0
  -24.8710  -28.9580   20.1580 C   0  0  0  0  0  0  0  0  0  0  0  0
  -25.9420  -30.8380   21.4020 C   0  0  0  0  0  2  0  0  0  0  0  0
  -26.0320  -29.4610   20.7590 C   0  0  0  0  0  0  0  0  0  0  0  0
  -27.2220  -28.6810   20.7630 C   0  0  0  0  0  3  0  0  0  0  0  0
  -26.0610  -26.9120   19.5770 C   0  0  0  0  0  3  0  0  0  0  0  0
  -24.8860  -27.6860   19.5640 C   0  0  0  0  0  3  0  0  0  0  0  0
  -23.6300  -29.8230   20.1940 C   0  0  0  0  0  2  0  0  0  0  0  0
  -24.6660  -31.0980   22.1210 N   0  0  0  0  0  0  0  0  0  0  0  0
  -23.5070  -32.1780   23.7470 O   0  0  0  0  0  0  0  0  0  0  0  0
  -22.7460  -29.4800   22.5300 C   0  0  0  0  0  0  0  0  0  0  0  0
  -21.4190  -29.3040   22.4020 N   0  0  0  0  0  0  0  0  0  0  0  0
  -23.4240  -28.8500   23.3470 O   0  0  0  0  0  0  0  0  0  0  0  0
  -20.9330  -29.8630   21.7150 H   0  0  0  0  0  0  0  0  0  0  0  0
  -18.0350  -28.1410   22.9210 C   0  0  0  0  0  0  0  0  0  0  0  0
  -20.5990  -28.3660   23.1690 C   0  0  0  0  0  3  0  0  0  0  0  0
  -20.6780  -26.9410   22.5750 C   0  0  0  0  0  2  0  0  0  0  0  0
  -19.5620  -26.6450   21.5680 C   0  0  0  0  0  2  0  0  0  0  0  0
  -18.1890  -26.7980   22.2270 C   0  0  0  0  0  2  0  0  0  0  0  0
  -19.1680  -28.8850   23.3490 C   0  0  0  0  0  0  0  0  0  0  0  0
  -18.9700  -30.1430   23.9570 C   0  0  0  0  0  3  0  0  0  0  0  0
  -17.6730  -30.6580   24.1420 C   0  0  0  0  0  3  0  0  0  0  0  0
  -16.5550  -29.9120   23.7310 C   0  0  0  0  0  3  0  0  0  0  0  0
  -16.7370  -28.6550   23.1260 C   0  0  0  0  0  3  0  0  0  0  0  0
  -25.8700  -32.5440   23.8490 C   0  0  0  0  0  3  0  0  0  0  0  0
  -26.3770  -31.7830   25.1350 C   0  0  1  0  0  0  0  0  0  0  0  0
  -25.2720  -31.5480   26.1920 C   0  0  0  0  0  1  0  0  0  0  0  0
  -26.9700  -30.4060   24.7590 C   0  0  0  0  0  1  0  0  0  0  0  0
  -27.5160  -32.5860   25.8060 C   0  0  0  0  0  1  0  0  0  0  0  0
  -25.5560  -33.9450   24.1660 N   0  0  0  0  0  0  0  0  0  0  0  0
  -25.9030  -34.9940   23.4080 C   0  0  0  0  0  0  0  0  0  0  0  0
  -26.5910  -34.8850   22.3900 O   0  0  0  0  0  0  0  0  0  0  0  0
  -24.9470  -34.1030   24.9550 H   0  0  0  0  0  0  0  0  0  0  0  0
  -24.1960  -36.7960   22.9990 C   0  0  0  0  0  1  0  0  0  0  0  0
  -25.4080  -36.3850   23.8500 C   0  0  0  0  0  3  0  0  0  0  0  0
  -27.5170  -37.2620   24.7510 C   0  0  0  0  0  1  0  0  0  0  0  0
  -26.4490  -37.4320   23.7700 N   0  0  0  0  0  0  0  0  0  0  0  0
  -26.0440  -38.3550   23.9000 H   0  0  0  0  0  0  0  0  0  0  0  0
  -30.4720  -17.1220   20.0720 C   0  0  0  0  0  3  0  0  0  0  0  0
  -29.8910  -15.9480   20.4930 C   0  0  0  0  0  3  0  0  0  0  0  0
  -30.6440  -14.6630   20.3230 C   0  0  0  0  0  0  0  0  0  0  0  0
  -30.3350  -12.4230   19.3270 C   0  0  0  0  0  2  0  0  0  0  0  0
  -29.4040  -12.5710   18.1040 C   0  0  0  0  0  2  0  0  0  0  0  0
  -27.9320  -12.4340   18.5340 C   0  0  0  0  0  2  0  0  0  0  0  0
  -27.5830  -13.3100   19.7670 C   0  0  0  0  0  3  0  0  0  0  0  0
  -28.6440  -13.1870   20.8810 C   0  0  0  0  0  2  0  0  0  0  0  0
  -29.9560  -13.4770   20.2930 N   0  0  0  0  0  0  0  0  0  0  0  0
  -31.8370  -14.6690   20.0080 O   0  0  0  0  0  0  0  0  0  0  0  0
  -25.2060  -13.9170   20.5180 C   0  0  0  0  0  0  0  0  0  0  0  0
  -24.1360  -13.1480   20.8890 C   0  0  0  0  0  0  0  0  0  0  0  0
  -24.5880  -11.7930   20.8460 C   0  0  0  0  0  0  0  0  0  0  0  0
  -26.2400  -13.0300   20.2660 N   0  0  0  0  0  0  0  0  0  0  0  0
  -25.8760  -11.7480   20.5260 N   0  0  0  0  0  0  0  0  0  0  0  0
  -23.8530  -10.5350   21.0310 C   0  0  0  0  0  0  0  0  0  0  0  0
  -24.2750   -9.5640   21.9660 C   0  0  0  0  0  3  0  0  0  0  0  0
  -23.5400   -8.3710   22.1400 C   0  0  0  0  0  3  0  0  0  0  0  0
  -22.3690   -8.1410   21.3790 C   0  0  0  0  0  0  0  0  0  0  0  0
  -21.9670   -9.1010   20.4340 C   0  0  0  0  0  3  0  0  0  0  0  0
  -22.7020  -10.2850   20.2580 C   0  0  0  0  0  3  0  0  0  0  0  0
  -21.6060   -7.0010   21.4620 O   0  0  0  0  0  0  0  0  0  0  0  0
  -21.5360   -6.2650   22.6180 C   0  0  0  0  0  0  0  0  0  0  0  0
  -21.0710   -6.8230   23.8290 C   0  0  0  0  0  3  0  0  0  0  0  0
  -20.9480   -6.0120   24.9750 C   0  0  0  0  0  3  0  0  0  0  0  0
  -21.2790   -4.6450   24.9120 C   0  0  0  0  0  0  0  0  0  0  0  0
  -21.7370   -4.0880   23.7060 C   0  0  0  0  0  3  0  0  0  0  0  0
  -21.8610   -4.8940   22.5610 C   0  0  0  0  0  0  0  0  0  0  0  0
  -22.2820   -4.3470   21.3950 F   0  0  0  0  0  0  0  0  0  0  0  0
  -21.1550   -3.8650   26.0110 F   0  0  0  0  0  0  0  0  0  0  0  0
  -22.7450  -13.6340   21.1740 C   0  0  0  0  0  0  0  0  0  0  0  0
  -22.0130  -12.9320   22.0330 N   0  0  0  0  0  0  0  0  0  0  0  0
  -22.3150  -14.6710   20.6700 O   0  0  0  0  0  0  0  0  0  0  0  0
  -22.3740  -12.0930   22.4630 H   0  0  0  0  0  0  0  0  0  0  0  0
  -21.0800  -13.2390   22.2660 H   0  0  0  0  0  0  0  0  0  0  0  0
  -25.3790  -15.2870   20.3500 N   0  0  0  0  0  0  0  0  0  0  0  0
  -24.6210  -15.9480   20.4740 H   0  0  0  0  0  0  0  0  0  0  0  0
  -26.2330  -15.7210   20.0210 H   0  0  0  0  0  0  0  0  0  0  0  0
  1  2  1  0
  3  6  2  0
  3  4  1  0
  4  1  2  0
  5 52  1  0
  5  2  2  0
  6  5  1  0
  7  6  1  0
  8  4  1  0
  8  9  2  0
 10  9  1  0
 10 11  1  0
 12 23  2  0
 13 11  1  0
 13 18  1  0
 14 22  1  0
 14 24  1  0
 15 21  1  0
 15 17  1  0
 16 22  1  0
 17 18  2  0
 17 16  1  0
 19 13  2  0
 20 19  1  0
 20 15  2  0
 21 14  1  0
 22 12  1  0
 24 26  2  0
 25 24  1  0
 27 25  1  0
 28 37  2  0
 28 33  1  0
 29 25  1  0
 29 33  1  0
 30 29  1  0
 31 32  1  0
 31 30  1  0
 32 28  1  0
 33 34  2  0
 34 35  1  0
 36 35  2  0
 37 36  1  0
 38 12  1  0
 38 43  1  0
 38 39  1  0
 39 42  1  1
 39 40  1  0
 41 39  1  0
 43 46  1  0
 44 48  1  0
 44 43  1  0
 45 44  2  0
 48 47  1  0
 50 48  1  0
 50 51  1  0
 50 49  1  0
 52 53  2  0
 54 53  1  0
 55 60  1  0
 56 57  1  0
 56 55  1  0
 58 57  1  0
 58 65  1  0
 58 59  1  0
 60 54  1  0
 60 59  1  0
 61 54  2  0
 62 63  2  0
 63 82  1  0
 64 63  1  0
 64 67  1  0
 65 62  1  0
 65 66  1  0
 66 64  2  0
 67 68  1  0
 68 69  2  0
 70 73  1  0
 70 69  1  0
 71 70  2  0
 72 71  1  0
 72 67  2  0
 73 74  1  0
 74 75  1  0
 75 76  2  0
 77 76  1  0
 77 81  1  0
 78 77  2  0
 79 74  2  0
 79 78  1  0
 80 79  1  0
 82 83  1  0
 83 86  1  0
 83 85  1  0
 84 82  2  0
 87 88  1  0
 87 62  1  0
 89 87  1  0
M  ISO  4  10 101  11 101  53 100  54 100
M  END
>  <TORSDO>  (51) 
F 19

>  <SCORE>  (51) 
-14.139

>  <name>  (51) 
50

>  <ligand_id>  (51) 
50

>  <original_smiles>  (51) 
[H]C(C(=O)N1C([H])([H])C([H])([H])C([H])([H])C([H])(n2nc(-c3c([H])c([H])c(Oc4c([H])c([H])c(F)c([H])c4F)c([H])c3[H])c(C(=O)N([H])[H])c2N([H])[H])C1([H])[H])=C([H])c1c([H])c([H])c(C([H])=C([H])C([H])([H])Oc2c([H])c([H])c3c(c2[H])C([H])([H])N(C(=O)C([H])(N([H])C(=O)C([H])(N([H])C([H])([H])[H])C([H])([H])[H])C(C([H])([H])[H])(C([H])([H])[H])C([H])([H])[H])C([H])(C(=O)N([H])C2([H])c4c([H])c([H])c([H])c([H])c4C([H])([H])C([H])([H])C2([H])[H])C3([H])[H])c([H])c1C([H])([H])[H]

>  <smiles>  (51) 
[H]C(C(=O)N1C([H])([H])C([H])([H])C([H])([H])C([H])(n2nc(-c3c([H])c([H])c(Oc4c([H])c([H])c(F)c([H])c4F)c([H])c3[H])c(C(=O)N([H])[H])c2N([H])[H])C1([H])[H])=C([H])c1c([H])c([H])c(C([H])=C([H])C([H])([H])Oc2c([H])c([H])c3c(c2[H])C([H])([H])N(C(=O)C([H])(N([H])C(=O)C([H])(N([H])C([H])([H])[H])C([H])([H])[H])C(C([H])([H])[H])(C([H])([H])[H])C([H])([H])[H])C([H])(C(=O)N([H])C2([H])c4c([H])c([H])c([H])c([H])c4C([H])([H])C([H])([H])C2([H])[H])C3([H])[H])c([H])c1C([H])([H])[H]

$$$$
51:0:0
     RDKit          3D

 90 97  0  0  1  0  0  0  0  0999 V2000
  -30.0920  -20.4370   20.0670 C   0  0  0  0  0  0  0  0  0  0  0  0
  -31.2860  -20.6960   20.2600 O   0  0  0  0  0  0  0  0  0  0  0  0
  -28.5140  -18.5460   19.2940 C   0  0  0  0  0  1  0  0  0  0  0  0
  -29.5330  -19.0020   20.3560 C   0  0  0  0  0  3  0  0  0  0  0  0
  -30.7060  -18.0770   20.4120 N   0  0  0  0  0  4  0  0  0  0  0  0
  -30.9270  -17.7120   19.5020 H   0  0  0  0  0  0  0  0  0  0  0  0
  -31.4600  -18.7190   20.6350 H   0  0  0  0  0  0  0  0  0  0  0  0
  -30.7420  -17.0130   21.4680 C   0  0  0  0  0  2  0  0  0  0  0  0
  -29.9280  -15.6940   21.2240 C   0  0  0  0  0  2  0  0  0  0  0  0
  -30.6400  -14.5200   20.4920 C   0  0  0  0  0  0  0  0  0  0  0  0
  -30.3720  -12.3730   19.2800 C   0  0  0  0  0  2  0  0  0  0  0  0
  -29.4200  -12.5740   18.0800 C   0  0  0  0  0  2  0  0  0  0  0  0
  -27.9440  -12.4230   18.5140 C   0  0  0  0  0  2  0  0  0  0  0  0
  -27.6050  -13.2520   19.7800 C   0  0  0  0  0  3  0  0  0  0  0  0
  -28.6630  -13.0100   20.8800 C   0  0  0  0  0  2  0  0  0  0  0  0
  -29.9870  -13.3340   20.3260 N   0  0  0  0  0  0  0  0  0  0  0  0
  -31.7460  -14.7270   19.9820 O   0  0  0  0  0  0  0  0  0  0  0  0
  -25.2080  -13.8600   20.4980 C   0  0  0  0  0  0  0  0  0  0  0  0
  -24.1390  -13.0890   20.8740 C   0  0  0  0  0  0  0  0  0  0  0  0
  -24.6010  -11.7380   20.8460 C   0  0  0  0  0  0  0  0  0  0  0  0
  -26.2520  -12.9790   20.2620 N   0  0  0  0  0  0  0  0  0  0  0  0
  -25.8900  -11.6980   20.5300 N   0  0  0  0  0  0  0  0  0  0  0  0
  -23.8750  -10.4760   21.0420 C   0  0  0  0  0  0  0  0  0  0  0  0
  -24.3160   -9.5090   21.9730 C   0  0  0  0  0  3  0  0  0  0  0  0
  -23.5920   -8.3120   22.1600 C   0  0  0  0  0  3  0  0  0  0  0  0
  -22.4150   -8.0700   21.4120 C   0  0  0  0  0  0  0  0  0  0  0  0
  -21.9920   -9.0260   20.4720 C   0  0  0  0  0  3  0  0  0  0  0  0
  -22.7150  -10.2160   20.2840 C   0  0  0  0  0  3  0  0  0  0  0  0
  -21.6680   -6.9210   21.5020 O   0  0  0  0  0  0  0  0  0  0  0  0
  -21.6350   -6.1720   22.6510 C   0  0  0  0  0  0  0  0  0  0  0  0
  -21.2290   -6.7220   23.8860 C   0  0  0  0  0  3  0  0  0  0  0  0
  -21.1430   -5.9000   25.0280 C   0  0  0  0  0  3  0  0  0  0  0  0
  -21.4540   -4.5300   24.9340 C   0  0  0  0  0  0  0  0  0  0  0  0
  -21.8530   -3.9800   23.7040 C   0  0  0  0  0  3  0  0  0  0  0  0
  -21.9400   -4.7990   22.5640 C   0  0  0  0  0  0  0  0  0  0  0  0
  -22.3050   -4.2600   21.3750 F   0  0  0  0  0  0  0  0  0  0  0  0
  -21.3660   -3.7380   26.0290 F   0  0  0  0  0  0  0  0  0  0  0  0
  -22.7430  -13.5700   21.1450 C   0  0  0  0  0  0  0  0  0  0  0  0
  -22.0110  -12.8800   22.0150 N   0  0  0  0  0  0  0  0  0  0  0  0
  -22.3050  -14.5920   20.6210 O   0  0  0  0  0  0  0  0  0  0  0  0
  -22.3730  -12.0530   22.4660 H   0  0  0  0  0  0  0  0  0  0  0  0
  -21.0760  -13.1910   22.2370 H   0  0  0  0  0  0  0  0  0  0  0  0
  -25.3720  -15.2280   20.3200 N   0  0  0  0  0  0  0  0  0  0  0  0
  -24.6040  -15.8830   20.4300 H   0  0  0  0  0  0  0  0  0  0  0  0
  -26.2190  -15.6630   19.9790 H   0  0  0  0  0  0  0  0  0  0  0  0
  -29.1720  -21.5710   19.5280 C   0  0  0  0  0  2  0  0  0  0  0  0
  -28.9450  -22.7960   20.4710 C   0  0  0  0  0  2  0  0  0  0  0  0
  -28.8310  -24.1960   19.7750 C   0  0  0  0  0  2  0  0  0  0  0  0
  -28.3430  -25.3380   20.7200 C   0  0  0  0  0  2  0  0  0  0  0  0
  -28.4090  -26.6750   20.1690 O   0  0  0  0  0  0  0  0  0  0  0  0
  -24.5760  -31.8840   23.2450 C   0  0  0  0  0  0  0  0  0  0  0  0
  -27.2410  -27.4180   20.1870 C   0  0  0  0  0  0  0  0  0  0  0  0
  -23.3790  -30.4710   21.6060 C   0  0  0  0  0  3  0  0  0  0  0  0
  -24.8440  -28.9320   20.1880 C   0  0  0  0  0  0  0  0  0  0  0  0
  -25.9070  -30.8340   21.4120 C   0  0  0  0  0  2  0  0  0  0  0  0
  -26.0010  -29.4600   20.7730 C   0  0  0  0  0  0  0  0  0  0  0  0
  -27.2060  -28.7140   20.7600 C   0  0  0  0  0  3  0  0  0  0  0  0
  -26.0640  -26.9080   19.5990 C   0  0  0  0  0  3  0  0  0  0  0  0
  -24.8710  -27.6570   19.5970 C   0  0  0  0  0  3  0  0  0  0  0  0
  -23.5940  -29.7870   20.2310 C   0  0  0  0  0  2  0  0  0  0  0  0
  -24.6400  -31.0790   22.1460 N   0  0  0  0  0  0  0  0  0  0  0  0
  -23.4920  -32.1560   23.7790 O   0  0  0  0  0  0  0  0  0  0  0  0
  -22.7250  -29.4520   22.5660 C   0  0  0  0  0  0  0  0  0  0  0  0
  -21.4000  -29.2700   22.4360 N   0  0  0  0  0  0  0  0  0  0  0  0
  -23.4080  -28.8280   23.3830 O   0  0  0  0  0  0  0  0  0  0  0  0
  -20.9130  -29.8270   21.7480 H   0  0  0  0  0  0  0  0  0  0  0  0
  -18.0230  -28.0800   22.9200 C   0  0  0  0  0  0  0  0  0  0  0  0
  -20.5800  -28.3330   23.2020 C   0  0  0  0  0  3  0  0  0  0  0  0
  -20.6820  -26.9020   22.6230 C   0  0  0  0  0  2  0  0  0  0  0  0
  -19.5840  -26.5820   21.6050 C   0  0  0  0  0  2  0  0  0  0  0  0
  -18.1990  -26.7300   22.2470 C   0  0  0  0  0  2  0  0  0  0  0  0
  -19.1410  -28.8400   23.3540 C   0  0  0  0  0  0  0  0  0  0  0  0
  -18.9220  -30.1050   23.9400 C   0  0  0  0  0  3  0  0  0  0  0  0
  -17.6180  -30.6090   24.1010 C   0  0  0  0  0  3  0  0  0  0  0  0
  -16.5130  -29.8440   23.6870 C   0  0  0  0  0  3  0  0  0  0  0  0
  -16.7170  -28.5810   23.1030 C   0  0  0  0  0  3  0  0  0  0  0  0
  -25.8580  -32.5210   23.8670 C   0  0  0  0  0  3  0  0  0  0  0  0
  -26.3730  -31.7540   25.1460 C   0  0  1  0  0  0  0  0  0  0  0  0
  -25.2760  -31.5200   26.2100 C   0  0  0  0  0  1  0  0  0  0  0  0
  -26.9610  -30.3770   24.7590 C   0  0  0  0  0  1  0  0  0  0  0  0
  -27.5240  -32.5480   25.8080 C   0  0  0  0  0  1  0  0  0  0  0  0
  -25.5470  -33.9190   24.1910 N   0  0  0  0  0  0  0  0  0  0  0  0
  -25.8850  -34.9690   23.4300 C   0  0  0  0  0  0  0  0  0  0  0  0
  -26.5620  -34.8620   22.4040 O   0  0  0  0  0  0  0  0  0  0  0  0
  -24.9470  -34.0780   24.9880 H   0  0  0  0  0  0  0  0  0  0  0  0
  -24.1590  -36.7600   23.0520 C   0  0  0  0  0  1  0  0  0  0  0  0
  -25.3920  -36.3590   23.8780 C   0  0  0  0  0  3  0  0  0  0  0  0
  -27.5180  -37.2420   24.7290 C   0  0  0  0  0  1  0  0  0  0  0  0
  -26.4260  -37.4110   23.7740 N   0  0  0  0  0  0  0  0  0  0  0  0
  -26.0190  -38.3320   23.9190 H   0  0  0  0  0  0  0  0  0  0  0  0
  1  2  2  0
  1  4  1  0
  4  3  1  0
  4  5  1  0
  5  7  1  0
  5  8  1  0
  6  5  1  0
  9  8  1  0
 10  9  1  0
 11 16  1  0
 12 13  1  0
 12 11  1  0
 14 13  1  0
 14 21  1  0
 14 15  1  0
 16 10  1  0
 16 15  1  0
 17 10  2  0
 18 19  2  0
 19 38  1  0
 20 19  1  0
 20 23  1  0
 21 18  1  0
 21 22  1  0
 22 20  2  0
 23 24  1  0
 24 25  2  0
 26 29  1  0
 26 25  1  0
 27 26  2  0
 28 27  1  0
 28 23  2  0
 29 30  1  0
 30 31  1  0
 31 32  2  0
 33 32  1  0
 33 37  1  0
 34 33  2  0
 35 30  2  0
 35 34  1  0
 36 35  1  0
 38 39  1  0
 39 42  1  0
 39 41  1  0
 40 38  2  0
 43 44  1  0
 43 18  1  0
 45 43  1  0
 46  1  1  0
 46 47  1  0
 48 47  1  0
 48 49  1  0
 50 52  1  0
 50 49  1  0
 51 62  2  0
 52 57  1  0
 53 61  1  0
 53 63  1  0
 54 60  1  0
 54 56  1  0
 55 61  1  0
 56 55  1  0
 57 56  2  0
 58 52  2  0
 59 58  1  0
 59 54  2  0
 60 53  1  0
 61 51  1  0
 63 65  2  0
 64 63  1  0
 66 64  1  0
 67 76  2  0
 67 72  1  0
 68 64  1  0
 68 72  1  0
 69 68  1  0
 70 71  1  0
 70 69  1  0
 71 67  1  0
 72 73  2  0
 73 74  1  0
 75 74  2  0
 76 75  1  0
 77 51  1  0
 77 82  1  0
 77 78  1  0
 78 81  1  1
 78 79  1  0
 80 78  1  0
 82 85  1  0
 83 87  1  0
 83 82  1  0
 84 83  2  0
 87 86  1  0
 89 87  1  0
 89 90  1  0
 89 88  1  0
M  ISO  4   9 100  10 100  49 101  50 101
M  END
>  <TORSDO>  (52) 
F 24

>  <SCORE>  (52) 
-12.517

>  <name>  (52) 
51

>  <ligand_id>  (52) 
51

>  <original_smiles>  (52) 
[H]c1c([H])c([H])c2c(c1[H])C([H])([H])C([H])([H])C([H])([H])C2([H])N([H])C(=O)C1([H])N(C(=O)C([H])(N([H])C(=O)C([H])(N([H])C([H])([H])[H])C([H])([H])[H])C(C([H])([H])[H])(C([H])([H])[H])C([H])([H])[H])C([H])([H])c2c([H])c(OC([H])([H])C([H])([H])C([H])([H])C([H])([H])C(=O)C([H])(C([H])([H])[H])[N+]([H])([H])C([H])([H])C([H])([H])C(=O)N3C([H])([H])C([H])([H])C([H])([H])C([H])(n4nc(-c5c([H])c([H])c(Oc6c([H])c([H])c(F)c([H])c6F)c([H])c5[H])c(C(=O)N([H])[H])c4N([H])[H])C3([H])[H])c([H])c([H])c2C1([H])[H]

>  <smiles>  (52) 
[H]c1c([H])c([H])c2c(c1[H])C([H])([H])C([H])([H])C([H])([H])C2([H])N([H])C(=O)C1([H])N(C(=O)C([H])(N([H])C(=O)C([H])(N([H])C([H])([H])[H])C([H])([H])[H])C(C([H])([H])[H])(C([H])([H])[H])C([H])([H])[H])C([H])([H])c2c([H])c(OC([H])([H])C([H])([H])C([H])([H])C([H])([H])C(=O)C([H])(C([H])([H])[H])[N+]([H])([H])C([H])([H])C([H])([H])C(=O)N3C([H])([H])C([H])([H])C([H])([H])C([H])(n4nc(-c5c([H])c([H])c(Oc6c([H])c([H])c(F)c([H])c6F)c([H])c5[H])c(C(=O)N([H])[H])c4N([H])[H])C3([H])[H])c([H])c([H])c2C1([H])[H]

$$$$
52:0:0
     RDKit          3D

 92100  0  0  1  0  0  0  0  0999 V2000
  -29.7910  -19.1710   19.4910 C   0  0  0  0  0  3  0  0  0  0  0  0
  -29.2600  -20.4790   19.3560 C   0  0  0  0  0  3  0  0  0  0  0  0
  -30.2720  -19.6020   21.7990 C   0  0  0  0  0  3  0  0  0  0  0  0
  -30.3020  -18.6880   20.7160 C   0  0  0  0  0  0  0  0  0  0  0  0
  -29.1820  -21.3930   20.4400 C   0  0  0  0  0  0  0  0  0  0  0  0
  -29.7200  -20.9180   21.6810 C   0  0  0  0  0  0  0  0  0  0  0  0
  -29.7340  -21.8010   22.9210 C   0  0  0  0  0  1  0  0  0  0  0  0
  -30.4160  -16.1170   20.5190 C   0  0  0  0  0  3  0  0  0  0  0  0
  -30.9830  -17.3410   20.7650 C   0  0  0  0  0  0  0  0  0  0  0  0
  -31.1730  -14.8510   20.2960 C   0  0  0  0  0  0  0  0  0  0  0  0
  -30.8010  -12.6830   19.1630 C   0  0  0  0  0  2  0  0  0  0  0  0
  -29.8660  -12.9210   17.9600 C   0  0  0  0  0  2  0  0  0  0  0  0
  -28.3890  -12.7980   18.3930 C   0  0  0  0  0  2  0  0  0  0  0  0
  -28.0730  -13.6130   19.6750 C   0  0  0  0  0  3  0  0  0  0  0  0
  -29.1410  -13.4130   20.7730 C   0  0  0  0  0  2  0  0  0  0  0  0
  -30.4580  -13.6890   20.1870 N   0  0  0  0  0  0  0  0  0  0  0  0
  -32.3550  -14.8740   19.9390 O   0  0  0  0  0  0  0  0  0  0  0  0
  -25.7060  -14.2510   20.4320 C   0  0  0  0  0  0  0  0  0  0  0  0
  -24.6270  -13.4980   20.7990 C   0  0  0  0  0  0  0  0  0  0  0  0
  -25.0570  -12.1360   20.7410 C   0  0  0  0  0  0  0  0  0  0  0  0
  -26.7270  -13.3500   20.1710 N   0  0  0  0  0  0  0  0  0  0  0  0
  -26.3430  -12.0720   20.4180 N   0  0  0  0  0  0  0  0  0  0  0  0
  -24.3030  -10.8890   20.9170 C   0  0  0  0  0  0  0  0  0  0  0  0
  -24.7030   -9.9090   21.8530 C   0  0  0  0  0  3  0  0  0  0  0  0
  -23.9500   -8.7270   22.0190 C   0  0  0  0  0  3  0  0  0  0  0  0
  -22.7820   -8.5160   21.2470 C   0  0  0  0  0  0  0  0  0  0  0  0
  -22.3980   -9.4860   20.3050 C   0  0  0  0  0  3  0  0  0  0  0  0
  -23.1520  -10.6590   20.1370 C   0  0  0  0  0  3  0  0  0  0  0  0
  -22.0020   -7.3870   21.3240 O   0  0  0  0  0  0  0  0  0  0  0  0
  -21.8870   -6.6670   22.4860 C   0  0  0  0  0  0  0  0  0  0  0  0
  -21.4220   -7.2540   23.6830 C   0  0  0  0  0  3  0  0  0  0  0  0
  -21.2520   -6.4630   24.8350 C   0  0  0  0  0  3  0  0  0  0  0  0
  -21.5370   -5.0840   24.7920 C   0  0  0  0  0  0  0  0  0  0  0  0
  -21.9960   -4.4970   23.6010 C   0  0  0  0  0  3  0  0  0  0  0  0
  -22.1680   -5.2870   22.4490 C   0  0  0  0  0  0  0  0  0  0  0  0
  -22.5890   -4.7110   21.2970 F   0  0  0  0  0  0  0  0  0  0  0  0
  -21.3670   -4.3220   25.8980 F   0  0  0  0  0  0  0  0  0  0  0  0
  -23.2420  -14.0010   21.0930 C   0  0  0  0  0  0  0  0  0  0  0  0
  -22.5140  -13.3170   21.9660 N   0  0  0  0  0  0  0  0  0  0  0  0
  -22.8200  -15.0400   20.5830 O   0  0  0  0  0  0  0  0  0  0  0  0
  -22.8700  -12.4770   22.3980 H   0  0  0  0  0  0  0  0  0  0  0  0
  -21.5850  -13.6340   22.2070 H   0  0  0  0  0  0  0  0  0  0  0  0
  -25.8970  -15.6230   20.2780 N   0  0  0  0  0  0  0  0  0  0  0  0
  -25.1390  -16.2820   20.4080 H   0  0  0  0  0  0  0  0  0  0  0  0
  -26.7540  -16.0630   19.9690 H   0  0  0  0  0  0  0  0  0  0  0  0
  -32.2970  -17.4640   21.0090 O   0  0  0  0  0  0  0  0  0  0  0  0
  -32.4760  -18.3900   21.1190 H   0  0  0  0  0  0  0  0  0  0  0  0
  -27.3310  -22.5940   19.1550 C   0  0  0  0  0  1  0  0  0  0  0  0
  -28.3990  -22.7570   20.2640 C   0  0  0  0  0  3  0  0  0  0  0  0
  -29.2380  -24.1110   20.1240 C   0  0  0  0  0  2  0  0  0  0  0  0
  -28.6590  -25.3490   19.2900 C   0  0  0  0  0  2  0  0  0  0  0  0
  -28.5890  -26.7110   19.8540 O   0  0  0  0  0  0  0  0  0  0  0  0
  -24.6530  -31.7600   23.1260 C   0  0  0  0  0  0  0  0  0  0  0  0
  -27.4100  -27.4720   19.8300 C   0  0  0  0  0  0  0  0  0  0  0  0
  -23.4850  -30.3840   21.4430 C   0  0  0  0  0  3  0  0  0  0  0  0
  -24.9750  -28.9750   19.9230 C   0  0  0  0  0  0  0  0  0  0  0  0
  -26.0000  -30.8420   21.2250 C   0  0  0  0  0  2  0  0  0  0  0  0
  -26.1310  -29.4920   20.5240 C   0  0  0  0  0  0  0  0  0  0  0  0
  -27.3480  -28.7500   20.4700 C   0  0  0  0  0  3  0  0  0  0  0  0
  -26.2180  -27.0070   19.2210 C   0  0  0  0  0  3  0  0  0  0  0  0
  -25.0210  -27.7370   19.2660 C   0  0  0  0  0  3  0  0  0  0  0  0
  -23.7030  -29.7850   20.0330 C   0  0  0  0  0  2  0  0  0  0  0  0
  -24.7330  -31.0110   21.9890 N   0  0  0  0  0  0  0  0  0  0  0  0
  -23.5660  -31.9600   23.6860 O   0  0  0  0  0  0  0  0  0  0  0  0
  -22.8830  -29.2950   22.3650 C   0  0  0  0  0  0  0  0  0  0  0  0
  -21.5610  -29.0760   22.2510 N   0  0  0  0  0  0  0  0  0  0  0  0
  -23.5980  -28.6560   23.1410 O   0  0  0  0  0  0  0  0  0  0  0  0
  -21.0410  -29.6370   21.5900 H   0  0  0  0  0  0  0  0  0  0  0  0
  -18.2340  -27.7600   22.7960 C   0  0  0  0  0  0  0  0  0  0  0  0
  -20.7900  -28.0880   23.0080 C   0  0  0  0  0  3  0  0  0  0  0  0
  -20.9110  -26.6770   22.3880 C   0  0  0  0  0  2  0  0  0  0  0  0
  -19.8000  -26.3590   21.3820 C   0  0  0  0  0  2  0  0  0  0  0  0
  -18.4300  -26.4440   22.0670 C   0  0  0  0  0  2  0  0  0  0  0  0
  -19.3420  -28.5390   23.2210 C   0  0  0  0  0  0  0  0  0  0  0  0
  -19.1050  -29.7720   23.8660 C   0  0  0  0  0  3  0  0  0  0  0  0
  -17.7910  -30.2250   24.0920 C   0  0  0  0  0  3  0  0  0  0  0  0
  -16.6990  -29.4390   23.6850 C   0  0  0  0  0  3  0  0  0  0  0  0
  -16.9200  -28.2090   23.0440 C   0  0  0  0  0  3  0  0  0  0  0  0
  -25.9120  -32.4200   23.7670 C   0  0  0  0  0  3  0  0  0  0  0  0
  -25.5670  -33.8140   24.0800 N   0  0  0  0  0  0  0  0  0  0  0  0
  -25.8930  -34.8700   23.3230 C   0  0  0  0  0  0  0  0  0  0  0  0
  -26.5840  -34.7760   22.3050 O   0  0  0  0  0  0  0  0  0  0  0  0
  -24.9410  -33.9590   24.8570 H   0  0  0  0  0  0  0  0  0  0  0  0
  -24.1280  -36.6220   22.9530 C   0  0  0  0  0  1  0  0  0  0  0  0
  -25.3760  -36.2520   23.7700 C   0  0  0  0  0  3  0  0  0  0  0  0
  -27.4880  -37.1900   24.5950 C   0  0  0  0  0  1  0  0  0  0  0  0
  -26.3860  -37.3240   23.6470 N   0  0  0  0  0  0  0  0  0  0  0  0
  -25.9630  -38.2370   23.7810 H   0  0  0  0  0  0  0  0  0  0  0  0
  -26.4200  -31.6640   25.0540 C   0  0  1  0  0  0  0  0  0  0  0  0
  -25.3160  -31.4330   26.1130 C   0  0  0  0  0  1  0  0  0  0  0  0
  -27.0120  -30.2870   24.6760 C   0  0  0  0  0  1  0  0  0  0  0  0
  -27.5580  -32.4730   25.7150 C   0  0  0  0  0  1  0  0  0  0  0  0
  1  4  1  0
  2  1  2  0
  2  5  1  0
  4  9  1  0
  4  3  2  0
  5  6  2  0
  6  3  1  0
  6  7  1  0
  8  9  2  0
  9 46  1  0
 10  8  1  0
 11 16  1  0
 12 13  1  0
 12 11  1  0
 14 13  1  0
 14 21  1  0
 14 15  1  0
 16 10  1  0
 16 15  1  0
 17 10  2  0
 18 19  2  0
 19 38  1  0
 20 19  1  0
 20 23  1  0
 21 22  1  0
 21 18  1  0
 22 20  2  0
 23 24  1  0
 24 25  2  0
 26 29  1  0
 26 25  1  0
 27 26  2  0
 28 27  1  0
 28 23  2  0
 29 30  1  0
 30 31  1  0
 31 32  2  0
 33 32  1  0
 33 37  1  0
 34 33  2  0
 35 30  2  0
 35 34  1  0
 36 35  1  0
 38 39  1  0
 39 42  1  0
 39 41  1  0
 40 38  2  0
 43 44  1  0
 43 18  1  0
 45 43  1  0
 46 47  1  0
 49 48  1  0
 49  5  1  0
 50 49  1  0
 51 52  1  0
 51 50  1  0
 53 64  2  0
 54 52  1  0
 54 59  1  0
 55 63  1  0
 55 65  1  0
 56 62  1  0
 56 58  1  0
 57 63  1  0
 58 57  1  0
 59 58  2  0
 60 61  1  0
 60 54  2  0
 61 56  2  0
 62 55  1  0
 63 53  1  0
 65 67  2  0
 66 65  1  0
 68 66  1  0
 69 78  2  0
 69 74  1  0
 70 66  1  0
 70 74  1  0
 71 70  1  0
 72 73  1  0
 72 71  1  0
 73 69  1  0
 74 75  2  0
 75 76  1  0
 77 76  2  0
 78 77  1  0
 79 53  1  0
 79 80  1  0
 79 89  1  0
 80 83  1  0
 81 85  1  0
 81 80  1  0
 82 81  2  0
 85 84  1  0
 87 85  1  0
 87 88  1  0
 87 86  1  0
 89 92  1  1
 89 90  1  0
 91 89  1  0
M  ISO  4   8 100  10 100  51 101  52 101
M  END
>  <TORSDO>  (53) 
F 21

>  <SCORE>  (53) 
-13.076

>  <name>  (53) 
52

>  <ligand_id>  (53) 
52

>  <original_smiles>  (53) 
[H]OC(=C([H])C(=O)N1C([H])([H])C([H])([H])C([H])([H])C([H])(n2nc(-c3c([H])c([H])c(Oc4c([H])c([H])c(F)c([H])c4F)c([H])c3[H])c(C(=O)N([H])[H])c2N([H])[H])C1([H])[H])c1c([H])c([H])c(C([H])(C([H])([H])[H])C([H])([H])C([H])([H])Oc2c([H])c([H])c3c(c2[H])C([H])([H])N(C(=O)C([H])(N([H])C(=O)C([H])(N([H])C([H])([H])[H])C([H])([H])[H])C(C([H])([H])[H])(C([H])([H])[H])C([H])([H])[H])C([H])(C(=O)N([H])C2([H])c4c([H])c([H])c([H])c([H])c4C([H])([H])C([H])([H])C2([H])[H])C3([H])[H])c(C([H])([H])[H])c1[H]

>  <smiles>  (53) 
[H]OC(=C([H])C(=O)N1C([H])([H])C([H])([H])C([H])([H])C([H])(n2nc(-c3c([H])c([H])c(Oc4c([H])c([H])c(F)c([H])c4F)c([H])c3[H])c(C(=O)N([H])[H])c2N([H])[H])C1([H])[H])c1c([H])c([H])c(C([H])(C([H])([H])[H])C([H])([H])C([H])([H])Oc2c([H])c([H])c3c(c2[H])C([H])([H])N(C(=O)C([H])(N([H])C(=O)C([H])(N([H])C([H])([H])[H])C([H])([H])[H])C(C([H])([H])[H])(C([H])([H])[H])C([H])([H])[H])C([H])(C(=O)N([H])C2([H])c4c([H])c([H])c([H])c([H])c4C([H])([H])C([H])([H])C2([H])[H])C3([H])[H])c(C([H])([H])[H])c1[H]

$$$$
53:0:0
     RDKit          3D

 91 92  0  0  1  0  0  0  0  0999 V2000
  -23.3300  -24.9740   20.3840 C   0  0  0  0  0  0  0  0  0  0  0  0
  -22.6420  -26.4760   20.1250 N   0  0  0  0  0  2  0  0  0  0  0  0
  -22.7230  -24.3070   21.2620 O   0  0  0  0  0  0  0  0  0  0  0  0
  -21.7900  -26.0930   19.7180 H   0  0  0  0  0  0  0  0  0  0  0  0
  -25.0740  -22.2070   17.7240 C   0  0  0  0  0  3  0  0  0  0  0  0
  -24.4400  -23.3390   18.3690 C   0  0  0  0  0  3  0  0  0  0  0  0
  -25.9780  -21.2260   18.2680 C   0  0  0  0  0  3  0  0  0  0  0  0
  -25.5520  -22.4460   20.2860 C   0  0  0  0  0  3  0  0  0  0  0  0
  -24.5320  -23.6850   19.7510 C   0  0  0  0  0  0  0  0  0  0  0  0
  -26.4260  -21.1520   19.6060 C   0  0  0  0  0  3  0  0  0  0  0  0
  -27.8160  -19.7300   19.9320 C   0  0  0  0  0 15  0  0  0  0  0  0
  -28.5010  -17.7700   19.5160 C   0  0  0  0  0 15  0  0  0  0  0  0
  -29.8720  -16.2840   19.6270 C   0  0  0  0  0  2  0  0  0  0  0  0
  -30.5670  -13.6790   18.9680 C   0  0  0  0  0  2  0  0  0  0  0  0
  -29.7200  -13.0460   17.8130 C   0  0  0  0  0  2  0  0  0  0  0  0
  -28.3270  -12.6270   18.3000 C   0  0  0  0  0  2  0  0  0  0  0  0
  -27.7830  -13.6760   19.2930 C   0  0  0  0  0  3  0  0  0  0  0  0
  -28.7670  -14.0310   20.4040 C   0  0  0  0  0  2  0  0  0  0  0  0
  -29.7760  -14.8050   19.7020 N   0  0  0  0  0  0  0  0  0  0  0  0
  -31.1170  -16.4060   19.4210 O   0  0  0  0  0  1  0  0  0  0  0  0
  -25.5260  -14.2710   20.2150 C   0  0  0  0  0  0  0  0  0  0  0  0
  -24.4830  -13.5120   20.6400 C   0  0  0  0  0  0  0  0  0  0  0  0
  -24.9270  -12.1550   20.5730 C   0  0  0  0  0  0  0  0  0  0  0  0
  -26.5100  -13.3670   19.8770 N   0  0  0  0  0  0  0  0  0  0  0  0
  -26.1860  -12.0890   20.1740 N   0  0  0  0  0  0  0  0  0  0  0  0
  -24.1930  -10.9090   20.7880 C   0  0  0  0  0  0  0  0  0  0  0  0
  -24.6170   -9.9590   21.7430 C   0  0  0  0  0  3  0  0  0  0  0  0
  -23.8780   -8.7760   21.9400 C   0  0  0  0  0  3  0  0  0  0  0  0
  -22.7040   -8.5430   21.1830 C   0  0  0  0  0  0  0  0  0  0  0  0
  -22.3020   -9.4830   20.2180 C   0  0  0  0  0  3  0  0  0  0  0  0
  -23.0410  -10.6560   20.0190 C   0  0  0  0  0  3  0  0  0  0  0  0
  -21.9310   -7.4120   21.2930 O   0  0  0  0  0  0  0  0  0  0  0  0
  -21.8070   -6.7450   22.4840 C   0  0  0  0  0  0  0  0  0  0  0  0
  -21.3290   -7.3810   23.6520 C   0  0  0  0  0  3  0  0  0  0  0  0
  -21.1470   -6.6340   24.8330 C   0  0  0  0  0  3  0  0  0  0  0  0
  -21.4370   -5.2570   24.8470 C   0  0  0  0  0  0  0  0  0  0  0  0
  -21.9090   -4.6240   23.6860 C   0  0  0  0  0  3  0  0  0  0  0  0
  -22.0910   -5.3660   22.5060 C   0  0  0  0  0  0  0  0  0  0  0  0
  -22.5270   -4.7480   21.3820 F   0  0  0  0  0  0  0  0  0  0  0  0
  -21.2550   -4.5390   25.9790 F   0  0  0  0  0  0  0  0  0  0  0  0
  -23.1190  -14.0220   20.9870 C   0  0  0  0  0  0  0  0  0  0  0  0
  -22.4270  -13.3460   21.8940 N   0  0  0  0  0  0  0  0  0  0  0  0
  -22.6840  -15.0600   20.4920 O   0  0  0  0  0  0  0  0  0  0  0  0
  -22.8010  -12.5090   22.3140 H   0  0  0  0  0  0  0  0  0  0  0  0
  -21.5140  -13.6750   22.1730 H   0  0  0  0  0  0  0  0  0  0  0  0
  -25.7120  -15.6360   20.0640 N   0  0  0  0  0  0  0  0  0  0  0  0
  -24.9800  -16.2960   20.2870 H   0  0  0  0  0  0  0  0  0  0  0  0
  -26.5730  -16.0700   19.7790 H   0  0  0  0  0  0  0  0  0  0  0  0
  -21.7930  -28.1960   20.7890 C   0  0  0  0  0 15  0  0  0  0  0  0
  -22.6110  -29.6290   22.7040 C   0  0  0  0  0 15  0  0  0  0  0  0
  -24.9480  -29.0210   22.8760 O   0  0  0  0  0  1  0  0  0  0  0  0
  -24.4520  -31.6540   22.8820 C   0  0  0  0  0  0  0  0  0  0  0  0
  -26.0210  -28.1540   22.0140 C   0  0  0  0  0  3  0  0  0  0  0  0
  -23.8790  -29.2030   20.9890 C   0  0  0  0  0  2  0  0  0  0  0  0
  -25.3880  -28.7930   19.6440 C   0  0  0  0  0  3  0  0  0  0  0  0
  -25.7860  -30.9920   20.9180 C   0  0  0  0  0  2  0  0  0  0  0  0
  -26.2530  -29.6230   20.4510 C   0  0  0  0  0  3  0  0  0  0  0  0
  -26.9930  -28.9400   21.4060 C   0  0  0  0  0  2  0  0  0  0  0  0
  -25.8220  -27.0420   21.0640 C   0  0  0  0  0  2  0  0  0  0  0  0
  -25.4320  -27.3960   19.7700 C   0  0  0  0  0  2  0  0  0  0  0  0
  -24.0250  -29.2040   19.5090 C   0  0  0  0  0  2  0  0  0  0  0  0
  -24.5130  -30.8370   21.6000 N   0  0  0  0  0  0  0  0  0  0  0  0
  -23.3900  -31.9750   23.4600 O   0  0  0  0  0  0  0  0  0  0  0  0
  -23.3420  -27.4360   22.5810 C   0  0  0  0  0  2  0  0  0  0  0  0
  -21.9750  -27.4040   23.2980 N   0  0  0  0  0  0  0  0  0  0  0  0
  -23.8640  -27.1970   23.6440 O   0  0  0  0  0  1  0  0  0  0  0  0
  -22.2150  -26.9990   24.1880 H   0  0  0  0  0  0  0  0  0  0  0  0
  -17.8250  -27.8630   22.7570 C   0  0  0  0  0  0  0  0  0  0  0  0
  -20.3830  -27.4830   23.2920 C   0  0  0  0  0  3  0  0  0  0  0  0
  -20.0980  -26.1850   22.6340 C   0  0  0  0  0  2  0  0  0  0  0  0
  -19.0540  -26.1150   21.5240 C   0  0  0  0  0  2  0  0  0  0  0  0
  -17.7940  -26.4210   22.2840 C   0  0  0  0  0  2  0  0  0  0  0  0
  -19.0630  -28.4740   23.1990 C   0  0  0  0  0  0  0  0  0  0  0  0
  -18.8390  -29.7660   23.7770 C   0  0  0  0  0  3  0  0  0  0  0  0
  -17.5380  -30.3810   23.8550 C   0  0  0  0  0  3  0  0  0  0  0  0
  -16.3790  -29.7340   23.3810 C   0  0  0  0  0  3  0  0  0  0  0  0
  -16.5470  -28.4720   22.8230 C   0  0  0  0  0  3  0  0  0  0  0  0
  -25.6160  -32.3330   23.8050 C   0  0  0  0  0  3  0  0  0  0  0  0
  -25.2490  -33.7550   24.1280 N   0  0  0  0  0  0  0  0  0  0  0  0
  -25.6520  -34.8460   23.4580 C   0  0  0  0  0  0  0  0  0  0  0  0
  -26.3940  -34.7520   22.4840 O   0  0  0  0  0  0  0  0  0  0  0  0
  -24.6140  -33.8750   24.9080 H   0  0  0  0  0  0  0  0  0  0  0  0
  -23.9430  -36.6730   23.0930 C   0  0  0  0  0  1  0  0  0  0  0  0
  -25.1660  -36.2430   23.9180 C   0  0  0  0  0  3  0  0  0  0  0  0
  -27.2860  -37.1720   24.7840 C   0  0  0  0  0  1  0  0  0  0  0  0
  -26.2000  -37.3040   23.8150 N   0  0  0  0  0  0  0  0  0  0  0  0
  -25.7830  -38.2270   23.9440 H   0  0  0  0  0  0  0  0  0  0  0  0
  -25.9490  -31.6750   25.2420 C   0  0  1  0  0  0  0  0  0  0  0  0
  -24.7330  -31.4920   26.1860 C   0  0  0  0  0  1  0  0  0  0  0  0
  -26.6080  -30.2960   25.0880 C   0  0  0  0  0  1  0  0  0  0  0  0
  -26.9880  -32.5270   26.0420 C   0  0  0  0  0  1  0  0  0  0  0  0
  1  3  2  0
  2  1  1  0
  4  2  1  0
  5  7  2  0
  5  6  1  0
  6  9  2  0
  7 10  1  0
  9  8  1  0
  9  1  1  0
 10  8  2  0
 13 19  1  0
 14 19  1  0
 15 16  1  0
 15 14  1  0
 17 16  1  0
 17 24  1  0
 17 18  1  0
 19 18  1  0
 20 13  1  0
 21 22  2  0
 22 41  1  0
 23 22  1  0
 23 26  1  0
 24 25  1  0
 24 21  1  0
 25 23  2  0
 26 27  1  0
 27 28  2  0
 29 32  1  0
 29 28  1  0
 30 29  2  0
 31 30  1  0
 31 26  2  0
 32 33  1  0
 33 38  2  0
 33 34  1  0
 34 35  2  0
 35 36  1  0
 36 40  1  0
 37 36  2  0
 38 37  1  0
 39 38  1  0
 41 42  1  0
 42 45  1  0
 42 44  1  0
 43 41  2  0
 46 21  1  0
 46 47  1  0
 48 46  1  0
 52 63  2  0
 53 51  1  0
 54 62  1  0
 55 61  1  0
 55 60  1  0
 55 57  1  0
 56 62  1  0
 57 56  1  0
 57 58  1  0
 58 53  1  0
 59 53  1  0
 60 59  1  0
 61 54  1  0
 62 52  1  0
 64 65  1  0
 64 66  1  0
 65 67  1  0
 68 77  2  0
 68 73  1  0
 69 65  1  0
 70 69  1  0
 71 72  1  0
 71 70  1  0
 72 68  1  0
 73 69  1  0
 73 74  2  0
 74 75  1  0
 76 75  2  0
 77 76  1  0
 78 52  1  0
 78 79  1  0
 78 88  1  0
 79 82  1  0
 80 84  1  0
 80 79  1  0
 81 80  2  0
 84 83  1  0
 86 84  1  0
 86 87  1  0
 86 85  1  0
 88 91  1  1
 88 89  1  0
 90 88  1  0
M  ISO  4  12 100  13 100  50 101  51 101
M  END
>  <TORSDO>  (54) 
F 21

>  <SCORE>  (54) 
-14.897

>  <name>  (54) 
53

>  <ligand_id>  (54) 
53

>  <original_smiles>  (54) 
[H]c1c([H])c(C(=O)N([H])C([H])([H])C([H])([H])Oc2c([H])c([H])c3c(c2[H])C([H])([H])N(C(=O)C([H])(N([H])C(=O)C([H])(N([H])C([H])([H])[H])C([H])([H])[H])C(C([H])([H])[H])(C([H])([H])[H])C([H])([H])[H])C([H])(C(=O)N([H])C2([H])c4c([H])c([H])c([H])c([H])c4C([H])([H])C([H])([H])C2([H])[H])C3([H])[H])c([H])c(C([H])([H])C([H])([H])C(=O)N2C([H])([H])C([H])([H])C([H])([H])C([H])(n3nc(-c4c([H])c([H])c(Oc5c([H])c([H])c(F)c([H])c5F)c([H])c4[H])c(C(=O)N([H])[H])c3N([H])[H])C2([H])[H])c1[H]

>  <smiles>  (54) 
[H]c1c([H])c(C(=O)N([H])C([H])([H])C([H])([H])Oc2c([H])c([H])c3c(c2[H])C([H])([H])N(C(=O)C([H])(N([H])C(=O)C([H])(N([H])C([H])([H])[H])C([H])([H])[H])C(C([H])([H])[H])(C([H])([H])[H])C([H])([H])[H])C([H])(C(=O)N([H])C2([H])c4c([H])c([H])c([H])c([H])c4C([H])([H])C([H])([H])C2([H])[H])C3([H])[H])c([H])c(C([H])([H])C([H])([H])C(=O)N2C([H])([H])C([H])([H])C([H])([H])C([H])(n3nc(-c4c([H])c([H])c(Oc5c([H])c([H])c(F)c([H])c5F)c([H])c4[H])c(C(=O)N([H])[H])c3N([H])[H])C2([H])[H])c1[H]

$$$$
54:0:0
     RDKit          3D

 92100  0  0  1  0  0  0  0  0999 V2000
  -29.2920  -22.1210   20.4050 C   0  0  0  0  0  3  0  0  0  0  0  0
  -30.3980  -21.6380   18.2840 C   0  0  0  0  0  3  0  0  0  0  0  0
  -29.3710  -20.7660   20.7650 C   0  0  0  0  0  3  0  0  0  0  0  0
  -30.4600  -20.2850   18.6370 C   0  0  0  0  0  3  0  0  0  0  0  0
  -29.8140  -22.5570   19.1660 C   0  0  0  0  0  0  0  0  0  0  0  0
  -29.9480  -19.8370   19.8760 C   0  0  0  0  0  0  0  0  0  0  0  0
  -29.7270  -23.9480   18.7590 C   0  0  0  0  0  3  0  0  0  0  0  0
  -28.7180  -24.7530   19.1060 C   0  0  0  0  0  3  0  0  0  0  0  0
  -28.6850  -26.2150   18.7940 C   0  0  0  0  0  2  0  0  0  0  0  0
  -28.4040  -26.9030   19.9970 O   0  0  0  0  0  0  0  0  0  0  0  0
  -24.5430  -31.8760   23.2140 C   0  0  0  0  0  0  0  0  0  0  0  0
  -27.1780  -27.5050   20.0770 C   0  0  0  0  0  0  0  0  0  0  0  0
  -23.3190  -30.4730   21.5780 C   0  0  0  0  0  3  0  0  0  0  0  0
  -24.7600  -28.9380   20.1480 C   0  0  0  0  0  0  0  0  0  0  0  0
  -25.8370  -30.8450   21.3590 C   0  0  0  0  0  2  0  0  0  0  0  0
  -25.9140  -29.4760   20.7290 C   0  0  0  0  0  0  0  0  0  0  0  0
  -27.1200  -28.7570   20.7110 C   0  0  0  0  0  3  0  0  0  0  0  0
  -26.0020  -26.9480   19.5230 C   0  0  0  0  0  3  0  0  0  0  0  0
  -24.7920  -27.6660   19.5520 C   0  0  0  0  0  3  0  0  0  0  0  0
  -23.5150  -29.7910   20.1970 C   0  0  0  0  0  2  0  0  0  0  0  0
  -24.5840  -31.0800   22.1080 N   0  0  0  0  0  0  0  0  0  0  0  0
  -23.4670  -32.1470   23.7650 O   0  0  0  0  0  0  0  0  0  0  0  0
  -22.6820  -29.4500   22.5440 C   0  0  0  0  0  0  0  0  0  0  0  0
  -21.3560  -29.2680   22.4300 N   0  0  0  0  0  0  0  0  0  0  0  0
  -23.3760  -28.8200   23.3460 O   0  0  0  0  0  0  0  0  0  0  0  0
  -20.8580  -29.8370   21.7590 H   0  0  0  0  0  0  0  0  0  0  0  0
  -17.9880  -28.0790   22.9510 C   0  0  0  0  0  0  0  0  0  0  0  0
  -20.5460  -28.3300   23.2050 C   0  0  0  0  0  3  0  0  0  0  0  0
  -20.6410  -26.8990   22.6270 C   0  0  0  0  0  2  0  0  0  0  0  0
  -19.5340  -26.5800   21.6180 C   0  0  0  0  0  2  0  0  0  0  0  0
  -18.1560  -26.7300   22.2700 C   0  0  0  0  0  2  0  0  0  0  0  0
  -19.1120  -28.8380   23.3740 C   0  0  0  0  0  0  0  0  0  0  0  0
  -18.8990  -30.1020   23.9640 C   0  0  0  0  0  3  0  0  0  0  0  0
  -17.5980  -30.6080   24.1370 C   0  0  0  0  0  3  0  0  0  0  0  0
  -16.4890  -29.8460   23.7310 C   0  0  0  0  0  3  0  0  0  0  0  0
  -16.6850  -28.5830   23.1450 C   0  0  0  0  0  3  0  0  0  0  0  0
  -25.8400  -32.5020   23.8200 C   0  0  0  0  0  3  0  0  0  0  0  0
  -25.5350  -33.8950   24.1630 N   0  0  0  0  0  0  0  0  0  0  0  0
  -25.8590  -34.9540   23.4080 C   0  0  0  0  0  0  0  0  0  0  0  0
  -26.5210  -34.8600   22.3720 O   0  0  0  0  0  0  0  0  0  0  0  0
  -24.9430  -34.0420   24.9670 H   0  0  0  0  0  0  0  0  0  0  0  0
  -24.1250  -36.7480   23.0810 C   0  0  0  0  0  1  0  0  0  0  0  0
  -25.3700  -36.3360   23.8800 C   0  0  0  0  0  3  0  0  0  0  0  0
  -27.5100  -37.2170   24.7020 C   0  0  0  0  0  1  0  0  0  0  0  0
  -26.4010  -37.3920   23.7720 N   0  0  0  0  0  0  0  0  0  0  0  0
  -25.9920  -38.3080   23.9330 H   0  0  0  0  0  0  0  0  0  0  0  0
  -26.3810  -31.7200   25.0790 C   0  0  1  0  0  0  0  0  0  0  0  0
  -25.3060  -31.4780   26.1630 C   0  0  0  0  0  1  0  0  0  0  0  0
  -26.9580  -30.3450   24.6690 C   0  0  0  0  0  1  0  0  0  0  0  0
  -27.5430  -32.5080   25.7300 C   0  0  0  0  0  1  0  0  0  0  0  0
  -30.0230  -18.3720   20.2660 C   0  0  0  0  0  2  0  0  0  0  0  0
  -31.4440  -17.7930   20.1440 C   0  0  0  0  0  2  0  0  0  0  0  0
  -33.1820  -16.3980   19.0680 C   0  0  0  0  0  1  0  0  0  0  0  0
  -31.3330  -17.1700   17.6370 C   0  0  0  0  0  1  0  0  0  0  0  0
  -31.6590  -16.6970   19.0720 C   0  0  2  0  0  0  0  0  0  0  0  0
  -30.7360  -15.4550   19.3100 C   0  0  0  0  0  2  0  0  0  0  0  0
  -31.0200  -14.4840   20.4700 C   0  0  0  0  0  0  0  0  0  0  0  0
  -30.6370  -12.2790   19.5900 C   0  0  0  0  0  2  0  0  0  0  0  0
  -29.7410  -12.3810   18.3370 C   0  0  0  0  0  2  0  0  0  0  0  0
  -28.2560  -12.3630   18.7280 C   0  0  0  0  0  2  0  0  0  0  0  0
  -27.8900  -13.3130   19.8990 C   0  0  0  0  0  3  0  0  0  0  0  0
  -28.9140  -13.2350   21.0550 C   0  0  0  0  0  2  0  0  0  0  0  0
  -30.2770  -13.3560   20.5150 N   0  0  0  0  0  0  0  0  0  0  0  0
  -32.1580  -14.5200   20.8960 O   0  0  0  0  0  0  0  0  0  0  0  0
  -25.4710  -13.9470   20.5220 C   0  0  0  0  0  0  0  0  0  0  0  0
  -24.3850  -13.1860   20.8550 C   0  0  0  0  0  0  0  0  0  0  0  0
  -24.8420  -11.8310   20.8780 C   0  0  0  0  0  0  0  0  0  0  0  0
  -26.5240  -13.0600   20.3580 N   0  0  0  0  0  0  0  0  0  0  0  0
  -26.1470  -11.7860   20.6430 N   0  0  0  0  0  0  0  0  0  0  0  0
  -24.1050  -10.5740   21.0520 C   0  0  0  0  0  0  0  0  0  0  0  0
  -24.5040   -9.6090   22.0040 C   0  0  0  0  0  3  0  0  0  0  0  0
  -23.7630   -8.4190   22.1690 C   0  0  0  0  0  3  0  0  0  0  0  0
  -22.6120   -8.1810   21.3830 C   0  0  0  0  0  0  0  0  0  0  0  0
  -22.2370   -9.1330   20.4180 C   0  0  0  0  0  3  0  0  0  0  0  0
  -22.9750  -10.3150   20.2490 C   0  0  0  0  0  3  0  0  0  0  0  0
  -21.8500   -7.0400   21.4580 O   0  0  0  0  0  0  0  0  0  0  0  0
  -21.7740   -6.2970   22.6080 C   0  0  0  0  0  0  0  0  0  0  0  0
  -21.3500   -6.8620   23.8310 C   0  0  0  0  0  3  0  0  0  0  0  0
  -21.2180   -6.0490   24.9740 C   0  0  0  0  0  3  0  0  0  0  0  0
  -21.5030   -4.6740   24.8970 C   0  0  0  0  0  0  0  0  0  0  0  0
  -21.9210   -4.1080   23.6810 C   0  0  0  0  0  3  0  0  0  0  0  0
  -22.0540   -4.9170   22.5380 C   0  0  0  0  0  0  0  0  0  0  0  0
  -22.4360   -4.3620   21.3620 F   0  0  0  0  0  0  0  0  0  0  0  0
  -21.3720   -3.8920   25.9950 F   0  0  0  0  0  0  0  0  0  0  0  0
  -22.9750  -13.6680   21.0420 C   0  0  0  0  0  0  0  0  0  0  0  0
  -22.2030  -12.9990   21.8910 N   0  0  0  0  0  0  0  0  0  0  0  0
  -22.5620  -14.6780   20.4700 O   0  0  0  0  0  0  0  0  0  0  0  0
  -22.5480  -12.1920   22.3910 H   0  0  0  0  0  0  0  0  0  0  0  0
  -21.2520  -13.2980   22.0520 H   0  0  0  0  0  0  0  0  0  0  0  0
  -25.6480  -15.3130   20.3220 N   0  0  0  0  0  0  0  0  0  0  0  0
  -24.8830  -15.9770   20.3900 H   0  0  0  0  0  0  0  0  0  0  0  0
  -26.5240  -15.7470   20.0600 H   0  0  0  0  0  0  0  0  0  0  0  0
  1  3  1  0
  2  4  2  0
  2  5  1  0
  4  6  1  0
  5  1  2  0
  6 51  1  0
  6  3  2  0
  7  8  2  0
  7  5  1  0
  9  8  1  0
  9 10  1  0
 10 12  1  0
 11 22  2  0
 12 17  1  0
 13 21  1  0
 13 23  1  0
 14 20  1  0
 14 16  1  0
 15 21  1  0
 16 15  1  0
 17 16  2  0
 18 19  1  0
 18 12  2  0
 19 14  2  0
 20 13  1  0
 21 11  1  0
 23 25  2  0
 24 23  1  0
 26 24  1  0
 27 36  2  0
 27 32  1  0
 28 24  1  0
 28 32  1  0
 29 28  1  0
 30 31  1  0
 30 29  1  0
 31 27  1  0
 32 33  2  0
 33 34  1  0
 35 34  2  0
 36 35  1  0
 37 11  1  0
 37 38  1  0
 37 47  1  0
 38 41  1  0
 39 43  1  0
 39 38  1  0
 40 39  2  0
 43 42  1  0
 45 43  1  0
 45 46  1  0
 45 44  1  0
 47 50  1  1
 47 48  1  0
 49 47  1  0
 52 51  1  0
 55 53  1  6
 54 55  1  0
 55 56  1  0
 55 52  1  0
 56 57  1  0
 57 63  1  0
 57 64  2  0
 58 63  1  0
 59 60  1  0
 59 58  1  0
 61 60  1  0
 61 68  1  0
 61 62  1  0
 63 62  1  0
 65 66  2  0
 66 67  1  0
 66 85  1  0
 67 70  1  0
 68 65  1  0
 68 69  1  0
 69 67  2  0
 70 71  1  0
 71 72  2  0
 73 76  1  0
 73 72  1  0
 74 73  2  0
 75 74  1  0
 75 70  2  0
 76 77  1  0
 77 78  1  0
 78 79  2  0
 80 79  1  0
 80 84  1  0
 81 80  2  0
 82 77  2  0
 82 81  1  0
 83 82  1  0
 85 86  1  0
 86 89  1  0
 86 88  1  0
 87 85  2  0
 90 91  1  0
 90 65  1  0
 92 90  1  0
M  ISO  4   9 101  10 101  56 100  57 100
M  END
>  <TORSDO>  (55) 
F 22

>  <SCORE>  (55) 
-13.055

>  <name>  (55) 
54

>  <ligand_id>  (55) 
54

>  <original_smiles>  (55) 
[H]C(=C([H])C([H])([H])Oc1c([H])c([H])c2c(c1[H])C([H])([H])N(C(=O)C([H])(N([H])C(=O)C([H])(N([H])C([H])([H])[H])C([H])([H])[H])C(C([H])([H])[H])(C([H])([H])[H])C([H])([H])[H])C([H])(C(=O)N([H])C1([H])c3c([H])c([H])c([H])c([H])c3C([H])([H])C([H])([H])C1([H])[H])C2([H])[H])c1c([H])c([H])c(C([H])([H])C([H])([H])C(C([H])([H])[H])(C([H])([H])[H])C([H])([H])C(=O)N2C([H])([H])C([H])([H])C([H])([H])C([H])(n3nc(-c4c([H])c([H])c(Oc5c([H])c([H])c(F)c([H])c5F)c([H])c4[H])c(C(=O)N([H])[H])c3N([H])[H])C2([H])[H])c([H])c1[H]

>  <smiles>  (55) 
[H]C(=C([H])C([H])([H])Oc1c([H])c([H])c2c(c1[H])C([H])([H])N(C(=O)C([H])(N([H])C(=O)C([H])(N([H])C([H])([H])[H])C([H])([H])[H])C(C([H])([H])[H])(C([H])([H])[H])C([H])([H])[H])C([H])(C(=O)N([H])C1([H])c3c([H])c([H])c([H])c([H])c3C([H])([H])C([H])([H])C1([H])[H])C2([H])[H])c1c([H])c([H])c(C([H])([H])C([H])([H])C(C([H])([H])[H])(C([H])([H])[H])C([H])([H])C(=O)N2C([H])([H])C([H])([H])C([H])([H])C([H])(n3nc(-c4c([H])c([H])c(Oc5c([H])c([H])c(F)c([H])c5F)c([H])c4[H])c(C(=O)N([H])[H])c3N([H])[H])C2([H])[H])c([H])c1[H]

$$$$
55:0:0
     RDKit          3D

 94 92  0  0  1  0  0  0  0  0999 V2000
  -23.0520  -11.3540   20.4420 C   0  0  0  0  0  1  0  0  0  0  0  0
  -22.9810  -12.6190   21.9770 C   0  0  0  0  0  1  0  0  0  0  0  0
  -24.7080  -10.4340   20.2420 C   0  0  0  0  0  2  0  0  0  0  0  0
  -24.4000  -13.3430   22.7700 C   0  0  0  0  0  2  0  0  0  0  0  0
  -26.1070  -10.9750   21.4440 C   0  0  0  0  0  3  0  0  0  0  0  0
  -25.7700  -12.2590   22.6730 C   0  0  0  0  0  3  0  0  0  0  0  0
  -26.7060  -12.5090   23.6150 F   0  0  0  0  0  0  0  0  0  0  0  0
  -24.6570  -15.3470   22.9930 C   0  0  0  0  0 15  0  0  0  0  0  0
  -25.2690  -17.2340   22.2010 C   0  0  0  0  0 15  0  0  0  0  0  0
  -25.4790  -19.3350   22.2990 C   0  0  0  0  0 15  0  0  0  0  0  0
  -26.2660  -21.1110   21.4620 C   0  0  0  0  0 15  0  0  0  0  0  0
  -26.3040  -23.2240   21.3700 C   0  0  0  0  0 15  0  0  0  0  0  0
  -27.1460  -24.8570   20.8670 O   0  0  0  0  0  1  0  0  0  0  0  0
  -24.6870  -31.7920   23.1590 C   0  0  0  0  0  0  0  0  0  0  0  0
  -26.6810  -26.3490   20.5560 C   0  0  0  0  0  0  0  0  0  0  0  0
  -23.4990  -30.4210   21.5090 C   0  0  0  0  0  3  0  0  0  0  0  0
  -24.8920  -28.7360   20.1090 C   0  0  0  0  0  0  0  0  0  0  0  0
  -26.0760  -30.4140   21.4790 C   0  0  0  0  0  2  0  0  0  0  0  0
  -26.0440  -28.9510   20.8690 C   0  0  0  0  0  0  0  0  0  0  0  0
  -26.9570  -27.7750   21.0580 C   0  0  0  0  0  3  0  0  0  0  0  0
  -25.6910  -26.4520   19.5610 C   0  0  0  0  0  3  0  0  0  0  0  0
  -24.8000  -27.5410   19.3860 C   0  0  0  0  0  3  0  0  0  0  0  0
  -23.7530  -29.7610   20.1220 C   0  0  0  0  0  2  0  0  0  0  0  0
  -24.7820  -30.9230   22.0950 N   0  0  0  0  0  0  0  0  0  0  0  0
  -23.5900  -32.1150   23.6460 O   0  0  0  0  0  0  0  0  0  0  0  0
  -22.7710  -29.4330   22.4620 C   0  0  0  0  0  0  0  0  0  0  0  0
  -21.4360  -29.3030   22.3400 N   0  0  0  0  0  0  0  0  0  0  0  0
  -23.4160  -28.7890   23.2930 O   0  0  0  0  0  0  0  0  0  0  0  0
  -20.9640  -29.8720   21.6510 H   0  0  0  0  0  0  0  0  0  0  0  0
  -18.0330  -28.1420   22.8450 C   0  0  0  0  0  0  0  0  0  0  0  0
  -20.5960  -28.3780   23.1120 C   0  0  0  0  0  3  0  0  0  0  0  0
  -20.6790  -26.9430   22.5390 C   0  0  0  0  0  2  0  0  0  0  0  0
  -19.5760  -26.6360   21.5210 C   0  0  0  0  0  2  0  0  0  0  0  0
  -18.1950  -26.7950   22.1620 C   0  0  0  0  0  2  0  0  0  0  0  0
  -19.1600  -28.8920   23.2770 C   0  0  0  0  0  0  0  0  0  0  0  0
  -18.9510  -30.1510   23.8820 C   0  0  0  0  0  3  0  0  0  0  0  0
  -17.6500  -30.6600   24.0550 C   0  0  0  0  0  3  0  0  0  0  0  0
  -16.5390  -29.9080   23.6350 C   0  0  0  0  0  3  0  0  0  0  0  0
  -16.7310  -28.6510   23.0370 C   0  0  0  0  0  3  0  0  0  0  0  0
  -25.9480  -32.4380   23.8070 C   0  0  0  0  0  3  0  0  0  0  0  0
  -25.6060  -33.8230   24.1910 N   0  0  0  0  0  0  0  0  0  0  0  0
  -25.9160  -34.9240   23.4920 C   0  0  0  0  0  0  0  0  0  0  0  0
  -26.5800  -34.8830   22.4540 O   0  0  0  0  0  0  0  0  0  0  0  0
  -25.0110  -33.9270   25.0000 H   0  0  0  0  0  0  0  0  0  0  0  0
  -24.1500  -36.7110   23.2650 C   0  0  0  0  0  1  0  0  0  0  0  0
  -25.4160  -36.2850   24.0260 C   0  0  0  0  0  3  0  0  0  0  0  0
  -27.5560  -37.1720   24.8460 C   0  0  0  0  0  1  0  0  0  0  0  0
  -26.4270  -37.3630   23.9410 N   0  0  0  0  0  0  0  0  0  0  0  0
  -26.0080  -38.2670   24.1430 H   0  0  0  0  0  0  0  0  0  0  0  0
  -26.4610  -31.6500   25.0770 C   0  0  1  0  0  0  0  0  0  0  0  0
  -25.3640  -31.3890   26.1350 C   0  0  0  0  0  1  0  0  0  0  0  0
  -27.0570  -30.2800   24.6870 C   0  0  0  0  0  1  0  0  0  0  0  0
  -27.6040  -32.4410   25.7560 C   0  0  0  0  0  1  0  0  0  0  0  0
  -27.6910  -10.7560   21.2620 C   0  0  0  0  0  2  0  0  0  0  0  0
  -29.2280   -9.9240   19.6480 C   0  0  0  0  0  1  0  0  0  0  0  0
  -28.7100  -11.4130   20.0270 C   0  0  0  0  0  2  0  0  0  0  0  0
  -30.7150  -13.9420   20.5890 C   0  0  0  0  0  3  0  0  0  0  0  0
  -31.0440  -11.7450   19.2340 C   0  0  0  0  0  1  0  0  0  0  0  0
  -29.7600  -12.1080   17.8250 C   0  0  0  0  0  3  0  0  0  0  0  0
  -28.1440  -13.0190   18.1670 C   0  0  0  0  0  3  0  0  0  0  0  0
  -27.5930  -13.6780   19.8670 C   0  0  0  0  0  3  0  0  0  0  0  0
  -28.6010  -13.3550   21.4680 C   0  0  0  0  0  1  0  0  0  0  0  0
  -30.3340  -12.7580   20.7830 N   0  0  0  0  0  2  0  0  0  0  0  0
  -31.6670  -14.5330   20.0610 O   0  0  0  0  0  1  0  0  0  0  0  0
  -29.8640  -13.3670   19.7950 N   0  0  0  0  0  0  0  0  0  0  0  0
  -29.8200  -13.7610   18.8690 H   0  0  0  0  0  0  0  0  0  0  0  0
  -25.2790  -14.5360   20.0030 C   0  0  0  0  0  3  0  0  0  0  0  0
  -24.1400  -13.8470   20.0610 C   0  0  0  0  0  3  0  0  0  0  0  0
  -24.8250  -12.6820   20.5750 C   0  0  0  0  0  2  0  0  0  0  0  0
  -26.2700  -13.6340   20.0210 N   0  0  0  0  0  0  0  0  0  0  0  0
  -25.7520  -12.5900   19.6270 N   0  0  0  0  0  2  0  0  0  0  0  0
  -23.9950  -10.6250   22.3940 C   0  0  0  0  0  2  0  0  0  0  0  0
  -24.5340   -9.2570   22.5910 C   0  0  0  0  0  2  0  0  0  0  0  0
  -23.9350   -8.0110   22.1690 C   0  0  0  0  0  3  0  0  0  0  0  0
  -22.6450   -7.9540   21.5840 C   0  0  0  0  0  0  0  0  0  0  0  0
  -21.9690   -9.1330   21.5450 C   0  0  0  0  0  2  0  0  0  0  0  0
  -22.5500  -10.1030   22.4290 C   0  0  0  0  0  2  0  0  0  0  0  0
  -21.9000   -6.8230   21.3970 O   0  0  0  0  0  0  0  0  0  0  0  0
  -21.7280   -6.0270   22.5020 C   0  0  0  0  0  0  0  0  0  0  0  0
  -21.4150   -6.5390   23.7860 C   0  0  0  0  0  3  0  0  0  0  0  0
  -21.3540   -5.6700   24.8950 C   0  0  0  0  0  3  0  0  0  0  0  0
  -21.5860   -4.2930   24.7180 C   0  0  0  0  0  0  0  0  0  0  0  0
  -21.8580   -3.7810   23.4370 C   0  0  0  0  0  3  0  0  0  0  0  0
  -21.9220   -4.6470   22.3340 C   0  0  0  0  0  0  0  0  0  0  0  0
  -22.1860   -4.1590   21.0990 F   0  0  0  0  0  0  0  0  0  0  0  0
  -21.5460   -3.4560   25.7810 F   0  0  0  0  0  0  0  0  0  0  0  0
  -22.6900  -14.4080   20.1880 C   0  0  0  0  0  0  0  0  0  0  0  0
  -21.5790  -13.6450   20.1720 N   0  0  0  0  0  0  0  0  0  0  0  0
  -22.4910  -15.5250   20.5610 O   0  0  0  0  0  0  0  0  0  0  0  0
  -21.6580  -12.6560   19.9970 H   0  0  0  0  0  0  0  0  0  0  0  0
  -20.6740  -14.0580   20.3370 H   0  0  0  0  0  0  0  0  0  0  0  0
  -25.5770  -15.8240   19.8020 N   0  0  0  0  0  0  0  0  0  0  0  0
  -24.8630  -16.5380   19.7320 H   0  0  0  0  0  0  0  0  0  0  0  0
  -26.5140  -16.1820   19.6790 H   0  0  0  0  0  0  0  0  0  0  0  0
  2  4  1  0
  3  1  1  0
  5  3  1  0
  5  6  1  0
  6  4  1  0
  6  7  1  0
 14 25  2  0
 15 13  1  0
 15 20  1  0
 16 24  1  0
 16 26  1  0
 17 23  1  0
 17 19  1  0
 18 24  1  0
 19 20  2  0
 19 18  1  0
 21 15  2  0
 22 21  1  0
 22 17  2  0
 23 16  1  0
 24 14  1  0
 26 28  2  0
 27 26  1  0
 29 27  1  0
 30 39  2  0
 30 35  1  0
 31 27  1  0
 31 35  1  0
 32 31  1  0
 33 34  1  0
 33 32  1  0
 34 30  1  0
 35 36  2  0
 36 37  1  0
 38 37  2  0
 39 38  1  0
 40 14  1  0
 40 41  1  0
 40 50  1  0
 41 44  1  0
 42 46  1  0
 42 41  1  0
 43 42  2  0
 46 45  1  0
 48 46  1  0
 48 49  1  0
 48 47  1  0
 50 53  1  1
 50 51  1  0
 52 50  1  0
 54  5  1  0
 55 56  1  0
 56 54  1  0
 57 64  1  0
 57 63  1  0
 59 60  2  0
 59 58  1  0
 60 61  1  0
 61 70  1  0
 61 62  1  0
 65 57  1  0
 65 63  1  0
 66 65  1  0
 67 92  1  0
 67 70  1  0
 67 68  1  0
 68 87  1  0
 68 69  1  0
 71 70  1  0
 71 69  1  0
 72 77  1  0
 72 73  1  0
 74 73  1  0
 75 74  2  0
 76 75  1  0
 76 77  1  0
 78 75  1  0
 78 79  1  0
 79 80  1  0
 80 81  2  0
 82 81  1  0
 82 86  1  0
 83 82  2  0
 84 79  2  0
 84 83  1  0
 85 84  1  0
 87 89  2  0
 88 87  1  0
 88 91  1  0
 90 88  1  0
 93 92  1  0
 94 92  1  0
M  ISO  4  12 101  13 101  57 100  65 100
M  END
>  <TORSDO>  (56) 
F 23

>  <SCORE>  (56) 
19.098

>  <name>  (56) 
55

>  <ligand_id>  (56) 
55

>  <original_smiles>  (56) 
[H]c1c([H])c([H])c2c(c1[H])C([H])([H])C([H])([H])C([H])([H])C2([H])N([H])C(=O)C1([H])N(C(=O)C([H])(N([H])C(=O)C([H])(N([H])C([H])([H])[H])C([H])([H])[H])C(C([H])([H])[H])(C([H])([H])[H])C([H])([H])[H])C([H])([H])c2c([H])c(OC([H])([H])C([H])([H])C([H])([H])C([H])([H])C([H])([H])c3c([H])c([H])c([H])c(C([H])([H])C([H])(N([H])C(=O)N4C([H])([H])C([H])([H])C([H])([H])C([H])(n5nc(-c6c([H])c([H])c(Oc7c([H])c([H])c(F)c([H])c7F)c([H])c6[H])c(C(=O)N([H])[H])c5N([H])[H])C4([H])[H])C([H])([H])[H])c3F)c([H])c([H])c2C1([H])[H]

>  <smiles>  (56) 
[H]c1c([H])c([H])c2c(c1[H])C([H])([H])C([H])([H])C([H])([H])C2([H])N([H])C(=O)C1([H])N(C(=O)C([H])(N([H])C(=O)C([H])(N([H])C([H])([H])[H])C([H])([H])[H])C(C([H])([H])[H])(C([H])([H])[H])C([H])([H])[H])C([H])([H])c2c([H])c(OC([H])([H])C([H])([H])C([H])([H])C([H])([H])C([H])([H])c3c([H])c([H])c([H])c(C([H])([H])C([H])(N([H])C(=O)N4C([H])([H])C([H])([H])C([H])([H])C([H])(n5nc(-c6c([H])c([H])c(Oc7c([H])c([H])c(F)c([H])c7F)c([H])c6[H])c(C(=O)N([H])[H])c5N([H])[H])C4([H])[H])C([H])([H])[H])c3F)c([H])c([H])c2C1([H])[H]

$$$$
56:0:0
     RDKit          3D

 97101  0  0  1  0  0  0  0  0999 V2000
  -21.9540  -30.0250   20.1580 C   0  0  0  0  0  2  0  0  0  0  0  0
  -22.0400  -29.7330   21.7310 C   0  0  0  0  0  3  0  0  0  0  0  0
  -21.1280  -28.2450   19.9230 C   0  0  0  0  0  2  0  0  0  0  0  0
  -22.1960  -28.9210   19.1780 C   0  0  0  0  0  3  0  0  0  0  0  0
  -22.3140  -28.4300   22.4880 C   0  0  0  0  0  2  0  0  0  0  0  0
  -21.0390  -28.3920   21.4560 C   0  0  1  0  0  0  0  0  0  0  0  0
  -19.5720  -28.9480   21.6810 C   0  0  0  0  0  1  0  0  0  0  0  0
  -23.9670  -26.8250   22.8750 C   0  0  0  0  0 15  0  0  0  0  0  0
  -26.9870  -25.9730   20.6480 C   0  0  0  0  0  2  0  0  0  0  0  0
  -25.7830  -26.2200   21.9070 N   0  0  0  0  0  0  0  0  0  0  0  0
  -26.4650  -26.3390   19.6070 O   0  0  0  0  0  1  0  0  0  0  0  0
  -26.2870  -25.7970   22.6740 H   0  0  0  0  0  0  0  0  0  0  0  0
  -29.8810  -25.5540   21.2490 C   0  0  0  0  0  1  0  0  0  0  0  0
  -28.9830  -25.3040   20.0270 C   0  0  0  0  0  1  0  0  0  0  0  0
  -30.6430  -25.0380   18.4400 C   0  0  0  0  0 15  0  0  0  0  0  0
  -33.9540  -24.4250   16.6620 C   0  0  0  0  0  1  0  0  0  0  0  0
  -32.7040  -24.7120   17.8360 C   0  0  0  0  0  2  0  0  0  0  0  0
  -35.7490  -24.2510   15.8610 C   0  0  0  0  0  2  0  0  0  0  0  0
  -37.7870  -23.9410   13.8070 C   0  0  0  0  0  2  0  0  0  0  0  0
  -37.6680  -24.4000   12.2860 C   0  0  0  0  0  2  0  0  0  0  0  0
  -36.7400  -23.4880   11.4770 C   0  0  0  0  0  2  0  0  0  0  0  0
  -35.6040  -23.0680   12.4190 C   0  0  0  0  0  3  0  0  0  0  0  0
  -36.0400  -22.4840   13.7750 C   0  0  0  0  0  2  0  0  0  0  0  0
  -36.4150  -23.6410   14.5970 N   0  0  0  0  0  0  0  0  0  0  0  0
  -36.8530  -24.7840   16.2530 O   0  0  0  0  0  1  0  0  0  0  0  0
  -33.2940  -22.1950   12.1840 C   0  0  0  0  0  0  0  0  0  0  0  0
  -32.7430  -21.2230   11.4080 C   0  0  0  0  0  0  0  0  0  0  0  0
  -33.8190  -20.6640   10.6470 C   0  0  0  0  0  0  0  0  0  0  0  0
  -34.6290  -22.2030   11.8500 N   0  0  0  0  0  0  0  0  0  0  0  0
  -34.9730  -21.2260   10.9810 N   0  0  0  0  0  0  0  0  0  0  0  0
  -33.8000  -19.6750    9.5690 C   0  0  0  0  0  0  0  0  0  0  0  0
  -34.6690  -18.5640    9.5680 C   0  0  0  0  0  3  0  0  0  0  0  0
  -34.6070  -17.6160    8.5260 C   0  0  0  0  0  3  0  0  0  0  0  0
  -33.6700  -17.7740    7.4800 C   0  0  0  0  0  0  0  0  0  0  0  0
  -32.8200  -18.8920    7.4790 C   0  0  0  0  0  3  0  0  0  0  0  0
  -32.8850  -19.8390    8.5130 C   0  0  0  0  0  3  0  0  0  0  0  0
  -33.5490  -16.9170    6.4150 O   0  0  0  0  0  0  0  0  0  0  0  0
  -33.9820  -15.6180    6.4890 C   0  0  0  0  0  0  0  0  0  0  0  0
  -33.5260  -14.7340    7.4910 C   0  0  0  0  0  3  0  0  0  0  0  0
  -33.9440  -13.3890    7.4870 C   0  0  0  0  0  3  0  0  0  0  0  0
  -34.8060  -12.9230    6.4750 C   0  0  0  0  0  0  0  0  0  0  0  0
  -35.2600  -13.8020    5.4740 C   0  0  0  0  0  3  0  0  0  0  0  0
  -34.8450  -15.1440    5.4800 C   0  0  0  0  0  0  0  0  0  0  0  0
  -35.2660  -15.9810    4.5020 F   0  0  0  0  0  0  0  0  0  0  0  0
  -35.2020  -11.6280    6.4640 F   0  0  0  0  0  0  0  0  0  0  0  0
  -31.2840  -20.9130   11.3140 C   0  0  0  0  0  0  0  0  0  0  0  0
  -30.9430  -19.6640   11.0330 N   0  0  0  0  0  0  0  0  0  0  0  0
  -30.4380  -21.7770   11.5390 O   0  0  0  0  0  0  0  0  0  0  0  0
  -31.6380  -18.9520   10.8730 H   0  0  0  0  0  0  0  0  0  0  0  0
  -29.9680  -19.4100   10.9820 H   0  0  0  0  0  0  0  0  0  0  0  0
  -32.7830  -23.0840   13.1310 N   0  0  0  0  0  0  0  0  0  0  0  0
  -31.7880  -23.1490   13.3310 H   0  0  0  0  0  0  0  0  0  0  0  0
  -33.3320  -23.7840   13.6140 H   0  0  0  0  0  0  0  0  0  0  0  0
  -33.2260  -24.8510   19.0660 O   0  0  0  0  0  0  0  0  0  0  0  0
  -32.5260  -25.0860   19.6610 H   0  0  0  0  0  0  0  0  0  0  0  0
  -23.6360  -28.1470   18.2260 C   0  0  0  0  0  2  0  0  0  0  0  0
  -25.3660  -27.7360   18.4760 O   0  0  0  0  0  0  0  0  0  0  0  0
  -25.4330  -30.5260   23.2130 C   0  0  0  0  0  0  0  0  0  0  0  0
  -26.6430  -28.2080   18.0390 C   0  0  0  0  0  3  0  0  0  0  0  0
  -24.4540  -29.8420   21.0400 C   0  0  0  0  0  3  0  0  0  0  0  0
  -25.4840  -30.2870   18.9160 C   0  0  0  0  0  3  0  0  0  0  0  0
  -26.7320  -30.5150   21.0420 C   0  0  0  0  0  2  0  0  0  0  0  0
  -26.5960  -29.9240   19.6450 C   0  0  0  0  0  3  0  0  0  0  0  0
  -27.3590  -28.9190   19.0560 C   0  0  0  0  0  2  0  0  0  0  0  0
  -26.1930  -28.9710   17.0180 C   0  0  0  0  0  2  0  0  0  0  0  0
  -25.3910  -29.9970   17.5330 C   0  0  0  0  0  2  0  0  0  0  0  0
  -24.4450  -30.7770   19.7310 C   0  0  0  0  0  2  0  0  0  0  0  0
  -25.5450  -30.2710   21.8710 N   0  0  0  0  0  0  0  0  0  0  0  0
  -24.3900  -30.3590   23.8750 O   0  0  0  0  0  0  0  0  0  0  0  0
  -24.2590  -28.1110   20.9550 C   0  0  0  0  0  3  0  0  0  0  0  0
  -23.2170  -27.0160   20.4080 N   0  0  0  0  0  0  0  0  0  0  0  0
  -25.1720  -27.7070   21.6540 O   0  0  0  0  0  0  0  0  0  0  0  0
  -23.8220  -26.2560   20.1150 H   0  0  0  0  0  0  0  0  0  0  0  0
  -18.8530  -25.9610   21.0620 C   0  0  0  0  0  0  0  0  0  0  0  0
  -21.6820  -25.9920   20.9220 C   0  0  0  0  0  0  0  0  0  0  0  0
  -21.5530  -25.1400   19.7730 C   0  0  0  0  0  3  0  0  0  0  0  0
  -20.2570  -25.2520   19.0410 C   0  0  0  0  0  3  0  0  0  0  0  0
  -18.9960  -25.0680   19.8750 C   0  0  0  0  0  3  0  0  0  0  0  0
  -20.0400  -26.3120   21.7540 C   0  0  0  0  0  0  0  0  0  0  0  0
  -19.6170  -27.2080   22.8880 C   0  0  0  0  0  3  0  0  0  0  0  0
  -18.3190  -27.7760   23.1260 C   0  0  0  0  0  3  0  0  0  0  0  0
  -17.2300  -27.3410   22.3680 C   0  0  0  0  0  3  0  0  0  0  0  0
  -17.5150  -26.4030   21.3660 C   0  0  0  0  0  3  0  0  0  0  0  0
  -26.6970  -31.0600   23.9280 C   0  0  0  0  0  3  0  0  0  0  0  0
  -26.3560  -32.2720   24.6970 N   0  0  0  0  0  0  0  0  0  0  0  0
  -26.6030  -33.5310   24.2890 C   0  0  0  0  0  0  0  0  0  0  0  0
  -27.1640  -33.7950   23.2210 O   0  0  0  0  0  0  0  0  0  0  0  0
  -25.9230  -32.1460   25.6070 H   0  0  0  0  0  0  0  0  0  0  0  0
  -24.8770  -35.3190   24.6860 C   0  0  0  0  0  1  0  0  0  0  0  0
  -26.1720  -34.6840   25.2180 C   0  0  0  0  0  3  0  0  0  0  0  0
  -28.3840  -35.2730   26.1170 C   0  0  0  0  0  1  0  0  0  0  0  0
  -27.2000  -35.7380   25.3940 N   0  0  0  0  0  0  0  0  0  0  0  0
  -26.8170  -36.5250   25.9140 H   0  0  0  0  0  0  0  0  0  0  0  0
  -27.3420  -29.9720   24.8660 C   0  0  1  0  0  0  0  0  0  0  0  0
  -26.3740  -29.3830   25.9100 C   0  0  0  0  0  1  0  0  0  0  0  0
  -27.9080  -28.7670   24.0900 C   0  0  0  0  0  1  0  0  0  0  0  0
  -28.5510  -30.5870   25.6130 C   0  0  0  0  0  1  0  0  0  0  0  0
  2  1  1  0
  2  5  1  0
  3  6  1  0
  4 56  1  0
  4  3  1  0
  4  1  1  0
  6  7  1  1
  6  2  1  0
  6  5  1  0
  9 10  1  0
 10 12  1  0
 11  9  1  0
 14 13  1  0
 16 17  1  0
 17 54  1  0
 18 25  1  0
 19 24  1  0
 20 19  1  0
 21 20  1  0
 22 21  1  0
 22 23  1  0
 23 24  1  0
 24 18  1  0
 26 51  1  0
 27 26  2  0
 28 30  2  0
 28 27  1  0
 29 26  1  0
 29 22  1  0
 30 29  1  0
 31 28  1  0
 32 31  1  0
 33 32  2  0
 34 33  1  0
 35 34  2  0
 35 36  1  0
 36 31  2  0
 37 38  1  0
 37 34  1  0
 38 39  1  0
 40 39  2  0
 41 40  1  0
 42 43  1  0
 42 41  2  0
 43 38  2  0
 44 43  1  0
 45 41  1  0
 46 27  1  0
 46 48  2  0
 47 46  1  0
 49 47  1  0
 50 47  1  0
 51 52  1  0
 51 53  1  0
 54 55  1  0
 56 57  1  0
 58 69  2  0
 59 57  1  0
 59 64  1  0
 60 70  1  0
 60 68  1  0
 61 66  1  0
 61 63  1  0
 61 67  1  0
 62 68  1  0
 63 64  1  0
 63 62  1  0
 65 66  1  0
 65 59  1  0
 67 60  1  0
 68 58  1  0
 70 72  1  0
 71 75  1  0
 71 70  1  0
 72 10  1  0
 73 71  1  0
 74 83  2  0
 74 79  1  0
 75 79  1  0
 76 75  2  0
 77 76  1  0
 77 78  2  0
 78 74  1  0
 79 80  2  0
 80 81  1  0
 82 81  2  0
 83 82  1  0
 84 58  1  0
 84 85  1  0
 84 94  1  0
 85 88  1  0
 86 85  1  0
 86 90  1  0
 87 86  2  0
 90 89  1  0
 90 92  1  0
 92 93  1  0
 92 91  1  0
 94 97  1  1
 94 95  1  0
 96 94  1  0
M  ISO  4  16 100  18 100  56 101  57 101
M  END
>  <TORSDO>  (57) 
F 23

>  <SCORE>  (57) 
4.132

>  <name>  (57) 
56

>  <ligand_id>  (57) 
56

>  <original_smiles>  (57) 
[H]OC(=C([H])C(=O)N1C([H])([H])C([H])([H])C([H])([H])C([H])(n2nc(-c3c([H])c([H])c(Oc4c([H])c([H])c(F)c([H])c4F)c([H])c3[H])c(C(=O)N([H])[H])c2N([H])[H])C1([H])[H])C([H])([H])C([H])(C(=O)N([H])C([H])([H])c1c([H])c([H])c(C([H])([H])Oc2c([H])c([H])c3c(c2[H])C([H])([H])N(C(=O)C([H])(N([H])C(=O)C([H])(N([H])C([H])([H])[H])C([H])([H])[H])C(C([H])([H])[H])(C([H])([H])[H])C([H])([H])[H])C([H])(C(=O)N([H])C2([H])c4c([H])c([H])c([H])c([H])c4C([H])([H])C([H])([H])C2([H])[H])C3([H])[H])c([H])c1C([H])([H])[H])C([H])([H])[H]

>  <smiles>  (57) 
[H]OC(=C([H])C(=O)N1C([H])([H])C([H])([H])C([H])([H])C([H])(n2nc(-c3c([H])c([H])c(Oc4c([H])c([H])c(F)c([H])c4F)c([H])c3[H])c(C(=O)N([H])[H])c2N([H])[H])C1([H])[H])C([H])([H])C([H])(C(=O)N([H])C([H])([H])c1c([H])c([H])c(C([H])([H])Oc2c([H])c([H])c3c(c2[H])C([H])([H])N(C(=O)C([H])(N([H])C(=O)C([H])(N([H])C([H])([H])[H])C([H])([H])[H])C(C([H])([H])[H])(C([H])([H])[H])C([H])([H])[H])C([H])(C(=O)N([H])C2([H])c4c([H])c([H])c([H])c([H])c4C([H])([H])C([H])([H])C2([H])[H])C3([H])[H])c([H])c1C([H])([H])[H])C([H])([H])[H]

$$$$
57:0:0
     RDKit          3D

100100  0  0  1  0  0  0  0  0999 V2000
  -19.0190  -25.8590   24.7700 C   0  0  0  0  0  1  0  0  0  0  0  0
  -20.6900  -25.2260   24.5110 C   0  0  0  0  0  2  0  0  0  0  0  0
  -17.9990  -26.9790   22.7040 C   0  0  0  0  0  2  0  0  0  0  0  0
  -21.6100  -25.3240   23.0160 C   0  0  0  0  0  3  0  0  0  0  0  0
  -18.8790  -27.0780   21.3610 C   0  0  0  0  0  2  0  0  0  0  0  0
  -20.4410  -26.4540   21.3360 C   0  0  0  0  0  1  0  0  0  0  0  0
  -23.8040  -24.5220   22.7590 C   0  0  0  0  0  2  0  0  0  0  0  0
  -25.5840  -24.3340   21.9190 N   0  0  0  0  0  1  0  0  0  0  0  0
  -23.9180  -23.8020   23.7490 O   0  0  0  0  0  0  0  0  0  0  0  0
  -25.4340  -24.8970   21.0930 H   0  0  0  0  0  0  0  0  0  0  0  0
  -27.8980  -23.7950   21.6120 C   0  0  0  0  0 15  0  0  0  0  0  0
  -30.3010  -23.2500   20.4980 C   0  0  0  0  0 15  0  0  0  0  0  0
  -32.7610  -23.1070   19.9530 C   0  0  0  0  0  2  0  0  0  0  0  0
  -35.4380  -22.3750   18.5420 C   0  0  0  0  0  2  0  0  0  0  0  0
  -35.7410  -21.5970   17.1440 C   0  0  0  0  0  2  0  0  0  0  0  0
  -35.2620  -20.1480   17.1590 C   0  0  0  0  0  2  0  0  0  0  0  0
  -34.0770  -20.1840   18.1140 C   0  0  0  0  0  3  0  0  0  0  0  0
  -34.3250  -20.7670   19.5140 C   0  0  0  0  0  2  0  0  0  0  0  0
  -33.9940  -22.1880   19.3670 N   0  0  0  0  0  0  0  0  0  0  0  0
  -33.7000  -24.0290   19.9130 O   0  0  0  0  0  1  0  0  0  0  0  0
  -31.9910  -19.0240   18.5460 C   0  0  0  0  0  0  0  0  0  0  0  0
  -31.6820  -17.7290   18.7580 C   0  0  0  0  0  0  0  0  0  0  0  0
  -32.9190  -17.0100   18.6930 C   0  0  0  0  0  0  0  0  0  0  0  0
  -33.3460  -19.0170   18.3370 N   0  0  0  0  0  0  0  0  0  0  0  0
  -33.9430  -17.8280   18.5060 N   0  0  0  0  0  0  0  0  0  0  0  0
  -33.1760  -15.5810   18.7020 C   0  0  0  0  0  0  0  0  0  0  0  0
  -34.1730  -15.0050   19.5180 C   0  0  0  0  0  3  0  0  0  0  0  0
  -34.3740  -13.6100   19.5000 C   0  0  0  0  0  3  0  0  0  0  0  0
  -33.5720  -12.7920   18.6690 C   0  0  0  0  0  0  0  0  0  0  0  0
  -32.6040  -13.3820   17.8410 C   0  0  0  0  0  3  0  0  0  0  0  0
  -32.4100  -14.7680   17.8530 C   0  0  0  0  0  3  0  0  0  0  0  0
  -33.7010  -11.4310   18.5770 O   0  0  0  0  0  0  0  0  0  0  0  0
  -34.3510  -10.7100   19.5440 C   0  0  0  0  0  0  0  0  0  0  0  0
  -33.8950  -10.6770   20.8800 C   0  0  0  0  0  3  0  0  0  0  0  0
  -34.5510   -9.8640   21.8240 C   0  0  0  0  0  3  0  0  0  0  0  0
  -35.6530   -9.0810   21.4350 C   0  0  0  0  0  0  0  0  0  0  0  0
  -36.1070   -9.1130   20.1040 C   0  0  0  0  0  3  0  0  0  0  0  0
  -35.4540   -9.9240   19.1600 C   0  0  0  0  0  0  0  0  0  0  0  0
  -35.8790   -9.9380   17.8730 F   0  0  0  0  0  0  0  0  0  0  0  0
  -36.2790   -8.2900   22.3370 F   0  0  0  0  0  0  0  0  0  0  0  0
  -30.2930  -17.2010   18.8880 C   0  0  0  0  0  0  0  0  0  0  0  0
  -30.1230  -16.0940   19.5970 N   0  0  0  0  0  0  0  0  0  0  0  0
  -29.3390  -17.8140   18.4060 O   0  0  0  0  0  0  0  0  0  0  0  0
  -30.9040  -15.6060   20.0130 H   0  0  0  0  0  0  0  0  0  0  0  0
  -29.1920  -15.7180   19.7190 H   0  0  0  0  0  0  0  0  0  0  0  0
  -31.2360  -20.2000   18.4790 N   0  0  0  0  0  0  0  0  0  0  0  0
  -30.2260  -20.1310   18.4350 H   0  0  0  0  0  0  0  0  0  0  0  0
  -31.5830  -21.0630   18.0880 H   0  0  0  0  0  0  0  0  0  0  0  0
  -18.2430  -27.9050   20.2360 C   0  0  0  0  0  3  0  0  0  0  0  0
  -17.1190  -29.0130   20.4160 C   0  0  0  0  0  3  0  0  0  0  0  0
  -15.6210  -31.1870   23.9410 C   0  0  0  0  0  3  0  0  0  0  0  0
  -14.7700  -30.3840   23.1580 C   0  0  0  0  0  3  0  0  0  0  0  0
  -16.9840  -31.2610   23.6150 C   0  0  0  0  0  3  0  0  0  0  0  0
  -15.2840  -29.6430   22.0690 C   0  0  0  0  0  3  0  0  0  0  0  0
  -17.4980  -30.5190   22.5250 C   0  0  0  0  0  3  0  0  0  0  0  0
  -16.6610  -29.7010   21.7290 C   0  0  0  0  0  0  0  0  0  0  0  0
  -21.1900  -27.0260   19.7750 C   0  0  0  0  0  2  0  0  0  0  0  0
  -22.7700  -26.6220   18.9270 C   0  0  0  0  0  2  0  0  0  0  0  0
  -24.4190  -26.3700   19.5860 C   0  0  0  0  0  2  0  0  0  0  0  0
  -25.9280  -26.5240   19.1050 O   0  0  0  0  0  0  0  0  0  0  0  0
  -24.2950  -31.8200   22.6930 C   0  0  0  0  0  0  0  0  0  0  0  0
  -26.1850  -27.7660   18.6430 C   0  0  0  0  0  3  0  0  0  0  0  0
  -22.9270  -30.5200   21.1410 C   0  0  0  0  0  3  0  0  0  0  0  0
  -24.1030  -29.4710   19.1380 C   0  0  0  0  0  3  0  0  0  0  0  0
  -25.3880  -30.9550   20.6420 C   0  0  0  0  0  2  0  0  0  0  0  0
  -25.3190  -29.7250   19.7620 C   0  0  0  0  0  0  0  0  0  0  0  0
  -26.4000  -28.8360   19.5490 C   0  0  0  0  0  3  0  0  0  0  0  0
  -25.1890  -27.8740   17.6820 C   0  0  0  0  0  3  0  0  0  0  0  0
  -24.0650  -28.6320   18.0190 C   0  0  0  0  0  3  0  0  0  0  0  0
  -22.9220  -30.2670   19.6050 C   0  0  0  0  0  2  0  0  0  0  0  0
  -24.2060  -31.1690   21.5090 N   0  0  0  0  0  0  0  0  0  0  0  0
  -23.3080  -31.9780   23.4240 O   0  0  0  0  0  0  0  0  0  0  0  0
  -22.8580  -29.2730   22.0590 C   0  0  0  0  0  0  0  0  0  0  0  0
  -21.7810  -28.5950   22.2390 N   0  0  0  0  0  0  0  0  0  0  0  0
  -23.8150  -28.8860   22.7110 O   0  0  0  0  0  0  0  0  0  0  0  0
  -20.9150  -28.8200   21.7660 H   0  0  0  0  0  0  0  0  0  0  0  0
  -18.4620  -26.0570   22.3990 C   0  0  0  0  0  3  0  0  0  0  0  0
  -21.8780  -27.2120   22.7740 C   0  0  0  0  0  3  0  0  0  0  0  0
  -22.3840  -25.8600   21.4110 C   0  0  0  0  0  1  0  0  0  0  0  0
  -20.6210  -24.6170   20.3190 C   0  0  0  0  0 15  0  0  0  0  0  0
  -18.7360  -24.8820   21.1260 C   0  0  0  0  0  1  0  0  0  0  0  0
  -20.3420  -27.3630   23.3090 C   0  0  0  0  0  3  0  0  0  0  0  0
  -19.8010  -28.6440   24.4650 C   0  0  0  0  0  3  0  0  0  0  0  0
  -18.1320  -28.8750   24.8960 C   0  0  0  0  0  3  0  0  0  0  0  0
  -16.7930  -27.9630   24.3010 C   0  0  0  0  0  3  0  0  0  0  0  0
  -16.8670  -26.6420   23.1280 C   0  0  0  0  0  2  0  0  0  0  0  0
  -25.6500  -32.4110   23.1510 C   0  0  0  0  0  3  0  0  0  0  0  0
  -26.4440  -31.4740   24.1360 C   0  0  1  0  0  0  0  0  0  0  0  0
  -25.6060  -30.9530   25.3270 C   0  0  0  0  0  1  0  0  0  0  0  0
  -27.0270  -30.2410   23.4140 C   0  0  0  0  0  1  0  0  0  0  0  0
  -27.6650  -32.2510   24.6820 C   0  0  0  0  0  1  0  0  0  0  0  0
  -25.3470  -33.6980   23.7750 N   0  0  0  0  0  0  0  0  0  0  0  0
  -25.5130  -34.8830   23.1760 C   0  0  0  0  0  0  0  0  0  0  0  0
  -26.0430  -35.0040   22.0670 O   0  0  0  0  0  0  0  0  0  0  0  0
  -24.8650  -33.6640   24.6610 H   0  0  0  0  0  0  0  0  0  0  0  0
  -23.7250  -36.6380   23.3300 C   0  0  0  0  0  1  0  0  0  0  0  0
  -25.0430  -36.1380   23.9430 C   0  0  0  0  0  3  0  0  0  0  0  0
  -27.2440  -36.8970   24.7260 C   0  0  0  0  0  1  0  0  0  0  0  0
  -26.0480  -37.2290   23.9500 N   0  0  0  0  0  0  0  0  0  0  0  0
  -25.6480  -38.0880   24.3270 H   0  0  0  0  0  0  0  0  0  0  0  0
  2  1  1  0
  3 86  1  0
  4 79  1  0
  4  2  1  0
  5 77  1  0
  7  9  2  0
 10  8  1  0
 14 19  1  0
 15 16  1  0
 15 14  1  0
 17 16  1  0
 17 24  1  0
 17 18  1  0
 19 18  1  0
 19 13  1  0
 20 13  1  0
 21 22  2  0
 22 41  1  0
 23 26  1  0
 23 22  1  0
 24 25  1  0
 24 21  1  0
 25 23  2  0
 26 27  1  0
 28 27  2  0
 29 28  1  0
 30 31  1  0
 30 29  2  0
 31 26  2  0
 32 29  1  0
 32 33  1  0
 33 34  1  0
 34 35  2  0
 36 35  1  0
 36 40  1  0
 37 36  2  0
 38 33  2  0
 38 37  1  0
 39 38  1  0
 41 42  1  0
 42 45  1  0
 42 44  1  0
 43 41  2  0
 46 21  1  0
 47 46  1  0
 48 46  1  0
 49 50  2  0
 49  5  1  0
 50 56  1  0
 52 51  2  0
 53 51  1  0
 54 52  1  0
 55 53  2  0
 56 54  2  0
 56 55  1  0
 57  6  1  0
 58 59  1  0
 58 57  1  0
 60 59  1  0
 61 72  2  0
 62 60  1  0
 62 67  1  0
 63 71  1  0
 63 73  1  0
 64 69  1  0
 64 70  1  0
 64 66  1  0
 65 71  1  0
 66 65  1  0
 67 66  2  0
 68 69  2  0
 68 62  1  0
 70 63  1  0
 71 61  1  0
 73 74  1  0
 73 75  2  0
 74 78  1  0
 76 74  1  0
 77 81  1  0
 77  3  1  0
 78  4  1  0
 78 82  1  0
 82 83  2  0
 83 84  1  0
 85 84  2  0
 86 85  1  0
 87 61  1  0
 87 92  1  0
 87 88  1  0
 88 91  1  1
 88 89  1  0
 90 88  1  0
 92 95  1  0
 93 92  1  0
 93 97  1  0
 94 93  2  0
 97 96  1  0
 97 99  1  0
 99100  1  0
 99 98  1  0
M  ISO  4  12 100  13 100  59 101  60 101
M  END
>  <TORSDO>  (58) 
F 25

>  <SCORE>  (58) 
14.351

>  <name>  (58) 
57

>  <ligand_id>  (58) 
57

>  <original_smiles>  (58) 
[H]c1c([H])c([H])c(C([H])([H])C([H])([H])c2c([H])c([H])c([H])c(C(=O)N([H])C([H])([H])C([H])([H])C(=O)N3C([H])([H])C([H])([H])C([H])([H])C([H])(n4nc(-c5c([H])c([H])c(Oc6c([H])c([H])c(F)c([H])c6F)c([H])c5[H])c(C(=O)N([H])[H])c4N([H])[H])C3([H])[H])c2C([H])([H])C([H])([H])C([H])([H])Oc2c([H])c([H])c3c(c2[H])C([H])([H])N(C(=O)C([H])(N([H])C(=O)C([H])(N([H])C([H])([H])[H])C([H])([H])[H])C(C([H])([H])[H])(C([H])([H])[H])C([H])([H])[H])C([H])(C(=O)N([H])C2([H])c4c([H])c([H])c([H])c([H])c4C([H])([H])C([H])([H])C2([H])[H])C3([H])[H])c([H])c1[H]

>  <smiles>  (58) 
[H]c1c([H])c([H])c(C([H])([H])C([H])([H])c2c([H])c([H])c([H])c(C(=O)N([H])C([H])([H])C([H])([H])C(=O)N3C([H])([H])C([H])([H])C([H])([H])C([H])(n4nc(-c5c([H])c([H])c(Oc6c([H])c([H])c(F)c([H])c6F)c([H])c5[H])c(C(=O)N([H])[H])c4N([H])[H])C3([H])[H])c2C([H])([H])C([H])([H])C([H])([H])Oc2c([H])c([H])c3c(c2[H])C([H])([H])N(C(=O)C([H])(N([H])C(=O)C([H])(N([H])C([H])([H])[H])C([H])([H])[H])C(C([H])([H])[H])(C([H])([H])[H])C([H])([H])[H])C([H])(C(=O)N([H])C2([H])c4c([H])c([H])c([H])c([H])c4C([H])([H])C([H])([H])C2([H])[H])C3([H])[H])c([H])c1[H]

$$$$
58:0:0
     RDKit          3D

 92100  0  0  1  0  0  0  0  0999 V2000
  -28.9130  -23.5680   20.3610 C   0  0  0  0  0  3  0  0  0  0  0  0
  -30.9890  -23.3700   21.5940 C   0  0  0  0  0  3  0  0  0  0  0  0
  -28.9930  -22.1930   20.0250 C   0  0  0  0  0  3  0  0  0  0  0  0
  -31.0790  -22.0090   21.2470 C   0  0  0  0  0  3  0  0  0  0  0  0
  -29.9110  -24.1720   21.1630 C   0  0  0  0  0  0  0  0  0  0  0  0
  -30.0790  -21.3990   20.4640 C   0  0  0  0  0  0  0  0  0  0  0  0
  -29.9180  -25.5940   21.5810 C   0  0  0  0  0  3  0  0  0  0  0  0
  -29.2360  -26.6720   21.1400 C   0  0  0  0  0  3  0  0  0  0  0  0
  -28.3390  -26.6970   20.1020 O   0  0  0  0  0  0  0  0  0  0  0  0
  -24.6630  -31.9090   23.3790 C   0  0  0  0  0  0  0  0  0  0  0  0
  -27.2260  -27.5100   20.1810 C   0  0  0  0  0  0  0  0  0  0  0  0
  -23.4220  -30.5770   21.6990 C   0  0  0  0  0  3  0  0  0  0  0  0
  -24.8440  -29.0450   20.2340 C   0  0  0  0  0  0  0  0  0  0  0  0
  -25.9490  -30.8990   21.4980 C   0  0  0  0  0  2  0  0  0  0  0  0
  -26.0100  -29.5410   20.8290 C   0  0  0  0  0  0  0  0  0  0  0  0
  -27.2020  -28.7880   20.8000 C   0  0  0  0  0  3  0  0  0  0  0  0
  -26.0430  -27.0310   19.5820 C   0  0  0  0  0  3  0  0  0  0  0  0
  -24.8550  -27.7880   19.6060 C   0  0  0  0  0  3  0  0  0  0  0  0
  -23.6150  -29.9250   20.3030 C   0  0  0  0  0  2  0  0  0  0  0  0
  -24.6970  -31.1420   22.2510 N   0  0  0  0  0  0  0  0  0  0  0  0
  -23.5910  -32.1860   23.9310 O   0  0  0  0  0  0  0  0  0  0  0  0
  -22.7540  -29.5450   22.6350 C   0  0  0  0  0  0  0  0  0  0  0  0
  -21.4270  -29.3870   22.4980 N   0  0  0  0  0  0  0  0  0  0  0  0
  -23.4240  -28.8910   23.4380 O   0  0  0  0  0  0  0  0  0  0  0  0
  -20.9490  -29.9680   21.8240 H   0  0  0  0  0  0  0  0  0  0  0  0
  -18.0350  -28.2190   22.9280 C   0  0  0  0  0  0  0  0  0  0  0  0
  -20.5910  -28.4440   23.2400 C   0  0  0  0  0  3  0  0  0  0  0  0
  -20.6860  -27.0220   22.6380 C   0  0  0  0  0  2  0  0  0  0  0  0
  -19.5950  -26.7300   21.6030 C   0  0  0  0  0  2  0  0  0  0  0  0
  -18.2060  -26.8800   22.2310 C   0  0  0  0  0  2  0  0  0  0  0  0
  -19.1560  -28.9610   23.3870 C   0  0  0  0  0  0  0  0  0  0  0  0
  -18.9450  -30.2170   23.9960 C   0  0  0  0  0  3  0  0  0  0  0  0
  -17.6450  -30.7300   24.1530 C   0  0  0  0  0  3  0  0  0  0  0  0
  -16.5370  -29.9860   23.7120 C   0  0  0  0  0  3  0  0  0  0  0  0
  -16.7330  -28.7320   23.1050 C   0  0  0  0  0  3  0  0  0  0  0  0
  -25.9650  -32.4930   24.0120 C   0  0  0  0  0  3  0  0  0  0  0  0
  -25.6890  -33.8850   24.3860 N   0  0  0  0  0  0  0  0  0  0  0  0
  -26.0400  -34.9520   23.6550 C   0  0  0  0  0  0  0  0  0  0  0  0
  -26.7030  -34.8660   22.6180 O   0  0  0  0  0  0  0  0  0  0  0  0
  -25.1060  -34.0310   25.1980 H   0  0  0  0  0  0  0  0  0  0  0  0
  -24.3460  -36.7870   23.3610 C   0  0  0  0  0  1  0  0  0  0  0  0
  -25.5830  -36.3370   24.1550 C   0  0  0  0  0  3  0  0  0  0  0  0
  -27.7410  -37.1530   24.9960 C   0  0  0  0  0  1  0  0  0  0  0  0
  -26.6370  -37.3720   24.0650 N   0  0  0  0  0  0  0  0  0  0  0  0
  -26.2500  -38.2960   24.2420 H   0  0  0  0  0  0  0  0  0  0  0  0
  -26.4730  -31.6690   25.2590 C   0  0  1  0  0  0  0  0  0  0  0  0
  -25.3830  -31.4200   26.3260 C   0  0  0  0  0  1  0  0  0  0  0  0
  -27.0240  -30.2950   24.8130 C   0  0  0  0  0  1  0  0  0  0  0  0
  -27.6440  -32.4170   25.9400 C   0  0  0  0  0  1  0  0  0  0  0  0
  -30.2040  -19.9210   20.0720 C   0  0  0  0  0  2  0  0  0  0  0  0
  -29.9960  -18.9120   21.2370 C   0  0  0  0  0  2  0  0  0  0  0  0
  -32.4830  -18.8620   21.7800 C   0  0  0  0  0  1  0  0  0  0  0  0
  -30.9110  -17.4740   23.0880 C   0  0  0  0  0  1  0  0  0  0  0  0
  -31.2010  -18.0120   21.6690 C   0  0  1  0  0  0  0  0  0  0  0  0
  -31.4820  -16.8300   20.6840 C   0  0  0  0  0  2  0  0  0  0  0  0
  -30.6140  -15.5440   20.8150 C   0  0  0  0  0  2  0  0  0  0  0  0
  -31.1470  -14.3420   20.0000 C   0  0  0  0  0  0  0  0  0  0  0  0
  -30.7390  -12.1330   18.9600 C   0  0  0  0  0  2  0  0  0  0  0  0
  -29.7720  -12.2850   17.7700 C   0  0  0  0  0  2  0  0  0  0  0  0
  -28.3060  -12.2220   18.2450 C   0  0  0  0  0  2  0  0  0  0  0  0
  -28.0290  -13.1600   19.4510 C   0  0  0  0  0  3  0  0  0  0  0  0
  -29.1040  -12.9830   20.5460 C   0  0  0  0  0  2  0  0  0  0  0  0
  -30.4240  -13.1920   19.9320 N   0  0  0  0  0  0  0  0  0  0  0  0
  -32.2110  -14.4760   19.3850 O   0  0  0  0  0  0  0  0  0  0  0  0
  -25.6930  -13.9070   20.2330 C   0  0  0  0  0  0  0  0  0  0  0  0
  -24.5970  -13.1990   20.6470 C   0  0  0  0  0  0  0  0  0  0  0  0
  -24.9800  -11.8240   20.6120 C   0  0  0  0  0  0  0  0  0  0  0  0
  -26.6800  -12.9660   19.9760 N   0  0  0  0  0  0  0  0  0  0  0  0
  -26.2540  -11.7080   20.2600 N   0  0  0  0  0  0  0  0  0  0  0  0
  -24.1910  -10.6060   20.8420 C   0  0  0  0  0  0  0  0  0  0  0  0
  -24.5880   -9.6360   21.7890 C   0  0  0  0  0  3  0  0  0  0  0  0
  -23.8040   -8.4810   22.0040 C   0  0  0  0  0  3  0  0  0  0  0  0
  -22.6080   -8.2900   21.2720 C   0  0  0  0  0  0  0  0  0  0  0  0
  -22.2300   -9.2470   20.3140 C   0  0  0  0  0  3  0  0  0  0  0  0
  -23.0140  -10.3930   20.0970 C   0  0  0  0  0  3  0  0  0  0  0  0
  -21.7970   -7.1880   21.3950 O   0  0  0  0  0  0  0  0  0  0  0  0
  -21.7070   -6.4880   22.5720 C   0  0  0  0  0  0  0  0  0  0  0  0
  -21.3150   -7.1080   23.7790 C   0  0  0  0  0  3  0  0  0  0  0  0
  -21.1690   -6.3380   24.9500 C   0  0  0  0  0  3  0  0  0  0  0  0
  -21.4040   -4.9500   24.9150 C   0  0  0  0  0  0  0  0  0  0  0  0
  -21.7890   -4.3300   23.7130 C   0  0  0  0  0  3  0  0  0  0  0  0
  -21.9370   -5.0980   22.5440 C   0  0  0  0  0  0  0  0  0  0  0  0
  -22.2880   -4.4930   21.3840 F   0  0  0  0  0  0  0  0  0  0  0  0
  -21.2550   -4.2090   26.0370 F   0  0  0  0  0  0  0  0  0  0  0  0
  -23.2390  -13.7560   20.9650 C   0  0  0  0  0  0  0  0  0  0  0  0
  -22.5130  -13.1200   21.8760 N   0  0  0  0  0  0  0  0  0  0  0  0
  -22.8340  -14.7920   20.4400 O   0  0  0  0  0  0  0  0  0  0  0  0
  -22.8530  -12.2810   22.3230 H   0  0  0  0  0  0  0  0  0  0  0  0
  -21.6030  -13.4770   22.1330 H   0  0  0  0  0  0  0  0  0  0  0  0
  -25.9290  -15.2630   20.0350 N   0  0  0  0  0  0  0  0  0  0  0  0
  -25.2090  -15.9660   20.1690 H   0  0  0  0  0  0  0  0  0  0  0  0
  -26.7990  -15.6500   19.6870 H   0  0  0  0  0  0  0  0  0  0  0  0
  1  5  1  0
  3  1  2  0
  3  6  1  0
  4  2  1  0
  5  7  1  0
  5  2  2  0
  6  4  2  0
  8  7  2  0
  9 11  1  0
  9  8  1  0
 10 21  2  0
 11 16  1  0
 12 20  1  0
 12 22  1  0
 13 19  1  0
 13 15  1  0
 14 20  1  0
 15 14  1  0
 16 15  2  0
 17 18  1  0
 17 11  2  0
 18 13  2  0
 19 12  1  0
 20 10  1  0
 22 24  2  0
 23 22  1  0
 25 23  1  0
 26 35  2  0
 26 31  1  0
 27 23  1  0
 27 31  1  0
 28 27  1  0
 29 30  1  0
 29 28  1  0
 30 26  1  0
 31 32  2  0
 32 33  1  0
 34 33  2  0
 35 34  1  0
 36 10  1  0
 36 37  1  0
 36 46  1  0
 37 40  1  0
 38 42  1  0
 38 37  1  0
 39 38  2  0
 42 41  1  0
 44 42  1  0
 44 45  1  0
 44 43  1  0
 46 49  1  1
 46 47  1  0
 48 46  1  0
 50  6  1  0
 50 51  1  0
 51 54  1  0
 54 52  1  1
 54 53  1  0
 55 56  1  0
 55 54  1  0
 57 56  1  0
 58 63  1  0
 59 60  1  0
 59 58  1  0
 61 60  1  0
 61 68  1  0
 61 62  1  0
 63 57  1  0
 63 62  1  0
 64 57  2  0
 65 66  2  0
 66 85  1  0
 67 66  1  0
 67 70  1  0
 68 65  1  0
 68 69  1  0
 69 67  2  0
 70 71  1  0
 71 72  2  0
 73 76  1  0
 73 72  1  0
 74 73  2  0
 75 74  1  0
 75 70  2  0
 76 77  1  0
 77 78  1  0
 78 79  2  0
 80 79  1  0
 80 84  1  0
 81 80  2  0
 82 77  2  0
 82 81  1  0
 83 82  1  0
 85 86  1  0
 86 89  1  0
 86 88  1  0
 87 85  2  0
 90 91  1  0
 90 65  1  0
 92 90  1  0
M  ISO  4   8 101   9 101  56 100  57 100
M  END
>  <TORSDO>  (59) 
F 22

>  <SCORE>  (59) 
-12.421

>  <name>  (59) 
58

>  <ligand_id>  (59) 
58

>  <original_smiles>  (59) 
[H]C(Oc1c([H])c([H])c2c(c1[H])C([H])([H])N(C(=O)C([H])(N([H])C(=O)C([H])(N([H])C([H])([H])[H])C([H])([H])[H])C(C([H])([H])[H])(C([H])([H])[H])C([H])([H])[H])C([H])(C(=O)N([H])C1([H])c3c([H])c([H])c([H])c([H])c3C([H])([H])C([H])([H])C1([H])[H])C2([H])[H])=C([H])c1c([H])c([H])c(C([H])([H])C([H])([H])C(C([H])([H])[H])(C([H])([H])[H])C([H])([H])C([H])([H])C(=O)N2C([H])([H])C([H])([H])C([H])([H])C([H])(n3nc(-c4c([H])c([H])c(Oc5c([H])c([H])c(F)c([H])c5F)c([H])c4[H])c(C(=O)N([H])[H])c3N([H])[H])C2([H])[H])c([H])c1[H]

>  <smiles>  (59) 
[H]C(Oc1c([H])c([H])c2c(c1[H])C([H])([H])N(C(=O)C([H])(N([H])C(=O)C([H])(N([H])C([H])([H])[H])C([H])([H])[H])C(C([H])([H])[H])(C([H])([H])[H])C([H])([H])[H])C([H])(C(=O)N([H])C1([H])c3c([H])c([H])c([H])c([H])c3C([H])([H])C([H])([H])C1([H])[H])C2([H])[H])=C([H])c1c([H])c([H])c(C([H])([H])C([H])([H])C(C([H])([H])[H])(C([H])([H])[H])C([H])([H])C([H])([H])C(=O)N2C([H])([H])C([H])([H])C([H])([H])C([H])(n3nc(-c4c([H])c([H])c(Oc5c([H])c([H])c(F)c([H])c5F)c([H])c4[H])c(C(=O)N([H])[H])c3N([H])[H])C2([H])[H])c([H])c1[H]

$$$$
59:0:0
     RDKit          3D

 92100  0  0  1  0  0  0  0  0999 V2000
  -28.4490  -21.1790   21.2820 C   0  0  0  0  0  3  0  0  0  0  0  0
  -28.2650  -22.5370   20.9500 C   0  0  0  0  0  3  0  0  0  0  0  0
  -29.7310  -20.8600   19.2440 C   0  0  0  0  0  3  0  0  0  0  0  0
  -29.1620  -20.3190   20.4170 C   0  0  0  0  0  0  0  0  0  0  0  0
  -28.8100  -23.0790   19.7570 C   0  0  0  0  0  0  0  0  0  0  0  0
  -29.5560  -22.2190   18.9130 C   0  0  0  0  0  0  0  0  0  0  0  0
  -30.1330  -22.6770   17.7750 F   0  0  0  0  0  0  0  0  0  0  0  0
  -29.3310  -18.8800   20.7650 C   0  0  0  0  0  0  0  0  0  0  0  0
  -29.4370  -18.4700   21.9230 O   0  0  0  0  0  0  0  0  0  0  0  0
  -29.2840  -17.8690   19.6110 C   0  0  0  0  0  2  0  0  0  0  0  0
  -30.5440  -16.9840   19.4630 C   0  0  0  0  0  2  0  0  0  0  0  0
  -30.6250  -15.8300   20.4980 C   0  0  0  0  0  2  0  0  0  0  0  0
  -31.2740  -14.5620   19.9020 C   0  0  0  0  0  0  0  0  0  0  0  0
  -30.9010  -12.3640   18.8490 C   0  0  0  0  0  2  0  0  0  0  0  0
  -29.9250  -12.5680   17.6710 C   0  0  0  0  0  2  0  0  0  0  0  0
  -28.4610  -12.4900   18.1470 C   0  0  0  0  0  2  0  0  0  0  0  0
  -28.1940  -13.3680   19.4000 C   0  0  0  0  0  3  0  0  0  0  0  0
  -29.2790  -13.1250   20.4720 C   0  0  0  0  0  2  0  0  0  0  0  0
  -30.5890  -13.3860   19.8580 N   0  0  0  0  0  0  0  0  0  0  0  0
  -32.3740  -14.7020   19.3580 O   0  0  0  0  0  0  0  0  0  0  0  0
  -25.8480  -14.0690   20.1990 C   0  0  0  0  0  0  0  0  0  0  0  0
  -24.7680  -13.3400   20.6150 C   0  0  0  0  0  0  0  0  0  0  0  0
  -25.1720  -11.9700   20.5630 C   0  0  0  0  0  0  0  0  0  0  0  0
  -26.8490  -13.1470   19.9290 N   0  0  0  0  0  0  0  0  0  0  0  0
  -26.4460  -11.8800   20.2010 N   0  0  0  0  0  0  0  0  0  0  0  0
  -24.4050  -10.7380   20.7850 C   0  0  0  0  0  0  0  0  0  0  0  0
  -24.7820   -9.8010   21.7740 C   0  0  0  0  0  3  0  0  0  0  0  0
  -24.0170   -8.6320   21.9810 C   0  0  0  0  0  3  0  0  0  0  0  0
  -22.8630   -8.3910   21.1980 C   0  0  0  0  0  0  0  0  0  0  0  0
  -22.5060   -9.3150   20.2000 C   0  0  0  0  0  3  0  0  0  0  0  0
  -23.2710  -10.4750   19.9920 C   0  0  0  0  0  3  0  0  0  0  0  0
  -22.0760   -7.2720   21.3110 O   0  0  0  0  0  0  0  0  0  0  0  0
  -21.8930   -6.6380   22.5130 C   0  0  0  0  0  0  0  0  0  0  0  0
  -21.3420   -7.3040   23.6300 C   0  0  0  0  0  3  0  0  0  0  0  0
  -21.1080   -6.5960   24.8260 C   0  0  0  0  0  3  0  0  0  0  0  0
  -21.4140   -5.2240   24.9050 C   0  0  0  0  0  0  0  0  0  0  0  0
  -21.9580   -4.5590   23.7930 C   0  0  0  0  0  3  0  0  0  0  0  0
  -22.1950   -5.2630   22.5990 C   0  0  0  0  0  0  0  0  0  0  0  0
  -22.7000   -4.6130   21.5230 F   0  0  0  0  0  0  0  0  0  0  0  0
  -21.1810   -4.5420   26.0510 F   0  0  0  0  0  0  0  0  0  0  0  0
  -23.4040  -13.8710   20.9490 C   0  0  0  0  0  0  0  0  0  0  0  0
  -22.6950  -13.2080   21.8540 N   0  0  0  0  0  0  0  0  0  0  0  0
  -22.9800  -14.9080   20.4400 O   0  0  0  0  0  0  0  0  0  0  0  0
  -23.0550  -12.3700   22.2860 H   0  0  0  0  0  0  0  0  0  0  0  0
  -21.7810  -13.5440   22.1230 H   0  0  0  0  0  0  0  0  0  0  0  0
  -26.0590  -15.4300   20.0070 N   0  0  0  0  0  0  0  0  0  0  0  0
  -25.3140  -16.1100   20.1140 H   0  0  0  0  0  0  0  0  0  0  0  0
  -26.8980  -15.8170   19.5960 H   0  0  0  0  0  0  0  0  0  0  0  0
  -28.5730  -24.5090   19.3760 C   0  0  0  0  0  0  0  0  0  0  0  0
  -28.6250  -24.9270   18.2140 O   0  0  0  0  0  0  0  0  0  0  0  0
  -28.2590  -25.4960   20.5140 C   0  0  0  0  0  2  0  0  0  0  0  0
  -28.3890  -26.8600   20.0890 O   0  0  0  0  0  0  0  0  0  0  0  0
  -24.6490  -31.9610   23.3140 C   0  0  0  0  0  0  0  0  0  0  0  0
  -27.2220  -27.5850   20.1060 C   0  0  0  0  0  0  0  0  0  0  0  0
  -23.4180  -30.6280   21.6310 C   0  0  0  0  0  3  0  0  0  0  0  0
  -24.8450  -29.1070   20.1640 C   0  0  0  0  0  0  0  0  0  0  0  0
  -25.9470  -30.9560   21.4410 C   0  0  0  0  0  2  0  0  0  0  0  0
  -26.0100  -29.6060   20.7600 C   0  0  0  0  0  0  0  0  0  0  0  0
  -27.2040  -28.8540   20.7230 C   0  0  0  0  0  3  0  0  0  0  0  0
  -26.0420  -27.0910   19.5100 C   0  0  0  0  0  3  0  0  0  0  0  0
  -24.8540  -27.8470   19.5380 C   0  0  0  0  0  3  0  0  0  0  0  0
  -23.6140  -29.9810   20.2350 C   0  0  0  0  0  2  0  0  0  0  0  0
  -24.6890  -31.1940   22.1870 N   0  0  0  0  0  0  0  0  0  0  0  0
  -23.5740  -32.2350   23.8640 O   0  0  0  0  0  0  0  0  0  0  0  0
  -22.7510  -29.5900   22.5620 C   0  0  0  0  0  0  0  0  0  0  0  0
  -21.4340  -29.3920   22.3880 N   0  0  0  0  0  0  0  0  0  0  0  0
  -23.4150  -28.9680   23.3950 O   0  0  0  0  0  0  0  0  0  0  0  0
  -20.9580  -29.9440   21.6870 H   0  0  0  0  0  0  0  0  0  0  0  0
  -18.0730  -28.1070   22.7180 C   0  0  0  0  0  0  0  0  0  0  0  0
  -20.6050  -28.4380   23.1240 C   0  0  0  0  0  3  0  0  0  0  0  0
  -20.7780  -27.0070   22.5700 C   0  0  0  0  0  2  0  0  0  0  0  0
  -19.7430  -26.6470   21.4990 C   0  0  0  0  0  2  0  0  0  0  0  0
  -18.3230  -26.7600   22.0620 C   0  0  0  0  0  2  0  0  0  0  0  0
  -19.1460  -28.9030   23.2010 C   0  0  0  0  0  0  0  0  0  0  0  0
  -18.8630  -30.1640   23.7680 C   0  0  0  0  0  3  0  0  0  0  0  0
  -17.5390  -30.6320   23.8580 C   0  0  0  0  0  3  0  0  0  0  0  0
  -16.4790  -29.8340   23.3940 C   0  0  0  0  0  3  0  0  0  0  0  0
  -16.7460  -28.5730   22.8310 C   0  0  0  0  0  3  0  0  0  0  0  0
  -25.9480  -32.5480   23.9490 C   0  0  0  0  0  3  0  0  0  0  0  0
  -25.6790  -33.9510   24.2900 N   0  0  0  0  0  0  0  0  0  0  0  0
  -26.0500  -35.0000   23.5450 C   0  0  0  0  0  0  0  0  0  0  0  0
  -26.7320  -34.8870   22.5220 O   0  0  0  0  0  0  0  0  0  0  0  0
  -25.0810  -34.1170   25.0860 H   0  0  0  0  0  0  0  0  0  0  0  0
  -24.3780  -36.8420   23.1800 C   0  0  0  0  0  1  0  0  0  0  0  0
  -25.5950  -36.3960   24.0070 C   0  0  0  0  0  3  0  0  0  0  0  0
  -27.7420  -37.2120   24.8790 C   0  0  0  0  0  1  0  0  0  0  0  0
  -26.6570  -37.4240   23.9240 N   0  0  0  0  0  0  0  0  0  0  0  0
  -26.2720  -38.3510   24.0850 H   0  0  0  0  0  0  0  0  0  0  0  0
  -26.4340  -31.7480   25.2210 C   0  0  1  0  0  0  0  0  0  0  0  0
  -25.3170  -31.5160   26.2640 C   0  0  0  0  0  1  0  0  0  0  0  0
  -26.9980  -30.3650   24.8180 C   0  0  0  0  0  1  0  0  0  0  0  0
  -27.5900  -32.5110   25.9120 C   0  0  0  0  0  1  0  0  0  0  0  0
  2  1  1  0
  3  4  1  0
  4  8  1  0
  4  1  2  0
  5  2  2  0
  6  3  2  0
  6  5  1  0
  7  6  1  0
  8  9  2  0
 10  8  1  0
 11 10  1  0
 11 12  1  0
 13 12  1  0
 14 19  1  0
 15 16  1  0
 15 14  1  0
 17 16  1  0
 17 24  1  0
 17 18  1  0
 19 13  1  0
 19 18  1  0
 20 13  2  0
 21 22  2  0
 22 41  1  0
 23 22  1  0
 23 26  1  0
 24 21  1  0
 24 25  1  0
 25 23  2  0
 26 27  1  0
 27 28  2  0
 29 32  1  0
 29 28  1  0
 30 29  2  0
 31 30  1  0
 31 26  2  0
 32 33  1  0
 33 38  2  0
 33 34  1  0
 34 35  2  0
 35 36  1  0
 36 40  1  0
 37 36  2  0
 38 37  1  0
 39 38  1  0
 41 42  1  0
 42 45  1  0
 42 44  1  0
 43 41  2  0
 46 47  1  0
 46 21  1  0
 48 46  1  0
 49  5  1  0
 49 51  1  0
 50 49  2  0
 52 54  1  0
 52 51  1  0
 53 64  2  0
 54 59  1  0
 55 63  1  0
 55 65  1  0
 56 62  1  0
 56 58  1  0
 57 63  1  0
 58 57  1  0
 59 58  2  0
 60 61  1  0
 60 54  2  0
 61 56  2  0
 62 55  1  0
 63 53  1  0
 65 67  2  0
 66 65  1  0
 68 66  1  0
 69 78  2  0
 69 74  1  0
 70 66  1  0
 70 74  1  0
 71 70  1  0
 72 73  1  0
 72 71  1  0
 73 69  1  0
 74 75  2  0
 75 76  1  0
 77 76  2  0
 78 77  1  0
 79 53  1  0
 79 80  1  0
 79 89  1  0
 80 83  1  0
 81 85  1  0
 81 80  1  0
 82 81  2  0
 85 84  1  0
 87 85  1  0
 87 88  1  0
 87 86  1  0
 89 92  1  1
 89 90  1  0
 91 89  1  0
M  ISO  4  12 100  13 100  51 101  52 101
M  END
>  <TORSDO>  (60) 
F 22

>  <SCORE>  (60) 
-11.864

>  <name>  (60) 
59

>  <ligand_id>  (60) 
59

>  <original_smiles>  (60) 
[H]c1c([H])c([H])c2c(c1[H])C([H])([H])C([H])([H])C([H])([H])C2([H])N([H])C(=O)C1([H])N(C(=O)C([H])(N([H])C(=O)C([H])(N([H])C([H])([H])[H])C([H])([H])[H])C(C([H])([H])[H])(C([H])([H])[H])C([H])([H])[H])C([H])([H])c2c([H])c(OC([H])([H])C(=O)c3c([H])c([H])c(C(=O)C([H])([H])C([H])([H])C([H])([H])C(=O)N4C([H])([H])C([H])([H])C([H])([H])C([H])(n5nc(-c6c([H])c([H])c(Oc7c([H])c([H])c(F)c([H])c7F)c([H])c6[H])c(C(=O)N([H])[H])c5N([H])[H])C4([H])[H])c([H])c3F)c([H])c([H])c2C1([H])[H]

>  <smiles>  (60) 
[H]c1c([H])c([H])c2c(c1[H])C([H])([H])C([H])([H])C([H])([H])C2([H])N([H])C(=O)C1([H])N(C(=O)C([H])(N([H])C(=O)C([H])(N([H])C([H])([H])[H])C([H])([H])[H])C(C([H])([H])[H])(C([H])([H])[H])C([H])([H])[H])C([H])([H])c2c([H])c(OC([H])([H])C(=O)c3c([H])c([H])c(C(=O)C([H])([H])C([H])([H])C([H])([H])C(=O)N4C([H])([H])C([H])([H])C([H])([H])C([H])(n5nc(-c6c([H])c([H])c(Oc7c([H])c([H])c(F)c([H])c7F)c([H])c6[H])c(C(=O)N([H])[H])c5N([H])[H])C4([H])[H])c([H])c3F)c([H])c([H])c2C1([H])[H]

$$$$
60:0:0
     RDKit          3D

 93101  0  0  1  0  0  0  0  0999 V2000
  -29.3220  -20.3520   21.5060 C   0  0  0  0  0  3  0  0  0  0  0  0
  -29.7610  -21.6900   21.4810 C   0  0  0  0  0  3  0  0  0  0  0  0
  -30.8040  -19.8210   19.6530 C   0  0  0  0  0  3  0  0  0  0  0  0
  -29.8410  -19.3990   20.5980 C   0  0  0  0  0  0  0  0  0  0  0  0
  -30.7390  -22.1000   20.5510 C   0  0  0  0  0  0  0  0  0  0  0  0
  -31.2540  -21.1580   19.6340 C   0  0  0  0  0  0  0  0  0  0  0  0
  -32.1870  -21.5360   18.7290 F   0  0  0  0  0  0  0  0  0  0  0  0
  -29.3290  -17.9820   20.6080 C   0  0  0  0  0  0  0  0  0  0  0  0
  -28.1310  -17.8140   20.8580 O   0  0  0  0  0  0  0  0  0  0  0  0
  -29.9230  -15.7700   20.5130 C   0  0  0  0  0  3  0  0  0  0  0  0
  -30.2810  -16.9950   20.3580 N   0  0  0  0  0  0  0  0  0  0  0  0
  -30.7690  -14.5750   20.0820 C   0  0  0  0  0  0  0  0  0  0  0  0
  -30.5190  -12.3270   19.1100 C   0  0  0  0  0  2  0  0  0  0  0  0
  -29.5280  -12.4350   17.9290 C   0  0  0  0  0  2  0  0  0  0  0  0
  -28.0680  -12.2930   18.4130 C   0  0  0  0  0  2  0  0  0  0  0  0
  -27.7570  -13.1940   19.6380 C   0  0  0  0  0  3  0  0  0  0  0  0
  -28.8540  -13.0210   20.7130 C   0  0  0  0  0  2  0  0  0  0  0  0
  -30.1480  -13.3580   20.0930 N   0  0  0  0  0  0  0  0  0  0  0  0
  -31.8810  -14.7640   19.5730 O   0  0  0  0  0  0  0  0  0  0  0  0
  -25.4100  -13.8270   20.4860 C   0  0  0  0  0  0  0  0  0  0  0  0
  -24.3490  -13.0630   20.8920 C   0  0  0  0  0  0  0  0  0  0  0  0
  -24.7850  -11.7050   20.8020 C   0  0  0  0  0  0  0  0  0  0  0  0
  -26.4270  -12.9340   20.1790 N   0  0  0  0  0  0  0  0  0  0  0  0
  -26.0550  -11.6520   20.4220 N   0  0  0  0  0  0  0  0  0  0  0  0
  -24.0520  -10.4500   20.9990 C   0  0  0  0  0  0  0  0  0  0  0  0
  -24.4940   -9.4720   21.9150 C   0  0  0  0  0  3  0  0  0  0  0  0
  -23.7600   -8.2800   22.0980 C   0  0  0  0  0  3  0  0  0  0  0  0
  -22.5710   -8.0590   21.3660 C   0  0  0  0  0  0  0  0  0  0  0  0
  -22.1470   -9.0250   20.4370 C   0  0  0  0  0  3  0  0  0  0  0  0
  -22.8810  -10.2100   20.2510 C   0  0  0  0  0  3  0  0  0  0  0  0
  -21.8070   -6.9210   21.4600 O   0  0  0  0  0  0  0  0  0  0  0  0
  -21.7420   -6.1940   22.6200 C   0  0  0  0  0  0  0  0  0  0  0  0
  -21.2860   -6.7610   23.8320 C   0  0  0  0  0  3  0  0  0  0  0  0
  -21.1720   -5.9590   24.9850 C   0  0  0  0  0  3  0  0  0  0  0  0
  -21.5020   -4.5920   24.9270 C   0  0  0  0  0  0  0  0  0  0  0  0
  -21.9480   -4.0240   23.7210 C   0  0  0  0  0  3  0  0  0  0  0  0
  -22.0660   -4.8240   22.5710 C   0  0  0  0  0  0  0  0  0  0  0  0
  -22.4790   -4.2670   21.4060 F   0  0  0  0  0  0  0  0  0  0  0  0
  -21.3820   -3.8200   26.0330 F   0  0  0  0  0  0  0  0  0  0  0  0
  -22.9780  -13.5550   21.2540 C   0  0  0  0  0  0  0  0  0  0  0  0
  -22.2900  -12.8490   22.1440 N   0  0  0  0  0  0  0  0  0  0  0  0
  -22.5280  -14.5990   20.7840 O   0  0  0  0  0  0  0  0  0  0  0  0
  -22.6670  -12.0010   22.5420 H   0  0  0  0  0  0  0  0  0  0  0  0
  -21.3730  -13.1630   22.4320 H   0  0  0  0  0  0  0  0  0  0  0  0
  -25.5890  -15.1990   20.3360 N   0  0  0  0  0  0  0  0  0  0  0  0
  -24.8340  -15.8570   20.4980 H   0  0  0  0  0  0  0  0  0  0  0  0
  -26.4250  -15.6380   19.9730 H   0  0  0  0  0  0  0  0  0  0  0  0
  -31.2490  -23.5380   20.5580 C   0  0  0  0  0  2  0  0  0  0  0  0
  -30.6290  -24.4430   19.4730 C   0  0  0  0  0  2  0  0  0  0  0  0
  -29.1270  -24.6740   19.6300 C   0  0  0  0  0  0  0  0  0  0  0  0
  -28.3220  -24.1580   18.8510 O   0  0  0  0  0  0  0  0  0  0  0  0
  -28.6620  -25.5850   20.7670 C   0  0  0  0  0  2  0  0  0  0  0  0
  -28.7740  -26.9570   20.3810 O   0  0  0  0  0  0  0  0  0  0  0  0
  -24.6930  -31.9620   23.3130 C   0  0  0  0  0  0  0  0  0  0  0  0
  -27.5820  -27.6340   20.3270 C   0  0  0  0  0  0  0  0  0  0  0  0
  -23.5890  -30.5200   21.6340 C   0  0  0  0  0  3  0  0  0  0  0  0
  -25.1360  -29.0330   20.2590 C   0  0  0  0  0  0  0  0  0  0  0  0
  -26.1020  -30.9730   21.5100 C   0  0  0  0  0  2  0  0  0  0  0  0
  -26.2540  -29.6060   20.8810 C   0  0  0  0  0  0  0  0  0  0  0  0
  -27.4830  -28.9140   20.9100 C   0  0  0  0  0  3  0  0  0  0  0  0
  -26.4510  -27.0700   19.7000 C   0  0  0  0  0  3  0  0  0  0  0  0
  -25.2290  -27.7640   19.6650 C   0  0  0  0  0  3  0  0  0  0  0  0
  -23.8620  -29.8460   20.2640 C   0  0  0  0  0  2  0  0  0  0  0  0
  -24.8100  -31.1670   22.2130 N   0  0  0  0  0  0  0  0  0  0  0  0
  -23.5860  -32.1980   23.8180 O   0  0  0  0  0  0  0  0  0  0  0  0
  -22.9420  -29.4760   22.5740 C   0  0  0  0  0  0  0  0  0  0  0  0
  -21.6270  -29.2600   22.4090 N   0  0  0  0  0  0  0  0  0  0  0  0
  -23.6200  -28.8640   23.4060 O   0  0  0  0  0  0  0  0  0  0  0  0
  -21.1400  -29.8070   21.7130 H   0  0  0  0  0  0  0  0  0  0  0  0
  -18.2700  -27.9910   22.8200 C   0  0  0  0  0  0  0  0  0  0  0  0
  -20.8150  -28.2970   23.1510 C   0  0  0  0  0  3  0  0  0  0  0  0
  -20.9590  -26.8740   22.5620 C   0  0  0  0  0  2  0  0  0  0  0  0
  -19.8870  -26.5410   21.5210 C   0  0  0  0  0  2  0  0  0  0  0  0
  -18.4880  -26.6520   22.1360 C   0  0  0  0  0  2  0  0  0  0  0  0
  -19.3630  -28.7700   23.2820 C   0  0  0  0  0  0  0  0  0  0  0  0
  -19.1070  -30.0240   23.8800 C   0  0  0  0  0  3  0  0  0  0  0  0
  -17.7900  -30.4990   24.0190 C   0  0  0  0  0  3  0  0  0  0  0  0
  -16.7100  -29.7170   23.5730 C   0  0  0  0  0  3  0  0  0  0  0  0
  -16.9510  -28.4650   22.9810 C   0  0  0  0  0  3  0  0  0  0  0  0
  -25.9370  -32.6320   23.9760 C   0  0  0  0  0  3  0  0  0  0  0  0
  -25.5880  -34.0310   24.2570 N   0  0  0  0  0  0  0  0  0  0  0  0
  -25.9300  -35.0700   23.4820 C   0  0  0  0  0  0  0  0  0  0  0  0
  -26.6450  -34.9520   22.4840 O   0  0  0  0  0  0  0  0  0  0  0  0
  -24.9580  -34.1970   25.0290 H   0  0  0  0  0  0  0  0  0  0  0  0
  -24.1770  -36.8090   23.0110 C   0  0  0  0  0  1  0  0  0  0  0  0
  -25.3960  -36.4590   23.8790 C   0  0  0  0  0  3  0  0  0  0  0  0
  -27.4750  -37.4180   24.7630 C   0  0  0  0  0  1  0  0  0  0  0  0
  -26.4090  -37.5310   23.7710 N   0  0  0  0  0  0  0  0  0  0  0  0
  -25.9790  -38.4470   23.8670 H   0  0  0  0  0  0  0  0  0  0  0  0
  -26.4140  -31.8980   25.2890 C   0  0  1  0  0  0  0  0  0  0  0  0
  -25.2780  -31.6400   26.3060 C   0  0  0  0  0  1  0  0  0  0  0  0
  -27.0570  -30.5350   24.9430 C   0  0  0  0  0  1  0  0  0  0  0  0
  -27.5080  -32.7380   25.9910 C   0  0  0  0  0  1  0  0  0  0  0  0
  2  1  1  0
  3  4  1  0
  4  8  1  0
  4  1  2  0
  5 48  1  0
  5  2  2  0
  6  3  2  0
  6  5  1  0
  7  6  1  0
  8  9  2  0
 11 10  2  0
 11  8  1  0
 12 18  1  0
 12 10  1  0
 13 18  1  0
 14 15  1  0
 14 13  1  0
 16 15  1  0
 16 23  1  0
 16 17  1  0
 18 17  1  0
 19 12  2  0
 20 21  2  0
 21 40  1  0
 22 21  1  0
 22 25  1  0
 23 24  1  0
 23 20  1  0
 24 22  2  0
 25 26  1  0
 26 27  2  0
 28 31  1  0
 28 27  1  0
 29 28  2  0
 30 29  1  0
 30 25  2  0
 31 32  1  0
 32 33  1  0
 33 34  2  0
 35 34  1  0
 35 39  1  0
 36 35  2  0
 37 32  2  0
 37 36  1  0
 38 37  1  0
 40 41  1  0
 41 44  1  0
 41 43  1  0
 42 40  2  0
 45 20  1  0
 45 46  1  0
 47 45  1  0
 49 50  1  0
 49 48  1  0
 50 52  1  0
 51 50  2  0
 53 52  1  0
 54 65  2  0
 55 53  1  0
 55 60  1  0
 56 64  1  0
 56 66  1  0
 57 63  1  0
 57 59  1  0
 58 64  1  0
 59 60  2  0
 59 58  1  0
 61 55  2  0
 62 61  1  0
 62 57  2  0
 63 56  1  0
 64 54  1  0
 66 68  2  0
 67 66  1  0
 69 67  1  0
 70 79  2  0
 70 75  1  0
 71 67  1  0
 71 75  1  0
 72 71  1  0
 73 74  1  0
 73 72  1  0
 74 70  1  0
 75 76  2  0
 76 77  1  0
 78 77  2  0
 79 78  1  0
 80 54  1  0
 80 81  1  0
 80 90  1  0
 81 84  1  0
 82 86  1  0
 82 81  1  0
 83 82  2  0
 86 85  1  0
 88 89  1  0
 88 86  1  0
 88 87  1  0
 90 93  1  1
 90 91  1  0
 92 90  1  0
M  ISO  4  10 100  12 100  52 101  53 101
M  END
>  <TORSDO>  (61) 
F 22

>  <SCORE>  (61) 
-12.989

>  <name>  (61) 
60

>  <ligand_id>  (61) 
60

>  <original_smiles>  (61) 
[H]C(=NC(=O)c1c([H])c([H])c(C([H])([H])C([H])([H])C(=O)C([H])([H])Oc2c([H])c([H])c3c(c2[H])C([H])([H])N(C(=O)C([H])(N([H])C(=O)C([H])(N([H])C([H])([H])[H])C([H])([H])[H])C(C([H])([H])[H])(C([H])([H])[H])C([H])([H])[H])C([H])(C(=O)N([H])C2([H])c4c([H])c([H])c([H])c([H])c4C([H])([H])C([H])([H])C2([H])[H])C3([H])[H])c(F)c1[H])C(=O)N1C([H])([H])C([H])([H])C([H])([H])C([H])(n2nc(-c3c([H])c([H])c(Oc4c([H])c([H])c(F)c([H])c4F)c([H])c3[H])c(C(=O)N([H])[H])c2N([H])[H])C1([H])[H]

>  <smiles>  (61) 
[H]C(=NC(=O)c1c([H])c([H])c(C([H])([H])C([H])([H])C(=O)C([H])([H])Oc2c([H])c([H])c3c(c2[H])C([H])([H])N(C(=O)C([H])(N([H])C(=O)C([H])(N([H])C([H])([H])[H])C([H])([H])[H])C(C([H])([H])[H])(C([H])([H])[H])C([H])([H])[H])C([H])(C(=O)N([H])C2([H])c4c([H])c([H])c([H])c([H])c4C([H])([H])C([H])([H])C2([H])[H])C3([H])[H])c(F)c1[H])C(=O)N1C([H])([H])C([H])([H])C([H])([H])C([H])(n2nc(-c3c([H])c([H])c(Oc4c([H])c([H])c(F)c([H])c4F)c([H])c3[H])c(C(=O)N([H])[H])c2N([H])[H])C1([H])[H]

$$$$
61:0:0
     RDKit          3D

 90 98  0  0  1  0  0  0  0  0999 V2000
  -29.2130  -21.3370   21.4450 C   0  0  0  0  0  3  0  0  0  0  0  0
  -27.8030  -20.3340   19.8890 C   0  0  0  0  0  3  0  0  0  0  0  0
  -28.8930  -20.1590   20.7090 C   0  0  0  0  0  0  0  0  0  0  0  0
  -28.4040  -22.4010   21.1480 C   0  0  0  0  0  0  0  0  0  0  0  0
  -27.1710  -21.9560   19.9940 S   0  0  0  0  0  0  0  0  0  0  0  0
  -29.6450  -18.9190   20.8560 C   0  0  0  0  0  0  0  0  0  0  0  0
  -30.5030  -18.7420   21.7250 O   0  0  0  0  0  0  0  0  0  0  0  0
  -29.3710  -17.8250   19.8170 C   0  0  0  0  0  2  0  0  0  0  0  0
  -30.5420  -16.8380   19.6000 C   0  0  0  0  0  2  0  0  0  0  0  0
  -30.8700  -15.9160   20.8040 C   0  0  0  0  0  2  0  0  0  0  0  0
  -31.5240  -14.6090   20.3320 C   0  0  0  0  0  0  0  0  0  0  0  0
  -31.1870  -12.3400   19.4410 C   0  0  0  0  0  2  0  0  0  0  0  0
  -30.2920  -12.4320   18.1880 C   0  0  0  0  0  2  0  0  0  0  0  0
  -28.7960  -12.4180   18.5700 C   0  0  0  0  0  2  0  0  0  0  0  0
  -28.4580  -13.4150   19.7120 C   0  0  0  0  0  3  0  0  0  0  0  0
  -29.4650  -13.2600   20.8740 C   0  0  0  0  0  2  0  0  0  0  0  0
  -30.8200  -13.4470   20.3340 N   0  0  0  0  0  0  0  0  0  0  0  0
  -32.6550  -14.6970   19.8430 O   0  0  0  0  0  0  0  0  0  0  0  0
  -26.1200  -14.2420   20.4050 C   0  0  0  0  0  0  0  0  0  0  0  0
  -24.9780  -13.5660   20.7460 C   0  0  0  0  0  0  0  0  0  0  0  0
  -25.3060  -12.1780   20.6850 C   0  0  0  0  0  0  0  0  0  0  0  0
  -27.0770  -13.2670   20.1660 N   0  0  0  0  0  0  0  0  0  0  0  0
  -26.5910  -12.0200   20.3910 N   0  0  0  0  0  0  0  0  0  0  0  0
  -24.4610  -10.9880   20.8320 C   0  0  0  0  0  0  0  0  0  0  0  0
  -24.7760   -9.9710   21.7570 C   0  0  0  0  0  3  0  0  0  0  0  0
  -23.9380   -8.8430   21.8950 C   0  0  0  0  0  3  0  0  0  0  0  0
  -22.7700   -8.7260   21.1060 C   0  0  0  0  0  0  0  0  0  0  0  0
  -22.4730   -9.7320   20.1690 C   0  0  0  0  0  3  0  0  0  0  0  0
  -23.3100  -10.8510   20.0290 C   0  0  0  0  0  3  0  0  0  0  0  0
  -21.9120   -7.6540   21.1520 O   0  0  0  0  0  0  0  0  0  0  0  0
  -21.7300   -6.9290   22.3020 C   0  0  0  0  0  0  0  0  0  0  0  0
  -21.2850   -7.5300   23.4990 C   0  0  0  0  0  3  0  0  0  0  0  0
  -21.0440   -6.7340   24.6380 C   0  0  0  0  0  3  0  0  0  0  0  0
  -21.2370   -5.3420   24.5770 C   0  0  0  0  0  0  0  0  0  0  0  0
  -21.6760   -4.7410   23.3840 C   0  0  0  0  0  3  0  0  0  0  0  0
  -21.9170   -5.5340   22.2490 C   0  0  0  0  0  0  0  0  0  0  0  0
  -22.3190   -4.9480   21.0940 F   0  0  0  0  0  0  0  0  0  0  0  0
  -20.9980   -4.5750   25.6680 F   0  0  0  0  0  0  0  0  0  0  0  0
  -23.6300  -14.1700   21.0140 C   0  0  0  0  0  0  0  0  0  0  0  0
  -22.8310  -13.5360   21.8650 N   0  0  0  0  0  0  0  0  0  0  0  0
  -23.2950  -15.2370   20.5030 O   0  0  0  0  0  0  0  0  0  0  0  0
  -23.1100  -12.6720   22.3050 H   0  0  0  0  0  0  0  0  0  0  0  0
  -21.9260  -13.9280   22.0830 H   0  0  0  0  0  0  0  0  0  0  0  0
  -26.4130  -15.5930   20.2540 N   0  0  0  0  0  0  0  0  0  0  0  0
  -25.6930  -16.3040   20.3320 H   0  0  0  0  0  0  0  0  0  0  0  0
  -27.2830  -15.9510   19.8820 H   0  0  0  0  0  0  0  0  0  0  0  0
  -28.5170  -23.7810   21.7030 C   0  0  0  0  0  2  0  0  0  0  0  0
  -28.6430  -24.8540   20.6130 C   0  0  0  0  0  2  0  0  0  0  0  0
  -29.0600  -26.2160   21.1830 C   0  0  0  0  0  2  0  0  0  0  0  0
  -28.9490  -27.2190   20.1790 O   0  0  0  0  0  0  0  0  0  0  0  0
  -24.6140  -31.9010   23.3070 C   0  0  0  0  0  0  0  0  0  0  0  0
  -27.7350  -27.8490   20.1720 C   0  0  0  0  0  0  0  0  0  0  0  0
  -23.6010  -30.5100   21.5270 C   0  0  0  0  0  3  0  0  0  0  0  0
  -25.2360  -29.1470   20.1210 C   0  0  0  0  0  0  0  0  0  0  0  0
  -26.0950  -31.0530   21.4960 C   0  0  0  0  0  2  0  0  0  0  0  0
  -26.3140  -29.7250   20.8050 C   0  0  0  0  0  0  0  0  0  0  0  0
  -27.5650  -29.0800   20.8380 C   0  0  0  0  0  3  0  0  0  0  0  0
  -26.6500  -27.2760   19.4780 C   0  0  0  0  0  3  0  0  0  0  0  0
  -25.3960  -27.9180   19.4540 C   0  0  0  0  0  3  0  0  0  0  0  0
  -23.9330  -29.9130   20.1310 C   0  0  0  0  0  2  0  0  0  0  0  0
  -24.7830  -31.1650   22.1710 N   0  0  0  0  0  0  0  0  0  0  0  0
  -23.4890  -32.0740   23.7940 O   0  0  0  0  0  0  0  0  0  0  0  0
  -22.9730  -29.3980   22.3970 C   0  0  0  0  0  0  0  0  0  0  0  0
  -21.6630  -29.1650   22.2140 N   0  0  0  0  0  0  0  0  0  0  0  0
  -23.6600  -28.7540   23.1940 O   0  0  0  0  0  0  0  0  0  0  0  0
  -21.1720  -29.7450   21.5470 H   0  0  0  0  0  0  0  0  0  0  0  0
  -18.3220  -27.8420   22.5630 C   0  0  0  0  0  0  0  0  0  0  0  0
  -20.8670  -28.1430   22.8890 C   0  0  0  0  0  3  0  0  0  0  0  0
  -21.0180  -26.7710   22.1930 C   0  0  0  0  0  2  0  0  0  0  0  0
  -19.9350  -26.5070   21.1410 C   0  0  0  0  0  2  0  0  0  0  0  0
  -18.5440  -26.5600   21.7780 C   0  0  0  0  0  2  0  0  0  0  0  0
  -19.4140  -28.5930   23.0710 C   0  0  0  0  0  0  0  0  0  0  0  0
  -19.1560  -29.7970   23.7630 C   0  0  0  0  0  3  0  0  0  0  0  0
  -17.8370  -30.2490   23.9520 C   0  0  0  0  0  3  0  0  0  0  0  0
  -16.7580  -29.4930   23.4620 C   0  0  0  0  0  3  0  0  0  0  0  0
  -17.0010  -28.2900   22.7740 C   0  0  0  0  0  3  0  0  0  0  0  0
  -25.8200  -32.5810   24.0260 C   0  0  0  0  0  3  0  0  0  0  0  0
  -25.4380  -33.9720   24.3080 N   0  0  0  0  0  0  0  0  0  0  0  0
  -25.7930  -35.0260   23.5600 C   0  0  0  0  0  0  0  0  0  0  0  0
  -26.5490  -34.9320   22.5880 O   0  0  0  0  0  0  0  0  0  0  0  0
  -24.7780  -34.1150   25.0590 H   0  0  0  0  0  0  0  0  0  0  0  0
  -24.0300  -36.7400   23.0400 C   0  0  0  0  0  1  0  0  0  0  0  0
  -25.2200  -36.4010   23.9530 C   0  0  0  0  0  3  0  0  0  0  0  0
  -27.2530  -37.3780   24.9220 C   0  0  0  0  0  1  0  0  0  0  0  0
  -26.2180  -37.4910   23.8970 N   0  0  0  0  0  0  0  0  0  0  0  0
  -25.7700  -38.3970   24.0000 H   0  0  0  0  0  0  0  0  0  0  0  0
  -26.2520  -31.8390   25.3510 C   0  0  1  0  0  0  0  0  0  0  0  0
  -25.0730  -31.5370   26.3030 C   0  0  0  0  0  1  0  0  0  0  0  0
  -26.9490  -30.4990   25.0210 C   0  0  0  0  0  1  0  0  0  0  0  0
  -27.2820  -32.6970   26.1200 C   0  0  0  0  0  1  0  0  0  0  0  0
  2  5  1  0
  2  3  2  0
  3  6  1  0
  3  1  1  0
  4  1  2  0
  4 47  1  0
  5  4  1  0
  6  7  2  0
  8  6  1  0
  9  8  1  0
  9 10  1  0
 11 17  1  0
 11 10  1  0
 12 17  1  0
 13 14  1  0
 13 12  1  0
 15 14  1  0
 15 22  1  0
 15 16  1  0
 17 16  1  0
 18 11  2  0
 19 20  2  0
 20 39  1  0
 21 20  1  0
 21 24  1  0
 22 23  1  0
 22 19  1  0
 23 21  2  0
 24 25  1  0
 25 26  2  0
 27 30  1  0
 27 26  1  0
 28 27  2  0
 29 28  1  0
 29 24  2  0
 30 31  1  0
 31 32  1  0
 32 33  2  0
 34 33  1  0
 34 38  1  0
 35 34  2  0
 36 31  2  0
 36 35  1  0
 37 36  1  0
 39 40  1  0
 40 43  1  0
 40 42  1  0
 41 39  2  0
 44 45  1  0
 44 19  1  0
 46 44  1  0
 48 49  1  0
 48 47  1  0
 50 49  1  0
 51 62  2  0
 52 50  1  0
 52 57  1  0
 53 61  1  0
 53 63  1  0
 54 60  1  0
 54 56  1  0
 55 61  1  0
 56 57  2  0
 56 55  1  0
 58 52  2  0
 59 58  1  0
 59 54  2  0
 60 53  1  0
 61 51  1  0
 63 65  2  0
 64 63  1  0
 66 64  1  0
 67 76  2  0
 67 72  1  0
 68 64  1  0
 68 72  1  0
 69 68  1  0
 70 71  1  0
 70 69  1  0
 71 67  1  0
 72 73  2  0
 73 74  1  0
 75 74  2  0
 76 75  1  0
 77 51  1  0
 77 78  1  0
 77 87  1  0
 78 81  1  0
 79 83  1  0
 79 78  1  0
 80 79  2  0
 83 82  1  0
 85 83  1  0
 85 86  1  0
 85 84  1  0
 87 90  1  1
 87 88  1  0
 89 87  1  0
M  ISO  4  10 100  11 100  49 101  50 101
M  END
>  <TORSDO>  (62) 
F 23

>  <SCORE>  (62) 
-11.621

>  <name>  (62) 
61

>  <ligand_id>  (62) 
61

>  <original_smiles>  (62) 
[H]c1sc(C([H])([H])C([H])([H])C([H])([H])Oc2c([H])c([H])c3c(c2[H])C([H])([H])N(C(=O)C([H])(N([H])C(=O)C([H])(N([H])C([H])([H])[H])C([H])([H])[H])C(C([H])([H])[H])(C([H])([H])[H])C([H])([H])[H])C([H])(C(=O)N([H])C2([H])c4c([H])c([H])c([H])c([H])c4C([H])([H])C([H])([H])C2([H])[H])C3([H])[H])c([H])c1C(=O)C([H])([H])C([H])([H])C([H])([H])C(=O)N1C([H])([H])C([H])([H])C([H])([H])C([H])(n2nc(-c3c([H])c([H])c(Oc4c([H])c([H])c(F)c([H])c4F)c([H])c3[H])c(C(=O)N([H])[H])c2N([H])[H])C1([H])[H]

>  <smiles>  (62) 
[H]c1sc(C([H])([H])C([H])([H])C([H])([H])Oc2c([H])c([H])c3c(c2[H])C([H])([H])N(C(=O)C([H])(N([H])C(=O)C([H])(N([H])C([H])([H])[H])C([H])([H])[H])C(C([H])([H])[H])(C([H])([H])[H])C([H])([H])[H])C([H])(C(=O)N([H])C2([H])c4c([H])c([H])c([H])c([H])c4C([H])([H])C([H])([H])C2([H])[H])C3([H])[H])c([H])c1C(=O)C([H])([H])C([H])([H])C([H])([H])C(=O)N1C([H])([H])C([H])([H])C([H])([H])C([H])(n2nc(-c3c([H])c([H])c(Oc4c([H])c([H])c(F)c([H])c4F)c([H])c3[H])c(C(=O)N([H])[H])c2N([H])[H])C1([H])[H]

$$$$
62:0:0
     RDKit          3D

 90 98  0  0  1  0  0  0  0  0999 V2000
  -29.6100  -20.3340   19.6170 C   0  0  0  0  0  3  0  0  0  0  0  0
  -29.3980  -21.6300   20.0290 C   0  0  0  0  0  3  0  0  0  0  0  0
  -26.1470  -17.6940   19.5970 C   0  0  0  0  0  3  0  0  0  0  0  0
  -26.0800  -19.0280   19.2010 C   0  0  0  0  0  3  0  0  0  0  0  0
  -27.3940  -17.1310   19.8960 C   0  0  0  0  0  3  0  0  0  0  0  0
  -27.2530  -19.7920   19.1830 C   0  0  0  0  0  3  0  0  0  0  0  0
  -28.6240  -17.8470   19.8170 C   0  0  0  0  0  0  0  0  0  0  0  0
  -28.5320  -19.2760   19.5330 C   0  0  0  0  0  0  0  0  0  0  0  0
  -29.8470  -16.9540   19.9880 C   0  0  0  0  0  3  0  0  0  0  0  0
  -29.7230  -15.5960   20.1780 C   0  0  0  0  0  3  0  0  0  0  0  0
  -30.7480  -14.5530   20.4750 C   0  0  0  0  0  0  0  0  0  0  0  0
  -30.9080  -12.0730   20.6670 C   0  0  0  0  0  2  0  0  0  0  0  0
  -30.2310  -11.4570   19.4190 C   0  0  0  0  0  2  0  0  0  0  0  0
  -28.7000  -11.3330   19.5990 C   0  0  0  0  0  2  0  0  0  0  0  0
  -28.0640  -12.6310   20.1620 C   0  0  0  0  0  3  0  0  0  0  0  0
  -28.8630  -13.1070   21.3960 C   0  0  0  0  0  2  0  0  0  0  0  0
  -30.2440  -13.3620   20.9460 N   0  0  0  0  0  0  0  0  0  0  0  0
  -31.9520  -14.6690   20.2190 O   0  0  0  0  0  0  0  0  0  0  0  0
  -25.6330  -13.4120   20.4850 C   0  0  0  0  0  0  0  0  0  0  0  0
  -24.4790  -12.7230   20.7410 C   0  0  0  0  0  0  0  0  0  0  0  0
  -24.8560  -11.3500   20.8550 C   0  0  0  0  0  0  0  0  0  0  0  0
  -26.6440  -12.4630   20.4560 N   0  0  0  0  0  0  0  0  0  0  0  0
  -26.1720  -11.2220   20.7350 N   0  0  0  0  0  0  0  0  0  0  0  0
  -24.0380  -10.1420   21.0120 C   0  0  0  0  0  0  0  0  0  0  0  0
  -24.2270   -9.2610   22.1000 C   0  0  0  0  0  3  0  0  0  0  0  0
  -23.4160   -8.1140   22.2390 C   0  0  0  0  0  3  0  0  0  0  0  0
  -22.4030   -7.8420   21.2890 C   0  0  0  0  0  0  0  0  0  0  0  0
  -22.2360   -8.7100   20.1970 C   0  0  0  0  0  3  0  0  0  0  0  0
  -23.0460   -9.8480   20.0570 C   0  0  0  0  0  3  0  0  0  0  0  0
  -21.5860   -6.7380   21.3310 O   0  0  0  0  0  0  0  0  0  0  0  0
  -21.1850   -6.1830   22.5200 C   0  0  0  0  0  0  0  0  0  0  0  0
  -20.4890   -6.9320   23.4940 C   0  0  0  0  0  3  0  0  0  0  0  0
  -20.0340   -6.3040   24.6720 C   0  0  0  0  0  3  0  0  0  0  0  0
  -20.2660   -4.9300   24.8730 C   0  0  0  0  0  0  0  0  0  0  0  0
  -20.9540   -4.1820   23.9010 C   0  0  0  0  0  3  0  0  0  0  0  0
  -21.4100   -4.8070   22.7260 C   0  0  0  0  0  0  0  0  0  0  0  0
  -22.0540   -4.0780   21.7840 F   0  0  0  0  0  0  0  0  0  0  0  0
  -19.8220   -4.3260   25.9990 F   0  0  0  0  0  0  0  0  0  0  0  0
  -23.0880  -13.2890   20.7860 C   0  0  0  0  0  0  0  0  0  0  0  0
  -22.2070  -12.6890   21.5810 N   0  0  0  0  0  0  0  0  0  0  0  0
  -22.7860  -14.2970   20.1490 O   0  0  0  0  0  0  0  0  0  0  0  0
  -22.4590  -11.8740   22.1190 H   0  0  0  0  0  0  0  0  0  0  0  0
  -21.2670  -13.0530   21.6520 H   0  0  0  0  0  0  0  0  0  0  0  0
  -25.9040  -14.7580   20.2550 N   0  0  0  0  0  0  0  0  0  0  0  0
  -25.1770  -15.4640   20.2420 H   0  0  0  0  0  0  0  0  0  0  0  0
  -26.8240  -15.1360   20.0650 H   0  0  0  0  0  0  0  0  0  0  0  0
  -30.3950  -22.8030   20.1330 C   0  0  0  0  0  2  0  0  0  0  0  0
  -29.9090  -24.2550   19.7190 C   0  0  0  0  0  2  0  0  0  0  0  0
  -29.2370  -25.1880   20.7950 C   0  0  0  0  0  2  0  0  0  0  0  0
  -29.2380  -26.6240   20.5160 O   0  0  0  0  0  0  0  0  0  0  0  0
  -24.8890  -31.5960   23.3440 C   0  0  0  0  0  0  0  0  0  0  0  0
  -28.0280  -27.3070   20.4580 C   0  0  0  0  0  0  0  0  0  0  0  0
  -23.9030  -30.1450   21.6030 C   0  0  0  0  0  3  0  0  0  0  0  0
  -25.5550  -28.7040   20.2870 C   0  0  0  0  0  0  0  0  0  0  0  0
  -26.4150  -30.6440   21.6070 C   0  0  0  0  0  2  0  0  0  0  0  0
  -26.6350  -29.2830   20.9650 C   0  0  0  0  0  0  0  0  0  0  0  0
  -27.8770  -28.5980   21.0350 C   0  0  0  0  0  3  0  0  0  0  0  0
  -26.9270  -26.7500   19.7770 C   0  0  0  0  0  3  0  0  0  0  0  0
  -25.6990  -27.4400   19.6870 C   0  0  0  0  0  3  0  0  0  0  0  0
  -24.2620  -29.4930   20.2410 C   0  0  0  0  0  2  0  0  0  0  0  0
  -25.0820  -30.8120   22.2440 N   0  0  0  0  0  0  0  0  0  0  0  0
  -23.7550  -31.7960   23.8000 O   0  0  0  0  0  0  0  0  0  0  0  0
  -23.2370  -29.0780   22.5020 C   0  0  0  0  0  0  0  0  0  0  0  0
  -21.9440  -28.8100   22.2620 N   0  0  0  0  0  0  0  0  0  0  0  0
  -23.8880  -28.4930   23.3730 O   0  0  0  0  0  0  0  0  0  0  0  0
  -21.4780  -29.3390   21.5370 H   0  0  0  0  0  0  0  0  0  0  0  0
  -18.6170  -27.4140   22.4910 C   0  0  0  0  0  0  0  0  0  0  0  0
  -21.1280  -27.8140   22.9560 C   0  0  0  0  0  3  0  0  0  0  0  0
  -21.3570  -26.4020   22.3680 C   0  0  0  0  0  2  0  0  0  0  0  0
  -20.3520  -26.0360   21.2700 C   0  0  0  0  0  2  0  0  0  0  0  0
  -18.9210  -26.0900   21.8120 C   0  0  0  0  0  2  0  0  0  0  0  0
  -19.6540  -28.2310   23.0140 C   0  0  0  0  0  0  0  0  0  0  0  0
  -19.3190  -29.4680   23.6060 C   0  0  0  0  0  3  0  0  0  0  0  0
  -17.9790  -29.8910   23.6810 C   0  0  0  0  0  3  0  0  0  0  0  0
  -16.9550  -29.0720   23.1750 C   0  0  0  0  0  3  0  0  0  0  0  0
  -17.2740  -27.8350   22.5860 C   0  0  0  0  0  3  0  0  0  0  0  0
  -26.0800  -32.2960   24.0700 C   0  0  0  0  0  3  0  0  0  0  0  0
  -25.6840  -33.6860   24.3340 N   0  0  0  0  0  0  0  0  0  0  0  0
  -26.0380  -34.7340   23.5790 C   0  0  0  0  0  0  0  0  0  0  0  0
  -26.8010  -34.6380   22.6140 O   0  0  0  0  0  0  0  0  0  0  0  0
  -25.0130  -33.8320   25.0750 H   0  0  0  0  0  0  0  0  0  0  0  0
  -24.2650  -36.4340   23.0340 C   0  0  0  0  0  1  0  0  0  0  0  0
  -25.4530  -36.1100   23.9540 C   0  0  0  0  0  3  0  0  0  0  0  0
  -27.4710  -37.1160   24.9280 C   0  0  0  0  0  1  0  0  0  0  0  0
  -26.4440  -37.2070   23.8940 N   0  0  0  0  0  0  0  0  0  0  0  0
  -25.9870  -38.1110   23.9790 H   0  0  0  0  0  0  0  0  0  0  0  0
  -26.5040  -31.5740   25.4080 C   0  0  1  0  0  0  0  0  0  0  0  0
  -25.3230  -31.3020   26.3690 C   0  0  0  0  0  1  0  0  0  0  0  0
  -27.1870  -30.2210   25.1050 C   0  0  0  0  0  1  0  0  0  0  0  0
  -27.5450  -32.4360   26.1620 C   0  0  0  0  0  1  0  0  0  0  0  0
  1  2  2  0
  2 47  1  0
  3  5  1  0
  4  3  2  0
  6  4  1  0
  6  8  2  0
  7  5  2  0
  7  9  1  0
  8  1  1  0
  8  7  1  0
  9 10  2  0
 10 11  1  0
 11 17  1  0
 12 17  1  0
 13 14  1  0
 13 12  1  0
 15 14  1  0
 15 22  1  0
 15 16  1  0
 17 16  1  0
 18 11  2  0
 19 20  2  0
 20 39  1  0
 20 21  1  0
 21 24  1  0
 22 19  1  0
 22 23  1  0
 23 21  2  0
 24 25  1  0
 25 26  2  0
 27 30  1  0
 27 26  1  0
 28 27  2  0
 29 28  1  0
 29 24  2  0
 30 31  1  0
 31 36  2  0
 31 32  1  0
 32 33  2  0
 33 34  1  0
 34 38  1  0
 35 34  2  0
 36 35  1  0
 37 36  1  0
 39 40  1  0
 40 43  1  0
 40 42  1  0
 41 39  2  0
 44 19  1  0
 45 44  1  0
 46 44  1  0
 48 47  1  0
 48 49  1  0
 50 49  1  0
 51 62  2  0
 52 50  1  0
 52 57  1  0
 53 61  1  0
 53 63  1  0
 54 56  1  0
 55 61  1  0
 56 57  2  0
 56 55  1  0
 58 52  2  0
 59 58  1  0
 59 54  2  0
 60 54  1  0
 60 53  1  0
 61 51  1  0
 63 65  2  0
 64 63  1  0
 66 64  1  0
 67 76  2  0
 67 72  1  0
 68 64  1  0
 68 72  1  0
 69 68  1  0
 70 71  1  0
 70 69  1  0
 71 67  1  0
 72 73  2  0
 73 74  1  0
 75 74  2  0
 76 75  1  0
 77 51  1  0
 77 78  1  0
 77 87  1  0
 78 81  1  0
 79 83  1  0
 79 78  1  0
 80 79  2  0
 83 82  1  0
 85 83  1  0
 85 86  1  0
 85 84  1  0
 87 90  1  1
 87 88  1  0
 89 87  1  0
M  ISO  4  10 100  11 100  49 101  50 101
M  END
>  <TORSDO>  (63) 
F 21

>  <SCORE>  (63) 
-10.877

>  <name>  (63) 
62

>  <ligand_id>  (63) 
62

>  <original_smiles>  (63) 
[H]C(C(=O)N1C([H])([H])C([H])([H])C([H])([H])C([H])(n2nc(-c3c([H])c([H])c(Oc4c([H])c([H])c(F)c([H])c4F)c([H])c3[H])c(C(=O)N([H])[H])c2N([H])[H])C1([H])[H])=C([H])c1c([H])c([H])c([H])c([H])c1C([H])=C([H])C([H])([H])C([H])([H])C([H])([H])Oc1c([H])c([H])c2c(c1[H])C([H])([H])N(C(=O)C([H])(N([H])C(=O)C([H])(N([H])C([H])([H])[H])C([H])([H])[H])C(C([H])([H])[H])(C([H])([H])[H])C([H])([H])[H])C([H])(C(=O)N([H])C1([H])c3c([H])c([H])c([H])c([H])c3C([H])([H])C([H])([H])C1([H])[H])C2([H])[H]

>  <smiles>  (63) 
[H]C(C(=O)N1C([H])([H])C([H])([H])C([H])([H])C([H])(n2nc(-c3c([H])c([H])c(Oc4c([H])c([H])c(F)c([H])c4F)c([H])c3[H])c(C(=O)N([H])[H])c2N([H])[H])C1([H])[H])=C([H])c1c([H])c([H])c([H])c([H])c1C([H])=C([H])C([H])([H])C([H])([H])C([H])([H])Oc1c([H])c([H])c2c(c1[H])C([H])([H])N(C(=O)C([H])(N([H])C(=O)C([H])(N([H])C([H])([H])[H])C([H])([H])[H])C(C([H])([H])[H])(C([H])([H])[H])C([H])([H])[H])C([H])(C(=O)N([H])C1([H])c3c([H])c([H])c([H])c([H])c3C([H])([H])C([H])([H])C1([H])[H])C2([H])[H]

$$$$
63:0:0
     RDKit          3D

 91 99  0  0  1  0  0  0  0  0999 V2000
  -26.6900  -22.3980   18.8040 C   0  0  0  0  0  2  0  0  0  0  0  0
  -27.8420  -20.1480   18.5500 C   0  0  0  0  0  3  0  0  0  0  0  0
  -27.6390  -21.1040   20.7780 C   0  0  0  0  0  3  0  0  0  0  0  0
  -28.4980  -19.0230   19.0870 C   0  0  0  0  0  3  0  0  0  0  0  0
  -28.2940  -19.9780   21.3170 C   0  0  0  0  0  3  0  0  0  0  0  0
  -27.4140  -21.1960   19.3910 C   0  0  0  0  0  0  0  0  0  0  0  0
  -28.7340  -18.9310   20.4780 C   0  0  0  0  0  0  0  0  0  0  0  0
  -29.4390  -17.7360   21.1130 C   0  0  0  0  0  2  0  0  0  0  0  0
  -30.3360  -16.9080   20.1720 C   0  0  0  0  0  2  0  0  0  0  0  0
  -31.1820  -15.8580   20.9250 C   0  0  0  0  0  2  0  0  0  0  0  0
  -31.6270  -14.7090   20.0040 C   0  0  0  0  0  0  0  0  0  0  0  0
  -31.1190  -12.6150   18.7950 C   0  0  0  0  0  2  0  0  0  0  0  0
  -30.1130  -12.8940   17.6600 C   0  0  0  0  0  2  0  0  0  0  0  0
  -28.6630  -12.8390   18.1810 C   0  0  0  0  0  2  0  0  0  0  0  0
  -28.4620  -13.6750   19.4720 C   0  0  0  0  0  3  0  0  0  0  0  0
  -29.5620  -13.3430   20.5030 C   0  0  0  0  0  2  0  0  0  0  0  0
  -30.8690  -13.5870   19.8710 N   0  0  0  0  0  0  0  0  0  0  0  0
  -32.6630  -14.8820   19.3550 O   0  0  0  0  0  0  0  0  0  0  0  0
  -26.1840  -14.4320   20.4020 C   0  0  0  0  0  0  0  0  0  0  0  0
  -25.0790  -13.7280   20.8010 C   0  0  0  0  0  0  0  0  0  0  0  0
  -25.4110  -12.3490   20.6350 C   0  0  0  0  0  0  0  0  0  0  0  0
  -27.1250  -13.4840   20.0310 N   0  0  0  0  0  0  0  0  0  0  0  0
  -26.6650  -12.2220   20.2240 N   0  0  0  0  0  0  0  0  0  0  0  0
  -24.5880  -11.1420   20.7940 C   0  0  0  0  0  0  0  0  0  0  0  0
  -24.9570  -10.1090   21.6840 C   0  0  0  0  0  3  0  0  0  0  0  0
  -24.1420   -8.9670   21.8310 C   0  0  0  0  0  3  0  0  0  0  0  0
  -22.9440   -8.8490   21.0870 C   0  0  0  0  0  0  0  0  0  0  0  0
  -22.5920   -9.8700   20.1840 C   0  0  0  0  0  3  0  0  0  0  0  0
  -23.4080  -11.0040   20.0360 C   0  0  0  0  0  3  0  0  0  0  0  0
  -22.1040   -7.7630   21.1450 O   0  0  0  0  0  0  0  0  0  0  0  0
  -21.9540   -7.0290   22.2930 C   0  0  0  0  0  0  0  0  0  0  0  0
  -21.5300   -7.6180   23.5040 C   0  0  0  0  0  3  0  0  0  0  0  0
  -21.3220   -6.8160   24.6440 C   0  0  0  0  0  3  0  0  0  0  0  0
  -21.5290   -5.4250   24.5720 C   0  0  0  0  0  0  0  0  0  0  0  0
  -21.9460   -4.8350   23.3660 C   0  0  0  0  0  3  0  0  0  0  0  0
  -22.1540   -5.6350   22.2290 C   0  0  0  0  0  0  0  0  0  0  0  0
  -22.5360   -5.0600   21.0640 F   0  0  0  0  0  0  0  0  0  0  0  0
  -21.3220   -4.6520   25.6650 F   0  0  0  0  0  0  0  0  0  0  0  0
  -23.7570  -14.3000   21.2200 C   0  0  0  0  0  0  0  0  0  0  0  0
  -23.0570  -13.6260   22.1270 N   0  0  0  0  0  0  0  0  0  0  0  0
  -23.3560  -15.3770   20.7810 O   0  0  0  0  0  0  0  0  0  0  0  0
  -23.3960  -12.7530   22.5030 H   0  0  0  0  0  0  0  0  0  0  0  0
  -22.1700  -13.9880   22.4470 H   0  0  0  0  0  0  0  0  0  0  0  0
  -26.4600  -15.7930   20.3100 N   0  0  0  0  0  0  0  0  0  0  0  0
  -25.7630  -16.5010   20.5150 H   0  0  0  0  0  0  0  0  0  0  0  0
  -27.3190  -16.1780   19.9390 H   0  0  0  0  0  0  0  0  0  0  0  0
  -27.6250  -23.4580   18.1840 C   0  0  0  0  0  2  0  0  0  0  0  0
  -28.2020  -24.4810   19.1710 C   0  0  0  0  0  0  0  0  0  0  0  0
  -28.3550  -24.2260   20.3700 O   0  0  0  0  0  0  0  0  0  0  0  0
  -28.5760  -25.8540   18.5850 C   0  0  0  0  0  2  0  0  0  0  0  0
  -28.4240  -26.9120   19.5420 O   0  0  0  0  0  0  0  0  0  0  0  0
  -24.5670  -31.7310   23.0810 C   0  0  0  0  0  0  0  0  0  0  0  0
  -27.2080  -27.5600   19.6280 C   0  0  0  0  0  0  0  0  0  0  0  0
  -23.3370  -30.3930   21.4030 C   0  0  0  0  0  3  0  0  0  0  0  0
  -24.7710  -28.9840   19.8390 C   0  0  0  0  0  0  0  0  0  0  0  0
  -25.8430  -30.8290   21.1410 C   0  0  0  0  0  2  0  0  0  0  0  0
  -25.9350  -29.5010   20.4210 C   0  0  0  0  0  0  0  0  0  0  0  0
  -27.1510  -28.7870   20.3280 C   0  0  0  0  0  3  0  0  0  0  0  0
  -26.0180  -27.0560   19.0500 C   0  0  0  0  0  3  0  0  0  0  0  0
  -24.8050  -27.7560   19.1600 C   0  0  0  0  0  3  0  0  0  0  0  0
  -23.5090  -29.8040   19.9780 C   0  0  0  0  0  2  0  0  0  0  0  0
  -24.6020  -30.9970   21.9330 N   0  0  0  0  0  0  0  0  0  0  0  0
  -23.4990  -31.9430   23.6730 O   0  0  0  0  0  0  0  0  0  0  0  0
  -22.7520  -29.2980   22.3230 C   0  0  0  0  0  0  0  0  0  0  0  0
  -21.4280  -29.0830   22.2260 N   0  0  0  0  0  0  0  0  0  0  0  0
  -23.4800  -28.6470   23.0770 O   0  0  0  0  0  0  0  0  0  0  0  0
  -20.8990  -29.6780   21.6020 H   0  0  0  0  0  0  0  0  0  0  0  0
  -18.1150  -27.7270   22.7060 C   0  0  0  0  0  0  0  0  0  0  0  0
  -20.6660  -28.0750   22.9600 C   0  0  0  0  0  3  0  0  0  0  0  0
  -20.8180  -26.6780   22.3130 C   0  0  0  0  0  2  0  0  0  0  0  0
  -19.7160  -26.3550   21.3010 C   0  0  0  0  0  2  0  0  0  0  0  0
  -18.3360  -26.4180   21.9660 C   0  0  0  0  0  2  0  0  0  0  0  0
  -19.2100  -28.5120   23.1580 C   0  0  0  0  0  0  0  0  0  0  0  0
  -18.9480  -29.7390   23.8040 C   0  0  0  0  0  3  0  0  0  0  0  0
  -17.6290  -30.1840   24.0040 C   0  0  0  0  0  3  0  0  0  0  0  0
  -16.5500  -29.3920   23.5760 C   0  0  0  0  0  3  0  0  0  0  0  0
  -16.7940  -28.1660   22.9320 C   0  0  0  0  0  3  0  0  0  0  0  0
  -25.8590  -32.3560   23.6920 C   0  0  0  0  0  3  0  0  0  0  0  0
  -25.5340  -33.7280   24.1020 N   0  0  0  0  0  0  0  0  0  0  0  0
  -25.8370  -34.8250   23.3920 C   0  0  0  0  0  0  0  0  0  0  0  0
  -26.4910  -34.7870   22.3470 O   0  0  0  0  0  0  0  0  0  0  0  0
  -24.9510  -33.8320   24.9190 H   0  0  0  0  0  0  0  0  0  0  0  0
  -24.0760  -36.6030   23.1500 C   0  0  0  0  0  1  0  0  0  0  0  0
  -25.3320  -36.1780   23.9270 C   0  0  0  0  0  3  0  0  0  0  0  0
  -27.4610  -37.0490   24.7860 C   0  0  0  0  0  1  0  0  0  0  0  0
  -26.3470  -37.2500   23.8630 N   0  0  0  0  0  0  0  0  0  0  0  0
  -25.9290  -38.1540   24.0640 H   0  0  0  0  0  0  0  0  0  0  0  0
  -26.4350  -31.5300   24.9070 C   0  0  1  0  0  0  0  0  0  0  0  0
  -25.3860  -31.2130   25.9970 C   0  0  0  0  0  1  0  0  0  0  0  0
  -27.0320  -30.1890   24.4220 C   0  0  0  0  0  1  0  0  0  0  0  0
  -27.5920  -32.3140   25.5720 C   0  0  0  0  0  1  0  0  0  0  0  0
  1  6  1  0
  2  4  2  0
  2  6  1  0
  3  5  1  0
  4  7  1  0
  6  3  2  0
  7  8  1  0
  7  5  2  0
  9 10  1  0
  9  8  1  0
 11 10  1  0
 12 17  1  0
 13 14  1  0
 13 12  1  0
 15 14  1  0
 15 22  1  0
 15 16  1  0
 17 11  1  0
 17 16  1  0
 18 11  2  0
 19 20  2  0
 20 39  1  0
 21 24  1  0
 21 20  1  0
 22 23  1  0
 22 19  1  0
 23 21  2  0
 24 25  1  0
 25 26  2  0
 27 30  1  0
 27 26  1  0
 28 27  2  0
 29 28  1  0
 29 24  2  0
 30 31  1  0
 31 32  1  0
 32 33  2  0
 34 33  1  0
 34 38  1  0
 35 34  2  0
 36 31  2  0
 36 35  1  0
 37 36  1  0
 39 40  1  0
 40 43  1  0
 40 42  1  0
 41 39  2  0
 44 19  1  0
 44 45  1  0
 46 44  1  0
 47  1  1  0
 47 48  1  0
 48 49  2  0
 50 48  1  0
 50 51  1  0
 51 53  1  0
 52 63  2  0
 53 58  1  0
 54 62  1  0
 54 64  1  0
 55 61  1  0
 55 57  1  0
 56 62  1  0
 57 56  1  0
 58 57  2  0
 59 60  1  0
 59 53  2  0
 60 55  2  0
 61 54  1  0
 62 52  1  0
 64 66  2  0
 65 64  1  0
 67 65  1  0
 68 77  2  0
 68 73  1  0
 69 65  1  0
 69 73  1  0
 70 69  1  0
 71 72  1  0
 71 70  1  0
 72 68  1  0
 73 74  2  0
 74 75  1  0
 76 75  2  0
 77 76  1  0
 78 52  1  0
 78 79  1  0
 78 88  1  0
 79 82  1  0
 80 84  1  0
 80 79  1  0
 81 80  2  0
 84 83  1  0
 86 84  1  0
 86 87  1  0
 86 85  1  0
 88 91  1  1
 88 89  1  0
 90 88  1  0
M  ISO  4  10 100  11 100  50 101  51 101
M  END
>  <TORSDO>  (64) 
F 23

>  <SCORE>  (64) 
-10.308

>  <name>  (64) 
63

>  <ligand_id>  (64) 
63

>  <original_smiles>  (64) 
[H]c1c([H])c([H])c2c(c1[H])C([H])([H])C([H])([H])C([H])([H])C2([H])N([H])C(=O)C1([H])N(C(=O)C([H])(N([H])C(=O)C([H])(N([H])C([H])([H])[H])C([H])([H])[H])C(C([H])([H])[H])(C([H])([H])[H])C([H])([H])[H])C([H])([H])c2c([H])c(OC([H])([H])C(=O)C([H])([H])C([H])([H])c3c([H])c([H])c(C([H])([H])C([H])([H])C([H])([H])C(=O)N4C([H])([H])C([H])([H])C([H])([H])C([H])(n5nc(-c6c([H])c([H])c(Oc7c([H])c([H])c(F)c([H])c7F)c([H])c6[H])c(C(=O)N([H])[H])c5N([H])[H])C4([H])[H])c([H])c3[H])c([H])c([H])c2C1([H])[H]

>  <smiles>  (64) 
[H]c1c([H])c([H])c2c(c1[H])C([H])([H])C([H])([H])C([H])([H])C2([H])N([H])C(=O)C1([H])N(C(=O)C([H])(N([H])C(=O)C([H])(N([H])C([H])([H])[H])C([H])([H])[H])C(C([H])([H])[H])(C([H])([H])[H])C([H])([H])[H])C([H])([H])c2c([H])c(OC([H])([H])C(=O)C([H])([H])C([H])([H])c3c([H])c([H])c(C([H])([H])C([H])([H])C([H])([H])C(=O)N4C([H])([H])C([H])([H])C([H])([H])C([H])(n5nc(-c6c([H])c([H])c(Oc7c([H])c([H])c(F)c([H])c7F)c([H])c6[H])c(C(=O)N([H])[H])c5N([H])[H])C4([H])[H])c([H])c3[H])c([H])c([H])c2C1([H])[H]

$$$$
64:0:0
     RDKit          3D

 96104  0  0  1  0  0  0  0  0999 V2000
  -28.2990  -23.3410   22.9930 C   0  0  0  0  0  3  0  0  0  0  0  0
  -29.0790  -22.2160   22.6770 C   0  0  0  0  0  3  0  0  0  0  0  0
  -29.5660  -23.1960   20.5070 C   0  0  0  0  0  3  0  0  0  0  0  0
  -28.1580  -24.4150   22.0880 C   0  0  0  0  0  0  0  0  0  0  0  0
  -29.7210  -22.1230   21.4270 C   0  0  0  0  0  0  0  0  0  0  0  0
  -28.8050  -24.3620   20.8160 C   0  0  0  0  0  0  0  0  0  0  0  0
  -27.3220  -25.5690   22.5450 C   0  0  0  0  0  0  0  0  0  0  0  0
  -26.0130  -25.4120   22.3990 N   0  0  0  0  0  0  0  0  0  0  0  0
  -27.8210  -26.5560   23.0820 O   0  0  0  0  0  0  0  0  0  0  0  0
  -25.6520  -24.5700   21.9790 H   0  0  0  0  0  0  0  0  0  0  0  0
  -25.3800  -26.1450   22.6820 H   0  0  0  0  0  0  0  0  0  0  0  0
  -30.6360  -20.9120   21.1460 C   0  0  0  0  0  2  0  0  0  0  0  0
  -28.5360  -19.6820   20.4960 C   0  0  0  0  0  1  0  0  0  0  0  0
  -30.0160  -19.6520   20.6060 N   0  0  2  0  0  4  0  0  0  0  0  0
  -30.3570  -19.6040   19.6570 H   0  0  0  0  0  0  0  0  0  0  0  0
  -30.5150  -18.4150   21.2940 C   0  0  0  0  0  2  0  0  0  0  0  0
  -30.2930  -17.0800   20.5180 C   0  0  0  0  0  2  0  0  0  0  0  0
  -30.7130  -15.8070   21.3170 C   0  0  0  0  0  2  0  0  0  0  0  0
  -31.2000  -14.6240   20.4430 C   0  0  0  0  0  0  0  0  0  0  0  0
  -30.8720  -12.4290   19.3420 C   0  0  0  0  0  2  0  0  0  0  0  0
  -29.9590  -12.5750   18.1080 C   0  0  0  0  0  2  0  0  0  0  0  0
  -28.4750  -12.4780   18.5100 C   0  0  0  0  0  2  0  0  0  0  0  0
  -28.1270  -13.3890   19.7190 C   0  0  0  0  0  3  0  0  0  0  0  0
  -29.1490  -13.2030   20.8600 C   0  0  0  0  0  2  0  0  0  0  0  0
  -30.4920  -13.4650   20.3200 N   0  0  0  0  0  0  0  0  0  0  0  0
  -32.2680  -14.7920   19.8460 O   0  0  0  0  0  0  0  0  0  0  0  0
  -25.7400  -14.0840   20.3850 C   0  0  0  0  0  0  0  0  0  0  0  0
  -24.6420  -13.3510   20.7490 C   0  0  0  0  0  0  0  0  0  0  0  0
  -25.0570  -11.9850   20.7390 C   0  0  0  0  0  0  0  0  0  0  0  0
  -26.7580  -13.1650   20.1780 N   0  0  0  0  0  0  0  0  0  0  0  0
  -26.3490  -11.8980   20.4480 N   0  0  0  0  0  0  0  0  0  0  0  0
  -24.2880  -10.7500   20.9340 C   0  0  0  0  0  0  0  0  0  0  0  0
  -24.6600   -9.7930   21.9040 C   0  0  0  0  0  3  0  0  0  0  0  0
  -23.8940   -8.6210   22.0870 C   0  0  0  0  0  3  0  0  0  0  0  0
  -22.7390   -8.3990   21.2980 C   0  0  0  0  0  0  0  0  0  0  0  0
  -22.3860   -9.3430   20.3170 C   0  0  0  0  0  3  0  0  0  0  0  0
  -23.1530  -10.5070   20.1350 C   0  0  0  0  0  3  0  0  0  0  0  0
  -21.9490   -7.2780   21.3870 O   0  0  0  0  0  0  0  0  0  0  0  0
  -21.8110   -6.5870   22.5630 C   0  0  0  0  0  0  0  0  0  0  0  0
  -21.3390   -7.2070   23.7410 C   0  0  0  0  0  3  0  0  0  0  0  0
  -21.1450   -6.4430   24.9090 C   0  0  0  0  0  3  0  0  0  0  0  0
  -21.4130   -5.0600   24.8990 C   0  0  0  0  0  0  0  0  0  0  0  0
  -21.8770   -4.4400   23.7260 C   0  0  0  0  0  3  0  0  0  0  0  0
  -22.0730   -5.2020   22.5610 C   0  0  0  0  0  0  0  0  0  0  0  0
  -22.5010   -4.5960   21.4270 F   0  0  0  0  0  0  0  0  0  0  0  0
  -21.2200   -4.3240   26.0190 F   0  0  0  0  0  0  0  0  0  0  0  0
  -23.2580  -13.8770   20.9980 C   0  0  0  0  0  0  0  0  0  0  0  0
  -22.5010  -13.2210   21.8700 N   0  0  0  0  0  0  0  0  0  0  0  0
  -22.8560  -14.9050   20.4540 O   0  0  0  0  0  0  0  0  0  0  0  0
  -22.8370  -12.3900   22.3330 H   0  0  0  0  0  0  0  0  0  0  0  0
  -21.5700  -13.5540   22.0780 H   0  0  0  0  0  0  0  0  0  0  0  0
  -25.9530  -15.4450   20.1930 N   0  0  0  0  0  0  0  0  0  0  0  0
  -25.2050  -16.1260   20.2760 H   0  0  0  0  0  0  0  0  0  0  0  0
  -26.8190  -15.8430   19.8520 H   0  0  0  0  0  0  0  0  0  0  0  0
  -28.7100  -25.4510   19.7170 C   0  0  0  0  0  2  0  0  0  0  0  0
  -28.6040  -26.8400   20.1080 O   0  0  0  0  0  0  0  0  0  0  0  0
  -24.6460  -31.8440   23.2350 C   0  0  0  0  0  0  0  0  0  0  0  0
  -27.4050  -27.5350   20.0410 C   0  0  0  0  0  0  0  0  0  0  0  0
  -23.4860  -30.4780   21.5310 C   0  0  0  0  0  3  0  0  0  0  0  0
  -24.9830  -29.0170   20.0720 C   0  0  0  0  0  0  0  0  0  0  0  0
  -26.0110  -30.8820   21.3820 C   0  0  0  0  0  2  0  0  0  0  0  0
  -26.1260  -29.5370   20.6890 C   0  0  0  0  0  0  0  0  0  0  0  0
  -27.3360  -28.8060   20.6670 C   0  0  0  0  0  3  0  0  0  0  0  0
  -26.2370  -27.0350   19.4180 C   0  0  0  0  0  3  0  0  0  0  0  0
  -25.0350  -27.7670   19.4340 C   0  0  0  0  0  3  0  0  0  0  0  0
  -23.7240  -29.8520   20.1330 C   0  0  0  0  0  2  0  0  0  0  0  0
  -24.7320  -31.0810   22.1080 N   0  0  0  0  0  0  0  0  0  0  0  0
  -23.5530  -32.0810   23.7670 O   0  0  0  0  0  0  0  0  0  0  0  0
  -22.8410  -29.4130   22.4470 C   0  0  0  0  0  0  0  0  0  0  0  0
  -21.5230  -29.2100   22.2910 N   0  0  0  0  0  0  0  0  0  0  0  0
  -23.5240  -28.7720   23.2500 O   0  0  0  0  0  0  0  0  0  0  0  0
  -21.0330  -29.7790   21.6160 H   0  0  0  0  0  0  0  0  0  0  0  0
  -18.1650  -27.9350   22.6890 C   0  0  0  0  0  0  0  0  0  0  0  0
  -20.7110  -28.2320   23.0170 C   0  0  0  0  0  3  0  0  0  0  0  0
  -20.8530  -26.8230   22.3980 C   0  0  0  0  0  2  0  0  0  0  0  0
  -19.7770  -26.5120   21.3540 C   0  0  0  0  0  2  0  0  0  0  0  0
  -18.3800  -26.6110   21.9750 C   0  0  0  0  0  2  0  0  0  0  0  0
  -19.2600  -28.7040   23.1640 C   0  0  0  0  0  0  0  0  0  0  0  0
  -19.0070  -29.9440   23.7880 C   0  0  0  0  0  3  0  0  0  0  0  0
  -17.6910  -30.4160   23.9460 C   0  0  0  0  0  3  0  0  0  0  0  0
  -16.6090  -29.6440   23.4880 C   0  0  0  0  0  3  0  0  0  0  0  0
  -16.8460  -28.4060   22.8650 C   0  0  0  0  0  3  0  0  0  0  0  0
  -25.9120  -32.4760   23.8920 C   0  0  0  0  0  3  0  0  0  0  0  0
  -25.5850  -33.8650   24.2400 N   0  0  0  0  0  0  0  0  0  0  0  0
  -25.9290  -34.9320   23.5080 C   0  0  0  0  0  0  0  0  0  0  0  0
  -26.6280  -34.8530   22.4930 O   0  0  0  0  0  0  0  0  0  0  0  0
  -24.9680  -34.0010   25.0270 H   0  0  0  0  0  0  0  0  0  0  0  0
  -24.1930  -36.7140   23.1390 C   0  0  0  0  0  1  0  0  0  0  0  0
  -25.4180  -36.3090   23.9750 C   0  0  0  0  0  3  0  0  0  0  0  0
  -27.5230  -37.1960   24.8710 C   0  0  0  0  0  1  0  0  0  0  0  0
  -26.4420  -37.3730   23.9060 N   0  0  0  0  0  0  0  0  0  0  0  0
  -26.0260  -38.2870   24.0600 H   0  0  0  0  0  0  0  0  0  0  0  0
  -26.4110  -31.6860   25.1630 C   0  0  1  0  0  0  0  0  0  0  0  0
  -25.2980  -31.4080   26.1990 C   0  0  0  0  0  1  0  0  0  0  0  0
  -27.0290  -30.3280   24.7560 C   0  0  0  0  0  1  0  0  0  0  0  0
  -27.5320  -32.4860   25.8710 C   0  0  0  0  0  1  0  0  0  0  0  0
  2  1  1  0
  3  6  2  0
  3  5  1  0
  4  7  1  0
  4  1  2  0
  5  2  2  0
  6  4  1  0
  7  9  2  0
  8  7  1  0
  8 11  1  0
 10  8  1  0
 12  5  1  0
 13 14  1  0
 14 12  1  0
 14 16  1  0
 14 15  1  6
 17 16  1  0
 17 18  1  0
 19 18  1  0
 20 25  1  0
 21 22  1  0
 21 20  1  0
 23 22  1  0
 23 30  1  0
 23 24  1  0
 25 19  1  0
 25 24  1  0
 26 19  2  0
 27 28  2  0
 28 47  1  0
 29 28  1  0
 29 32  1  0
 30 27  1  0
 30 31  1  0
 31 29  2  0
 32 33  1  0
 33 34  2  0
 35 38  1  0
 35 34  1  0
 36 35  2  0
 37 36  1  0
 37 32  2  0
 38 39  1  0
 39 40  1  0
 40 41  2  0
 42 41  1  0
 42 46  1  0
 43 42  2  0
 44 39  2  0
 44 43  1  0
 45 44  1  0
 47 48  1  0
 48 51  1  0
 48 50  1  0
 49 47  2  0
 52 53  1  0
 52 27  1  0
 54 52  1  0
 55 56  1  0
 55  6  1  0
 57 68  2  0
 58 56  1  0
 58 63  1  0
 59 67  1  0
 59 69  1  0
 60 66  1  0
 60 62  1  0
 61 67  1  0
 62 61  1  0
 63 62  2  0
 64 65  1  0
 64 58  2  0
 65 60  2  0
 66 59  1  0
 67 57  1  0
 69 71  2  0
 70 69  1  0
 72 70  1  0
 73 82  2  0
 73 78  1  0
 74 70  1  0
 74 78  1  0
 75 74  1  0
 76 77  1  0
 76 75  1  0
 77 73  1  0
 78 79  2  0
 79 80  1  0
 81 80  2  0
 82 81  1  0
 83 57  1  0
 83 84  1  0
 83 93  1  0
 84 87  1  0
 85 89  1  0
 85 84  1  0
 86 85  2  0
 89 88  1  0
 91 89  1  0
 91 92  1  0
 91 90  1  0
 93 96  1  1
 93 94  1  0
 95 93  1  0
M  ISO  4  18 100  19 100  55 101  56 101
M  END
>  <TORSDO>  (65) 
F 23

>  <SCORE>  (65) 
-12.043

>  <name>  (65) 
64

>  <ligand_id>  (65) 
64

>  <original_smiles>  (65) 
[H]c1c([H])c([H])c2c(c1[H])C([H])([H])C([H])([H])C([H])([H])C2([H])N([H])C(=O)C1([H])N(C(=O)C([H])(N([H])C(=O)C([H])(N([H])C([H])([H])[H])C([H])([H])[H])C(C([H])([H])[H])(C([H])([H])[H])C([H])([H])[H])C([H])([H])c2c([H])c(OC([H])([H])c3c([H])c(C([H])([H])[N+]([H])(C([H])([H])[H])C([H])([H])C([H])([H])C([H])([H])C(=O)N4C([H])([H])C([H])([H])C([H])([H])C([H])(n5nc(-c6c([H])c([H])c(Oc7c([H])c([H])c(F)c([H])c7F)c([H])c6[H])c(C(=O)N([H])[H])c5N([H])[H])C4([H])[H])c([H])c([H])c3C(=O)N([H])[H])c([H])c([H])c2C1([H])[H]

>  <smiles>  (65) 
[H]c1c([H])c([H])c2c(c1[H])C([H])([H])C([H])([H])C([H])([H])C2([H])N([H])C(=O)C1([H])N(C(=O)C([H])(N([H])C(=O)C([H])(N([H])C([H])([H])[H])C([H])([H])[H])C(C([H])([H])[H])(C([H])([H])[H])C([H])([H])[H])C([H])([H])c2c([H])c(OC([H])([H])c3c([H])c(C([H])([H])[N+]([H])(C([H])([H])[H])C([H])([H])C([H])([H])C([H])([H])C(=O)N4C([H])([H])C([H])([H])C([H])([H])C([H])(n5nc(-c6c([H])c([H])c(Oc7c([H])c([H])c(F)c([H])c7F)c([H])c6[H])c(C(=O)N([H])[H])c5N([H])[H])C4([H])[H])c([H])c([H])c3C(=O)N([H])[H])c([H])c([H])c2C1([H])[H]

$$$$
65:0:0
     RDKit          3D

 99107  0  0  1  0  0  0  0  0999 V2000
  -33.2690  -20.6180   20.4230 C   0  0  0  0  0  3  0  0  0  0  0  0
  -32.8730  -21.4040   19.3310 C   0  0  0  0  0  3  0  0  0  0  0  0
  -32.4210  -19.6050   20.9000 C   0  0  0  0  0  3  0  0  0  0  0  0
  -30.7520  -20.2020   19.2350 C   0  0  0  0  0  3  0  0  0  0  0  0
  -31.6120  -21.2050   18.7300 C   0  0  0  0  0  0  0  0  0  0  0  0
  -31.1580  -19.3620   20.3040 C   0  0  0  0  0  0  0  0  0  0  0  0
  -30.6010  -21.2820   16.3770 C   0  0  0  0  0  1  0  0  0  0  0  0
  -31.2200  -22.0840   17.5360 C   0  0  0  0  0  3  0  0  0  0  0  0
  -30.3540  -23.2150   17.9390 N   0  0  0  0  0  4  0  0  0  0  0  0
  -30.2930  -23.8410   17.1500 H   0  0  0  0  0  0  0  0  0  0  0  0
  -29.4320  -22.8610   18.1280 H   0  0  0  0  0  0  0  0  0  0  0  0
  -30.8340  -23.9760   19.1180 C   0  0  0  0  0  2  0  0  0  0  0  0
  -30.2280  -25.3800   19.2540 C   0  0  0  0  0  2  0  0  0  0  0  0
  -28.7210  -25.4360   19.5520 C   0  0  0  0  0  2  0  0  0  0  0  0
  -28.5190  -26.7110   20.1410 O   0  0  0  0  0  0  0  0  0  0  0  0
  -24.5690  -31.7050   23.2020 C   0  0  0  0  0  0  0  0  0  0  0  0
  -27.2880  -27.3190   20.1310 C   0  0  0  0  0  0  0  0  0  0  0  0
  -23.3880  -30.2980   21.5420 C   0  0  0  0  0  3  0  0  0  0  0  0
  -24.8660  -28.7700   20.1360 C   0  0  0  0  0  0  0  0  0  0  0  0
  -25.9080  -30.6830   21.3680 C   0  0  0  0  0  2  0  0  0  0  0  0
  -26.0080  -29.3140   20.7330 C   0  0  0  0  0  0  0  0  0  0  0  0
  -27.2160  -28.5930   20.7320 C   0  0  0  0  0  3  0  0  0  0  0  0
  -26.1240  -26.7660   19.5490 C   0  0  0  0  0  3  0  0  0  0  0  0
  -24.9160  -27.4920   19.5460 C   0  0  0  0  0  3  0  0  0  0  0  0
  -23.6150  -29.6180   20.1650 C   0  0  0  0  0  2  0  0  0  0  0  0
  -24.6390  -30.9100   22.0960 N   0  0  0  0  0  0  0  0  0  0  0  0
  -23.4820  -31.9680   23.7320 O   0  0  0  0  0  0  0  0  0  0  0  0
  -22.7350  -29.2710   22.4950 C   0  0  0  0  0  0  0  0  0  0  0  0
  -21.4120  -29.0940   22.3630 N   0  0  0  0  0  0  0  0  0  0  0  0
  -23.4160  -28.6380   23.3050 O   0  0  0  0  0  0  0  0  0  0  0  0
  -20.9240  -29.6570   21.6790 H   0  0  0  0  0  0  0  0  0  0  0  0
  -18.0240  -27.9510   22.8810 C   0  0  0  0  0  0  0  0  0  0  0  0
  -20.5900  -28.1530   23.1220 C   0  0  0  0  0  3  0  0  0  0  0  0
  -20.6570  -26.7350   22.5100 C   0  0  0  0  0  2  0  0  0  0  0  0
  -19.5360  -26.4570   21.5050 C   0  0  0  0  0  2  0  0  0  0  0  0
  -18.1660  -26.6140   22.1710 C   0  0  0  0  0  2  0  0  0  0  0  0
  -19.1630  -28.6800   23.3130 C   0  0  0  0  0  0  0  0  0  0  0  0
  -18.9770  -29.9340   23.9350 C   0  0  0  0  0  3  0  0  0  0  0  0
  -17.6860  -30.4580   24.1270 C   0  0  0  0  0  3  0  0  0  0  0  0
  -16.5610  -29.7240   23.7120 C   0  0  0  0  0  3  0  0  0  0  0  0
  -16.7310  -28.4720   23.0960 C   0  0  0  0  0  3  0  0  0  0  0  0
  -25.8460  -32.3410   23.8360 C   0  0  0  0  0  3  0  0  0  0  0  0
  -25.5390  -33.7440   24.1360 N   0  0  0  0  0  0  0  0  0  0  0  0
  -25.8880  -34.7800   23.3620 C   0  0  0  0  0  0  0  0  0  0  0  0
  -26.5760  -34.6560   22.3450 O   0  0  0  0  0  0  0  0  0  0  0  0
  -24.9300  -33.9160   24.9230 H   0  0  0  0  0  0  0  0  0  0  0  0
  -24.1720  -36.5690   22.9410 C   0  0  0  0  0  1  0  0  0  0  0  0
  -25.3970  -36.1780   23.7840 C   0  0  0  0  0  3  0  0  0  0  0  0
  -27.5130  -37.0800   24.6420 C   0  0  0  0  0  1  0  0  0  0  0  0
  -26.4340  -37.2260   23.6690 N   0  0  0  0  0  0  0  0  0  0  0  0
  -26.0270  -38.1500   23.7830 H   0  0  0  0  0  0  0  0  0  0  0  0
  -26.3380  -31.5860   25.1330 C   0  0  1  0  0  0  0  0  0  0  0  0
  -25.2250  -31.3650   26.1840 C   0  0  0  0  0  1  0  0  0  0  0  0
  -26.9250  -30.2040   24.7670 C   0  0  0  0  0  1  0  0  0  0  0  0
  -27.4770  -32.3880   25.8060 C   0  0  0  0  0  1  0  0  0  0  0  0
  -28.8220  -18.2700   20.4720 C   0  0  0  0  0  1  0  0  0  0  0  0
  -30.3410  -18.1220   20.7480 C   0  0  2  0  0  0  0  0  0  0  0  0
  -30.7320  -19.1380   23.1330 C   0  0  0  0  0  1  0  0  0  0  0  0
  -30.4980  -17.8740   22.2790 C   0  0  0  0  0  2  0  0  0  0  0  0
  -30.8010  -17.0940   18.3970 C   0  0  0  0  0  1  0  0  0  0  0  0
  -30.9070  -16.9080   19.9370 C   0  0  0  0  0  3  0  0  0  0  0  0
  -31.0570  -14.4560   20.1030 C   0  0  0  0  0  0  0  0  0  0  0  0
  -30.5890  -12.3930   18.8860 C   0  0  0  0  0  2  0  0  0  0  0  0
  -29.5960  -12.7310   17.7560 C   0  0  0  0  0  2  0  0  0  0  0  0
  -28.1470  -12.5980   18.2650 C   0  0  0  0  0  2  0  0  0  0  0  0
  -27.9050  -13.3490   19.6030 C   0  0  0  0  0  3  0  0  0  0  0  0
  -29.0240  -13.0620   20.6300 C   0  0  0  0  0  2  0  0  0  0  0  0
  -30.3160  -13.3300   19.9830 N   0  0  0  0  0  0  0  0  0  0  0  0
  -32.2310  -14.5210   19.7350 O   0  0  0  0  0  0  0  0  0  0  0  0
  -30.3670  -15.5900   20.3220 N   0  0  0  0  0  0  0  0  0  0  0  0
  -29.3950  -15.5220   20.5770 H   0  0  0  0  0  0  0  0  0  0  0  0
  -25.5680  -13.9310   20.5080 C   0  0  0  0  0  0  0  0  0  0  0  0
  -24.5130  -13.1490   20.8910 C   0  0  0  0  0  0  0  0  0  0  0  0
  -24.9490  -11.7960   20.7410 C   0  0  0  0  0  0  0  0  0  0  0  0
  -26.5820  -13.0550   20.1500 N   0  0  0  0  0  0  0  0  0  0  0  0
  -26.2180  -11.7620   20.3500 N   0  0  0  0  0  0  0  0  0  0  0  0
  -24.2150  -10.5320   20.8890 C   0  0  0  0  0  0  0  0  0  0  0  0
  -24.6280   -9.5420   21.8080 C   0  0  0  0  0  3  0  0  0  0  0  0
  -23.8970   -8.3430   21.9450 C   0  0  0  0  0  3  0  0  0  0  0  0
  -22.7380   -8.1250   21.1650 C   0  0  0  0  0  0  0  0  0  0  0  0
  -22.3430   -9.1040   20.2350 C   0  0  0  0  0  3  0  0  0  0  0  0
  -23.0750  -10.2950   20.0950 C   0  0  0  0  0  3  0  0  0  0  0  0
  -21.9790   -6.9810   21.2150 O   0  0  0  0  0  0  0  0  0  0  0  0
  -21.8310   -6.2650   22.3740 C   0  0  0  0  0  0  0  0  0  0  0  0
  -21.2640   -6.8330   23.5370 C   0  0  0  0  0  3  0  0  0  0  0  0
  -21.0680   -6.0400   24.6850 C   0  0  0  0  0  3  0  0  0  0  0  0
  -21.4270   -4.6790   24.6720 C   0  0  0  0  0  0  0  0  0  0  0  0
  -21.9870   -4.1090   23.5140 C   0  0  0  0  0  3  0  0  0  0  0  0
  -22.1860   -4.9000   22.3680 C   0  0  0  0  0  0  0  0  0  0  0  0
  -22.7050   -4.3410   21.2480 F   0  0  0  0  0  0  0  0  0  0  0  0
  -21.2320   -3.9150   25.7720 F   0  0  0  0  0  0  0  0  0  0  0  0
  -23.1430  -13.6230   21.2790 C   0  0  0  0  0  0  0  0  0  0  0  0
  -22.4560  -12.8820   22.1420 N   0  0  0  0  0  0  0  0  0  0  0  0
  -22.6890  -14.6850   20.8520 O   0  0  0  0  0  0  0  0  0  0  0  0
  -22.8330  -12.0230   22.5110 H   0  0  0  0  0  0  0  0  0  0  0  0
  -21.5370  -13.1810   22.4380 H   0  0  0  0  0  0  0  0  0  0  0  0
  -25.7470  -15.3060   20.4090 N   0  0  0  0  0  0  0  0  0  0  0  0
  -25.0030  -15.9630   20.6240 H   0  0  0  0  0  0  0  0  0  0  0  0
  -26.5600  -15.7490   20.0000 H   0  0  0  0  0  0  0  0  0  0  0  0
  1  3  1  0
  2  1  2  0
  4  6  1  0
  5  4  2  0
  5  2  1  0
  6 57  1  0
  6  3  2  0
  8  7  1  0
  8  9  1  0
  8  5  1  0
  9 11  1  0
  9 12  1  0
 10  9  1  0
 12 13  1  0
 13 14  1  0
 14 15  1  0
 16 27  2  0
 17 15  1  0
 17 22  1  0
 18 26  1  0
 18 28  1  0
 19 25  1  0
 19 21  1  0
 20 26  1  0
 21 20  1  0
 22 21  2  0
 23 17  2  0
 24 23  1  0
 24 19  2  0
 25 18  1  0
 26 16  1  0
 28 30  2  0
 29 28  1  0
 31 29  1  0
 32 41  2  0
 32 37  1  0
 33 29  1  0
 33 37  1  0
 34 33  1  0
 35 36  1  0
 35 34  1  0
 36 32  1  0
 37 38  2  0
 38 39  1  0
 40 39  2  0
 41 40  1  0
 42 16  1  0
 42 43  1  0
 42 52  1  0
 43 46  1  0
 44 48  1  0
 44 43  1  0
 45 44  2  0
 48 47  1  0
 50 51  1  0
 50 48  1  0
 50 49  1  0
 52 55  1  1
 52 53  1  0
 54 52  1  0
 57 56  1  1
 57 59  1  0
 59 58  1  0
 61 60  1  0
 61 70  1  0
 61 57  1  0
 62 70  1  0
 63 68  1  0
 64 65  1  0
 64 63  1  0
 66 65  1  0
 66 75  1  0
 66 67  1  0
 68 62  1  0
 68 67  1  0
 69 62  2  0
 70 71  1  0
 72 73  2  0
 73 92  1  0
 74 77  1  0
 74 73  1  0
 75 76  1  0
 75 72  1  0
 76 74  2  0
 77 78  1  0
 78 79  2  0
 80 83  1  0
 80 79  1  0
 81 80  2  0
 82 81  1  0
 82 77  2  0
 83 84  1  0
 84 85  1  0
 85 86  2  0
 87 86  1  0
 87 91  1  0
 88 87  2  0
 89 84  2  0
 89 88  1  0
 90 89  1  0
 92 93  1  0
 93 96  1  0
 93 95  1  0
 94 92  2  0
 97 72  1  0
 97 98  1  0
 99 97  1  0
M  ISO  4  14 101  15 101  62 100  70 100
M  END
>  <TORSDO>  (66) 
F 24

>  <SCORE>  (66) 
-11.679

>  <name>  (66) 
65

>  <ligand_id>  (66) 
65

>  <original_smiles>  (66) 
[H]c1c([H])c([H])c2c(c1[H])C([H])([H])C([H])([H])C([H])([H])C2([H])N([H])C(=O)C1([H])N(C(=O)C([H])(N([H])C(=O)C([H])(N([H])C([H])([H])[H])C([H])([H])[H])C(C([H])([H])[H])(C([H])([H])[H])C([H])([H])[H])C([H])([H])c2c([H])c(OC([H])([H])C([H])([H])C([H])([H])[N+]([H])([H])C([H])(c3c([H])c([H])c([H])c(C(C([H])([H])[H])(C([H])([H])C([H])([H])[H])C([H])(N([H])C(=O)N4C([H])([H])C([H])([H])C([H])([H])C([H])(n5nc(-c6c([H])c([H])c(Oc7c([H])c([H])c(F)c([H])c7F)c([H])c6[H])c(C(=O)N([H])[H])c5N([H])[H])C4([H])[H])C([H])([H])[H])c3[H])C([H])([H])[H])c([H])c([H])c2C1([H])[H]

>  <smiles>  (66) 
[H]c1c([H])c([H])c2c(c1[H])C([H])([H])C([H])([H])C([H])([H])C2([H])N([H])C(=O)C1([H])N(C(=O)C([H])(N([H])C(=O)C([H])(N([H])C([H])([H])[H])C([H])([H])[H])C(C([H])([H])[H])(C([H])([H])[H])C([H])([H])[H])C([H])([H])c2c([H])c(OC([H])([H])C([H])([H])C([H])([H])[N+]([H])([H])C([H])(c3c([H])c([H])c([H])c(C(C([H])([H])[H])(C([H])([H])C([H])([H])[H])C([H])(N([H])C(=O)N4C([H])([H])C([H])([H])C([H])([H])C([H])(n5nc(-c6c([H])c([H])c(Oc7c([H])c([H])c(F)c([H])c7F)c([H])c6[H])c(C(=O)N([H])[H])c5N([H])[H])C4([H])[H])C([H])([H])[H])c3[H])C([H])([H])[H])c([H])c([H])c2C1([H])[H]

$$$$
66:0:0
     RDKit          3D

 89 96  0  0  1  0  0  0  0  0999 V2000
  -29.6630  -22.2960   20.7280 C   0  0  0  0  0  2  0  0  0  0  0  0
  -30.0700  -19.7980   20.6980 C   0  0  0  0  0  0  0  0  0  0  0  0
  -29.2620  -20.8740   20.8580 N   0  0  0  0  0  0  0  0  0  0  0  0
  -31.2250  -19.9170   20.2840 O   0  0  0  0  0  0  0  0  0  0  0  0
  -28.3270  -20.6950   21.2020 H   0  0  0  0  0  0  0  0  0  0  0  0
  -29.5420  -18.3910   21.0990 C   0  0  0  0  0  2  0  0  0  0  0  0
  -29.7360  -17.0890   18.9030 C   0  0  0  0  0  1  0  0  0  0  0  0
  -30.1930  -17.1500   20.3780 C   0  0  0  0  0  3  0  0  0  0  0  0
  -29.9340  -15.7830   21.1190 C   0  0  0  0  0  2  0  0  0  0  0  0
  -30.6590  -14.5300   20.5310 C   0  0  0  0  0  0  0  0  0  0  0  0
  -30.3910  -12.3610   19.3700 C   0  0  0  0  0  2  0  0  0  0  0  0
  -29.4620  -12.5750   18.1570 C   0  0  0  0  0  2  0  0  0  0  0  0
  -27.9810  -12.4400   18.5680 C   0  0  0  0  0  2  0  0  0  0  0  0
  -27.6350  -13.2670   19.8350 C   0  0  0  0  0  3  0  0  0  0  0  0
  -28.6800  -13.0280   20.9500 C   0  0  0  0  0  2  0  0  0  0  0  0
  -30.0060  -13.3390   20.4000 N   0  0  0  0  0  0  0  0  0  0  0  0
  -31.8000  -14.6840   20.0850 O   0  0  0  0  0  0  0  0  0  0  0  0
  -25.2300  -13.8860   20.5050 C   0  0  0  0  0  0  0  0  0  0  0  0
  -24.1550  -13.1190   20.8670 C   0  0  0  0  0  0  0  0  0  0  0  0
  -24.6130  -11.7660   20.8550 C   0  0  0  0  0  0  0  0  0  0  0  0
  -26.2760  -13.0000   20.2990 N   0  0  0  0  0  0  0  0  0  0  0  0
  -25.9080  -11.7200   20.5650 N   0  0  0  0  0  0  0  0  0  0  0  0
  -23.8800  -10.5080   21.0470 C   0  0  0  0  0  0  0  0  0  0  0  0
  -24.3060   -9.5420   21.9860 C   0  0  0  0  0  3  0  0  0  0  0  0
  -23.5750   -8.3480   22.1650 C   0  0  0  0  0  3  0  0  0  0  0  0
  -22.4040   -8.1110   21.4070 C   0  0  0  0  0  0  0  0  0  0  0  0
  -21.9970   -9.0660   20.4580 C   0  0  0  0  0  3  0  0  0  0  0  0
  -22.7290  -10.2510   20.2760 C   0  0  0  0  0  3  0  0  0  0  0  0
  -21.6460   -6.9690   21.4950 O   0  0  0  0  0  0  0  0  0  0  0  0
  -21.5980   -6.2240   22.6460 C   0  0  0  0  0  0  0  0  0  0  0  0
  -21.1810   -6.7790   23.8760 C   0  0  0  0  0  3  0  0  0  0  0  0
  -21.0810   -5.9600   25.0190 C   0  0  0  0  0  3  0  0  0  0  0  0
  -21.3870   -4.5890   24.9330 C   0  0  0  0  0  0  0  0  0  0  0  0
  -21.7960   -4.0330   23.7080 C   0  0  0  0  0  3  0  0  0  0  0  0
  -21.8990   -4.8490   22.5670 C   0  0  0  0  0  0  0  0  0  0  0  0
  -22.2740   -4.3060   21.3840 F   0  0  0  0  0  0  0  0  0  0  0  0
  -21.2830   -3.8010   26.0280 F   0  0  0  0  0  0  0  0  0  0  0  0
  -22.7550  -13.6020   21.1160 C   0  0  0  0  0  0  0  0  0  0  0  0
  -22.0140  -12.9140   21.9780 N   0  0  0  0  0  0  0  0  0  0  0  0
  -22.3260  -14.6240   20.5820 O   0  0  0  0  0  0  0  0  0  0  0  0
  -22.3730  -12.0880   22.4320 H   0  0  0  0  0  0  0  0  0  0  0  0
  -21.0740  -13.2190   22.1880 H   0  0  0  0  0  0  0  0  0  0  0  0
  -25.4010  -15.2540   20.3180 N   0  0  0  0  0  0  0  0  0  0  0  0
  -24.6360  -15.9140   20.4120 H   0  0  0  0  0  0  0  0  0  0  0  0
  -26.2610  -15.6880   20.0090 H   0  0  0  0  0  0  0  0  0  0  0  0
  -28.6250  -23.2120   20.0040 C   0  0  0  0  0  2  0  0  0  0  0  0
  -27.8660  -24.2490   20.8850 C   0  0  0  0  0  2  0  0  0  0  0  0
  -28.5300  -25.6410   21.1330 C   0  0  0  0  0  2  0  0  0  0  0  0
  -28.3740  -26.6460   20.1080 O   0  0  0  0  0  0  0  0  0  0  0  0
  -24.5850  -31.8700   23.2370 C   0  0  0  0  0  0  0  0  0  0  0  0
  -27.2210  -27.4060   20.1610 C   0  0  0  0  0  0  0  0  0  0  0  0
  -23.3790  -30.4700   21.5940 C   0  0  0  0  0  3  0  0  0  0  0  0
  -24.8330  -28.9300   20.1700 C   0  0  0  0  0  0  0  0  0  0  0  0
  -25.9070  -30.8210   21.4000 C   0  0  0  0  0  2  0  0  0  0  0  0
  -25.9920  -29.4470   20.7630 C   0  0  0  0  0  0  0  0  0  0  0  0
  -27.1920  -28.6910   20.7580 C   0  0  0  0  0  3  0  0  0  0  0  0
  -26.0500  -26.9150   19.5520 C   0  0  0  0  0  3  0  0  0  0  0  0
  -24.8580  -27.6620   19.5610 C   0  0  0  0  0  3  0  0  0  0  0  0
  -23.5900  -29.7920   20.2150 C   0  0  0  0  0  2  0  0  0  0  0  0
  -24.6410  -31.0700   22.1340 N   0  0  0  0  0  0  0  0  0  0  0  0
  -23.5030  -32.1420   23.7780 O   0  0  0  0  0  0  0  0  0  0  0  0
  -22.7260  -29.4480   22.5540 C   0  0  0  0  0  0  0  0  0  0  0  0
  -21.4020  -29.2670   22.4260 N   0  0  0  0  0  0  0  0  0  0  0  0
  -23.4090  -28.8230   23.3690 O   0  0  0  0  0  0  0  0  0  0  0  0
  -20.9110  -29.8240   21.7400 H   0  0  0  0  0  0  0  0  0  0  0  0
  -18.0270  -28.0730   22.9240 C   0  0  0  0  0  0  0  0  0  0  0  0
  -20.5850  -28.3280   23.1960 C   0  0  0  0  0  3  0  0  0  0  0  0
  -20.6860  -26.8980   22.6160 C   0  0  0  0  0  2  0  0  0  0  0  0
  -19.5840  -26.5790   21.6010 C   0  0  0  0  0  2  0  0  0  0  0  0
  -18.2010  -26.7250   22.2460 C   0  0  0  0  0  2  0  0  0  0  0  0
  -19.1470  -28.8320   23.3560 C   0  0  0  0  0  0  0  0  0  0  0  0
  -18.9290  -30.0960   23.9490 C   0  0  0  0  0  3  0  0  0  0  0  0
  -17.6250  -30.5990   24.1150 C   0  0  0  0  0  3  0  0  0  0  0  0
  -16.5200  -29.8350   23.7000 C   0  0  0  0  0  3  0  0  0  0  0  0
  -16.7220  -28.5740   23.1110 C   0  0  0  0  0  3  0  0  0  0  0  0
  -25.8700  -32.5010   23.8580 C   0  0  0  0  0  3  0  0  0  0  0  0
  -25.5650  -33.9000   24.1830 N   0  0  0  0  0  0  0  0  0  0  0  0
  -25.9050  -34.9490   23.4230 C   0  0  0  0  0  0  0  0  0  0  0  0
  -26.5800  -34.8420   22.3950 O   0  0  0  0  0  0  0  0  0  0  0  0
  -24.9680  -34.0590   24.9810 H   0  0  0  0  0  0  0  0  0  0  0  0
  -24.1880  -36.7480   23.0490 C   0  0  0  0  0  1  0  0  0  0  0  0
  -25.4190  -36.3410   23.8730 C   0  0  0  0  0  3  0  0  0  0  0  0
  -27.5500  -37.2170   24.7210 C   0  0  0  0  0  1  0  0  0  0  0  0
  -26.4580  -37.3890   23.7680 N   0  0  0  0  0  0  0  0  0  0  0  0
  -26.0540  -38.3110   23.9110 H   0  0  0  0  0  0  0  0  0  0  0  0
  -26.3880  -31.7310   25.1340 C   0  0  1  0  0  0  0  0  0  0  0  0
  -25.2940  -31.4970   26.2030 C   0  0  0  0  0  1  0  0  0  0  0  0
  -26.9670  -30.3520   24.7420 C   0  0  0  0  0  1  0  0  0  0  0  0
  -27.5400  -32.5240   25.7950 C   0  0  0  0  0  1  0  0  0  0  0  0
  1  3  1  0
  2  3  1  0
  2  6  1  0
  3  5  1  0
  4  2  2  0
  8  7  1  0
  8  6  1  0
  8  9  1  0
 10  9  1  0
 11 16  1  0
 12 13  1  0
 12 11  1  0
 14 13  1  0
 14 21  1  0
 14 15  1  0
 16 10  1  0
 16 15  1  0
 17 10  2  0
 18 19  2  0
 19 38  1  0
 20 19  1  0
 20 23  1  0
 21 18  1  0
 21 22  1  0
 22 20  2  0
 23 24  1  0
 24 25  2  0
 26 29  1  0
 26 25  1  0
 27 26  2  0
 28 27  1  0
 28 23  2  0
 29 30  1  0
 30 31  1  0
 31 32  2  0
 33 32  1  0
 33 37  1  0
 34 33  2  0
 35 30  2  0
 35 34  1  0
 36 35  1  0
 38 39  1  0
 39 42  1  0
 39 41  1  0
 40 38  2  0
 43 44  1  0
 43 18  1  0
 45 43  1  0
 46  1  1  0
 46 47  1  0
 47 48  1  0
 49 51  1  0
 49 48  1  0
 50 61  2  0
 51 56  1  0
 52 60  1  0
 52 62  1  0
 53 59  1  0
 53 55  1  0
 54 60  1  0
 55 54  1  0
 56 55  2  0
 57 58  1  0
 57 51  2  0
 58 53  2  0
 59 52  1  0
 60 50  1  0
 62 64  2  0
 63 62  1  0
 65 63  1  0
 66 75  2  0
 66 71  1  0
 67 63  1  0
 67 71  1  0
 68 67  1  0
 69 70  1  0
 69 68  1  0
 70 66  1  0
 71 72  2  0
 72 73  1  0
 74 73  2  0
 75 74  1  0
 76 50  1  0
 76 77  1  0
 76 86  1  0
 77 80  1  0
 78 82  1  0
 78 77  1  0
 79 78  2  0
 82 81  1  0
 84 82  1  0
 84 85  1  0
 84 83  1  0
 86 89  1  1
 86 87  1  0
 88 86  1  0
M  ISO  4   9 100  10 100  48 101  49 101
M  END
>  <TORSDO>  (67) 
F 23

>  <SCORE>  (67) 
-12.641

>  <name>  (67) 
66

>  <ligand_id>  (67) 
66

>  <original_smiles>  (67) 
[H]c1c([H])c([H])c2c(c1[H])C([H])([H])C([H])([H])C([H])([H])C2([H])N([H])C(=O)C1([H])N(C(=O)C([H])(N([H])C(=O)C([H])(N([H])C([H])([H])[H])C([H])([H])[H])C(C([H])([H])[H])(C([H])([H])[H])C([H])([H])[H])C([H])([H])c2c([H])c(OC([H])([H])C([H])([H])C([H])([H])C([H])([H])N([H])C(=O)C([H])([H])C([H])(C([H])([H])[H])C([H])([H])C(=O)N3C([H])([H])C([H])([H])C([H])([H])C([H])(n4nc(-c5c([H])c([H])c(Oc6c([H])c([H])c(F)c([H])c6F)c([H])c5[H])c(C(=O)N([H])[H])c4N([H])[H])C3([H])[H])c([H])c([H])c2C1([H])[H]

>  <smiles>  (67) 
[H]c1c([H])c([H])c2c(c1[H])C([H])([H])C([H])([H])C([H])([H])C2([H])N([H])C(=O)C1([H])N(C(=O)C([H])(N([H])C(=O)C([H])(N([H])C([H])([H])[H])C([H])([H])[H])C(C([H])([H])[H])(C([H])([H])[H])C([H])([H])[H])C([H])([H])c2c([H])c(OC([H])([H])C([H])([H])C([H])([H])C([H])([H])N([H])C(=O)C([H])([H])C([H])(C([H])([H])[H])C([H])([H])C(=O)N3C([H])([H])C([H])([H])C([H])([H])C([H])(n4nc(-c5c([H])c([H])c(Oc6c([H])c([H])c(F)c([H])c6F)c([H])c5[H])c(C(=O)N([H])[H])c4N([H])[H])C3([H])[H])c([H])c([H])c2C1([H])[H]

$$$$
67:0:0
     RDKit          3D

 89 96  0  0  1  0  0  0  0  0999 V2000
  -29.2090  -22.8950   19.9270 C   0  0  0  0  0  0  0  0  0  0  0  0
  -28.4160  -22.5410   19.0480 O   0  0  0  0  0  0  0  0  0  0  0  0
  -30.0000  -21.8520   20.7340 C   0  0  0  0  0  2  0  0  0  0  0  0
  -29.7830  -20.3860   20.2570 C   0  0  0  0  0  2  0  0  0  0  0  0
  -30.5210  -19.3360   21.1050 C   0  0  0  0  0  0  0  0  0  0  0  0
  -30.2790  -18.0380   20.8470 N   0  0  0  0  0  0  0  0  0  0  0  0
  -31.3070  -19.6920   21.9840 O   0  0  0  0  0  0  0  0  0  0  0  0
  -29.6250  -17.8220   20.1040 H   0  0  0  0  0  0  0  0  0  0  0  0
  -30.9180  -16.9130   21.5540 C   0  0  0  0  0  2  0  0  0  0  0  0
  -30.1390  -15.5630   21.4750 C   0  0  0  0  0  2  0  0  0  0  0  0
  -30.7320  -14.4550   20.5690 C   0  0  0  0  0  0  0  0  0  0  0  0
  -30.4010  -12.3430   19.3170 C   0  0  0  0  0  2  0  0  0  0  0  0
  -29.4720  -12.5800   18.1110 C   0  0  0  0  0  2  0  0  0  0  0  0
  -27.9920  -12.4560   18.5250 C   0  0  0  0  0  2  0  0  0  0  0  0
  -27.6590  -13.2730   19.8020 C   0  0  0  0  0  3  0  0  0  0  0  0
  -28.7000  -13.0120   20.9140 C   0  0  0  0  0  2  0  0  0  0  0  0
  -30.0340  -13.3040   20.3680 N   0  0  0  0  0  0  0  0  0  0  0  0
  -31.8150  -14.6570   20.0110 O   0  0  0  0  0  0  0  0  0  0  0  0
  -25.2510  -13.9040   20.4580 C   0  0  0  0  0  0  0  0  0  0  0  0
  -24.1710  -13.1430   20.8190 C   0  0  0  0  0  0  0  0  0  0  0  0
  -24.6250  -11.7890   20.8160 C   0  0  0  0  0  0  0  0  0  0  0  0
  -26.2950  -13.0140   20.2600 N   0  0  0  0  0  0  0  0  0  0  0  0
  -25.9210  -11.7370   20.5310 N   0  0  0  0  0  0  0  0  0  0  0  0
  -23.8880  -10.5330   21.0130 C   0  0  0  0  0  0  0  0  0  0  0  0
  -24.3100   -9.5710   21.9560 C   0  0  0  0  0  3  0  0  0  0  0  0
  -23.5770   -8.3790   22.1410 C   0  0  0  0  0  3  0  0  0  0  0  0
  -22.4080   -8.1410   21.3800 C   0  0  0  0  0  0  0  0  0  0  0  0
  -22.0030   -9.0930   20.4280 C   0  0  0  0  0  3  0  0  0  0  0  0
  -22.7370  -10.2770   20.2420 C   0  0  0  0  0  3  0  0  0  0  0  0
  -21.6450   -7.0020   21.4730 O   0  0  0  0  0  0  0  0  0  0  0  0
  -21.5930   -6.2620   22.6270 C   0  0  0  0  0  0  0  0  0  0  0  0
  -21.1830   -6.8250   23.8550 C   0  0  0  0  0  3  0  0  0  0  0  0
  -21.0770   -6.0130   25.0020 C   0  0  0  0  0  3  0  0  0  0  0  0
  -21.3700   -4.6390   24.9220 C   0  0  0  0  0  0  0  0  0  0  0  0
  -21.7720   -4.0750   23.6990 C   0  0  0  0  0  3  0  0  0  0  0  0
  -21.8800   -4.8840   22.5540 C   0  0  0  0  0  0  0  0  0  0  0  0
  -22.2480   -4.3300   21.3730 F   0  0  0  0  0  0  0  0  0  0  0  0
  -21.2600   -3.8570   26.0220 F   0  0  0  0  0  0  0  0  0  0  0  0
  -22.7720  -13.6320   21.0620 C   0  0  0  0  0  0  0  0  0  0  0  0
  -22.0290  -12.9510   21.9270 N   0  0  0  0  0  0  0  0  0  0  0  0
  -22.3470  -14.6510   20.5200 O   0  0  0  0  0  0  0  0  0  0  0  0
  -22.3860  -12.1300   22.3920 H   0  0  0  0  0  0  0  0  0  0  0  0
  -21.0870  -13.2580   22.1300 H   0  0  0  0  0  0  0  0  0  0  0  0
  -25.4270  -15.2700   20.2640 N   0  0  0  0  0  0  0  0  0  0  0  0
  -24.6640  -15.9350   20.3480 H   0  0  0  0  0  0  0  0  0  0  0  0
  -26.2920  -15.6990   19.9570 H   0  0  0  0  0  0  0  0  0  0  0  0
  -29.4350  -24.3900   20.2370 C   0  0  0  0  0  2  0  0  0  0  0  0
  -28.2170  -25.2640   19.8590 C   0  0  0  0  0  2  0  0  0  0  0  0
  -28.3530  -26.6680   20.1530 O   0  0  0  0  0  0  0  0  0  0  0  0
  -24.5540  -31.8750   23.2190 C   0  0  0  0  0  0  0  0  0  0  0  0
  -27.1870  -27.4200   20.1240 C   0  0  0  0  0  0  0  0  0  0  0  0
  -23.3470  -30.4790   21.5760 C   0  0  0  0  0  3  0  0  0  0  0  0
  -24.7970  -28.9500   20.1440 C   0  0  0  0  0  0  0  0  0  0  0  0
  -25.8770  -30.8290   21.3820 C   0  0  0  0  0  2  0  0  0  0  0  0
  -25.9600  -29.4620   20.7350 C   0  0  0  0  0  0  0  0  0  0  0  0
  -27.1570  -28.7040   20.7230 C   0  0  0  0  0  3  0  0  0  0  0  0
  -25.9990  -26.9370   19.5190 C   0  0  0  0  0  3  0  0  0  0  0  0
  -24.8130  -27.6880   19.5340 C   0  0  0  0  0  3  0  0  0  0  0  0
  -23.5570  -29.8110   20.1920 C   0  0  0  0  0  2  0  0  0  0  0  0
  -24.6110  -31.0750   22.1170 N   0  0  0  0  0  0  0  0  0  0  0  0
  -23.4720  -32.1470   23.7580 O   0  0  0  0  0  0  0  0  0  0  0  0
  -22.6940  -29.4520   22.5300 C   0  0  0  0  0  0  0  0  0  0  0  0
  -21.3700  -29.2740   22.4030 N   0  0  0  0  0  0  0  0  0  0  0  0
  -23.3760  -28.8210   23.3420 O   0  0  0  0  0  0  0  0  0  0  0  0
  -20.8810  -29.8330   21.7180 H   0  0  0  0  0  0  0  0  0  0  0  0
  -17.9910  -28.0920   22.9000 C   0  0  0  0  0  0  0  0  0  0  0  0
  -20.5510  -28.3370   23.1700 C   0  0  0  0  0  3  0  0  0  0  0  0
  -20.6460  -26.9080   22.5880 C   0  0  0  0  0  2  0  0  0  0  0  0
  -19.5410  -26.5950   21.5740 C   0  0  0  0  0  2  0  0  0  0  0  0
  -18.1610  -26.7450   22.2200 C   0  0  0  0  0  2  0  0  0  0  0  0
  -19.1140  -28.8470   23.3330 C   0  0  0  0  0  0  0  0  0  0  0  0
  -18.9030  -30.1100   23.9270 C   0  0  0  0  0  3  0  0  0  0  0  0
  -17.6000  -30.6180   24.0960 C   0  0  0  0  0  3  0  0  0  0  0  0
  -16.4920  -29.8590   23.6810 C   0  0  0  0  0  3  0  0  0  0  0  0
  -16.6880  -28.5990   23.0880 C   0  0  0  0  0  3  0  0  0  0  0  0
  -25.8400  -32.5020   23.8400 C   0  0  0  0  0  3  0  0  0  0  0  0
  -25.5310  -33.8980   24.1780 N   0  0  0  0  0  0  0  0  0  0  0  0
  -25.8590  -34.9530   23.4230 C   0  0  0  0  0  0  0  0  0  0  0  0
  -26.5260  -34.8560   22.3880 O   0  0  0  0  0  0  0  0  0  0  0  0
  -24.9410  -34.0490   24.9830 H   0  0  0  0  0  0  0  0  0  0  0  0
  -24.1260  -36.7430   23.0800 C   0  0  0  0  0  1  0  0  0  0  0  0
  -25.3700  -36.3390   23.8870 C   0  0  0  0  0  3  0  0  0  0  0  0
  -27.5060  -37.2220   24.7140 C   0  0  0  0  0  1  0  0  0  0  0  0
  -26.4000  -37.3940   23.7750 N   0  0  0  0  0  0  0  0  0  0  0  0
  -25.9930  -38.3120   23.9300 H   0  0  0  0  0  0  0  0  0  0  0  0
  -26.3630  -31.7200   25.1060 C   0  0  1  0  0  0  0  0  0  0  0  0
  -25.2750  -31.4730   26.1770 C   0  0  0  0  0  1  0  0  0  0  0  0
  -26.9440  -30.3460   24.6980 C   0  0  0  0  0  1  0  0  0  0  0  0
  -27.5160  -32.5100   25.7710 C   0  0  0  0  0  1  0  0  0  0  0  0
  1 47  1  0
  1  3  1  0
  2  1  2  0
  4  3  1  0
  4  5  1  0
  5  7  2  0
  6  5  1  0
  6  9  1  0
  8  6  1  0
 10  9  1  0
 11 10  1  0
 12 17  1  0
 13 14  1  0
 13 12  1  0
 15 14  1  0
 15 22  1  0
 15 16  1  0
 17 11  1  0
 17 16  1  0
 18 11  2  0
 19 20  2  0
 20 39  1  0
 21 20  1  0
 21 24  1  0
 22 19  1  0
 22 23  1  0
 23 21  2  0
 24 25  1  0
 25 26  2  0
 27 30  1  0
 27 26  1  0
 28 27  2  0
 29 28  1  0
 29 24  2  0
 30 31  1  0
 31 32  1  0
 32 33  2  0
 34 33  1  0
 34 38  1  0
 35 34  2  0
 36 31  2  0
 36 35  1  0
 37 36  1  0
 39 40  1  0
 40 43  1  0
 40 42  1  0
 41 39  2  0
 44 45  1  0
 44 19  1  0
 46 44  1  0
 48 49  1  0
 48 47  1  0
 50 61  2  0
 51 49  1  0
 51 56  1  0
 52 60  1  0
 52 62  1  0
 53 59  1  0
 53 55  1  0
 54 60  1  0
 55 54  1  0
 56 55  2  0
 57 58  1  0
 57 51  2  0
 58 53  2  0
 59 52  1  0
 60 50  1  0
 62 64  2  0
 63 62  1  0
 65 63  1  0
 66 75  2  0
 66 71  1  0
 67 63  1  0
 67 71  1  0
 68 67  1  0
 69 70  1  0
 69 68  1  0
 70 66  1  0
 71 72  2  0
 72 73  1  0
 74 73  2  0
 75 74  1  0
 76 50  1  0
 76 77  1  0
 76 86  1  0
 77 80  1  0
 78 82  1  0
 78 77  1  0
 79 78  2  0
 82 81  1  0
 84 82  1  0
 84 85  1  0
 84 83  1  0
 86 89  1  1
 86 87  1  0
 88 86  1  0
M  ISO  4  10 100  11 100  48 101  49 101
M  END
>  <TORSDO>  (68) 
F 23

>  <SCORE>  (68) 
-12.788

>  <name>  (68) 
67

>  <ligand_id>  (68) 
67

>  <original_smiles>  (68) 
[H]c1c([H])c([H])c2c(c1[H])C([H])([H])C([H])([H])C([H])([H])C2([H])N([H])C(=O)C1([H])N(C(=O)C([H])(N([H])C(=O)C([H])(N([H])C([H])([H])[H])C([H])([H])[H])C(C([H])([H])[H])(C([H])([H])[H])C([H])([H])[H])C([H])([H])c2c([H])c(OC([H])([H])C([H])([H])C(=O)C([H])([H])C([H])([H])C(=O)N([H])C([H])([H])C([H])([H])C(=O)N3C([H])([H])C([H])([H])C([H])([H])C([H])(n4nc(-c5c([H])c([H])c(Oc6c([H])c([H])c(F)c([H])c6F)c([H])c5[H])c(C(=O)N([H])[H])c4N([H])[H])C3([H])[H])c([H])c([H])c2C1([H])[H]

>  <smiles>  (68) 
[H]c1c([H])c([H])c2c(c1[H])C([H])([H])C([H])([H])C([H])([H])C2([H])N([H])C(=O)C1([H])N(C(=O)C([H])(N([H])C(=O)C([H])(N([H])C([H])([H])[H])C([H])([H])[H])C(C([H])([H])[H])(C([H])([H])[H])C([H])([H])[H])C([H])([H])c2c([H])c(OC([H])([H])C([H])([H])C(=O)C([H])([H])C([H])([H])C(=O)N([H])C([H])([H])C([H])([H])C(=O)N3C([H])([H])C([H])([H])C([H])([H])C([H])(n4nc(-c5c([H])c([H])c(Oc6c([H])c([H])c(F)c([H])c6F)c([H])c5[H])c(C(=O)N([H])[H])c4N([H])[H])C3([H])[H])c([H])c([H])c2C1([H])[H]

$$$$
68:0:0
     RDKit          3D

 95103  0  0  1  0  0  0  0  0999 V2000
  -29.4060  -21.4760   19.5520 C   0  0  0  0  0  3  0  0  0  0  0  0
  -28.9090  -22.7680   19.2370 C   0  0  0  0  0  3  0  0  0  0  0  0
  -29.2380  -23.4780   21.5130 C   0  0  0  0  0  3  0  0  0  0  0  0
  -29.8230  -21.1360   20.8610 C   0  0  0  0  0  0  0  0  0  0  0  0
  -28.8000  -23.7980   20.2060 C   0  0  0  0  0  0  0  0  0  0  0  0
  -29.7510  -22.1840   21.8400 C   0  0  0  0  0  0  0  0  0  0  0  0
  -30.1950  -21.9480   23.2760 C   0  0  0  0  0  1  0  0  0  0  0  0
  -30.4460  -19.7550   21.1400 C   0  0  0  0  0  0  0  0  0  0  0  0
  -29.8430  -18.6230   20.6800 N   0  0  0  0  0  0  0  0  0  0  0  0
  -31.5140  -19.6950   21.7500 O   0  0  0  0  0  0  0  0  0  0  0  0
  -28.9230  -18.7500   20.2770 H   0  0  0  0  0  0  0  0  0  0  0  0
  -30.5470  -17.3210   20.3850 C   0  0  0  0  0  3  0  0  0  0  0  0
  -30.8600  -17.3110   18.8620 C   0  0  0  0  0  2  0  0  0  0  0  0
  -32.3320  -17.5760   18.5200 C   0  0  0  0  0  0  0  0  0  0  0  0
  -33.0080  -16.6350   17.5340 C   0  0  0  0  0  1  0  0  0  0  0  0
  -32.9530  -18.5250   19.0050 O   0  0  0  0  0  0  0  0  0  0  0  0
  -29.8640  -15.9630   20.8710 C   0  0  0  0  0  2  0  0  0  0  0  0
  -30.6320  -14.6180   20.5330 C   0  0  0  0  0  0  0  0  0  0  0  0
  -30.3750  -12.4000   19.4480 C   0  0  0  0  0  2  0  0  0  0  0  0
  -29.4600  -12.5780   18.2150 C   0  0  0  0  0  2  0  0  0  0  0  0
  -27.9810  -12.4240   18.6220 C   0  0  0  0  0  2  0  0  0  0  0  0
  -27.6100  -13.2760   19.8640 C   0  0  0  0  0  3  0  0  0  0  0  0
  -28.6550  -13.1250   20.9920 C   0  0  0  0  0  2  0  0  0  0  0  0
  -29.9800  -13.4190   20.4380 N   0  0  0  0  0  0  0  0  0  0  0  0
  -31.8120  -14.7060   20.1850 O   0  0  0  0  0  0  0  0  0  0  0  0
  -25.2110  -13.8810   20.5530 C   0  0  0  0  0  0  0  0  0  0  0  0
  -24.1380  -13.1110   20.9080 C   0  0  0  0  0  0  0  0  0  0  0  0
  -24.5970  -11.7580   20.8860 C   0  0  0  0  0  0  0  0  0  0  0  0
  -26.2570  -12.9980   20.3340 N   0  0  0  0  0  0  0  0  0  0  0  0
  -25.8920  -11.7170   20.5970 N   0  0  0  0  0  0  0  0  0  0  0  0
  -23.8660  -10.4980   21.0640 C   0  0  0  0  0  0  0  0  0  0  0  0
  -24.2820   -9.5280   22.0040 C   0  0  0  0  0  3  0  0  0  0  0  0
  -23.5500   -8.3330   22.1720 C   0  0  0  0  0  3  0  0  0  0  0  0
  -22.3870   -8.0990   21.4010 C   0  0  0  0  0  0  0  0  0  0  0  0
  -21.9890   -9.0560   20.4520 C   0  0  0  0  0  3  0  0  0  0  0  0
  -22.7220  -10.2430   20.2810 C   0  0  0  0  0  3  0  0  0  0  0  0
  -21.6290   -6.9570   21.4780 O   0  0  0  0  0  0  0  0  0  0  0  0
  -21.5590   -6.2160   22.6300 C   0  0  0  0  0  0  0  0  0  0  0  0
  -21.1050   -6.7710   23.8470 C   0  0  0  0  0  3  0  0  0  0  0  0
  -20.9810   -5.9560   24.9900 C   0  0  0  0  0  3  0  0  0  0  0  0
  -21.3040   -4.5870   24.9180 C   0  0  0  0  0  0  0  0  0  0  0  0
  -21.7530   -4.0330   23.7060 C   0  0  0  0  0  3  0  0  0  0  0  0
  -21.8770   -4.8440   22.5650 C   0  0  0  0  0  0  0  0  0  0  0  0
  -22.2880   -4.2990   21.3950 F   0  0  0  0  0  0  0  0  0  0  0  0
  -21.1800   -3.8030   26.0130 F   0  0  0  0  0  0  0  0  0  0  0  0
  -22.7370  -13.5920   21.1580 C   0  0  0  0  0  0  0  0  0  0  0  0
  -21.9900  -12.8950   22.0060 N   0  0  0  0  0  0  0  0  0  0  0  0
  -22.3140  -14.6230   20.6350 O   0  0  0  0  0  0  0  0  0  0  0  0
  -22.3450  -12.0610   22.4500 H   0  0  0  0  0  0  0  0  0  0  0  0
  -21.0520  -13.2020   22.2180 H   0  0  0  0  0  0  0  0  0  0  0  0
  -25.3820  -15.2510   20.3770 N   0  0  0  0  0  0  0  0  0  0  0  0
  -24.6170  -15.9100   20.4790 H   0  0  0  0  0  0  0  0  0  0  0  0
  -26.2440  -15.6880   20.0800 H   0  0  0  0  0  0  0  0  0  0  0  0
  -27.9560  -25.0620   19.8550 C   0  0  0  0  0  2  0  0  0  0  0  0
  -28.2540  -26.4450   20.2870 O   0  0  0  0  0  0  0  0  0  0  0  0
  -24.5700  -31.8950   23.2740 C   0  0  0  0  0  0  0  0  0  0  0  0
  -27.1630  -27.3370   20.2060 C   0  0  0  0  0  0  0  0  0  0  0  0
  -23.3630  -30.5090   21.6300 C   0  0  0  0  0  3  0  0  0  0  0  0
  -24.8100  -28.9720   20.2000 C   0  0  0  0  0  0  0  0  0  0  0  0
  -25.9090  -30.8130   21.4610 C   0  0  0  0  0  2  0  0  0  0  0  0
  -25.9820  -29.4410   20.8060 C   0  0  0  0  0  0  0  0  0  0  0  0
  -27.1600  -28.6330   20.8110 C   0  0  0  0  0  3  0  0  0  0  0  0
  -25.9650  -26.9470   19.5500 C   0  0  0  0  0  3  0  0  0  0  0  0
  -24.8030  -27.7270   19.5680 C   0  0  0  0  0  3  0  0  0  0  0  0
  -23.5780  -29.8470   20.2470 C   0  0  0  0  0  2  0  0  0  0  0  0
  -24.6320  -31.0890   22.1770 N   0  0  0  0  0  0  0  0  0  0  0  0
  -23.4860  -32.1770   23.8060 O   0  0  0  0  0  0  0  0  0  0  0  0
  -22.6960  -29.4860   22.5810 C   0  0  0  0  0  0  0  0  0  0  0  0
  -21.3690  -29.3110   22.4480 N   0  0  0  0  0  0  0  0  0  0  0  0
  -23.3700  -28.8550   23.3990 O   0  0  0  0  0  0  0  0  0  0  0  0
  -20.8850  -29.8740   21.7640 H   0  0  0  0  0  0  0  0  0  0  0  0
  -17.9850  -28.1340   22.9420 C   0  0  0  0  0  0  0  0  0  0  0  0
  -20.5440  -28.3780   23.2170 C   0  0  0  0  0  3  0  0  0  0  0  0
  -20.6380  -26.9460   22.6420 C   0  0  0  0  0  2  0  0  0  0  0  0
  -19.5360  -26.6300   21.6240 C   0  0  0  0  0  2  0  0  0  0  0  0
  -18.1530  -26.7840   22.2650 C   0  0  0  0  0  2  0  0  0  0  0  0
  -19.1070  -28.8890   23.3740 C   0  0  0  0  0  0  0  0  0  0  0  0
  -18.8940  -30.1530   23.9650 C   0  0  0  0  0  3  0  0  0  0  0  0
  -17.5930  -30.6640   24.1260 C   0  0  0  0  0  3  0  0  0  0  0  0
  -16.4850  -29.9050   23.7110 C   0  0  0  0  0  3  0  0  0  0  0  0
  -16.6820  -28.6430   23.1240 C   0  0  0  0  0  3  0  0  0  0  0  0
  -25.8540  -32.5210   23.8980 C   0  0  0  0  0  3  0  0  0  0  0  0
  -25.5550  -33.9240   24.2120 N   0  0  0  0  0  0  0  0  0  0  0  0
  -25.8940  -34.9660   23.4420 C   0  0  0  0  0  0  0  0  0  0  0  0
  -26.5650  -34.8480   22.4120 O   0  0  0  0  0  0  0  0  0  0  0  0
  -24.9610  -34.0910   25.0110 H   0  0  0  0  0  0  0  0  0  0  0  0
  -24.1840  -36.7710   23.0590 C   0  0  0  0  0  1  0  0  0  0  0  0
  -25.4150  -36.3630   23.8840 C   0  0  0  0  0  3  0  0  0  0  0  0
  -27.5500  -37.2370   24.7240 C   0  0  0  0  0  1  0  0  0  0  0  0
  -26.4570  -37.4070   23.7710 N   0  0  0  0  0  0  0  0  0  0  0  0
  -26.0570  -38.3300   23.9110 H   0  0  0  0  0  0  0  0  0  0  0  0
  -26.3520  -31.7570   25.1850 C   0  0  1  0  0  0  0  0  0  0  0  0
  -25.2490  -31.5400   26.2470 C   0  0  0  0  0  1  0  0  0  0  0  0
  -26.9250  -30.3690   24.8140 C   0  0  0  0  0  1  0  0  0  0  0  0
  -27.5040  -32.5480   25.8480 C   0  0  0  0  0  1  0  0  0  0  0  0
  1  4  1  0
  2  1  2  0
  2  5  1  0
  3  6  1  0
  4  8  1  0
  4  6  2  0
  5  3  2  0
  6  7  1  0
  8 10  2  0
  9  8  1  0
 11  9  1  0
 12 13  1  0
 12  9  1  0
 12 17  1  0
 14 13  1  0
 14 16  2  0
 15 14  1  0
 18 17  1  0
 19 24  1  0
 20 21  1  0
 20 19  1  0
 22 21  1  0
 22 29  1  0
 22 23  1  0
 24 18  1  0
 24 23  1  0
 25 18  2  0
 26 27  2  0
 27 46  1  0
 28 27  1  0
 28 31  1  0
 29 26  1  0
 29 30  1  0
 30 28  2  0
 31 32  1  0
 32 33  2  0
 34 37  1  0
 34 33  1  0
 35 34  2  0
 36 35  1  0
 36 31  2  0
 37 38  1  0
 38 39  1  0
 39 40  2  0
 41 40  1  0
 41 45  1  0
 42 41  2  0
 43 38  2  0
 43 42  1  0
 44 43  1  0
 46 47  1  0
 47 50  1  0
 47 49  1  0
 48 46  2  0
 51 52  1  0
 51 26  1  0
 53 51  1  0
 54  5  1  0
 54 55  1  0
 56 67  2  0
 57 55  1  0
 57 62  1  0
 58 66  1  0
 58 68  1  0
 59 65  1  0
 59 61  1  0
 60 66  1  0
 61 62  2  0
 61 60  1  0
 63 64  1  0
 63 57  2  0
 64 59  2  0
 65 58  1  0
 66 56  1  0
 68 70  2  0
 69 68  1  0
 71 69  1  0
 72 81  2  0
 72 77  1  0
 73 69  1  0
 73 77  1  0
 74 73  1  0
 75 76  1  0
 75 74  1  0
 76 72  1  0
 77 78  2  0
 78 79  1  0
 80 79  2  0
 81 80  1  0
 82 56  1  0
 82 83  1  0
 82 92  1  0
 83 86  1  0
 84 88  1  0
 84 83  1  0
 85 84  2  0
 88 87  1  0
 90 88  1  0
 90 91  1  0
 90 89  1  0
 92 95  1  1
 92 93  1  0
 94 92  1  0
M  ISO  4  17 100  18 100  54 101  55 101
M  END
>  <TORSDO>  (69) 
F 22

>  <SCORE>  (69) 
-13.630

>  <name>  (69) 
68

>  <ligand_id>  (69) 
68

>  <original_smiles>  (69) 
[H]c1c([H])c([H])c2c(c1[H])C([H])([H])C([H])([H])C([H])([H])C2([H])N([H])C(=O)C1([H])N(C(=O)C([H])(N([H])C(=O)C([H])(N([H])C([H])([H])[H])C([H])([H])[H])C(C([H])([H])[H])(C([H])([H])[H])C([H])([H])[H])C([H])([H])c2c([H])c(OC([H])([H])c3c([H])c([H])c(C(=O)N([H])C([H])(C([H])([H])C(=O)N4C([H])([H])C([H])([H])C([H])([H])C([H])(n5nc(-c6c([H])c([H])c(Oc7c([H])c([H])c(F)c([H])c7F)c([H])c6[H])c(C(=O)N([H])[H])c5N([H])[H])C4([H])[H])C([H])([H])C(=O)C([H])([H])[H])c(C([H])([H])[H])c3[H])c([H])c([H])c2C1([H])[H]

>  <smiles>  (69) 
[H]c1c([H])c([H])c2c(c1[H])C([H])([H])C([H])([H])C([H])([H])C2([H])N([H])C(=O)C1([H])N(C(=O)C([H])(N([H])C(=O)C([H])(N([H])C([H])([H])[H])C([H])([H])[H])C(C([H])([H])[H])(C([H])([H])[H])C([H])([H])[H])C([H])([H])c2c([H])c(OC([H])([H])c3c([H])c([H])c(C(=O)N([H])C([H])(C([H])([H])C(=O)N4C([H])([H])C([H])([H])C([H])([H])C([H])(n5nc(-c6c([H])c([H])c(Oc7c([H])c([H])c(F)c([H])c7F)c([H])c6[H])c(C(=O)N([H])[H])c5N([H])[H])C4([H])[H])C([H])([H])C(=O)C([H])([H])[H])c(C([H])([H])[H])c3[H])c([H])c([H])c2C1([H])[H]

$$$$
69:0:0
     RDKit          3D

 95103  0  0  1  0  0  0  0  0999 V2000
  -26.1440  -22.1130   19.6700 C   0  0  0  0  0  3  0  0  0  0  0  0
  -26.5840  -21.3870   20.7850 C   0  0  0  0  0  3  0  0  0  0  0  0
  -27.0180  -23.0130   19.0390 C   0  0  0  0  0  3  0  0  0  0  0  0
  -27.9130  -21.5170   21.2150 C   0  0  0  0  0  3  0  0  0  0  0  0
  -28.3280  -23.2520   19.5360 C   0  0  0  0  0  0  0  0  0  0  0  0
  -28.8050  -22.4160   20.5850 C   0  0  0  0  0  0  0  0  0  0  0  0
  -29.1070  -24.4800   19.0160 C   0  0  0  0  0  2  0  0  0  0  0  0
  -28.1050  -25.6300   18.8060 C   0  0  0  0  0  2  0  0  0  0  0  0
  -28.4070  -27.0150   19.0260 O   0  0  0  0  0  0  0  0  0  0  0  0
  -24.8280  -31.5760   23.1640 C   0  0  0  0  0  0  0  0  0  0  0  0
  -27.2560  -27.7800   19.1770 C   0  0  0  0  0  0  0  0  0  0  0  0
  -23.5090  -30.4320   21.4170 C   0  0  0  0  0  3  0  0  0  0  0  0
  -24.8570  -29.2100   19.6440 C   0  0  0  0  0  0  0  0  0  0  0  0
  -26.0140  -30.8730   21.0930 C   0  0  0  0  0  2  0  0  0  0  0  0
  -26.0580  -29.6360   20.2250 C   0  0  0  0  0  0  0  0  0  0  0  0
  -27.2610  -28.9240   20.0030 C   0  0  0  0  0  3  0  0  0  0  0  0
  -26.0290  -27.4120   18.5520 C   0  0  0  0  0  3  0  0  0  0  0  0
  -24.8350  -28.0890   18.8100 C   0  0  0  0  0  3  0  0  0  0  0  0
  -23.6120  -30.0090   19.9310 C   0  0  0  0  0  2  0  0  0  0  0  0
  -24.8050  -30.9670   21.9460 N   0  0  0  0  0  0  0  0  0  0  0  0
  -23.7890  -31.7300   23.8210 O   0  0  0  0  0  0  0  0  0  0  0  0
  -22.9600  -29.2420   22.2360 C   0  0  0  0  0  0  0  0  0  0  0  0
  -21.6420  -29.0130   22.1380 N   0  0  0  0  0  0  0  0  0  0  0  0
  -23.7120  -28.5390   22.9160 O   0  0  0  0  0  0  0  0  0  0  0  0
  -21.0960  -29.6400   21.5650 H   0  0  0  0  0  0  0  0  0  0  0  0
  -18.3740  -27.5170   22.4890 C   0  0  0  0  0  0  0  0  0  0  0  0
  -20.9050  -27.9330   22.7930 C   0  0  0  0  0  3  0  0  0  0  0  0
  -21.1150  -26.5900   22.0580 C   0  0  0  0  0  2  0  0  0  0  0  0
  -20.0330  -26.2960   21.0130 C   0  0  0  0  0  2  0  0  0  0  0  0
  -18.6440  -26.2730   21.6570 C   0  0  0  0  0  2  0  0  0  0  0  0
  -19.4360  -28.3070   23.0030 C   0  0  0  0  0  0  0  0  0  0  0  0
  -19.1290  -29.4780   23.7300 C   0  0  0  0  0  3  0  0  0  0  0  0
  -17.7930  -29.8600   23.9480 C   0  0  0  0  0  3  0  0  0  0  0  0
  -16.7460  -29.0640   23.4550 C   0  0  0  0  0  3  0  0  0  0  0  0
  -17.0380  -27.8940   22.7320 C   0  0  0  0  0  3  0  0  0  0  0  0
  -26.1530  -32.1300   23.7740 C   0  0  0  0  0  3  0  0  0  0  0  0
  -25.8600  -33.4610   24.3170 N   0  0  0  0  0  0  0  0  0  0  0  0
  -26.1540  -34.6150   23.7030 C   0  0  0  0  0  0  0  0  0  0  0  0
  -26.7760  -34.6680   22.6380 O   0  0  0  0  0  0  0  0  0  0  0  0
  -25.2980  -33.4950   25.1570 H   0  0  0  0  0  0  0  0  0  0  0  0
  -24.4090  -36.4280   23.6890 C   0  0  0  0  0  1  0  0  0  0  0  0
  -25.6860  -35.9180   24.3780 C   0  0  0  0  0  3  0  0  0  0  0  0
  -27.8540  -36.6850   25.2340 C   0  0  0  0  0  1  0  0  0  0  0  0
  -26.7100  -36.9820   24.3770 N   0  0  0  0  0  0  0  0  0  0  0  0
  -26.3100  -37.8670   24.6750 H   0  0  0  0  0  0  0  0  0  0  0  0
  -26.7660  -31.1900   24.8800 C   0  0  1  0  0  0  0  0  0  0  0  0
  -25.7590  -30.7920   25.9830 C   0  0  0  0  0  1  0  0  0  0  0  0
  -27.3130  -29.8880   24.2500 C   0  0  0  0  0  1  0  0  0  0  0  0
  -27.9630  -31.8950   25.5580 C   0  0  0  0  0  1  0  0  0  0  0  0
  -30.2670  -22.3850   21.0280 C   0  0  0  0  0  2  0  0  0  0  0  0
  -30.7760  -20.0210   20.4950 C   0  0  0  0  0  0  0  0  0  0  0  0
  -30.6860  -21.0220   21.3830 N   0  0  0  0  0  0  0  0  0  0  0  0
  -30.7630  -20.2650   19.2870 O   0  0  0  0  0  0  0  0  0  0  0  0
  -30.7820  -20.8140   22.3680 H   0  0  0  0  0  0  0  0  0  0  0  0
  -30.8310  -18.5670   21.0410 C   0  0  0  0  0  2  0  0  0  0  0  0
  -29.9830  -17.3700   18.9200 C   0  0  0  0  0  1  0  0  0  0  0  0
  -32.4670  -17.5490   19.3930 C   0  0  0  0  0  1  0  0  0  0  0  0
  -31.0640  -17.3730   20.0340 C   0  0  1  0  0  0  0  0  0  0  0  0
  -30.9300  -16.0150   20.8420 C   0  0  0  0  0  2  0  0  0  0  0  0
  -31.4670  -14.6830   20.2260 C   0  0  0  0  0  0  0  0  0  0  0  0
  -31.1370  -12.3590   19.4340 C   0  0  0  0  0  2  0  0  0  0  0  0
  -30.2340  -12.3620   18.1850 C   0  0  0  0  0  2  0  0  0  0  0  0
  -28.7490  -12.3120   18.5930 C   0  0  0  0  0  2  0  0  0  0  0  0
  -28.3960  -13.3510   19.6920 C   0  0  0  0  0  3  0  0  0  0  0  0
  -29.4220  -13.3220   20.8480 C   0  0  0  0  0  2  0  0  0  0  0  0
  -30.7570  -13.5160   20.2650 N   0  0  0  0  0  0  0  0  0  0  0  0
  -32.5730  -14.7110   19.6840 O   0  0  0  0  0  0  0  0  0  0  0  0
  -26.0570  -14.1180   20.4430 C   0  0  0  0  0  0  0  0  0  0  0  0
  -24.9330  -13.4180   20.7980 C   0  0  0  0  0  0  0  0  0  0  0  0
  -25.2860  -12.0370   20.7150 C   0  0  0  0  0  0  0  0  0  0  0  0
  -27.0280  -13.1650   20.1760 N   0  0  0  0  0  0  0  0  0  0  0  0
  -26.5660  -11.9060   20.3930 N   0  0  0  0  0  0  0  0  0  0  0  0
  -24.4630  -10.8290   20.8710 C   0  0  0  0  0  0  0  0  0  0  0  0
  -24.8030   -9.8200   21.8000 C   0  0  0  0  0  3  0  0  0  0  0  0
  -23.9850   -8.6780   21.9470 C   0  0  0  0  0  3  0  0  0  0  0  0
  -22.8120   -8.5390   21.1650 C   0  0  0  0  0  0  0  0  0  0  0  0
  -22.4910   -9.5370   20.2280 C   0  0  0  0  0  3  0  0  0  0  0  0
  -23.3080  -10.6700   20.0780 C   0  0  0  0  0  3  0  0  0  0  0  0
  -21.9730   -7.4530   21.2210 O   0  0  0  0  0  0  0  0  0  0  0  0
  -21.8030   -6.7350   22.3790 C   0  0  0  0  0  0  0  0  0  0  0  0
  -21.3460   -7.3410   23.5690 C   0  0  0  0  0  3  0  0  0  0  0  0
  -21.1150   -6.5530   24.7160 C   0  0  0  0  0  3  0  0  0  0  0  0
  -21.3300   -5.1620   24.6710 C   0  0  0  0  0  0  0  0  0  0  0  0
  -21.7770   -4.5570   23.4830 C   0  0  0  0  0  3  0  0  0  0  0  0
  -22.0090   -5.3420   22.3390 C   0  0  0  0  0  0  0  0  0  0  0  0
  -22.4190   -4.7490   21.1930 F   0  0  0  0  0  0  0  0  0  0  0  0
  -21.1020   -4.4050   25.7690 F   0  0  0  0  0  0  0  0  0  0  0  0
  -23.5810  -13.9950   21.1030 C   0  0  0  0  0  0  0  0  0  0  0  0
  -22.8190  -13.3350   21.9680 N   0  0  0  0  0  0  0  0  0  0  0  0
  -23.2100  -15.0610   20.6130 O   0  0  0  0  0  0  0  0  0  0  0  0
  -23.1330  -12.4700   22.3810 H   0  0  0  0  0  0  0  0  0  0  0  0
  -21.9100  -13.7000   22.2170 H   0  0  0  0  0  0  0  0  0  0  0  0
  -26.3340  -15.4750   20.3090 N   0  0  0  0  0  0  0  0  0  0  0  0
  -25.6420  -16.1960   20.4820 H   0  0  0  0  0  0  0  0  0  0  0  0
  -27.2240  -15.8450   20.0050 H   0  0  0  0  0  0  0  0  0  0  0  0
  1  2  1  0
  2  4  2  0
  3  5  1  0
  3  1  2  0
  5  6  2  0
  6 50  1  0
  6  4  1  0
  7  5  1  0
  8  7  1  0
  8  9  1  0
  9 11  1  0
 10 21  2  0
 11 16  1  0
 12 20  1  0
 12 22  1  0
 13 19  1  0
 13 15  1  0
 14 20  1  0
 15 14  1  0
 16 15  2  0
 17 18  1  0
 17 11  2  0
 18 13  2  0
 19 12  1  0
 20 10  1  0
 22 24  2  0
 23 22  1  0
 25 23  1  0
 26 35  2  0
 26 31  1  0
 27 23  1  0
 27 31  1  0
 28 27  1  0
 29 30  1  0
 29 28  1  0
 30 26  1  0
 31 32  2  0
 32 33  1  0
 34 33  2  0
 35 34  1  0
 36 10  1  0
 36 37  1  0
 36 46  1  0
 37 40  1  0
 38 37  1  0
 38 42  1  0
 39 38  2  0
 42 41  1  0
 44 42  1  0
 44 45  1  0
 44 43  1  0
 46 49  1  1
 46 47  1  0
 48 46  1  0
 50 52  1  0
 51 55  1  0
 51 52  1  0
 52 54  1  0
 53 51  2  0
 58 56  1  6
 57 58  1  0
 58 59  1  0
 58 55  1  0
 60 66  1  0
 60 59  1  0
 61 66  1  0
 62 63  1  0
 62 61  1  0
 64 63  1  0
 64 71  1  0
 64 65  1  0
 66 65  1  0
 67 60  2  0
 68 69  2  0
 69 88  1  0
 70 69  1  0
 70 73  1  0
 71 72  1  0
 71 68  1  0
 72 70  2  0
 73 74  1  0
 74 75  2  0
 76 79  1  0
 76 75  1  0
 77 76  2  0
 78 77  1  0
 78 73  2  0
 79 80  1  0
 80 81  1  0
 81 82  2  0
 83 82  1  0
 83 87  1  0
 84 83  2  0
 85 80  2  0
 85 84  1  0
 86 85  1  0
 88 89  1  0
 89 92  1  0
 89 91  1  0
 90 88  2  0
 93 68  1  0
 93 94  1  0
 95 93  1  0
M  ISO  4   8 101   9 101  59 100  60 100
M  END
>  <TORSDO>  (70) 
F 23

>  <SCORE>  (70) 
-9.510

>  <name>  (70) 
69

>  <ligand_id>  (70) 
69

>  <original_smiles>  (70) 
[H]c1c([H])c([H])c(C([H])([H])C([H])([H])Oc2c([H])c([H])c3c(c2[H])C([H])([H])N(C(=O)C([H])(N([H])C(=O)C([H])(N([H])C([H])([H])[H])C([H])([H])[H])C(C([H])([H])[H])(C([H])([H])[H])C([H])([H])[H])C([H])(C(=O)N([H])C2([H])c4c([H])c([H])c([H])c([H])c4C([H])([H])C([H])([H])C2([H])[H])C3([H])[H])c(C([H])([H])N([H])C(=O)C([H])([H])C(C([H])([H])[H])(C([H])([H])[H])C([H])([H])C(=O)N2C([H])([H])C([H])([H])C([H])([H])C([H])(n3nc(-c4c([H])c([H])c(Oc5c([H])c([H])c(F)c([H])c5F)c([H])c4[H])c(C(=O)N([H])[H])c3N([H])[H])C2([H])[H])c1[H]

>  <smiles>  (70) 
[H]c1c([H])c([H])c(C([H])([H])C([H])([H])Oc2c([H])c([H])c3c(c2[H])C([H])([H])N(C(=O)C([H])(N([H])C(=O)C([H])(N([H])C([H])([H])[H])C([H])([H])[H])C(C([H])([H])[H])(C([H])([H])[H])C([H])([H])[H])C([H])(C(=O)N([H])C2([H])c4c([H])c([H])c([H])c([H])c4C([H])([H])C([H])([H])C2([H])[H])C3([H])[H])c(C([H])([H])N([H])C(=O)C([H])([H])C(C([H])([H])[H])(C([H])([H])[H])C([H])([H])C(=O)N2C([H])([H])C([H])([H])C([H])([H])C([H])(n3nc(-c4c([H])c([H])c(Oc5c([H])c([H])c(F)c([H])c5F)c([H])c4[H])c(C(=O)N([H])[H])c3N([H])[H])C2([H])[H])c1[H]

$$$$
70:0:0
     RDKit          3D

 95 99  0  0  1  0  0  0  0  0999 V2000
  -29.8630  -16.2180   20.5450 C   0  0  0  0  0  2  0  0  0  0  0  0
  -30.9990  -15.5440   21.4040 C   0  0  0  0  0  3  0  0  0  0  0  0
  -28.7460  -13.0240   20.6370 C   0  0  0  0  0  3  0  0  0  0  0  0
  -28.5080  -15.4170   20.0360 C   0  0  0  0  0  3  0  0  0  0  0  0
  -31.2140  -14.0190   21.8170 C   0  0  0  0  0  0  0  0  0  0  0  0
  -30.1920  -12.7480   21.4860 C   0  0  0  0  0  0  0  0  0  0  0  0
  -30.5680  -11.3600   21.9550 C   0  0  0  0  0  1  0  0  0  0  0  0
  -27.7670  -17.2020   20.2180 C   0  0  0  0  0  0  0  0  0  0  0  0
  -28.2780  -18.8240   20.1720 N   0  0  0  0  0  2  0  0  0  0  0  0
  -26.5560  -17.1600   20.4240 O   0  0  0  0  0  0  0  0  0  0  0  0
  -29.2870  -18.7380   20.1040 H   0  0  0  0  0  0  0  0  0  0  0  0
  -27.9990  -20.7820   19.9210 C   0  0  0  0  0 15  0  0  0  0  0  0
  -27.8070  -22.8440   20.6550 C   0  0  0  0  0 15  0  0  0  0  0  0
  -27.9570  -24.8010   20.4590 O   0  0  0  0  0  1  0  0  0  0  0  0
  -24.5680  -31.7830   23.1130 C   0  0  0  0  0  0  0  0  0  0  0  0
  -27.0930  -26.2230   20.4470 C   0  0  0  0  0  0  0  0  0  0  0  0
  -23.4460  -30.2870   21.5350 C   0  0  0  0  0  3  0  0  0  0  0  0
  -24.9210  -28.5110   20.2630 C   0  0  0  0  0  0  0  0  0  0  0  0
  -26.0450  -30.3100   21.5290 C   0  0  0  0  0  2  0  0  0  0  0  0
  -26.1100  -28.8140   20.9320 C   0  0  0  0  0  0  0  0  0  0  0  0
  -27.1780  -27.7000   20.9800 C   0  0  0  0  0  3  0  0  0  0  0  0
  -25.8730  -26.2340   19.7220 C   0  0  0  0  0  3  0  0  0  0  0  0
  -24.8660  -27.2610   19.6360 C   0  0  0  0  0  3  0  0  0  0  0  0
  -23.7380  -29.5160   20.2150 C   0  0  0  0  0  2  0  0  0  0  0  0
  -24.7140  -30.8410   22.1070 N   0  0  0  0  0  0  0  0  0  0  0  0
  -23.4520  -32.1160   23.5590 O   0  0  0  0  0  0  0  0  0  0  0  0
  -22.6900  -29.3770   22.5430 C   0  0  0  0  0  0  0  0  0  0  0  0
  -21.3650  -29.1780   22.3680 N   0  0  0  0  0  0  0  0  0  0  0  0
  -23.3120  -28.8390   23.4630 O   0  0  0  0  0  0  0  0  0  0  0  0
  -20.9060  -29.6560   21.6050 H   0  0  0  0  0  0  0  0  0  0  0  0
  -17.9960  -27.8740   22.8100 C   0  0  0  0  0  0  0  0  0  0  0  0
  -20.5300  -28.2700   23.1690 C   0  0  0  0  0  3  0  0  0  0  0  0
  -20.7120  -26.8040   22.7090 C   0  0  0  0  0  2  0  0  0  0  0  0
  -19.6750  -26.3670   21.6680 C   0  0  0  0  0  2  0  0  0  0  0  0
  -18.2600  -26.4910   22.2360 C   0  0  0  0  0  2  0  0  0  0  0  0
  -19.0620  -28.7150   23.2310 C   0  0  0  0  0  0  0  0  0  0  0  0
  -18.7570  -29.9990   23.7320 C   0  0  0  0  0  3  0  0  0  0  0  0
  -17.4240  -30.4470   23.8100 C   0  0  0  0  0  3  0  0  0  0  0  0
  -16.3750  -29.6060   23.4010 C   0  0  0  0  0  3  0  0  0  0  0  0
  -16.6620  -28.3220   22.9070 C   0  0  0  0  0  3  0  0  0  0  0  0
  -25.7900  -32.5000   23.7630 C   0  0  0  0  0  3  0  0  0  0  0  0
  -25.4090  -33.8960   24.0790 N   0  0  0  0  0  0  0  0  0  0  0  0
  -25.6820  -34.9720   23.3240 C   0  0  0  0  0  0  0  0  0  0  0  0
  -26.3330  -34.8950   22.2810 O   0  0  0  0  0  0  0  0  0  0  0  0
  -24.8140  -34.0240   24.8840 H   0  0  0  0  0  0  0  0  0  0  0  0
  -23.8550  -36.6900   23.0520 C   0  0  0  0  0  1  0  0  0  0  0  0
  -25.1570  -36.3460   23.7950 C   0  0  0  0  0  3  0  0  0  0  0  0
  -27.2880  -37.3520   24.4950 C   0  0  0  0  0  1  0  0  0  0  0  0
  -26.1280  -37.4500   23.6130 N   0  0  0  0  0  0  0  0  0  0  0  0
  -25.6840  -38.3490   23.7760 H   0  0  0  0  0  0  0  0  0  0  0  0
  -26.2890  -31.7840   25.0800 C   0  0  1  0  0  0  0  0  0  0  0  0
  -25.1650  -31.5010   26.1040 C   0  0  0  0  0  1  0  0  0  0  0  0
  -26.9650  -30.4330   24.7640 C   0  0  0  0  0  1  0  0  0  0  0  0
  -27.3690  -32.6500   25.7710 C   0  0  0  0  0  1  0  0  0  0  0  0
  -32.6520  -13.9370   22.3830 C   0  0  0  0  0  2  0  0  0  0  0  0
  -33.7720  -14.2950   21.3030 C   0  0  0  0  0  2  0  0  0  0  0  0
  -34.3020  -13.1420   20.4270 C   0  0  0  0  0  2  0  0  0  0  0  0
  -33.3250  -12.0140   20.1270 C   0  0  0  0  0  3  0  0  0  0  0  0
  -32.2730  -11.9270   19.4000 N   0  0  0  0  0  0  0  0  0  0  0  0
  -31.6950  -13.0000   18.7230 C   0  0  0  0  0  0  0  0  0  0  0  0
  -30.1070  -12.0270   17.2440 C   0  0  0  0  0  3  0  0  0  0  0  0
  -28.4900  -11.7110   16.5810 C   0  0  0  0  0  3  0  0  0  0  0  0
  -26.9130  -12.0560   17.2830 C   0  0  0  0  0  2  0  0  0  0  0  0
  -26.5740  -13.0410   18.7720 C   0  0  0  0  0  2  0  0  0  0  0  0
  -27.9350  -13.7360   20.0320 C   0  0  0  0  0  2  0  0  0  0  0  0
  -30.4000  -12.9940   18.6570 N   0  0  0  0  0  2  0  0  0  0  0  0
  -32.2260  -13.5940   17.8180 O   0  0  0  0  0  0  0  0  0  0  0  0
  -24.8660  -13.2120   20.2750 C   0  0  0  0  0  0  0  0  0  0  0  0
  -23.9580  -12.4230   20.8660 C   0  0  0  0  0  0  0  0  0  0  0  0
  -24.2880  -11.0630   20.5780 C   0  0  0  0  0  0  0  0  0  0  0  0
  -25.6180  -12.3710   19.5680 N   0  0  0  0  0  0  0  0  0  0  0  0
  -25.3730  -11.0270   19.7800 N   0  0  0  0  0  0  0  0  0  0  0  0
  -23.5290   -9.8590   20.9770 C   0  0  0  0  0  0  0  0  0  0  0  0
  -24.0540   -8.8220   21.7840 C   0  0  0  0  0  3  0  0  0  0  0  0
  -23.2260   -7.7520   22.2070 C   0  0  0  0  0  3  0  0  0  0  0  0
  -21.8580   -7.7180   21.8390 C   0  0  0  0  0  0  0  0  0  0  0  0
  -21.3470   -8.7420   21.0210 C   0  0  0  0  0  3  0  0  0  0  0  0
  -22.1720   -9.7960   20.5960 C   0  0  0  0  0  3  0  0  0  0  0  0
  -20.9870   -6.7080   22.1760 O   0  0  0  0  0  0  0  0  0  0  0  0
  -21.1870   -5.9200   23.2830 C   0  0  0  0  0  0  0  0  0  0  0  0
  -21.2450   -6.4630   24.5850 C   0  0  0  0  0  3  0  0  0  0  0  0
  -21.3860   -5.6110   25.6990 C   0  0  0  0  0  3  0  0  0  0  0  0
  -21.4570   -4.2180   25.5160 C   0  0  0  0  0  0  0  0  0  0  0  0
  -21.3920   -3.6740   24.2200 C   0  0  0  0  0  3  0  0  0  0  0  0
  -21.2550   -4.5230   23.1080 C   0  0  0  0  0  0  0  0  0  0  0  0
  -21.1700   -3.9890   21.8650 F   0  0  0  0  0  0  0  0  0  0  0  0
  -21.5910   -3.3960   26.5860 F   0  0  0  0  0  0  0  0  0  0  0  0
  -22.7920  -13.0250   21.5430 C   0  0  0  0  0  0  0  0  0  0  0  0
  -22.3420  -12.4200   22.6290 N   0  0  0  0  0  0  0  0  0  0  0  0
  -22.3350  -14.0940   21.1490 O   0  0  0  0  0  0  0  0  0  0  0  0
  -22.7550  -11.5740   22.9870 H   0  0  0  0  0  0  0  0  0  0  0  0
  -21.5470  -12.8110   23.1150 H   0  0  0  0  0  0  0  0  0  0  0  0
  -25.0650  -14.5930   20.2650 N   0  0  0  0  0  0  0  0  0  0  0  0
  -24.3830  -15.1620   20.7580 H   0  0  0  0  0  0  0  0  0  0  0  0
  -25.8240  -15.1250   19.8420 H   0  0  0  0  0  0  0  0  0  0  0  0
  1  2  1  0
  2  5  2  0
  3  6  2  0
  4  8  1  0
  4  1  1  0
  5 55  1  0
  6  5  1  0
  6  7  1  0
  8 10  2  0
  9  8  1  0
 11  9  1  0
 15 26  2  0
 16 14  1  0
 16 21  1  0
 17 25  1  0
 17 27  1  0
 18 20  1  0
 19 25  1  0
 20 21  2  0
 20 19  1  0
 22 16  2  0
 23 22  1  0
 23 18  2  0
 24 18  1  0
 24 17  1  0
 25 15  1  0
 27 29  2  0
 28 27  1  0
 30 28  1  0
 31 40  2  0
 31 36  1  0
 32 28  1  0
 32 36  1  0
 33 32  1  0
 34 35  1  0
 34 33  1  0
 35 31  1  0
 36 37  2  0
 37 38  1  0
 39 38  2  0
 40 39  1  0
 41 15  1  0
 41 42  1  0
 41 51  1  0
 42 45  1  0
 43 47  1  0
 43 42  1  0
 44 43  2  0
 47 46  1  0
 49 50  1  0
 49 47  1  0
 49 48  1  0
 51 54  1  1
 51 52  1  0
 53 51  1  0
 56 55  1  0
 57 56  1  0
 58 57  1  0
 59 58  2  0
 60 59  1  0
 61 66  1  0
 62 61  2  0
 62 63  1  0
 63 64  1  0
 64 71  1  0
 65  4  1  0
 65  3  1  0
 66 60  1  0
 67 60  2  0
 68 69  2  0
 69 88  1  0
 70 69  1  0
 70 73  1  0
 71 72  1  0
 71 68  1  0
 72 70  2  0
 73 74  1  0
 74 75  2  0
 76 79  1  0
 76 75  1  0
 77 76  2  0
 78 73  2  0
 78 77  1  0
 79 80  1  0
 80 81  1  0
 81 82  2  0
 83 82  1  0
 83 87  1  0
 84 83  2  0
 85 80  2  0
 85 84  1  0
 86 85  1  0
 88 89  1  0
 89 91  1  0
 89 92  1  0
 90 88  2  0
 93 68  1  0
 93 94  1  0
 95 93  1  0
M  ISO  4  13 101  14 101  59 100  60 100
M  END
>  <TORSDO>  (71) 
F 23

>  <SCORE>  (71) 
-3.866

>  <name>  (71) 
70

>  <ligand_id>  (71) 
70

>  <original_smiles>  (71) 
[H]C(=NC(=O)N1C([H])([H])C([H])([H])C([H])([H])C([H])(n2nc(-c3c([H])c([H])c(Oc4c([H])c([H])c(F)c([H])c4F)c([H])c3[H])c(C(=O)N([H])[H])c2N([H])[H])C1([H])[H])C([H])([H])C([H])([H])C([H])([H])c1c([H])c([H])c(C(=O)N([H])C([H])([H])C([H])([H])Oc2c([H])c([H])c3c(c2[H])C([H])([H])N(C(=O)C([H])(N([H])C(=O)C([H])(N([H])C([H])([H])[H])C([H])([H])[H])C(C([H])([H])[H])(C([H])([H])[H])C([H])([H])[H])C([H])(C(=O)N([H])C2([H])c4c([H])c([H])c([H])c([H])c4C([H])([H])C([H])([H])C2([H])[H])C3([H])[H])c([H])c1C([H])([H])[H]

>  <smiles>  (71) 
[H]C(=NC(=O)N1C([H])([H])C([H])([H])C([H])([H])C([H])(n2nc(-c3c([H])c([H])c(Oc4c([H])c([H])c(F)c([H])c4F)c([H])c3[H])c(C(=O)N([H])[H])c2N([H])[H])C1([H])[H])C([H])([H])C([H])([H])C([H])([H])c1c([H])c([H])c(C(=O)N([H])C([H])([H])C([H])([H])Oc2c([H])c([H])c3c(c2[H])C([H])([H])N(C(=O)C([H])(N([H])C(=O)C([H])(N([H])C([H])([H])[H])C([H])([H])[H])C(C([H])([H])[H])(C([H])([H])[H])C([H])([H])[H])C([H])(C(=O)N([H])C2([H])c4c([H])c([H])c([H])c([H])c4C([H])([H])C([H])([H])C2([H])[H])C3([H])[H])c([H])c1C([H])([H])[H]

$$$$
71:0:0
     RDKit          3D

 94102  0  0  1  0  0  0  0  0999 V2000
  -28.1900  -22.0550   21.2770 C   0  0  0  0  0  0  0  0  0  0  0  0
  -29.0980  -23.0230   21.4340 N   0  0  0  0  0  0  0  0  0  0  0  0
  -27.1800  -21.9230   21.9710 O   0  0  0  0  0  0  0  0  0  0  0  0
  -29.8900  -22.9770   20.8090 H   0  0  0  0  0  0  0  0  0  0  0  0
  -28.8590  -20.7770   17.7530 C   0  0  0  0  0  3  0  0  0  0  0  0
  -28.4860  -21.6110   18.8230 C   0  0  0  0  0  3  0  0  0  0  0  0
  -29.2540  -19.4480   18.0040 C   0  0  0  0  0  3  0  0  0  0  0  0
  -28.8570  -19.7770   20.3910 C   0  0  0  0  0  3  0  0  0  0  0  0
  -28.5110  -21.1250   20.1480 C   0  0  0  0  0  0  0  0  0  0  0  0
  -29.2340  -18.9280   19.3210 C   0  0  0  0  0  0  0  0  0  0  0  0
  -29.5230  -17.4420   19.5520 C   0  0  0  0  0  2  0  0  0  0  0  0
  -30.6830  -17.0960   20.5230 C   0  0  0  0  0  2  0  0  0  0  0  0
  -31.2450  -14.7260   19.9450 C   0  0  0  0  0  0  0  0  0  0  0  0
  -30.8610  -12.5540   18.8080 C   0  0  0  0  0  2  0  0  0  0  0  0
  -29.8390  -12.6840   17.6580 C   0  0  0  0  0  2  0  0  0  0  0  0
  -28.3900  -12.5700   18.1760 C   0  0  0  0  0  2  0  0  0  0  0  0
  -28.1340  -13.4610   19.4210 C   0  0  0  0  0  3  0  0  0  0  0  0
  -29.2440  -13.2650   20.4700 C   0  0  0  0  0  2  0  0  0  0  0  0
  -30.5460  -13.5610   19.8360 N   0  0  0  0  0  0  0  0  0  0  0  0
  -32.2010  -14.9900   19.1990 O   0  0  0  0  0  0  0  0  0  0  0  0
  -30.8110  -15.3650   22.2720 C   0  0  0  0  0  1  0  0  0  0  0  0
  -30.7540  -15.6440   20.8260 N   0  0  0  0  0  0  0  0  0  0  0  0
  -25.8390  -14.1440   20.3710 C   0  0  0  0  0  0  0  0  0  0  0  0
  -24.7720  -13.4010   20.7940 C   0  0  0  0  0  0  0  0  0  0  0  0
  -25.1610  -12.0320   20.6600 C   0  0  0  0  0  0  0  0  0  0  0  0
  -26.8130  -13.2290   19.9980 N   0  0  0  0  0  0  0  0  0  0  0  0
  -26.4110  -11.9500   20.2240 N   0  0  0  0  0  0  0  0  0  0  0  0
  -24.3940  -10.7960   20.8570 C   0  0  0  0  0  0  0  0  0  0  0  0
  -24.7870   -9.8250   21.8050 C   0  0  0  0  0  3  0  0  0  0  0  0
  -24.0210   -8.6550   21.9890 C   0  0  0  0  0  3  0  0  0  0  0  0
  -22.8480   -8.4470   21.2240 C   0  0  0  0  0  0  0  0  0  0  0  0
  -22.4750   -9.4030   20.2640 C   0  0  0  0  0  3  0  0  0  0  0  0
  -23.2410  -10.5660   20.0800 C   0  0  0  0  0  3  0  0  0  0  0  0
  -22.0590   -7.3250   21.3160 O   0  0  0  0  0  0  0  0  0  0  0  0
  -21.8790   -6.6670   22.5050 C   0  0  0  0  0  0  0  0  0  0  0  0
  -21.3280   -7.3070   23.6360 C   0  0  0  0  0  3  0  0  0  0  0  0
  -21.1010   -6.5750   24.8190 C   0  0  0  0  0  3  0  0  0  0  0  0
  -21.4100   -5.2030   24.8680 C   0  0  0  0  0  0  0  0  0  0  0  0
  -21.9480   -4.5600   23.7380 C   0  0  0  0  0  3  0  0  0  0  0  0
  -22.1780   -5.2910   22.5580 C   0  0  0  0  0  0  0  0  0  0  0  0
  -22.6780   -4.6630   21.4660 F   0  0  0  0  0  0  0  0  0  0  0  0
  -21.1860   -4.4940   25.9980 F   0  0  0  0  0  0  0  0  0  0  0  0
  -23.4300  -13.9220   21.2200 C   0  0  0  0  0  0  0  0  0  0  0  0
  -22.7710  -13.2420   22.1520 N   0  0  0  0  0  0  0  0  0  0  0  0
  -22.9750  -14.9680   20.7570 O   0  0  0  0  0  0  0  0  0  0  0  0
  -23.1400  -12.3880   22.5470 H   0  0  0  0  0  0  0  0  0  0  0  0
  -21.8770  -13.5830   22.4780 H   0  0  0  0  0  0  0  0  0  0  0  0
  -26.0580  -15.5140   20.2510 N   0  0  0  0  0  0  0  0  0  0  0  0
  -25.3540  -16.2050   20.4900 H   0  0  0  0  0  0  0  0  0  0  0  0
  -26.9140  -15.9250   19.9050 H   0  0  0  0  0  0  0  0  0  0  0  0
  -29.0460  -24.1570   22.3520 C   0  0  0  0  0  2  0  0  0  0  0  0
  -29.3430  -25.4720   21.6080 C   0  0  0  0  0  2  0  0  0  0  0  0
  -28.5380  -25.5980   20.3080 C   0  0  0  0  0  2  0  0  0  0  0  0
  -28.6190  -26.9300   19.8160 O   0  0  0  0  0  0  0  0  0  0  0  0
  -24.5540  -31.7390   23.0270 C   0  0  0  0  0  0  0  0  0  0  0  0
  -27.4180  -27.5840   19.8130 C   0  0  0  0  0  0  0  0  0  0  0  0
  -23.4190  -30.3300   21.3410 C   0  0  0  0  0  3  0  0  0  0  0  0
  -24.9480  -28.9270   19.8670 C   0  0  0  0  0  0  0  0  0  0  0  0
  -25.9130  -30.8440   21.1450 C   0  0  0  0  0  2  0  0  0  0  0  0
  -26.0720  -29.5010   20.4720 C   0  0  0  0  0  0  0  0  0  0  0  0
  -27.3130  -28.8350   20.4500 C   0  0  0  0  0  3  0  0  0  0  0  0
  -26.2850  -27.0190   19.1890 C   0  0  0  0  0  3  0  0  0  0  0  0
  -25.0450  -27.6810   19.2220 C   0  0  0  0  0  3  0  0  0  0  0  0
  -23.6590  -29.7100   19.9380 C   0  0  0  0  0  2  0  0  0  0  0  0
  -24.6470  -30.9840   21.8970 N   0  0  0  0  0  0  0  0  0  0  0  0
  -23.4610  -31.9340   23.5760 O   0  0  0  0  0  0  0  0  0  0  0  0
  -22.8290  -29.2410   22.2650 C   0  0  0  0  0  0  0  0  0  0  0  0
  -21.5130  -29.0080   22.1450 N   0  0  0  0  0  0  0  0  0  0  0  0
  -23.5490  -28.6150   23.0470 O   0  0  0  0  0  0  0  0  0  0  0  0
  -20.9920  -29.5670   21.4830 H   0  0  0  0  0  0  0  0  0  0  0  0
  -18.1860  -27.7040   22.6700 C   0  0  0  0  0  0  0  0  0  0  0  0
  -20.7430  -28.0090   22.8850 C   0  0  0  0  0  3  0  0  0  0  0  0
  -20.8650  -26.6150   22.2300 C   0  0  0  0  0  2  0  0  0  0  0  0
  -19.7420  -26.3210   21.2300 C   0  0  0  0  0  2  0  0  0  0  0  0
  -18.3740  -26.3990   21.9160 C   0  0  0  0  0  2  0  0  0  0  0  0
  -19.2990  -28.4700   23.1100 C   0  0  0  0  0  0  0  0  0  0  0  0
  -19.0690  -29.6940   23.7740 C   0  0  0  0  0  3  0  0  0  0  0  0
  -17.7590  -30.1550   24.0010 C   0  0  0  0  0  3  0  0  0  0  0  0
  -16.6600  -29.3860   23.5790 C   0  0  0  0  0  3  0  0  0  0  0  0
  -16.8760  -28.1620   22.9200 C   0  0  0  0  0  3  0  0  0  0  0  0
  -25.8080  -32.4150   23.6660 C   0  0  0  0  0  3  0  0  0  0  0  0
  -25.4260  -33.7780   24.0570 N   0  0  0  0  0  0  0  0  0  0  0  0
  -25.7130  -34.8800   23.3500 C   0  0  0  0  0  0  0  0  0  0  0  0
  -26.4020  -34.8560   22.3260 O   0  0  0  0  0  0  0  0  0  0  0  0
  -24.8220  -33.8680   24.8610 H   0  0  0  0  0  0  0  0  0  0  0  0
  -23.9260  -36.6140   23.0100 C   0  0  0  0  0  1  0  0  0  0  0  0
  -25.1460  -36.2190   23.8570 C   0  0  0  0  0  3  0  0  0  0  0  0
  -27.2010  -37.1440   24.8320 C   0  0  0  0  0  1  0  0  0  0  0  0
  -26.1380  -37.3180   23.8480 N   0  0  0  0  0  0  0  0  0  0  0  0
  -25.6870  -38.2120   24.0200 H   0  0  0  0  0  0  0  0  0  0  0  0
  -26.3830  -31.6180   24.9000 C   0  0  1  0  0  0  0  0  0  0  0  0
  -25.3120  -31.2330   25.9470 C   0  0  0  0  0  1  0  0  0  0  0  0
  -27.0760  -30.3180   24.4280 C   0  0  0  0  0  1  0  0  0  0  0  0
  -27.4670  -32.4630   25.6110 C   0  0  0  0  0  1  0  0  0  0  0  0
  1  2  1  0
  1  3  2  0
  2 51  1  0
  4  2  1  0
  5  7  2  0
  5  6  1  0
  6  9  2  0
  7 10  1  0
  9  8  1  0
  9  1  1  0
 10 11  1  0
 10  8  2  0
 11 12  1  0
 12 22  1  0
 13 22  1  0
 14 19  1  0
 15 16  1  0
 15 14  1  0
 17 16  1  0
 17 26  1  0
 17 18  1  0
 19 13  1  0
 19 18  1  0
 20 13  2  0
 22 21  1  0
 23 24  2  0
 24 43  1  0
 25 24  1  0
 25 28  1  0
 26 27  1  0
 26 23  1  0
 27 25  2  0
 28 29  1  0
 29 30  2  0
 31 34  1  0
 31 30  1  0
 32 31  2  0
 33 32  1  0
 33 28  2  0
 34 35  1  0
 35 40  2  0
 35 36  1  0
 36 37  2  0
 37 38  1  0
 38 42  1  0
 39 38  2  0
 40 39  1  0
 41 40  1  0
 43 44  1  0
 44 47  1  0
 44 46  1  0
 45 43  2  0
 48 23  1  0
 48 49  1  0
 50 48  1  0
 52 51  1  0
 53 52  1  0
 54 53  1  0
 55 66  2  0
 56 54  1  0
 56 61  1  0
 57 65  1  0
 57 67  1  0
 58 64  1  0
 58 60  1  0
 59 65  1  0
 60 59  1  0
 61 60  2  0
 62 63  1  0
 62 56  2  0
 63 58  2  0
 64 57  1  0
 65 55  1  0
 67 69  2  0
 68 67  1  0
 70 68  1  0
 71 80  2  0
 71 76  1  0
 72 68  1  0
 72 76  1  0
 73 72  1  0
 74 75  1  0
 74 73  1  0
 75 71  1  0
 76 77  2  0
 77 78  1  0
 79 78  2  0
 80 79  1  0
 81 55  1  0
 81 82  1  0
 81 91  1  0
 82 85  1  0
 83 87  1  0
 83 82  1  0
 84 83  2  0
 87 86  1  0
 89 87  1  0
 89 90  1  0
 89 88  1  0
 91 94  1  1
 91 92  1  0
 93 91  1  0
M  ISO  4  13 100  22 100  53 101  54 101
M  END
>  <TORSDO>  (72) 
F 22

>  <SCORE>  (72) 
-11.664

>  <name>  (72) 
71

>  <ligand_id>  (72) 
71

>  <original_smiles>  (72) 
[H]c1c([H])c(C(=O)N([H])C([H])([H])C([H])([H])C([H])([H])Oc2c([H])c([H])c3c(c2[H])C([H])([H])N(C(=O)C([H])(N([H])C(=O)C([H])(N([H])C([H])([H])[H])C([H])([H])[H])C(C([H])([H])[H])(C([H])([H])[H])C([H])([H])[H])C([H])(C(=O)N([H])C2([H])c4c([H])c([H])c([H])c([H])c4C([H])([H])C([H])([H])C2([H])[H])C3([H])[H])c([H])c(C([H])([H])C([H])([H])N(C(=O)N2C([H])([H])C([H])([H])C([H])([H])C([H])(n3nc(-c4c([H])c([H])c(Oc5c([H])c([H])c(F)c([H])c5F)c([H])c4[H])c(C(=O)N([H])[H])c3N([H])[H])C2([H])[H])C([H])([H])[H])c1[H]

>  <smiles>  (72) 
[H]c1c([H])c(C(=O)N([H])C([H])([H])C([H])([H])C([H])([H])Oc2c([H])c([H])c3c(c2[H])C([H])([H])N(C(=O)C([H])(N([H])C(=O)C([H])(N([H])C([H])([H])[H])C([H])([H])[H])C(C([H])([H])[H])(C([H])([H])[H])C([H])([H])[H])C([H])(C(=O)N([H])C2([H])c4c([H])c([H])c([H])c([H])c4C([H])([H])C([H])([H])C2([H])[H])C3([H])[H])c([H])c(C([H])([H])C([H])([H])N(C(=O)N2C([H])([H])C([H])([H])C([H])([H])C([H])(n3nc(-c4c([H])c([H])c(Oc5c([H])c([H])c(F)c([H])c5F)c([H])c4[H])c(C(=O)N([H])[H])c3N([H])[H])C2([H])[H])C([H])([H])[H])c1[H]

$$$$
72:0:0
     RDKit          3D

100108  0  0  1  0  0  0  0  0999 V2000
  -30.8340  -21.5430   20.7660 C   0  0  0  0  0  3  0  0  0  0  0  0
  -31.9870  -20.8560   20.3580 C   0  0  0  0  0  3  0  0  0  0  0  0
  -30.2490  -21.9330   18.4330 C   0  0  0  0  0  3  0  0  0  0  0  0
  -29.9450  -22.0700   19.8040 C   0  0  0  0  0  0  0  0  0  0  0  0
  -32.2690  -20.6800   18.9890 C   0  0  0  0  0  0  0  0  0  0  0  0
  -31.4000  -21.2300   18.0140 C   0  0  0  0  0  0  0  0  0  0  0  0
  -31.6530  -21.0550   16.5210 C   0  0  0  0  0  1  0  0  0  0  0  0
  -28.7130  -22.7560   20.2070 C   0  0  0  0  0  3  0  0  0  0  0  0
  -28.5190  -23.3580   21.3980 C   0  0  0  0  0  3  0  0  0  0  0  0
  -27.2140  -23.8980   21.7320 C   0  0  0  0  0  0  0  0  0  0  0  0
  -27.2130  -24.9430   22.5620 N   0  0  0  0  0  0  0  0  0  0  0  0
  -26.1460  -23.4220   21.3480 O   0  0  0  0  0  0  0  0  0  0  0  0
  -26.2970  -25.2510   22.8570 H   0  0  0  0  0  0  0  0  0  0  0  0
  -28.3140  -25.8230   22.9680 C   0  0  0  0  0  2  0  0  0  0  0  0
  -29.1570  -26.3920   21.7960 C   0  0  0  0  0  2  0  0  0  0  0  0
  -28.4900  -26.4290   20.5330 O   0  0  0  0  0  0  0  0  0  0  0  0
  -24.6970  -31.8100   23.2340 C   0  0  0  0  0  0  0  0  0  0  0  0
  -27.3700  -27.2180   20.4660 C   0  0  0  0  0  0  0  0  0  0  0  0
  -23.5190  -30.3330   21.6350 C   0  0  0  0  0  3  0  0  0  0  0  0
  -24.9920  -28.7170   20.3270 C   0  0  0  0  0  0  0  0  0  0  0  0
  -26.0480  -30.6710   21.4780 C   0  0  0  0  0  2  0  0  0  0  0  0
  -26.1350  -29.2690   20.9180 C   0  0  0  0  0  0  0  0  0  0  0  0
  -27.3290  -28.5270   20.9900 C   0  0  0  0  0  3  0  0  0  0  0  0
  -26.2230  -26.6770   19.8530 C   0  0  0  0  0  3  0  0  0  0  0  0
  -25.0270  -27.4160   19.7930 C   0  0  0  0  0  3  0  0  0  0  0  0
  -23.7520  -29.5780   20.2990 C   0  0  0  0  0  2  0  0  0  0  0  0
  -24.7720  -30.9570   22.1740 N   0  0  0  0  0  0  0  0  0  0  0  0
  -23.6040  -32.1220   23.7270 O   0  0  0  0  0  0  0  0  0  0  0  0
  -22.8300  -29.3740   22.6280 C   0  0  0  0  0  0  0  0  0  0  0  0
  -21.5130  -29.1780   22.4550 N   0  0  0  0  0  0  0  0  0  0  0  0
  -23.4770  -28.8050   23.5120 O   0  0  0  0  0  0  0  0  0  0  0  0
  -21.0530  -29.6820   21.7090 H   0  0  0  0  0  0  0  0  0  0  0  0
  -18.1300  -27.9800   22.8500 C   0  0  0  0  0  0  0  0  0  0  0  0
  -20.6650  -28.2880   23.2460 C   0  0  0  0  0  3  0  0  0  0  0  0
  -20.8130  -26.8220   22.7830 C   0  0  0  0  0  2  0  0  0  0  0  0
  -19.7750  -26.4110   21.7330 C   0  0  0  0  0  2  0  0  0  0  0  0
  -18.3580  -26.5870   22.2890 C   0  0  0  0  0  2  0  0  0  0  0  0
  -19.2160  -28.7860   23.2840 C   0  0  0  0  0  0  0  0  0  0  0  0
  -18.9530  -30.0860   23.7660 C   0  0  0  0  0  3  0  0  0  0  0  0
  -17.6390  -30.5830   23.8180 C   0  0  0  0  0  3  0  0  0  0  0  0
  -16.5660  -29.7750   23.4030 C   0  0  0  0  0  3  0  0  0  0  0  0
  -16.8130  -28.4750   22.9280 C   0  0  0  0  0  3  0  0  0  0  0  0
  -25.9730  -32.4540   23.8590 C   0  0  0  0  0  3  0  0  0  0  0  0
  -26.4970  -31.6940   25.1380 C   0  0  1  0  0  0  0  0  0  0  0  0
  -25.4010  -31.4450   26.2010 C   0  0  0  0  0  1  0  0  0  0  0  0
  -27.0960  -30.3210   24.7470 C   0  0  0  0  0  1  0  0  0  0  0  0
  -27.6350  -32.5060   25.8000 C   0  0  0  0  0  1  0  0  0  0  0  0
  -25.6510  -33.8520   24.1730 N   0  0  0  0  0  0  0  0  0  0  0  0
  -25.9810  -34.8960   23.4010 C   0  0  0  0  0  0  0  0  0  0  0  0
  -26.6570  -34.7840   22.3740 O   0  0  0  0  0  0  0  0  0  0  0  0
  -25.0360  -34.0180   24.9570 H   0  0  0  0  0  0  0  0  0  0  0  0
  -24.2350  -36.6670   23.0290 C   0  0  0  0  0  1  0  0  0  0  0  0
  -25.4820  -36.2850   23.8410 C   0  0  0  0  0  3  0  0  0  0  0  0
  -27.6130  -37.2030   24.6460 C   0  0  0  0  0  1  0  0  0  0  0  0
  -26.5030  -37.3450   23.7060 N   0  0  0  0  0  0  0  0  0  0  0  0
  -26.0860  -38.2630   23.8360 H   0  0  0  0  0  0  0  0  0  0  0  0
  -33.4710  -19.8310   18.6090 C   0  0  0  0  0  2  0  0  0  0  0  0
  -33.0880  -18.3440   18.4690 C   0  0  0  0  0  2  0  0  0  0  0  0
  -32.9570  -17.6240   19.8140 C   0  0  0  0  0  0  0  0  0  0  0  0
  -31.7210  -17.4440   20.3070 N   0  0  0  0  0  0  0  0  0  0  0  0
  -33.9690  -17.2150   20.3860 O   0  0  0  0  0  0  0  0  0  0  0  0
  -30.9600  -17.8900   19.8080 H   0  0  0  0  0  0  0  0  0  0  0  0
  -31.3650  -16.5710   21.4350 C   0  0  0  0  0  2  0  0  0  0  0  0
  -30.2770  -15.5080   21.1090 C   0  0  0  0  0  2  0  0  0  0  0  0
  -30.6730  -14.4210   20.0910 C   0  0  0  0  0  0  0  0  0  0  0  0
  -30.2530  -12.2790   18.9410 C   0  0  0  0  0  2  0  0  0  0  0  0
  -29.2500  -12.4510   17.7880 C   0  0  0  0  0  2  0  0  0  0  0  0
  -27.8050  -12.3000   18.2980 C   0  0  0  0  0  2  0  0  0  0  0  0
  -27.5270  -13.1720   19.5480 C   0  0  0  0  0  3  0  0  0  0  0  0
  -28.6420  -13.0110   20.6080 C   0  0  0  0  0  2  0  0  0  0  0  0
  -29.9370  -13.2840   19.9680 N   0  0  0  0  0  0  0  0  0  0  0  0
  -31.6660  -14.6170   19.3900 O   0  0  0  0  0  0  0  0  0  0  0  0
  -25.1630  -13.7620   20.3810 C   0  0  0  0  0  0  0  0  0  0  0  0
  -24.1260  -12.9810   20.8140 C   0  0  0  0  0  0  0  0  0  0  0  0
  -24.6000  -11.6320   20.7730 C   0  0  0  0  0  0  0  0  0  0  0  0
  -26.2060  -12.8890   20.1060 N   0  0  0  0  0  0  0  0  0  0  0  0
  -25.8730  -11.6040   20.4000 N   0  0  0  0  0  0  0  0  0  0  0  0
  -23.8990  -10.3660   21.0200 C   0  0  0  0  0  0  0  0  0  0  0  0
  -24.3640   -9.4420   21.9810 C   0  0  0  0  0  3  0  0  0  0  0  0
  -23.6690   -8.2370   22.2140 C   0  0  0  0  0  3  0  0  0  0  0  0
  -22.4900   -7.9470   21.4880 C   0  0  0  0  0  0  0  0  0  0  0  0
  -22.0420   -8.8580   20.5150 C   0  0  0  0  0  3  0  0  0  0  0  0
  -22.7370  -10.0560   20.2820 C   0  0  0  0  0  3  0  0  0  0  0  0
  -21.7630   -6.7880   21.6270 O   0  0  0  0  0  0  0  0  0  0  0  0
  -21.7210   -6.1040   22.8160 C   0  0  0  0  0  0  0  0  0  0  0  0
  -21.2750   -6.7140   24.0100 C   0  0  0  0  0  3  0  0  0  0  0  0
  -21.1780   -5.9560   25.1930 C   0  0  0  0  0  3  0  0  0  0  0  0
  -21.5170   -4.5890   25.1850 C   0  0  0  0  0  0  0  0  0  0  0  0
  -21.9600   -3.9800   23.9970 C   0  0  0  0  0  3  0  0  0  0  0  0
  -22.0570   -4.7360   22.8160 C   0  0  0  0  0  0  0  0  0  0  0  0
  -22.4610   -4.1420   21.6690 F   0  0  0  0  0  0  0  0  0  0  0  0
  -21.4190   -3.8580   26.3200 F   0  0  0  0  0  0  0  0  0  0  0  0
  -22.7400  -13.4400   21.1620 C   0  0  0  0  0  0  0  0  0  0  0  0
  -22.0800  -12.7450   22.0810 N   0  0  0  0  0  0  0  0  0  0  0  0
  -22.2550  -14.4500   20.6540 O   0  0  0  0  0  0  0  0  0  0  0  0
  -22.4960  -11.9320   22.5100 H   0  0  0  0  0  0  0  0  0  0  0  0
  -21.1510  -13.0250   22.3570 H   0  0  0  0  0  0  0  0  0  0  0  0
  -25.3060  -15.1330   20.1800 N   0  0  0  0  0  0  0  0  0  0  0  0
  -24.5370  -15.7810   20.3090 H   0  0  0  0  0  0  0  0  0  0  0  0
  -26.1420  -15.5750   19.8180 H   0  0  0  0  0  0  0  0  0  0  0  0
  2  1  1  0
  3  4  1  0
  4  8  1  0
  4  1  2  0
  5  2  2  0
  6  3  2  0
  6  5  1  0
  7  6  1  0
  8  9  2  0
  9 10  1  0
 10 11  1  0
 11 13  1  0
 11 14  1  0
 12 10  2  0
 15 14  1  0
 16 15  1  0
 17 28  2  0
 18 16  1  0
 18 23  1  0
 19 27  1  0
 19 29  1  0
 20 22  1  0
 21 27  1  0
 22 23  2  0
 22 21  1  0
 24 18  2  0
 25 24  1  0
 25 20  2  0
 26 20  1  0
 26 19  1  0
 27 17  1  0
 29 31  2  0
 30 29  1  0
 32 30  1  0
 33 42  2  0
 33 38  1  0
 34 30  1  0
 34 38  1  0
 35 34  1  0
 36 37  1  0
 36 35  1  0
 37 33  1  0
 38 39  2  0
 39 40  1  0
 41 40  2  0
 42 41  1  0
 43 17  1  0
 43 48  1  0
 43 44  1  0
 44 47  1  1
 44 45  1  0
 46 44  1  0
 48 51  1  0
 49 53  1  0
 49 48  1  0
 50 49  2  0
 53 52  1  0
 55 56  1  0
 55 53  1  0
 55 54  1  0
 57  5  1  0
 58 57  1  0
 58 59  1  0
 59 60  1  0
 59 61  2  0
 60 63  1  0
 62 60  1  0
 64 63  1  0
 65 64  1  0
 66 71  1  0
 67 68  1  0
 67 66  1  0
 69 68  1  0
 69 76  1  0
 69 70  1  0
 71 65  1  0
 71 70  1  0
 72 65  2  0
 73 74  2  0
 74 93  1  0
 75 74  1  0
 75 78  1  0
 76 73  1  0
 76 77  1  0
 77 75  2  0
 78 79  1  0
 79 80  2  0
 81 84  1  0
 81 80  1  0
 82 81  2  0
 83 82  1  0
 83 78  2  0
 84 85  1  0
 85 86  1  0
 86 87  2  0
 88 87  1  0
 88 92  1  0
 89 88  2  0
 90 85  2  0
 90 89  1  0
 91 90  1  0
 93 94  1  0
 94 97  1  0
 94 96  1  0
 95 93  2  0
 98 99  1  0
 98 73  1  0
100 98  1  0
M  ISO  4  15 101  16 101  64 100  65 100
M  END
>  <TORSDO>  (73) 
F 25

>  <SCORE>  (73) 
-11.916

>  <name>  (73) 
72

>  <ligand_id>  (73) 
72

>  <original_smiles>  (73) 
[H]C(C(=O)N([H])C([H])([H])C([H])([H])Oc1c([H])c([H])c2c(c1[H])C([H])([H])N(C(=O)C([H])(N([H])C(=O)C([H])(N([H])C([H])([H])[H])C([H])([H])[H])C(C([H])([H])[H])(C([H])([H])[H])C([H])([H])[H])C([H])(C(=O)N([H])C1([H])c3c([H])c([H])c([H])c([H])c3C([H])([H])C([H])([H])C1([H])[H])C2([H])[H])=C([H])c1c([H])c([H])c(C([H])([H])C([H])([H])C(=O)N([H])C([H])([H])C([H])([H])C(=O)N2C([H])([H])C([H])([H])C([H])([H])C([H])(n3nc(-c4c([H])c([H])c(Oc5c([H])c([H])c(F)c([H])c5F)c([H])c4[H])c(C(=O)N([H])[H])c3N([H])[H])C2([H])[H])c(C([H])([H])[H])c1[H]

>  <smiles>  (73) 
[H]C(C(=O)N([H])C([H])([H])C([H])([H])Oc1c([H])c([H])c2c(c1[H])C([H])([H])N(C(=O)C([H])(N([H])C(=O)C([H])(N([H])C([H])([H])[H])C([H])([H])[H])C(C([H])([H])[H])(C([H])([H])[H])C([H])([H])[H])C([H])(C(=O)N([H])C1([H])c3c([H])c([H])c([H])c([H])c3C([H])([H])C([H])([H])C1([H])[H])C2([H])[H])=C([H])c1c([H])c([H])c(C([H])([H])C([H])([H])C(=O)N([H])C([H])([H])C([H])([H])C(=O)N2C([H])([H])C([H])([H])C([H])([H])C([H])(n3nc(-c4c([H])c([H])c(Oc5c([H])c([H])c(F)c([H])c5F)c([H])c4[H])c(C(=O)N([H])[H])c3N([H])[H])C2([H])[H])c(C([H])([H])[H])c1[H]

$$$$
73:0:0
     RDKit          3D

 92100  0  0  1  0  0  0  0  0999 V2000
  -29.7200  -21.7000   22.3980 C   0  0  0  0  0  3  0  0  0  0  0  0
  -29.2020  -22.8720   21.7790 C   0  0  0  0  0  3  0  0  0  0  0  0
  -29.7740  -20.4110   21.7960 C   0  0  0  0  0  3  0  0  0  0  0  0
  -28.7620  -21.4550   19.8790 C   0  0  0  0  0  3  0  0  0  0  0  0
  -28.6720  -22.8770   20.4710 C   0  0  0  0  0  0  0  0  0  0  0  0
  -29.3170  -20.1470   20.4850 C   0  0  0  0  0  0  0  0  0  0  0  0
  -27.9420  -24.3580   19.9070 C   0  0  0  0  0  2  0  0  0  0  0  0
  -28.1460  -25.9430   20.2960 O   0  0  0  0  0  0  0  0  0  0  0  0
  -24.6210  -31.9340   23.1870 C   0  0  0  0  0  0  0  0  0  0  0  0
  -27.1440  -27.0410   20.1860 C   0  0  0  0  0  0  0  0  0  0  0  0
  -23.4030  -30.5170   21.5810 C   0  0  0  0  0  3  0  0  0  0  0  0
  -24.8330  -28.9020   20.1510 C   0  0  0  0  0  0  0  0  0  0  0  0
  -25.9630  -30.7380   21.3890 C   0  0  0  0  0  2  0  0  0  0  0  0
  -26.0270  -29.3220   20.7510 C   0  0  0  0  0  0  0  0  0  0  0  0
  -27.1730  -28.4090   20.7500 C   0  0  0  0  0  3  0  0  0  0  0  0
  -25.9240  -26.7780   19.5230 C   0  0  0  0  0  3  0  0  0  0  0  0
  -24.8050  -27.6510   19.5160 C   0  0  0  0  0  3  0  0  0  0  0  0
  -23.6120  -29.8180   20.2080 C   0  0  0  0  0  2  0  0  0  0  0  0
  -24.6840  -31.0910   22.1060 N   0  0  0  0  0  0  0  0  0  0  0  0
  -23.5400  -32.2260   23.7230 O   0  0  0  0  0  0  0  0  0  0  0  0
  -22.7270  -29.5310   22.5700 C   0  0  0  0  0  0  0  0  0  0  0  0
  -21.4010  -29.3390   22.4490 N   0  0  0  0  0  0  0  0  0  0  0  0
  -23.4040  -28.9390   23.4150 O   0  0  0  0  0  0  0  0  0  0  0  0
  -20.9090  -29.8700   21.7450 H   0  0  0  0  0  0  0  0  0  0  0  0
  -18.0390  -28.0850   22.9870 C   0  0  0  0  0  0  0  0  0  0  0  0
  -20.5950  -28.4030   23.2400 C   0  0  0  0  0  3  0  0  0  0  0  0
  -20.7210  -26.9610   22.6950 C   0  0  0  0  0  2  0  0  0  0  0  0
  -19.6230  -26.5970   21.6910 C   0  0  0  0  0  2  0  0  0  0  0  0
  -18.2400  -26.7270   22.3350 C   0  0  0  0  0  2  0  0  0  0  0  0
  -19.1430  -28.8780   23.3980 C   0  0  0  0  0  0  0  0  0  0  0  0
  -18.9000  -30.1450   23.9710 C   0  0  0  0  0  3  0  0  0  0  0  0
  -17.5840  -30.6200   24.1350 C   0  0  0  0  0  3  0  0  0  0  0  0
  -16.4950  -29.8260   23.7390 C   0  0  0  0  0  3  0  0  0  0  0  0
  -16.7230  -28.5600   23.1700 C   0  0  0  0  0  3  0  0  0  0  0  0
  -25.9010  -32.5840   23.7910 C   0  0  0  0  0  3  0  0  0  0  0  0
  -25.5810  -33.9820   24.1340 N   0  0  0  0  0  0  0  0  0  0  0  0
  -25.8810  -35.0450   23.3760 C   0  0  0  0  0  0  0  0  0  0  0  0
  -26.5230  -34.9540   22.3260 O   0  0  0  0  0  0  0  0  0  0  0  0
  -25.0080  -34.1230   24.9520 H   0  0  0  0  0  0  0  0  0  0  0  0
  -24.1410  -36.8410   23.0790 C   0  0  0  0  0  1  0  0  0  0  0  0
  -25.4000  -36.4280   23.8600 C   0  0  0  0  0  3  0  0  0  0  0  0
  -27.5390  -37.3280   24.6660 C   0  0  0  0  0  1  0  0  0  0  0  0
  -26.4250  -37.4880   23.7350 N   0  0  0  0  0  0  0  0  0  0  0  0
  -26.0150  -38.4060   23.8830 H   0  0  0  0  0  0  0  0  0  0  0  0
  -26.4390  -31.8220   25.0660 C   0  0  1  0  0  0  0  0  0  0  0  0
  -25.3590  -31.5760   26.1470 C   0  0  0  0  0  1  0  0  0  0  0  0
  -27.0350  -30.4490   24.6800 C   0  0  0  0  0  1  0  0  0  0  0  0
  -27.5860  -32.6320   25.7150 C   0  0  0  0  0  1  0  0  0  0  0  0
  -29.6150  -18.5290   19.8670 C   0  0  0  0  0  3  0  0  0  0  0  0
  -29.7920  -16.9270   20.6730 C   0  0  0  0  0  2  0  0  0  0  0  0
  -30.5230  -15.3870   20.2320 C   0  0  0  0  0  0  0  0  0  0  0  0
  -30.5250  -12.9360   19.3590 C   0  0  0  0  0  2  0  0  0  0  0  0
  -29.5970  -12.7560   18.1310 C   0  0  0  0  0  2  0  0  0  0  0  0
  -28.1520  -12.4670   18.5760 C   0  0  0  0  0  2  0  0  0  0  0  0
  -27.7090  -13.4010   19.7290 C   0  0  0  0  0  3  0  0  0  0  0  0
  -28.7670  -13.5420   20.8440 C   0  0  0  0  0  2  0  0  0  0  0  0
  -29.9970  -14.0590   20.2190 N   0  0  0  0  0  0  0  0  0  0  0  0
  -31.7050  -15.4030   19.8590 O   0  0  0  0  0  0  0  0  0  0  0  0
  -25.3450  -13.9130   20.5380 C   0  0  0  0  0  0  0  0  0  0  0  0
  -24.3000  -13.1140   20.9100 C   0  0  0  0  0  0  0  0  0  0  0  0
  -24.7820  -11.7700   20.8410 C   0  0  0  0  0  0  0  0  0  0  0  0
  -26.3930  -13.0560   20.2520 N   0  0  0  0  0  0  0  0  0  0  0  0
  -26.0680  -11.7590   20.5020 N   0  0  0  0  0  0  0  0  0  0  0  0
  -24.0710  -10.4960   21.0180 C   0  0  0  0  0  0  0  0  0  0  0  0
  -24.4950   -9.5390   21.9650 C   0  0  0  0  0  3  0  0  0  0  0  0
  -23.7810   -8.3320   22.1330 C   0  0  0  0  0  3  0  0  0  0  0  0
  -22.6320   -8.0730   21.3490 C   0  0  0  0  0  0  0  0  0  0  0  0
  -22.2280   -9.0180   20.3910 C   0  0  0  0  0  3  0  0  0  0  0  0
  -22.9410  -10.2170   20.2230 C   0  0  0  0  0  3  0  0  0  0  0  0
  -21.8930   -6.9160   21.4230 O   0  0  0  0  0  0  0  0  0  0  0  0
  -21.7830   -6.2040   22.5910 C   0  0  0  0  0  0  0  0  0  0  0  0
  -21.2100   -6.7650   23.7530 C   0  0  0  0  0  3  0  0  0  0  0  0
  -21.0530   -5.9770   24.9100 C   0  0  0  0  0  3  0  0  0  0  0  0
  -21.4560   -4.6290   24.9050 C   0  0  0  0  0  0  0  0  0  0  0  0
  -22.0220   -4.0670   23.7470 C   0  0  0  0  0  3  0  0  0  0  0  0
  -22.1810   -4.8520   22.5920 C   0  0  0  0  0  0  0  0  0  0  0  0
  -22.7050   -4.2990   21.4720 F   0  0  0  0  0  0  0  0  0  0  0  0
  -21.3000   -3.8700   26.0150 F   0  0  0  0  0  0  0  0  0  0  0  0
  -22.9030  -13.5680   21.2160 C   0  0  0  0  0  0  0  0  0  0  0  0
  -22.1940  -12.8380   22.0690 N   0  0  0  0  0  0  0  0  0  0  0  0
  -22.4490  -14.6060   20.7360 O   0  0  0  0  0  0  0  0  0  0  0  0
  -22.5760  -12.0000   22.4800 H   0  0  0  0  0  0  0  0  0  0  0  0
  -21.2560  -13.1210   22.3140 H   0  0  0  0  0  0  0  0  0  0  0  0
  -25.4860  -15.2900   20.3930 N   0  0  0  0  0  0  0  0  0  0  0  0
  -24.7130  -15.9290   20.5510 H   0  0  0  0  0  0  0  0  0  0  0  0
  -26.3230  -15.7570   20.0650 H   0  0  0  0  0  0  0  0  0  0  0  0
  -28.7020  -18.2690   18.6400 C   0  0  0  0  0  2  0  0  0  0  0  0
  -29.1870  -18.8690   17.3140 C   0  0  0  0  0  0  0  0  0  0  0  0
  -30.2470  -18.3250   16.7270 N   0  0  0  0  0  0  0  0  0  0  0  0
  -28.5730  -19.7880   16.7760 O   0  0  0  0  0  0  0  0  0  0  0  0
  -30.7300  -17.5390   17.1390 H   0  0  0  0  0  0  0  0  0  0  0  0
  -30.5740  -18.6880   15.8410 H   0  0  0  0  0  0  0  0  0  0  0  0
  2  1  2  0
  3  1  1  0
  4  5  2  0
  4  6  1  0
  5  2  1  0
  6  3  2  0
  7  8  1  0
  7  5  1  0
  9 20  2  0
 10  8  1  0
 10 15  1  0
 11 19  1  0
 11 21  1  0
 12 18  1  0
 12 14  1  0
 13 19  1  0
 14 13  1  0
 15 14  2  0
 16 10  2  0
 17 16  1  0
 17 12  2  0
 18 11  1  0
 19  9  1  0
 21 23  2  0
 22 21  1  0
 24 22  1  0
 25 34  2  0
 25 30  1  0
 26 22  1  0
 26 30  1  0
 27 26  1  0
 28 29  1  0
 28 27  1  0
 29 25  1  0
 30 31  2  0
 31 32  1  0
 33 32  2  0
 34 33  1  0
 35  9  1  0
 35 36  1  0
 35 45  1  0
 36 39  1  0
 37 41  1  0
 37 36  1  0
 38 37  2  0
 41 40  1  0
 43 41  1  0
 43 44  1  0
 43 42  1  0
 45 48  1  1
 45 46  1  0
 47 45  1  0
 49 87  1  0
 49  6  1  0
 49 50  1  0
 51 50  1  0
 52 57  1  0
 53 54  1  0
 53 52  1  0
 55 54  1  0
 55 62  1  0
 55 56  1  0
 57 51  1  0
 57 56  1  0
 58 51  2  0
 59 60  2  0
 60 79  1  0
 61 60  1  0
 61 64  1  0
 62 63  1  0
 62 59  1  0
 63 61  2  0
 64 65  1  0
 65 66  2  0
 67 70  1  0
 67 66  1  0
 68 67  2  0
 69 68  1  0
 69 64  2  0
 70 71  1  0
 71 76  2  0
 71 72  1  0
 72 73  2  0
 74 73  1  0
 74 78  1  0
 75 74  2  0
 76 75  1  0
 77 76  1  0
 79 80  1  0
 80 83  1  0
 80 82  1  0
 81 79  2  0
 84 59  1  0
 84 85  1  0
 86 84  1  0
 88 87  1  0
 89 91  1  0
 89 88  1  0
 90 88  2  0
 92 89  1  0
M  ISO  4   7 101   8 101  50 100  51 100
M  END
>  <TORSDO>  (74) 
F 21

>  <SCORE>  (74) 
-15.774

>  <name>  (74) 
73

>  <ligand_id>  (74) 
73

>  <original_smiles>  (74) 
[H]c1c([H])c([H])c2c(c1[H])C([H])([H])C([H])([H])C([H])([H])C2([H])N([H])C(=O)C1([H])N(C(=O)C([H])(N([H])C(=O)C([H])(N([H])C([H])([H])[H])C([H])([H])[H])C(C([H])([H])[H])(C([H])([H])[H])C([H])([H])[H])C([H])([H])c2c([H])c(OC([H])([H])c3c([H])c([H])c([H])c(C([H])(C([H])([H])C(=O)N([H])[H])C([H])([H])C(=O)N4C([H])([H])C([H])([H])C([H])([H])C([H])(n5nc(-c6c([H])c([H])c(Oc7c([H])c([H])c(F)c([H])c7F)c([H])c6[H])c(C(=O)N([H])[H])c5N([H])[H])C4([H])[H])c3[H])c([H])c([H])c2C1([H])[H]

>  <smiles>  (74) 
[H]c1c([H])c([H])c2c(c1[H])C([H])([H])C([H])([H])C([H])([H])C2([H])N([H])C(=O)C1([H])N(C(=O)C([H])(N([H])C(=O)C([H])(N([H])C([H])([H])[H])C([H])([H])[H])C(C([H])([H])[H])(C([H])([H])[H])C([H])([H])[H])C([H])([H])c2c([H])c(OC([H])([H])c3c([H])c([H])c([H])c(C([H])(C([H])([H])C(=O)N([H])[H])C([H])([H])C(=O)N4C([H])([H])C([H])([H])C([H])([H])C([H])(n5nc(-c6c([H])c([H])c(Oc7c([H])c([H])c(F)c([H])c7F)c([H])c6[H])c(C(=O)N([H])[H])c5N([H])[H])C4([H])[H])c3[H])c([H])c([H])c2C1([H])[H]

$$$$
74:0:0
     RDKit          3D

 97105  0  0  1  0  0  0  0  0999 V2000
  -24.0820  -26.7210   24.7590 C   0  0  0  0  0  2  0  0  0  0  0  0
  -23.4750  -28.5080   25.8300 C   0  0  0  0  0  2  0  0  0  0  0  0
  -22.8120  -27.8730   24.8040 C   0  0  0  0  0  2  0  0  0  0  0  0
  -25.5970  -26.9420   24.6840 C   0  0  0  0  0  3  0  0  0  0  0  0
  -25.3170  -28.1400   26.0190 S   0  0  0  0  0  0  0  0  0  0  0  0
  -20.0620  -29.3110   23.7820 C   0  0  0  0  0  1  0  0  0  0  0  0
  -21.5520  -28.8440   23.4020 C   0  0  0  0  0  2  0  0  0  0  0  0
  -21.9740  -29.3790   21.6630 N   0  0  0  0  0  4  0  0  0  0  0  0
  -21.1770  -29.0240   21.1390 H   0  0  0  0  0  0  0  0  0  0  0  0
  -21.8250  -30.3790   21.5710 H   0  0  0  0  0  0  0  0  0  0  0  0
  -23.3060  -28.9960   20.4680 C   0  0  0  0  0  2  0  0  0  0  0  0
  -23.8320  -27.4400   19.3780 C   0  0  1  0  0  0  0  0  0  0  0  0
  -23.4660  -25.7570   19.0720 O   0  0  0  0  0  0  0  0  0  0  0  0
  -17.9520  -26.3760   18.9520 C   0  0  0  0  0  0  0  0  0  0  0  0
  -23.3520  -24.6290   19.8820 C   0  0  0  0  0  3  0  0  0  0  0  0
  -20.0830  -27.4530   19.6210 C   0  0  0  0  0  3  0  0  0  0  0  0
  -21.6570  -26.2080   21.0920 C   0  0  0  0  0  3  0  0  0  0  0  0
  -19.6370  -25.0720   20.2090 C   0  0  0  0  0  2  0  0  0  0  0  0
  -21.1290  -25.0900   20.4480 C   0  0  0  0  0  3  0  0  0  0  0  0
  -22.0220  -24.1530   19.9230 C   0  0  0  0  0  2  0  0  0  0  0  0
  -23.8590  -25.1880   21.0200 C   0  0  0  0  0  2  0  0  0  0  0  0
  -22.9980  -26.1770   21.5500 C   0  0  0  0  0  2  0  0  0  0  0  0
  -20.7130  -27.3730   21.0720 C   0  0  0  0  0  2  0  0  0  0  0  0
  -19.1630  -26.3080   19.5620 N   0  0  0  0  0  0  0  0  0  0  0  0
  -17.5300  -27.3820   18.4070 O   0  0  0  0  0  0  0  0  0  0  0  0
  -21.1240  -27.4910   18.2750 C   0  0  0  0  0  0  0  0  0  0  0  0
  -22.6440  -27.6910   18.1020 N   0  0  1  0  0  4  0  0  0  0  0  0
  -20.5020  -27.4390   17.2740 O   0  0  0  0  0  0  0  0  0  0  0  0
  -22.7570  -27.5710   17.0890 H   0  0  0  0  0  0  0  0  0  0  0  0
  -25.9320  -29.7680   20.2150 C   0  0  0  0  0  0  0  0  0  0  0  0
  -24.0760  -28.6180   18.5590 C   0  0  2  0  0  0  0  0  0  0  0  0
  -25.1350  -27.6700   18.2350 C   0  0  0  0  0  3  0  0  0  0  0  0
  -26.0250  -27.4190   19.4190 C   0  0  0  0  0  2  0  0  0  0  0  0
  -26.8090  -28.6860   19.7000 C   0  0  0  0  0  2  0  0  0  0  0  0
  -24.6380  -29.8760   19.6310 C   0  0  1  0  0  0  0  0  0  0  0  0
  -24.0660  -31.1580   20.0490 C   0  0  0  0  0  2  0  0  0  0  0  0
  -24.4970  -31.9490   21.1590 C   0  0  0  0  0  3  0  0  0  0  0  0
  -25.7330  -31.6880   21.7500 C   0  0  0  0  0  3  0  0  0  0  0  0
  -26.4670  -30.6180   21.2200 C   0  0  0  0  0  3  0  0  0  0  0  0
  -17.0260  -25.1680   18.8630 C   0  0  0  0  0  3  0  0  0  0  0  0
  -16.5200  -24.9480   17.3820 C   0  0  1  0  0  0  0  0  0  0  0  0
  -15.6170  -26.0650   16.7860 C   0  0  0  0  0  1  0  0  0  0  0  0
  -17.7250  -24.7770   16.4190 C   0  0  0  0  0  1  0  0  0  0  0  0
  -15.6950  -23.6470   17.3330 C   0  0  0  0  0  1  0  0  0  0  0  0
  -15.8950  -25.4030   19.7740 N   0  0  0  0  0  0  0  0  0  0  0  0
  -15.7000  -24.7380   20.9190 C   0  0  0  0  0  0  0  0  0  0  0  0
  -16.4500  -23.8330   21.2900 O   0  0  0  0  0  0  0  0  0  0  0  0
  -15.2770  -26.1700   19.5480 H   0  0  0  0  0  0  0  0  0  0  0  0
  -14.8840  -25.9590   22.9660 C   0  0  0  0  0  1  0  0  0  0  0  0
  -14.4630  -25.1050   21.7620 C   0  0  0  0  0  3  0  0  0  0  0  0
  -12.9780  -23.2450   21.1460 C   0  0  0  0  0  1  0  0  0  0  0  0
  -13.6970  -23.9250   22.2190 N   0  0  0  0  0  0  0  0  0  0  0  0
  -13.0200  -24.1880   22.9290 H   0  0  0  0  0  0  0  0  0  0  0  0
  -27.3880  -26.2850   24.2990 C   0  0  0  0  0  1  0  0  0  0  0  0
  -28.8790  -25.8420   23.0020 C   0  0  0  0  0 15  0  0  0  0  0  0
  -30.8300  -26.2560   22.5770 C   0  0  0  0  0  1  0  0  0  0  0  0
  -33.5920  -26.9690   20.8990 C   0  0  0  0  0  0  0  0  0  0  0  0
  -32.1410  -26.3890   21.2650 N   0  0  0  0  0  0  0  0  0  0  0  0
  -34.0070  -27.6790   21.8130 O   0  0  0  0  0  0  0  0  0  0  0  0
  -31.8990  -25.7410   20.5200 H   0  0  0  0  0  0  0  0  0  0  0  0
  -34.9330  -26.8300   19.5130 C   0  0  0  0  0  2  0  0  0  0  0  0
  -36.8280  -27.0860   19.0790 C   0  0  0  0  0  0  0  0  0  0  0  0
  -38.8380  -28.1340   17.4800 C   0  0  0  0  0  2  0  0  0  0  0  0
  -38.7410  -29.6480   17.0710 C   0  0  0  0  0  2  0  0  0  0  0  0
  -37.6870  -29.8600   15.9730 C   0  0  0  0  0  2  0  0  0  0  0  0
  -36.4410  -29.0000   16.2900 C   0  0  0  0  0  3  0  0  0  0  0  0
  -36.7760  -27.5280   16.5360 C   0  0  0  0  0  2  0  0  0  0  0  0
  -37.4560  -27.4970   17.8130 N   0  0  0  0  0  0  0  0  0  0  0  0
  -37.8090  -26.9800   19.8660 O   0  0  0  0  0  0  0  0  0  0  0  0
  -34.0740  -28.7240   15.4690 C   0  0  0  0  0  0  0  0  0  0  0  0
  -33.4720  -29.0110   14.2860 C   0  0  0  0  0  0  0  0  0  0  0  0
  -34.4970  -29.5310   13.4350 C   0  0  0  0  0  0  0  0  0  0  0  0
  -35.3950  -29.0850   15.3090 N   0  0  0  0  0  0  0  0  0  0  0  0
  -35.6690  -29.5090   14.0530 N   0  0  0  0  0  0  0  0  0  0  0  0
  -34.4200  -30.1100   12.0950 C   0  0  0  0  0  0  0  0  0  0  0  0
  -35.0770  -29.5230   10.9920 C   0  0  0  0  0  3  0  0  0  0  0  0
  -34.9660  -30.0970    9.7080 C   0  0  0  0  0  3  0  0  0  0  0  0
  -34.1900  -31.2650    9.5170 C   0  0  0  0  0  0  0  0  0  0  0  0
  -33.5600  -31.8590   10.6250 C   0  0  0  0  0  3  0  0  0  0  0  0
  -33.6750  -31.2900   11.9030 C   0  0  0  0  0  3  0  0  0  0  0  0
  -34.0440  -31.9070    8.3120 O   0  0  0  0  0  0  0  0  0  0  0  0
  -34.0890  -31.2230    7.1260 C   0  0  0  0  0  0  0  0  0  0  0  0
  -33.1760  -30.1900    6.8230 C   0  0  0  0  0  3  0  0  0  0  0  0
  -33.2170  -29.5610    5.5620 C   0  0  0  0  0  3  0  0  0  0  0  0
  -34.1630  -29.9690    4.6020 C   0  0  0  0  0  0  0  0  0  0  0  0
  -35.0710  -30.9990    4.9010 C   0  0  0  0  0  3  0  0  0  0  0  0
  -35.0330  -31.6260    6.1600 C   0  0  0  0  0  0  0  0  0  0  0  0
  -35.8970  -32.6340    6.4330 F   0  0  0  0  0  0  0  0  0  0  0  0
  -34.1990  -29.3700    3.3880 F   0  0  0  0  0  0  0  0  0  0  0  0
  -32.0040  -28.9030   13.9890 C   0  0  0  0  0  0  0  0  0  0  0  0
  -31.6540  -28.5530   12.7610 N   0  0  0  0  0  0  0  0  0  0  0  0
  -31.1660  -29.0880   14.8720 O   0  0  0  0  0  0  0  0  0  0  0  0
  -32.3450  -28.3840   12.0460 H   0  0  0  0  0  0  0  0  0  0  0  0
  -30.6770  -28.4500   12.5300 H   0  0  0  0  0  0  0  0  0  0  0  0
  -33.6140  -28.2090   16.6840 N   0  0  0  0  0  0  0  0  0  0  0  0
  -32.6310  -28.0170   16.8530 H   0  0  0  0  0  0  0  0  0  0  0  0
  -34.1740  -28.1760   17.5260 H   0  0  0  0  0  0  0  0  0  0  0  0
  1  3  1  0
  2  5  1  0
  3  2  1  0
  4 54  1  0
  4  1  1  0
  4  5  1  0
  7  6  1  0
  8  7  1  0
  9  8  1  0
 10  8  1  0
 11  8  1  0
 12 13  1  6
 13 15  1  0
 14 24  1  0
 15 20  1  0
 15 21  1  0
 16 23  1  0
 17 23  1  0
 17 22  1  0
 18 19  1  0
 19 20  1  0
 19 17  1  0
 21 22  1  0
 24 16  1  0
 24 18  1  0
 25 14  2  0
 26 16  1  0
 27 26  1  0
 27 12  1  0
 28 26  2  0
 27 29  1  6
 30 39  2  0
 31 27  1  0
 31 12  1  0
 31 35  1  0
 31 32  1  6
 32 12  1  0
 32 33  1  0
 33 34  1  0
 34 30  1  0
 35 36  1  0
 35 30  1  0
 35 11  1  1
 36 37  1  0
 37 38  2  0
 39 38  1  0
 40 14  1  0
 40 45  1  0
 41 40  1  0
 41 42  1  6
 43 41  1  0
 44 41  1  0
 45 46  1  0
 46 47  2  0
 46 50  1  0
 48 45  1  0
 50 52  1  0
 50 49  1  0
 51 52  1  0
 52 53  1  0
 57 58  1  0
 57 59  2  0
 58 56  1  0
 60 58  1  0
 61 57  1  0
 62 61  1  0
 62 69  2  0
 63 68  1  0
 64 63  1  0
 65 66  1  0
 65 64  1  0
 66 73  1  0
 66 67  1  0
 67 68  1  0
 68 62  1  0
 70 95  1  0
 71 70  2  0
 72 74  2  0
 72 71  1  0
 73 70  1  0
 74 73  1  0
 75 72  1  0
 76 75  2  0
 77 76  1  0
 78 77  2  0
 78 79  1  0
 79 80  2  0
 80 75  1  0
 81 78  1  0
 82 81  1  0
 83 82  1  0
 84 83  2  0
 85 86  2  0
 85 84  1  0
 86 87  1  0
 87 88  1  0
 87 82  2  0
 89 85  1  0
 90 71  1  0
 90 92  2  0
 91 90  1  0
 93 91  1  0
 94 91  1  0
 95 96  1  0
 95 97  1  0
M  ISO  4  12 101  13 101  61 100  62 100
M  END
>  <TORSDO>  (75) 
F 25

>  <SCORE>  (75) 
-5.364

>  <name>  (75) 
74

>  <ligand_id>  (75) 
74

>  <original_smiles>  (75) 
[H]c1sc(C([H])([H])C([H])([H])C([H])([H])N([H])C(=O)C([H])([H])C(=O)N2C([H])([H])C([H])([H])C([H])([H])C([H])(n3nc(-c4c([H])c([H])c(Oc5c([H])c([H])c(F)c([H])c5F)c([H])c4[H])c(C(=O)N([H])[H])c3N([H])[H])C2([H])[H])c([H])c1C([H])(C([H])([H])[H])[N+]([H])([H])C([H])([H])C([H])([H])Oc1c([H])c([H])c2c(c1[H])C([H])([H])N(C(=O)C([H])(N([H])C(=O)C([H])(N([H])C([H])([H])[H])C([H])([H])[H])C(C([H])([H])[H])(C([H])([H])[H])C([H])([H])[H])C([H])(C(=O)N([H])C1([H])c3c([H])c([H])c([H])c([H])c3C([H])([H])C([H])([H])C1([H])[H])C2([H])[H]

>  <smiles>  (75) 
[H]c1sc(C([H])([H])C([H])([H])C([H])([H])N([H])C(=O)C([H])([H])C(=O)N2C([H])([H])C([H])([H])C([H])([H])C([H])(n3nc(-c4c([H])c([H])c(Oc5c([H])c([H])c(F)c([H])c5F)c([H])c4[H])c(C(=O)N([H])[H])c3N([H])[H])C2([H])[H])c([H])c1C([H])(C([H])([H])[H])[N+]([H])([H])C([H])([H])C([H])([H])Oc1c([H])c([H])c2c(c1[H])C([H])([H])N(C(=O)C([H])(N([H])C(=O)C([H])(N([H])C([H])([H])[H])C([H])([H])[H])C(C([H])([H])[H])(C([H])([H])[H])C([H])([H])[H])C([H])(C(=O)N([H])C1([H])c3c([H])c([H])c([H])c([H])c3C([H])([H])C([H])([H])C1([H])[H])C2([H])[H]

$$$$
75:0:0
     RDKit          3D

 93101  0  0  1  0  0  0  0  0999 V2000
  -28.8140  -20.1820   16.7510 C   0  0  0  0  0  3  0  0  0  0  0  0
  -28.5010  -18.8420   17.0240 C   0  0  0  0  0  3  0  0  0  0  0  0
  -29.2730  -21.0120   17.7860 C   0  0  0  0  0  3  0  0  0  0  0  0
  -28.6580  -18.3430   18.3290 C   0  0  0  0  0  3  0  0  0  0  0  0
  -29.4350  -20.5350   19.1090 C   0  0  0  0  0  0  0  0  0  0  0  0
  -29.1460  -19.1510   19.3830 C   0  0  0  0  0  0  0  0  0  0  0  0
  -29.9420  -21.5840   20.1170 C   0  0  0  0  0  2  0  0  0  0  0  0
  -28.9220  -22.7380   20.3950 C   0  0  0  0  0  2  0  0  0  0  0  0
  -30.3930  -24.6940   21.1900 C   0  0  0  0  0  1  0  0  0  0  0  0
  -29.3790  -24.2170   20.1420 C   0  0  0  0  0  3  0  0  0  0  0  0
  -28.1410  -25.1620   20.0790 C   0  0  0  0  0  2  0  0  0  0  0  0
  -28.3490  -26.6000   20.1180 O   0  0  0  0  0  0  0  0  0  0  0  0
  -24.5890  -31.8750   23.2330 C   0  0  0  0  0  0  0  0  0  0  0  0
  -27.1940  -27.3800   20.1240 C   0  0  0  0  0  0  0  0  0  0  0  0
  -23.3740  -30.4780   21.5970 C   0  0  0  0  0  3  0  0  0  0  0  0
  -24.8130  -28.9380   20.1670 C   0  0  0  0  0  0  0  0  0  0  0  0
  -25.9070  -30.8090   21.3980 C   0  0  0  0  0  2  0  0  0  0  0  0
  -25.9850  -29.4380   20.7490 C   0  0  0  0  0  0  0  0  0  0  0  0
  -27.1790  -28.6680   20.7230 C   0  0  0  0  0  3  0  0  0  0  0  0
  -25.9890  -26.9110   19.5440 C   0  0  0  0  0  3  0  0  0  0  0  0
  -24.8090  -27.6710   19.5680 C   0  0  0  0  0  3  0  0  0  0  0  0
  -23.5800  -29.8100   20.2150 C   0  0  0  0  0  2  0  0  0  0  0  0
  -24.6410  -31.0680   22.1340 N   0  0  0  0  0  0  0  0  0  0  0  0
  -23.5100  -32.1560   23.7720 O   0  0  0  0  0  0  0  0  0  0  0  0
  -22.7170  -29.4570   22.5560 C   0  0  0  0  0  0  0  0  0  0  0  0
  -21.3910  -29.2800   22.4290 N   0  0  0  0  0  0  0  0  0  0  0  0
  -23.3960  -28.8280   23.3720 O   0  0  0  0  0  0  0  0  0  0  0  0
  -20.9050  -29.8430   21.7430 H   0  0  0  0  0  0  0  0  0  0  0  0
  -18.0110  -28.0910   22.9220 C   0  0  0  0  0  0  0  0  0  0  0  0
  -20.5680  -28.3450   23.1970 C   0  0  0  0  0  3  0  0  0  0  0  0
  -20.6710  -26.9130   22.6250 C   0  0  0  0  0  2  0  0  0  0  0  0
  -19.5710  -26.5900   21.6080 C   0  0  0  0  0  2  0  0  0  0  0  0
  -18.1870  -26.7380   22.2520 C   0  0  0  0  0  2  0  0  0  0  0  0
  -19.1300  -28.8530   23.3500 C   0  0  0  0  0  0  0  0  0  0  0  0
  -18.9140  -30.1170   23.9390 C   0  0  0  0  0  3  0  0  0  0  0  0
  -17.6120  -30.6230   24.1000 C   0  0  0  0  0  3  0  0  0  0  0  0
  -16.5060  -29.8580   23.6890 C   0  0  0  0  0  3  0  0  0  0  0  0
  -16.7070  -28.5940   23.1050 C   0  0  0  0  0  3  0  0  0  0  0  0
  -25.8800  -32.5000   23.8480 C   0  0  0  0  0  3  0  0  0  0  0  0
  -25.5770  -33.8980   24.1830 N   0  0  0  0  0  0  0  0  0  0  0  0
  -25.9060  -34.9490   23.4220 C   0  0  0  0  0  0  0  0  0  0  0  0
  -26.5690  -34.8470   22.3850 O   0  0  0  0  0  0  0  0  0  0  0  0
  -24.9880  -34.0500   24.9870 H   0  0  0  0  0  0  0  0  0  0  0  0
  -24.1810  -36.7480   23.0750 C   0  0  0  0  0  1  0  0  0  0  0  0
  -25.4230  -36.3370   23.8820 C   0  0  0  0  0  3  0  0  0  0  0  0
  -27.5630  -37.2120   24.7100 C   0  0  0  0  0  1  0  0  0  0  0  0
  -26.4570  -37.3890   23.7720 N   0  0  0  0  0  0  0  0  0  0  0  0
  -26.0540  -38.3080   23.9320 H   0  0  0  0  0  0  0  0  0  0  0  0
  -26.4010  -31.7230   25.1190 C   0  0  1  0  0  0  0  0  0  0  0  0
  -25.3120  -31.4850   26.1920 C   0  0  0  0  0  1  0  0  0  0  0  0
  -26.9780  -30.3440   24.7200 C   0  0  0  0  0  1  0  0  0  0  0  0
  -27.5570  -32.5120   25.7770 C   0  0  0  0  0  1  0  0  0  0  0  0
  -29.3110  -18.4440   20.7490 C   0  0  0  0  0  2  0  0  0  0  0  0
  -31.1120  -17.5070   22.2360 C   0  0  0  0  0  1  0  0  0  0  0  0
  -31.5090  -17.5520   19.7840 C   0  0  0  0  0  1  0  0  0  0  0  0
  -30.4260  -17.3160   20.8660 C   0  0  2  0  0  0  0  0  0  0  0  0
  -29.7740  -15.8590   20.8390 C   0  0  0  0  0  2  0  0  0  0  0  0
  -30.5900  -14.5660   20.4620 C   0  0  0  0  0  0  0  0  0  0  0  0
  -30.3500  -12.3650   19.3530 C   0  0  0  0  0  2  0  0  0  0  0  0
  -29.4100  -12.5280   18.1380 C   0  0  0  0  0  2  0  0  0  0  0  0
  -27.9340  -12.3670   18.5550 C   0  0  0  0  0  2  0  0  0  0  0  0
  -27.5720  -13.2190   19.8010 C   0  0  0  0  0  3  0  0  0  0  0  0
  -28.6250  -13.0530   20.9180 C   0  0  0  0  0  2  0  0  0  0  0  0
  -29.9490  -13.3650   20.3590 N   0  0  0  0  0  0  0  0  0  0  0  0
  -31.7590  -14.6780   20.0890 O   0  0  0  0  0  0  0  0  0  0  0  0
  -25.1760  -13.8130   20.5120 C   0  0  0  0  0  0  0  0  0  0  0  0
  -24.1100  -13.0350   20.8810 C   0  0  0  0  0  0  0  0  0  0  0  0
  -24.5810  -11.6860   20.8550 C   0  0  0  0  0  0  0  0  0  0  0  0
  -26.2240  -12.9360   20.2830 N   0  0  0  0  0  0  0  0  0  0  0  0
  -25.8720  -11.6520   20.5500 N   0  0  0  0  0  0  0  0  0  0  0  0
  -23.8620  -10.4200   21.0450 C   0  0  0  0  0  0  0  0  0  0  0  0
  -24.3040   -9.4550   21.9760 C   0  0  0  0  0  3  0  0  0  0  0  0
  -23.5880   -8.2530   22.1550 C   0  0  0  0  0  3  0  0  0  0  0  0
  -22.4140   -8.0070   21.4040 C   0  0  0  0  0  0  0  0  0  0  0  0
  -21.9900   -8.9630   20.4630 C   0  0  0  0  0  3  0  0  0  0  0  0
  -22.7060  -10.1570   20.2820 C   0  0  0  0  0  3  0  0  0  0  0  0
  -21.6670   -6.8580   21.4940 O   0  0  0  0  0  0  0  0  0  0  0  0
  -21.6360   -6.1070   22.6420 C   0  0  0  0  0  0  0  0  0  0  0  0
  -21.2280   -6.6510   23.8790 C   0  0  0  0  0  3  0  0  0  0  0  0
  -21.1450   -5.8250   25.0180 C   0  0  0  0  0  3  0  0  0  0  0  0
  -21.4620   -4.4560   24.9200 C   0  0  0  0  0  0  0  0  0  0  0  0
  -21.8630   -3.9120   23.6880 C   0  0  0  0  0  3  0  0  0  0  0  0
  -21.9480   -4.7350   22.5520 C   0  0  0  0  0  0  0  0  0  0  0  0
  -22.3160   -4.2010   21.3610 F   0  0  0  0  0  0  0  0  0  0  0  0
  -21.3750   -3.6610   26.0120 F   0  0  0  0  0  0  0  0  0  0  0  0
  -22.7110  -13.5050   21.1450 C   0  0  0  0  0  0  0  0  0  0  0  0
  -21.9810  -12.8060   22.0090 N   0  0  0  0  0  0  0  0  0  0  0  0
  -22.2670  -14.5250   20.6190 O   0  0  0  0  0  0  0  0  0  0  0  0
  -22.3560  -11.9820   22.4570 H   0  0  0  0  0  0  0  0  0  0  0  0
  -21.0400  -13.0990   22.2250 H   0  0  0  0  0  0  0  0  0  0  0  0
  -25.3340  -15.1830   20.3350 N   0  0  0  0  0  0  0  0  0  0  0  0
  -24.5620  -15.8330   20.4460 H   0  0  0  0  0  0  0  0  0  0  0  0
  -26.1850  -15.6300   20.0210 H   0  0  0  0  0  0  0  0  0  0  0  0
  1  2  2  0
  1  3  1  0
  2  4  1  0
  3  5  2  0
  4  6  2  0
  5  6  1  0
  5  7  1  0
  6 53  1  0
  7  8  1  0
 10  8  1  0
 10  9  1  0
 11 12  1  0
 11 10  1  0
 12 14  1  0
 13 24  2  0
 14 19  1  0
 15 23  1  0
 15 25  1  0
 16 22  1  0
 16 18  1  0
 17 23  1  0
 18 17  1  0
 19 18  2  0
 20 21  1  0
 20 14  2  0
 21 16  2  0
 22 15  1  0
 23 13  1  0
 25 27  2  0
 26 25  1  0
 28 26  1  0
 29 38  2  0
 29 34  1  0
 30 26  1  0
 30 34  1  0
 31 30  1  0
 32 33  1  0
 32 31  1  0
 33 29  1  0
 34 35  2  0
 35 36  1  0
 37 36  2  0
 38 37  1  0
 39 13  1  0
 39 40  1  0
 39 49  1  0
 40 43  1  0
 41 45  1  0
 41 40  1  0
 42 41  2  0
 45 44  1  0
 47 45  1  0
 47 48  1  0
 47 46  1  0
 49 52  1  1
 49 50  1  0
 51 49  1  0
 53 56  1  0
 56 55  1  6
 56 54  1  0
 57 56  1  0
 58 57  1  0
 59 64  1  0
 60 61  1  0
 60 59  1  0
 62 61  1  0
 62 69  1  0
 62 63  1  0
 64 58  1  0
 64 63  1  0
 65 58  2  0
 66 67  2  0
 67 86  1  0
 68 67  1  0
 68 71  1  0
 69 66  1  0
 69 70  1  0
 70 68  2  0
 71 72  1  0
 72 73  2  0
 74 77  1  0
 74 73  1  0
 75 74  2  0
 76 75  1  0
 76 71  2  0
 77 78  1  0
 78 79  1  0
 79 80  2  0
 81 80  1  0
 81 85  1  0
 82 81  2  0
 83 78  2  0
 83 82  1  0
 84 83  1  0
 86 87  1  0
 87 90  1  0
 87 89  1  0
 88 86  2  0
 91 92  1  0
 91 66  1  0
 93 91  1  0
M  ISO  4  11 101  12 101  57 100  58 100
M  END
>  <TORSDO>  (76) 
F 23

>  <SCORE>  (76) 
-13.109

>  <name>  (76) 
75

>  <ligand_id>  (76) 
75

>  <original_smiles>  (76) 
[H]c1c([H])c([H])c2c(c1[H])C([H])([H])C([H])([H])C([H])([H])C2([H])N([H])C(=O)C1([H])N(C(=O)C([H])(N([H])C(=O)C([H])(N([H])C([H])([H])[H])C([H])([H])[H])C(C([H])([H])[H])(C([H])([H])[H])C([H])([H])[H])C([H])([H])c2c([H])c(OC([H])([H])C([H])(C([H])([H])[H])C([H])([H])C([H])([H])c3c([H])c([H])c([H])c([H])c3C([H])([H])C(C([H])([H])[H])(C([H])([H])[H])C([H])([H])C(=O)N3C([H])([H])C([H])([H])C([H])([H])C([H])(n4nc(-c5c([H])c([H])c(Oc6c([H])c([H])c(F)c([H])c6F)c([H])c5[H])c(C(=O)N([H])[H])c4N([H])[H])C3([H])[H])c([H])c([H])c2C1([H])[H]

>  <smiles>  (76) 
[H]c1c([H])c([H])c2c(c1[H])C([H])([H])C([H])([H])C([H])([H])C2([H])N([H])C(=O)C1([H])N(C(=O)C([H])(N([H])C(=O)C([H])(N([H])C([H])([H])[H])C([H])([H])[H])C(C([H])([H])[H])(C([H])([H])[H])C([H])([H])[H])C([H])([H])c2c([H])c(OC([H])([H])C([H])(C([H])([H])[H])C([H])([H])C([H])([H])c3c([H])c([H])c([H])c([H])c3C([H])([H])C(C([H])([H])[H])(C([H])([H])[H])C([H])([H])C(=O)N3C([H])([H])C([H])([H])C([H])([H])C([H])(n4nc(-c5c([H])c([H])c(Oc6c([H])c([H])c(F)c([H])c6F)c([H])c5[H])c(C(=O)N([H])[H])c4N([H])[H])C3([H])[H])c([H])c([H])c2C1([H])[H]

$$$$
76:0:0
     RDKit          3D

 93101  0  0  1  0  0  0  0  0999 V2000
  -31.7630  -18.0780   20.2640 C   0  0  0  0  0  3  0  0  0  0  0  0
  -32.2530  -19.2880   19.7410 C   0  0  0  0  0  3  0  0  0  0  0  0
  -29.6080  -19.1460   20.6010 C   0  0  0  0  0  3  0  0  0  0  0  0
  -30.4390  -17.9790   20.7200 C   0  0  0  0  0  0  0  0  0  0  0  0
  -30.0840  -20.3900   20.0810 C   0  0  0  0  0  0  0  0  0  0  0  0
  -31.4370  -20.4350   19.6480 C   0  0  0  0  0  0  0  0  0  0  0  0
  -32.0480  -21.6740   19.0100 C   0  0  0  0  0  1  0  0  0  0  0  0
  -29.1740  -21.5780   19.9050 C   0  0  0  0  0  3  0  0  0  0  0  0
  -29.3110  -22.8420   20.4020 C   0  0  0  0  0  3  0  0  0  0  0  0
  -28.4400  -23.9870   19.9720 C   0  0  0  0  0  0  0  0  0  0  0  0
  -27.8320  -23.9550   18.8960 O   0  0  0  0  0  0  0  0  0  0  0  0
  -28.2830  -25.2480   20.8740 C   0  0  0  0  0  2  0  0  0  0  0  0
  -28.3880  -26.5180   20.1650 O   0  0  0  0  0  0  0  0  0  0  0  0
  -24.6550  -31.8230   23.1930 C   0  0  0  0  0  0  0  0  0  0  0  0
  -27.2480  -27.3030   20.1590 C   0  0  0  0  0  0  0  0  0  0  0  0
  -23.4340  -30.4130   21.5680 C   0  0  0  0  0  3  0  0  0  0  0  0
  -24.8750  -28.8580   20.1450 C   0  0  0  0  0  0  0  0  0  0  0  0
  -25.9630  -30.7490   21.3620 C   0  0  0  0  0  2  0  0  0  0  0  0
  -26.0400  -29.3710   20.7260 C   0  0  0  0  0  0  0  0  0  0  0  0
  -27.2330  -28.6050   20.7220 C   0  0  0  0  0  3  0  0  0  0  0  0
  -26.0660  -26.8130   19.5650 C   0  0  0  0  0  3  0  0  0  0  0  0
  -24.8860  -27.5830   19.5540 C   0  0  0  0  0  3  0  0  0  0  0  0
  -23.6330  -29.7200   20.1920 C   0  0  0  0  0  2  0  0  0  0  0  0
  -24.7010  -31.0100   22.1000 N   0  0  0  0  0  0  0  0  0  0  0  0
  -23.5780  -32.1070   23.7360 O   0  0  0  0  0  0  0  0  0  0  0  0
  -22.7810  -29.4040   22.5400 C   0  0  0  0  0  0  0  0  0  0  0  0
  -21.4530  -29.2370   22.4290 N   0  0  0  0  0  0  0  0  0  0  0  0
  -23.4650  -28.7730   23.3500 O   0  0  0  0  0  0  0  0  0  0  0  0
  -20.9610  -29.7900   21.7420 H   0  0  0  0  0  0  0  0  0  0  0  0
  -18.0720  -28.0930   22.9800 C   0  0  0  0  0  0  0  0  0  0  0  0
  -20.6370  -28.3130   23.2150 C   0  0  0  0  0  3  0  0  0  0  0  0
  -20.7110  -26.8810   22.6390 C   0  0  0  0  0  2  0  0  0  0  0  0
  -19.5910  -26.5740   21.6400 C   0  0  0  0  0  2  0  0  0  0  0  0
  -18.2200  -26.7410   22.3020 C   0  0  0  0  0  2  0  0  0  0  0  0
  -19.2080  -28.8390   23.3940 C   0  0  0  0  0  0  0  0  0  0  0  0
  -19.0150  -30.1070   23.9860 C   0  0  0  0  0  3  0  0  0  0  0  0
  -17.7200  -30.6280   24.1660 C   0  0  0  0  0  3  0  0  0  0  0  0
  -16.6000  -29.8770   23.7710 C   0  0  0  0  0  3  0  0  0  0  0  0
  -16.7760  -28.6120   23.1840 C   0  0  0  0  0  3  0  0  0  0  0  0
  -25.9470  -32.4520   23.8010 C   0  0  0  0  0  3  0  0  0  0  0  0
  -25.6400  -33.8460   24.1490 N   0  0  0  0  0  0  0  0  0  0  0  0
  -25.9520  -34.9050   23.3900 C   0  0  0  0  0  0  0  0  0  0  0  0
  -26.6000  -34.8130   22.3430 O   0  0  0  0  0  0  0  0  0  0  0  0
  -25.0590  -33.9940   24.9610 H   0  0  0  0  0  0  0  0  0  0  0  0
  -24.2090  -36.6930   23.0830 C   0  0  0  0  0  1  0  0  0  0  0  0
  -25.4660  -36.2860   23.8700 C   0  0  0  0  0  3  0  0  0  0  0  0
  -27.6110  -37.1730   24.6750 C   0  0  0  0  0  1  0  0  0  0  0  0
  -26.4910  -37.3470   23.7520 N   0  0  0  0  0  0  0  0  0  0  0  0
  -26.0820  -38.2620   23.9230 H   0  0  0  0  0  0  0  0  0  0  0  0
  -26.4900  -31.6670   25.0590 C   0  0  1  0  0  0  0  0  0  0  0  0
  -25.4110  -31.4110   26.1350 C   0  0  0  0  0  1  0  0  0  0  0  0
  -27.0710  -30.2960   24.6410 C   0  0  0  0  0  1  0  0  0  0  0  0
  -27.6460  -32.4580   25.7140 C   0  0  0  0  0  1  0  0  0  0  0  0
  -30.1630  -15.3940   21.3050 C   0  0  0  0  0  3  0  0  0  0  0  0
  -29.9890  -16.7500   21.4570 C   0  0  0  0  0  0  0  0  0  0  0  0
  -30.7920  -14.5370   20.2640 C   0  0  0  0  0  0  0  0  0  0  0  0
  -30.4860  -12.4660   18.8980 C   0  0  0  0  0  2  0  0  0  0  0  0
  -29.4520  -12.7030   17.7740 C   0  0  0  0  0  2  0  0  0  0  0  0
  -28.0010  -12.5360   18.2760 C   0  0  0  0  0  2  0  0  0  0  0  0
  -27.7520  -13.2810   19.6100 C   0  0  0  0  0  3  0  0  0  0  0  0
  -28.8540  -12.9200   20.6180 C   0  0  0  0  0  2  0  0  0  0  0  0
  -30.1460  -13.3450   20.0370 N   0  0  0  0  0  0  0  0  0  0  0  0
  -31.8280  -14.8130   19.6490 O   0  0  0  0  0  0  0  0  0  0  0  0
  -25.3980  -13.8920   20.4600 C   0  0  0  0  0  0  0  0  0  0  0  0
  -24.3470  -13.1200   20.8700 C   0  0  0  0  0  0  0  0  0  0  0  0
  -24.7890  -11.7650   20.7760 C   0  0  0  0  0  0  0  0  0  0  0  0
  -26.4200  -13.0070   20.1470 N   0  0  0  0  0  0  0  0  0  0  0  0
  -26.0600  -11.7200   20.3910 N   0  0  0  0  0  0  0  0  0  0  0  0
  -24.0600  -10.5080   20.9730 C   0  0  0  0  0  0  0  0  0  0  0  0
  -24.4830   -9.5500   21.9240 C   0  0  0  0  0  3  0  0  0  0  0  0
  -23.7540   -8.3540   22.1080 C   0  0  0  0  0  3  0  0  0  0  0  0
  -22.5930   -8.1050   21.3380 C   0  0  0  0  0  0  0  0  0  0  0  0
  -22.1910   -9.0510   20.3770 C   0  0  0  0  0  3  0  0  0  0  0  0
  -22.9190  -10.2370   20.1930 C   0  0  0  0  0  3  0  0  0  0  0  0
  -21.8380   -6.9600   21.4280 O   0  0  0  0  0  0  0  0  0  0  0  0
  -21.7080   -6.2760   22.6080 C   0  0  0  0  0  0  0  0  0  0  0  0
  -21.1680   -6.8820   23.7630 C   0  0  0  0  0  3  0  0  0  0  0  0
  -20.9850   -6.1220   24.9370 C   0  0  0  0  0  3  0  0  0  0  0  0
  -21.3340   -4.7590   24.9560 C   0  0  0  0  0  0  0  0  0  0  0  0
  -21.8700   -4.1520   23.8070 C   0  0  0  0  0  3  0  0  0  0  0  0
  -22.0530   -4.9080   22.6350 C   0  0  0  0  0  0  0  0  0  0  0  0
  -22.5490   -4.3150   21.5230 F   0  0  0  0  0  0  0  0  0  0  0  0
  -21.1510   -4.0280   26.0810 F   0  0  0  0  0  0  0  0  0  0  0  0
  -22.9720  -13.6010   21.2320 C   0  0  0  0  0  0  0  0  0  0  0  0
  -22.2860  -12.8890   22.1180 N   0  0  0  0  0  0  0  0  0  0  0  0
  -22.5170  -14.6460   20.7670 O   0  0  0  0  0  0  0  0  0  0  0  0
  -22.6720  -12.0460   22.5180 H   0  0  0  0  0  0  0  0  0  0  0  0
  -21.3670  -13.1910   22.4080 H   0  0  0  0  0  0  0  0  0  0  0  0
  -25.5680  -15.2650   20.3120 N   0  0  0  0  0  0  0  0  0  0  0  0
  -24.8180  -15.9280   20.4710 H   0  0  0  0  0  0  0  0  0  0  0  0
  -26.4120  -15.7000   19.9590 H   0  0  0  0  0  0  0  0  0  0  0  0
  -29.3400  -17.1160   22.5750 O   0  0  0  0  0  0  0  0  0  0  0  0
  -29.3890  -18.0610   22.6310 H   0  0  0  0  0  0  0  0  0  0  0  0
  1  4  1  0
  2  1  2  0
  3  4  2  0
  4 55  1  0
  5  3  1  0
  6  2  1  0
  6  5  2  0
  7  6  1  0
  8  5  1  0
  8  9  2  0
 10  9  1  0
 10 12  1  0
 11 10  2  0
 13 12  1  0
 14 25  2  0
 15 13  1  0
 15 20  1  0
 16 24  1  0
 16 26  1  0
 17 23  1  0
 17 19  1  0
 18 24  1  0
 19 18  1  0
 20 19  2  0
 21 15  2  0
 22 21  1  0
 22 17  2  0
 23 16  1  0
 24 14  1  0
 26 28  2  0
 27 26  1  0
 29 27  1  0
 30 39  2  0
 30 35  1  0
 31 27  1  0
 31 35  1  0
 32 31  1  0
 33 34  1  0
 33 32  1  0
 34 30  1  0
 35 36  2  0
 36 37  1  0
 38 37  2  0
 39 38  1  0
 40 14  1  0
 40 41  1  0
 40 50  1  0
 41 44  1  0
 42 46  1  0
 42 41  1  0
 43 42  2  0
 46 45  1  0
 48 46  1  0
 48 49  1  0
 48 47  1  0
 50 53  1  1
 50 51  1  0
 52 50  1  0
 54 55  2  0
 55 92  1  0
 56 54  1  0
 57 62  1  0
 58 59  1  0
 58 57  1  0
 60 59  1  0
 60 67  1  0
 60 61  1  0
 62 56  1  0
 62 61  1  0
 63 56  2  0
 64 65  2  0
 65 84  1  0
 66 65  1  0
 66 69  1  0
 67 68  1  0
 67 64  1  0
 68 66  2  0
 69 70  1  0
 70 71  2  0
 72 75  1  0
 72 71  1  0
 73 72  2  0
 74 73  1  0
 74 69  2  0
 75 76  1  0
 76 81  2  0
 76 77  1  0
 77 78  2  0
 78 79  1  0
 79 83  1  0
 80 79  2  0
 81 80  1  0
 82 81  1  0
 84 85  1  0
 85 88  1  0
 85 87  1  0
 86 84  2  0
 89 64  1  0
 89 90  1  0
 91 89  1  0
 92 93  1  0
M  ISO  4  12 101  13 101  54 100  56 100
M  END
>  <TORSDO>  (77) 
F 21

>  <SCORE>  (77) 
-13.203

>  <name>  (77) 
76

>  <ligand_id>  (77) 
76

>  <original_smiles>  (77) 
[H]OC(=C([H])C(=O)N1C([H])([H])C([H])([H])C([H])([H])C([H])(n2nc(-c3c([H])c([H])c(Oc4c([H])c([H])c(F)c([H])c4F)c([H])c3[H])c(C(=O)N([H])[H])c2N([H])[H])C1([H])[H])c1c([H])c([H])c(C([H])([H])[H])c(C([H])=C([H])C(=O)C([H])([H])Oc2c([H])c([H])c3c(c2[H])C([H])([H])N(C(=O)C([H])(N([H])C(=O)C([H])(N([H])C([H])([H])[H])C([H])([H])[H])C(C([H])([H])[H])(C([H])([H])[H])C([H])([H])[H])C([H])(C(=O)N([H])C2([H])c4c([H])c([H])c([H])c([H])c4C([H])([H])C([H])([H])C2([H])[H])C3([H])[H])c1[H]

>  <smiles>  (77) 
[H]OC(=C([H])C(=O)N1C([H])([H])C([H])([H])C([H])([H])C([H])(n2nc(-c3c([H])c([H])c(Oc4c([H])c([H])c(F)c([H])c4F)c([H])c3[H])c(C(=O)N([H])[H])c2N([H])[H])C1([H])[H])c1c([H])c([H])c(C([H])([H])[H])c(C([H])=C([H])C(=O)C([H])([H])Oc2c([H])c([H])c3c(c2[H])C([H])([H])N(C(=O)C([H])(N([H])C(=O)C([H])(N([H])C([H])([H])[H])C([H])([H])[H])C(C([H])([H])[H])(C([H])([H])[H])C([H])([H])[H])C([H])(C(=O)N([H])C2([H])c4c([H])c([H])c([H])c([H])c4C([H])([H])C([H])([H])C2([H])[H])C3([H])[H])c1[H]

$$$$
77:0:0
     RDKit          3D

 95103  0  0  1  0  0  0  0  0999 V2000
  -31.1250  -21.0070   19.5720 C   0  0  0  0  0  3  0  0  0  0  0  0
  -31.6660  -19.7080   19.4750 C   0  0  0  0  0  3  0  0  0  0  0  0
  -31.8040  -21.1070   21.9030 C   0  0  0  0  0  3  0  0  0  0  0  0
  -31.1960  -21.7190   20.7900 C   0  0  0  0  0  0  0  0  0  0  0  0
  -32.2560  -19.0920   20.5990 C   0  0  0  0  0  0  0  0  0  0  0  0
  -32.3390  -19.8080   21.8150 C   0  0  0  0  0  0  0  0  0  0  0  0
  -32.9870  -19.1900   23.0450 C   0  0  0  0  0  1  0  0  0  0  0  0
  -32.8510  -17.7500   20.5230 C   0  0  0  0  0  3  0  0  0  0  0  0
  -32.1700  -16.5890   20.6320 C   0  0  0  0  0  0  0  0  0  0  0  0
  -32.9940  -15.3590   20.6930 C   0  0  0  0  0  3  0  0  0  0  0  0
  -32.5880  -14.2440   21.0330 O   0  0  0  0  0  0  0  0  0  0  0  0
  -30.6320  -16.5440   20.7190 C   0  0  0  0  0  2  0  0  0  0  0  0
  -29.8590  -15.1950   20.6970 C   0  0  0  0  0  2  0  0  0  0  0  0
  -30.0140  -14.3020   19.4490 C   0  0  0  0  0  0  0  0  0  0  0  0
  -29.6230  -12.1230   18.3520 C   0  0  0  0  0  2  0  0  0  0  0  0
  -28.4530  -12.1720   17.3560 C   0  0  0  0  0  2  0  0  0  0  0  0
  -27.1130  -11.9250   18.0730 C   0  0  0  0  0  2  0  0  0  0  0  0
  -26.9440  -12.8200   19.3300 C   0  0  0  0  0  3  0  0  0  0  0  0
  -28.2020  -12.7360   20.2270 C   0  0  0  0  0  2  0  0  0  0  0  0
  -29.3710  -13.1070   19.4120 N   0  0  0  0  0  0  0  0  0  0  0  0
  -30.7790  -14.6610   18.5460 O   0  0  0  0  0  0  0  0  0  0  0  0
  -24.7420  -13.3070   20.5750 C   0  0  0  0  0  0  0  0  0  0  0  0
  -23.7890  -12.4780   21.1030 C   0  0  0  0  0  0  0  0  0  0  0  0
  -24.2480  -11.1470   20.8640 C   0  0  0  0  0  0  0  0  0  0  0  0
  -25.7260  -12.4760   20.0610 N   0  0  0  0  0  0  0  0  0  0  0  0
  -25.4400  -11.1670   20.2830 N   0  0  0  0  0  0  0  0  0  0  0  0
  -23.5980   -9.8520   21.1040 C   0  0  0  0  0  0  0  0  0  0  0  0
  -24.1280   -8.9180   22.0220 C   0  0  0  0  0  3  0  0  0  0  0  0
  -23.4750   -7.6880   22.2480 C   0  0  0  0  0  3  0  0  0  0  0  0
  -22.2780   -7.3820   21.5590 C   0  0  0  0  0  0  0  0  0  0  0  0
  -21.7660   -8.3060   20.6300 C   0  0  0  0  0  3  0  0  0  0  0  0
  -22.4210   -9.5270   20.4010 C   0  0  0  0  0  3  0  0  0  0  0  0
  -21.5880   -6.2010   21.6970 O   0  0  0  0  0  0  0  0  0  0  0  0
  -21.5570   -5.5220   22.8880 C   0  0  0  0  0  0  0  0  0  0  0  0
  -20.9920   -6.0870   24.0530 C   0  0  0  0  0  3  0  0  0  0  0  0
  -20.9170   -5.3280   25.2390 C   0  0  0  0  0  3  0  0  0  0  0  0
  -21.3950   -4.0030   25.2590 C   0  0  0  0  0  0  0  0  0  0  0  0
  -21.9500   -3.4380   24.0980 C   0  0  0  0  0  3  0  0  0  0  0  0
  -22.0280   -4.1940   22.9150 C   0  0  0  0  0  0  0  0  0  0  0  0
  -22.5450   -3.6360   21.7950 F   0  0  0  0  0  0  0  0  0  0  0  0
  -21.3150   -3.2720   26.3950 F   0  0  0  0  0  0  0  0  0  0  0  0
  -22.4770  -12.8900   21.7090 C   0  0  0  0  0  0  0  0  0  0  0  0
  -21.9630  -12.1030   22.6480 N   0  0  0  0  0  0  0  0  0  0  0  0
  -21.9240  -13.9400   21.3850 O   0  0  0  0  0  0  0  0  0  0  0  0
  -22.4270  -11.2510   22.9260 H   0  0  0  0  0  0  0  0  0  0  0  0
  -21.0890  -12.3530   23.0910 H   0  0  0  0  0  0  0  0  0  0  0  0
  -24.8500  -14.6920   20.4710 N   0  0  0  0  0  0  0  0  0  0  0  0
  -24.1290  -15.3270   20.7970 H   0  0  0  0  0  0  0  0  0  0  0  0
  -25.6110  -15.1660   20.0030 H   0  0  0  0  0  0  0  0  0  0  0  0
  -30.6430  -23.0700   20.9680 C   0  0  0  0  0  3  0  0  0  0  0  0
  -29.8370  -23.7480   20.1250 C   0  0  0  0  0  3  0  0  0  0  0  0
  -29.3970  -25.1140   20.4590 C   0  0  0  0  0  0  0  0  0  0  0  0
  -29.9400  -25.7870   21.3440 O   0  0  0  0  0  0  0  0  0  0  0  0
  -28.2160  -25.7150   19.6890 C   0  0  0  0  0  2  0  0  0  0  0  0
  -28.2110  -27.1250   19.9060 O   0  0  0  0  0  0  0  0  0  0  0  0
  -24.5100  -32.1510   23.2570 C   0  0  0  0  0  0  0  0  0  0  0  0
  -27.0020  -27.7710   19.9960 C   0  0  0  0  0  0  0  0  0  0  0  0
  -23.2150  -30.7530   21.6780 C   0  0  0  0  0  3  0  0  0  0  0  0
  -24.5910  -29.2290   20.1630 C   0  0  0  0  0  0  0  0  0  0  0  0
  -25.7170  -31.1350   21.3320 C   0  0  0  0  0  2  0  0  0  0  0  0
  -25.7730  -29.7690   20.6820 C   0  0  0  0  0  0  0  0  0  0  0  0
  -26.9800  -29.0460   20.5950 C   0  0  0  0  0  3  0  0  0  0  0  0
  -25.8020  -27.2290   19.4800 C   0  0  0  0  0  3  0  0  0  0  0  0
  -24.5970  -27.9570   19.5640 C   0  0  0  0  0  3  0  0  0  0  0  0
  -23.3450  -30.0780   20.2860 C   0  0  0  0  0  2  0  0  0  0  0  0
  -24.5020  -31.3600   22.1470 N   0  0  0  0  0  0  0  0  0  0  0  0
  -23.4610  -32.4170   23.8610 O   0  0  0  0  0  0  0  0  0  0  0  0
  -22.6280  -29.7230   22.6680 C   0  0  0  0  0  0  0  0  0  0  0  0
  -21.3240  -29.4390   22.5230 N   0  0  0  0  0  0  0  0  0  0  0  0
  -23.3400  -29.1820   23.5170 O   0  0  0  0  0  0  0  0  0  0  0  0
  -20.8100  -29.9310   21.8070 H   0  0  0  0  0  0  0  0  0  0  0  0
  -18.0350  -28.0250   23.0080 C   0  0  0  0  0  0  0  0  0  0  0  0
  -20.5630  -28.4720   23.3140 C   0  0  0  0  0  3  0  0  0  0  0  0
  -20.7770  -27.0340   22.7900 C   0  0  0  0  0  2  0  0  0  0  0  0
  -19.7190  -26.5980   21.7700 C   0  0  0  0  0  2  0  0  0  0  0  0
  -18.3180  -26.6680   22.3850 C   0  0  0  0  0  2  0  0  0  0  0  0
  -19.0900  -28.8780   23.4280 C   0  0  0  0  0  0  0  0  0  0  0  0
  -18.7740  -30.1450   23.9670 C   0  0  0  0  0  3  0  0  0  0  0  0
  -17.4350  -30.5590   24.0940 C   0  0  0  0  0  3  0  0  0  0  0  0
  -16.3950  -29.7040   23.6910 C   0  0  0  0  0  3  0  0  0  0  0  0
  -16.6950  -28.4400   23.1530 C   0  0  0  0  0  3  0  0  0  0  0  0
  -25.8310  -32.7780   23.8070 C   0  0  0  0  0  3  0  0  0  0  0  0
  -25.5220  -34.1510   24.2300 N   0  0  0  0  0  0  0  0  0  0  0  0
  -25.7390  -35.2430   23.4850 C   0  0  0  0  0  0  0  0  0  0  0  0
  -26.2960  -35.2040   22.3850 O   0  0  0  0  0  0  0  0  0  0  0  0
  -25.0120  -34.2530   25.0950 H   0  0  0  0  0  0  0  0  0  0  0  0
  -23.9260  -36.9850   23.4030 C   0  0  0  0  0  1  0  0  0  0  0  0
  -25.2640  -36.5950   24.0520 C   0  0  0  0  0  3  0  0  0  0  0  0
  -27.4520  -37.5220   24.6760 C   0  0  0  0  0  1  0  0  0  0  0  0
  -26.2450  -37.6870   23.8680 N   0  0  0  0  0  0  0  0  0  0  0  0
  -25.8300  -38.5860   24.0990 H   0  0  0  0  0  0  0  0  0  0  0  0
  -26.4650  -31.9560   24.9950 C   0  0  1  0  0  0  0  0  0  0  0  0
  -25.4420  -31.5430   26.0780 C   0  0  0  0  0  1  0  0  0  0  0  0
  -27.1420  -30.6690   24.4670 C   0  0  0  0  0  1  0  0  0  0  0  0
  -27.5740  -32.7910   25.6760 C   0  0  0  0  0  1  0  0  0  0  0  0
  1  4  1  0
  2  1  2  0
  2  5  1  0
  4 50  1  0
  4  3  2  0
  5  6  2  0
  6  3  1  0
  6  7  1  0
  8  5  1  0
  8  9  2  0
  9 10  1  0
  9 12  1  0
 10 11  2  0
 13 12  1  0
 14 13  1  0
 15 20  1  0
 16 17  1  0
 16 15  1  0
 18 17  1  0
 18 25  1  0
 18 19  1  0
 20 14  1  0
 20 19  1  0
 21 14  2  0
 22 23  2  0
 23 42  1  0
 24 23  1  0
 24 27  1  0
 25 26  1  0
 25 22  1  0
 26 24  2  0
 27 28  1  0
 28 29  2  0
 30 33  1  0
 30 29  1  0
 31 30  2  0
 32 31  1  0
 32 27  2  0
 33 34  1  0
 34 39  2  0
 34 35  1  0
 35 36  2  0
 36 37  1  0
 37 41  1  0
 38 37  2  0
 39 38  1  0
 40 39  1  0
 42 43  1  0
 43 45  1  0
 43 46  1  0
 44 42  2  0
 47 22  1  0
 47 48  1  0
 49 47  1  0
 51 52  1  0
 51 50  2  0
 52 53  2  0
 54 55  1  0
 54 52  1  0
 55 57  1  0
 56 67  2  0
 57 62  1  0
 58 66  1  0
 58 68  1  0
 59 65  1  0
 59 61  1  0
 60 66  1  0
 61 60  1  0
 62 61  2  0
 63 64  1  0
 63 57  2  0
 64 59  2  0
 65 58  1  0
 66 56  1  0
 68 70  2  0
 69 68  1  0
 71 69  1  0
 72 81  2  0
 72 77  1  0
 73 69  1  0
 73 77  1  0
 74 73  1  0
 75 76  1  0
 75 74  1  0
 76 72  1  0
 77 78  2  0
 78 79  1  0
 80 79  2  0
 81 80  1  0
 82 56  1  0
 82 83  1  0
 82 92  1  0
 83 86  1  0
 84 88  1  0
 84 83  1  0
 85 84  2  0
 88 87  1  0
 90 88  1  0
 90 91  1  0
 90 89  1  0
 92 95  1  1
 92 93  1  0
 94 92  1  0
M  ISO  4  13 100  14 100  54 101  55 101
M  END
>  <TORSDO>  (78) 
F 23

>  <SCORE>  (78) 
-8.999

>  <name>  (78) 
77

>  <ligand_id>  (78) 
77

>  <original_smiles>  (78) 
[H]C(=O)C(=C([H])c1c([H])c([H])c(C([H])=C([H])C(=O)C([H])([H])Oc2c([H])c([H])c3c(c2[H])C([H])([H])N(C(=O)C([H])(N([H])C(=O)C([H])(N([H])C([H])([H])[H])C([H])([H])[H])C(C([H])([H])[H])(C([H])([H])[H])C([H])([H])[H])C([H])(C(=O)N([H])C2([H])c4c([H])c([H])c([H])c([H])c4C([H])([H])C([H])([H])C2([H])[H])C3([H])[H])c([H])c1C([H])([H])[H])C([H])([H])C([H])([H])C(=O)N1C([H])([H])C([H])([H])C([H])([H])C([H])(n2nc(-c3c([H])c([H])c(Oc4c([H])c([H])c(F)c([H])c4F)c([H])c3[H])c(C(=O)N([H])[H])c2N([H])[H])C1([H])[H]

>  <smiles>  (78) 
[H]C(=O)C(=C([H])c1c([H])c([H])c(C([H])=C([H])C(=O)C([H])([H])Oc2c([H])c([H])c3c(c2[H])C([H])([H])N(C(=O)C([H])(N([H])C(=O)C([H])(N([H])C([H])([H])[H])C([H])([H])[H])C(C([H])([H])[H])(C([H])([H])[H])C([H])([H])[H])C([H])(C(=O)N([H])C2([H])c4c([H])c([H])c([H])c([H])c4C([H])([H])C([H])([H])C2([H])[H])C3([H])[H])c([H])c1C([H])([H])[H])C([H])([H])C([H])([H])C(=O)N1C([H])([H])C([H])([H])C([H])([H])C([H])(n2nc(-c3c([H])c([H])c(Oc4c([H])c([H])c(F)c([H])c4F)c([H])c3[H])c(C(=O)N([H])[H])c2N([H])[H])C1([H])[H]

$$$$
78:0:0
     RDKit          3D

 97105  0  0  1  0  0  0  0  0999 V2000
  -30.7370  -21.6540   21.9660 C   0  0  0  0  0  3  0  0  0  0  0  0
  -30.1320  -20.7390   21.0860 C   0  0  0  0  0  3  0  0  0  0  0  0
  -30.2170  -22.9550   22.0960 C   0  0  0  0  0  3  0  0  0  0  0  0
  -28.4410  -22.4020   20.5250 C   0  0  0  0  0  3  0  0  0  0  0  0
  -28.9870  -21.1140   20.3470 C   0  0  0  0  0  0  0  0  0  0  0  0
  -29.0610  -23.3470   21.3710 C   0  0  0  0  0  0  0  0  0  0  0  0
  -28.3500  -20.1840   19.3230 C   0  0  0  0  0  2  0  0  0  0  0  0
  -28.7180  -17.7550   19.7490 C   0  0  0  0  0  0  0  0  0  0  0  0
  -29.0310  -18.9080   19.1460 N   0  0  0  0  0  0  0  0  0  0  0  0
  -27.7680  -17.6540   20.5240 O   0  0  0  0  0  0  0  0  0  0  0  0
  -29.8050  -18.8910   18.4930 H   0  0  0  0  0  0  0  0  0  0  0  0
  -30.6830  -16.7730   18.3820 C   0  0  0  0  0  1  0  0  0  0  0  0
  -29.5690  -16.5150   19.4310 C   0  0  0  0  0  3  0  0  0  0  0  0
  -30.0150  -15.7900   20.7410 C   0  0  0  0  0  2  0  0  0  0  0  0
  -30.7420  -14.4690   20.4590 C   0  0  0  0  0  0  0  0  0  0  0  0
  -30.4220  -12.3130   19.3530 C   0  0  0  0  0  2  0  0  0  0  0  0
  -29.5050  -12.5500   18.1340 C   0  0  0  0  0  2  0  0  0  0  0  0
  -28.0170  -12.4540   18.5320 C   0  0  0  0  0  2  0  0  0  0  0  0
  -27.6750  -13.2740   19.8070 C   0  0  0  0  0  3  0  0  0  0  0  0
  -28.7180  -13.0370   20.9220 C   0  0  0  0  0  2  0  0  0  0  0  0
  -30.0560  -13.3010   20.3740 N   0  0  0  0  0  0  0  0  0  0  0  0
  -31.9240  -14.5600   20.1210 O   0  0  0  0  0  0  0  0  0  0  0  0
  -25.2730  -13.9250   20.4520 C   0  0  0  0  0  0  0  0  0  0  0  0
  -24.1860  -13.1720   20.7990 C   0  0  0  0  0  0  0  0  0  0  0  0
  -24.6300  -11.8140   20.7980 C   0  0  0  0  0  0  0  0  0  0  0  0
  -26.3130  -13.0270   20.2610 N   0  0  0  0  0  0  0  0  0  0  0  0
  -25.9280  -11.7550   20.5260 N   0  0  0  0  0  0  0  0  0  0  0  0
  -23.8870  -10.5640   20.9850 C   0  0  0  0  0  0  0  0  0  0  0  0
  -24.3000   -9.5940   21.9250 C   0  0  0  0  0  3  0  0  0  0  0  0
  -23.5590   -8.4070   22.1010 C   0  0  0  0  0  3  0  0  0  0  0  0
  -22.3910   -8.1790   21.3360 C   0  0  0  0  0  0  0  0  0  0  0  0
  -21.9960   -9.1360   20.3850 C   0  0  0  0  0  3  0  0  0  0  0  0
  -22.7380  -10.3150   20.2070 C   0  0  0  0  0  3  0  0  0  0  0  0
  -21.6230   -7.0430   21.4240 O   0  0  0  0  0  0  0  0  0  0  0  0
  -21.5660   -6.2970   22.5740 C   0  0  0  0  0  0  0  0  0  0  0  0
  -21.1670   -6.8550   23.8080 C   0  0  0  0  0  3  0  0  0  0  0  0
  -21.0600   -6.0340   24.9480 C   0  0  0  0  0  3  0  0  0  0  0  0
  -21.3380   -4.6580   24.8550 C   0  0  0  0  0  0  0  0  0  0  0  0
  -21.7320   -4.1010   23.6270 C   0  0  0  0  0  3  0  0  0  0  0  0
  -21.8430   -4.9190   22.4880 C   0  0  0  0  0  0  0  0  0  0  0  0
  -22.2020   -4.3690   21.3030 F   0  0  0  0  0  0  0  0  0  0  0  0
  -21.2250   -3.8720   25.9510 F   0  0  0  0  0  0  0  0  0  0  0  0
  -22.7890  -13.6680   21.0280 C   0  0  0  0  0  0  0  0  0  0  0  0
  -22.0320  -12.9960   21.8890 N   0  0  0  0  0  0  0  0  0  0  0  0
  -22.3780  -14.6910   20.4820 O   0  0  0  0  0  0  0  0  0  0  0  0
  -22.3810  -12.1720   22.3570 H   0  0  0  0  0  0  0  0  0  0  0  0
  -21.0900  -13.3070   22.0790 H   0  0  0  0  0  0  0  0  0  0  0  0
  -25.4580  -15.2930   20.2710 N   0  0  0  0  0  0  0  0  0  0  0  0
  -24.6960  -15.9490   20.3950 H   0  0  0  0  0  0  0  0  0  0  0  0
  -26.3430  -15.7580   20.0960 H   0  0  0  0  0  0  0  0  0  0  0  0
  -28.4870  -24.7690   21.4280 C   0  0  0  0  0  3  0  0  0  0  0  0
  -29.1030  -25.5810   22.5000 N   0  0  0  0  0  4  0  0  0  0  0  0
  -30.0610  -25.7920   22.2910 H   0  0  0  0  0  0  0  0  0  0  0  0
  -29.0660  -25.0910   23.3760 H   0  0  0  0  0  0  0  0  0  0  0  0
  -28.6040  -26.4470   22.5950 H   0  0  0  0  0  0  0  0  0  0  0  0
  -28.6120  -25.4650   20.0470 C   0  0  0  0  0  2  0  0  0  0  0  0
  -28.4590  -26.8760   20.1570 O   0  0  0  0  0  0  0  0  0  0  0  0
  -24.5420  -31.8830   23.2200 C   0  0  0  0  0  0  0  0  0  0  0  0
  -27.2200  -27.4760   20.1620 C   0  0  0  0  0  0  0  0  0  0  0  0
  -23.3340  -30.4740   21.5800 C   0  0  0  0  0  3  0  0  0  0  0  0
  -24.7940  -28.9270   20.1700 C   0  0  0  0  0  0  0  0  0  0  0  0
  -25.8510  -30.8530   21.3710 C   0  0  0  0  0  2  0  0  0  0  0  0
  -25.9410  -29.4780   20.7510 C   0  0  0  0  0  0  0  0  0  0  0  0
  -27.1510  -28.7590   20.7400 C   0  0  0  0  0  3  0  0  0  0  0  0
  -26.0520  -26.9210   19.5900 C   0  0  0  0  0  3  0  0  0  0  0  0
  -24.8400  -27.6440   19.5920 C   0  0  0  0  0  3  0  0  0  0  0  0
  -23.5390  -29.7720   20.2070 C   0  0  0  0  0  2  0  0  0  0  0  0
  -24.5950  -31.0840   22.1170 N   0  0  0  0  0  0  0  0  0  0  0  0
  -23.4610  -32.1430   23.7690 O   0  0  0  0  0  0  0  0  0  0  0  0
  -22.6930  -29.4570   22.5480 C   0  0  0  0  0  0  0  0  0  0  0  0
  -21.3700  -29.2720   22.4270 N   0  0  0  0  0  0  0  0  0  0  0  0
  -23.3860  -28.8320   23.3550 O   0  0  0  0  0  0  0  0  0  0  0  0
  -20.8770  -29.8250   21.7410 H   0  0  0  0  0  0  0  0  0  0  0  0
  -17.9970  -28.0960   22.9540 C   0  0  0  0  0  0  0  0  0  0  0  0
  -20.5580  -28.3410   23.2070 C   0  0  0  0  0  3  0  0  0  0  0  0
  -20.6500  -26.9110   22.6300 C   0  0  0  0  0  2  0  0  0  0  0  0
  -19.5350  -26.5920   21.6250 C   0  0  0  0  0  2  0  0  0  0  0  0
  -18.1600  -26.7450   22.2790 C   0  0  0  0  0  2  0  0  0  0  0  0
  -19.1230  -28.8520   23.3760 C   0  0  0  0  0  0  0  0  0  0  0  0
  -18.9150  -30.1170   23.9660 C   0  0  0  0  0  3  0  0  0  0  0  0
  -17.6150  -30.6250   24.1410 C   0  0  0  0  0  3  0  0  0  0  0  0
  -16.5020  -29.8660   23.7370 C   0  0  0  0  0  3  0  0  0  0  0  0
  -16.6960  -28.6040   23.1470 C   0  0  0  0  0  3  0  0  0  0  0  0
  -25.8270  -32.5260   23.8280 C   0  0  0  0  0  3  0  0  0  0  0  0
  -26.3610  -31.7530   25.0940 C   0  0  1  0  0  0  0  0  0  0  0  0
  -25.2770  -31.5030   26.1660 C   0  0  0  0  0  1  0  0  0  0  0  0
  -26.9520  -30.3850   24.6880 C   0  0  0  0  0  1  0  0  0  0  0  0
  -27.5090  -32.5530   25.7510 C   0  0  0  0  0  1  0  0  0  0  0  0
  -25.5140  -33.9220   24.1580 N   0  0  0  0  0  0  0  0  0  0  0  0
  -25.8450  -34.9740   23.3990 C   0  0  0  0  0  0  0  0  0  0  0  0
  -26.5190  -34.8750   22.3700 O   0  0  0  0  0  0  0  0  0  0  0  0
  -24.9210  -34.0710   24.9610 H   0  0  0  0  0  0  0  0  0  0  0  0
  -24.1100  -36.7540   23.0410 C   0  0  0  0  0  1  0  0  0  0  0  0
  -25.3520  -36.3600   23.8580 C   0  0  0  0  0  3  0  0  0  0  0  0
  -27.4810  -37.2470   24.6940 C   0  0  0  0  0  1  0  0  0  0  0  0
  -26.3780  -37.4200   23.7510 N   0  0  0  0  0  0  0  0  0  0  0  0
  -25.9680  -38.3360   23.9070 H   0  0  0  0  0  0  0  0  0  0  0  0
  1  3  1  0
  2  1  2  0
  4  6  1  0
  5  4  2  0
  5  2  1  0
  6 51  1  0
  6  3  2  0
  7  5  1  0
  8 10  2  0
  9  7  1  0
  9  8  1  0
 11  9  1  0
 13 12  1  0
 13  8  1  0
 13 14  1  0
 15 14  1  0
 16 21  1  0
 17 18  1  0
 17 16  1  0
 19 18  1  0
 19 26  1  0
 19 20  1  0
 21 15  1  0
 21 20  1  0
 22 15  2  0
 23 24  2  0
 24 43  1  0
 25 24  1  0
 25 28  1  0
 26 23  1  0
 26 27  1  0
 27 25  2  0
 28 29  1  0
 29 30  2  0
 31 34  1  0
 31 30  1  0
 32 31  2  0
 33 32  1  0
 33 28  2  0
 34 35  1  0
 35 36  1  0
 36 37  2  0
 38 37  1  0
 38 42  1  0
 39 38  2  0
 40 35  2  0
 40 39  1  0
 41 40  1  0
 43 44  1  0
 44 47  1  0
 44 46  1  0
 45 43  2  0
 48 49  1  0
 48 23  1  0
 50 48  1  0
 51 56  1  0
 51 52  1  0
 52 55  1  0
 52 54  1  0
 53 52  1  0
 56 57  1  0
 57 59  1  0
 58 69  2  0
 59 64  1  0
 60 68  1  0
 60 70  1  0
 61 67  1  0
 61 63  1  0
 62 68  1  0
 63 62  1  0
 64 63  2  0
 65 66  1  0
 65 59  2  0
 66 61  2  0
 67 60  1  0
 68 58  1  0
 70 72  2  0
 71 70  1  0
 73 71  1  0
 74 83  2  0
 74 79  1  0
 75 71  1  0
 75 79  1  0
 76 75  1  0
 77 78  1  0
 77 76  1  0
 78 74  1  0
 79 80  2  0
 80 81  1  0
 82 81  2  0
 83 82  1  0
 84 58  1  0
 84 89  1  0
 84 85  1  0
 85 88  1  1
 85 86  1  0
 87 85  1  0
 89 92  1  0
 90 94  1  0
 90 89  1  0
 91 90  2  0
 94 93  1  0
 96 94  1  0
 96 97  1  0
 96 95  1  0
M  ISO  4  14 100  15 100  56 101  57 101
M  END
>  <TORSDO>  (79) 
F 23

>  <SCORE>  (79) 
-13.339

>  <name>  (79) 
78

>  <ligand_id>  (79) 
78

>  <original_smiles>  (79) 
[H]c1c([H])c([H])c2c(c1[H])C([H])([H])C([H])([H])C([H])([H])C2([H])N([H])C(=O)C1([H])N(C(=O)C([H])(N([H])C(=O)C([H])(N([H])C([H])([H])[H])C([H])([H])[H])C(C([H])([H])[H])(C([H])([H])[H])C([H])([H])[H])C([H])([H])c2c([H])c(OC([H])([H])C([H])(c3c([H])c([H])c([H])c(C([H])([H])N([H])C(=O)C([H])(C([H])([H])[H])C([H])([H])C(=O)N4C([H])([H])C([H])([H])C([H])([H])C([H])(n5nc(-c6c([H])c([H])c(Oc7c([H])c([H])c(F)c([H])c7F)c([H])c6[H])c(C(=O)N([H])[H])c5N([H])[H])C4([H])[H])c3[H])[N+]([H])([H])[H])c([H])c([H])c2C1([H])[H]

>  <smiles>  (79) 
[H]c1c([H])c([H])c2c(c1[H])C([H])([H])C([H])([H])C([H])([H])C2([H])N([H])C(=O)C1([H])N(C(=O)C([H])(N([H])C(=O)C([H])(N([H])C([H])([H])[H])C([H])([H])[H])C(C([H])([H])[H])(C([H])([H])[H])C([H])([H])[H])C([H])([H])c2c([H])c(OC([H])([H])C([H])(c3c([H])c([H])c([H])c(C([H])([H])N([H])C(=O)C([H])(C([H])([H])[H])C([H])([H])C(=O)N4C([H])([H])C([H])([H])C([H])([H])C([H])(n5nc(-c6c([H])c([H])c(Oc7c([H])c([H])c(F)c([H])c7F)c([H])c6[H])c(C(=O)N([H])[H])c5N([H])[H])C4([H])[H])c3[H])[N+]([H])([H])[H])c([H])c([H])c2C1([H])[H]

$$$$
79:0:0
     RDKit          3D

 85 92  0  0  1  0  0  0  0  0999 V2000
  -29.0040  -22.2970   20.2840 C   0  0  0  0  0  3  0  0  0  0  0  0
  -28.6990  -20.5720   20.3250 N   0  0  0  0  0  4  0  0  0  0  0  0
  -28.0180  -20.4330   19.5960 H   0  0  0  0  0  0  0  0  0  0  0  0
  -28.1780  -20.4460   21.1800 H   0  0  0  0  0  0  0  0  0  0  0  0
  -30.5820  -19.3080   19.0000 C   0  0  0  0  0  1  0  0  0  0  0  0
  -29.6970  -19.1340   20.2400 C   0  0  0  0  0  3  0  0  0  0  0  0
  -29.3790  -17.2490   20.3680 C   0  0  0  0  0  2  0  0  0  0  0  0
  -30.2540  -15.6240   20.1790 C   0  0  0  0  0  0  0  0  0  0  0  0
  -30.3550  -13.1020   19.3270 C   0  0  0  0  0  2  0  0  0  0  0  0
  -29.4230  -12.7820   18.1210 C   0  0  0  0  0  2  0  0  0  0  0  0
  -28.0010  -12.4380   18.5940 C   0  0  0  0  0  2  0  0  0  0  0  0
  -27.5320  -13.4020   19.7070 C   0  0  0  0  0  3  0  0  0  0  0  0
  -28.5930  -13.6460   20.8020 C   0  0  0  0  0  2  0  0  0  0  0  0
  -29.7750  -14.2480   20.1520 N   0  0  0  0  0  0  0  0  0  0  0  0
  -31.4730  -15.6000   19.9210 O   0  0  0  0  0  0  0  0  0  0  0  0
  -25.1870  -13.9070   20.5500 C   0  0  0  0  0  0  0  0  0  0  0  0
  -24.1430  -13.1120   20.9330 C   0  0  0  0  0  0  0  0  0  0  0  0
  -24.6230  -11.7680   20.8640 C   0  0  0  0  0  0  0  0  0  0  0  0
  -26.2280  -13.0490   20.2560 N   0  0  0  0  0  0  0  0  0  0  0  0
  -25.9060  -11.7530   20.5130 N   0  0  0  0  0  0  0  0  0  0  0  0
  -23.9100  -10.4960   21.0510 C   0  0  0  0  0  0  0  0  0  0  0  0
  -24.3630   -9.5190   21.9650 C   0  0  0  0  0  3  0  0  0  0  0  0
  -23.6460   -8.3160   22.1430 C   0  0  0  0  0  3  0  0  0  0  0  0
  -22.4600   -8.0800   21.4070 C   0  0  0  0  0  0  0  0  0  0  0  0
  -22.0260   -9.0450   20.4820 C   0  0  0  0  0  3  0  0  0  0  0  0
  -22.7430  -10.2400   20.3020 C   0  0  0  0  0  3  0  0  0  0  0  0
  -21.7140   -6.9300   21.4950 O   0  0  0  0  0  0  0  0  0  0  0  0
  -21.6770   -6.1810   22.6440 C   0  0  0  0  0  0  0  0  0  0  0  0
  -21.2390   -6.7210   23.8720 C   0  0  0  0  0  3  0  0  0  0  0  0
  -21.1510   -5.8980   25.0120 C   0  0  0  0  0  3  0  0  0  0  0  0
  -21.4920   -4.5360   24.9260 C   0  0  0  0  0  0  0  0  0  0  0  0
  -21.9230   -3.9940   23.7020 C   0  0  0  0  0  3  0  0  0  0  0  0
  -22.0120   -4.8140   22.5640 C   0  0  0  0  0  0  0  0  0  0  0  0
  -22.4090   -4.2820   21.3830 F   0  0  0  0  0  0  0  0  0  0  0  0
  -21.4010   -3.7420   26.0200 F   0  0  0  0  0  0  0  0  0  0  0  0
  -22.7510  -13.5730   21.2460 C   0  0  0  0  0  0  0  0  0  0  0  0
  -22.0520  -12.8610   22.1230 N   0  0  0  0  0  0  0  0  0  0  0  0
  -22.2920  -14.6010   20.7490 O   0  0  0  0  0  0  0  0  0  0  0  0
  -22.4380  -12.0300   22.5470 H   0  0  0  0  0  0  0  0  0  0  0  0
  -21.1180  -13.1510   22.3750 H   0  0  0  0  0  0  0  0  0  0  0  0
  -25.3320  -15.2820   20.3970 N   0  0  0  0  0  0  0  0  0  0  0  0
  -24.5640  -15.9270   20.5480 H   0  0  0  0  0  0  0  0  0  0  0  0
  -26.1690  -15.7370   20.0540 H   0  0  0  0  0  0  0  0  0  0  0  0
  -27.9620  -23.9050   20.2370 C   0  0  0  0  0  3  0  0  0  0  0  0
  -28.1520  -25.6390   20.2840 O   0  0  0  0  0  0  0  0  0  0  0  0
  -24.6500  -31.8800   23.2010 C   0  0  0  0  0  0  0  0  0  0  0  0
  -27.1650  -26.8210   20.2320 C   0  0  0  0  0  0  0  0  0  0  0  0
  -23.4520  -30.4750   21.5750 C   0  0  0  0  0  3  0  0  0  0  0  0
  -24.8930  -28.8240   20.1680 C   0  0  0  0  0  0  0  0  0  0  0  0
  -26.0290  -30.6270   21.4400 C   0  0  0  0  0  2  0  0  0  0  0  0
  -26.0890  -29.1950   20.7930 C   0  0  0  0  0  0  0  0  0  0  0  0
  -27.2130  -28.2210   20.7910 C   0  0  0  0  0  3  0  0  0  0  0  0
  -25.9330  -26.6470   19.5550 C   0  0  0  0  0  3  0  0  0  0  0  0
  -24.8500  -27.5750   19.5250 C   0  0  0  0  0  3  0  0  0  0  0  0
  -23.6860  -29.7720   20.2070 C   0  0  0  0  0  2  0  0  0  0  0  0
  -24.7340  -31.0260   22.1250 N   0  0  0  0  0  0  0  0  0  0  0  0
  -23.5600  -32.1820   23.7150 O   0  0  0  0  0  0  0  0  0  0  0  0
  -22.7410  -29.5020   22.5530 C   0  0  0  0  0  0  0  0  0  0  0  0
  -21.4090  -29.3470   22.4310 N   0  0  0  0  0  0  0  0  0  0  0  0
  -23.4000  -28.8830   23.3930 O   0  0  0  0  0  0  0  0  0  0  0  0
  -20.9280  -29.8970   21.7320 H   0  0  0  0  0  0  0  0  0  0  0  0
  -18.0210  -28.1430   22.9540 C   0  0  0  0  0  0  0  0  0  0  0  0
  -20.5820  -28.4180   23.2110 C   0  0  0  0  0  3  0  0  0  0  0  0
  -20.6830  -26.9800   22.6510 C   0  0  0  0  0  2  0  0  0  0  0  0
  -19.5820  -26.6460   21.6400 C   0  0  0  0  0  2  0  0  0  0  0  0
  -18.2000  -26.7910   22.2840 C   0  0  0  0  0  2  0  0  0  0  0  0
  -19.1380  -28.9130   23.3750 C   0  0  0  0  0  0  0  0  0  0  0  0
  -18.9130  -30.1760   23.9670 C   0  0  0  0  0  3  0  0  0  0  0  0
  -17.6060  -30.6680   24.1380 C   0  0  0  0  0  3  0  0  0  0  0  0
  -16.5040  -29.8960   23.7300 C   0  0  0  0  0  3  0  0  0  0  0  0
  -16.7130  -28.6350   23.1450 C   0  0  0  0  0  3  0  0  0  0  0  0
  -25.9180  -32.5290   23.8330 C   0  0  0  0  0  3  0  0  0  0  0  0
  -26.4220  -31.7710   25.1240 C   0  0  1  0  0  0  0  0  0  0  0  0
  -25.3200  -31.5480   26.1880 C   0  0  0  0  0  1  0  0  0  0  0  0
  -27.0030  -30.3850   24.7620 C   0  0  0  0  0  1  0  0  0  0  0  0
  -27.5700  -32.5680   25.7840 C   0  0  0  0  0  1  0  0  0  0  0  0
  -25.5970  -33.9290   24.1690 N   0  0  0  0  0  0  0  0  0  0  0  0
  -25.9070  -34.9950   23.4170 C   0  0  0  0  0  0  0  0  0  0  0  0
  -26.5520  -34.9020   22.3700 O   0  0  0  0  0  0  0  0  0  0  0  0
  -25.0190  -34.0740   24.9850 H   0  0  0  0  0  0  0  0  0  0  0  0
  -24.1560  -36.7860   23.1440 C   0  0  0  0  0  1  0  0  0  0  0  0
  -25.4320  -36.3820   23.9010 C   0  0  0  0  0  3  0  0  0  0  0  0
  -27.5890  -37.2870   24.6500 C   0  0  0  0  0  1  0  0  0  0  0  0
  -26.4520  -37.4430   23.7480 N   0  0  0  0  0  0  0  0  0  0  0  0
  -26.0450  -38.3610   23.9070 H   0  0  0  0  0  0  0  0  0  0  0  0
  1  2  1  0
  2  4  1  0
  3  2  1  0
  6  5  1  0
  6  2  1  0
  6  7  1  0
  8  7  1  0
  9 14  1  0
 10 11  1  0
 10  9  1  0
 12 11  1  0
 12 19  1  0
 12 13  1  0
 14  8  1  0
 14 13  1  0
 15  8  2  0
 16 17  2  0
 17 36  1  0
 18 17  1  0
 18 21  1  0
 19 20  1  0
 19 16  1  0
 20 18  2  0
 21 22  1  0
 22 23  2  0
 24 27  1  0
 24 23  1  0
 25 24  2  0
 26 25  1  0
 26 21  2  0
 27 28  1  0
 28 29  1  0
 29 30  2  0
 31 30  1  0
 31 35  1  0
 32 31  2  0
 33 28  2  0
 33 32  1  0
 34 33  1  0
 36 37  1  0
 37 40  1  0
 37 39  1  0
 38 36  2  0
 41 42  1  0
 41 16  1  0
 43 41  1  0
 44  1  2  0
 44 45  1  0
 46 57  2  0
 47 45  1  0
 47 52  1  0
 48 56  1  0
 48 58  1  0
 49 55  1  0
 49 51  1  0
 50 56  1  0
 51 50  1  0
 52 51  2  0
 53 47  2  0
 54 53  1  0
 54 49  2  0
 55 48  1  0
 56 46  1  0
 58 60  2  0
 59 58  1  0
 61 59  1  0
 62 71  2  0
 62 67  1  0
 63 59  1  0
 63 67  1  0
 64 63  1  0
 65 66  1  0
 65 64  1  0
 66 62  1  0
 67 68  2  0
 68 69  1  0
 70 69  2  0
 71 70  1  0
 72 46  1  0
 72 77  1  0
 72 73  1  0
 73 76  1  1
 73 74  1  0
 75 73  1  0
 77 80  1  0
 78 82  1  0
 78 77  1  0
 79 78  2  0
 82 81  1  0
 84 82  1  0
 84 85  1  0
 84 83  1  0
M  ISO  4   7 100   8 100  44 101  45 101
M  END
>  <TORSDO>  (80) 
F 20

>  <SCORE>  (80) 
-16.402

>  <name>  (80) 
79

>  <ligand_id>  (80) 
79

>  <original_smiles>  (80) 
[H]c1c([H])c([H])c2c(c1[H])C([H])([H])C([H])([H])C([H])([H])C2([H])N([H])C(=O)C1([H])N(C(=O)C([H])(N([H])C(=O)C([H])(N([H])C([H])([H])[H])C([H])([H])[H])C(C([H])([H])[H])(C([H])([H])[H])C([H])([H])[H])C([H])([H])c2c([H])c(OC([H])([H])C([H])([H])[N+]([H])([H])C([H])(C([H])([H])[H])C([H])([H])C(=O)N3C([H])([H])C([H])([H])C([H])([H])C([H])(n4nc(-c5c([H])c([H])c(Oc6c([H])c([H])c(F)c([H])c6F)c([H])c5[H])c(C(=O)N([H])[H])c4N([H])[H])C3([H])[H])c([H])c([H])c2C1([H])[H]

>  <smiles>  (80) 
[H]c1c([H])c([H])c2c(c1[H])C([H])([H])C([H])([H])C([H])([H])C2([H])N([H])C(=O)C1([H])N(C(=O)C([H])(N([H])C(=O)C([H])(N([H])C([H])([H])[H])C([H])([H])[H])C(C([H])([H])[H])(C([H])([H])[H])C([H])([H])[H])C([H])([H])c2c([H])c(OC([H])([H])C([H])([H])[N+]([H])([H])C([H])(C([H])([H])[H])C([H])([H])C(=O)N3C([H])([H])C([H])([H])C([H])([H])C([H])(n4nc(-c5c([H])c([H])c(Oc6c([H])c([H])c(F)c([H])c6F)c([H])c5[H])c(C(=O)N([H])[H])c4N([H])[H])C3([H])[H])c([H])c([H])c2C1([H])[H]

$$$$
80:0:0
     RDKit          3D

 93101  0  0  1  0  0  0  0  0999 V2000
  -30.8850  -23.0010   20.5380 C   0  0  0  0  0  0  0  0  0  0  0  0
  -30.0110  -23.8550   21.0920 N   0  0  0  0  0  0  0  0  0  0  0  0
  -31.7870  -23.3730   19.7840 O   0  0  0  0  0  0  0  0  0  0  0  0
  -29.3050  -23.4740   21.7050 H   0  0  0  0  0  0  0  0  0  0  0  0
  -29.4250  -19.5430   21.3760 C   0  0  0  0  0  3  0  0  0  0  0  0
  -31.8430  -19.3560   21.2400 C   0  0  0  0  0  3  0  0  0  0  0  0
  -29.5100  -20.9270   21.1180 C   0  0  0  0  0  3  0  0  0  0  0  0
  -31.9350  -20.7460   21.0120 C   0  0  0  0  0  3  0  0  0  0  0  0
  -30.5830  -18.7380   21.3840 C   0  0  0  0  0  0  0  0  0  0  0  0
  -30.7680  -21.5440   20.9200 C   0  0  0  0  0  0  0  0  0  0  0  0
  -30.4760  -17.2610   21.5290 C   0  0  0  0  0  0  0  0  0  0  0  0
  -29.8290  -16.7110   22.4220 O   0  0  0  0  0  0  0  0  0  0  0  0
  -31.1060  -16.4280   20.4080 C   0  0  0  0  0  2  0  0  0  0  0  0
  -32.0660  -15.3150   20.8860 C   0  0  0  0  0  2  0  0  0  0  0  0
  -32.2180  -14.2030   19.8320 C   0  0  0  0  0  0  0  0  0  0  0  0
  -31.4780  -12.1140   18.7240 C   0  0  0  0  0  2  0  0  0  0  0  0
  -30.5240  -12.4130   17.5530 C   0  0  0  0  0  2  0  0  0  0  0  0
  -29.0730  -12.4930   18.0560 C   0  0  0  0  0  2  0  0  0  0  0  0
  -28.9230  -13.4180   19.2880 C   0  0  0  0  0  3  0  0  0  0  0  0
  -29.9990  -13.1430   20.3670 C   0  0  0  0  0  2  0  0  0  0  0  0
  -31.3260  -13.1800   19.7310 N   0  0  0  0  0  0  0  0  0  0  0  0
  -33.2050  -14.2810   19.0960 O   0  0  0  0  0  0  0  0  0  0  0  0
  -26.6990  -14.3790   20.1490 C   0  0  0  0  0  0  0  0  0  0  0  0
  -25.5440  -13.7780   20.5620 C   0  0  0  0  0  0  0  0  0  0  0  0
  -25.7750  -12.3690   20.4800 C   0  0  0  0  0  0  0  0  0  0  0  0
  -27.5740  -13.3480   19.8420 N   0  0  0  0  0  0  0  0  0  0  0  0
  -27.0220  -12.1300   20.0910 N   0  0  0  0  0  0  0  0  0  0  0  0
  -24.8620  -11.2360   20.6870 C   0  0  0  0  0  0  0  0  0  0  0  0
  -25.1660  -10.1960   21.5940 C   0  0  0  0  0  3  0  0  0  0  0  0
  -24.2600   -9.1330   21.7920 C   0  0  0  0  0  3  0  0  0  0  0  0
  -23.0370   -9.0990   21.0790 C   0  0  0  0  0  0  0  0  0  0  0  0
  -22.7510  -10.1240   20.1590 C   0  0  0  0  0  3  0  0  0  0  0  0
  -23.6560  -11.1800   19.9590 C   0  0  0  0  0  3  0  0  0  0  0  0
  -22.1070   -8.0930   21.1870 O   0  0  0  0  0  0  0  0  0  0  0  0
  -21.9560   -7.3740   22.3470 C   0  0  0  0  0  0  0  0  0  0  0  0
  -21.6680   -8.0000   23.5790 C   0  0  0  0  0  3  0  0  0  0  0  0
  -21.4530   -7.2190   24.7330 C   0  0  0  0  0  3  0  0  0  0  0  0
  -21.5140   -5.8140   24.6550 C   0  0  0  0  0  0  0  0  0  0  0  0
  -21.7950   -5.1890   23.4280 C   0  0  0  0  0  3  0  0  0  0  0  0
  -22.0140   -5.9670   22.2770 C   0  0  0  0  0  0  0  0  0  0  0  0
  -22.2630   -5.3600   21.0920 F   0  0  0  0  0  0  0  0  0  0  0  0
  -21.3020   -5.0630   25.7600 F   0  0  0  0  0  0  0  0  0  0  0  0
  -24.2600  -14.4660   20.9260 C   0  0  0  0  0  0  0  0  0  0  0  0
  -23.4940  -13.8920   21.8430 N   0  0  0  0  0  0  0  0  0  0  0  0
  -23.9570  -15.5520   20.4290 O   0  0  0  0  0  0  0  0  0  0  0  0
  -23.7550  -13.0140   22.2680 H   0  0  0  0  0  0  0  0  0  0  0  0
  -22.6320  -14.3350   22.1260 H   0  0  0  0  0  0  0  0  0  0  0  0
  -27.0670  -15.7120   19.9840 N   0  0  0  0  0  0  0  0  0  0  0  0
  -26.3860  -16.4570   20.0780 H   0  0  0  0  0  0  0  0  0  0  0  0
  -27.9360  -16.0300   19.5770 H   0  0  0  0  0  0  0  0  0  0  0  0
  -30.1040  -25.3150   20.9860 C   0  0  0  0  0  2  0  0  0  0  0  0
  -28.7790  -26.0360   21.3210 C   0  0  0  0  0  2  0  0  0  0  0  0
  -28.0880  -26.3190   20.1070 O   0  0  0  0  0  0  0  0  0  0  0  0
  -24.4550  -31.6870   23.1760 C   0  0  0  0  0  0  0  0  0  0  0  0
  -26.9750  -27.1250   20.1770 C   0  0  0  0  0  0  0  0  0  0  0  0
  -23.2100  -30.3020   21.5520 C   0  0  0  0  0  3  0  0  0  0  0  0
  -24.6200  -28.6910   20.1600 C   0  0  0  0  0  0  0  0  0  0  0  0
  -25.7460  -30.5710   21.3670 C   0  0  0  0  0  2  0  0  0  0  0  0
  -25.7880  -29.1870   20.7530 C   0  0  0  0  0  0  0  0  0  0  0  0
  -26.9680  -28.4090   20.7740 C   0  0  0  0  0  3  0  0  0  0  0  0
  -25.7990  -26.6460   19.5710 C   0  0  0  0  0  3  0  0  0  0  0  0
  -24.6180  -27.4130   19.5710 C   0  0  0  0  0  3  0  0  0  0  0  0
  -23.4060  -29.5910   20.1850 C   0  0  0  0  0  2  0  0  0  0  0  0
  -24.4870  -30.8680   22.0910 N   0  0  0  0  0  0  0  0  0  0  0  0
  -23.3840  -32.0060   23.7100 O   0  0  0  0  0  0  0  0  0  0  0  0
  -22.5200  -29.3180   22.5260 C   0  0  0  0  0  0  0  0  0  0  0  0
  -21.1890  -29.1800   22.3960 N   0  0  0  0  0  0  0  0  0  0  0  0
  -23.1800  -28.6830   23.3530 O   0  0  0  0  0  0  0  0  0  0  0  0
  -20.7200  -29.7390   21.6990 H   0  0  0  0  0  0  0  0  0  0  0  0
  -17.7790  -28.0840   22.8750 C   0  0  0  0  0  0  0  0  0  0  0  0
  -20.3390  -28.2800   23.1800 C   0  0  0  0  0  3  0  0  0  0  0  0
  -20.4120  -26.8350   22.6370 C   0  0  0  0  0  2  0  0  0  0  0  0
  -19.3160  -26.5150   21.6160 C   0  0  0  0  0  2  0  0  0  0  0  0
  -17.9300  -26.7120   22.2360 C   0  0  0  0  0  2  0  0  0  0  0  0
  -18.9110  -28.8260   23.3030 C   0  0  0  0  0  0  0  0  0  0  0  0
  -18.7180  -30.1080   23.8580 C   0  0  0  0  0  3  0  0  0  0  0  0
  -17.4240  -30.6470   23.9950 C   0  0  0  0  0  3  0  0  0  0  0  0
  -16.3050  -29.9010   23.5850 C   0  0  0  0  0  3  0  0  0  0  0  0
  -16.4840  -28.6210   23.0280 C   0  0  0  0  0  3  0  0  0  0  0  0
  -25.7630  -32.2820   23.7870 C   0  0  0  0  0  3  0  0  0  0  0  0
  -25.4900  -33.6820   24.1380 N   0  0  0  0  0  0  0  0  0  0  0  0
  -25.8490  -34.7350   23.3920 C   0  0  0  0  0  0  0  0  0  0  0  0
  -26.5150  -34.6300   22.3600 O   0  0  0  0  0  0  0  0  0  0  0  0
  -24.8950  -33.8360   24.9390 H   0  0  0  0  0  0  0  0  0  0  0  0
  -24.1680  -36.5730   23.0600 C   0  0  0  0  0  1  0  0  0  0  0  0
  -25.3940  -36.1260   23.8700 C   0  0  0  0  0  3  0  0  0  0  0  0
  -27.5480  -36.9430   24.7190 C   0  0  0  0  0  1  0  0  0  0  0  0
  -26.4530  -37.1550   23.7770 N   0  0  0  0  0  0  0  0  0  0  0  0
  -26.0690  -38.0820   23.9400 H   0  0  0  0  0  0  0  0  0  0  0  0
  -26.2800  -31.4810   25.0440 C   0  0  1  0  0  0  0  0  0  0  0  0
  -25.1980  -31.2540   26.1250 C   0  0  0  0  0  1  0  0  0  0  0  0
  -26.8290  -30.0960   24.6250 C   0  0  0  0  0  1  0  0  0  0  0  0
  -27.4580  -32.2420   25.7000 C   0  0  0  0  0  1  0  0  0  0  0  0
  1 10  1  0
  1  2  1  0
  2  4  1  0
  3  1  2  0
  5  9  1  0
  6  9  2  0
  7  5  2  0
  8  6  1  0
  9 11  1  0
 10  8  2  0
 10  7  1  0
 11 12  2  0
 13 14  1  0
 13 11  1  0
 15 14  1  0
 16 21  1  0
 17 18  1  0
 17 16  1  0
 19 18  1  0
 19 26  1  0
 19 20  1  0
 21 15  1  0
 21 20  1  0
 22 15  2  0
 23 24  2  0
 24 43  1  0
 25 24  1  0
 25 28  1  0
 26 27  1  0
 26 23  1  0
 27 25  2  0
 28 29  1  0
 29 30  2  0
 31 34  1  0
 31 30  1  0
 32 31  2  0
 33 32  1  0
 33 28  2  0
 34 35  1  0
 35 36  1  0
 36 37  2  0
 38 37  1  0
 38 42  1  0
 39 38  2  0
 40 35  2  0
 40 39  1  0
 41 40  1  0
 43 44  1  0
 44 47  1  0
 44 46  1  0
 45 43  2  0
 48 49  1  0
 48 23  1  0
 50 48  1  0
 51  2  1  0
 51 52  1  0
 53 55  1  0
 53 52  1  0
 54 65  2  0
 55 60  1  0
 56 64  1  0
 56 66  1  0
 57 63  1  0
 57 59  1  0
 58 64  1  0
 59 60  2  0
 59 58  1  0
 61 62  1  0
 61 55  2  0
 62 57  2  0
 63 56  1  0
 64 54  1  0
 66 68  2  0
 67 66  1  0
 69 67  1  0
 70 79  2  0
 70 75  1  0
 71 67  1  0
 71 75  1  0
 72 71  1  0
 73 74  1  0
 73 72  1  0
 74 70  1  0
 75 76  2  0
 76 77  1  0
 78 77  2  0
 79 78  1  0
 80 54  1  0
 80 81  1  0
 80 90  1  0
 81 84  1  0
 82 86  1  0
 82 81  1  0
 83 82  2  0
 86 85  1  0
 88 86  1  0
 88 89  1  0
 88 87  1  0
 90 93  1  1
 90 91  1  0
 92 90  1  0
M  ISO  4  14 100  15 100  52 101  53 101
M  END
>  <TORSDO>  (81) 
F 22

>  <SCORE>  (81) 
-11.466

>  <name>  (81) 
80

>  <ligand_id>  (81) 
80

>  <original_smiles>  (81) 
[H]c1c([H])c([H])c2c(c1[H])C([H])([H])C([H])([H])C([H])([H])C2([H])N([H])C(=O)C1([H])N(C(=O)C([H])(N([H])C(=O)C([H])(N([H])C([H])([H])[H])C([H])([H])[H])C(C([H])([H])[H])(C([H])([H])[H])C([H])([H])[H])C([H])([H])c2c([H])c(OC([H])([H])C([H])([H])N([H])C(=O)c3c([H])c([H])c(C(=O)C([H])([H])C([H])([H])C(=O)N4C([H])([H])C([H])([H])C([H])([H])C([H])(n5nc(-c6c([H])c([H])c(Oc7c([H])c([H])c(F)c([H])c7F)c([H])c6[H])c(C(=O)N([H])[H])c5N([H])[H])C4([H])[H])c([H])c3[H])c([H])c([H])c2C1([H])[H]

>  <smiles>  (81) 
[H]c1c([H])c([H])c2c(c1[H])C([H])([H])C([H])([H])C([H])([H])C2([H])N([H])C(=O)C1([H])N(C(=O)C([H])(N([H])C(=O)C([H])(N([H])C([H])([H])[H])C([H])([H])[H])C(C([H])([H])[H])(C([H])([H])[H])C([H])([H])[H])C([H])([H])c2c([H])c(OC([H])([H])C([H])([H])N([H])C(=O)c3c([H])c([H])c(C(=O)C([H])([H])C([H])([H])C(=O)N4C([H])([H])C([H])([H])C([H])([H])C([H])(n5nc(-c6c([H])c([H])c(Oc7c([H])c([H])c(F)c([H])c7F)c([H])c6[H])c(C(=O)N([H])[H])c5N([H])[H])C4([H])[H])c([H])c3[H])c([H])c([H])c2C1([H])[H]

$$$$
81:0:0
     RDKit          3D

 91 99  0  0  1  0  0  0  0  0999 V2000
  -29.2080  -20.9110   22.3680 C   0  0  0  0  0  3  0  0  0  0  0  0
  -30.0400  -19.7810   22.2440 C   0  0  0  0  0  3  0  0  0  0  0  0
  -29.4780  -22.0730   21.6200 C   0  0  0  0  0  3  0  0  0  0  0  0
  -31.3890  -20.9600   20.5880 C   0  0  0  0  0  3  0  0  0  0  0  0
  -31.1320  -19.7950   21.3510 C   0  0  0  0  0  0  0  0  0  0  0  0
  -30.5710  -22.1090   20.7240 C   0  0  0  0  0  0  0  0  0  0  0  0
  -32.0510  -18.6270   21.3240 C   0  0  0  0  0  0  0  0  0  0  0  0
  -32.8100  -18.3600   22.2610 O   0  0  0  0  0  0  0  0  0  0  0  0
  -31.9770  -17.6830   20.1220 C   0  0  0  0  0  2  0  0  0  0  0  0
  -31.4020  -16.2970   20.5200 C   0  0  0  0  0  2  0  0  0  0  0  0
  -32.0160  -15.0900   19.7880 C   0  0  0  0  0  0  0  0  0  0  0  0
  -31.6710  -12.8240   18.8510 C   0  0  0  0  0  2  0  0  0  0  0  0
  -30.6870  -12.8900   17.6650 C   0  0  0  0  0  2  0  0  0  0  0  0
  -29.2260  -12.8230   18.1550 C   0  0  0  0  0  2  0  0  0  0  0  0
  -28.9370  -13.8120   19.3160 C   0  0  0  0  0  3  0  0  0  0  0  0
  -30.0220  -13.6930   20.4100 C   0  0  0  0  0  2  0  0  0  0  0  0
  -31.3330  -13.9150   19.7760 N   0  0  0  0  0  0  0  0  0  0  0  0
  -33.0810  -15.2380   19.1820 O   0  0  0  0  0  0  0  0  0  0  0  0
  -26.6190  -14.5660   20.1480 C   0  0  0  0  0  0  0  0  0  0  0  0
  -25.5220  -13.8600   20.5610 C   0  0  0  0  0  0  0  0  0  0  0  0
  -25.8920  -12.4810   20.4920 C   0  0  0  0  0  0  0  0  0  0  0  0
  -27.5920  -13.6220   19.8570 N   0  0  0  0  0  0  0  0  0  0  0  0
  -27.1580  -12.3630   20.1180 N   0  0  0  0  0  0  0  0  0  0  0  0
  -25.0950  -11.2660   20.7050 C   0  0  0  0  0  0  0  0  0  0  0  0
  -25.4050  -10.3510   21.7360 C   0  0  0  0  0  3  0  0  0  0  0  0
  -24.6140   -9.2000   21.9330 C   0  0  0  0  0  3  0  0  0  0  0  0
  -23.5000   -8.9530   21.0970 C   0  0  0  0  0  0  0  0  0  0  0  0
  -23.2080   -9.8540   20.0580 C   0  0  0  0  0  3  0  0  0  0  0  0
  -23.9980  -10.9980   19.8600 C   0  0  0  0  0  3  0  0  0  0  0  0
  -22.6920   -7.8450   21.1950 O   0  0  0  0  0  0  0  0  0  0  0  0
  -22.3550   -7.3070   22.4110 C   0  0  0  0  0  0  0  0  0  0  0  0
  -21.6670   -8.0530   23.3920 C   0  0  0  0  0  3  0  0  0  0  0  0
  -21.2790   -7.4400   24.6000 C   0  0  0  0  0  3  0  0  0  0  0  0
  -21.5700   -6.0820   24.8270 C   0  0  0  0  0  0  0  0  0  0  0  0
  -22.2520   -5.3360   23.8490 C   0  0  0  0  0  3  0  0  0  0  0  0
  -22.6400   -5.9460   22.6430 C   0  0  0  0  0  0  0  0  0  0  0  0
  -23.2780   -5.2170   21.6960 F   0  0  0  0  0  0  0  0  0  0  0  0
  -21.1930   -5.4900   25.9830 F   0  0  0  0  0  0  0  0  0  0  0  0
  -24.1750  -14.4220   20.9110 C   0  0  0  0  0  0  0  0  0  0  0  0
  -23.4590  -13.7740   21.8230 N   0  0  0  0  0  0  0  0  0  0  0  0
  -23.7690  -15.4700   20.4100 O   0  0  0  0  0  0  0  0  0  0  0  0
  -23.8020  -12.9260   22.2490 H   0  0  0  0  0  0  0  0  0  0  0  0
  -22.5560  -14.1330   22.1000 H   0  0  0  0  0  0  0  0  0  0  0  0
  -26.8640  -15.9260   19.9780 N   0  0  0  0  0  0  0  0  0  0  0  0
  -26.1500  -16.6280   20.1350 H   0  0  0  0  0  0  0  0  0  0  0  0
  -27.7270  -16.3120   19.6170 H   0  0  0  0  0  0  0  0  0  0  0  0
  -30.9170  -23.3800   19.9460 C   0  0  0  0  0  2  0  0  0  0  0  0
  -29.7130  -24.2690   19.5630 C   0  0  0  0  0  2  0  0  0  0  0  0
  -30.0790  -25.4150   18.5980 C   0  0  0  0  0  2  0  0  0  0  0  0
  -28.8750  -26.2970   18.2210 C   0  0  0  0  0  2  0  0  0  0  0  0
  -28.6040  -27.2410   19.2640 O   0  0  0  0  0  0  0  0  0  0  0  0
  -24.5030  -31.5810   23.1180 C   0  0  0  0  0  0  0  0  0  0  0  0
  -27.3530  -27.8160   19.3730 C   0  0  0  0  0  0  0  0  0  0  0  0
  -23.3310  -30.2640   21.3860 C   0  0  0  0  0  3  0  0  0  0  0  0
  -24.8270  -29.0600   19.7080 C   0  0  0  0  0  0  0  0  0  0  0  0
  -25.7960  -30.8940   21.0990 C   0  0  0  0  0  2  0  0  0  0  0  0
  -25.9660  -29.6190   20.3000 C   0  0  0  0  0  0  0  0  0  0  0  0
  -27.2250  -28.9970   20.1420 C   0  0  0  0  0  3  0  0  0  0  0  0
  -26.1860  -27.2690   18.7860 C   0  0  0  0  0  3  0  0  0  0  0  0
  -24.9330  -27.8810   18.9540 C   0  0  0  0  0  3  0  0  0  0  0  0
  -23.5130  -29.7740   19.9240 C   0  0  0  0  0  2  0  0  0  0  0  0
  -24.5650  -30.9220   21.9260 N   0  0  0  0  0  0  0  0  0  0  0  0
  -23.4370  -31.6800   23.7410 O   0  0  0  0  0  0  0  0  0  0  0  0
  -22.8430  -29.0770   22.2460 C   0  0  0  0  0  0  0  0  0  0  0  0
  -21.5560  -28.7250   22.1030 N   0  0  0  0  0  0  0  0  0  0  0  0
  -23.6190  -28.4790   22.9960 O   0  0  0  0  0  0  0  0  0  0  0  0
  -20.9830  -29.2720   21.4740 H   0  0  0  0  0  0  0  0  0  0  0  0
  -18.4020  -26.9930   22.4370 C   0  0  0  0  0  0  0  0  0  0  0  0
  -20.8870  -27.6150   22.7820 C   0  0  0  0  0  3  0  0  0  0  0  0
  -21.2150  -26.2660   22.1010 C   0  0  0  0  0  2  0  0  0  0  0  0
  -20.1850  -25.8600   21.0420 C   0  0  0  0  0  2  0  0  0  0  0  0
  -18.7910  -25.7430   21.6650 C   0  0  0  0  0  2  0  0  0  0  0  0
  -19.3870  -27.8790   22.9470 C   0  0  0  0  0  0  0  0  0  0  0  0
  -18.9730  -29.0470   23.6240 C   0  0  0  0  0  3  0  0  0  0  0  0
  -17.6050  -29.3310   23.7990 C   0  0  0  0  0  3  0  0  0  0  0  0
  -16.6350  -28.4420   23.3060 C   0  0  0  0  0  3  0  0  0  0  0  0
  -17.0340  -27.2740   22.6300 C   0  0  0  0  0  3  0  0  0  0  0  0
  -25.7610  -32.2620   23.7420 C   0  0  0  0  0  3  0  0  0  0  0  0
  -25.3840  -33.6330   24.1090 N   0  0  0  0  0  0  0  0  0  0  0  0
  -25.6690  -34.7200   23.3790 C   0  0  0  0  0  0  0  0  0  0  0  0
  -26.3490  -34.6760   22.3500 O   0  0  0  0  0  0  0  0  0  0  0  0
  -24.7770  -33.7370   24.9080 H   0  0  0  0  0  0  0  0  0  0  0  0
  -23.8630  -36.4390   23.0500 C   0  0  0  0  0  1  0  0  0  0  0  0
  -25.1120  -36.0710   23.8670 C   0  0  0  0  0  3  0  0  0  0  0  0
  -27.1890  -37.0340   24.7560 C   0  0  0  0  0  1  0  0  0  0  0  0
  -26.0970  -37.1730   23.7950 N   0  0  0  0  0  0  0  0  0  0  0  0
  -25.6470  -38.0700   23.9510 H   0  0  0  0  0  0  0  0  0  0  0  0
  -26.3300  -31.4840   24.9910 C   0  0  1  0  0  0  0  0  0  0  0  0
  -25.2610  -31.1540   26.0580 C   0  0  0  0  0  1  0  0  0  0  0  0
  -26.9890  -30.1550   24.5540 C   0  0  0  0  0  1  0  0  0  0  0  0
  -27.4400  -32.3240   25.6660 C   0  0  0  0  0  1  0  0  0  0  0  0
  2  1  1  0
  3  1  2  0
  4  6  2  0
  4  5  1  0
  5  2  2  0
  6  3  1  0
  7  5  1  0
  7  8  2  0
  9 10  1  0
  9  7  1  0
 11 10  1  0
 12 17  1  0
 13 14  1  0
 13 12  1  0
 15 14  1  0
 15 22  1  0
 15 16  1  0
 17 11  1  0
 17 16  1  0
 18 11  2  0
 19 20  2  0
 20 39  1  0
 21 20  1  0
 21 24  1  0
 22 23  1  0
 22 19  1  0
 23 21  2  0
 24 25  1  0
 25 26  2  0
 27 30  1  0
 27 26  1  0
 28 27  2  0
 29 28  1  0
 29 24  2  0
 30 31  1  0
 31 36  2  0
 31 32  1  0
 32 33  2  0
 33 34  1  0
 34 38  1  0
 35 34  2  0
 36 35  1  0
 37 36  1  0
 39 40  1  0
 40 43  1  0
 40 42  1  0
 41 39  2  0
 44 45  1  0
 44 19  1  0
 46 44  1  0
 47  6  1  0
 48 47  1  0
 49 48  1  0
 50 49  1  0
 50 51  1  0
 51 53  1  0
 52 63  2  0
 53 58  1  0
 54 62  1  0
 54 64  1  0
 55 61  1  0
 55 57  1  0
 56 62  1  0
 57 56  1  0
 58 57  2  0
 59 60  1  0
 59 53  2  0
 60 55  2  0
 61 54  1  0
 62 52  1  0
 64 66  2  0
 65 64  1  0
 67 65  1  0
 68 77  2  0
 68 73  1  0
 69 65  1  0
 69 73  1  0
 70 69  1  0
 71 72  1  0
 71 70  1  0
 72 68  1  0
 73 74  2  0
 74 75  1  0
 76 75  2  0
 77 76  1  0
 78 52  1  0
 78 79  1  0
 78 88  1  0
 79 82  1  0
 80 84  1  0
 80 79  1  0
 81 80  2  0
 84 83  1  0
 86 84  1  0
 86 87  1  0
 86 85  1  0
 88 91  1  1
 88 89  1  0
 90 88  1  0
M  ISO  4  10 100  11 100  50 101  51 101
M  END
>  <TORSDO>  (82) 
F 23

>  <SCORE>  (82) 
-8.405

>  <name>  (82) 
81

>  <ligand_id>  (82) 
81

>  <original_smiles>  (82) 
[H]c1c([H])c(C(=O)C([H])([H])C([H])([H])C(=O)N2C([H])([H])C([H])([H])C([H])([H])C([H])(n3nc(-c4c([H])c([H])c(Oc5c([H])c([H])c(F)c([H])c5F)c([H])c4[H])c(C(=O)N([H])[H])c3N([H])[H])C2([H])[H])c([H])c(C([H])([H])C([H])([H])C([H])([H])C([H])([H])Oc2c([H])c([H])c3c(c2[H])C([H])([H])N(C(=O)C([H])(N([H])C(=O)C([H])(N([H])C([H])([H])[H])C([H])([H])[H])C(C([H])([H])[H])(C([H])([H])[H])C([H])([H])[H])C([H])(C(=O)N([H])C2([H])c4c([H])c([H])c([H])c([H])c4C([H])([H])C([H])([H])C2([H])[H])C3([H])[H])c1[H]

>  <smiles>  (82) 
[H]c1c([H])c(C(=O)C([H])([H])C([H])([H])C(=O)N2C([H])([H])C([H])([H])C([H])([H])C([H])(n3nc(-c4c([H])c([H])c(Oc5c([H])c([H])c(F)c([H])c5F)c([H])c4[H])c(C(=O)N([H])[H])c3N([H])[H])C2([H])[H])c([H])c(C([H])([H])C([H])([H])C([H])([H])C([H])([H])Oc2c([H])c([H])c3c(c2[H])C([H])([H])N(C(=O)C([H])(N([H])C(=O)C([H])(N([H])C([H])([H])[H])C([H])([H])[H])C(C([H])([H])[H])(C([H])([H])[H])C([H])([H])[H])C([H])(C(=O)N([H])C2([H])c4c([H])c([H])c([H])c([H])c4C([H])([H])C([H])([H])C2([H])[H])C3([H])[H])c1[H]

$$$$
82:0:0
     RDKit          3D

 92100  0  0  1  0  0  0  0  0999 V2000
  -29.8110  -21.3770   22.5110 C   0  0  0  0  0  2  0  0  0  0  0  0
  -31.7090  -18.1120   23.0450 C   0  0  0  0  0  3  0  0  0  0  0  0
  -31.1270  -17.2760   22.0780 C   0  0  0  0  0  3  0  0  0  0  0  0
  -31.3100  -19.4540   23.1390 C   0  0  0  0  0  3  0  0  0  0  0  0
  -30.1910  -17.7810   21.1470 C   0  0  0  0  0  0  0  0  0  0  0  0
  -30.3570  -19.9780   22.2460 C   0  0  0  0  0  0  0  0  0  0  0  0
  -29.8530  -19.1670   21.1960 C   0  0  0  0  0  0  0  0  0  0  0  0
  -28.9390  -19.7950   20.1340 C   0  0  0  0  0  1  0  0  0  0  0  0
  -29.5640  -16.9330   20.1080 C   0  0  0  0  0  3  0  0  0  0  0  0
  -29.7480  -15.6850   19.6430 C   0  0  0  0  0  3  0  0  0  0  0  0
  -30.6770  -14.6450   20.0480 C   0  0  0  0  0  0  0  0  0  0  0  0
  -30.3910  -12.4440   19.0520 C   0  0  0  0  0  2  0  0  0  0  0  0
  -29.4100  -12.6450   17.8740 C   0  0  0  0  0  2  0  0  0  0  0  0
  -27.9460  -12.4860   18.3420 C   0  0  0  0  0  2  0  0  0  0  0  0
  -27.6220  -13.3190   19.6120 C   0  0  0  0  0  3  0  0  0  0  0  0
  -28.7340  -13.1760   20.6820 C   0  0  0  0  0  2  0  0  0  0  0  0
  -30.0530  -13.4370   20.0740 N   0  0  0  0  0  0  0  0  0  0  0  0
  -31.8860  -14.7890   19.8730 O   0  0  0  0  0  0  0  0  0  0  0  0
  -25.2640  -13.9250   20.4210 C   0  0  0  0  0  0  0  0  0  0  0  0
  -24.2080  -13.1470   20.8080 C   0  0  0  0  0  0  0  0  0  0  0  0
  -24.6740  -11.8000   20.7540 C   0  0  0  0  0  0  0  0  0  0  0  0
  -26.2990  -13.0410   20.1460 N   0  0  0  0  0  0  0  0  0  0  0  0
  -25.9530  -11.7600   20.4100 N   0  0  0  0  0  0  0  0  0  0  0  0
  -23.9650  -10.5350   20.9570 C   0  0  0  0  0  0  0  0  0  0  0  0
  -24.4170   -9.5840   21.8960 C   0  0  0  0  0  3  0  0  0  0  0  0
  -23.7120   -8.3770   22.0860 C   0  0  0  0  0  3  0  0  0  0  0  0
  -22.5430   -8.1150   21.3360 C   0  0  0  0  0  0  0  0  0  0  0  0
  -22.1100   -9.0560   20.3850 C   0  0  0  0  0  3  0  0  0  0  0  0
  -22.8150  -10.2540   20.1930 C   0  0  0  0  0  3  0  0  0  0  0  0
  -21.8070   -6.9590   21.4320 O   0  0  0  0  0  0  0  0  0  0  0  0
  -21.7500   -6.2410   22.5980 C   0  0  0  0  0  0  0  0  0  0  0  0
  -21.3040   -6.8180   23.8060 C   0  0  0  0  0  3  0  0  0  0  0  0
  -21.1880   -6.0230   24.9640 C   0  0  0  0  0  3  0  0  0  0  0  0
  -21.5150   -4.6540   24.9150 C   0  0  0  0  0  0  0  0  0  0  0  0
  -21.9610   -4.0800   23.7110 C   0  0  0  0  0  3  0  0  0  0  0  0
  -22.0740   -4.8710   22.5550 C   0  0  0  0  0  0  0  0  0  0  0  0
  -22.4810   -4.3060   21.3910 F   0  0  0  0  0  0  0  0  0  0  0  0
  -21.4000   -3.8890   26.0240 F   0  0  0  0  0  0  0  0  0  0  0  0
  -22.8180  -13.6200   21.1200 C   0  0  0  0  0  0  0  0  0  0  0  0
  -22.1160  -12.9130   21.9990 N   0  0  0  0  0  0  0  0  0  0  0  0
  -22.3630  -14.6470   20.6200 O   0  0  0  0  0  0  0  0  0  0  0  0
  -22.4980  -12.0790   22.4180 H   0  0  0  0  0  0  0  0  0  0  0  0
  -21.1870  -13.2150   22.2580 H   0  0  0  0  0  0  0  0  0  0  0  0
  -25.4140  -15.2980   20.2580 N   0  0  0  0  0  0  0  0  0  0  0  0
  -24.6410  -15.9390   20.4000 H   0  0  0  0  0  0  0  0  0  0  0  0
  -26.2590  -15.7580   19.9400 H   0  0  0  0  0  0  0  0  0  0  0  0
  -30.3500  -22.5130   21.6100 C   0  0  0  0  0  2  0  0  0  0  0  0
  -29.1820  -23.3650   21.0560 C   0  0  0  0  0  2  0  0  0  0  0  0
  -29.5370  -24.7380   20.4920 C   0  0  0  0  0  0  0  0  0  0  0  0
  -30.6670  -25.2290   20.5820 O   0  0  0  0  0  0  0  0  0  0  0  0
  -28.3720  -25.4620   19.8200 C   0  0  0  0  0  2  0  0  0  0  0  0
  -28.4220  -26.8640   20.0950 O   0  0  0  0  0  0  0  0  0  0  0  0
  -24.5550  -31.9350   23.2160 C   0  0  0  0  0  0  0  0  0  0  0  0
  -27.2220  -27.5410   20.0980 C   0  0  0  0  0  0  0  0  0  0  0  0
  -23.3470  -30.5290   21.5750 C   0  0  0  0  0  3  0  0  0  0  0  0
  -24.8030  -29.0070   20.1430 C   0  0  0  0  0  0  0  0  0  0  0  0
  -25.8660  -30.9140   21.3610 C   0  0  0  0  0  2  0  0  0  0  0  0
  -25.9590  -29.5440   20.7230 C   0  0  0  0  0  0  0  0  0  0  0  0
  -27.1680  -28.8150   20.7020 C   0  0  0  0  0  3  0  0  0  0  0  0
  -26.0450  -27.0150   19.5130 C   0  0  0  0  0  3  0  0  0  0  0  0
  -24.8390  -27.7380   19.5430 C   0  0  0  0  0  3  0  0  0  0  0  0
  -23.5530  -29.8550   20.1930 C   0  0  0  0  0  2  0  0  0  0  0  0
  -24.6070  -31.1430   22.1070 N   0  0  0  0  0  0  0  0  0  0  0  0
  -23.4790  -32.1960   23.7710 O   0  0  0  0  0  0  0  0  0  0  0  0
  -22.7110  -29.4980   22.5370 C   0  0  0  0  0  0  0  0  0  0  0  0
  -21.3870  -29.3070   22.4200 N   0  0  0  0  0  0  0  0  0  0  0  0
  -23.4060  -28.8750   23.3430 O   0  0  0  0  0  0  0  0  0  0  0  0
  -20.8860  -29.8700   21.7460 H   0  0  0  0  0  0  0  0  0  0  0  0
  -18.0260  -28.0880   22.9430 C   0  0  0  0  0  0  0  0  0  0  0  0
  -20.5830  -28.3610   23.1940 C   0  0  0  0  0  3  0  0  0  0  0  0
  -20.6890  -26.9290   22.6150 C   0  0  0  0  0  2  0  0  0  0  0  0
  -19.5820  -26.6060   21.6060 C   0  0  0  0  0  2  0  0  0  0  0  0
  -18.2050  -26.7420   22.2620 C   0  0  0  0  0  2  0  0  0  0  0  0
  -19.1420  -28.8550   23.3670 C   0  0  0  0  0  0  0  0  0  0  0  0
  -18.9210  -30.1160   23.9630 C   0  0  0  0  0  3  0  0  0  0  0  0
  -17.6130  -30.6100   24.1370 C   0  0  0  0  0  3  0  0  0  0  0  0
  -16.5110  -29.8400   23.7290 C   0  0  0  0  0  3  0  0  0  0  0  0
  -16.7170  -28.5810   23.1370 C   0  0  0  0  0  3  0  0  0  0  0  0
  -25.8440  -32.5730   23.8230 C   0  0  0  0  0  3  0  0  0  0  0  0
  -25.5300  -33.9700   24.1550 N   0  0  0  0  0  0  0  0  0  0  0  0
  -25.8570  -35.0240   23.3960 C   0  0  0  0  0  0  0  0  0  0  0  0
  -26.5290  -34.9260   22.3650 O   0  0  0  0  0  0  0  0  0  0  0  0
  -24.9400  -34.1210   24.9620 H   0  0  0  0  0  0  0  0  0  0  0  0
  -24.1280  -36.8110   23.0330 C   0  0  0  0  0  1  0  0  0  0  0  0
  -25.3620  -36.4090   23.8550 C   0  0  0  0  0  3  0  0  0  0  0  0
  -27.4890  -37.2920   24.7040 C   0  0  0  0  0  1  0  0  0  0  0  0
  -26.3930  -37.4640   23.7540 N   0  0  0  0  0  0  0  0  0  0  0  0
  -25.9870  -38.3830   23.9080 H   0  0  0  0  0  0  0  0  0  0  0  0
  -26.3800  -31.8040   25.0930 C   0  0  1  0  0  0  0  0  0  0  0  0
  -25.2990  -31.5560   26.1710 C   0  0  0  0  0  1  0  0  0  0  0  0
  -26.9680  -30.4310   24.6910 C   0  0  0  0  0  1  0  0  0  0  0  0
  -27.5330  -32.6000   25.7460 C   0  0  0  0  0  1  0  0  0  0  0  0
  2  4  1  0
  3  2  2  0
  5  7  2  0
  5  3  1  0
  6  1  1  0
  6  4  2  0
  7  6  1  0
  8  7  1  0
  9  5  1  0
 10 11  1  0
 10  9  2  0
 11 17  1  0
 12 17  1  0
 13 14  1  0
 13 12  1  0
 15 14  1  0
 15 22  1  0
 15 16  1  0
 17 16  1  0
 18 11  2  0
 19 20  2  0
 20 39  1  0
 21 20  1  0
 21 24  1  0
 22 23  1  0
 22 19  1  0
 23 21  2  0
 24 25  1  0
 25 26  2  0
 27 30  1  0
 27 26  1  0
 28 27  2  0
 29 28  1  0
 29 24  2  0
 30 31  1  0
 31 32  1  0
 32 33  2  0
 34 33  1  0
 34 38  1  0
 35 34  2  0
 36 31  2  0
 36 35  1  0
 37 36  1  0
 39 40  1  0
 40 43  1  0
 40 42  1  0
 41 39  2  0
 44 45  1  0
 44 19  1  0
 46 44  1  0
 47  1  1  0
 48 47  1  0
 49 50  2  0
 49 48  1  0
 51 52  1  0
 51 49  1  0
 52 54  1  0
 53 64  2  0
 54 59  1  0
 55 63  1  0
 55 65  1  0
 56 62  1  0
 56 58  1  0
 57 63  1  0
 58 57  1  0
 59 58  2  0
 60 61  1  0
 60 54  2  0
 61 56  2  0
 62 55  1  0
 63 53  1  0
 65 67  2  0
 66 65  1  0
 68 66  1  0
 69 78  2  0
 69 74  1  0
 70 66  1  0
 70 74  1  0
 71 70  1  0
 72 73  1  0
 72 71  1  0
 73 69  1  0
 74 75  2  0
 75 76  1  0
 77 76  2  0
 78 77  1  0
 79 53  1  0
 79 80  1  0
 79 89  1  0
 80 83  1  0
 81 85  1  0
 81 80  1  0
 82 81  2  0
 85 84  1  0
 87 85  1  0
 87 88  1  0
 87 86  1  0
 89 92  1  1
 89 90  1  0
 91 89  1  0
M  ISO  4  10 100  11 100  51 101  52 101
M  END
>  <TORSDO>  (83) 
F 22

>  <SCORE>  (83) 
-12.272

>  <name>  (83) 
82

>  <ligand_id>  (83) 
82

>  <original_smiles>  (83) 
[H]C(C(=O)N1C([H])([H])C([H])([H])C([H])([H])C([H])(n2nc(-c3c([H])c([H])c(Oc4c([H])c([H])c(F)c([H])c4F)c([H])c3[H])c(C(=O)N([H])[H])c2N([H])[H])C1([H])[H])=C([H])c1c([H])c([H])c([H])c(C([H])([H])C([H])([H])C([H])([H])C(=O)C([H])([H])Oc2c([H])c([H])c3c(c2[H])C([H])([H])N(C(=O)C([H])(N([H])C(=O)C([H])(N([H])C([H])([H])[H])C([H])([H])[H])C(C([H])([H])[H])(C([H])([H])[H])C([H])([H])[H])C([H])(C(=O)N([H])C2([H])c4c([H])c([H])c([H])c([H])c4C([H])([H])C([H])([H])C2([H])[H])C3([H])[H])c1C([H])([H])[H]

>  <smiles>  (83) 
[H]C(C(=O)N1C([H])([H])C([H])([H])C([H])([H])C([H])(n2nc(-c3c([H])c([H])c(Oc4c([H])c([H])c(F)c([H])c4F)c([H])c3[H])c(C(=O)N([H])[H])c2N([H])[H])C1([H])[H])=C([H])c1c([H])c([H])c([H])c(C([H])([H])C([H])([H])C([H])([H])C(=O)C([H])([H])Oc2c([H])c([H])c3c(c2[H])C([H])([H])N(C(=O)C([H])(N([H])C(=O)C([H])(N([H])C([H])([H])[H])C([H])([H])[H])C(C([H])([H])[H])(C([H])([H])[H])C([H])([H])[H])C([H])(C(=O)N([H])C2([H])c4c([H])c([H])c([H])c([H])c4C([H])([H])C([H])([H])C2([H])[H])C3([H])[H])c1C([H])([H])[H]

$$$$
83:0:0
     RDKit          3D

 91 99  0  0  1  0  0  0  0  0999 V2000
  -30.6120  -20.5720   19.5370 C   0  0  0  0  0  3  0  0  0  0  0  0
  -28.4940  -19.8350   20.4810 C   0  0  0  0  0  3  0  0  0  0  0  0
  -31.0340  -19.2360   19.4570 C   0  0  0  0  0  3  0  0  0  0  0  0
  -28.9180  -18.4870   20.3980 C   0  0  0  0  0  3  0  0  0  0  0  0
  -29.3300  -20.8810   20.0250 C   0  0  0  0  0  0  0  0  0  0  0  0
  -30.1860  -18.1800   19.8560 C   0  0  0  0  0  0  0  0  0  0  0  0
  -30.4380  -16.4760   18.0500 C   0  0  0  0  0  1  0  0  0  0  0  0
  -30.6590  -16.7630   19.5470 C   0  0  0  0  0  3  0  0  0  0  0  0
  -30.8270  -14.5020   20.4770 C   0  0  0  0  0  0  0  0  0  0  0  0
  -30.4830  -12.3300   19.4250 C   0  0  0  0  0  2  0  0  0  0  0  0
  -29.5820  -12.5360   18.1900 C   0  0  0  0  0  2  0  0  0  0  0  0
  -28.0990  -12.4230   18.5860 C   0  0  0  0  0  2  0  0  0  0  0  0
  -27.7350  -13.2800   19.8300 C   0  0  0  0  0  3  0  0  0  0  0  0
  -28.7710  -13.1190   20.9660 C   0  0  0  0  0  2  0  0  0  0  0  0
  -30.1060  -13.3570   20.4040 N   0  0  0  0  0  0  0  0  0  0  0  0
  -32.0400  -14.5280   20.2700 O   0  0  0  0  0  0  0  0  0  0  0  0
  -30.1210  -15.6450   20.3530 N   0  0  0  0  0  0  0  0  0  0  0  0
  -29.1240  -15.5940   20.4870 H   0  0  0  0  0  0  0  0  0  0  0  0
  -25.3190  -13.8800   20.4750 C   0  0  0  0  0  0  0  0  0  0  0  0
  -24.2460  -13.1070   20.8260 C   0  0  0  0  0  0  0  0  0  0  0  0
  -24.7170  -11.7580   20.8310 C   0  0  0  0  0  0  0  0  0  0  0  0
  -26.3760  -13.0030   20.2870 N   0  0  0  0  0  0  0  0  0  0  0  0
  -26.0160  -11.7220   20.5630 N   0  0  0  0  0  0  0  0  0  0  0  0
  -23.9920  -10.4940   21.0160 C   0  0  0  0  0  0  0  0  0  0  0  0
  -24.4080   -9.5370   21.9680 C   0  0  0  0  0  3  0  0  0  0  0  0
  -23.6840   -8.3370   22.1430 C   0  0  0  0  0  3  0  0  0  0  0  0
  -22.5290   -8.0860   21.3640 C   0  0  0  0  0  0  0  0  0  0  0  0
  -22.1320   -9.0320   20.4020 C   0  0  0  0  0  3  0  0  0  0  0  0
  -22.8570  -10.2210   20.2260 C   0  0  0  0  0  3  0  0  0  0  0  0
  -21.7790   -6.9380   21.4470 O   0  0  0  0  0  0  0  0  0  0  0  0
  -21.7110   -6.2040   22.6040 C   0  0  0  0  0  0  0  0  0  0  0  0
  -21.2590   -6.7660   23.8190 C   0  0  0  0  0  3  0  0  0  0  0  0
  -21.1400   -5.9590   24.9670 C   0  0  0  0  0  3  0  0  0  0  0  0
  -21.4610   -4.5900   24.9020 C   0  0  0  0  0  0  0  0  0  0  0  0
  -21.9060   -4.0280   23.6930 C   0  0  0  0  0  3  0  0  0  0  0  0
  -22.0270   -4.8320   22.5460 C   0  0  0  0  0  0  0  0  0  0  0  0
  -22.4350   -4.2810   21.3780 F   0  0  0  0  0  0  0  0  0  0  0  0
  -21.3390   -3.8110   26.0020 F   0  0  0  0  0  0  0  0  0  0  0  0
  -22.8400  -13.5790   21.0490 C   0  0  0  0  0  0  0  0  0  0  0  0
  -22.0910  -12.8900   21.9020 N   0  0  0  0  0  0  0  0  0  0  0  0
  -22.4100  -14.5930   20.5000 O   0  0  0  0  0  0  0  0  0  0  0  0
  -22.4500  -12.0680   22.3660 H   0  0  0  0  0  0  0  0  0  0  0  0
  -21.1460  -13.1900   22.0980 H   0  0  0  0  0  0  0  0  0  0  0  0
  -25.4780  -15.2480   20.2760 N   0  0  0  0  0  0  0  0  0  0  0  0
  -24.6980  -15.8930   20.3420 H   0  0  0  0  0  0  0  0  0  0  0  0
  -26.3230  -15.6860   19.9300 H   0  0  0  0  0  0  0  0  0  0  0  0
  -28.8550  -22.3260   19.9750 C   0  0  0  0  0  2  0  0  0  0  0  0
  -29.5500  -23.2450   20.9990 C   0  0  0  0  0  2  0  0  0  0  0  0
  -29.5990  -24.7330   20.5890 C   0  0  0  0  0  2  0  0  0  0  0  0
  -28.2300  -25.3500   20.2720 C   0  0  0  0  0  2  0  0  0  0  0  0
  -28.3550  -26.7680   20.1470 O   0  0  0  0  0  0  0  0  0  0  0  0
  -24.5320  -31.8840   23.2440 C   0  0  0  0  0  0  0  0  0  0  0  0
  -27.1750  -27.4780   20.1320 C   0  0  0  0  0  0  0  0  0  0  0  0
  -23.3240  -30.4990   21.5890 C   0  0  0  0  0  3  0  0  0  0  0  0
  -24.7760  -28.9740   20.1530 C   0  0  0  0  0  0  0  0  0  0  0  0
  -25.8490  -30.8620   21.3920 C   0  0  0  0  0  2  0  0  0  0  0  0
  -25.9360  -29.4990   20.7400 C   0  0  0  0  0  0  0  0  0  0  0  0
  -27.1390  -28.7590   20.7200 C   0  0  0  0  0  3  0  0  0  0  0  0
  -25.9990  -26.9650   19.5370 C   0  0  0  0  0  3  0  0  0  0  0  0
  -24.8030  -27.7070   19.5490 C   0  0  0  0  0  3  0  0  0  0  0  0
  -23.5320  -29.8300   20.2040 C   0  0  0  0  0  2  0  0  0  0  0  0
  -24.5870  -31.0960   22.1340 N   0  0  0  0  0  0  0  0  0  0  0  0
  -23.4510  -32.1520   23.7870 O   0  0  0  0  0  0  0  0  0  0  0  0
  -22.6730  -29.4680   22.5390 C   0  0  0  0  0  0  0  0  0  0  0  0
  -21.3470  -29.2930   22.4140 N   0  0  0  0  0  0  0  0  0  0  0  0
  -23.3560  -28.8310   23.3450 O   0  0  0  0  0  0  0  0  0  0  0  0
  -20.8570  -29.8620   21.7370 H   0  0  0  0  0  0  0  0  0  0  0  0
  -17.9680  -28.1170   22.9100 C   0  0  0  0  0  0  0  0  0  0  0  0
  -20.5280  -28.3520   23.1760 C   0  0  0  0  0  3  0  0  0  0  0  0
  -20.6180  -26.9270   22.5830 C   0  0  0  0  0  2  0  0  0  0  0  0
  -19.5100  -26.6260   21.5680 C   0  0  0  0  0  2  0  0  0  0  0  0
  -18.1310  -26.7740   22.2180 C   0  0  0  0  0  2  0  0  0  0  0  0
  -19.0940  -28.8650   23.3460 C   0  0  0  0  0  0  0  0  0  0  0  0
  -18.8870  -30.1240   23.9500 C   0  0  0  0  0  3  0  0  0  0  0  0
  -17.5870  -30.6360   24.1230 C   0  0  0  0  0  3  0  0  0  0  0  0
  -16.4760  -29.8840   23.7050 C   0  0  0  0  0  3  0  0  0  0  0  0
  -16.6670  -28.6260   23.1040 C   0  0  0  0  0  3  0  0  0  0  0  0
  -25.8190  -32.5070   23.8700 C   0  0  0  0  0  3  0  0  0  0  0  0
  -25.5170  -33.9050   24.1980 N   0  0  0  0  0  0  0  0  0  0  0  0
  -25.8700  -34.9550   23.4450 C   0  0  0  0  0  0  0  0  0  0  0  0
  -26.5560  -34.8480   22.4240 O   0  0  0  0  0  0  0  0  0  0  0  0
  -24.9130  -34.0630   24.9910 H   0  0  0  0  0  0  0  0  0  0  0  0
  -24.1750  -36.7700   23.0490 C   0  0  0  0  0  1  0  0  0  0  0  0
  -25.3860  -36.3470   23.8950 C   0  0  0  0  0  3  0  0  0  0  0  0
  -27.5060  -37.2010   24.7930 C   0  0  0  0  0  1  0  0  0  0  0  0
  -26.4340  -37.3890   23.8190 N   0  0  0  0  0  0  0  0  0  0  0  0
  -26.0360  -38.3120   23.9620 H   0  0  0  0  0  0  0  0  0  0  0  0
  -26.3300  -31.7290   25.1450 C   0  0  1  0  0  0  0  0  0  0  0  0
  -25.2340  -31.4920   26.2110 C   0  0  0  0  0  1  0  0  0  0  0  0
  -26.9080  -30.3510   24.7480 C   0  0  0  0  0  1  0  0  0  0  0  0
  -27.4820  -32.5180   25.8110 C   0  0  0  0  0  1  0  0  0  0  0  0
  1  5  1  0
  3  1  2  0
  3  6  1  0
  4  2  1  0
  5  2  2  0
  6  4  2  0
  8  7  1  0
  8  6  1  0
  8 17  1  0
 10 15  1  0
 11 12  1  0
 11 10  1  0
 13 12  1  0
 13 22  1  0
 13 14  1  0
 15  9  1  0
 15 14  1  0
 16  9  2  0
 17  9  1  0
 17 18  1  0
 19 20  2  0
 20 21  1  0
 20 39  1  0
 21 24  1  0
 22 19  1  0
 22 23  1  0
 23 21  2  0
 24 25  1  0
 25 26  2  0
 27 30  1  0
 27 26  1  0
 28 27  2  0
 29 28  1  0
 29 24  2  0
 30 31  1  0
 31 32  1  0
 32 33  2  0
 34 33  1  0
 34 38  1  0
 35 34  2  0
 36 31  2  0
 36 35  1  0
 37 36  1  0
 39 40  1  0
 40 43  1  0
 40 42  1  0
 41 39  2  0
 44 45  1  0
 44 19  1  0
 46 44  1  0
 47  5  1  0
 47 48  1  0
 49 48  1  0
 50 49  1  0
 51 50  1  0
 52 63  2  0
 53 51  1  0
 53 58  1  0
 54 62  1  0
 54 64  1  0
 55 61  1  0
 55 57  1  0
 56 62  1  0
 57 56  1  0
 58 57  2  0
 59 60  1  0
 59 53  2  0
 60 55  2  0
 61 54  1  0
 62 52  1  0
 64 66  2  0
 65 64  1  0
 67 65  1  0
 68 77  2  0
 68 73  1  0
 69 65  1  0
 69 73  1  0
 70 69  1  0
 71 72  1  0
 71 70  1  0
 72 68  1  0
 73 74  2  0
 74 75  1  0
 76 75  2  0
 77 76  1  0
 78 52  1  0
 78 79  1  0
 78 88  1  0
 79 82  1  0
 80 84  1  0
 80 79  1  0
 81 80  2  0
 84 83  1  0
 86 84  1  0
 86 87  1  0
 86 85  1  0
 88 91  1  1
 88 89  1  0
 90 88  1  0
M  ISO  4   9 100  17 100  50 101  51 101
M  END
>  <TORSDO>  (84) 
F 21

>  <SCORE>  (84) 
-13.107

>  <name>  (84) 
83

>  <ligand_id>  (84) 
83

>  <original_smiles>  (84) 
[H]c1c([H])c([H])c2c(c1[H])C([H])([H])C([H])([H])C([H])([H])C2([H])N([H])C(=O)C1([H])N(C(=O)C([H])(N([H])C(=O)C([H])(N([H])C([H])([H])[H])C([H])([H])[H])C(C([H])([H])[H])(C([H])([H])[H])C([H])([H])[H])C([H])([H])c2c([H])c(OC([H])([H])C([H])([H])C([H])([H])C([H])([H])c3c([H])c([H])c(C([H])(N([H])C(=O)N4C([H])([H])C([H])([H])C([H])([H])C([H])(n5nc(-c6c([H])c([H])c(Oc7c([H])c([H])c(F)c([H])c7F)c([H])c6[H])c(C(=O)N([H])[H])c5N([H])[H])C4([H])[H])C([H])([H])[H])c([H])c3[H])c([H])c([H])c2C1([H])[H]

>  <smiles>  (84) 
[H]c1c([H])c([H])c2c(c1[H])C([H])([H])C([H])([H])C([H])([H])C2([H])N([H])C(=O)C1([H])N(C(=O)C([H])(N([H])C(=O)C([H])(N([H])C([H])([H])[H])C([H])([H])[H])C(C([H])([H])[H])(C([H])([H])[H])C([H])([H])[H])C([H])([H])c2c([H])c(OC([H])([H])C([H])([H])C([H])([H])C([H])([H])c3c([H])c([H])c(C([H])(N([H])C(=O)N4C([H])([H])C([H])([H])C([H])([H])C([H])(n5nc(-c6c([H])c([H])c(Oc7c([H])c([H])c(F)c([H])c7F)c([H])c6[H])c(C(=O)N([H])[H])c5N([H])[H])C4([H])[H])C([H])([H])[H])c([H])c3[H])c([H])c([H])c2C1([H])[H]

$$$$
84:0:0
     RDKit          3D

 95104  0  0  1  0  0  0  0  0999 V2000
  -28.2570  -24.5240   18.6770 C   0  0  0  0  0  0  0  0  0  0  0  0
  -28.3620  -23.0110   18.8170 C   0  0  0  0  0  2  0  0  0  0  0  0
  -28.9820  -24.1310   20.8900 C   0  0  0  0  0  2  0  0  0  0  0  0
  -28.1820  -25.1510   20.0660 C   0  0  0  0  0  3  0  0  0  0  0  0
  -28.4260  -22.7690   20.3480 C   0  0  2  0  0  0  0  0  0  0  0  0
  -28.2620  -25.1360   17.6040 O   0  0  0  0  0  0  0  0  0  0  0  0
  -30.4540  -21.5370   21.3550 C   0  0  0  0  0  3  0  0  0  0  0  0
  -31.0890  -20.3460   21.7560 C   0  0  0  0  0  3  0  0  0  0  0  0
  -29.1870  -21.4800   20.7230 C   0  0  0  0  0  0  0  0  0  0  0  0
  -30.4400  -19.1250   21.5180 C   0  0  0  0  0  0  0  0  0  0  0  0
  -28.6490  -20.1830   20.4780 C   0  0  0  0  0  0  0  0  0  0  0  0
  -27.3340  -19.9260   19.7530 C   0  0  0  0  0  1  0  0  0  0  0  0
  -29.2570  -19.0510   20.8820 N   0  0  0  0  0  0  0  0  0  0  0  0
  -30.9900  -17.8010   22.0170 C   0  0  0  0  0  2  0  0  0  0  0  0
  -31.2270  -16.7820   20.8820 C   0  0  0  0  0  2  0  0  0  0  0  0
  -30.7100  -15.3670   21.2250 C   0  0  0  0  0  2  0  0  0  0  0  0
  -31.1060  -14.3160   20.1750 C   0  0  0  0  0  0  0  0  0  0  0  0
  -30.6530  -12.2430   18.9140 C   0  0  0  0  0  2  0  0  0  0  0  0
  -29.6870  -12.5120   17.7470 C   0  0  0  0  0  2  0  0  0  0  0  0
  -28.2220  -12.4200   18.2130 C   0  0  0  0  0  2  0  0  0  0  0  0
  -27.9500  -13.2420   19.5040 C   0  0  0  0  0  3  0  0  0  0  0  0
  -29.0270  -12.9430   20.5750 C   0  0  0  0  0  2  0  0  0  0  0  0
  -30.3480  -13.2050   19.9820 N   0  0  0  0  0  0  0  0  0  0  0  0
  -32.1340  -14.5270   19.5220 O   0  0  0  0  0  0  0  0  0  0  0  0
  -25.5730  -13.9130   20.2310 C   0  0  0  0  0  0  0  0  0  0  0  0
  -24.4940  -13.1710   20.6280 C   0  0  0  0  0  0  0  0  0  0  0  0
  -24.9250  -11.8080   20.6110 C   0  0  0  0  0  0  0  0  0  0  0  0
  -26.5970  -13.0070   20.0050 N   0  0  0  0  0  0  0  0  0  0  0  0
  -26.2080  -11.7370   20.2840 N   0  0  0  0  0  0  0  0  0  0  0  0
  -24.1750  -10.5650   20.8320 C   0  0  0  0  0  0  0  0  0  0  0  0
  -24.5790   -9.6210   21.8000 C   0  0  0  0  0  3  0  0  0  0  0  0
  -23.8310   -8.4420   22.0070 C   0  0  0  0  0  3  0  0  0  0  0  0
  -22.6640   -8.1980   21.2470 C   0  0  0  0  0  0  0  0  0  0  0  0
  -22.2760   -9.1310   20.2700 C   0  0  0  0  0  3  0  0  0  0  0  0
  -23.0240  -10.3020   20.0610 C   0  0  0  0  0  3  0  0  0  0  0  0
  -21.8900   -7.0680   21.3620 O   0  0  0  0  0  0  0  0  0  0  0  0
  -21.7790   -6.3890   22.5480 C   0  0  0  0  0  0  0  0  0  0  0  0
  -21.3270   -7.0190   23.7280 C   0  0  0  0  0  3  0  0  0  0  0  0
  -21.1630   -6.2670   24.9090 C   0  0  0  0  0  3  0  0  0  0  0  0
  -21.4390   -4.8860   24.9100 C   0  0  0  0  0  0  0  0  0  0  0  0
  -21.8840   -4.2570   23.7330 C   0  0  0  0  0  3  0  0  0  0  0  0
  -22.0480   -5.0060   22.5550 C   0  0  0  0  0  0  0  0  0  0  0  0
  -22.4570   -4.3880   21.4200 F   0  0  0  0  0  0  0  0  0  0  0  0
  -21.2730   -4.1630   26.0420 F   0  0  0  0  0  0  0  0  0  0  0  0
  -23.1120  -13.6810   20.9200 C   0  0  0  0  0  0  0  0  0  0  0  0
  -22.3870  -13.0220   21.8170 N   0  0  0  0  0  0  0  0  0  0  0  0
  -22.6810  -14.7010   20.3810 O   0  0  0  0  0  0  0  0  0  0  0  0
  -22.7460  -12.1950   22.2730 H   0  0  0  0  0  0  0  0  0  0  0  0
  -21.4600  -13.3490   22.0510 H   0  0  0  0  0  0  0  0  0  0  0  0
  -25.7650  -15.2780   20.0300 N   0  0  0  0  0  0  0  0  0  0  0  0
  -25.0190  -15.9530   20.1470 H   0  0  0  0  0  0  0  0  0  0  0  0
  -26.6290  -15.6960   19.7090 H   0  0  0  0  0  0  0  0  0  0  0  0
  -27.1120  -22.7060   20.8960 O   0  0  0  0  0  0  0  0  0  0  0  0
  -26.6420  -21.9770   20.5100 H   0  0  0  0  0  0  0  0  0  0  0  0
  -28.4290  -26.5770   20.0960 O   0  0  0  0  0  0  0  0  0  0  0  0
  -24.4800  -31.6840   23.1500 C   0  0  0  0  0  0  0  0  0  0  0  0
  -27.2660  -27.3360   20.0380 C   0  0  0  0  0  0  0  0  0  0  0  0
  -23.3290  -30.2620   21.4920 C   0  0  0  0  0  3  0  0  0  0  0  0
  -24.8340  -28.7980   20.0590 C   0  0  0  0  0  0  0  0  0  0  0  0
  -25.8490  -30.6910   21.3220 C   0  0  0  0  0  2  0  0  0  0  0  0
  -25.9790  -29.3320   20.6660 C   0  0  0  0  0  0  0  0  0  0  0  0
  -27.1960  -28.6060   20.6630 C   0  0  0  0  0  3  0  0  0  0  0  0
  -26.0980  -26.8510   19.3930 C   0  0  0  0  0  3  0  0  0  0  0  0
  -24.8900  -27.5530   19.4240 C   0  0  0  0  0  3  0  0  0  0  0  0
  -23.5650  -29.6120   20.1070 C   0  0  0  0  0  2  0  0  0  0  0  0
  -24.5700  -30.8930   22.0450 N   0  0  0  0  0  0  0  0  0  0  0  0
  -23.3870  -31.9250   23.6790 O   0  0  0  0  0  0  0  0  0  0  0  0
  -22.7040  -29.2110   22.4350 C   0  0  0  0  0  0  0  0  0  0  0  0
  -21.3870  -28.9880   22.2910 N   0  0  0  0  0  0  0  0  0  0  0  0
  -23.4000  -28.5980   23.2480 O   0  0  0  0  0  0  0  0  0  0  0  0
  -20.8890  -29.5330   21.6010 H   0  0  0  0  0  0  0  0  0  0  0  0
  -18.0460  -27.6870   22.7400 C   0  0  0  0  0  0  0  0  0  0  0  0
  -20.5900  -28.0260   23.0500 C   0  0  0  0  0  3  0  0  0  0  0  0
  -20.7470  -26.6000   22.4730 C   0  0  0  0  0  2  0  0  0  0  0  0
  -19.6710  -26.2450   21.4430 C   0  0  0  0  0  2  0  0  0  0  0  0
  -18.2740  -26.3430   22.0650 C   0  0  0  0  0  2  0  0  0  0  0  0
  -19.1330  -28.4830   23.1870 C   0  0  0  0  0  0  0  0  0  0  0  0
  -18.8670  -29.7390   23.7710 C   0  0  0  0  0  3  0  0  0  0  0  0
  -17.5450  -30.1980   23.9210 C   0  0  0  0  0  3  0  0  0  0  0  0
  -16.4710  -29.3990   23.4900 C   0  0  0  0  0  3  0  0  0  0  0  0
  -16.7220  -28.1460   22.9040 C   0  0  0  0  0  3  0  0  0  0  0  0
  -25.7430  -32.3440   23.7820 C   0  0  0  0  0  3  0  0  0  0  0  0
  -25.3870  -33.7270   24.1270 N   0  0  0  0  0  0  0  0  0  0  0  0
  -25.6980  -34.7980   23.3850 C   0  0  0  0  0  0  0  0  0  0  0  0
  -26.3900  -34.7310   22.3650 O   0  0  0  0  0  0  0  0  0  0  0  0
  -24.7620  -33.8450   24.9100 H   0  0  0  0  0  0  0  0  0  0  0  0
  -23.9270  -36.5470   23.0190 C   0  0  0  0  0  1  0  0  0  0  0  0
  -25.1610  -36.1640   23.8500 C   0  0  0  0  0  3  0  0  0  0  0  0
  -27.2500  -37.0980   24.7410 C   0  0  0  0  0  1  0  0  0  0  0  0
  -26.1640  -37.2470   23.7760 N   0  0  0  0  0  0  0  0  0  0  0  0
  -25.7270  -38.1520   23.9300 H   0  0  0  0  0  0  0  0  0  0  0  0
  -26.2850  -31.5670   25.0440 C   0  0  1  0  0  0  0  0  0  0  0  0
  -25.2000  -31.2660   26.1050 C   0  0  0  0  0  1  0  0  0  0  0  0
  -26.9170  -30.2140   24.6280 C   0  0  0  0  0  1  0  0  0  0  0  0
  -27.4070  -32.3880   25.7210 C   0  0  0  0  0  1  0  0  0  0  0  0
  1  2  1  0
  1  4  1  0
  2  5  1  0
  4 55  1  0
  4  3  1  0
  5  9  1  0
  5  3  1  0
  5 53  1  1
  6  1  2  0
  7  8  1  0
  9  7  2  0
 10  8  2  0
 10 14  1  0
 11  9  1  0
 11 13  2  0
 12 11  1  0
 13 10  1  0
 15 16  1  0
 15 14  1  0
 17 16  1  0
 18 23  1  0
 19 20  1  0
 19 18  1  0
 21 20  1  0
 21 28  1  0
 21 22  1  0
 23 17  1  0
 23 22  1  0
 24 17  2  0
 25 26  2  0
 26 45  1  0
 27 26  1  0
 27 30  1  0
 28 25  1  0
 28 29  1  0
 29 27  2  0
 30 31  1  0
 31 32  2  0
 33 36  1  0
 33 32  1  0
 34 33  2  0
 35 34  1  0
 35 30  2  0
 36 37  1  0
 37 42  2  0
 37 38  1  0
 38 39  2  0
 39 40  1  0
 40 44  1  0
 41 40  2  0
 42 41  1  0
 43 42  1  0
 45 46  1  0
 46 49  1  0
 46 48  1  0
 47 45  2  0
 50 51  1  0
 50 25  1  0
 52 50  1  0
 54 53  1  0
 56 67  2  0
 57 55  1  0
 57 62  1  0
 58 66  1  0
 58 68  1  0
 59 65  1  0
 59 61  1  0
 60 66  1  0
 61 60  1  0
 62 61  2  0
 63 64  1  0
 63 57  2  0
 64 59  2  0
 65 58  1  0
 66 56  1  0
 68 70  2  0
 69 68  1  0
 71 69  1  0
 72 81  2  0
 72 77  1  0
 73 69  1  0
 73 77  1  0
 74 73  1  0
 75 76  1  0
 75 74  1  0
 76 72  1  0
 77 78  2  0
 78 79  1  0
 80 79  2  0
 81 80  1  0
 82 56  1  0
 82 83  1  0
 82 92  1  0
 83 86  1  0
 84 88  1  0
 84 83  1  0
 85 84  2  0
 88 87  1  0
 90 88  1  0
 90 91  1  0
 90 89  1  0
 92 95  1  1
 92 93  1  0
 94 92  1  0
M  ISO  4   4 101  16 100  17 100  55 101
M  END
>  <TORSDO>  (85) 
F 21

>  <SCORE>  (85) 
-13.425

>  <name>  (85) 
84

>  <ligand_id>  (85) 
84

>  <original_smiles>  (85) 
[H]OC1(c2c(C([H])([H])[H])nc(C([H])([H])C([H])([H])C([H])([H])C(=O)N3C([H])([H])C([H])([H])C([H])([H])C([H])(n4nc(-c5c([H])c([H])c(Oc6c([H])c([H])c(F)c([H])c6F)c([H])c5[H])c(C(=O)N([H])[H])c4N([H])[H])C3([H])[H])c([H])c2[H])C([H])([H])C(=O)C([H])(Oc2c([H])c([H])c3c(c2[H])C([H])([H])N(C(=O)C([H])(N([H])C(=O)C([H])(N([H])C([H])([H])[H])C([H])([H])[H])C(C([H])([H])[H])(C([H])([H])[H])C([H])([H])[H])C([H])(C(=O)N([H])C2([H])c4c([H])c([H])c([H])c([H])c4C([H])([H])C([H])([H])C2([H])[H])C3([H])[H])C1([H])[H]

>  <smiles>  (85) 
[H]OC1(c2c(C([H])([H])[H])nc(C([H])([H])C([H])([H])C([H])([H])C(=O)N3C([H])([H])C([H])([H])C([H])([H])C([H])(n4nc(-c5c([H])c([H])c(Oc6c([H])c([H])c(F)c([H])c6F)c([H])c5[H])c(C(=O)N([H])[H])c4N([H])[H])C3([H])[H])c([H])c2[H])C([H])([H])C(=O)C([H])(Oc2c([H])c([H])c3c(c2[H])C([H])([H])N(C(=O)C([H])(N([H])C(=O)C([H])(N([H])C([H])([H])[H])C([H])([H])[H])C(C([H])([H])[H])(C([H])([H])[H])C([H])([H])[H])C([H])(C(=O)N([H])C2([H])c4c([H])c([H])c([H])c([H])c4C([H])([H])C([H])([H])C2([H])[H])C3([H])[H])C1([H])[H]

$$$$
85:0:0
     RDKit          3D

 90 98  0  0  1  0  0  0  0  0999 V2000
  -29.9370  -22.4020   21.7490 C   0  0  0  0  0  3  0  0  0  0  0  0
  -29.3780  -23.1780   20.7960 C   0  0  0  0  0  3  0  0  0  0  0  0
  -29.7590  -20.1590   20.5770 C   0  0  0  0  0  3  0  0  0  0  0  0
  -30.8090  -20.3080   22.7630 C   0  0  0  0  0  3  0  0  0  0  0  0
  -30.0840  -18.7890   20.5170 C   0  0  0  0  0  3  0  0  0  0  0  0
  -31.1280  -18.9370   22.7090 C   0  0  0  0  0  3  0  0  0  0  0  0
  -30.1500  -20.9430   21.6880 C   0  0  0  0  0  0  0  0  0  0  0  0
  -30.7930  -18.1750   21.5710 C   0  0  0  0  0  0  0  0  0  0  0  0
  -31.3250  -16.7580   21.4120 C   0  0  0  0  0  2  0  0  0  0  0  0
  -30.2650  -15.6580   21.1320 C   0  0  0  0  0  2  0  0  0  0  0  0
  -30.8260  -14.4650   20.3230 C   0  0  0  0  0  0  0  0  0  0  0  0
  -30.4300  -12.3610   19.1000 C   0  0  0  0  0  2  0  0  0  0  0  0
  -29.4720  -12.6200   17.9210 C   0  0  0  0  0  2  0  0  0  0  0  0
  -28.0050  -12.4950   18.3790 C   0  0  0  0  0  2  0  0  0  0  0  0
  -27.7100  -13.3090   19.6670 C   0  0  0  0  0  3  0  0  0  0  0  0
  -28.7830  -13.0490   20.7470 C   0  0  0  0  0  2  0  0  0  0  0  0
  -30.1040  -13.3240   20.1630 N   0  0  0  0  0  0  0  0  0  0  0  0
  -31.9040  -14.6230   19.7410 O   0  0  0  0  0  0  0  0  0  0  0  0
  -25.3290  -13.9270   20.4240 C   0  0  0  0  0  0  0  0  0  0  0  0
  -24.2640  -13.1600   20.8120 C   0  0  0  0  0  0  0  0  0  0  0  0
  -24.7160  -11.8060   20.7660 C   0  0  0  0  0  0  0  0  0  0  0  0
  -26.3650  -13.0420   20.1710 N   0  0  0  0  0  0  0  0  0  0  0  0
  -26.0000  -11.7610   20.4320 N   0  0  0  0  0  0  0  0  0  0  0  0
  -23.9870  -10.5470   20.9660 C   0  0  0  0  0  0  0  0  0  0  0  0
  -24.4260   -9.5780   21.8960 C   0  0  0  0  0  3  0  0  0  0  0  0
  -23.6970   -8.3840   22.0820 C   0  0  0  0  0  3  0  0  0  0  0  0
  -22.5150   -8.1490   21.3400 C   0  0  0  0  0  0  0  0  0  0  0  0
  -22.0960   -9.1060   20.3990 C   0  0  0  0  0  3  0  0  0  0  0  0
  -22.8240  -10.2920   20.2110 C   0  0  0  0  0  3  0  0  0  0  0  0
  -21.7580   -7.0080   21.4360 O   0  0  0  0  0  0  0  0  0  0  0  0
  -21.7060   -6.2740   22.5950 C   0  0  0  0  0  0  0  0  0  0  0  0
  -21.2780   -6.8400   23.8160 C   0  0  0  0  0  3  0  0  0  0  0  0
  -21.1730   -6.0330   24.9660 C   0  0  0  0  0  3  0  0  0  0  0  0
  -21.4840   -4.6620   24.8960 C   0  0  0  0  0  0  0  0  0  0  0  0
  -21.9040   -4.0960   23.6790 C   0  0  0  0  0  3  0  0  0  0  0  0
  -22.0110   -4.9000   22.5320 C   0  0  0  0  0  0  0  0  0  0  0  0
  -22.3960   -4.3450   21.3570 F   0  0  0  0  0  0  0  0  0  0  0  0
  -21.3750   -3.8850   26.0000 F   0  0  0  0  0  0  0  0  0  0  0  0
  -22.8750  -13.6440   21.1150 C   0  0  0  0  0  0  0  0  0  0  0  0
  -22.1610  -12.9470   21.9920 N   0  0  0  0  0  0  0  0  0  0  0  0
  -22.4330  -14.6750   20.6110 O   0  0  0  0  0  0  0  0  0  0  0  0
  -22.5320  -12.1130   22.4240 H   0  0  0  0  0  0  0  0  0  0  0  0
  -21.2290  -13.2520   22.2370 H   0  0  0  0  0  0  0  0  0  0  0  0
  -25.5000  -15.2980   20.2500 N   0  0  0  0  0  0  0  0  0  0  0  0
  -24.7430  -15.9610   20.3810 H   0  0  0  0  0  0  0  0  0  0  0  0
  -26.3570  -15.7330   19.9300 H   0  0  0  0  0  0  0  0  0  0  0  0
  -29.2660  -24.6400   20.9590 C   0  0  0  0  0  0  0  0  0  0  0  0
  -29.8820  -25.2700   21.8270 O   0  0  0  0  0  0  0  0  0  0  0  0
  -28.3250  -25.3770   19.9970 C   0  0  0  0  0  2  0  0  0  0  0  0
  -28.3800  -26.7940   20.2170 O   0  0  0  0  0  0  0  0  0  0  0  0
  -24.5860  -31.9490   23.2880 C   0  0  0  0  0  0  0  0  0  0  0  0
  -27.1940  -27.4950   20.2000 C   0  0  0  0  0  0  0  0  0  0  0  0
  -23.3630  -30.5430   21.6610 C   0  0  0  0  0  3  0  0  0  0  0  0
  -24.8000  -29.0000   20.2300 C   0  0  0  0  0  0  0  0  0  0  0  0
  -25.8860  -30.8970   21.4410 C   0  0  0  0  0  2  0  0  0  0  0  0
  -25.9620  -29.5240   20.8080 C   0  0  0  0  0  0  0  0  0  0  0  0
  -27.1610  -28.7770   20.7910 C   0  0  0  0  0  3  0  0  0  0  0  0
  -26.0140  -26.9910   19.6040 C   0  0  0  0  0  3  0  0  0  0  0  0
  -24.8200  -27.7330   19.6270 C   0  0  0  0  0  3  0  0  0  0  0  0
  -23.5590  -29.8600   20.2820 C   0  0  0  0  0  2  0  0  0  0  0  0
  -24.6310  -31.1440   22.1890 N   0  0  0  0  0  0  0  0  0  0  0  0
  -23.5090  -32.2250   23.8350 O   0  0  0  0  0  0  0  0  0  0  0  0
  -22.7180  -29.5250   22.6290 C   0  0  0  0  0  0  0  0  0  0  0  0
  -21.3960  -29.3300   22.4990 N   0  0  0  0  0  0  0  0  0  0  0  0
  -23.4050  -28.9140   23.4530 O   0  0  0  0  0  0  0  0  0  0  0  0
  -20.9040  -29.8750   21.8050 H   0  0  0  0  0  0  0  0  0  0  0  0
  -18.0330  -28.1020   22.9770 C   0  0  0  0  0  0  0  0  0  0  0  0
  -20.5830  -28.3950   23.2750 C   0  0  0  0  0  3  0  0  0  0  0  0
  -20.7100  -26.9570   22.7240 C   0  0  0  0  0  2  0  0  0  0  0  0
  -19.6240  -26.6030   21.7020 C   0  0  0  0  0  2  0  0  0  0  0  0
  -18.2330  -26.7430   22.3270 C   0  0  0  0  0  2  0  0  0  0  0  0
  -19.1370  -28.8840   23.4070 C   0  0  0  0  0  0  0  0  0  0  0  0
  -18.8960  -30.1550   23.9730 C   0  0  0  0  0  3  0  0  0  0  0  0
  -17.5850  -30.6450   24.1130 C   0  0  0  0  0  3  0  0  0  0  0  0
  -16.4940  -29.8590   23.7000 C   0  0  0  0  0  3  0  0  0  0  0  0
  -16.7190  -28.5900   23.1380 C   0  0  0  0  0  3  0  0  0  0  0  0
  -25.8790  -32.5770   23.8950 C   0  0  0  0  0  3  0  0  0  0  0  0
  -25.5770  -33.9770   24.2230 N   0  0  0  0  0  0  0  0  0  0  0  0
  -25.9050  -35.0250   23.4570 C   0  0  0  0  0  0  0  0  0  0  0  0
  -26.5650  -34.9160   22.4200 O   0  0  0  0  0  0  0  0  0  0  0  0
  -24.9880  -34.1370   25.0280 H   0  0  0  0  0  0  0  0  0  0  0  0
  -24.1740  -36.8150   23.1100 C   0  0  0  0  0  1  0  0  0  0  0  0
  -25.4230  -36.4150   23.9140 C   0  0  0  0  0  3  0  0  0  0  0  0
  -27.5640  -37.3000   24.7230 C   0  0  0  0  0  1  0  0  0  0  0  0
  -26.4540  -37.4670   23.7870 N   0  0  0  0  0  0  0  0  0  0  0  0
  -26.0500  -38.3880   23.9350 H   0  0  0  0  0  0  0  0  0  0  0  0
  -26.4090  -31.8060   25.1640 C   0  0  1  0  0  0  0  0  0  0  0  0
  -25.3260  -31.5650   26.2420 C   0  0  0  0  0  1  0  0  0  0  0  0
  -26.9920  -30.4310   24.7620 C   0  0  0  0  0  1  0  0  0  0  0  0
  -27.5640  -32.6010   25.8170 C   0  0  0  0  0  1  0  0  0  0  0  0
  2 47  1  0
  2  1  2  0
  3  7  1  0
  5  3  2  0
  5  8  1  0
  6  4  1  0
  7  1  1  0
  7  4  2  0
  8  6  2  0
  9  8  1  0
 10  9  1  0
 11 10  1  0
 12 17  1  0
 13 14  1  0
 13 12  1  0
 15 14  1  0
 15 22  1  0
 15 16  1  0
 17 11  1  0
 17 16  1  0
 18 11  2  0
 19 20  2  0
 20 39  1  0
 21 20  1  0
 21 24  1  0
 22 19  1  0
 22 23  1  0
 23 21  2  0
 24 25  1  0
 25 26  2  0
 27 30  1  0
 27 26  1  0
 28 27  2  0
 29 28  1  0
 29 24  2  0
 30 31  1  0
 31 32  1  0
 32 33  2  0
 34 33  1  0
 34 38  1  0
 35 34  2  0
 36 31  2  0
 36 35  1  0
 37 36  1  0
 39 40  1  0
 40 43  1  0
 40 42  1  0
 41 39  2  0
 44 45  1  0
 44 19  1  0
 46 44  1  0
 47 48  2  0
 49 50  1  0
 49 47  1  0
 51 62  2  0
 52 50  1  0
 52 57  1  0
 53 61  1  0
 53 63  1  0
 54 60  1  0
 54 56  1  0
 55 61  1  0
 56 55  1  0
 57 56  2  0
 58 59  1  0
 58 52  2  0
 59 54  2  0
 60 53  1  0
 61 51  1  0
 63 65  2  0
 64 63  1  0
 66 64  1  0
 67 76  2  0
 67 72  1  0
 68 64  1  0
 68 72  1  0
 69 68  1  0
 70 71  1  0
 70 69  1  0
 71 67  1  0
 72 73  2  0
 73 74  1  0
 75 74  2  0
 76 75  1  0
 77 51  1  0
 77 78  1  0
 77 87  1  0
 78 81  1  0
 79 83  1  0
 79 78  1  0
 80 79  2  0
 83 82  1  0
 85 83  1  0
 85 86  1  0
 85 84  1  0
 87 90  1  1
 87 88  1  0
 89 87  1  0
M  ISO  4  10 100  11 100  49 101  50 101
M  END
>  <TORSDO>  (86) 
F 21

>  <SCORE>  (86) 
-13.551

>  <name>  (86) 
85

>  <ligand_id>  (86) 
85

>  <original_smiles>  (86) 
[H]C(C(=O)C([H])([H])Oc1c([H])c([H])c2c(c1[H])C([H])([H])N(C(=O)C([H])(N([H])C(=O)C([H])(N([H])C([H])([H])[H])C([H])([H])[H])C(C([H])([H])[H])(C([H])([H])[H])C([H])([H])[H])C([H])(C(=O)N([H])C1([H])c3c([H])c([H])c([H])c([H])c3C([H])([H])C([H])([H])C1([H])[H])C2([H])[H])=C([H])c1c([H])c([H])c(C([H])([H])C([H])([H])C(=O)N2C([H])([H])C([H])([H])C([H])([H])C([H])(n3nc(-c4c([H])c([H])c(Oc5c([H])c([H])c(F)c([H])c5F)c([H])c4[H])c(C(=O)N([H])[H])c3N([H])[H])C2([H])[H])c([H])c1[H]

>  <smiles>  (86) 
[H]C(C(=O)C([H])([H])Oc1c([H])c([H])c2c(c1[H])C([H])([H])N(C(=O)C([H])(N([H])C(=O)C([H])(N([H])C([H])([H])[H])C([H])([H])[H])C(C([H])([H])[H])(C([H])([H])[H])C([H])([H])[H])C([H])(C(=O)N([H])C1([H])c3c([H])c([H])c([H])c([H])c3C([H])([H])C([H])([H])C1([H])[H])C2([H])[H])=C([H])c1c([H])c([H])c(C([H])([H])C([H])([H])C(=O)N2C([H])([H])C([H])([H])C([H])([H])C([H])(n3nc(-c4c([H])c([H])c(Oc5c([H])c([H])c(F)c([H])c5F)c([H])c4[H])c(C(=O)N([H])[H])c3N([H])[H])C2([H])[H])c([H])c1[H]

$$$$
86:0:0
     RDKit          3D

 87 94  0  0  1  0  0  0  0  0999 V2000
  -28.9440  -21.2160   19.9210 C   0  0  0  0  0  0  0  0  0  0  0  0
  -28.8600  -21.2320   18.6910 O   0  0  0  0  0  0  0  0  0  0  0  0
  -29.2140  -19.6930   20.5840 C   0  0  0  0  0  3  0  0  0  0  0  0
  -29.5330  -18.3590   20.0520 C   0  0  0  0  0  0  0  0  0  0  0  0
  -29.6770  -16.7600   20.7160 C   0  0  0  0  0  3  0  0  0  0  0  0
  -29.9600  -16.9200   22.0100 F   0  0  0  0  0  0  0  0  0  0  0  0
  -30.4310  -15.2420   20.2680 C   0  0  0  0  0  0  0  0  0  0  0  0
  -30.3990  -12.8070   19.3680 C   0  0  0  0  0  2  0  0  0  0  0  0
  -29.4750  -12.6600   18.1320 C   0  0  0  0  0  2  0  0  0  0  0  0
  -28.0210  -12.4030   18.5640 C   0  0  0  0  0  2  0  0  0  0  0  0
  -27.5850  -13.3470   19.7130 C   0  0  0  0  0  3  0  0  0  0  0  0
  -28.6350  -13.4430   20.8400 C   0  0  0  0  0  2  0  0  0  0  0  0
  -29.8840  -13.9290   20.2340 N   0  0  0  0  0  0  0  0  0  0  0  0
  -31.6230  -15.2510   19.9190 O   0  0  0  0  0  0  0  0  0  0  0  0
  -25.2080  -13.9060   20.4520 C   0  0  0  0  0  0  0  0  0  0  0  0
  -24.1480  -13.1290   20.8260 C   0  0  0  0  0  0  0  0  0  0  0  0
  -24.6190  -11.7790   20.8070 C   0  0  0  0  0  0  0  0  0  0  0  0
  -26.2550  -13.0320   20.2170 N   0  0  0  0  0  0  0  0  0  0  0  0
  -25.9120  -11.7480   20.4990 N   0  0  0  0  0  0  0  0  0  0  0  0
  -23.8940  -10.5160   21.0050 C   0  0  0  0  0  0  0  0  0  0  0  0
  -24.3280   -9.5540   21.9420 C   0  0  0  0  0  3  0  0  0  0  0  0
  -23.6010   -8.3590   22.1300 C   0  0  0  0  0  3  0  0  0  0  0  0
  -22.4250   -8.1170   21.3800 C   0  0  0  0  0  0  0  0  0  0  0  0
  -22.0110   -9.0680   20.4310 C   0  0  0  0  0  3  0  0  0  0  0  0
  -22.7390  -10.2550   20.2420 C   0  0  0  0  0  3  0  0  0  0  0  0
  -21.6710   -6.9720   21.4750 O   0  0  0  0  0  0  0  0  0  0  0  0
  -21.6290   -6.2320   22.6290 C   0  0  0  0  0  0  0  0  0  0  0  0
  -21.2160   -6.7910   23.8590 C   0  0  0  0  0  3  0  0  0  0  0  0
  -21.1210   -5.9770   25.0050 C   0  0  0  0  0  3  0  0  0  0  0  0
  -21.4290   -4.6060   24.9230 C   0  0  0  0  0  0  0  0  0  0  0  0
  -21.8350   -4.0470   23.6990 C   0  0  0  0  0  3  0  0  0  0  0  0
  -21.9310   -4.8580   22.5550 C   0  0  0  0  0  0  0  0  0  0  0  0
  -22.3020   -4.3090   21.3730 F   0  0  0  0  0  0  0  0  0  0  0  0
  -21.3320   -3.8220   26.0230 F   0  0  0  0  0  0  0  0  0  0  0  0
  -22.7480  -13.6040   21.0860 C   0  0  0  0  0  0  0  0  0  0  0  0
  -22.0190  -12.9160   21.9560 N   0  0  0  0  0  0  0  0  0  0  0  0
  -22.3110  -14.6230   20.5530 O   0  0  0  0  0  0  0  0  0  0  0  0
  -22.3860  -12.0920   22.4090 H   0  0  0  0  0  0  0  0  0  0  0  0
  -21.0800  -13.2170   22.1740 H   0  0  0  0  0  0  0  0  0  0  0  0
  -25.3650  -15.2760   20.2640 N   0  0  0  0  0  0  0  0  0  0  0  0
  -24.5900  -15.9240   20.3620 H   0  0  0  0  0  0  0  0  0  0  0  0
  -26.2010  -15.7140   19.9000 H   0  0  0  0  0  0  0  0  0  0  0  0
  -29.7490  -18.2450   18.7330 O   0  0  0  0  0  0  0  0  0  0  0  0
  -29.6360  -19.1060   18.3470 H   0  0  0  0  0  0  0  0  0  0  0  0
  -28.7690  -22.8060   20.6050 C   0  0  0  0  0  2  0  0  0  0  0  0
  -28.0490  -24.3200   19.9810 C   0  0  0  0  0  2  0  0  0  0  0  0
  -28.1940  -25.9140   20.3370 O   0  0  0  0  0  0  0  0  0  0  0  0
  -24.6270  -31.8590   23.2180 C   0  0  0  0  0  0  0  0  0  0  0  0
  -27.1770  -26.9900   20.2270 C   0  0  0  0  0  0  0  0  0  0  0  0
  -23.4280  -30.4570   21.5850 C   0  0  0  0  0  3  0  0  0  0  0  0
  -24.8740  -28.8480   20.1680 C   0  0  0  0  0  0  0  0  0  0  0  0
  -25.9920  -30.6710   21.4370 C   0  0  0  0  0  2  0  0  0  0  0  0
  -26.0600  -29.2620   20.7880 C   0  0  0  0  0  0  0  0  0  0  0  0
  -27.2050  -28.3510   20.7960 C   0  0  0  0  0  3  0  0  0  0  0  0
  -25.9670  -26.7220   19.5490 C   0  0  0  0  0  3  0  0  0  0  0  0
  -24.8520  -27.5980   19.5290 C   0  0  0  0  0  3  0  0  0  0  0  0
  -23.6550  -29.7660   20.2120 C   0  0  0  0  0  2  0  0  0  0  0  0
  -24.7040  -31.0220   22.1330 N   0  0  0  0  0  0  0  0  0  0  0  0
  -23.5390  -32.1530   23.7380 O   0  0  0  0  0  0  0  0  0  0  0  0
  -22.7350  -29.4660   22.5560 C   0  0  0  0  0  0  0  0  0  0  0  0
  -21.4040  -29.3060   22.4360 N   0  0  0  0  0  0  0  0  0  0  0  0
  -23.4000  -28.8420   23.3870 O   0  0  0  0  0  0  0  0  0  0  0  0
  -20.9200  -29.8610   21.7430 H   0  0  0  0  0  0  0  0  0  0  0  0
  -18.0190  -28.1100   22.9510 C   0  0  0  0  0  0  0  0  0  0  0  0
  -20.5790  -28.3760   23.2130 C   0  0  0  0  0  3  0  0  0  0  0  0
  -20.6780  -26.9390   22.6490 C   0  0  0  0  0  2  0  0  0  0  0  0
  -19.5760  -26.6100   21.6370 C   0  0  0  0  0  2  0  0  0  0  0  0
  -18.1950  -26.7580   22.2810 C   0  0  0  0  0  2  0  0  0  0  0  0
  -19.1380  -28.8760   23.3750 C   0  0  0  0  0  0  0  0  0  0  0  0
  -18.9170  -30.1390   23.9660 C   0  0  0  0  0  3  0  0  0  0  0  0
  -17.6120  -30.6380   24.1360 C   0  0  0  0  0  3  0  0  0  0  0  0
  -16.5080  -29.8700   23.7250 C   0  0  0  0  0  3  0  0  0  0  0  0
  -16.7120  -28.6080   23.1400 C   0  0  0  0  0  3  0  0  0  0  0  0
  -25.9010  -32.5010   23.8460 C   0  0  0  0  0  3  0  0  0  0  0  0
  -25.5850  -33.9030   24.1770 N   0  0  0  0  0  0  0  0  0  0  0  0
  -25.9130  -34.9620   23.4250 C   0  0  0  0  0  0  0  0  0  0  0  0
  -26.5770  -34.8630   22.3910 O   0  0  0  0  0  0  0  0  0  0  0  0
  -24.9930  -34.0520   24.9820 H   0  0  0  0  0  0  0  0  0  0  0  0
  -24.1820  -36.7610   23.1020 C   0  0  0  0  0  1  0  0  0  0  0  0
  -25.4330  -36.3500   23.8950 C   0  0  0  0  0  3  0  0  0  0  0  0
  -27.5770  -37.2360   24.7030 C   0  0  0  0  0  1  0  0  0  0  0  0
  -26.4640  -37.4050   23.7720 N   0  0  0  0  0  0  0  0  0  0  0  0
  -26.0580  -38.3240   23.9260 H   0  0  0  0  0  0  0  0  0  0  0  0
  -26.4070  -31.7410   25.1340 C   0  0  1  0  0  0  0  0  0  0  0  0
  -25.3080  -31.5180   26.1990 C   0  0  0  0  0  1  0  0  0  0  0  0
  -26.9870  -30.3560   24.7660 C   0  0  0  0  0  1  0  0  0  0  0  0
  -27.5580  -32.5370   25.7940 C   0  0  0  0  0  1  0  0  0  0  0  0
  1  3  1  0
  1 45  1  0
  2  1  2  0
  4  3  2  0
  4  5  1  0
  5  6  1  0
  7  5  1  0
  8 13  1  0
  9 10  1  0
  9  8  1  0
 11 10  1  0
 11 18  1  0
 11 12  1  0
 13  7  1  0
 13 12  1  0
 14  7  2  0
 15 16  2  0
 16 35  1  0
 17 16  1  0
 17 20  1  0
 18 15  1  0
 18 19  1  0
 19 17  2  0
 20 21  1  0
 21 22  2  0
 23 26  1  0
 23 22  1  0
 24 23  2  0
 25 24  1  0
 25 20  2  0
 26 27  1  0
 27 28  1  0
 28 29  2  0
 30 29  1  0
 30 34  1  0
 31 30  2  0
 32 27  2  0
 32 31  1  0
 33 32  1  0
 35 36  1  0
 36 39  1  0
 36 38  1  0
 37 35  2  0
 40 41  1  0
 40 15  1  0
 42 40  1  0
 43  4  1  0
 44 43  1  0
 46 47  1  0
 46 45  1  0
 48 59  2  0
 49 47  1  0
 49 54  1  0
 50 58  1  0
 50 60  1  0
 51 57  1  0
 51 53  1  0
 52 58  1  0
 53 54  2  0
 53 52  1  0
 55 49  2  0
 56 55  1  0
 56 51  2  0
 57 50  1  0
 58 48  1  0
 60 62  2  0
 61 60  1  0
 63 61  1  0
 64 73  2  0
 64 69  1  0
 65 61  1  0
 65 69  1  0
 66 65  1  0
 67 68  1  0
 67 66  1  0
 68 64  1  0
 69 70  2  0
 70 71  1  0
 72 71  2  0
 73 72  1  0
 74 48  1  0
 74 75  1  0
 74 84  1  0
 75 78  1  0
 76 80  1  0
 76 75  1  0
 77 76  2  0
 80 79  1  0
 82 80  1  0
 82 83  1  0
 82 81  1  0
 84 87  1  1
 84 85  1  0
 86 84  1  0
M  ISO  4   5 100   7 100  46 101  47 101
M  END
>  <TORSDO>  (87) 
F 21

>  <SCORE>  (87) 
-15.460

>  <name>  (87) 
86

>  <ligand_id>  (87) 
86

>  <original_smiles>  (87) 
[H]OC(=C([H])C(=O)C([H])([H])C([H])([H])Oc1c([H])c([H])c2c(c1[H])C([H])([H])N(C(=O)C([H])(N([H])C(=O)C([H])(N([H])C([H])([H])[H])C([H])([H])[H])C(C([H])([H])[H])(C([H])([H])[H])C([H])([H])[H])C([H])(C(=O)N([H])C1([H])c3c([H])c([H])c([H])c([H])c3C([H])([H])C([H])([H])C1([H])[H])C2([H])[H])C([H])(F)C(=O)N1C([H])([H])C([H])([H])C([H])([H])C([H])(n2nc(-c3c([H])c([H])c(Oc4c([H])c([H])c(F)c([H])c4F)c([H])c3[H])c(C(=O)N([H])[H])c2N([H])[H])C1([H])[H]

>  <smiles>  (87) 
[H]OC(=C([H])C(=O)C([H])([H])C([H])([H])Oc1c([H])c([H])c2c(c1[H])C([H])([H])N(C(=O)C([H])(N([H])C(=O)C([H])(N([H])C([H])([H])[H])C([H])([H])[H])C(C([H])([H])[H])(C([H])([H])[H])C([H])([H])[H])C([H])(C(=O)N([H])C1([H])c3c([H])c([H])c([H])c([H])c3C([H])([H])C([H])([H])C1([H])[H])C2([H])[H])C([H])(F)C(=O)N1C([H])([H])C([H])([H])C([H])([H])C([H])(n2nc(-c3c([H])c([H])c(Oc4c([H])c([H])c(F)c([H])c4F)c([H])c3[H])c(C(=O)N([H])[H])c2N([H])[H])C1([H])[H]

$$$$
87:0:0
     RDKit          3D

 91 91  0  0  1  0  0  0  0  0999 V2000
  -23.5020  -23.2470   22.4590 C   0  0  0  0  0  3  0  0  0  0  0  0
  -24.6720  -22.5980   21.9240 C   0  0  0  0  0  3  0  0  0  0  0  0
  -23.3200  -24.6180   22.8760 C   0  0  0  0  0  3  0  0  0  0  0  0
  -25.5850  -24.7970   22.2430 C   0  0  0  0  0  3  0  0  0  0  0  0
  -25.9430  -23.2040   21.7470 C   0  0  0  0  0  3  0  0  0  0  0  0
  -24.2540  -25.6920   22.8130 C   0  0  0  0  0  3  0  0  0  0  0  0
  -27.3790  -21.9450   21.1640 C   0  0  0  0  0  2  0  0  0  0  0  0
  -28.4380  -22.5790   21.1360 O   0  0  0  0  0  0  0  0  0  0  0  0
  -27.8660  -20.0730   20.5630 C   0  0  0  0  0 15  0  0  0  0  0  0
  -29.1740  -18.3990   20.7690 C   0  0  0  0  0 15  0  0  0  0  0  0
  -30.2820  -16.8320   20.0680 C   0  0  0  0  0  2  0  0  0  0  0  0
  -31.0110  -14.2330   19.2720 C   0  0  0  0  0  2  0  0  0  0  0  0
  -30.2550  -13.5060   18.0930 C   0  0  0  0  0  2  0  0  0  0  0  0
  -28.8640  -13.0250   18.5240 C   0  0  0  0  0  2  0  0  0  0  0  0
  -28.2480  -14.0990   19.4390 C   0  0  0  0  0  3  0  0  0  0  0  0
  -29.1390  -14.5280   20.6120 C   0  0  0  0  0  2  0  0  0  0  0  0
  -30.1760  -15.3410   20.0150 N   0  0  0  0  0  0  0  0  0  0  0  0
  -31.4590  -16.9560   19.6080 O   0  0  0  0  0  1  0  0  0  0  0  0
  -25.9850  -14.6820   20.3340 C   0  0  0  0  0  0  0  0  0  0  0  0
  -24.9310  -13.9210   20.7390 C   0  0  0  0  0  0  0  0  0  0  0  0
  -25.3440  -12.5600   20.5960 C   0  0  0  0  0  0  0  0  0  0  0  0
  -26.9510  -13.7790   19.9500 N   0  0  0  0  0  0  0  0  0  0  0  0
  -26.6000  -12.4920   20.1780 N   0  0  0  0  0  0  0  0  0  0  0  0
  -24.5920  -11.3170   20.7690 C   0  0  0  0  0  0  0  0  0  0  0  0
  -25.0010  -10.3240   21.6860 C   0  0  0  0  0  3  0  0  0  0  0  0
  -24.2440   -9.1440   21.8430 C   0  0  0  0  0  3  0  0  0  0  0  0
  -23.0630   -8.9550   21.0850 C   0  0  0  0  0  0  0  0  0  0  0  0
  -22.6770   -9.9350   20.1550 C   0  0  0  0  0  3  0  0  0  0  0  0
  -23.4350  -11.1060   19.9950 C   0  0  0  0  0  3  0  0  0  0  0  0
  -22.2750   -7.8330   21.1530 O   0  0  0  0  0  0  0  0  0  0  0  0
  -22.1240   -7.1320   22.3220 C   0  0  0  0  0  0  0  0  0  0  0  0
  -21.6570   -7.7450   23.5050 C   0  0  0  0  0  3  0  0  0  0  0  0
  -21.4490   -6.9710   24.6630 C   0  0  0  0  0  3  0  0  0  0  0  0
  -21.7020   -5.5850   24.6390 C   0  0  0  0  0  0  0  0  0  0  0  0
  -22.1620   -4.9730   23.4600 C   0  0  0  0  0  3  0  0  0  0  0  0
  -22.3720   -5.7450   22.3050 C   0  0  0  0  0  0  0  0  0  0  0  0
  -22.7950   -5.1490   21.1640 F   0  0  0  0  0  0  0  0  0  0  0  0
  -21.4940   -4.8380   25.7480 F   0  0  0  0  0  0  0  0  0  0  0  0
  -23.5840  -14.4340   21.1400 C   0  0  0  0  0  0  0  0  0  0  0  0
  -22.9050  -13.7350   22.0390 N   0  0  0  0  0  0  0  0  0  0  0  0
  -23.1490  -15.4940   20.6890 O   0  0  0  0  0  0  0  0  0  0  0  0
  -23.2760  -12.8780   22.4240 H   0  0  0  0  0  0  0  0  0  0  0  0
  -22.0010  -14.0600   22.3500 H   0  0  0  0  0  0  0  0  0  0  0  0
  -26.2050  -16.0550   20.2370 N   0  0  0  0  0  0  0  0  0  0  0  0
  -25.4850  -16.7380   20.4460 H   0  0  0  0  0  0  0  0  0  0  0  0
  -27.0390  -16.4690   19.8420 H   0  0  0  0  0  0  0  0  0  0  0  0
  -22.9160  -27.0920   24.9300 C   0  0  0  0  0  1  0  0  0  0  0  0
  -23.5040  -27.4570   23.5560 C   0  0  0  0  0  2  0  0  0  0  0  0
  -22.2260  -29.2070   22.8290 C   0  0  0  0  0 15  0  0  0  0  0  0
  -21.7200  -29.2830   20.3540 C   0  0  0  0  0 15  0  0  0  0  0  0
  -23.2110  -28.2840   19.1020 O   0  0  0  0  0  1  0  0  0  0  0  0
  -24.6160  -31.4590   22.7260 C   0  0  0  0  0  0  0  0  0  0  0  0
  -24.7550  -27.8090   18.9560 C   0  0  0  0  0  3  0  0  0  0  0  0
  -23.7710  -29.9030   21.0640 C   0  0  0  0  0  3  0  0  0  0  0  0
  -24.7680  -30.2080   18.6300 C   0  0  0  0  0  3  0  0  0  0  0  0
  -25.9990  -30.7090   20.7550 C   0  0  0  0  0  2  0  0  0  0  0  0
  -25.7950  -29.8580   19.5030 C   0  0  0  0  0  3  0  0  0  0  0  0
  -25.9290  -28.4670   19.5500 C   0  0  0  0  0  2  0  0  0  0  0  0
  -24.9800  -27.9590   17.6200 C   0  0  0  0  0  2  0  0  0  0  0  0
  -24.5650  -29.3090   17.4970 C   0  0  0  0  0  2  0  0  0  0  0  0
  -23.6230  -30.6530   19.5430 C   0  0  0  0  0  2  0  0  0  0  0  0
  -24.8150  -30.6770   21.6320 N   0  0  0  0  0  0  0  0  0  0  0  0
  -23.5120  -31.7130   23.2480 O   0  0  0  0  0  0  0  0  0  0  0  0
  -23.7100  -28.1080   21.3750 C   0  0  0  0  0  3  0  0  0  0  0  0
  -22.4130  -27.0590   21.0480 N   0  0  0  0  0  2  0  0  0  0  0  0
  -24.5000  -27.8360   22.2170 O   0  0  0  0  0  0  0  0  0  0  0  0
  -22.7370  -26.0970   21.0820 H   0  0  0  0  0  0  0  0  0  0  0  0
  -17.8880  -27.9920   22.3370 C   0  0  0  0  0  0  0  0  0  0  0  0
  -20.5140  -27.1010   21.5460 C   0  0  0  0  0  2  0  0  0  0  0  0
  -19.8340  -26.5720   20.3970 C   0  0  0  0  0  2  0  0  0  0  0  0
  -18.4860  -27.1720   20.1290 C   0  0  0  0  0  2  0  0  0  0  0  0
  -17.5200  -27.0050   21.2940 C   0  0  0  0  0  2  0  0  0  0  0  0
  -19.3130  -28.2300   22.4730 C   0  0  0  0  0  0  0  0  0  0  0  0
  -19.3830  -29.3950   23.4100 C   0  0  0  0  0  3  0  0  0  0  0  0
  -18.2880  -30.0580   24.1080 C   0  0  0  0  0  3  0  0  0  0  0  0
  -16.9550  -29.6720   23.9130 C   0  0  0  0  0  3  0  0  0  0  0  0
  -16.7800  -28.6330   22.9960 C   0  0  0  0  0  3  0  0  0  0  0  0
  -25.8820  -31.9200   23.4390 C   0  0  0  0  0  3  0  0  0  0  0  0
  -25.6330  -33.2540   23.9850 N   0  0  0  0  0  0  0  0  0  0  0  0
  -26.0610  -34.3820   23.4100 C   0  0  0  0  0  0  0  0  0  0  0  0
  -26.7560  -34.3900   22.3890 O   0  0  0  0  0  0  0  0  0  0  0  0
  -25.0480  -33.3170   24.8060 H   0  0  0  0  0  0  0  0  0  0  0  0
  -24.5650  -36.3990   23.2900 C   0  0  0  0  0  1  0  0  0  0  0  0
  -25.6780  -35.7070   24.0910 C   0  0  0  0  0  3  0  0  0  0  0  0
  -27.8200  -36.1400   25.2090 C   0  0  0  0  0  1  0  0  0  0  0  0
  -26.8230  -36.6250   24.2580 N   0  0  0  0  0  0  0  0  0  0  0  0
  -26.5070  -37.5410   24.5650 H   0  0  0  0  0  0  0  0  0  0  0  0
  -26.2680  -30.8910   24.5630 C   0  0  1  0  0  0  0  0  0  0  0  0
  -25.1030  -30.5240   25.5160 C   0  0  0  0  0  1  0  0  0  0  0  0
  -26.8330  -29.5740   23.9800 C   0  0  0  0  0  1  0  0  0  0  0  0
  -27.4170  -31.4870   25.3930 C   0  0  0  0  0  1  0  0  0  0  0  0
  1  3  1  0
  2  1  2  0
  4  6  1  0
  5  2  1  0
  5  4  2  0
  6  3  2  0
  8  7  2  0
 12 17  1  0
 13 14  1  0
 13 12  1  0
 15 14  1  0
 15 22  1  0
 15 16  1  0
 17 11  1  0
 17 16  1  0
 18 11  1  0
 19 20  2  0
 20 39  1  0
 21 20  1  0
 21 24  1  0
 22 23  1  0
 22 19  1  0
 23 21  2  0
 24 25  1  0
 25 26  2  0
 27 30  1  0
 27 26  1  0
 28 27  2  0
 29 28  1  0
 29 24  2  0
 30 31  1  0
 31 32  1  0
 32 33  2  0
 34 33  1  0
 34 38  1  0
 35 34  2  0
 36 31  2  0
 36 35  1  0
 37 36  1  0
 39 40  1  0
 40 43  1  0
 40 42  1  0
 41 39  2  0
 44 19  1  0
 44 45  1  0
 46 44  1  0
 48 47  1  0
 52 63  2  0
 53 51  1  0
 53 58  1  0
 54 64  1  0
 54 62  1  0
 55 60  1  0
 55 57  1  0
 55 61  1  0
 56 62  1  0
 57 58  1  0
 57 56  1  0
 59 53  1  0
 60 59  1  0
 61 54  1  0
 62 52  1  0
 64 65  1  0
 64 66  1  0
 65 67  1  0
 66 48  1  0
 68 73  2  0
 68 77  1  0
 69 73  1  0
 70 69  1  0
 71 70  1  0
 71 72  1  0
 72 68  1  0
 73 74  1  0
 74 75  2  0
 76 75  1  0
 77 76  2  0
 78 52  1  0
 78 79  1  0
 78 88  1  0
 79 82  1  0
 80 79  1  0
 80 84  1  0
 81 80  2  0
 84 83  1  0
 84 86  1  0
 86 87  1  0
 86 85  1  0
 88 91  1  1
 88 89  1  0
 90 88  1  0
M  ISO  4  10 100  11 100  50 101  51 101
M  END
>  <TORSDO>  (88) 
F 22

>  <SCORE>  (88) 
-8.503

>  <name>  (88) 
87

>  <ligand_id>  (88) 
87

>  <original_smiles>  (88) 
[H]c1c([H])c([H])c2c(c1[H])C([H])([H])C([H])([H])C([H])([H])C2([H])N([H])C(=O)C1([H])N(C(=O)C([H])(N([H])C(=O)C([H])(N([H])C([H])([H])[H])C([H])([H])[H])C(C([H])([H])[H])(C([H])([H])[H])C([H])([H])[H])C([H])([H])c2c([H])c(OC([H])([H])C([H])([H])C([H])(c3c([H])c([H])c([H])c(C(=O)C([H])([H])C([H])([H])C(=O)N4C([H])([H])C([H])([H])C([H])([H])C([H])(n5nc(-c6c([H])c([H])c(Oc7c([H])c([H])c(F)c([H])c7F)c([H])c6[H])c(C(=O)N([H])[H])c5N([H])[H])C4([H])[H])c3[H])C([H])([H])[H])c([H])c([H])c2C1([H])[H]

>  <smiles>  (88) 
[H]c1c([H])c([H])c2c(c1[H])C([H])([H])C([H])([H])C([H])([H])C2([H])N([H])C(=O)C1([H])N(C(=O)C([H])(N([H])C(=O)C([H])(N([H])C([H])([H])[H])C([H])([H])[H])C(C([H])([H])[H])(C([H])([H])[H])C([H])([H])[H])C([H])([H])c2c([H])c(OC([H])([H])C([H])([H])C([H])(c3c([H])c([H])c([H])c(C(=O)C([H])([H])C([H])([H])C(=O)N4C([H])([H])C([H])([H])C([H])([H])C([H])(n5nc(-c6c([H])c([H])c(Oc7c([H])c([H])c(F)c([H])c7F)c([H])c6[H])c(C(=O)N([H])[H])c5N([H])[H])C4([H])[H])c3[H])C([H])([H])[H])c([H])c([H])c2C1([H])[H]

$$$$
88:0:0
     RDKit          3D

 93 97  0  0  1  0  0  0  0  0999 V2000
  -28.7170  -30.0020   22.4840 C   0  0  0  0  0  0  0  0  0  0  0  0
  -27.6130  -31.0020   22.0600 N   0  0  0  0  0  0  0  0  0  0  0  0
  -29.4500  -30.4000   23.3850 O   0  0  0  0  0  0  0  0  0  0  0  0
  -27.4000  -30.7720   21.0970 H   0  0  0  0  0  0  0  0  0  0  0  0
  -26.4190  -32.2870   22.5890 C   0  0  0  0  0  2  0  0  0  0  0  0
  -24.1750  -31.0130   24.3960 C   0  0  0  0  0 15  0  0  0  0  0  0
  -24.8650  -28.9250   23.9550 C   0  0  0  0  0 15  0  0  0  0  0  0
  -25.9770  -28.0690   22.6130 O   0  0  0  0  0  1  0  0  0  0  0  0
  -24.7390  -30.6940   22.1790 C   0  0  0  0  0  2  0  0  0  0  0  0
  -26.0250  -27.6060   21.1770 C   0  0  0  0  0  3  0  0  0  0  0  0
  -22.8350  -29.5690   21.2810 C   0  0  0  0  0  3  0  0  0  0  0  0
  -24.1170  -28.2570   19.5300 C   0  0  0  0  0  3  0  0  0  0  0  0
  -24.9610  -30.3300   20.2720 C   0  0  0  0  0  2  0  0  0  0  0  0
  -25.2520  -29.0440   19.7270 C   0  0  0  0  0  3  0  0  0  0  0  0
  -26.4110  -28.4650   20.1630 C   0  0  0  0  0  2  0  0  0  0  0  0
  -25.3550  -26.5230   20.5060 C   0  0  0  0  0  2  0  0  0  0  0  0
  -24.3120  -26.8840   19.6170 C   0  0  0  0  0  2  0  0  0  0  0  0
  -22.7720  -28.8960   19.8890 C   0  0  0  0  0  2  0  0  0  0  0  0
  -24.3010  -29.8370   21.4620 N   0  0  0  0  0  0  0  0  0  0  0  0
  -23.8730  -31.6650   22.1060 O   0  0  0  0  0  1  0  0  0  0  0  0
  -22.2030  -28.6000   22.2980 C   0  0  0  0  0  0  0  0  0  0  0  0
  -20.8760  -28.5330   22.3700 N   0  0  0  0  0  0  0  0  0  0  0  0
  -22.8670  -27.7660   22.8890 O   0  0  0  0  0  0  0  0  0  0  0  0
  -20.3160  -29.1990   21.8590 H   0  0  0  0  0  0  0  0  0  0  0  0
  -17.7580  -26.7990   22.4970 C   0  0  0  0  0  0  0  0  0  0  0  0
  -20.1690  -27.4700   23.0840 C   0  0  0  0  0  3  0  0  0  0  0  0
  -20.5630  -26.0520   22.5850 C   0  0  0  0  0  2  0  0  0  0  0  0
  -19.6900  -25.5560   21.4350 C   0  0  0  0  0  2  0  0  0  0  0  0
  -18.2290  -25.4930   21.8800 C   0  0  0  0  0  2  0  0  0  0  0  0
  -18.6690  -27.7300   23.0560 C   0  0  0  0  0  0  0  0  0  0  0  0
  -18.1850  -28.9460   23.5820 C   0  0  0  0  0  3  0  0  0  0  0  0
  -16.8110  -29.2390   23.5550 C   0  0  0  0  0  3  0  0  0  0  0  0
  -15.9080  -28.3080   23.0130 C   0  0  0  0  0  3  0  0  0  0  0  0
  -16.3800  -27.0910   22.4920 C   0  0  0  0  0  3  0  0  0  0  0  0
  -26.3880  -31.0630   24.1260 C   0  0  0  0  0  3  0  0  0  0  0  0
  -26.4530  -30.5960   25.6410 C   0  0  1  0  0  0  0  0  0  0  0  0
  -25.2730  -30.6450   26.7080 C   0  0  0  0  0  1  0  0  0  0  0  0
  -27.0660  -29.2060   25.5570 C   0  0  0  0  0  1  0  0  0  0  0  0
  -27.5260  -31.4670   26.3540 C   0  0  0  0  0  1  0  0  0  0  0  0
  -26.1930  -32.8410   24.5270 N   0  0  0  0  0  0  0  0  0  0  0  0
  -25.9910  -34.1380   23.8830 C   0  0  0  0  0  0  0  0  0  0  0  0
  -26.3890  -34.4520   22.7560 O   0  0  0  0  0  0  0  0  0  0  0  0
  -25.9990  -32.9210   25.5130 H   0  0  0  0  0  0  0  0  0  0  0  0
  -24.2710  -36.0270   23.5110 C   0  0  0  0  0  1  0  0  0  0  0  0
  -25.4100  -35.4860   24.4370 C   0  0  0  0  0  3  0  0  0  0  0  0
  -27.5770  -36.3320   25.2900 C   0  0  0  0  0  1  0  0  0  0  0  0
  -26.4260  -36.5850   24.4370 N   0  0  0  0  0  0  0  0  0  0  0  0
  -25.9980  -37.4590   24.7280 H   0  0  0  0  0  0  0  0  0  0  0  0
  -29.3910  -28.4070   21.8990 C   0  0  0  0  0  3  0  0  0  0  0  0
  -29.4550  -26.6170   22.4180 C   0  0  0  0  0  3  0  0  0  0  0  0
  -30.0400  -25.0130   21.7000 C   0  0  0  0  0  2  0  0  0  0  0  0
  -29.7460  -23.2120   21.9960 C   0  0  0  0  0  3  0  0  0  0  0  0
  -30.3570  -21.6050   21.3160 C   0  0  0  0  0  3  0  0  0  0  0  0
  -29.8940  -19.8200   21.4180 C   0  0  0  0  0  3  0  0  0  0  0  0
  -30.6020  -18.2310   20.8090 C   0  0  0  0  0  3  0  0  0  0  0  0
  -30.6520  -15.2720   20.3370 C   0  0  0  0  0  0  0  0  0  0  0  0
  -30.4280  -12.9170   19.2030 C   0  0  0  0  0  2  0  0  0  0  0  0
  -29.4590  -12.7850   17.9960 C   0  0  0  0  0  2  0  0  0  0  0  0
  -28.0300  -12.4810   18.4700 C   0  0  0  0  0  2  0  0  0  0  0  0
  -27.6330  -13.3750   19.6700 C   0  0  0  0  0  3  0  0  0  0  0  0
  -28.7310  -13.4760   20.7650 C   0  0  0  0  0  2  0  0  0  0  0  0
  -29.9640  -14.0180   20.1470 N   0  0  0  0  0  0  0  0  0  0  0  0
  -31.8320  -15.2020   19.9700 O   0  0  0  0  0  0  0  0  0  0  0  0
  -30.0930  -16.6070   20.7420 N   0  0  0  0  0  0  0  0  0  0  0  0
  -29.1200  -16.5080   21.0010 H   0  0  0  0  0  0  0  0  0  0  0  0
  -25.2700  -13.8870   20.4860 C   0  0  0  0  0  0  0  0  0  0  0  0
  -24.2210  -13.0960   20.8620 C   0  0  0  0  0  0  0  0  0  0  0  0
  -24.6950  -11.7490   20.7920 C   0  0  0  0  0  0  0  0  0  0  0  0
  -26.3160  -13.0290   20.2030 N   0  0  0  0  0  0  0  0  0  0  0  0
  -25.9820  -11.7330   20.4490 N   0  0  0  0  0  0  0  0  0  0  0  0
  -23.9760  -10.4780   20.9720 C   0  0  0  0  0  0  0  0  0  0  0  0
  -24.3890   -9.5220   21.9270 C   0  0  0  0  0  3  0  0  0  0  0  0
  -23.6650   -8.3220   22.0990 C   0  0  0  0  0  3  0  0  0  0  0  0
  -22.5140   -8.0670   21.3170 C   0  0  0  0  0  0  0  0  0  0  0  0
  -22.1200   -9.0130   20.3530 C   0  0  0  0  0  3  0  0  0  0  0  0
  -22.8440  -10.2040   20.1790 C   0  0  0  0  0  3  0  0  0  0  0  0
  -21.7670   -6.9180   21.3960 O   0  0  0  0  0  0  0  0  0  0  0  0
  -21.6420   -6.2180   22.5700 C   0  0  0  0  0  0  0  0  0  0  0  0
  -21.1070   -6.8090   23.7360 C   0  0  0  0  0  3  0  0  0  0  0  0
  -20.9330   -6.0350   24.9000 C   0  0  0  0  0  3  0  0  0  0  0  0
  -21.2820   -4.6710   24.9000 C   0  0  0  0  0  0  0  0  0  0  0  0
  -21.8100   -4.0800   23.7390 C   0  0  0  0  0  3  0  0  0  0  0  0
  -21.9860   -4.8510   22.5760 C   0  0  0  0  0  0  0  0  0  0  0  0
  -22.4740   -4.2710   21.4530 F   0  0  0  0  0  0  0  0  0  0  0  0
  -21.1080   -3.9260   26.0160 F   0  0  0  0  0  0  0  0  0  0  0  0
  -22.8270  -13.5590   21.1740 C   0  0  0  0  0  0  0  0  0  0  0  0
  -22.1240  -12.8500   22.0480 N   0  0  0  0  0  0  0  0  0  0  0  0
  -22.3720  -14.5890   20.6770 O   0  0  0  0  0  0  0  0  0  0  0  0
  -22.5070  -12.0170   22.4730 H   0  0  0  0  0  0  0  0  0  0  0  0
  -21.1900  -13.1420   22.2960 H   0  0  0  0  0  0  0  0  0  0  0  0
  -25.4170  -15.2620   20.3340 N   0  0  0  0  0  0  0  0  0  0  0  0
  -24.6490  -15.9080   20.4810 H   0  0  0  0  0  0  0  0  0  0  0  0
  -26.2560  -15.7160   19.9930 H   0  0  0  0  0  0  0  0  0  0  0  0
  1  3  2  0
  2  1  1  0
  2  5  1  0
  4  2  1  0
 10  8  1  0
 11 19  1  0
 11 21  1  0
 12 17  1  0
 12 14  1  0
 12 18  1  0
 13 19  1  0
 14 15  1  0
 14 13  1  0
 15 10  1  0
 16 10  1  0
 17 16  1  0
 18 11  1  0
 19  9  1  0
 20  9  1  0
 21 22  1  0
 21 23  2  0
 24 22  1  0
 25 30  1  0
 26 22  1  0
 27 26  1  0
 28 29  1  0
 28 27  1  0
 29 25  1  0
 30 26  1  0
 30 31  2  0
 32 31  1  0
 33 32  2  0
 34 25  2  0
 34 33  1  0
 35  5  1  0
 35 40  1  0
 35 36  1  0
 36 39  1  1
 36 37  1  0
 38 36  1  0
 40 43  1  0
 41 45  1  0
 41 40  1  0
 42 41  2  0
 45 44  1  0
 47 45  1  0
 47 48  1  0
 47 46  1  0
 49 50  2  0
 49  1  1  0
 51 52  1  0
 51 50  1  0
 53 54  1  0
 53 52  2  0
 55 54  2  0
 56 64  1  0
 57 62  1  0
 58 59  1  0
 58 57  1  0
 60 59  1  0
 60 69  1  0
 60 61  1  0
 62 56  1  0
 62 61  1  0
 63 56  2  0
 64 55  1  0
 64 65  1  0
 66 67  2  0
 67 86  1  0
 68 67  1  0
 68 71  1  0
 69 70  1  0
 69 66  1  0
 70 68  2  0
 71 72  1  0
 72 73  2  0
 74 77  1  0
 74 73  1  0
 75 74  2  0
 76 75  1  0
 76 71  2  0
 77 78  1  0
 78 83  2  0
 78 79  1  0
 79 80  2  0
 81 80  1  0
 81 85  1  0
 82 81  2  0
 83 82  1  0
 84 83  1  0
 86 87  1  0
 87 90  1  0
 87 89  1  0
 88 86  2  0
 91 92  1  0
 91 66  1  0
 93 91  1  0
M  ISO  4   7 101   8 101  56 100  64 100
M  END
>  <TORSDO>  (89) 
F 26

>  <SCORE>  (89) 
-14.996

>  <name>  (89) 
88

>  <ligand_id>  (89) 
88

>  <original_smiles>  (89) 
[H]c1c([H])c([H])c2c(c1[H])C([H])([H])C([H])([H])C([H])([H])C2([H])N([H])C(=O)C1([H])N(C(=O)C([H])(N([H])C(=O)C([H])(N([H])C([H])([H])[H])C([H])([H])[H])C(C([H])([H])[H])(C([H])([H])[H])C([H])([H])[H])C([H])([H])c2c([H])c(OC([H])([H])C([H])([H])C([H])([H])N([H])C(=O)C([H])([H])C([H])([H])C([H])([H])C([H])([H])C([H])([H])C([H])([H])C([H])([H])N([H])C(=O)N3C([H])([H])C([H])([H])C([H])([H])C([H])(n4nc(-c5c([H])c([H])c(Oc6c([H])c([H])c(F)c([H])c6F)c([H])c5[H])c(C(=O)N([H])[H])c4N([H])[H])C3([H])[H])c([H])c([H])c2C1([H])[H]

>  <smiles>  (89) 
[H]c1c([H])c([H])c2c(c1[H])C([H])([H])C([H])([H])C([H])([H])C2([H])N([H])C(=O)C1([H])N(C(=O)C([H])(N([H])C(=O)C([H])(N([H])C([H])([H])[H])C([H])([H])[H])C(C([H])([H])[H])(C([H])([H])[H])C([H])([H])[H])C([H])([H])c2c([H])c(OC([H])([H])C([H])([H])C([H])([H])N([H])C(=O)C([H])([H])C([H])([H])C([H])([H])C([H])([H])C([H])([H])C([H])([H])C([H])([H])N([H])C(=O)N3C([H])([H])C([H])([H])C([H])([H])C([H])(n4nc(-c5c([H])c([H])c(Oc6c([H])c([H])c(F)c([H])c6F)c([H])c5[H])c(C(=O)N([H])[H])c4N([H])[H])C3([H])[H])c([H])c([H])c2C1([H])[H]

$$$$
89:0:0
     RDKit          3D

 91 99  0  0  1  0  0  0  0  0999 V2000
  -30.7420  -22.6650   23.1550 C   0  0  0  0  0  3  0  0  0  0  0  0
  -30.2870  -23.9760   23.1580 C   0  0  0  0  0  3  0  0  0  0  0  0
  -30.3270  -21.7920   22.1460 C   0  0  0  0  0  3  0  0  0  0  0  0
  -29.4480  -24.4020   22.1280 C   0  0  0  0  0  3  0  0  0  0  0  0
  -29.4360  -22.1070   21.0730 C   0  0  0  0  0  0  0  0  0  0  0  0
  -29.0000  -23.5920   21.0460 C   0  0  0  0  0  0  0  0  0  0  0  0
  -29.5460  -19.3650   20.6670 C   0  0  0  0  0  3  0  0  0  0  0  0
  -29.2980  -20.7220   20.2370 C   0  0  0  0  0  0  0  0  0  0  0  0
  -29.7190  -17.9290   19.9400 C   0  0  0  0  0  0  0  0  0  0  0  0
  -29.8250  -17.9030   18.7110 O   0  0  0  0  0  0  0  0  0  0  0  0
  -29.7670  -16.4320   20.6830 C   0  0  0  0  0  2  0  0  0  0  0  0
  -30.4760  -15.0230   20.1110 C   0  0  0  0  0  0  0  0  0  0  0  0
  -30.3300  -12.6770   19.1190 C   0  0  0  0  0  2  0  0  0  0  0  0
  -29.3580  -12.6860   17.9140 C   0  0  0  0  0  2  0  0  0  0  0  0
  -27.9030  -12.4770   18.3770 C   0  0  0  0  0  2  0  0  0  0  0  0
  -27.5470  -13.3440   19.6100 C   0  0  0  0  0  3  0  0  0  0  0  0
  -28.6450  -13.3130   20.6960 C   0  0  0  0  0  2  0  0  0  0  0  0
  -29.8980  -13.7490   20.0660 N   0  0  0  0  0  0  0  0  0  0  0  0
  -31.6320  -15.0920   19.6680 O   0  0  0  0  0  0  0  0  0  0  0  0
  -25.1910  -13.8980   20.4310 C   0  0  0  0  0  0  0  0  0  0  0  0
  -24.1450  -13.1150   20.8320 C   0  0  0  0  0  0  0  0  0  0  0  0
  -24.6140  -11.7660   20.7770 C   0  0  0  0  0  0  0  0  0  0  0  0
  -26.2300  -13.0280   20.1510 N   0  0  0  0  0  0  0  0  0  0  0  0
  -25.8960  -11.7390   20.4200 N   0  0  0  0  0  0  0  0  0  0  0  0
  -23.9000  -10.5000   20.9890 C   0  0  0  0  0  0  0  0  0  0  0  0
  -24.3680   -9.5300   21.9040 C   0  0  0  0  0  3  0  0  0  0  0  0
  -23.6530   -8.3290   22.1050 C   0  0  0  0  0  3  0  0  0  0  0  0
  -22.4530   -8.0910   21.3930 C   0  0  0  0  0  0  0  0  0  0  0  0
  -22.0030   -9.0490   20.4680 C   0  0  0  0  0  3  0  0  0  0  0  0
  -22.7180  -10.2410   20.2660 C   0  0  0  0  0  3  0  0  0  0  0  0
  -21.7070   -6.9430   21.5030 O   0  0  0  0  0  0  0  0  0  0  0  0
  -21.7070   -6.1890   22.6490 C   0  0  0  0  0  0  0  0  0  0  0  0
  -21.3370   -6.7340   23.8980 C   0  0  0  0  0  3  0  0  0  0  0  0
  -21.2860   -5.9080   25.0390 C   0  0  0  0  0  3  0  0  0  0  0  0
  -21.5970   -4.5400   24.9310 C   0  0  0  0  0  0  0  0  0  0  0  0
  -21.9570   -3.9940   23.6870 C   0  0  0  0  0  3  0  0  0  0  0  0
  -22.0110   -4.8170   22.5500 C   0  0  0  0  0  0  0  0  0  0  0  0
  -22.3430   -4.2830   21.3480 F   0  0  0  0  0  0  0  0  0  0  0  0
  -21.5380   -3.7440   26.0240 F   0  0  0  0  0  0  0  0  0  0  0  0
  -22.7560  -13.5840   21.1520 C   0  0  0  0  0  0  0  0  0  0  0  0
  -22.0620  -12.8820   22.0410 N   0  0  0  0  0  0  0  0  0  0  0  0
  -22.2920  -14.6050   20.6470 O   0  0  0  0  0  0  0  0  0  0  0  0
  -22.4500  -12.0570   22.4760 H   0  0  0  0  0  0  0  0  0  0  0  0
  -21.1300  -13.1770   22.2970 H   0  0  0  0  0  0  0  0  0  0  0  0
  -25.3380  -15.2700   20.2520 N   0  0  0  0  0  0  0  0  0  0  0  0
  -24.5740  -15.9220   20.3880 H   0  0  0  0  0  0  0  0  0  0  0  0
  -26.1680  -15.7140   19.8780 H   0  0  0  0  0  0  0  0  0  0  0  0
  -29.0260  -20.9570   18.9470 O   0  0  0  0  0  0  0  0  0  0  0  0
  -29.0090  -21.9000   18.8290 H   0  0  0  0  0  0  0  0  0  0  0  0
  -28.0910  -24.6090   20.1160 C   0  0  0  0  0  2  0  0  0  0  0  0
  -28.1900  -26.1790   20.2900 O   0  0  0  0  0  0  0  0  0  0  0  0
  -24.5830  -31.8870   23.2560 C   0  0  0  0  0  0  0  0  0  0  0  0
  -27.1110  -27.1440   20.2140 C   0  0  0  0  0  0  0  0  0  0  0  0
  -23.3580  -30.4950   21.6310 C   0  0  0  0  0  3  0  0  0  0  0  0
  -24.7830  -28.9030   20.1900 C   0  0  0  0  0  0  0  0  0  0  0  0
  -25.9110  -30.7440   21.4370 C   0  0  0  0  0  2  0  0  0  0  0  0
  -25.9690  -29.3480   20.7880 C   0  0  0  0  0  0  0  0  0  0  0  0
  -27.1300  -28.4850   20.7780 C   0  0  0  0  0  3  0  0  0  0  0  0
  -25.8980  -26.7970   19.5790 C   0  0  0  0  0  3  0  0  0  0  0  0
  -24.7630  -27.6430   19.5680 C   0  0  0  0  0  3  0  0  0  0  0  0
  -23.5600  -29.8090   20.2510 C   0  0  0  0  0  2  0  0  0  0  0  0
  -24.6380  -31.0640   22.1620 N   0  0  0  0  0  0  0  0  0  0  0  0
  -23.5040  -32.1770   23.7950 O   0  0  0  0  0  0  0  0  0  0  0  0
  -22.6810  -29.4970   22.6020 C   0  0  0  0  0  0  0  0  0  0  0  0
  -21.3530  -29.3240   22.4790 N   0  0  0  0  0  0  0  0  0  0  0  0
  -23.3530  -28.8800   23.4320 O   0  0  0  0  0  0  0  0  0  0  0  0
  -20.8690  -29.8690   21.7790 H   0  0  0  0  0  0  0  0  0  0  0  0
  -17.9780  -28.1030   22.9680 C   0  0  0  0  0  0  0  0  0  0  0  0
  -20.5310  -28.3930   23.2570 C   0  0  0  0  0  3  0  0  0  0  0  0
  -20.6520  -26.9530   22.7050 C   0  0  0  0  0  2  0  0  0  0  0  0
  -19.5620  -26.6040   21.6860 C   0  0  0  0  0  2  0  0  0  0  0  0
  -18.1740  -26.7470   22.3140 C   0  0  0  0  0  2  0  0  0  0  0  0
  -19.0860  -28.8840   23.3970 C   0  0  0  0  0  0  0  0  0  0  0  0
  -18.8480  -30.1510   23.9680 C   0  0  0  0  0  3  0  0  0  0  0  0
  -17.5340  -30.6380   24.1210 C   0  0  0  0  0  3  0  0  0  0  0  0
  -16.4420  -29.8560   23.7090 C   0  0  0  0  0  3  0  0  0  0  0  0
  -16.6650  -28.5910   23.1370 C   0  0  0  0  0  3  0  0  0  0  0  0
  -25.8710  -32.5150   23.8700 C   0  0  0  0  0  3  0  0  0  0  0  0
  -25.5730  -33.9170   24.1970 N   0  0  0  0  0  0  0  0  0  0  0  0
  -25.9100  -34.9700   23.4400 C   0  0  0  0  0  0  0  0  0  0  0  0
  -26.5690  -34.8600   22.4030 O   0  0  0  0  0  0  0  0  0  0  0  0
  -24.9840  -34.0770   25.0020 H   0  0  0  0  0  0  0  0  0  0  0  0
  -24.1930  -36.7820   23.1070 C   0  0  0  0  0  1  0  0  0  0  0  0
  -25.4420  -36.3670   23.9020 C   0  0  0  0  0  3  0  0  0  0  0  0
  -27.5950  -37.2350   24.7000 C   0  0  0  0  0  1  0  0  0  0  0  0
  -26.4820  -37.4090   23.7730 N   0  0  0  0  0  0  0  0  0  0  0  0
  -26.0880  -38.3360   23.9170 H   0  0  0  0  0  0  0  0  0  0  0  0
  -26.3790  -31.7500   25.1530 C   0  0  1  0  0  0  0  0  0  0  0  0
  -25.2840  -31.5360   26.2260 C   0  0  0  0  0  1  0  0  0  0  0  0
  -26.9450  -30.3620   24.7790 C   0  0  0  0  0  1  0  0  0  0  0  0
  -27.5410  -32.5350   25.8060 C   0  0  0  0  0  1  0  0  0  0  0  0
  1  2  1  0
  3  1  2  0
  4  2  2  0
  5  3  1  0
  6  5  2  0
  6  4  1  0
  8  7  2  0
  8  5  1  0
  9  7  1  0
  9 11  1  0
 10  9  2  0
 12 11  1  0
 13 18  1  0
 14 15  1  0
 14 13  1  0
 16 15  1  0
 16 23  1  0
 16 17  1  0
 18 12  1  0
 18 17  1  0
 19 12  2  0
 20 21  2  0
 21 40  1  0
 22 21  1  0
 22 25  1  0
 23 24  1  0
 23 20  1  0
 24 22  2  0
 25 26  1  0
 26 27  2  0
 28 31  1  0
 28 27  1  0
 29 28  2  0
 30 29  1  0
 30 25  2  0
 31 32  1  0
 32 33  1  0
 33 34  2  0
 35 34  1  0
 35 39  1  0
 36 35  2  0
 37 32  2  0
 37 36  1  0
 38 37  1  0
 40 41  1  0
 41 44  1  0
 41 43  1  0
 42 40  2  0
 45 46  1  0
 45 20  1  0
 47 45  1  0
 48  8  1  0
 49 48  1  0
 50 51  1  0
 50  6  1  0
 52 63  2  0
 53 51  1  0
 53 58  1  0
 54 62  1  0
 54 64  1  0
 55 61  1  0
 55 57  1  0
 56 62  1  0
 57 56  1  0
 58 57  2  0
 59 53  2  0
 60 59  1  0
 60 55  2  0
 61 54  1  0
 62 52  1  0
 64 66  2  0
 65 64  1  0
 67 65  1  0
 68 77  2  0
 68 73  1  0
 69 65  1  0
 69 73  1  0
 70 69  1  0
 71 72  1  0
 71 70  1  0
 72 68  1  0
 73 74  2  0
 74 75  1  0
 76 75  2  0
 77 76  1  0
 78 52  1  0
 78 79  1  0
 78 88  1  0
 79 82  1  0
 80 84  1  0
 80 79  1  0
 81 80  2  0
 84 83  1  0
 86 84  1  0
 86 87  1  0
 86 85  1  0
 88 91  1  1
 88 89  1  0
 90 88  1  0
M  ISO  4  11 100  12 100  50 101  51 101
M  END
>  <TORSDO>  (90) 
F 21

>  <SCORE>  (90) 
-13.053

>  <name>  (90) 
89

>  <ligand_id>  (90) 
89

>  <original_smiles>  (90) 
[H]OC(=C([H])C(=O)C([H])([H])C(=O)N1C([H])([H])C([H])([H])C([H])([H])C([H])(n2nc(-c3c([H])c([H])c(Oc4c([H])c([H])c(F)c([H])c4F)c([H])c3[H])c(C(=O)N([H])[H])c2N([H])[H])C1([H])[H])c1c([H])c([H])c([H])c([H])c1C([H])([H])Oc1c([H])c([H])c2c(c1[H])C([H])([H])N(C(=O)C([H])(N([H])C(=O)C([H])(N([H])C([H])([H])[H])C([H])([H])[H])C(C([H])([H])[H])(C([H])([H])[H])C([H])([H])[H])C([H])(C(=O)N([H])C1([H])c3c([H])c([H])c([H])c([H])c3C([H])([H])C([H])([H])C1([H])[H])C2([H])[H]

>  <smiles>  (90) 
[H]OC(=C([H])C(=O)C([H])([H])C(=O)N1C([H])([H])C([H])([H])C([H])([H])C([H])(n2nc(-c3c([H])c([H])c(Oc4c([H])c([H])c(F)c([H])c4F)c([H])c3[H])c(C(=O)N([H])[H])c2N([H])[H])C1([H])[H])c1c([H])c([H])c([H])c([H])c1C([H])([H])Oc1c([H])c([H])c2c(c1[H])C([H])([H])N(C(=O)C([H])(N([H])C(=O)C([H])(N([H])C([H])([H])[H])C([H])([H])[H])C(C([H])([H])[H])(C([H])([H])[H])C([H])([H])[H])C([H])(C(=O)N([H])C1([H])c3c([H])c([H])c([H])c([H])c3C([H])([H])C([H])([H])C1([H])[H])C2([H])[H]

$$$$
90:0:0
     RDKit          3D

 94102  0  0  1  0  0  0  0  0999 V2000
  -28.7880  -22.3060   19.8170 C   0  0  0  0  0  2  0  0  0  0  0  0
  -29.1460  -19.6540   19.6950 C   0  0  0  0  0  3  0  0  0  0  0  0
  -30.4230  -19.2360   21.4690 C   0  0  0  0  0  3  0  0  0  0  0  0
  -29.8630  -18.6110   20.3960 C   0  0  0  0  0  0  0  0  0  0  0  0
  -29.3260  -20.8980   20.3020 C   0  0  0  0  0  0  0  0  0  0  0  0
  -30.7850  -21.5510   22.3100 C   0  0  0  0  0  1  0  0  0  0  0  0
  -30.1710  -20.6140   21.3900 N   0  0  0  0  0  0  0  0  0  0  0  0
  -30.1430  -15.9830   20.6440 C   0  0  0  0  0  3  0  0  0  0  0  0
  -30.1700  -17.1820   19.9450 C   0  0  0  0  0  0  0  0  0  0  0  0
  -30.7750  -14.7110   20.1520 C   0  0  0  0  0  0  0  0  0  0  0  0
  -30.4220  -12.4810   19.1150 C   0  0  0  0  0  2  0  0  0  0  0  0
  -29.4660  -12.6410   17.9150 C   0  0  0  0  0  2  0  0  0  0  0  0
  -28.0040  -12.5000   18.3770 C   0  0  0  0  0  2  0  0  0  0  0  0
  -27.6890  -13.3600   19.6320 C   0  0  0  0  0  3  0  0  0  0  0  0
  -28.7760  -13.2240   20.7200 C   0  0  0  0  0  2  0  0  0  0  0  0
  -30.0740  -13.5260   20.1080 N   0  0  0  0  0  0  0  0  0  0  0  0
  -31.9280  -14.7270   19.7100 O   0  0  0  0  0  0  0  0  0  0  0  0
  -25.3270  -13.9700   20.4270 C   0  0  0  0  0  0  0  0  0  0  0  0
  -24.2620  -13.2040   20.8210 C   0  0  0  0  0  0  0  0  0  0  0  0
  -24.7110  -11.8480   20.7710 C   0  0  0  0  0  0  0  0  0  0  0  0
  -26.3550  -13.0810   20.1560 N   0  0  0  0  0  0  0  0  0  0  0  0
  -25.9930  -11.8000   20.4270 N   0  0  0  0  0  0  0  0  0  0  0  0
  -23.9770  -10.5910   20.9800 C   0  0  0  0  0  0  0  0  0  0  0  0
  -24.4210   -9.6200   21.9020 C   0  0  0  0  0  3  0  0  0  0  0  0
  -23.6900   -8.4290   22.0960 C   0  0  0  0  0  3  0  0  0  0  0  0
  -22.4970   -8.2010   21.3690 C   0  0  0  0  0  0  0  0  0  0  0  0
  -22.0710   -9.1620   20.4360 C   0  0  0  0  0  3  0  0  0  0  0  0
  -22.8030  -10.3450   20.2400 C   0  0  0  0  0  3  0  0  0  0  0  0
  -21.7350   -7.0630   21.4740 O   0  0  0  0  0  0  0  0  0  0  0  0
  -21.7010   -6.3230   22.6280 C   0  0  0  0  0  0  0  0  0  0  0  0
  -21.2900   -6.8800   23.8590 C   0  0  0  0  0  3  0  0  0  0  0  0
  -21.2020   -6.0670   25.0060 C   0  0  0  0  0  3  0  0  0  0  0  0
  -21.5140   -4.6950   24.9240 C   0  0  0  0  0  0  0  0  0  0  0  0
  -21.9180   -4.1390   23.6980 C   0  0  0  0  0  3  0  0  0  0  0  0
  -22.0070   -4.9500   22.5530 C   0  0  0  0  0  0  0  0  0  0  0  0
  -22.3760   -4.4030   21.3700 F   0  0  0  0  0  0  0  0  0  0  0  0
  -21.4230   -3.9120   26.0230 F   0  0  0  0  0  0  0  0  0  0  0  0
  -22.8770  -13.6950   21.1310 C   0  0  0  0  0  0  0  0  0  0  0  0
  -22.1660  -13.0040   22.0160 N   0  0  0  0  0  0  0  0  0  0  0  0
  -22.4360  -14.7250   20.6270 O   0  0  0  0  0  0  0  0  0  0  0  0
  -22.5380  -12.1760   22.4560 H   0  0  0  0  0  0  0  0  0  0  0  0
  -21.2350  -13.3130   22.2580 H   0  0  0  0  0  0  0  0  0  0  0  0
  -25.5010  -15.3400   20.2510 N   0  0  0  0  0  0  0  0  0  0  0  0
  -24.7500  -16.0060   20.3950 H   0  0  0  0  0  0  0  0  0  0  0  0
  -26.3600  -15.7740   19.9350 H   0  0  0  0  0  0  0  0  0  0  0  0
  -30.6340  -17.2160   18.6870 O   0  0  0  0  0  0  0  0  0  0  0  0
  -30.6870  -18.1320   18.4400 H   0  0  0  0  0  0  0  0  0  0  0  0
  -28.7860  -23.7080   20.6240 C   0  0  0  0  0  3  0  0  0  0  0  0
  -28.0470  -23.5520   21.8980 N   0  0  0  0  0  4  0  0  0  0  0  0
  -27.0770  -23.3430   21.7380 H   0  0  0  0  0  0  0  0  0  0  0  0
  -28.0960  -24.4010   22.4390 H   0  0  0  0  0  0  0  0  0  0  0  0
  -28.4330  -22.8040   22.4480 H   0  0  0  0  0  0  0  0  0  0  0  0
  -28.1680  -24.9610   19.8150 C   0  0  0  0  0  2  0  0  0  0  0  0
  -28.2720  -26.3880   20.2860 O   0  0  0  0  0  0  0  0  0  0  0  0
  -24.5910  -31.8850   23.2340 C   0  0  0  0  0  0  0  0  0  0  0  0
  -27.1780  -27.2810   20.1820 C   0  0  0  0  0  0  0  0  0  0  0  0
  -23.3900  -30.4970   21.5870 C   0  0  0  0  0  3  0  0  0  0  0  0
  -24.8390  -28.9490   20.1580 C   0  0  0  0  0  0  0  0  0  0  0  0
  -25.9370  -30.7880   21.4270 C   0  0  0  0  0  2  0  0  0  0  0  0
  -26.0080  -29.4080   20.7760 C   0  0  0  0  0  0  0  0  0  0  0  0
  -27.1750  -28.5820   20.7890 C   0  0  0  0  0  3  0  0  0  0  0  0
  -25.9940  -26.9100   19.5000 C   0  0  0  0  0  3  0  0  0  0  0  0
  -24.8370  -27.7080   19.5100 C   0  0  0  0  0  3  0  0  0  0  0  0
  -23.6090  -29.8330   20.2040 C   0  0  0  0  0  2  0  0  0  0  0  0
  -24.6590  -31.0760   22.1380 N   0  0  0  0  0  0  0  0  0  0  0  0
  -23.5050  -32.1680   23.7620 O   0  0  0  0  0  0  0  0  0  0  0  0
  -22.7200  -29.4770   22.5390 C   0  0  0  0  0  0  0  0  0  0  0  0
  -21.3940  -29.3020   22.4050 N   0  0  0  0  0  0  0  0  0  0  0  0
  -23.3930  -28.8470   23.3600 O   0  0  0  0  0  0  0  0  0  0  0  0
  -20.9110  -29.8610   21.7170 H   0  0  0  0  0  0  0  0  0  0  0  0
  -18.0090  -28.1190   22.8860 C   0  0  0  0  0  0  0  0  0  0  0  0
  -20.5670  -28.3680   23.1710 C   0  0  0  0  0  3  0  0  0  0  0  0
  -20.6660  -26.9350   22.5980 C   0  0  0  0  0  2  0  0  0  0  0  0
  -19.5690  -26.6190   21.5760 C   0  0  0  0  0  2  0  0  0  0  0  0
  -18.1830  -26.7710   22.2080 C   0  0  0  0  0  2  0  0  0  0  0  0
  -19.1280  -28.8760   23.3240 C   0  0  0  0  0  0  0  0  0  0  0  0
  -18.9100  -30.1400   23.9150 C   0  0  0  0  0  3  0  0  0  0  0  0
  -17.6060  -30.6440   24.0770 C   0  0  0  0  0  3  0  0  0  0  0  0
  -16.5000  -29.8830   23.6560 C   0  0  0  0  0  3  0  0  0  0  0  0
  -16.7040  -28.6230   23.0670 C   0  0  0  0  0  3  0  0  0  0  0  0
  -25.8730  -32.5130   23.8630 C   0  0  0  0  0  3  0  0  0  0  0  0
  -25.5660  -33.9140   24.1880 N   0  0  0  0  0  0  0  0  0  0  0  0
  -25.8990  -34.9640   23.4280 C   0  0  0  0  0  0  0  0  0  0  0  0
  -26.5680  -34.8580   22.3950 O   0  0  0  0  0  0  0  0  0  0  0  0
  -24.9750  -34.0700   24.9920 H   0  0  0  0  0  0  0  0  0  0  0  0
  -24.1770  -36.7640   23.0700 C   0  0  0  0  0  1  0  0  0  0  0  0
  -25.4150  -36.3550   23.8840 C   0  0  0  0  0  3  0  0  0  0  0  0
  -27.5540  -37.2340   24.7130 C   0  0  0  0  0  1  0  0  0  0  0  0
  -26.4500  -37.4060   23.7720 N   0  0  0  0  0  0  0  0  0  0  0  0
  -26.0450  -38.3260   23.9230 H   0  0  0  0  0  0  0  0  0  0  0  0
  -26.3730  -31.7430   25.1450 C   0  0  1  0  0  0  0  0  0  0  0  0
  -25.2700  -31.5190   26.2060 C   0  0  0  0  0  1  0  0  0  0  0  0
  -26.9490  -30.3590   24.7670 C   0  0  0  0  0  1  0  0  0  0  0  0
  -27.5240  -32.5320   25.8130 C   0  0  0  0  0  1  0  0  0  0  0  0
  1  5  1  0
  1 48  1  0
  2  5  2  0
  2  4  1  0
  4  3  2  0
  5  7  1  0
  7  3  1  0
  7  6  1  0
  9  4  1  0
  9  8  2  0
 10  8  1  0
 11 16  1  0
 12 13  1  0
 12 11  1  0
 14 13  1  0
 14 21  1  0
 14 15  1  0
 16 10  1  0
 16 15  1  0
 17 10  2  0
 18 19  2  0
 19 38  1  0
 20 19  1  0
 20 23  1  0
 21 18  1  0
 21 22  1  0
 22 20  2  0
 23 24  1  0
 24 25  2  0
 26 29  1  0
 26 25  1  0
 27 26  2  0
 28 27  1  0
 28 23  2  0
 29 30  1  0
 30 31  1  0
 31 32  2  0
 33 32  1  0
 33 37  1  0
 34 33  2  0
 35 30  2  0
 35 34  1  0
 36 35  1  0
 38 39  1  0
 39 42  1  0
 39 41  1  0
 40 38  2  0
 43 44  1  0
 43 18  1  0
 45 43  1  0
 46  9  1  0
 47 46  1  0
 48 53  1  0
 48 49  1  0
 49 51  1  0
 49 52  1  0
 50 49  1  0
 53 54  1  0
 55 66  2  0
 56 54  1  0
 56 61  1  0
 57 65  1  0
 57 67  1  0
 58 64  1  0
 58 60  1  0
 59 65  1  0
 60 61  2  0
 60 59  1  0
 62 63  1  0
 62 56  2  0
 63 58  2  0
 64 57  1  0
 65 55  1  0
 67 69  2  0
 68 67  1  0
 70 68  1  0
 71 80  2  0
 71 76  1  0
 72 68  1  0
 72 76  1  0
 73 72  1  0
 74 75  1  0
 74 73  1  0
 75 71  1  0
 76 77  2  0
 77 78  1  0
 79 78  2  0
 80 79  1  0
 81 55  1  0
 81 82  1  0
 81 91  1  0
 82 85  1  0
 83 87  1  0
 83 82  1  0
 84 83  2  0
 87 86  1  0
 89 87  1  0
 89 90  1  0
 89 88  1  0
 91 94  1  1
 91 92  1  0
 93 91  1  0
M  ISO  4   8 100  10 100  53 101  54 101
M  END
>  <TORSDO>  (91) 
F 22

>  <SCORE>  (91) 
-13.754

>  <name>  (91) 
90

>  <ligand_id>  (91) 
90

>  <original_smiles>  (91) 
[H]OC(=C([H])C(=O)N1C([H])([H])C([H])([H])C([H])([H])C([H])(n2nc(-c3c([H])c([H])c(Oc4c([H])c([H])c(F)c([H])c4F)c([H])c3[H])c(C(=O)N([H])[H])c2N([H])[H])C1([H])[H])c1c([H])c(C([H])([H])C([H])(C([H])([H])Oc2c([H])c([H])c3c(c2[H])C([H])([H])N(C(=O)C([H])(N([H])C(=O)C([H])(N([H])C([H])([H])[H])C([H])([H])[H])C(C([H])([H])[H])(C([H])([H])[H])C([H])([H])[H])C([H])(C(=O)N([H])C2([H])c4c([H])c([H])c([H])c([H])c4C([H])([H])C([H])([H])C2([H])[H])C3([H])[H])[N+]([H])([H])[H])n(C([H])([H])[H])c1[H]

>  <smiles>  (91) 
[H]OC(=C([H])C(=O)N1C([H])([H])C([H])([H])C([H])([H])C([H])(n2nc(-c3c([H])c([H])c(Oc4c([H])c([H])c(F)c([H])c4F)c([H])c3[H])c(C(=O)N([H])[H])c2N([H])[H])C1([H])[H])c1c([H])c(C([H])([H])C([H])(C([H])([H])Oc2c([H])c([H])c3c(c2[H])C([H])([H])N(C(=O)C([H])(N([H])C(=O)C([H])(N([H])C([H])([H])[H])C([H])([H])[H])C(C([H])([H])[H])(C([H])([H])[H])C([H])([H])[H])C([H])(C(=O)N([H])C2([H])c4c([H])c([H])c([H])c([H])c4C([H])([H])C([H])([H])C2([H])[H])C3([H])[H])[N+]([H])([H])[H])n(C([H])([H])[H])c1[H]

$$$$
91:0:0
     RDKit          3D

 93102  0  0  1  0  0  0  0  0999 V2000
  -29.9820  -21.0280   17.9310 C   0  0  0  0  0  3  0  0  0  0  0  0
  -28.8260  -20.8460   20.0740 C   0  0  0  0  0  3  0  0  0  0  0  0
  -29.4430  -22.3090   17.7430 C   0  0  0  0  0  3  0  0  0  0  0  0
  -28.2970  -22.1340   19.8950 C   0  0  0  0  0  3  0  0  0  0  0  0
  -29.6910  -20.3030   19.1040 C   0  0  0  0  0  0  0  0  0  0  0  0
  -28.6250  -22.8730   18.7390 C   0  0  0  0  0  0  0  0  0  0  0  0
  -31.3950  -18.9940   20.4840 C   0  0  0  0  0  2  0  0  0  0  0  0
  -31.4050  -17.5650   21.0400 C   0  0  0  0  0  2  0  0  0  0  0  0
  -29.4590  -17.7790   19.6190 C   0  0  0  0  0  2  0  0  0  0  0  0
  -30.3750  -18.9750   19.3330 C   0  0  0  0  0  3  0  0  0  0  0  0
  -30.5070  -16.7750   20.0810 C   0  0  0  0  0  3  0  0  0  0  0  0
  -30.7040  -14.3970   20.4670 C   0  0  0  0  0  0  0  0  0  0  0  0
  -30.3290  -12.2660   19.3490 C   0  0  0  0  0  2  0  0  0  0  0  0
  -29.4130  -12.5260   18.1360 C   0  0  0  0  0  2  0  0  0  0  0  0
  -27.9330  -12.4130   18.5540 C   0  0  0  0  0  2  0  0  0  0  0  0
  -27.6000  -13.2480   19.8220 C   0  0  0  0  0  3  0  0  0  0  0  0
  -28.6460  -13.0260   20.9380 C   0  0  0  0  0  2  0  0  0  0  0  0
  -29.9800  -13.2610   20.3690 N   0  0  0  0  0  0  0  0  0  0  0  0
  -31.8880  -14.4710   20.1240 O   0  0  0  0  0  0  0  0  0  0  0  0
  -29.9940  -15.5210   20.6310 N   0  0  0  0  0  0  0  0  0  0  0  0
  -29.0140  -15.4440   20.8540 H   0  0  0  0  0  0  0  0  0  0  0  0
  -25.1980  -13.8620   20.5170 C   0  0  0  0  0  0  0  0  0  0  0  0
  -24.1260  -13.0920   20.8800 C   0  0  0  0  0  0  0  0  0  0  0  0
  -24.5840  -11.7390   20.8550 C   0  0  0  0  0  0  0  0  0  0  0  0
  -26.2430  -12.9790   20.2940 N   0  0  0  0  0  0  0  0  0  0  0  0
  -25.8760  -11.6980   20.5570 N   0  0  0  0  0  0  0  0  0  0  0  0
  -23.8540  -10.4790   21.0420 C   0  0  0  0  0  0  0  0  0  0  0  0
  -24.2750   -9.5150   21.9850 C   0  0  0  0  0  3  0  0  0  0  0  0
  -23.5480   -8.3190   22.1590 C   0  0  0  0  0  3  0  0  0  0  0  0
  -22.3850   -8.0770   21.3900 C   0  0  0  0  0  0  0  0  0  0  0  0
  -21.9830   -9.0290   20.4360 C   0  0  0  0  0  3  0  0  0  0  0  0
  -22.7120  -10.2170   20.2600 C   0  0  0  0  0  3  0  0  0  0  0  0
  -21.6300   -6.9320   21.4730 O   0  0  0  0  0  0  0  0  0  0  0  0
  -21.5600   -6.1970   22.6290 C   0  0  0  0  0  0  0  0  0  0  0  0
  -21.0990   -6.7550   23.8410 C   0  0  0  0  0  3  0  0  0  0  0  0
  -20.9780   -5.9460   24.9880 C   0  0  0  0  0  3  0  0  0  0  0  0
  -21.3080   -4.5790   24.9250 C   0  0  0  0  0  0  0  0  0  0  0  0
  -21.7630   -4.0200   23.7170 C   0  0  0  0  0  3  0  0  0  0  0  0
  -21.8850   -4.8270   22.5720 C   0  0  0  0  0  0  0  0  0  0  0  0
  -22.3040   -4.2790   21.4060 F   0  0  0  0  0  0  0  0  0  0  0  0
  -21.1860   -3.7980   26.0230 F   0  0  0  0  0  0  0  0  0  0  0  0
  -22.7260  -13.5720   21.1390 C   0  0  0  0  0  0  0  0  0  0  0  0
  -21.9870  -12.8770   21.9940 N   0  0  0  0  0  0  0  0  0  0  0  0
  -22.2950  -14.6000   20.6180 O   0  0  0  0  0  0  0  0  0  0  0  0
  -22.3460  -12.0480   22.4440 H   0  0  0  0  0  0  0  0  0  0  0  0
  -21.0460  -13.1800   22.2070 H   0  0  0  0  0  0  0  0  0  0  0  0
  -25.3660  -15.2320   20.3350 N   0  0  0  0  0  0  0  0  0  0  0  0
  -24.6000  -15.8870   20.4390 H   0  0  0  0  0  0  0  0  0  0  0  0
  -26.2150  -15.6660   19.9960 H   0  0  0  0  0  0  0  0  0  0  0  0
  -28.1620  -24.3000   18.6040 C   0  0  0  0  0  2  0  0  0  0  0  0
  -29.3520  -25.2720   18.5650 C   0  0  0  0  0  2  0  0  0  0  0  0
  -28.9210  -26.7180   18.7720 C   0  0  0  0  0  2  0  0  0  0  0  0
  -28.3830  -26.8320   20.0840 O   0  0  0  0  0  0  0  0  0  0  0  0
  -24.5300  -31.8770   23.2250 C   0  0  0  0  0  0  0  0  0  0  0  0
  -27.1880  -27.4960   20.1330 C   0  0  0  0  0  0  0  0  0  0  0  0
  -23.3230  -30.4720   21.5840 C   0  0  0  0  0  3  0  0  0  0  0  0
  -24.7790  -28.9420   20.1640 C   0  0  0  0  0  0  0  0  0  0  0  0
  -25.8410  -30.8530   21.3770 C   0  0  0  0  0  2  0  0  0  0  0  0
  -25.9300  -29.4820   20.7510 C   0  0  0  0  0  0  0  0  0  0  0  0
  -27.1360  -28.7580   20.7500 C   0  0  0  0  0  3  0  0  0  0  0  0
  -26.0220  -26.9480   19.5570 C   0  0  0  0  0  3  0  0  0  0  0  0
  -24.8140  -27.6680   19.5720 C   0  0  0  0  0  3  0  0  0  0  0  0
  -23.5320  -29.7930   20.2040 C   0  0  0  0  0  2  0  0  0  0  0  0
  -24.5830  -31.0820   22.1210 N   0  0  0  0  0  0  0  0  0  0  0  0
  -23.4490  -32.1440   23.7670 O   0  0  0  0  0  0  0  0  0  0  0  0
  -22.6800  -29.4470   22.5440 C   0  0  0  0  0  0  0  0  0  0  0  0
  -21.3560  -29.2640   22.4190 N   0  0  0  0  0  0  0  0  0  0  0  0
  -23.3690  -28.8180   23.3520 O   0  0  0  0  0  0  0  0  0  0  0  0
  -20.8630  -29.8230   21.7360 H   0  0  0  0  0  0  0  0  0  0  0  0
  -17.9790  -28.0930   22.9380 C   0  0  0  0  0  0  0  0  0  0  0  0
  -20.5420  -28.3250   23.1900 C   0  0  0  0  0  3  0  0  0  0  0  0
  -20.6270  -26.8990   22.6000 C   0  0  0  0  0  2  0  0  0  0  0  0
  -19.5120  -26.5940   21.5940 C   0  0  0  0  0  2  0  0  0  0  0  0
  -18.1390  -26.7470   22.2520 C   0  0  0  0  0  2  0  0  0  0  0  0
  -19.1090  -28.8410   23.3640 C   0  0  0  0  0  0  0  0  0  0  0  0
  -18.9080  -30.1030   23.9660 C   0  0  0  0  0  3  0  0  0  0  0  0
  -17.6100  -30.6160   24.1460 C   0  0  0  0  0  3  0  0  0  0  0  0
  -16.4950  -29.8660   23.7360 C   0  0  0  0  0  3  0  0  0  0  0  0
  -16.6800  -28.6050   23.1390 C   0  0  0  0  0  3  0  0  0  0  0  0
  -25.8170  -32.5100   23.8410 C   0  0  0  0  0  3  0  0  0  0  0  0
  -26.3420  -31.7380   25.1130 C   0  0  1  0  0  0  0  0  0  0  0  0
  -25.2540  -31.4930   26.1840 C   0  0  0  0  0  1  0  0  0  0  0  0
  -26.9290  -30.3650   24.7120 C   0  0  0  0  0  1  0  0  0  0  0  0
  -27.4910  -32.5360   25.7730 C   0  0  0  0  0  1  0  0  0  0  0  0
  -25.5070  -33.9070   24.1700 N   0  0  0  0  0  0  0  0  0  0  0  0
  -25.8450  -34.9570   23.4080 C   0  0  0  0  0  0  0  0  0  0  0  0
  -26.5210  -34.8520   22.3810 O   0  0  0  0  0  0  0  0  0  0  0  0
  -24.9070  -34.0630   24.9660 H   0  0  0  0  0  0  0  0  0  0  0  0
  -24.1290  -36.7520   23.0230 C   0  0  0  0  0  1  0  0  0  0  0  0
  -25.3530  -36.3460   23.8580 C   0  0  0  0  0  3  0  0  0  0  0  0
  -27.4730  -37.2220   24.7320 C   0  0  0  0  0  1  0  0  0  0  0  0
  -26.3910  -37.3960   23.7660 N   0  0  0  0  0  0  0  0  0  0  0  0
  -25.9830  -38.3160   23.9090 H   0  0  0  0  0  0  0  0  0  0  0  0
  1  5  1  0
  3  1  2  0
  3  6  1  0
  4  2  1  0
  5  2  2  0
  6  4  2  0
  7  8  1  0
  9 11  1  0
 10  5  1  0
 10  9  1  0
 10  7  1  0
 11 20  1  0
 11  8  1  0
 12 20  1  0
 13 18  1  0
 14 15  1  0
 14 13  1  0
 16 15  1  0
 16 25  1  0
 16 17  1  0
 18 12  1  0
 18 17  1  0
 19 12  2  0
 20 21  1  0
 22 23  2  0
 23 42  1  0
 24 23  1  0
 24 27  1  0
 25 22  1  0
 25 26  1  0
 26 24  2  0
 27 28  1  0
 28 29  2  0
 30 33  1  0
 30 29  1  0
 31 30  2  0
 32 31  1  0
 32 27  2  0
 33 34  1  0
 34 35  1  0
 35 36  2  0
 37 36  1  0
 37 41  1  0
 38 37  2  0
 39 34  2  0
 39 38  1  0
 40 39  1  0
 42 43  1  0
 43 46  1  0
 43 45  1  0
 44 42  2  0
 47 48  1  0
 47 22  1  0
 49 47  1  0
 50  6  1  0
 51 50  1  0
 51 52  1  0
 52 53  1  0
 53 55  1  0
 54 65  2  0
 55 60  1  0
 56 64  1  0
 56 66  1  0
 57 63  1  0
 57 59  1  0
 58 64  1  0
 59 58  1  0
 60 59  2  0
 61 62  1  0
 61 55  2  0
 62 57  2  0
 63 56  1  0
 64 54  1  0
 66 68  2  0
 67 66  1  0
 69 67  1  0
 70 79  2  0
 70 75  1  0
 71 67  1  0
 71 75  1  0
 72 71  1  0
 73 74  1  0
 73 72  1  0
 74 70  1  0
 75 76  2  0
 76 77  1  0
 78 77  2  0
 79 78  1  0
 80 54  1  0
 80 85  1  0
 80 81  1  0
 81 84  1  1
 81 82  1  0
 83 81  1  0
 85 88  1  0
 86 90  1  0
 86 85  1  0
 87 86  2  0
 90 89  1  0
 92 90  1  0
 92 93  1  0
 92 91  1  0
M  ISO  4  12 100  20 100  52 101  53 101
M  END
>  <TORSDO>  (92) 
F 20

>  <SCORE>  (92) 
-13.947

>  <name>  (92) 
91

>  <ligand_id>  (92) 
91

>  <original_smiles>  (92) 
[H]c1c([H])c([H])c2c(c1[H])C([H])([H])C([H])([H])C([H])([H])C2([H])N([H])C(=O)C1([H])N(C(=O)C([H])(N([H])C(=O)C([H])(N([H])C([H])([H])[H])C([H])([H])[H])C(C([H])([H])[H])(C([H])([H])[H])C([H])([H])[H])C([H])([H])c2c([H])c(OC([H])([H])C([H])([H])C([H])([H])c3c([H])c([H])c(C4([H])C([H])([H])C([H])([H])C([H])(N([H])C(=O)N5C([H])([H])C([H])([H])C([H])([H])C([H])(n6nc(-c7c([H])c([H])c(Oc8c([H])c([H])c(F)c([H])c8F)c([H])c7[H])c(C(=O)N([H])[H])c6N([H])[H])C5([H])[H])C4([H])[H])c([H])c3[H])c([H])c([H])c2C1([H])[H]

>  <smiles>  (92) 
[H]c1c([H])c([H])c2c(c1[H])C([H])([H])C([H])([H])C([H])([H])C2([H])N([H])C(=O)C1([H])N(C(=O)C([H])(N([H])C(=O)C([H])(N([H])C([H])([H])[H])C([H])([H])[H])C(C([H])([H])[H])(C([H])([H])[H])C([H])([H])[H])C([H])([H])c2c([H])c(OC([H])([H])C([H])([H])C([H])([H])c3c([H])c([H])c(C4([H])C([H])([H])C([H])([H])C([H])(N([H])C(=O)N5C([H])([H])C([H])([H])C([H])([H])C([H])(n6nc(-c7c([H])c([H])c(Oc8c([H])c([H])c(F)c([H])c8F)c([H])c7[H])c(C(=O)N([H])[H])c6N([H])[H])C5([H])[H])C4([H])[H])c([H])c3[H])c([H])c([H])c2C1([H])[H]

$$$$
92:0:0
     RDKit          3D

 94102  0  0  1  0  0  0  0  0999 V2000
  -27.6720  -21.9920   19.3480 C   0  0  0  0  0  3  0  0  0  0  0  0
  -28.4870  -20.8610   19.5610 C   0  0  0  0  0  3  0  0  0  0  0  0
  -27.9610  -23.2210   19.9730 C   0  0  0  0  0  3  0  0  0  0  0  0
  -29.8770  -22.1840   21.0460 C   0  0  0  0  0  3  0  0  0  0  0  0
  -29.6090  -20.9300   20.4170 C   0  0  0  0  0  0  0  0  0  0  0  0
  -29.0690  -23.3430   20.8390 C   0  0  0  0  0  0  0  0  0  0  0  0
  -29.5620  -24.3960   23.0700 C   0  0  0  0  0  1  0  0  0  0  0  0
  -30.7460  -25.2270   21.0320 C   0  0  0  0  0  1  0  0  0  0  0  0
  -29.4050  -24.6830   21.5560 C   0  0  1  0  0  0  0  0  0  0  0  0
  -28.3270  -25.8280   21.4430 C   0  0  0  0  0  2  0  0  0  0  0  0
  -28.2750  -26.6000   20.2260 O   0  0  0  0  0  0  0  0  0  0  0  0
  -24.5400  -31.8830   23.2400 C   0  0  0  0  0  0  0  0  0  0  0  0
  -27.1620  -27.4120   20.1800 C   0  0  0  0  0  0  0  0  0  0  0  0
  -23.3280  -30.4790   21.6040 C   0  0  0  0  0  3  0  0  0  0  0  0
  -24.7780  -28.9380   20.1750 C   0  0  0  0  0  0  0  0  0  0  0  0
  -25.8550  -30.8310   21.4000 C   0  0  0  0  0  2  0  0  0  0  0  0
  -25.9380  -29.4570   20.7640 C   0  0  0  0  0  0  0  0  0  0  0  0
  -27.1370  -28.7020   20.7650 C   0  0  0  0  0  3  0  0  0  0  0  0
  -25.9920  -26.9150   19.5740 C   0  0  0  0  0  3  0  0  0  0  0  0
  -24.8000  -27.6670   19.5730 C   0  0  0  0  0  3  0  0  0  0  0  0
  -23.5340  -29.7980   20.2240 C   0  0  0  0  0  2  0  0  0  0  0  0
  -24.5930  -31.0790   22.1390 N   0  0  0  0  0  0  0  0  0  0  0  0
  -23.4610  -32.1590   23.7820 O   0  0  0  0  0  0  0  0  0  0  0  0
  -22.6750  -29.4620   22.5680 C   0  0  0  0  0  0  0  0  0  0  0  0
  -21.3500  -29.2810   22.4430 N   0  0  0  0  0  0  0  0  0  0  0  0
  -23.3590  -28.8390   23.3860 O   0  0  0  0  0  0  0  0  0  0  0  0
  -20.8610  -29.8340   21.7530 H   0  0  0  0  0  0  0  0  0  0  0  0
  -17.9750  -28.0900   22.9430 C   0  0  0  0  0  0  0  0  0  0  0  0
  -20.5320  -28.3460   23.2160 C   0  0  0  0  0  3  0  0  0  0  0  0
  -20.6350  -26.9140   22.6440 C   0  0  0  0  0  2  0  0  0  0  0  0
  -19.5340  -26.5890   21.6300 C   0  0  0  0  0  2  0  0  0  0  0  0
  -18.1520  -26.7380   22.2720 C   0  0  0  0  0  2  0  0  0  0  0  0
  -19.0940  -28.8520   23.3710 C   0  0  0  0  0  0  0  0  0  0  0  0
  -18.8760  -30.1180   23.9580 C   0  0  0  0  0  3  0  0  0  0  0  0
  -17.5720  -30.6220   24.1200 C   0  0  0  0  0  3  0  0  0  0  0  0
  -16.4670  -29.8560   23.7090 C   0  0  0  0  0  3  0  0  0  0  0  0
  -16.6690  -28.5920   23.1270 C   0  0  0  0  0  3  0  0  0  0  0  0
  -25.8290  -32.5110   23.8560 C   0  0  0  0  0  3  0  0  0  0  0  0
  -25.5240  -33.9110   24.1830 N   0  0  0  0  0  0  0  0  0  0  0  0
  -25.8660  -34.9600   23.4230 C   0  0  0  0  0  0  0  0  0  0  0  0
  -26.5410  -34.8530   22.3950 O   0  0  0  0  0  0  0  0  0  0  0  0
  -24.9240  -34.0690   24.9790 H   0  0  0  0  0  0  0  0  0  0  0  0
  -24.1520  -36.7640   23.0500 C   0  0  0  0  0  1  0  0  0  0  0  0
  -25.3810  -36.3510   23.8750 C   0  0  0  0  0  3  0  0  0  0  0  0
  -27.5120  -37.2210   24.7320 C   0  0  0  0  0  1  0  0  0  0  0  0
  -26.4220  -37.3980   23.7750 N   0  0  0  0  0  0  0  0  0  0  0  0
  -26.0190  -38.3190   23.9200 H   0  0  0  0  0  0  0  0  0  0  0  0
  -26.3500  -31.7390   25.1290 C   0  0  1  0  0  0  0  0  0  0  0  0
  -25.2600  -31.5050   26.2010 C   0  0  0  0  0  1  0  0  0  0  0  0
  -26.9280  -30.3590   24.7340 C   0  0  0  0  0  1  0  0  0  0  0  0
  -27.5060  -32.5300   25.7850 C   0  0  0  0  0  1  0  0  0  0  0  0
  -31.8200  -20.0000   21.3710 C   0  0  0  0  0  1  0  0  0  0  0  0
  -30.5540  -19.6970   20.5390 C   0  0  0  0  0  3  0  0  0  0  0  0
  -29.8870  -18.4320   20.9990 N   0  0  0  0  0  4  0  0  0  0  0  0
  -29.7560  -18.4850   21.9960 H   0  0  0  0  0  0  0  0  0  0  0  0
  -28.9730  -18.4090   20.5790 H   0  0  0  0  0  0  0  0  0  0  0  0
  -30.6010  -17.1570   20.6350 C   0  0  0  0  0  2  0  0  0  0  0  0
  -29.9440  -15.8090   21.1050 C   0  0  0  0  0  2  0  0  0  0  0  0
  -30.6370  -14.5400   20.5140 C   0  0  0  0  0  0  0  0  0  0  0  0
  -30.3350  -12.3750   19.3550 C   0  0  0  0  0  2  0  0  0  0  0  0
  -29.4030  -12.5860   18.1430 C   0  0  0  0  0  2  0  0  0  0  0  0
  -27.9280  -12.4460   18.5640 C   0  0  0  0  0  2  0  0  0  0  0  0
  -27.5850  -13.2820   19.8260 C   0  0  0  0  0  3  0  0  0  0  0  0
  -28.6350  -13.0740   20.9410 C   0  0  0  0  0  2  0  0  0  0  0  0
  -29.9610  -13.3640   20.3810 N   0  0  0  0  0  0  0  0  0  0  0  0
  -31.7750  -14.6760   20.0570 O   0  0  0  0  0  0  0  0  0  0  0  0
  -25.1850  -13.8920   20.5200 C   0  0  0  0  0  0  0  0  0  0  0  0
  -24.1120  -13.1230   20.8850 C   0  0  0  0  0  0  0  0  0  0  0  0
  -24.5720  -11.7710   20.8630 C   0  0  0  0  0  0  0  0  0  0  0  0
  -26.2300  -13.0090   20.2990 N   0  0  0  0  0  0  0  0  0  0  0  0
  -25.8650  -11.7280   20.5640 N   0  0  0  0  0  0  0  0  0  0  0  0
  -23.8420  -10.5110   21.0530 C   0  0  0  0  0  0  0  0  0  0  0  0
  -24.2720   -9.5410   21.9850 C   0  0  0  0  0  3  0  0  0  0  0  0
  -23.5440   -8.3460   22.1630 C   0  0  0  0  0  3  0  0  0  0  0  0
  -22.3700   -8.1110   21.4070 C   0  0  0  0  0  0  0  0  0  0  0  0
  -21.9580   -9.0690   20.4650 C   0  0  0  0  0  3  0  0  0  0  0  0
  -22.6890  -10.2560   20.2850 C   0  0  0  0  0  3  0  0  0  0  0  0
  -21.6140   -6.9660   21.4940 O   0  0  0  0  0  0  0  0  0  0  0  0
  -21.5720   -6.2160   22.6430 C   0  0  0  0  0  0  0  0  0  0  0  0
  -21.1660   -6.7680   23.8770 C   0  0  0  0  0  3  0  0  0  0  0  0
  -21.0690   -5.9460   25.0170 C   0  0  0  0  0  3  0  0  0  0  0  0
  -21.3690   -4.5730   24.9240 C   0  0  0  0  0  0  0  0  0  0  0  0
  -21.7700   -4.0220   23.6940 C   0  0  0  0  0  3  0  0  0  0  0  0
  -21.8670   -4.8410   22.5560 C   0  0  0  0  0  0  0  0  0  0  0  0
  -22.2330   -4.3010   21.3680 F   0  0  0  0  0  0  0  0  0  0  0  0
  -21.2690   -3.7810   26.0170 F   0  0  0  0  0  0  0  0  0  0  0  0
  -22.7130  -13.6050   21.1440 C   0  0  0  0  0  0  0  0  0  0  0  0
  -21.9770  -12.9140   22.0070 N   0  0  0  0  0  0  0  0  0  0  0  0
  -22.2810  -14.6290   20.6160 O   0  0  0  0  0  0  0  0  0  0  0  0
  -22.3390  -12.0870   22.4570 H   0  0  0  0  0  0  0  0  0  0  0  0
  -21.0380  -13.2180   22.2210 H   0  0  0  0  0  0  0  0  0  0  0  0
  -25.3500  -15.2620   20.3380 N   0  0  0  0  0  0  0  0  0  0  0  0
  -24.5800  -15.9130   20.4360 H   0  0  0  0  0  0  0  0  0  0  0  0
  -26.1970  -15.6990   19.9970 H   0  0  0  0  0  0  0  0  0  0  0  0
  1  2  2  0
  1  3  1  0
  2  5  1  0
  3  6  2  0
  5 53  1  0
  5  4  2  0
  6  4  1  0
  6  9  1  0
  9  8  1  6
  9  7  1  0
 10  9  1  0
 11 10  1  0
 12 23  2  0
 13 11  1  0
 13 18  1  0
 14 22  1  0
 14 24  1  0
 15 21  1  0
 15 17  1  0
 16 22  1  0
 17 18  2  0
 17 16  1  0
 19 13  2  0
 20 19  1  0
 20 15  2  0
 21 14  1  0
 22 12  1  0
 24 26  2  0
 25 24  1  0
 27 25  1  0
 28 37  2  0
 28 33  1  0
 29 25  1  0
 29 33  1  0
 30 29  1  0
 31 32  1  0
 31 30  1  0
 32 28  1  0
 33 34  2  0
 34 35  1  0
 36 35  2  0
 37 36  1  0
 38 12  1  0
 38 39  1  0
 38 48  1  0
 39 42  1  0
 40 44  1  0
 40 39  1  0
 41 40  2  0
 44 43  1  0
 46 44  1  0
 46 47  1  0
 46 45  1  0
 48 51  1  1
 48 49  1  0
 50 48  1  0
 53 54  1  0
 53 52  1  0
 54 55  1  0
 56 54  1  0
 57 54  1  0
 57 58  1  0
 59 58  1  0
 60 65  1  0
 61 62  1  0
 61 60  1  0
 63 62  1  0
 63 70  1  0
 63 64  1  0
 65 59  1  0
 65 64  1  0
 66 59  2  0
 67 68  2  0
 68 87  1  0
 69 68  1  0
 69 72  1  0
 70 67  1  0
 70 71  1  0
 71 69  2  0
 72 73  1  0
 73 74  2  0
 75 78  1  0
 75 74  1  0
 76 75  2  0
 77 76  1  0
 77 72  2  0
 78 79  1  0
 79 80  1  0
 80 81  2  0
 82 81  1  0
 82 86  1  0
 83 82  2  0
 84 79  2  0
 84 83  1  0
 85 84  1  0
 87 88  1  0
 88 91  1  0
 88 90  1  0
 89 87  2  0
 92 93  1  0
 92 67  1  0
 94 92  1  0
M  ISO  4  10 101  11 101  58 100  59 100
M  END
>  <TORSDO>  (93) 
F 22

>  <SCORE>  (93) 
-13.473

>  <name>  (93) 
92

>  <ligand_id>  (93) 
92

>  <original_smiles>  (93) 
[H]c1c([H])c([H])c2c(c1[H])C([H])([H])C([H])([H])C([H])([H])C2([H])N([H])C(=O)C1([H])N(C(=O)C([H])(N([H])C(=O)C([H])(N([H])C([H])([H])[H])C([H])([H])[H])C(C([H])([H])[H])(C([H])([H])[H])C([H])([H])[H])C([H])([H])c2c([H])c(OC([H])([H])C(c3c([H])c([H])c([H])c(C([H])(C([H])([H])[H])[N+]([H])([H])C([H])([H])C([H])([H])C(=O)N4C([H])([H])C([H])([H])C([H])([H])C([H])(n5nc(-c6c([H])c([H])c(Oc7c([H])c([H])c(F)c([H])c7F)c([H])c6[H])c(C(=O)N([H])[H])c5N([H])[H])C4([H])[H])c3[H])(C([H])([H])[H])C([H])([H])[H])c([H])c([H])c2C1([H])[H]

>  <smiles>  (93) 
[H]c1c([H])c([H])c2c(c1[H])C([H])([H])C([H])([H])C([H])([H])C2([H])N([H])C(=O)C1([H])N(C(=O)C([H])(N([H])C(=O)C([H])(N([H])C([H])([H])[H])C([H])([H])[H])C(C([H])([H])[H])(C([H])([H])[H])C([H])([H])[H])C([H])([H])c2c([H])c(OC([H])([H])C(c3c([H])c([H])c([H])c(C([H])(C([H])([H])[H])[N+]([H])([H])C([H])([H])C([H])([H])C(=O)N4C([H])([H])C([H])([H])C([H])([H])C([H])(n5nc(-c6c([H])c([H])c(Oc7c([H])c([H])c(F)c([H])c7F)c([H])c6[H])c(C(=O)N([H])[H])c5N([H])[H])C4([H])[H])c3[H])(C([H])([H])[H])C([H])([H])[H])c([H])c([H])c2C1([H])[H]

$$$$
93:0:0
     RDKit          3D

 87 95  0  0  1  0  0  0  0  0999 V2000
  -30.2610  -20.8080   19.5800 C   0  0  0  0  0  3  0  0  0  0  0  0
  -30.0560  -22.1740   19.5670 C   0  0  0  0  0  3  0  0  0  0  0  0
  -28.5990  -21.2620   20.9600 C   0  0  0  0  0  3  0  0  0  0  0  0
  -29.3370  -20.1830   20.4750 C   0  0  0  0  0  0  0  0  0  0  0  0
  -29.0120  -22.5020   20.4230 N   0  0  0  0  0  0  0  0  0  0  0  0
  -29.1610  -18.6550   20.8510 C   0  0  0  0  0  3  0  0  0  0  0  0
  -30.1330  -17.4810   20.3360 C   0  0  0  0  0  3  0  0  0  0  0  0
  -29.7790  -15.9880   20.8360 C   0  0  0  0  0  2  0  0  0  0  0  0
  -30.5830  -14.7040   20.3270 C   0  0  0  0  0  0  0  0  0  0  0  0
  -30.3910  -12.4610   19.2400 C   0  0  0  0  0  2  0  0  0  0  0  0
  -29.4360  -12.5830   18.0300 C   0  0  0  0  0  2  0  0  0  0  0  0
  -27.9680  -12.4060   18.4700 C   0  0  0  0  0  2  0  0  0  0  0  0
  -27.6130  -13.2670   19.7090 C   0  0  0  0  0  3  0  0  0  0  0  0
  -28.6790  -13.1190   20.8170 C   0  0  0  0  0  2  0  0  0  0  0  0
  -29.9830  -13.4710   20.2380 N   0  0  0  0  0  0  0  0  0  0  0  0
  -31.7350  -14.8560   19.9080 O   0  0  0  0  0  0  0  0  0  0  0  0
  -25.2260  -13.8670   20.4440 C   0  0  0  0  0  0  0  0  0  0  0  0
  -24.1600  -13.0940   20.8200 C   0  0  0  0  0  0  0  0  0  0  0  0
  -24.6230  -11.7430   20.7920 C   0  0  0  0  0  0  0  0  0  0  0  0
  -26.2680  -12.9850   20.2050 N   0  0  0  0  0  0  0  0  0  0  0  0
  -25.9130  -11.7040   20.4760 N   0  0  0  0  0  0  0  0  0  0  0  0
  -23.8980  -10.4820   20.9910 C   0  0  0  0  0  0  0  0  0  0  0  0
  -24.3320   -9.5210   21.9310 C   0  0  0  0  0  3  0  0  0  0  0  0
  -23.6090   -8.3220   22.1170 C   0  0  0  0  0  3  0  0  0  0  0  0
  -22.4380   -8.0770   21.3610 C   0  0  0  0  0  0  0  0  0  0  0  0
  -22.0240   -9.0250   20.4100 C   0  0  0  0  0  3  0  0  0  0  0  0
  -22.7470  -10.2150   20.2230 C   0  0  0  0  0  3  0  0  0  0  0  0
  -21.6850   -6.9310   21.4560 O   0  0  0  0  0  0  0  0  0  0  0  0
  -21.6320   -6.1990   22.6140 C   0  0  0  0  0  0  0  0  0  0  0  0
  -21.1960   -6.7620   23.8340 C   0  0  0  0  0  3  0  0  0  0  0  0
  -21.0920   -5.9560   24.9840 C   0  0  0  0  0  3  0  0  0  0  0  0
  -21.4130   -4.5870   24.9170 C   0  0  0  0  0  0  0  0  0  0  0  0
  -21.8420   -4.0230   23.7030 C   0  0  0  0  0  3  0  0  0  0  0  0
  -21.9490   -4.8260   22.5550 C   0  0  0  0  0  0  0  0  0  0  0  0
  -22.3430   -4.2730   21.3820 F   0  0  0  0  0  0  0  0  0  0  0  0
  -21.3050   -3.8100   26.0210 F   0  0  0  0  0  0  0  0  0  0  0  0
  -22.7630  -13.5710   21.0950 C   0  0  0  0  0  0  0  0  0  0  0  0
  -22.0370  -12.8750   21.9620 N   0  0  0  0  0  0  0  0  0  0  0  0
  -22.3230  -14.5960   20.5740 O   0  0  0  0  0  0  0  0  0  0  0  0
  -22.4050  -12.0460   22.4050 H   0  0  0  0  0  0  0  0  0  0  0  0
  -21.0990  -13.1760   22.1890 H   0  0  0  0  0  0  0  0  0  0  0  0
  -25.3910  -15.2380   20.2630 N   0  0  0  0  0  0  0  0  0  0  0  0
  -24.6280  -15.8980   20.3720 H   0  0  0  0  0  0  0  0  0  0  0  0
  -26.2440  -15.6670   19.9280 H   0  0  0  0  0  0  0  0  0  0  0  0
  -28.5190  -23.8890   20.8180 C   0  0  0  0  0  3  0  0  0  0  0  0
  -28.5180  -25.1060   19.7730 C   0  0  0  0  0  3  0  0  0  0  0  0
  -28.4050  -26.5110   20.2660 O   0  0  0  0  0  0  0  0  0  0  0  0
  -24.5970  -31.8700   23.2330 C   0  0  0  0  0  0  0  0  0  0  0  0
  -27.2460  -27.3070   20.1970 C   0  0  0  0  0  0  0  0  0  0  0  0
  -23.4070  -30.4680   21.5830 C   0  0  0  0  0  3  0  0  0  0  0  0
  -24.8690  -28.9130   20.1700 C   0  0  0  0  0  0  0  0  0  0  0  0
  -25.9450  -30.7900   21.4160 C   0  0  0  0  0  2  0  0  0  0  0  0
  -26.0300  -29.4090   20.7720 C   0  0  0  0  0  0  0  0  0  0  0  0
  -27.2170  -28.6170   20.7740 C   0  0  0  0  0  3  0  0  0  0  0  0
  -26.0550  -26.8580   19.5810 C   0  0  0  0  0  3  0  0  0  0  0  0
  -24.8850  -27.6440   19.5660 C   0  0  0  0  0  3  0  0  0  0  0  0
  -23.6310  -29.7860   20.2070 C   0  0  0  0  0  2  0  0  0  0  0  0
  -24.6680  -31.0610   22.1350 N   0  0  0  0  0  0  0  0  0  0  0  0
  -23.5100  -32.1470   23.7600 O   0  0  0  0  0  0  0  0  0  0  0  0
  -22.7370  -29.4540   22.5420 C   0  0  0  0  0  0  0  0  0  0  0  0
  -21.4100  -29.2840   22.4110 N   0  0  0  0  0  0  0  0  0  0  0  0
  -23.4110  -28.8230   23.3610 O   0  0  0  0  0  0  0  0  0  0  0  0
  -20.9280  -29.8450   21.7240 H   0  0  0  0  0  0  0  0  0  0  0  0
  -18.0260  -28.1080   22.9020 C   0  0  0  0  0  0  0  0  0  0  0  0
  -20.5840  -28.3480   23.1760 C   0  0  0  0  0  3  0  0  0  0  0  0
  -20.6780  -26.9190   22.5920 C   0  0  0  0  0  2  0  0  0  0  0  0
  -19.5750  -26.6100   21.5750 C   0  0  0  0  0  2  0  0  0  0  0  0
  -18.1930  -26.7610   22.2190 C   0  0  0  0  0  2  0  0  0  0  0  0
  -19.1490  -28.8600   23.3380 C   0  0  0  0  0  0  0  0  0  0  0  0
  -18.9380  -30.1210   23.9360 C   0  0  0  0  0  3  0  0  0  0  0  0
  -17.6370  -30.6290   24.1040 C   0  0  0  0  0  3  0  0  0  0  0  0
  -16.5270  -29.8740   23.6870 C   0  0  0  0  0  3  0  0  0  0  0  0
  -16.7220  -28.6160   23.0910 C   0  0  0  0  0  3  0  0  0  0  0  0
  -25.8750  -32.5030   23.8650 C   0  0  0  0  0  3  0  0  0  0  0  0
  -25.5670  -33.9040   24.1850 N   0  0  0  0  0  0  0  0  0  0  0  0
  -25.9090  -34.9530   23.4230 C   0  0  0  0  0  0  0  0  0  0  0  0
  -26.5860  -34.8420   22.3980 O   0  0  0  0  0  0  0  0  0  0  0  0
  -24.9660  -34.0660   24.9800 H   0  0  0  0  0  0  0  0  0  0  0  0
  -24.1900  -36.7520   23.0450 C   0  0  0  0  0  1  0  0  0  0  0  0
  -25.4220  -36.3450   23.8700 C   0  0  0  0  0  3  0  0  0  0  0  0
  -27.5500  -37.2270   24.7200 C   0  0  0  0  0  1  0  0  0  0  0  0
  -26.4590  -37.3940   23.7640 N   0  0  0  0  0  0  0  0  0  0  0  0
  -26.0540  -38.3160   23.9020 H   0  0  0  0  0  0  0  0  0  0  0  0
  -26.3750  -31.7390   25.1530 C   0  0  1  0  0  0  0  0  0  0  0  0
  -25.2700  -31.5140   26.2110 C   0  0  0  0  0  1  0  0  0  0  0  0
  -26.9560  -30.3570   24.7770 C   0  0  0  0  0  1  0  0  0  0  0  0
  -27.5220  -32.5340   25.8220 C   0  0  0  0  0  1  0  0  0  0  0  0
  1  4  1  0
  2  1  2  0
  2  5  1  0
  4  6  1  0
  4  3  2  0
  5 45  1  0
  5  3  1  0
  7  8  1  0
  7  6  2  0
  9  8  1  0
 10 15  1  0
 11 12  1  0
 11 10  1  0
 13 12  1  0
 13 20  1  0
 13 14  1  0
 15  9  1  0
 15 14  1  0
 16  9  2  0
 17 18  2  0
 18 37  1  0
 19 18  1  0
 19 22  1  0
 20 17  1  0
 20 21  1  0
 21 19  2  0
 22 23  1  0
 23 24  2  0
 25 28  1  0
 25 24  1  0
 26 25  2  0
 27 26  1  0
 27 22  2  0
 28 29  1  0
 29 30  1  0
 30 31  2  0
 32 31  1  0
 32 36  1  0
 33 32  2  0
 34 29  2  0
 34 33  1  0
 35 34  1  0
 37 38  1  0
 38 41  1  0
 38 40  1  0
 39 37  2  0
 42 43  1  0
 42 17  1  0
 44 42  1  0
 46 47  1  0
 46 45  2  0
 48 59  2  0
 49 47  1  0
 49 54  1  0
 50 58  1  0
 50 60  1  0
 51 57  1  0
 51 53  1  0
 52 58  1  0
 53 54  2  0
 53 52  1  0
 55 49  2  0
 56 55  1  0
 56 51  2  0
 57 50  1  0
 58 48  1  0
 60 62  2  0
 61 60  1  0
 63 61  1  0
 64 73  2  0
 64 69  1  0
 65 61  1  0
 65 69  1  0
 66 65  1  0
 67 68  1  0
 67 66  1  0
 68 64  1  0
 69 70  2  0
 70 71  1  0
 72 71  2  0
 73 72  1  0
 74 48  1  0
 74 75  1  0
 74 84  1  0
 75 78  1  0
 76 80  1  0
 76 75  1  0
 77 76  2  0
 80 79  1  0
 82 80  1  0
 82 83  1  0
 82 81  1  0
 84 87  1  1
 84 85  1  0
 86 84  1  0
M  ISO  4   8 100   9 100  46 101  47 101
M  END
>  <TORSDO>  (94) 
F 21

>  <SCORE>  (94) 
-13.326

>  <name>  (94) 
93

>  <ligand_id>  (94) 
93

>  <original_smiles>  (94) 
[H]c1c([H])c([H])c2c(c1[H])C([H])([H])C([H])([H])C([H])([H])C2([H])N([H])C(=O)C1([H])N(C(=O)C([H])(N([H])C(=O)C([H])(N([H])C([H])([H])[H])C([H])([H])[H])C(C([H])([H])[H])(C([H])([H])[H])C([H])([H])[H])C([H])([H])c2c([H])c(OC([H])([H])C([H])([H])n3c([H])c([H])c(C([H])([H])C([H])([H])C([H])([H])C(=O)N4C([H])([H])C([H])([H])C([H])([H])C([H])(n5nc(-c6c([H])c([H])c(Oc7c([H])c([H])c(F)c([H])c7F)c([H])c6[H])c(C(=O)N([H])[H])c5N([H])[H])C4([H])[H])c3[H])c([H])c([H])c2C1([H])[H]

>  <smiles>  (94) 
[H]c1c([H])c([H])c2c(c1[H])C([H])([H])C([H])([H])C([H])([H])C2([H])N([H])C(=O)C1([H])N(C(=O)C([H])(N([H])C(=O)C([H])(N([H])C([H])([H])[H])C([H])([H])[H])C(C([H])([H])[H])(C([H])([H])[H])C([H])([H])[H])C([H])([H])c2c([H])c(OC([H])([H])C([H])([H])n3c([H])c([H])c(C([H])([H])C([H])([H])C([H])([H])C(=O)N4C([H])([H])C([H])([H])C([H])([H])C([H])(n5nc(-c6c([H])c([H])c(Oc7c([H])c([H])c(F)c([H])c7F)c([H])c6[H])c(C(=O)N([H])[H])c5N([H])[H])C4([H])[H])c3[H])c([H])c([H])c2C1([H])[H]

$$$$
94:0:0
     RDKit          3D

 92100  0  0  1  0  0  0  0  0999 V2000
  -28.0600  -20.0580   20.2890 C   0  0  0  0  0  3  0  0  0  0  0  0
  -29.9280  -20.0070   21.8370 C   0  0  0  0  0  3  0  0  0  0  0  0
  -28.2120  -18.6720   20.0680 C   0  0  0  0  0  3  0  0  0  0  0  0
  -30.0930  -18.6240   21.5990 C   0  0  0  0  0  3  0  0  0  0  0  0
  -28.9510  -20.7490   21.1370 C   0  0  0  0  0  0  0  0  0  0  0  0
  -29.2890  -17.9580   20.6480 C   0  0  0  0  0  0  0  0  0  0  0  0
  -28.9820  -22.2210   21.2200 C   0  0  0  0  0  3  0  0  0  0  0  0
  -28.6090  -23.0870   20.2500 C   0  0  0  0  0  3  0  0  0  0  0  0
  -28.7360  -24.5490   20.4420 C   0  0  0  0  0  0  0  0  0  0  0  0
  -29.0350  -25.0470   21.5340 O   0  0  0  0  0  0  0  0  0  0  0  0
  -28.5530  -25.4750   19.2260 C   0  0  0  0  0  2  0  0  0  0  0  0
  -28.3920  -26.8340   19.6560 O   0  0  0  0  0  0  0  0  0  0  0  0
  -24.4840  -31.7160   23.0190 C   0  0  0  0  0  0  0  0  0  0  0  0
  -27.1490  -27.4280   19.7370 C   0  0  0  0  0  0  0  0  0  0  0  0
  -23.2640  -30.3410   21.3650 C   0  0  0  0  0  3  0  0  0  0  0  0
  -24.7080  -28.8580   19.8780 C   0  0  0  0  0  0  0  0  0  0  0  0
  -25.7790  -30.7470   21.1230 C   0  0  0  0  0  2  0  0  0  0  0  0
  -25.8700  -29.3990   20.4380 C   0  0  0  0  0  0  0  0  0  0  0  0
  -27.0880  -28.6940   20.3590 C   0  0  0  0  0  3  0  0  0  0  0  0
  -25.9580  -26.8720   19.2120 C   0  0  0  0  0  3  0  0  0  0  0  0
  -24.7440  -27.5880   19.2730 C   0  0  0  0  0  3  0  0  0  0  0  0
  -23.4530  -29.6960   19.9660 C   0  0  0  0  0  2  0  0  0  0  0  0
  -24.5290  -30.9470   21.8950 N   0  0  0  0  0  0  0  0  0  0  0  0
  -23.4100  -31.9560   23.5900 O   0  0  0  0  0  0  0  0  0  0  0  0
  -22.6490  -29.2850   22.3100 C   0  0  0  0  0  0  0  0  0  0  0  0
  -21.3250  -29.0810   22.2040 N   0  0  0  0  0  0  0  0  0  0  0  0
  -23.3610  -28.6490   23.0920 O   0  0  0  0  0  0  0  0  0  0  0  0
  -20.8120  -29.6480   21.5430 H   0  0  0  0  0  0  0  0  0  0  0  0
  -17.9880  -27.8010   22.7230 C   0  0  0  0  0  0  0  0  0  0  0  0
  -20.5420  -28.1080   22.9640 C   0  0  0  0  0  3  0  0  0  0  0  0
  -20.6670  -26.6940   22.3520 C   0  0  0  0  0  2  0  0  0  0  0  0
  -19.5580  -26.3700   21.3460 C   0  0  0  0  0  2  0  0  0  0  0  0
  -18.1830  -26.4710   22.0130 C   0  0  0  0  0  2  0  0  0  0  0  0
  -19.0950  -28.5760   23.1550 C   0  0  0  0  0  0  0  0  0  0  0  0
  -18.8620  -29.8210   23.7790 C   0  0  0  0  0  3  0  0  0  0  0  0
  -17.5500  -30.2930   23.9710 C   0  0  0  0  0  3  0  0  0  0  0  0
  -16.4560  -29.5150   23.5570 C   0  0  0  0  0  3  0  0  0  0  0  0
  -16.6750  -28.2700   22.9400 C   0  0  0  0  0  3  0  0  0  0  0  0
  -25.7730  -32.3500   23.6290 C   0  0  0  0  0  3  0  0  0  0  0  0
  -25.4410  -33.7240   24.0280 N   0  0  0  0  0  0  0  0  0  0  0  0
  -25.7380  -34.8180   23.3110 C   0  0  0  0  0  0  0  0  0  0  0  0
  -26.3880  -34.7780   22.2650 O   0  0  0  0  0  0  0  0  0  0  0  0
  -24.8500  -33.8270   24.8380 H   0  0  0  0  0  0  0  0  0  0  0  0
  -23.9620  -36.5850   23.0700 C   0  0  0  0  0  1  0  0  0  0  0  0
  -25.2270  -36.1730   23.8410 C   0  0  0  0  0  3  0  0  0  0  0  0
  -27.3610  -37.0650   24.6670 C   0  0  0  0  0  1  0  0  0  0  0  0
  -26.2340  -37.2540   23.7560 N   0  0  0  0  0  0  0  0  0  0  0  0
  -25.8120  -38.1560   23.9580 H   0  0  0  0  0  0  0  0  0  0  0  0
  -26.3460  -31.5390   24.8570 C   0  0  1  0  0  0  0  0  0  0  0  0
  -25.2900  -31.2360   25.9460 C   0  0  0  0  0  1  0  0  0  0  0  0
  -26.9470  -30.1920   24.3930 C   0  0  0  0  0  1  0  0  0  0  0  0
  -27.5020  -32.3290   25.5150 C   0  0  0  0  0  1  0  0  0  0  0  0
  -30.2680  -15.6190   20.8350 C   0  0  0  0  0  3  0  0  0  0  0  0
  -29.6770  -16.6190   20.1270 C   0  0  0  0  0  0  0  0  0  0  0  0
  -30.8920  -14.4870   20.1480 C   0  0  0  0  0  0  0  0  0  0  0  0
  -30.4650  -12.3800   18.9450 C   0  0  0  0  0  2  0  0  0  0  0  0
  -29.4990  -12.6700   17.7820 C   0  0  0  0  0  2  0  0  0  0  0  0
  -28.0340  -12.5600   18.2530 C   0  0  0  0  0  2  0  0  0  0  0  0
  -27.7680  -13.3520   19.5630 C   0  0  0  0  0  3  0  0  0  0  0  0
  -28.8550  -13.0740   20.6240 C   0  0  0  0  0  2  0  0  0  0  0  0
  -30.1660  -13.3450   20.0170 N   0  0  0  0  0  0  0  0  0  0  0  0
  -31.9970  -14.6180   19.6100 O   0  0  0  0  0  0  0  0  0  0  0  0
  -25.4110  -13.9930   20.3690 C   0  0  0  0  0  0  0  0  0  0  0  0
  -24.3420  -13.2390   20.7740 C   0  0  0  0  0  0  0  0  0  0  0  0
  -24.7770  -11.8780   20.7120 C   0  0  0  0  0  0  0  0  0  0  0  0
  -26.4290  -13.0950   20.0890 N   0  0  0  0  0  0  0  0  0  0  0  0
  -26.0510  -11.8150   20.3480 N   0  0  0  0  0  0  0  0  0  0  0  0
  -24.0310  -10.6310   20.9210 C   0  0  0  0  0  0  0  0  0  0  0  0
  -24.4520   -9.6700   21.8660 C   0  0  0  0  0  3  0  0  0  0  0  0
  -23.7110   -8.4840   22.0610 C   0  0  0  0  0  3  0  0  0  0  0  0
  -22.5330   -8.2530   21.3120 C   0  0  0  0  0  0  0  0  0  0  0  0
  -22.1320   -9.2000   20.3540 C   0  0  0  0  0  3  0  0  0  0  0  0
  -22.8740  -10.3760   20.1580 C   0  0  0  0  0  3  0  0  0  0  0  0
  -21.7620   -7.1210   21.4170 O   0  0  0  0  0  0  0  0  0  0  0  0
  -21.6580   -6.4250   22.5950 C   0  0  0  0  0  0  0  0  0  0  0  0
  -21.1920   -7.0310   23.7810 C   0  0  0  0  0  3  0  0  0  0  0  0
  -21.0380   -6.2620   24.9520 C   0  0  0  0  0  3  0  0  0  0  0  0
  -21.3370   -4.8860   24.9350 C   0  0  0  0  0  0  0  0  0  0  0  0
  -21.7940   -4.2800   23.7520 C   0  0  0  0  0  3  0  0  0  0  0  0
  -21.9490   -5.0460   22.5850 C   0  0  0  0  0  0  0  0  0  0  0  0
  -22.3710   -4.4510   21.4420 F   0  0  0  0  0  0  0  0  0  0  0  0
  -21.1810   -4.1450   26.0560 F   0  0  0  0  0  0  0  0  0  0  0  0
  -22.9670  -13.7380   21.1080 C   0  0  0  0  0  0  0  0  0  0  0  0
  -22.2630  -13.0580   22.0060 N   0  0  0  0  0  0  0  0  0  0  0  0
  -22.5240  -14.7710   20.6070 O   0  0  0  0  0  0  0  0  0  0  0  0
  -22.6310  -12.2280   22.4460 H   0  0  0  0  0  0  0  0  0  0  0  0
  -21.3350  -13.3720   22.2560 H   0  0  0  0  0  0  0  0  0  0  0  0
  -25.5980  -15.3630   20.2010 N   0  0  0  0  0  0  0  0  0  0  0  0
  -24.8580  -16.0370   20.3660 H   0  0  0  0  0  0  0  0  0  0  0  0
  -26.4660  -15.7890   19.9010 H   0  0  0  0  0  0  0  0  0  0  0  0
  -29.5170  -16.5290   18.7970 O   0  0  0  0  0  0  0  0  0  0  0  0
  -29.2560  -17.3870   18.4880 H   0  0  0  0  0  0  0  0  0  0  0  0
  1  5  1  0
  3  1  2  0
  3  6  1  0
  4  2  1  0
  5  7  1  0
  5  2  2  0
  6  4  2  0
  8  9  1  0
  8  7  2  0
  9 10  2  0
 11 12  1  0
 11  9  1  0
 12 14  1  0
 13 24  2  0
 14 19  1  0
 15 23  1  0
 15 25  1  0
 16 22  1  0
 16 18  1  0
 17 23  1  0
 18 17  1  0
 19 18  2  0
 20 21  1  0
 20 14  2  0
 21 16  2  0
 22 15  1  0
 23 13  1  0
 25 27  2  0
 26 25  1  0
 28 26  1  0
 29 38  2  0
 29 34  1  0
 30 26  1  0
 30 34  1  0
 31 30  1  0
 32 33  1  0
 32 31  1  0
 33 29  1  0
 34 35  2  0
 35 36  1  0
 37 36  2  0
 38 37  1  0
 39 13  1  0
 39 40  1  0
 39 49  1  0
 40 43  1  0
 41 45  1  0
 41 40  1  0
 42 41  2  0
 45 44  1  0
 47 45  1  0
 47 48  1  0
 47 46  1  0
 49 52  1  1
 49 50  1  0
 51 49  1  0
 54  6  1  0
 54 53  2  0
 55 53  1  0
 56 61  1  0
 57 58  1  0
 57 56  1  0
 59 58  1  0
 59 66  1  0
 59 60  1  0
 61 55  1  0
 61 60  1  0
 62 55  2  0
 63 64  2  0
 64 83  1  0
 65 64  1  0
 65 68  1  0
 66 67  1  0
 66 63  1  0
 67 65  2  0
 68 69  1  0
 69 70  2  0
 71 74  1  0
 71 70  1  0
 72 71  2  0
 73 72  1  0
 73 68  2  0
 74 75  1  0
 75 76  1  0
 76 77  2  0
 78 77  1  0
 78 82  1  0
 79 78  2  0
 80 75  2  0
 80 79  1  0
 81 80  1  0
 83 84  1  0
 84 87  1  0
 84 86  1  0
 85 83  2  0
 88 89  1  0
 88 63  1  0
 90 88  1  0
 91 54  1  0
 92 91  1  0
M  ISO  4  11 101  12 101  53 100  55 100
M  END
>  <TORSDO>  (95) 
F 21

>  <SCORE>  (95) 
-13.163

>  <name>  (95) 
94

>  <ligand_id>  (95) 
94

>  <original_smiles>  (95) 
[H]OC(=C([H])C(=O)N1C([H])([H])C([H])([H])C([H])([H])C([H])(n2nc(-c3c([H])c([H])c(Oc4c([H])c([H])c(F)c([H])c4F)c([H])c3[H])c(C(=O)N([H])[H])c2N([H])[H])C1([H])[H])c1c([H])c([H])c(C([H])=C([H])C(=O)C([H])([H])Oc2c([H])c([H])c3c(c2[H])C([H])([H])N(C(=O)C([H])(N([H])C(=O)C([H])(N([H])C([H])([H])[H])C([H])([H])[H])C(C([H])([H])[H])(C([H])([H])[H])C([H])([H])[H])C([H])(C(=O)N([H])C2([H])c4c([H])c([H])c([H])c([H])c4C([H])([H])C([H])([H])C2([H])[H])C3([H])[H])c([H])c1[H]

>  <smiles>  (95) 
[H]OC(=C([H])C(=O)N1C([H])([H])C([H])([H])C([H])([H])C([H])(n2nc(-c3c([H])c([H])c(Oc4c([H])c([H])c(F)c([H])c4F)c([H])c3[H])c(C(=O)N([H])[H])c2N([H])[H])C1([H])[H])c1c([H])c([H])c(C([H])=C([H])C(=O)C([H])([H])Oc2c([H])c([H])c3c(c2[H])C([H])([H])N(C(=O)C([H])(N([H])C(=O)C([H])(N([H])C([H])([H])[H])C([H])([H])[H])C(C([H])([H])[H])(C([H])([H])[H])C([H])([H])[H])C([H])(C(=O)N([H])C2([H])c4c([H])c([H])c([H])c([H])c4C([H])([H])C([H])([H])C2([H])[H])C3([H])[H])c([H])c1[H]

$$$$
95:0:0
     RDKit          3D

 98107  0  0  1  0  0  0  0  0999 V2000
  -30.0900  -21.5590   16.5370 C   0  0  0  0  0  2  0  0  0  0  0  0
  -28.5810  -25.0250   17.1390 C   0  0  0  0  0  3  0  0  0  0  0  0
  -28.8010  -23.7570   16.5730 C   0  0  0  0  0  3  0  0  0  0  0  0
  -30.2590  -24.4750   18.7930 C   0  0  0  0  0  3  0  0  0  0  0  0
  -29.3290  -25.3930   18.2720 C   0  0  0  0  0  0  0  0  0  0  0  0
  -29.7590  -22.9080   17.1550 C   0  0  0  0  0  0  0  0  0  0  0  0
  -30.4740  -23.2550   18.2490 N   0  0  0  0  0  0  0  0  0  0  0  0
  -29.1700  -26.7630   18.8960 C   0  0  0  0  0  2  0  0  0  0  0  0
  -28.4850  -26.7000   20.1400 O   0  0  0  0  0  0  0  0  0  0  0  0
  -24.6640  -31.8190   23.2400 C   0  0  0  0  0  0  0  0  0  0  0  0
  -27.3100  -27.4040   20.1640 C   0  0  0  0  0  0  0  0  0  0  0  0
  -23.4560  -30.4200   21.5930 C   0  0  0  0  0  3  0  0  0  0  0  0
  -24.9110  -28.8760   20.1760 C   0  0  0  0  0  0  0  0  0  0  0  0
  -25.9770  -30.7800   21.4010 C   0  0  0  0  0  2  0  0  0  0  0  0
  -26.0620  -29.4070   20.7730 C   0  0  0  0  0  0  0  0  0  0  0  0
  -27.2640  -28.6710   20.7780 C   0  0  0  0  0  3  0  0  0  0  0  0
  -26.1480  -26.8690   19.5730 C   0  0  0  0  0  3  0  0  0  0  0  0
  -24.9440  -27.6030   19.5790 C   0  0  0  0  0  3  0  0  0  0  0  0
  -23.6680  -29.7370   20.2140 C   0  0  0  0  0  2  0  0  0  0  0  0
  -24.7160  -31.0200   22.1380 N   0  0  0  0  0  0  0  0  0  0  0  0
  -23.5820  -32.0950   23.7780 O   0  0  0  0  0  0  0  0  0  0  0  0
  -22.8000  -29.4020   22.5520 C   0  0  0  0  0  0  0  0  0  0  0  0
  -21.4730  -29.2370   22.4310 N   0  0  0  0  0  0  0  0  0  0  0  0
  -23.4810  -28.7620   23.3580 O   0  0  0  0  0  0  0  0  0  0  0  0
  -20.9860  -29.8060   21.7530 H   0  0  0  0  0  0  0  0  0  0  0  0
  -18.0850  -28.0940   22.9420 C   0  0  0  0  0  0  0  0  0  0  0  0
  -20.6480  -28.3060   23.2000 C   0  0  0  0  0  3  0  0  0  0  0  0
  -20.7240  -26.8790   22.6110 C   0  0  0  0  0  2  0  0  0  0  0  0
  -19.6100  -26.5830   21.6010 C   0  0  0  0  0  2  0  0  0  0  0  0
  -18.2350  -26.7470   22.2550 C   0  0  0  0  0  2  0  0  0  0  0  0
  -19.2200  -28.8330   23.3700 C   0  0  0  0  0  0  0  0  0  0  0  0
  -19.0270  -30.0960   23.9710 C   0  0  0  0  0  3  0  0  0  0  0  0
  -17.7320  -30.6200   24.1470 C   0  0  0  0  0  3  0  0  0  0  0  0
  -16.6120  -29.8760   23.7350 C   0  0  0  0  0  3  0  0  0  0  0  0
  -16.7900  -28.6160   23.1390 C   0  0  0  0  0  3  0  0  0  0  0  0
  -25.9520  -32.4430   23.8630 C   0  0  0  0  0  3  0  0  0  0  0  0
  -25.6460  -33.8400   24.2010 N   0  0  0  0  0  0  0  0  0  0  0  0
  -25.9840  -34.8950   23.4480 C   0  0  0  0  0  0  0  0  0  0  0  0
  -26.6590  -34.7960   22.4180 O   0  0  0  0  0  0  0  0  0  0  0  0
  -25.0470  -33.9910   24.9990 H   0  0  0  0  0  0  0  0  0  0  0  0
  -24.2660  -36.6960   23.0900 C   0  0  0  0  0  1  0  0  0  0  0  0
  -25.4980  -36.2820   23.9110 C   0  0  0  0  0  3  0  0  0  0  0  0
  -27.6280  -37.1510   24.7690 C   0  0  0  0  0  1  0  0  0  0  0  0
  -26.5350  -37.3310   23.8160 N   0  0  0  0  0  0  0  0  0  0  0  0
  -26.1320  -38.2520   23.9670 H   0  0  0  0  0  0  0  0  0  0  0  0
  -26.4720  -31.6620   25.1300 C   0  0  1  0  0  0  0  0  0  0  0  0
  -25.3820  -31.4160   26.1990 C   0  0  0  0  0  1  0  0  0  0  0  0
  -27.0520  -30.2870   24.7210 C   0  0  0  0  0  1  0  0  0  0  0  0
  -27.6240  -32.4500   25.7960 C   0  0  0  0  0  1  0  0  0  0  0  0
  -29.7710  -20.3440   17.4310 C   0  0  0  0  0  2  0  0  0  0  0  0
  -30.7010  -20.2200   18.5810 N   0  0  0  0  0  4  0  0  0  0  0  0
  -31.6080  -20.5110   18.2550 H   0  0  0  0  0  0  0  0  0  0  0  0
  -30.4330  -20.8790   19.2970 H   0  0  0  0  0  0  0  0  0  0  0  0
  -32.0680  -18.7720   20.0730 C   0  0  0  0  0  2  0  0  0  0  0  0
  -29.5990  -18.3620   19.8850 C   0  0  0  0  0  2  0  0  0  0  0  0
  -32.2910  -17.3290   20.5560 C   0  0  0  0  0  2  0  0  0  0  0  0
  -29.7830  -16.9070   20.3590 C   0  0  0  0  0  2  0  0  0  0  0  0
  -30.8530  -18.8550   19.1340 C   0  0  0  0  0  3  0  0  0  0  0  0
  -31.0500  -16.6770   21.2390 C   0  0  2  0  0  0  0  0  0  0  0  0
  -30.8580  -17.3440   22.6260 C   0  0  0  0  0  2  0  0  0  0  0  0
  -29.8110  -16.8330   23.2780 F   0  0  0  0  0  0  0  0  0  0  0  0
  -31.2950  -15.1500   21.4990 C   0  0  0  0  0  2  0  0  0  0  0  0
  -31.4720  -14.2330   20.2640 C   0  0  0  0  0  0  0  0  0  0  0  0
  -30.8560  -12.2920   18.8670 C   0  0  0  0  0  2  0  0  0  0  0  0
  -29.9020  -12.6780   17.7230 C   0  0  0  0  0  2  0  0  0  0  0  0
  -28.4380  -12.6220   18.1980 C   0  0  0  0  0  2  0  0  0  0  0  0
  -28.2180  -13.3830   19.5310 C   0  0  0  0  0  3  0  0  0  0  0  0
  -29.2830  -12.9860   20.5780 C   0  0  0  0  0  2  0  0  0  0  0  0
  -30.6200  -13.2060   19.9970 N   0  0  0  0  0  0  0  0  0  0  0  0
  -32.4600  -14.4400   19.5530 O   0  0  0  0  0  0  0  0  0  0  0  0
  -25.8710  -14.1200   20.2900 C   0  0  0  0  0  0  0  0  0  0  0  0
  -24.7710  -13.4090   20.6860 C   0  0  0  0  0  0  0  0  0  0  0  0
  -25.1570  -12.0340   20.6480 C   0  0  0  0  0  0  0  0  0  0  0  0
  -26.8620  -13.1840   20.0390 N   0  0  0  0  0  0  0  0  0  0  0  0
  -26.4340  -11.9230   20.3080 N   0  0  0  0  0  0  0  0  0  0  0  0
  -24.3660  -10.8150   20.8590 C   0  0  0  0  0  0  0  0  0  0  0  0
  -24.7460   -9.8450   21.8130 C   0  0  0  0  0  3  0  0  0  0  0  0
  -23.9580   -8.6900   22.0120 C   0  0  0  0  0  3  0  0  0  0  0  0
  -22.7780   -8.4970   21.2550 C   0  0  0  0  0  0  0  0  0  0  0  0
  -22.4180   -9.4550   20.2910 C   0  0  0  0  0  3  0  0  0  0  0  0
  -23.2040  -10.6010   20.0910 C   0  0  0  0  0  3  0  0  0  0  0  0
  -21.9660   -7.3940   21.3610 O   0  0  0  0  0  0  0  0  0  0  0  0
  -21.8340   -6.7080   22.5430 C   0  0  0  0  0  0  0  0  0  0  0  0
  -21.4190   -7.3480   23.7320 C   0  0  0  0  0  3  0  0  0  0  0  0
  -21.2270   -6.5920   24.9070 C   0  0  0  0  0  3  0  0  0  0  0  0
  -21.4410   -5.2000   24.8930 C   0  0  0  0  0  0  0  0  0  0  0  0
  -21.8500   -4.5630   23.7090 C   0  0  0  0  0  3  0  0  0  0  0  0
  -22.0430   -5.3150   22.5360 C   0  0  0  0  0  0  0  0  0  0  0  0
  -22.4150   -4.6920   21.3920 F   0  0  0  0  0  0  0  0  0  0  0  0
  -21.2510   -4.4730   26.0180 F   0  0  0  0  0  0  0  0  0  0  0  0
  -23.4100  -13.9640   20.9910 C   0  0  0  0  0  0  0  0  0  0  0  0
  -22.6730  -13.3240   21.8940 N   0  0  0  0  0  0  0  0  0  0  0  0
  -23.0070  -14.9990   20.4620 O   0  0  0  0  0  0  0  0  0  0  0  0
  -23.0080  -12.4870   22.3460 H   0  0  0  0  0  0  0  0  0  0  0  0
  -21.7600  -13.6820   22.1390 H   0  0  0  0  0  0  0  0  0  0  0  0
  -26.1020  -15.4790   20.1040 N   0  0  0  0  0  0  0  0  0  0  0  0
  -25.3730  -16.1700   20.2370 H   0  0  0  0  0  0  0  0  0  0  0  0
  -26.9750  -15.8780   19.7840 H   0  0  0  0  0  0  0  0  0  0  0  0
  1  6  1  0
  1 50  1  0
  2  5  1  0
  3  2  2  0
  3  6  1  0
  5  4  2  0
  5  8  1  0
  6  7  2  0
  7  4  1  0
  8  9  1  0
  9 11  1  0
 10 21  2  0
 11 16  1  0
 12 20  1  0
 12 22  1  0
 13 19  1  0
 13 15  1  0
 14 20  1  0
 15 16  2  0
 15 14  1  0
 17 18  1  0
 17 11  2  0
 18 13  2  0
 19 12  1  0
 20 10  1  0
 22 24  2  0
 23 22  1  0
 25 23  1  0
 26 35  2  0
 26 31  1  0
 27 23  1  0
 27 31  1  0
 28 27  1  0
 29 30  1  0
 29 28  1  0
 30 26  1  0
 31 32  2  0
 32 33  1  0
 34 33  2  0
 35 34  1  0
 36 10  1  0
 36 37  1  0
 36 46  1  0
 37 40  1  0
 38 42  1  0
 38 37  1  0
 39 38  2  0
 42 41  1  0
 44 42  1  0
 44 45  1  0
 44 43  1  0
 46 49  1  1
 46 47  1  0
 48 46  1  0
 50 51  1  0
 51 53  1  0
 52 51  1  0
 54 56  1  0
 55 57  1  0
 56 59  1  0
 57 59  1  0
 58 51  1  0
 58 55  1  0
 58 54  1  0
 59 62  1  1
 59 60  1  0
 60 61  1  0
 63 62  1  0
 64 69  1  0
 65 66  1  0
 65 64  1  0
 67 66  1  0
 67 74  1  0
 67 68  1  0
 69 63  1  0
 69 68  1  0
 70 63  2  0
 71 72  2  0
 72 91  1  0
 73 72  1  0
 73 76  1  0
 74 71  1  0
 74 75  1  0
 75 73  2  0
 76 77  1  0
 77 78  2  0
 79 82  1  0
 79 78  1  0
 80 79  2  0
 81 80  1  0
 81 76  2  0
 82 83  1  0
 83 84  1  0
 84 85  2  0
 86 85  1  0
 86 90  1  0
 87 86  2  0
 88 83  2  0
 88 87  1  0
 89 88  1  0
 91 92  1  0
 92 95  1  0
 92 94  1  0
 93 91  2  0
 96 97  1  0
 96 71  1  0
 98 96  1  0
M  ISO  4   8 101   9 101  62 100  63 100
M  END
>  <TORSDO>  (96) 
F 23

>  <SCORE>  (96) 
-11.714

>  <name>  (96) 
95

>  <ligand_id>  (96) 
95

>  <original_smiles>  (96) 
[H]c1nc(C([H])([H])C([H])([H])[N+]([H])([H])C2([H])C([H])([H])C([H])([H])C(C([H])([H])F)(C([H])([H])C(=O)N3C([H])([H])C([H])([H])C([H])([H])C([H])(n4nc(-c5c([H])c([H])c(Oc6c([H])c([H])c(F)c([H])c6F)c([H])c5[H])c(C(=O)N([H])[H])c4N([H])[H])C3([H])[H])C([H])([H])C2([H])[H])c([H])c([H])c1C([H])([H])Oc1c([H])c([H])c2c(c1[H])C([H])([H])N(C(=O)C([H])(N([H])C(=O)C([H])(N([H])C([H])([H])[H])C([H])([H])[H])C(C([H])([H])[H])(C([H])([H])[H])C([H])([H])[H])C([H])(C(=O)N([H])C1([H])c3c([H])c([H])c([H])c([H])c3C([H])([H])C([H])([H])C1([H])[H])C2([H])[H]

>  <smiles>  (96) 
[H]c1nc(C([H])([H])C([H])([H])[N+]([H])([H])C2([H])C([H])([H])C([H])([H])C(C([H])([H])F)(C([H])([H])C(=O)N3C([H])([H])C([H])([H])C([H])([H])C([H])(n4nc(-c5c([H])c([H])c(Oc6c([H])c([H])c(F)c([H])c6F)c([H])c5[H])c(C(=O)N([H])[H])c4N([H])[H])C3([H])[H])C([H])([H])C2([H])[H])c([H])c([H])c1C([H])([H])Oc1c([H])c([H])c2c(c1[H])C([H])([H])N(C(=O)C([H])(N([H])C(=O)C([H])(N([H])C([H])([H])[H])C([H])([H])[H])C(C([H])([H])[H])(C([H])([H])[H])C([H])([H])[H])C([H])(C(=O)N([H])C1([H])c3c([H])c([H])c([H])c([H])c3C([H])([H])C([H])([H])C1([H])[H])C2([H])[H]

$$$$
96:0:0
     RDKit          3D

 92100  0  0  1  0  0  0  0  0999 V2000
  -30.2810  -22.0030   19.4550 C   0  0  0  0  0  0  0  0  0  0  0  0
  -29.5560  -23.1240   19.6150 N   0  0  0  0  0  0  0  0  0  0  0  0
  -31.4040  -22.0060   18.9440 O   0  0  0  0  0  0  0  0  0  0  0  0
  -28.6390  -22.9960   20.0180 H   0  0  0  0  0  0  0  0  0  0  0  0
  -28.4670  -20.7480   20.7160 C   0  0  0  0  0  3  0  0  0  0  0  0
  -27.8530  -19.5570   21.1310 C   0  0  0  0  0  3  0  0  0  0  0  0
  -30.1470  -19.4420   19.5460 C   0  0  0  0  0  3  0  0  0  0  0  0
  -29.6220  -20.7140   19.9040 C   0  0  0  0  0  0  0  0  0  0  0  0
  -29.5260  -18.2160   19.9300 C   0  0  0  0  0  0  0  0  0  0  0  0
  -28.3550  -18.2970   20.7410 C   0  0  0  0  0  0  0  0  0  0  0  0
  -27.5640  -17.0850   21.1960 C   0  0  0  0  0  1  0  0  0  0  0  0
  -30.1680  -16.9500   19.4450 C   0  0  0  0  0  3  0  0  0  0  0  0
  -30.3980  -15.7650   20.0740 C   0  0  0  0  0  3  0  0  0  0  0  0
  -31.0290  -14.6540   19.3530 C   0  0  0  0  0  0  0  0  0  0  0  0
  -30.6820  -12.3870   18.4270 C   0  0  0  0  0  2  0  0  0  0  0  0
  -29.5690  -12.4570   17.3620 C   0  0  0  0  0  2  0  0  0  0  0  0
  -28.1890  -12.2580   18.0180 C   0  0  0  0  0  2  0  0  0  0  0  0
  -27.9870  -13.1670   19.2600 C   0  0  0  0  0  3  0  0  0  0  0  0
  -29.2050  -13.1090   20.2090 C   0  0  0  0  0  2  0  0  0  0  0  0
  -30.4140  -13.4350   19.4310 N   0  0  0  0  0  0  0  0  0  0  0  0
  -32.0190  -14.8310   18.6380 O   0  0  0  0  0  0  0  0  0  0  0  0
  -25.8390  -13.7060   20.5710 C   0  0  0  0  0  0  0  0  0  0  0  0
  -24.8120  -12.9160   21.0110 C   0  0  0  0  0  0  0  0  0  0  0  0
  -25.1480  -11.5810   20.6280 C   0  0  0  0  0  0  0  0  0  0  0  0
  -26.7410  -12.8510   19.9570 N   0  0  0  0  0  0  0  0  0  0  0  0
  -26.3390  -11.5560   20.0420 N   0  0  0  0  0  0  0  0  0  0  0  0
  -24.3770  -10.3360   20.7350 C   0  0  0  0  0  0  0  0  0  0  0  0
  -24.7960   -9.2800   21.5750 C   0  0  0  0  0  3  0  0  0  0  0  0
  -24.0290   -8.0990   21.6750 C   0  0  0  0  0  3  0  0  0  0  0  0
  -22.8300   -7.9660   20.9340 C   0  0  0  0  0  0  0  0  0  0  0  0
  -22.4320   -9.0100   20.0810 C   0  0  0  0  0  3  0  0  0  0  0  0
  -23.1980  -10.1840   19.9800 C   0  0  0  0  0  3  0  0  0  0  0  0
  -22.0370   -6.8430   20.9470 O   0  0  0  0  0  0  0  0  0  0  0  0
  -21.8010   -6.1400   22.1010 C   0  0  0  0  0  0  0  0  0  0  0  0
  -21.2290   -6.7490   23.2400 C   0  0  0  0  0  3  0  0  0  0  0  0
  -20.9370   -5.9750   24.3810 C   0  0  0  0  0  3  0  0  0  0  0  0
  -21.2090   -4.5950   24.3830 C   0  0  0  0  0  0  0  0  0  0  0  0
  -21.7730   -3.9850   23.2500 C   0  0  0  0  0  3  0  0  0  0  0  0
  -22.0650   -4.7550   22.1100 C   0  0  0  0  0  0  0  0  0  0  0  0
  -22.5880   -4.1590   21.0120 F   0  0  0  0  0  0  0  0  0  0  0  0
  -20.9240   -3.8490   25.4770 F   0  0  0  0  0  0  0  0  0  0  0  0
  -23.5430  -13.3810   21.6680 C   0  0  0  0  0  0  0  0  0  0  0  0
  -22.9720  -12.5590   22.5420 N   0  0  0  0  0  0  0  0  0  0  0  0
  -23.0790  -14.4980   21.4450 O   0  0  0  0  0  0  0  0  0  0  0  0
  -23.3660  -11.6500   22.7350 H   0  0  0  0  0  0  0  0  0  0  0  0
  -22.1310  -12.8430   23.0250 H   0  0  0  0  0  0  0  0  0  0  0  0
  -26.0690  -15.0770   20.6270 N   0  0  0  0  0  0  0  0  0  0  0  0
  -25.4050  -15.7130   21.0520 H   0  0  0  0  0  0  0  0  0  0  0  0
  -26.8690  -15.5510   20.2270 H   0  0  0  0  0  0  0  0  0  0  0  0
  -29.9280  -24.5060   19.2800 C   0  0  0  0  0  2  0  0  0  0  0  0
  -28.9910  -25.5090   20.0050 C   0  0  0  0  0  2  0  0  0  0  0  0
  -28.9970  -26.8410   19.4480 O   0  0  0  0  0  0  0  0  0  0  0  0
  -25.0590  -31.6930   22.9310 C   0  0  0  0  0  0  0  0  0  0  0  0
  -27.8050  -27.5390   19.5310 C   0  0  0  0  0  0  0  0  0  0  0  0
  -23.8750  -30.3510   21.2240 C   0  0  0  0  0  3  0  0  0  0  0  0
  -25.3570  -28.9570   19.6840 C   0  0  0  0  0  0  0  0  0  0  0  0
  -26.3830  -30.8120   21.0070 C   0  0  0  0  0  2  0  0  0  0  0  0
  -26.5090  -29.4850   20.2830 C   0  0  0  0  0  0  0  0  0  0  0  0
  -27.7380  -28.7840   20.2030 C   0  0  0  0  0  3  0  0  0  0  0  0
  -26.6360  -27.0380   18.9160 C   0  0  0  0  0  3  0  0  0  0  0  0
  -25.4150  -27.7330   18.9970 C   0  0  0  0  0  3  0  0  0  0  0  0
  -24.0840  -29.7630   19.8030 C   0  0  0  0  0  2  0  0  0  0  0  0
  -25.1250  -30.9630   21.7790 N   0  0  0  0  0  0  0  0  0  0  0  0
  -23.9780  -31.8930   23.5020 O   0  0  0  0  0  0  0  0  0  0  0  0
  -23.2780  -29.2500   22.1300 C   0  0  0  0  0  0  0  0  0  0  0  0
  -21.9520  -29.0510   22.0340 N   0  0  0  0  0  0  0  0  0  0  0  0
  -24.0010  -28.5810   22.8740 O   0  0  0  0  0  0  0  0  0  0  0  0
  -21.4310  -29.6460   21.4050 H   0  0  0  0  0  0  0  0  0  0  0  0
  -18.6090  -27.8190   22.6300 C   0  0  0  0  0  0  0  0  0  0  0  0
  -21.1790  -28.0440   22.7590 C   0  0  0  0  0  3  0  0  0  0  0  0
  -21.2350  -26.6780   22.0380 C   0  0  0  0  0  2  0  0  0  0  0  0
  -20.0660  -26.4620   21.0710 C   0  0  0  0  0  2  0  0  0  0  0  0
  -18.7320  -26.5430   21.8150 C   0  0  0  0  0  2  0  0  0  0  0  0
  -19.7590  -28.5320   23.0610 C   0  0  0  0  0  0  0  0  0  0  0  0
  -19.5900  -29.7300   23.7880 C   0  0  0  0  0  3  0  0  0  0  0  0
  -18.3020  -30.2160   24.0860 C   0  0  0  0  0  3  0  0  0  0  0  0
  -17.1680  -29.4980   23.6710 C   0  0  0  0  0  3  0  0  0  0  0  0
  -17.3220  -28.3000   22.9500 C   0  0  0  0  0  3  0  0  0  0  0  0
  -26.3320  -32.3310   23.5690 C   0  0  0  0  0  3  0  0  0  0  0  0
  -26.9650  -31.4460   24.7120 C   0  0  1  0  0  0  0  0  0  0  0  0
  -25.9410  -30.9800   25.7730 C   0  0  0  0  0  1  0  0  0  0  0  0
  -27.6370  -30.1880   24.1160 C   0  0  0  0  0  1  0  0  0  0  0  0
  -28.0760  -32.2400   25.4370 C   0  0  0  0  0  1  0  0  0  0  0  0
  -25.9540  -33.6540   24.0860 N   0  0  0  0  0  0  0  0  0  0  0  0
  -26.1480  -34.8080   23.4350 C   0  0  0  0  0  0  0  0  0  0  0  0
  -26.7390  -34.8760   22.3540 O   0  0  0  0  0  0  0  0  0  0  0  0
  -25.4180  -33.6670   24.9420 H   0  0  0  0  0  0  0  0  0  0  0  0
  -24.2650  -36.4750   23.4300 C   0  0  0  0  0  1  0  0  0  0  0  0
  -25.6000  -36.0920   24.0880 C   0  0  0  0  0  3  0  0  0  0  0  0
  -27.7240  -37.0610   24.8500 C   0  0  0  0  0  1  0  0  0  0  0  0
  -26.5370  -37.2340   24.0160 N   0  0  0  0  0  0  0  0  0  0  0  0
  -26.0770  -38.0960   24.2960 H   0  0  0  0  0  0  0  0  0  0  0  0
  1  2  1  0
  1  8  1  0
  2  4  1  0
  3  1  2  0
  5  6  1  0
  7  8  1  0
  7  9  2  0
  8  5  2  0
  9 10  1  0
 10  6  2  0
 10 11  1  0
 12  9  1  0
 12 13  2  0
 14 20  1  0
 14 13  1  0
 15 20  1  0
 16 17  1  0
 16 15  1  0
 18 17  1  0
 18 25  1  0
 18 19  1  0
 20 19  1  0
 21 14  2  0
 22 47  1  0
 22 23  2  0
 23 42  1  0
 24 27  1  0
 24 23  1  0
 25 26  1  0
 25 22  1  0
 26 24  2  0
 27 28  1  0
 28 29  2  0
 30 33  1  0
 30 29  1  0
 31 30  2  0
 32 31  1  0
 32 27  2  0
 33 34  1  0
 34 39  2  0
 34 35  1  0
 35 36  2  0
 36 37  1  0
 37 41  1  0
 38 37  2  0
 39 38  1  0
 40 39  1  0
 42 43  1  0
 43 45  1  0
 43 46  1  0
 44 42  2  0
 47 48  1  0
 49 47  1  0
 50  2  1  0
 50 51  1  0
 52 54  1  0
 52 51  1  0
 53 64  2  0
 54 59  1  0
 55 63  1  0
 55 65  1  0
 56 62  1  0
 56 58  1  0
 57 63  1  0
 58 57  1  0
 59 58  2  0
 60 61  1  0
 60 54  2  0
 61 56  2  0
 62 55  1  0
 63 53  1  0
 65 67  2  0
 66 65  1  0
 68 66  1  0
 69 78  2  0
 69 74  1  0
 70 66  1  0
 70 74  1  0
 71 70  1  0
 72 73  1  0
 72 71  1  0
 73 69  1  0
 74 75  2  0
 75 76  1  0
 77 76  2  0
 78 77  1  0
 79 53  1  0
 79 84  1  0
 79 80  1  0
 80 83  1  1
 80 81  1  0
 82 80  1  0
 84 87  1  0
 85 84  1  0
 85 89  1  0
 86 85  2  0
 89 88  1  0
 91 89  1  0
 91 92  1  0
 91 90  1  0
M  ISO  4  13 100  14 100  51 101  52 101
M  END
>  <TORSDO>  (97) 
F 20

>  <SCORE>  (97) 
-7.552

>  <name>  (97) 
96

>  <ligand_id>  (97) 
96

>  <original_smiles>  (97) 
[H]C(C(=O)N1C([H])([H])C([H])([H])C([H])([H])C([H])(n2nc(-c3c([H])c([H])c(Oc4c([H])c([H])c(F)c([H])c4F)c([H])c3[H])c(C(=O)N([H])[H])c2N([H])[H])C1([H])[H])=C([H])c1c([H])c(C(=O)N([H])C([H])([H])C([H])([H])Oc2c([H])c([H])c3c(c2[H])C([H])([H])N(C(=O)C([H])(N([H])C(=O)C([H])(N([H])C([H])([H])[H])C([H])([H])[H])C(C([H])([H])[H])(C([H])([H])[H])C([H])([H])[H])C([H])(C(=O)N([H])C2([H])c4c([H])c([H])c([H])c([H])c4C([H])([H])C([H])([H])C2([H])[H])C3([H])[H])c([H])c([H])c1C([H])([H])[H]

>  <smiles>  (97) 
[H]C(C(=O)N1C([H])([H])C([H])([H])C([H])([H])C([H])(n2nc(-c3c([H])c([H])c(Oc4c([H])c([H])c(F)c([H])c4F)c([H])c3[H])c(C(=O)N([H])[H])c2N([H])[H])C1([H])[H])=C([H])c1c([H])c(C(=O)N([H])C([H])([H])C([H])([H])Oc2c([H])c([H])c3c(c2[H])C([H])([H])N(C(=O)C([H])(N([H])C(=O)C([H])(N([H])C([H])([H])[H])C([H])([H])[H])C(C([H])([H])[H])(C([H])([H])[H])C([H])([H])[H])C([H])(C(=O)N([H])C2([H])c4c([H])c([H])c([H])c([H])c4C([H])([H])C([H])([H])C2([H])[H])C3([H])[H])c([H])c([H])c1C([H])([H])[H]

$$$$
97:0:0
     RDKit          3D

 96104  0  0  1  0  0  0  0  0999 V2000
  -28.5660  -21.7780   20.1500 C   0  0  0  0  0  3  0  0  0  0  0  0
  -27.9190  -21.0630   17.9200 C   0  0  0  0  0  3  0  0  0  0  0  0
  -28.4850  -20.4420   20.5990 C   0  0  0  0  0  3  0  0  0  0  0  0
  -27.8150  -19.7320   18.3730 C   0  0  0  0  0  3  0  0  0  0  0  0
  -28.2870  -22.1050   18.8020 C   0  0  0  0  0  0  0  0  0  0  0  0
  -28.0980  -19.4070   19.7200 C   0  0  0  0  0  0  0  0  0  0  0  0
  -28.3060  -23.5300   18.3000 C   0  0  0  0  0  0  0  0  0  0  0  0
  -29.1630  -24.3800   18.8810 N   0  0  0  0  0  0  0  0  0  0  0  0
  -27.5830  -23.8650   17.3590 O   0  0  0  0  0  0  0  0  0  0  0  0
  -29.7350  -24.0320   19.6370 H   0  0  0  0  0  0  0  0  0  0  0  0
  -29.3450  -25.7780   18.4760 C   0  0  0  0  0  2  0  0  0  0  0  0
  -29.7240  -26.6930   19.6560 C   0  0  0  0  0  2  0  0  0  0  0  0
  -28.8030  -26.6510   20.7430 O   0  0  0  0  0  0  0  0  0  0  0  0
  -24.7300  -31.8540   23.3450 C   0  0  0  0  0  0  0  0  0  0  0  0
  -27.6390  -27.3670   20.6010 C   0  0  0  0  0  0  0  0  0  0  0  0
  -23.6490  -30.3680   21.6860 C   0  0  0  0  0  3  0  0  0  0  0  0
  -25.2140  -28.8030   20.4160 C   0  0  0  0  0  0  0  0  0  0  0  0
  -26.1730  -30.7710   21.6300 C   0  0  0  0  0  2  0  0  0  0  0  0
  -26.3220  -29.3780   21.0520 C   0  0  0  0  0  0  0  0  0  0  0  0
  -27.5350  -28.6620   21.1520 C   0  0  0  0  0  3  0  0  0  0  0  0
  -26.5100  -26.7890   19.9830 C   0  0  0  0  0  3  0  0  0  0  0  0
  -25.3020  -27.5060   19.8820 C   0  0  0  0  0  3  0  0  0  0  0  0
  -23.9530  -29.6360   20.3510 C   0  0  0  0  0  2  0  0  0  0  0  0
  -24.8640  -31.0150   22.2800 N   0  0  0  0  0  0  0  0  0  0  0  0
  -23.6130  -32.1280   23.8060 O   0  0  0  0  0  0  0  0  0  0  0  0
  -22.9530  -29.3760   22.6450 C   0  0  0  0  0  0  0  0  0  0  0  0
  -21.6390  -29.1730   22.4480 N   0  0  0  0  0  0  0  0  0  0  0  0
  -23.5930  -28.7900   23.5210 O   0  0  0  0  0  0  0  0  0  0  0  0
  -21.1840  -29.7020   21.7160 H   0  0  0  0  0  0  0  0  0  0  0  0
  -18.2530  -27.9680   22.7950 C   0  0  0  0  0  0  0  0  0  0  0  0
  -20.7890  -28.2510   23.1990 C   0  0  0  0  0  3  0  0  0  0  0  0
  -20.9330  -26.8040   22.6720 C   0  0  0  0  0  2  0  0  0  0  0  0
  -19.8900  -26.4430   21.6090 C   0  0  0  0  0  2  0  0  0  0  0  0
  -18.4740  -26.5980   22.1720 C   0  0  0  0  0  2  0  0  0  0  0  0
  -19.3420  -28.7500   23.2620 C   0  0  0  0  0  0  0  0  0  0  0  0
  -19.0860  -30.0290   23.8010 C   0  0  0  0  0  3  0  0  0  0  0  0
  -17.7730  -30.5290   23.8740 C   0  0  0  0  0  3  0  0  0  0  0  0
  -16.6960  -29.7450   23.4250 C   0  0  0  0  0  3  0  0  0  0  0  0
  -16.9380  -28.4660   22.8910 C   0  0  0  0  0  3  0  0  0  0  0  0
  -25.9660  -32.5280   24.0190 C   0  0  0  0  0  3  0  0  0  0  0  0
  -25.6220  -33.9360   24.2680 N   0  0  0  0  0  0  0  0  0  0  0  0
  -25.9820  -34.9570   23.4780 C   0  0  0  0  0  0  0  0  0  0  0  0
  -26.7090  -34.8160   22.4910 O   0  0  0  0  0  0  0  0  0  0  0  0
  -24.9850  -34.1160   25.0300 H   0  0  0  0  0  0  0  0  0  0  0  0
  -24.2460  -36.6960   22.9500 C   0  0  0  0  0  1  0  0  0  0  0  0
  -25.4500  -36.3560   23.8420 C   0  0  0  0  0  3  0  0  0  0  0  0
  -27.5290  -37.3140   24.7290 C   0  0  0  0  0  1  0  0  0  0  0  0
  -26.4710  -37.4210   23.7290 N   0  0  0  0  0  0  0  0  0  0  0  0
  -26.0450  -38.3390   23.8160 H   0  0  0  0  0  0  0  0  0  0  0  0
  -26.4120  -31.8170   25.3550 C   0  0  1  0  0  0  0  0  0  0  0  0
  -25.2500  -31.5840   26.3490 C   0  0  0  0  0  1  0  0  0  0  0  0
  -27.0610  -30.4470   25.0530 C   0  0  0  0  0  1  0  0  0  0  0  0
  -27.4880  -32.6700   26.0690 C   0  0  0  0  0  1  0  0  0  0  0  0
  -26.4270  -17.6400   20.3670 C   0  0  0  0  0  1  0  0  0  0  0  0
  -27.9210  -17.9750   20.2380 C   0  0  0  0  0  3  0  0  0  0  0  0
  -28.6060  -16.9890   19.3710 N   0  0  0  0  0  4  0  0  0  0  0  0
  -28.1270  -16.1050   19.4370 H   0  0  0  0  0  0  0  0  0  0  0  0
  -28.4660  -17.3180   18.4290 H   0  0  0  0  0  0  0  0  0  0  0  0
  -30.0700  -16.8280   19.5770 C   0  0  0  0  0  2  0  0  0  0  0  0
  -30.4580  -15.7750   20.6550 C   0  0  0  0  0  2  0  0  0  0  0  0
  -31.0690  -14.4930   20.0440 C   0  0  0  0  0  0  0  0  0  0  0  0
  -30.7720  -12.1940   19.1880 C   0  0  0  0  0  2  0  0  0  0  0  0
  -29.8190  -12.2140   17.9740 C   0  0  0  0  0  2  0  0  0  0  0  0
  -28.3460  -12.1370   18.4260 C   0  0  0  0  0  2  0  0  0  0  0  0
  -28.0190  -13.1530   19.5510 C   0  0  0  0  0  3  0  0  0  0  0  0
  -29.0760  -13.0810   20.6740 C   0  0  0  0  0  2  0  0  0  0  0  0
  -30.3990  -13.3100   20.0730 N   0  0  0  0  0  0  0  0  0  0  0  0
  -32.1530  -14.6160   19.4620 O   0  0  0  0  0  0  0  0  0  0  0  0
  -25.6970  -13.9130   20.3600 C   0  0  0  0  0  0  0  0  0  0  0  0
  -24.5950  -13.2080   20.7680 C   0  0  0  0  0  0  0  0  0  0  0  0
  -24.9610  -11.8280   20.6940 C   0  0  0  0  0  0  0  0  0  0  0  0
  -26.6670  -12.9650   20.0690 N   0  0  0  0  0  0  0  0  0  0  0  0
  -26.2300  -11.7070   20.3270 N   0  0  0  0  0  0  0  0  0  0  0  0
  -24.1600  -10.6120   20.8890 C   0  0  0  0  0  0  0  0  0  0  0  0
  -24.5580   -9.6090   21.7990 C   0  0  0  0  0  3  0  0  0  0  0  0
  -23.7640   -8.4570   21.9860 C   0  0  0  0  0  3  0  0  0  0  0  0
  -22.5580   -8.3020   21.2610 C   0  0  0  0  0  0  0  0  0  0  0  0
  -22.1790   -9.2940   20.3390 C   0  0  0  0  0  3  0  0  0  0  0  0
  -22.9740  -10.4370   20.1500 C   0  0  0  0  0  3  0  0  0  0  0  0
  -21.7370   -7.2040   21.3560 O   0  0  0  0  0  0  0  0  0  0  0  0
  -21.6580   -6.4630   22.5080 C   0  0  0  0  0  0  0  0  0  0  0  0
  -21.2950   -7.0430   23.7440 C   0  0  0  0  0  3  0  0  0  0  0  0
  -21.1590   -6.2320   24.8890 C   0  0  0  0  0  3  0  0  0  0  0  0
  -21.3760   -4.8440   24.7990 C   0  0  0  0  0  0  0  0  0  0  0  0
  -21.7320   -4.2650   23.5680 C   0  0  0  0  0  3  0  0  0  0  0  0
  -21.8720   -5.0720   22.4270 C   0  0  0  0  0  0  0  0  0  0  0  0
  -22.1950   -4.5070   21.2390 F   0  0  0  0  0  0  0  0  0  0  0  0
  -21.2370   -4.0640   25.8970 F   0  0  0  0  0  0  0  0  0  0  0  0
  -23.2430  -13.7730   21.0910 C   0  0  0  0  0  0  0  0  0  0  0  0
  -22.5020  -13.1220   21.9810 N   0  0  0  0  0  0  0  0  0  0  0  0
  -22.8560  -14.8270   20.5870 O   0  0  0  0  0  0  0  0  0  0  0  0
  -22.8310  -12.2690   22.4110 H   0  0  0  0  0  0  0  0  0  0  0  0
  -21.5950  -13.4820   22.2390 H   0  0  0  0  0  0  0  0  0  0  0  0
  -25.9540  -15.2690   20.1710 N   0  0  0  0  0  0  0  0  0  0  0  0
  -25.1010  -15.8050   20.2960 H   0  0  0  0  0  0  0  0  0  0  0  0
  -26.2820  -15.4070   19.2220 H   0  0  0  0  0  0  0  0  0  0  0  0
  1  3  1  0
  2  4  2  0
  2  5  1  0
  4  6  1  0
  5  1  2  0
  6 55  1  0
  6  3  2  0
  7  5  1  0
  7  8  1  0
  8 10  1  0
  9  7  2  0
 11  8  1  0
 11 12  1  0
 12 13  1  0
 14 25  2  0
 15 13  1  0
 15 20  1  0
 16 24  1  0
 16 26  1  0
 17 19  1  0
 18 24  1  0
 19 20  2  0
 19 18  1  0
 21 15  2  0
 22 21  1  0
 22 17  2  0
 23 17  1  0
 23 16  1  0
 24 14  1  0
 26 28  2  0
 27 26  1  0
 29 27  1  0
 30 39  2  0
 30 35  1  0
 31 27  1  0
 31 35  1  0
 32 31  1  0
 33 34  1  0
 33 32  1  0
 34 30  1  0
 35 36  2  0
 36 37  1  0
 38 37  2  0
 39 38  1  0
 40 14  1  0
 40 41  1  0
 40 50  1  0
 41 44  1  0
 42 46  1  0
 42 41  1  0
 43 42  2  0
 46 45  1  0
 48 49  1  0
 48 46  1  0
 48 47  1  0
 50 53  1  1
 50 51  1  0
 52 50  1  0
 55 54  1  0
 56 57  1  0
 56 59  1  0
 56 55  1  0
 58 56  1  0
 59 60  1  0
 61 67  1  0
 61 60  1  0
 62 67  1  0
 63 64  1  0
 63 62  1  0
 65 64  1  0
 65 72  1  0
 65 66  1  0
 67 66  1  0
 68 61  2  0
 69 70  2  0
 70 89  1  0
 71 70  1  0
 71 74  1  0
 72 73  1  0
 72 69  1  0
 73 71  2  0
 74 75  1  0
 75 76  2  0
 77 80  1  0
 77 76  1  0
 78 77  2  0
 79 78  1  0
 79 74  2  0
 80 81  1  0
 81 82  1  0
 82 83  2  0
 84 83  1  0
 84 88  1  0
 85 84  2  0
 86 81  2  0
 86 85  1  0
 87 86  1  0
 89 90  1  0
 90 93  1  0
 90 92  1  0
 91 89  2  0
 94 95  1  0
 94 69  1  0
 96 94  1  0
M  ISO  4  12 101  13 101  60 100  61 100
M  END
>  <TORSDO>  (98) 
F 23

>  <SCORE>  (98) 
-12.861

>  <name>  (98) 
97

>  <ligand_id>  (98) 
97

>  <original_smiles>  (98) 
[H]c1c([H])c([H])c2c(c1[H])C([H])([H])C([H])([H])C([H])([H])C2([H])N([H])C(=O)C1([H])N(C(=O)C([H])(N([H])C(=O)C([H])(N([H])C([H])([H])[H])C([H])([H])[H])C(C([H])([H])[H])(C([H])([H])[H])C([H])([H])[H])C([H])([H])c2c([H])c(OC([H])([H])C([H])([H])N([H])C(=O)c3c([H])c([H])c(C([H])(C([H])([H])[H])[N+]([H])([H])C([H])([H])C([H])([H])C(=O)N4C([H])([H])C([H])([H])C([H])([H])C([H])(n5nc(-c6c([H])c([H])c(Oc7c([H])c([H])c(F)c([H])c7F)c([H])c6[H])c(C(=O)N([H])[H])c5N([H])[H])C4([H])[H])c([H])c3[H])c([H])c([H])c2C1([H])[H]

>  <smiles>  (98) 
[H]c1c([H])c([H])c2c(c1[H])C([H])([H])C([H])([H])C([H])([H])C2([H])N([H])C(=O)C1([H])N(C(=O)C([H])(N([H])C(=O)C([H])(N([H])C([H])([H])[H])C([H])([H])[H])C(C([H])([H])[H])(C([H])([H])[H])C([H])([H])[H])C([H])([H])c2c([H])c(OC([H])([H])C([H])([H])N([H])C(=O)c3c([H])c([H])c(C([H])(C([H])([H])[H])[N+]([H])([H])C([H])([H])C([H])([H])C(=O)N4C([H])([H])C([H])([H])C([H])([H])C([H])(n5nc(-c6c([H])c([H])c(Oc7c([H])c([H])c(F)c([H])c7F)c([H])c6[H])c(C(=O)N([H])[H])c5N([H])[H])C4([H])[H])c([H])c3[H])c([H])c([H])c2C1([H])[H]

$$$$
98:0:0
     RDKit          3D

 96104  0  0  1  0  0  0  0  0999 V2000
  -27.9120  -18.3610   17.1230 C   0  0  0  0  0  3  0  0  0  0  0  0
  -28.4010  -17.5590   18.1700 C   0  0  0  0  0  3  0  0  0  0  0  0
  -28.4870  -19.6180   16.9000 C   0  0  0  0  0  3  0  0  0  0  0  0
  -29.3680  -18.0390   19.0870 C   0  0  0  0  0  0  0  0  0  0  0  0
  -29.4820  -20.1310   17.7560 C   0  0  0  0  0  0  0  0  0  0  0  0
  -29.8600  -19.3770   18.9250 C   0  0  0  0  0  0  0  0  0  0  0  0
  -29.9940  -21.4870   17.3490 C   0  0  0  0  0  0  0  0  0  0  0  0
  -31.4740  -21.6590   17.0100 C   0  0  0  0  0  1  0  0  0  0  0  0
  -29.2490  -22.4500   17.1490 O   0  0  0  0  0  0  0  0  0  0  0  0
  -30.3540  -15.8610   19.8370 C   0  0  0  0  0  3  0  0  0  0  0  0
  -29.8470  -17.0820   20.1390 C   0  0  0  0  0  0  0  0  0  0  0  0
  -31.0100  -14.8850   20.7250 C   0  0  0  0  0  0  0  0  0  0  0  0
  -30.8310  -12.6930   19.7320 C   0  0  0  0  0  2  0  0  0  0  0  0
  -29.9270  -12.8130   18.4870 C   0  0  0  0  0  2  0  0  0  0  0  0
  -28.4230  -12.7620   18.8470 C   0  0  0  0  0  2  0  0  0  0  0  0
  -28.0240  -13.5940   20.0980 C   0  0  0  0  0  3  0  0  0  0  0  0
  -29.0420  -13.4090   21.2460 C   0  0  0  0  0  2  0  0  0  0  0  0
  -30.3850  -13.6840   20.7180 N   0  0  0  0  0  0  0  0  0  0  0  0
  -32.2300  -14.9850   20.8780 O   0  0  0  0  0  0  0  0  0  0  0  0
  -25.5850  -14.1950   20.6660 C   0  0  0  0  0  0  0  0  0  0  0  0
  -24.4990  -13.4170   20.9720 C   0  0  0  0  0  0  0  0  0  0  0  0
  -24.9710  -12.0720   20.9860 C   0  0  0  0  0  0  0  0  0  0  0  0
  -26.6480  -13.3170   20.5190 N   0  0  0  0  0  0  0  0  0  0  0  0
  -26.2790  -12.0340   20.7720 N   0  0  0  0  0  0  0  0  0  0  0  0
  -24.2350  -10.8080   21.1290 C   0  0  0  0  0  0  0  0  0  0  0  0
  -24.5770   -9.8670   22.1240 C   0  0  0  0  0  3  0  0  0  0  0  0
  -23.8520   -8.6650   22.2580 C   0  0  0  0  0  3  0  0  0  0  0  0
  -22.7630   -8.3920   21.3930 C   0  0  0  0  0  0  0  0  0  0  0  0
  -22.4350   -9.3240   20.3900 C   0  0  0  0  0  3  0  0  0  0  0  0
  -23.1660  -10.5180   20.2580 C   0  0  0  0  0  3  0  0  0  0  0  0
  -22.0120   -7.2430   21.4340 O   0  0  0  0  0  0  0  0  0  0  0  0
  -21.8310   -6.5440   22.6020 C   0  0  0  0  0  0  0  0  0  0  0  0
  -21.1910   -7.1150   23.7240 C   0  0  0  0  0  3  0  0  0  0  0  0
  -20.9680   -6.3370   24.8780 C   0  0  0  0  0  3  0  0  0  0  0  0
  -21.3650   -4.9860   24.9060 C   0  0  0  0  0  0  0  0  0  0  0  0
  -21.9950   -4.4150   23.7880 C   0  0  0  0  0  3  0  0  0  0  0  0
  -22.2230   -5.1920   22.6370 C   0  0  0  0  0  0  0  0  0  0  0  0
  -22.8040   -4.6260   21.5540 F   0  0  0  0  0  0  0  0  0  0  0  0
  -21.1400   -4.2380   26.0130 F   0  0  0  0  0  0  0  0  0  0  0  0
  -23.0850  -13.8890   21.1470 C   0  0  0  0  0  0  0  0  0  0  0  0
  -22.3010  -13.2010   21.9700 N   0  0  0  0  0  0  0  0  0  0  0  0
  -22.6750  -14.9060   20.5900 O   0  0  0  0  0  0  0  0  0  0  0  0
  -22.6360  -12.3770   22.4430 H   0  0  0  0  0  0  0  0  0  0  0  0
  -21.3490  -13.5030   22.1230 H   0  0  0  0  0  0  0  0  0  0  0  0
  -25.7560  -15.5650   20.4910 N   0  0  0  0  0  0  0  0  0  0  0  0
  -24.9880  -16.2210   20.5440 H   0  0  0  0  0  0  0  0  0  0  0  0
  -26.6380  -16.0130   20.2690 H   0  0  0  0  0  0  0  0  0  0  0  0
  -29.6780  -17.4950   21.3980 O   0  0  0  0  0  0  0  0  0  0  0  0
  -29.2320  -18.3330   21.3560 H   0  0  0  0  0  0  0  0  0  0  0  0
  -30.7260  -20.0400   20.0100 C   0  0  0  0  0  2  0  0  0  0  0  0
  -29.9050  -20.7130   21.1330 C   0  0  0  0  0  2  0  0  0  0  0  0
  -30.3330  -22.1650   21.4470 C   0  0  0  0  0  2  0  0  0  0  0  0
  -29.3580  -23.1900   20.8450 C   0  0  0  0  0  2  0  0  0  0  0  0
  -29.7890  -24.6690   21.0180 C   0  0  0  0  0  2  0  0  0  0  0  0
  -28.9210  -25.5880   20.1330 C   0  0  0  0  0  2  0  0  0  0  0  0
  -28.8930  -26.9680   20.5440 O   0  0  0  0  0  0  0  0  0  0  0  0
  -24.7030  -31.9930   23.3890 C   0  0  0  0  0  0  0  0  0  0  0  0
  -27.6850  -27.6470   20.4460 C   0  0  0  0  0  0  0  0  0  0  0  0
  -23.6410  -30.5270   21.7070 C   0  0  0  0  0  3  0  0  0  0  0  0
  -25.2220  -29.0520   20.3610 C   0  0  0  0  0  0  0  0  0  0  0  0
  -26.1600  -30.9850   21.6400 C   0  0  0  0  0  2  0  0  0  0  0  0
  -26.3280  -29.6170   21.0070 C   0  0  0  0  0  0  0  0  0  0  0  0
  -27.5580  -28.9140   21.0590 C   0  0  0  0  0  3  0  0  0  0  0  0
  -26.5590  -27.1220   19.7640 C   0  0  0  0  0  3  0  0  0  0  0  0
  -25.3230  -27.7940   19.7530 C   0  0  0  0  0  3  0  0  0  0  0  0
  -23.9400  -29.8580   20.3440 C   0  0  0  0  0  2  0  0  0  0  0  0
  -24.8470  -31.1840   22.3020 N   0  0  0  0  0  0  0  0  0  0  0  0
  -23.5850  -32.2210   23.8750 O   0  0  0  0  0  0  0  0  0  0  0  0
  -23.0010  -29.4740   22.6440 C   0  0  0  0  0  0  0  0  0  0  0  0
  -21.7040  -29.1990   22.4390 N   0  0  0  0  0  0  0  0  0  0  0  0
  -23.6740  -28.9130   23.5130 O   0  0  0  0  0  0  0  0  0  0  0  0
  -21.2200  -29.7190   21.7190 H   0  0  0  0  0  0  0  0  0  0  0  0
  -18.3860  -27.8050   22.7650 C   0  0  0  0  0  0  0  0  0  0  0  0
  -20.9010  -28.2190   23.1750 C   0  0  0  0  0  3  0  0  0  0  0  0
  -21.1260  -26.7930   22.6270 C   0  0  0  0  0  2  0  0  0  0  0  0
  -20.1070  -26.3880   21.5570 C   0  0  0  0  0  2  0  0  0  0  0  0
  -18.6810  -26.4590   22.1200 C   0  0  0  0  0  2  0  0  0  0  0  0
  -19.4330  -28.6380   23.2440 C   0  0  0  0  0  0  0  0  0  0  0  0
  -19.1140  -29.8910   23.8080 C   0  0  0  0  0  3  0  0  0  0  0  0
  -17.7780  -30.3190   23.8940 C   0  0  0  0  0  3  0  0  0  0  0  0
  -16.7430  -29.4840   23.4350 C   0  0  0  0  0  3  0  0  0  0  0  0
  -17.0480  -28.2300   22.8770 C   0  0  0  0  0  3  0  0  0  0  0  0
  -25.9300  -32.6880   24.0560 C   0  0  0  0  0  3  0  0  0  0  0  0
  -26.3890  -32.0000   25.4020 C   0  0  1  0  0  0  0  0  0  0  0  0
  -25.2260  -31.7460   26.3910 C   0  0  0  0  0  1  0  0  0  0  0  0
  -27.0750  -30.6440   25.1170 C   0  0  0  0  0  1  0  0  0  0  0  0
  -27.4400  -32.8900   26.1120 C   0  0  0  0  0  1  0  0  0  0  0  0
  -25.5640  -34.0910   24.2920 N   0  0  0  0  0  0  0  0  0  0  0  0
  -25.9020  -35.1110   23.4920 C   0  0  0  0  0  0  0  0  0  0  0  0
  -26.6270  -34.9750   22.5000 O   0  0  0  0  0  0  0  0  0  0  0  0
  -24.9260  -34.2710   25.0560 H   0  0  0  0  0  0  0  0  0  0  0  0
  -24.1340  -36.8200   22.9560 C   0  0  0  0  0  1  0  0  0  0  0  0
  -25.3480  -36.5070   23.8470 C   0  0  0  0  0  3  0  0  0  0  0  0
  -27.3970  -37.5180   24.7380 C   0  0  0  0  0  1  0  0  0  0  0  0
  -26.3500  -37.5860   23.7240 N   0  0  0  0  0  0  0  0  0  0  0  0
  -25.9050  -38.4970   23.7980 H   0  0  0  0  0  0  0  0  0  0  0  0
  1  2  1  0
  2  4  2  0
  3  1  2  0
  3  5  1  0
  4 11  1  0
  5  6  2  0
  6  4  1  0
  6 50  1  0
  7  5  1  0
  8  7  1  0
  9  7  2  0
 10 11  2  0
 10 12  1  0
 11 48  1  0
 12 19  2  0
 13 18  1  0
 14 15  1  0
 14 13  1  0
 16 15  1  0
 16 23  1  0
 16 17  1  0
 18 12  1  0
 18 17  1  0
 20 21  2  0
 21 22  1  0
 21 40  1  0
 22 25  1  0
 23 20  1  0
 23 24  1  0
 24 22  2  0
 25 26  1  0
 26 27  2  0
 28 31  1  0
 28 27  1  0
 29 28  2  0
 30 29  1  0
 30 25  2  0
 31 32  1  0
 32 37  2  0
 32 33  1  0
 33 34  2  0
 34 35  1  0
 35 39  1  0
 36 35  2  0
 37 36  1  0
 38 37  1  0
 40 41  1  0
 41 44  1  0
 41 43  1  0
 42 40  2  0
 45 46  1  0
 45 20  1  0
 47 45  1  0
 49 48  1  0
 50 51  1  0
 51 52  1  0
 53 54  1  0
 53 52  1  0
 55 56  1  0
 55 54  1  0
 57 68  2  0
 58 56  1  0
 58 63  1  0
 59 67  1  0
 59 69  1  0
 60 62  1  0
 61 67  1  0
 62 63  2  0
 62 61  1  0
 64 58  2  0
 65 64  1  0
 65 60  2  0
 66 60  1  0
 66 59  1  0
 67 57  1  0
 69 71  2  0
 70 69  1  0
 72 70  1  0
 73 82  2  0
 73 78  1  0
 74 70  1  0
 74 78  1  0
 75 74  1  0
 76 77  1  0
 76 75  1  0
 77 73  1  0
 78 79  2  0
 79 80  1  0
 81 80  2  0
 82 81  1  0
 83 57  1  0
 83 88  1  0
 83 84  1  0
 84 87  1  1
 84 85  1  0
 86 84  1  0
 88 91  1  0
 89 93  1  0
 89 88  1  0
 90 89  2  0
 93 92  1  0
 95 96  1  0
 95 93  1  0
 95 94  1  0
M  ISO  4  10 100  12 100  55 101  56 101
M  END
>  <TORSDO>  (99) 
F 25

>  <SCORE>  (99) 
-12.219

>  <name>  (99) 
98

>  <ligand_id>  (99) 
98

>  <original_smiles>  (99) 
[H]OC(=C([H])C(=O)N1C([H])([H])C([H])([H])C([H])([H])C([H])(n2nc(-c3c([H])c([H])c(Oc4c([H])c([H])c(F)c([H])c4F)c([H])c3[H])c(C(=O)N([H])[H])c2N([H])[H])C1([H])[H])c1c([H])c([H])c([H])c(C(=O)C([H])([H])[H])c1C([H])([H])C([H])([H])C([H])([H])C([H])([H])C([H])([H])C([H])([H])Oc1c([H])c([H])c2c(c1[H])C([H])([H])N(C(=O)C([H])(N([H])C(=O)C([H])(N([H])C([H])([H])[H])C([H])([H])[H])C(C([H])([H])[H])(C([H])([H])[H])C([H])([H])[H])C([H])(C(=O)N([H])C1([H])c3c([H])c([H])c([H])c([H])c3C([H])([H])C([H])([H])C1([H])[H])C2([H])[H]

>  <smiles>  (99) 
[H]OC(=C([H])C(=O)N1C([H])([H])C([H])([H])C([H])([H])C([H])(n2nc(-c3c([H])c([H])c(Oc4c([H])c([H])c(F)c([H])c4F)c([H])c3[H])c(C(=O)N([H])[H])c2N([H])[H])C1([H])[H])c1c([H])c([H])c([H])c(C(=O)C([H])([H])[H])c1C([H])([H])C([H])([H])C([H])([H])C([H])([H])C([H])([H])C([H])([H])Oc1c([H])c([H])c2c(c1[H])C([H])([H])N(C(=O)C([H])(N([H])C(=O)C([H])(N([H])C([H])([H])[H])C([H])([H])[H])C(C([H])([H])[H])(C([H])([H])[H])C([H])([H])[H])C([H])(C(=O)N([H])C1([H])c3c([H])c([H])c([H])c([H])c3C([H])([H])C([H])([H])C1([H])[H])C2([H])[H]

$$$$
