0:0:0
     RDKit          3D

 91100  0  0  1  0  0  0  0  0999 V2000
  -29.3550  -18.8540   21.1530 C   0  0  0  0  0  3  0  0  0  0  0  0
  -31.2870  -19.0960   19.6790 C   0  0  0  0  0  3  0  0  0  0  0  0
  -29.4970  -20.1830   21.5770 C   0  0  0  0  0  3  0  0  0  0  0  0
  -31.4340  -20.4350   20.1010 C   0  0  0  0  0  3  0  0  0  0  0  0
  -30.2230  -18.3110   20.1800 C   0  0  0  0  0  0  0  0  0  0  0  0
  -30.5190  -20.9850   21.0300 C   0  0  0  0  0  0  0  0  0  0  0  0
  -29.9700  -16.6700   18.1130 C   0  0  0  0  0  2  0  0  0  0  0  0
  -28.6600  -17.0460   18.7150 C   0  0  0  0  0  2  0  0  0  0  0  0
  -29.8870  -16.9620   19.6170 C   0  0  2  0  0  0  0  0  0  0  0  0
  -29.9380  -15.8660   20.7090 C   0  0  0  0  0  2  0  0  0  0  0  0
  -30.7530  -14.5960   20.3660 C   0  0  0  0  0  0  0  0  0  0  0  0
  -30.5340  -12.4080   19.2890 C   0  0  0  0  0  2  0  0  0  0  0  0
  -29.5930  -12.5650   18.0780 C   0  0  0  0  0  2  0  0  0  0  0  0
  -28.1080  -12.4730   18.4890 C   0  0  0  0  0  2  0  0  0  0  0  0
  -27.7600  -13.3090   19.7510 C   0  0  0  0  0  3  0  0  0  0  0  0
  -28.8060  -13.0820   20.8570 C   0  0  0  0  0  2  0  0  0  0  0  0
  -30.1300  -13.3910   20.3000 N   0  0  0  0  0  0  0  0  0  0  0  0
  -31.9260  -14.7450   20.0130 O   0  0  0  0  0  0  0  0  0  0  0  0
  -25.3570  -13.9260   20.4420 C   0  0  0  0  0  0  0  0  0  0  0  0
  -24.2900  -13.1560   20.8110 C   0  0  0  0  0  0  0  0  0  0  0  0
  -24.7550  -11.8050   20.7990 C   0  0  0  0  0  0  0  0  0  0  0  0
  -26.4060  -13.0450   20.2240 N   0  0  0  0  0  0  0  0  0  0  0  0
  -26.0480  -11.7660   20.5020 N   0  0  0  0  0  0  0  0  0  0  0  0
  -24.0340  -10.5430   20.9910 C   0  0  0  0  0  0  0  0  0  0  0  0
  -24.4640   -9.5890   21.9390 C   0  0  0  0  0  3  0  0  0  0  0  0
  -23.7480   -8.3860   22.1200 C   0  0  0  0  0  3  0  0  0  0  0  0
  -22.5880   -8.1300   21.3510 C   0  0  0  0  0  0  0  0  0  0  0  0
  -22.1770   -9.0720   20.3910 C   0  0  0  0  0  3  0  0  0  0  0  0
  -22.8930  -10.2670   20.2100 C   0  0  0  0  0  3  0  0  0  0  0  0
  -21.8420   -6.9800   21.4400 O   0  0  0  0  0  0  0  0  0  0  0  0
  -21.7810   -6.2510   22.6000 C   0  0  0  0  0  0  0  0  0  0  0  0
  -21.3200   -6.8130   23.8100 C   0  0  0  0  0  3  0  0  0  0  0  0
  -21.2070   -6.0100   24.9620 C   0  0  0  0  0  3  0  0  0  0  0  0
  -21.5430   -4.6440   24.9040 C   0  0  0  0  0  0  0  0  0  0  0  0
  -21.9960   -4.0810   23.6980 C   0  0  0  0  0  3  0  0  0  0  0  0
  -22.1130   -4.8830   22.5500 C   0  0  0  0  0  0  0  0  0  0  0  0
  -22.5310   -4.3300   21.3850 F   0  0  0  0  0  0  0  0  0  0  0  0
  -21.4270   -3.8690   26.0070 F   0  0  0  0  0  0  0  0  0  0  0  0
  -22.8860  -13.6260   21.0670 C   0  0  0  0  0  0  0  0  0  0  0  0
  -22.1560  -12.9370   21.9340 N   0  0  0  0  0  0  0  0  0  0  0  0
  -22.4490  -14.6440   20.5310 O   0  0  0  0  0  0  0  0  0  0  0  0
  -22.5220  -12.1150   22.3920 H   0  0  0  0  0  0  0  0  0  0  0  0
  -21.2130  -13.2320   22.1430 H   0  0  0  0  0  0  0  0  0  0  0  0
  -25.5210  -15.2960   20.2550 N   0  0  0  0  0  0  0  0  0  0  0  0
  -24.7520  -15.9470   20.3610 H   0  0  0  0  0  0  0  0  0  0  0  0
  -26.3770  -15.7340   19.9410 H   0  0  0  0  0  0  0  0  0  0  0  0
  -30.5530  -22.4570   21.3960 C   0  0  0  0  0  2  0  0  0  0  0  0
  -29.4250  -23.2110   20.6730 C   0  0  0  0  0  2  0  0  0  0  0  0
  -29.4750  -24.7340   20.8670 C   0  0  0  0  0  2  0  0  0  0  0  0
  -28.2830  -25.4060   20.1770 C   0  0  0  0  0  2  0  0  0  0  0  0
  -28.4210  -26.8230   20.2250 O   0  0  0  0  0  0  0  0  0  0  0  0
  -24.6000  -31.9260   23.2980 C   0  0  0  0  0  0  0  0  0  0  0  0
  -27.2450  -27.5360   20.1850 C   0  0  0  0  0  0  0  0  0  0  0  0
  -23.3900  -30.5290   21.6540 C   0  0  0  0  0  3  0  0  0  0  0  0
  -24.8420  -29.0140   20.2120 C   0  0  0  0  0  0  0  0  0  0  0  0
  -25.9110  -30.9110   21.4390 C   0  0  0  0  0  2  0  0  0  0  0  0
  -26.0000  -29.5480   20.7930 C   0  0  0  0  0  0  0  0  0  0  0  0
  -27.2050  -28.8150   20.7770 C   0  0  0  0  0  3  0  0  0  0  0  0
  -26.0720  -27.0180   19.5840 C   0  0  0  0  0  3  0  0  0  0  0  0
  -24.8710  -27.7490   19.6050 C   0  0  0  0  0  3  0  0  0  0  0  0
  -23.5940  -29.8640   20.2690 C   0  0  0  0  0  2  0  0  0  0  0  0
  -24.6530  -31.1360   22.1890 N   0  0  0  0  0  0  0  0  0  0  0  0
  -23.5210  -32.1840   23.8470 O   0  0  0  0  0  0  0  0  0  0  0  0
  -22.7550  -29.4950   22.6100 C   0  0  0  0  0  0  0  0  0  0  0  0
  -21.4340  -29.2930   22.4810 N   0  0  0  0  0  0  0  0  0  0  0  0
  -23.4440  -28.8760   23.4250 O   0  0  0  0  0  0  0  0  0  0  0  0
  -20.9400  -29.8450   21.7940 H   0  0  0  0  0  0  0  0  0  0  0  0
  -18.0730  -28.0610   22.9640 C   0  0  0  0  0  0  0  0  0  0  0  0
  -20.6260  -28.3470   23.2480 C   0  0  0  0  0  3  0  0  0  0  0  0
  -20.7480  -26.9170   22.6730 C   0  0  0  0  0  2  0  0  0  0  0  0
  -19.6530  -26.5830   21.6540 C   0  0  0  0  0  2  0  0  0  0  0  0
  -18.2670  -26.7130   22.2920 C   0  0  0  0  0  2  0  0  0  0  0  0
  -19.1820  -28.8350   23.3980 C   0  0  0  0  0  0  0  0  0  0  0  0
  -18.9480  -30.0980   23.9860 C   0  0  0  0  0  3  0  0  0  0  0  0
  -17.6380  -30.5860   24.1460 C   0  0  0  0  0  3  0  0  0  0  0  0
  -16.5430  -29.8090   23.7280 C   0  0  0  0  0  3  0  0  0  0  0  0
  -16.7600  -28.5500   23.1420 C   0  0  0  0  0  3  0  0  0  0  0  0
  -25.8880  -32.5600   23.9110 C   0  0  0  0  0  3  0  0  0  0  0  0
  -25.5810  -33.9610   24.2220 N   0  0  0  0  0  0  0  0  0  0  0  0
  -25.9230  -35.0020   23.4520 C   0  0  0  0  0  0  0  0  0  0  0  0
  -26.6030  -34.8840   22.4280 O   0  0  0  0  0  0  0  0  0  0  0  0
  -24.9810  -34.1300   25.0160 H   0  0  0  0  0  0  0  0  0  0  0  0
  -24.2130  -36.8020   23.0450 C   0  0  0  0  0  1  0  0  0  0  0  0
  -25.4350  -36.3980   23.8860 C   0  0  0  0  0  3  0  0  0  0  0  0
  -27.5540  -37.2810   24.7530 C   0  0  0  0  0  1  0  0  0  0  0  0
  -26.4740  -37.4460   23.7840 N   0  0  0  0  0  0  0  0  0  0  0  0
  -26.0680  -38.3680   23.9130 H   0  0  0  0  0  0  0  0  0  0  0  0
  -26.4010  -31.8000   25.1950 C   0  0  1  0  0  0  0  0  0  0  0  0
  -25.3070  -31.5780   26.2640 C   0  0  0  0  0  1  0  0  0  0  0  0
  -26.9830  -30.4160   24.8160 C   0  0  0  0  0  1  0  0  0  0  0  0
  -27.5500  -32.6000   25.8530 C   0  0  0  0  0  1  0  0  0  0  0  0
  1  3  1  0
  2  4  2  0
  2  5  1  0
  4  6  1  0
  5  1  2  0
  6 47  1  0
  6  3  2  0
  7  8  1  0
  7  9  1  0
  8  9  1  0
  9  5  1  0
  9 10  1  1
 11 10  1  0
 12 17  1  0
 13 14  1  0
 13 12  1  0
 15 14  1  0
 15 22  1  0
 15 16  1  0
 17 11  1  0
 17 16  1  0
 18 11  2  0
 19 20  2  0
 20 39  1  0
 21 20  1  0
 21 24  1  0
 22 19  1  0
 22 23  1  0
 23 21  2  0
 24 25  1  0
 25 26  2  0
 27 30  1  0
 27 26  1  0
 28 27  2  0
 29 28  1  0
 29 24  2  0
 30 31  1  0
 31 32  1  0
 32 33  2  0
 34 33  1  0
 34 38  1  0
 35 34  2  0
 36 31  2  0
 36 35  1  0
 37 36  1  0
 39 40  1  0
 40 43  1  0
 40 42  1  0
 41 39  2  0
 44 45  1  0
 44 19  1  0
 46 44  1  0
 48 49  1  0
 48 47  1  0
 50 51  1  0
 50 49  1  0
 52 63  2  0
 53 51  1  0
 53 58  1  0
 54 62  1  0
 54 64  1  0
 55 61  1  0
 55 57  1  0
 56 62  1  0
 57 56  1  0
 58 57  2  0
 59 60  1  0
 59 53  2  0
 60 55  2  0
 61 54  1  0
 62 52  1  0
 64 66  2  0
 65 64  1  0
 67 65  1  0
 68 77  2  0
 68 73  1  0
 69 65  1  0
 69 73  1  0
 70 69  1  0
 71 72  1  0
 71 70  1  0
 72 68  1  0
 73 74  2  0
 74 75  1  0
 76 75  2  0
 77 76  1  0
 78 52  1  0
 78 79  1  0
 78 88  1  0
 79 82  1  0
 80 84  1  0
 80 79  1  0
 81 80  2  0
 84 83  1  0
 86 84  1  0
 86 87  1  0
 86 85  1  0
 88 91  1  1
 88 89  1  0
 90 88  1  0
M  ISO  4  10 100  11 100  50 101  51 101
M  END
>  <TORSDO>  (1) 
F 22

>  <SCORE>  (1) 
-12.320

>  <name>  (1) 
0

>  <ligand_id>  (1) 
0

>  <original_smiles>  (1) 
[H]c1c([H])c([H])c2c(c1[H])C([H])([H])C([H])([H])C([H])([H])C2([H])N([H])C(=O)C1([H])N(C(=O)C([H])(N([H])C(=O)C([H])(N([H])C([H])([H])[H])C([H])([H])[H])C(C([H])([H])[H])(C([H])([H])[H])C([H])([H])[H])C([H])([H])c2c([H])c(OC([H])([H])C([H])([H])C([H])([H])C([H])([H])c3c([H])c([H])c(C4(C([H])([H])C(=O)N5C([H])([H])C([H])([H])C([H])([H])C([H])(n6nc(-c7c([H])c([H])c(Oc8c([H])c([H])c(F)c([H])c8F)c([H])c7[H])c(C(=O)N([H])[H])c6N([H])[H])C5([H])[H])C([H])([H])C4([H])[H])c([H])c3[H])c([H])c([H])c2C1([H])[H]

>  <smiles>  (1) 
[H]c1c([H])c([H])c2c(c1[H])C([H])([H])C([H])([H])C([H])([H])C2([H])N([H])C(=O)C1([H])N(C(=O)C([H])(N([H])C(=O)C([H])(N([H])C([H])([H])[H])C([H])([H])[H])C(C([H])([H])[H])(C([H])([H])[H])C([H])([H])[H])C([H])([H])c2c([H])c(OC([H])([H])C([H])([H])C([H])([H])C([H])([H])c3c([H])c([H])c(C4(C([H])([H])C(=O)N5C([H])([H])C([H])([H])C([H])([H])C([H])(n6nc(-c7c([H])c([H])c(Oc8c([H])c([H])c(F)c([H])c8F)c([H])c7[H])c(C(=O)N([H])[H])c6N([H])[H])C5([H])[H])C([H])([H])C4([H])[H])c([H])c3[H])c([H])c([H])c2C1([H])[H]

$$$$
1:0:0
     RDKit          3D

 95103  0  0  1  0  0  0  0  0999 V2000
  -29.7520  -21.1790   24.6800 C   0  0  0  0  0  3  0  0  0  0  0  0
  -29.7070  -22.2010   23.7120 C   0  0  0  0  0  3  0  0  0  0  0  0
  -30.5300  -20.0280   24.4550 C   0  0  0  0  0  3  0  0  0  0  0  0
  -31.1880  -20.9030   22.2730 C   0  0  0  0  0  3  0  0  0  0  0  0
  -30.4390  -22.0750   22.5090 C   0  0  0  0  0  0  0  0  0  0  0  0
  -31.2490  -19.8840   23.2480 C   0  0  0  0  0  0  0  0  0  0  0  0
  -30.4210  -23.1670   21.4810 C   0  0  0  0  0  0  0  0  0  0  0  0
  -30.3490  -24.4020   21.9830 N   0  0  0  0  0  0  0  0  0  0  0  0
  -30.5360  -22.9240   20.2790 O   0  0  0  0  0  0  0  0  0  0  0  0
  -30.2910  -24.4860   22.9870 H   0  0  0  0  0  0  0  0  0  0  0  0
  -30.3830  -25.6330   21.2100 C   0  0  0  0  0  2  0  0  0  0  0  0
  -29.0670  -25.8670   20.4630 C   0  0  0  0  0  2  0  0  0  0  0  0
  -29.0460  -27.2340   20.0830 O   0  0  0  0  0  0  0  0  0  0  0  0
  -24.7490  -31.7960   23.3890 C   0  0  0  0  0  0  0  0  0  0  0  0
  -27.8110  -27.8230   20.1090 C   0  0  0  0  0  0  0  0  0  0  0  0
  -23.6980  -30.4290   21.6140 C   0  0  0  0  0  3  0  0  0  0  0  0
  -25.3030  -29.1030   20.1440 C   0  0  0  0  0  0  0  0  0  0  0  0
  -26.1850  -30.9990   21.5180 C   0  0  0  0  0  2  0  0  0  0  0  0
  -26.3960  -29.6840   20.8000 C   0  0  0  0  0  0  0  0  0  0  0  0
  -27.6540  -29.0520   20.7780 C   0  0  0  0  0  3  0  0  0  0  0  0
  -26.7050  -27.2350   19.4600 C   0  0  0  0  0  3  0  0  0  0  0  0
  -25.4500  -27.8740   19.4740 C   0  0  0  0  0  3  0  0  0  0  0  0
  -23.9950  -29.8580   20.2010 C   0  0  0  0  0  2  0  0  0  0  0  0
  -24.8930  -31.0860   22.2350 N   0  0  0  0  0  0  0  0  0  0  0  0
  -23.6360  -31.9500   23.9110 O   0  0  0  0  0  0  0  0  0  0  0  0
  -23.0990  -29.3000   22.4810 C   0  0  0  0  0  0  0  0  0  0  0  0
  -21.8070  -29.0030   22.2650 N   0  0  0  0  0  0  0  0  0  0  0  0
  -23.7940  -28.6950   23.3010 O   0  0  0  0  0  0  0  0  0  0  0  0
  -21.3010  -29.5520   21.5830 H   0  0  0  0  0  0  0  0  0  0  0  0
  -18.5430  -27.4730   22.4840 C   0  0  0  0  0  0  0  0  0  0  0  0
  -21.0430  -27.9500   22.9330 C   0  0  0  0  0  3  0  0  0  0  0  0
  -21.3170  -26.5700   22.2910 C   0  0  0  0  0  2  0  0  0  0  0  0
  -20.3130  -26.2050   21.1930 C   0  0  0  0  0  2  0  0  0  0  0  0
  -18.8880  -26.1860   21.7530 C   0  0  0  0  0  2  0  0  0  0  0  0
  -19.5550  -28.3090   23.0240 C   0  0  0  0  0  0  0  0  0  0  0  0
  -19.1830  -29.5130   23.6600 C   0  0  0  0  0  3  0  0  0  0  0  0
  -17.8290  -29.8840   23.7630 C   0  0  0  0  0  3  0  0  0  0  0  0
  -16.8300  -29.0450   23.2400 C   0  0  0  0  0  3  0  0  0  0  0  0
  -17.1870  -27.8410   22.6080 C   0  0  0  0  0  3  0  0  0  0  0  0
  -25.9680  -32.4690   24.0960 C   0  0  0  0  0  3  0  0  0  0  0  0
  -25.6100  -33.8700   24.3540 N   0  0  0  0  0  0  0  0  0  0  0  0
  -25.9920  -34.9040   23.5920 C   0  0  0  0  0  0  0  0  0  0  0  0
  -26.7500  -34.7810   22.6250 O   0  0  0  0  0  0  0  0  0  0  0  0
  -24.9460  -34.0390   25.0950 H   0  0  0  0  0  0  0  0  0  0  0  0
  -24.2670  -36.6460   23.0300 C   0  0  0  0  0  1  0  0  0  0  0  0
  -25.4420  -36.2950   23.9570 C   0  0  0  0  0  3  0  0  0  0  0  0
  -27.4770  -37.2570   24.9380 C   0  0  0  0  0  1  0  0  0  0  0  0
  -26.4600  -37.3660   23.8950 N   0  0  0  0  0  0  0  0  0  0  0  0
  -26.0260  -38.2820   23.9680 H   0  0  0  0  0  0  0  0  0  0  0  0
  -26.3910  -31.7440   25.4310 C   0  0  1  0  0  0  0  0  0  0  0  0
  -25.2140  -31.4760   26.3960 C   0  0  0  0  0  1  0  0  0  0  0  0
  -27.0650  -30.3870   25.1180 C   0  0  0  0  0  1  0  0  0  0  0  0
  -27.4400  -32.5960   26.1840 C   0  0  0  0  0  1  0  0  0  0  0  0
  -32.0650  -18.6310   22.9850 C   0  0  0  0  0  2  0  0  0  0  0  0
  -31.1570  -17.5240   22.6470 N   0  0  0  0  0  4  0  0  0  0  0  0
  -30.2440  -17.9290   22.5190 H   0  0  0  0  0  0  0  0  0  0  0  0
  -31.1090  -16.9090   23.4430 H   0  0  0  0  0  0  0  0  0  0  0  0
  -31.5160  -16.7600   21.4330 C   0  0  0  0  0  2  0  0  0  0  0  0
  -30.5450  -15.5850   21.2070 C   0  0  0  0  0  2  0  0  0  0  0  0
  -30.9510  -14.6410   20.0640 C   0  0  0  0  0  0  0  0  0  0  0  0
  -30.5620  -12.5260   18.8420 C   0  0  0  0  0  2  0  0  0  0  0  0
  -29.5280  -12.6920   17.7150 C   0  0  0  0  0  2  0  0  0  0  0  0
  -28.0940  -12.5310   18.2560 C   0  0  0  0  0  2  0  0  0  0  0  0
  -27.8340  -13.3950   19.5160 C   0  0  0  0  0  3  0  0  0  0  0  0
  -28.9610  -13.1910   20.5530 C   0  0  0  0  0  2  0  0  0  0  0  0
  -30.2470  -13.4940   19.9000 N   0  0  0  0  0  0  0  0  0  0  0  0
  -31.9110  -14.9410   19.3450 O   0  0  0  0  0  0  0  0  0  0  0  0
  -25.4970  -14.0050   20.4150 C   0  0  0  0  0  0  0  0  0  0  0  0
  -24.4530  -13.2280   20.8440 C   0  0  0  0  0  0  0  0  0  0  0  0
  -24.9000  -11.8750   20.7430 C   0  0  0  0  0  0  0  0  0  0  0  0
  -26.5160  -13.1220   20.0870 N   0  0  0  0  0  0  0  0  0  0  0  0
  -26.1630  -11.8360   20.3370 N   0  0  0  0  0  0  0  0  0  0  0  0
  -24.1830  -10.6120   20.9570 C   0  0  0  0  0  0  0  0  0  0  0  0
  -24.6190   -9.6690   21.9130 C   0  0  0  0  0  3  0  0  0  0  0  0
  -23.9030   -8.4680   22.1120 C   0  0  0  0  0  3  0  0  0  0  0  0
  -22.7370   -8.2050   21.3550 C   0  0  0  0  0  0  0  0  0  0  0  0
  -22.3200   -9.1360   20.3880 C   0  0  0  0  0  3  0  0  0  0  0  0
  -23.0360  -10.3280   20.1880 C   0  0  0  0  0  3  0  0  0  0  0  0
  -21.9920   -7.0540   21.4620 O   0  0  0  0  0  0  0  0  0  0  0  0
  -21.8760   -6.3810   22.6500 C   0  0  0  0  0  0  0  0  0  0  0  0
  -21.3340   -6.9920   23.8020 C   0  0  0  0  0  3  0  0  0  0  0  0
  -21.1670   -6.2420   24.9850 C   0  0  0  0  0  3  0  0  0  0  0  0
  -21.5320   -4.8830   25.0140 C   0  0  0  0  0  0  0  0  0  0  0  0
  -22.0670   -4.2710   23.8670 C   0  0  0  0  0  3  0  0  0  0  0  0
  -22.2350   -5.0190   22.6880 C   0  0  0  0  0  0  0  0  0  0  0  0
  -22.7310   -4.4200   21.5780 F   0  0  0  0  0  0  0  0  0  0  0  0
  -21.3650   -4.1610   26.1460 F   0  0  0  0  0  0  0  0  0  0  0  0
  -23.0850  -13.7060   21.2380 C   0  0  0  0  0  0  0  0  0  0  0  0
  -22.4260  -12.9940   22.1470 N   0  0  0  0  0  0  0  0  0  0  0  0
  -22.6100  -14.7410   20.7740 O   0  0  0  0  0  0  0  0  0  0  0  0
  -22.8230  -12.1560   22.5430 H   0  0  0  0  0  0  0  0  0  0  0  0
  -21.5110  -13.2950   22.4530 H   0  0  0  0  0  0  0  0  0  0  0  0
  -25.6600  -15.3780   20.2610 N   0  0  0  0  0  0  0  0  0  0  0  0
  -24.9130  -16.0390   20.4420 H   0  0  0  0  0  0  0  0  0  0  0  0
  -26.4920  -15.8140   19.8840 H   0  0  0  0  0  0  0  0  0  0  0  0
  2  1  2  0
  3  1  1  0
  4  5  2  0
  4  6  1  0
  5  2  1  0
  6  3  2  0
  7  8  1  0
  7  5  1  0
  8 10  1  0
  9  7  2  0
 11  8  1  0
 12 11  1  0
 13 15  1  0
 13 12  1  0
 14 25  2  0
 15 20  1  0
 16 24  1  0
 16 26  1  0
 17 23  1  0
 17 19  1  0
 18 24  1  0
 19 18  1  0
 20 19  2  0
 21 22  1  0
 21 15  2  0
 22 17  2  0
 23 16  1  0
 24 14  1  0
 26 28  2  0
 27 26  1  0
 29 27  1  0
 30 39  2  0
 30 35  1  0
 31 27  1  0
 31 35  1  0
 32 31  1  0
 33 34  1  0
 33 32  1  0
 34 30  1  0
 35 36  2  0
 36 37  1  0
 38 37  2  0
 39 38  1  0
 40 14  1  0
 40 41  1  0
 40 50  1  0
 41 44  1  0
 42 46  1  0
 42 41  1  0
 43 42  2  0
 46 45  1  0
 48 46  1  0
 48 49  1  0
 48 47  1  0
 50 53  1  1
 50 51  1  0
 52 50  1  0
 54  6  1  0
 55 54  1  0
 55 57  1  0
 56 55  1  0
 58 55  1  0
 59 58  1  0
 60 59  1  0
 61 66  1  0
 62 63  1  0
 62 61  1  0
 64 63  1  0
 64 71  1  0
 64 65  1  0
 66 60  1  0
 66 65  1  0
 67 60  2  0
 68 69  2  0
 69 88  1  0
 70 69  1  0
 70 73  1  0
 71 72  1  0
 71 68  1  0
 72 70  2  0
 73 74  1  0
 74 75  2  0
 76 79  1  0
 76 75  1  0
 77 76  2  0
 78 77  1  0
 78 73  2  0
 79 80  1  0
 80 85  2  0
 80 81  1  0
 81 82  2  0
 82 83  1  0
 83 87  1  0
 84 83  2  0
 85 84  1  0
 86 85  1  0
 88 89  1  0
 89 92  1  0
 89 91  1  0
 90 88  2  0
 93 68  1  0
 93 94  1  0
 95 93  1  0
M  ISO  4  12 101  13 101  59 100  60 100
M  END
>  <TORSDO>  (2) 
F 23

>  <SCORE>  (2) 
-11.132

>  <name>  (2) 
1

>  <ligand_id>  (2) 
1

>  <original_smiles>  (2) 
[H]c1c([H])c([H])c2c(c1[H])C([H])([H])C([H])([H])C([H])([H])C2([H])N([H])C(=O)C1([H])N(C(=O)C([H])(N([H])C(=O)C([H])(N([H])C([H])([H])[H])C([H])([H])[H])C(C([H])([H])[H])(C([H])([H])[H])C([H])([H])[H])C([H])([H])c2c([H])c(OC([H])([H])C([H])([H])N([H])C(=O)c3c([H])c([H])c([H])c(C([H])([H])[N+]([H])([H])C([H])([H])C([H])([H])C(=O)N4C([H])([H])C([H])([H])C([H])([H])C([H])(n5nc(-c6c([H])c([H])c(Oc7c([H])c([H])c(F)c([H])c7F)c([H])c6[H])c(C(=O)N([H])[H])c5N([H])[H])C4([H])[H])c3[H])c([H])c([H])c2C1([H])[H]

>  <smiles>  (2) 
[H]c1c([H])c([H])c2c(c1[H])C([H])([H])C([H])([H])C([H])([H])C2([H])N([H])C(=O)C1([H])N(C(=O)C([H])(N([H])C(=O)C([H])(N([H])C([H])([H])[H])C([H])([H])[H])C(C([H])([H])[H])(C([H])([H])[H])C([H])([H])[H])C([H])([H])c2c([H])c(OC([H])([H])C([H])([H])N([H])C(=O)c3c([H])c([H])c([H])c(C([H])([H])[N+]([H])([H])C([H])([H])C([H])([H])C(=O)N4C([H])([H])C([H])([H])C([H])([H])C([H])(n5nc(-c6c([H])c([H])c(Oc7c([H])c([H])c(F)c([H])c7F)c([H])c6[H])c(C(=O)N([H])[H])c5N([H])[H])C4([H])[H])c3[H])c([H])c([H])c2C1([H])[H]

$$$$
2:0:0
     RDKit          3D

 93101  0  0  1  0  0  0  0  0999 V2000
  -29.7700  -22.3240   21.9030 C   0  0  0  0  0  3  0  0  0  0  0  0
  -29.7040  -20.9190   21.8090 C   0  0  0  0  0  3  0  0  0  0  0  0
  -28.4470  -22.5070   19.8760 C   0  0  0  0  0  3  0  0  0  0  0  0
  -29.1560  -23.1400   20.9240 C   0  0  0  0  0  0  0  0  0  0  0  0
  -28.9850  -20.2880   20.7690 C   0  0  0  0  0  0  0  0  0  0  0  0
  -28.3390  -21.1030   19.8010 C   0  0  0  0  0  0  0  0  0  0  0  0
  -27.5250  -20.5150   18.6580 C   0  0  0  0  0  1  0  0  0  0  0  0
  -29.2620  -24.6360   20.9990 C   0  0  0  0  0  0  0  0  0  0  0  0
  -29.9170  -25.2270   21.8650 O   0  0  0  0  0  0  0  0  0  0  0  0
  -28.4940  -25.4350   19.9280 C   0  0  0  0  0  2  0  0  0  0  0  0
  -28.4940  -26.8410   20.2010 O   0  0  0  0  0  0  0  0  0  0  0  0
  -24.6090  -31.9020   23.2620 C   0  0  0  0  0  0  0  0  0  0  0  0
  -27.2900  -27.5130   20.1710 C   0  0  0  0  0  0  0  0  0  0  0  0
  -23.4040  -30.4990   21.6160 C   0  0  0  0  0  3  0  0  0  0  0  0
  -24.8680  -28.9760   20.1890 C   0  0  0  0  0  0  0  0  0  0  0  0
  -25.9220  -30.8860   21.4090 C   0  0  0  0  0  2  0  0  0  0  0  0
  -26.0190  -29.5170   20.7730 C   0  0  0  0  0  0  0  0  0  0  0  0
  -27.2290  -28.7920   20.7650 C   0  0  0  0  0  3  0  0  0  0  0  0
  -26.1200  -26.9910   19.5630 C   0  0  0  0  0  3  0  0  0  0  0  0
  -24.9120  -27.7080   19.5870 C   0  0  0  0  0  3  0  0  0  0  0  0
  -23.6180  -29.8210   20.2350 C   0  0  0  0  0  2  0  0  0  0  0  0
  -24.6630  -31.1110   22.1550 N   0  0  0  0  0  0  0  0  0  0  0  0
  -23.5300  -32.1650   23.8080 O   0  0  0  0  0  0  0  0  0  0  0  0
  -22.7600  -29.4710   22.5730 C   0  0  0  0  0  0  0  0  0  0  0  0
  -21.4350  -29.2860   22.4490 N   0  0  0  0  0  0  0  0  0  0  0  0
  -23.4520  -28.8430   23.3810 O   0  0  0  0  0  0  0  0  0  0  0  0
  -20.9380  -29.8510   21.7720 H   0  0  0  0  0  0  0  0  0  0  0  0
  -18.0700  -28.0730   22.9400 C   0  0  0  0  0  0  0  0  0  0  0  0
  -20.6250  -28.3410   23.2170 C   0  0  0  0  0  3  0  0  0  0  0  0
  -20.7340  -26.9120   22.6380 C   0  0  0  0  0  2  0  0  0  0  0  0
  -19.6360  -26.5890   21.6200 C   0  0  0  0  0  2  0  0  0  0  0  0
  -18.2540  -26.7250   22.2620 C   0  0  0  0  0  2  0  0  0  0  0  0
  -19.1840  -28.8400   23.3720 C   0  0  0  0  0  0  0  0  0  0  0  0
  -18.9600  -30.1030   23.9600 C   0  0  0  0  0  3  0  0  0  0  0  0
  -17.6530  -30.6000   24.1250 C   0  0  0  0  0  3  0  0  0  0  0  0
  -16.5540  -29.8310   23.7060 C   0  0  0  0  0  3  0  0  0  0  0  0
  -16.7620  -28.5700   23.1210 C   0  0  0  0  0  3  0  0  0  0  0  0
  -25.8970  -32.5330   23.8780 C   0  0  0  0  0  3  0  0  0  0  0  0
  -25.5880  -33.9300   24.2100 N   0  0  0  0  0  0  0  0  0  0  0  0
  -25.9170  -34.9820   23.4490 C   0  0  0  0  0  0  0  0  0  0  0  0
  -26.5810  -34.8800   22.4130 O   0  0  0  0  0  0  0  0  0  0  0  0
  -24.9980  -34.0850   25.0140 H   0  0  0  0  0  0  0  0  0  0  0  0
  -24.1740  -36.7620   23.1060 C   0  0  0  0  0  1  0  0  0  0  0  0
  -25.4270  -36.3680   23.9040 C   0  0  0  0  0  3  0  0  0  0  0  0
  -27.5670  -37.2640   24.7070 C   0  0  0  0  0  1  0  0  0  0  0  0
  -26.4520  -37.4280   23.7790 N   0  0  0  0  0  0  0  0  0  0  0  0
  -26.0390  -38.3430   23.9370 H   0  0  0  0  0  0  0  0  0  0  0  0
  -26.4260  -31.7580   25.1470 C   0  0  1  0  0  0  0  0  0  0  0  0
  -25.3430  -31.5180   26.2210 C   0  0  0  0  0  1  0  0  0  0  0  0
  -27.0070  -30.3830   24.7410 C   0  0  0  0  0  1  0  0  0  0  0  0
  -27.5760  -32.5520   25.8070 C   0  0  0  0  0  1  0  0  0  0  0  0
  -28.9350  -18.7570   20.7240 C   0  0  0  0  0  2  0  0  0  0  0  0
  -29.5200  -18.1660   19.4250 C   0  0  0  0  0  2  0  0  0  0  0  0
  -29.9160  -15.7460   20.2890 C   0  0  0  0  0  3  0  0  0  0  0  0
  -30.2600  -16.8380   19.5510 C   0  0  0  0  0  0  0  0  0  0  0  0
  -30.7210  -14.5180   20.2330 C   0  0  0  0  0  0  0  0  0  0  0  0
  -30.3620  -12.3310   19.2120 C   0  0  0  0  0  2  0  0  0  0  0  0
  -29.4360  -12.5570   17.9980 C   0  0  0  0  0  2  0  0  0  0  0  0
  -27.9540  -12.4800   18.4170 C   0  0  0  0  0  2  0  0  0  0  0  0
  -27.6360  -13.3230   19.6830 C   0  0  0  0  0  3  0  0  0  0  0  0
  -28.6930  -13.1090   20.7880 C   0  0  0  0  0  2  0  0  0  0  0  0
  -30.0220  -13.3500   20.2140 N   0  0  0  0  0  0  0  0  0  0  0  0
  -31.9140  -14.5640   19.9300 O   0  0  0  0  0  0  0  0  0  0  0  0
  -25.2560  -13.9620   20.4150 C   0  0  0  0  0  0  0  0  0  0  0  0
  -24.1820  -13.2030   20.7950 C   0  0  0  0  0  0  0  0  0  0  0  0
  -24.6270  -11.8450   20.7740 C   0  0  0  0  0  0  0  0  0  0  0  0
  -26.2870  -13.0650   20.1790 N   0  0  0  0  0  0  0  0  0  0  0  0
  -25.9160  -11.7880   20.4570 N   0  0  0  0  0  0  0  0  0  0  0  0
  -23.8880  -10.5920   20.9770 C   0  0  0  0  0  0  0  0  0  0  0  0
  -24.3270   -9.6160   21.8990 C   0  0  0  0  0  3  0  0  0  0  0  0
  -23.5850   -8.4290   22.0890 C   0  0  0  0  0  3  0  0  0  0  0  0
  -22.3910   -8.2140   21.3610 C   0  0  0  0  0  0  0  0  0  0  0  0
  -21.9700   -9.1810   20.4300 C   0  0  0  0  0  3  0  0  0  0  0  0
  -22.7130  -10.3570   20.2350 C   0  0  0  0  0  3  0  0  0  0  0  0
  -21.6200   -7.0790   21.4640 O   0  0  0  0  0  0  0  0  0  0  0  0
  -21.5990   -6.3220   22.6100 C   0  0  0  0  0  0  0  0  0  0  0  0
  -21.2500   -6.8720   23.8620 C   0  0  0  0  0  3  0  0  0  0  0  0
  -21.1720   -6.0410   24.9980 C   0  0  0  0  0  3  0  0  0  0  0  0
  -21.4360   -4.6620   24.8830 C   0  0  0  0  0  0  0  0  0  0  0  0
  -21.7830   -4.1140   23.6370 C   0  0  0  0  0  3  0  0  0  0  0  0
  -21.8610   -4.9410   22.5020 C   0  0  0  0  0  0  0  0  0  0  0  0
  -22.1700   -4.4010   21.2980 F   0  0  0  0  0  0  0  0  0  0  0  0
  -21.3570   -3.8640   25.9730 F   0  0  0  0  0  0  0  0  0  0  0  0
  -22.7920  -13.7020   21.0700 C   0  0  0  0  0  0  0  0  0  0  0  0
  -22.0590  -13.0250   21.9450 N   0  0  0  0  0  0  0  0  0  0  0  0
  -22.3660  -14.7280   20.5440 O   0  0  0  0  0  0  0  0  0  0  0  0
  -22.4140  -12.1950   22.3950 H   0  0  0  0  0  0  0  0  0  0  0  0
  -21.1330  -13.3530   22.1750 H   0  0  0  0  0  0  0  0  0  0  0  0
  -25.4440  -15.3290   20.2280 N   0  0  0  0  0  0  0  0  0  0  0  0
  -24.6970  -16.0070   20.3290 H   0  0  0  0  0  0  0  0  0  0  0  0
  -26.3010  -15.7400   19.8800 H   0  0  0  0  0  0  0  0  0  0  0  0
  -31.3490  -16.8950   18.7610 O   0  0  0  0  0  0  0  0  0  0  0  0
  -31.8320  -16.0860   18.8900 H   0  0  0  0  0  0  0  0  0  0  0  0
  2  1  1  0
  3  4  1  0
  4  8  1  0
  4  1  2  0
  5  2  2  0
  6  3  2  0
  6  5  1  0
  7  6  1  0
  8  9  2  0
 10 11  1  0
 10  8  1  0
 12 23  2  0
 13 11  1  0
 13 18  1  0
 14 22  1  0
 14 24  1  0
 15 21  1  0
 15 17  1  0
 16 22  1  0
 17 16  1  0
 18 17  2  0
 19 20  1  0
 19 13  2  0
 20 15  2  0
 21 14  1  0
 22 12  1  0
 24 26  2  0
 25 24  1  0
 27 25  1  0
 28 37  2  0
 28 33  1  0
 29 25  1  0
 29 33  1  0
 30 29  1  0
 31 32  1  0
 31 30  1  0
 32 28  1  0
 33 34  2  0
 34 35  1  0
 36 35  2  0
 37 36  1  0
 38 12  1  0
 38 39  1  0
 38 48  1  0
 39 42  1  0
 40 44  1  0
 40 39  1  0
 41 40  2  0
 44 43  1  0
 46 44  1  0
 46 47  1  0
 46 45  1  0
 48 51  1  1
 48 49  1  0
 50 48  1  0
 52  5  1  0
 53 55  1  0
 53 52  1  0
 55 54  2  0
 56 54  1  0
 57 62  1  0
 58 59  1  0
 58 57  1  0
 60 59  1  0
 60 67  1  0
 60 61  1  0
 62 56  1  0
 62 61  1  0
 63 56  2  0
 64 65  2  0
 65 84  1  0
 66 65  1  0
 66 69  1  0
 67 64  1  0
 67 68  1  0
 68 66  2  0
 69 70  1  0
 70 71  2  0
 72 75  1  0
 72 71  1  0
 73 72  2  0
 74 73  1  0
 74 69  2  0
 75 76  1  0
 76 77  1  0
 77 78  2  0
 79 78  1  0
 79 83  1  0
 80 79  2  0
 81 76  2  0
 81 80  1  0
 82 81  1  0
 84 85  1  0
 85 88  1  0
 85 87  1  0
 86 84  2  0
 89 90  1  0
 89 64  1  0
 91 89  1  0
 92 93  1  0
 92 55  1  0
M  ISO  4  10 101  11 101  54 100  56 100
M  END
>  <TORSDO>  (3) 
F 22

>  <SCORE>  (3) 
-13.495

>  <name>  (3) 
2

>  <ligand_id>  (3) 
2

>  <original_smiles>  (3) 
[H]OC(=C([H])C(=O)N1C([H])([H])C([H])([H])C([H])([H])C([H])(n2nc(-c3c([H])c([H])c(Oc4c([H])c([H])c(F)c([H])c4F)c([H])c3[H])c(C(=O)N([H])[H])c2N([H])[H])C1([H])[H])C([H])([H])C([H])([H])c1c([H])c([H])c(C(=O)C([H])([H])Oc2c([H])c([H])c3c(c2[H])C([H])([H])N(C(=O)C([H])(N([H])C(=O)C([H])(N([H])C([H])([H])[H])C([H])([H])[H])C(C([H])([H])[H])(C([H])([H])[H])C([H])([H])[H])C([H])(C(=O)N([H])C2([H])c4c([H])c([H])c([H])c([H])c4C([H])([H])C([H])([H])C2([H])[H])C3([H])[H])c([H])c1C([H])([H])[H]

>  <smiles>  (3) 
[H]OC(=C([H])C(=O)N1C([H])([H])C([H])([H])C([H])([H])C([H])(n2nc(-c3c([H])c([H])c(Oc4c([H])c([H])c(F)c([H])c4F)c([H])c3[H])c(C(=O)N([H])[H])c2N([H])[H])C1([H])[H])C([H])([H])C([H])([H])c1c([H])c([H])c(C(=O)C([H])([H])Oc2c([H])c([H])c3c(c2[H])C([H])([H])N(C(=O)C([H])(N([H])C(=O)C([H])(N([H])C([H])([H])[H])C([H])([H])[H])C(C([H])([H])[H])(C([H])([H])[H])C([H])([H])[H])C([H])(C(=O)N([H])C2([H])c4c([H])c([H])c([H])c([H])c4C([H])([H])C([H])([H])C2([H])[H])C3([H])[H])c([H])c1C([H])([H])[H]

$$$$
3:0:0
     RDKit          3D

 96105  0  0  1  0  0  0  0  0999 V2000
  -27.8310  -19.5120   20.7210 C   0  0  0  0  0  3  0  0  0  0  0  0
  -28.1650  -20.5360   19.8220 C   0  0  0  0  0  3  0  0  0  0  0  0
  -28.3640  -18.2260   20.5460 C   0  0  0  0  0  3  0  0  0  0  0  0
  -29.5840  -19.0060   18.5780 C   0  0  0  0  0  3  0  0  0  0  0  0
  -29.0310  -20.2950   18.7230 C   0  0  0  0  0  0  0  0  0  0  0  0
  -29.2530  -17.9710   19.4850 C   0  0  0  0  0  0  0  0  0  0  0  0
  -29.2750  -21.3100   17.6810 C   0  0  0  0  0  3  0  0  0  0  0  0
  -28.6250  -22.4910   17.6460 C   0  0  0  0  0  3  0  0  0  0  0  0
  -28.7800  -23.5290   16.6180 C   0  0  0  0  0  0  0  0  0  0  0  0
  -29.7290  -23.6130   15.8300 O   0  0  0  0  0  0  0  0  0  0  0  0
  -27.6020  -24.5030   16.5690 C   0  0  0  0  0  2  0  0  0  0  0  0
  -27.9360  -25.8740   16.8290 O   0  0  0  0  0  0  0  0  0  0  0  0
  -25.6740  -28.6150   23.0000 C   0  0  0  0  0  0  0  0  0  0  0  0
  -26.9360  -26.5700   17.4850 C   0  0  0  0  0  0  0  0  0  0  0  0
  -23.9770  -28.4290   21.2140 C   0  0  0  0  0  3  0  0  0  0  0  0
  -24.8770  -27.9080   18.8870 C   0  0  0  0  0  0  0  0  0  0  0  0
  -26.4550  -28.7330   20.6400 C   0  0  0  0  0  2  0  0  0  0  0  0
  -26.1910  -27.9620   19.3640 C   0  0  0  0  0  0  0  0  0  0  0  0
  -27.2280  -27.2980   18.6620 C   0  0  0  0  0  3  0  0  0  0  0  0
  -25.5970  -26.5570   17.0140 C   0  0  0  0  0  3  0  0  0  0  0  0
  -24.5710  -27.2040   17.7150 C   0  0  0  0  0  3  0  0  0  0  0  0
  -23.8210  -28.6400   19.6850 C   0  0  0  0  0  2  0  0  0  0  0  0
  -25.3990  -28.5700   21.6670 N   0  0  0  0  0  0  0  0  0  0  0  0
  -24.7670  -28.5850   23.8410 O   0  0  0  0  0  0  0  0  0  0  0  0
  -23.3430  -27.0730   21.5990 C   0  0  0  0  0  0  0  0  0  0  0  0
  -22.0180  -26.9580   21.4070 N   0  0  0  0  0  0  0  0  0  0  0  0
  -24.0420  -26.1480   22.0200 O   0  0  0  0  0  0  0  0  0  0  0  0
  -21.5200  -27.7680   21.0670 H   0  0  0  0  0  0  0  0  0  0  0  0
  -18.7170  -25.5360   21.0270 C   0  0  0  0  0  0  0  0  0  0  0  0
  -21.2120  -25.7660   21.6630 C   0  0  0  0  0  3  0  0  0  0  0  0
  -21.4800  -24.6760   20.5990 C   0  0  0  0  0  2  0  0  0  0  0  0
  -20.5020  -24.7300   19.4210 C   0  0  0  0  0  2  0  0  0  0  0  0
  -19.0610  -24.5610   19.9120 C   0  0  0  0  0  2  0  0  0  0  0  0
  -19.7290  -26.1140   21.8390 C   0  0  0  0  0  0  0  0  0  0  0  0
  -19.3600  -27.0440   22.8360 C   0  0  0  0  0  3  0  0  0  0  0  0
  -18.0120  -27.3900   23.0330 C   0  0  0  0  0  3  0  0  0  0  0  0
  -17.0130  -26.8040   22.2390 C   0  0  0  0  0  3  0  0  0  0  0  0
  -17.3640  -25.8790   21.2390 C   0  0  0  0  0  3  0  0  0  0  0  0
  -27.1370  -28.7340   23.5300 C   0  0  0  0  0  3  0  0  0  0  0  0
  -27.1350  -29.7260   24.6150 N   0  0  0  0  0  0  0  0  0  0  0  0
  -27.5870  -30.9800   24.4990 C   0  0  0  0  0  0  0  0  0  0  0  0
  -28.1200  -31.4090   23.4720 O   0  0  0  0  0  0  0  0  0  0  0  0
  -26.6630  -29.4600   25.4670 H   0  0  0  0  0  0  0  0  0  0  0  0
  -26.2090  -32.8370   25.4950 C   0  0  0  0  0  1  0  0  0  0  0  0
  -27.4180  -31.9130   25.7170 C   0  0  0  0  0  3  0  0  0  0  0  0
  -29.7490  -31.9320   26.4830 C   0  0  0  0  0  1  0  0  0  0  0  0
  -28.6200  -32.7240   26.0040 N   0  0  0  0  0  0  0  0  0  0  0  0
  -28.4140  -33.4360   26.7000 H   0  0  0  0  0  0  0  0  0  0  0  0
  -27.7320  -27.3600   24.0280 C   0  0  1  0  0  0  0  0  0  0  0  0
  -26.8190  -26.6010   25.0180 C   0  0  0  0  0  1  0  0  0  0  0  0
  -28.0060  -26.4220   22.8300 C   0  0  0  0  0  1  0  0  0  0  0  0
  -29.0900  -27.5990   24.7280 C   0  0  0  0  0  1  0  0  0  0  0  0
  -29.7470  -16.5630   19.2440 C   0  0  0  0  0  2  0  0  0  0  0  0
  -33.4320  -17.0020   20.3880 C   0  0  0  0  0  2  0  0  0  0  0  0
  -33.5660  -16.9340   18.8600 C   0  0  0  0  0  2  0  0  0  0  0  0
  -31.9260  -16.9890   20.6810 C   0  0  0  0  0  2  0  0  0  0  0  0
  -32.1470  -16.7540   18.3040 C   0  0  0  0  0  2  0  0  0  0  0  0
  -31.2630  -16.2760   19.4710 C   0  0  2  0  0  0  0  0  0  0  0  0
  -31.6740  -13.8510   18.8540 C   0  0  0  0  0  0  0  0  0  0  0  0
  -31.3150  -11.4150   18.5590 C   0  0  0  0  0  2  0  0  0  0  0  0
  -30.2370  -11.0900   17.5070 C   0  0  0  0  0  2  0  0  0  0  0  0
  -28.8320  -11.1160   18.1320 C   0  0  0  0  0  2  0  0  0  0  0  0
  -28.5730  -12.4290   18.9170 C   0  0  0  0  0  3  0  0  0  0  0  0
  -29.7310  -12.6670   19.9100 C   0  0  0  0  0  2  0  0  0  0  0  0
  -31.0040  -12.7140   19.1660 N   0  0  0  0  0  0  0  0  0  0  0  0
  -32.4920  -13.9470   17.9290 O   0  0  0  0  0  0  0  0  0  0  0  0
  -31.3890  -14.8400   19.7110 N   0  0  0  0  0  0  0  0  0  0  0  0
  -30.8370  -14.5050   20.4870 H   0  0  0  0  0  0  0  0  0  0  0  0
  -26.4730  -13.4500   20.0150 C   0  0  0  0  0  0  0  0  0  0  0  0
  -25.3470  -12.8710   20.5430 C   0  0  0  0  0  0  0  0  0  0  0  0
  -25.5350  -11.4610   20.4250 C   0  0  0  0  0  0  0  0  0  0  0  0
  -27.2820  -12.4010   19.6030 N   0  0  0  0  0  0  0  0  0  0  0  0
  -26.7260  -11.2000   19.9030 N   0  0  0  0  0  0  0  0  0  0  0  0
  -24.6310  -10.3460   20.7200 C   0  0  0  0  0  0  0  0  0  0  0  0
  -24.8750   -9.4650   21.7990 C   0  0  0  0  0  3  0  0  0  0  0  0
  -23.9790   -8.4090   22.0780 C   0  0  0  0  0  3  0  0  0  0  0  0
  -22.8280   -8.2280   21.2730 C   0  0  0  0  0  0  0  0  0  0  0  0
  -22.6080   -9.0890   20.1860 C   0  0  0  0  0  3  0  0  0  0  0  0
  -23.5000  -10.1360   19.9090 C   0  0  0  0  0  3  0  0  0  0  0  0
  -21.9180   -7.2120   21.4510 O   0  0  0  0  0  0  0  0  0  0  0  0
  -21.5620   -6.7710   22.7020 C   0  0  0  0  0  0  0  0  0  0  0  0
  -20.9070   -7.6100   23.6270 C   0  0  0  0  0  3  0  0  0  0  0  0
  -20.4900   -7.0950   24.8720 C   0  0  0  0  0  3  0  0  0  0  0  0
  -20.7250   -5.7430   25.1880 C   0  0  0  0  0  0  0  0  0  0  0  0
  -21.3740   -4.9060   24.2640 C   0  0  0  0  0  3  0  0  0  0  0  0
  -21.7860   -5.4170   23.0220 C   0  0  0  0  0  0  0  0  0  0  0  0
  -22.3880   -4.6000   22.1230 F   0  0  0  0  0  0  0  0  0  0  0  0
  -20.3220   -5.2470   26.3810 F   0  0  0  0  0  0  0  0  0  0  0  0
  -24.1270  -13.5840   21.0540 C   0  0  0  0  0  0  0  0  0  0  0  0
  -23.4960  -13.0400   22.0890 N   0  0  0  0  0  0  0  0  0  0  0  0
  -23.7520  -14.6520   20.5730 O   0  0  0  0  0  0  0  0  0  0  0  0
  -23.8070  -12.1600   22.4840 H   0  0  0  0  0  0  0  0  0  0  0  0
  -22.6940  -13.4960   22.4960 H   0  0  0  0  0  0  0  0  0  0  0  0
  -26.8790  -14.7660   19.8280 N   0  0  0  0  0  0  0  0  0  0  0  0
  -26.3090  -15.5660   20.0740 H   0  0  0  0  0  0  0  0  0  0  0  0
  -27.7600  -15.0270   19.4010 H   0  0  0  0  0  0  0  0  0  0  0  0
  2  1  2  0
  3  1  1  0
  4  5  2  0
  4  6  1  0
  5  2  1  0
  6  3  2  0
  7  5  1  0
  8  7  2  0
  9  8  1  0
 10  9  2  0
 11  9  1  0
 11 12  1  0
 12 14  1  0
 13 24  2  0
 14 19  1  0
 15 25  1  0
 15 23  1  0
 16 18  1  0
 16 22  1  0
 17 23  1  0
 18 17  1  0
 19 18  2  0
 20 14  2  0
 20 21  1  0
 21 16  2  0
 22 15  1  0
 23 13  1  0
 25 27  2  0
 26 25  1  0
 28 26  1  0
 29 38  2  0
 29 34  1  0
 30 26  1  0
 30 34  1  0
 31 30  1  0
 32 33  1  0
 32 31  1  0
 33 29  1  0
 34 35  2  0
 35 36  1  0
 37 36  2  0
 38 37  1  0
 39 13  1  0
 39 49  1  0
 39 40  1  0
 40 43  1  0
 41 40  1  0
 41 45  1  0
 42 41  2  0
 45 44  1  0
 45 47  1  0
 47 46  1  0
 47 48  1  0
 49 52  1  1
 49 50  1  0
 51 49  1  0
 58 53  1  6
 53  6  1  0
 54 56  1  0
 55 54  1  0
 57 55  1  0
 57 58  1  0
 58 67  1  0
 58 56  1  0
 59 65  1  0
 59 67  1  0
 60 65  1  0
 61 62  1  0
 61 60  1  0
 63 62  1  0
 63 72  1  0
 63 64  1  0
 65 64  1  0
 66 59  2  0
 67 68  1  0
 69 70  2  0
 70 89  1  0
 71 70  1  0
 71 74  1  0
 72 73  1  0
 72 69  1  0
 73 71  2  0
 74 75  1  0
 75 76  2  0
 77 80  1  0
 77 76  1  0
 78 77  2  0
 79 78  1  0
 79 74  2  0
 80 81  1  0
 81 86  2  0
 81 82  1  0
 82 83  2  0
 83 84  1  0
 84 88  1  0
 85 84  2  0
 86 85  1  0
 87 86  1  0
 89 90  1  0
 90 92  1  0
 90 93  1  0
 91 89  2  0
 94 69  1  0
 94 95  1  0
 96 94  1  0
M  ISO  4  11 101  12 101  59 100  67 100
M  END
>  <TORSDO>  (4) 
F 21

>  <SCORE>  (4) 
-6.530

>  <name>  (4) 
3

>  <ligand_id>  (4) 
3

>  <original_smiles>  (4) 
[H]C(C(=O)C([H])([H])Oc1c([H])c([H])c2c(c1[H])C([H])([H])N(C(=O)C([H])(N([H])C(=O)C([H])(N([H])C([H])([H])[H])C([H])([H])[H])C(C([H])([H])[H])(C([H])([H])[H])C([H])([H])[H])C([H])(C(=O)N([H])C1([H])c3c([H])c([H])c([H])c([H])c3C([H])([H])C([H])([H])C1([H])[H])C2([H])[H])=C([H])c1c([H])c([H])c([H])c(C([H])([H])C2(N([H])C(=O)N3C([H])([H])C([H])([H])C([H])([H])C([H])(n4nc(-c5c([H])c([H])c(Oc6c([H])c([H])c(F)c([H])c6F)c([H])c5[H])c(C(=O)N([H])[H])c4N([H])[H])C3([H])[H])C([H])([H])C([H])([H])C([H])([H])C2([H])[H])c1[H]

>  <smiles>  (4) 
[H]C(C(=O)C([H])([H])Oc1c([H])c([H])c2c(c1[H])C([H])([H])N(C(=O)C([H])(N([H])C(=O)C([H])(N([H])C([H])([H])[H])C([H])([H])[H])C(C([H])([H])[H])(C([H])([H])[H])C([H])([H])[H])C([H])(C(=O)N([H])C1([H])c3c([H])c([H])c([H])c([H])c3C([H])([H])C([H])([H])C1([H])[H])C2([H])[H])=C([H])c1c([H])c([H])c([H])c(C([H])([H])C2(N([H])C(=O)N3C([H])([H])C([H])([H])C([H])([H])C([H])(n4nc(-c5c([H])c([H])c(Oc6c([H])c([H])c(F)c([H])c6F)c([H])c5[H])c(C(=O)N([H])[H])c4N([H])[H])C3([H])[H])C([H])([H])C([H])([H])C([H])([H])C2([H])[H])c1[H]

$$$$
4:0:0
     RDKit          3D

 85 92  0  0  1  0  0  0  0  0999 V2000
  -28.0230  -23.9770   20.2610 C   0  0  0  0  0  3  0  0  0  0  0  0
  -28.8800  -22.6940   20.2500 C   0  0  0  0  0  0  0  0  0  0  0  0
  -28.6460  -20.8920   20.2780 C   0  0  0  0  0  0  0  0  0  0  0  0
  -27.4560  -20.5820   20.3510 O   0  0  0  0  0  0  0  0  0  0  0  0
  -29.6620  -19.3180   20.2270 C   0  0  0  0  0  3  0  0  0  0  0  0
  -29.4240  -17.3890   20.3560 C   0  0  0  0  0  3  0  0  0  0  0  0
  -30.3080  -15.7400   20.1650 C   0  0  0  0  0  0  0  0  0  0  0  0
  -30.4510  -13.1910   19.3410 C   0  0  0  0  0  2  0  0  0  0  0  0
  -29.5360  -12.8180   18.1360 C   0  0  0  0  0  2  0  0  0  0  0  0
  -28.1180  -12.4520   18.6070 C   0  0  0  0  0  2  0  0  0  0  0  0
  -27.6260  -13.4310   19.6960 C   0  0  0  0  0  3  0  0  0  0  0  0
  -28.6740  -13.7190   20.7920 C   0  0  0  0  0  2  0  0  0  0  0  0
  -29.8460  -14.3490   20.1420 N   0  0  0  0  0  0  0  0  0  0  0  0
  -31.5290  -15.7120   19.9140 O   0  0  0  0  0  0  0  0  0  0  0  0
  -25.2800  -13.9270   20.5360 C   0  0  0  0  0  0  0  0  0  0  0  0
  -24.2360  -13.1310   20.9120 C   0  0  0  0  0  0  0  0  0  0  0  0
  -24.7150  -11.7870   20.8400 C   0  0  0  0  0  0  0  0  0  0  0  0
  -26.3240  -13.0700   20.2410 N   0  0  0  0  0  0  0  0  0  0  0  0
  -26.0000  -11.7730   20.4920 N   0  0  0  0  0  0  0  0  0  0  0  0
  -24.0010  -10.5150   21.0200 C   0  0  0  0  0  0  0  0  0  0  0  0
  -24.4340   -9.5480   21.9550 C   0  0  0  0  0  3  0  0  0  0  0  0
  -23.7150   -8.3450   22.1260 C   0  0  0  0  0  3  0  0  0  0  0  0
  -22.5490   -8.0990   21.3630 C   0  0  0  0  0  0  0  0  0  0  0  0
  -22.1350   -9.0550   20.4180 C   0  0  0  0  0  3  0  0  0  0  0  0
  -22.8550  -10.2490   20.2450 C   0  0  0  0  0  3  0  0  0  0  0  0
  -21.8020   -6.9480   21.4430 O   0  0  0  0  0  0  0  0  0  0  0  0
  -21.7120   -6.2270   22.6070 C   0  0  0  0  0  0  0  0  0  0  0  0
  -21.2030   -6.7930   23.7960 C   0  0  0  0  0  3  0  0  0  0  0  0
  -21.0620   -5.9970   24.9500 C   0  0  0  0  0  3  0  0  0  0  0  0
  -21.4220   -4.6370   24.9160 C   0  0  0  0  0  0  0  0  0  0  0  0
  -21.9250   -4.0700   23.7320 C   0  0  0  0  0  3  0  0  0  0  0  0
  -22.0660   -4.8630   22.5800 C   0  0  0  0  0  0  0  0  0  0  0  0
  -22.5310   -4.3060   21.4350 F   0  0  0  0  0  0  0  0  0  0  0  0
  -21.2810   -3.8700   26.0230 F   0  0  0  0  0  0  0  0  0  0  0  0
  -22.8420  -13.5910   21.2220 C   0  0  0  0  0  0  0  0  0  0  0  0
  -22.1420  -12.8790   22.0970 N   0  0  0  0  0  0  0  0  0  0  0  0
  -22.3850  -14.6190   20.7240 O   0  0  0  0  0  0  0  0  0  0  0  0
  -22.5270  -12.0490   22.5220 H   0  0  0  0  0  0  0  0  0  0  0  0
  -21.2080  -13.1690   22.3470 H   0  0  0  0  0  0  0  0  0  0  0  0
  -25.4250  -15.3030   20.3860 N   0  0  0  0  0  0  0  0  0  0  0  0
  -24.6580  -15.9480   20.5400 H   0  0  0  0  0  0  0  0  0  0  0  0
  -26.2660  -15.7610   20.0570 H   0  0  0  0  0  0  0  0  0  0  0  0
  -30.1910  -22.9600   20.2150 O   0  0  0  0  0  0  0  0  0  0  0  0
  -30.2810  -23.9050   20.2050 H   0  0  0  0  0  0  0  0  0  0  0  0
  -28.2010  -25.5860   20.2610 O   0  0  0  0  0  0  0  0  0  0  0  0
  -24.6880  -31.8950   23.1840 C   0  0  0  0  0  0  0  0  0  0  0  0
  -27.2150  -26.7920   20.2350 C   0  0  0  0  0  0  0  0  0  0  0  0
  -23.4990  -30.4840   21.5600 C   0  0  0  0  0  3  0  0  0  0  0  0
  -24.9450  -28.8240   20.1610 C   0  0  0  0  0  0  0  0  0  0  0  0
  -26.0760  -30.6240   21.4360 C   0  0  0  0  0  2  0  0  0  0  0  0
  -26.1400  -29.1850   20.7950 C   0  0  0  0  0  0  0  0  0  0  0  0
  -27.2570  -28.1950   20.8020 C   0  0  0  0  0  3  0  0  0  0  0  0
  -25.9890  -26.6450   19.5380 C   0  0  0  0  0  3  0  0  0  0  0  0
  -24.9070  -27.5790   19.5090 C   0  0  0  0  0  3  0  0  0  0  0  0
  -23.7380  -29.7750   20.1960 C   0  0  0  0  0  2  0  0  0  0  0  0
  -24.7780  -31.0350   22.1130 N   0  0  0  0  0  0  0  0  0  0  0  0
  -23.5960  -32.1990   23.6940 O   0  0  0  0  0  0  0  0  0  0  0  0
  -22.7840  -29.5150   22.5400 C   0  0  0  0  0  0  0  0  0  0  0  0
  -21.4510  -29.3580   22.4170 N   0  0  0  0  0  0  0  0  0  0  0  0
  -23.4400  -28.9000   23.3840 O   0  0  0  0  0  0  0  0  0  0  0  0
  -20.9710  -29.9040   21.7150 H   0  0  0  0  0  0  0  0  0  0  0  0
  -18.0640  -28.1530   22.9490 C   0  0  0  0  0  0  0  0  0  0  0  0
  -20.6250  -28.4280   23.1990 C   0  0  0  0  0  3  0  0  0  0  0  0
  -20.7250  -26.9910   22.6360 C   0  0  0  0  0  2  0  0  0  0  0  0
  -19.6210  -26.6590   21.6280 C   0  0  0  0  0  2  0  0  0  0  0  0
  -18.2410  -26.8030   22.2760 C   0  0  0  0  0  2  0  0  0  0  0  0
  -19.1820  -28.9240   23.3680 C   0  0  0  0  0  0  0  0  0  0  0  0
  -18.9590  -30.1840   23.9640 C   0  0  0  0  0  3  0  0  0  0  0  0
  -17.6520  -30.6760   24.1400 C   0  0  0  0  0  3  0  0  0  0  0  0
  -16.5490  -29.9050   23.7340 C   0  0  0  0  0  3  0  0  0  0  0  0
  -16.7560  -28.6450   23.1450 C   0  0  0  0  0  3  0  0  0  0  0  0
  -25.9520  -32.5510   23.8180 C   0  0  0  0  0  3  0  0  0  0  0  0
  -26.4680  -31.7860   25.1010 C   0  0  1  0  0  0  0  0  0  0  0  0
  -25.3750  -31.5510   26.1700 C   0  0  0  0  0  1  0  0  0  0  0  0
  -27.0540  -30.4060   24.7260 C   0  0  0  0  0  1  0  0  0  0  0  0
  -27.6180  -32.5840   25.7590 C   0  0  0  0  0  1  0  0  0  0  0  0
  -25.6200  -33.9460   24.1710 N   0  0  0  0  0  0  0  0  0  0  0  0
  -25.9090  -35.0210   23.4250 C   0  0  0  0  0  0  0  0  0  0  0  0
  -26.5390  -34.9450   22.3680 O   0  0  0  0  0  0  0  0  0  0  0  0
  -25.0510  -34.0770   24.9950 H   0  0  0  0  0  0  0  0  0  0  0  0
  -24.1310  -36.7950   23.1960 C   0  0  0  0  0  1  0  0  0  0  0  0
  -25.4250  -36.3990   23.9270 C   0  0  0  0  0  3  0  0  0  0  0  0
  -27.5830  -37.3260   24.6490 C   0  0  0  0  0  1  0  0  0  0  0  0
  -26.4300  -37.4740   23.7660 N   0  0  0  0  0  0  0  0  0  0  0  0
  -26.0130  -38.3850   23.9390 H   0  0  0  0  0  0  0  0  0  0  0  0
  2  1  2  0
  2  3  1  0
  3  4  2  0
  5  3  1  0
  5  6  2  0
  7  6  1  0
  8 13  1  0
  9 10  1  0
  9  8  1  0
 11 10  1  0
 11 18  1  0
 11 12  1  0
 13  7  1  0
 13 12  1  0
 14  7  2  0
 15 16  2  0
 16 35  1  0
 17 16  1  0
 17 20  1  0
 18 19  1  0
 18 15  1  0
 19 17  2  0
 20 21  1  0
 21 22  2  0
 23 26  1  0
 23 22  1  0
 24 23  2  0
 25 24  1  0
 25 20  2  0
 26 27  1  0
 27 28  1  0
 28 29  2  0
 30 29  1  0
 30 34  1  0
 31 30  2  0
 32 27  2  0
 32 31  1  0
 33 32  1  0
 35 36  1  0
 36 39  1  0
 36 38  1  0
 37 35  2  0
 40 15  1  0
 40 41  1  0
 42 40  1  0
 43  2  1  0
 44 43  1  0
 45  1  1  0
 46 57  2  0
 47 45  1  0
 47 52  1  0
 48 56  1  0
 48 58  1  0
 49 55  1  0
 49 51  1  0
 50 56  1  0
 51 52  2  0
 51 50  1  0
 53 47  2  0
 54 53  1  0
 54 49  2  0
 55 48  1  0
 56 46  1  0
 58 60  2  0
 59 58  1  0
 61 59  1  0
 62 71  2  0
 62 67  1  0
 63 59  1  0
 63 67  1  0
 64 63  1  0
 65 66  1  0
 65 64  1  0
 66 62  1  0
 67 68  2  0
 68 69  1  0
 70 69  2  0
 71 70  1  0
 72 46  1  0
 72 77  1  0
 72 73  1  0
 73 76  1  1
 73 74  1  0
 75 73  1  0
 77 80  1  0
 78 82  1  0
 78 77  1  0
 79 78  2  0
 82 81  1  0
 84 82  1  0
 84 85  1  0
 84 83  1  0
M  ISO  4   1 101   6 100   7 100  45 101
M  END
>  <TORSDO>  (5) 
F 20

>  <SCORE>  (5) 
-15.175

>  <name>  (5) 
4

>  <ligand_id>  (5) 
4

>  <original_smiles>  (5) 
[H]OC(C(=O)C([H])([H])C([H])([H])C(=O)N1C([H])([H])C([H])([H])C([H])([H])C([H])(n2nc(-c3c([H])c([H])c(Oc4c([H])c([H])c(F)c([H])c4F)c([H])c3[H])c(C(=O)N([H])[H])c2N([H])[H])C1([H])[H])=C([H])Oc1c([H])c([H])c2c(c1[H])C([H])([H])N(C(=O)C([H])(N([H])C(=O)C([H])(N([H])C([H])([H])[H])C([H])([H])[H])C(C([H])([H])[H])(C([H])([H])[H])C([H])([H])[H])C([H])(C(=O)N([H])C1([H])c3c([H])c([H])c([H])c([H])c3C([H])([H])C([H])([H])C1([H])[H])C2([H])[H]

>  <smiles>  (5) 
[H]OC(C(=O)C([H])([H])C([H])([H])C(=O)N1C([H])([H])C([H])([H])C([H])([H])C([H])(n2nc(-c3c([H])c([H])c(Oc4c([H])c([H])c(F)c([H])c4F)c([H])c3[H])c(C(=O)N([H])[H])c2N([H])[H])C1([H])[H])=C([H])Oc1c([H])c([H])c2c(c1[H])C([H])([H])N(C(=O)C([H])(N([H])C(=O)C([H])(N([H])C([H])([H])[H])C([H])([H])[H])C(C([H])([H])[H])(C([H])([H])[H])C([H])([H])[H])C([H])(C(=O)N([H])C1([H])c3c([H])c([H])c([H])c([H])c3C([H])([H])C([H])([H])C1([H])[H])C2([H])[H]

$$$$
5:0:0
     RDKit          3D

 96101  0  0  1  0  0  0  0  0999 V2000
  -21.4840  -23.2710   21.0490 C   0  0  0  0  0  3  0  0  0  0  0  0
  -22.5190  -22.2360   20.6070 C   0  0  0  0  0  3  0  0  0  0  0  0
  -22.9730  -24.8670   20.8230 C   0  0  0  0  0  3  0  0  0  0  0  0
  -21.4960  -24.7750   21.0830 C   0  0  0  0  0  3  0  0  0  0  0  0
  -23.9320  -22.3870   20.1680 C   0  0  0  0  0  0  0  0  0  0  0  0
  -24.0330  -23.8530   20.3940 C   0  0  0  0  0  0  0  0  0  0  0  0
  -25.4040  -24.4370   20.1010 C   0  0  0  0  0  1  0  0  0  0  0  0
  -25.1270  -21.2730   19.2910 C   0  0  0  0  0  2  0  0  0  0  0  0
  -25.8100  -19.5670   19.1770 C   0  0  0  0  0  0  0  0  0  0  0  0
  -24.9130  -18.7240   19.2720 O   0  0  0  0  0  0  0  0  0  0  0  0
  -27.5640  -18.8010   18.9660 C   0  0  0  0  0  3  0  0  0  0  0  0
  -28.4270  -19.9490   19.2930 N   0  0  0  0  0  4  0  0  0  0  0  0
  -28.3930  -20.1330   20.2800 H   0  0  0  0  0  0  0  0  0  0  0  0
  -28.1180  -20.7700   18.8080 H   0  0  0  0  0  0  0  0  0  0  0  0
  -29.3790  -19.7710   19.0300 H   0  0  0  0  0  0  0  0  0  0  0  0
  -28.4640  -17.2580   19.6290 C   0  0  0  0  0  2  0  0  0  0  0  0
  -30.0410  -16.2720   19.6450 C   0  0  0  0  0  0  0  0  0  0  0  0
  -31.0890  -13.8050   19.7070 C   0  0  0  0  0  2  0  0  0  0  0  0
  -30.4840  -12.8940   18.5910 C   0  0  0  0  0  2  0  0  0  0  0  0
  -29.0320  -12.4770   18.9140 C   0  0  0  0  0  2  0  0  0  0  0  0
  -28.2500  -13.6760   19.4970 C   0  0  0  0  0  3  0  0  0  0  0  0
  -28.9850  -14.2940   20.6840 C   0  0  0  0  0  2  0  0  0  0  0  0
  -30.1200  -14.9210   20.0720 N   0  0  0  0  0  0  0  0  0  0  0  0
  -31.1950  -16.6270   19.2820 O   0  0  0  0  0  0  0  0  0  0  0  0
  -25.8280  -14.2500   19.9720 C   0  0  0  0  0  0  0  0  0  0  0  0
  -24.7850  -13.4890   20.4000 C   0  0  0  0  0  0  0  0  0  0  0  0
  -25.3040  -12.1680   20.5590 C   0  0  0  0  0  0  0  0  0  0  0  0
  -26.9040  -13.3850   19.8910 N   0  0  0  0  0  0  0  0  0  0  0  0
  -26.6040  -12.1390   20.3150 N   0  0  0  0  0  0  0  0  0  0  0  0
  -24.6250  -10.9100   20.8540 C   0  0  0  0  0  0  0  0  0  0  0  0
  -24.9020  -10.1770   22.0270 C   0  0  0  0  0  3  0  0  0  0  0  0
  -24.2140   -8.9740   22.2890 C   0  0  0  0  0  3  0  0  0  0  0  0
  -23.2420   -8.5010   21.3760 C   0  0  0  0  0  0  0  0  0  0  0  0
  -22.9950   -9.2230   20.1960 C   0  0  0  0  0  3  0  0  0  0  0  0
  -23.6820  -10.4160   19.9330 C   0  0  0  0  0  3  0  0  0  0  0  0
  -22.5450   -7.3310   21.5350 O   0  0  0  0  0  0  0  0  0  0  0  0
  -22.0870   -6.9310   22.7630 C   0  0  0  0  0  0  0  0  0  0  0  0
  -21.2680   -7.7600   23.5600 C   0  0  0  0  0  3  0  0  0  0  0  0
  -20.7640   -7.2810   24.7860 C   0  0  0  0  0  3  0  0  0  0  0  0
  -21.0700   -5.9740   25.2110 C   0  0  0  0  0  0  0  0  0  0  0  0
  -21.8810   -5.1460   24.4160 C   0  0  0  0  0  3  0  0  0  0  0  0
  -22.3860   -5.6230   23.1940 C   0  0  0  0  0  0  0  0  0  0  0  0
  -23.1510   -4.8150   22.4210 F   0  0  0  0  0  0  0  0  0  0  0  0
  -20.5780   -5.5110   26.3830 F   0  0  0  0  0  0  0  0  0  0  0  0
  -23.3650  -13.9400   20.5330 C   0  0  0  0  0  0  0  0  0  0  0  0
  -22.6370  -13.3860   21.4930 N   0  0  0  0  0  0  0  0  0  0  0  0
  -22.9100  -14.8280   19.8120 O   0  0  0  0  0  0  0  0  0  0  0  0
  -23.0230  -12.6730   22.0950 H   0  0  0  0  0  0  0  0  0  0  0  0
  -21.6810  -13.6780   21.6310 H   0  0  0  0  0  0  0  0  0  0  0  0
  -25.9240  -15.5890   19.6130 N   0  0  0  0  0  0  0  0  0  0  0  0
  -25.0970  -16.1760   19.5950 H   0  0  0  0  0  0  0  0  0  0  0  0
  -26.6890  -15.9660   19.0730 H   0  0  0  0  0  0  0  0  0  0  0  0
  -20.0670  -26.1580   21.0670 C   0  0  0  0  0  1  0  0  0  0  0  0
  -20.5030  -28.2390   19.0200 C   0  0  0  0  0  2  0  0  0  0  0  0
  -22.4300  -28.3270   18.2810 C   0  0  0  0  0  1  0  0  0  0  0  0
  -24.1820  -27.8150   18.5440 O   0  0  0  0  0  0  0  0  0  0  0  0
  -24.8220  -30.9430   22.9820 C   0  0  0  0  0  0  0  0  0  0  0  0
  -25.5180  -28.1520   18.0630 C   0  0  0  0  0  3  0  0  0  0  0  0
  -23.3920  -30.7410   21.0200 C   0  0  0  0  0  3  0  0  0  0  0  0
  -24.5640  -30.4270   18.7150 C   0  0  0  0  0  3  0  0  0  0  0  0
  -25.9270  -30.7390   20.7620 C   0  0  0  0  0  2  0  0  0  0  0  0
  -25.6580  -30.0110   19.4700 C   0  0  0  0  0  3  0  0  0  0  0  0
  -26.3200  -28.8590   19.0150 C   0  0  0  0  0  2  0  0  0  0  0  0
  -25.2520  -28.8860   16.9430 C   0  0  0  0  0  2  0  0  0  0  0  0
  -24.5120  -30.0140   17.3460 C   0  0  0  0  0  2  0  0  0  0  0  0
  -23.4500  -31.1130   19.4860 C   0  0  0  0  0  2  0  0  0  0  0  0
  -24.7370  -30.8540   21.6310 N   0  0  0  0  0  0  0  0  0  0  0  0
  -23.8060  -31.0300   23.6890 O   0  0  0  0  0  0  0  0  0  0  0  0
  -22.8640  -29.3300   21.4150 C   0  0  0  0  0  0  0  0  0  0  0  0
  -21.7070  -29.1880   22.0140 N   0  0  0  0  0  0  0  0  0  0  0  0
  -23.5420  -28.3210   21.2850 O   0  0  0  0  0  0  0  0  0  0  0  0
  -21.1830  -30.0120   22.2720 H   0  0  0  0  0  0  0  0  0  0  0  0
  -18.1300  -28.6580   21.7670 C   0  0  0  0  0  0  0  0  0  0  0  0
  -20.9400  -27.9170   21.9140 C   0  0  0  0  0  2  0  0  0  0  0  0
  -21.2070  -26.9430   20.1540 C   0  0  0  0  0  2  0  0  0  0  0  0
  -19.1840  -27.2460   18.8880 C   0  0  0  0  0  1  0  0  0  0  0  0
  -17.8580  -28.1480   20.0990 C   0  0  0  0  0  1  0  0  0  0  0  0
  -19.4490  -28.5990   22.4840 C   0  0  0  0  0  0  0  0  0  0  0  0
  -19.5240  -29.3140   23.7570 C   0  0  0  0  0  3  0  0  0  0  0  0
  -18.4480  -29.9480   24.4360 C   0  0  0  0  0  3  0  0  0  0  0  0
  -17.1750  -29.8480   23.8660 C   0  0  0  0  0  3  0  0  0  0  0  0
  -17.0410  -29.2230   22.5810 C   0  0  0  0  0  3  0  0  0  0  0  0
  -26.2030  -30.9640   23.6830 C   0  0  0  0  0  3  0  0  0  0  0  0
  -26.5020  -29.6550   24.5060 C   0  0  1  0  0  0  0  0  0  0  0  0
  -25.3680  -29.2470   25.4740 C   0  0  0  0  0  1  0  0  0  0  0  0
  -26.7690  -28.4510   23.5720 C   0  0  0  0  0  1  0  0  0  0  0  0
  -27.7930  -29.8600   25.3310 C   0  0  0  0  0  1  0  0  0  0  0  0
  -26.2000  -32.1440   24.5500 N   0  0  0  0  0  0  0  0  0  0  0  0
  -26.8390  -33.2850   24.2700 C   0  0  0  0  0  0  0  0  0  0  0  0
  -27.5770  -33.4160   23.2880 O   0  0  0  0  0  0  0  0  0  0  0  0
  -25.5820  -32.1220   25.3490 H   0  0  0  0  0  0  0  0  0  0  0  0
  -25.7500  -35.5290   24.5730 C   0  0  0  0  0  1  0  0  0  0  0  0
  -26.6370  -34.4630   25.2370 C   0  0  0  0  0  3  0  0  0  0  0  0
  -28.6910  -34.1990   26.5530 C   0  0  0  0  0  1  0  0  0  0  0  0
  -27.9050  -35.0740   25.6860 N   0  0  0  0  0  0  0  0  0  0  0  0
  -27.7290  -35.9390   26.1880 H   0  0  0  0  0  0  0  0  0  0  0  0
  1  4  1  0
  2  1  2  0
  3  4  2  0
  5  6  2  0
  5  2  1  0
  6  3  1  0
  7  6  1  0
  8  5  1  0
  9 10  2  0
  9  8  1  0
 11  9  1  0
 11 12  1  0
 11 16  1  0
 12 13  1  0
 14 12  1  0
 15 12  1  0
 16 17  1  0
 17 23  1  0
 18 23  1  0
 19 20  1  0
 19 18  1  0
 21 20  1  0
 21 28  1  0
 21 22  1  0
 23 22  1  0
 24 17  2  0
 25 26  2  0
 26 45  1  0
 26 27  1  0
 27 30  1  0
 28 25  1  0
 28 29  1  0
 29 27  2  0
 30 31  1  0
 31 32  2  0
 33 36  1  0
 33 32  1  0
 34 33  2  0
 35 34  1  0
 35 30  2  0
 36 37  1  0
 37 42  2  0
 37 38  1  0
 38 39  2  0
 39 40  1  0
 40 44  1  0
 41 40  2  0
 42 41  1  0
 43 42  1  0
 45 46  1  0
 46 49  1  0
 46 48  1  0
 47 45  2  0
 50 25  1  0
 51 50  1  0
 52 50  1  0
 54 75  1  0
 55 56  1  0
 57 68  2  0
 58 56  1  0
 58 63  1  0
 59 69  1  0
 59 67  1  0
 60 65  1  0
 60 62  1  0
 60 66  1  0
 61 67  1  0
 62 63  1  0
 62 61  1  0
 64 65  1  0
 64 58  1  0
 66 59  1  0
 67 57  1  0
 69 70  1  0
 70 72  1  0
 71 69  2  0
 73 78  2  0
 73 82  1  0
 74 70  1  0
 74 78  1  0
 75 53  1  0
 76 54  1  0
 77 73  1  0
 78 79  1  0
 79 80  2  0
 81 80  1  0
 82 81  2  0
 83 57  1  0
 83 84  1  0
 83 88  1  0
 84 87  1  1
 84 85  1  0
 86 84  1  0
 88 91  1  0
 89 88  1  0
 89 93  1  0
 90 89  2  0
 93 92  1  0
 93 95  1  0
 95 96  1  0
 95 94  1  0
M  ISO  4  16 100  17 100  55 101  56 101
M  END
>  <TORSDO>  (6) 
F 24

>  <SCORE>  (6) 
-1.363

>  <name>  (6) 
5

>  <ligand_id>  (6) 
5

>  <original_smiles>  (6) 
[H]c1c([H])c([H])c2c(c1[H])C([H])([H])C([H])([H])C([H])([H])C2([H])N([H])C(=O)C1([H])N(C(=O)C([H])(N([H])C(=O)C([H])(N([H])C([H])([H])[H])C([H])([H])[H])C(C([H])([H])[H])(C([H])([H])[H])C([H])([H])[H])C([H])([H])c2c([H])c(OC([H])([H])C([H])([H])C([H])([H])c3c([H])c([H])c(C([H])([H])C(=O)C([H])(C([H])([H])C(=O)N4C([H])([H])C([H])([H])C([H])([H])C([H])(n5nc(-c6c([H])c([H])c(Oc7c([H])c([H])c(F)c([H])c7F)c([H])c6[H])c(C(=O)N([H])[H])c5N([H])[H])C4([H])[H])[N+]([H])([H])[H])c(C([H])([H])[H])c3[H])c([H])c([H])c2C1([H])[H]

>  <smiles>  (6) 
[H]c1c([H])c([H])c2c(c1[H])C([H])([H])C([H])([H])C([H])([H])C2([H])N([H])C(=O)C1([H])N(C(=O)C([H])(N([H])C(=O)C([H])(N([H])C([H])([H])[H])C([H])([H])[H])C(C([H])([H])[H])(C([H])([H])[H])C([H])([H])[H])C([H])([H])c2c([H])c(OC([H])([H])C([H])([H])C([H])([H])c3c([H])c([H])c(C([H])([H])C(=O)C([H])(C([H])([H])C(=O)N4C([H])([H])C([H])([H])C([H])([H])C([H])(n5nc(-c6c([H])c([H])c(Oc7c([H])c([H])c(F)c([H])c7F)c([H])c6[H])c(C(=O)N([H])[H])c5N([H])[H])C4([H])[H])[N+]([H])([H])[H])c(C([H])([H])[H])c3[H])c([H])c([H])c2C1([H])[H]

$$$$
6:0:0
     RDKit          3D

 94102  0  0  1  0  0  0  0  0999 V2000
  -31.7590  -20.7850   20.3410 C   0  0  0  0  0  3  0  0  0  0  0  0
  -31.0410  -21.9460   20.6850 C   0  0  0  0  0  3  0  0  0  0  0  0
  -31.1990  -19.5130   20.5680 C   0  0  0  0  0  3  0  0  0  0  0  0
  -29.2010  -20.5620   21.4790 C   0  0  0  0  0  3  0  0  0  0  0  0
  -29.7570  -21.8540   21.2640 C   0  0  0  0  0  0  0  0  0  0  0  0
  -29.9060  -19.3800   21.1230 C   0  0  0  0  0  0  0  0  0  0  0  0
  -29.1060  -23.0950   21.8310 C   0  0  0  0  0  0  0  0  0  0  0  0
  -28.9880  -24.1980   21.0740 N   0  0  0  0  0  0  0  0  0  0  0  0
  -28.7900  -23.1180   23.0200 O   0  0  0  0  0  0  0  0  0  0  0  0
  -28.8770  -25.0480   21.6090 H   0  0  0  0  0  0  0  0  0  0  0  0
  -28.3520  -24.2760   19.7570 C   0  0  0  0  0  2  0  0  0  0  0  0
  -28.7300  -25.5640   18.9710 C   0  0  0  0  0  2  0  0  0  0  0  0
  -28.5830  -26.8090   19.6900 O   0  0  0  0  0  0  0  0  0  0  0  0
  -24.5790  -31.6690   23.0550 C   0  0  0  0  0  0  0  0  0  0  0  0
  -27.3680  -27.4730   19.7230 C   0  0  0  0  0  0  0  0  0  0  0  0
  -23.4160  -30.2820   21.3710 C   0  0  0  0  0  3  0  0  0  0  0  0
  -24.9100  -28.8860   19.8560 C   0  0  0  0  0  0  0  0  0  0  0  0
  -25.9230  -30.7680   21.1510 C   0  0  0  0  0  2  0  0  0  0  0  0
  -26.0570  -29.4280   20.4480 C   0  0  0  0  0  0  0  0  0  0  0  0
  -27.2870  -28.7270   20.3790 C   0  0  0  0  0  3  0  0  0  0  0  0
  -26.1940  -26.9510   19.1330 C   0  0  0  0  0  3  0  0  0  0  0  0
  -24.9740  -27.6500   19.1970 C   0  0  0  0  0  3  0  0  0  0  0  0
  -23.6330  -29.6890   19.9580 C   0  0  0  0  0  2  0  0  0  0  0  0
  -24.6600  -30.9200   21.9180 N   0  0  0  0  0  0  0  0  0  0  0  0
  -23.4940  -31.8640   23.6230 O   0  0  0  0  0  0  0  0  0  0  0  0
  -22.8340  -29.1870   22.2930 C   0  0  0  0  0  0  0  0  0  0  0  0
  -21.5150  -28.9530   22.1860 N   0  0  0  0  0  0  0  0  0  0  0  0
  -23.5600  -28.5570   23.0640 O   0  0  0  0  0  0  0  0  0  0  0  0
  -20.9870  -29.5160   21.5330 H   0  0  0  0  0  0  0  0  0  0  0  0
  -18.2100  -27.5800   22.6880 C   0  0  0  0  0  0  0  0  0  0  0  0
  -20.7570  -27.9440   22.9240 C   0  0  0  0  0  3  0  0  0  0  0  0
  -20.9140  -26.5490   22.2730 C   0  0  0  0  0  2  0  0  0  0  0  0
  -19.8030  -26.2220   21.2670 C   0  0  0  0  0  2  0  0  0  0  0  0
  -18.4310  -26.2720   21.9460 C   0  0  0  0  0  2  0  0  0  0  0  0
  -19.3000  -28.3710   23.1320 C   0  0  0  0  0  0  0  0  0  0  0  0
  -19.0360  -29.5940   23.7880 C   0  0  0  0  0  3  0  0  0  0  0  0
  -17.7150  -30.0230   24.0010 C   0  0  0  0  0  3  0  0  0  0  0  0
  -16.6380  -29.2300   23.5720 C   0  0  0  0  0  3  0  0  0  0  0  0
  -16.8870  -28.0090   22.9210 C   0  0  0  0  0  3  0  0  0  0  0  0
  -25.8430  -32.3330   23.6840 C   0  0  0  0  0  3  0  0  0  0  0  0
  -25.4760  -33.7030   24.0630 N   0  0  0  0  0  0  0  0  0  0  0  0
  -25.7570  -34.7940   23.3410 C   0  0  0  0  0  0  0  0  0  0  0  0
  -26.4210  -34.7600   22.3020 O   0  0  0  0  0  0  0  0  0  0  0  0
  -24.8750  -33.8040   24.8680 H   0  0  0  0  0  0  0  0  0  0  0  0
  -23.9500  -36.5270   23.0620 C   0  0  0  0  0  1  0  0  0  0  0  0
  -25.2130  -36.1410   23.8510 C   0  0  0  0  0  3  0  0  0  0  0  0
  -27.3110  -37.0900   24.7080 C   0  0  0  0  0  1  0  0  0  0  0  0
  -26.1970  -37.2420   23.7720 N   0  0  0  0  0  0  0  0  0  0  0  0
  -25.7510  -38.1350   23.9540 H   0  0  0  0  0  0  0  0  0  0  0  0
  -26.4160  -31.5440   24.9230 C   0  0  1  0  0  0  0  0  0  0  0  0
  -25.3520  -31.2210   26.0000 C   0  0  0  0  0  1  0  0  0  0  0  0
  -27.0520  -30.2080   24.4690 C   0  0  0  0  0  1  0  0  0  0  0  0
  -27.5420  -32.3680   25.5970 C   0  0  0  0  0  1  0  0  0  0  0  0
  -29.3230  -17.9920   21.4340 C   0  0  0  0  0  2  0  0  0  0  0  0
  -30.2330  -15.6230   20.9740 C   0  0  0  0  0  3  0  0  0  0  0  0
  -29.7630  -16.8230   20.5430 C   0  0  0  0  0  0  0  0  0  0  0  0
  -30.7680  -14.6060   20.0680 C   0  0  0  0  0  0  0  0  0  0  0  0
  -30.3850  -12.4520   18.9180 C   0  0  0  0  0  2  0  0  0  0  0  0
  -29.3880  -12.6420   17.7570 C   0  0  0  0  0  2  0  0  0  0  0  0
  -27.9430  -12.4830   18.2590 C   0  0  0  0  0  2  0  0  0  0  0  0
  -27.6610  -13.3420   19.5200 C   0  0  0  0  0  3  0  0  0  0  0  0
  -28.7660  -13.1560   20.5830 C   0  0  0  0  0  2  0  0  0  0  0  0
  -30.0660  -13.4430   19.9590 N   0  0  0  0  0  0  0  0  0  0  0  0
  -31.8040  -14.8030   19.4240 O   0  0  0  0  0  0  0  0  0  0  0  0
  -25.3070  -13.9390   20.3730 C   0  0  0  0  0  0  0  0  0  0  0  0
  -24.2610  -13.1620   20.7870 C   0  0  0  0  0  0  0  0  0  0  0  0
  -24.7160  -11.8090   20.7080 C   0  0  0  0  0  0  0  0  0  0  0  0
  -26.3360  -13.0610   20.0700 N   0  0  0  0  0  0  0  0  0  0  0  0
  -25.9870  -11.7740   20.3280 N   0  0  0  0  0  0  0  0  0  0  0  0
  -24.0010  -10.5440   20.9160 C   0  0  0  0  0  0  0  0  0  0  0  0
  -24.4460   -9.5910   21.8590 C   0  0  0  0  0  3  0  0  0  0  0  0
  -23.7310   -8.3900   22.0560 C   0  0  0  0  0  3  0  0  0  0  0  0
  -22.5560   -8.1330   21.3090 C   0  0  0  0  0  0  0  0  0  0  0  0
  -22.1290   -9.0750   20.3560 C   0  0  0  0  0  3  0  0  0  0  0  0
  -22.8450  -10.2680   20.1590 C   0  0  0  0  0  3  0  0  0  0  0  0
  -21.8130   -6.9830   21.4130 O   0  0  0  0  0  0  0  0  0  0  0  0
  -21.7250   -6.2880   22.5920 C   0  0  0  0  0  0  0  0  0  0  0  0
  -21.2320   -6.8820   23.7740 C   0  0  0  0  0  3  0  0  0  0  0  0
  -21.0930   -6.1120   24.9460 C   0  0  0  0  0  3  0  0  0  0  0  0
  -21.4380   -4.7460   24.9350 C   0  0  0  0  0  0  0  0  0  0  0  0
  -21.9250   -4.1510   23.7580 C   0  0  0  0  0  3  0  0  0  0  0  0
  -22.0640   -4.9200   22.5890 C   0  0  0  0  0  0  0  0  0  0  0  0
  -22.5130   -4.3370   21.4520 F   0  0  0  0  0  0  0  0  0  0  0  0
  -21.2980   -4.0020   26.0570 F   0  0  0  0  0  0  0  0  0  0  0  0
  -22.8820  -13.6320   21.1470 C   0  0  0  0  0  0  0  0  0  0  0  0
  -22.2040  -12.9200   22.0410 N   0  0  0  0  0  0  0  0  0  0  0  0
  -22.4170  -14.6680   20.6740 O   0  0  0  0  0  0  0  0  0  0  0  0
  -22.5960  -12.0810   22.4420 H   0  0  0  0  0  0  0  0  0  0  0  0
  -21.2810  -13.2170   22.3260 H   0  0  0  0  0  0  0  0  0  0  0  0
  -25.4680  -15.3130   20.2120 N   0  0  0  0  0  0  0  0  0  0  0  0
  -24.7180  -15.9730   20.3760 H   0  0  0  0  0  0  0  0  0  0  0  0
  -26.3140  -15.7490   19.8650 H   0  0  0  0  0  0  0  0  0  0  0  0
  -29.6140  -17.1390   19.2460 O   0  0  0  0  0  0  0  0  0  0  0  0
  -29.2960  -18.0350   19.2100 H   0  0  0  0  0  0  0  0  0  0  0  0
  1  3  2  0
  1  2  1  0
  2  5  2  0
  3  6  1  0
  5  4  1  0
  5  7  1  0
  6 54  1  0
  6  4  2  0
  7  9  2  0
  8 10  1  0
  8  7  1  0
 11  8  1  0
 12 13  1  0
 12 11  1  0
 13 15  1  0
 14 25  2  0
 15 20  1  0
 16 24  1  0
 16 26  1  0
 17 23  1  0
 17 19  1  0
 18 24  1  0
 19 18  1  0
 20 19  2  0
 21 22  1  0
 21 15  2  0
 22 17  2  0
 23 16  1  0
 24 14  1  0
 26 28  2  0
 27 26  1  0
 29 27  1  0
 30 39  2  0
 30 35  1  0
 31 27  1  0
 31 35  1  0
 32 31  1  0
 33 34  1  0
 33 32  1  0
 34 30  1  0
 35 36  2  0
 36 37  1  0
 38 37  2  0
 39 38  1  0
 40 14  1  0
 40 41  1  0
 40 50  1  0
 41 44  1  0
 42 46  1  0
 42 41  1  0
 43 42  2  0
 46 45  1  0
 48 46  1  0
 48 49  1  0
 48 47  1  0
 50 53  1  1
 50 51  1  0
 52 50  1  0
 56 55  2  0
 56 54  1  0
 57 55  1  0
 58 63  1  0
 59 60  1  0
 59 58  1  0
 61 60  1  0
 61 68  1  0
 61 62  1  0
 63 57  1  0
 63 62  1  0
 64 57  2  0
 65 66  2  0
 66 85  1  0
 67 66  1  0
 67 70  1  0
 68 69  1  0
 68 65  1  0
 69 67  2  0
 70 71  1  0
 71 72  2  0
 73 76  1  0
 73 72  1  0
 74 73  2  0
 75 74  1  0
 75 70  2  0
 76 77  1  0
 77 78  1  0
 78 79  2  0
 80 79  1  0
 80 84  1  0
 81 80  2  0
 82 77  2  0
 82 81  1  0
 83 82  1  0
 85 86  1  0
 86 89  1  0
 86 88  1  0
 87 85  2  0
 90 65  1  0
 90 91  1  0
 92 90  1  0
 93 56  1  0
 94 93  1  0
M  ISO  4  12 101  13 101  55 100  57 100
M  END
>  <TORSDO>  (7) 
F 22

>  <SCORE>  (7) 
-12.169

>  <name>  (7) 
6

>  <ligand_id>  (7) 
6

>  <original_smiles>  (7) 
[H]OC(=C([H])C(=O)N1C([H])([H])C([H])([H])C([H])([H])C([H])(n2nc(-c3c([H])c([H])c(Oc4c([H])c([H])c(F)c([H])c4F)c([H])c3[H])c(C(=O)N([H])[H])c2N([H])[H])C1([H])[H])C([H])([H])c1c([H])c([H])c([H])c(C(=O)N([H])C([H])([H])C([H])([H])Oc2c([H])c([H])c3c(c2[H])C([H])([H])N(C(=O)C([H])(N([H])C(=O)C([H])(N([H])C([H])([H])[H])C([H])([H])[H])C(C([H])([H])[H])(C([H])([H])[H])C([H])([H])[H])C([H])(C(=O)N([H])C2([H])c4c([H])c([H])c([H])c([H])c4C([H])([H])C([H])([H])C2([H])[H])C3([H])[H])c1[H]

>  <smiles>  (7) 
[H]OC(=C([H])C(=O)N1C([H])([H])C([H])([H])C([H])([H])C([H])(n2nc(-c3c([H])c([H])c(Oc4c([H])c([H])c(F)c([H])c4F)c([H])c3[H])c(C(=O)N([H])[H])c2N([H])[H])C1([H])[H])C([H])([H])c1c([H])c([H])c([H])c(C(=O)N([H])C([H])([H])C([H])([H])Oc2c([H])c([H])c3c(c2[H])C([H])([H])N(C(=O)C([H])(N([H])C(=O)C([H])(N([H])C([H])([H])[H])C([H])([H])[H])C(C([H])([H])[H])(C([H])([H])[H])C([H])([H])[H])C([H])(C(=O)N([H])C2([H])c4c([H])c([H])c([H])c([H])c4C([H])([H])C([H])([H])C2([H])[H])C3([H])[H])c1[H]

$$$$
7:0:0
     RDKit          3D

 90 98  0  0  1  0  0  0  0  0999 V2000
  -31.5230  -20.8560   18.9930 C   0  0  0  0  0  3  0  0  0  0  0  0
  -31.2550  -19.5770   19.5170 C   0  0  0  0  0  3  0  0  0  0  0  0
  -30.8440  -21.9850   19.4860 C   0  0  0  0  0  3  0  0  0  0  0  0
  -29.6150  -20.5520   21.0250 C   0  0  0  0  0  3  0  0  0  0  0  0
  -30.2940  -19.4070   20.5430 C   0  0  0  0  0  0  0  0  0  0  0  0
  -29.8830  -21.8400   20.5110 C   0  0  0  0  0  0  0  0  0  0  0  0
  -29.9760  -18.0630   21.1240 C   0  0  0  0  0  0  0  0  0  0  0  0
  -29.1210  -17.8970   21.9990 O   0  0  0  0  0  0  0  0  0  0  0  0
  -30.7750  -16.8590   20.6150 C   0  0  0  0  0  2  0  0  0  0  0  0
  -30.2480  -15.4790   21.0800 C   0  0  0  0  0  2  0  0  0  0  0  0
  -30.7900  -14.3460   20.1930 C   0  0  0  0  0  0  0  0  0  0  0  0
  -30.3570  -12.2920   18.8970 C   0  0  0  0  0  2  0  0  0  0  0  0
  -29.3580  -12.6040   17.7650 C   0  0  0  0  0  2  0  0  0  0  0  0
  -27.9070  -12.4710   18.2650 C   0  0  0  0  0  2  0  0  0  0  0  0
  -27.6610  -13.2360   19.5940 C   0  0  0  0  0  3  0  0  0  0  0  0
  -28.7670  -12.9140   20.6260 C   0  0  0  0  0  2  0  0  0  0  0  0
  -30.0680  -13.2110   20.0070 N   0  0  0  0  0  0  0  0  0  0  0  0
  -31.8560  -14.5470   19.6010 O   0  0  0  0  0  0  0  0  0  0  0  0
  -25.2960  -13.8500   20.4080 C   0  0  0  0  0  0  0  0  0  0  0  0
  -24.2390  -13.0800   20.8130 C   0  0  0  0  0  0  0  0  0  0  0  0
  -24.6910  -11.7260   20.7480 C   0  0  0  0  0  0  0  0  0  0  0  0
  -26.3260  -12.9650   20.1250 N   0  0  0  0  0  0  0  0  0  0  0  0
  -25.9650  -11.6820   20.3840 N   0  0  0  0  0  0  0  0  0  0  0  0
  -23.9660  -10.4660   20.9570 C   0  0  0  0  0  0  0  0  0  0  0  0
  -24.4140   -9.5030   21.8870 C   0  0  0  0  0  3  0  0  0  0  0  0
  -23.6920   -8.3060   22.0820 C   0  0  0  0  0  3  0  0  0  0  0  0
  -22.5060   -8.0650   21.3480 C   0  0  0  0  0  0  0  0  0  0  0  0
  -22.0770   -9.0170   20.4060 C   0  0  0  0  0  3  0  0  0  0  0  0
  -22.8000  -10.2060   20.2090 C   0  0  0  0  0  3  0  0  0  0  0  0
  -21.7520   -6.9210   21.4530 O   0  0  0  0  0  0  0  0  0  0  0  0
  -21.6960   -6.2010   22.6190 C   0  0  0  0  0  0  0  0  0  0  0  0
  -21.2510   -6.7770   23.8290 C   0  0  0  0  0  3  0  0  0  0  0  0
  -21.1430   -5.9820   24.9880 C   0  0  0  0  0  3  0  0  0  0  0  0
  -21.4690   -4.6130   24.9380 C   0  0  0  0  0  0  0  0  0  0  0  0
  -21.9060   -4.0370   23.7320 C   0  0  0  0  0  3  0  0  0  0  0  0
  -22.0170   -4.8290   22.5750 C   0  0  0  0  0  0  0  0  0  0  0  0
  -22.4180   -4.2650   21.4110 F   0  0  0  0  0  0  0  0  0  0  0  0
  -21.3570   -3.8480   26.0480 F   0  0  0  0  0  0  0  0  0  0  0  0
  -22.8580  -13.5610   21.1520 C   0  0  0  0  0  0  0  0  0  0  0  0
  -22.1640  -12.8570   22.0410 N   0  0  0  0  0  0  0  0  0  0  0  0
  -22.4030  -14.5960   20.6660 O   0  0  0  0  0  0  0  0  0  0  0  0
  -22.5460  -12.0210   22.4560 H   0  0  0  0  0  0  0  0  0  0  0  0
  -21.2390  -13.1600   22.3100 H   0  0  0  0  0  0  0  0  0  0  0  0
  -25.4620  -15.2210   20.2370 N   0  0  0  0  0  0  0  0  0  0  0  0
  -24.7090  -15.8840   20.3910 H   0  0  0  0  0  0  0  0  0  0  0  0
  -26.3090  -15.6560   19.8950 H   0  0  0  0  0  0  0  0  0  0  0  0
  -29.1400  -23.0350   21.1050 C   0  0  0  0  0  2  0  0  0  0  0  0
  -29.2270  -24.3580   20.3150 C   0  0  0  0  0  2  0  0  0  0  0  0
  -28.3620  -25.4580   20.9450 C   0  0  0  0  0  2  0  0  0  0  0  0
  -28.4620  -26.6680   20.1960 O   0  0  0  0  0  0  0  0  0  0  0  0
  -24.5540  -31.8060   23.1650 C   0  0  0  0  0  0  0  0  0  0  0  0
  -27.2990  -27.3950   20.1660 C   0  0  0  0  0  0  0  0  0  0  0  0
  -23.4000  -30.4060   21.4830 C   0  0  0  0  0  3  0  0  0  0  0  0
  -24.9000  -28.8720   20.1030 C   0  0  0  0  0  0  0  0  0  0  0  0
  -25.9270  -30.7760   21.3610 C   0  0  0  0  0  2  0  0  0  0  0  0
  -26.0360  -29.4070   20.7250 C   0  0  0  0  0  0  0  0  0  0  0  0
  -27.2410  -28.6750   20.7540 C   0  0  0  0  0  3  0  0  0  0  0  0
  -26.1520  -26.8660   19.5380 C   0  0  0  0  0  3  0  0  0  0  0  0
  -24.9510  -27.6000   19.5060 C   0  0  0  0  0  3  0  0  0  0  0  0
  -23.6520  -29.7260   20.1100 C   0  0  0  0  0  2  0  0  0  0  0  0
  -24.6430  -31.0100   22.0630 N   0  0  0  0  0  0  0  0  0  0  0  0
  -23.4580  -32.0770   23.6730 O   0  0  0  0  0  0  0  0  0  0  0  0
  -22.7210  -29.3840   22.4210 C   0  0  0  0  0  0  0  0  0  0  0  0
  -21.3960  -29.2230   22.2720 N   0  0  0  0  0  0  0  0  0  0  0  0
  -23.3820  -28.7380   23.2380 O   0  0  0  0  0  0  0  0  0  0  0  0
  -20.9240  -29.7960   21.5840 H   0  0  0  0  0  0  0  0  0  0  0  0
  -17.9920  -28.0990   22.7200 C   0  0  0  0  0  0  0  0  0  0  0  0
  -20.5520  -28.2900   23.0170 C   0  0  0  0  0  3  0  0  0  0  0  0
  -20.6270  -26.8690   22.4120 C   0  0  0  0  0  2  0  0  0  0  0  0
  -19.5250  -26.5930   21.3830 C   0  0  0  0  0  2  0  0  0  0  0  0
  -18.1430  -26.7590   22.0200 C   0  0  0  0  0  2  0  0  0  0  0  0
  -19.1250  -28.8250   23.1750 C   0  0  0  0  0  0  0  0  0  0  0  0
  -18.9330  -30.0830   23.7880 C   0  0  0  0  0  3  0  0  0  0  0  0
  -17.6400  -30.6130   23.9510 C   0  0  0  0  0  3  0  0  0  0  0  0
  -16.5210  -29.8830   23.5160 C   0  0  0  0  0  3  0  0  0  0  0  0
  -16.6970  -28.6280   22.9060 C   0  0  0  0  0  3  0  0  0  0  0  0
  -25.8220  -32.4360   23.8250 C   0  0  0  0  0  3  0  0  0  0  0  0
  -25.5020  -33.8300   24.1550 N   0  0  0  0  0  0  0  0  0  0  0  0
  -25.8500  -34.8870   23.4080 C   0  0  0  0  0  0  0  0  0  0  0  0
  -26.5450  -34.7890   22.3920 O   0  0  0  0  0  0  0  0  0  0  0  0
  -24.8880  -33.9790   24.9420 H   0  0  0  0  0  0  0  0  0  0  0  0
  -24.1250  -36.6740   23.0160 C   0  0  0  0  0  1  0  0  0  0  0  0
  -25.3460  -36.2700   23.8580 C   0  0  0  0  0  3  0  0  0  0  0  0
  -27.4540  -37.1600   24.7480 C   0  0  0  0  0  1  0  0  0  0  0  0
  -26.3770  -37.3280   23.7760 N   0  0  0  0  0  0  0  0  0  0  0  0
  -25.9640  -38.2460   23.9140 H   0  0  0  0  0  0  0  0  0  0  0  0
  -26.3090  -31.6540   25.1070 C   0  0  1  0  0  0  0  0  0  0  0  0
  -25.1900  -31.4010   26.1430 C   0  0  0  0  0  1  0  0  0  0  0  0
  -26.9080  -30.2830   24.7160 C   0  0  0  0  0  1  0  0  0  0  0  0
  -27.4370  -32.4460   25.8080 C   0  0  0  0  0  1  0  0  0  0  0  0
  1  3  2  0
  1  2  1  0
  2  5  2  0
  3  6  1  0
  5  4  1  0
  5  7  1  0
  6  4  2  0
  6 47  1  0
  7  8  2  0
  9 10  1  0
  9  7  1  0
 11 10  1  0
 12 17  1  0
 13 14  1  0
 13 12  1  0
 15 14  1  0
 15 22  1  0
 15 16  1  0
 17 11  1  0
 17 16  1  0
 18 11  2  0
 19 20  2  0
 20 39  1  0
 21 20  1  0
 21 24  1  0
 22 23  1  0
 22 19  1  0
 23 21  2  0
 24 25  1  0
 25 26  2  0
 27 30  1  0
 27 26  1  0
 28 27  2  0
 29 28  1  0
 29 24  2  0
 30 31  1  0
 31 32  1  0
 32 33  2  0
 34 33  1  0
 34 38  1  0
 35 34  2  0
 36 31  2  0
 36 35  1  0
 37 36  1  0
 39 40  1  0
 40 43  1  0
 40 42  1  0
 41 39  2  0
 44 45  1  0
 44 19  1  0
 46 44  1  0
 48 49  1  0
 48 47  1  0
 50 49  1  0
 51 62  2  0
 52 50  1  0
 52 57  1  0
 53 61  1  0
 53 63  1  0
 54 60  1  0
 54 56  1  0
 55 61  1  0
 56 57  2  0
 56 55  1  0
 58 52  2  0
 59 58  1  0
 59 54  2  0
 60 53  1  0
 61 51  1  0
 63 65  2  0
 64 63  1  0
 66 64  1  0
 67 76  2  0
 67 72  1  0
 68 64  1  0
 68 72  1  0
 69 68  1  0
 70 71  1  0
 70 69  1  0
 71 67  1  0
 72 73  2  0
 73 74  1  0
 75 74  2  0
 76 75  1  0
 77 51  1  0
 77 78  1  0
 77 87  1  0
 78 81  1  0
 79 83  1  0
 79 78  1  0
 80 79  2  0
 83 82  1  0
 85 83  1  0
 85 86  1  0
 85 84  1  0
 87 90  1  1
 87 88  1  0
 89 87  1  0
M  ISO  4  10 100  11 100  49 101  50 101
M  END
>  <TORSDO>  (8) 
F 22

>  <SCORE>  (8) 
-12.365

>  <name>  (8) 
7

>  <ligand_id>  (8) 
7

>  <original_smiles>  (8) 
[H]c1c([H])c(C(=O)C([H])([H])C([H])([H])C(=O)N2C([H])([H])C([H])([H])C([H])([H])C([H])(n3nc(-c4c([H])c([H])c(Oc5c([H])c([H])c(F)c([H])c5F)c([H])c4[H])c(C(=O)N([H])[H])c3N([H])[H])C2([H])[H])c([H])c(C([H])([H])C([H])([H])C([H])([H])Oc2c([H])c([H])c3c(c2[H])C([H])([H])N(C(=O)C([H])(N([H])C(=O)C([H])(N([H])C([H])([H])[H])C([H])([H])[H])C(C([H])([H])[H])(C([H])([H])[H])C([H])([H])[H])C([H])(C(=O)N([H])C2([H])c4c([H])c([H])c([H])c([H])c4C([H])([H])C([H])([H])C2([H])[H])C3([H])[H])c1[H]

>  <smiles>  (8) 
[H]c1c([H])c(C(=O)C([H])([H])C([H])([H])C(=O)N2C([H])([H])C([H])([H])C([H])([H])C([H])(n3nc(-c4c([H])c([H])c(Oc5c([H])c([H])c(F)c([H])c5F)c([H])c4[H])c(C(=O)N([H])[H])c3N([H])[H])C2([H])[H])c([H])c(C([H])([H])C([H])([H])C([H])([H])Oc2c([H])c([H])c3c(c2[H])C([H])([H])N(C(=O)C([H])(N([H])C(=O)C([H])(N([H])C([H])([H])[H])C([H])([H])[H])C(C([H])([H])[H])(C([H])([H])[H])C([H])([H])[H])C([H])(C(=O)N([H])C2([H])c4c([H])c([H])c([H])c([H])c4C([H])([H])C([H])([H])C2([H])[H])C3([H])[H])c1[H]

$$$$
8:0:0
     RDKit          3D

 90 97  0  0  1  0  0  0  0  0999 V2000
  -29.4930  -21.1510   19.7420 C   0  0  0  0  0  2  0  0  0  0  0  0
  -27.8920  -19.3040   20.5810 C   0  0  0  0  0  1  0  0  0  0  0  0
  -29.3670  -19.7040   20.4030 C   0  0  0  0  0  3  0  0  0  0  0  0
  -30.1070  -18.6310   19.6150 N   0  0  0  0  0  4  0  0  0  0  0  0
  -29.5760  -18.3970   18.7940 H   0  0  0  0  0  0  0  0  0  0  0  0
  -30.9200  -19.1160   19.2690 H   0  0  0  0  0  0  0  0  0  0  0  0
  -30.7110  -17.3500   20.2000 C   0  0  0  0  0  3  0  0  0  0  0  0
  -31.3240  -17.5880   21.5850 C   0  0  0  0  0  3  0  0  0  0  0  0
  -30.6790  -17.5580   22.6370 O   0  0  0  0  0  0  0  0  0  0  0  0
  -29.8660  -15.9980   20.1640 C   0  0  0  0  0  2  0  0  0  0  0  0
  -30.6770  -14.6580   19.9400 C   0  0  0  0  0  0  0  0  0  0  0  0
  -30.4030  -12.4010   18.9540 C   0  0  0  0  0  2  0  0  0  0  0  0
  -29.4150  -12.5260   17.7720 C   0  0  0  0  0  2  0  0  0  0  0  0
  -27.9580  -12.3830   18.2600 C   0  0  0  0  0  2  0  0  0  0  0  0
  -27.6520  -13.2710   19.4950 C   0  0  0  0  0  3  0  0  0  0  0  0
  -28.7560  -13.1480   20.5680 C   0  0  0  0  0  2  0  0  0  0  0  0
  -30.0480  -13.4430   19.9360 N   0  0  0  0  0  0  0  0  0  0  0  0
  -31.8450  -14.7550   19.5530 O   0  0  0  0  0  0  0  0  0  0  0  0
  -25.3090  -13.8940   20.3430 C   0  0  0  0  0  0  0  0  0  0  0  0
  -24.2510  -13.1310   20.7550 C   0  0  0  0  0  0  0  0  0  0  0  0
  -24.6930  -11.7740   20.6880 C   0  0  0  0  0  0  0  0  0  0  0  0
  -26.3270  -13.0020   20.0460 N   0  0  0  0  0  0  0  0  0  0  0  0
  -25.9670  -11.7220   20.3160 N   0  0  0  0  0  0  0  0  0  0  0  0
  -23.9590  -10.5200   20.9000 C   0  0  0  0  0  0  0  0  0  0  0  0
  -24.3780   -9.5710   21.8600 C   0  0  0  0  0  3  0  0  0  0  0  0
  -23.6450   -8.3810   22.0570 C   0  0  0  0  0  3  0  0  0  0  0  0
  -22.4790   -8.1310   21.2940 C   0  0  0  0  0  0  0  0  0  0  0  0
  -22.0800   -9.0680   20.3230 C   0  0  0  0  0  3  0  0  0  0  0  0
  -22.8140  -10.2480   20.1250 C   0  0  0  0  0  3  0  0  0  0  0  0
  -21.7190   -6.9910   21.3980 O   0  0  0  0  0  0  0  0  0  0  0  0
  -21.6080   -6.3070   22.5820 C   0  0  0  0  0  0  0  0  0  0  0  0
  -21.0860   -6.9110   23.7460 C   0  0  0  0  0  3  0  0  0  0  0  0
  -20.9250   -6.1510   24.9230 C   0  0  0  0  0  3  0  0  0  0  0  0
  -21.2760   -4.7880   24.9340 C   0  0  0  0  0  0  0  0  0  0  0  0
  -21.7900   -4.1830   23.7740 C   0  0  0  0  0  3  0  0  0  0  0  0
  -21.9530   -4.9410   22.6000 C   0  0  0  0  0  0  0  0  0  0  0  0
  -22.4300   -4.3480   21.4800 F   0  0  0  0  0  0  0  0  0  0  0  0
  -21.1140   -4.0560   26.0600 F   0  0  0  0  0  0  0  0  0  0  0  0
  -22.8740  -13.6240   21.0980 C   0  0  0  0  0  0  0  0  0  0  0  0
  -22.1750  -12.9230   21.9840 N   0  0  0  0  0  0  0  0  0  0  0  0
  -22.4300  -14.6650   20.6170 O   0  0  0  0  0  0  0  0  0  0  0  0
  -22.5470  -12.0790   22.3940 H   0  0  0  0  0  0  0  0  0  0  0  0
  -21.2540  -13.2360   22.2560 H   0  0  0  0  0  0  0  0  0  0  0  0
  -25.4820  -15.2650   20.1740 N   0  0  0  0  0  0  0  0  0  0  0  0
  -24.7270  -15.9240   20.3320 H   0  0  0  0  0  0  0  0  0  0  0  0
  -26.3190  -15.7010   19.8110 H   0  0  0  0  0  0  0  0  0  0  0  0
  -28.8260  -22.4180   20.4360 C   0  0  0  0  0  3  0  0  0  0  0  0
  -29.1460  -23.8350   19.7960 C   0  0  0  0  0  3  0  0  0  0  0  0
  -28.2310  -25.0890   20.1840 C   0  0  0  0  0  2  0  0  0  0  0  0
  -28.4230  -26.5440   20.2910 O   0  0  0  0  0  0  0  0  0  0  0  0
  -24.5430  -31.8740   23.1750 C   0  0  0  0  0  0  0  0  0  0  0  0
  -27.2820  -27.3500   20.2240 C   0  0  0  0  0  0  0  0  0  0  0  0
  -23.3980  -30.4630   21.5020 C   0  0  0  0  0  3  0  0  0  0  0  0
  -24.9010  -28.9150   20.1330 C   0  0  0  0  0  0  0  0  0  0  0  0
  -25.9370  -30.8060   21.3950 C   0  0  0  0  0  2  0  0  0  0  0  0
  -26.0460  -29.4270   20.7570 C   0  0  0  0  0  0  0  0  0  0  0  0
  -27.2420  -28.6570   20.7890 C   0  0  0  0  0  3  0  0  0  0  0  0
  -26.1140  -26.8760   19.5850 C   0  0  0  0  0  3  0  0  0  0  0  0
  -24.9350  -27.6440   19.5390 C   0  0  0  0  0  3  0  0  0  0  0  0
  -23.6580  -29.7810   20.1330 C   0  0  0  0  0  2  0  0  0  0  0  0
  -24.6420  -31.0640   22.0820 N   0  0  0  0  0  0  0  0  0  0  0  0
  -23.4420  -32.1460   23.6770 O   0  0  0  0  0  0  0  0  0  0  0  0
  -22.7120  -29.4450   22.4460 C   0  0  0  0  0  0  0  0  0  0  0  0
  -21.3900  -29.2700   22.2850 N   0  0  0  0  0  0  0  0  0  0  0  0
  -23.3710  -28.8170   23.2780 O   0  0  0  0  0  0  0  0  0  0  0  0
  -20.9190  -29.8290   21.5860 H   0  0  0  0  0  0  0  0  0  0  0  0
  -17.9950  -28.1080   22.7190 C   0  0  0  0  0  0  0  0  0  0  0  0
  -20.5500  -28.3350   23.0330 C   0  0  0  0  0  3  0  0  0  0  0  0
  -20.6460  -26.9080   22.4450 C   0  0  0  0  0  2  0  0  0  0  0  0
  -19.5570  -26.6070   21.4120 C   0  0  0  0  0  2  0  0  0  0  0  0
  -18.1670  -26.7630   22.0350 C   0  0  0  0  0  2  0  0  0  0  0  0
  -19.1150  -28.8540   23.1750 C   0  0  0  0  0  0  0  0  0  0  0  0
  -18.9010  -30.1130   23.7750 C   0  0  0  0  0  3  0  0  0  0  0  0
  -17.6010  -30.6280   23.9250 C   0  0  0  0  0  3  0  0  0  0  0  0
  -16.4940  -29.8810   23.4870 C   0  0  0  0  0  3  0  0  0  0  0  0
  -16.6920  -28.6230   22.8900 C   0  0  0  0  0  3  0  0  0  0  0  0
  -25.8030  -32.5140   23.8350 C   0  0  0  0  0  3  0  0  0  0  0  0
  -26.2890  -31.7410   25.1230 C   0  0  1  0  0  0  0  0  0  0  0  0
  -25.1670  -31.4880   26.1570 C   0  0  0  0  0  1  0  0  0  0  0  0
  -26.8990  -30.3720   24.7420 C   0  0  0  0  0  1  0  0  0  0  0  0
  -27.4120  -32.5450   25.8240 C   0  0  0  0  0  1  0  0  0  0  0  0
  -25.4730  -33.9070   24.1640 N   0  0  0  0  0  0  0  0  0  0  0  0
  -25.8080  -34.9650   23.4120 C   0  0  0  0  0  0  0  0  0  0  0  0
  -26.4960  -34.8710   22.3920 O   0  0  0  0  0  0  0  0  0  0  0  0
  -24.8650  -34.0550   24.9550 H   0  0  0  0  0  0  0  0  0  0  0  0
  -24.0650  -36.7380   23.0350 C   0  0  0  0  0  1  0  0  0  0  0  0
  -25.2990  -36.3470   23.8650 C   0  0  0  0  0  3  0  0  0  0  0  0
  -27.4050  -37.2580   24.7340 C   0  0  0  0  0  1  0  0  0  0  0  0
  -26.3200  -37.4120   23.7690 N   0  0  0  0  0  0  0  0  0  0  0  0
  -25.9000  -38.3270   23.9090 H   0  0  0  0  0  0  0  0  0  0  0  0
  1  3  1  0
  1 47  1  0
  3  2  1  0
  4  7  1  0
  4  3  1  0
  5  4  1  0
  6  4  1  0
  7 10  1  0
  7  8  1  0
  8  9  2  0
 11 10  1  0
 12 17  1  0
 13 14  1  0
 13 12  1  0
 15 14  1  0
 15 22  1  0
 15 16  1  0
 17 11  1  0
 17 16  1  0
 18 11  2  0
 19 20  2  0
 20 39  1  0
 21 20  1  0
 21 24  1  0
 22 23  1  0
 22 19  1  0
 23 21  2  0
 24 25  1  0
 25 26  2  0
 27 30  1  0
 27 26  1  0
 28 27  2  0
 29 28  1  0
 29 24  2  0
 30 31  1  0
 31 36  2  0
 31 32  1  0
 32 33  2  0
 33 34  1  0
 34 38  1  0
 35 34  2  0
 36 35  1  0
 37 36  1  0
 39 40  1  0
 40 43  1  0
 40 42  1  0
 41 39  2  0
 44 45  1  0
 44 19  1  0
 46 44  1  0
 48 49  1  0
 48 47  2  0
 49 50  1  0
 51 62  2  0
 52 50  1  0
 52 57  1  0
 53 61  1  0
 53 63  1  0
 54 56  1  0
 55 61  1  0
 56 57  2  0
 56 55  1  0
 58 52  2  0
 59 58  1  0
 59 54  2  0
 60 54  1  0
 60 53  1  0
 61 51  1  0
 63 65  2  0
 64 63  1  0
 66 64  1  0
 67 76  2  0
 67 72  1  0
 68 64  1  0
 68 72  1  0
 69 68  1  0
 70 71  1  0
 70 69  1  0
 71 67  1  0
 72 73  2  0
 73 74  1  0
 75 74  2  0
 76 75  1  0
 77 51  1  0
 77 82  1  0
 77 78  1  0
 78 81  1  1
 78 79  1  0
 80 78  1  0
 82 85  1  0
 83 87  1  0
 83 82  1  0
 84 83  2  0
 87 86  1  0
 89 87  1  0
 89 90  1  0
 89 88  1  0
M  ISO  4  10 100  11 100  49 101  50 101
M  END
>  <TORSDO>  (9) 
F 24

>  <SCORE>  (9) 
-12.073

>  <name>  (9) 
8

>  <ligand_id>  (9) 
8

>  <original_smiles>  (9) 
[H]C(=O)C([H])(C([H])([H])C(=O)N1C([H])([H])C([H])([H])C([H])([H])C([H])(n2nc(-c3c([H])c([H])c(Oc4c([H])c([H])c(F)c([H])c4F)c([H])c3[H])c(C(=O)N([H])[H])c2N([H])[H])C1([H])[H])[N+]([H])([H])C([H])(C([H])([H])[H])C([H])([H])C([H])([H])C([H])([H])C([H])([H])Oc1c([H])c([H])c2c(c1[H])C([H])([H])N(C(=O)C([H])(N([H])C(=O)C([H])(N([H])C([H])([H])[H])C([H])([H])[H])C(C([H])([H])[H])(C([H])([H])[H])C([H])([H])[H])C([H])(C(=O)N([H])C1([H])c3c([H])c([H])c([H])c([H])c3C([H])([H])C([H])([H])C1([H])[H])C2([H])[H]

>  <smiles>  (9) 
[H]C(=O)C([H])(C([H])([H])C(=O)N1C([H])([H])C([H])([H])C([H])([H])C([H])(n2nc(-c3c([H])c([H])c(Oc4c([H])c([H])c(F)c([H])c4F)c([H])c3[H])c(C(=O)N([H])[H])c2N([H])[H])C1([H])[H])[N+]([H])([H])C([H])(C([H])([H])[H])C([H])([H])C([H])([H])C([H])([H])C([H])([H])Oc1c([H])c([H])c2c(c1[H])C([H])([H])N(C(=O)C([H])(N([H])C(=O)C([H])(N([H])C([H])([H])[H])C([H])([H])[H])C(C([H])([H])[H])(C([H])([H])[H])C([H])([H])[H])C([H])(C(=O)N([H])C1([H])c3c([H])c([H])c([H])c([H])c3C([H])([H])C([H])([H])C1([H])[H])C2([H])[H]

$$$$
9:0:0
     RDKit          3D

 91100  0  0  1  0  0  0  0  0999 V2000
  -26.9900  -23.4170   21.9230 C   0  0  0  0  0  2  0  0  0  0  0  0
  -26.8690  -22.7070   20.5720 C   0  0  0  0  0  2  0  0  0  0  0  0
  -28.2440  -24.2960   21.8540 C   0  0  0  0  0  2  0  0  0  0  0  0
  -28.2390  -22.8020   19.8850 C   0  0  0  0  0  3  0  0  0  0  0  0
  -28.8380  -24.1590   20.4390 C   0  0  0  0  0  3  0  0  0  0  0  0
  -29.7840  -19.4160   18.7420 C   0  0  0  0  0  3  0  0  0  0  0  0
  -29.8150  -19.4120   21.1510 C   0  0  0  0  0  3  0  0  0  0  0  0
  -29.2800  -20.7410   18.7430 C   0  0  0  0  0  3  0  0  0  0  0  0
  -29.3270  -20.7560   21.1540 C   0  0  0  0  0  3  0  0  0  0  0  0
  -30.0370  -18.7020   19.9370 C   0  0  0  0  0  0  0  0  0  0  0  0
  -29.0200  -21.4440   19.9470 C   0  0  0  0  0  0  0  0  0  0  0  0
  -30.5980  -17.3070   19.8240 C   0  0  0  0  0  3  0  0  0  0  0  0
  -30.1610  -16.0930   20.2910 C   0  0  0  0  0  3  0  0  0  0  0  0
  -30.9180  -14.8490   19.9680 C   0  0  0  0  0  0  0  0  0  0  0  0
  -30.5980  -12.6080   18.9660 C   0  0  0  0  0  2  0  0  0  0  0  0
  -29.6070  -12.7500   17.7920 C   0  0  0  0  0  2  0  0  0  0  0  0
  -28.1590  -12.5850   18.2980 C   0  0  0  0  0  2  0  0  0  0  0  0
  -27.8590  -13.4540   19.5490 C   0  0  0  0  0  3  0  0  0  0  0  0
  -28.9760  -13.3280   20.6060 C   0  0  0  0  0  2  0  0  0  0  0  0
  -30.2550  -13.6480   19.9600 N   0  0  0  0  0  0  0  0  0  0  0  0
  -32.0740  -14.9090   19.5370 O   0  0  0  0  0  0  0  0  0  0  0  0
  -25.5230  -14.0260   20.4530 C   0  0  0  0  0  0  0  0  0  0  0  0
  -24.4780  -13.2430   20.8630 C   0  0  0  0  0  0  0  0  0  0  0  0
  -24.9300  -11.8910   20.7460 C   0  0  0  0  0  0  0  0  0  0  0  0
  -26.5440  -13.1550   20.1140 N   0  0  0  0  0  0  0  0  0  0  0  0
  -26.1980  -11.8630   20.3500 N   0  0  0  0  0  0  0  0  0  0  0  0
  -24.2100  -10.6250   20.9330 C   0  0  0  0  0  0  0  0  0  0  0  0
  -24.6420   -9.6610   21.8710 C   0  0  0  0  0  3  0  0  0  0  0  0
  -23.9230   -8.4600   22.0460 C   0  0  0  0  0  3  0  0  0  0  0  0
  -22.7560   -8.2130   21.2830 C   0  0  0  0  0  0  0  0  0  0  0  0
  -22.3440   -9.1670   20.3350 C   0  0  0  0  0  3  0  0  0  0  0  0
  -23.0650  -10.3590   20.1590 C   0  0  0  0  0  3  0  0  0  0  0  0
  -22.0100   -7.0630   21.3670 O   0  0  0  0  0  0  0  0  0  0  0  0
  -21.8850   -6.3680   22.5430 C   0  0  0  0  0  0  0  0  0  0  0  0
  -21.3230   -6.9540   23.6990 C   0  0  0  0  0  3  0  0  0  0  0  0
  -21.1530   -6.1840   24.8670 C   0  0  0  0  0  3  0  0  0  0  0  0
  -21.5300   -4.8280   24.8780 C   0  0  0  0  0  0  0  0  0  0  0  0
  -22.0820   -4.2410   23.7260 C   0  0  0  0  0  3  0  0  0  0  0  0
  -22.2560   -5.0090   22.5610 C   0  0  0  0  0  0  0  0  0  0  0  0
  -22.7710   -4.4330   21.4470 F   0  0  0  0  0  0  0  0  0  0  0  0
  -21.3590   -4.0850   25.9960 F   0  0  0  0  0  0  0  0  0  0  0  0
  -23.1050  -13.7130   21.2460 C   0  0  0  0  0  0  0  0  0  0  0  0
  -22.4340  -12.9890   22.1340 N   0  0  0  0  0  0  0  0  0  0  0  0
  -22.6350  -14.7570   20.7920 O   0  0  0  0  0  0  0  0  0  0  0  0
  -22.8260  -12.1430   22.5230 H   0  0  0  0  0  0  0  0  0  0  0  0
  -21.5150  -13.2830   22.4320 H   0  0  0  0  0  0  0  0  0  0  0  0
  -25.6850  -15.4010   20.3180 N   0  0  0  0  0  0  0  0  0  0  0  0
  -24.9330  -16.0570   20.4960 H   0  0  0  0  0  0  0  0  0  0  0  0
  -26.5200  -15.8470   19.9600 H   0  0  0  0  0  0  0  0  0  0  0  0
  -28.4840  -25.4040   19.5190 C   0  0  0  0  0  2  0  0  0  0  0  0
  -28.4170  -26.7590   20.0860 O   0  0  0  0  0  0  0  0  0  0  0  0
  -24.6700  -31.9890   23.2650 C   0  0  0  0  0  0  0  0  0  0  0  0
  -27.2400  -27.5210   20.0720 C   0  0  0  0  0  0  0  0  0  0  0  0
  -23.4490  -30.5900   21.6640 C   0  0  0  0  0  3  0  0  0  0  0  0
  -24.8480  -29.0810   20.1650 C   0  0  0  0  0  0  0  0  0  0  0  0
  -25.9590  -30.9550   21.3820 C   0  0  0  0  0  2  0  0  0  0  0  0
  -26.0310  -29.5850   20.7220 C   0  0  0  0  0  0  0  0  0  0  0  0
  -27.2240  -28.8130   20.6710 C   0  0  0  0  0  3  0  0  0  0  0  0
  -26.0250  -27.0630   19.4990 C   0  0  0  0  0  3  0  0  0  0  0  0
  -24.8450  -27.8240   19.5470 C   0  0  0  0  0  3  0  0  0  0  0  0
  -23.6050  -29.9310   20.2680 C   0  0  0  0  0  2  0  0  0  0  0  0
  -24.7170  -31.1900   22.1620 N   0  0  0  0  0  0  0  0  0  0  0  0
  -23.5980  -32.2440   23.8350 O   0  0  0  0  0  0  0  0  0  0  0  0
  -22.8360  -29.5610   22.6370 C   0  0  0  0  0  0  0  0  0  0  0  0
  -21.5250  -29.4150   22.4860 N   0  0  0  0  0  0  0  0  0  0  0  0
  -23.5160  -28.9190   23.4360 O   0  0  0  0  0  0  0  0  0  0  0  0
  -21.1010  -30.0750   21.8490 H   0  0  0  0  0  0  0  0  0  0  0  0
  -18.1830  -27.7840   22.8630 C   0  0  0  0  0  0  0  0  0  0  0  0
  -20.6230  -28.3620   22.8780 C   0  0  0  0  0  3  0  0  0  0  0  0
  -20.9940  -26.8810   22.7330 C   0  0  0  0  0  2  0  0  0  0  0  0
  -19.9630  -26.2140   21.8020 C   0  0  0  0  0  2  0  0  0  0  0  0
  -18.5200  -26.3930   22.3200 C   0  0  0  0  0  2  0  0  0  0  0  0
  -19.1980  -28.6940   23.2440 C   0  0  0  0  0  0  0  0  0  0  0  0
  -18.8610  -29.9610   23.7600 C   0  0  0  0  0  3  0  0  0  0  0  0
  -17.5100  -30.3460   23.8440 C   0  0  0  0  0  3  0  0  0  0  0  0
  -16.4970  -29.4600   23.4380 C   0  0  0  0  0  3  0  0  0  0  0  0
  -16.8340  -28.1780   22.9650 C   0  0  0  0  0  3  0  0  0  0  0  0
  -25.9590  -32.6370   23.8450 C   0  0  0  0  0  3  0  0  0  0  0  0
  -26.5080  -31.8740   25.1110 C   0  0  1  0  0  0  0  0  0  0  0  0
  -25.4380  -31.6140   26.1970 C   0  0  0  0  0  1  0  0  0  0  0  0
  -27.1160  -30.5110   24.7040 C   0  0  0  0  0  1  0  0  0  0  0  0
  -27.6510  -32.6930   25.7550 C   0  0  0  0  0  1  0  0  0  0  0  0
  -25.6380  -34.0300   24.1750 N   0  0  0  0  0  0  0  0  0  0  0  0
  -25.9420  -35.0810   23.4020 C   0  0  0  0  0  0  0  0  0  0  0  0
  -26.5890  -34.9770   22.3570 O   0  0  0  0  0  0  0  0  0  0  0  0
  -25.0560  -34.1780   24.9850 H   0  0  0  0  0  0  0  0  0  0  0  0
  -24.2040  -36.8690   23.0580 C   0  0  0  0  0  1  0  0  0  0  0  0
  -25.4500  -36.4670   23.8630 C   0  0  0  0  0  3  0  0  0  0  0  0
  -27.5800  -37.3660   24.6900 C   0  0  0  0  0  1  0  0  0  0  0  0
  -26.4780  -37.5240   23.7460 N   0  0  0  0  0  0  0  0  0  0  0  0
  -26.0670  -38.4410   23.8910 H   0  0  0  0  0  0  0  0  0  0  0  0
  2  1  1  0
  3  1  1  0
  4 11  1  0
  4  5  1  0
  4  2  1  0
  5 50  1  0
  5  3  1  0
  6  8  2  0
  6 10  1  0
  7  9  1  0
  8 11  1  0
 10  7  2  0
 11  9  2  0
 12 10  1  0
 12 13  2  0
 14 13  1  0
 15 20  1  0
 16 17  1  0
 16 15  1  0
 18 17  1  0
 18 25  1  0
 18 19  1  0
 20 14  1  0
 20 19  1  0
 21 14  2  0
 22 23  2  0
 23 42  1  0
 24 23  1  0
 24 27  1  0
 25 26  1  0
 25 22  1  0
 26 24  2  0
 27 28  1  0
 28 29  2  0
 30 33  1  0
 30 29  1  0
 31 30  2  0
 32 31  1  0
 32 27  2  0
 33 34  1  0
 34 39  2  0
 34 35  1  0
 35 36  2  0
 36 37  1  0
 37 41  1  0
 38 37  2  0
 39 38  1  0
 40 39  1  0
 42 43  1  0
 43 46  1  0
 43 45  1  0
 44 42  2  0
 47 22  1  0
 47 48  1  0
 49 47  1  0
 50 51  1  0
 52 63  2  0
 53 51  1  0
 53 58  1  0
 54 62  1  0
 54 64  1  0
 55 61  1  0
 55 57  1  0
 56 62  1  0
 57 56  1  0
 58 57  2  0
 59 60  1  0
 59 53  2  0
 60 55  2  0
 61 54  1  0
 62 52  1  0
 64 66  2  0
 65 64  1  0
 67 65  1  0
 68 77  2  0
 68 73  1  0
 69 65  1  0
 69 73  1  0
 70 69  1  0
 71 72  1  0
 71 70  1  0
 72 68  1  0
 73 74  2  0
 74 75  1  0
 76 75  2  0
 77 76  1  0
 78 52  1  0
 78 83  1  0
 78 79  1  0
 79 82  1  1
 79 80  1  0
 81 79  1  0
 83 86  1  0
 84 88  1  0
 84 83  1  0
 85 84  2  0
 88 87  1  0
 90 88  1  0
 90 91  1  0
 90 89  1  0
M  ISO  4  13 100  14 100  50 101  51 101
M  END
>  <TORSDO>  (10) 
F 19

>  <SCORE>  (10) 
-13.679

>  <name>  (10) 
9

>  <ligand_id>  (10) 
9

>  <original_smiles>  (10) 
[H]C(C(=O)N1C([H])([H])C([H])([H])C([H])([H])C([H])(n2nc(-c3c([H])c([H])c(Oc4c([H])c([H])c(F)c([H])c4F)c([H])c3[H])c(C(=O)N([H])[H])c2N([H])[H])C1([H])[H])=C([H])c1c([H])c([H])c(C2([H])C([H])([H])C([H])([H])C([H])([H])C2([H])C([H])([H])Oc2c([H])c([H])c3c(c2[H])C([H])([H])N(C(=O)C([H])(N([H])C(=O)C([H])(N([H])C([H])([H])[H])C([H])([H])[H])C(C([H])([H])[H])(C([H])([H])[H])C([H])([H])[H])C([H])(C(=O)N([H])C2([H])c4c([H])c([H])c([H])c([H])c4C([H])([H])C([H])([H])C2([H])[H])C3([H])[H])c([H])c1[H]

>  <smiles>  (10) 
[H]C(C(=O)N1C([H])([H])C([H])([H])C([H])([H])C([H])(n2nc(-c3c([H])c([H])c(Oc4c([H])c([H])c(F)c([H])c4F)c([H])c3[H])c(C(=O)N([H])[H])c2N([H])[H])C1([H])[H])=C([H])c1c([H])c([H])c(C2([H])C([H])([H])C([H])([H])C([H])([H])C2([H])C([H])([H])Oc2c([H])c([H])c3c(c2[H])C([H])([H])N(C(=O)C([H])(N([H])C(=O)C([H])(N([H])C([H])([H])[H])C([H])([H])[H])C(C([H])([H])[H])(C([H])([H])[H])C([H])([H])[H])C([H])(C(=O)N([H])C2([H])c4c([H])c([H])c([H])c([H])c4C([H])([H])C([H])([H])C2([H])[H])C3([H])[H])c([H])c1[H]

$$$$
10:0:0
     RDKit          3D

100108  0  0  1  0  0  0  0  0999 V2000
  -28.1970  -21.4310   20.0760 C   0  0  0  0  0  3  0  0  0  0  0  0
  -28.3410  -19.9970   19.9610 C   0  0  0  0  0  3  0  0  0  0  0  0
  -30.4170  -21.5400   20.8510 C   0  0  0  0  0  3  0  0  0  0  0  0
  -29.2480  -22.2900   20.5050 C   0  0  0  0  0  0  0  0  0  0  0  0
  -29.5450  -19.2380   20.2270 C   0  0  0  0  0  0  0  0  0  0  0  0
  -30.5760  -20.1080   20.7330 C   0  0  0  0  0  0  0  0  0  0  0  0
  -31.9310  -19.5710   21.1500 C   0  0  0  0  0  1  0  0  0  0  0  0
  -29.2270  -23.8750   20.6380 C   0  0  0  0  0  0  0  0  0  0  0  0
  -30.2280  -24.4350   21.1000 O   0  0  0  0  0  0  0  0  0  0  0  0
  -28.0320  -24.8730   20.2240 C   0  0  0  0  0  2  0  0  0  0  0  0
  -28.2720  -26.3720   20.3640 O   0  0  0  0  0  0  0  0  0  0  0  0
  -24.5610  -31.9280   23.2760 C   0  0  0  0  0  0  0  0  0  0  0  0
  -27.1770  -27.2740   20.2880 C   0  0  0  0  0  0  0  0  0  0  0  0
  -23.3670  -30.5120   21.6450 C   0  0  0  0  0  3  0  0  0  0  0  0
  -24.8240  -28.9390   20.2430 C   0  0  0  0  0  0  0  0  0  0  0  0
  -25.9130  -30.8110   21.4780 C   0  0  0  0  0  2  0  0  0  0  0  0
  -25.9950  -29.4200   20.8420 C   0  0  0  0  0  0  0  0  0  0  0  0
  -27.1730  -28.6020   20.8500 C   0  0  0  0  0  3  0  0  0  0  0  0
  -25.9810  -26.8690   19.6570 C   0  0  0  0  0  3  0  0  0  0  0  0
  -24.8230  -27.6730   19.6390 C   0  0  0  0  0  3  0  0  0  0  0  0
  -23.5900  -29.8210   20.2750 C   0  0  0  0  0  2  0  0  0  0  0  0
  -24.6330  -31.1050   22.1880 N   0  0  0  0  0  0  0  0  0  0  0  0
  -23.4740  -32.2130   23.8020 O   0  0  0  0  0  0  0  0  0  0  0  0
  -22.6940  -29.5100   22.6140 C   0  0  0  0  0  0  0  0  0  0  0  0
  -21.3710  -29.3170   22.4690 N   0  0  0  0  0  0  0  0  0  0  0  0
  -23.3630  -28.9080   23.4580 O   0  0  0  0  0  0  0  0  0  0  0  0
  -20.8880  -29.8550   21.7630 H   0  0  0  0  0  0  0  0  0  0  0  0
  -18.0020  -28.0700   22.9220 C   0  0  0  0  0  0  0  0  0  0  0  0
  -20.5490  -28.3850   23.2440 C   0  0  0  0  0  3  0  0  0  0  0  0
  -20.6900  -26.9410   22.7100 C   0  0  0  0  0  2  0  0  0  0  0  0
  -19.6190  -26.5730   21.6770 C   0  0  0  0  0  2  0  0  0  0  0  0
  -18.2180  -26.7090   22.2810 C   0  0  0  0  0  2  0  0  0  0  0  0
  -19.0970  -28.8630   23.3590 C   0  0  0  0  0  0  0  0  0  0  0  0
  -18.8410  -30.1350   23.9160 C   0  0  0  0  0  3  0  0  0  0  0  0
  -17.5240  -30.6160   24.0380 C   0  0  0  0  0  3  0  0  0  0  0  0
  -16.4440  -29.8200   23.6180 C   0  0  0  0  0  3  0  0  0  0  0  0
  -16.6840  -28.5500   23.0670 C   0  0  0  0  0  3  0  0  0  0  0  0
  -25.8400  -32.5680   23.9000 C   0  0  0  0  0  3  0  0  0  0  0  0
  -26.3390  -31.8190   25.1960 C   0  0  1  0  0  0  0  0  0  0  0  0
  -25.2340  -31.6090   26.2580 C   0  0  0  0  0  1  0  0  0  0  0  0
  -26.9180  -30.4310   24.8410 C   0  0  0  0  0  1  0  0  0  0  0  0
  -27.4880  -32.6200   25.8540 C   0  0  0  0  0  1  0  0  0  0  0  0
  -25.5320  -33.9740   24.2050 N   0  0  0  0  0  0  0  0  0  0  0  0
  -25.8840  -35.0160   23.4380 C   0  0  0  0  0  0  0  0  0  0  0  0
  -26.5690  -34.8940   22.4200 O   0  0  0  0  0  0  0  0  0  0  0  0
  -24.9250  -34.1450   24.9930 H   0  0  0  0  0  0  0  0  0  0  0  0
  -24.1830  -36.8220   23.0220 C   0  0  0  0  0  1  0  0  0  0  0  0
  -25.3980  -36.4130   23.8700 C   0  0  0  0  0  3  0  0  0  0  0  0
  -27.5190  -37.2850   24.7480 C   0  0  0  0  0  1  0  0  0  0  0  0
  -26.4420  -37.4570   23.7770 N   0  0  0  0  0  0  0  0  0  0  0  0
  -26.0400  -38.3810   23.9130 H   0  0  0  0  0  0  0  0  0  0  0  0
  -28.3390  -17.1800   19.2590 C   0  0  0  0  0  1  0  0  0  0  0  0
  -29.7340  -17.6550   19.7610 C   0  0  1  0  0  0  0  0  0  0  0  0
  -30.6130  -17.6830   18.4620 C   0  0  0  0  0  0  0  0  0  0  0  0
  -30.0930  -17.9090   17.3630 O   0  0  0  0  0  0  0  0  0  0  0  0
  -32.1380  -17.4760   18.4980 C   0  0  0  0  0  2  0  0  0  0  0  0
  -32.9170  -18.3430   17.4770 C   0  0  0  0  0  2  0  0  0  0  0  0
  -34.3220  -17.7980   17.1600 C   0  0  0  0  0  2  0  0  0  0  0  0
  -35.0020  -18.5570   16.0020 C   0  0  0  0  0  2  0  0  0  0  0  0
  -36.3180  -17.9970   15.6480 N   0  0  0  0  0  4  0  0  0  0  0  0
  -36.9620  -18.0790   16.4140 H   0  0  0  0  0  0  0  0  0  0  0  0
  -36.6980  -18.5000   14.8650 H   0  0  0  0  0  0  0  0  0  0  0  0
  -36.2410  -17.0310   15.3890 H   0  0  0  0  0  0  0  0  0  0  0  0
  -30.1060  -16.3860   20.7940 C   0  0  0  0  0  2  0  0  0  0  0  0
  -30.7200  -14.9200   20.3700 C   0  0  0  0  0  0  0  0  0  0  0  0
  -30.5070  -12.6100   19.4010 C   0  0  0  0  0  2  0  0  0  0  0  0
  -29.5980  -12.6500   18.1540 C   0  0  0  0  0  2  0  0  0  0  0  0
  -28.1270  -12.4510   18.5620 C   0  0  0  0  0  2  0  0  0  0  0  0
  -27.7220  -13.3500   19.7580 C   0  0  0  0  0  3  0  0  0  0  0  0
  -28.7650  -13.3360   20.8950 C   0  0  0  0  0  2  0  0  0  0  0  0
  -30.0660  -13.6950   20.3190 N   0  0  0  0  0  0  0  0  0  0  0  0
  -31.9080  -14.9110   20.0440 O   0  0  0  0  0  0  0  0  0  0  0  0
  -25.3270  -13.9360   20.4490 C   0  0  0  0  0  0  0  0  0  0  0  0
  -24.2570  -13.1640   20.8060 C   0  0  0  0  0  0  0  0  0  0  0  0
  -24.7280  -11.8150   20.8030 C   0  0  0  0  0  0  0  0  0  0  0  0
  -26.3770  -13.0570   20.2400 N   0  0  0  0  0  0  0  0  0  0  0  0
  -26.0260  -11.7780   20.5200 N   0  0  0  0  0  0  0  0  0  0  0  0
  -24.0050  -10.5520   20.9930 C   0  0  0  0  0  0  0  0  0  0  0  0
  -24.4280   -9.5960   21.9420 C   0  0  0  0  0  3  0  0  0  0  0  0
  -23.7020   -8.3990   22.1220 C   0  0  0  0  0  3  0  0  0  0  0  0
  -22.5400   -8.1500   21.3550 C   0  0  0  0  0  0  0  0  0  0  0  0
  -22.1350   -9.0970   20.3980 C   0  0  0  0  0  3  0  0  0  0  0  0
  -22.8610  -10.2860   20.2150 C   0  0  0  0  0  3  0  0  0  0  0  0
  -21.7880   -7.0040   21.4440 O   0  0  0  0  0  0  0  0  0  0  0  0
  -21.7310   -6.2670   22.6000 C   0  0  0  0  0  0  0  0  0  0  0  0
  -21.2910   -6.8270   23.8190 C   0  0  0  0  0  3  0  0  0  0  0  0
  -21.1820   -6.0190   24.9680 C   0  0  0  0  0  3  0  0  0  0  0  0
  -21.5010   -4.6490   24.8980 C   0  0  0  0  0  0  0  0  0  0  0  0
  -21.9320   -4.0880   23.6840 C   0  0  0  0  0  3  0  0  0  0  0  0
  -22.0430   -4.8940   22.5370 C   0  0  0  0  0  0  0  0  0  0  0  0
  -22.4390   -4.3440   21.3640 F   0  0  0  0  0  0  0  0  0  0  0  0
  -21.3890   -3.8700   26.0000 F   0  0  0  0  0  0  0  0  0  0  0  0
  -22.8530  -13.6400   21.0410 C   0  0  0  0  0  0  0  0  0  0  0  0
  -22.1120  -12.9540   21.9030 N   0  0  0  0  0  0  0  0  0  0  0  0
  -22.4220  -14.6560   20.4970 O   0  0  0  0  0  0  0  0  0  0  0  0
  -22.4760  -12.1350   22.3700 H   0  0  0  0  0  0  0  0  0  0  0  0
  -21.1690  -13.2570   22.1040 H   0  0  0  0  0  0  0  0  0  0  0  0
  -25.4910  -15.3050   20.2590 N   0  0  0  0  0  0  0  0  0  0  0  0
  -24.7270  -15.9630   20.3520 H   0  0  0  0  0  0  0  0  0  0  0  0
  -26.3510  -15.7380   19.9560 H   0  0  0  0  0  0  0  0  0  0  0  0
  1  4  1  0
  2  1  2  0
  2  5  1  0
  4  8  1  0
  4  3  2  0
  5  6  2  0
  6  3  1  0
  6  7  1  0
  8  9  2  0
 10 11  1  0
 10  8  1  0
 12 23  2  0
 13 11  1  0
 13 18  1  0
 14 22  1  0
 14 24  1  0
 15 21  1  0
 15 17  1  0
 16 22  1  0
 17 18  2  0
 17 16  1  0
 19 13  2  0
 20 19  1  0
 20 15  2  0
 21 14  1  0
 22 12  1  0
 24 26  2  0
 25 24  1  0
 27 25  1  0
 28 37  2  0
 28 33  1  0
 29 25  1  0
 29 33  1  0
 30 29  1  0
 31 32  1  0
 31 30  1  0
 32 28  1  0
 33 34  2  0
 34 35  1  0
 36 35  2  0
 37 36  1  0
 38 12  1  0
 38 43  1  0
 38 39  1  0
 39 42  1  1
 39 40  1  0
 41 39  1  0
 43 46  1  0
 44 48  1  0
 44 43  1  0
 45 44  2  0
 48 47  1  0
 50 48  1  0
 50 51  1  0
 50 49  1  0
 53 52  1  6
 53  5  1  0
 53 64  1  0
 54 56  1  0
 54 53  1  0
 55 54  2  0
 57 56  1  0
 58 57  1  0
 59 58  1  0
 60 59  1  0
 60 61  1  0
 62 60  1  0
 63 60  1  0
 65 64  1  0
 66 71  1  0
 67 68  1  0
 67 66  1  0
 69 68  1  0
 69 76  1  0
 69 70  1  0
 71 65  1  0
 71 70  1  0
 72 65  2  0
 73 74  2  0
 74 93  1  0
 75 74  1  0
 75 78  1  0
 76 73  1  0
 76 77  1  0
 77 75  2  0
 78 79  1  0
 79 80  2  0
 81 84  1  0
 81 80  1  0
 82 81  2  0
 83 82  1  0
 83 78  2  0
 84 85  1  0
 85 86  1  0
 86 87  2  0
 88 87  1  0
 88 92  1  0
 89 88  2  0
 90 85  2  0
 90 89  1  0
 91 90  1  0
 93 94  1  0
 94 97  1  0
 94 96  1  0
 95 93  2  0
 98 99  1  0
 98 73  1  0
100 98  1  0
M  ISO  4  10 101  11 101  64 100  65 100
M  END
>  <TORSDO>  (11) 
F 26

>  <SCORE>  (11) 
-12.437

>  <name>  (11) 
10

>  <ligand_id>  (11) 
10

>  <original_smiles>  (11) 
[H]c1c([H])c([H])c2c(c1[H])C([H])([H])C([H])([H])C([H])([H])C2([H])N([H])C(=O)C1([H])N(C(=O)C([H])(N([H])C(=O)C([H])(N([H])C([H])([H])[H])C([H])([H])[H])C(C([H])([H])[H])(C([H])([H])[H])C([H])([H])[H])C([H])([H])c2c([H])c(OC([H])([H])C(=O)c3c([H])c([H])c(C(C(=O)C([H])([H])C([H])([H])C([H])([H])C([H])([H])[N+]([H])([H])[H])(C([H])([H])[H])C([H])([H])C(=O)N4C([H])([H])C([H])([H])C([H])([H])C([H])(n5nc(-c6c([H])c([H])c(Oc7c([H])c([H])c(F)c([H])c7F)c([H])c6[H])c(C(=O)N([H])[H])c5N([H])[H])C4([H])[H])c(C([H])([H])[H])c3[H])c([H])c([H])c2C1([H])[H]

>  <smiles>  (11) 
[H]c1c([H])c([H])c2c(c1[H])C([H])([H])C([H])([H])C([H])([H])C2([H])N([H])C(=O)C1([H])N(C(=O)C([H])(N([H])C(=O)C([H])(N([H])C([H])([H])[H])C([H])([H])[H])C(C([H])([H])[H])(C([H])([H])[H])C([H])([H])[H])C([H])([H])c2c([H])c(OC([H])([H])C(=O)c3c([H])c([H])c(C(C(=O)C([H])([H])C([H])([H])C([H])([H])C([H])([H])[N+]([H])([H])[H])(C([H])([H])[H])C([H])([H])C(=O)N4C([H])([H])C([H])([H])C([H])([H])C([H])(n5nc(-c6c([H])c([H])c(Oc7c([H])c([H])c(F)c([H])c7F)c([H])c6[H])c(C(=O)N([H])[H])c5N([H])[H])C4([H])[H])c(C([H])([H])[H])c3[H])c([H])c([H])c2C1([H])[H]

$$$$
11:0:0
     RDKit          3D

 91 99  0  0  1  0  0  0  0  0999 V2000
  -29.5290  -20.5100   20.0670 C   0  0  0  0  0  3  0  0  0  0  0  0
  -29.6240  -21.9360   21.9850 C   0  0  0  0  0  3  0  0  0  0  0  0
  -29.2310  -21.8640   20.6290 C   0  0  0  0  0  0  0  0  0  0  0  0
  -30.1540  -19.3690   20.7960 C   0  0  0  0  0  0  0  0  0  0  0  0
  -30.1850  -20.8200   22.6600 C   0  0  0  0  0  0  0  0  0  0  0  0
  -30.5770  -20.9600   24.1250 C   0  0  0  0  0  1  0  0  0  0  0  0
  -30.4360  -19.6020   22.1000 N   0  0  0  0  0  0  0  0  0  0  0  0
  -30.7060  -16.6040   20.7820 C   0  0  0  0  0  3  0  0  0  0  0  0
  -30.6570  -17.9280   20.2350 C   0  0  0  0  0  0  0  0  0  0  0  0
  -31.3680  -15.2800   20.2520 C   0  0  0  0  0  0  0  0  0  0  0  0
  -31.1080  -12.9690   19.2000 C   0  0  0  0  0  2  0  0  0  0  0  0
  -30.1820  -13.0280   17.9600 C   0  0  0  0  0  2  0  0  0  0  0  0
  -28.7090  -12.8700   18.3700 C   0  0  0  0  0  2  0  0  0  0  0  0
  -28.3520  -13.7440   19.5990 C   0  0  0  0  0  3  0  0  0  0  0  0
  -29.4040  -13.6680   20.7230 C   0  0  0  0  0  2  0  0  0  0  0  0
  -30.7020  -14.0510   20.1560 N   0  0  0  0  0  0  0  0  0  0  0  0
  -32.5380  -15.2510   19.8450 O   0  0  0  0  0  0  0  0  0  0  0  0
  -26.0110  -14.3950   20.3900 C   0  0  0  0  0  0  0  0  0  0  0  0
  -24.9160  -13.6570   20.7430 C   0  0  0  0  0  0  0  0  0  0  0  0
  -25.3170  -12.2900   20.6610 C   0  0  0  0  0  0  0  0  0  0  0  0
  -27.0080  -13.4780   20.1020 N   0  0  0  0  0  0  0  0  0  0  0  0
  -26.6010  -12.2020   20.3320 N   0  0  0  0  0  0  0  0  0  0  0  0
  -24.5270  -11.0600   20.8200 C   0  0  0  0  0  0  0  0  0  0  0  0
  -24.9080  -10.0530   21.7340 C   0  0  0  0  0  3  0  0  0  0  0  0
  -24.1250   -8.8860   21.8820 C   0  0  0  0  0  3  0  0  0  0  0  0
  -22.9490   -8.7150   21.1150 C   0  0  0  0  0  0  0  0  0  0  0  0
  -22.5870   -9.7100   20.1920 C   0  0  0  0  0  3  0  0  0  0  0  0
  -23.3670  -10.8690   20.0410 C   0  0  0  0  0  3  0  0  0  0  0  0
  -22.1400   -7.6050   21.1750 O   0  0  0  0  0  0  0  0  0  0  0  0
  -22.0080   -6.8700   22.3260 C   0  0  0  0  0  0  0  0  0  0  0  0
  -21.5630   -7.4510   23.5350 C   0  0  0  0  0  3  0  0  0  0  0  0
  -21.3760   -6.6460   24.6740 C   0  0  0  0  0  3  0  0  0  0  0  0
  -21.6150   -5.2600   24.6080 C   0  0  0  0  0  0  0  0  0  0  0  0
  -22.0490   -4.6780   23.4050 C   0  0  0  0  0  3  0  0  0  0  0  0
  -22.2410   -5.4800   22.2660 C   0  0  0  0  0  0  0  0  0  0  0  0
  -22.6380   -4.9100   21.1030 F   0  0  0  0  0  0  0  0  0  0  0  0
  -21.4280   -4.4880   25.7030 F   0  0  0  0  0  0  0  0  0  0  0  0
  -23.5440  -14.1900   21.0400 C   0  0  0  0  0  0  0  0  0  0  0  0
  -22.8020  -13.5230   21.9170 N   0  0  0  0  0  0  0  0  0  0  0  0
  -23.1420  -15.2360   20.5290 O   0  0  0  0  0  0  0  0  0  0  0  0
  -23.1420  -12.6800   22.3550 H   0  0  0  0  0  0  0  0  0  0  0  0
  -21.8730  -13.8520   22.1420 H   0  0  0  0  0  0  0  0  0  0  0  0
  -26.2460  -15.7630   20.2630 N   0  0  0  0  0  0  0  0  0  0  0  0
  -25.5190  -16.4580   20.3920 H   0  0  0  0  0  0  0  0  0  0  0  0
  -27.1260  -16.1610   19.9580 H   0  0  0  0  0  0  0  0  0  0  0  0
  -31.1920  -18.1060   19.0190 O   0  0  0  0  0  0  0  0  0  0  0  0
  -31.1480  -19.0380   18.8450 H   0  0  0  0  0  0  0  0  0  0  0  0
  -27.2930  -22.7230   19.1330 C   0  0  0  0  0  1  0  0  0  0  0  0
  -28.5520  -23.1920   19.8610 C   0  0  0  0  0  3  0  0  0  0  0  0
  -28.1160  -24.6930   20.5320 C   0  0  0  0  0  2  0  0  0  0  0  0
  -28.2090  -26.1180   19.8740 O   0  0  0  0  0  0  0  0  0  0  0  0
  -24.5100  -31.6500   23.0270 C   0  0  0  0  0  0  0  0  0  0  0  0
  -27.1270  -27.0700   19.8740 C   0  0  0  0  0  0  0  0  0  0  0  0
  -23.3110  -30.2630   21.3760 C   0  0  0  0  0  3  0  0  0  0  0  0
  -24.7660  -28.7600   19.8840 C   0  0  0  0  0  0  0  0  0  0  0  0
  -25.8460  -30.6130   21.1500 C   0  0  0  0  0  2  0  0  0  0  0  0
  -25.9440  -29.2310   20.4810 C   0  0  0  0  0  0  0  0  0  0  0  0
  -27.1280  -28.4070   20.4430 C   0  0  0  0  0  3  0  0  0  0  0  0
  -25.9240  -26.6990   19.2400 C   0  0  0  0  0  3  0  0  0  0  0  0
  -24.7730  -27.5180   19.2330 C   0  0  0  0  0  3  0  0  0  0  0  0
  -23.5160  -29.6180   19.9760 C   0  0  0  0  0  2  0  0  0  0  0  0
  -24.5780  -30.8660   21.9060 N   0  0  0  0  0  0  0  0  0  0  0  0
  -23.4300  -31.8780   23.5940 O   0  0  0  0  0  0  0  0  0  0  0  0
  -22.6810  -29.2160   22.3320 C   0  0  0  0  0  0  0  0  0  0  0  0
  -21.3550  -29.0110   22.2370 N   0  0  0  0  0  0  0  0  0  0  0  0
  -23.3930  -28.5830   23.1170 O   0  0  0  0  0  0  0  0  0  0  0  0
  -20.8330  -29.5730   21.5800 H   0  0  0  0  0  0  0  0  0  0  0  0
  -18.0240  -27.6780   22.7670 C   0  0  0  0  0  0  0  0  0  0  0  0
  -20.5770  -28.0290   23.0040 C   0  0  0  0  0  3  0  0  0  0  0  0
  -20.7200  -26.6090   22.4050 C   0  0  0  0  0  2  0  0  0  0  0  0
  -19.6160  -26.2640   21.4010 C   0  0  0  0  0  2  0  0  0  0  0  0
  -18.2400  -26.3460   22.0680 C   0  0  0  0  0  2  0  0  0  0  0  0
  -19.1200  -28.4740   23.1940 C   0  0  0  0  0  0  0  0  0  0  0  0
  -18.8590  -29.7140   23.8140 C   0  0  0  0  0  3  0  0  0  0  0  0
  -17.5380  -30.1600   24.0080 C   0  0  0  0  0  3  0  0  0  0  0  0
  -16.4570  -29.3610   23.5960 C   0  0  0  0  0  3  0  0  0  0  0  0
  -16.7030  -28.1230   22.9780 C   0  0  0  0  0  3  0  0  0  0  0  0
  -25.7820  -32.3090   23.6410 C   0  0  0  0  0  3  0  0  0  0  0  0
  -26.3470  -31.5170   24.8840 C   0  0  1  0  0  0  0  0  0  0  0  0
  -25.2930  -31.2140   25.9760 C   0  0  0  0  0  1  0  0  0  0  0  0
  -26.9440  -30.1660   24.4400 C   0  0  0  0  0  1  0  0  0  0  0  0
  -27.5020  -32.3150   25.5320 C   0  0  0  0  0  1  0  0  0  0  0  0
  -25.4360  -33.6850   24.0290 N   0  0  0  0  0  0  0  0  0  0  0  0
  -25.7440  -34.7820   23.3250 C   0  0  0  0  0  0  0  0  0  0  0  0
  -26.4170  -34.7430   22.2910 O   0  0  0  0  0  0  0  0  0  0  0  0
  -24.8300  -33.7800   24.8310 H   0  0  0  0  0  0  0  0  0  0  0  0
  -23.9890  -36.5620   23.0460 C   0  0  0  0  0  1  0  0  0  0  0  0
  -25.2330  -36.1400   23.8450 C   0  0  0  0  0  3  0  0  0  0  0  0
  -27.3450  -37.0320   24.7240 C   0  0  0  0  0  1  0  0  0  0  0  0
  -26.2440  -37.2190   23.7820 N   0  0  0  0  0  0  0  0  0  0  0  0
  -25.8220  -38.1270   23.9630 H   0  0  0  0  0  0  0  0  0  0  0  0
  1  3  2  0
  1  4  1  0
  2  5  2  0
  3  2  1  0
  4  7  2  0
  5  6  1  0
  7  5  1  0
  9  8  2  0
  9  4  1  0
 10  8  1  0
 11 16  1  0
 12 13  1  0
 12 11  1  0
 14 13  1  0
 14 21  1  0
 14 15  1  0
 16 10  1  0
 16 15  1  0
 17 10  2  0
 18 19  2  0
 19 38  1  0
 20 19  1  0
 20 23  1  0
 21 22  1  0
 21 18  1  0
 22 20  2  0
 23 24  1  0
 24 25  2  0
 26 29  1  0
 26 25  1  0
 27 26  2  0
 28 27  1  0
 28 23  2  0
 29 30  1  0
 30 31  1  0
 31 32  2  0
 33 32  1  0
 33 37  1  0
 34 33  2  0
 35 30  2  0
 35 34  1  0
 36 35  1  0
 38 39  1  0
 39 42  1  0
 39 41  1  0
 40 38  2  0
 43 18  1  0
 43 44  1  0
 45 43  1  0
 46  9  1  0
 47 46  1  0
 49 48  1  0
 49 50  1  0
 49  3  1  0
 51 53  1  0
 51 50  1  0
 52 63  2  0
 53 58  1  0
 54 62  1  0
 54 64  1  0
 55 61  1  0
 55 57  1  0
 56 62  1  0
 57 56  1  0
 58 57  2  0
 59 53  2  0
 60 59  1  0
 60 55  2  0
 61 54  1  0
 62 52  1  0
 64 66  2  0
 65 64  1  0
 67 65  1  0
 68 77  2  0
 68 73  1  0
 69 65  1  0
 69 73  1  0
 70 69  1  0
 71 72  1  0
 71 70  1  0
 72 68  1  0
 73 74  2  0
 74 75  1  0
 76 75  2  0
 77 76  1  0
 78 52  1  0
 78 83  1  0
 78 79  1  0
 79 82  1  1
 79 80  1  0
 81 79  1  0
 83 86  1  0
 84 88  1  0
 84 83  1  0
 85 84  2  0
 88 87  1  0
 90 88  1  0
 90 91  1  0
 90 89  1  0
M  ISO  4   8 100  10 100  50 101  51 101
M  END
>  <TORSDO>  (12) 
F 20

>  <SCORE>  (12) 
-13.370

>  <name>  (12) 
11

>  <ligand_id>  (12) 
11

>  <original_smiles>  (12) 
[H]OC(=C([H])C(=O)N1C([H])([H])C([H])([H])C([H])([H])C([H])(n2nc(-c3c([H])c([H])c(Oc4c([H])c([H])c(F)c([H])c4F)c([H])c3[H])c(C(=O)N([H])[H])c2N([H])[H])C1([H])[H])c1nc(C([H])([H])[H])c([H])c(C([H])(C([H])([H])[H])C([H])([H])Oc2c([H])c([H])c3c(c2[H])C([H])([H])N(C(=O)C([H])(N([H])C(=O)C([H])(N([H])C([H])([H])[H])C([H])([H])[H])C(C([H])([H])[H])(C([H])([H])[H])C([H])([H])[H])C([H])(C(=O)N([H])C2([H])c4c([H])c([H])c([H])c([H])c4C([H])([H])C([H])([H])C2([H])[H])C3([H])[H])c1[H]

>  <smiles>  (12) 
[H]OC(=C([H])C(=O)N1C([H])([H])C([H])([H])C([H])([H])C([H])(n2nc(-c3c([H])c([H])c(Oc4c([H])c([H])c(F)c([H])c4F)c([H])c3[H])c(C(=O)N([H])[H])c2N([H])[H])C1([H])[H])c1nc(C([H])([H])[H])c([H])c(C([H])(C([H])([H])[H])C([H])([H])Oc2c([H])c([H])c3c(c2[H])C([H])([H])N(C(=O)C([H])(N([H])C(=O)C([H])(N([H])C([H])([H])[H])C([H])([H])[H])C(C([H])([H])[H])(C([H])([H])[H])C([H])([H])[H])C([H])(C(=O)N([H])C2([H])c4c([H])c([H])c([H])c([H])c4C([H])([H])C([H])([H])C2([H])[H])C3([H])[H])c1[H]

$$$$
12:0:0
     RDKit          3D

 87 94  0  0  1  0  0  0  0  0999 V2000
  -28.9630  -22.9060   20.1910 C   0  0  0  0  0  2  0  0  0  0  0  0
  -29.2460  -21.7750   19.1690 C   0  0  0  0  0  2  0  0  0  0  0  0
  -30.0070  -20.5420   19.7400 C   0  0  0  0  0  2  0  0  0  0  0  0
  -29.1770  -19.3320   20.2070 C   0  0  0  0  0  0  0  0  0  0  0  0
  -27.9590  -19.2660   20.0180 O   0  0  0  0  0  0  0  0  0  0  0  0
  -29.9370  -18.1940   20.9200 C   0  0  0  0  0  2  0  0  0  0  0  0
  -29.5020  -16.7520   20.5320 C   0  0  0  0  0  2  0  0  0  0  0  0
  -30.2170  -15.6290   21.3440 C   0  0  0  0  0  2  0  0  0  0  0  0
  -30.7430  -14.4520   20.4870 C   0  0  0  0  0  0  0  0  0  0  0  0
  -30.3880  -12.3240   19.2850 C   0  0  0  0  0  2  0  0  0  0  0  0
  -29.4460  -12.5650   18.0890 C   0  0  0  0  0  2  0  0  0  0  0  0
  -27.9720  -12.4400   18.5250 C   0  0  0  0  0  2  0  0  0  0  0  0
  -27.6560  -13.2710   19.7970 C   0  0  0  0  0  3  0  0  0  0  0  0
  -28.7110  -13.0100   20.8960 C   0  0  0  0  0  2  0  0  0  0  0  0
  -30.0390  -13.2970   20.3340 N   0  0  0  0  0  0  0  0  0  0  0  0
  -31.8180  -14.6370   19.9080 O   0  0  0  0  0  0  0  0  0  0  0  0
  -25.2650  -13.9130   20.5050 C   0  0  0  0  0  0  0  0  0  0  0  0
  -24.1870  -13.1560   20.8810 C   0  0  0  0  0  0  0  0  0  0  0  0
  -24.6310  -11.7980   20.8560 C   0  0  0  0  0  0  0  0  0  0  0  0
  -26.2980  -13.0170   20.2780 N   0  0  0  0  0  0  0  0  0  0  0  0
  -25.9200  -11.7400   20.5440 N   0  0  0  0  0  0  0  0  0  0  0  0
  -23.8890  -10.5460   21.0550 C   0  0  0  0  0  0  0  0  0  0  0  0
  -24.3270   -9.5670   21.9740 C   0  0  0  0  0  3  0  0  0  0  0  0
  -23.5840   -8.3820   22.1630 C   0  0  0  0  0  3  0  0  0  0  0  0
  -22.3930   -8.1650   21.4300 C   0  0  0  0  0  0  0  0  0  0  0  0
  -21.9760   -9.1340   20.5010 C   0  0  0  0  0  3  0  0  0  0  0  0
  -22.7170  -10.3110   20.3110 C   0  0  0  0  0  3  0  0  0  0  0  0
  -21.6240   -7.0310   21.5260 O   0  0  0  0  0  0  0  0  0  0  0  0
  -21.6000   -6.2720   22.6700 C   0  0  0  0  0  0  0  0  0  0  0  0
  -21.2440   -6.8200   23.9200 C   0  0  0  0  0  3  0  0  0  0  0  0
  -21.1670   -5.9890   25.0560 C   0  0  0  0  0  3  0  0  0  0  0  0
  -21.4340   -4.6120   24.9410 C   0  0  0  0  0  0  0  0  0  0  0  0
  -21.7850   -4.0630   23.6950 C   0  0  0  0  0  3  0  0  0  0  0  0
  -21.8640   -4.8900   22.5620 C   0  0  0  0  0  0  0  0  0  0  0  0
  -22.1800   -4.3540   21.3580 F   0  0  0  0  0  0  0  0  0  0  0  0
  -21.3520   -3.8130   26.0300 F   0  0  0  0  0  0  0  0  0  0  0  0
  -22.7970  -13.6540   21.1530 C   0  0  0  0  0  0  0  0  0  0  0  0
  -22.0620  -12.9760   22.0270 N   0  0  0  0  0  0  0  0  0  0  0  0
  -22.3700  -14.6800   20.6250 O   0  0  0  0  0  0  0  0  0  0  0  0
  -22.4160  -12.1470   22.4800 H   0  0  0  0  0  0  0  0  0  0  0  0
  -21.1300  -13.2940   22.2510 H   0  0  0  0  0  0  0  0  0  0  0  0
  -25.4430  -15.2810   20.3170 N   0  0  0  0  0  0  0  0  0  0  0  0
  -24.6770  -15.9390   20.4240 H   0  0  0  0  0  0  0  0  0  0  0  0
  -26.2950  -15.7150   19.9880 H   0  0  0  0  0  0  0  0  0  0  0  0
  -28.6070  -24.2830   19.5630 C   0  0  0  0  0  2  0  0  0  0  0  0
  -28.3810  -25.3930   20.6220 C   0  0  0  0  0  2  0  0  0  0  0  0
  -28.4060  -26.7290   20.0970 O   0  0  0  0  0  0  0  0  0  0  0  0
  -24.5960  -31.8800   23.2380 C   0  0  0  0  0  0  0  0  0  0  0  0
  -27.2260  -27.4400   20.1400 C   0  0  0  0  0  0  0  0  0  0  0  0
  -23.3780  -30.4760   21.6060 C   0  0  0  0  0  3  0  0  0  0  0  0
  -24.8240  -28.9330   20.1760 C   0  0  0  0  0  0  0  0  0  0  0  0
  -25.9020  -30.8390   21.3860 C   0  0  0  0  0  2  0  0  0  0  0  0
  -25.9860  -29.4670   20.7480 C   0  0  0  0  0  0  0  0  0  0  0  0
  -27.1930  -28.7290   20.7210 C   0  0  0  0  0  3  0  0  0  0  0  0
  -26.0460  -26.9150   19.5720 C   0  0  0  0  0  3  0  0  0  0  0  0
  -24.8480  -27.6550   19.5880 C   0  0  0  0  0  3  0  0  0  0  0  0
  -23.5790  -29.7910   20.2270 C   0  0  0  0  0  2  0  0  0  0  0  0
  -24.6450  -31.0790   22.1360 N   0  0  0  0  0  0  0  0  0  0  0  0
  -23.5180  -32.1520   23.7850 O   0  0  0  0  0  0  0  0  0  0  0  0
  -22.7330  -29.4570   22.5720 C   0  0  0  0  0  0  0  0  0  0  0  0
  -21.4080  -29.2750   22.4540 N   0  0  0  0  0  0  0  0  0  0  0  0
  -23.4220  -28.8330   23.3830 O   0  0  0  0  0  0  0  0  0  0  0  0
  -20.9130  -29.8290   21.7690 H   0  0  0  0  0  0  0  0  0  0  0  0
  -18.0380  -28.0820   22.9690 C   0  0  0  0  0  0  0  0  0  0  0  0
  -20.5960  -28.3400   23.2310 C   0  0  0  0  0  3  0  0  0  0  0  0
  -20.6960  -26.9080   22.6550 C   0  0  0  0  0  2  0  0  0  0  0  0
  -19.5890  -26.5850   21.6460 C   0  0  0  0  0  2  0  0  0  0  0  0
  -18.2100  -26.7320   22.2950 C   0  0  0  0  0  2  0  0  0  0  0  0
  -19.1570  -28.8450   23.3930 C   0  0  0  0  0  0  0  0  0  0  0  0
  -18.9420  -30.1100   23.9820 C   0  0  0  0  0  3  0  0  0  0  0  0
  -17.6380  -30.6140   24.1460 C   0  0  0  0  0  3  0  0  0  0  0  0
  -16.5320  -29.8480   23.7390 C   0  0  0  0  0  3  0  0  0  0  0  0
  -16.7320  -28.5830   23.1570 C   0  0  0  0  0  3  0  0  0  0  0  0
  -25.8870  -32.5100   23.8480 C   0  0  0  0  0  3  0  0  0  0  0  0
  -25.5800  -33.9050   24.1890 N   0  0  0  0  0  0  0  0  0  0  0  0
  -25.9040  -34.9620   23.4320 C   0  0  0  0  0  0  0  0  0  0  0  0
  -26.5650  -34.8640   22.3940 O   0  0  0  0  0  0  0  0  0  0  0  0
  -24.9910  -34.0540   24.9950 H   0  0  0  0  0  0  0  0  0  0  0  0
  -24.1680  -36.7480   23.1000 C   0  0  0  0  0  1  0  0  0  0  0  0
  -25.4170  -36.3460   23.8990 C   0  0  0  0  0  3  0  0  0  0  0  0
  -27.5580  -37.2310   24.7110 C   0  0  0  0  0  1  0  0  0  0  0  0
  -26.4450  -37.4030   23.7830 N   0  0  0  0  0  0  0  0  0  0  0  0
  -26.0370  -38.3210   23.9410 H   0  0  0  0  0  0  0  0  0  0  0  0
  -26.4220  -31.7310   25.1110 C   0  0  1  0  0  0  0  0  0  0  0  0
  -25.3450  -31.4840   26.1920 C   0  0  0  0  0  1  0  0  0  0  0  0
  -27.0010  -30.3580   24.6980 C   0  0  0  0  0  1  0  0  0  0  0  0
  -27.5810  -32.5220   25.7640 C   0  0  0  0  0  1  0  0  0  0  0  0
  2  3  1  0
  2  1  1  0
  3  4  1  0
  4  6  1  0
  5  4  2  0
  7  6  1  0
  7  8  1  0
  9  8  1  0
 10 15  1  0
 11 12  1  0
 11 10  1  0
 13 12  1  0
 13 20  1  0
 13 14  1  0
 15  9  1  0
 15 14  1  0
 16  9  2  0
 17 18  2  0
 18 37  1  0
 19 18  1  0
 19 22  1  0
 20 17  1  0
 20 21  1  0
 21 19  2  0
 22 23  1  0
 23 24  2  0
 25 28  1  0
 25 24  1  0
 26 25  2  0
 27 26  1  0
 27 22  2  0
 28 29  1  0
 29 30  1  0
 30 31  2  0
 32 31  1  0
 32 36  1  0
 33 32  2  0
 34 29  2  0
 34 33  1  0
 35 34  1  0
 37 38  1  0
 38 41  1  0
 38 40  1  0
 39 37  2  0
 42 43  1  0
 42 17  1  0
 44 42  1  0
 45  1  1  0
 45 46  1  0
 47 49  1  0
 47 46  1  0
 48 59  2  0
 49 54  1  0
 50 58  1  0
 50 60  1  0
 51 57  1  0
 51 53  1  0
 52 58  1  0
 53 52  1  0
 54 53  2  0
 55 56  1  0
 55 49  2  0
 56 51  2  0
 57 50  1  0
 58 48  1  0
 60 62  2  0
 61 60  1  0
 63 61  1  0
 64 73  2  0
 64 69  1  0
 65 61  1  0
 65 69  1  0
 66 65  1  0
 67 68  1  0
 67 66  1  0
 68 64  1  0
 69 70  2  0
 70 71  1  0
 72 71  2  0
 73 72  1  0
 74 48  1  0
 74 75  1  0
 74 84  1  0
 75 78  1  0
 76 80  1  0
 76 75  1  0
 77 76  2  0
 80 79  1  0
 82 80  1  0
 82 83  1  0
 82 81  1  0
 84 87  1  1
 84 85  1  0
 86 84  1  0
M  ISO  4   8 100   9 100  46 101  47 101
M  END
>  <TORSDO>  (13) 
F 24

>  <SCORE>  (13) 
-12.390

>  <name>  (13) 
12

>  <ligand_id>  (13) 
12

>  <original_smiles>  (13) 
[H]c1c([H])c([H])c2c(c1[H])C([H])([H])C([H])([H])C([H])([H])C2([H])N([H])C(=O)C1([H])N(C(=O)C([H])(N([H])C(=O)C([H])(N([H])C([H])([H])[H])C([H])([H])[H])C(C([H])([H])[H])(C([H])([H])[H])C([H])([H])[H])C([H])([H])c2c([H])c(OC([H])([H])C([H])([H])C([H])([H])C([H])([H])C([H])([H])C(=O)C([H])([H])C([H])([H])C([H])([H])C(=O)N3C([H])([H])C([H])([H])C([H])([H])C([H])(n4nc(-c5c([H])c([H])c(Oc6c([H])c([H])c(F)c([H])c6F)c([H])c5[H])c(C(=O)N([H])[H])c4N([H])[H])C3([H])[H])c([H])c([H])c2C1([H])[H]

>  <smiles>  (13) 
[H]c1c([H])c([H])c2c(c1[H])C([H])([H])C([H])([H])C([H])([H])C2([H])N([H])C(=O)C1([H])N(C(=O)C([H])(N([H])C(=O)C([H])(N([H])C([H])([H])[H])C([H])([H])[H])C(C([H])([H])[H])(C([H])([H])[H])C([H])([H])[H])C([H])([H])c2c([H])c(OC([H])([H])C([H])([H])C([H])([H])C([H])([H])C([H])([H])C(=O)C([H])([H])C([H])([H])C([H])([H])C(=O)N3C([H])([H])C([H])([H])C([H])([H])C([H])(n4nc(-c5c([H])c([H])c(Oc6c([H])c([H])c(F)c([H])c6F)c([H])c5[H])c(C(=O)N([H])[H])c4N([H])[H])C3([H])[H])c([H])c([H])c2C1([H])[H]

$$$$
13:0:0
     RDKit          3D

 92100  0  0  1  0  0  0  0  0999 V2000
  -29.2620  -21.5400   20.5310 C   0  0  0  0  0  3  0  0  0  0  0  0
  -31.6020  -21.0820   21.0010 C   0  0  0  0  0  3  0  0  0  0  0  0
  -29.0080  -20.1550   20.4560 C   0  0  0  0  0  3  0  0  0  0  0  0
  -31.3490  -19.7000   20.9360 C   0  0  0  0  0  3  0  0  0  0  0  0
  -30.5660  -22.0160   20.8010 C   0  0  0  0  0  0  0  0  0  0  0  0
  -30.0450  -19.2200   20.6730 C   0  0  0  0  0  0  0  0  0  0  0  0
  -30.8910  -23.4470   20.9070 C   0  0  0  0  0  3  0  0  0  0  0  0
  -30.0120  -24.4680   20.9180 C   0  0  0  0  0  3  0  0  0  0  0  0
  -30.4630  -25.8680   21.0070 C   0  0  0  0  0  0  0  0  0  0  0  0
  -31.6560  -26.1960   21.0150 O   0  0  0  0  0  0  0  0  0  0  0  0
  -29.3900  -26.9520   21.0990 C   0  0  0  0  0  2  0  0  0  0  0  0
  -28.4000  -26.7070   20.1070 O   0  0  0  0  0  0  0  0  0  0  0  0
  -24.5500  -31.8670   23.2060 C   0  0  0  0  0  0  0  0  0  0  0  0
  -27.2560  -27.4650   20.1630 C   0  0  0  0  0  0  0  0  0  0  0  0
  -23.3600  -30.4540   21.5560 C   0  0  0  0  0  3  0  0  0  0  0  0
  -24.8360  -28.9200   20.1510 C   0  0  0  0  0  0  0  0  0  0  0  0
  -25.8780  -30.8380   21.3730 C   0  0  0  0  0  2  0  0  0  0  0  0
  -25.9780  -29.4630   20.7520 C   0  0  0  0  0  0  0  0  0  0  0  0
  -27.1870  -28.7420   20.7690 C   0  0  0  0  0  3  0  0  0  0  0  0
  -26.1020  -26.9330   19.5550 C   0  0  0  0  0  3  0  0  0  0  0  0
  -24.8890  -27.6490   19.5540 C   0  0  0  0  0  3  0  0  0  0  0  0
  -23.5830  -29.7650   20.1810 C   0  0  0  0  0  2  0  0  0  0  0  0
  -24.6130  -31.0680   22.1050 N   0  0  0  0  0  0  0  0  0  0  0  0
  -23.4650  -32.1360   23.7400 O   0  0  0  0  0  0  0  0  0  0  0  0
  -22.7090  -29.4340   22.5160 C   0  0  0  0  0  0  0  0  0  0  0  0
  -21.3860  -29.2540   22.3850 N   0  0  0  0  0  0  0  0  0  0  0  0
  -23.3900  -28.8070   23.3300 O   0  0  0  0  0  0  0  0  0  0  0  0
  -20.8980  -29.8110   21.6970 H   0  0  0  0  0  0  0  0  0  0  0  0
  -18.0050  -28.0920   22.8870 C   0  0  0  0  0  0  0  0  0  0  0  0
  -20.5650  -28.3190   23.1510 C   0  0  0  0  0  3  0  0  0  0  0  0
  -20.6510  -26.8920   22.5610 C   0  0  0  0  0  2  0  0  0  0  0  0
  -19.5420  -26.5910   21.5490 C   0  0  0  0  0  2  0  0  0  0  0  0
  -18.1630  -26.7460   22.1990 C   0  0  0  0  0  2  0  0  0  0  0  0
  -19.1330  -28.8380   23.3190 C   0  0  0  0  0  0  0  0  0  0  0  0
  -18.9310  -30.1000   23.9190 C   0  0  0  0  0  3  0  0  0  0  0  0
  -17.6320  -30.6150   24.0910 C   0  0  0  0  0  3  0  0  0  0  0  0
  -16.5180  -29.8660   23.6770 C   0  0  0  0  0  3  0  0  0  0  0  0
  -16.7050  -28.6060   23.0800 C   0  0  0  0  0  3  0  0  0  0  0  0
  -25.8330  -32.5000   23.8330 C   0  0  0  0  0  3  0  0  0  0  0  0
  -25.5180  -33.8940   24.1660 N   0  0  0  0  0  0  0  0  0  0  0  0
  -25.8550  -34.9500   23.4120 C   0  0  0  0  0  0  0  0  0  0  0  0
  -26.5360  -34.8520   22.3880 O   0  0  0  0  0  0  0  0  0  0  0  0
  -24.9140  -34.0460   24.9630 H   0  0  0  0  0  0  0  0  0  0  0  0
  -24.1250  -36.7340   23.0420 C   0  0  0  0  0  1  0  0  0  0  0  0
  -25.3580  -36.3340   23.8680 C   0  0  0  0  0  3  0  0  0  0  0  0
  -27.4820  -37.2200   24.7230 C   0  0  0  0  0  1  0  0  0  0  0  0
  -26.3870  -37.3920   23.7710 N   0  0  0  0  0  0  0  0  0  0  0  0
  -25.9750  -38.3090   23.9250 H   0  0  0  0  0  0  0  0  0  0  0  0
  -26.3510  -31.7230   25.1050 C   0  0  1  0  0  0  0  0  0  0  0  0
  -25.2570  -31.4700   26.1680 C   0  0  0  0  0  1  0  0  0  0  0  0
  -26.9420  -30.3520   24.7030 C   0  0  0  0  0  1  0  0  0  0  0  0
  -27.4940  -32.5190   25.7780 C   0  0  0  0  0  1  0  0  0  0  0  0
  -29.7600  -17.7590   20.6000 C   0  0  0  0  0  0  0  0  0  0  0  0
  -28.7480  -17.2950   20.0620 O   0  0  0  0  0  0  0  0  0  0  0  0
  -30.7790  -16.8270   21.2690 C   0  0  0  0  0  2  0  0  0  0  0  0
  -30.2660  -15.3870   21.5210 C   0  0  0  0  0  2  0  0  0  0  0  0
  -30.7340  -14.3730   20.4630 C   0  0  0  0  0  0  0  0  0  0  0  0
  -30.3530  -12.3160   19.1500 C   0  0  0  0  0  2  0  0  0  0  0  0
  -29.4010  -12.5980   17.9730 C   0  0  0  0  0  2  0  0  0  0  0  0
  -27.9290  -12.4780   18.4140 C   0  0  0  0  0  2  0  0  0  0  0  0
  -27.6310  -13.2600   19.7230 C   0  0  0  0  0  3  0  0  0  0  0  0
  -28.6900  -12.9370   20.8010 C   0  0  0  0  0  2  0  0  0  0  0  0
  -30.0150  -13.2440   20.2360 N   0  0  0  0  0  0  0  0  0  0  0  0
  -31.7720  -14.6200   19.8380 O   0  0  0  0  0  0  0  0  0  0  0  0
  -25.2300  -13.8860   20.4140 C   0  0  0  0  0  0  0  0  0  0  0  0
  -24.1580  -13.1220   20.7880 C   0  0  0  0  0  0  0  0  0  0  0  0
  -24.6140  -11.7680   20.7710 C   0  0  0  0  0  0  0  0  0  0  0  0
  -26.2730  -12.9990   20.1970 N   0  0  0  0  0  0  0  0  0  0  0  0
  -25.9040  -11.7190   20.4630 N   0  0  0  0  0  0  0  0  0  0  0  0
  -23.8830  -10.5100   20.9740 C   0  0  0  0  0  0  0  0  0  0  0  0
  -24.3170   -9.5480   21.9130 C   0  0  0  0  0  3  0  0  0  0  0  0
  -23.5880   -8.3550   22.1040 C   0  0  0  0  0  3  0  0  0  0  0  0
  -22.4100   -8.1160   21.3580 C   0  0  0  0  0  0  0  0  0  0  0  0
  -21.9960   -9.0650   20.4080 C   0  0  0  0  0  3  0  0  0  0  0  0
  -22.7260  -10.2500   20.2140 C   0  0  0  0  0  3  0  0  0  0  0  0
  -21.6510   -6.9750   21.4590 O   0  0  0  0  0  0  0  0  0  0  0  0
  -21.6090   -6.2370   22.6160 C   0  0  0  0  0  0  0  0  0  0  0  0
  -21.2060   -6.8030   23.8450 C   0  0  0  0  0  3  0  0  0  0  0  0
  -21.1100   -5.9920   24.9940 C   0  0  0  0  0  3  0  0  0  0  0  0
  -21.4060   -4.6190   24.9150 C   0  0  0  0  0  0  0  0  0  0  0  0
  -21.8040   -4.0540   23.6910 C   0  0  0  0  0  3  0  0  0  0  0  0
  -21.9010   -4.8610   22.5440 C   0  0  0  0  0  0  0  0  0  0  0  0
  -22.2640   -4.3050   21.3620 F   0  0  0  0  0  0  0  0  0  0  0  0
  -21.3060   -3.8400   26.0180 F   0  0  0  0  0  0  0  0  0  0  0  0
  -22.7630  -13.6060   21.0610 C   0  0  0  0  0  0  0  0  0  0  0  0
  -22.0360  -12.9180   21.9340 N   0  0  0  0  0  0  0  0  0  0  0  0
  -22.3270  -14.6300   20.5360 O   0  0  0  0  0  0  0  0  0  0  0  0
  -22.3990  -12.0870   22.3780 H   0  0  0  0  0  0  0  0  0  0  0  0
  -21.1010  -13.2240   22.1640 H   0  0  0  0  0  0  0  0  0  0  0  0
  -25.4030  -15.2560   20.2250 N   0  0  0  0  0  0  0  0  0  0  0  0
  -24.6420  -15.9180   20.3250 H   0  0  0  0  0  0  0  0  0  0  0  0
  -26.2720  -15.6920   19.9380 H   0  0  0  0  0  0  0  0  0  0  0  0
  1  5  1  0
  3  1  2  0
  3  6  1  0
  4  2  1  0
  5  7  1  0
  5  2  2  0
  6  4  2  0
  7  8  2  0
  8  9  1  0
  9 10  2  0
  9 11  1  0
 12 14  1  0
 12 11  1  0
 13 24  2  0
 14 19  1  0
 15 23  1  0
 15 25  1  0
 16 22  1  0
 16 18  1  0
 17 23  1  0
 18 19  2  0
 18 17  1  0
 20 14  2  0
 21 20  1  0
 21 16  2  0
 22 15  1  0
 23 13  1  0
 25 27  2  0
 26 25  1  0
 28 26  1  0
 29 38  2  0
 29 34  1  0
 30 26  1  0
 30 34  1  0
 31 30  1  0
 32 33  1  0
 32 31  1  0
 33 29  1  0
 34 35  2  0
 35 36  1  0
 37 36  2  0
 38 37  1  0
 39 13  1  0
 39 40  1  0
 39 49  1  0
 40 43  1  0
 41 45  1  0
 41 40  1  0
 42 41  2  0
 45 44  1  0
 47 45  1  0
 47 48  1  0
 47 46  1  0
 49 52  1  1
 49 50  1  0
 51 49  1  0
 53  6  1  0
 53 55  1  0
 54 53  2  0
 55 56  1  0
 57 56  1  0
 58 63  1  0
 59 60  1  0
 59 58  1  0
 61 60  1  0
 61 68  1  0
 61 62  1  0
 63 57  1  0
 63 62  1  0
 64 57  2  0
 65 66  2  0
 66 85  1  0
 67 66  1  0
 67 70  1  0
 68 65  1  0
 68 69  1  0
 69 67  2  0
 70 71  1  0
 71 72  2  0
 73 76  1  0
 73 72  1  0
 74 73  2  0
 75 74  1  0
 75 70  2  0
 76 77  1  0
 77 78  1  0
 78 79  2  0
 80 79  1  0
 80 84  1  0
 81 80  2  0
 82 77  2  0
 82 81  1  0
 83 82  1  0
 85 86  1  0
 86 89  1  0
 86 88  1  0
 87 85  2  0
 90 91  1  0
 90 65  1  0
 92 90  1  0
M  ISO  4  11 101  12 101  56 100  57 100
M  END
>  <TORSDO>  (14) 
F 22

>  <SCORE>  (14) 
-13.545

>  <name>  (14) 
13

>  <ligand_id>  (14) 
13

>  <original_smiles>  (14) 
[H]C(C(=O)C([H])([H])Oc1c([H])c([H])c2c(c1[H])C([H])([H])N(C(=O)C([H])(N([H])C(=O)C([H])(N([H])C([H])([H])[H])C([H])([H])[H])C(C([H])([H])[H])(C([H])([H])[H])C([H])([H])[H])C([H])(C(=O)N([H])C1([H])c3c([H])c([H])c([H])c([H])c3C([H])([H])C([H])([H])C1([H])[H])C2([H])[H])=C([H])c1c([H])c([H])c(C(=O)C([H])([H])C([H])([H])C(=O)N2C([H])([H])C([H])([H])C([H])([H])C([H])(n3nc(-c4c([H])c([H])c(Oc5c([H])c([H])c(F)c([H])c5F)c([H])c4[H])c(C(=O)N([H])[H])c3N([H])[H])C2([H])[H])c([H])c1[H]

>  <smiles>  (14) 
[H]C(C(=O)C([H])([H])Oc1c([H])c([H])c2c(c1[H])C([H])([H])N(C(=O)C([H])(N([H])C(=O)C([H])(N([H])C([H])([H])[H])C([H])([H])[H])C(C([H])([H])[H])(C([H])([H])[H])C([H])([H])[H])C([H])(C(=O)N([H])C1([H])c3c([H])c([H])c([H])c([H])c3C([H])([H])C([H])([H])C1([H])[H])C2([H])[H])=C([H])c1c([H])c([H])c(C(=O)C([H])([H])C([H])([H])C(=O)N2C([H])([H])C([H])([H])C([H])([H])C([H])(n3nc(-c4c([H])c([H])c(Oc5c([H])c([H])c(F)c([H])c5F)c([H])c4[H])c(C(=O)N([H])[H])c3N([H])[H])C2([H])[H])c([H])c1[H]

$$$$
14:0:0
     RDKit          3D

 86 93  0  0  1  0  0  0  0  0999 V2000
  -28.9570  -22.6070   20.8260 C   0  0  0  0  0  2  0  0  0  0  0  0
  -29.1550  -21.2370   20.0420 C   0  0  0  0  0  3  0  0  0  0  0  0
  -29.6890  -19.9790   20.8660 C   0  0  0  0  0  3  0  0  0  0  0  0
  -29.5380  -18.5340   20.2550 C   0  0  0  0  0  0  0  0  0  0  0  0
  -28.7050  -18.3230   19.3710 O   0  0  0  0  0  0  0  0  0  0  0  0
  -30.4460  -17.3580   20.7660 C   0  0  0  0  0  2  0  0  0  0  0  0
  -29.8060  -15.9050   20.9070 C   0  0  0  0  0  2  0  0  0  0  0  0
  -30.5960  -14.6480   20.3690 C   0  0  0  0  0  0  0  0  0  0  0  0
  -30.3620  -12.4360   19.2470 C   0  0  0  0  0  2  0  0  0  0  0  0
  -29.3990  -12.5960   18.0480 C   0  0  0  0  0  2  0  0  0  0  0  0
  -27.9330  -12.4260   18.4940 C   0  0  0  0  0  2  0  0  0  0  0  0
  -27.5950  -13.2780   19.7480 C   0  0  0  0  0  3  0  0  0  0  0  0
  -28.6670  -13.1010   20.8470 C   0  0  0  0  0  2  0  0  0  0  0  0
  -29.9750  -13.4320   20.2650 N   0  0  0  0  0  0  0  0  0  0  0  0
  -31.7390  -14.8100   19.9300 O   0  0  0  0  0  0  0  0  0  0  0  0
  -25.2120  -13.8840   20.5020 C   0  0  0  0  0  0  0  0  0  0  0  0
  -24.1480  -13.1120   20.8860 C   0  0  0  0  0  0  0  0  0  0  0  0
  -24.6080  -11.7610   20.8470 C   0  0  0  0  0  0  0  0  0  0  0  0
  -26.2520  -13.0010   20.2510 N   0  0  0  0  0  0  0  0  0  0  0  0
  -25.8940  -11.7190   20.5190 N   0  0  0  0  0  0  0  0  0  0  0  0
  -23.8830  -10.4990   21.0450 C   0  0  0  0  0  0  0  0  0  0  0  0
  -24.3370   -9.5240   21.9580 C   0  0  0  0  0  3  0  0  0  0  0  0
  -23.6130   -8.3250   22.1440 C   0  0  0  0  0  3  0  0  0  0  0  0
  -22.4220   -8.0960   21.4160 C   0  0  0  0  0  0  0  0  0  0  0  0
  -21.9870   -9.0600   20.4900 C   0  0  0  0  0  3  0  0  0  0  0  0
  -22.7090  -10.2500   20.3030 C   0  0  0  0  0  3  0  0  0  0  0  0
  -21.6680   -6.9510   21.5120 O   0  0  0  0  0  0  0  0  0  0  0  0
  -21.6580   -6.1890   22.6530 C   0  0  0  0  0  0  0  0  0  0  0  0
  -21.2880   -6.7270   23.9050 C   0  0  0  0  0  3  0  0  0  0  0  0
  -21.2250   -5.8930   25.0390 C   0  0  0  0  0  3  0  0  0  0  0  0
  -21.5210   -4.5210   24.9220 C   0  0  0  0  0  0  0  0  0  0  0  0
  -21.8840   -3.9830   23.6750 C   0  0  0  0  0  3  0  0  0  0  0  0
  -21.9500   -4.8140   22.5440 C   0  0  0  0  0  0  0  0  0  0  0  0
  -22.2790   -4.2850   21.3410 F   0  0  0  0  0  0  0  0  0  0  0  0
  -21.4530   -3.7170   26.0090 F   0  0  0  0  0  0  0  0  0  0  0  0
  -22.7540  -13.5900   21.1760 C   0  0  0  0  0  0  0  0  0  0  0  0
  -22.0380  -12.8960   22.0540 N   0  0  0  0  0  0  0  0  0  0  0  0
  -22.3110  -14.6150   20.6620 O   0  0  0  0  0  0  0  0  0  0  0  0
  -22.4090  -12.0660   22.4920 H   0  0  0  0  0  0  0  0  0  0  0  0
  -21.1030  -13.1980   22.2900 H   0  0  0  0  0  0  0  0  0  0  0  0
  -25.3760  -15.2550   20.3260 N   0  0  0  0  0  0  0  0  0  0  0  0
  -24.6120  -15.9100   20.4540 H   0  0  0  0  0  0  0  0  0  0  0  0
  -26.2220  -15.6980   19.9920 H   0  0  0  0  0  0  0  0  0  0  0  0
  -28.7400  -23.9520   20.0010 C   0  0  0  0  0  3  0  0  0  0  0  0
  -28.2460  -25.2260   20.8100 C   0  0  0  0  0  3  0  0  0  0  0  0
  -28.3660  -26.5580   20.1940 O   0  0  0  0  0  0  0  0  0  0  0  0
  -24.6190  -31.8930   23.2520 C   0  0  0  0  0  0  0  0  0  0  0  0
  -27.2310  -27.3690   20.1960 C   0  0  0  0  0  0  0  0  0  0  0  0
  -23.4080  -30.4890   21.6180 C   0  0  0  0  0  3  0  0  0  0  0  0
  -24.8550  -28.9400   20.1900 C   0  0  0  0  0  0  0  0  0  0  0  0
  -25.9400  -30.8270   21.4150 C   0  0  0  0  0  2  0  0  0  0  0  0
  -26.0240  -29.4490   20.7730 C   0  0  0  0  0  0  0  0  0  0  0  0
  -27.2180  -28.6760   20.7620 C   0  0  0  0  0  3  0  0  0  0  0  0
  -26.0460  -26.8960   19.6000 C   0  0  0  0  0  3  0  0  0  0  0  0
  -24.8660  -27.6670   19.5950 C   0  0  0  0  0  3  0  0  0  0  0  0
  -23.6150  -29.8080   20.2400 C   0  0  0  0  0  2  0  0  0  0  0  0
  -24.6740  -31.0870   22.1520 N   0  0  0  0  0  0  0  0  0  0  0  0
  -23.5380  -32.1690   23.7940 O   0  0  0  0  0  0  0  0  0  0  0  0
  -22.7550  -29.4730   22.5840 C   0  0  0  0  0  0  0  0  0  0  0  0
  -21.4290  -29.2890   22.4620 N   0  0  0  0  0  0  0  0  0  0  0  0
  -23.4390  -28.8510   23.4010 O   0  0  0  0  0  0  0  0  0  0  0  0
  -20.9360  -29.8410   21.7740 H   0  0  0  0  0  0  0  0  0  0  0  0
  -18.0600  -28.0770   22.9640 C   0  0  0  0  0  0  0  0  0  0  0  0
  -20.6160  -28.3520   23.2370 C   0  0  0  0  0  3  0  0  0  0  0  0
  -20.7270  -26.9180   22.6710 C   0  0  0  0  0  2  0  0  0  0  0  0
  -19.6290  -26.5850   21.6560 C   0  0  0  0  0  2  0  0  0  0  0  0
  -18.2460  -26.7250   22.2970 C   0  0  0  0  0  2  0  0  0  0  0  0
  -19.1730  -28.8490   23.3910 C   0  0  0  0  0  0  0  0  0  0  0  0
  -18.9460  -30.1140   23.9730 C   0  0  0  0  0  3  0  0  0  0  0  0
  -17.6390  -30.6100   24.1320 C   0  0  0  0  0  3  0  0  0  0  0  0
  -16.5390  -29.8350   23.7230 C   0  0  0  0  0  3  0  0  0  0  0  0
  -16.7510  -28.5700   23.1450 C   0  0  0  0  0  3  0  0  0  0  0  0
  -25.9050  -32.5270   23.8660 C   0  0  0  0  0  3  0  0  0  0  0  0
  -25.5970  -33.9270   24.1930 N   0  0  0  0  0  0  0  0  0  0  0  0
  -25.9290  -34.9760   23.4300 C   0  0  0  0  0  0  0  0  0  0  0  0
  -26.5950  -34.8690   22.3970 O   0  0  0  0  0  0  0  0  0  0  0  0
  -25.0050  -34.0840   24.9940 H   0  0  0  0  0  0  0  0  0  0  0  0
  -24.1990  -36.7690   23.0760 C   0  0  0  0  0  1  0  0  0  0  0  0
  -25.4440  -36.3680   23.8840 C   0  0  0  0  0  3  0  0  0  0  0  0
  -27.5830  -37.2530   24.7010 C   0  0  0  0  0  1  0  0  0  0  0  0
  -26.4770  -37.4190   23.7630 N   0  0  0  0  0  0  0  0  0  0  0  0
  -26.0720  -38.3400   23.9090 H   0  0  0  0  0  0  0  0  0  0  0  0
  -26.4270  -31.7610   25.1430 C   0  0  1  0  0  0  0  0  0  0  0  0
  -25.3370  -31.5300   26.2170 C   0  0  0  0  0  1  0  0  0  0  0  0
  -27.0050  -30.3810   24.7560 C   0  0  0  0  0  1  0  0  0  0  0  0
  -27.5820  -32.5540   25.7960 C   0  0  0  0  0  1  0  0  0  0  0  0
  2  1  1  0
  2  3  2  0
  4  6  1  0
  4  3  1  0
  5  4  2  0
  6  7  1  0
  8  7  1  0
  9 14  1  0
 10 11  1  0
 10  9  1  0
 12 11  1  0
 12 19  1  0
 12 13  1  0
 14  8  1  0
 14 13  1  0
 15  8  2  0
 16 17  2  0
 17 36  1  0
 18 17  1  0
 18 21  1  0
 19 16  1  0
 19 20  1  0
 20 18  2  0
 21 22  1  0
 22 23  2  0
 24 27  1  0
 24 23  1  0
 25 24  2  0
 26 25  1  0
 26 21  2  0
 27 28  1  0
 28 29  1  0
 29 30  2  0
 31 30  1  0
 31 35  1  0
 32 31  2  0
 33 28  2  0
 33 32  1  0
 34 33  1  0
 36 37  1  0
 37 40  1  0
 37 39  1  0
 38 36  2  0
 41 42  1  0
 41 16  1  0
 43 41  1  0
 44 45  2  0
 44  1  1  0
 46 48  1  0
 46 45  1  0
 47 58  2  0
 48 53  1  0
 49 57  1  0
 49 59  1  0
 50 56  1  0
 50 52  1  0
 51 57  1  0
 52 51  1  0
 53 52  2  0
 54 48  2  0
 55 54  1  0
 55 50  2  0
 56 49  1  0
 57 47  1  0
 59 61  2  0
 60 59  1  0
 62 60  1  0
 63 72  2  0
 63 68  1  0
 64 60  1  0
 64 68  1  0
 65 64  1  0
 66 67  1  0
 66 65  1  0
 67 63  1  0
 68 69  2  0
 69 70  1  0
 71 70  2  0
 72 71  1  0
 73 47  1  0
 73 74  1  0
 73 83  1  0
 74 77  1  0
 75 79  1  0
 75 74  1  0
 76 75  2  0
 79 78  1  0
 81 79  1  0
 81 82  1  0
 81 80  1  0
 83 86  1  1
 83 84  1  0
 85 83  1  0
M  ISO  4   7 100   8 100  45 101  46 101
M  END
>  <TORSDO>  (15) 
F 23

>  <SCORE>  (15) 
-12.662

>  <name>  (15) 
14

>  <ligand_id>  (15) 
14

>  <original_smiles>  (15) 
[H]c1c([H])c([H])c2c(c1[H])C([H])([H])C([H])([H])C([H])([H])C2([H])N([H])C(=O)C1([H])N(C(=O)C([H])(N([H])C(=O)C([H])(N([H])C([H])([H])[H])C([H])([H])[H])C(C([H])([H])[H])(C([H])([H])[H])C([H])([H])[H])C([H])([H])c2c([H])c(OC([H])([H])C([H])([H])C([H])([H])C([H])([H])C([H])([H])C(=O)C([H])([H])C([H])([H])C(=O)N3C([H])([H])C([H])([H])C([H])([H])C([H])(n4nc(-c5c([H])c([H])c(Oc6c([H])c([H])c(F)c([H])c6F)c([H])c5[H])c(C(=O)N([H])[H])c4N([H])[H])C3([H])[H])c([H])c([H])c2C1([H])[H]

>  <smiles>  (15) 
[H]c1c([H])c([H])c2c(c1[H])C([H])([H])C([H])([H])C([H])([H])C2([H])N([H])C(=O)C1([H])N(C(=O)C([H])(N([H])C(=O)C([H])(N([H])C([H])([H])[H])C([H])([H])[H])C(C([H])([H])[H])(C([H])([H])[H])C([H])([H])[H])C([H])([H])c2c([H])c(OC([H])([H])C([H])([H])C([H])([H])C([H])([H])C([H])([H])C(=O)C([H])([H])C([H])([H])C(=O)N3C([H])([H])C([H])([H])C([H])([H])C([H])(n4nc(-c5c([H])c([H])c(Oc6c([H])c([H])c(F)c([H])c6F)c([H])c5[H])c(C(=O)N([H])[H])c4N([H])[H])C3([H])[H])c([H])c([H])c2C1([H])[H]

$$$$
15:0:0
     RDKit          3D

 95103  0  0  1  0  0  0  0  0999 V2000
  -30.2800  -20.5810   20.2680 C   0  0  0  0  0  3  0  0  0  0  0  0
  -30.8840  -19.4520   21.1460 C   0  0  0  0  0  0  0  0  0  0  0  0
  -30.4940  -18.1850   20.9040 N   0  0  0  0  0  0  0  0  0  0  0  0
  -31.7000  -19.7210   22.0310 O   0  0  0  0  0  0  0  0  0  0  0  0
  -29.8550  -18.0430   20.1320 H   0  0  0  0  0  0  0  0  0  0  0  0
  -30.9850  -16.9930   21.6210 C   0  0  0  0  0  2  0  0  0  0  0  0
  -30.1450  -15.6950   21.3950 C   0  0  0  0  0  2  0  0  0  0  0  0
  -30.7490  -14.6010   20.4750 C   0  0  0  0  0  0  0  0  0  0  0  0
  -30.4620  -12.4590   19.2550 C   0  0  0  0  0  2  0  0  0  0  0  0
  -29.5130  -12.6600   18.0570 C   0  0  0  0  0  2  0  0  0  0  0  0
  -28.0430  -12.4990   18.4900 C   0  0  0  0  0  2  0  0  0  0  0  0
  -27.7010  -13.3230   19.7610 C   0  0  0  0  0  3  0  0  0  0  0  0
  -28.7630  -13.1030   20.8620 C   0  0  0  0  0  2  0  0  0  0  0  0
  -30.0820  -13.4260   20.2970 N   0  0  0  0  0  0  0  0  0  0  0  0
  -31.8130  -14.8350   19.8940 O   0  0  0  0  0  0  0  0  0  0  0  0
  -25.2860  -13.8960   20.4470 C   0  0  0  0  0  0  0  0  0  0  0  0
  -24.2310  -13.1100   20.8250 C   0  0  0  0  0  0  0  0  0  0  0  0
  -24.7180  -11.7670   20.8170 C   0  0  0  0  0  0  0  0  0  0  0  0
  -26.3510  -13.0310   20.2380 N   0  0  0  0  0  0  0  0  0  0  0  0
  -26.0090  -11.7460   20.5150 N   0  0  0  0  0  0  0  0  0  0  0  0
  -24.0130  -10.4940   21.0270 C   0  0  0  0  0  0  0  0  0  0  0  0
  -24.4280   -9.5740   22.0150 C   0  0  0  0  0  3  0  0  0  0  0  0
  -23.7240   -8.3670   22.2110 C   0  0  0  0  0  3  0  0  0  0  0  0
  -22.5910   -8.0690   21.4180 C   0  0  0  0  0  0  0  0  0  0  0  0
  -22.1950   -8.9780   20.4190 C   0  0  0  0  0  3  0  0  0  0  0  0
  -22.9000  -10.1770   20.2230 C   0  0  0  0  0  3  0  0  0  0  0  0
  -21.8600   -6.9090   21.5200 O   0  0  0  0  0  0  0  0  0  0  0  0
  -21.7420   -6.2370   22.7090 C   0  0  0  0  0  0  0  0  0  0  0  0
  -21.2030   -6.8490   23.8610 C   0  0  0  0  0  3  0  0  0  0  0  0
  -21.0330   -6.1000   25.0430 C   0  0  0  0  0  3  0  0  0  0  0  0
  -21.3940   -4.7390   25.0730 C   0  0  0  0  0  0  0  0  0  0  0  0
  -21.9280   -4.1270   23.9250 C   0  0  0  0  0  3  0  0  0  0  0  0
  -22.0990   -4.8730   22.7460 C   0  0  0  0  0  0  0  0  0  0  0  0
  -22.5920   -4.2720   21.6360 F   0  0  0  0  0  0  0  0  0  0  0  0
  -21.2250   -4.0170   26.2060 F   0  0  0  0  0  0  0  0  0  0  0  0
  -22.8240  -13.5630   21.0860 C   0  0  0  0  0  0  0  0  0  0  0  0
  -22.1080  -12.8650   21.9610 N   0  0  0  0  0  0  0  0  0  0  0  0
  -22.3670  -14.5720   20.5500 O   0  0  0  0  0  0  0  0  0  0  0  0
  -22.4930  -12.0510   22.4170 H   0  0  0  0  0  0  0  0  0  0  0  0
  -21.1630  -13.1500   22.1790 H   0  0  0  0  0  0  0  0  0  0  0  0
  -25.4250  -15.2660   20.2450 N   0  0  0  0  0  0  0  0  0  0  0  0
  -24.6430  -15.9060   20.3290 H   0  0  0  0  0  0  0  0  0  0  0  0
  -26.2680  -15.7120   19.9080 H   0  0  0  0  0  0  0  0  0  0  0  0
  -31.1050  -20.7190   18.9620 C   0  0  0  0  0  2  0  0  0  0  0  0
  -29.1940  -18.8110   15.5630 C   0  0  0  0  0  3  0  0  0  0  0  0
  -30.3510  -18.2410   16.1290 C   0  0  0  0  0  3  0  0  0  0  0  0
  -28.6590  -19.9970   16.1020 C   0  0  0  0  0  3  0  0  0  0  0  0
  -30.9760  -18.8600   17.2300 C   0  0  0  0  0  3  0  0  0  0  0  0
  -29.2810  -20.6150   17.2030 C   0  0  0  0  0  3  0  0  0  0  0  0
  -30.4430  -20.0500   17.7690 C   0  0  0  0  0  0  0  0  0  0  0  0
  -30.1420  -21.9560   21.0060 C   0  0  0  0  0  2  0  0  0  0  0  0
  -29.2310  -22.9950   20.2830 C   0  0  0  0  0  2  0  0  0  0  0  0
  -29.2920  -24.4580   20.8060 C   0  0  0  0  0  2  0  0  0  0  0  0
  -28.2820  -25.3750   20.0690 C   0  0  0  0  0  2  0  0  0  0  0  0
  -28.3900  -26.7870   20.3580 O   0  0  0  0  0  0  0  0  0  0  0  0
  -24.5550  -31.9980   23.3440 C   0  0  0  0  0  0  0  0  0  0  0  0
  -27.2250  -27.5390   20.2900 C   0  0  0  0  0  0  0  0  0  0  0  0
  -23.3620  -30.5910   21.6990 C   0  0  0  0  0  3  0  0  0  0  0  0
  -24.8280  -29.0620   20.2770 C   0  0  0  0  0  0  0  0  0  0  0  0
  -25.8900  -30.9530   21.5150 C   0  0  0  0  0  2  0  0  0  0  0  0
  -25.9830  -29.5810   20.8750 C   0  0  0  0  0  0  0  0  0  0  0  0
  -27.1820  -28.8280   20.8780 C   0  0  0  0  0  3  0  0  0  0  0  0
  -26.0500  -27.0550   19.6620 C   0  0  0  0  0  3  0  0  0  0  0  0
  -24.8580  -27.8000   19.6650 C   0  0  0  0  0  3  0  0  0  0  0  0
  -23.5800  -29.9150   20.3200 C   0  0  0  0  0  2  0  0  0  0  0  0
  -24.6200  -31.1950   22.2440 N   0  0  0  0  0  0  0  0  0  0  0  0
  -23.4700  -32.2690   23.8770 O   0  0  0  0  0  0  0  0  0  0  0  0
  -22.7100  -29.5670   22.6570 C   0  0  0  0  0  0  0  0  0  0  0  0
  -21.4030  -29.3220   22.4700 N   0  0  0  0  0  0  0  0  0  0  0  0
  -23.3770  -28.9970   23.5230 O   0  0  0  0  0  0  0  0  0  0  0  0
  -20.9260  -29.8320   21.7400 H   0  0  0  0  0  0  0  0  0  0  0  0
  -18.0750  -27.9510   22.7960 C   0  0  0  0  0  0  0  0  0  0  0  0
  -20.5890  -28.3710   23.2280 C   0  0  0  0  0  3  0  0  0  0  0  0
  -20.8130  -26.9260   22.7280 C   0  0  0  0  0  2  0  0  0  0  0  0
  -19.8040  -26.4950   21.6580 C   0  0  0  0  0  2  0  0  0  0  0  0
  -18.3730  -26.5860   22.1990 C   0  0  0  0  0  2  0  0  0  0  0  0
  -19.1150  -28.7960   23.2640 C   0  0  0  0  0  0  0  0  0  0  0  0
  -18.7840  -30.0680   23.7780 C   0  0  0  0  0  3  0  0  0  0  0  0
  -17.4450  -30.4980   23.8320 C   0  0  0  0  0  3  0  0  0  0  0  0
  -16.4180  -29.6510   23.3810 C   0  0  0  0  0  3  0  0  0  0  0  0
  -16.7340  -28.3800   22.8690 C   0  0  0  0  0  3  0  0  0  0  0  0
  -25.8370  -32.6330   23.9690 C   0  0  0  0  0  3  0  0  0  0  0  0
  -26.3440  -31.8710   25.2530 C   0  0  1  0  0  0  0  0  0  0  0  0
  -25.2350  -31.6020   26.2960 C   0  0  0  0  0  1  0  0  0  0  0  0
  -26.9680  -30.5080   24.8670 C   0  0  0  0  0  1  0  0  0  0  0  0
  -27.4630  -32.6900   25.9380 C   0  0  0  0  0  1  0  0  0  0  0  0
  -25.5270  -34.0350   24.2840 N   0  0  0  0  0  0  0  0  0  0  0  0
  -25.8620  -35.0780   23.5120 C   0  0  0  0  0  0  0  0  0  0  0  0
  -26.5340  -34.9610   22.4840 O   0  0  0  0  0  0  0  0  0  0  0  0
  -24.9330  -34.2000   25.0830 H   0  0  0  0  0  0  0  0  0  0  0  0
  -24.1270  -36.8580   23.1380 C   0  0  0  0  0  1  0  0  0  0  0  0
  -25.3730  -36.4700   23.9510 C   0  0  0  0  0  3  0  0  0  0  0  0
  -27.5060  -37.3710   24.7640 C   0  0  0  0  0  1  0  0  0  0  0  0
  -26.4020  -37.5240   23.8200 N   0  0  0  0  0  0  0  0  0  0  0  0
  -25.9950  -38.4450   23.9550 H   0  0  0  0  0  0  0  0  0  0  0  0
  1 44  1  0
  1 51  1  0
  1  2  1  0
  2  4  2  0
  3  2  1  0
  3  6  1  0
  5  3  1  0
  7  6  1  0
  8  7  1  0
  9 14  1  0
 10 11  1  0
 10  9  1  0
 12 11  1  0
 12 19  1  0
 12 13  1  0
 14  8  1  0
 14 13  1  0
 15  8  2  0
 16 17  2  0
 17 36  1  0
 18 17  1  0
 18 21  1  0
 19 16  1  0
 19 20  1  0
 20 18  2  0
 21 22  1  0
 22 23  2  0
 24 27  1  0
 24 23  1  0
 25 24  2  0
 26 25  1  0
 26 21  2  0
 27 28  1  0
 28 33  2  0
 28 29  1  0
 29 30  2  0
 30 31  1  0
 31 35  1  0
 32 31  2  0
 33 32  1  0
 34 33  1  0
 36 37  1  0
 37 40  1  0
 37 39  1  0
 38 36  2  0
 41 42  1  0
 41 16  1  0
 43 41  1  0
 45 47  2  0
 45 46  1  0
 46 48  2  0
 47 49  1  0
 48 50  1  0
 49 50  2  0
 50 44  1  0
 52 53  1  0
 52 51  1  0
 54 55  1  0
 54 53  1  0
 56 67  2  0
 57 55  1  0
 57 62  1  0
 58 66  1  0
 58 68  1  0
 59 65  1  0
 59 61  1  0
 60 66  1  0
 61 62  2  0
 61 60  1  0
 63 64  1  0
 63 57  2  0
 64 59  2  0
 65 58  1  0
 66 56  1  0
 68 70  2  0
 69 68  1  0
 71 69  1  0
 72 81  2  0
 72 77  1  0
 73 69  1  0
 73 77  1  0
 74 73  1  0
 75 76  1  0
 75 74  1  0
 76 72  1  0
 77 78  2  0
 78 79  1  0
 80 79  2  0
 81 80  1  0
 82 56  1  0
 82 87  1  0
 82 83  1  0
 83 86  1  1
 83 84  1  0
 85 83  1  0
 87 90  1  0
 88 92  1  0
 88 87  1  0
 89 88  2  0
 92 91  1  0
 94 92  1  0
 94 95  1  0
 94 93  1  0
M  ISO  4   7 100   8 100  54 101  55 101
M  END
>  <TORSDO>  (16) 
F 25

>  <SCORE>  (16) 
-12.246

>  <name>  (16) 
15

>  <ligand_id>  (16) 
15

>  <original_smiles>  (16) 
[H]c1c([H])c([H])c(C([H])([H])C([H])(C(=O)N([H])C([H])([H])C([H])([H])C(=O)N2C([H])([H])C([H])([H])C([H])([H])C([H])(n3nc(-c4c([H])c([H])c(Oc5c([H])c([H])c(F)c([H])c5F)c([H])c4[H])c(C(=O)N([H])[H])c3N([H])[H])C2([H])[H])C([H])([H])C([H])([H])C([H])([H])C([H])([H])Oc2c([H])c([H])c3c(c2[H])C([H])([H])N(C(=O)C([H])(N([H])C(=O)C([H])(N([H])C([H])([H])[H])C([H])([H])[H])C(C([H])([H])[H])(C([H])([H])[H])C([H])([H])[H])C([H])(C(=O)N([H])C2([H])c4c([H])c([H])c([H])c([H])c4C([H])([H])C([H])([H])C2([H])[H])C3([H])[H])c([H])c1[H]

>  <smiles>  (16) 
[H]c1c([H])c([H])c(C([H])([H])C([H])(C(=O)N([H])C([H])([H])C([H])([H])C(=O)N2C([H])([H])C([H])([H])C([H])([H])C([H])(n3nc(-c4c([H])c([H])c(Oc5c([H])c([H])c(F)c([H])c5F)c([H])c4[H])c(C(=O)N([H])[H])c3N([H])[H])C2([H])[H])C([H])([H])C([H])([H])C([H])([H])C([H])([H])Oc2c([H])c([H])c3c(c2[H])C([H])([H])N(C(=O)C([H])(N([H])C(=O)C([H])(N([H])C([H])([H])[H])C([H])([H])[H])C(C([H])([H])[H])(C([H])([H])[H])C([H])([H])[H])C([H])(C(=O)N([H])C2([H])c4c([H])c([H])c([H])c([H])c4C([H])([H])C([H])([H])C2([H])[H])C3([H])[H])c([H])c1[H]

$$$$
16:0:0
     RDKit          3D

 96104  0  0  1  0  0  0  0  0999 V2000
  -29.4830  -22.6290   21.5800 C   0  0  0  0  0  3  0  0  0  0  0  0
  -31.3140  -22.2750   20.0170 C   0  0  0  0  0  3  0  0  0  0  0  0
  -29.1110  -21.2740   21.4510 C   0  0  0  0  0  3  0  0  0  0  0  0
  -30.9820  -20.9060   19.9340 C   0  0  0  0  0  3  0  0  0  0  0  0
  -30.5510  -23.1470   20.8250 C   0  0  0  0  0  0  0  0  0  0  0  0
  -29.8590  -20.4010   20.6280 C   0  0  0  0  0  0  0  0  0  0  0  0
  -30.8290  -24.6190   20.8650 C   0  0  0  0  0  0  0  0  0  0  0  0
  -30.9350  -25.2010   19.6690 N   0  0  0  0  0  0  0  0  0  0  0  0
  -30.8760  -25.2370   21.9300 O   0  0  0  0  0  0  0  0  0  0  0  0
  -30.8490  -24.6050   18.8570 H   0  0  0  0  0  0  0  0  0  0  0  0
  -31.1050  -26.6360   19.4430 C   0  0  0  0  0  2  0  0  0  0  0  0
  -29.8300  -27.4750   19.7290 C   0  0  0  0  0  2  0  0  0  0  0  0
  -28.6300  -26.6840   19.7830 O   0  0  0  0  0  0  0  0  0  0  0  0
  -24.5770  -31.6030   23.0590 C   0  0  0  0  0  0  0  0  0  0  0  0
  -27.4380  -27.3730   19.8850 C   0  0  0  0  0  0  0  0  0  0  0  0
  -23.4330  -30.1940   21.3740 C   0  0  0  0  0  3  0  0  0  0  0  0
  -24.9560  -28.7430   19.9310 C   0  0  0  0  0  0  0  0  0  0  0  0
  -25.9380  -30.6580   21.2010 C   0  0  0  0  0  2  0  0  0  0  0  0
  -26.0810  -29.3060   20.5400 C   0  0  0  0  0  0  0  0  0  0  0  0
  -27.3210  -28.6330   20.5200 C   0  0  0  0  0  3  0  0  0  0  0  0
  -26.2860  -26.8020   19.3010 C   0  0  0  0  0  3  0  0  0  0  0  0
  -25.0520  -27.4860   19.3020 C   0  0  0  0  0  3  0  0  0  0  0  0
  -23.6800  -29.5500   19.9840 C   0  0  0  0  0  2  0  0  0  0  0  0
  -24.6690  -30.8280   21.9420 N   0  0  0  0  0  0  0  0  0  0  0  0
  -23.4830  -31.8340   23.5910 O   0  0  0  0  0  0  0  0  0  0  0  0
  -22.8060  -29.1350   22.3070 C   0  0  0  0  0  0  0  0  0  0  0  0
  -21.4800  -28.9490   22.1890 N   0  0  0  0  0  0  0  0  0  0  0  0
  -23.5050  -28.4930   23.0950 O   0  0  0  0  0  0  0  0  0  0  0  0
  -20.9790  -29.5200   21.5230 H   0  0  0  0  0  0  0  0  0  0  0  0
  -18.1260  -27.7040   22.6870 C   0  0  0  0  0  0  0  0  0  0  0  0
  -20.6840  -27.9760   22.9380 C   0  0  0  0  0  3  0  0  0  0  0  0
  -20.7940  -26.5670   22.3150 C   0  0  0  0  0  2  0  0  0  0  0  0
  -19.6840  -26.2690   21.2990 C   0  0  0  0  0  2  0  0  0  0  0  0
  -18.3080  -26.3770   21.9650 C   0  0  0  0  0  2  0  0  0  0  0  0
  -19.2430  -28.4600   23.1300 C   0  0  0  0  0  0  0  0  0  0  0  0
  -19.0220  -29.7000   23.7670 C   0  0  0  0  0  3  0  0  0  0  0  0
  -17.7180  -30.1880   23.9600 C   0  0  0  0  0  3  0  0  0  0  0  0
  -16.6150  -29.4280   23.5360 C   0  0  0  0  0  3  0  0  0  0  0  0
  -16.8190  -28.1880   22.9040 C   0  0  0  0  0  3  0  0  0  0  0  0
  -25.8370  -32.2590   23.7020 C   0  0  0  0  0  3  0  0  0  0  0  0
  -25.4790  -33.6380   24.0660 N   0  0  0  0  0  0  0  0  0  0  0  0
  -25.8100  -34.7250   23.3540 C   0  0  0  0  0  0  0  0  0  0  0  0
  -26.5220  -34.6780   22.3450 O   0  0  0  0  0  0  0  0  0  0  0  0
  -24.8440  -33.7460   24.8430 H   0  0  0  0  0  0  0  0  0  0  0  0
  -24.0510  -36.4850   22.9940 C   0  0  0  0  0  1  0  0  0  0  0  0
  -25.2680  -36.0800   23.8400 C   0  0  0  0  0  3  0  0  0  0  0  0
  -27.3500  -36.9820   24.7810 C   0  0  0  0  0  1  0  0  0  0  0  0
  -26.2780  -37.1580   23.8070 N   0  0  0  0  0  0  0  0  0  0  0  0
  -25.8410  -38.0600   23.9780 H   0  0  0  0  0  0  0  0  0  0  0  0
  -26.3840  -31.4700   24.9520 C   0  0  1  0  0  0  0  0  0  0  0  0
  -25.2970  -31.1620   26.0060 C   0  0  0  0  0  1  0  0  0  0  0  0
  -27.0190  -30.1270   24.5130 C   0  0  0  0  0  1  0  0  0  0  0  0
  -27.4990  -32.2900   25.6440 C   0  0  0  0  0  1  0  0  0  0  0  0
  -29.3800  -18.9700   20.3830 C   0  0  0  0  0  2  0  0  0  0  0  0
  -30.2010  -18.3420   22.8040 C   0  0  0  0  0  1  0  0  0  0  0  0
  -29.7390  -17.8560   21.4190 C   0  0  0  0  0  3  0  0  0  0  0  0
  -30.3400  -15.4330   20.8770 C   0  0  0  0  0  3  0  0  0  0  0  0
  -30.6350  -16.7530   20.8360 C   0  0  0  0  0  0  0  0  0  0  0  0
  -31.0910  -14.3650   20.1970 C   0  0  0  0  0  0  0  0  0  0  0  0
  -30.6940  -12.3190   18.8760 C   0  0  0  0  0  2  0  0  0  0  0  0
  -29.6980  -12.6760   17.7520 C   0  0  0  0  0  2  0  0  0  0  0  0
  -28.2330  -12.5870   18.2380 C   0  0  0  0  0  2  0  0  0  0  0  0
  -28.0050  -13.3200   19.5880 C   0  0  0  0  0  3  0  0  0  0  0  0
  -29.0880  -12.8680   20.5950 C   0  0  0  0  0  2  0  0  0  0  0  0
  -30.4030  -13.2000   20.0190 N   0  0  0  0  0  0  0  0  0  0  0  0
  -32.1990  -14.5530   19.6800 O   0  0  0  0  0  0  0  0  0  0  0  0
  -25.6490  -14.0110   20.3790 C   0  0  0  0  0  0  0  0  0  0  0  0
  -24.5690  -13.2750   20.7830 C   0  0  0  0  0  0  0  0  0  0  0  0
  -24.9780  -11.9080   20.7200 C   0  0  0  0  0  0  0  0  0  0  0  0
  -26.6550  -13.0970   20.1050 N   0  0  0  0  0  0  0  0  0  0  0  0
  -26.2520  -11.8260   20.3590 N   0  0  0  0  0  0  0  0  0  0  0  0
  -24.2160  -10.6710   20.9210 C   0  0  0  0  0  0  0  0  0  0  0  0
  -24.6230   -9.6980   21.8610 C   0  0  0  0  0  3  0  0  0  0  0  0
  -23.8620   -8.5230   22.0500 C   0  0  0  0  0  3  0  0  0  0  0  0
  -22.6780   -8.3150   21.3030 C   0  0  0  0  0  0  0  0  0  0  0  0
  -22.2920   -9.2770   20.3500 C   0  0  0  0  0  3  0  0  0  0  0  0
  -23.0520  -10.4420   20.1610 C   0  0  0  0  0  3  0  0  0  0  0  0
  -21.8920   -7.1930   21.4030 O   0  0  0  0  0  0  0  0  0  0  0  0
  -21.7940   -6.4850   22.5740 C   0  0  0  0  0  0  0  0  0  0  0  0
  -21.3650   -7.0860   23.7780 C   0  0  0  0  0  3  0  0  0  0  0  0
  -21.2160   -6.3060   24.9420 C   0  0  0  0  0  3  0  0  0  0  0  0
  -21.4820   -4.9240   24.9020 C   0  0  0  0  0  0  0  0  0  0  0  0
  -21.9000   -4.3220   23.7040 C   0  0  0  0  0  3  0  0  0  0  0  0
  -22.0540   -5.1000   22.5420 C   0  0  0  0  0  0  0  0  0  0  0  0
  -22.4380   -4.5090   21.3860 F   0  0  0  0  0  0  0  0  0  0  0  0
  -21.3280   -4.1730   26.0190 F   0  0  0  0  0  0  0  0  0  0  0  0
  -23.1980  -13.7960   21.1150 C   0  0  0  0  0  0  0  0  0  0  0  0
  -22.4890  -13.1390   22.0240 N   0  0  0  0  0  0  0  0  0  0  0  0
  -22.7690  -14.8320   20.6040 O   0  0  0  0  0  0  0  0  0  0  0  0
  -22.8380  -12.2980   22.4620 H   0  0  0  0  0  0  0  0  0  0  0  0
  -21.5730  -13.4810   22.2860 H   0  0  0  0  0  0  0  0  0  0  0  0
  -25.8540  -15.3790   20.2020 N   0  0  0  0  0  0  0  0  0  0  0  0
  -25.1100  -16.0580   20.3360 H   0  0  0  0  0  0  0  0  0  0  0  0
  -26.6990  -15.7840   19.8220 H   0  0  0  0  0  0  0  0  0  0  0  0
  -31.7170  -17.2790   20.2400 O   0  0  0  0  0  0  0  0  0  0  0  0
  -32.2230  -16.5530   19.8890 H   0  0  0  0  0  0  0  0  0  0  0  0
  2  5  1  0
  3  1  1  0
  4  2  2  0
  4  6  1  0
  5  7  1  0
  5  1  2  0
  6  3  2  0
  7  9  2  0
  8  7  1  0
 10  8  1  0
 11  8  1  0
 11 12  1  0
 12 13  1  0
 13 15  1  0
 14 25  2  0
 15 20  1  0
 16 24  1  0
 16 26  1  0
 17 23  1  0
 17 19  1  0
 18 24  1  0
 19 18  1  0
 20 19  2  0
 21 22  1  0
 21 15  2  0
 22 17  2  0
 23 16  1  0
 24 14  1  0
 26 28  2  0
 27 26  1  0
 29 27  1  0
 30 39  2  0
 30 35  1  0
 31 27  1  0
 31 35  1  0
 32 31  1  0
 33 34  1  0
 33 32  1  0
 34 30  1  0
 35 36  2  0
 36 37  1  0
 38 37  2  0
 39 38  1  0
 40 14  1  0
 40 41  1  0
 40 50  1  0
 41 44  1  0
 42 46  1  0
 42 41  1  0
 43 42  2  0
 46 45  1  0
 48 46  1  0
 48 49  1  0
 48 47  1  0
 50 53  1  1
 50 51  1  0
 52 50  1  0
 54  6  1  0
 54 56  1  0
 56 55  1  0
 58 57  2  0
 58 56  1  0
 59 57  1  0
 60 65  1  0
 61 62  1  0
 61 60  1  0
 63 62  1  0
 63 70  1  0
 63 64  1  0
 65 59  1  0
 65 64  1  0
 66 59  2  0
 67 68  2  0
 68 87  1  0
 69 68  1  0
 69 72  1  0
 70 71  1  0
 70 67  1  0
 71 69  2  0
 72 73  1  0
 73 74  2  0
 75 78  1  0
 75 74  1  0
 76 75  2  0
 77 76  1  0
 77 72  2  0
 78 79  1  0
 79 80  1  0
 80 81  2  0
 82 81  1  0
 82 86  1  0
 83 82  2  0
 84 79  2  0
 84 83  1  0
 85 84  1  0
 87 88  1  0
 88 91  1  0
 88 90  1  0
 89 87  2  0
 92 93  1  0
 92 67  1  0
 94 92  1  0
 95 58  1  0
 96 95  1  0
M  ISO  4  12 101  13 101  57 100  59 100
M  END
>  <TORSDO>  (17) 
F 23

>  <SCORE>  (17) 
-11.889

>  <name>  (17) 
16

>  <ligand_id>  (17) 
16

>  <original_smiles>  (17) 
[H]OC(=C([H])C(=O)N1C([H])([H])C([H])([H])C([H])([H])C([H])(n2nc(-c3c([H])c([H])c(Oc4c([H])c([H])c(F)c([H])c4F)c([H])c3[H])c(C(=O)N([H])[H])c2N([H])[H])C1([H])[H])C([H])(C([H])([H])[H])C([H])([H])c1c([H])c([H])c(C(=O)N([H])C([H])([H])C([H])([H])Oc2c([H])c([H])c3c(c2[H])C([H])([H])N(C(=O)C([H])(N([H])C(=O)C([H])(N([H])C([H])([H])[H])C([H])([H])[H])C(C([H])([H])[H])(C([H])([H])[H])C([H])([H])[H])C([H])(C(=O)N([H])C2([H])c4c([H])c([H])c([H])c([H])c4C([H])([H])C([H])([H])C2([H])[H])C3([H])[H])c([H])c1[H]

>  <smiles>  (17) 
[H]OC(=C([H])C(=O)N1C([H])([H])C([H])([H])C([H])([H])C([H])(n2nc(-c3c([H])c([H])c(Oc4c([H])c([H])c(F)c([H])c4F)c([H])c3[H])c(C(=O)N([H])[H])c2N([H])[H])C1([H])[H])C([H])(C([H])([H])[H])C([H])([H])c1c([H])c([H])c(C(=O)N([H])C([H])([H])C([H])([H])Oc2c([H])c([H])c3c(c2[H])C([H])([H])N(C(=O)C([H])(N([H])C(=O)C([H])(N([H])C([H])([H])[H])C([H])([H])[H])C(C([H])([H])[H])(C([H])([H])[H])C([H])([H])[H])C([H])(C(=O)N([H])C2([H])c4c([H])c([H])c([H])c([H])c4C([H])([H])C([H])([H])C2([H])[H])C3([H])[H])c([H])c1[H]

$$$$
17:0:0
     RDKit          3D

 90 98  0  0  1  0  0  0  0  0999 V2000
  -28.5830  -21.9960   21.0920 C   0  0  0  0  0  3  0  0  0  0  0  0
  -29.5050  -21.7570   18.8880 C   0  0  0  0  0  3  0  0  0  0  0  0
  -28.6600  -20.5790   21.2600 C   0  0  0  0  0  3  0  0  0  0  0  0
  -29.5780  -20.3410   19.0520 C   0  0  0  0  0  3  0  0  0  0  0  0
  -28.9870  -22.6330   19.8870 C   0  0  0  0  0  0  0  0  0  0  0  0
  -29.1420  -19.7090   20.2390 C   0  0  0  0  0  0  0  0  0  0  0  0
  -28.9040  -24.1530   19.6090 C   0  0  0  0  0  0  0  0  0  0  0  0
  -29.3610  -24.6160   18.5580 O   0  0  0  0  0  0  0  0  0  0  0  0
  -28.2370  -25.1710   20.6080 C   0  0  0  0  0  2  0  0  0  0  0  0
  -28.3970  -26.6020   20.2460 O   0  0  0  0  0  0  0  0  0  0  0  0
  -24.5370  -31.9480   23.1620 C   0  0  0  0  0  0  0  0  0  0  0  0
  -27.2520  -27.4020   20.2080 C   0  0  0  0  0  0  0  0  0  0  0  0
  -23.3680  -30.5000   21.5350 C   0  0  0  0  0  3  0  0  0  0  0  0
  -24.8560  -28.9490   20.1490 C   0  0  0  0  0  0  0  0  0  0  0  0
  -25.8990  -30.8670   21.3600 C   0  0  0  0  0  2  0  0  0  0  0  0
  -26.0100  -29.4790   20.7420 C   0  0  0  0  0  0  0  0  0  0  0  0
  -27.2140  -28.7180   20.7580 C   0  0  0  0  0  3  0  0  0  0  0  0
  -26.0780  -26.9120   19.5970 C   0  0  0  0  0  3  0  0  0  0  0  0
  -24.8910  -27.6700   19.5670 C   0  0  0  0  0  3  0  0  0  0  0  0
  -23.6050  -29.8010   20.1690 C   0  0  0  0  0  2  0  0  0  0  0  0
  -24.6190  -31.1240   22.0760 N   0  0  0  0  0  0  0  0  0  0  0  0
  -23.4470  -32.2140   23.6880 O   0  0  0  0  0  0  0  0  0  0  0  0
  -22.7190  -29.4900   22.5100 C   0  0  0  0  0  0  0  0  0  0  0  0
  -21.3980  -29.2830   22.3730 N   0  0  0  0  0  0  0  0  0  0  0  0
  -23.4010  -28.8940   23.3470 O   0  0  0  0  0  0  0  0  0  0  0  0
  -20.9070  -29.8210   21.6730 H   0  0  0  0  0  0  0  0  0  0  0  0
  -18.0410  -28.0210   22.8530 C   0  0  0  0  0  0  0  0  0  0  0  0
  -20.5880  -28.3440   23.1520 C   0  0  0  0  0  3  0  0  0  0  0  0
  -20.7310  -26.9010   22.6110 C   0  0  0  0  0  2  0  0  0  0  0  0
  -19.6520  -26.5320   21.5880 C   0  0  0  0  0  2  0  0  0  0  0  0
  -18.2570  -26.6610   22.2090 C   0  0  0  0  0  2  0  0  0  0  0  0
  -19.1360  -28.8180   23.2800 C   0  0  0  0  0  0  0  0  0  0  0  0
  -18.8820  -30.0880   23.8400 C   0  0  0  0  0  3  0  0  0  0  0  0
  -17.5640  -30.5640   23.9780 C   0  0  0  0  0  3  0  0  0  0  0  0
  -16.4820  -29.7650   23.5660 C   0  0  0  0  0  3  0  0  0  0  0  0
  -16.7220  -28.4940   23.0090 C   0  0  0  0  0  3  0  0  0  0  0  0
  -25.8070  -32.6120   23.7820 C   0  0  0  0  0  3  0  0  0  0  0  0
  -26.3210  -31.8770   25.0810 C   0  0  1  0  0  0  0  0  0  0  0  0
  -25.2180  -31.6430   26.1410 C   0  0  0  0  0  1  0  0  0  0  0  0
  -26.9330  -30.5030   24.7250 C   0  0  0  0  0  1  0  0  0  0  0  0
  -27.4510  -32.7050   25.7400 C   0  0  0  0  0  1  0  0  0  0  0  0
  -25.4750  -34.0120   24.0790 N   0  0  0  0  0  0  0  0  0  0  0  0
  -25.8040  -35.0540   23.3050 C   0  0  0  0  0  0  0  0  0  0  0  0
  -26.4900  -34.9400   22.2850 O   0  0  0  0  0  0  0  0  0  0  0  0
  -24.8710  -34.1730   24.8720 H   0  0  0  0  0  0  0  0  0  0  0  0
  -24.0640  -36.8200   22.8870 C   0  0  0  0  0  1  0  0  0  0  0  0
  -25.2940  -36.4450   23.7280 C   0  0  0  0  0  3  0  0  0  0  0  0
  -27.4030  -37.3660   24.5840 C   0  0  0  0  0  1  0  0  0  0  0  0
  -26.3160  -37.5080   23.6180 N   0  0  0  0  0  0  0  0  0  0  0  0
  -25.8970  -38.4250   23.7470 H   0  0  0  0  0  0  0  0  0  0  0  0
  -29.0340  -18.1470   20.3760 C   0  0  0  0  0  3  0  0  0  0  0  0
  -30.3140  -17.2180   20.2460 C   0  0  0  0  0  3  0  0  0  0  0  0
  -30.7850  -14.7110   20.0890 C   0  0  0  0  0  0  0  0  0  0  0  0
  -30.4940  -12.5120   18.9460 C   0  0  0  0  0  2  0  0  0  0  0  0
  -29.4860  -12.6360   17.7800 C   0  0  0  0  0  2  0  0  0  0  0  0
  -28.0350  -12.4720   18.2750 C   0  0  0  0  0  2  0  0  0  0  0  0
  -27.7420  -13.3070   19.5490 C   0  0  0  0  0  3  0  0  0  0  0  0
  -28.8510  -13.1210   20.6010 C   0  0  0  0  0  2  0  0  0  0  0  0
  -30.1290  -13.5070   19.9810 N   0  0  0  0  0  0  0  0  0  0  0  0
  -31.8560  -14.8880   19.4960 O   0  0  0  0  0  0  0  0  0  0  0  0
  -29.9440  -15.7110   22.1450 C   0  0  0  0  0  1  0  0  0  0  0  0
  -30.1400  -15.7780   20.6880 N   0  0  0  0  0  0  0  0  0  0  0  0
  -25.3900  -13.8830   20.4050 C   0  0  0  0  0  0  0  0  0  0  0  0
  -24.3440  -13.1010   20.8110 C   0  0  0  0  0  0  0  0  0  0  0  0
  -24.8050  -11.7510   20.7260 C   0  0  0  0  0  0  0  0  0  0  0  0
  -26.4210  -13.0120   20.0970 N   0  0  0  0  0  0  0  0  0  0  0  0
  -26.0770  -11.7220   20.3470 N   0  0  0  0  0  0  0  0  0  0  0  0
  -24.0930  -10.4820   20.9280 C   0  0  0  0  0  0  0  0  0  0  0  0
  -24.5420   -9.5220   21.8620 C   0  0  0  0  0  3  0  0  0  0  0  0
  -23.8270   -8.3200   22.0510 C   0  0  0  0  0  3  0  0  0  0  0  0
  -22.6520   -8.0680   21.3050 C   0  0  0  0  0  0  0  0  0  0  0  0
  -22.2210   -9.0170   20.3640 C   0  0  0  0  0  3  0  0  0  0  0  0
  -22.9340  -10.2110   20.1720 C   0  0  0  0  0  3  0  0  0  0  0  0
  -21.9070   -6.9160   21.4050 O   0  0  0  0  0  0  0  0  0  0  0  0
  -21.8280   -6.2090   22.5760 C   0  0  0  0  0  0  0  0  0  0  0  0
  -21.3610   -6.7980   23.7720 C   0  0  0  0  0  3  0  0  0  0  0  0
  -21.2290   -6.0170   24.9370 C   0  0  0  0  0  3  0  0  0  0  0  0
  -21.5520   -4.6470   24.9080 C   0  0  0  0  0  0  0  0  0  0  0  0
  -22.0100   -4.0570   23.7170 C   0  0  0  0  0  3  0  0  0  0  0  0
  -22.1440   -4.8350   22.5540 C   0  0  0  0  0  0  0  0  0  0  0  0
  -22.5670   -4.2560   21.4050 F   0  0  0  0  0  0  0  0  0  0  0  0
  -21.4170   -3.8950   26.0250 F   0  0  0  0  0  0  0  0  0  0  0  0
  -22.9640  -13.5680   21.1700 C   0  0  0  0  0  0  0  0  0  0  0  0
  -22.2890  -12.8550   22.0630 N   0  0  0  0  0  0  0  0  0  0  0  0
  -22.4960  -14.6020   20.6930 O   0  0  0  0  0  0  0  0  0  0  0  0
  -22.6810  -12.0180   22.4700 H   0  0  0  0  0  0  0  0  0  0  0  0
  -21.3640  -13.1480   22.3460 H   0  0  0  0  0  0  0  0  0  0  0  0
  -25.5460  -15.2590   20.2500 N   0  0  0  0  0  0  0  0  0  0  0  0
  -24.7930  -15.9160   20.4290 H   0  0  0  0  0  0  0  0  0  0  0  0
  -26.3850  -15.7020   19.9020 H   0  0  0  0  0  0  0  0  0  0  0  0
  1  3  1  0
  2  4  2  0
  2  5  1  0
  4  6  1  0
  5  1  2  0
  6 51  1  0
  6  3  2  0
  7  5  1  0
  7  9  1  0
  8  7  2  0
 10  9  1  0
 11 22  2  0
 12 10  1  0
 12 17  1  0
 13 21  1  0
 13 23  1  0
 14 20  1  0
 14 16  1  0
 15 21  1  0
 16 17  2  0
 16 15  1  0
 18 12  2  0
 19 18  1  0
 19 14  2  0
 20 13  1  0
 21 11  1  0
 23 25  2  0
 24 23  1  0
 26 24  1  0
 27 36  2  0
 27 32  1  0
 28 24  1  0
 28 32  1  0
 29 28  1  0
 30 31  1  0
 30 29  1  0
 31 27  1  0
 32 33  2  0
 33 34  1  0
 35 34  2  0
 36 35  1  0
 37 11  1  0
 37 42  1  0
 37 38  1  0
 38 41  1  1
 38 39  1  0
 40 38  1  0
 42 45  1  0
 43 47  1  0
 43 42  1  0
 44 43  2  0
 47 46  1  0
 49 47  1  0
 49 50  1  0
 49 48  1  0
 52 51  2  0
 52 62  1  0
 53 62  1  0
 54 59  1  0
 55 56  1  0
 55 54  1  0
 57 56  1  0
 57 66  1  0
 57 58  1  0
 59 53  1  0
 59 58  1  0
 60 53  2  0
 62 61  1  0
 63 64  2  0
 64 83  1  0
 65 64  1  0
 65 68  1  0
 66 67  1  0
 66 63  1  0
 67 65  2  0
 68 69  1  0
 69 70  2  0
 71 74  1  0
 71 70  1  0
 72 71  2  0
 73 72  1  0
 73 68  2  0
 74 75  1  0
 75 76  1  0
 76 77  2  0
 78 77  1  0
 78 82  1  0
 79 78  2  0
 80 75  2  0
 80 79  1  0
 81 80  1  0
 83 84  1  0
 84 87  1  0
 84 86  1  0
 85 83  2  0
 88 63  1  0
 88 89  1  0
 90 88  1  0
M  ISO  4   9 101  10 101  53 100  62 100
M  END
>  <TORSDO>  (18) 
F 20

>  <SCORE>  (18) 
-12.964

>  <name>  (18) 
17

>  <ligand_id>  (18) 
17

>  <original_smiles>  (18) 
[H]c1c([H])c([H])c2c(c1[H])C([H])([H])C([H])([H])C([H])([H])C2([H])N([H])C(=O)C1([H])N(C(=O)C([H])(N([H])C(=O)C([H])(N([H])C([H])([H])[H])C([H])([H])[H])C(C([H])([H])[H])(C([H])([H])[H])C([H])([H])[H])C([H])([H])c2c([H])c(OC([H])([H])C(=O)c3c([H])c([H])c(C([H])([H])C([H])([H])N(C(=O)N4C([H])([H])C([H])([H])C([H])([H])C([H])(n5nc(-c6c([H])c([H])c(Oc7c([H])c([H])c(F)c([H])c7F)c([H])c6[H])c(C(=O)N([H])[H])c5N([H])[H])C4([H])[H])C([H])([H])[H])c([H])c3[H])c([H])c([H])c2C1([H])[H]

>  <smiles>  (18) 
[H]c1c([H])c([H])c2c(c1[H])C([H])([H])C([H])([H])C([H])([H])C2([H])N([H])C(=O)C1([H])N(C(=O)C([H])(N([H])C(=O)C([H])(N([H])C([H])([H])[H])C([H])([H])[H])C(C([H])([H])[H])(C([H])([H])[H])C([H])([H])[H])C([H])([H])c2c([H])c(OC([H])([H])C(=O)c3c([H])c([H])c(C([H])([H])C([H])([H])N(C(=O)N4C([H])([H])C([H])([H])C([H])([H])C([H])(n5nc(-c6c([H])c([H])c(Oc7c([H])c([H])c(F)c([H])c7F)c([H])c6[H])c(C(=O)N([H])[H])c5N([H])[H])C4([H])[H])C([H])([H])[H])c([H])c3[H])c([H])c([H])c2C1([H])[H]

$$$$
18:0:0
     RDKit          3D

 92 90  0  0  1  0  0  0  0  0999 V2000
  -19.8100  -26.3690   18.7890 C   0  0  0  0  0  3  0  0  0  0  0  0
  -19.8260  -27.9050   19.4990 C   0  0  0  0  0  2  0  0  0  0  0  0
  -20.5690  -24.9420   19.2560 C   0  0  0  0  0  3  0  0  0  0  0  0
  -21.2120  -25.9200   21.6150 C   0  0  0  0  0  2  0  0  0  0  0  0
  -20.5610  -28.0740   21.0040 C   0  0  0  0  0  1  0  0  0  0  0  0
  -21.7150  -24.6010   20.3960 C   0  0  0  0  0  2  0  0  0  0  0  0
  -24.1670  -23.3840   21.3840 C   0  0  0  0  0  1  0  0  0  0  0  0
  -23.6140  -23.4430   19.9550 C   0  0  0  0  0  1  0  0  0  0  0  0
  -24.7780  -21.9520   19.0250 N   0  0  0  0  0  2  0  0  0  0  0  0
  -24.1380  -21.1810   19.1240 H   0  0  0  0  0  0  0  0  0  0  0  0
  -24.6620  -22.2440   18.0680 H   0  0  0  0  0  0  0  0  0  0  0  0
  -26.5770  -20.8610   18.8160 C   0  0  0  0  0 15  0  0  0  0  0  0
  -27.8630  -18.8250   18.6140 C   0  0  0  0  0 15  0  0  0  0  0  0
  -29.6300  -17.3730   18.5490 C   0  0  0  0  0  2  0  0  0  0  0  0
  -30.9260  -14.7570   18.1500 C   0  0  0  0  0  2  0  0  0  0  0  0
  -30.2330  -13.6090   17.2940 C   0  0  0  0  0  2  0  0  0  0  0  0
  -28.9600  -13.0910   17.9750 C   0  0  0  0  0  2  0  0  0  0  0  0
  -28.3490  -14.2830   18.7150 C   0  0  0  0  0  3  0  0  0  0  0  0
  -29.2820  -14.9780   19.6900 C   0  0  0  0  0  2  0  0  0  0  0  0
  -29.9460  -15.8710   18.7820 N   0  0  0  0  0  0  0  0  0  0  0  0
  -30.8480  -17.5330   18.1280 O   0  0  0  0  0  1  0  0  0  0  0  0
  -26.4070  -15.0920   19.9870 C   0  0  0  0  0  0  0  0  0  0  0  0
  -25.3600  -14.4600   20.5580 C   0  0  0  0  0  0  0  0  0  0  0  0
  -25.5570  -13.0720   20.2890 C   0  0  0  0  0  0  0  0  0  0  0  0
  -27.1460  -14.0920   19.4060 N   0  0  0  0  0  0  0  0  0  0  0  0
  -26.6970  -12.8540   19.6590 N   0  0  0  0  0  0  0  0  0  0  0  0
  -24.6770  -11.9420   20.5050 C   0  0  0  0  0  0  0  0  0  0  0  0
  -25.0340  -10.8850   21.3670 C   0  0  0  0  0  3  0  0  0  0  0  0
  -24.1450   -9.8110   21.5610 C   0  0  0  0  0  3  0  0  0  0  0  0
  -22.8980   -9.7980   20.8930 C   0  0  0  0  0  0  0  0  0  0  0  0
  -22.5670  -10.8420   20.0140 C   0  0  0  0  0  3  0  0  0  0  0  0
  -23.4530  -11.9080   19.8150 C   0  0  0  0  0  3  0  0  0  0  0  0
  -21.9770   -8.7890   21.0090 O   0  0  0  0  0  0  0  0  0  0  0  0
  -21.7600   -8.1580   22.2050 C   0  0  0  0  0  0  0  0  0  0  0  0
  -21.3540   -8.8640   23.3580 C   0  0  0  0  0  3  0  0  0  0  0  0
  -21.0740   -8.1630   24.5480 C   0  0  0  0  0  3  0  0  0  0  0  0
  -21.1910   -6.7600   24.5830 C   0  0  0  0  0  0  0  0  0  0  0  0
  -21.5940   -6.0570   23.4330 C   0  0  0  0  0  3  0  0  0  0  0  0
  -21.8760   -6.7550   22.2470 C   0  0  0  0  0  0  0  0  0  0  0  0
  -22.2430   -6.0750   21.1350 F   0  0  0  0  0  0  0  0  0  0  0  0
  -20.9120   -6.0840   25.7210 F   0  0  0  0  0  0  0  0  0  0  0  0
  -24.1890  -15.1370   21.1890 C   0  0  0  0  0  0  0  0  0  0  0  0
  -23.5620  -14.4850   22.1570 N   0  0  0  0  0  0  0  0  0  0  0  0
  -23.8600  -16.2760   20.8570 O   0  0  0  0  0  0  0  0  0  0  0  0
  -23.8540  -13.5610   22.4400 H   0  0  0  0  0  0  0  0  0  0  0  0
  -22.7790  -14.9160   22.6270 H   0  0  0  0  0  0  0  0  0  0  0  0
  -26.7570  -16.4250   19.8720 N   0  0  0  0  0  0  0  0  0  0  0  0
  -26.0760  -17.1260   20.1430 H   0  0  0  0  0  0  0  0  0  0  0  0
  -27.3770  -16.7420   19.1400 H   0  0  0  0  0  0  0  0  0  0  0  0
  -21.2840  -29.9960   22.0020 C   0  0  0  0  0 15  0  0  0  0  0  0
  -23.1330  -29.8500   23.6220 C   0  0  0  0  0 15  0  0  0  0  0  0
  -24.7160  -28.4990   23.6530 O   0  0  0  0  0  1  0  0  0  0  0  0
  -24.6290  -32.0720   22.6470 C   0  0  0  0  0  0  0  0  0  0  0  0
  -25.8870  -27.7340   22.9360 C   0  0  0  0  0  3  0  0  0  0  0  0
  -23.8060  -29.9500   21.0990 C   0  0  0  0  0  3  0  0  0  0  0  0
  -25.7380  -28.4480   20.5160 C   0  0  0  0  0  3  0  0  0  0  0  0
  -26.2540  -30.6220   21.6110 C   0  0  0  0  0  2  0  0  0  0  0  0
  -26.4750  -29.1670   21.4730 C   0  0  0  0  0  3  0  0  0  0  0  0
  -26.9700  -28.5080   22.5890 C   0  0  0  0  0  2  0  0  0  0  0  0
  -25.9030  -26.5990   22.0010 C   0  0  0  0  0  2  0  0  0  0  0  0
  -25.7760  -27.0210   20.6380 C   0  0  0  0  0  2  0  0  0  0  0  0
  -24.5700  -29.2570   19.9400 C   0  0  0  0  0  2  0  0  0  0  0  0
  -24.8410  -30.9060   21.8850 N   0  0  0  0  0  0  0  0  0  0  0  0
  -23.5040  -32.5970   22.6990 O   0  0  0  0  0  0  0  0  0  0  0  0
  -23.1070  -28.4710   21.6120 C   0  0  0  0  0  0  0  0  0  0  0  0
  -22.4360  -27.9250   22.7930 N   0  0  0  0  0  0  0  0  0  0  0  0
  -23.5160  -27.4640   21.5210 O   0  0  0  0  0  0  0  0  0  0  0  0
  -22.5500  -26.9460   22.5790 H   0  0  0  0  0  0  0  0  0  0  0  0
  -18.1640  -27.2540   23.4270 C   0  0  0  0  0  0  0  0  0  0  0  0
  -21.2920  -28.2010   24.1260 C   0  0  0  0  0  1  0  0  0  0  0  0
  -22.4510  -26.8830   23.7970 C   0  0  0  0  0  3  0  0  0  0  0  0
  -21.8670  -25.6320   22.5260 C   0  0  0  0  0  2  0  0  0  0  0  0
  -18.7390  -25.6120   22.8690 C   0  0  0  0  0  1  0  0  0  0  0  0
  -19.1960  -28.3740   23.9680 C   0  0  0  0  0  3  0  0  0  0  0  0
  -18.5090  -29.6850   23.7460 C   0  0  0  0  0  3  0  0  0  0  0  0
  -17.2450  -29.9950   23.1170 C   0  0  0  0  0  3  0  0  0  0  0  0
  -16.3710  -28.9700   22.7490 C   0  0  0  0  0  3  0  0  0  0  0  0
  -16.8400  -27.6410   22.9250 C   0  0  0  0  0  3  0  0  0  0  0  0
  -25.7260  -32.7690   23.5860 C   0  0  0  0  0  3  0  0  0  0  0  0
  -25.2290  -34.1030   23.9380 N   0  0  0  0  0  0  0  0  0  0  0  0
  -25.6480  -35.2360   23.3620 C   0  0  0  0  0  0  0  0  0  0  0  0
  -26.5290  -35.2610   22.4980 O   0  0  0  0  0  0  0  0  0  0  0  0
  -24.4620  -34.1470   24.5910 H   0  0  0  0  0  0  0  0  0  0  0  0
  -23.8910  -36.9250   22.7730 C   0  0  0  0  0  1  0  0  0  0  0  0
  -24.9700  -36.5470   23.7990 C   0  0  0  0  0  3  0  0  0  0  0  0
  -26.8070  -37.5100   25.1120 C   0  0  0  0  0  1  0  0  0  0  0  0
  -25.9140  -37.6710   23.9670 N   0  0  0  0  0  0  0  0  0  0  0  0
  -25.4130  -38.5480   24.0770 H   0  0  0  0  0  0  0  0  0  0  0  0
  -26.1760  -32.0270   24.9280 C   0  0  1  0  0  0  0  0  0  0  0  0
  -25.0240  -31.6390   25.8880 C   0  0  0  0  0  1  0  0  0  0  0  0
  -27.0270  -30.7810   24.6180 C   0  0  0  0  0  1  0  0  0  0  0  0
  -27.1150  -32.9430   25.7590 C   0  0  0  0  0  1  0  0  0  0  0  0
  1  3  2  0
  1  2  1  0
  2  5  1  0
  3  6  1  0
  4 72  1  0
  6  4  1  0
  8  7  1  0
  9 10  1  0
 11  9  1  0
 14 20  1  0
 15 20  1  0
 16 17  1  0
 16 15  1  0
 18 17  1  0
 18 25  1  0
 18 19  1  0
 20 19  1  0
 21 14  1  0
 22 23  2  0
 23 42  1  0
 24 27  1  0
 24 23  1  0
 25 26  1  0
 25 22  1  0
 26 24  2  0
 27 28  1  0
 28 29  2  0
 30 33  1  0
 30 29  1  0
 31 30  2  0
 32 31  1  0
 32 27  2  0
 33 34  1  0
 34 39  2  0
 34 35  1  0
 35 36  2  0
 36 37  1  0
 37 41  1  0
 38 37  2  0
 39 38  1  0
 40 39  1  0
 42 43  1  0
 43 45  1  0
 43 46  1  0
 44 42  2  0
 47 22  1  0
 47 48  1  0
 49 47  1  0
 53 64  2  0
 54 52  1  0
 55 65  1  0
 55 63  1  0
 56 62  1  0
 56 61  1  0
 56 58  1  0
 57 63  1  0
 58 57  1  0
 58 59  1  0
 59 54  1  0
 60 54  1  0
 61 60  1  0
 62 55  1  0
 63 53  1  0
 65 66  1  0
 66 71  1  0
 67 65  2  0
 68 66  1  0
 69 74  1  0
 71 70  1  0
 72 71  1  0
 73 69  1  0
 75 74  2  0
 76 75  1  0
 77 78  1  0
 77 76  2  0
 78 69  2  0
 79 53  1  0
 79 80  1  0
 79 89  1  0
 80 83  1  0
 81 85  1  0
 81 80  1  0
 82 81  2  0
 85 84  1  0
 85 87  1  0
 87 88  1  0
 87 86  1  0
 89 92  1  1
 89 90  1  0
 91 89  1  0
M  ISO  4  13 100  14 100  51 101  52 101
M  END
>  <TORSDO>  (19) 
F 22

>  <SCORE>  (19) 
-4.215

>  <name>  (19) 
18

>  <ligand_id>  (19) 
18

>  <original_smiles>  (19) 
[H]c1c([H])c([H])c2c(c1[H])C([H])([H])C([H])([H])C([H])([H])C2([H])N([H])C(=O)C1([H])N(C(=O)C([H])(N([H])C(=O)C([H])(N([H])C([H])([H])[H])C([H])([H])[H])C(C([H])([H])[H])(C([H])([H])[H])C([H])([H])[H])C([H])([H])c2c([H])c(OC([H])([H])C([H])([H])c3c([H])c([H])c([H])c(C([H])(C([H])([H])[H])[N+]([H])([H])C([H])([H])C([H])([H])C(=O)N4C([H])([H])C([H])([H])C([H])([H])C([H])(n5nc(-c6c([H])c([H])c(Oc7c([H])c([H])c(F)c([H])c7F)c([H])c6[H])c(C(=O)N([H])[H])c5N([H])[H])C4([H])[H])c3[H])c([H])c([H])c2C1([H])[H]

>  <smiles>  (19) 
[H]c1c([H])c([H])c2c(c1[H])C([H])([H])C([H])([H])C([H])([H])C2([H])N([H])C(=O)C1([H])N(C(=O)C([H])(N([H])C(=O)C([H])(N([H])C([H])([H])[H])C([H])([H])[H])C(C([H])([H])[H])(C([H])([H])[H])C([H])([H])[H])C([H])([H])c2c([H])c(OC([H])([H])C([H])([H])c3c([H])c([H])c([H])c(C([H])(C([H])([H])[H])[N+]([H])([H])C([H])([H])C([H])([H])C(=O)N4C([H])([H])C([H])([H])C([H])([H])C([H])(n5nc(-c6c([H])c([H])c(Oc7c([H])c([H])c(F)c([H])c7F)c([H])c6[H])c(C(=O)N([H])[H])c5N([H])[H])C4([H])[H])c3[H])c([H])c([H])c2C1([H])[H]

$$$$
19:0:0
     RDKit          3D

 90 97  0  0  1  0  0  0  0  0999 V2000
  -30.1740  -22.1240   20.3280 C   0  0  0  0  0  0  0  0  0  0  0  0
  -30.8030  -22.2740   21.3790 O   0  0  0  0  0  0  0  0  0  0  0  0
  -29.6330  -23.3190   19.5190 C   0  0  0  0  0  2  0  0  0  0  0  0
  -29.6030  -24.7120   20.2090 C   0  0  0  0  0  2  0  0  0  0  0  0
  -28.3930  -25.5470   19.7260 C   0  0  0  0  0  2  0  0  0  0  0  0
  -28.3790  -26.8880   20.2310 O   0  0  0  0  0  0  0  0  0  0  0  0
  -24.5240  -31.9930   23.3260 C   0  0  0  0  0  0  0  0  0  0  0  0
  -27.1790  -27.5830   20.2060 C   0  0  0  0  0  0  0  0  0  0  0  0
  -23.3120  -30.5970   21.6820 C   0  0  0  0  0  3  0  0  0  0  0  0
  -24.7640  -29.0780   20.2340 C   0  0  0  0  0  0  0  0  0  0  0  0
  -25.8340  -30.9710   21.4690 C   0  0  0  0  0  2  0  0  0  0  0  0
  -25.9210  -29.6040   20.8200 C   0  0  0  0  0  0  0  0  0  0  0  0
  -27.1280  -28.8660   20.8000 C   0  0  0  0  0  3  0  0  0  0  0  0
  -25.9970  -27.0730   19.6140 C   0  0  0  0  0  3  0  0  0  0  0  0
  -24.7990  -27.8120   19.6250 C   0  0  0  0  0  3  0  0  0  0  0  0
  -23.5130  -29.9290   20.2950 C   0  0  0  0  0  2  0  0  0  0  0  0
  -24.5750  -31.2010   22.2170 N   0  0  0  0  0  0  0  0  0  0  0  0
  -23.4440  -32.2570   23.8730 O   0  0  0  0  0  0  0  0  0  0  0  0
  -22.6730  -29.5660   22.6410 C   0  0  0  0  0  0  0  0  0  0  0  0
  -21.3520  -29.3680   22.5100 N   0  0  0  0  0  0  0  0  0  0  0  0
  -23.3630  -28.9520   23.4580 O   0  0  0  0  0  0  0  0  0  0  0  0
  -20.8590  -29.9200   21.8230 H   0  0  0  0  0  0  0  0  0  0  0  0
  -17.9940  -28.1190   22.9840 C   0  0  0  0  0  0  0  0  0  0  0  0
  -20.5430  -28.4190   23.2780 C   0  0  0  0  0  3  0  0  0  0  0  0
  -20.6720  -26.9870   22.7100 C   0  0  0  0  0  2  0  0  0  0  0  0
  -19.5860  -26.6420   21.6860 C   0  0  0  0  0  2  0  0  0  0  0  0
  -18.1960  -26.7700   22.3140 C   0  0  0  0  0  2  0  0  0  0  0  0
  -19.0950  -28.9010   23.4210 C   0  0  0  0  0  0  0  0  0  0  0  0
  -18.8510  -30.1630   24.0030 C   0  0  0  0  0  3  0  0  0  0  0  0
  -17.5360  -30.6440   24.1520 C   0  0  0  0  0  3  0  0  0  0  0  0
  -16.4490  -29.8610   23.7310 C   0  0  0  0  0  3  0  0  0  0  0  0
  -16.6790  -28.5980   23.1520 C   0  0  0  0  0  3  0  0  0  0  0  0
  -25.8120  -32.6240   23.9420 C   0  0  0  0  0  3  0  0  0  0  0  0
  -26.3210  -31.8700   25.2310 C   0  0  1  0  0  0  0  0  0  0  0  0
  -25.2230  -31.6490   26.2980 C   0  0  0  0  0  1  0  0  0  0  0  0
  -26.9040  -30.4870   24.8580 C   0  0  0  0  0  1  0  0  0  0  0  0
  -27.4730  -32.6700   25.8820 C   0  0  0  0  0  1  0  0  0  0  0  0
  -25.5150  -34.0290   24.2450 N   0  0  0  0  0  0  0  0  0  0  0  0
  -25.8460  -35.0640   23.4590 C   0  0  0  0  0  0  0  0  0  0  0  0
  -26.5070  -34.9330   22.4250 O   0  0  0  0  0  0  0  0  0  0  0  0
  -24.9310  -34.2030   25.0500 H   0  0  0  0  0  0  0  0  0  0  0  0
  -24.1150  -36.8480   23.0780 C   0  0  0  0  0  1  0  0  0  0  0  0
  -25.3660  -36.4640   23.8860 C   0  0  0  0  0  3  0  0  0  0  0  0
  -27.5160  -37.3630   24.6630 C   0  0  0  0  0  1  0  0  0  0  0  0
  -26.4010  -37.5110   23.7310 N   0  0  0  0  0  0  0  0  0  0  0  0
  -26.0000  -38.4370   23.8530 H   0  0  0  0  0  0  0  0  0  0  0  0
  -29.8590  -20.7320   19.7520 C   0  0  0  0  0  2  0  0  0  0  0  0
  -30.6420  -19.5130   20.3380 C   0  0  0  0  0  2  0  0  0  0  0  0
  -29.7510  -18.3210   20.7550 C   0  0  0  0  0  0  0  0  0  0  0  0
  -28.5260  -18.3820   20.6280 O   0  0  0  0  0  0  0  0  0  0  0  0
  -30.4030  -17.0510   21.3670 C   0  0  0  0  0  3  0  0  0  0  0  0
  -31.4180  -18.4660   23.3480 C   0  0  0  0  0  1  0  0  0  0  0  0
  -30.6520  -17.2110   22.8940 C   0  0  0  0  0  2  0  0  0  0  0  0
  -29.5340  -15.7610   21.1020 C   0  0  0  0  0  2  0  0  0  0  0  0
  -30.2180  -14.5860   20.3590 C   0  0  0  0  0  0  0  0  0  0  0  0
  -30.0020  -12.3520   19.3000 C   0  0  0  0  0  2  0  0  0  0  0  0
  -29.0320  -12.4350   18.1030 C   0  0  0  0  0  2  0  0  0  0  0  0
  -27.5760  -12.2330   18.5660 C   0  0  0  0  0  2  0  0  0  0  0  0
  -27.2080  -13.1070   19.7960 C   0  0  0  0  0  3  0  0  0  0  0  0
  -28.3000  -13.0280   20.8870 C   0  0  0  0  0  2  0  0  0  0  0  0
  -29.5960  -13.3740   20.2800 N   0  0  0  0  0  0  0  0  0  0  0  0
  -31.2820  -14.8100   19.7770 O   0  0  0  0  0  0  0  0  0  0  0  0
  -24.8150  -13.5880   20.6140 C   0  0  0  0  0  0  0  0  0  0  0  0
  -23.7970  -12.7630   21.0080 C   0  0  0  0  0  0  0  0  0  0  0  0
  -24.3100  -11.4330   20.9240 C   0  0  0  0  0  0  0  0  0  0  0  0
  -25.8880  -12.7600   20.3230 N   0  0  0  0  0  0  0  0  0  0  0  0
  -25.5870  -11.4550   20.5610 N   0  0  0  0  0  0  0  0  0  0  0  0
  -23.6450  -10.1370   21.1140 C   0  0  0  0  0  0  0  0  0  0  0  0
  -24.1510   -9.1710   22.0100 C   0  0  0  0  0  3  0  0  0  0  0  0
  -23.4840   -7.9410   22.1910 C   0  0  0  0  0  3  0  0  0  0  0  0
  -22.2930   -7.6680   21.4760 C   0  0  0  0  0  0  0  0  0  0  0  0
  -21.8040   -8.6250   20.5700 C   0  0  0  0  0  3  0  0  0  0  0  0
  -22.4730   -9.8470   20.3870 C   0  0  0  0  0  3  0  0  0  0  0  0
  -21.5930   -6.4890   21.5640 O   0  0  0  0  0  0  0  0  0  0  0  0
  -21.6170   -5.7210   22.7000 C   0  0  0  0  0  0  0  0  0  0  0  0
  -21.2150   -6.2300   23.9550 C   0  0  0  0  0  3  0  0  0  0  0  0
  -21.1900   -5.3870   25.0820 C   0  0  0  0  0  3  0  0  0  0  0  0
  -21.5590   -4.0320   24.9580 C   0  0  0  0  0  0  0  0  0  0  0  0
  -21.9540   -3.5220   23.7100 C   0  0  0  0  0  3  0  0  0  0  0  0
  -21.9800   -4.3640   22.5830 C   0  0  0  0  0  0  0  0  0  0  0  0
  -22.3440   -3.8630   21.3800 F   0  0  0  0  0  0  0  0  0  0  0  0
  -21.5270   -3.2200   26.0400 F   0  0  0  0  0  0  0  0  0  0  0  0
  -22.3940  -13.1760   21.3490 C   0  0  0  0  0  0  0  0  0  0  0  0
  -21.7380  -12.4350   22.2350 N   0  0  0  0  0  0  0  0  0  0  0  0
  -21.8900  -14.1900   20.8670 O   0  0  0  0  0  0  0  0  0  0  0  0
  -22.1630  -11.6220   22.6570 H   0  0  0  0  0  0  0  0  0  0  0  0
  -20.7970  -12.6890   22.5000 H   0  0  0  0  0  0  0  0  0  0  0  0
  -24.9110  -14.9690   20.4600 N   0  0  0  0  0  0  0  0  0  0  0  0
  -24.1160  -15.5810   20.6140 H   0  0  0  0  0  0  0  0  0  0  0  0
  -25.7250  -15.4560   20.1060 H   0  0  0  0  0  0  0  0  0  0  0  0
  1  2  2  0
  3  4  1  0
  3  1  1  0
  5  4  1  0
  5  6  1  0
  7 18  2  0
  8  6  1  0
  8 13  1  0
  9 17  1  0
  9 19  1  0
 10 16  1  0
 10 12  1  0
 11 17  1  0
 12 11  1  0
 13 12  2  0
 14 15  1  0
 14  8  2  0
 15 10  2  0
 16  9  1  0
 17  7  1  0
 19 21  2  0
 20 19  1  0
 22 20  1  0
 23 32  2  0
 23 28  1  0
 24 20  1  0
 24 28  1  0
 25 24  1  0
 26 27  1  0
 26 25  1  0
 27 23  1  0
 28 29  2  0
 29 30  1  0
 31 30  2  0
 32 31  1  0
 33  7  1  0
 33 38  1  0
 33 34  1  0
 34 37  1  1
 34 35  1  0
 36 34  1  0
 38 41  1  0
 39 43  1  0
 39 38  1  0
 40 39  2  0
 43 42  1  0
 45 46  1  0
 45 43  1  0
 45 44  1  0
 47  1  1  0
 47 48  1  0
 48 49  1  0
 49 51  1  0
 50 49  2  0
 51 54  1  0
 51 53  1  0
 53 52  1  0
 55 54  1  0
 56 61  1  0
 57 58  1  0
 57 56  1  0
 59 58  1  0
 59 66  1  0
 59 60  1  0
 61 55  1  0
 61 60  1  0
 62 55  2  0
 63 64  2  0
 64 83  1  0
 65 64  1  0
 65 68  1  0
 66 67  1  0
 66 63  1  0
 67 65  2  0
 68 69  1  0
 69 70  2  0
 71 74  1  0
 71 70  1  0
 72 71  2  0
 73 72  1  0
 73 68  2  0
 74 75  1  0
 75 76  1  0
 76 77  2  0
 78 77  1  0
 78 82  1  0
 79 78  2  0
 80 75  2  0
 80 79  1  0
 81 80  1  0
 83 84  1  0
 84 87  1  0
 84 86  1  0
 85 83  2  0
 88 89  1  0
 88 63  1  0
 90 88  1  0
M  ISO  4   5 101   6 101  54 100  55 100
M  END
>  <TORSDO>  (20) 
F 25

>  <SCORE>  (20) 
-11.220

>  <name>  (20) 
19

>  <ligand_id>  (20) 
19

>  <original_smiles>  (20) 
[H]c1c([H])c([H])c2c(c1[H])C([H])([H])C([H])([H])C([H])([H])C2([H])N([H])C(=O)C1([H])N(C(=O)C([H])(N([H])C(=O)C([H])(N([H])C([H])([H])[H])C([H])([H])[H])C(C([H])([H])[H])(C([H])([H])[H])C([H])([H])[H])C([H])([H])c2c([H])c(OC([H])([H])C([H])([H])C([H])([H])C(=O)C([H])([H])C([H])([H])C(=O)C([H])(C([H])([H])C(=O)N3C([H])([H])C([H])([H])C([H])([H])C([H])(n4nc(-c5c([H])c([H])c(Oc6c([H])c([H])c(F)c([H])c6F)c([H])c5[H])c(C(=O)N([H])[H])c4N([H])[H])C3([H])[H])C([H])([H])C([H])([H])[H])c([H])c([H])c2C1([H])[H]

>  <smiles>  (20) 
[H]c1c([H])c([H])c2c(c1[H])C([H])([H])C([H])([H])C([H])([H])C2([H])N([H])C(=O)C1([H])N(C(=O)C([H])(N([H])C(=O)C([H])(N([H])C([H])([H])[H])C([H])([H])[H])C(C([H])([H])[H])(C([H])([H])[H])C([H])([H])[H])C([H])([H])c2c([H])c(OC([H])([H])C([H])([H])C([H])([H])C(=O)C([H])([H])C([H])([H])C(=O)C([H])(C([H])([H])C(=O)N3C([H])([H])C([H])([H])C([H])([H])C([H])(n4nc(-c5c([H])c([H])c(Oc6c([H])c([H])c(F)c([H])c6F)c([H])c5[H])c(C(=O)N([H])[H])c4N([H])[H])C3([H])[H])C([H])([H])C([H])([H])[H])c([H])c([H])c2C1([H])[H]

$$$$
20:0:0
     RDKit          3D

 87 94  0  0  1  0  0  0  0  0999 V2000
  -29.0370  -23.0760   19.1710 C   0  0  0  0  0  2  0  0  0  0  0  0
  -28.4940  -21.6360   19.3750 C   0  0  0  0  0  2  0  0  0  0  0  0
  -29.3500  -20.6550   20.2280 C   0  0  0  0  0  2  0  0  0  0  0  0
  -29.2670  -19.1940   19.7070 C   0  0  0  0  0  2  0  0  0  0  0  0
  -29.9440  -18.1110   20.5840 C   0  0  0  0  0  2  0  0  0  0  0  0
  -30.0280  -16.7280   19.8680 C   0  0  0  0  0  2  0  0  0  0  0  0
  -31.0420  -14.4950   20.1350 C   0  0  0  0  0  0  0  0  0  0  0  0
  -30.6500  -12.3760   18.9300 C   0  0  0  0  0  2  0  0  0  0  0  0
  -29.6620  -12.6250   17.7720 C   0  0  0  0  0  2  0  0  0  0  0  0
  -28.2040  -12.5000   18.2580 C   0  0  0  0  0  2  0  0  0  0  0  0
  -27.9340  -13.3170   19.5510 C   0  0  0  0  0  3  0  0  0  0  0  0
  -29.0260  -13.0440   20.6100 C   0  0  0  0  0  2  0  0  0  0  0  0
  -30.3350  -13.3370   20.0000 N   0  0  0  0  0  0  0  0  0  0  0  0
  -32.1300  -14.6760   19.5750 O   0  0  0  0  0  0  0  0  0  0  0  0
  -30.3980  -15.7010   22.1470 C   0  0  0  0  0  1  0  0  0  0  0  0
  -30.3710  -15.5370   20.6910 N   0  0  0  0  0  0  0  0  0  0  0  0
  -25.5780  -13.9690   20.3630 C   0  0  0  0  0  0  0  0  0  0  0  0
  -24.5080  -13.2140   20.7640 C   0  0  0  0  0  0  0  0  0  0  0  0
  -24.9390  -11.8530   20.6970 C   0  0  0  0  0  0  0  0  0  0  0  0
  -26.5950  -13.0670   20.0780 N   0  0  0  0  0  0  0  0  0  0  0  0
  -26.2140  -11.7900   20.3360 N   0  0  0  0  0  0  0  0  0  0  0  0
  -24.1950  -10.6040   20.9000 C   0  0  0  0  0  0  0  0  0  0  0  0
  -24.6100   -9.6440   21.8490 C   0  0  0  0  0  3  0  0  0  0  0  0
  -23.8690   -8.4570   22.0390 C   0  0  0  0  0  3  0  0  0  0  0  0
  -22.6990   -8.2240   21.2800 C   0  0  0  0  0  0  0  0  0  0  0  0
  -22.3020   -9.1720   20.3210 C   0  0  0  0  0  3  0  0  0  0  0  0
  -23.0420  -10.3490   20.1300 C   0  0  0  0  0  3  0  0  0  0  0  0
  -21.9300   -7.0890   21.3780 O   0  0  0  0  0  0  0  0  0  0  0  0
  -21.8220   -6.3920   22.5540 C   0  0  0  0  0  0  0  0  0  0  0  0
  -21.3570   -6.9990   23.7410 C   0  0  0  0  0  3  0  0  0  0  0  0
  -21.1970   -6.2290   24.9110 C   0  0  0  0  0  3  0  0  0  0  0  0
  -21.4900   -4.8520   24.8930 C   0  0  0  0  0  0  0  0  0  0  0  0
  -21.9450   -4.2440   23.7100 C   0  0  0  0  0  3  0  0  0  0  0  0
  -22.1080   -5.0120   22.5440 C   0  0  0  0  0  0  0  0  0  0  0  0
  -22.5290   -4.4160   21.4020 F   0  0  0  0  0  0  0  0  0  0  0  0
  -21.3290   -4.1100   26.0140 F   0  0  0  0  0  0  0  0  0  0  0  0
  -23.1330  -13.7160   21.0970 C   0  0  0  0  0  0  0  0  0  0  0  0
  -22.4280  -13.0310   21.9910 N   0  0  0  0  0  0  0  0  0  0  0  0
  -22.6910  -14.7500   20.5970 O   0  0  0  0  0  0  0  0  0  0  0  0
  -22.7960  -12.1960   22.4220 H   0  0  0  0  0  0  0  0  0  0  0  0
  -21.5040  -13.3470   22.2510 H   0  0  0  0  0  0  0  0  0  0  0  0
  -25.7670  -15.3390   20.1970 N   0  0  0  0  0  0  0  0  0  0  0  0
  -25.0250  -16.0120   20.3560 H   0  0  0  0  0  0  0  0  0  0  0  0
  -26.6270  -15.7650   19.8770 H   0  0  0  0  0  0  0  0  0  0  0  0
  -28.2940  -24.2240   19.9070 C   0  0  0  0  0  2  0  0  0  0  0  0
  -28.6070  -25.6120   19.2840 C   0  0  0  0  0  2  0  0  0  0  0  0
  -28.3780  -26.7310   20.1500 O   0  0  0  0  0  0  0  0  0  0  0  0
  -24.5480  -31.8690   23.2390 C   0  0  0  0  0  0  0  0  0  0  0  0
  -27.1800  -27.4200   20.1310 C   0  0  0  0  0  0  0  0  0  0  0  0
  -23.3330  -30.4680   21.6010 C   0  0  0  0  0  3  0  0  0  0  0  0
  -24.7780  -28.9280   20.1650 C   0  0  0  0  0  0  0  0  0  0  0  0
  -25.8580  -30.8190   21.3980 C   0  0  0  0  0  2  0  0  0  0  0  0
  -25.9370  -29.4490   20.7530 C   0  0  0  0  0  0  0  0  0  0  0  0
  -27.1340  -28.6980   20.7380 C   0  0  0  0  0  3  0  0  0  0  0  0
  -25.9980  -26.9090   19.5480 C   0  0  0  0  0  3  0  0  0  0  0  0
  -24.8040  -27.6580   19.5640 C   0  0  0  0  0  3  0  0  0  0  0  0
  -23.5350  -29.7870   20.2200 C   0  0  0  0  0  2  0  0  0  0  0  0
  -24.5980  -31.0660   22.1370 N   0  0  0  0  0  0  0  0  0  0  0  0
  -23.4690  -32.1430   23.7830 O   0  0  0  0  0  0  0  0  0  0  0  0
  -22.6850  -29.4490   22.5640 C   0  0  0  0  0  0  0  0  0  0  0  0
  -21.3600  -29.2700   22.4420 N   0  0  0  0  0  0  0  0  0  0  0  0
  -23.3700  -28.8220   23.3770 O   0  0  0  0  0  0  0  0  0  0  0  0
  -20.8690  -29.8230   21.7530 H   0  0  0  0  0  0  0  0  0  0  0  0
  -17.9850  -28.0860   22.9530 C   0  0  0  0  0  0  0  0  0  0  0  0
  -20.5440  -28.3340   23.2160 C   0  0  0  0  0  3  0  0  0  0  0  0
  -20.6410  -26.9040   22.6360 C   0  0  0  0  0  2  0  0  0  0  0  0
  -19.5330  -26.5870   21.6260 C   0  0  0  0  0  2  0  0  0  0  0  0
  -18.1550  -26.7360   22.2760 C   0  0  0  0  0  2  0  0  0  0  0  0
  -19.1070  -28.8430   23.3790 C   0  0  0  0  0  0  0  0  0  0  0  0
  -18.8950  -30.1080   23.9700 C   0  0  0  0  0  3  0  0  0  0  0  0
  -17.5930  -30.6140   24.1420 C   0  0  0  0  0  3  0  0  0  0  0  0
  -16.4840  -29.8530   23.7310 C   0  0  0  0  0  3  0  0  0  0  0  0
  -16.6810  -28.5910   23.1430 C   0  0  0  0  0  3  0  0  0  0  0  0
  -25.8380  -32.4970   23.8510 C   0  0  0  0  0  3  0  0  0  0  0  0
  -26.3600  -31.7280   25.1270 C   0  0  1  0  0  0  0  0  0  0  0  0
  -25.2700  -31.4960   26.1990 C   0  0  0  0  0  1  0  0  0  0  0  0
  -26.9390  -30.3480   24.7360 C   0  0  0  0  0  1  0  0  0  0  0  0
  -27.5130  -32.5240   25.7810 C   0  0  0  0  0  1  0  0  0  0  0  0
  -25.5350  -33.8970   24.1760 N   0  0  0  0  0  0  0  0  0  0  0  0
  -25.8780  -34.9460   23.4170 C   0  0  0  0  0  0  0  0  0  0  0  0
  -26.5520  -34.8360   22.3890 O   0  0  0  0  0  0  0  0  0  0  0  0
  -24.9350  -34.0560   24.9730 H   0  0  0  0  0  0  0  0  0  0  0  0
  -24.1630  -36.7460   23.0440 C   0  0  0  0  0  1  0  0  0  0  0  0
  -25.3940  -36.3370   23.8670 C   0  0  0  0  0  3  0  0  0  0  0  0
  -27.5260  -37.2080   24.7170 C   0  0  0  0  0  1  0  0  0  0  0  0
  -26.4340  -37.3840   23.7630 N   0  0  0  0  0  0  0  0  0  0  0  0
  -26.0320  -38.3070   23.9090 H   0  0  0  0  0  0  0  0  0  0  0  0
  1  2  1  0
  1 45  1  0
  2  3  1  0
  4  3  1  0
  4  5  1  0
  6  5  1  0
  6 16  1  0
  7 16  1  0
  8 13  1  0
  9 10  1  0
  9  8  1  0
 11 10  1  0
 11 20  1  0
 11 12  1  0
 13  7  1  0
 13 12  1  0
 14  7  2  0
 16 15  1  0
 17 18  2  0
 18 37  1  0
 19 18  1  0
 19 22  1  0
 20 21  1  0
 20 17  1  0
 21 19  2  0
 22 23  1  0
 23 24  2  0
 25 28  1  0
 25 24  1  0
 26 25  2  0
 27 26  1  0
 27 22  2  0
 28 29  1  0
 29 30  1  0
 30 31  2  0
 32 31  1  0
 32 36  1  0
 33 32  2  0
 34 29  2  0
 34 33  1  0
 35 34  1  0
 37 38  1  0
 38 41  1  0
 38 40  1  0
 39 37  2  0
 42 43  1  0
 42 17  1  0
 44 42  1  0
 46 45  1  0
 46 47  1  0
 48 59  2  0
 49 47  1  0
 49 54  1  0
 50 58  1  0
 50 60  1  0
 51 57  1  0
 51 53  1  0
 52 58  1  0
 53 52  1  0
 54 53  2  0
 55 56  1  0
 55 49  2  0
 56 51  2  0
 57 50  1  0
 58 48  1  0
 60 62  2  0
 61 60  1  0
 63 61  1  0
 64 73  2  0
 64 69  1  0
 65 61  1  0
 65 69  1  0
 66 65  1  0
 67 68  1  0
 67 66  1  0
 68 64  1  0
 69 70  2  0
 70 71  1  0
 72 71  2  0
 73 72  1  0
 74 48  1  0
 74 79  1  0
 74 75  1  0
 75 78  1  1
 75 76  1  0
 77 75  1  0
 79 82  1  0
 80 84  1  0
 80 79  1  0
 81 80  2  0
 84 83  1  0
 86 84  1  0
 86 87  1  0
 86 85  1  0
M  ISO  4   7 100  16 100  46 101  47 101
M  END
>  <TORSDO>  (21) 
F 23

>  <SCORE>  (21) 
-12.143

>  <name>  (21) 
20

>  <ligand_id>  (21) 
20

>  <original_smiles>  (21) 
[H]c1c([H])c([H])c2c(c1[H])C([H])([H])C([H])([H])C([H])([H])C2([H])N([H])C(=O)C1([H])N(C(=O)C([H])(N([H])C(=O)C([H])(N([H])C([H])([H])[H])C([H])([H])[H])C(C([H])([H])[H])(C([H])([H])[H])C([H])([H])[H])C([H])([H])c2c([H])c(OC([H])([H])C([H])([H])C([H])([H])C([H])([H])C([H])([H])C([H])([H])C([H])([H])C([H])([H])N(C(=O)N3C([H])([H])C([H])([H])C([H])([H])C([H])(n4nc(-c5c([H])c([H])c(Oc6c([H])c([H])c(F)c([H])c6F)c([H])c5[H])c(C(=O)N([H])[H])c4N([H])[H])C3([H])[H])C([H])([H])[H])c([H])c([H])c2C1([H])[H]

>  <smiles>  (21) 
[H]c1c([H])c([H])c2c(c1[H])C([H])([H])C([H])([H])C([H])([H])C2([H])N([H])C(=O)C1([H])N(C(=O)C([H])(N([H])C(=O)C([H])(N([H])C([H])([H])[H])C([H])([H])[H])C(C([H])([H])[H])(C([H])([H])[H])C([H])([H])[H])C([H])([H])c2c([H])c(OC([H])([H])C([H])([H])C([H])([H])C([H])([H])C([H])([H])C([H])([H])C([H])([H])C([H])([H])N(C(=O)N3C([H])([H])C([H])([H])C([H])([H])C([H])(n4nc(-c5c([H])c([H])c(Oc6c([H])c([H])c(F)c([H])c6F)c([H])c5[H])c(C(=O)N([H])[H])c4N([H])[H])C3([H])[H])C([H])([H])[H])c([H])c([H])c2C1([H])[H]

$$$$
21:0:0
     RDKit          3D

 94102  0  0  1  0  0  0  0  0999 V2000
  -29.6040  -20.6880   20.1710 C   0  0  0  0  0  3  0  0  0  0  0  0
  -28.8730  -20.1280   16.4580 C   0  0  0  0  0  3  0  0  0  0  0  0
  -30.0900  -20.4640   15.8420 C   0  0  0  0  0  3  0  0  0  0  0  0
  -28.7520  -20.2170   17.8560 C   0  0  0  0  0  3  0  0  0  0  0  0
  -31.1750  -20.8950   16.6270 C   0  0  0  0  0  3  0  0  0  0  0  0
  -29.8350  -20.6410   18.6590 C   0  0  0  0  0  0  0  0  0  0  0  0
  -31.0640  -21.0010   18.0340 C   0  0  0  0  0  0  0  0  0  0  0  0
  -33.1410  -20.3460   19.3510 C   0  0  0  0  0  1  0  0  0  0  0  0
  -32.2800  -21.4950   18.8160 C   0  0  0  0  0  3  0  0  0  0  0  0
  -33.0550  -22.2650   18.0480 F   0  0  0  0  0  0  0  0  0  0  0  0
  -28.6170  -21.9880   20.5040 C   0  0  0  0  0  2  0  0  0  0  0  0
  -29.0150  -23.5660   20.3180 C   0  0  0  0  0  0  0  0  0  0  0  0
  -30.2080  -23.8790   20.3440 O   0  0  0  0  0  0  0  0  0  0  0  0
  -27.9040  -24.7460   20.1300 C   0  0  0  0  0  2  0  0  0  0  0  0
  -28.2510  -26.2420   20.2280 O   0  0  0  0  0  0  0  0  0  0  0  0
  -24.6170  -31.8620   23.2290 C   0  0  0  0  0  0  0  0  0  0  0  0
  -27.1880  -27.1990   20.1710 C   0  0  0  0  0  0  0  0  0  0  0  0
  -23.4080  -30.4710   21.5940 C   0  0  0  0  0  3  0  0  0  0  0  0
  -24.8500  -28.9090   20.1600 C   0  0  0  0  0  0  0  0  0  0  0  0
  -25.9580  -30.7510   21.4130 C   0  0  0  0  0  2  0  0  0  0  0  0
  -26.0300  -29.3640   20.7590 C   0  0  0  0  0  0  0  0  0  0  0  0
  -27.2020  -28.5250   20.7500 C   0  0  0  0  0  3  0  0  0  0  0  0
  -25.9780  -26.8350   19.5360 C   0  0  0  0  0  3  0  0  0  0  0  0
  -24.8340  -27.6550   19.5330 C   0  0  0  0  0  3  0  0  0  0  0  0
  -23.6210  -29.7990   20.2120 C   0  0  0  0  0  2  0  0  0  0  0  0
  -24.6810  -31.0480   22.1330 N   0  0  0  0  0  0  0  0  0  0  0  0
  -23.5340  -32.1450   23.7640 O   0  0  0  0  0  0  0  0  0  0  0  0
  -22.7380  -29.4580   22.5550 C   0  0  0  0  0  0  0  0  0  0  0  0
  -21.4100  -29.2830   22.4300 N   0  0  0  0  0  0  0  0  0  0  0  0
  -23.4140  -28.8330   23.3770 O   0  0  0  0  0  0  0  0  0  0  0  0
  -20.9220  -29.8380   21.7420 H   0  0  0  0  0  0  0  0  0  0  0  0
  -18.0340  -28.0700   22.9300 C   0  0  0  0  0  0  0  0  0  0  0  0
  -20.5910  -28.3450   23.2030 C   0  0  0  0  0  3  0  0  0  0  0  0
  -20.7020  -26.9110   22.6370 C   0  0  0  0  0  2  0  0  0  0  0  0
  -19.6040  -26.5770   21.6210 C   0  0  0  0  0  2  0  0  0  0  0  0
  -18.2200  -26.7190   22.2600 C   0  0  0  0  0  2  0  0  0  0  0  0
  -19.1490  -28.8410   23.3580 C   0  0  0  0  0  0  0  0  0  0  0  0
  -18.9200  -30.1040   23.9450 C   0  0  0  0  0  3  0  0  0  0  0  0
  -17.6120  -30.5990   24.1070 C   0  0  0  0  0  3  0  0  0  0  0  0
  -16.5130  -29.8250   23.6930 C   0  0  0  0  0  3  0  0  0  0  0  0
  -16.7260  -28.5630   23.1100 C   0  0  0  0  0  3  0  0  0  0  0  0
  -25.9000  -32.4950   23.8500 C   0  0  0  0  0  3  0  0  0  0  0  0
  -25.5900  -33.8940   24.1840 N   0  0  0  0  0  0  0  0  0  0  0  0
  -25.9150  -34.9500   23.4280 C   0  0  0  0  0  0  0  0  0  0  0  0
  -26.5740  -34.8500   22.3890 O   0  0  0  0  0  0  0  0  0  0  0  0
  -25.0030  -34.0460   24.9920 H   0  0  0  0  0  0  0  0  0  0  0  0
  -24.1820  -36.7470   23.1000 C   0  0  0  0  0  1  0  0  0  0  0  0
  -25.4330  -36.3390   23.8950 C   0  0  0  0  0  3  0  0  0  0  0  0
  -27.5780  -37.2220   24.7020 C   0  0  0  0  0  1  0  0  0  0  0  0
  -26.4650  -37.3920   23.7720 N   0  0  0  0  0  0  0  0  0  0  0  0
  -26.0600  -38.3110   23.9270 H   0  0  0  0  0  0  0  0  0  0  0  0
  -26.4160  -31.7240   25.1270 C   0  0  1  0  0  0  0  0  0  0  0  0
  -25.3240  -31.4910   26.1980 C   0  0  0  0  0  1  0  0  0  0  0  0
  -26.9940  -30.3440   24.7380 C   0  0  0  0  0  1  0  0  0  0  0  0
  -27.5700  -32.5150   25.7850 C   0  0  0  0  0  1  0  0  0  0  0  0
  -29.2650  -19.1410   20.6980 C   0  0  0  0  0  2  0  0  0  0  0  0
  -30.1310  -17.7730   20.3010 C   0  0  0  0  0  3  0  0  0  0  0  0
  -29.7310  -16.2390   20.7970 C   0  0  0  0  0  3  0  0  0  0  0  0
  -30.5430  -14.8710   20.3970 C   0  0  0  0  0  0  0  0  0  0  0  0
  -30.4030  -12.5620   19.3840 C   0  0  0  0  0  2  0  0  0  0  0  0
  -29.4750  -12.6100   18.1480 C   0  0  0  0  0  2  0  0  0  0  0  0
  -28.0020  -12.4190   18.5610 C   0  0  0  0  0  2  0  0  0  0  0  0
  -27.6090  -13.3070   19.7690 C   0  0  0  0  0  3  0  0  0  0  0  0
  -28.6560  -13.2400   20.9010 C   0  0  0  0  0  2  0  0  0  0  0  0
  -29.9550  -13.6160   20.3310 N   0  0  0  0  0  0  0  0  0  0  0  0
  -31.7200  -14.9700   20.0370 O   0  0  0  0  0  0  0  0  0  0  0  0
  -25.2140  -13.8950   20.4690 C   0  0  0  0  0  0  0  0  0  0  0  0
  -24.1450  -13.1220   20.8310 C   0  0  0  0  0  0  0  0  0  0  0  0
  -24.6110  -11.7720   20.8190 C   0  0  0  0  0  0  0  0  0  0  0  0
  -26.2610  -13.0160   20.2500 N   0  0  0  0  0  0  0  0  0  0  0  0
  -25.9060  -11.7340   20.5260 N   0  0  0  0  0  0  0  0  0  0  0  0
  -23.8850  -10.5100   21.0110 C   0  0  0  0  0  0  0  0  0  0  0  0
  -24.3060   -9.5510   21.9580 C   0  0  0  0  0  3  0  0  0  0  0  0
  -23.5770   -8.3540   22.1390 C   0  0  0  0  0  3  0  0  0  0  0  0
  -22.4140   -8.1090   21.3710 C   0  0  0  0  0  0  0  0  0  0  0  0
  -22.0130   -9.0570   20.4130 C   0  0  0  0  0  3  0  0  0  0  0  0
  -22.7410  -10.2440   20.2310 C   0  0  0  0  0  3  0  0  0  0  0  0
  -21.6590   -6.9640   21.4580 O   0  0  0  0  0  0  0  0  0  0  0  0
  -21.5950   -6.2320   22.6170 C   0  0  0  0  0  0  0  0  0  0  0  0
  -21.1540   -6.7970   23.8330 C   0  0  0  0  0  3  0  0  0  0  0  0
  -21.0370   -5.9910   24.9830 C   0  0  0  0  0  3  0  0  0  0  0  0
  -21.3510   -4.6210   24.9180 C   0  0  0  0  0  0  0  0  0  0  0  0
  -21.7860   -4.0550   23.7070 C   0  0  0  0  0  3  0  0  0  0  0  0
  -21.9050   -4.8580   22.5580 C   0  0  0  0  0  0  0  0  0  0  0  0
  -22.3040   -4.3030   21.3890 F   0  0  0  0  0  0  0  0  0  0  0  0
  -21.2330   -3.8440   26.0200 F   0  0  0  0  0  0  0  0  0  0  0  0
  -22.7430  -13.5990   21.0800 C   0  0  0  0  0  0  0  0  0  0  0  0
  -22.0060  -12.9090   21.9430 N   0  0  0  0  0  0  0  0  0  0  0  0
  -22.3120  -14.6200   20.5450 O   0  0  0  0  0  0  0  0  0  0  0  0
  -22.3690  -12.0830   22.3970 H   0  0  0  0  0  0  0  0  0  0  0  0
  -21.0650  -13.2110   22.1530 H   0  0  0  0  0  0  0  0  0  0  0  0
  -25.3770  -15.2650   20.2830 N   0  0  0  0  0  0  0  0  0  0  0  0
  -24.6090  -15.9190   20.3830 H   0  0  0  0  0  0  0  0  0  0  0  0
  -26.2330  -15.7050   19.9700 H   0  0  0  0  0  0  0  0  0  0  0  0
  1 11  1  0
  1 56  1  0
  2  4  1  0
  3  2  2  0
  3  5  1  0
  4  6  2  0
  5  7  2  0
  6  1  1  0
  7  6  1  0
  7  9  1  0
  9  8  1  0
 10  9  1  0
 12 13  2  0
 12 11  1  0
 14 15  1  0
 14 12  1  0
 16 27  2  0
 17 15  1  0
 17 22  1  0
 18 26  1  0
 18 28  1  0
 19 25  1  0
 19 21  1  0
 20 26  1  0
 21 20  1  0
 22 21  2  0
 23 17  2  0
 24 23  1  0
 24 19  2  0
 25 18  1  0
 26 16  1  0
 28 30  2  0
 29 28  1  0
 31 29  1  0
 32 41  2  0
 32 37  1  0
 33 29  1  0
 33 37  1  0
 34 33  1  0
 35 36  1  0
 35 34  1  0
 36 32  1  0
 37 38  2  0
 38 39  1  0
 40 39  2  0
 41 40  1  0
 42 16  1  0
 42 43  1  0
 42 52  1  0
 43 46  1  0
 44 48  1  0
 44 43  1  0
 45 44  2  0
 48 47  1  0
 50 48  1  0
 50 51  1  0
 50 49  1  0
 52 55  1  1
 52 53  1  0
 54 52  1  0
 57 56  1  0
 57 58  2  0
 59 58  1  0
 60 65  1  0
 61 62  1  0
 61 60  1  0
 63 62  1  0
 63 70  1  0
 63 64  1  0
 65 59  1  0
 65 64  1  0
 66 59  2  0
 67 68  2  0
 68 87  1  0
 69 68  1  0
 69 72  1  0
 70 67  1  0
 70 71  1  0
 71 69  2  0
 72 73  1  0
 73 74  2  0
 75 78  1  0
 75 74  1  0
 76 75  2  0
 77 76  1  0
 77 72  2  0
 78 79  1  0
 79 80  1  0
 80 81  2  0
 82 81  1  0
 82 86  1  0
 83 82  2  0
 84 79  2  0
 84 83  1  0
 85 84  1  0
 87 88  1  0
 88 91  1  0
 88 90  1  0
 89 87  2  0
 92 93  1  0
 92 67  1  0
 94 92  1  0
M  ISO  4  14 101  15 101  58 100  59 100
M  END
>  <TORSDO>  (22) 
F 24

>  <SCORE>  (22) 
-12.545

>  <name>  (22) 
21

>  <ligand_id>  (22) 
21

>  <original_smiles>  (22) 
[H]c1c([H])c([H])c2c(c1[H])C([H])([H])C([H])([H])C([H])([H])C2([H])N([H])C(=O)C1([H])N(C(=O)C([H])(N([H])C(=O)C([H])(N([H])C([H])([H])[H])C([H])([H])[H])C(C([H])([H])[H])(C([H])([H])[H])C([H])([H])[H])C([H])([H])c2c([H])c(OC([H])([H])C(=O)C([H])([H])C([H])(c3c([H])c([H])c([H])c([H])c3C([H])(F)C([H])([H])[H])C([H])([H])C([H])([H])C([H])([H])C(=O)N3C([H])([H])C([H])([H])C([H])([H])C([H])(n4nc(-c5c([H])c([H])c(Oc6c([H])c([H])c(F)c([H])c6F)c([H])c5[H])c(C(=O)N([H])[H])c4N([H])[H])C3([H])[H])c([H])c([H])c2C1([H])[H]

>  <smiles>  (22) 
[H]c1c([H])c([H])c2c(c1[H])C([H])([H])C([H])([H])C([H])([H])C2([H])N([H])C(=O)C1([H])N(C(=O)C([H])(N([H])C(=O)C([H])(N([H])C([H])([H])[H])C([H])([H])[H])C(C([H])([H])[H])(C([H])([H])[H])C([H])([H])[H])C([H])([H])c2c([H])c(OC([H])([H])C(=O)C([H])([H])C([H])(c3c([H])c([H])c([H])c([H])c3C([H])(F)C([H])([H])[H])C([H])([H])C([H])([H])C([H])([H])C(=O)N3C([H])([H])C([H])([H])C([H])([H])C([H])(n4nc(-c5c([H])c([H])c(Oc6c([H])c([H])c(F)c([H])c6F)c([H])c5[H])c(C(=O)N([H])[H])c4N([H])[H])C3([H])[H])c([H])c([H])c2C1([H])[H]

$$$$
22:0:0
     RDKit          3D

 87 95  0  0  1  0  0  0  0  0999 V2000
  -28.7250  -22.8240   20.6140 C   0  0  0  0  0  0  0  0  0  0  0  0
  -29.0610  -23.0020   21.7890 O   0  0  0  0  0  0  0  0  0  0  0  0
  -29.3230  -19.8140   17.9980 C   0  0  0  0  0  3  0  0  0  0  0  0
  -29.0440  -21.0590   18.6330 C   0  0  0  0  0  3  0  0  0  0  0  0
  -29.5480  -18.5810   18.6740 C   0  0  0  0  0  3  0  0  0  0  0  0
  -29.2320  -19.8440   20.7040 C   0  0  0  0  0  3  0  0  0  0  0  0
  -28.9720  -21.2170   20.0360 C   0  0  0  0  0  0  0  0  0  0  0  0
  -29.5210  -18.4580   20.0780 C   0  0  0  0  0  0  0  0  0  0  0  0
  -29.6620  -16.8390   20.7420 C   0  0  0  0  0  2  0  0  0  0  0  0
  -30.4050  -15.3080   20.2710 C   0  0  0  0  0  0  0  0  0  0  0  0
  -30.3930  -12.8550   19.3850 C   0  0  0  0  0  2  0  0  0  0  0  0
  -29.4740  -12.6820   18.1480 C   0  0  0  0  0  2  0  0  0  0  0  0
  -28.0220  -12.4120   18.5790 C   0  0  0  0  0  2  0  0  0  0  0  0
  -27.5770  -13.3600   19.7190 C   0  0  0  0  0  3  0  0  0  0  0  0
  -28.6230  -13.4840   20.8480 C   0  0  0  0  0  2  0  0  0  0  0  0
  -29.8680  -13.9850   20.2400 N   0  0  0  0  0  0  0  0  0  0  0  0
  -31.5940  -15.3150   19.9130 O   0  0  0  0  0  0  0  0  0  0  0  0
  -25.2020  -13.9190   20.4590 C   0  0  0  0  0  0  0  0  0  0  0  0
  -24.1390  -13.1440   20.8310 C   0  0  0  0  0  0  0  0  0  0  0  0
  -24.6080  -11.7930   20.8100 C   0  0  0  0  0  0  0  0  0  0  0  0
  -26.2460  -13.0440   20.2230 N   0  0  0  0  0  0  0  0  0  0  0  0
  -25.9010  -11.7600   20.5020 N   0  0  0  0  0  0  0  0  0  0  0  0
  -23.8810  -10.5320   21.0070 C   0  0  0  0  0  0  0  0  0  0  0  0
  -24.3140   -9.5660   21.9440 C   0  0  0  0  0  3  0  0  0  0  0  0
  -23.5840   -8.3720   22.1310 C   0  0  0  0  0  3  0  0  0  0  0  0
  -22.4080   -8.1340   21.3800 C   0  0  0  0  0  0  0  0  0  0  0  0
  -21.9940   -9.0890   20.4340 C   0  0  0  0  0  3  0  0  0  0  0  0
  -22.7240  -10.2740   20.2460 C   0  0  0  0  0  3  0  0  0  0  0  0
  -21.6500   -6.9920   21.4760 O   0  0  0  0  0  0  0  0  0  0  0  0
  -21.6100   -6.2480   22.6290 C   0  0  0  0  0  0  0  0  0  0  0  0
  -21.2040   -6.8040   23.8610 C   0  0  0  0  0  3  0  0  0  0  0  0
  -21.1110   -5.9880   25.0050 C   0  0  0  0  0  3  0  0  0  0  0  0
  -21.4150   -4.6160   24.9190 C   0  0  0  0  0  0  0  0  0  0  0  0
  -21.8140   -4.0590   23.6920 C   0  0  0  0  0  3  0  0  0  0  0  0
  -21.9080   -4.8720   22.5490 C   0  0  0  0  0  0  0  0  0  0  0  0
  -22.2730   -4.3260   21.3650 F   0  0  0  0  0  0  0  0  0  0  0  0
  -21.3190   -3.8300   26.0170 F   0  0  0  0  0  0  0  0  0  0  0  0
  -22.7410  -13.6200   21.0910 C   0  0  0  0  0  0  0  0  0  0  0  0
  -22.0100  -12.9330   21.9610 N   0  0  0  0  0  0  0  0  0  0  0  0
  -22.3050  -14.6400   20.5590 O   0  0  0  0  0  0  0  0  0  0  0  0
  -22.3760  -12.1070   22.4130 H   0  0  0  0  0  0  0  0  0  0  0  0
  -21.0710  -13.2370   22.1780 H   0  0  0  0  0  0  0  0  0  0  0  0
  -25.3640  -15.2900   20.2750 N   0  0  0  0  0  0  0  0  0  0  0  0
  -24.5970  -15.9450   20.3830 H   0  0  0  0  0  0  0  0  0  0  0  0
  -26.2160  -15.7300   19.9500 H   0  0  0  0  0  0  0  0  0  0  0  0
  -28.0460  -24.2700   19.8820 C   0  0  0  0  0  2  0  0  0  0  0  0
  -28.1790  -25.8560   20.3370 O   0  0  0  0  0  0  0  0  0  0  0  0
  -24.6330  -31.8600   23.2130 C   0  0  0  0  0  0  0  0  0  0  0  0
  -27.1770  -26.9580   20.2210 C   0  0  0  0  0  0  0  0  0  0  0  0
  -23.4330  -30.4540   21.5870 C   0  0  0  0  0  3  0  0  0  0  0  0
  -24.8770  -28.8400   20.1670 C   0  0  0  0  0  0  0  0  0  0  0  0
  -25.9990  -30.6610   21.4350 C   0  0  0  0  0  2  0  0  0  0  0  0
  -26.0640  -29.2460   20.7870 C   0  0  0  0  0  0  0  0  0  0  0  0
  -27.2050  -28.3250   20.7930 C   0  0  0  0  0  3  0  0  0  0  0  0
  -25.9640  -26.7080   19.5400 C   0  0  0  0  0  3  0  0  0  0  0  0
  -24.8520  -27.5920   19.5230 C   0  0  0  0  0  3  0  0  0  0  0  0
  -23.6580  -29.7610   20.2150 C   0  0  0  0  0  2  0  0  0  0  0  0
  -24.7100  -31.0200   22.1310 N   0  0  0  0  0  0  0  0  0  0  0  0
  -23.5450  -32.1550   23.7350 O   0  0  0  0  0  0  0  0  0  0  0  0
  -22.7410  -29.4660   22.5610 C   0  0  0  0  0  0  0  0  0  0  0  0
  -21.4100  -29.3040   22.4430 N   0  0  0  0  0  0  0  0  0  0  0  0
  -23.4070  -28.8460   23.3940 O   0  0  0  0  0  0  0  0  0  0  0  0
  -20.9250  -29.8550   21.7480 H   0  0  0  0  0  0  0  0  0  0  0  0
  -18.0270  -28.0980   22.9660 C   0  0  0  0  0  0  0  0  0  0  0  0
  -20.5880  -28.3730   23.2240 C   0  0  0  0  0  3  0  0  0  0  0  0
  -20.6920  -26.9360   22.6640 C   0  0  0  0  0  2  0  0  0  0  0  0
  -19.5890  -26.6010   21.6530 C   0  0  0  0  0  2  0  0  0  0  0  0
  -18.2080  -26.7450   22.2980 C   0  0  0  0  0  2  0  0  0  0  0  0
  -19.1440  -28.8690   23.3860 C   0  0  0  0  0  0  0  0  0  0  0  0
  -18.9190  -30.1320   23.9750 C   0  0  0  0  0  3  0  0  0  0  0  0
  -17.6110  -30.6260   24.1430 C   0  0  0  0  0  3  0  0  0  0  0  0
  -16.5110  -29.8540   23.7360 C   0  0  0  0  0  3  0  0  0  0  0  0
  -16.7190  -28.5900   23.1550 C   0  0  0  0  0  3  0  0  0  0  0  0
  -25.9060  -32.5060   23.8390 C   0  0  0  0  0  3  0  0  0  0  0  0
  -26.4140  -31.7500   25.1290 C   0  0  1  0  0  0  0  0  0  0  0  0
  -25.3150  -31.5320   26.1960 C   0  0  0  0  0  1  0  0  0  0  0  0
  -26.9930  -30.3640   24.7660 C   0  0  0  0  0  1  0  0  0  0  0  0
  -27.5660  -32.5490   25.7840 C   0  0  0  0  0  1  0  0  0  0  0  0
  -25.5900  -33.9080   24.1670 N   0  0  0  0  0  0  0  0  0  0  0  0
  -25.9200  -34.9660   23.4130 C   0  0  0  0  0  0  0  0  0  0  0  0
  -26.5850  -34.8650   22.3790 O   0  0  0  0  0  0  0  0  0  0  0  0
  -25.0000  -34.0600   24.9710 H   0  0  0  0  0  0  0  0  0  0  0  0
  -24.1890  -36.7660   23.0850 C   0  0  0  0  0  1  0  0  0  0  0  0
  -25.4410  -36.3560   23.8790 C   0  0  0  0  0  3  0  0  0  0  0  0
  -27.5850  -37.2430   24.6840 C   0  0  0  0  0  1  0  0  0  0  0  0
  -26.4720  -37.4100   23.7530 N   0  0  0  0  0  0  0  0  0  0  0  0
  -26.0680  -38.3310   23.9050 H   0  0  0  0  0  0  0  0  0  0  0  0
  1  2  2  0
  3  4  2  0
  3  5  1  0
  4  7  1  0
  5  8  2  0
  7  1  1  0
  7  6  2  0
  8  6  1  0
  8  9  1  0
 10  9  1  0
 11 16  1  0
 12 13  1  0
 12 11  1  0
 14 13  1  0
 14 21  1  0
 14 15  1  0
 16 10  1  0
 16 15  1  0
 17 10  2  0
 18 19  2  0
 19 38  1  0
 20 19  1  0
 20 23  1  0
 21 18  1  0
 21 22  1  0
 22 20  2  0
 23 24  1  0
 24 25  2  0
 26 29  1  0
 26 25  1  0
 27 26  2  0
 28 27  1  0
 28 23  2  0
 29 30  1  0
 30 31  1  0
 31 32  2  0
 33 32  1  0
 33 37  1  0
 34 33  2  0
 35 30  2  0
 35 34  1  0
 36 35  1  0
 38 39  1  0
 39 42  1  0
 39 41  1  0
 40 38  2  0
 43 44  1  0
 43 18  1  0
 45 43  1  0
 46 47  1  0
 46  1  1  0
 48 59  2  0
 49 47  1  0
 49 54  1  0
 50 58  1  0
 50 60  1  0
 51 57  1  0
 51 53  1  0
 52 58  1  0
 53 54  2  0
 53 52  1  0
 55 49  2  0
 56 55  1  0
 56 51  2  0
 57 50  1  0
 58 48  1  0
 60 62  2  0
 61 60  1  0
 63 61  1  0
 64 73  2  0
 64 69  1  0
 65 61  1  0
 65 69  1  0
 66 65  1  0
 67 68  1  0
 67 66  1  0
 68 64  1  0
 69 70  2  0
 70 71  1  0
 72 71  2  0
 73 72  1  0
 74 48  1  0
 74 79  1  0
 74 75  1  0
 75 78  1  1
 75 76  1  0
 77 75  1  0
 79 82  1  0
 80 84  1  0
 80 79  1  0
 81 80  2  0
 84 83  1  0
 86 84  1  0
 86 87  1  0
 86 85  1  0
M  ISO  4   9 100  10 100  46 101  47 101
M  END
>  <TORSDO>  (23) 
F 19

>  <SCORE>  (23) 
-16.704

>  <name>  (23) 
22

>  <ligand_id>  (23) 
22

>  <original_smiles>  (23) 
[H]c1c([H])c(C(=O)C([H])([H])Oc2c([H])c([H])c3c(c2[H])C([H])([H])N(C(=O)C([H])(N([H])C(=O)C([H])(N([H])C([H])([H])[H])C([H])([H])[H])C(C([H])([H])[H])(C([H])([H])[H])C([H])([H])[H])C([H])(C(=O)N([H])C2([H])c4c([H])c([H])c([H])c([H])c4C([H])([H])C([H])([H])C2([H])[H])C3([H])[H])c([H])c(C([H])([H])C(=O)N2C([H])([H])C([H])([H])C([H])([H])C([H])(n3nc(-c4c([H])c([H])c(Oc5c([H])c([H])c(F)c([H])c5F)c([H])c4[H])c(C(=O)N([H])[H])c3N([H])[H])C2([H])[H])c1[H]

>  <smiles>  (23) 
[H]c1c([H])c(C(=O)C([H])([H])Oc2c([H])c([H])c3c(c2[H])C([H])([H])N(C(=O)C([H])(N([H])C(=O)C([H])(N([H])C([H])([H])[H])C([H])([H])[H])C(C([H])([H])[H])(C([H])([H])[H])C([H])([H])[H])C([H])(C(=O)N([H])C2([H])c4c([H])c([H])c([H])c([H])c4C([H])([H])C([H])([H])C2([H])[H])C3([H])[H])c([H])c(C([H])([H])C(=O)N2C([H])([H])C([H])([H])C([H])([H])C([H])(n3nc(-c4c([H])c([H])c(Oc5c([H])c([H])c(F)c([H])c5F)c([H])c4[H])c(C(=O)N([H])[H])c3N([H])[H])C2([H])[H])c1[H]

$$$$
23:0:0
     RDKit          3D

 94103  0  0  1  0  0  0  0  0999 V2000
  -29.6370  -25.1780   13.9700 C   0  0  0  0  0  3  0  0  0  0  0  0
  -29.7670  -23.7750   13.9480 C   0  0  0  0  0  3  0  0  0  0  0  0
  -30.6740  -25.3280   11.7510 C   0  0  0  0  0  3  0  0  0  0  0  0
  -30.1040  -25.9780   12.8930 C   0  0  0  0  0  0  0  0  0  0  0  0
  -30.3860  -23.1730   12.8420 C   0  0  0  0  0  0  0  0  0  0  0  0
  -30.8340  -23.9150   11.7510 C   0  0  0  0  0  0  0  0  0  0  0  0
  -30.7220  -21.7170   12.7100 C   0  0  0  0  0  2  0  0  0  0  0  0
  -31.7470  -21.6970   11.5600 C   0  0  0  0  0  2  0  0  0  0  0  0
  -31.5740  -23.0140   10.7480 C   0  0  0  0  0  3  0  0  0  0  0  0
  -30.8180  -22.7720    9.4910 N   0  0  0  0  0  4  0  0  0  0  0  0
  -31.2810  -23.3380    8.7970 H   0  0  0  0  0  0  0  0  0  0  0  0
  -29.8850  -23.1370    9.5750 H   0  0  0  0  0  0  0  0  0  0  0  0
  -30.8070  -21.3810    8.9270 C   0  0  0  0  0  2  0  0  0  0  0  0
  -29.4560  -20.5830    8.9920 C   0  0  0  0  0  2  0  0  0  0  0  0
  -28.8850  -20.1490    7.6090 C   0  0  0  0  0  0  0  0  0  0  0  0
  -28.2460  -18.2220    6.2010 C   0  0  0  0  0  2  0  0  0  0  0  0
  -27.4430  -17.2240    7.0590 C   0  0  0  0  0  2  0  0  0  0  0  0
  -28.3850  -16.2540    7.7970 C   0  0  0  0  0  2  0  0  0  0  0  0
  -29.5400  -16.9850    8.5300 C   0  0  0  0  0  3  0  0  0  0  0  0
  -30.2210  -18.0200    7.6070 C   0  0  0  0  0  2  0  0  0  0  0  0
  -29.1850  -18.9250    7.0920 N   0  0  0  0  0  0  0  0  0  0  0  0
  -28.0510  -20.8850    7.0720 O   0  0  0  0  0  0  0  0  0  0  0  0
  -30.8000  -15.7730   10.4150 C   0  0  0  0  0  0  0  0  0  0  0  0
  -31.7190  -14.7570   10.3960 C   0  0  0  0  0  0  0  0  0  0  0  0
  -31.9460  -14.4560    9.0180 C   0  0  0  0  0  0  0  0  0  0  0  0
  -30.5080  -16.0430    9.0880 N   0  0  0  0  0  0  0  0  0  0  0  0
  -31.2510  -15.2820    8.2460 N   0  0  0  0  0  0  0  0  0  0  0  0
  -32.7390  -13.3940    8.3900 C   0  0  0  0  0  0  0  0  0  0  0  0
  -34.1460  -13.4750    8.3040 C   0  0  0  0  0  3  0  0  0  0  0  0
  -34.8890  -12.4340    7.7080 C   0  0  0  0  0  3  0  0  0  0  0  0
  -34.2260  -11.2940    7.1960 C   0  0  0  0  0  0  0  0  0  0  0  0
  -32.8230  -11.2270    7.2630 C   0  0  0  0  0  3  0  0  0  0  0  0
  -32.0840  -12.2670    7.8520 C   0  0  0  0  0  3  0  0  0  0  0  0
  -34.8620  -10.2430    6.5820 O   0  0  0  0  0  0  0  0  0  0  0  0
  -34.6610   -8.9460    6.9820 C   0  0  0  0  0  0  0  0  0  0  0  0
  -33.9980   -8.0080    6.1620 C   0  0  0  0  0  3  0  0  0  0  0  0
  -33.8740   -6.6680    6.5830 C   0  0  0  0  0  3  0  0  0  0  0  0
  -34.4200   -6.2640    7.8170 C   0  0  0  0  0  0  0  0  0  0  0  0
  -35.0850   -7.1950    8.6320 C   0  0  0  0  0  3  0  0  0  0  0  0
  -35.2080   -8.5330    8.2130 C   0  0  0  0  0  0  0  0  0  0  0  0
  -35.8690   -9.4220    8.9940 F   0  0  0  0  0  0  0  0  0  0  0  0
  -34.3080   -4.9760    8.2180 F   0  0  0  0  0  0  0  0  0  0  0  0
  -32.2830  -14.0380   11.5870 C   0  0  0  0  0  0  0  0  0  0  0  0
  -32.9690  -14.7570   12.4700 N   0  0  0  0  0  0  0  0  0  0  0  0
  -32.0770  -12.8390   11.7670 O   0  0  0  0  0  0  0  0  0  0  0  0
  -33.1200  -15.7470   12.3360 H   0  0  0  0  0  0  0  0  0  0  0  0
  -33.3480  -14.3110   13.2940 H   0  0  0  0  0  0  0  0  0  0  0  0
  -30.1750  -16.4710   11.4430 N   0  0  0  0  0  0  0  0  0  0  0  0
  -30.3360  -16.2600   12.4220 H   0  0  0  0  0  0  0  0  0  0  0  0
  -29.4460  -17.1560   11.2990 H   0  0  0  0  0  0  0  0  0  0  0  0
  -29.9580  -27.4820   12.9480 C   0  0  0  0  0  0  0  0  0  0  0  0
  -28.9480  -28.0610   12.5340 O   0  0  0  0  0  0  0  0  0  0  0  0
  -31.1660  -28.3250   13.4470 C   0  0  0  0  0  2  0  0  0  0  0  0
  -31.6480  -27.9450   14.7600 O   0  0  0  0  0  0  0  0  0  0  0  0
  -36.5580  -29.1840   19.7860 C   0  0  0  0  0  0  0  0  0  0  0  0
  -32.8230  -28.5800   15.1040 C   0  0  0  0  0  0  0  0  0  0  0  0
  -36.5590  -30.7230   17.8510 C   0  0  0  0  0  3  0  0  0  0  0  0
  -35.1550  -29.9930   15.8500 C   0  0  0  0  0  0  0  0  0  0  0  0
  -35.7620  -28.3050   17.5920 C   0  0  0  0  0  2  0  0  0  0  0  0
  -34.8370  -28.7860   16.4880 C   0  0  0  0  0  0  0  0  0  0  0  0
  -33.6780  -28.0660   16.1090 C   0  0  0  0  0  3  0  0  0  0  0  0
  -33.1700  -29.7860   14.4600 C   0  0  0  0  0  3  0  0  0  0  0  0
  -34.3270  -30.4950   14.8320 C   0  0  0  0  0  3  0  0  0  0  0  0
  -36.4070  -30.7070   16.3070 C   0  0  0  0  0  2  0  0  0  0  0  0
  -36.2760  -29.3860   18.4670 N   0  0  0  0  0  0  0  0  0  0  0  0
  -37.0830  -30.0710   20.4730 O   0  0  0  0  0  0  0  0  0  0  0  0
  -35.6860  -31.8620   18.4270 C   0  0  0  0  0  0  0  0  0  0  0  0
  -36.3370  -32.9590   18.8440 N   0  0  0  0  0  0  0  0  0  0  0  0
  -34.4590  -31.7560   18.4690 O   0  0  0  0  0  0  0  0  0  0  0  0
  -37.3460  -32.9590   18.7910 H   0  0  0  0  0  0  0  0  0  0  0  0
  -37.0430  -36.1580   20.3740 C   0  0  0  0  0  0  0  0  0  0  0  0
  -35.7190  -34.1730   19.3810 C   0  0  0  0  0  3  0  0  0  0  0  0
  -35.3150  -35.1430   18.2450 C   0  0  0  0  0  2  0  0  0  0  0  0
  -36.4010  -36.1750   17.9290 C   0  0  0  0  0  2  0  0  0  0  0  0
  -36.7140  -37.0210   19.1660 C   0  0  0  0  0  2  0  0  0  0  0  0
  -36.5890  -34.8150   20.4670 C   0  0  0  0  0  0  0  0  0  0  0  0
  -36.9490  -34.0480   21.5970 C   0  0  0  0  0  3  0  0  0  0  0  0
  -37.7420  -34.6000   22.6220 C   0  0  0  0  0  3  0  0  0  0  0  0
  -38.1780  -35.9340   22.5300 C   0  0  0  0  0  3  0  0  0  0  0  0
  -37.8270  -36.7100   21.4100 C   0  0  0  0  0  3  0  0  0  0  0  0
  -36.2580  -27.8230   20.4880 C   0  0  0  0  0  3  0  0  0  0  0  0
  -37.1820  -27.6950   21.6220 N   0  0  0  0  0  0  0  0  0  0  0  0
  -38.0450  -26.6840   21.7910 C   0  0  0  0  0  0  0  0  0  0  0  0
  -38.0960  -25.7130   21.0300 O   0  0  0  0  0  0  0  0  0  0  0  0
  -37.2310  -28.4810   22.2550 H   0  0  0  0  0  0  0  0  0  0  0  0
  -40.4560  -26.6390   22.5050 C   0  0  0  0  0  1  0  0  0  0  0  0
  -39.0050  -26.7620   22.9940 C   0  0  0  0  0  3  0  0  0  0  0  0
  -37.6630  -26.1030   24.9430 C   0  0  0  0  0  1  0  0  0  0  0  0
  -38.7390  -25.7360   24.0260 N   0  0  0  0  0  0  0  0  0  0  0  0
  -39.5740  -25.5530   24.5760 H   0  0  0  0  0  0  0  0  0  0  0  0
  -34.7620  -27.6850   20.9670 C   0  0  1  0  0  0  0  0  0  0  0  0
  -34.6170  -27.3930   22.4800 C   0  0  0  0  0  1  0  0  0  0  0  0
  -33.9710  -28.9780   20.6590 C   0  0  0  0  0  1  0  0  0  0  0  0
  -34.0660  -26.5420   20.1910 C   0  0  0  0  0  1  0  0  0  0  0  0
  2  1  1  0
  3  4  1  0
  4 51  1  0
  4  1  2  0
  5  2  2  0
  6  3  2  0
  6  5  1  0
  7  5  1  0
  8  7  1  0
  9 10  1  0
  9  8  1  0
  9  6  1  0
 10 12  1  0
 11 10  1  0
 13 14  1  0
 13 10  1  0
 15 14  1  0
 16 17  1  0
 16 21  1  0
 17 18  1  0
 18 19  1  0
 19 20  1  0
 19 26  1  0
 21 20  1  0
 21 15  1  0
 22 15  2  0
 23 48  1  0
 24 23  2  0
 24 43  1  0
 25 24  1  0
 26 23  1  0
 27 25  2  0
 27 26  1  0
 28 25  1  0
 29 28  1  0
 30 29  2  0
 31 32  2  0
 31 30  1  0
 32 33  1  0
 33 28  2  0
 34 35  1  0
 34 31  1  0
 35 40  1  0
 36 37  1  0
 36 35  2  0
 37 38  2  0
 38 42  1  0
 38 39  1  0
 40 39  2  0
 40 41  1  0
 43 45  2  0
 43 44  1  0
 44 47  1  0
 46 44  1  0
 48 49  1  0
 50 48  1  0
 51 53  1  0
 52 51  2  0
 53 54  1  0
 54 56  1  0
 55 66  2  0
 56 61  1  0
 57 67  1  0
 57 65  1  0
 58 64  1  0
 58 60  1  0
 59 65  1  0
 60 59  1  0
 61 60  2  0
 62 63  1  0
 62 56  2  0
 63 58  2  0
 64 57  1  0
 65 55  1  0
 67 69  2  0
 67 68  1  0
 70 68  1  0
 71 76  2  0
 71 80  1  0
 72 68  1  0
 72 76  1  0
 73 72  1  0
 74 73  1  0
 74 75  1  0
 75 71  1  0
 76 77  1  0
 77 78  2  0
 79 78  1  0
 80 79  2  0
 81 55  1  0
 81 91  1  0
 81 82  1  0
 82 83  1  0
 82 85  1  0
 83 87  1  0
 84 83  2  0
 87 86  1  0
 87 89  1  0
 89 90  1  0
 89 88  1  0
 91 92  1  1
 93 91  1  0
 94 91  1  0
M  ISO  4  14 100  15 100  53 101  54 101
M  END
>  <TORSDO>  (24) 
F 21

>  <SCORE>  (24) 
-3.314

>  <name>  (24) 
23

>  <ligand_id>  (24) 
23

>  <original_smiles>  (24) 
[H]c1c([H])c([H])c2c(c1[H])C([H])([H])C([H])([H])C([H])([H])C2([H])N([H])C(=O)C1([H])N(C(=O)C([H])(N([H])C(=O)C([H])(N([H])C([H])([H])[H])C([H])([H])[H])C(C([H])([H])[H])(C([H])([H])[H])C([H])([H])[H])C([H])([H])c2c([H])c(OC([H])([H])C(=O)c3c([H])c([H])c4c(c3[H])C([H])([N+]([H])([H])C([H])([H])C([H])([H])C(=O)N3C([H])([H])C([H])([H])C([H])([H])C([H])(n5nc(-c6c([H])c([H])c(Oc7c([H])c([H])c(F)c([H])c7F)c([H])c6[H])c(C(=O)N([H])[H])c5N([H])[H])C3([H])[H])C([H])([H])C4([H])[H])c([H])c([H])c2C1([H])[H]

>  <smiles>  (24) 
[H]c1c([H])c([H])c2c(c1[H])C([H])([H])C([H])([H])C([H])([H])C2([H])N([H])C(=O)C1([H])N(C(=O)C([H])(N([H])C(=O)C([H])(N([H])C([H])([H])[H])C([H])([H])[H])C(C([H])([H])[H])(C([H])([H])[H])C([H])([H])[H])C([H])([H])c2c([H])c(OC([H])([H])C(=O)c3c([H])c([H])c4c(c3[H])C([H])([N+]([H])([H])C([H])([H])C([H])([H])C(=O)N3C([H])([H])C([H])([H])C([H])([H])C([H])(n5nc(-c6c([H])c([H])c(Oc7c([H])c([H])c(F)c([H])c7F)c([H])c6[H])c(C(=O)N([H])[H])c5N([H])[H])C3([H])[H])C([H])([H])C4([H])[H])c([H])c([H])c2C1([H])[H]

$$$$
24:0:0
     RDKit          3D

 90 97  0  0  1  0  0  0  0  0999 V2000
  -29.3460  -21.2480   20.4200 N   0  0  0  0  0  4  0  0  0  0  0  0
  -28.3830  -20.9690   20.5180 H   0  0  0  0  0  0  0  0  0  0  0  0
  -29.7080  -21.3520   21.3560 H   0  0  0  0  0  0  0  0  0  0  0  0
  -29.4120  -22.5970   19.7140 C   0  0  0  0  0  2  0  0  0  0  0  0
  -29.0870  -23.9350   20.5370 C   0  0  0  0  0  2  0  0  0  0  0  0
  -28.2560  -25.0720   19.7930 C   0  0  0  0  0  2  0  0  0  0  0  0
  -28.3340  -26.4850   20.2420 O   0  0  0  0  0  0  0  0  0  0  0  0
  -24.5980  -31.8740   23.2400 C   0  0  0  0  0  0  0  0  0  0  0  0
  -27.2070  -27.3250   20.1670 C   0  0  0  0  0  0  0  0  0  0  0  0
  -23.3900  -30.4810   21.5980 C   0  0  0  0  0  3  0  0  0  0  0  0
  -24.8410  -28.9390   20.1650 C   0  0  0  0  0  0  0  0  0  0  0  0
  -25.9290  -30.7970   21.4200 C   0  0  0  0  0  2  0  0  0  0  0  0
  -26.0070  -29.4210   20.7710 C   0  0  0  0  0  0  0  0  0  0  0  0
  -27.1900  -28.6210   20.7700 C   0  0  0  0  0  3  0  0  0  0  0  0
  -26.0220  -26.9130   19.5100 C   0  0  0  0  0  3  0  0  0  0  0  0
  -24.8500  -27.6890   19.5290 C   0  0  0  0  0  3  0  0  0  0  0  0
  -23.6040  -29.8110   20.2140 C   0  0  0  0  0  2  0  0  0  0  0  0
  -24.6580  -31.0660   22.1430 N   0  0  0  0  0  0  0  0  0  0  0  0
  -23.5140  -32.1550   23.7750 O   0  0  0  0  0  0  0  0  0  0  0  0
  -22.7260  -29.4610   22.5540 C   0  0  0  0  0  0  0  0  0  0  0  0
  -21.4000  -29.2870   22.4250 N   0  0  0  0  0  0  0  0  0  0  0  0
  -23.4050  -28.8330   23.3710 O   0  0  0  0  0  0  0  0  0  0  0  0
  -20.9110  -29.8430   21.7380 H   0  0  0  0  0  0  0  0  0  0  0  0
  -18.0220  -28.0940   22.9270 C   0  0  0  0  0  0  0  0  0  0  0  0
  -20.5810  -28.3490   23.1950 C   0  0  0  0  0  3  0  0  0  0  0  0
  -20.6810  -26.9180   22.6180 C   0  0  0  0  0  2  0  0  0  0  0  0
  -19.5780  -26.5990   21.6040 C   0  0  0  0  0  2  0  0  0  0  0  0
  -18.1950  -26.7440   22.2460 C   0  0  0  0  0  2  0  0  0  0  0  0
  -19.1430  -28.8520   23.3570 C   0  0  0  0  0  0  0  0  0  0  0  0
  -18.9270  -30.1150   23.9510 C   0  0  0  0  0  3  0  0  0  0  0  0
  -17.6240  -30.6230   24.1130 C   0  0  0  0  0  3  0  0  0  0  0  0
  -16.5180  -29.8590   23.7000 C   0  0  0  0  0  3  0  0  0  0  0  0
  -16.7170  -28.5970   23.1150 C   0  0  0  0  0  3  0  0  0  0  0  0
  -25.8810  -32.5050   23.8630 C   0  0  0  0  0  3  0  0  0  0  0  0
  -26.4020  -31.7260   25.1330 C   0  0  1  0  0  0  0  0  0  0  0  0
  -25.3090  -31.4820   26.2000 C   0  0  0  0  0  1  0  0  0  0  0  0
  -26.9810  -30.3490   24.7340 C   0  0  0  0  0  1  0  0  0  0  0  0
  -27.5550  -32.5160   25.7940 C   0  0  0  0  0  1  0  0  0  0  0  0
  -25.5710  -33.9010   24.2000 N   0  0  0  0  0  0  0  0  0  0  0  0
  -25.9030  -34.9580   23.4460 C   0  0  0  0  0  0  0  0  0  0  0  0
  -26.5720  -34.8600   22.4120 O   0  0  0  0  0  0  0  0  0  0  0  0
  -24.9760  -34.0530   25.0010 H   0  0  0  0  0  0  0  0  0  0  0  0
  -24.1760  -36.7530   23.1050 C   0  0  0  0  0  1  0  0  0  0  0  0
  -25.4180  -36.3440   23.9110 C   0  0  0  0  0  3  0  0  0  0  0  0
  -27.5560  -37.2200   24.7440 C   0  0  0  0  0  1  0  0  0  0  0  0
  -26.4530  -37.3970   23.8040 N   0  0  0  0  0  0  0  0  0  0  0  0
  -26.0460  -38.3150   23.9610 H   0  0  0  0  0  0  0  0  0  0  0  0
  -30.0780  -20.0500   19.8240 C   0  0  0  0  0  3  0  0  0  0  0  0
  -29.6050  -18.6730   20.4840 C   0  0  0  0  0  0  0  0  0  0  0  0
  -28.5300  -18.6040   21.0870 O   0  0  0  0  0  0  0  0  0  0  0  0
  -30.4860  -17.3680   20.3630 C   0  0  0  0  0  3  0  0  0  0  0  0
  -29.8720  -15.9600   20.8090 C   0  0  0  0  0  3  0  0  0  0  0  0
  -30.6210  -14.6540   20.3200 C   0  0  0  0  0  0  0  0  0  0  0  0
  -30.3840  -12.4150   19.2510 C   0  0  0  0  0  2  0  0  0  0  0  0
  -29.4250  -12.5430   18.0470 C   0  0  0  0  0  2  0  0  0  0  0  0
  -27.9590  -12.3780   18.4940 C   0  0  0  0  0  2  0  0  0  0  0  0
  -27.6150  -13.2430   19.7340 C   0  0  0  0  0  3  0  0  0  0  0  0
  -28.6890  -13.1110   20.8370 C   0  0  0  0  0  2  0  0  0  0  0  0
  -29.9920  -13.4370   20.2440 N   0  0  0  0  0  0  0  0  0  0  0  0
  -31.7690  -14.7850   19.8880 O   0  0  0  0  0  0  0  0  0  0  0  0
  -25.2270  -13.8310   20.4750 C   0  0  0  0  0  0  0  0  0  0  0  0
  -24.1720  -13.0530   20.8620 C   0  0  0  0  0  0  0  0  0  0  0  0
  -24.6420  -11.7050   20.8400 C   0  0  0  0  0  0  0  0  0  0  0  0
  -26.2770  -12.9570   20.2380 N   0  0  0  0  0  0  0  0  0  0  0  0
  -25.9300  -11.6740   20.5190 N   0  0  0  0  0  0  0  0  0  0  0  0
  -23.9270  -10.4390   21.0470 C   0  0  0  0  0  0  0  0  0  0  0  0
  -24.3780   -9.4800   21.9810 C   0  0  0  0  0  3  0  0  0  0  0  0
  -23.6630   -8.2800   22.1760 C   0  0  0  0  0  3  0  0  0  0  0  0
  -22.4820   -8.0280   21.4380 C   0  0  0  0  0  0  0  0  0  0  0  0
  -22.0510   -8.9750   20.4920 C   0  0  0  0  0  3  0  0  0  0  0  0
  -22.7670  -10.1670   20.2950 C   0  0  0  0  0  3  0  0  0  0  0  0
  -21.7370   -6.8780   21.5430 O   0  0  0  0  0  0  0  0  0  0  0  0
  -21.7130   -6.1400   22.7000 C   0  0  0  0  0  0  0  0  0  0  0  0
  -21.3040   -6.6980   23.9320 C   0  0  0  0  0  3  0  0  0  0  0  0
  -21.2240   -5.8860   25.0800 C   0  0  0  0  0  3  0  0  0  0  0  0
  -21.5440   -4.5170   25.0000 C   0  0  0  0  0  0  0  0  0  0  0  0
  -21.9470   -3.9600   23.7750 C   0  0  0  0  0  3  0  0  0  0  0  0
  -22.0260   -4.7690   22.6280 C   0  0  0  0  0  0  0  0  0  0  0  0
  -22.3930   -4.2210   21.4440 F   0  0  0  0  0  0  0  0  0  0  0  0
  -21.4600   -3.7360   26.1020 F   0  0  0  0  0  0  0  0  0  0  0  0
  -22.7720  -13.5200   21.1470 C   0  0  0  0  0  0  0  0  0  0  0  0
  -22.0620  -12.8250   22.0280 N   0  0  0  0  0  0  0  0  0  0  0  0
  -22.3210  -14.5370   20.6220 O   0  0  0  0  0  0  0  0  0  0  0  0
  -22.4430  -12.0020   22.4700 H   0  0  0  0  0  0  0  0  0  0  0  0
  -21.1240  -13.1190   22.2630 H   0  0  0  0  0  0  0  0  0  0  0  0
  -25.3840  -15.2020   20.2870 N   0  0  0  0  0  0  0  0  0  0  0  0
  -24.6180  -15.8570   20.4010 H   0  0  0  0  0  0  0  0  0  0  0  0
  -26.2410  -15.6440   19.9770 H   0  0  0  0  0  0  0  0  0  0  0  0
  -28.6100  -19.7480   17.6430 C   0  0  0  0  0  1  0  0  0  0  0  0
  -30.0000  -19.9760   18.2690 C   0  0  0  0  0  2  0  0  0  0  0  0
  1  2  1  0
  1  3  1  0
  4  1  1  0
  4  5  1  0
  6  7  1  0
  6  5  1  0
  8 19  2  0
  9  7  1  0
  9 14  1  0
 10 18  1  0
 10 20  1  0
 11 17  1  0
 11 13  1  0
 12 18  1  0
 13 12  1  0
 14 13  2  0
 15 16  1  0
 15  9  2  0
 16 11  2  0
 17 10  1  0
 18  8  1  0
 20 22  2  0
 21 20  1  0
 23 21  1  0
 24 33  2  0
 24 29  1  0
 25 21  1  0
 25 29  1  0
 26 25  1  0
 27 28  1  0
 27 26  1  0
 28 24  1  0
 29 30  2  0
 30 31  1  0
 32 31  2  0
 33 32  1  0
 34  8  1  0
 34 39  1  0
 34 35  1  0
 35 38  1  1
 35 36  1  0
 37 35  1  0
 39 42  1  0
 40 44  1  0
 40 39  1  0
 41 40  2  0
 44 43  1  0
 46 44  1  0
 46 47  1  0
 46 45  1  0
 48 90  1  0
 48  1  1  0
 48 49  1  0
 49 50  2  0
 51 49  1  0
 51 52  2  0
 53 52  1  0
 54 59  1  0
 55 56  1  0
 55 54  1  0
 57 56  1  0
 57 64  1  0
 57 58  1  0
 59 53  1  0
 59 58  1  0
 60 53  2  0
 61 62  2  0
 62 81  1  0
 63 62  1  0
 63 66  1  0
 64 61  1  0
 64 65  1  0
 65 63  2  0
 66 67  1  0
 67 68  2  0
 69 72  1  0
 69 68  1  0
 70 69  2  0
 71 70  1  0
 71 66  2  0
 72 73  1  0
 73 74  1  0
 74 75  2  0
 76 75  1  0
 76 80  1  0
 77 76  2  0
 78 73  2  0
 78 77  1  0
 79 78  1  0
 81 82  1  0
 82 85  1  0
 82 84  1  0
 83 81  2  0
 86 87  1  0
 86 61  1  0
 88 86  1  0
 89 90  1  0
M  ISO  4   6 101   7 101  52 100  53 100
M  END
>  <TORSDO>  (25) 
F 24

>  <SCORE>  (25) 
-12.214

>  <name>  (25) 
24

>  <ligand_id>  (25) 
24

>  <original_smiles>  (25) 
[H]c1c([H])c([H])c2c(c1[H])C([H])([H])C([H])([H])C([H])([H])C2([H])N([H])C(=O)C1([H])N(C(=O)C([H])(N([H])C(=O)C([H])(N([H])C([H])([H])[H])C([H])([H])[H])C(C([H])([H])[H])(C([H])([H])[H])C([H])([H])[H])C([H])([H])c2c([H])c(OC([H])([H])C([H])([H])C([H])([H])[N+]([H])([H])C([H])(C(=O)C([H])([H])C([H])([H])C(=O)N3C([H])([H])C([H])([H])C([H])([H])C([H])(n4nc(-c5c([H])c([H])c(Oc6c([H])c([H])c(F)c([H])c6F)c([H])c5[H])c(C(=O)N([H])[H])c4N([H])[H])C3([H])[H])C([H])([H])C([H])([H])[H])c([H])c([H])c2C1([H])[H]

>  <smiles>  (25) 
[H]c1c([H])c([H])c2c(c1[H])C([H])([H])C([H])([H])C([H])([H])C2([H])N([H])C(=O)C1([H])N(C(=O)C([H])(N([H])C(=O)C([H])(N([H])C([H])([H])[H])C([H])([H])[H])C(C([H])([H])[H])(C([H])([H])[H])C([H])([H])[H])C([H])([H])c2c([H])c(OC([H])([H])C([H])([H])C([H])([H])[N+]([H])([H])C([H])(C(=O)C([H])([H])C([H])([H])C(=O)N3C([H])([H])C([H])([H])C([H])([H])C([H])(n4nc(-c5c([H])c([H])c(Oc6c([H])c([H])c(F)c([H])c6F)c([H])c5[H])c(C(=O)N([H])[H])c4N([H])[H])C3([H])[H])C([H])([H])C([H])([H])[H])c([H])c([H])c2C1([H])[H]

$$$$
25:0:0
     RDKit          3D

 92100  0  0  1  0  0  0  0  0999 V2000
  -29.7820  -23.1210   20.6550 C   0  0  0  0  0  3  0  0  0  0  0  0
  -27.6120  -22.1370   21.1180 C   0  0  0  0  0  3  0  0  0  0  0  0
  -30.2910  -21.8390   20.3540 C   0  0  0  0  0  3  0  0  0  0  0  0
  -28.1200  -20.8520   20.8150 C   0  0  0  0  0  3  0  0  0  0  0  0
  -28.4310  -23.2930   21.0430 C   0  0  0  0  0  0  0  0  0  0  0  0
  -29.4660  -20.6920   20.4210 C   0  0  0  0  0  0  0  0  0  0  0  0
  -27.8200  -24.6320   21.3740 C   0  0  0  0  0  0  0  0  0  0  0  0
  -26.6450  -24.7270   21.7420 O   0  0  0  0  0  0  0  0  0  0  0  0
  -28.6580  -25.9350   21.2870 C   0  0  0  0  0  2  0  0  0  0  0  0
  -28.3820  -26.6870   20.0950 O   0  0  0  0  0  0  0  0  0  0  0  0
  -24.5860  -31.8740   23.2130 C   0  0  0  0  0  0  0  0  0  0  0  0
  -27.2370  -27.4480   20.1300 C   0  0  0  0  0  0  0  0  0  0  0  0
  -23.3890  -30.4800   21.5570 C   0  0  0  0  0  3  0  0  0  0  0  0
  -24.8500  -28.9500   20.1330 C   0  0  0  0  0  0  0  0  0  0  0  0
  -25.9150  -30.8380   21.3780 C   0  0  0  0  0  2  0  0  0  0  0  0
  -26.0020  -29.4670   20.7390 C   0  0  0  0  0  0  0  0  0  0  0  0
  -27.2010  -28.7170   20.7470 C   0  0  0  0  0  3  0  0  0  0  0  0
  -26.0760  -26.9470   19.5070 C   0  0  0  0  0  3  0  0  0  0  0  0
  -24.8780  -27.6840   19.5220 C   0  0  0  0  0  3  0  0  0  0  0  0
  -23.6060  -29.8080   20.1750 C   0  0  0  0  0  2  0  0  0  0  0  0
  -24.6490  -31.0780   22.1080 N   0  0  0  0  0  0  0  0  0  0  0  0
  -23.5000  -32.1450   23.7470 O   0  0  0  0  0  0  0  0  0  0  0  0
  -22.7330  -29.4540   22.5070 C   0  0  0  0  0  0  0  0  0  0  0  0
  -21.4080  -29.2740   22.3700 N   0  0  0  0  0  0  0  0  0  0  0  0
  -23.4100  -28.8220   23.3220 O   0  0  0  0  0  0  0  0  0  0  0  0
  -20.9260  -29.8340   21.6810 H   0  0  0  0  0  0  0  0  0  0  0  0
  -18.0260  -28.0920   22.8330 C   0  0  0  0  0  0  0  0  0  0  0  0
  -20.5810  -28.3350   23.1280 C   0  0  0  0  0  3  0  0  0  0  0  0
  -20.6830  -26.9080   22.5430 C   0  0  0  0  0  2  0  0  0  0  0  0
  -19.5880  -26.5960   21.5190 C   0  0  0  0  0  2  0  0  0  0  0  0
  -18.2020  -26.7450   22.1520 C   0  0  0  0  0  2  0  0  0  0  0  0
  -19.1440  -28.8460   23.2760 C   0  0  0  0  0  0  0  0  0  0  0  0
  -18.9300  -30.1050   23.8740 C   0  0  0  0  0  3  0  0  0  0  0  0
  -17.6270  -30.6120   24.0340 C   0  0  0  0  0  3  0  0  0  0  0  0
  -16.5210  -29.8550   23.6120 C   0  0  0  0  0  3  0  0  0  0  0  0
  -16.7230  -28.5980   23.0170 C   0  0  0  0  0  3  0  0  0  0  0  0
  -25.8720  -32.4970   23.8410 C   0  0  0  0  0  3  0  0  0  0  0  0
  -25.5660  -33.8950   24.1770 N   0  0  0  0  0  0  0  0  0  0  0  0
  -25.9050  -34.9500   23.4250 C   0  0  0  0  0  0  0  0  0  0  0  0
  -26.5790  -34.8490   22.3950 O   0  0  0  0  0  0  0  0  0  0  0  0
  -24.9680  -34.0460   24.9750 H   0  0  0  0  0  0  0  0  0  0  0  0
  -24.1770  -36.7420   23.0680 C   0  0  0  0  0  1  0  0  0  0  0  0
  -25.4130  -36.3350   23.8860 C   0  0  0  0  0  3  0  0  0  0  0  0
  -27.5410  -37.2110   24.7340 C   0  0  0  0  0  1  0  0  0  0  0  0
  -26.4450  -37.3890   23.7860 N   0  0  0  0  0  0  0  0  0  0  0  0
  -26.0390  -38.3080   23.9380 H   0  0  0  0  0  0  0  0  0  0  0  0
  -26.3840  -31.7170   25.1140 C   0  0  1  0  0  0  0  0  0  0  0  0
  -25.2880  -31.4760   26.1760 C   0  0  0  0  0  1  0  0  0  0  0  0
  -26.9680  -30.3420   24.7130 C   0  0  0  0  0  1  0  0  0  0  0  0
  -27.5320  -32.5060   25.7850 C   0  0  0  0  0  1  0  0  0  0  0  0
  -30.0050  -19.3200   19.9910 C   0  0  0  0  0  2  0  0  0  0  0  0
  -31.1580  -18.9180   22.1460 C   0  0  0  0  0  1  0  0  0  0  0  0
  -30.3010  -18.3420   21.0810 N   0  0  2  0  0  4  0  0  0  0  0  0
  -29.4130  -18.1310   21.5080 H   0  0  0  0  0  0  0  0  0  0  0  0
  -30.8520  -17.0610   20.5320 C   0  0  0  0  0  2  0  0  0  0  0  0
  -30.2450  -15.7410   21.1190 C   0  0  0  0  0  2  0  0  0  0  0  0
  -30.7590  -14.4980   20.3450 C   0  0  0  0  0  0  0  0  0  0  0  0
  -30.3500  -12.3710   19.1560 C   0  0  0  0  0  2  0  0  0  0  0  0
  -29.4010  -12.6060   17.9640 C   0  0  0  0  0  2  0  0  0  0  0  0
  -27.9360  -12.4750   18.4170 C   0  0  0  0  0  2  0  0  0  0  0  0
  -27.6260  -13.3110   19.6880 C   0  0  0  0  0  3  0  0  0  0  0  0
  -28.7000  -13.0990   20.7830 C   0  0  0  0  0  2  0  0  0  0  0  0
  -30.0210  -13.3610   20.1960 N   0  0  0  0  0  0  0  0  0  0  0  0
  -31.8530  -14.6200   19.7870 O   0  0  0  0  0  0  0  0  0  0  0  0
  -25.2370  -13.9240   20.4170 C   0  0  0  0  0  0  0  0  0  0  0  0
  -24.1700  -13.1560   20.8030 C   0  0  0  0  0  0  0  0  0  0  0  0
  -24.6270  -11.8040   20.7770 C   0  0  0  0  0  0  0  0  0  0  0  0
  -26.2790  -13.0390   20.1850 N   0  0  0  0  0  0  0  0  0  0  0  0
  -25.9160  -11.7590   20.4570 N   0  0  0  0  0  0  0  0  0  0  0  0
  -23.8980  -10.5450   20.9830 C   0  0  0  0  0  0  0  0  0  0  0  0
  -24.3430   -9.5780   21.9120 C   0  0  0  0  0  3  0  0  0  0  0  0
  -23.6140   -8.3840   22.1070 C   0  0  0  0  0  3  0  0  0  0  0  0
  -22.4270   -8.1500   21.3720 C   0  0  0  0  0  0  0  0  0  0  0  0
  -22.0030   -9.1050   20.4320 C   0  0  0  0  0  3  0  0  0  0  0  0
  -22.7310  -10.2890   20.2360 C   0  0  0  0  0  3  0  0  0  0  0  0
  -21.6680   -7.0090   21.4770 O   0  0  0  0  0  0  0  0  0  0  0  0
  -21.6410   -6.2650   22.6290 C   0  0  0  0  0  0  0  0  0  0  0  0
  -21.2550   -6.8220   23.8680 C   0  0  0  0  0  3  0  0  0  0  0  0
  -21.1760   -6.0050   25.0120 C   0  0  0  0  0  3  0  0  0  0  0  0
  -21.4710   -4.6330   24.9200 C   0  0  0  0  0  0  0  0  0  0  0  0
  -21.8510   -4.0750   23.6870 C   0  0  0  0  0  3  0  0  0  0  0  0
  -21.9320   -4.8890   22.5440 C   0  0  0  0  0  0  0  0  0  0  0  0
  -22.2790   -4.3430   21.3540 F   0  0  0  0  0  0  0  0  0  0  0  0
  -21.3870   -3.8460   26.0180 F   0  0  0  0  0  0  0  0  0  0  0  0
  -22.7770  -13.6400   21.0830 C   0  0  0  0  0  0  0  0  0  0  0  0
  -22.0570  -12.9530   21.9630 N   0  0  0  0  0  0  0  0  0  0  0  0
  -22.3380  -14.6640   20.5630 O   0  0  0  0  0  0  0  0  0  0  0  0
  -22.4260  -12.1240   22.4060 H   0  0  0  0  0  0  0  0  0  0  0  0
  -21.1220  -13.2570   22.1940 H   0  0  0  0  0  0  0  0  0  0  0  0
  -25.4070  -15.2920   20.2250 N   0  0  0  0  0  0  0  0  0  0  0  0
  -24.6400  -15.9490   20.3200 H   0  0  0  0  0  0  0  0  0  0  0  0
  -26.2520  -15.7160   19.8650 H   0  0  0  0  0  0  0  0  0  0  0  0
  1  5  1  0
  3  6  1  0
  3  1  2  0
  4  2  1  0
  5  2  2  0
  5  7  1  0
  6  4  2  0
  7  8  2  0
  9  7  1  0
 10 12  1  0
 10  9  1  0
 11 22  2  0
 12 17  1  0
 13 21  1  0
 13 23  1  0
 14 20  1  0
 14 16  1  0
 15 21  1  0
 16 17  2  0
 16 15  1  0
 18 19  1  0
 18 12  2  0
 19 14  2  0
 20 13  1  0
 21 11  1  0
 23 25  2  0
 24 23  1  0
 26 24  1  0
 27 36  2  0
 27 32  1  0
 28 24  1  0
 28 32  1  0
 29 28  1  0
 30 31  1  0
 30 29  1  0
 31 27  1  0
 32 33  2  0
 33 34  1  0
 35 34  2  0
 36 35  1  0
 37 11  1  0
 37 38  1  0
 37 47  1  0
 38 41  1  0
 39 43  1  0
 39 38  1  0
 40 39  2  0
 43 42  1  0
 45 43  1  0
 45 46  1  0
 45 44  1  0
 47 50  1  1
 47 48  1  0
 49 47  1  0
 51  6  1  0
 51 53  1  0
 53 54  1  1
 53 52  1  0
 55 53  1  0
 55 56  1  0
 57 56  1  0
 58 63  1  0
 59 60  1  0
 59 58  1  0
 61 60  1  0
 61 68  1  0
 61 62  1  0
 63 57  1  0
 63 62  1  0
 64 57  2  0
 65 66  2  0
 66 85  1  0
 67 66  1  0
 67 70  1  0
 68 65  1  0
 68 69  1  0
 69 67  2  0
 70 71  1  0
 71 72  2  0
 73 76  1  0
 73 72  1  0
 74 73  2  0
 75 74  1  0
 75 70  2  0
 76 77  1  0
 77 78  1  0
 78 79  2  0
 80 79  1  0
 80 84  1  0
 81 80  2  0
 82 77  2  0
 82 81  1  0
 83 82  1  0
 85 86  1  0
 86 89  1  0
 86 88  1  0
 87 85  2  0
 90 91  1  0
 90 65  1  0
 92 90  1  0
M  ISO  4   9 101  10 101  56 100  57 100
M  END
>  <TORSDO>  (26) 
F 22

>  <SCORE>  (26) 
-13.354

>  <name>  (26) 
25

>  <ligand_id>  (26) 
25

>  <original_smiles>  (26) 
[H]c1c([H])c([H])c2c(c1[H])C([H])([H])C([H])([H])C([H])([H])C2([H])N([H])C(=O)C1([H])N(C(=O)C([H])(N([H])C(=O)C([H])(N([H])C([H])([H])[H])C([H])([H])[H])C(C([H])([H])[H])(C([H])([H])[H])C([H])([H])[H])C([H])([H])c2c([H])c(OC([H])([H])C(=O)c3c([H])c([H])c(C([H])([H])[N+]([H])(C([H])([H])[H])C([H])([H])C([H])([H])C(=O)N4C([H])([H])C([H])([H])C([H])([H])C([H])(n5nc(-c6c([H])c([H])c(Oc7c([H])c([H])c(F)c([H])c7F)c([H])c6[H])c(C(=O)N([H])[H])c5N([H])[H])C4([H])[H])c([H])c3[H])c([H])c([H])c2C1([H])[H]

>  <smiles>  (26) 
[H]c1c([H])c([H])c2c(c1[H])C([H])([H])C([H])([H])C([H])([H])C2([H])N([H])C(=O)C1([H])N(C(=O)C([H])(N([H])C(=O)C([H])(N([H])C([H])([H])[H])C([H])([H])[H])C(C([H])([H])[H])(C([H])([H])[H])C([H])([H])[H])C([H])([H])c2c([H])c(OC([H])([H])C(=O)c3c([H])c([H])c(C([H])([H])[N+]([H])(C([H])([H])[H])C([H])([H])C([H])([H])C(=O)N4C([H])([H])C([H])([H])C([H])([H])C([H])(n5nc(-c6c([H])c([H])c(Oc7c([H])c([H])c(F)c([H])c7F)c([H])c6[H])c(C(=O)N([H])[H])c5N([H])[H])C4([H])[H])c([H])c3[H])c([H])c([H])c2C1([H])[H]

$$$$
26:0:0
     RDKit          3D

 97105  0  0  1  0  0  0  0  0999 V2000
  -27.7150  -20.7970   20.6260 C   0  0  0  0  0  3  0  0  0  0  0  0
  -27.4050  -22.1560   20.8510 C   0  0  0  0  0  3  0  0  0  0  0  0
  -30.0850  -21.2940   20.8730 C   0  0  0  0  0  3  0  0  0  0  0  0
  -29.0570  -20.3610   20.6270 C   0  0  0  0  0  0  0  0  0  0  0  0
  -28.4360  -23.0990   21.0730 C   0  0  0  0  0  0  0  0  0  0  0  0
  -29.7790  -22.6480   21.0990 C   0  0  0  0  0  0  0  0  0  0  0  0
  -30.7790  -23.5300   21.3440 F   0  0  0  0  0  0  0  0  0  0  0  0
  -29.4120  -18.9160   20.3070 C   0  0  0  0  0  2  0  0  0  0  0  0
  -29.9490  -18.1070   21.5090 C   0  0  0  0  0  2  0  0  0  0  0  0
  -30.0700  -15.6670   20.7600 C   0  0  0  0  0  0  0  0  0  0  0  0
  -30.6770  -16.8470   21.0400 C   0  0  0  0  0  0  0  0  0  0  0  0
  -28.7460  -15.6470   20.9840 F   0  0  0  0  0  0  0  0  0  0  0  0
  -30.7860  -14.5080   20.1750 C   0  0  0  0  0  0  0  0  0  0  0  0
  -30.4320  -12.3940   18.9420 C   0  0  0  0  0  2  0  0  0  0  0  0
  -29.4240  -12.6350   17.7960 C   0  0  0  0  0  2  0  0  0  0  0  0
  -27.9740  -12.4740   18.2920 C   0  0  0  0  0  2  0  0  0  0  0  0
  -27.7030  -13.2650   19.5980 C   0  0  0  0  0  3  0  0  0  0  0  0
  -28.8130  -12.9610   20.6350 C   0  0  0  0  0  2  0  0  0  0  0  0
  -30.1000  -13.3320   20.0300 N   0  0  0  0  0  0  0  0  0  0  0  0
  -31.9160  -14.6350   19.6870 O   0  0  0  0  0  0  0  0  0  0  0  0
  -25.3420  -13.8860   20.4120 C   0  0  0  0  0  0  0  0  0  0  0  0
  -24.2840  -13.1130   20.8110 C   0  0  0  0  0  0  0  0  0  0  0  0
  -24.7370  -11.7600   20.7480 C   0  0  0  0  0  0  0  0  0  0  0  0
  -26.3700  -13.0000   20.1280 N   0  0  0  0  0  0  0  0  0  0  0  0
  -26.0120  -11.7170   20.3850 N   0  0  0  0  0  0  0  0  0  0  0  0
  -24.0170  -10.4980   20.9530 C   0  0  0  0  0  0  0  0  0  0  0  0
  -24.4610   -9.5370   21.8880 C   0  0  0  0  0  3  0  0  0  0  0  0
  -23.7400   -8.3370   22.0720 C   0  0  0  0  0  3  0  0  0  0  0  0
  -22.5640   -8.0920   21.3240 C   0  0  0  0  0  0  0  0  0  0  0  0
  -22.1420   -9.0440   20.3800 C   0  0  0  0  0  3  0  0  0  0  0  0
  -22.8630  -10.2360   20.1920 C   0  0  0  0  0  3  0  0  0  0  0  0
  -21.8160   -6.9440   21.4200 O   0  0  0  0  0  0  0  0  0  0  0  0
  -21.7490   -6.2260   22.5870 C   0  0  0  0  0  0  0  0  0  0  0  0
  -21.2890   -6.8030   23.7920 C   0  0  0  0  0  3  0  0  0  0  0  0
  -21.1690   -6.0110   24.9530 C   0  0  0  0  0  3  0  0  0  0  0  0
  -21.5030   -4.6440   24.9100 C   0  0  0  0  0  0  0  0  0  0  0  0
  -21.9580   -4.0660   23.7120 C   0  0  0  0  0  3  0  0  0  0  0  0
  -22.0790   -4.8540   22.5540 C   0  0  0  0  0  0  0  0  0  0  0  0
  -22.4960   -4.2860   21.3960 F   0  0  0  0  0  0  0  0  0  0  0  0
  -21.3800   -3.8820   26.0220 F   0  0  0  0  0  0  0  0  0  0  0  0
  -22.9010  -13.5910   21.1510 C   0  0  0  0  0  0  0  0  0  0  0  0
  -22.2080  -12.8820   22.0330 N   0  0  0  0  0  0  0  0  0  0  0  0
  -22.4450  -14.6280   20.6680 O   0  0  0  0  0  0  0  0  0  0  0  0
  -22.5900  -12.0430   22.4430 H   0  0  0  0  0  0  0  0  0  0  0  0
  -21.2820  -13.1800   22.3050 H   0  0  0  0  0  0  0  0  0  0  0  0
  -25.5140  -15.2560   20.2530 N   0  0  0  0  0  0  0  0  0  0  0  0
  -24.7820  -15.9300   20.4580 H   0  0  0  0  0  0  0  0  0  0  0  0
  -26.4000  -15.6830   20.0110 H   0  0  0  0  0  0  0  0  0  0  0  0
  -31.9940  -17.1000   20.9320 O   0  0  0  0  0  0  0  0  0  0  0  0
  -32.4100  -16.3080   20.6040 H   0  0  0  0  0  0  0  0  0  0  0  0
  -28.1210  -24.5850   21.2490 C   0  0  0  0  0  3  0  0  0  0  0  0
  -28.6970  -25.0900   22.5130 N   0  0  0  0  0  4  0  0  0  0  0  0
  -29.6650  -24.8190   22.5680 H   0  0  0  0  0  0  0  0  0  0  0  0
  -28.2070  -24.7190   23.3090 H   0  0  0  0  0  0  0  0  0  0  0  0
  -28.6490  -26.0950   22.5450 H   0  0  0  0  0  0  0  0  0  0  0  0
  -28.6070  -25.4150   20.0340 C   0  0  0  0  0  2  0  0  0  0  0  0
  -28.5250  -26.8260   20.2690 O   0  0  0  0  0  0  0  0  0  0  0  0
  -24.5980  -31.9080   23.2590 C   0  0  0  0  0  0  0  0  0  0  0  0
  -27.3120  -27.4780   20.2310 C   0  0  0  0  0  0  0  0  0  0  0  0
  -23.4140  -30.4800   21.6190 C   0  0  0  0  0  3  0  0  0  0  0  0
  -24.8910  -28.9400   20.2200 C   0  0  0  0  0  0  0  0  0  0  0  0
  -25.9360  -30.8660   21.4350 C   0  0  0  0  0  2  0  0  0  0  0  0
  -26.0380  -29.4920   20.8050 C   0  0  0  0  0  0  0  0  0  0  0  0
  -27.2480  -28.7690   20.8010 C   0  0  0  0  0  3  0  0  0  0  0  0
  -26.1430  -26.9310   19.6510 C   0  0  0  0  0  3  0  0  0  0  0  0
  -24.9370  -27.6580   19.6470 C   0  0  0  0  0  3  0  0  0  0  0  0
  -23.6400  -29.7880   20.2470 C   0  0  0  0  0  2  0  0  0  0  0  0
  -24.6660  -31.1020   22.1600 N   0  0  0  0  0  0  0  0  0  0  0  0
  -23.5120  -32.1700   23.7910 O   0  0  0  0  0  0  0  0  0  0  0  0
  -22.7700  -29.4580   22.5820 C   0  0  0  0  0  0  0  0  0  0  0  0
  -21.4480  -29.2690   22.4520 N   0  0  0  0  0  0  0  0  0  0  0  0
  -23.4590  -28.8370   23.3980 O   0  0  0  0  0  0  0  0  0  0  0  0
  -20.9580  -29.8250   21.7660 H   0  0  0  0  0  0  0  0  0  0  0  0
  -18.0740  -28.0730   22.9550 C   0  0  0  0  0  0  0  0  0  0  0  0
  -20.6320  -28.3310   23.2230 C   0  0  0  0  0  3  0  0  0  0  0  0
  -20.7330  -26.9010   22.6430 C   0  0  0  0  0  2  0  0  0  0  0  0
  -19.6300  -26.5770   21.6320 C   0  0  0  0  0  2  0  0  0  0  0  0
  -18.2480  -26.7230   22.2770 C   0  0  0  0  0  2  0  0  0  0  0  0
  -19.1930  -28.8350   23.3810 C   0  0  0  0  0  0  0  0  0  0  0  0
  -18.9770  -30.1010   23.9680 C   0  0  0  0  0  3  0  0  0  0  0  0
  -17.6720  -30.6040   24.1340 C   0  0  0  0  0  3  0  0  0  0  0  0
  -16.5680  -29.8370   23.7260 C   0  0  0  0  0  3  0  0  0  0  0  0
  -16.7690  -28.5740   23.1420 C   0  0  0  0  0  3  0  0  0  0  0  0
  -25.8750  -32.5540   23.8810 C   0  0  0  0  0  3  0  0  0  0  0  0
  -25.5560  -33.9510   24.1980 N   0  0  0  0  0  0  0  0  0  0  0  0
  -25.8790  -34.9990   23.4280 C   0  0  0  0  0  0  0  0  0  0  0  0
  -26.5540  -34.8920   22.4010 O   0  0  0  0  0  0  0  0  0  0  0  0
  -24.9690  -34.1080   25.0040 H   0  0  0  0  0  0  0  0  0  0  0  0
  -24.1380  -36.7730   23.0390 C   0  0  0  0  0  1  0  0  0  0  0  0
  -25.3720  -36.3860   23.8700 C   0  0  0  0  0  3  0  0  0  0  0  0
  -27.4870  -37.2990   24.7180 C   0  0  0  0  0  1  0  0  0  0  0  0
  -26.3940  -37.4510   23.7630 N   0  0  0  0  0  0  0  0  0  0  0  0
  -25.9750  -38.3660   23.9030 H   0  0  0  0  0  0  0  0  0  0  0  0
  -26.3920  -31.7940   25.1650 C   0  0  1  0  0  0  0  0  0  0  0  0
  -25.2980  -31.5440   26.2300 C   0  0  0  0  0  1  0  0  0  0  0  0
  -26.9950  -30.4230   24.7810 C   0  0  0  0  0  1  0  0  0  0  0  0
  -27.5250  -32.6080   25.8360 C   0  0  0  0  0  1  0  0  0  0  0  0
  1  4  2  0
  1  2  1  0
  2  5  2  0
  3  6  2  0
  4  3  1  0
  5  6  1  0
  5 51  1  0
  6  7  1  0
  8  4  1  0
  8  9  1  0
 10 12  1  0
 10 11  2  0
 11  9  1  0
 13 10  1  0
 14 19  1  0
 15 16  1  0
 15 14  1  0
 17 16  1  0
 17 24  1  0
 17 18  1  0
 19 13  1  0
 19 18  1  0
 20 13  2  0
 21 22  2  0
 22 41  1  0
 23 22  1  0
 23 26  1  0
 24 25  1  0
 24 21  1  0
 25 23  2  0
 26 27  1  0
 27 28  2  0
 29 32  1  0
 29 28  1  0
 30 29  2  0
 31 30  1  0
 31 26  2  0
 32 33  1  0
 33 34  1  0
 34 35  2  0
 36 35  1  0
 36 40  1  0
 37 36  2  0
 38 33  2  0
 38 37  1  0
 39 38  1  0
 41 42  1  0
 42 45  1  0
 42 44  1  0
 43 41  2  0
 46 21  1  0
 46 47  1  0
 48 46  1  0
 49 11  1  0
 50 49  1  0
 51 56  1  0
 51 52  1  0
 52 55  1  0
 52 53  1  0
 52 54  1  0
 56 57  1  0
 58 69  2  0
 59 57  1  0
 59 64  1  0
 60 68  1  0
 60 70  1  0
 61 67  1  0
 61 63  1  0
 62 68  1  0
 63 62  1  0
 64 63  2  0
 65 59  2  0
 66 65  1  0
 66 61  2  0
 67 60  1  0
 68 58  1  0
 70 72  2  0
 71 70  1  0
 73 71  1  0
 74 83  2  0
 74 79  1  0
 75 71  1  0
 75 79  1  0
 76 75  1  0
 77 78  1  0
 77 76  1  0
 78 74  1  0
 79 80  2  0
 80 81  1  0
 82 81  2  0
 83 82  1  0
 84 58  1  0
 84 85  1  0
 84 94  1  0
 85 88  1  0
 86 90  1  0
 86 85  1  0
 87 86  2  0
 90 89  1  0
 92 90  1  0
 92 93  1  0
 92 91  1  0
 94 97  1  1
 94 95  1  0
 96 94  1  0
M  ISO  4  10 100  13 100  56 101  57 101
M  END
>  <TORSDO>  (27) 
F 23

>  <SCORE>  (27) 
-13.198

>  <name>  (27) 
26

>  <ligand_id>  (27) 
26

>  <original_smiles>  (27) 
[H]OC(=C(F)C(=O)N1C([H])([H])C([H])([H])C([H])([H])C([H])(n2nc(-c3c([H])c([H])c(Oc4c([H])c([H])c(F)c([H])c4F)c([H])c3[H])c(C(=O)N([H])[H])c2N([H])[H])C1([H])[H])C([H])([H])C([H])([H])c1c([H])c([H])c(C([H])(C([H])([H])Oc2c([H])c([H])c3c(c2[H])C([H])([H])N(C(=O)C([H])(N([H])C(=O)C([H])(N([H])C([H])([H])[H])C([H])([H])[H])C(C([H])([H])[H])(C([H])([H])[H])C([H])([H])[H])C([H])(C(=O)N([H])C2([H])c4c([H])c([H])c([H])c([H])c4C([H])([H])C([H])([H])C2([H])[H])C3([H])[H])[N+]([H])([H])[H])c(F)c1[H]

>  <smiles>  (27) 
[H]OC(=C(F)C(=O)N1C([H])([H])C([H])([H])C([H])([H])C([H])(n2nc(-c3c([H])c([H])c(Oc4c([H])c([H])c(F)c([H])c4F)c([H])c3[H])c(C(=O)N([H])[H])c2N([H])[H])C1([H])[H])C([H])([H])C([H])([H])c1c([H])c([H])c(C([H])(C([H])([H])Oc2c([H])c([H])c3c(c2[H])C([H])([H])N(C(=O)C([H])(N([H])C(=O)C([H])(N([H])C([H])([H])[H])C([H])([H])[H])C(C([H])([H])[H])(C([H])([H])[H])C([H])([H])[H])C([H])(C(=O)N([H])C2([H])c4c([H])c([H])c([H])c([H])c4C([H])([H])C([H])([H])C2([H])[H])C3([H])[H])[N+]([H])([H])[H])c(F)c1[H]

$$$$
27:0:0
     RDKit          3D

 95104  0  0  1  0  0  0  0  0999 V2000
  -29.4700  -22.4810   23.6720 C   0  0  0  0  0  3  0  0  0  0  0  0
  -29.7850  -21.3280   24.4070 C   0  0  0  0  0  3  0  0  0  0  0  0
  -30.3280  -21.4210   21.6770 C   0  0  0  0  0  3  0  0  0  0  0  0
  -29.7310  -22.5650   22.2890 C   0  0  0  0  0  0  0  0  0  0  0  0
  -30.4480  -20.2420   23.8100 C   0  0  0  0  0  0  0  0  0  0  0  0
  -30.7230  -20.2600   22.4150 C   0  0  0  0  0  0  0  0  0  0  0  0
  -30.9060  -19.1370   24.7470 C   0  0  0  0  0  1  0  0  0  0  0  0
  -29.5840  -23.8960   21.4820 C   0  0  0  0  0  2  0  0  0  0  0  0
  -26.5030  -24.0620   22.4930 C   0  0  0  0  0  2  0  0  0  0  0  0
  -27.5740  -25.0740   22.8770 C   0  0  0  0  0  2  0  0  0  0  0  0
  -26.9900  -24.2190   21.0600 C   0  0  0  0  0  2  0  0  0  0  0  0
  -28.3230  -24.8600   21.5310 C   0  0  2  0  0  0  0  0  0  0  0  0
  -28.7690  -26.2520   20.9120 C   0  0  0  0  0  2  0  0  0  0  0  0
  -28.1870  -26.7120   19.6700 O   0  0  0  0  0  0  0  0  0  0  0  0
  -24.5320  -31.6380   23.3260 C   0  0  0  0  0  0  0  0  0  0  0  0
  -27.0810  -27.5290   19.7600 C   0  0  0  0  0  0  0  0  0  0  0  0
  -23.2680  -30.3590   21.6290 C   0  0  0  0  0  3  0  0  0  0  0  0
  -24.6770  -29.0020   19.9850 C   0  0  0  0  0  0  0  0  0  0  0  0
  -25.7710  -30.7950   21.3350 C   0  0  0  0  0  2  0  0  0  0  0  0
  -25.8510  -29.4860   20.5770 C   0  0  0  0  0  0  0  0  0  0  0  0
  -27.0580  -28.7520   20.4760 C   0  0  0  0  0  3  0  0  0  0  0  0
  -25.9080  -27.1000   19.1060 C   0  0  0  0  0  3  0  0  0  0  0  0
  -24.7020  -27.8130   19.2390 C   0  0  0  0  0  3  0  0  0  0  0  0
  -23.4160  -29.8190   20.1780 C   0  0  0  0  0  2  0  0  0  0  0  0
  -24.5430  -30.9440   22.1540 N   0  0  0  0  0  0  0  0  0  0  0  0
  -23.4790  -31.8300   23.9490 O   0  0  0  0  0  0  0  0  0  0  0  0
  -22.6970  -29.2340   22.5240 C   0  0  0  0  0  0  0  0  0  0  0  0
  -21.3850  -28.9750   22.4040 N   0  0  0  0  0  0  0  0  0  0  0  0
  -23.4340  -28.6010   23.2860 O   0  0  0  0  0  0  0  0  0  0  0  0
  -20.8490  -29.5440   21.7620 H   0  0  0  0  0  0  0  0  0  0  0  0
  -18.1230  -27.4700   22.7840 C   0  0  0  0  0  0  0  0  0  0  0  0
  -20.6450  -27.9350   23.1170 C   0  0  0  0  0  3  0  0  0  0  0  0
  -20.8800  -26.5450   22.4830 C   0  0  0  0  0  2  0  0  0  0  0  0
  -19.8300  -26.1800   21.4300 C   0  0  0  0  0  2  0  0  0  0  0  0
  -18.4270  -26.1770   22.0450 C   0  0  0  0  0  2  0  0  0  0  0  0
  -19.1650  -28.3030   23.2720 C   0  0  0  0  0  0  0  0  0  0  0  0
  -18.8300  -29.5170   23.9140 C   0  0  0  0  0  3  0  0  0  0  0  0
  -17.4840  -29.8950   24.0740 C   0  0  0  0  0  3  0  0  0  0  0  0
  -16.4560  -29.0600   23.6040 C   0  0  0  0  0  3  0  0  0  0  0  0
  -16.7770  -27.8500   22.9650 C   0  0  0  0  0  3  0  0  0  0  0  0
  -25.8370  -32.2480   23.9300 C   0  0  0  0  0  3  0  0  0  0  0  0
  -25.5330  -33.6210   24.3530 N   0  0  0  0  0  0  0  0  0  0  0  0
  -25.8480  -34.7200   23.6570 C   0  0  0  0  0  0  0  0  0  0  0  0
  -26.5070  -34.6860   22.6110 O   0  0  0  0  0  0  0  0  0  0  0  0
  -24.9580  -33.7220   25.1780 H   0  0  0  0  0  0  0  0  0  0  0  0
  -24.1190  -36.5290   23.4250 C   0  0  0  0  0  1  0  0  0  0  0  0
  -25.3610  -36.0740   24.2060 C   0  0  0  0  0  3  0  0  0  0  0  0
  -27.4970  -36.9040   25.0920 C   0  0  0  0  0  1  0  0  0  0  0  0
  -26.3910  -37.1350   24.1640 N   0  0  0  0  0  0  0  0  0  0  0  0
  -25.9850  -38.0410   24.3770 H   0  0  0  0  0  0  0  0  0  0  0  0
  -26.4180  -31.4090   25.1320 C   0  0  1  0  0  0  0  0  0  0  0  0
  -25.3720  -31.0890   26.2270 C   0  0  0  0  0  1  0  0  0  0  0  0
  -27.0090  -30.0690   24.6320 C   0  0  0  0  0  1  0  0  0  0  0  0
  -27.5790  -32.1860   25.7990 C   0  0  0  0  0  1  0  0  0  0  0  0
  -31.5940  -19.1760   21.7160 C   0  0  0  0  0  2  0  0  0  0  0  0
  -31.2150  -17.6480   21.7670 C   0  0  0  0  0  2  0  0  0  0  0  0
  -30.6370  -16.0010   19.8240 C   0  0  0  0  0  3  0  0  0  0  0  0
  -30.4550  -17.1460   20.5410 C   0  0  0  0  0  0  0  0  0  0  0  0
  -29.3310  -18.0890   20.1300 C   0  0  0  0  0  1  0  0  0  0  0  0
  -31.5360  -14.8440   19.9980 C   0  0  0  0  0  0  0  0  0  0  0  0
  -31.1260  -12.6100   19.0300 C   0  0  0  0  0  2  0  0  0  0  0  0
  -30.1550  -12.8050   17.8470 C   0  0  0  0  0  2  0  0  0  0  0  0
  -28.6850  -12.7760   18.3140 C   0  0  0  0  0  2  0  0  0  0  0  0
  -28.4310  -13.6950   19.5370 C   0  0  0  0  0  3  0  0  0  0  0  0
  -29.5150  -13.4880   20.6190 C   0  0  0  0  0  2  0  0  0  0  0  0
  -30.8430  -13.6690   20.0100 N   0  0  0  0  0  0  0  0  0  0  0  0
  -32.7350  -14.8980   19.7160 O   0  0  0  0  0  0  0  0  0  0  0  0
  -26.1870  -14.5480   20.4500 C   0  0  0  0  0  0  0  0  0  0  0  0
  -25.0470  -13.8920   20.8280 C   0  0  0  0  0  0  0  0  0  0  0  0
  -25.3300  -12.5000   20.6750 C   0  0  0  0  0  0  0  0  0  0  0  0
  -27.0900  -13.5580   20.0850 N   0  0  0  0  0  0  0  0  0  0  0  0
  -26.5840  -12.3180   20.2850 N   0  0  0  0  0  0  0  0  0  0  0  0
  -24.4620  -11.3280   20.8160 C   0  0  0  0  0  0  0  0  0  0  0  0
  -24.8370  -10.2260   21.6180 C   0  0  0  0  0  3  0  0  0  0  0  0
  -23.9790   -9.1140   21.7500 C   0  0  0  0  0  3  0  0  0  0  0  0
  -22.7320   -9.0990   21.0790 C   0  0  0  0  0  0  0  0  0  0  0  0
  -22.3730  -10.1890   20.2660 C   0  0  0  0  0  3  0  0  0  0  0  0
  -23.2320  -11.2910   20.1310 C   0  0  0  0  0  3  0  0  0  0  0  0
  -21.8450   -8.0500   21.1290 O   0  0  0  0  0  0  0  0  0  0  0  0
  -21.7000   -7.2850   22.2590 C   0  0  0  0  0  0  0  0  0  0  0  0
  -21.3740   -7.8560   23.5080 C   0  0  0  0  0  3  0  0  0  0  0  0
  -21.1640   -7.0250   24.6280 C   0  0  0  0  0  3  0  0  0  0  0  0
  -21.2710   -5.6260   24.4980 C   0  0  0  0  0  0  0  0  0  0  0  0
  -21.5910   -5.0580   23.2520 C   0  0  0  0  0  3  0  0  0  0  0  0
  -21.8000   -5.8850   22.1360 C   0  0  0  0  0  0  0  0  0  0  0  0
  -22.0860   -5.3300   20.9320 F   0  0  0  0  0  0  0  0  0  0  0  0
  -21.0600   -4.8270   25.5690 F   0  0  0  0  0  0  0  0  0  0  0  0
  -23.7370  -14.5190   21.2120 C   0  0  0  0  0  0  0  0  0  0  0  0
  -22.9820  -13.8750   22.0950 N   0  0  0  0  0  0  0  0  0  0  0  0
  -23.3960  -15.6130   20.7670 O   0  0  0  0  0  0  0  0  0  0  0  0
  -23.2630  -12.9900   22.4860 H   0  0  0  0  0  0  0  0  0  0  0  0
  -22.1040  -14.2830   22.3900 H   0  0  0  0  0  0  0  0  0  0  0  0
  -26.5180  -15.8980   20.3650 N   0  0  0  0  0  0  0  0  0  0  0  0
  -25.8620  -16.6300   20.6090 H   0  0  0  0  0  0  0  0  0  0  0  0
  -27.4260  -16.2500   20.0890 H   0  0  0  0  0  0  0  0  0  0  0  0
  1  2  1  0
  3  4  1  0
  3  6  2  0
  4  1  2  0
  5  2  2  0
  5  7  1  0
  6  5  1  0
 12  8  1  1
  8  4  1  0
  9 10  1  0
 11 12  1  0
 11  9  1  0
 12 10  1  0
 13 12  1  0
 14 16  1  0
 14 13  1  0
 15 26  2  0
 16 21  1  0
 17 25  1  0
 17 27  1  0
 18 24  1  0
 18 20  1  0
 19 25  1  0
 20 19  1  0
 21 20  2  0
 22 23  1  0
 22 16  2  0
 23 18  2  0
 24 17  1  0
 25 15  1  0
 27 29  2  0
 28 27  1  0
 30 28  1  0
 31 40  2  0
 31 36  1  0
 32 28  1  0
 32 36  1  0
 33 32  1  0
 34 35  1  0
 34 33  1  0
 35 31  1  0
 36 37  2  0
 37 38  1  0
 39 38  2  0
 40 39  1  0
 41 15  1  0
 41 42  1  0
 41 51  1  0
 42 45  1  0
 43 47  1  0
 43 42  1  0
 44 43  2  0
 47 46  1  0
 49 47  1  0
 49 50  1  0
 49 48  1  0
 51 54  1  1
 51 52  1  0
 53 51  1  0
 55 56  1  0
 55  6  1  0
 57 60  1  0
 57 58  2  0
 58 56  1  0
 59 58  1  0
 60 66  1  0
 61 66  1  0
 62 63  1  0
 62 61  1  0
 64 63  1  0
 64 71  1  0
 64 65  1  0
 66 65  1  0
 67 60  2  0
 68 69  2  0
 69 88  1  0
 70 73  1  0
 70 69  1  0
 71 72  1  0
 71 68  1  0
 72 70  2  0
 73 74  1  0
 74 75  2  0
 76 79  1  0
 76 75  1  0
 77 76  2  0
 78 77  1  0
 78 73  2  0
 79 80  1  0
 80 81  1  0
 81 82  2  0
 83 82  1  0
 83 87  1  0
 84 83  2  0
 85 80  2  0
 85 84  1  0
 86 85  1  0
 88 89  1  0
 89 92  1  0
 89 91  1  0
 90 88  2  0
 93 68  1  0
 93 94  1  0
 95 93  1  0
M  ISO  4  13 101  14 101  57 100  60 100
M  END
>  <TORSDO>  (28) 
F 22

>  <SCORE>  (28) 
-9.468

>  <name>  (28) 
27

>  <ligand_id>  (28) 
27

>  <original_smiles>  (28) 
[H]C(C(=O)N1C([H])([H])C([H])([H])C([H])([H])C([H])(n2nc(-c3c([H])c([H])c(Oc4c([H])c([H])c(F)c([H])c4F)c([H])c3[H])c(C(=O)N([H])[H])c2N([H])[H])C1([H])[H])=C(C([H])([H])[H])C([H])([H])C([H])([H])c1c([H])c(C([H])([H])C2(C([H])([H])Oc3c([H])c([H])c4c(c3[H])C([H])([H])N(C(=O)C([H])(N([H])C(=O)C([H])(N([H])C([H])([H])[H])C([H])([H])[H])C(C([H])([H])[H])(C([H])([H])[H])C([H])([H])[H])C([H])(C(=O)N([H])C3([H])c5c([H])c([H])c([H])c([H])c5C([H])([H])C([H])([H])C3([H])[H])C4([H])[H])C([H])([H])C([H])([H])C2([H])[H])c([H])c([H])c1C([H])([H])[H]

>  <smiles>  (28) 
[H]C(C(=O)N1C([H])([H])C([H])([H])C([H])([H])C([H])(n2nc(-c3c([H])c([H])c(Oc4c([H])c([H])c(F)c([H])c4F)c([H])c3[H])c(C(=O)N([H])[H])c2N([H])[H])C1([H])[H])=C(C([H])([H])[H])C([H])([H])C([H])([H])c1c([H])c(C([H])([H])C2(C([H])([H])Oc3c([H])c([H])c4c(c3[H])C([H])([H])N(C(=O)C([H])(N([H])C(=O)C([H])(N([H])C([H])([H])[H])C([H])([H])[H])C(C([H])([H])[H])(C([H])([H])[H])C([H])([H])[H])C([H])(C(=O)N([H])C3([H])c5c([H])c([H])c([H])c([H])c5C([H])([H])C([H])([H])C3([H])[H])C4([H])[H])C([H])([H])C([H])([H])C2([H])[H])c([H])c([H])c1C([H])([H])[H]

$$$$
28:0:0
     RDKit          3D

 93101  0  0  1  0  0  0  0  0999 V2000
  -29.3660  -22.7110   22.4170 C   0  0  0  0  0  3  0  0  0  0  0  0
  -29.9870  -21.4480   22.4300 C   0  0  0  0  0  3  0  0  0  0  0  0
  -29.1950  -22.5980   19.9910 C   0  0  0  0  0  3  0  0  0  0  0  0
  -28.9950  -23.3140   21.1950 C   0  0  0  0  0  0  0  0  0  0  0  0
  -30.2320  -20.7580   21.2250 C   0  0  0  0  0  0  0  0  0  0  0  0
  -29.8080  -21.3270   19.9980 C   0  0  0  0  0  0  0  0  0  0  0  0
  -30.0200  -20.6110   18.6740 C   0  0  0  0  0  1  0  0  0  0  0  0
  -28.3990  -24.6810   21.2020 C   0  0  0  0  0  0  0  0  0  0  0  0
  -27.8740  -25.1770   22.2060 O   0  0  0  0  0  0  0  0  0  0  0  0
  -28.5330  -25.5040   19.9060 C   0  0  0  0  0  2  0  0  0  0  0  0
  -28.4390  -26.9070   20.1690 O   0  0  0  0  0  0  0  0  0  0  0  0
  -24.5200  -31.9430   23.2440 C   0  0  0  0  0  0  0  0  0  0  0  0
  -27.2170  -27.5410   20.1690 C   0  0  0  0  0  0  0  0  0  0  0  0
  -23.3280  -30.5330   21.5970 C   0  0  0  0  0  3  0  0  0  0  0  0
  -24.7960  -29.0040   20.1810 C   0  0  0  0  0  0  0  0  0  0  0  0
  -25.8460  -30.9170   21.4030 C   0  0  0  0  0  2  0  0  0  0  0  0
  -25.9450  -29.5470   20.7680 C   0  0  0  0  0  0  0  0  0  0  0  0
  -27.1540  -28.8220   20.7580 C   0  0  0  0  0  3  0  0  0  0  0  0
  -26.0450  -26.9980   19.5910 C   0  0  0  0  0  3  0  0  0  0  0  0
  -24.8400  -27.7260   19.5930 C   0  0  0  0  0  3  0  0  0  0  0  0
  -23.5450  -29.8490   20.2190 C   0  0  0  0  0  2  0  0  0  0  0  0
  -24.5830  -31.1450   22.1410 N   0  0  0  0  0  0  0  0  0  0  0  0
  -23.4360  -32.2080   23.7810 O   0  0  0  0  0  0  0  0  0  0  0  0
  -22.6820  -29.5060   22.5560 C   0  0  0  0  0  0  0  0  0  0  0  0
  -21.3600  -29.3160   22.4220 N   0  0  0  0  0  0  0  0  0  0  0  0
  -23.3670  -28.8850   23.3720 O   0  0  0  0  0  0  0  0  0  0  0  0
  -20.8690  -29.8730   21.7350 H   0  0  0  0  0  0  0  0  0  0  0  0
  -17.9910  -28.1070   22.9000 C   0  0  0  0  0  0  0  0  0  0  0  0
  -20.5460  -28.3730   23.1850 C   0  0  0  0  0  3  0  0  0  0  0  0
  -20.6560  -26.9440   22.6050 C   0  0  0  0  0  2  0  0  0  0  0  0
  -19.5610  -26.6190   21.5850 C   0  0  0  0  0  2  0  0  0  0  0  0
  -18.1750  -26.7590   22.2230 C   0  0  0  0  0  2  0  0  0  0  0  0
  -19.1050  -28.8720   23.3380 C   0  0  0  0  0  0  0  0  0  0  0  0
  -18.8800  -30.1350   23.9280 C   0  0  0  0  0  3  0  0  0  0  0  0
  -17.5730  -30.6330   24.0850 C   0  0  0  0  0  3  0  0  0  0  0  0
  -16.4740  -29.8640   23.6660 C   0  0  0  0  0  3  0  0  0  0  0  0
  -16.6820  -28.6030   23.0800 C   0  0  0  0  0  3  0  0  0  0  0  0
  -25.8020  -32.5800   23.8680 C   0  0  0  0  0  3  0  0  0  0  0  0
  -25.4870  -33.9760   24.1940 N   0  0  0  0  0  0  0  0  0  0  0  0
  -25.8230  -35.0280   23.4350 C   0  0  0  0  0  0  0  0  0  0  0  0
  -26.5020  -34.9260   22.4090 O   0  0  0  0  0  0  0  0  0  0  0  0
  -24.8880  -34.1320   24.9910 H   0  0  0  0  0  0  0  0  0  0  0  0
  -24.0920  -36.8120   23.0580 C   0  0  0  0  0  1  0  0  0  0  0  0
  -25.3260  -36.4160   23.8840 C   0  0  0  0  0  3  0  0  0  0  0  0
  -27.4490  -37.3080   24.7340 C   0  0  0  0  0  1  0  0  0  0  0  0
  -26.3550  -37.4720   23.7810 N   0  0  0  0  0  0  0  0  0  0  0  0
  -25.9430  -38.3900   23.9250 H   0  0  0  0  0  0  0  0  0  0  0  0
  -26.3200  -31.8100   25.1460 C   0  0  1  0  0  0  0  0  0  0  0  0
  -25.2260  -31.5620   26.2070 C   0  0  0  0  0  1  0  0  0  0  0  0
  -26.9150  -30.4400   24.7490 C   0  0  0  0  0  1  0  0  0  0  0  0
  -27.4610  -32.6140   25.8150 C   0  0  0  0  0  1  0  0  0  0  0  0
  -31.0030  -19.4450   21.2780 C   0  0  0  0  0  2  0  0  0  0  0  0
  -30.1190  -18.1920   21.4390 C   0  0  0  0  0  2  0  0  0  0  0  0
  -30.9180  -16.8940   21.1890 C   0  0  0  0  0  3  0  0  0  0  0  0
  -31.9210  -16.7720   22.1880 O   0  0  0  0  0  0  0  0  0  0  0  0
  -31.4960  -16.7260   23.0400 H   0  0  0  0  0  0  0  0  0  0  0  0
  -30.0520  -15.6020   21.1350 C   0  0  0  0  0  2  0  0  0  0  0  0
  -30.6460  -14.4530   20.2860 C   0  0  0  0  0  0  0  0  0  0  0  0
  -30.2830  -12.3320   19.0760 C   0  0  0  0  0  2  0  0  0  0  0  0
  -29.3090  -12.5660   17.9040 C   0  0  0  0  0  2  0  0  0  0  0  0
  -27.8490  -12.4200   18.3750 C   0  0  0  0  0  2  0  0  0  0  0  0
  -27.5500  -13.2460   19.6540 C   0  0  0  0  0  3  0  0  0  0  0  0
  -28.6350  -13.0110   20.7300 C   0  0  0  0  0  2  0  0  0  0  0  0
  -29.9480  -13.2980   20.1330 N   0  0  0  0  0  0  0  0  0  0  0  0
  -31.7120  -14.6460   19.6920 O   0  0  0  0  0  0  0  0  0  0  0  0
  -25.1730  -13.8450   20.4400 C   0  0  0  0  0  0  0  0  0  0  0  0
  -24.1150  -13.0670   20.8280 C   0  0  0  0  0  0  0  0  0  0  0  0
  -24.5740  -11.7160   20.7630 C   0  0  0  0  0  0  0  0  0  0  0  0
  -26.2110  -12.9670   20.1670 N   0  0  0  0  0  0  0  0  0  0  0  0
  -25.8550  -11.6810   20.4160 N   0  0  0  0  0  0  0  0  0  0  0  0
  -23.8540  -10.4500   20.9550 C   0  0  0  0  0  0  0  0  0  0  0  0
  -24.2940   -9.4840   21.8860 C   0  0  0  0  0  3  0  0  0  0  0  0
  -23.5730   -8.2830   22.0660 C   0  0  0  0  0  3  0  0  0  0  0  0
  -22.4000   -8.0400   21.3140 C   0  0  0  0  0  0  0  0  0  0  0  0
  -21.9790   -8.9960   20.3720 C   0  0  0  0  0  3  0  0  0  0  0  0
  -22.7000  -10.1880   20.1900 C   0  0  0  0  0  3  0  0  0  0  0  0
  -21.6500   -6.8920   21.4030 O   0  0  0  0  0  0  0  0  0  0  0  0
  -21.5920   -6.1600   22.5620 C   0  0  0  0  0  0  0  0  0  0  0  0
  -21.1380   -6.7200   23.7760 C   0  0  0  0  0  3  0  0  0  0  0  0
  -21.0270   -5.9120   24.9260 C   0  0  0  0  0  3  0  0  0  0  0  0
  -21.3600   -4.5460   24.8630 C   0  0  0  0  0  0  0  0  0  0  0  0
  -21.8070   -3.9860   23.6540 C   0  0  0  0  0  3  0  0  0  0  0  0
  -21.9200   -4.7890   22.5050 C   0  0  0  0  0  0  0  0  0  0  0  0
  -22.3310   -4.2390   21.3380 F   0  0  0  0  0  0  0  0  0  0  0  0
  -21.2460   -3.7690   25.9650 F   0  0  0  0  0  0  0  0  0  0  0  0
  -22.7260  -13.5380   21.1500 C   0  0  0  0  0  0  0  0  0  0  0  0
  -22.0250  -12.8280   22.0270 N   0  0  0  0  0  0  0  0  0  0  0  0
  -22.2720  -14.5710   20.6600 O   0  0  0  0  0  0  0  0  0  0  0  0
  -22.4060  -11.9920   22.4450 H   0  0  0  0  0  0  0  0  0  0  0  0
  -21.0960  -13.1270   22.2870 H   0  0  0  0  0  0  0  0  0  0  0  0
  -25.3340  -15.2180   20.2780 N   0  0  0  0  0  0  0  0  0  0  0  0
  -24.5740  -15.8750   20.4220 H   0  0  0  0  0  0  0  0  0  0  0  0
  -26.1810  -15.6590   19.9430 H   0  0  0  0  0  0  0  0  0  0  0  0
  1  2  1  0
  3  6  2  0
  3  4  1  0
  4  8  1  0
  4  1  2  0
  5 52  1  0
  5  2  2  0
  6  5  1  0
  7  6  1  0
  8  9  2  0
 10 11  1  0
 10  8  1  0
 11 13  1  0
 12 23  2  0
 13 18  1  0
 14 22  1  0
 14 24  1  0
 15 21  1  0
 15 17  1  0
 16 22  1  0
 17 16  1  0
 18 17  2  0
 19 20  1  0
 19 13  2  0
 20 15  2  0
 21 14  1  0
 22 12  1  0
 24 26  2  0
 25 24  1  0
 27 25  1  0
 28 37  2  0
 28 33  1  0
 29 25  1  0
 29 33  1  0
 30 29  1  0
 31 32  1  0
 31 30  1  0
 32 28  1  0
 33 34  2  0
 34 35  1  0
 36 35  2  0
 37 36  1  0
 38 12  1  0
 38 39  1  0
 38 48  1  0
 39 42  1  0
 40 44  1  0
 40 39  1  0
 41 40  2  0
 44 43  1  0
 46 44  1  0
 46 47  1  0
 46 45  1  0
 48 51  1  1
 48 49  1  0
 50 48  1  0
 52 53  1  0
 54 57  1  0
 54 53  1  0
 54 55  1  0
 55 56  1  0
 58 57  1  0
 59 64  1  0
 60 61  1  0
 60 59  1  0
 62 61  1  0
 62 69  1  0
 62 63  1  0
 64 58  1  0
 64 63  1  0
 65 58  2  0
 66 67  2  0
 67 86  1  0
 68 67  1  0
 68 71  1  0
 69 70  1  0
 69 66  1  0
 70 68  2  0
 71 72  1  0
 72 73  2  0
 74 77  1  0
 74 73  1  0
 75 74  2  0
 76 75  1  0
 76 71  2  0
 77 78  1  0
 78 79  1  0
 79 80  2  0
 81 80  1  0
 81 85  1  0
 82 81  2  0
 83 78  2  0
 83 82  1  0
 84 83  1  0
 86 87  1  0
 87 90  1  0
 87 89  1  0
 88 86  2  0
 91 92  1  0
 91 66  1  0
 93 91  1  0
M  ISO  4  10 101  11 101  57 100  58 100
M  END
>  <TORSDO>  (29) 
F 23

>  <SCORE>  (29) 
-12.690

>  <name>  (29) 
28

>  <ligand_id>  (29) 
28

>  <original_smiles>  (29) 
[H]OC([H])(C([H])([H])C(=O)N1C([H])([H])C([H])([H])C([H])([H])C([H])(n2nc(-c3c([H])c([H])c(Oc4c([H])c([H])c(F)c([H])c4F)c([H])c3[H])c(C(=O)N([H])[H])c2N([H])[H])C1([H])[H])C([H])([H])C([H])([H])c1c([H])c([H])c(C(=O)C([H])([H])Oc2c([H])c([H])c3c(c2[H])C([H])([H])N(C(=O)C([H])(N([H])C(=O)C([H])(N([H])C([H])([H])[H])C([H])([H])[H])C(C([H])([H])[H])(C([H])([H])[H])C([H])([H])[H])C([H])(C(=O)N([H])C2([H])c4c([H])c([H])c([H])c([H])c4C([H])([H])C([H])([H])C2([H])[H])C3([H])[H])c([H])c1C([H])([H])[H]

>  <smiles>  (29) 
[H]OC([H])(C([H])([H])C(=O)N1C([H])([H])C([H])([H])C([H])([H])C([H])(n2nc(-c3c([H])c([H])c(Oc4c([H])c([H])c(F)c([H])c4F)c([H])c3[H])c(C(=O)N([H])[H])c2N([H])[H])C1([H])[H])C([H])([H])C([H])([H])c1c([H])c([H])c(C(=O)C([H])([H])Oc2c([H])c([H])c3c(c2[H])C([H])([H])N(C(=O)C([H])(N([H])C(=O)C([H])(N([H])C([H])([H])[H])C([H])([H])[H])C(C([H])([H])[H])(C([H])([H])[H])C([H])([H])[H])C([H])(C(=O)N([H])C2([H])c4c([H])c([H])c([H])c([H])c4C([H])([H])C([H])([H])C2([H])[H])C3([H])[H])c([H])c1C([H])([H])[H]

$$$$
29:0:0
     RDKit          3D

 93101  0  0  1  0  0  0  0  0999 V2000
  -26.9820  -21.2920   19.6240 C   0  0  0  0  0  1  0  0  0  0  0  0
  -28.4750  -21.6780   19.5820 C   0  0  0  0  0  3  0  0  0  0  0  0
  -31.7400  -19.6420   19.8940 C   0  0  0  0  0  3  0  0  0  0  0  0
  -31.2840  -18.3230   20.0730 C   0  0  0  0  0  3  0  0  0  0  0  0
  -30.8280  -20.7100   19.7810 C   0  0  0  0  0  3  0  0  0  0  0  0
  -28.9910  -19.1440   20.0800 C   0  0  0  0  0  3  0  0  0  0  0  0
  -29.9030  -18.0510   20.1740 C   0  0  0  0  0  0  0  0  0  0  0  0
  -29.4350  -20.4870   19.8620 C   0  0  0  0  0  0  0  0  0  0  0  0
  -29.3760  -16.5980   20.2870 C   0  0  0  0  0  2  0  0  0  0  0  0
  -30.8100  -14.5600   20.1440 C   0  0  0  0  0  0  0  0  0  0  0  0
  -30.4480  -12.4010   18.9890 C   0  0  0  0  0  2  0  0  0  0  0  0
  -29.4560  -12.5880   17.8230 C   0  0  0  0  0  2  0  0  0  0  0  0
  -28.0030  -12.4400   18.3170 C   0  0  0  0  0  2  0  0  0  0  0  0
  -27.7140  -13.2880   19.5840 C   0  0  0  0  0  3  0  0  0  0  0  0
  -28.8170  -13.0890   20.6490 C   0  0  0  0  0  2  0  0  0  0  0  0
  -30.1150  -13.3930   20.0250 N   0  0  0  0  0  0  0  0  0  0  0  0
  -31.8980  -14.7400   19.5840 O   0  0  0  0  0  0  0  0  0  0  0  0
  -30.8530  -15.8980   22.1690 C   0  0  0  0  0  1  0  0  0  0  0  0
  -30.2430  -15.5470   20.8870 N   0  0  0  0  0  0  0  0  0  0  0  0
  -25.3620  -13.9090   20.4180 C   0  0  0  0  0  0  0  0  0  0  0  0
  -24.3030  -13.1420   20.8210 C   0  0  0  0  0  0  0  0  0  0  0  0
  -24.7440  -11.7860   20.7450 C   0  0  0  0  0  0  0  0  0  0  0  0
  -26.3830  -13.0190   20.1210 N   0  0  0  0  0  0  0  0  0  0  0  0
  -26.0190  -11.7360   20.3760 N   0  0  0  0  0  0  0  0  0  0  0  0
  -24.0120  -10.5300   20.9470 C   0  0  0  0  0  0  0  0  0  0  0  0
  -24.4570   -9.5580   21.8700 C   0  0  0  0  0  3  0  0  0  0  0  0
  -23.7280   -8.3640   22.0590 C   0  0  0  0  0  3  0  0  0  0  0  0
  -22.5410   -8.1330   21.3260 C   0  0  0  0  0  0  0  0  0  0  0  0
  -22.1150   -9.0930   20.3910 C   0  0  0  0  0  3  0  0  0  0  0  0
  -22.8440  -10.2780   20.1990 C   0  0  0  0  0  3  0  0  0  0  0  0
  -21.7800   -6.9930   21.4270 O   0  0  0  0  0  0  0  0  0  0  0  0
  -21.7190   -6.2690   22.5900 C   0  0  0  0  0  0  0  0  0  0  0  0
  -21.2850   -6.8430   23.8040 C   0  0  0  0  0  3  0  0  0  0  0  0
  -21.1730   -6.0450   24.9600 C   0  0  0  0  0  3  0  0  0  0  0  0
  -21.4810   -4.6730   24.9020 C   0  0  0  0  0  0  0  0  0  0  0  0
  -21.9080   -4.0980   23.6910 C   0  0  0  0  0  3  0  0  0  0  0  0
  -22.0240   -4.8940   22.5390 C   0  0  0  0  0  0  0  0  0  0  0  0
  -22.4160   -4.3290   21.3700 F   0  0  0  0  0  0  0  0  0  0  0  0
  -21.3640   -3.9050   26.0090 F   0  0  0  0  0  0  0  0  0  0  0  0
  -22.9250  -13.6310   21.1660 C   0  0  0  0  0  0  0  0  0  0  0  0
  -22.2300  -12.9300   22.0540 N   0  0  0  0  0  0  0  0  0  0  0  0
  -22.4770  -14.6680   20.6800 O   0  0  0  0  0  0  0  0  0  0  0  0
  -22.6070  -12.0910   22.4680 H   0  0  0  0  0  0  0  0  0  0  0  0
  -21.3060  -13.2370   22.3250 H   0  0  0  0  0  0  0  0  0  0  0  0
  -25.5340  -15.2800   20.2560 N   0  0  0  0  0  0  0  0  0  0  0  0
  -24.7810  -15.9410   20.4110 H   0  0  0  0  0  0  0  0  0  0  0  0
  -26.3690  -15.7130   19.8840 H   0  0  0  0  0  0  0  0  0  0  0  0
  -28.7200  -22.8830   20.4330 N   0  0  0  0  0  4  0  0  0  0  0  0
  -28.1830  -22.7750   21.2780 H   0  0  0  0  0  0  0  0  0  0  0  0
  -29.6910  -22.8740   20.7050 H   0  0  0  0  0  0  0  0  0  0  0  0
  -28.4180  -24.2110   19.7900 C   0  0  0  0  0  2  0  0  0  0  0  0
  -28.3630  -25.4140   20.7810 C   0  0  0  0  0  2  0  0  0  0  0  0
  -28.4030  -26.7250   20.1640 O   0  0  0  0  0  0  0  0  0  0  0  0
  -24.5740  -31.9240   23.2350 C   0  0  0  0  0  0  0  0  0  0  0  0
  -27.2350  -27.4640   20.1780 C   0  0  0  0  0  0  0  0  0  0  0  0
  -23.3770  -30.5150   21.5930 C   0  0  0  0  0  3  0  0  0  0  0  0
  -24.8390  -28.9760   20.1740 C   0  0  0  0  0  0  0  0  0  0  0  0
  -25.9020  -30.8790   21.3970 C   0  0  0  0  0  2  0  0  0  0  0  0
  -25.9950  -29.5040   20.7620 C   0  0  0  0  0  0  0  0  0  0  0  0
  -27.1990  -28.7590   20.7520 C   0  0  0  0  0  3  0  0  0  0  0  0
  -26.0620  -26.9530   19.5840 C   0  0  0  0  0  3  0  0  0  0  0  0
  -24.8680  -27.7010   19.5790 C   0  0  0  0  0  3  0  0  0  0  0  0
  -23.5920  -29.8330   20.2150 C   0  0  0  0  0  2  0  0  0  0  0  0
  -24.6360  -31.1230   22.1330 N   0  0  0  0  0  0  0  0  0  0  0  0
  -23.4910  -32.1920   23.7730 O   0  0  0  0  0  0  0  0  0  0  0  0
  -22.7260  -29.4940   22.5540 C   0  0  0  0  0  0  0  0  0  0  0  0
  -21.4000  -29.3170   22.4330 N   0  0  0  0  0  0  0  0  0  0  0  0
  -23.4120  -28.8640   23.3640 O   0  0  0  0  0  0  0  0  0  0  0  0
  -20.9070  -29.8770   21.7500 H   0  0  0  0  0  0  0  0  0  0  0  0
  -18.0240  -28.1310   22.9430 C   0  0  0  0  0  0  0  0  0  0  0  0
  -20.5850  -28.3780   23.2040 C   0  0  0  0  0  3  0  0  0  0  0  0
  -20.6780  -26.9500   22.6200 C   0  0  0  0  0  2  0  0  0  0  0  0
  -19.5700  -26.6360   21.6090 C   0  0  0  0  0  2  0  0  0  0  0  0
  -18.1920  -26.7840   22.2620 C   0  0  0  0  0  2  0  0  0  0  0  0
  -19.1480  -28.8880   23.3710 C   0  0  0  0  0  0  0  0  0  0  0  0
  -18.9370  -30.1490   23.9680 C   0  0  0  0  0  3  0  0  0  0  0  0
  -17.6350  -30.6550   24.1410 C   0  0  0  0  0  3  0  0  0  0  0  0
  -16.5260  -29.8960   23.7310 C   0  0  0  0  0  3  0  0  0  0  0  0
  -16.7210  -28.6360   23.1370 C   0  0  0  0  0  3  0  0  0  0  0  0
  -25.8560  -32.5600   23.8570 C   0  0  0  0  0  3  0  0  0  0  0  0
  -25.5420  -33.9570   24.1890 N   0  0  0  0  0  0  0  0  0  0  0  0
  -25.8660  -35.0100   23.4280 C   0  0  0  0  0  0  0  0  0  0  0  0
  -26.5320  -34.9100   22.3930 O   0  0  0  0  0  0  0  0  0  0  0  0
  -24.9530  -34.1070   24.9940 H   0  0  0  0  0  0  0  0  0  0  0  0
  -24.1240  -36.7910   23.0810 C   0  0  0  0  0  1  0  0  0  0  0  0
  -25.3720  -36.3960   23.8860 C   0  0  0  0  0  3  0  0  0  0  0  0
  -27.5060  -37.2940   24.7030 C   0  0  0  0  0  1  0  0  0  0  0  0
  -26.3970  -37.4560   23.7680 N   0  0  0  0  0  0  0  0  0  0  0  0
  -25.9850  -38.3730   23.9190 H   0  0  0  0  0  0  0  0  0  0  0  0
  -26.3790  -31.7880   25.1300 C   0  0  1  0  0  0  0  0  0  0  0  0
  -25.2920  -31.5430   26.2020 C   0  0  0  0  0  1  0  0  0  0  0  0
  -26.9650  -30.4140   24.7300 C   0  0  0  0  0  1  0  0  0  0  0  0
  -27.5300  -32.5840   25.7910 C   0  0  0  0  0  1  0  0  0  0  0  0
  2  1  1  0
  2  8  1  0
  2 48  1  0
  3  4  1  0
  4  7  2  0
  5  8  1  0
  5  3  2  0
  6  7  1  0
  7  9  1  0
  8  6  2  0
  9 19  1  0
 10 19  1  0
 11 16  1  0
 12 13  1  0
 12 11  1  0
 14 13  1  0
 14 23  1  0
 14 15  1  0
 16 10  1  0
 16 15  1  0
 17 10  2  0
 19 18  1  0
 20 21  2  0
 21 40  1  0
 22 21  1  0
 22 25  1  0
 23 24  1  0
 23 20  1  0
 24 22  2  0
 25 26  1  0
 26 27  2  0
 28 31  1  0
 28 27  1  0
 29 28  2  0
 30 29  1  0
 30 25  2  0
 31 32  1  0
 32 33  1  0
 33 34  2  0
 35 34  1  0
 35 39  1  0
 36 35  2  0
 37 32  2  0
 37 36  1  0
 38 37  1  0
 40 41  1  0
 41 44  1  0
 41 43  1  0
 42 40  2  0
 45 46  1  0
 45 20  1  0
 47 45  1  0
 48 50  1  0
 48 49  1  0
 51 48  1  0
 51 52  1  0
 53 55  1  0
 53 52  1  0
 54 65  2  0
 55 60  1  0
 56 64  1  0
 56 66  1  0
 57 63  1  0
 57 59  1  0
 58 64  1  0
 59 58  1  0
 60 59  2  0
 61 55  2  0
 62 61  1  0
 62 57  2  0
 63 56  1  0
 64 54  1  0
 66 68  2  0
 67 66  1  0
 69 67  1  0
 70 79  2  0
 70 75  1  0
 71 67  1  0
 71 75  1  0
 72 71  1  0
 73 74  1  0
 73 72  1  0
 74 70  1  0
 75 76  2  0
 76 77  1  0
 78 77  2  0
 79 78  1  0
 80 54  1  0
 80 81  1  0
 80 90  1  0
 81 84  1  0
 82 86  1  0
 82 81  1  0
 83 82  2  0
 86 85  1  0
 88 86  1  0
 88 89  1  0
 88 87  1  0
 90 93  1  1
 90 91  1  0
 92 90  1  0
M  ISO  4  10 100  19 100  52 101  53 101
M  END
>  <TORSDO>  (30) 
F 21

>  <SCORE>  (30) 
-13.250

>  <name>  (30) 
29

>  <ligand_id>  (30) 
29

>  <original_smiles>  (30) 
[H]c1c([H])c([H])c2c(c1[H])C([H])([H])C([H])([H])C([H])([H])C2([H])N([H])C(=O)C1([H])N(C(=O)C([H])(N([H])C(=O)C([H])(N([H])C([H])([H])[H])C([H])([H])[H])C(C([H])([H])[H])(C([H])([H])[H])C([H])([H])[H])C([H])([H])c2c([H])c(OC([H])([H])C([H])([H])[N+]([H])([H])C([H])(c3c([H])c([H])c([H])c(C([H])([H])N(C(=O)N4C([H])([H])C([H])([H])C([H])([H])C([H])(n5nc(-c6c([H])c([H])c(Oc7c([H])c([H])c(F)c([H])c7F)c([H])c6[H])c(C(=O)N([H])[H])c5N([H])[H])C4([H])[H])C([H])([H])[H])c3[H])C([H])([H])[H])c([H])c([H])c2C1([H])[H]

>  <smiles>  (30) 
[H]c1c([H])c([H])c2c(c1[H])C([H])([H])C([H])([H])C([H])([H])C2([H])N([H])C(=O)C1([H])N(C(=O)C([H])(N([H])C(=O)C([H])(N([H])C([H])([H])[H])C([H])([H])[H])C(C([H])([H])[H])(C([H])([H])[H])C([H])([H])[H])C([H])([H])c2c([H])c(OC([H])([H])C([H])([H])[N+]([H])([H])C([H])(c3c([H])c([H])c([H])c(C([H])([H])N(C(=O)N4C([H])([H])C([H])([H])C([H])([H])C([H])(n5nc(-c6c([H])c([H])c(Oc7c([H])c([H])c(F)c([H])c7F)c([H])c6[H])c(C(=O)N([H])[H])c5N([H])[H])C4([H])[H])C([H])([H])[H])c3[H])C([H])([H])[H])c([H])c([H])c2C1([H])[H]

$$$$
30:0:0
     RDKit          3D

 89 96  0  0  1  0  0  0  0  0999 V2000
  -29.9260  -23.9140   21.5990 C   0  0  0  0  0  1  0  0  0  0  0  0
  -27.5260  -23.3410   21.6450 C   0  0  0  0  0  1  0  0  0  0  0  0
  -28.7390  -23.5000   20.7160 C   0  0  2  0  0  0  0  0  0  0  0  0
  -29.0470  -21.9890   20.0170 C   0  0  0  0  0  2  0  0  0  0  0  0
  -31.1270  -20.7460   21.0830 C   0  0  0  0  0  1  0  0  0  0  0  0
  -29.6230  -20.5870   20.7700 C   0  0  0  0  0  3  0  0  0  0  0  0
  -29.4140  -19.1490   20.1450 N   0  0  0  0  0  4  0  0  0  0  0  0
  -28.4240  -18.9720   20.1880 H   0  0  0  0  0  0  0  0  0  0  0  0
  -29.6450  -19.2110   19.1640 H   0  0  0  0  0  0  0  0  0  0  0  0
  -30.1560  -17.8480   20.6590 C   0  0  0  0  0  2  0  0  0  0  0  0
  -29.6150  -16.2940   20.3470 C   0  0  0  0  0  2  0  0  0  0  0  0
  -30.5080  -14.9090   20.2840 C   0  0  0  0  0  0  0  0  0  0  0  0
  -30.3780  -12.5630   19.3480 C   0  0  0  0  0  2  0  0  0  0  0  0
  -29.4250  -12.5740   18.1260 C   0  0  0  0  0  2  0  0  0  0  0  0
  -27.9620  -12.3830   18.5720 C   0  0  0  0  0  2  0  0  0  0  0  0
  -27.5840  -13.2880   19.7720 C   0  0  0  0  0  3  0  0  0  0  0  0
  -28.6570  -13.2550   20.8810 C   0  0  0  0  0  2  0  0  0  0  0  0
  -29.9390  -13.6400   20.2760 N   0  0  0  0  0  0  0  0  0  0  0  0
  -31.7090  -14.9910   20.0030 O   0  0  0  0  0  0  0  0  0  0  0  0
  -25.2080  -13.8720   20.5390 C   0  0  0  0  0  0  0  0  0  0  0  0
  -24.1470  -13.0940   20.9180 C   0  0  0  0  0  0  0  0  0  0  0  0
  -24.6120  -11.7450   20.8830 C   0  0  0  0  0  0  0  0  0  0  0  0
  -26.2480  -12.9930   20.2850 N   0  0  0  0  0  0  0  0  0  0  0  0
  -25.9000  -11.7080   20.5580 N   0  0  0  0  0  0  0  0  0  0  0  0
  -23.8890  -10.4810   21.0850 C   0  0  0  0  0  0  0  0  0  0  0  0
  -24.3440   -9.5010   21.9930 C   0  0  0  0  0  3  0  0  0  0  0  0
  -23.6180   -8.3030   22.1810 C   0  0  0  0  0  3  0  0  0  0  0  0
  -22.4230   -8.0780   21.4570 C   0  0  0  0  0  0  0  0  0  0  0  0
  -21.9860   -9.0470   20.5380 C   0  0  0  0  0  3  0  0  0  0  0  0
  -22.7120  -10.2360   20.3500 C   0  0  0  0  0  3  0  0  0  0  0  0
  -21.6670   -6.9360   21.5550 O   0  0  0  0  0  0  0  0  0  0  0  0
  -21.6690   -6.1660   22.6900 C   0  0  0  0  0  0  0  0  0  0  0  0
  -21.3180   -6.6980   23.9490 C   0  0  0  0  0  3  0  0  0  0  0  0
  -21.2660   -5.8560   25.0780 C   0  0  0  0  0  3  0  0  0  0  0  0
  -21.5540   -4.4840   24.9500 C   0  0  0  0  0  0  0  0  0  0  0  0
  -21.8960   -3.9510   23.6940 C   0  0  0  0  0  3  0  0  0  0  0  0
  -21.9530   -4.7910   22.5670 C   0  0  0  0  0  0  0  0  0  0  0  0
  -22.2630   -4.2670   21.3560 F   0  0  0  0  0  0  0  0  0  0  0  0
  -21.4960   -3.6740   26.0330 F   0  0  0  0  0  0  0  0  0  0  0  0
  -22.7530  -13.5710   21.2070 C   0  0  0  0  0  0  0  0  0  0  0  0
  -22.0360  -12.8750   22.0820 N   0  0  0  0  0  0  0  0  0  0  0  0
  -22.3100  -14.5970   20.6930 O   0  0  0  0  0  0  0  0  0  0  0  0
  -22.4130  -12.0470   22.5150 H   0  0  0  0  0  0  0  0  0  0  0  0
  -21.1030  -13.1800   22.3230 H   0  0  0  0  0  0  0  0  0  0  0  0
  -25.3690  -15.2420   20.3630 N   0  0  0  0  0  0  0  0  0  0  0  0
  -24.6020  -15.8990   20.4690 H   0  0  0  0  0  0  0  0  0  0  0  0
  -26.2120  -15.6760   20.0050 H   0  0  0  0  0  0  0  0  0  0  0  0
  -28.3710  -24.8330   19.7770 C   0  0  0  0  0  2  0  0  0  0  0  0
  -28.3280  -26.2970   20.2590 O   0  0  0  0  0  0  0  0  0  0  0  0
  -24.6390  -31.8730   23.2270 C   0  0  0  0  0  0  0  0  0  0  0  0
  -27.2200  -27.2060   20.1590 C   0  0  0  0  0  0  0  0  0  0  0  0
  -23.4230  -30.4740   21.5990 C   0  0  0  0  0  3  0  0  0  0  0  0
  -24.8650  -28.9050   20.1590 C   0  0  0  0  0  0  0  0  0  0  0  0
  -25.9710  -30.7570   21.4060 C   0  0  0  0  0  2  0  0  0  0  0  0
  -26.0440  -29.3680   20.7560 C   0  0  0  0  0  0  0  0  0  0  0  0
  -27.2150  -28.5320   20.7430 C   0  0  0  0  0  3  0  0  0  0  0  0
  -26.0170  -26.8380   19.5100 C   0  0  0  0  0  3  0  0  0  0  0  0
  -24.8650  -27.6560   19.5180 C   0  0  0  0  0  3  0  0  0  0  0  0
  -23.6300  -29.7920   20.2180 C   0  0  0  0  0  2  0  0  0  0  0  0
  -24.6970  -31.0550   22.1330 N   0  0  0  0  0  0  0  0  0  0  0  0
  -23.5580  -32.1520   23.7660 O   0  0  0  0  0  0  0  0  0  0  0  0
  -22.7640  -29.4630   22.5690 C   0  0  0  0  0  0  0  0  0  0  0  0
  -21.4360  -29.2860   22.4530 N   0  0  0  0  0  0  0  0  0  0  0  0
  -23.4490  -28.8420   23.3840 O   0  0  0  0  0  0  0  0  0  0  0  0
  -20.9480  -29.8390   21.7640 H   0  0  0  0  0  0  0  0  0  0  0  0
  -18.0670  -28.0640   22.9630 C   0  0  0  0  0  0  0  0  0  0  0  0
  -20.6230  -28.3480   23.2300 C   0  0  0  0  0  3  0  0  0  0  0  0
  -20.7370  -26.9130   22.6640 C   0  0  0  0  0  2  0  0  0  0  0  0
  -19.6360  -26.5730   21.6540 C   0  0  0  0  0  2  0  0  0  0  0  0
  -18.2540  -26.7110   22.2960 C   0  0  0  0  0  2  0  0  0  0  0  0
  -19.1790  -28.8390   23.3850 C   0  0  0  0  0  0  0  0  0  0  0  0
  -18.9490  -30.1040   23.9660 C   0  0  0  0  0  3  0  0  0  0  0  0
  -17.6390  -30.5900   24.1390 C   0  0  0  0  0  3  0  0  0  0  0  0
  -16.5410  -29.8120   23.7310 C   0  0  0  0  0  3  0  0  0  0  0  0
  -16.7570  -28.5530   23.1450 C   0  0  0  0  0  3  0  0  0  0  0  0
  -25.9220  -32.5120   23.8420 C   0  0  0  0  0  3  0  0  0  0  0  0
  -25.6090  -33.9080   24.1870 N   0  0  0  0  0  0  0  0  0  0  0  0
  -25.9230  -34.9680   23.4310 C   0  0  0  0  0  0  0  0  0  0  0  0
  -26.5770  -34.8740   22.3890 O   0  0  0  0  0  0  0  0  0  0  0  0
  -25.0250  -34.0520   24.9970 H   0  0  0  0  0  0  0  0  0  0  0  0
  -24.1760  -36.7550   23.1200 C   0  0  0  0  0  1  0  0  0  0  0  0
  -25.4380  -36.3530   23.9010 C   0  0  0  0  0  3  0  0  0  0  0  0
  -27.5870  -37.2440   24.6890 C   0  0  0  0  0  1  0  0  0  0  0  0
  -26.4610  -37.4150   23.7720 N   0  0  0  0  0  0  0  0  0  0  0  0
  -26.0550  -38.3310   23.9420 H   0  0  0  0  0  0  0  0  0  0  0  0
  -26.4500  -31.7380   25.1140 C   0  0  1  0  0  0  0  0  0  0  0  0
  -25.3670  -31.4920   26.1910 C   0  0  0  0  0  1  0  0  0  0  0  0
  -27.0390  -30.3640   24.7190 C   0  0  0  0  0  1  0  0  0  0  0  0
  -27.6090  -32.5310   25.7620 C   0  0  0  0  0  1  0  0  0  0  0  0
  3  1  1  1
  3  2  1  0
  4  3  1  0
  4  6  1  0
  6  5  1  0
  7  8  1  0
  7 10  1  0
  7  6  1  0
  9  7  1  0
 11 10  1  0
 12 11  1  0
 13 18  1  0
 14 15  1  0
 14 13  1  0
 16 15  1  0
 16 23  1  0
 16 17  1  0
 18 12  1  0
 18 17  1  0
 19 12  2  0
 20 21  2  0
 21 40  1  0
 22 21  1  0
 22 25  1  0
 23 20  1  0
 23 24  1  0
 24 22  2  0
 25 26  1  0
 26 27  2  0
 28 31  1  0
 28 27  1  0
 29 28  2  0
 30 29  1  0
 30 25  2  0
 31 32  1  0
 32 33  1  0
 33 34  2  0
 35 34  1  0
 35 39  1  0
 36 35  2  0
 37 32  2  0
 37 36  1  0
 38 37  1  0
 40 41  1  0
 41 44  1  0
 41 43  1  0
 42 40  2  0
 45 46  1  0
 45 20  1  0
 47 45  1  0
 48 49  1  0
 48  3  1  0
 50 61  2  0
 51 49  1  0
 51 56  1  0
 52 60  1  0
 52 62  1  0
 53 59  1  0
 53 55  1  0
 54 60  1  0
 55 54  1  0
 56 55  2  0
 57 58  1  0
 57 51  2  0
 58 53  2  0
 59 52  1  0
 60 50  1  0
 62 64  2  0
 63 62  1  0
 65 63  1  0
 66 75  2  0
 66 71  1  0
 67 63  1  0
 67 71  1  0
 68 67  1  0
 69 70  1  0
 69 68  1  0
 70 66  1  0
 71 72  2  0
 72 73  1  0
 74 73  2  0
 75 74  1  0
 76 50  1  0
 76 77  1  0
 76 86  1  0
 77 80  1  0
 78 82  1  0
 78 77  1  0
 79 78  2  0
 82 81  1  0
 84 82  1  0
 84 85  1  0
 84 83  1  0
 86 89  1  1
 86 87  1  0
 88 86  1  0
M  ISO  4  11 100  12 100  48 101  49 101
M  END
>  <TORSDO>  (31) 
F 22

>  <SCORE>  (31) 
-12.999

>  <name>  (31) 
30

>  <ligand_id>  (31) 
30

>  <original_smiles>  (31) 
[H]c1c([H])c([H])c2c(c1[H])C([H])([H])C([H])([H])C([H])([H])C2([H])N([H])C(=O)C1([H])N(C(=O)C([H])(N([H])C(=O)C([H])(N([H])C([H])([H])[H])C([H])([H])[H])C(C([H])([H])[H])(C([H])([H])[H])C([H])([H])[H])C([H])([H])c2c([H])c(OC([H])([H])C(C([H])([H])[H])(C([H])([H])[H])C([H])([H])C([H])(C([H])([H])[H])[N+]([H])([H])C([H])([H])C([H])([H])C(=O)N3C([H])([H])C([H])([H])C([H])([H])C([H])(n4nc(-c5c([H])c([H])c(Oc6c([H])c([H])c(F)c([H])c6F)c([H])c5[H])c(C(=O)N([H])[H])c4N([H])[H])C3([H])[H])c([H])c([H])c2C1([H])[H]

>  <smiles>  (31) 
[H]c1c([H])c([H])c2c(c1[H])C([H])([H])C([H])([H])C([H])([H])C2([H])N([H])C(=O)C1([H])N(C(=O)C([H])(N([H])C(=O)C([H])(N([H])C([H])([H])[H])C([H])([H])[H])C(C([H])([H])[H])(C([H])([H])[H])C([H])([H])[H])C([H])([H])c2c([H])c(OC([H])([H])C(C([H])([H])[H])(C([H])([H])[H])C([H])([H])C([H])(C([H])([H])[H])[N+]([H])([H])C([H])([H])C([H])([H])C(=O)N3C([H])([H])C([H])([H])C([H])([H])C([H])(n4nc(-c5c([H])c([H])c(Oc6c([H])c([H])c(F)c([H])c6F)c([H])c5[H])c(C(=O)N([H])[H])c4N([H])[H])C3([H])[H])c([H])c([H])c2C1([H])[H]

$$$$
31:0:0
     RDKit          3D

 90 97  0  0  1  0  0  0  0  0999 V2000
  -28.1480  -23.3190   20.0620 C   0  0  0  0  0  3  0  0  0  0  0  0
  -26.7290  -22.8980   20.1190 N   0  0  0  0  0  4  0  0  0  0  0  0
  -26.4570  -22.6380   21.0520 H   0  0  0  0  0  0  0  0  0  0  0  0
  -26.5560  -22.1170   19.5090 H   0  0  0  0  0  0  0  0  0  0  0  0
  -26.1250  -23.6450   19.8260 H   0  0  0  0  0  0  0  0  0  0  0  0
  -29.1420  -21.9480   20.2100 C   0  0  0  0  0  2  0  0  0  0  0  0
  -28.8440  -20.4610   20.9320 C   0  0  0  0  0  2  0  0  0  0  0  0
  -29.9010  -17.9120   20.7560 C   0  0  0  0  0  0  0  0  0  0  0  0
  -29.1280  -19.0250   20.3350 N   0  0  0  0  0  0  0  0  0  0  0  0
  -30.8610  -18.1530   21.4960 O   0  0  0  0  0  0  0  0  0  0  0  0
  -28.4250  -18.7520   19.6590 H   0  0  0  0  0  0  0  0  0  0  0  0
  -29.5450  -16.3270   20.3910 C   0  0  0  0  0  2  0  0  0  0  0  0
  -30.4870  -14.9500   20.3190 C   0  0  0  0  0  0  0  0  0  0  0  0
  -30.4100  -12.5940   19.3940 C   0  0  0  0  0  2  0  0  0  0  0  0
  -29.4860  -12.5810   18.1500 C   0  0  0  0  0  2  0  0  0  0  0  0
  -28.0120  -12.3880   18.5600 C   0  0  0  0  0  2  0  0  0  0  0  0
  -27.6020  -13.3040   19.7420 C   0  0  0  0  0  3  0  0  0  0  0  0
  -28.6430  -13.2870   20.8780 C   0  0  0  0  0  2  0  0  0  0  0  0
  -29.9360  -13.6730   20.3020 N   0  0  0  0  0  0  0  0  0  0  0  0
  -31.7000  -15.0210   20.0670 O   0  0  0  0  0  0  0  0  0  0  0  0
  -25.2140  -13.8890   20.4590 C   0  0  0  0  0  0  0  0  0  0  0  0
  -24.1450  -13.1160   20.8240 C   0  0  0  0  0  0  0  0  0  0  0  0
  -24.6100  -11.7650   20.8070 C   0  0  0  0  0  0  0  0  0  0  0  0
  -26.2570  -13.0090   20.2290 N   0  0  0  0  0  0  0  0  0  0  0  0
  -25.9030  -11.7270   20.5070 N   0  0  0  0  0  0  0  0  0  0  0  0
  -23.8800  -10.5050   21.0000 C   0  0  0  0  0  0  0  0  0  0  0  0
  -24.2980   -9.5470   21.9500 C   0  0  0  0  0  3  0  0  0  0  0  0
  -23.5680   -8.3520   22.1320 C   0  0  0  0  0  3  0  0  0  0  0  0
  -22.4060   -8.1060   21.3620 C   0  0  0  0  0  0  0  0  0  0  0  0
  -22.0060   -9.0540   20.4040 C   0  0  0  0  0  3  0  0  0  0  0  0
  -22.7360  -10.2400   20.2210 C   0  0  0  0  0  3  0  0  0  0  0  0
  -21.6500   -6.9620   21.4520 O   0  0  0  0  0  0  0  0  0  0  0  0
  -21.5810   -6.2340   22.6120 C   0  0  0  0  0  0  0  0  0  0  0  0
  -21.1320   -6.8020   23.8240 C   0  0  0  0  0  3  0  0  0  0  0  0
  -21.0110   -5.9990   24.9760 C   0  0  0  0  0  3  0  0  0  0  0  0
  -21.3280   -4.6280   24.9170 C   0  0  0  0  0  0  0  0  0  0  0  0
  -21.7700   -4.0590   23.7080 C   0  0  0  0  0  3  0  0  0  0  0  0
  -21.8920   -4.8600   22.5590 C   0  0  0  0  0  0  0  0  0  0  0  0
  -22.2970   -4.3030   21.3930 F   0  0  0  0  0  0  0  0  0  0  0  0
  -21.2040   -3.8540   26.0190 F   0  0  0  0  0  0  0  0  0  0  0  0
  -22.7460  -13.5970   21.0770 C   0  0  0  0  0  0  0  0  0  0  0  0
  -22.0070  -12.9080   21.9380 N   0  0  0  0  0  0  0  0  0  0  0  0
  -22.3170  -14.6200   20.5460 O   0  0  0  0  0  0  0  0  0  0  0  0
  -22.3640  -12.0820   22.3950 H   0  0  0  0  0  0  0  0  0  0  0  0
  -21.0680  -13.2170   22.1470 H   0  0  0  0  0  0  0  0  0  0  0  0
  -25.3830  -15.2590   20.2790 N   0  0  0  0  0  0  0  0  0  0  0  0
  -24.6220  -15.9190   20.4030 H   0  0  0  0  0  0  0  0  0  0  0  0
  -26.2440  -15.7010   19.9810 H   0  0  0  0  0  0  0  0  0  0  0  0
  -28.3130  -24.8310   20.7840 C   0  0  0  0  0  2  0  0  0  0  0  0
  -28.2960  -26.2550   20.1670 O   0  0  0  0  0  0  0  0  0  0  0  0
  -24.6250  -31.8710   23.2190 C   0  0  0  0  0  0  0  0  0  0  0  0
  -27.1990  -27.1780   20.2070 C   0  0  0  0  0  0  0  0  0  0  0  0
  -23.4190  -30.4730   21.5830 C   0  0  0  0  0  3  0  0  0  0  0  0
  -24.8630  -28.8930   20.1650 C   0  0  0  0  0  0  0  0  0  0  0  0
  -25.9680  -30.7530   21.4010 C   0  0  0  0  0  2  0  0  0  0  0  0
  -26.0420  -29.3570   20.7640 C   0  0  0  0  0  0  0  0  0  0  0  0
  -27.2130  -28.5160   20.7600 C   0  0  0  0  0  3  0  0  0  0  0  0
  -25.9980  -26.8030   19.5720 C   0  0  0  0  0  3  0  0  0  0  0  0
  -24.8520  -27.6270   19.5540 C   0  0  0  0  0  3  0  0  0  0  0  0
  -23.6340  -29.7870   20.2070 C   0  0  0  0  0  2  0  0  0  0  0  0
  -24.6910  -31.0540   22.1240 N   0  0  0  0  0  0  0  0  0  0  0  0
  -23.5430  -32.1540   23.7520 O   0  0  0  0  0  0  0  0  0  0  0  0
  -22.7510  -29.4650   22.5510 C   0  0  0  0  0  0  0  0  0  0  0  0
  -21.4230  -29.2900   22.4300 N   0  0  0  0  0  0  0  0  0  0  0  0
  -23.4270  -28.8400   23.3720 O   0  0  0  0  0  0  0  0  0  0  0  0
  -20.9310  -29.8490   21.7470 H   0  0  0  0  0  0  0  0  0  0  0  0
  -18.0490  -28.0760   22.9370 C   0  0  0  0  0  0  0  0  0  0  0  0
  -20.6060  -28.3490   23.2010 C   0  0  0  0  0  3  0  0  0  0  0  0
  -20.7150  -26.9160   22.6290 C   0  0  0  0  0  2  0  0  0  0  0  0
  -19.6120  -26.5880   21.6170 C   0  0  0  0  0  2  0  0  0  0  0  0
  -18.2310  -26.7270   22.2620 C   0  0  0  0  0  2  0  0  0  0  0  0
  -19.1650  -28.8440   23.3630 C   0  0  0  0  0  0  0  0  0  0  0  0
  -18.9390  -30.1070   23.9550 C   0  0  0  0  0  3  0  0  0  0  0  0
  -17.6320  -30.6010   24.1240 C   0  0  0  0  0  3  0  0  0  0  0  0
  -16.5310  -29.8290   23.7120 C   0  0  0  0  0  3  0  0  0  0  0  0
  -16.7400  -28.5690   23.1250 C   0  0  0  0  0  3  0  0  0  0  0  0
  -25.9050  -32.5090   23.8400 C   0  0  0  0  0  3  0  0  0  0  0  0
  -25.5940  -33.9090   24.1690 N   0  0  0  0  0  0  0  0  0  0  0  0
  -25.9280  -34.9650   23.4140 C   0  0  0  0  0  0  0  0  0  0  0  0
  -26.5980  -34.8620   22.3840 O   0  0  0  0  0  0  0  0  0  0  0  0
  -25.0020  -34.0620   24.9720 H   0  0  0  0  0  0  0  0  0  0  0  0
  -24.2060  -36.7670   23.0630 C   0  0  0  0  0  1  0  0  0  0  0  0
  -25.4440  -36.3550   23.8760 C   0  0  0  0  0  3  0  0  0  0  0  0
  -27.5800  -37.2330   24.7140 C   0  0  0  0  0  1  0  0  0  0  0  0
  -26.4810  -37.4040   23.7670 N   0  0  0  0  0  0  0  0  0  0  0  0
  -26.0760  -38.3250   23.9150 H   0  0  0  0  0  0  0  0  0  0  0  0
  -26.4190  -31.7430   25.1210 C   0  0  1  0  0  0  0  0  0  0  0  0
  -25.3280  -31.5140   26.1920 C   0  0  0  0  0  1  0  0  0  0  0  0
  -26.9990  -30.3630   24.7390 C   0  0  0  0  0  1  0  0  0  0  0  0
  -27.5730  -32.5390   25.7780 C   0  0  0  0  0  1  0  0  0  0  0  0
  1  2  1  0
  1  6  1  0
  1 49  1  0
  2  3  1  0
  4  2  1  0
  5  2  1  0
  6  7  1  0
  8 10  2  0
  9  8  1  0
  9  7  1  0
 11  9  1  0
 12  8  1  0
 13 12  1  0
 14 19  1  0
 15 16  1  0
 15 14  1  0
 17 16  1  0
 17 24  1  0
 17 18  1  0
 19 13  1  0
 19 18  1  0
 20 13  2  0
 21 22  2  0
 22 41  1  0
 23 22  1  0
 23 26  1  0
 24 21  1  0
 24 25  1  0
 25 23  2  0
 26 27  1  0
 27 28  2  0
 29 32  1  0
 29 28  1  0
 30 29  2  0
 31 30  1  0
 31 26  2  0
 32 33  1  0
 33 34  1  0
 34 35  2  0
 36 35  1  0
 36 40  1  0
 37 36  2  0
 38 33  2  0
 38 37  1  0
 39 38  1  0
 41 42  1  0
 42 45  1  0
 42 44  1  0
 43 41  2  0
 46 47  1  0
 46 21  1  0
 48 46  1  0
 50 52  1  0
 50 49  1  0
 51 62  2  0
 52 57  1  0
 53 61  1  0
 53 63  1  0
 54 60  1  0
 54 56  1  0
 55 61  1  0
 56 55  1  0
 57 56  2  0
 58 52  2  0
 59 58  1  0
 59 54  2  0
 60 53  1  0
 61 51  1  0
 63 65  2  0
 64 63  1  0
 66 64  1  0
 67 76  2  0
 67 72  1  0
 68 64  1  0
 68 72  1  0
 69 68  1  0
 70 71  1  0
 70 69  1  0
 71 67  1  0
 72 73  2  0
 73 74  1  0
 75 74  2  0
 76 75  1  0
 77 51  1  0
 77 78  1  0
 77 87  1  0
 78 81  1  0
 79 83  1  0
 79 78  1  0
 80 79  2  0
 83 82  1  0
 85 83  1  0
 85 86  1  0
 85 84  1  0
 87 90  1  1
 87 88  1  0
 89 87  1  0
M  ISO  4  12 100  13 100  49 101  50 101
M  END
>  <TORSDO>  (32) 
F 22

>  <SCORE>  (32) 
-13.720

>  <name>  (32) 
31

>  <ligand_id>  (32) 
31

>  <original_smiles>  (32) 
[H]c1c([H])c([H])c2c(c1[H])C([H])([H])C([H])([H])C([H])([H])C2([H])N([H])C(=O)C1([H])N(C(=O)C([H])(N([H])C(=O)C([H])(N([H])C([H])([H])[H])C([H])([H])[H])C(C([H])([H])[H])(C([H])([H])[H])C([H])([H])[H])C([H])([H])c2c([H])c(OC([H])([H])C([H])(C([H])([H])C([H])([H])N([H])C(=O)C([H])([H])C(=O)N3C([H])([H])C([H])([H])C([H])([H])C([H])(n4nc(-c5c([H])c([H])c(Oc6c([H])c([H])c(F)c([H])c6F)c([H])c5[H])c(C(=O)N([H])[H])c4N([H])[H])C3([H])[H])[N+]([H])([H])[H])c([H])c([H])c2C1([H])[H]

>  <smiles>  (32) 
[H]c1c([H])c([H])c2c(c1[H])C([H])([H])C([H])([H])C([H])([H])C2([H])N([H])C(=O)C1([H])N(C(=O)C([H])(N([H])C(=O)C([H])(N([H])C([H])([H])[H])C([H])([H])[H])C(C([H])([H])[H])(C([H])([H])[H])C([H])([H])[H])C([H])([H])c2c([H])c(OC([H])([H])C([H])(C([H])([H])C([H])([H])N([H])C(=O)C([H])([H])C(=O)N3C([H])([H])C([H])([H])C([H])([H])C([H])(n4nc(-c5c([H])c([H])c(Oc6c([H])c([H])c(F)c([H])c6F)c([H])c5[H])c(C(=O)N([H])[H])c4N([H])[H])C3([H])[H])[N+]([H])([H])[H])c([H])c([H])c2C1([H])[H]

$$$$
32:0:0
     RDKit          3D

 96104  0  0  1  0  0  0  0  0999 V2000
  -28.2170  -22.0910   20.7790 C   0  0  0  0  0  3  0  0  0  0  0  0
  -28.2210  -20.7190   20.4610 C   0  0  0  0  0  3  0  0  0  0  0  0
  -30.2810  -22.3770   19.5360 C   0  0  0  0  0  3  0  0  0  0  0  0
  -29.2480  -22.9400   20.3260 C   0  0  0  0  0  0  0  0  0  0  0  0
  -29.2660  -20.1460   19.7000 C   0  0  0  0  0  0  0  0  0  0  0  0
  -30.3130  -20.9960   19.2290 C   0  0  0  0  0  0  0  0  0  0  0  0
  -31.4930  -20.4850   18.4060 C   0  0  0  0  0  1  0  0  0  0  0  0
  -29.1350  -18.6540   19.3540 C   0  0  0  0  0  2  0  0  0  0  0  0
  -30.5660  -17.0020   18.2180 C   0  0  0  0  0  1  0  0  0  0  0  0
  -30.3990  -17.8730   19.4040 N   0  0  2  0  0  4  0  0  0  0  0  0
  -31.1000  -18.5910   19.2700 H   0  0  0  0  0  0  0  0  0  0  0  0
  -30.7660  -17.2720   20.7270 C   0  0  0  0  0  2  0  0  0  0  0  0
  -30.1160  -15.8990   21.1150 C   0  0  0  0  0  2  0  0  0  0  0  0
  -30.8450  -14.6210   20.6260 C   0  0  0  0  0  0  0  0  0  0  0  0
  -30.5720  -12.4180   19.5480 C   0  0  0  0  0  2  0  0  0  0  0  0
  -29.6770  -12.5850   18.3010 C   0  0  0  0  0  2  0  0  0  0  0  0
  -28.1890  -12.4710   18.6830 C   0  0  0  0  0  2  0  0  0  0  0  0
  -27.8070  -13.3310   19.9170 C   0  0  0  0  0  3  0  0  0  0  0  0
  -28.8320  -13.1870   21.0680 C   0  0  0  0  0  2  0  0  0  0  0  0
  -30.1740  -13.4420   20.5280 N   0  0  0  0  0  0  0  0  0  0  0  0
  -31.9990  -14.7410   20.2100 O   0  0  0  0  0  0  0  0  0  0  0  0
  -25.3810  -13.9430   20.5170 C   0  0  0  0  0  0  0  0  0  0  0  0
  -24.2980  -13.1710   20.8540 C   0  0  0  0  0  0  0  0  0  0  0  0
  -24.7660  -11.8220   20.8770 C   0  0  0  0  0  0  0  0  0  0  0  0
  -26.4380  -13.0600   20.3540 N   0  0  0  0  0  0  0  0  0  0  0  0
  -26.0700  -11.7820   20.6290 N   0  0  0  0  0  0  0  0  0  0  0  0
  -24.0350  -10.5600   21.0610 C   0  0  0  0  0  0  0  0  0  0  0  0
  -24.4420   -9.6000   22.0130 C   0  0  0  0  0  3  0  0  0  0  0  0
  -23.7090   -8.4040   22.1830 C   0  0  0  0  0  3  0  0  0  0  0  0
  -22.5560   -8.1610   21.3990 C   0  0  0  0  0  0  0  0  0  0  0  0
  -22.1680   -9.1100   20.4350 C   0  0  0  0  0  3  0  0  0  0  0  0
  -22.9010  -10.2960   20.2660 C   0  0  0  0  0  3  0  0  0  0  0  0
  -21.7990   -7.0150   21.4750 O   0  0  0  0  0  0  0  0  0  0  0  0
  -21.7310   -6.2760   22.6270 C   0  0  0  0  0  0  0  0  0  0  0  0
  -21.2990   -6.8360   23.8500 C   0  0  0  0  0  3  0  0  0  0  0  0
  -21.1830   -6.0230   24.9950 C   0  0  0  0  0  3  0  0  0  0  0  0
  -21.4830   -4.6500   24.9180 C   0  0  0  0  0  0  0  0  0  0  0  0
  -21.9030   -4.0870   23.7000 C   0  0  0  0  0  3  0  0  0  0  0  0
  -22.0240   -4.8970   22.5570 C   0  0  0  0  0  0  0  0  0  0  0  0
  -22.4110   -4.3470   21.3810 F   0  0  0  0  0  0  0  0  0  0  0  0
  -21.3600   -3.8670   26.0150 F   0  0  0  0  0  0  0  0  0  0  0  0
  -22.8900  -13.6510   21.0490 C   0  0  0  0  0  0  0  0  0  0  0  0
  -22.1290  -12.9760   21.9050 N   0  0  0  0  0  0  0  0  0  0  0  0
  -22.4710  -14.6580   20.4820 O   0  0  0  0  0  0  0  0  0  0  0  0
  -22.4790  -12.1600   22.3850 H   0  0  0  0  0  0  0  0  0  0  0  0
  -21.1810  -13.2780   22.0770 H   0  0  0  0  0  0  0  0  0  0  0  0
  -25.5500  -15.3100   20.3170 N   0  0  0  0  0  0  0  0  0  0  0  0
  -24.7790  -15.9660   20.3840 H   0  0  0  0  0  0  0  0  0  0  0  0
  -26.4150  -15.7500   20.0290 H   0  0  0  0  0  0  0  0  0  0  0  0
  -29.2290  -24.4280   20.7310 C   0  0  0  0  0  3  0  0  0  0  0  0
  -30.5900  -24.9590   20.9460 N   0  0  0  0  0  4  0  0  0  0  0  0
  -31.1380  -24.9390   20.1040 H   0  0  0  0  0  0  0  0  0  0  0  0
  -31.0580  -24.4230   21.6560 H   0  0  0  0  0  0  0  0  0  0  0  0
  -30.5390  -25.9120   21.2630 H   0  0  0  0  0  0  0  0  0  0  0  0
  -28.3970  -25.3270   19.7780 C   0  0  0  0  0  2  0  0  0  0  0  0
  -28.3680  -26.7100   20.2170 O   0  0  0  0  0  0  0  0  0  0  0  0
  -24.5300  -31.9140   23.2300 C   0  0  0  0  0  0  0  0  0  0  0  0
  -27.1840  -27.4380   20.1720 C   0  0  0  0  0  0  0  0  0  0  0  0
  -23.3310  -30.5020   21.5940 C   0  0  0  0  0  3  0  0  0  0  0  0
  -24.7870  -28.9650   20.1740 C   0  0  0  0  0  0  0  0  0  0  0  0
  -25.8600  -30.8590   21.4000 C   0  0  0  0  0  2  0  0  0  0  0  0
  -25.9440  -29.4830   20.7640 C   0  0  0  0  0  0  0  0  0  0  0  0
  -27.1410  -28.7280   20.7620 C   0  0  0  0  0  3  0  0  0  0  0  0
  -26.0010  -26.9530   19.5610 C   0  0  0  0  0  3  0  0  0  0  0  0
  -24.8120  -27.6980   19.5700 C   0  0  0  0  0  3  0  0  0  0  0  0
  -23.5410  -29.8210   20.2160 C   0  0  0  0  0  2  0  0  0  0  0  0
  -24.5910  -31.1100   22.1300 N   0  0  0  0  0  0  0  0  0  0  0  0
  -23.4480  -32.1830   23.7660 O   0  0  0  0  0  0  0  0  0  0  0  0
  -22.6870  -29.4800   22.5590 C   0  0  0  0  0  0  0  0  0  0  0  0
  -21.3620  -29.2920   22.4390 N   0  0  0  0  0  0  0  0  0  0  0  0
  -23.3760  -28.8560   23.3710 O   0  0  0  0  0  0  0  0  0  0  0  0
  -20.8700  -29.8470   21.7550 H   0  0  0  0  0  0  0  0  0  0  0  0
  -17.9880  -28.1050   22.9640 C   0  0  0  0  0  0  0  0  0  0  0  0
  -20.5500  -28.3570   23.2170 C   0  0  0  0  0  3  0  0  0  0  0  0
  -20.6450  -26.9270   22.6400 C   0  0  0  0  0  2  0  0  0  0  0  0
  -19.5320  -26.6060   21.6360 C   0  0  0  0  0  2  0  0  0  0  0  0
  -18.1530  -26.7560   22.2880 C   0  0  0  0  0  2  0  0  0  0  0  0
  -19.1130  -28.8650   23.3850 C   0  0  0  0  0  0  0  0  0  0  0  0
  -18.9010  -30.1310   23.9730 C   0  0  0  0  0  3  0  0  0  0  0  0
  -17.5990  -30.6330   24.1490 C   0  0  0  0  0  3  0  0  0  0  0  0
  -16.4900  -29.8720   23.7400 C   0  0  0  0  0  3  0  0  0  0  0  0
  -16.6850  -28.6100   23.1530 C   0  0  0  0  0  3  0  0  0  0  0  0
  -25.8130  -32.5520   23.8450 C   0  0  0  0  0  3  0  0  0  0  0  0
  -26.3350  -31.7880   25.1240 C   0  0  1  0  0  0  0  0  0  0  0  0
  -25.2450  -31.5500   26.1960 C   0  0  0  0  0  1  0  0  0  0  0  0
  -26.9230  -30.4120   24.7360 C   0  0  0  0  0  1  0  0  0  0  0  0
  -27.4830  -32.5900   25.7800 C   0  0  0  0  0  1  0  0  0  0  0  0
  -25.4990  -33.9500   24.1700 N   0  0  0  0  0  0  0  0  0  0  0  0
  -25.8360  -35.0000   23.4090 C   0  0  0  0  0  0  0  0  0  0  0  0
  -26.5180  -34.8940   22.3860 O   0  0  0  0  0  0  0  0  0  0  0  0
  -24.8990  -34.1080   24.9660 H   0  0  0  0  0  0  0  0  0  0  0  0
  -24.1130  -36.7840   23.0190 C   0  0  0  0  0  1  0  0  0  0  0  0
  -25.3410  -36.3890   23.8540 C   0  0  0  0  0  3  0  0  0  0  0  0
  -27.4610  -37.2680   24.7180 C   0  0  0  0  0  1  0  0  0  0  0  0
  -26.3750  -37.4410   23.7570 N   0  0  0  0  0  0  0  0  0  0  0  0
  -25.9680  -38.3620   23.8980 H   0  0  0  0  0  0  0  0  0  0  0  0
  2  1  1  0
  3  4  1  0
  4 50  1  0
  4  1  2  0
  5  2  2  0
  6  3  2  0
  6  5  1  0
  7  6  1  0
  8 10  1  0
  8  5  1  0
  9 10  1  0
 10 12  1  0
 10 11  1  6
 12 13  1  0
 14 13  1  0
 15 20  1  0
 16 17  1  0
 16 15  1  0
 18 17  1  0
 18 25  1  0
 18 19  1  0
 20 14  1  0
 20 19  1  0
 21 14  2  0
 22 23  2  0
 23 24  1  0
 23 42  1  0
 24 27  1  0
 25 22  1  0
 25 26  1  0
 26 24  2  0
 27 28  1  0
 28 29  2  0
 30 33  1  0
 30 29  1  0
 31 30  2  0
 32 31  1  0
 32 27  2  0
 33 34  1  0
 34 35  1  0
 35 36  2  0
 37 36  1  0
 37 41  1  0
 38 37  2  0
 39 34  2  0
 39 38  1  0
 40 39  1  0
 42 43  1  0
 43 46  1  0
 43 45  1  0
 44 42  2  0
 47 48  1  0
 47 22  1  0
 49 47  1  0
 50 55  1  0
 50 51  1  0
 51 54  1  0
 51 53  1  0
 52 51  1  0
 55 56  1  0
 57 68  2  0
 58 56  1  0
 58 63  1  0
 59 67  1  0
 59 69  1  0
 60 66  1  0
 60 62  1  0
 61 67  1  0
 62 61  1  0
 63 62  2  0
 64 65  1  0
 64 58  2  0
 65 60  2  0
 66 59  1  0
 67 57  1  0
 69 71  2  0
 70 69  1  0
 72 70  1  0
 73 82  2  0
 73 78  1  0
 74 70  1  0
 74 78  1  0
 75 74  1  0
 76 77  1  0
 76 75  1  0
 77 73  1  0
 78 79  2  0
 79 80  1  0
 81 80  2  0
 82 81  1  0
 83 57  1  0
 83 88  1  0
 83 84  1  0
 84 87  1  1
 84 85  1  0
 86 84  1  0
 88 91  1  0
 89 93  1  0
 89 88  1  0
 90 89  2  0
 93 92  1  0
 95 93  1  0
 95 96  1  0
 95 94  1  0
M  ISO  4  13 100  14 100  55 101  56 101
M  END
>  <TORSDO>  (33) 
F 23

>  <SCORE>  (33) 
-12.959

>  <name>  (33) 
32

>  <ligand_id>  (33) 
32

>  <original_smiles>  (33) 
[H]c1c([H])c([H])c2c(c1[H])C([H])([H])C([H])([H])C([H])([H])C2([H])N([H])C(=O)C1([H])N(C(=O)C([H])(N([H])C(=O)C([H])(N([H])C([H])([H])[H])C([H])([H])[H])C(C([H])([H])[H])(C([H])([H])[H])C([H])([H])[H])C([H])([H])c2c([H])c(OC([H])([H])C([H])(c3c([H])c([H])c(C([H])([H])[N+]([H])(C([H])([H])[H])C([H])([H])C([H])([H])C(=O)N4C([H])([H])C([H])([H])C([H])([H])C([H])(n5nc(-c6c([H])c([H])c(Oc7c([H])c([H])c(F)c([H])c7F)c([H])c6[H])c(C(=O)N([H])[H])c5N([H])[H])C4([H])[H])c(C([H])([H])[H])c3[H])[N+]([H])([H])[H])c([H])c([H])c2C1([H])[H]

>  <smiles>  (33) 
[H]c1c([H])c([H])c2c(c1[H])C([H])([H])C([H])([H])C([H])([H])C2([H])N([H])C(=O)C1([H])N(C(=O)C([H])(N([H])C(=O)C([H])(N([H])C([H])([H])[H])C([H])([H])[H])C(C([H])([H])[H])(C([H])([H])[H])C([H])([H])[H])C([H])([H])c2c([H])c(OC([H])([H])C([H])(c3c([H])c([H])c(C([H])([H])[N+]([H])(C([H])([H])[H])C([H])([H])C([H])([H])C(=O)N4C([H])([H])C([H])([H])C([H])([H])C([H])(n5nc(-c6c([H])c([H])c(Oc7c([H])c([H])c(F)c([H])c7F)c([H])c6[H])c(C(=O)N([H])[H])c5N([H])[H])C4([H])[H])c(C([H])([H])[H])c3[H])[N+]([H])([H])[H])c([H])c([H])c2C1([H])[H]

$$$$
33:0:0
     RDKit          3D

 93101  0  0  1  0  0  0  0  0999 V2000
  -29.0330  -22.5220   19.6870 C   0  0  0  0  0  3  0  0  0  0  0  0
  -29.7480  -22.3520   22.0040 C   0  0  0  0  0  3  0  0  0  0  0  0
  -28.7930  -23.9020   19.8570 C   0  0  0  0  0  3  0  0  0  0  0  0
  -29.5060  -23.7330   22.1720 C   0  0  0  0  0  3  0  0  0  0  0  0
  -29.4970  -21.7270   20.7600 C   0  0  0  0  0  0  0  0  0  0  0  0
  -29.0160  -24.5190   21.1060 C   0  0  0  0  0  0  0  0  0  0  0  0
  -29.6760  -20.2220   20.5260 C   0  0  0  0  0  2  0  0  0  0  0  0
  -30.0430  -19.3500   21.7580 C   0  0  0  0  0  2  0  0  0  0  0  0
  -29.8160  -17.8940   21.5320 N   0  0  0  0  0  4  0  0  0  0  0  0
  -29.0410  -17.8180   20.8930 H   0  0  0  0  0  0  0  0  0  0  0  0
  -29.4840  -17.5220   22.4090 H   0  0  0  0  0  0  0  0  0  0  0  0
  -32.1280  -17.7140   20.4460 C   0  0  0  0  0  1  0  0  0  0  0  0
  -30.9150  -16.9810   21.0750 C   0  0  0  0  0  3  0  0  0  0  0  0
  -30.0150  -16.4020   18.7470 C   0  0  0  0  0  1  0  0  0  0  0  0
  -30.2940  -15.8600   20.1710 C   0  0  0  0  0  3  0  0  0  0  0  0
  -31.0840  -14.5170   20.0350 C   0  0  0  0  0  0  0  0  0  0  0  0
  -30.7220  -12.3240   18.9940 C   0  0  0  0  0  2  0  0  0  0  0  0
  -29.7580  -12.5390   17.8030 C   0  0  0  0  0  2  0  0  0  0  0  0
  -28.2850  -12.4810   18.2580 C   0  0  0  0  0  2  0  0  0  0  0  0
  -28.0050  -13.3430   19.5170 C   0  0  0  0  0  3  0  0  0  0  0  0
  -29.0790  -13.0940   20.6020 C   0  0  0  0  0  2  0  0  0  0  0  0
  -30.4020  -13.3380   20.0110 N   0  0  0  0  0  0  0  0  0  0  0  0
  -32.2590  -14.5860   19.6680 O   0  0  0  0  0  0  0  0  0  0  0  0
  -25.6510  -14.0670   20.2620 C   0  0  0  0  0  0  0  0  0  0  0  0
  -24.5570  -13.3450   20.6600 C   0  0  0  0  0  0  0  0  0  0  0  0
  -24.9610  -11.9750   20.6390 C   0  0  0  0  0  0  0  0  0  0  0  0
  -26.6520  -13.1370   20.0240 N   0  0  0  0  0  0  0  0  0  0  0  0
  -26.2410  -11.8760   20.3090 N   0  0  0  0  0  0  0  0  0  0  0  0
  -24.1870  -10.7470   20.8560 C   0  0  0  0  0  0  0  0  0  0  0  0
  -24.5840   -9.7840   21.8110 C   0  0  0  0  0  3  0  0  0  0  0  0
  -23.8180   -8.6180   22.0130 C   0  0  0  0  0  3  0  0  0  0  0  0
  -22.6380   -8.4050   21.2600 C   0  0  0  0  0  0  0  0  0  0  0  0
  -22.2590   -9.3550   20.2950 C   0  0  0  0  0  3  0  0  0  0  0  0
  -23.0270  -10.5130   20.0920 C   0  0  0  0  0  3  0  0  0  0  0  0
  -21.8440   -7.2890   21.3700 O   0  0  0  0  0  0  0  0  0  0  0  0
  -21.7450   -6.5910   22.5470 C   0  0  0  0  0  0  0  0  0  0  0  0
  -21.3140   -7.2050   23.7430 C   0  0  0  0  0  3  0  0  0  0  0  0
  -21.1580   -6.4370   24.9130 C   0  0  0  0  0  3  0  0  0  0  0  0
  -21.4250   -5.0550   24.8880 C   0  0  0  0  0  0  0  0  0  0  0  0
  -21.8520   -4.4410   23.6980 C   0  0  0  0  0  3  0  0  0  0  0  0
  -22.0080   -5.2070   22.5300 C   0  0  0  0  0  0  0  0  0  0  0  0
  -22.3990   -4.6060   21.3800 F   0  0  0  0  0  0  0  0  0  0  0  0
  -21.2680   -4.3140   26.0100 F   0  0  0  0  0  0  0  0  0  0  0  0
  -23.1860  -13.8840   20.9500 C   0  0  0  0  0  0  0  0  0  0  0  0
  -22.4480  -13.2320   21.8420 N   0  0  0  0  0  0  0  0  0  0  0  0
  -22.7780  -14.9160   20.4190 O   0  0  0  0  0  0  0  0  0  0  0  0
  -22.7910  -12.3960   22.2920 H   0  0  0  0  0  0  0  0  0  0  0  0
  -21.5290  -13.5770   22.0810 H   0  0  0  0  0  0  0  0  0  0  0  0
  -25.8700  -15.4260   20.0590 N   0  0  0  0  0  0  0  0  0  0  0  0
  -25.1190  -16.1030   20.1390 H   0  0  0  0  0  0  0  0  0  0  0  0
  -26.6970  -15.8060   19.6190 H   0  0  0  0  0  0  0  0  0  0  0  0
  -28.7330  -26.0050   21.3280 C   0  0  0  0  0  2  0  0  0  0  0  0
  -28.4360  -26.7190   20.1270 O   0  0  0  0  0  0  0  0  0  0  0  0
  -24.5860  -31.8590   23.2350 C   0  0  0  0  0  0  0  0  0  0  0  0
  -27.2780  -27.4560   20.1640 C   0  0  0  0  0  0  0  0  0  0  0  0
  -23.3990  -30.4630   21.5700 C   0  0  0  0  0  3  0  0  0  0  0  0
  -24.8760  -28.9340   20.1570 C   0  0  0  0  0  0  0  0  0  0  0  0
  -25.9240  -30.8310   21.4050 C   0  0  0  0  0  2  0  0  0  0  0  0
  -26.0210  -29.4620   20.7680 C   0  0  0  0  0  0  0  0  0  0  0  0
  -27.2260  -28.7260   20.7800 C   0  0  0  0  0  3  0  0  0  0  0  0
  -26.1240  -26.9380   19.5440 C   0  0  0  0  0  3  0  0  0  0  0  0
  -24.9200  -27.6670   19.5460 C   0  0  0  0  0  3  0  0  0  0  0  0
  -23.6280  -29.7870   20.1900 C   0  0  0  0  0  2  0  0  0  0  0  0
  -24.6530  -31.0660   22.1290 N   0  0  0  0  0  0  0  0  0  0  0  0
  -23.4980  -32.1270   23.7660 O   0  0  0  0  0  0  0  0  0  0  0  0
  -22.7390  -29.4370   22.5180 C   0  0  0  0  0  0  0  0  0  0  0  0
  -21.4200  -29.2400   22.3610 N   0  0  0  0  0  0  0  0  0  0  0  0
  -23.4110  -28.8200   23.3480 O   0  0  0  0  0  0  0  0  0  0  0  0
  -20.9390  -29.7920   21.6640 H   0  0  0  0  0  0  0  0  0  0  0  0
  -18.0580  -27.9740   22.7450 C   0  0  0  0  0  0  0  0  0  0  0  0
  -20.5970  -28.2940   23.1120 C   0  0  0  0  0  3  0  0  0  0  0  0
  -20.7530  -26.8570   22.5600 C   0  0  0  0  0  2  0  0  0  0  0  0
  -19.6980  -26.4970   21.5090 C   0  0  0  0  0  2  0  0  0  0  0  0
  -18.2900  -26.6200   22.0970 C   0  0  0  0  0  2  0  0  0  0  0  0
  -19.1420  -28.7670   23.2070 C   0  0  0  0  0  0  0  0  0  0  0  0
  -18.8730  -30.0340   23.7690 C   0  0  0  0  0  3  0  0  0  0  0  0
  -17.5530  -30.5080   23.8760 C   0  0  0  0  0  3  0  0  0  0  0  0
  -16.4820  -29.7140   23.4290 C   0  0  0  0  0  3  0  0  0  0  0  0
  -16.7360  -28.4480   22.8710 C   0  0  0  0  0  3  0  0  0  0  0  0
  -25.8650  -32.4860   23.8730 C   0  0  0  0  0  3  0  0  0  0  0  0
  -25.5570  -33.8840   24.2030 N   0  0  0  0  0  0  0  0  0  0  0  0
  -25.8980  -34.9350   23.4460 C   0  0  0  0  0  0  0  0  0  0  0  0
  -26.5770  -34.8310   22.4200 O   0  0  0  0  0  0  0  0  0  0  0  0
  -24.9600  -34.0400   25.0010 H   0  0  0  0  0  0  0  0  0  0  0  0
  -24.1720  -36.7260   23.0760 C   0  0  0  0  0  1  0  0  0  0  0  0
  -25.4070  -36.3240   23.8980 C   0  0  0  0  0  3  0  0  0  0  0  0
  -27.5370  -37.2100   24.7410 C   0  0  0  0  0  1  0  0  0  0  0  0
  -26.4410  -37.3770   23.7890 N   0  0  0  0  0  0  0  0  0  0  0  0
  -26.0340  -38.2980   23.9310 H   0  0  0  0  0  0  0  0  0  0  0  0
  -26.3700  -31.7090   25.1510 C   0  0  1  0  0  0  0  0  0  0  0  0
  -25.2660  -31.4640   26.2060 C   0  0  0  0  0  1  0  0  0  0  0  0
  -26.9600  -30.3340   24.7570 C   0  0  0  0  0  1  0  0  0  0  0  0
  -27.5140  -32.5010   25.8290 C   0  0  0  0  0  1  0  0  0  0  0  0
  1  3  2  0
  1  5  1  0
  2  4  1  0
  3  6  1  0
  5  2  2  0
  6 52  1  0
  6  4  2  0
  7  5  1  0
  7  8  1  0
  9  8  1  0
  9 11  1  0
 10  9  1  0
 13 12  1  0
 13  9  1  0
 15 14  1  0
 15 13  1  0
 16 15  1  0
 17 22  1  0
 18 19  1  0
 18 17  1  0
 20 19  1  0
 20 27  1  0
 20 21  1  0
 22 16  1  0
 22 21  1  0
 23 16  2  0
 24 25  2  0
 25 44  1  0
 26 25  1  0
 26 29  1  0
 27 24  1  0
 27 28  1  0
 28 26  2  0
 29 30  1  0
 30 31  2  0
 32 35  1  0
 32 31  1  0
 33 32  2  0
 34 33  1  0
 34 29  2  0
 35 36  1  0
 36 37  1  0
 37 38  2  0
 39 38  1  0
 39 43  1  0
 40 39  2  0
 41 36  2  0
 41 40  1  0
 42 41  1  0
 44 45  1  0
 45 48  1  0
 45 47  1  0
 46 44  2  0
 49 50  1  0
 49 24  1  0
 51 49  1  0
 53 55  1  0
 53 52  1  0
 54 65  2  0
 55 60  1  0
 56 64  1  0
 56 66  1  0
 57 63  1  0
 57 59  1  0
 58 64  1  0
 59 60  2  0
 59 58  1  0
 61 62  1  0
 61 55  2  0
 62 57  2  0
 63 56  1  0
 64 54  1  0
 66 68  2  0
 67 66  1  0
 69 67  1  0
 70 79  2  0
 70 75  1  0
 71 67  1  0
 71 75  1  0
 72 71  1  0
 73 74  1  0
 73 72  1  0
 74 70  1  0
 75 76  2  0
 76 77  1  0
 78 77  2  0
 79 78  1  0
 80 54  1  0
 80 81  1  0
 80 90  1  0
 81 84  1  0
 82 86  1  0
 82 81  1  0
 83 82  2  0
 86 85  1  0
 88 86  1  0
 88 89  1  0
 88 87  1  0
 90 93  1  1
 90 91  1  0
 92 90  1  0
M  ISO  4  15 100  16 100  52 101  53 101
M  END
>  <TORSDO>  (34) 
F 22

>  <SCORE>  (34) 
-12.810

>  <name>  (34) 
33

>  <ligand_id>  (34) 
33

>  <original_smiles>  (34) 
[H]c1c([H])c([H])c2c(c1[H])C([H])([H])C([H])([H])C([H])([H])C2([H])N([H])C(=O)C1([H])N(C(=O)C([H])(N([H])C(=O)C([H])(N([H])C([H])([H])[H])C([H])([H])[H])C(C([H])([H])[H])(C([H])([H])[H])C([H])([H])[H])C([H])([H])c2c([H])c(OC([H])([H])c3c([H])c([H])c(C([H])([H])C([H])([H])[N+]([H])([H])C([H])(C([H])([H])[H])C([H])(C(=O)N4C([H])([H])C([H])([H])C([H])([H])C([H])(n5nc(-c6c([H])c([H])c(Oc7c([H])c([H])c(F)c([H])c7F)c([H])c6[H])c(C(=O)N([H])[H])c5N([H])[H])C4([H])[H])C([H])([H])[H])c([H])c3[H])c([H])c([H])c2C1([H])[H]

>  <smiles>  (34) 
[H]c1c([H])c([H])c2c(c1[H])C([H])([H])C([H])([H])C([H])([H])C2([H])N([H])C(=O)C1([H])N(C(=O)C([H])(N([H])C(=O)C([H])(N([H])C([H])([H])[H])C([H])([H])[H])C(C([H])([H])[H])(C([H])([H])[H])C([H])([H])[H])C([H])([H])c2c([H])c(OC([H])([H])c3c([H])c([H])c(C([H])([H])C([H])([H])[N+]([H])([H])C([H])(C([H])([H])[H])C([H])(C(=O)N4C([H])([H])C([H])([H])C([H])([H])C([H])(n5nc(-c6c([H])c([H])c(Oc7c([H])c([H])c(F)c([H])c7F)c([H])c6[H])c(C(=O)N([H])[H])c5N([H])[H])C4([H])[H])C([H])([H])[H])c([H])c3[H])c([H])c([H])c2C1([H])[H]

$$$$
34:0:0
     RDKit          3D

 88 95  0  0  1  0  0  0  0  0999 V2000
  -28.5840  -21.9760   20.3080 C   0  0  0  0  0  3  0  0  0  0  0  0
  -29.0370  -23.5700   20.3710 C   0  0  0  0  0  3  0  0  0  0  0  0
  -27.9700  -24.8080   20.1200 C   0  0  0  0  0  3  0  0  0  0  0  0
  -28.2520  -26.3080   20.2570 O   0  0  0  0  0  0  0  0  0  0  0  0
  -24.6030  -31.9000   23.2560 C   0  0  0  0  0  0  0  0  0  0  0  0
  -27.1760  -27.2480   20.1960 C   0  0  0  0  0  0  0  0  0  0  0  0
  -23.3940  -30.5100   21.6160 C   0  0  0  0  0  3  0  0  0  0  0  0
  -24.8360  -28.9490   20.1810 C   0  0  0  0  0  0  0  0  0  0  0  0
  -25.9430  -30.7930   21.4370 C   0  0  0  0  0  2  0  0  0  0  0  0
  -26.0150  -29.4080   20.7820 C   0  0  0  0  0  0  0  0  0  0  0  0
  -27.1880  -28.5730   20.7730 C   0  0  0  0  0  3  0  0  0  0  0  0
  -25.9680  -26.8760   19.5620 C   0  0  0  0  0  3  0  0  0  0  0  0
  -24.8210  -27.6940   19.5580 C   0  0  0  0  0  3  0  0  0  0  0  0
  -23.6070  -29.8380   20.2350 C   0  0  0  0  0  2  0  0  0  0  0  0
  -24.6670  -31.0870   22.1590 N   0  0  0  0  0  0  0  0  0  0  0  0
  -23.5200  -32.1820   23.7900 O   0  0  0  0  0  0  0  0  0  0  0  0
  -22.7220  -29.4970   22.5760 C   0  0  0  0  0  0  0  0  0  0  0  0
  -21.3940  -29.3240   22.4500 N   0  0  0  0  0  0  0  0  0  0  0  0
  -23.3970  -28.8690   23.3960 O   0  0  0  0  0  0  0  0  0  0  0  0
  -20.9080  -29.8830   21.7630 H   0  0  0  0  0  0  0  0  0  0  0  0
  -18.0140  -28.1290   22.9550 C   0  0  0  0  0  0  0  0  0  0  0  0
  -20.5740  -28.3870   23.2210 C   0  0  0  0  0  3  0  0  0  0  0  0
  -20.6730  -26.9560   22.6440 C   0  0  0  0  0  2  0  0  0  0  0  0
  -19.5700  -26.6350   21.6310 C   0  0  0  0  0  2  0  0  0  0  0  0
  -18.1900  -26.7810   22.2770 C   0  0  0  0  0  2  0  0  0  0  0  0
  -19.1340  -28.8910   23.3840 C   0  0  0  0  0  0  0  0  0  0  0  0
  -18.9160  -30.1510   23.9800 C   0  0  0  0  0  3  0  0  0  0  0  0
  -17.6120  -30.6530   24.1500 C   0  0  0  0  0  3  0  0  0  0  0  0
  -16.5070  -29.8890   23.7360 C   0  0  0  0  0  3  0  0  0  0  0  0
  -16.7080  -28.6290   23.1440 C   0  0  0  0  0  3  0  0  0  0  0  0
  -25.8860  -32.5300   23.8790 C   0  0  0  0  0  3  0  0  0  0  0  0
  -26.3950  -31.7590   25.1590 C   0  0  1  0  0  0  0  0  0  0  0  0
  -25.3000  -31.5280   26.2260 C   0  0  0  0  0  1  0  0  0  0  0  0
  -26.9740  -30.3780   24.7740 C   0  0  0  0  0  1  0  0  0  0  0  0
  -27.5490  -32.5500   25.8220 C   0  0  0  0  0  1  0  0  0  0  0  0
  -25.5800  -33.9300   24.2110 N   0  0  0  0  0  0  0  0  0  0  0  0
  -25.8980  -34.9830   23.4440 C   0  0  0  0  0  0  0  0  0  0  0  0
  -26.5470  -34.8760   22.4000 O   0  0  0  0  0  0  0  0  0  0  0  0
  -25.0010  -34.0860   25.0220 H   0  0  0  0  0  0  0  0  0  0  0  0
  -24.1580  -36.7730   23.1300 C   0  0  0  0  0  1  0  0  0  0  0  0
  -25.4210  -36.3720   23.9090 C   0  0  0  0  0  3  0  0  0  0  0  0
  -27.5730  -37.2680   24.6820 C   0  0  0  0  0  1  0  0  0  0  0  0
  -26.4490  -37.4270   23.7640 N   0  0  0  0  0  0  0  0  0  0  0  0
  -26.0440  -38.3470   23.9140 H   0  0  0  0  0  0  0  0  0  0  0  0
  -29.6180  -20.6790   20.3740 C   0  0  0  0  0  3  0  0  0  0  0  0
  -29.1130  -19.0980   20.4210 C   0  0  0  0  0  3  0  0  0  0  0  0
  -28.1120  -18.9130   19.3540 N   0  0  0  0  0  4  0  0  0  0  0  0
  -28.5280  -19.0300   18.4460 H   0  0  0  0  0  0  0  0  0  0  0  0
  -27.3700  -19.5820   19.4530 H   0  0  0  0  0  0  0  0  0  0  0  0
  -27.7020  -17.9990   19.4010 H   0  0  0  0  0  0  0  0  0  0  0  0
  -30.1520  -17.7990   20.3930 C   0  0  0  0  0  3  0  0  0  0  0  0
  -29.6760  -16.2470   20.7310 C   0  0  0  0  0  3  0  0  0  0  0  0
  -30.5220  -14.8920   20.3770 C   0  0  0  0  0  0  0  0  0  0  0  0
  -30.3720  -12.5930   19.3510 C   0  0  0  0  0  2  0  0  0  0  0  0
  -29.4240  -12.6530   18.1300 C   0  0  0  0  0  2  0  0  0  0  0  0
  -27.9570  -12.4600   18.5630 C   0  0  0  0  0  2  0  0  0  0  0  0
  -27.5810  -13.3420   19.7820 C   0  0  0  0  0  3  0  0  0  0  0  0
  -28.6450  -13.2620   20.8980 C   0  0  0  0  0  2  0  0  0  0  0  0
  -29.9390  -13.6370   20.3130 N   0  0  0  0  0  0  0  0  0  0  0  0
  -31.6990  -15.0030   20.0200 O   0  0  0  0  0  0  0  0  0  0  0  0
  -25.2010  -13.9330   20.5320 C   0  0  0  0  0  0  0  0  0  0  0  0
  -24.1340  -13.1610   20.9020 C   0  0  0  0  0  0  0  0  0  0  0  0
  -24.5930  -11.8090   20.8600 C   0  0  0  0  0  0  0  0  0  0  0  0
  -26.2400  -13.0520   20.2810 N   0  0  0  0  0  0  0  0  0  0  0  0
  -25.8830  -11.7690   20.5430 N   0  0  0  0  0  0  0  0  0  0  0  0
  -23.8640  -10.5480   21.0440 C   0  0  0  0  0  0  0  0  0  0  0  0
  -24.2870   -9.5790   21.9790 C   0  0  0  0  0  3  0  0  0  0  0  0
  -23.5570   -8.3830   22.1510 C   0  0  0  0  0  3  0  0  0  0  0  0
  -22.3900   -8.1480   21.3860 C   0  0  0  0  0  0  0  0  0  0  0  0
  -21.9860   -9.1060   20.4390 C   0  0  0  0  0  3  0  0  0  0  0  0
  -22.7160  -10.2930   20.2650 C   0  0  0  0  0  3  0  0  0  0  0  0
  -21.6320   -7.0050   21.4670 O   0  0  0  0  0  0  0  0  0  0  0  0
  -21.5640   -6.2670   22.6220 C   0  0  0  0  0  0  0  0  0  0  0  0
  -21.1000   -6.8220   23.8350 C   0  0  0  0  0  3  0  0  0  0  0  0
  -20.9810   -6.0100   24.9810 C   0  0  0  0  0  3  0  0  0  0  0  0
  -21.3130   -4.6440   24.9140 C   0  0  0  0  0  0  0  0  0  0  0  0
  -21.7700   -4.0880   23.7060 C   0  0  0  0  0  3  0  0  0  0  0  0
  -21.8910   -4.8970   22.5620 C   0  0  0  0  0  0  0  0  0  0  0  0
  -22.3110   -4.3520   21.3950 F   0  0  0  0  0  0  0  0  0  0  0  0
  -21.1910   -3.8620   26.0120 F   0  0  0  0  0  0  0  0  0  0  0  0
  -22.7400  -13.6420   21.1820 C   0  0  0  0  0  0  0  0  0  0  0  0
  -22.0130  -12.9430   22.0460 N   0  0  0  0  0  0  0  0  0  0  0  0
  -22.3050  -14.6720   20.6690 O   0  0  0  0  0  0  0  0  0  0  0  0
  -22.3780  -12.1090   22.4820 H   0  0  0  0  0  0  0  0  0  0  0  0
  -21.0770  -13.2470   22.2760 H   0  0  0  0  0  0  0  0  0  0  0  0
  -25.3690  -15.3040   20.3630 N   0  0  0  0  0  0  0  0  0  0  0  0
  -24.6060  -15.9610   20.4800 H   0  0  0  0  0  0  0  0  0  0  0  0
  -26.2170  -15.7310   20.0170 H   0  0  0  0  0  0  0  0  0  0  0  0
  1  2  1  0
  1 45  2  0
  3  4  1  0
  3  2  2  0
  5 16  2  0
  6  4  1  0
  6 11  1  0
  7 15  1  0
  7 17  1  0
  8 14  1  0
  8 10  1  0
  9 15  1  0
 10  9  1  0
 11 10  2  0
 12  6  2  0
 13 12  1  0
 13  8  2  0
 14  7  1  0
 15  5  1  0
 17 19  2  0
 18 17  1  0
 20 18  1  0
 21 30  2  0
 21 26  1  0
 22 18  1  0
 22 26  1  0
 23 22  1  0
 24 25  1  0
 24 23  1  0
 25 21  1  0
 26 27  2  0
 27 28  1  0
 29 28  2  0
 30 29  1  0
 31  5  1  0
 31 36  1  0
 31 32  1  0
 32 35  1  1
 32 33  1  0
 34 32  1  0
 36 39  1  0
 37 41  1  0
 37 36  1  0
 38 37  2  0
 41 40  1  0
 43 41  1  0
 43 44  1  0
 43 42  1  0
 46 45  1  0
 47 50  1  0
 47 49  1  0
 47 46  1  0
 48 47  1  0
 51 46  1  0
 51 52  2  0
 53 52  1  0
 54 59  1  0
 55 56  1  0
 55 54  1  0
 57 56  1  0
 57 64  1  0
 57 58  1  0
 59 53  1  0
 59 58  1  0
 60 53  2  0
 61 62  2  0
 62 81  1  0
 63 62  1  0
 63 66  1  0
 64 61  1  0
 64 65  1  0
 65 63  2  0
 66 67  1  0
 67 68  2  0
 69 72  1  0
 69 68  1  0
 70 69  2  0
 71 70  1  0
 71 66  2  0
 72 73  1  0
 73 74  1  0
 74 75  2  0
 76 75  1  0
 76 80  1  0
 77 76  2  0
 78 73  2  0
 78 77  1  0
 79 78  1  0
 81 82  1  0
 82 85  1  0
 82 84  1  0
 83 81  2  0
 86 87  1  0
 86 61  1  0
 88 86  1  0
M  ISO  4   3 101   4 101  52 100  53 100
M  END
>  <TORSDO>  (35) 
F 23

>  <SCORE>  (35) 
-12.769

>  <name>  (35) 
34

>  <ligand_id>  (35) 
34

>  <original_smiles>  (35) 
[H]c1c([H])c([H])c2c(c1[H])C([H])([H])C([H])([H])C([H])([H])C2([H])N([H])C(=O)C1([H])N(C(=O)C([H])(N([H])C(=O)C([H])(N([H])C([H])([H])[H])C([H])([H])[H])C(C([H])([H])[H])(C([H])([H])[H])C([H])([H])[H])C([H])([H])c2c([H])c(OC([H])([H])C([H])([H])C([H])([H])C([H])([H])C([H])(C([H])([H])C([H])([H])C(=O)N3C([H])([H])C([H])([H])C([H])([H])C([H])(n4nc(-c5c([H])c([H])c(Oc6c([H])c([H])c(F)c([H])c6F)c([H])c5[H])c(C(=O)N([H])[H])c4N([H])[H])C3([H])[H])[N+]([H])([H])[H])c([H])c([H])c2C1([H])[H]

>  <smiles>  (35) 
[H]c1c([H])c([H])c2c(c1[H])C([H])([H])C([H])([H])C([H])([H])C2([H])N([H])C(=O)C1([H])N(C(=O)C([H])(N([H])C(=O)C([H])(N([H])C([H])([H])[H])C([H])([H])[H])C(C([H])([H])[H])(C([H])([H])[H])C([H])([H])[H])C([H])([H])c2c([H])c(OC([H])([H])C([H])([H])C([H])([H])C([H])([H])C([H])(C([H])([H])C([H])([H])C(=O)N3C([H])([H])C([H])([H])C([H])([H])C([H])(n4nc(-c5c([H])c([H])c(Oc6c([H])c([H])c(F)c([H])c6F)c([H])c5[H])c(C(=O)N([H])[H])c4N([H])[H])C3([H])[H])[N+]([H])([H])[H])c([H])c([H])c2C1([H])[H]

$$$$
35:0:0
     RDKit          3D

 90 98  0  0  1  0  0  0  0  0999 V2000
  -29.3450  -21.0440   20.8220 C   0  0  0  0  0  0  0  0  0  0  0  0
  -28.8300  -20.6810   21.8840 O   0  0  0  0  0  0  0  0  0  0  0  0
  -32.4640  -20.4900   18.7240 C   0  0  0  0  0  3  0  0  0  0  0  0
  -32.8140  -19.1520   18.9140 C   0  0  0  0  0  3  0  0  0  0  0  0
  -31.3050  -21.0000   19.3330 C   0  0  0  0  0  3  0  0  0  0  0  0
  -31.9700  -18.3160   19.6600 C   0  0  0  0  0  3  0  0  0  0  0  0
  -30.4400  -20.2020   20.1330 C   0  0  0  0  0  0  0  0  0  0  0  0
  -30.7760  -18.7650   20.2670 C   0  0  0  0  0  0  0  0  0  0  0  0
  -30.0610  -17.6160   21.0920 C   0  0  0  0  0  2  0  0  0  0  0  0
  -29.7000  -16.1520   20.4600 C   0  0  0  0  0  2  0  0  0  0  0  0
  -30.5940  -14.8060   20.3790 C   0  0  0  0  0  0  0  0  0  0  0  0
  -30.4180  -12.5630   19.2940 C   0  0  0  0  0  2  0  0  0  0  0  0
  -29.4340  -12.6360   18.0990 C   0  0  0  0  0  2  0  0  0  0  0  0
  -27.9700  -12.4610   18.5420 C   0  0  0  0  0  2  0  0  0  0  0  0
  -27.6240  -13.3140   19.7870 C   0  0  0  0  0  3  0  0  0  0  0  0
  -28.7020  -13.1720   20.8820 C   0  0  0  0  0  2  0  0  0  0  0  0
  -29.9970  -13.5630   20.3030 N   0  0  0  0  0  0  0  0  0  0  0  0
  -31.7940  -14.9060   20.1090 O   0  0  0  0  0  0  0  0  0  0  0  0
  -25.2300  -13.9020   20.4930 C   0  0  0  0  0  0  0  0  0  0  0  0
  -24.1630  -13.1290   20.8600 C   0  0  0  0  0  0  0  0  0  0  0  0
  -24.6280  -11.7800   20.8440 C   0  0  0  0  0  0  0  0  0  0  0  0
  -26.2810  -13.0240   20.2800 N   0  0  0  0  0  0  0  0  0  0  0  0
  -25.9210  -11.7420   20.5450 N   0  0  0  0  0  0  0  0  0  0  0  0
  -23.8990  -10.5180   21.0380 C   0  0  0  0  0  0  0  0  0  0  0  0
  -24.3370   -9.5490   21.9680 C   0  0  0  0  0  3  0  0  0  0  0  0
  -23.6100   -8.3530   22.1510 C   0  0  0  0  0  3  0  0  0  0  0  0
  -22.4310   -8.1170   21.4050 C   0  0  0  0  0  0  0  0  0  0  0  0
  -22.0150   -9.0720   20.4610 C   0  0  0  0  0  3  0  0  0  0  0  0
  -22.7430  -10.2600   20.2750 C   0  0  0  0  0  3  0  0  0  0  0  0
  -21.6740   -6.9730   21.5000 O   0  0  0  0  0  0  0  0  0  0  0  0
  -21.6430   -6.2230   22.6470 C   0  0  0  0  0  0  0  0  0  0  0  0
  -21.2550   -6.7750   23.8890 C   0  0  0  0  0  3  0  0  0  0  0  0
  -21.1680   -5.9530   25.0290 C   0  0  0  0  0  3  0  0  0  0  0  0
  -21.4610   -4.5790   24.9320 C   0  0  0  0  0  0  0  0  0  0  0  0
  -21.8440   -4.0280   23.6970 C   0  0  0  0  0  3  0  0  0  0  0  0
  -21.9320   -4.8460   22.5590 C   0  0  0  0  0  0  0  0  0  0  0  0
  -22.2780   -4.3040   21.3690 F   0  0  0  0  0  0  0  0  0  0  0  0
  -21.3720   -3.7890   26.0270 F   0  0  0  0  0  0  0  0  0  0  0  0
  -22.7620  -13.6080   21.1210 C   0  0  0  0  0  0  0  0  0  0  0  0
  -22.0300  -12.9150   21.9890 N   0  0  0  0  0  0  0  0  0  0  0  0
  -22.3230  -14.6270   20.5890 O   0  0  0  0  0  0  0  0  0  0  0  0
  -22.3950  -12.0840   22.4330 H   0  0  0  0  0  0  0  0  0  0  0  0
  -21.0920  -13.2170   22.2110 H   0  0  0  0  0  0  0  0  0  0  0  0
  -25.3930  -15.2680   20.2990 N   0  0  0  0  0  0  0  0  0  0  0  0
  -24.6290  -15.9290   20.3740 H   0  0  0  0  0  0  0  0  0  0  0  0
  -26.2580  -15.6980   19.9960 H   0  0  0  0  0  0  0  0  0  0  0  0
  -28.7660  -22.3750   20.1460 C   0  0  0  0  0  2  0  0  0  0  0  0
  -29.0540  -23.8740   20.6640 C   0  0  0  0  0  3  0  0  0  0  0  0
  -28.0840  -25.0080   20.0750 C   0  0  0  0  0  3  0  0  0  0  0  0
  -28.3130  -26.4700   20.2470 O   0  0  0  0  0  0  0  0  0  0  0  0
  -24.6110  -31.8890   23.2330 C   0  0  0  0  0  0  0  0  0  0  0  0
  -27.2020  -27.3340   20.1500 C   0  0  0  0  0  0  0  0  0  0  0  0
  -23.3950  -30.4850   21.6040 C   0  0  0  0  0  3  0  0  0  0  0  0
  -24.8360  -28.9550   20.1390 C   0  0  0  0  0  0  0  0  0  0  0  0
  -25.9320  -30.8140   21.3940 C   0  0  0  0  0  2  0  0  0  0  0  0
  -26.0070  -29.4380   20.7390 C   0  0  0  0  0  0  0  0  0  0  0  0
  -27.1910  -28.6430   20.7290 C   0  0  0  0  0  3  0  0  0  0  0  0
  -26.0120  -26.9150   19.5050 C   0  0  0  0  0  3  0  0  0  0  0  0
  -24.8430  -27.7060   19.5030 C   0  0  0  0  0  3  0  0  0  0  0  0
  -23.5940  -29.8220   20.2150 C   0  0  0  0  0  2  0  0  0  0  0  0
  -24.6650  -31.0790   22.1350 N   0  0  0  0  0  0  0  0  0  0  0  0
  -23.5320  -32.1650   23.7780 O   0  0  0  0  0  0  0  0  0  0  0  0
  -22.7460  -29.4640   22.5670 C   0  0  0  0  0  0  0  0  0  0  0  0
  -21.4180  -29.2840   22.4530 N   0  0  0  0  0  0  0  0  0  0  0  0
  -23.4370  -28.8370   23.3750 O   0  0  0  0  0  0  0  0  0  0  0  0
  -20.9260  -29.8410   21.7660 H   0  0  0  0  0  0  0  0  0  0  0  0
  -18.0450  -28.0760   22.9650 C   0  0  0  0  0  0  0  0  0  0  0  0
  -20.6050  -28.3450   23.2270 C   0  0  0  0  0  3  0  0  0  0  0  0
  -20.7090  -26.9140   22.6520 C   0  0  0  0  0  2  0  0  0  0  0  0
  -19.6020  -26.5870   21.6440 C   0  0  0  0  0  2  0  0  0  0  0  0
  -18.2230  -26.7250   22.2950 C   0  0  0  0  0  2  0  0  0  0  0  0
  -19.1630  -28.8460   23.3850 C   0  0  0  0  0  0  0  0  0  0  0  0
  -18.9410  -30.1110   23.9700 C   0  0  0  0  0  3  0  0  0  0  0  0
  -17.6360  -30.6040   24.1490 C   0  0  0  0  0  3  0  0  0  0  0  0
  -16.5320  -29.8320   23.7450 C   0  0  0  0  0  3  0  0  0  0  0  0
  -16.7380  -28.5720   23.1550 C   0  0  0  0  0  3  0  0  0  0  0  0
  -25.8990  -32.5220   23.8400 C   0  0  0  0  0  3  0  0  0  0  0  0
  -25.5910  -33.9170   24.1760 N   0  0  0  0  0  0  0  0  0  0  0  0
  -25.9150  -34.9740   23.4190 C   0  0  0  0  0  0  0  0  0  0  0  0
  -26.5720  -34.8760   22.3800 O   0  0  0  0  0  0  0  0  0  0  0  0
  -24.9950  -34.0660   24.9780 H   0  0  0  0  0  0  0  0  0  0  0  0
  -24.1780  -36.7640   23.0950 C   0  0  0  0  0  1  0  0  0  0  0  0
  -25.4310  -36.3600   23.8880 C   0  0  0  0  0  3  0  0  0  0  0  0
  -27.5790  -37.2380   24.6870 C   0  0  0  0  0  1  0  0  0  0  0  0
  -26.4610  -37.4150   23.7650 N   0  0  0  0  0  0  0  0  0  0  0  0
  -26.0590  -38.3320   23.9340 H   0  0  0  0  0  0  0  0  0  0  0  0
  -26.4300  -31.7490   25.1060 C   0  0  1  0  0  0  0  0  0  0  0  0
  -25.3500  -31.5080   26.1890 C   0  0  0  0  0  1  0  0  0  0  0  0
  -27.0120  -30.3750   24.7050 C   0  0  0  0  0  1  0  0  0  0  0  0
  -27.5930  -32.5440   25.7480 C   0  0  0  0  0  1  0  0  0  0  0  0
  1  2  2  0
  3  4  2  0
  3  5  1  0
  4  6  1  0
  5  7  2  0
  6  8  2  0
  7  8  1  0
  7  1  1  0
  8  9  1  0
 10  9  1  0
 11 10  1  0
 12 17  1  0
 13 14  1  0
 13 12  1  0
 15 14  1  0
 15 22  1  0
 15 16  1  0
 17 11  1  0
 17 16  1  0
 18 11  2  0
 19 20  2  0
 20 39  1  0
 21 20  1  0
 21 24  1  0
 22 19  1  0
 22 23  1  0
 23 21  2  0
 24 25  1  0
 25 26  2  0
 27 30  1  0
 27 26  1  0
 28 27  2  0
 29 28  1  0
 29 24  2  0
 30 31  1  0
 31 32  1  0
 32 33  2  0
 34 33  1  0
 34 38  1  0
 35 34  2  0
 36 31  2  0
 36 35  1  0
 37 36  1  0
 39 40  1  0
 40 43  1  0
 40 42  1  0
 41 39  2  0
 44 45  1  0
 44 19  1  0
 46 44  1  0
 47 48  1  0
 47  1  1  0
 49 50  1  0
 49 48  2  0
 51 62  2  0
 52 50  1  0
 52 57  1  0
 53 61  1  0
 53 63  1  0
 54 60  1  0
 54 56  1  0
 55 61  1  0
 56 55  1  0
 57 56  2  0
 58 52  2  0
 59 58  1  0
 59 54  2  0
 60 53  1  0
 61 51  1  0
 63 65  2  0
 64 63  1  0
 66 64  1  0
 67 76  2  0
 67 72  1  0
 68 64  1  0
 68 72  1  0
 69 68  1  0
 70 71  1  0
 70 69  1  0
 71 67  1  0
 72 73  2  0
 73 74  1  0
 75 74  2  0
 76 75  1  0
 77 51  1  0
 77 78  1  0
 77 87  1  0
 78 81  1  0
 79 83  1  0
 79 78  1  0
 80 79  2  0
 83 82  1  0
 85 83  1  0
 85 86  1  0
 85 84  1  0
 87 90  1  1
 87 88  1  0
 89 87  1  0
M  ISO  4  10 100  11 100  49 101  50 101
M  END
>  <TORSDO>  (36) 
F 22

>  <SCORE>  (36) 
-12.870

>  <name>  (36) 
35

>  <ligand_id>  (36) 
35

>  <original_smiles>  (36) 
[H]c1c([H])c([H])c(C([H])([H])C([H])([H])C(=O)N2C([H])([H])C([H])([H])C([H])([H])C([H])(n3nc(-c4c([H])c([H])c(Oc5c([H])c([H])c(F)c([H])c5F)c([H])c4[H])c(C(=O)N([H])[H])c3N([H])[H])C2([H])[H])c(C(=O)C([H])([H])C([H])([H])C([H])([H])Oc2c([H])c([H])c3c(c2[H])C([H])([H])N(C(=O)C([H])(N([H])C(=O)C([H])(N([H])C([H])([H])[H])C([H])([H])[H])C(C([H])([H])[H])(C([H])([H])[H])C([H])([H])[H])C([H])(C(=O)N([H])C2([H])c4c([H])c([H])c([H])c([H])c4C([H])([H])C([H])([H])C2([H])[H])C3([H])[H])c1[H]

>  <smiles>  (36) 
[H]c1c([H])c([H])c(C([H])([H])C([H])([H])C(=O)N2C([H])([H])C([H])([H])C([H])([H])C([H])(n3nc(-c4c([H])c([H])c(Oc5c([H])c([H])c(F)c([H])c5F)c([H])c4[H])c(C(=O)N([H])[H])c3N([H])[H])C2([H])[H])c(C(=O)C([H])([H])C([H])([H])C([H])([H])Oc2c([H])c([H])c3c(c2[H])C([H])([H])N(C(=O)C([H])(N([H])C(=O)C([H])(N([H])C([H])([H])[H])C([H])([H])[H])C(C([H])([H])[H])(C([H])([H])[H])C([H])([H])[H])C([H])(C(=O)N([H])C2([H])c4c([H])c([H])c([H])c([H])c4C([H])([H])C([H])([H])C2([H])[H])C3([H])[H])c1[H]

$$$$
36:0:0
     RDKit          3D

 85 92  0  0  1  0  0  0  0  0999 V2000
  -28.9630  -22.2960   20.2850 C   0  0  0  0  0  0  0  0  0  0  0  0
  -30.1480  -22.6400   20.3060 O   0  0  0  0  0  0  0  0  0  0  0  0
  -28.7630  -20.4930   20.3150 C   0  0  0  0  0  3  0  0  0  0  0  0
  -29.5770  -19.1810   20.2710 C   0  0  0  0  0  0  0  0  0  0  0  0
  -30.9020  -19.3430   20.1470 O   0  0  0  0  0  0  0  0  0  0  0  0
  -31.3000  -18.4810   20.1270 H   0  0  0  0  0  0  0  0  0  0  0  0
  -29.3600  -17.3300   20.3450 C   0  0  0  0  0  2  0  0  0  0  0  0
  -30.2390  -15.6770   20.1780 C   0  0  0  0  0  0  0  0  0  0  0  0
  -30.3670  -13.1330   19.3520 C   0  0  0  0  0  2  0  0  0  0  0  0
  -29.4430  -12.7720   18.1500 C   0  0  0  0  0  2  0  0  0  0  0  0
  -28.0250  -12.4140   18.6250 C   0  0  0  0  0  2  0  0  0  0  0  0
  -27.5410  -13.3920   19.7180 C   0  0  0  0  0  3  0  0  0  0  0  0
  -28.5960  -13.6710   20.8120 C   0  0  0  0  0  2  0  0  0  0  0  0
  -29.7700  -14.2910   20.1570 N   0  0  0  0  0  0  0  0  0  0  0  0
  -31.4600  -15.6480   19.9300 O   0  0  0  0  0  0  0  0  0  0  0  0
  -25.1970  -13.8950   20.5590 C   0  0  0  0  0  0  0  0  0  0  0  0
  -24.1540  -13.1020   20.9430 C   0  0  0  0  0  0  0  0  0  0  0  0
  -24.6320  -11.7570   20.8770 C   0  0  0  0  0  0  0  0  0  0  0  0
  -26.2400  -13.0360   20.2680 N   0  0  0  0  0  0  0  0  0  0  0  0
  -25.9170  -11.7410   20.5280 N   0  0  0  0  0  0  0  0  0  0  0  0
  -23.9190  -10.4860   21.0670 C   0  0  0  0  0  0  0  0  0  0  0  0
  -24.3750   -9.5080   21.9790 C   0  0  0  0  0  3  0  0  0  0  0  0
  -23.6570   -8.3060   22.1600 C   0  0  0  0  0  3  0  0  0  0  0  0
  -22.4680   -8.0720   21.4290 C   0  0  0  0  0  0  0  0  0  0  0  0
  -22.0300   -9.0390   20.5050 C   0  0  0  0  0  3  0  0  0  0  0  0
  -22.7500  -10.2320   20.3220 C   0  0  0  0  0  3  0  0  0  0  0  0
  -21.7190   -6.9230   21.5190 O   0  0  0  0  0  0  0  0  0  0  0  0
  -21.6910   -6.1700   22.6660 C   0  0  0  0  0  0  0  0  0  0  0  0
  -21.2680   -6.7100   23.9000 C   0  0  0  0  0  3  0  0  0  0  0  0
  -21.1880   -5.8840   25.0390 C   0  0  0  0  0  3  0  0  0  0  0  0
  -21.5190   -4.5200   24.9450 C   0  0  0  0  0  0  0  0  0  0  0  0
  -21.9360   -3.9790   23.7150 C   0  0  0  0  0  3  0  0  0  0  0  0
  -22.0170   -4.8020   22.5790 C   0  0  0  0  0  0  0  0  0  0  0  0
  -22.3980   -4.2720   21.3920 F   0  0  0  0  0  0  0  0  0  0  0  0
  -21.4360   -3.7230   26.0360 F   0  0  0  0  0  0  0  0  0  0  0  0
  -22.7600  -13.5630   21.2520 C   0  0  0  0  0  0  0  0  0  0  0  0
  -22.0600  -12.8540   22.1300 N   0  0  0  0  0  0  0  0  0  0  0  0
  -22.3030  -14.5900   20.7520 O   0  0  0  0  0  0  0  0  0  0  0  0
  -22.4450  -12.0240   22.5560 H   0  0  0  0  0  0  0  0  0  0  0  0
  -21.1260  -13.1460   22.3800 H   0  0  0  0  0  0  0  0  0  0  0  0
  -25.3430  -15.2700   20.4020 N   0  0  0  0  0  0  0  0  0  0  0  0
  -24.5760  -15.9160   20.5530 H   0  0  0  0  0  0  0  0  0  0  0  0
  -26.1830  -15.7250   20.0660 H   0  0  0  0  0  0  0  0  0  0  0  0
  -27.8870  -23.8210   20.2290 C   0  0  0  0  0  2  0  0  0  0  0  0
  -28.1520  -25.5590   20.2990 O   0  0  0  0  0  0  0  0  0  0  0  0
  -24.6840  -31.8780   23.1980 C   0  0  0  0  0  0  0  0  0  0  0  0
  -27.1850  -26.7740   20.2450 C   0  0  0  0  0  0  0  0  0  0  0  0
  -23.4860  -30.4730   21.5750 C   0  0  0  0  0  3  0  0  0  0  0  0
  -24.9220  -28.8090   20.1740 C   0  0  0  0  0  0  0  0  0  0  0  0
  -26.0640  -30.6070   21.4450 C   0  0  0  0  0  2  0  0  0  0  0  0
  -26.1220  -29.1690   20.8010 C   0  0  0  0  0  0  0  0  0  0  0  0
  -27.2380  -28.1800   20.8020 C   0  0  0  0  0  3  0  0  0  0  0  0
  -25.9510  -26.6220   19.5620 C   0  0  0  0  0  3  0  0  0  0  0  0
  -24.8760  -27.5600   19.5300 C   0  0  0  0  0  3  0  0  0  0  0  0
  -23.7190  -29.7630   20.2110 C   0  0  0  0  0  2  0  0  0  0  0  0
  -24.7690  -31.0190   22.1250 N   0  0  0  0  0  0  0  0  0  0  0  0
  -23.5930  -32.1870   23.7080 O   0  0  0  0  0  0  0  0  0  0  0  0
  -22.7680  -29.5070   22.5550 C   0  0  0  0  0  0  0  0  0  0  0  0
  -21.4340  -29.3570   22.4350 N   0  0  0  0  0  0  0  0  0  0  0  0
  -23.4220  -28.8880   23.3980 O   0  0  0  0  0  0  0  0  0  0  0  0
  -20.9560  -29.9050   21.7340 H   0  0  0  0  0  0  0  0  0  0  0  0
  -18.0440  -28.1570   22.9580 C   0  0  0  0  0  0  0  0  0  0  0  0
  -20.6040  -28.4310   23.2170 C   0  0  0  0  0  3  0  0  0  0  0  0
  -20.7050  -26.9910   22.6630 C   0  0  0  0  0  2  0  0  0  0  0  0
  -19.6060  -26.6550   21.6510 C   0  0  0  0  0  2  0  0  0  0  0  0
  -18.2230  -26.8030   22.2920 C   0  0  0  0  0  2  0  0  0  0  0  0
  -19.1600  -28.9290   23.3770 C   0  0  0  0  0  0  0  0  0  0  0  0
  -18.9350  -30.1920   23.9650 C   0  0  0  0  0  3  0  0  0  0  0  0
  -17.6280  -30.6860   24.1330 C   0  0  0  0  0  3  0  0  0  0  0  0
  -16.5260  -29.9140   23.7260 C   0  0  0  0  0  3  0  0  0  0  0  0
  -16.7350  -28.6500   23.1450 C   0  0  0  0  0  3  0  0  0  0  0  0
  -25.9510  -32.5290   23.8300 C   0  0  0  0  0  3  0  0  0  0  0  0
  -26.4580  -31.7670   25.1190 C   0  0  1  0  0  0  0  0  0  0  0  0
  -25.3590  -31.5440   26.1850 C   0  0  0  0  0  1  0  0  0  0  0  0
  -27.0370  -30.3820   24.7530 C   0  0  0  0  0  1  0  0  0  0  0  0
  -27.6090  -32.5630   25.7770 C   0  0  0  0  0  1  0  0  0  0  0  0
  -25.6290  -33.9280   24.1730 N   0  0  0  0  0  0  0  0  0  0  0  0
  -25.9400  -34.9970   23.4270 C   0  0  0  0  0  0  0  0  0  0  0  0
  -26.5860  -34.9090   22.3800 O   0  0  0  0  0  0  0  0  0  0  0  0
  -25.0490  -34.0680   24.9870 H   0  0  0  0  0  0  0  0  0  0  0  0
  -24.1900  -36.7910   23.1600 C   0  0  0  0  0  1  0  0  0  0  0  0
  -25.4650  -36.3820   23.9170 C   0  0  0  0  0  3  0  0  0  0  0  0
  -27.6210  -37.2810   24.6740 C   0  0  0  0  0  1  0  0  0  0  0  0
  -26.4850  -37.4440   23.7720 N   0  0  0  0  0  0  0  0  0  0  0  0
  -26.0780  -38.3600   23.9370 H   0  0  0  0  0  0  0  0  0  0  0  0
  1  2  2  0
  1  3  1  0
  4  3  2  0
  4  7  1  0
  5  4  1  0
  6  5  1  0
  8  7  1  0
  9 14  1  0
 10 11  1  0
 10  9  1  0
 12 11  1  0
 12 19  1  0
 12 13  1  0
 14  8  1  0
 14 13  1  0
 15  8  2  0
 16 17  2  0
 17 36  1  0
 18 17  1  0
 18 21  1  0
 19 20  1  0
 19 16  1  0
 20 18  2  0
 21 22  1  0
 22 23  2  0
 24 27  1  0
 24 23  1  0
 25 24  2  0
 26 25  1  0
 26 21  2  0
 27 28  1  0
 28 29  1  0
 29 30  2  0
 31 30  1  0
 31 35  1  0
 32 31  2  0
 33 28  2  0
 33 32  1  0
 34 33  1  0
 36 37  1  0
 37 40  1  0
 37 39  1  0
 38 36  2  0
 41 42  1  0
 41 16  1  0
 43 41  1  0
 44  1  1  0
 44 45  1  0
 46 57  2  0
 47 45  1  0
 47 52  1  0
 48 56  1  0
 48 58  1  0
 49 55  1  0
 49 51  1  0
 50 56  1  0
 51 52  2  0
 51 50  1  0
 53 47  2  0
 54 53  1  0
 54 49  2  0
 55 48  1  0
 56 46  1  0
 58 60  2  0
 59 58  1  0
 61 59  1  0
 62 71  2  0
 62 67  1  0
 63 59  1  0
 63 67  1  0
 64 63  1  0
 65 66  1  0
 65 64  1  0
 66 62  1  0
 67 68  2  0
 68 69  1  0
 70 69  2  0
 71 70  1  0
 72 46  1  0
 72 77  1  0
 72 73  1  0
 73 76  1  1
 73 74  1  0
 75 73  1  0
 77 80  1  0
 78 82  1  0
 78 77  1  0
 79 78  2  0
 82 81  1  0
 84 82  1  0
 84 85  1  0
 84 83  1  0
M  ISO  4   7 100   8 100  44 101  45 101
M  END
>  <TORSDO>  (37) 
F 20

>  <SCORE>  (37) 
-16.211

>  <name>  (37) 
36

>  <ligand_id>  (37) 
36

>  <original_smiles>  (37) 
[H]OC(=C([H])C(=O)C([H])([H])Oc1c([H])c([H])c2c(c1[H])C([H])([H])N(C(=O)C([H])(N([H])C(=O)C([H])(N([H])C([H])([H])[H])C([H])([H])[H])C(C([H])([H])[H])(C([H])([H])[H])C([H])([H])[H])C([H])(C(=O)N([H])C1([H])c3c([H])c([H])c([H])c([H])c3C([H])([H])C([H])([H])C1([H])[H])C2([H])[H])C([H])([H])C(=O)N1C([H])([H])C([H])([H])C([H])([H])C([H])(n2nc(-c3c([H])c([H])c(Oc4c([H])c([H])c(F)c([H])c4F)c([H])c3[H])c(C(=O)N([H])[H])c2N([H])[H])C1([H])[H]

>  <smiles>  (37) 
[H]OC(=C([H])C(=O)C([H])([H])Oc1c([H])c([H])c2c(c1[H])C([H])([H])N(C(=O)C([H])(N([H])C(=O)C([H])(N([H])C([H])([H])[H])C([H])([H])[H])C(C([H])([H])[H])(C([H])([H])[H])C([H])([H])[H])C([H])(C(=O)N([H])C1([H])c3c([H])c([H])c([H])c([H])c3C([H])([H])C([H])([H])C1([H])[H])C2([H])[H])C([H])([H])C(=O)N1C([H])([H])C([H])([H])C([H])([H])C([H])(n2nc(-c3c([H])c([H])c(Oc4c([H])c([H])c(F)c([H])c4F)c([H])c3[H])c(C(=O)N([H])[H])c2N([H])[H])C1([H])[H]

$$$$
37:0:0
     RDKit          3D

 90 98  0  0  1  0  0  0  0  0999 V2000
  -31.7540  -21.9910   18.3180 C   0  0  0  0  0  3  0  0  0  0  0  0
  -31.4180  -23.3470   18.2670 C   0  0  0  0  0  3  0  0  0  0  0  0
  -30.9790  -21.1060   19.0860 C   0  0  0  0  0  3  0  0  0  0  0  0
  -30.3100  -23.8170   18.9870 C   0  0  0  0  0  3  0  0  0  0  0  0
  -29.8430  -21.5260   19.8250 C   0  0  0  0  0  0  0  0  0  0  0  0
  -29.5030  -22.9670   19.7800 C   0  0  0  0  0  0  0  0  0  0  0  0
  -29.2220  -20.3560   20.6290 C   0  0  0  0  0  0  0  0  0  0  0  0
  -28.6580  -20.5610   21.7050 O   0  0  0  0  0  0  0  0  0  0  0  0
  -29.2210  -18.8460   20.0740 C   0  0  0  0  0  2  0  0  0  0  0  0
  -30.1990  -17.6590   20.5950 C   0  0  0  0  0  2  0  0  0  0  0  0
  -29.6500  -16.1300   20.6040 C   0  0  0  0  0  2  0  0  0  0  0  0
  -30.5580  -14.8240   20.3560 C   0  0  0  0  0  0  0  0  0  0  0  0
  -30.4260  -12.5480   19.3220 C   0  0  0  0  0  2  0  0  0  0  0  0
  -29.4840  -12.6360   18.0980 C   0  0  0  0  0  2  0  0  0  0  0  0
  -28.0120  -12.4460   18.5160 C   0  0  0  0  0  2  0  0  0  0  0  0
  -27.6280  -13.3170   19.7400 C   0  0  0  0  0  3  0  0  0  0  0  0
  -28.6830  -13.2040   20.8610 C   0  0  0  0  0  2  0  0  0  0  0  0
  -29.9880  -13.5710   20.2970 N   0  0  0  0  0  0  0  0  0  0  0  0
  -31.7400  -14.9680   20.0270 O   0  0  0  0  0  0  0  0  0  0  0  0
  -25.2280  -13.8970   20.4430 C   0  0  0  0  0  0  0  0  0  0  0  0
  -24.1670  -13.1170   20.8130 C   0  0  0  0  0  0  0  0  0  0  0  0
  -24.6450  -11.7710   20.8060 C   0  0  0  0  0  0  0  0  0  0  0  0
  -26.2820  -13.0240   20.2250 N   0  0  0  0  0  0  0  0  0  0  0  0
  -25.9380  -11.7420   20.5070 N   0  0  0  0  0  0  0  0  0  0  0  0
  -23.9320  -10.5020   21.0080 C   0  0  0  0  0  0  0  0  0  0  0  0
  -24.3700   -9.5520   21.9560 C   0  0  0  0  0  3  0  0  0  0  0  0
  -23.6550   -8.3480   22.1430 C   0  0  0  0  0  3  0  0  0  0  0  0
  -22.4910   -8.0880   21.3830 C   0  0  0  0  0  0  0  0  0  0  0  0
  -22.0740   -9.0280   20.4240 C   0  0  0  0  0  3  0  0  0  0  0  0
  -22.7890  -10.2220   20.2350 C   0  0  0  0  0  3  0  0  0  0  0  0
  -21.7480   -6.9360   21.4800 O   0  0  0  0  0  0  0  0  0  0  0  0
  -21.7040   -6.2040   22.6390 C   0  0  0  0  0  0  0  0  0  0  0  0
  -21.2670   -6.7650   23.8590 C   0  0  0  0  0  3  0  0  0  0  0  0
  -21.1700   -5.9580   25.0100 C   0  0  0  0  0  3  0  0  0  0  0  0
  -21.5010   -4.5930   24.9430 C   0  0  0  0  0  0  0  0  0  0  0  0
  -21.9330   -4.0310   23.7290 C   0  0  0  0  0  3  0  0  0  0  0  0
  -22.0310   -4.8350   22.5790 C   0  0  0  0  0  0  0  0  0  0  0  0
  -22.4270   -4.2830   21.4070 F   0  0  0  0  0  0  0  0  0  0  0  0
  -21.4000   -3.8150   26.0470 F   0  0  0  0  0  0  0  0  0  0  0  0
  -22.7620  -13.5810   21.0670 C   0  0  0  0  0  0  0  0  0  0  0  0
  -22.0330  -12.8880   21.9340 N   0  0  0  0  0  0  0  0  0  0  0  0
  -22.3180  -14.5950   20.5290 O   0  0  0  0  0  0  0  0  0  0  0  0
  -22.4040  -12.0690   22.3920 H   0  0  0  0  0  0  0  0  0  0  0  0
  -21.0900  -13.1830   22.1460 H   0  0  0  0  0  0  0  0  0  0  0  0
  -25.3790  -15.2670   20.2500 N   0  0  0  0  0  0  0  0  0  0  0  0
  -24.6080  -15.9170   20.3530 H   0  0  0  0  0  0  0  0  0  0  0  0
  -26.2310  -15.7120   19.9360 H   0  0  0  0  0  0  0  0  0  0  0  0
  -28.2830  -23.7310   20.4190 C   0  0  0  0  0  2  0  0  0  0  0  0
  -28.3890  -25.2730   20.9320 C   0  0  0  0  0  2  0  0  0  0  0  0
  -28.3980  -26.5200   20.1120 O   0  0  0  0  0  0  0  0  0  0  0  0
  -24.6560  -31.9140   23.2290 C   0  0  0  0  0  0  0  0  0  0  0  0
  -27.2780  -27.3700   20.1490 C   0  0  0  0  0  0  0  0  0  0  0  0
  -23.4490  -30.5110   21.5950 C   0  0  0  0  0  3  0  0  0  0  0  0
  -24.9010  -28.9680   20.1560 C   0  0  0  0  0  0  0  0  0  0  0  0
  -25.9850  -30.8480   21.3890 C   0  0  0  0  0  2  0  0  0  0  0  0
  -26.0730  -29.4680   20.7410 C   0  0  0  0  0  0  0  0  0  0  0  0
  -27.2670  -28.6820   20.7230 C   0  0  0  0  0  3  0  0  0  0  0  0
  -26.0870  -26.9200   19.5500 C   0  0  0  0  0  3  0  0  0  0  0  0
  -24.9110  -27.6990   19.5500 C   0  0  0  0  0  3  0  0  0  0  0  0
  -23.6580  -29.8350   20.2130 C   0  0  0  0  0  2  0  0  0  0  0  0
  -24.7170  -31.1090   22.1270 N   0  0  0  0  0  0  0  0  0  0  0  0
  -23.5760  -32.1810   23.7750 O   0  0  0  0  0  0  0  0  0  0  0  0
  -22.8010  -29.4890   22.5590 C   0  0  0  0  0  0  0  0  0  0  0  0
  -21.4760  -29.2990   22.4410 N   0  0  0  0  0  0  0  0  0  0  0  0
  -23.4900  -28.8690   23.3730 O   0  0  0  0  0  0  0  0  0  0  0  0
  -20.9770  -29.8510   21.7570 H   0  0  0  0  0  0  0  0  0  0  0  0
  -18.1160  -28.0580   22.9530 C   0  0  0  0  0  0  0  0  0  0  0  0
  -20.6710  -28.3530   23.2160 C   0  0  0  0  0  3  0  0  0  0  0  0
  -20.7910  -26.9220   22.6430 C   0  0  0  0  0  2  0  0  0  0  0  0
  -19.6910  -26.5820   21.6310 C   0  0  0  0  0  2  0  0  0  0  0  0
  -18.3100  -26.7100   22.2790 C   0  0  0  0  0  2  0  0  0  0  0  0
  -19.2250  -28.8360   23.3780 C   0  0  0  0  0  0  0  0  0  0  0  0
  -18.9900  -30.0970   23.9690 C   0  0  0  0  0  3  0  0  0  0  0  0
  -17.6790  -30.5800   24.1370 C   0  0  0  0  0  3  0  0  0  0  0  0
  -16.5840  -29.8000   23.7270 C   0  0  0  0  0  3  0  0  0  0  0  0
  -16.8040  -28.5400   23.1400 C   0  0  0  0  0  3  0  0  0  0  0  0
  -25.9390  -32.5550   23.8430 C   0  0  0  0  0  3  0  0  0  0  0  0
  -25.6240  -33.9530   24.1720 N   0  0  0  0  0  0  0  0  0  0  0  0
  -25.9450  -35.0070   23.4090 C   0  0  0  0  0  0  0  0  0  0  0  0
  -26.6060  -34.9050   22.3720 O   0  0  0  0  0  0  0  0  0  0  0  0
  -25.0360  -34.1060   24.9790 H   0  0  0  0  0  0  0  0  0  0  0  0
  -24.2060  -36.7930   23.0680 C   0  0  0  0  0  1  0  0  0  0  0  0
  -25.4560  -36.3940   23.8700 C   0  0  0  0  0  3  0  0  0  0  0  0
  -27.5930  -37.2900   24.6810 C   0  0  0  0  0  1  0  0  0  0  0  0
  -26.4830  -37.4510   23.7460 N   0  0  0  0  0  0  0  0  0  0  0  0
  -26.0740  -38.3700   23.8940 H   0  0  0  0  0  0  0  0  0  0  0  0
  -26.4660  -31.7920   25.1200 C   0  0  1  0  0  0  0  0  0  0  0  0
  -25.3810  -31.5540   26.1950 C   0  0  0  0  0  1  0  0  0  0  0  0
  -27.0510  -30.4140   24.7300 C   0  0  0  0  0  1  0  0  0  0  0  0
  -27.6180  -32.5920   25.7710 C   0  0  0  0  0  1  0  0  0  0  0  0
  1  3  1  0
  2  1  2  0
  2  4  1  0
  3  5  2  0
  4  6  2  0
  5  7  1  0
  6  5  1  0
  6 48  1  0
  7  8  2  0
  9 10  1  0
  9  7  1  0
 10 11  1  0
 12 11  1  0
 13 18  1  0
 14 15  1  0
 14 13  1  0
 16 15  1  0
 16 23  1  0
 16 17  1  0
 18 12  1  0
 18 17  1  0
 19 12  2  0
 20 21  2  0
 21 40  1  0
 22 21  1  0
 22 25  1  0
 23 20  1  0
 23 24  1  0
 24 22  2  0
 25 26  1  0
 26 27  2  0
 28 31  1  0
 28 27  1  0
 29 28  2  0
 30 29  1  0
 30 25  2  0
 31 32  1  0
 32 33  1  0
 33 34  2  0
 35 34  1  0
 35 39  1  0
 36 35  2  0
 37 32  2  0
 37 36  1  0
 38 37  1  0
 40 41  1  0
 41 44  1  0
 41 43  1  0
 42 40  2  0
 45 46  1  0
 45 20  1  0
 47 45  1  0
 48 49  1  0
 50 52  1  0
 50 49  1  0
 51 62  2  0
 52 57  1  0
 53 61  1  0
 53 63  1  0
 54 60  1  0
 54 56  1  0
 55 61  1  0
 56 55  1  0
 57 56  2  0
 58 52  2  0
 59 58  1  0
 59 54  2  0
 60 53  1  0
 61 51  1  0
 63 65  2  0
 64 63  1  0
 66 64  1  0
 67 76  2  0
 67 72  1  0
 68 64  1  0
 68 72  1  0
 69 68  1  0
 70 71  1  0
 70 69  1  0
 71 67  1  0
 72 73  2  0
 73 74  1  0
 75 74  2  0
 76 75  1  0
 77 51  1  0
 77 78  1  0
 77 87  1  0
 78 81  1  0
 79 83  1  0
 79 78  1  0
 80 79  2  0
 83 82  1  0
 85 83  1  0
 85 86  1  0
 85 84  1  0
 87 90  1  1
 87 88  1  0
 89 87  1  0
M  ISO  4  11 100  12 100  49 101  50 101
M  END
>  <TORSDO>  (38) 
F 22

>  <SCORE>  (38) 
-12.758

>  <name>  (38) 
37

>  <ligand_id>  (38) 
37

>  <original_smiles>  (38) 
[H]c1c([H])c([H])c(C([H])([H])C([H])([H])Oc2c([H])c([H])c3c(c2[H])C([H])([H])N(C(=O)C([H])(N([H])C(=O)C([H])(N([H])C([H])([H])[H])C([H])([H])[H])C(C([H])([H])[H])(C([H])([H])[H])C([H])([H])[H])C([H])(C(=O)N([H])C2([H])c4c([H])c([H])c([H])c([H])c4C([H])([H])C([H])([H])C2([H])[H])C3([H])[H])c(C(=O)C([H])([H])C([H])([H])C([H])([H])C(=O)N2C([H])([H])C([H])([H])C([H])([H])C([H])(n3nc(-c4c([H])c([H])c(Oc5c([H])c([H])c(F)c([H])c5F)c([H])c4[H])c(C(=O)N([H])[H])c3N([H])[H])C2([H])[H])c1[H]

>  <smiles>  (38) 
[H]c1c([H])c([H])c(C([H])([H])C([H])([H])Oc2c([H])c([H])c3c(c2[H])C([H])([H])N(C(=O)C([H])(N([H])C(=O)C([H])(N([H])C([H])([H])[H])C([H])([H])[H])C(C([H])([H])[H])(C([H])([H])[H])C([H])([H])[H])C([H])(C(=O)N([H])C2([H])c4c([H])c([H])c([H])c([H])c4C([H])([H])C([H])([H])C2([H])[H])C3([H])[H])c(C(=O)C([H])([H])C([H])([H])C([H])([H])C(=O)N2C([H])([H])C([H])([H])C([H])([H])C([H])(n3nc(-c4c([H])c([H])c(Oc5c([H])c([H])c(F)c([H])c5F)c([H])c4[H])c(C(=O)N([H])[H])c3N([H])[H])C2([H])[H])c1[H]

$$$$
38:0:0
     RDKit          3D

 96105  0  0  1  0  0  0  0  0999 V2000
  -27.8910  -22.9610   20.9230 C   0  0  0  0  0  0  0  0  0  0  0  0
  -29.7650  -21.9330   22.0090 C   0  0  0  0  0  3  0  0  0  0  0  0
  -30.1780  -23.2220   21.2850 C   0  0  0  0  0  3  0  0  0  0  0  0
  -28.3030  -21.6660   21.6160 C   0  0  0  0  0  3  0  0  0  0  0  0
  -28.9420  -23.7720   20.7510 N   0  0  0  0  0  0  0  0  0  0  0  0
  -26.7420  -23.1760   20.5210 O   0  0  0  0  0  0  0  0  0  0  0  0
  -28.0770  -20.3920   20.7570 C   0  0  0  0  0  2  0  0  0  0  0  0
  -30.5160  -20.4150   17.8010 C   0  0  0  0  0  3  0  0  0  0  0  0
  -29.5110  -20.7940   18.7020 C   0  0  0  0  0  3  0  0  0  0  0  0
  -31.1920  -19.2060   17.9890 C   0  0  0  0  0  3  0  0  0  0  0  0
  -29.9220  -18.7720   20.0120 C   0  0  0  0  0  3  0  0  0  0  0  0
  -29.2200  -19.9890   19.8230 C   0  0  0  0  0  0  0  0  0  0  0  0
  -30.9060  -18.3480   19.0830 C   0  0  0  0  0  0  0  0  0  0  0  0
  -30.9180  -16.2350   17.8950 C   0  0  0  0  0  1  0  0  0  0  0  0
  -33.0760  -17.0730   18.8330 C   0  0  0  0  0  1  0  0  0  0  0  0
  -31.5510  -16.9410   19.1060 C   0  0  1  0  0  0  0  0  0  0  0  0
  -31.2930  -16.1110   20.4410 C   0  0  0  0  0  2  0  0  0  0  0  0
  -31.9350  -14.6850   20.5440 C   0  0  0  0  0  0  0  0  0  0  0  0
  -31.5740  -12.4100   19.7010 C   0  0  0  0  0  2  0  0  0  0  0  0
  -30.7670  -12.4650   18.3890 C   0  0  0  0  0  2  0  0  0  0  0  0
  -29.2510  -12.6080   18.6430 C   0  0  0  0  0  2  0  0  0  0  0  0
  -28.8670  -13.5810   19.7930 C   0  0  0  0  0  3  0  0  0  0  0  0
  -29.8000  -13.4270   21.0070 C   0  0  0  0  0  2  0  0  0  0  0  0
  -31.1810  -13.5540   20.5340 N   0  0  0  0  0  0  0  0  0  0  0  0
  -33.1630  -14.6130   20.4600 O   0  0  0  0  0  0  0  0  0  0  0  0
  -26.4870  -14.4240   20.2870 C   0  0  0  0  0  0  0  0  0  0  0  0
  -25.3250  -13.7620   20.5710 C   0  0  0  0  0  0  0  0  0  0  0  0
  -25.6610  -12.3750   20.6180 C   0  0  0  0  0  0  0  0  0  0  0  0
  -27.4630  -13.4470   20.1680 N   0  0  0  0  0  0  0  0  0  0  0  0
  -26.9650  -12.2140   20.4350 N   0  0  0  0  0  0  0  0  0  0  0  0
  -24.8100  -11.1890   20.7670 C   0  0  0  0  0  0  0  0  0  0  0  0
  -25.1030  -10.1850   21.7170 C   0  0  0  0  0  3  0  0  0  0  0  0
  -24.2580   -9.0620   21.8550 C   0  0  0  0  0  3  0  0  0  0  0  0
  -23.1080   -8.9350   21.0410 C   0  0  0  0  0  0  0  0  0  0  0  0
  -22.8340   -9.9260   20.0830 C   0  0  0  0  0  3  0  0  0  0  0  0
  -23.6770  -11.0390   19.9420 C   0  0  0  0  0  3  0  0  0  0  0  0
  -22.2450   -7.8670   21.0860 O   0  0  0  0  0  0  0  0  0  0  0  0
  -22.0200   -7.1720   22.2470 C   0  0  0  0  0  0  0  0  0  0  0  0
  -21.5380   -7.8050   23.4130 C   0  0  0  0  0  3  0  0  0  0  0  0
  -21.2570   -7.0400   24.5630 C   0  0  0  0  0  3  0  0  0  0  0  0
  -21.4480   -5.6460   24.5470 C   0  0  0  0  0  0  0  0  0  0  0  0
  -21.9240   -5.0140   23.3850 C   0  0  0  0  0  3  0  0  0  0  0  0
  -22.2080   -5.7760   22.2380 C   0  0  0  0  0  0  0  0  0  0  0  0
  -22.6470   -5.1590   21.1130 F   0  0  0  0  0  0  0  0  0  0  0  0
  -21.1690   -4.9090   25.6480 F   0  0  0  0  0  0  0  0  0  0  0  0
  -23.9580  -14.3700   20.6990 C   0  0  0  0  0  0  0  0  0  0  0  0
  -23.1060  -13.7920   21.5370 N   0  0  0  0  0  0  0  0  0  0  0  0
  -23.6570  -15.3970   20.0920 O   0  0  0  0  0  0  0  0  0  0  0  0
  -23.3640  -12.9660   22.0590 H   0  0  0  0  0  0  0  0  0  0  0  0
  -22.1850  -14.1860   21.6640 H   0  0  0  0  0  0  0  0  0  0  0  0
  -26.7890  -15.7690   20.0940 N   0  0  0  0  0  0  0  0  0  0  0  0
  -26.0650  -16.4790   20.1160 H   0  0  0  0  0  0  0  0  0  0  0  0
  -27.7000  -16.1360   19.8500 H   0  0  0  0  0  0  0  0  0  0  0  0
  -28.9650  -24.9470   19.8820 C   0  0  0  0  0  2  0  0  0  0  0  0
  -28.6230  -26.2400   20.6380 C   0  0  0  0  0  2  0  0  0  0  0  0
  -28.4960  -27.3090   19.7050 O   0  0  0  0  0  0  0  0  0  0  0  0
  -24.6940  -31.9350   23.4920 C   0  0  0  0  0  0  0  0  0  0  0  0
  -27.3160  -27.9880   19.8310 C   0  0  0  0  0  0  0  0  0  0  0  0
  -23.4490  -30.7000   21.7440 C   0  0  0  0  0  3  0  0  0  0  0  0
  -24.8780  -29.3670   20.1050 C   0  0  0  0  0  0  0  0  0  0  0  0
  -25.9470  -31.1620   21.4890 C   0  0  0  0  0  2  0  0  0  0  0  0
  -26.0400  -29.8730   20.7020 C   0  0  0  0  0  0  0  0  0  0  0  0
  -27.2650  -29.1890   20.5660 C   0  0  0  0  0  3  0  0  0  0  0  0
  -26.1450  -27.4800   19.2350 C   0  0  0  0  0  3  0  0  0  0  0  0
  -24.9220  -28.1680   19.3680 C   0  0  0  0  0  3  0  0  0  0  0  0
  -23.6150  -30.1740   20.2920 C   0  0  0  0  0  2  0  0  0  0  0  0
  -24.7150  -31.2720   22.3010 N   0  0  0  0  0  0  0  0  0  0  0  0
  -23.6310  -32.1150   24.1010 O   0  0  0  0  0  0  0  0  0  0  0  0
  -22.8570  -29.5670   22.6090 C   0  0  0  0  0  0  0  0  0  0  0  0
  -21.5570  -29.2920   22.4220 N   0  0  0  0  0  0  0  0  0  0  0  0
  -23.5640  -28.9390   23.4010 O   0  0  0  0  0  0  0  0  0  0  0  0
  -21.0440  -29.8540   21.7550 H   0  0  0  0  0  0  0  0  0  0  0  0
  -18.3260  -27.6900   22.6020 C   0  0  0  0  0  0  0  0  0  0  0  0
  -20.8040  -28.2370   23.0970 C   0  0  0  0  0  3  0  0  0  0  0  0
  -21.1300  -26.8500   22.4960 C   0  0  0  0  0  2  0  0  0  0  0  0
  -20.1570  -26.4340   21.3840 C   0  0  0  0  0  2  0  0  0  0  0  0
  -18.7180  -26.3920   21.9130 C   0  0  0  0  0  2  0  0  0  0  0  0
  -19.3060  -28.5590   23.1450 C   0  0  0  0  0  0  0  0  0  0  0  0
  -18.8890  -29.7650   23.7520 C   0  0  0  0  0  3  0  0  0  0  0  0
  -17.5260  -30.1080   23.8200 C   0  0  0  0  0  3  0  0  0  0  0  0
  -16.5600  -29.2350   23.2900 C   0  0  0  0  0  3  0  0  0  0  0  0
  -16.9590  -28.0270   22.6880 C   0  0  0  0  0  3  0  0  0  0  0  0
  -25.9910  -32.5220   24.1310 C   0  0  0  0  0  3  0  0  0  0  0  0
  -25.7170  -33.9190   24.4900 N   0  0  0  0  0  0  0  0  0  0  0  0
  -26.1000  -34.9780   23.7640 C   0  0  0  0  0  0  0  0  0  0  0  0
  -26.7920  -34.8780   22.7470 O   0  0  0  0  0  0  0  0  0  0  0  0
  -25.1040  -34.0710   25.2770 H   0  0  0  0  0  0  0  0  0  0  0  0
  -24.4350  -36.8270   23.4110 C   0  0  0  0  0  1  0  0  0  0  0  0
  -25.6430  -36.3680   24.2430 C   0  0  0  0  0  3  0  0  0  0  0  0
  -27.7800  -37.1720   25.1500 C   0  0  0  0  0  1  0  0  0  0  0  0
  -26.7110  -37.3900   24.1790 N   0  0  0  0  0  0  0  0  0  0  0  0
  -26.3290  -38.3220   24.3250 H   0  0  0  0  0  0  0  0  0  0  0  0
  -26.4880  -31.7060   25.3880 C   0  0  1  0  0  0  0  0  0  0  0  0
  -25.3720  -31.4250   26.4210 C   0  0  0  0  0  1  0  0  0  0  0  0
  -27.0880  -30.3480   24.9530 C   0  0  0  0  0  1  0  0  0  0  0  0
  -27.6210  -32.4800   26.1000 C   0  0  0  0  0  1  0  0  0  0  0  0
  1  4  1  0
  3  2  2  0
  4  7  1  0
  4  2  1  0
  5  1  1  0
  5  3  1  0
  6  1  2  0
  8 10  2  0
  8  9  1  0
  9 12  2  0
 10 13  1  0
 12 11  1  0
 12  7  1  0
 13 16  1  0
 13 11  2  0
 16 14  1  6
 15 16  1  0
 16 17  1  0
 17 18  1  0
 19 24  1  0
 20 21  1  0
 20 19  1  0
 22 21  1  0
 22 29  1  0
 22 23  1  0
 24 18  1  0
 24 23  1  0
 25 18  2  0
 26 27  2  0
 27 28  1  0
 27 46  1  0
 28 31  1  0
 29 26  1  0
 29 30  1  0
 30 28  2  0
 31 32  1  0
 32 33  2  0
 34 37  1  0
 34 33  1  0
 35 34  2  0
 36 35  1  0
 36 31  2  0
 37 38  1  0
 38 39  1  0
 39 40  2  0
 41 40  1  0
 41 45  1  0
 42 41  2  0
 43 38  2  0
 43 42  1  0
 44 43  1  0
 46 47  1  0
 47 50  1  0
 47 49  1  0
 48 46  2  0
 51 52  1  0
 51 26  1  0
 53 51  1  0
 54 55  1  0
 54  5  1  0
 56 58  1  0
 56 55  1  0
 57 68  2  0
 58 63  1  0
 59 67  1  0
 59 69  1  0
 60 66  1  0
 60 62  1  0
 61 67  1  0
 62 61  1  0
 63 62  2  0
 64 65  1  0
 64 58  2  0
 65 60  2  0
 66 59  1  0
 67 57  1  0
 69 71  2  0
 70 69  1  0
 72 70  1  0
 73 82  2  0
 73 78  1  0
 74 70  1  0
 74 78  1  0
 75 74  1  0
 76 77  1  0
 76 75  1  0
 77 73  1  0
 78 79  2  0
 79 80  1  0
 81 80  2  0
 82 81  1  0
 83 57  1  0
 83 84  1  0
 83 93  1  0
 84 87  1  0
 85 89  1  0
 85 84  1  0
 86 85  2  0
 89 88  1  0
 91 89  1  0
 91 92  1  0
 91 90  1  0
 93 96  1  1
 93 94  1  0
 95 93  1  0
M  ISO  4  17 100  18 100  55 101  56 101
M  END
>  <TORSDO>  (39) 
F 22

>  <SCORE>  (39) 
-11.216

>  <name>  (39) 
38

>  <ligand_id>  (39) 
38

>  <original_smiles>  (39) 
[H]c1c([H])c([H])c2c(c1[H])C([H])([H])C([H])([H])C([H])([H])C2([H])N([H])C(=O)C1([H])N(C(=O)C([H])(N([H])C(=O)C([H])(N([H])C([H])([H])[H])C([H])([H])[H])C(C([H])([H])[H])(C([H])([H])[H])C([H])([H])[H])C([H])([H])c2c([H])c(OC([H])([H])C([H])([H])N3C(=O)C([H])(C([H])([H])c4c([H])c([H])c([H])c(C(C([H])([H])[H])(C([H])([H])[H])C([H])([H])C(=O)N5C([H])([H])C([H])([H])C([H])([H])C([H])(n6nc(-c7c([H])c([H])c(Oc8c([H])c([H])c(F)c([H])c8F)c([H])c7[H])c(C(=O)N([H])[H])c6N([H])[H])C5([H])[H])c4[H])C([H])([H])C3([H])[H])c([H])c([H])c2C1([H])[H]

>  <smiles>  (39) 
[H]c1c([H])c([H])c2c(c1[H])C([H])([H])C([H])([H])C([H])([H])C2([H])N([H])C(=O)C1([H])N(C(=O)C([H])(N([H])C(=O)C([H])(N([H])C([H])([H])[H])C([H])([H])[H])C(C([H])([H])[H])(C([H])([H])[H])C([H])([H])[H])C([H])([H])c2c([H])c(OC([H])([H])C([H])([H])N3C(=O)C([H])(C([H])([H])c4c([H])c([H])c([H])c(C(C([H])([H])[H])(C([H])([H])[H])C([H])([H])C(=O)N5C([H])([H])C([H])([H])C([H])([H])C([H])(n6nc(-c7c([H])c([H])c(Oc8c([H])c([H])c(F)c([H])c8F)c([H])c7[H])c(C(=O)N([H])[H])c6N([H])[H])C5([H])[H])c4[H])C([H])([H])C3([H])[H])c([H])c([H])c2C1([H])[H]

$$$$
39:0:0
     RDKit          3D

 89 96  0  0  1  0  0  0  0  0999 V2000
  -29.3570  -20.8120   18.5230 C   0  0  0  0  0  1  0  0  0  0  0  0
  -29.0650  -20.9110   19.9720 N   0  0  1  0  0  4  0  0  0  0  0  0
  -28.0700  -20.7710   20.0590 H   0  0  0  0  0  0  0  0  0  0  0  0
  -29.6770  -19.7350   20.7710 C   0  0  0  0  0  2  0  0  0  0  0  0
  -29.7880  -18.2080   20.1560 C   0  0  0  0  0  2  0  0  0  0  0  0
  -30.2340  -15.6090   21.1140 C   0  0  0  0  0  3  0  0  0  0  0  0
  -29.8900  -16.9650   21.1530 C   0  0  0  0  0  0  0  0  0  0  0  0
  -30.7780  -14.6300   20.1100 C   0  0  0  0  0  0  0  0  0  0  0  0
  -30.4390  -12.4470   18.9040 C   0  0  0  0  0  2  0  0  0  0  0  0
  -29.4210  -12.6450   17.7580 C   0  0  0  0  0  2  0  0  0  0  0  0
  -27.9750  -12.4950   18.2700 C   0  0  0  0  0  2  0  0  0  0  0  0
  -27.7240  -13.2920   19.5760 C   0  0  0  0  0  3  0  0  0  0  0  0
  -28.8450  -13.0390   20.6080 C   0  0  0  0  0  2  0  0  0  0  0  0
  -30.1230  -13.4180   19.9790 N   0  0  0  0  0  0  0  0  0  0  0  0
  -31.8240  -14.8200   19.4820 O   0  0  0  0  0  0  0  0  0  0  0  0
  -25.3940  -13.9270   20.4500 C   0  0  0  0  0  0  0  0  0  0  0  0
  -24.3310  -13.1730   20.8670 C   0  0  0  0  0  0  0  0  0  0  0  0
  -24.7540  -11.8110   20.7750 C   0  0  0  0  0  0  0  0  0  0  0  0
  -26.3990  -13.0290   20.1310 N   0  0  0  0  0  0  0  0  0  0  0  0
  -26.0230  -11.7490   20.3850 N   0  0  0  0  0  0  0  0  0  0  0  0
  -24.0090  -10.5630   20.9860 C   0  0  0  0  0  0  0  0  0  0  0  0
  -24.4680   -9.5680   21.8760 C   0  0  0  0  0  3  0  0  0  0  0  0
  -23.7220   -8.3850   22.0740 C   0  0  0  0  0  3  0  0  0  0  0  0
  -22.5030   -8.1920   21.3820 C   0  0  0  0  0  0  0  0  0  0  0  0
  -22.0620   -9.1760   20.4810 C   0  0  0  0  0  3  0  0  0  0  0  0
  -22.8070  -10.3490   20.2810 C   0  0  0  0  0  3  0  0  0  0  0  0
  -21.7250   -7.0640   21.4910 O   0  0  0  0  0  0  0  0  0  0  0  0
  -21.7120   -6.3070   22.6350 C   0  0  0  0  0  0  0  0  0  0  0  0
  -21.3800   -6.8600   23.8900 C   0  0  0  0  0  3  0  0  0  0  0  0
  -21.3100   -6.0310   25.0280 C   0  0  0  0  0  3  0  0  0  0  0  0
  -21.5630   -4.6510   24.9110 C   0  0  0  0  0  0  0  0  0  0  0  0
  -21.8870   -4.0980   23.6590 C   0  0  0  0  0  3  0  0  0  0  0  0
  -21.9590   -4.9240   22.5250 C   0  0  0  0  0  0  0  0  0  0  0  0
  -22.2520   -4.3830   21.3170 F   0  0  0  0  0  0  0  0  0  0  0  0
  -21.4890   -3.8530   26.0020 F   0  0  0  0  0  0  0  0  0  0  0  0
  -22.9670  -13.6800   21.2370 C   0  0  0  0  0  0  0  0  0  0  0  0
  -22.2770  -12.9890   22.1390 N   0  0  0  0  0  0  0  0  0  0  0  0
  -22.5220  -14.7250   20.7630 O   0  0  0  0  0  0  0  0  0  0  0  0
  -22.6460  -12.1420   22.5450 H   0  0  0  0  0  0  0  0  0  0  0  0
  -21.3650  -13.3160   22.4300 H   0  0  0  0  0  0  0  0  0  0  0  0
  -25.5850  -15.2980   20.3010 N   0  0  0  0  0  0  0  0  0  0  0  0
  -24.8570  -15.9710   20.5100 H   0  0  0  0  0  0  0  0  0  0  0  0
  -26.4520  -15.7300   20.0050 H   0  0  0  0  0  0  0  0  0  0  0  0
  -29.4920  -17.4240   22.3490 O   0  0  0  0  0  0  0  0  0  0  0  0
  -29.5350  -16.7110   22.9740 H   0  0  0  0  0  0  0  0  0  0  0  0
  -29.3180  -22.3540   20.4800 C   0  0  0  0  0  2  0  0  0  0  0  0
  -28.2140  -23.5320   20.2440 C   0  0  0  0  0  2  0  0  0  0  0  0
  -28.5920  -24.9990   19.6550 C   0  0  0  0  0  2  0  0  0  0  0  0
  -28.3890  -26.3250   20.3250 O   0  0  0  0  0  0  0  0  0  0  0  0
  -24.5400  -31.7450   23.1630 C   0  0  0  0  0  0  0  0  0  0  0  0
  -27.2540  -27.1550   20.1940 C   0  0  0  0  0  0  0  0  0  0  0  0
  -23.3840  -30.3270   21.5020 C   0  0  0  0  0  3  0  0  0  0  0  0
  -24.8780  -28.7690   20.1160 C   0  0  0  0  0  0  0  0  0  0  0  0
  -25.9250  -30.6530   21.3790 C   0  0  0  0  0  2  0  0  0  0  0  0
  -26.0270  -29.2670   20.7400 C   0  0  0  0  0  0  0  0  0  0  0  0
  -27.2120  -28.4690   20.7710 C   0  0  0  0  0  3  0  0  0  0  0  0
  -26.0820  -26.7130   19.5450 C   0  0  0  0  0  3  0  0  0  0  0  0
  -24.9090  -27.5010   19.5090 C   0  0  0  0  0  3  0  0  0  0  0  0
  -23.6340  -29.6390   20.1320 C   0  0  0  0  0  2  0  0  0  0  0  0
  -24.6330  -30.9280   22.0720 N   0  0  0  0  0  0  0  0  0  0  0  0
  -23.4420  -32.0190   23.6710 O   0  0  0  0  0  0  0  0  0  0  0  0
  -22.7050  -29.3160   22.4570 C   0  0  0  0  0  0  0  0  0  0  0  0
  -21.3820  -29.1350   22.3070 N   0  0  0  0  0  0  0  0  0  0  0  0
  -23.3700  -28.6960   23.2910 O   0  0  0  0  0  0  0  0  0  0  0  0
  -20.9050  -29.6850   21.6060 H   0  0  0  0  0  0  0  0  0  0  0  0
  -18.0010  -27.9220   22.7390 C   0  0  0  0  0  0  0  0  0  0  0  0
  -20.5510  -28.1990   23.0660 C   0  0  0  0  0  3  0  0  0  0  0  0
  -20.6740  -26.7650   22.5030 C   0  0  0  0  0  2  0  0  0  0  0  0
  -19.5970  -26.4290   21.4660 C   0  0  0  0  0  2  0  0  0  0  0  0
  -18.2020  -26.5690   22.0770 C   0  0  0  0  0  2  0  0  0  0  0  0
  -19.1050  -28.6940   23.1890 C   0  0  0  0  0  0  0  0  0  0  0  0
  -18.8650  -29.9590   23.7690 C   0  0  0  0  0  3  0  0  0  0  0  0
  -17.5540  -30.4530   23.9030 C   0  0  0  0  0  3  0  0  0  0  0  0
  -16.4630  -29.6780   23.4710 C   0  0  0  0  0  3  0  0  0  0  0  0
  -16.6890  -28.4150   22.8940 C   0  0  0  0  0  3  0  0  0  0  0  0
  -25.8030  -32.3920   23.8100 C   0  0  0  0  0  3  0  0  0  0  0  0
  -25.4690  -33.7850   24.1430 N   0  0  0  0  0  0  0  0  0  0  0  0
  -25.7990  -34.8490   23.3970 C   0  0  0  0  0  0  0  0  0  0  0  0
  -26.4840  -34.7600   22.3750 O   0  0  0  0  0  0  0  0  0  0  0  0
  -24.8620  -33.9260   24.9370 H   0  0  0  0  0  0  0  0  0  0  0  0
  -24.0500  -36.6200   23.0380 C   0  0  0  0  0  1  0  0  0  0  0  0
  -25.2900  -36.2280   23.8580 C   0  0  0  0  0  3  0  0  0  0  0  0
  -27.4050  -37.1370   24.7110 C   0  0  0  0  0  1  0  0  0  0  0  0
  -26.3080  -37.2960   23.7600 N   0  0  0  0  0  0  0  0  0  0  0  0
  -25.8880  -38.2080   23.9120 H   0  0  0  0  0  0  0  0  0  0  0  0
  -26.3070  -31.6220   25.0930 C   0  0  1  0  0  0  0  0  0  0  0  0
  -25.1990  -31.3720   26.1430 C   0  0  0  0  0  1  0  0  0  0  0  0
  -26.9100  -30.2520   24.7080 C   0  0  0  0  0  1  0  0  0  0  0  0
  -27.4370  -32.4260   25.7770 C   0  0  0  0  0  1  0  0  0  0  0  0
  1  2  1  0
  2  3  1  6
  2 46  1  0
  2  4  1  0
  5  4  1  0
  5  7  1  0
  6  7  2  0
  7 44  1  0
  8  6  1  0
  9 14  1  0
 10 11  1  0
 10  9  1  0
 12 11  1  0
 12 19  1  0
 12 13  1  0
 14  8  1  0
 14 13  1  0
 15  8  2  0
 16 17  2  0
 17 36  1  0
 18 17  1  0
 18 21  1  0
 19 20  1  0
 19 16  1  0
 20 18  2  0
 21 22  1  0
 22 23  2  0
 24 27  1  0
 24 23  1  0
 25 24  2  0
 26 25  1  0
 26 21  2  0
 27 28  1  0
 28 29  1  0
 29 30  2  0
 31 30  1  0
 31 35  1  0
 32 31  2  0
 33 28  2  0
 33 32  1  0
 34 33  1  0
 36 37  1  0
 37 40  1  0
 37 39  1  0
 38 36  2  0
 41 16  1  0
 41 42  1  0
 43 41  1  0
 44 45  1  0
 47 46  1  0
 48 47  1  0
 48 49  1  0
 50 61  2  0
 51 49  1  0
 51 56  1  0
 52 60  1  0
 52 62  1  0
 53 59  1  0
 53 55  1  0
 54 60  1  0
 55 56  2  0
 55 54  1  0
 57 51  2  0
 58 57  1  0
 58 53  2  0
 59 52  1  0
 60 50  1  0
 62 64  2  0
 63 62  1  0
 65 63  1  0
 66 75  2  0
 66 71  1  0
 67 63  1  0
 67 71  1  0
 68 67  1  0
 69 70  1  0
 69 68  1  0
 70 66  1  0
 71 72  2  0
 72 73  1  0
 74 73  2  0
 75 74  1  0
 76 50  1  0
 76 77  1  0
 76 86  1  0
 77 80  1  0
 78 82  1  0
 78 77  1  0
 79 78  2  0
 82 81  1  0
 84 82  1  0
 84 85  1  0
 84 83  1  0
 86 89  1  1
 86 87  1  0
 88 86  1  0
M  ISO  4   6 100   8 100  48 101  49 101
M  END
>  <TORSDO>  (40) 
F 23

>  <SCORE>  (40) 
-12.493

>  <name>  (40) 
39

>  <ligand_id>  (40) 
39

>  <original_smiles>  (40) 
[H]OC(=C([H])C(=O)N1C([H])([H])C([H])([H])C([H])([H])C([H])(n2nc(-c3c([H])c([H])c(Oc4c([H])c([H])c(F)c([H])c4F)c([H])c3[H])c(C(=O)N([H])[H])c2N([H])[H])C1([H])[H])C([H])([H])C([H])([H])[N+]([H])(C([H])([H])[H])C([H])([H])C([H])([H])C([H])([H])Oc1c([H])c([H])c2c(c1[H])C([H])([H])N(C(=O)C([H])(N([H])C(=O)C([H])(N([H])C([H])([H])[H])C([H])([H])[H])C(C([H])([H])[H])(C([H])([H])[H])C([H])([H])[H])C([H])(C(=O)N([H])C1([H])c3c([H])c([H])c([H])c([H])c3C([H])([H])C([H])([H])C1([H])[H])C2([H])[H]

>  <smiles>  (40) 
[H]OC(=C([H])C(=O)N1C([H])([H])C([H])([H])C([H])([H])C([H])(n2nc(-c3c([H])c([H])c(Oc4c([H])c([H])c(F)c([H])c4F)c([H])c3[H])c(C(=O)N([H])[H])c2N([H])[H])C1([H])[H])C([H])([H])C([H])([H])[N+]([H])(C([H])([H])[H])C([H])([H])C([H])([H])C([H])([H])Oc1c([H])c([H])c2c(c1[H])C([H])([H])N(C(=O)C([H])(N([H])C(=O)C([H])(N([H])C([H])([H])[H])C([H])([H])[H])C(C([H])([H])[H])(C([H])([H])[H])C([H])([H])[H])C([H])(C(=O)N([H])C1([H])c3c([H])c([H])c([H])c([H])c3C([H])([H])C([H])([H])C1([H])[H])C2([H])[H]

$$$$
40:0:0
     RDKit          3D

 90 97  0  0  1  0  0  0  0  0999 V2000
  -29.2680  -19.2220   20.4640 C   0  0  0  0  0  0  0  0  0  0  0  0
  -29.5000  -20.5680   20.0850 N   0  0  0  0  0  0  0  0  0  0  0  0
  -28.3050  -19.0070   21.2010 O   0  0  0  0  0  0  0  0  0  0  0  0
  -30.3150  -20.7270   19.5070 H   0  0  0  0  0  0  0  0  0  0  0  0
  -28.6510  -21.8580   20.4020 C   0  0  0  0  0  2  0  0  0  0  0  0
  -29.0860  -23.4530   20.1050 C   0  0  0  0  0  3  0  0  0  0  0  0
  -28.0550  -24.7400   20.3940 C   0  0  0  0  0  3  0  0  0  0  0  0
  -28.3130  -26.2600   20.2220 O   0  0  0  0  0  0  0  0  0  0  0  0
  -24.6250  -31.8850   23.2300 C   0  0  0  0  0  0  0  0  0  0  0  0
  -27.2320  -27.2090   20.1980 C   0  0  0  0  0  0  0  0  0  0  0  0
  -23.4300  -30.4900   21.5850 C   0  0  0  0  0  3  0  0  0  0  0  0
  -24.8860  -28.9230   20.1680 C   0  0  0  0  0  0  0  0  0  0  0  0
  -25.9820  -30.7740   21.4230 C   0  0  0  0  0  2  0  0  0  0  0  0
  -26.0620  -29.3800   20.7770 C   0  0  0  0  0  0  0  0  0  0  0  0
  -27.2350  -28.5400   20.7750 C   0  0  0  0  0  3  0  0  0  0  0  0
  -26.0280  -26.8510   19.5490 C   0  0  0  0  0  3  0  0  0  0  0  0
  -24.8790  -27.6690   19.5390 C   0  0  0  0  0  3  0  0  0  0  0  0
  -23.6540  -29.8120   20.2080 C   0  0  0  0  0  2  0  0  0  0  0  0
  -24.6980  -31.0690   22.1360 N   0  0  0  0  0  0  0  0  0  0  0  0
  -23.5370  -32.1670   23.7560 O   0  0  0  0  0  0  0  0  0  0  0  0
  -22.7510  -29.4810   22.5450 C   0  0  0  0  0  0  0  0  0  0  0  0
  -21.4270  -29.2990   22.4050 N   0  0  0  0  0  0  0  0  0  0  0  0
  -23.4210  -28.8640   23.3770 O   0  0  0  0  0  0  0  0  0  0  0  0
  -20.9480  -29.8490   21.7060 H   0  0  0  0  0  0  0  0  0  0  0  0
  -18.0480  -28.0750   22.8610 C   0  0  0  0  0  0  0  0  0  0  0  0
  -20.6000  -28.3600   23.1660 C   0  0  0  0  0  3  0  0  0  0  0  0
  -20.7230  -26.9250   22.6020 C   0  0  0  0  0  2  0  0  0  0  0  0
  -19.6390  -26.5880   21.5740 C   0  0  0  0  0  2  0  0  0  0  0  0
  -18.2470  -26.7230   22.1950 C   0  0  0  0  0  2  0  0  0  0  0  0
  -19.1540  -28.8500   23.3020 C   0  0  0  0  0  0  0  0  0  0  0  0
  -18.9170  -30.1140   23.8860 C   0  0  0  0  0  3  0  0  0  0  0  0
  -17.6050  -30.6030   24.0350 C   0  0  0  0  0  3  0  0  0  0  0  0
  -16.5130  -29.8260   23.6090 C   0  0  0  0  0  3  0  0  0  0  0  0
  -16.7360  -28.5650   23.0290 C   0  0  0  0  0  3  0  0  0  0  0  0
  -25.9030  -32.5180   23.8630 C   0  0  0  0  0  3  0  0  0  0  0  0
  -25.5930  -33.9180   24.1880 N   0  0  0  0  0  0  0  0  0  0  0  0
  -25.9270  -34.9700   23.4280 C   0  0  0  0  0  0  0  0  0  0  0  0
  -26.5970  -34.8650   22.3980 O   0  0  0  0  0  0  0  0  0  0  0  0
  -25.0030  -34.0730   24.9900 H   0  0  0  0  0  0  0  0  0  0  0  0
  -24.2040  -36.7700   23.0730 C   0  0  0  0  0  1  0  0  0  0  0  0
  -25.4440  -36.3610   23.8860 C   0  0  0  0  0  3  0  0  0  0  0  0
  -27.5790  -37.2430   24.7200 C   0  0  0  0  0  1  0  0  0  0  0  0
  -26.4790  -37.4120   23.7730 N   0  0  0  0  0  0  0  0  0  0  0  0
  -26.0750  -38.3320   23.9170 H   0  0  0  0  0  0  0  0  0  0  0  0
  -26.4020  -31.7520   25.1500 C   0  0  1  0  0  0  0  0  0  0  0  0
  -25.3000  -31.5260   26.2080 C   0  0  0  0  0  1  0  0  0  0  0  0
  -26.9850  -30.3690   24.7750 C   0  0  0  0  0  1  0  0  0  0  0  0
  -27.5500  -32.5440   25.8190 C   0  0  0  0  0  1  0  0  0  0  0  0
  -30.1140  -17.8890   19.9800 C   0  0  0  0  0  3  0  0  0  0  0  0
  -31.4300  -18.3090   17.8870 C   0  0  0  0  0  1  0  0  0  0  0  0
  -30.1500  -17.9020   18.5000 N   0  0  0  0  0  4  0  0  0  0  0  0
  -29.9220  -16.9860   18.1560 H   0  0  0  0  0  0  0  0  0  0  0  0
  -29.4260  -18.5260   18.1800 H   0  0  0  0  0  0  0  0  0  0  0  0
  -29.7150  -16.3510   20.5170 C   0  0  0  0  0  2  0  0  0  0  0  0
  -30.5390  -14.9580   20.1990 C   0  0  0  0  0  0  0  0  0  0  0  0
  -30.4150  -12.6200   19.2340 C   0  0  0  0  0  2  0  0  0  0  0  0
  -29.4630  -12.6160   18.0170 C   0  0  0  0  0  2  0  0  0  0  0  0
  -27.9990  -12.4140   18.4560 C   0  0  0  0  0  2  0  0  0  0  0  0
  -27.6140  -13.3170   19.6550 C   0  0  0  0  0  3  0  0  0  0  0  0
  -28.6850  -13.2960   20.7660 C   0  0  0  0  0  2  0  0  0  0  0  0
  -29.9660  -13.6890   20.1650 N   0  0  0  0  0  0  0  0  0  0  0  0
  -31.7180  -15.0490   19.8420 O   0  0  0  0  0  0  0  0  0  0  0  0
  -25.2390  -13.8880   20.4290 C   0  0  0  0  0  0  0  0  0  0  0  0
  -24.1810  -13.1070   20.8130 C   0  0  0  0  0  0  0  0  0  0  0  0
  -24.6510  -11.7600   20.7740 C   0  0  0  0  0  0  0  0  0  0  0  0
  -26.2820  -13.0150   20.1720 N   0  0  0  0  0  0  0  0  0  0  0  0
  -25.9390  -11.7290   20.4500 N   0  0  0  0  0  0  0  0  0  0  0  0
  -23.9320  -10.4940   20.9720 C   0  0  0  0  0  0  0  0  0  0  0  0
  -24.3740   -9.5340   21.9100 C   0  0  0  0  0  3  0  0  0  0  0  0
  -23.6540   -8.3330   22.0940 C   0  0  0  0  0  3  0  0  0  0  0  0
  -22.4810   -8.0840   21.3420 C   0  0  0  0  0  0  0  0  0  0  0  0
  -22.0610   -9.0330   20.3940 C   0  0  0  0  0  3  0  0  0  0  0  0
  -22.7790  -10.2250   20.2070 C   0  0  0  0  0  3  0  0  0  0  0  0
  -21.7320   -6.9350   21.4390 O   0  0  0  0  0  0  0  0  0  0  0  0
  -21.6810   -6.2050   22.5980 C   0  0  0  0  0  0  0  0  0  0  0  0
  -21.2310   -6.7660   23.8130 C   0  0  0  0  0  3  0  0  0  0  0  0
  -21.1250   -5.9610   24.9640 C   0  0  0  0  0  3  0  0  0  0  0  0
  -21.4590   -4.5940   24.9020 C   0  0  0  0  0  0  0  0  0  0  0  0
  -21.9030   -4.0320   23.6910 C   0  0  0  0  0  3  0  0  0  0  0  0
  -22.0120   -4.8350   22.5430 C   0  0  0  0  0  0  0  0  0  0  0  0
  -22.4170   -4.2820   21.3730 F   0  0  0  0  0  0  0  0  0  0  0  0
  -21.3510   -3.8180   26.0070 F   0  0  0  0  0  0  0  0  0  0  0  0
  -22.7850  -13.5790   21.0940 C   0  0  0  0  0  0  0  0  0  0  0  0
  -22.0650  -12.8830   21.9660 N   0  0  0  0  0  0  0  0  0  0  0  0
  -22.3390  -14.6000   20.5730 O   0  0  0  0  0  0  0  0  0  0  0  0
  -22.4390  -12.0590   22.4130 H   0  0  0  0  0  0  0  0  0  0  0  0
  -21.1270  -13.1810   22.1890 H   0  0  0  0  0  0  0  0  0  0  0  0
  -25.3880  -15.2610   20.2520 N   0  0  0  0  0  0  0  0  0  0  0  0
  -24.6140  -15.9050   20.3730 H   0  0  0  0  0  0  0  0  0  0  0  0
  -26.2260  -15.7160   19.9150 H   0  0  0  0  0  0  0  0  0  0  0  0
  1  3  2  0
  2  5  1  0
  2  1  1  0
  4  2  1  0
  6  7  2  0
  6  5  1  0
  8  7  1  0
  9 20  2  0
 10  8  1  0
 10 15  1  0
 11 19  1  0
 11 21  1  0
 12 18  1  0
 12 14  1  0
 13 19  1  0
 14 13  1  0
 15 14  2  0
 16 10  2  0
 17 16  1  0
 17 12  2  0
 18 11  1  0
 19  9  1  0
 21 23  2  0
 22 21  1  0
 24 22  1  0
 25 34  2  0
 25 30  1  0
 26 22  1  0
 26 30  1  0
 27 26  1  0
 28 29  1  0
 28 27  1  0
 29 25  1  0
 30 31  2  0
 31 32  1  0
 33 32  2  0
 34 33  1  0
 35  9  1  0
 35 36  1  0
 35 45  1  0
 36 39  1  0
 37 41  1  0
 37 36  1  0
 38 37  2  0
 41 40  1  0
 43 41  1  0
 43 44  1  0
 43 42  1  0
 45 48  1  1
 45 46  1  0
 47 45  1  0
 49  1  1  0
 49 54  1  0
 50 51  1  0
 51 49  1  0
 52 51  1  0
 53 51  1  0
 55 54  1  0
 56 61  1  0
 57 58  1  0
 57 56  1  0
 59 58  1  0
 59 66  1  0
 59 60  1  0
 61 55  1  0
 61 60  1  0
 62 55  2  0
 63 64  2  0
 64 83  1  0
 65 64  1  0
 65 68  1  0
 66 63  1  0
 66 67  1  0
 67 65  2  0
 68 69  1  0
 69 70  2  0
 71 74  1  0
 71 70  1  0
 72 71  2  0
 73 72  1  0
 73 68  2  0
 74 75  1  0
 75 76  1  0
 76 77  2  0
 78 77  1  0
 78 82  1  0
 79 78  2  0
 80 75  2  0
 80 79  1  0
 81 80  1  0
 83 84  1  0
 84 87  1  0
 84 86  1  0
 85 83  2  0
 88 89  1  0
 88 63  1  0
 90 88  1  0
M  ISO  4   7 101   8 101  54 100  55 100
M  END
>  <TORSDO>  (41) 
F 22

>  <SCORE>  (41) 
-12.689

>  <name>  (41) 
40

>  <ligand_id>  (41) 
40

>  <original_smiles>  (41) 
[H]c1c([H])c([H])c2c(c1[H])C([H])([H])C([H])([H])C([H])([H])C2([H])N([H])C(=O)C1([H])N(C(=O)C([H])(N([H])C(=O)C([H])(N([H])C([H])([H])[H])C([H])([H])[H])C(C([H])([H])[H])(C([H])([H])[H])C([H])([H])[H])C([H])([H])c2c([H])c(OC([H])([H])C([H])([H])C([H])([H])N([H])C(=O)C([H])(C([H])([H])C(=O)N3C([H])([H])C([H])([H])C([H])([H])C([H])(n4nc(-c5c([H])c([H])c(Oc6c([H])c([H])c(F)c([H])c6F)c([H])c5[H])c(C(=O)N([H])[H])c4N([H])[H])C3([H])[H])[N+]([H])([H])C([H])([H])[H])c([H])c([H])c2C1([H])[H]

>  <smiles>  (41) 
[H]c1c([H])c([H])c2c(c1[H])C([H])([H])C([H])([H])C([H])([H])C2([H])N([H])C(=O)C1([H])N(C(=O)C([H])(N([H])C(=O)C([H])(N([H])C([H])([H])[H])C([H])([H])[H])C(C([H])([H])[H])(C([H])([H])[H])C([H])([H])[H])C([H])([H])c2c([H])c(OC([H])([H])C([H])([H])C([H])([H])N([H])C(=O)C([H])(C([H])([H])C(=O)N3C([H])([H])C([H])([H])C([H])([H])C([H])(n4nc(-c5c([H])c([H])c(Oc6c([H])c([H])c(F)c([H])c6F)c([H])c5[H])c(C(=O)N([H])[H])c4N([H])[H])C3([H])[H])[N+]([H])([H])C([H])([H])[H])c([H])c([H])c2C1([H])[H]

$$$$
41:0:0
     RDKit          3D

 92100  0  0  1  0  0  0  0  0999 V2000
  -30.2410  -20.2220   22.1890 C   0  0  0  0  0  3  0  0  0  0  0  0
  -30.2020  -21.4660   22.8450 C   0  0  0  0  0  3  0  0  0  0  0  0
  -29.5250  -21.3280   20.1560 C   0  0  0  0  0  3  0  0  0  0  0  0
  -29.4540  -22.6320   20.8060 C   0  0  0  0  0  0  0  0  0  0  0  0
  -29.9240  -20.1010   20.8240 C   0  0  0  0  0  0  0  0  0  0  0  0
  -29.8680  -22.6630   22.1720 C   0  0  0  0  0  0  0  0  0  0  0  0
  -30.0740  -23.9450   22.9700 C   0  0  0  0  0  1  0  0  0  0  0  0
  -29.1170  -23.9480   20.0310 C   0  0  0  0  0  0  0  0  0  0  0  0
  -29.5270  -24.1040   18.8780 O   0  0  0  0  0  0  0  0  0  0  0  0
  -28.1960  -25.0990   20.6420 C   0  0  0  0  0  2  0  0  0  0  0  0
  -28.4030  -26.4920   20.1470 O   0  0  0  0  0  0  0  0  0  0  0  0
  -24.6240  -31.8680   23.1880 C   0  0  0  0  0  0  0  0  0  0  0  0
  -27.2810  -27.3370   20.1300 C   0  0  0  0  0  0  0  0  0  0  0  0
  -23.4350  -30.4670   21.5360 C   0  0  0  0  0  3  0  0  0  0  0  0
  -24.9020  -28.9240   20.1170 C   0  0  0  0  0  0  0  0  0  0  0  0
  -25.9720  -30.8050   21.3590 C   0  0  0  0  0  2  0  0  0  0  0  0
  -26.0660  -29.4260   20.7130 C   0  0  0  0  0  0  0  0  0  0  0  0
  -27.2610  -28.6460   20.7040 C   0  0  0  0  0  3  0  0  0  0  0  0
  -26.0970  -26.8880   19.5060 C   0  0  0  0  0  3  0  0  0  0  0  0
  -24.9200  -27.6620   19.5010 C   0  0  0  0  0  3  0  0  0  0  0  0
  -23.6600  -29.7910   20.1570 C   0  0  0  0  0  2  0  0  0  0  0  0
  -24.6960  -31.0620   22.0870 N   0  0  0  0  0  0  0  0  0  0  0  0
  -23.5360  -32.1360   23.7200 O   0  0  0  0  0  0  0  0  0  0  0  0
  -22.7740  -29.4450   22.4930 C   0  0  0  0  0  0  0  0  0  0  0  0
  -21.4450  -29.2710   22.3780 N   0  0  0  0  0  0  0  0  0  0  0  0
  -23.4580  -28.8090   23.3000 O   0  0  0  0  0  0  0  0  0  0  0  0
  -20.9530  -29.8420   21.7050 H   0  0  0  0  0  0  0  0  0  0  0  0
  -18.0700  -28.0810   22.8970 C   0  0  0  0  0  0  0  0  0  0  0  0
  -20.6310  -28.3250   23.1440 C   0  0  0  0  0  3  0  0  0  0  0  0
  -20.7190  -26.9020   22.5500 C   0  0  0  0  0  2  0  0  0  0  0  0
  -19.6070  -26.5960   21.5420 C   0  0  0  0  0  2  0  0  0  0  0  0
  -18.2330  -26.7390   22.2010 C   0  0  0  0  0  2  0  0  0  0  0  0
  -19.1960  -28.8320   23.3250 C   0  0  0  0  0  0  0  0  0  0  0  0
  -18.9900  -30.0870   23.9370 C   0  0  0  0  0  3  0  0  0  0  0  0
  -17.6890  -30.5960   24.1160 C   0  0  0  0  0  3  0  0  0  0  0  0
  -16.5770  -29.8420   23.7040 C   0  0  0  0  0  3  0  0  0  0  0  0
  -16.7680  -28.5840   23.1050 C   0  0  0  0  0  3  0  0  0  0  0  0
  -25.9000  -32.5060   23.8170 C   0  0  0  0  0  3  0  0  0  0  0  0
  -25.5830  -33.9010   24.1530 N   0  0  0  0  0  0  0  0  0  0  0  0
  -25.9120  -34.9600   23.4000 C   0  0  0  0  0  0  0  0  0  0  0  0
  -26.5850  -34.8660   22.3700 O   0  0  0  0  0  0  0  0  0  0  0  0
  -24.9850  -34.0470   24.9530 H   0  0  0  0  0  0  0  0  0  0  0  0
  -24.1810  -36.7520   23.0450 C   0  0  0  0  0  1  0  0  0  0  0  0
  -25.4160  -36.3440   23.8640 C   0  0  0  0  0  3  0  0  0  0  0  0
  -27.5390  -37.2340   24.7190 C   0  0  0  0  0  1  0  0  0  0  0  0
  -26.4440  -37.4020   23.7670 N   0  0  0  0  0  0  0  0  0  0  0  0
  -26.0300  -38.3190   23.9170 H   0  0  0  0  0  0  0  0  0  0  0  0
  -26.4160  -31.7360   25.0930 C   0  0  1  0  0  0  0  0  0  0  0  0
  -25.3230  -31.4910   26.1600 C   0  0  0  0  0  1  0  0  0  0  0  0
  -27.0060  -30.3620   24.6980 C   0  0  0  0  0  1  0  0  0  0  0  0
  -27.5590  -32.5330   25.7630 C   0  0  0  0  0  1  0  0  0  0  0  0
  -30.1730  -18.6850   20.1290 C   0  0  0  0  0  2  0  0  0  0  0  0
  -29.8940  -15.9590   20.5770 C   0  0  0  0  0  3  0  0  0  0  0  0
  -29.6480  -17.3200   20.7700 C   0  0  0  0  0  0  0  0  0  0  0  0
  -30.6760  -14.7940   20.0020 C   0  0  0  0  0  0  0  0  0  0  0  0
  -30.4240  -12.5420   18.9480 C   0  0  0  0  0  2  0  0  0  0  0  0
  -29.4270  -12.6350   17.7720 C   0  0  0  0  0  2  0  0  0  0  0  0
  -27.9750  -12.4670   18.2630 C   0  0  0  0  0  2  0  0  0  0  0  0
  -27.6590  -13.3310   19.5130 C   0  0  0  0  0  3  0  0  0  0  0  0
  -28.7680  -13.2080   20.5780 C   0  0  0  0  0  2  0  0  0  0  0  0
  -30.0450  -13.5690   19.9460 N   0  0  0  0  0  0  0  0  0  0  0  0
  -31.8280  -14.8860   19.5520 O   0  0  0  0  0  0  0  0  0  0  0  0
  -25.3060  -13.9090   20.3550 C   0  0  0  0  0  0  0  0  0  0  0  0
  -24.2580  -13.1280   20.7650 C   0  0  0  0  0  0  0  0  0  0  0  0
  -24.7220  -11.7790   20.7020 C   0  0  0  0  0  0  0  0  0  0  0  0
  -26.3390  -13.0360   20.0630 N   0  0  0  0  0  0  0  0  0  0  0  0
  -25.9990  -11.7480   20.3320 N   0  0  0  0  0  0  0  0  0  0  0  0
  -24.0070  -10.5130   20.9130 C   0  0  0  0  0  0  0  0  0  0  0  0
  -24.4610   -9.5550   21.8460 C   0  0  0  0  0  3  0  0  0  0  0  0
  -23.7470   -8.3550   22.0500 C   0  0  0  0  0  3  0  0  0  0  0  0
  -22.5620   -8.1020   21.3190 C   0  0  0  0  0  0  0  0  0  0  0  0
  -22.1230   -9.0500   20.3760 C   0  0  0  0  0  3  0  0  0  0  0  0
  -22.8400  -10.2420   20.1720 C   0  0  0  0  0  3  0  0  0  0  0  0
  -21.8170   -6.9530   21.4300 O   0  0  0  0  0  0  0  0  0  0  0  0
  -21.7600   -6.2420   22.6020 C   0  0  0  0  0  0  0  0  0  0  0  0
  -21.3130   -6.8260   23.8090 C   0  0  0  0  0  3  0  0  0  0  0  0
  -21.2070   -6.0380   24.9720 C   0  0  0  0  0  3  0  0  0  0  0  0
  -21.5340   -4.6700   24.9280 C   0  0  0  0  0  0  0  0  0  0  0  0
  -21.9720   -4.0860   23.7280 C   0  0  0  0  0  3  0  0  0  0  0  0
  -22.0810   -4.8700   22.5660 C   0  0  0  0  0  0  0  0  0  0  0  0
  -22.4830   -4.2980   21.4060 F   0  0  0  0  0  0  0  0  0  0  0  0
  -21.4240   -3.9120   26.0440 F   0  0  0  0  0  0  0  0  0  0  0  0
  -22.8730  -13.6000   21.1020 C   0  0  0  0  0  0  0  0  0  0  0  0
  -22.1860  -12.9000   21.9970 N   0  0  0  0  0  0  0  0  0  0  0  0
  -22.4070  -14.6260   20.6070 O   0  0  0  0  0  0  0  0  0  0  0  0
  -22.5750  -12.0700   22.4230 H   0  0  0  0  0  0  0  0  0  0  0  0
  -21.2580  -13.1960   22.2580 H   0  0  0  0  0  0  0  0  0  0  0  0
  -25.4610  -15.2810   20.1810 N   0  0  0  0  0  0  0  0  0  0  0  0
  -24.7130  -15.9440   20.3610 H   0  0  0  0  0  0  0  0  0  0  0  0
  -26.3220  -15.7280   19.8930 H   0  0  0  0  0  0  0  0  0  0  0  0
  -28.7440  -17.6500   21.7030 O   0  0  0  0  0  0  0  0  0  0  0  0
  -28.7430  -18.5980   21.7710 H   0  0  0  0  0  0  0  0  0  0  0  0
  1  2  1  0
  3  4  2  0
  3  5  1  0
  4  6  1  0
  5  1  2  0
  6  2  2  0
  6  7  1  0
  8 10  1  0
  8  4  1  0
  9  8  2  0
 11 10  1  0
 12 23  2  0
 13 11  1  0
 13 18  1  0
 14 22  1  0
 14 24  1  0
 15 21  1  0
 15 17  1  0
 16 22  1  0
 17 16  1  0
 18 17  2  0
 19 13  2  0
 20 19  1  0
 20 15  2  0
 21 14  1  0
 22 12  1  0
 24 26  2  0
 25 24  1  0
 27 25  1  0
 28 37  2  0
 28 33  1  0
 29 25  1  0
 29 33  1  0
 30 29  1  0
 31 32  1  0
 31 30  1  0
 32 28  1  0
 33 34  2  0
 34 35  1  0
 36 35  2  0
 37 36  1  0
 38 12  1  0
 38 39  1  0
 38 48  1  0
 39 42  1  0
 40 44  1  0
 40 39  1  0
 41 40  2  0
 44 43  1  0
 46 44  1  0
 46 47  1  0
 46 45  1  0
 48 51  1  1
 48 49  1  0
 50 48  1  0
 52 54  1  0
 52  5  1  0
 53 54  2  0
 54 91  1  0
 55 53  1  0
 56 61  1  0
 57 58  1  0
 57 56  1  0
 59 58  1  0
 59 66  1  0
 59 60  1  0
 61 55  1  0
 61 60  1  0
 62 55  2  0
 63 64  2  0
 64 83  1  0
 65 64  1  0
 65 68  1  0
 66 67  1  0
 66 63  1  0
 67 65  2  0
 68 69  1  0
 69 70  2  0
 71 74  1  0
 71 70  1  0
 72 71  2  0
 73 72  1  0
 73 68  2  0
 74 75  1  0
 75 76  1  0
 76 77  2  0
 78 77  1  0
 78 82  1  0
 79 78  2  0
 80 75  2  0
 80 79  1  0
 81 80  1  0
 83 84  1  0
 84 87  1  0
 84 86  1  0
 85 83  2  0
 88 63  1  0
 88 89  1  0
 90 88  1  0
 91 92  1  0
M  ISO  4  10 101  11 101  53 100  55 100
M  END
>  <TORSDO>  (42) 
F 21

>  <SCORE>  (42) 
-13.149

>  <name>  (42) 
41

>  <ligand_id>  (42) 
41

>  <original_smiles>  (42) 
[H]OC(=C([H])C(=O)N1C([H])([H])C([H])([H])C([H])([H])C([H])(n2nc(-c3c([H])c([H])c(Oc4c([H])c([H])c(F)c([H])c4F)c([H])c3[H])c(C(=O)N([H])[H])c2N([H])[H])C1([H])[H])C([H])([H])c1c([H])c([H])c(C([H])([H])[H])c(C(=O)C([H])([H])Oc2c([H])c([H])c3c(c2[H])C([H])([H])N(C(=O)C([H])(N([H])C(=O)C([H])(N([H])C([H])([H])[H])C([H])([H])[H])C(C([H])([H])[H])(C([H])([H])[H])C([H])([H])[H])C([H])(C(=O)N([H])C2([H])c4c([H])c([H])c([H])c([H])c4C([H])([H])C([H])([H])C2([H])[H])C3([H])[H])c1[H]

>  <smiles>  (42) 
[H]OC(=C([H])C(=O)N1C([H])([H])C([H])([H])C([H])([H])C([H])(n2nc(-c3c([H])c([H])c(Oc4c([H])c([H])c(F)c([H])c4F)c([H])c3[H])c(C(=O)N([H])[H])c2N([H])[H])C1([H])[H])C([H])([H])c1c([H])c([H])c(C([H])([H])[H])c(C(=O)C([H])([H])Oc2c([H])c([H])c3c(c2[H])C([H])([H])N(C(=O)C([H])(N([H])C(=O)C([H])(N([H])C([H])([H])[H])C([H])([H])[H])C(C([H])([H])[H])(C([H])([H])[H])C([H])([H])[H])C([H])(C(=O)N([H])C2([H])c4c([H])c([H])c([H])c([H])c4C([H])([H])C([H])([H])C2([H])[H])C3([H])[H])c1[H]

$$$$
42:0:0
     RDKit          3D

 90 98  0  0  1  0  0  0  0  0999 V2000
  -30.3290  -21.4970   21.1680 C   0  0  0  0  0  3  0  0  0  0  0  0
  -30.2240  -20.9200   18.8130 C   0  0  0  0  0  3  0  0  0  0  0  0
  -30.7820  -20.1890   21.4620 C   0  0  0  0  0  3  0  0  0  0  0  0
  -30.6810  -19.6190   19.1020 C   0  0  0  0  0  3  0  0  0  0  0  0
  -30.0120  -21.8670   19.8420 C   0  0  0  0  0  0  0  0  0  0  0  0
  -30.9390  -19.2320   20.4330 C   0  0  0  0  0  0  0  0  0  0  0  0
  -29.3720  -23.1500   19.4800 C   0  0  0  0  0  3  0  0  0  0  0  0
  -29.1160  -24.2410   20.2350 C   0  0  0  0  0  3  0  0  0  0  0  0
  -28.1990  -25.3350   19.7020 C   0  0  0  0  0  2  0  0  0  0  0  0
  -28.3390  -26.6760   20.2180 O   0  0  0  0  0  0  0  0  0  0  0  0
  -24.5390  -31.9410   23.2270 C   0  0  0  0  0  0  0  0  0  0  0  0
  -27.1810  -27.4510   20.1720 C   0  0  0  0  0  0  0  0  0  0  0  0
  -23.3290  -30.5070   21.6220 C   0  0  0  0  0  3  0  0  0  0  0  0
  -24.7790  -28.9760   20.1960 C   0  0  0  0  0  0  0  0  0  0  0  0
  -25.8570  -30.8730   21.3990 C   0  0  0  0  0  2  0  0  0  0  0  0
  -25.9450  -29.4950   20.7730 C   0  0  0  0  0  0  0  0  0  0  0  0
  -27.1460  -28.7380   20.7670 C   0  0  0  0  0  3  0  0  0  0  0  0
  -25.9900  -26.9830   19.5540 C   0  0  0  0  0  3  0  0  0  0  0  0
  -24.7990  -27.7180   19.5860 C   0  0  0  0  0  3  0  0  0  0  0  0
  -23.5300  -29.8230   20.2470 C   0  0  0  0  0  2  0  0  0  0  0  0
  -24.5940  -31.1230   22.1390 N   0  0  0  0  0  0  0  0  0  0  0  0
  -23.4590  -32.2120   23.7720 O   0  0  0  0  0  0  0  0  0  0  0  0
  -22.6980  -29.4880   22.5990 C   0  0  0  0  0  0  0  0  0  0  0  0
  -21.3770  -29.2790   22.4800 N   0  0  0  0  0  0  0  0  0  0  0  0
  -23.3950  -28.8890   23.4220 O   0  0  0  0  0  0  0  0  0  0  0  0
  -20.8760  -29.8160   21.7850 H   0  0  0  0  0  0  0  0  0  0  0  0
  -18.0240  -28.0440   23.0170 C   0  0  0  0  0  0  0  0  0  0  0  0
  -20.5780  -28.3440   23.2720 C   0  0  0  0  0  3  0  0  0  0  0  0
  -20.6990  -26.9050   22.7210 C   0  0  0  0  0  2  0  0  0  0  0  0
  -19.5980  -26.5470   21.7190 C   0  0  0  0  0  2  0  0  0  0  0  0
  -18.2160  -26.6850   22.3680 C   0  0  0  0  0  2  0  0  0  0  0  0
  -19.1330  -28.8300   23.4270 C   0  0  0  0  0  0  0  0  0  0  0  0
  -18.8980  -30.1020   23.9940 C   0  0  0  0  0  3  0  0  0  0  0  0
  -17.5870  -30.5880   24.1560 C   0  0  0  0  0  3  0  0  0  0  0  0
  -16.4920  -29.8000   23.7620 C   0  0  0  0  0  3  0  0  0  0  0  0
  -16.7110  -28.5290   23.1990 C   0  0  0  0  0  3  0  0  0  0  0  0
  -25.8240  -32.5940   23.8210 C   0  0  0  0  0  3  0  0  0  0  0  0
  -26.3650  -31.8480   25.1020 C   0  0  1  0  0  0  0  0  0  0  0  0
  -25.2860  -31.6080   26.1820 C   0  0  0  0  0  1  0  0  0  0  0  0
  -26.9660  -30.4740   24.7220 C   0  0  0  0  0  1  0  0  0  0  0  0
  -27.5100  -32.6680   25.7410 C   0  0  0  0  0  1  0  0  0  0  0  0
  -25.5060  -33.9940   24.1290 N   0  0  0  0  0  0  0  0  0  0  0  0
  -25.8020  -35.0340   23.3380 C   0  0  0  0  0  0  0  0  0  0  0  0
  -26.4450  -34.9170   22.2910 O   0  0  0  0  0  0  0  0  0  0  0  0
  -24.9330  -34.1590   24.9440 H   0  0  0  0  0  0  0  0  0  0  0  0
  -24.0330  -36.7880   22.9980 C   0  0  0  0  0  1  0  0  0  0  0  0
  -25.3060  -36.4240   23.7780 C   0  0  0  0  0  3  0  0  0  0  0  0
  -27.4490  -37.3630   24.5210 C   0  0  0  0  0  1  0  0  0  0  0  0
  -26.3170  -37.4910   23.6080 N   0  0  0  0  0  0  0  0  0  0  0  0
  -25.8990  -38.4070   23.7460 H   0  0  0  0  0  0  0  0  0  0  0  0
  -31.3640  -17.7950   20.7410 C   0  0  0  0  0  2  0  0  0  0  0  0
  -30.1990  -16.7840   20.5960 C   0  0  0  0  0  2  0  0  0  0  0  0
  -30.9920  -14.4870   20.0840 C   0  0  0  0  0  0  0  0  0  0  0  0
  -30.5430  -12.3970   18.8380 C   0  0  0  0  0  2  0  0  0  0  0  0
  -29.5170  -12.6400   17.7120 C   0  0  0  0  0  2  0  0  0  0  0  0
  -28.0780  -12.4950   18.2410 C   0  0  0  0  0  2  0  0  0  0  0  0
  -27.8410  -13.3070   19.5390 C   0  0  0  0  0  3  0  0  0  0  0  0
  -28.9640  -13.0390   20.5650 C   0  0  0  0  0  2  0  0  0  0  0  0
  -30.2630  -13.3430   19.9310 N   0  0  0  0  0  0  0  0  0  0  0  0
  -31.9600  -14.7560   19.3660 O   0  0  0  0  0  0  0  0  0  0  0  0
  -30.6470  -15.1650   22.4130 C   0  0  0  0  0  1  0  0  0  0  0  0
  -30.5150  -15.3920   20.9720 N   0  0  0  0  0  0  0  0  0  0  0  0
  -25.5050  -13.9250   20.4350 C   0  0  0  0  0  0  0  0  0  0  0  0
  -24.4550  -13.1550   20.8570 C   0  0  0  0  0  0  0  0  0  0  0  0
  -24.8920  -11.7990   20.7530 C   0  0  0  0  0  0  0  0  0  0  0  0
  -26.5190  -13.0370   20.1040 N   0  0  0  0  0  0  0  0  0  0  0  0
  -26.1560  -11.7520   20.3500 N   0  0  0  0  0  0  0  0  0  0  0  0
  -24.1630  -10.5410   20.9600 C   0  0  0  0  0  0  0  0  0  0  0  0
  -24.6190   -9.5640   21.8730 C   0  0  0  0  0  3  0  0  0  0  0  0
  -23.8910   -8.3710   22.0670 C   0  0  0  0  0  3  0  0  0  0  0  0
  -22.6930   -8.1450   21.3490 C   0  0  0  0  0  0  0  0  0  0  0  0
  -22.2550   -9.1100   20.4250 C   0  0  0  0  0  3  0  0  0  0  0  0
  -22.9840  -10.2950   20.2290 C   0  0  0  0  0  3  0  0  0  0  0  0
  -21.9350   -7.0040   21.4530 O   0  0  0  0  0  0  0  0  0  0  0  0
  -21.8770   -6.2820   22.6190 C   0  0  0  0  0  0  0  0  0  0  0  0
  -21.4410   -6.8600   23.8310 C   0  0  0  0  0  3  0  0  0  0  0  0
  -21.3300   -6.0650   24.9890 C   0  0  0  0  0  3  0  0  0  0  0  0
  -21.6430   -4.6930   24.9350 C   0  0  0  0  0  0  0  0  0  0  0  0
  -22.0720   -4.1150   23.7270 C   0  0  0  0  0  3  0  0  0  0  0  0
  -22.1840   -4.9080   22.5710 C   0  0  0  0  0  0  0  0  0  0  0  0
  -22.5770   -4.3420   21.4050 F   0  0  0  0  0  0  0  0  0  0  0  0
  -21.5290   -3.9280   26.0460 F   0  0  0  0  0  0  0  0  0  0  0  0
  -23.0890  -13.6410   21.2470 C   0  0  0  0  0  0  0  0  0  0  0  0
  -22.4240  -12.9380   22.1580 N   0  0  0  0  0  0  0  0  0  0  0  0
  -22.6220  -14.6800   20.7810 O   0  0  0  0  0  0  0  0  0  0  0  0
  -22.8170  -12.0980   22.5560 H   0  0  0  0  0  0  0  0  0  0  0  0
  -21.5110  -13.2450   22.4610 H   0  0  0  0  0  0  0  0  0  0  0  0
  -25.6770  -15.2980   20.2870 N   0  0  0  0  0  0  0  0  0  0  0  0
  -24.9360  -15.9610   20.4800 H   0  0  0  0  0  0  0  0  0  0  0  0
  -26.5200  -15.7360   19.9360 H   0  0  0  0  0  0  0  0  0  0  0  0
  1  3  1  0
  2  4  2  0
  2  5  1  0
  4  6  1  0
  5  1  2  0
  6 51  1  0
  6  3  2  0
  7  5  1  0
  7  8  2  0
  9 10  1  0
  9  8  1  0
 11 22  2  0
 12 10  1  0
 12 17  1  0
 13 21  1  0
 13 23  1  0
 14 20  1  0
 14 16  1  0
 15 21  1  0
 16 15  1  0
 17 16  2  0
 18 19  1  0
 18 12  2  0
 19 14  2  0
 20 13  1  0
 21 11  1  0
 23 25  2  0
 24 23  1  0
 26 24  1  0
 27 36  2  0
 27 32  1  0
 28 24  1  0
 28 32  1  0
 29 28  1  0
 30 31  1  0
 30 29  1  0
 31 27  1  0
 32 33  2  0
 33 34  1  0
 35 34  2  0
 36 35  1  0
 37 11  1  0
 37 42  1  0
 37 38  1  0
 38 41  1  1
 38 39  1  0
 40 38  1  0
 42 45  1  0
 43 47  1  0
 43 42  1  0
 44 43  2  0
 47 46  1  0
 49 50  1  0
 49 47  1  0
 49 48  1  0
 52 51  1  0
 52 62  1  0
 53 62  1  0
 54 59  1  0
 55 56  1  0
 55 54  1  0
 57 56  1  0
 57 66  1  0
 57 58  1  0
 59 53  1  0
 59 58  1  0
 60 53  2  0
 62 61  1  0
 63 64  2  0
 64 83  1  0
 65 64  1  0
 65 68  1  0
 66 67  1  0
 66 63  1  0
 67 65  2  0
 68 69  1  0
 69 70  2  0
 71 74  1  0
 71 70  1  0
 72 71  2  0
 73 72  1  0
 73 68  2  0
 74 75  1  0
 75 76  1  0
 76 77  2  0
 78 77  1  0
 78 82  1  0
 79 78  2  0
 80 75  2  0
 80 79  1  0
 81 80  1  0
 83 84  1  0
 84 87  1  0
 84 86  1  0
 85 83  2  0
 88 63  1  0
 88 89  1  0
 90 88  1  0
M  ISO  4   9 101  10 101  53 100  62 100
M  END
>  <TORSDO>  (43) 
F 20

>  <SCORE>  (43) 
-12.629

>  <name>  (43) 
42

>  <ligand_id>  (43) 
42

>  <original_smiles>  (43) 
[H]C(=C([H])C([H])([H])Oc1c([H])c([H])c2c(c1[H])C([H])([H])N(C(=O)C([H])(N([H])C(=O)C([H])(N([H])C([H])([H])[H])C([H])([H])[H])C(C([H])([H])[H])(C([H])([H])[H])C([H])([H])[H])C([H])(C(=O)N([H])C1([H])c3c([H])c([H])c([H])c([H])c3C([H])([H])C([H])([H])C1([H])[H])C2([H])[H])c1c([H])c([H])c(C([H])([H])C([H])([H])N(C(=O)N2C([H])([H])C([H])([H])C([H])([H])C([H])(n3nc(-c4c([H])c([H])c(Oc5c([H])c([H])c(F)c([H])c5F)c([H])c4[H])c(C(=O)N([H])[H])c3N([H])[H])C2([H])[H])C([H])([H])[H])c([H])c1[H]

>  <smiles>  (43) 
[H]C(=C([H])C([H])([H])Oc1c([H])c([H])c2c(c1[H])C([H])([H])N(C(=O)C([H])(N([H])C(=O)C([H])(N([H])C([H])([H])[H])C([H])([H])[H])C(C([H])([H])[H])(C([H])([H])[H])C([H])([H])[H])C([H])(C(=O)N([H])C1([H])c3c([H])c([H])c([H])c([H])c3C([H])([H])C([H])([H])C1([H])[H])C2([H])[H])c1c([H])c([H])c(C([H])([H])C([H])([H])N(C(=O)N2C([H])([H])C([H])([H])C([H])([H])C([H])(n3nc(-c4c([H])c([H])c(Oc5c([H])c([H])c(F)c([H])c5F)c([H])c4[H])c(C(=O)N([H])[H])c3N([H])[H])C2([H])[H])C([H])([H])[H])c([H])c1[H]

$$$$
43:0:0
     RDKit          3D

 93101  0  0  1  0  0  0  0  0999 V2000
  -31.9780  -21.8280   23.3370 C   0  0  0  0  0  3  0  0  0  0  0  0
  -31.2210  -22.6180   22.4490 C   0  0  0  0  0  3  0  0  0  0  0  0
  -31.9150  -20.4220   23.2710 C   0  0  0  0  0  3  0  0  0  0  0  0
  -30.2960  -20.5930   21.4610 C   0  0  0  0  0  3  0  0  0  0  0  0
  -30.3790  -21.9980   21.5000 C   0  0  0  0  0  0  0  0  0  0  0  0
  -31.0770  -19.7960   22.3250 C   0  0  0  0  0  0  0  0  0  0  0  0
  -29.7390  -17.6540   22.6330 C   0  0  0  0  0  1  0  0  0  0  0  0
  -31.0670  -18.2780   22.1740 C   0  0  0  0  0  3  0  0  0  0  0  0
  -31.3490  -17.9800   20.7580 N   0  0  0  0  0  4  0  0  0  0  0  0
  -30.5230  -18.0910   20.1950 H   0  0  0  0  0  0  0  0  0  0  0  0
  -31.9880  -18.7080   20.4770 H   0  0  0  0  0  0  0  0  0  0  0  0
  -32.0430  -16.7130   20.4550 C   0  0  0  0  0  2  0  0  0  0  0  0
  -31.1920  -15.4450   20.7210 C   0  0  0  0  0  2  0  0  0  0  0  0
  -31.6280  -14.2580   19.8420 C   0  0  0  0  0  0  0  0  0  0  0  0
  -31.0230  -12.1940   18.6380 C   0  0  0  0  0  2  0  0  0  0  0  0
  -30.0370  -12.5180   17.4990 C   0  0  0  0  0  2  0  0  0  0  0  0
  -28.5860  -12.5130   18.0180 C   0  0  0  0  0  2  0  0  0  0  0  0
  -28.4080  -13.3600   19.3060 C   0  0  0  0  0  3  0  0  0  0  0  0
  -29.5000  -13.0190   20.3480 C   0  0  0  0  0  2  0  0  0  0  0  0
  -30.8130  -13.1810   19.7060 N   0  0  0  0  0  0  0  0  0  0  0  0
  -32.6910  -14.3540   19.2210 O   0  0  0  0  0  0  0  0  0  0  0  0
  -26.1160  -14.1750   20.1550 C   0  0  0  0  0  0  0  0  0  0  0  0
  -25.0070  -13.4980   20.5830 C   0  0  0  0  0  0  0  0  0  0  0  0
  -25.3410  -12.1100   20.5190 C   0  0  0  0  0  0  0  0  0  0  0  0
  -27.0640  -13.2060   19.8620 N   0  0  0  0  0  0  0  0  0  0  0  0
  -26.6030  -11.9580   20.1360 N   0  0  0  0  0  0  0  0  0  0  0  0
  -24.5170  -10.9160   20.7470 C   0  0  0  0  0  0  0  0  0  0  0  0
  -24.8860   -9.9350   21.6950 C   0  0  0  0  0  3  0  0  0  0  0  0
  -24.0680   -8.8040   21.9090 C   0  0  0  0  0  3  0  0  0  0  0  0
  -22.8680   -8.6480   21.1750 C   0  0  0  0  0  0  0  0  0  0  0  0
  -22.5180   -9.6150   20.2180 C   0  0  0  0  0  3  0  0  0  0  0  0
  -23.3360  -10.7370   20.0020 C   0  0  0  0  0  3  0  0  0  0  0  0
  -22.0260   -7.5690   21.2980 O   0  0  0  0  0  0  0  0  0  0  0  0
  -21.8770   -6.9030   22.4870 C   0  0  0  0  0  0  0  0  0  0  0  0
  -21.4630   -7.5640   23.6650 C   0  0  0  0  0  3  0  0  0  0  0  0
  -21.2560   -6.8290   24.8490 C   0  0  0  0  0  3  0  0  0  0  0  0
  -21.4530   -5.4340   24.8570 C   0  0  0  0  0  0  0  0  0  0  0  0
  -21.8610   -4.7740   23.6840 C   0  0  0  0  0  3  0  0  0  0  0  0
  -22.0690   -5.5070   22.5030 C   0  0  0  0  0  0  0  0  0  0  0  0
  -22.4400   -4.8620   21.3700 F   0  0  0  0  0  0  0  0  0  0  0  0
  -21.2470   -4.7270   25.9930 F   0  0  0  0  0  0  0  0  0  0  0  0
  -23.6760  -14.0950   20.9400 C   0  0  0  0  0  0  0  0  0  0  0  0
  -22.9500  -13.4690   21.8600 N   0  0  0  0  0  0  0  0  0  0  0  0
  -23.2920  -15.1510   20.4370 O   0  0  0  0  0  0  0  0  0  0  0  0
  -23.2750  -12.6130   22.2880 H   0  0  0  0  0  0  0  0  0  0  0  0
  -22.0580  -13.8510   22.1410 H   0  0  0  0  0  0  0  0  0  0  0  0
  -26.3930  -15.5260   19.9720 N   0  0  0  0  0  0  0  0  0  0  0  0
  -25.6950  -16.2470   20.1190 H   0  0  0  0  0  0  0  0  0  0  0  0
  -27.2540  -15.8850   19.5760 H   0  0  0  0  0  0  0  0  0  0  0  0
  -29.5690  -22.7800   20.4780 C   0  0  0  0  0  2  0  0  0  0  0  0
  -29.5890  -24.3120   20.6090 C   0  0  0  0  0  2  0  0  0  0  0  0
  -28.4970  -24.9240   19.7270 C   0  0  0  0  0  2  0  0  0  0  0  0
  -28.5720  -26.3480   19.7490 O   0  0  0  0  0  0  0  0  0  0  0  0
  -24.7200  -31.3700   22.9370 C   0  0  0  0  0  0  0  0  0  0  0  0
  -27.3790  -27.0370   19.7400 C   0  0  0  0  0  0  0  0  0  0  0  0
  -23.5100  -29.9870   21.2810 C   0  0  0  0  0  3  0  0  0  0  0  0
  -24.9630  -28.5010   19.8090 C   0  0  0  0  0  0  0  0  0  0  0  0
  -26.0280  -30.3830   21.0630 C   0  0  0  0  0  2  0  0  0  0  0  0
  -26.1200  -29.0290   20.3960 C   0  0  0  0  0  0  0  0  0  0  0  0
  -27.3290  -28.3020   20.3610 C   0  0  0  0  0  3  0  0  0  0  0  0
  -26.2060  -26.5290   19.1320 C   0  0  0  0  0  3  0  0  0  0  0  0
  -24.9990  -27.2480   19.1760 C   0  0  0  0  0  3  0  0  0  0  0  0
  -23.7100  -29.3400   19.8860 C   0  0  0  0  0  2  0  0  0  0  0  0
  -24.7720  -30.5930   21.8190 N   0  0  0  0  0  0  0  0  0  0  0  0
  -23.6420  -31.6200   23.4940 O   0  0  0  0  0  0  0  0  0  0  0  0
  -22.8840  -28.9370   22.2270 C   0  0  0  0  0  0  0  0  0  0  0  0
  -21.5550  -28.7670   22.1340 N   0  0  0  0  0  0  0  0  0  0  0  0
  -23.5880  -28.2820   23.0000 O   0  0  0  0  0  0  0  0  0  0  0  0
  -21.0490  -29.3490   21.4820 H   0  0  0  0  0  0  0  0  0  0  0  0
  -18.1870  -27.5970   22.7040 C   0  0  0  0  0  0  0  0  0  0  0  0
  -20.7550  -27.8120   22.8990 C   0  0  0  0  0  3  0  0  0  0  0  0
  -20.8190  -26.4010   22.2680 C   0  0  0  0  0  2  0  0  0  0  0  0
  -19.6790  -26.1290   21.2820 C   0  0  0  0  0  2  0  0  0  0  0  0
  -18.3220  -26.2700   21.9770 C   0  0  0  0  0  2  0  0  0  0  0  0
  -19.3300  -28.3290   23.1230 C   0  0  0  0  0  0  0  0  0  0  0  0
  -19.1490  -29.5740   23.7630 C   0  0  0  0  0  3  0  0  0  0  0  0
  -17.8580  -30.0870   23.9880 C   0  0  0  0  0  3  0  0  0  0  0  0
  -16.7290  -29.3510   23.5870 C   0  0  0  0  0  3  0  0  0  0  0  0
  -16.8950  -28.1080   22.9500 C   0  0  0  0  0  3  0  0  0  0  0  0
  -26.0080  -32.0020   23.5540 C   0  0  0  0  0  3  0  0  0  0  0  0
  -25.6670  -33.3630   23.9870 N   0  0  0  0  0  0  0  0  0  0  0  0
  -25.9810  -34.4770   23.3110 C   0  0  0  0  0  0  0  0  0  0  0  0
  -26.6610  -34.4660   22.2810 O   0  0  0  0  0  0  0  0  0  0  0  0
  -25.0630  -33.4440   24.7920 H   0  0  0  0  0  0  0  0  0  0  0  0
  -24.2220  -36.2560   23.0680 C   0  0  0  0  0  1  0  0  0  0  0  0
  -25.4580  -35.8150   23.8670 C   0  0  0  0  0  3  0  0  0  0  0  0
  -27.5610  -36.6730   24.8000 C   0  0  0  0  0  1  0  0  0  0  0  0
  -26.4710  -36.8920   23.8540 N   0  0  0  0  0  0  0  0  0  0  0  0
  -26.0450  -37.7910   24.0640 H   0  0  0  0  0  0  0  0  0  0  0  0
  -26.5990  -31.1640   24.7540 C   0  0  1  0  0  0  0  0  0  0  0  0
  -25.5560  -30.8200   25.8430 C   0  0  0  0  0  1  0  0  0  0  0  0
  -27.2060  -29.8370   24.2430 C   0  0  0  0  0  1  0  0  0  0  0  0
  -27.7500  -31.9490   25.4240 C   0  0  0  0  0  1  0  0  0  0  0  0
  2  1  2  0
  3  1  1  0
  4  5  2  0
  4  6  1  0
  5  2  1  0
  6  3  2  0
  8  6  1  0
  8  7  1  0
  9  8  1  0
 10  9  1  0
 11  9  1  0
 12 13  1  0
 12  9  1  0
 14 13  1  0
 15 20  1  0
 16 17  1  0
 16 15  1  0
 18 17  1  0
 18 25  1  0
 18 19  1  0
 20 14  1  0
 20 19  1  0
 21 14  2  0
 22 23  2  0
 23 42  1  0
 24 23  1  0
 24 27  1  0
 25 26  1  0
 25 22  1  0
 26 24  2  0
 27 28  1  0
 28 29  2  0
 30 33  1  0
 30 29  1  0
 31 30  2  0
 32 31  1  0
 32 27  2  0
 33 34  1  0
 34 39  2  0
 34 35  1  0
 35 36  2  0
 36 37  1  0
 37 41  1  0
 38 37  2  0
 39 38  1  0
 40 39  1  0
 42 43  1  0
 43 46  1  0
 43 45  1  0
 44 42  2  0
 47 48  1  0
 47 22  1  0
 49 47  1  0
 50 51  1  0
 50  5  1  0
 52 53  1  0
 52 51  1  0
 54 65  2  0
 55 53  1  0
 55 60  1  0
 56 64  1  0
 56 66  1  0
 57 63  1  0
 57 59  1  0
 58 64  1  0
 59 58  1  0
 60 59  2  0
 61 62  1  0
 61 55  2  0
 62 57  2  0
 63 56  1  0
 64 54  1  0
 66 68  2  0
 67 66  1  0
 69 67  1  0
 70 79  2  0
 70 75  1  0
 71 67  1  0
 71 75  1  0
 72 71  1  0
 73 74  1  0
 73 72  1  0
 74 70  1  0
 75 76  2  0
 76 77  1  0
 78 77  2  0
 79 78  1  0
 80 54  1  0
 80 81  1  0
 80 90  1  0
 81 84  1  0
 82 86  1  0
 82 81  1  0
 83 82  2  0
 86 85  1  0
 88 86  1  0
 88 89  1  0
 88 87  1  0
 90 93  1  1
 90 91  1  0
 92 90  1  0
M  ISO  4  13 100  14 100  52 101  53 101
M  END
>  <TORSDO>  (44) 
F 23

>  <SCORE>  (44) 
-9.439

>  <name>  (44) 
43

>  <ligand_id>  (44) 
43

>  <original_smiles>  (44) 
[H]c1c([H])c([H])c2c(c1[H])C([H])([H])C([H])([H])C([H])([H])C2([H])N([H])C(=O)C1([H])N(C(=O)C([H])(N([H])C(=O)C([H])(N([H])C([H])([H])[H])C([H])([H])[H])C(C([H])([H])[H])(C([H])([H])[H])C([H])([H])[H])C([H])([H])c2c([H])c(OC([H])([H])C([H])([H])C([H])([H])c3c([H])c([H])c([H])c(C([H])(C([H])([H])[H])[N+]([H])([H])C([H])([H])C([H])([H])C(=O)N4C([H])([H])C([H])([H])C([H])([H])C([H])(n5nc(-c6c([H])c([H])c(Oc7c([H])c([H])c(F)c([H])c7F)c([H])c6[H])c(C(=O)N([H])[H])c5N([H])[H])C4([H])[H])c3[H])c([H])c([H])c2C1([H])[H]

>  <smiles>  (44) 
[H]c1c([H])c([H])c2c(c1[H])C([H])([H])C([H])([H])C([H])([H])C2([H])N([H])C(=O)C1([H])N(C(=O)C([H])(N([H])C(=O)C([H])(N([H])C([H])([H])[H])C([H])([H])[H])C(C([H])([H])[H])(C([H])([H])[H])C([H])([H])[H])C([H])([H])c2c([H])c(OC([H])([H])C([H])([H])C([H])([H])c3c([H])c([H])c([H])c(C([H])(C([H])([H])[H])[N+]([H])([H])C([H])([H])C([H])([H])C(=O)N4C([H])([H])C([H])([H])C([H])([H])C([H])(n5nc(-c6c([H])c([H])c(Oc7c([H])c([H])c(F)c([H])c7F)c([H])c6[H])c(C(=O)N([H])[H])c5N([H])[H])C4([H])[H])c3[H])c([H])c([H])c2C1([H])[H]

$$$$
44:0:0
     RDKit          3D

 83 90  0  0  1  0  0  0  0  0999 V2000
  -28.1470  -23.8810   20.5470 C   0  0  0  0  0  2  0  0  0  0  0  0
  -29.7480  -22.4510   18.8570 C   0  0  0  0  0  1  0  0  0  0  0  0
  -28.6770  -22.1350   19.9060 C   0  0  0  0  0  3  0  0  0  0  0  0
  -29.1940  -20.3910   20.5550 C   0  0  0  0  0  2  0  0  0  0  0  0
  -29.4410  -17.1230   20.0760 C   0  0  0  0  0  0  0  0  0  0  0  0
  -28.9990  -18.6060   20.1230 C   0  0  0  0  0  3  0  0  0  0  0  0
  -30.2870  -15.6360   20.1490 C   0  0  0  0  0  0  0  0  0  0  0  0
  -30.3630  -13.0980   19.3340 C   0  0  0  0  0  2  0  0  0  0  0  0
  -29.4510  -12.7230   18.1310 C   0  0  0  0  0  2  0  0  0  0  0  0
  -28.0280  -12.3820   18.6010 C   0  0  0  0  0  2  0  0  0  0  0  0
  -27.5380  -13.3790   19.6760 C   0  0  0  0  0  3  0  0  0  0  0  0
  -28.5840  -13.6770   20.7700 C   0  0  0  0  0  2  0  0  0  0  0  0
  -29.7620  -14.2740   20.1050 N   0  0  0  0  0  0  0  0  0  0  0  0
  -31.5220  -15.5480   20.0060 O   0  0  0  0  0  0  0  0  0  0  0  0
  -25.1920  -13.8990   20.4990 C   0  0  0  0  0  0  0  0  0  0  0  0
  -24.1430  -13.1130   20.8800 C   0  0  0  0  0  0  0  0  0  0  0  0
  -24.6180  -11.7650   20.8320 C   0  0  0  0  0  0  0  0  0  0  0  0
  -26.2340  -13.0330   20.2240 N   0  0  0  0  0  0  0  0  0  0  0  0
  -25.9050  -11.7420   20.4940 N   0  0  0  0  0  0  0  0  0  0  0  0
  -23.8990  -10.4990   21.0270 C   0  0  0  0  0  0  0  0  0  0  0  0
  -24.3460   -9.5270   21.9500 C   0  0  0  0  0  3  0  0  0  0  0  0
  -23.6210   -8.3290   22.1340 C   0  0  0  0  0  3  0  0  0  0  0  0
  -22.4360   -8.0940   21.3980 C   0  0  0  0  0  0  0  0  0  0  0  0
  -22.0090   -9.0540   20.4650 C   0  0  0  0  0  3  0  0  0  0  0  0
  -22.7330  -10.2440   20.2770 C   0  0  0  0  0  3  0  0  0  0  0  0
  -21.6830   -6.9480   21.4920 O   0  0  0  0  0  0  0  0  0  0  0  0
  -21.6510   -6.2000   22.6420 C   0  0  0  0  0  0  0  0  0  0  0  0
  -21.2430   -6.7500   23.8780 C   0  0  0  0  0  3  0  0  0  0  0  0
  -21.1570   -5.9300   25.0200 C   0  0  0  0  0  3  0  0  0  0  0  0
  -21.4700   -4.5610   24.9280 C   0  0  0  0  0  0  0  0  0  0  0  0
  -21.8720   -4.0100   23.6980 C   0  0  0  0  0  3  0  0  0  0  0  0
  -21.9580   -4.8280   22.5580 C   0  0  0  0  0  0  0  0  0  0  0  0
  -22.3250   -4.2880   21.3710 F   0  0  0  0  0  0  0  0  0  0  0  0
  -21.3810   -3.7700   26.0240 F   0  0  0  0  0  0  0  0  0  0  0  0
  -22.7490  -13.5820   21.1720 C   0  0  0  0  0  0  0  0  0  0  0  0
  -22.0350  -12.8800   22.0430 N   0  0  0  0  0  0  0  0  0  0  0  0
  -22.3020  -14.6090   20.6620 O   0  0  0  0  0  0  0  0  0  0  0  0
  -22.4110  -12.0490   22.4780 H   0  0  0  0  0  0  0  0  0  0  0  0
  -21.1000  -13.1760   22.2820 H   0  0  0  0  0  0  0  0  0  0  0  0
  -25.3460  -15.2730   20.3310 N   0  0  0  0  0  0  0  0  0  0  0  0
  -24.5830  -15.9250   20.4750 H   0  0  0  0  0  0  0  0  0  0  0  0
  -26.1950  -15.7220   20.0120 H   0  0  0  0  0  0  0  0  0  0  0  0
  -28.2120  -25.6010   20.2200 O   0  0  0  0  0  0  0  0  0  0  0  0
  -24.6500  -31.8580   23.1490 C   0  0  0  0  0  0  0  0  0  0  0  0
  -27.2060  -26.7760   20.2370 C   0  0  0  0  0  0  0  0  0  0  0  0
  -23.4730  -30.4410   21.5210 C   0  0  0  0  0  3  0  0  0  0  0  0
  -24.9310  -28.7830   20.1410 C   0  0  0  0  0  0  0  0  0  0  0  0
  -26.0520  -30.5960   21.4090 C   0  0  0  0  0  2  0  0  0  0  0  0
  -26.1230  -29.1580   20.7720 C   0  0  0  0  0  0  0  0  0  0  0  0
  -27.2510  -28.1840   20.7810 C   0  0  0  0  0  3  0  0  0  0  0  0
  -25.9760  -26.5990   19.5580 C   0  0  0  0  0  3  0  0  0  0  0  0
  -24.8940  -27.5280   19.5090 C   0  0  0  0  0  3  0  0  0  0  0  0
  -23.7230  -29.7300   20.1610 C   0  0  0  0  0  2  0  0  0  0  0  0
  -24.7480  -30.9980   22.0790 N   0  0  0  0  0  0  0  0  0  0  0  0
  -23.5530  -32.1590   23.6520 O   0  0  0  0  0  0  0  0  0  0  0  0
  -22.7560  -29.4700   22.4970 C   0  0  0  0  0  0  0  0  0  0  0  0
  -21.4210  -29.3290   22.3830 N   0  0  0  0  0  0  0  0  0  0  0  0
  -23.4120  -28.8400   23.3300 O   0  0  0  0  0  0  0  0  0  0  0  0
  -20.9430  -29.8870   21.6890 H   0  0  0  0  0  0  0  0  0  0  0  0
  -18.0230  -28.1660   22.9300 C   0  0  0  0  0  0  0  0  0  0  0  0
  -20.5900  -28.4040   23.1610 C   0  0  0  0  0  3  0  0  0  0  0  0
  -20.6650  -26.9700   22.5850 C   0  0  0  0  0  2  0  0  0  0  0  0
  -19.5480  -26.6630   21.5830 C   0  0  0  0  0  2  0  0  0  0  0  0
  -18.1760  -26.8200   22.2430 C   0  0  0  0  0  2  0  0  0  0  0  0
  -19.1550  -28.9170   23.3470 C   0  0  0  0  0  0  0  0  0  0  0  0
  -18.9540  -30.1750   23.9540 C   0  0  0  0  0  3  0  0  0  0  0  0
  -17.6560  -30.6840   24.1460 C   0  0  0  0  0  3  0  0  0  0  0  0
  -16.5390  -29.9310   23.7420 C   0  0  0  0  0  3  0  0  0  0  0  0
  -16.7240  -28.6750   23.1400 C   0  0  0  0  0  3  0  0  0  0  0  0
  -25.9080  -32.5170   23.7910 C   0  0  0  0  0  3  0  0  0  0  0  0
  -26.4040  -31.7660   25.0890 C   0  0  1  0  0  0  0  0  0  0  0  0
  -25.2960  -31.5420   26.1450 C   0  0  0  0  0  1  0  0  0  0  0  0
  -26.9970  -30.3830   24.7380 C   0  0  0  0  0  1  0  0  0  0  0  0
  -27.5440  -32.5720   25.7560 C   0  0  0  0  0  1  0  0  0  0  0  0
  -25.5770  -33.9160   24.1200 N   0  0  0  0  0  0  0  0  0  0  0  0
  -25.9080  -34.9830   23.3790 C   0  0  0  0  0  0  0  0  0  0  0  0
  -26.5830  -34.8920   22.3510 O   0  0  0  0  0  0  0  0  0  0  0  0
  -24.9750  -34.0600   24.9170 H   0  0  0  0  0  0  0  0  0  0  0  0
  -24.1760  -36.7830   23.0460 C   0  0  0  0  0  1  0  0  0  0  0  0
  -25.4190  -36.3690   23.8500 C   0  0  0  0  0  3  0  0  0  0  0  0
  -27.5500  -37.2610   24.6870 C   0  0  0  0  0  1  0  0  0  0  0  0
  -26.4470  -37.4280   23.7440 N   0  0  0  0  0  0  0  0  0  0  0  0
  -26.0370  -38.3460   23.8970 H   0  0  0  0  0  0  0  0  0  0  0  0
  3  2  1  0
  3  1  1  0
  3  4  1  0
  5  6  2  0
  5  7  2  0
  6  4  1  0
  8 13  1  0
  9 10  1  0
  9  8  1  0
 11 10  1  0
 11 18  1  0
 11 12  1  0
 13  7  1  0
 13 12  1  0
 14  7  2  0
 15 16  2  0
 16 35  1  0
 17 16  1  0
 17 20  1  0
 18 19  1  0
 18 15  1  0
 19 17  2  0
 20 21  1  0
 21 22  2  0
 23 26  1  0
 23 22  1  0
 24 23  2  0
 25 24  1  0
 25 20  2  0
 26 27  1  0
 27 28  1  0
 28 29  2  0
 30 29  1  0
 30 34  1  0
 31 30  2  0
 32 27  2  0
 32 31  1  0
 33 32  1  0
 35 36  1  0
 36 39  1  0
 36 38  1  0
 37 35  2  0
 40 41  1  0
 40 15  1  0
 42 40  1  0
 43 45  1  0
 43  1  1  0
 44 55  2  0
 45 50  1  0
 46 54  1  0
 46 56  1  0
 47 53  1  0
 47 49  1  0
 48 54  1  0
 49 50  2  0
 49 48  1  0
 51 45  2  0
 52 51  1  0
 52 47  2  0
 53 46  1  0
 54 44  1  0
 56 58  2  0
 57 56  1  0
 59 57  1  0
 60 69  2  0
 60 65  1  0
 61 57  1  0
 61 65  1  0
 62 61  1  0
 63 64  1  0
 63 62  1  0
 64 60  1  0
 65 66  2  0
 66 67  1  0
 68 67  2  0
 69 68  1  0
 70 44  1  0
 70 75  1  0
 70 71  1  0
 71 74  1  1
 71 72  1  0
 73 71  1  0
 75 78  1  0
 76 80  1  0
 76 75  1  0
 77 76  2  0
 80 79  1  0
 82 80  1  0
 82 83  1  0
 82 81  1  0
M  ISO  4   1 101   5 100   7 100  43 101
M  END
>  <TORSDO>  (45) 
F 19

>  <SCORE>  (45) 
-16.353

>  <name>  (45) 
44

>  <ligand_id>  (45) 
44

>  <original_smiles>  (45) 
[H]C(C(=O)N1C([H])([H])C([H])([H])C([H])([H])C([H])(n2nc(-c3c([H])c([H])c(Oc4c([H])c([H])c(F)c([H])c4F)c([H])c3[H])c(C(=O)N([H])[H])c2N([H])[H])C1([H])[H])=C([H])C([H])([H])C([H])(C([H])([H])[H])C([H])([H])Oc1c([H])c([H])c2c(c1[H])C([H])([H])N(C(=O)C([H])(N([H])C(=O)C([H])(N([H])C([H])([H])[H])C([H])([H])[H])C(C([H])([H])[H])(C([H])([H])[H])C([H])([H])[H])C([H])(C(=O)N([H])C1([H])c3c([H])c([H])c([H])c([H])c3C([H])([H])C([H])([H])C1([H])[H])C2([H])[H]

>  <smiles>  (45) 
[H]C(C(=O)N1C([H])([H])C([H])([H])C([H])([H])C([H])(n2nc(-c3c([H])c([H])c(Oc4c([H])c([H])c(F)c([H])c4F)c([H])c3[H])c(C(=O)N([H])[H])c2N([H])[H])C1([H])[H])=C([H])C([H])([H])C([H])(C([H])([H])[H])C([H])([H])Oc1c([H])c([H])c2c(c1[H])C([H])([H])N(C(=O)C([H])(N([H])C(=O)C([H])(N([H])C([H])([H])[H])C([H])([H])[H])C(C([H])([H])[H])(C([H])([H])[H])C([H])([H])[H])C([H])(C(=O)N([H])C1([H])c3c([H])c([H])c([H])c([H])c3C([H])([H])C([H])([H])C1([H])[H])C2([H])[H]

$$$$
45:0:0
     RDKit          3D

 97106  0  0  1  0  0  0  0  0999 V2000
  -32.5420  -19.3430   18.8050 C   0  0  0  0  0  3  0  0  0  0  0  0
  -31.6230  -18.5570   19.5100 C   0  0  0  0  0  3  0  0  0  0  0  0
  -30.9610  -21.1610   18.8720 C   0  0  0  0  0  3  0  0  0  0  0  0
  -32.1710  -20.6260   18.4110 C   0  0  0  0  0  0  0  0  0  0  0  0
  -30.3140  -18.9790   19.8610 C   0  0  0  0  0  0  0  0  0  0  0  0
  -30.0070  -20.4750   19.6670 C   0  0  0  0  0  0  0  0  0  0  0  0
  -33.0180  -21.4310   17.4310 C   0  0  0  0  0  2  0  0  0  0  0  0
  -33.6250  -23.1610   19.2370 C   0  0  0  0  0  0  0  0  0  0  0  0
  -34.4120  -23.5110   17.0440 C   0  0  0  0  0  2  0  0  0  0  0  0
  -33.4470  -24.6360   17.4610 C   0  0  0  0  0  2  0  0  0  0  0  0
  -34.1060  -22.3640   18.0240 C   0  0  0  0  0  3  0  0  0  0  0  0
  -33.2040  -24.3680   18.8690 N   0  0  0  0  0  0  0  0  0  0  0  0
  -33.6730  -22.7530   20.3960 O   0  0  0  0  0  0  0  0  0  0  0  0
  -32.8180  -25.0570   19.5030 H   0  0  0  0  0  0  0  0  0  0  0  0
  -28.8130  -21.5670   20.0420 C   0  0  0  0  0  2  0  0  0  0  0  0
  -29.0710  -23.2750   20.2100 C   0  0  0  0  0  3  0  0  0  0  0  0
  -27.9800  -24.5720   20.0690 C   0  0  0  0  0  3  0  0  0  0  0  0
  -28.2640  -26.1140   20.2190 O   0  0  0  0  0  0  0  0  0  0  0  0
  -24.6220  -31.8270   23.1950 C   0  0  0  0  0  0  0  0  0  0  0  0
  -27.2220  -27.1170   20.1510 C   0  0  0  0  0  0  0  0  0  0  0  0
  -23.4420  -30.4480   21.5290 C   0  0  0  0  0  3  0  0  0  0  0  0
  -24.9050  -28.8890   20.1010 C   0  0  0  0  0  0  0  0  0  0  0  0
  -26.0000  -30.7070   21.3940 C   0  0  0  0  0  2  0  0  0  0  0  0
  -26.0800  -29.3190   20.7310 C   0  0  0  0  0  0  0  0  0  0  0  0
  -27.2360  -28.4490   20.7420 C   0  0  0  0  0  3  0  0  0  0  0  0
  -26.0200  -26.7960   19.4820 C   0  0  0  0  0  3  0  0  0  0  0  0
  -24.8940  -27.6400   19.4580 C   0  0  0  0  0  3  0  0  0  0  0  0
  -23.6760  -29.7870   20.1450 C   0  0  0  0  0  2  0  0  0  0  0  0
  -24.7100  -31.0180   22.0930 N   0  0  0  0  0  0  0  0  0  0  0  0
  -23.5290  -32.1100   23.7070 O   0  0  0  0  0  0  0  0  0  0  0  0
  -22.7520  -29.4300   22.4730 C   0  0  0  0  0  0  0  0  0  0  0  0
  -21.4240  -29.2600   22.3280 N   0  0  0  0  0  0  0  0  0  0  0  0
  -23.4120  -28.7970   23.3020 O   0  0  0  0  0  0  0  0  0  0  0  0
  -20.9500  -29.8270   21.6390 H   0  0  0  0  0  0  0  0  0  0  0  0
  -18.0340  -28.0530   22.7680 C   0  0  0  0  0  0  0  0  0  0  0  0
  -20.5910  -28.3160   23.0790 C   0  0  0  0  0  3  0  0  0  0  0  0
  -20.7000  -26.8880   22.4950 C   0  0  0  0  0  2  0  0  0  0  0  0
  -19.6140  -26.5730   21.4630 C   0  0  0  0  0  2  0  0  0  0  0  0
  -18.2210  -26.7090   22.0850 C   0  0  0  0  0  2  0  0  0  0  0  0
  -19.1460  -28.8140   23.2220 C   0  0  0  0  0  0  0  0  0  0  0  0
  -18.9150  -30.0680   23.8290 C   0  0  0  0  0  3  0  0  0  0  0  0
  -17.6070  -30.5630   23.9840 C   0  0  0  0  0  3  0  0  0  0  0  0
  -16.5090  -29.8010   23.5460 C   0  0  0  0  0  3  0  0  0  0  0  0
  -16.7240  -28.5490   22.9440 C   0  0  0  0  0  3  0  0  0  0  0  0
  -25.8880  -32.4580   23.8480 C   0  0  0  0  0  3  0  0  0  0  0  0
  -25.5760  -33.8590   24.1700 N   0  0  0  0  0  0  0  0  0  0  0  0
  -25.9290  -34.9140   23.4200 C   0  0  0  0  0  0  0  0  0  0  0  0
  -26.6180  -34.8050   22.4030 O   0  0  0  0  0  0  0  0  0  0  0  0
  -24.9570  -34.0170   24.9520 H   0  0  0  0  0  0  0  0  0  0  0  0
  -24.2170  -36.7260   23.0480 C   0  0  0  0  0  1  0  0  0  0  0  0
  -25.4440  -36.3060   23.8720 C   0  0  0  0  0  3  0  0  0  0  0  0
  -27.5730  -37.1780   24.7360 C   0  0  0  0  0  1  0  0  0  0  0  0
  -26.4870  -37.3510   23.7770 N   0  0  0  0  0  0  0  0  0  0  0  0
  -26.0860  -38.2760   23.9180 H   0  0  0  0  0  0  0  0  0  0  0  0
  -26.3630  -31.6880   25.1430 C   0  0  1  0  0  0  0  0  0  0  0  0
  -25.2380  -31.4670   26.1840 C   0  0  0  0  0  1  0  0  0  0  0  0
  -26.9410  -30.3020   24.7740 C   0  0  0  0  0  1  0  0  0  0  0  0
  -27.5080  -32.4750   25.8210 C   0  0  0  0  0  1  0  0  0  0  0  0
  -29.4530  -17.6190   20.1820 C   0  0  0  0  0  2  0  0  0  0  0  0
  -30.6000  -15.0030   20.0390 C   0  0  0  0  0  0  0  0  0  0  0  0
  -30.3960  -12.6870   19.0000 C   0  0  0  0  0  2  0  0  0  0  0  0
  -29.3930  -12.6810   17.8220 C   0  0  0  0  0  2  0  0  0  0  0  0
  -27.9620  -12.4480   18.3360 C   0  0  0  0  0  2  0  0  0  0  0  0
  -27.6300  -13.3290   19.5690 C   0  0  0  0  0  3  0  0  0  0  0  0
  -28.7480  -13.3030   20.6330 C   0  0  0  0  0  2  0  0  0  0  0  0
  -29.9840  -13.7470   19.9750 N   0  0  0  0  0  0  0  0  0  0  0  0
  -31.7200  -15.0770   19.5190 O   0  0  0  0  0  0  0  0  0  0  0  0
  -30.1570  -16.1910   22.0870 C   0  0  0  0  0  1  0  0  0  0  0  0
  -29.9790  -16.1610   20.6310 N   0  0  0  0  0  0  0  0  0  0  0  0
  -25.3000  -13.8820   20.4640 C   0  0  0  0  0  0  0  0  0  0  0  0
  -24.2580  -13.0950   20.8690 C   0  0  0  0  0  0  0  0  0  0  0  0
  -24.7170  -11.7460   20.7670 C   0  0  0  0  0  0  0  0  0  0  0  0
  -26.3250  -13.0130   20.1330 N   0  0  0  0  0  0  0  0  0  0  0  0
  -25.9890  -11.7200   20.3840 N   0  0  0  0  0  0  0  0  0  0  0  0
  -24.0000  -10.4790   20.9570 C   0  0  0  0  0  0  0  0  0  0  0  0
  -24.4340   -9.5190   21.8990 C   0  0  0  0  0  3  0  0  0  0  0  0
  -23.7150   -8.3180   22.0800 C   0  0  0  0  0  3  0  0  0  0  0  0
  -22.5480   -8.0670   21.3200 C   0  0  0  0  0  0  0  0  0  0  0  0
  -22.1330   -9.0160   20.3690 C   0  0  0  0  0  3  0  0  0  0  0  0
  -22.8510  -10.2090   20.1870 C   0  0  0  0  0  3  0  0  0  0  0  0
  -21.8020   -6.9170   21.4090 O   0  0  0  0  0  0  0  0  0  0  0  0
  -21.7000   -6.2150   22.5820 C   0  0  0  0  0  0  0  0  0  0  0  0
  -21.1700   -6.7960   23.7560 C   0  0  0  0  0  3  0  0  0  0  0  0
  -21.0170   -6.0180   24.9200 C   0  0  0  0  0  3  0  0  0  0  0  0
  -21.3850   -4.6590   24.9140 C   0  0  0  0  0  0  0  0  0  0  0  0
  -21.9080   -4.0770   23.7450 C   0  0  0  0  0  3  0  0  0  0  0  0
  -22.0620   -4.8540   22.5830 C   0  0  0  0  0  0  0  0  0  0  0  0
  -22.5450   -4.2830   21.4540 F   0  0  0  0  0  0  0  0  0  0  0  0
  -21.2340   -3.9100   26.0290 F   0  0  0  0  0  0  0  0  0  0  0  0
  -22.8800  -13.5650   21.2330 C   0  0  0  0  0  0  0  0  0  0  0  0
  -22.1960  -12.8300   22.1040 N   0  0  0  0  0  0  0  0  0  0  0  0
  -22.4200  -14.6140   20.7840 O   0  0  0  0  0  0  0  0  0  0  0  0
  -22.5840  -11.9820   22.4910 H   0  0  0  0  0  0  0  0  0  0  0  0
  -21.2700  -13.1200   22.3890 H   0  0  0  0  0  0  0  0  0  0  0  0
  -25.4570  -15.2570   20.3210 N   0  0  0  0  0  0  0  0  0  0  0  0
  -24.7020  -15.9100   20.4980 H   0  0  0  0  0  0  0  0  0  0  0  0
  -26.2920  -15.7050   19.9680 H   0  0  0  0  0  0  0  0  0  0  0  0
  1  2  1  0
  2  5  2  0
  3  6  2  0
  4  1  2  0
  4  3  1  0
  5 59  1  0
  6  5  1  0
  6 15  1  0
  7  4  1  0
  8 13  2  0
  9 10  1  0
  9 11  1  0
 10 12  1  0
 11  7  1  0
 11  8  1  0
 12  8  1  0
 12 14  1  0
 15 16  1  0
 17 16  2  0
 17 18  1  0
 19 30  2  0
 20 18  1  0
 20 25  1  0
 21 29  1  0
 21 31  1  0
 22 28  1  0
 22 24  1  0
 23 29  1  0
 24 25  2  0
 24 23  1  0
 26 20  2  0
 27 26  1  0
 27 22  2  0
 28 21  1  0
 29 19  1  0
 31 33  2  0
 32 31  1  0
 34 32  1  0
 35 44  2  0
 35 40  1  0
 36 32  1  0
 36 40  1  0
 37 36  1  0
 38 39  1  0
 38 37  1  0
 39 35  1  0
 40 41  2  0
 41 42  1  0
 43 42  2  0
 44 43  1  0
 45 19  1  0
 45 46  1  0
 45 55  1  0
 46 49  1  0
 47 51  1  0
 47 46  1  0
 48 47  2  0
 51 50  1  0
 53 51  1  0
 53 54  1  0
 53 52  1  0
 55 58  1  1
 55 56  1  0
 57 55  1  0
 59 69  1  0
 60 69  1  0
 61 66  1  0
 62 63  1  0
 62 61  1  0
 64 63  1  0
 64 73  1  0
 64 65  1  0
 66 60  1  0
 66 65  1  0
 67 60  2  0
 69 68  1  0
 70 71  2  0
 71 90  1  0
 72 71  1  0
 72 75  1  0
 73 74  1  0
 73 70  1  0
 74 72  2  0
 75 76  1  0
 76 77  2  0
 78 81  1  0
 78 77  1  0
 79 78  2  0
 80 79  1  0
 80 75  2  0
 81 82  1  0
 82 87  2  0
 82 83  1  0
 83 84  2  0
 85 84  1  0
 85 89  1  0
 86 85  2  0
 87 86  1  0
 88 87  1  0
 90 91  1  0
 91 94  1  0
 91 93  1  0
 92 90  2  0
 95 70  1  0
 95 96  1  0
 97 95  1  0
M  ISO  4  17 101  18 101  60 100  69 100
M  END
>  <TORSDO>  (46) 
F 22

>  <SCORE>  (46) 
-13.883

>  <name>  (46) 
45

>  <ligand_id>  (46) 
45

>  <original_smiles>  (46) 
[H]c1c([H])c([H])c2c(c1[H])C([H])([H])C([H])([H])C([H])([H])C2([H])N([H])C(=O)C1([H])N(C(=O)C([H])(N([H])C(=O)C([H])(N([H])C([H])([H])[H])C([H])([H])[H])C(C([H])([H])[H])(C([H])([H])[H])C([H])([H])[H])C([H])([H])c2c([H])c(OC([H])([H])C([H])([H])C([H])([H])c3c([H])c(C([H])([H])C4([H])C(=O)N([H])C([H])([H])C4([H])[H])c([H])c([H])c3C([H])([H])N(C(=O)N3C([H])([H])C([H])([H])C([H])([H])C([H])(n4nc(-c5c([H])c([H])c(Oc6c([H])c([H])c(F)c([H])c6F)c([H])c5[H])c(C(=O)N([H])[H])c4N([H])[H])C3([H])[H])C([H])([H])[H])c([H])c([H])c2C1([H])[H]

>  <smiles>  (46) 
[H]c1c([H])c([H])c2c(c1[H])C([H])([H])C([H])([H])C([H])([H])C2([H])N([H])C(=O)C1([H])N(C(=O)C([H])(N([H])C(=O)C([H])(N([H])C([H])([H])[H])C([H])([H])[H])C(C([H])([H])[H])(C([H])([H])[H])C([H])([H])[H])C([H])([H])c2c([H])c(OC([H])([H])C([H])([H])C([H])([H])c3c([H])c(C([H])([H])C4([H])C(=O)N([H])C([H])([H])C4([H])[H])c([H])c([H])c3C([H])([H])N(C(=O)N3C([H])([H])C([H])([H])C([H])([H])C([H])(n4nc(-c5c([H])c([H])c(Oc6c([H])c([H])c(F)c([H])c6F)c([H])c5[H])c(C(=O)N([H])[H])c4N([H])[H])C3([H])[H])C([H])([H])[H])c([H])c([H])c2C1([H])[H]

$$$$
46:0:0
     RDKit          3D

 95103  0  0  1  0  0  0  0  0999 V2000
  -26.4340  -21.1780   19.6640 C   0  0  0  0  0  2  0  0  0  0  0  0
  -29.5460  -18.9000   19.9280 C   0  0  0  0  0  3  0  0  0  0  0  0
  -28.7260  -20.0440   19.8910 C   0  0  0  0  0  3  0  0  0  0  0  0
  -27.5850  -17.4860   19.9370 C   0  0  0  0  0  3  0  0  0  0  0  0
  -28.9890  -17.6050   19.8710 C   0  0  0  0  0  0  0  0  0  0  0  0
  -27.3120  -19.9290   19.8670 C   0  0  0  0  0  0  0  0  0  0  0  0
  -26.7450  -18.6220   19.9370 C   0  0  0  0  0  0  0  0  0  0  0  0
  -25.2420  -18.3900   19.9430 C   0  0  0  0  0  1  0  0  0  0  0  0
  -29.8520  -15.2720   20.3600 C   0  0  0  0  0  3  0  0  0  0  0  0
  -29.8530  -16.4220   19.6440 C   0  0  0  0  0  0  0  0  0  0  0  0
  -30.6970  -14.1320   19.9840 C   0  0  0  0  0  0  0  0  0  0  0  0
  -30.4240  -11.9020   19.0030 C   0  0  0  0  0  2  0  0  0  0  0  0
  -29.3970  -12.0100   17.8590 C   0  0  0  0  0  2  0  0  0  0  0  0
  -27.9560  -11.8540   18.3920 C   0  0  0  0  0  2  0  0  0  0  0  0
  -27.6690  -12.7480   19.6320 C   0  0  0  0  0  3  0  0  0  0  0  0
  -28.8010  -12.6090   20.6720 C   0  0  0  0  0  2  0  0  0  0  0  0
  -30.0770  -12.9220   20.0090 N   0  0  0  0  0  0  0  0  0  0  0  0
  -31.8250  -14.2810   19.5060 O   0  0  0  0  0  0  0  0  0  0  0  0
  -25.3280  -13.3290   20.5310 C   0  0  0  0  0  0  0  0  0  0  0  0
  -24.2980  -12.5450   20.9800 C   0  0  0  0  0  0  0  0  0  0  0  0
  -24.7680  -11.1990   20.8910 C   0  0  0  0  0  0  0  0  0  0  0  0
  -26.3600  -12.4590   20.2090 N   0  0  0  0  0  0  0  0  0  0  0  0
  -26.0300  -11.1730   20.4850 N   0  0  0  0  0  0  0  0  0  0  0  0
  -24.0690   -9.9290   21.1200 C   0  0  0  0  0  0  0  0  0  0  0  0
  -24.5100   -9.0090   22.0960 C   0  0  0  0  0  3  0  0  0  0  0  0
  -23.8070   -7.8030   22.3130 C   0  0  0  0  0  3  0  0  0  0  0  0
  -22.6540   -7.5070   21.5440 C   0  0  0  0  0  0  0  0  0  0  0  0
  -22.2340   -8.4190   20.5590 C   0  0  0  0  0  3  0  0  0  0  0  0
  -22.9380   -9.6150   20.3430 C   0  0  0  0  0  3  0  0  0  0  0  0
  -21.9270   -6.3460   21.6580 O   0  0  0  0  0  0  0  0  0  0  0  0
  -21.7710   -5.7100   22.8640 C   0  0  0  0  0  0  0  0  0  0  0  0
  -21.1840   -6.3570   23.9730 C   0  0  0  0  0  3  0  0  0  0  0  0
  -20.9720   -5.6440   25.1700 C   0  0  0  0  0  3  0  0  0  0  0  0
  -21.3460   -4.2890   25.2600 C   0  0  0  0  0  0  0  0  0  0  0  0
  -21.9350   -3.6470   24.1560 C   0  0  0  0  0  3  0  0  0  0  0  0
  -22.1390   -4.3540   22.9590 C   0  0  0  0  0  0  0  0  0  0  0  0
  -22.6800   -3.7230   21.8880 F   0  0  0  0  0  0  0  0  0  0  0  0
  -21.1400   -3.6030   26.4080 F   0  0  0  0  0  0  0  0  0  0  0  0
  -22.9230  -13.0100   21.3770 C   0  0  0  0  0  0  0  0  0  0  0  0
  -22.2790  -12.3030   22.2980 N   0  0  0  0  0  0  0  0  0  0  0  0
  -22.4320  -14.0380   20.9100 O   0  0  0  0  0  0  0  0  0  0  0  0
  -22.6900  -11.4780   22.7090 H   0  0  0  0  0  0  0  0  0  0  0  0
  -21.3700  -12.6090   22.6130 H   0  0  0  0  0  0  0  0  0  0  0  0
  -25.4620  -14.7040   20.3500 N   0  0  0  0  0  0  0  0  0  0  0  0
  -24.6750  -15.3300   20.4930 H   0  0  0  0  0  0  0  0  0  0  0  0
  -26.2490  -15.1560   19.9000 H   0  0  0  0  0  0  0  0  0  0  0  0
  -30.5850  -16.5660   18.5270 O   0  0  0  0  0  0  0  0  0  0  0  0
  -30.2540  -17.3340   18.0890 H   0  0  0  0  0  0  0  0  0  0  0  0
  -26.0300  -23.2270   20.9340 C   0  0  0  0  0  1  0  0  0  0  0  0
  -27.0310  -22.4650   20.1450 N   0  0  2  0  0  4  0  0  0  0  0  0
  -27.7730  -22.1920   20.7740 H   0  0  0  0  0  0  0  0  0  0  0  0
  -27.6320  -23.2750   19.0350 C   0  0  0  0  0  2  0  0  0  0  0  0
  -29.0050  -23.9480   19.3490 C   0  0  0  0  0  2  0  0  0  0  0  0
  -29.0280  -25.1670   20.3430 C   0  0  0  0  0  2  0  0  0  0  0  0
  -28.9450  -26.6130   20.3790 O   0  0  0  0  0  0  0  0  0  0  0  0
  -24.7340  -31.5760   23.2830 C   0  0  0  0  0  0  0  0  0  0  0  0
  -27.7210  -27.2690   20.3320 C   0  0  0  0  0  0  0  0  0  0  0  0
  -23.6800  -30.1770   21.5420 C   0  0  0  0  0  3  0  0  0  0  0  0
  -25.2660  -28.6800   20.2180 C   0  0  0  0  0  0  0  0  0  0  0  0
  -26.2000  -30.5910   21.5290 C   0  0  0  0  0  2  0  0  0  0  0  0
  -26.3670  -29.2300   20.8890 C   0  0  0  0  0  0  0  0  0  0  0  0
  -27.5940  -28.5310   20.9520 C   0  0  0  0  0  3  0  0  0  0  0  0
  -26.6040  -26.7350   19.6550 C   0  0  0  0  0  3  0  0  0  0  0  0
  -25.3770  -27.4170   19.6030 C   0  0  0  0  0  3  0  0  0  0  0  0
  -23.9990  -29.5070   20.1780 C   0  0  0  0  0  2  0  0  0  0  0  0
  -24.8870  -30.7910   22.1800 N   0  0  0  0  0  0  0  0  0  0  0  0
  -23.6120  -31.8180   23.7470 O   0  0  0  0  0  0  0  0  0  0  0  0
  -22.9890  -29.1310   22.4470 C   0  0  0  0  0  0  0  0  0  0  0  0
  -21.6680  -28.9500   22.2450 N   0  0  0  0  0  0  0  0  0  0  0  0
  -23.6380  -28.4880   23.2760 O   0  0  0  0  0  0  0  0  0  0  0  0
  -21.2040  -29.5460   21.5800 H   0  0  0  0  0  0  0  0  0  0  0  0
  -18.2910  -27.7180   22.5160 C   0  0  0  0  0  0  0  0  0  0  0  0
  -20.8280  -27.9760   22.9340 C   0  0  0  0  0  3  0  0  0  0  0  0
  -20.9680  -26.5770   22.2960 C   0  0  0  0  0  2  0  0  0  0  0  0
  -19.9190  -26.2910   21.2180 C   0  0  0  0  0  2  0  0  0  0  0  0
  -18.5080  -26.4020   21.7930 C   0  0  0  0  0  2  0  0  0  0  0  0
  -19.3830  -28.4610   23.0430 C   0  0  0  0  0  0  0  0  0  0  0  0
  -19.1260  -29.6980   23.6720 C   0  0  0  0  0  3  0  0  0  0  0  0
  -17.8140  -30.1940   23.7750 C   0  0  0  0  0  3  0  0  0  0  0  0
  -16.7390  -29.4470   23.2660 C   0  0  0  0  0  3  0  0  0  0  0  0
  -16.9790  -28.2130   22.6430 C   0  0  0  0  0  3  0  0  0  0  0  0
  -25.9580  -32.2230   24.0010 C   0  0  0  0  0  3  0  0  0  0  0  0
  -25.6140  -33.6250   24.2730 N   0  0  0  0  0  0  0  0  0  0  0  0
  -26.0010  -34.6630   23.5200 C   0  0  0  0  0  0  0  0  0  0  0  0
  -26.7560  -34.5430   22.5510 O   0  0  0  0  0  0  0  0  0  0  0  0
  -24.9400  -33.7880   25.0060 H   0  0  0  0  0  0  0  0  0  0  0  0
  -24.2850  -36.4230   22.9950 C   0  0  0  0  0  1  0  0  0  0  0  0
  -25.4670  -36.0550   23.9030 C   0  0  0  0  0  3  0  0  0  0  0  0
  -27.5260  -36.9860   24.8660 C   0  0  0  0  0  1  0  0  0  0  0  0
  -26.4960  -37.1140   23.8380 N   0  0  0  0  0  0  0  0  0  0  0  0
  -26.0750  -38.0340   23.9250 H   0  0  0  0  0  0  0  0  0  0  0  0
  -26.3690  -31.4730   25.3250 C   0  0  1  0  0  0  0  0  0  0  0  0
  -25.1880  -31.2380   26.2950 C   0  0  0  0  0  1  0  0  0  0  0  0
  -27.0020  -30.0980   24.9990 C   0  0  0  0  0  1  0  0  0  0  0  0
  -27.4460  -32.2920   26.0700 C   0  0  0  0  0  1  0  0  0  0  0  0
  1  6  1  0
  1 50  1  0
  3  2  1  0
  5  2  2  0
  5  4  1  0
  6  3  2  0
  6  7  1  0
  7  4  2  0
  7  8  1  0
 10  5  1  0
 10  9  2  0
 11 17  1  0
 11  9  1  0
 12 17  1  0
 13 14  1  0
 13 12  1  0
 15 14  1  0
 15 22  1  0
 15 16  1  0
 17 16  1  0
 18 11  2  0
 19 20  2  0
 20 39  1  0
 21 20  1  0
 21 24  1  0
 22 23  1  0
 22 19  1  0
 23 21  2  0
 24 25  1  0
 25 26  2  0
 27 30  1  0
 27 26  1  0
 28 27  2  0
 29 28  1  0
 29 24  2  0
 30 31  1  0
 31 36  2  0
 31 32  1  0
 32 33  2  0
 33 34  1  0
 34 38  1  0
 35 34  2  0
 36 35  1  0
 37 36  1  0
 39 40  1  0
 40 43  1  0
 40 42  1  0
 41 39  2  0
 44 45  1  0
 44 19  1  0
 46 44  1  0
 47 10  1  0
 48 47  1  0
 50 51  1  1
 50 49  1  0
 52 53  1  0
 52 50  1  0
 53 54  1  0
 54 55  1  0
 56 67  2  0
 57 55  1  0
 57 62  1  0
 58 66  1  0
 58 68  1  0
 59 61  1  0
 60 66  1  0
 61 62  2  0
 61 60  1  0
 63 57  2  0
 64 63  1  0
 64 59  2  0
 65 59  1  0
 65 58  1  0
 66 56  1  0
 68 70  2  0
 69 68  1  0
 71 69  1  0
 72 81  2  0
 72 77  1  0
 73 69  1  0
 73 77  1  0
 74 73  1  0
 75 76  1  0
 75 74  1  0
 76 72  1  0
 77 78  2  0
 78 79  1  0
 80 79  2  0
 81 80  1  0
 82 56  1  0
 82 83  1  0
 82 92  1  0
 83 86  1  0
 84 88  1  0
 84 83  1  0
 85 84  2  0
 88 87  1  0
 90 88  1  0
 90 91  1  0
 90 89  1  0
 92 95  1  1
 92 93  1  0
 94 92  1  0
M  ISO  4   9 100  11 100  54 101  55 101
M  END
>  <TORSDO>  (47) 
F 23

>  <SCORE>  (47) 
-10.239

>  <name>  (47) 
46

>  <ligand_id>  (47) 
46

>  <original_smiles>  (47) 
[H]OC(=C([H])C(=O)N1C([H])([H])C([H])([H])C([H])([H])C([H])(n2nc(-c3c([H])c([H])c(Oc4c([H])c([H])c(F)c([H])c4F)c([H])c3[H])c(C(=O)N([H])[H])c2N([H])[H])C1([H])[H])c1c([H])c([H])c(C([H])([H])[N+]([H])(C([H])([H])[H])C([H])([H])C([H])([H])C([H])([H])Oc2c([H])c([H])c3c(c2[H])C([H])([H])N(C(=O)C([H])(N([H])C(=O)C([H])(N([H])C([H])([H])[H])C([H])([H])[H])C(C([H])([H])[H])(C([H])([H])[H])C([H])([H])[H])C([H])(C(=O)N([H])C2([H])c4c([H])c([H])c([H])c([H])c4C([H])([H])C([H])([H])C2([H])[H])C3([H])[H])c(C([H])([H])[H])c1[H]

>  <smiles>  (47) 
[H]OC(=C([H])C(=O)N1C([H])([H])C([H])([H])C([H])([H])C([H])(n2nc(-c3c([H])c([H])c(Oc4c([H])c([H])c(F)c([H])c4F)c([H])c3[H])c(C(=O)N([H])[H])c2N([H])[H])C1([H])[H])c1c([H])c([H])c(C([H])([H])[N+]([H])(C([H])([H])[H])C([H])([H])C([H])([H])C([H])([H])Oc2c([H])c([H])c3c(c2[H])C([H])([H])N(C(=O)C([H])(N([H])C(=O)C([H])(N([H])C([H])([H])[H])C([H])([H])[H])C(C([H])([H])[H])(C([H])([H])[H])C([H])([H])[H])C([H])(C(=O)N([H])C2([H])c4c([H])c([H])c([H])c([H])c4C([H])([H])C([H])([H])C2([H])[H])C3([H])[H])c(C([H])([H])[H])c1[H]

$$$$
47:0:0
     RDKit          3D

 96 99  0  0  1  0  0  0  0  0999 V2000
  -22.1490  -24.4250   20.2430 C   0  0  0  0  0  1  0  0  0  0  0  0
  -21.0680  -26.0270   20.9260 C   0  0  0  0  0  2  0  0  0  0  0  0
  -23.8090  -26.6710   18.5990 C   0  0  0  0  0 15  0  0  0  0  0  0
  -23.7230  -24.6250   19.0960 C   0  0  0  0  0  1  0  0  0  0  0  0
  -22.4020  -28.1490   19.5630 C   0  0  0  0  0 15  0  0  0  0  0  0
  -25.9920  -20.4100   18.4520 C   0  0  0  0  0  3  0  0  0  0  0  0
  -27.5170  -21.5880   19.3080 C   0  0  0  0  0  3  0  0  0  0  0  0
  -25.0000  -21.6450   18.4980 C   0  0  0  0  0  3  0  0  0  0  0  0
  -26.5260  -22.8330   19.3620 C   0  0  0  0  0  3  0  0  0  0  0  0
  -27.4550  -20.1220   18.8310 C   0  0  0  0  0  3  0  0  0  0  0  0
  -25.0650  -23.1070   18.9650 C   0  0  0  0  0  3  0  0  0  0  0  0
  -28.5430  -18.4820   18.9440 C   0  0  0  0  0  1  0  0  0  0  0  0
  -29.8890  -17.5640   18.7860 C   0  0  0  0  0  2  0  0  0  0  0  0
  -31.0940  -16.1620   18.7840 C   0  0  0  0  0  0  0  0  0  0  0  0
  -31.8560  -13.5360   18.4070 C   0  0  0  0  0  2  0  0  0  0  0  0
  -30.9770  -12.7300   17.3960 C   0  0  0  0  0  2  0  0  0  0  0  0
  -29.6280  -12.3530   18.0310 C   0  0  0  0  0  2  0  0  0  0  0  0
  -29.1300  -13.5180   18.9110 C   0  0  0  0  0  3  0  0  0  0  0  0
  -30.1500  -14.0190   19.9160 C   0  0  0  0  0  2  0  0  0  0  0  0
  -31.0600  -14.7140   19.0550 N   0  0  0  0  0  0  0  0  0  0  0  0
  -32.3040  -16.2350   18.3930 O   0  0  0  0  0  0  0  0  0  0  0  0
  -27.1080  -14.2570   20.1630 C   0  0  0  0  0  0  0  0  0  0  0  0
  -26.0600  -13.5730   20.6920 C   0  0  0  0  0  0  0  0  0  0  0  0
  -26.3300  -12.1910   20.4480 C   0  0  0  0  0  0  0  0  0  0  0  0
  -27.9170  -13.2910   19.6100 N   0  0  0  0  0  0  0  0  0  0  0  0
  -27.5020  -12.0330   19.8570 N   0  0  0  0  0  0  0  0  0  0  0  0
  -25.5000  -11.0120   20.6640 C   0  0  0  0  0  0  0  0  0  0  0  0
  -25.8020  -10.0720   21.6720 C   0  0  0  0  0  3  0  0  0  0  0  0
  -24.9680   -8.9520   21.8650 C   0  0  0  0  0  3  0  0  0  0  0  0
  -23.8260   -8.7700   21.0490 C   0  0  0  0  0  0  0  0  0  0  0  0
  -23.5500   -9.6970   20.0290 C   0  0  0  0  0  3  0  0  0  0  0  0
  -24.3820  -10.8090   19.8340 C   0  0  0  0  0  3  0  0  0  0  0  0
  -22.9700   -7.7030   21.1510 O   0  0  0  0  0  0  0  0  0  0  0  0
  -22.4540   -7.3110   22.3590 C   0  0  0  0  0  0  0  0  0  0  0  0
  -21.8340   -8.2270   23.2380 C   0  0  0  0  0  3  0  0  0  0  0  0
  -21.2570   -7.7670   24.4370 C   0  0  0  0  0  3  0  0  0  0  0  0
  -21.2900   -6.3960   24.7550 C   0  0  0  0  0  0  0  0  0  0  0  0
  -21.9040   -5.4840   23.8780 C   0  0  0  0  0  3  0  0  0  0  0  0
  -22.4820   -5.9410   22.6820 C   0  0  0  0  0  0  0  0  0  0  0  0
  -23.0550   -5.0560   21.8310 F   0  0  0  0  0  0  0  0  0  0  0  0
  -20.7270   -5.9530   25.9030 F   0  0  0  0  0  0  0  0  0  0  0  0
  -24.8290  -14.1850   21.2770 C   0  0  0  0  0  0  0  0  0  0  0  0
  -24.2580  -13.5500   22.2920 N   0  0  0  0  0  0  0  0  0  0  0  0
  -24.3970  -15.2610   20.8640 O   0  0  0  0  0  0  0  0  0  0  0  0
  -24.6310  -12.6790   22.6390 H   0  0  0  0  0  0  0  0  0  0  0  0
  -23.4360  -13.9410   22.7310 H   0  0  0  0  0  0  0  0  0  0  0  0
  -27.4170  -15.6090   20.0690 N   0  0  0  0  0  0  0  0  0  0  0  0
  -26.7270  -16.3000   20.3440 H   0  0  0  0  0  0  0  0  0  0  0  0
  -28.0950  -15.9700   19.4110 H   0  0  0  0  0  0  0  0  0  0  0  0
  -22.7110  -29.9580   20.3750 C   0  0  0  0  0  3  0  0  0  0  0  0
  -22.9170  -30.3450   21.9500 N   0  0  0  0  0  0  0  0  0  0  0  0
  -22.7040  -30.8970   19.5800 O   0  0  0  0  0  0  0  0  0  0  0  0
  -22.8740  -31.3530   22.0630 H   0  0  0  0  0  0  0  0  0  0  0  0
  -23.6310  -29.5990   23.5540 C   0  0  0  0  0  1  0  0  0  0  0  0
  -25.3760  -28.5710   24.0650 C   0  0  0  0  0  1  0  0  0  0  0  0
  -26.6370  -27.2780   23.7580 O   0  0  0  0  0  0  0  0  0  0  0  0
  -25.1210  -31.4170   22.7070 C   0  0  0  0  0  0  0  0  0  0  0  0
  -27.7200  -27.0350   22.8320 C   0  0  0  0  0  3  0  0  0  0  0  0
  -24.8480  -29.1960   21.1290 C   0  0  0  0  0  3  0  0  0  0  0  0
  -26.8580  -28.0610   20.6040 C   0  0  0  0  0  3  0  0  0  0  0  0
  -27.0650  -30.2490   21.8370 C   0  0  0  0  0  2  0  0  0  0  0  0
  -27.5070  -28.8410   21.5830 C   0  0  0  0  0  3  0  0  0  0  0  0
  -28.3100  -28.2300   22.5350 C   0  0  0  0  0  2  0  0  0  0  0  0
  -27.5650  -26.1050   21.7500 C   0  0  0  0  0  2  0  0  0  0  0  0
  -27.0520  -26.6630   20.5620 C   0  0  0  0  0  2  0  0  0  0  0  0
  -25.6860  -28.7070   19.9670 C   0  0  0  0  0  2  0  0  0  0  0  0
  -25.6080  -30.3270   21.9550 N   0  0  0  0  0  0  0  0  0  0  0  0
  -23.9670  -31.8400   22.5330 O   0  0  0  0  0  0  0  0  0  0  0  0
  -24.2340  -27.6690   21.7560 C   0  0  0  0  0  0  0  0  0  0  0  0
  -23.3150  -27.3270   22.8190 N   0  0  1  0  0  4  0  0  0  0  0  0
  -24.8420  -26.7040   21.8580 O   0  0  0  0  0  0  0  0  0  0  0  0
  -23.4140  -28.2880   23.1470 H   0  0  0  0  0  0  0  0  0  0  0  0
  -19.1770  -28.2920   22.3990 C   0  0  0  0  0  0  0  0  0  0  0  0
  -21.8900  -27.3080   23.5380 C   0  0  0  0  0  3  0  0  0  0  0  0
  -22.0940  -25.9240   22.5390 C   0  0  0  0  0  3  0  0  0  0  0  0
  -20.1580  -25.9120   20.6760 C   0  0  0  0  0  2  0  0  0  0  0  0
  -18.9690  -27.2250   21.0910 C   0  0  0  0  0  2  0  0  0  0  0  0
  -20.3450  -28.3840   23.4080 C   0  0  0  0  0  0  0  0  0  0  0  0
  -20.2940  -29.6690   24.0980 C   0  0  0  0  0  3  0  0  0  0  0  0
  -19.2720  -30.6600   23.9860 C   0  0  0  0  0  3  0  0  0  0  0  0
  -18.1200  -30.4010   23.2390 C   0  0  0  0  0  3  0  0  0  0  0  0
  -18.0910  -29.2250   22.4710 C   0  0  0  0  0  3  0  0  0  0  0  0
  -25.9150  -32.1510   23.8940 C   0  0  0  0  0  3  0  0  0  0  0  0
  -25.2440  -33.4480   24.0520 N   0  0  0  0  0  0  0  0  0  0  0  0
  -25.5890  -34.5610   23.4020 C   0  0  0  0  0  0  0  0  0  0  0  0
  -26.5380  -34.6000   22.6150 O   0  0  0  0  0  0  0  0  0  0  0  0
  -24.4150  -33.4660   24.6270 H   0  0  0  0  0  0  0  0  0  0  0  0
  -23.6730  -35.9460   22.5590 C   0  0  0  0  0  1  0  0  0  0  0  0
  -24.7450  -35.8220   23.6550 C   0  0  0  0  0  3  0  0  0  0  0  0
  -26.3990  -37.1440   24.8960 C   0  0  0  0  0  1  0  0  0  0  0  0
  -25.5490  -37.0610   23.7100 N   0  0  0  0  0  0  0  0  0  0  0  0
  -24.9500  -37.8820   23.6920 H   0  0  0  0  0  0  0  0  0  0  0  0
  -26.0600  -31.5080   25.3790 C   0  0  1  0  0  0  0  0  0  0  0  0
  -24.7590  -30.9050   25.9770 C   0  0  0  0  0  1  0  0  0  0  0  0
  -27.2490  -30.5160   25.5610 C   0  0  0  0  0  1  0  0  0  0  0  0
  -26.4820  -32.6210   26.3760 C   0  0  0  0  0  1  0  0  0  0  0  0
  4  1  1  0
  6  8  2  0
  6 10  1  0
  7  9  1  0
  8 11  1  0
 10  7  2  0
 11  9  2  0
 13 12  1  0
 14 13  1  0
 14 20  1  0
 15 20  1  0
 16 17  1  0
 16 15  1  0
 18 17  1  0
 18 25  1  0
 18 19  1  0
 20 19  1  0
 21 14  2  0
 22 23  2  0
 23 42  1  0
 24 27  1  0
 24 23  1  0
 25 26  1  0
 25 22  1  0
 26 24  2  0
 27 28  1  0
 28 29  2  0
 30 33  1  0
 30 29  1  0
 31 30  2  0
 32 31  1  0
 32 27  2  0
 33 34  1  0
 34 39  2  0
 34 35  1  0
 35 36  2  0
 36 37  1  0
 37 41  1  0
 38 37  2  0
 39 38  1  0
 40 39  1  0
 42 43  1  0
 43 45  1  0
 43 46  1  0
 44 42  2  0
 47 22  1  0
 47 48  1  0
 49 47  1  0
 50 51  1  0
 51 53  1  0
 51 54  1  0
 52 50  2  0
 56 55  1  0
 58 56  1  0
 59 69  1  0
 59 67  1  0
 60 66  1  0
 60 62  1  0
 61 67  1  0
 62 61  1  0
 62 63  1  0
 63 58  1  0
 64 58  1  0
 65 60  1  0
 65 64  1  0
 66 59  1  0
 67 57  1  0
 68 57  2  0
 69 71  2  0
 69 70  1  0
 70 72  1  1
 70 74  1  0
 73 82  2  0
 73 78  1  0
 74 78  1  0
 75  2  1  0
 75 70  1  0
 75 74  1  0
 76  2  1  0
 76 77  1  0
 77 73  1  0
 78 79  2  0
 80 79  1  0
 81 80  2  0
 82 81  1  0
 83 57  1  0
 83 84  1  0
 83 93  1  0
 84 87  1  0
 85 89  1  0
 85 84  1  0
 86 85  2  0
 89 88  1  0
 89 91  1  0
 91 90  1  0
 92 91  1  0
 93 95  1  6
 93 94  1  0
 93 96  1  0
M  ISO  4  13 100  14 100  55 101  56 101
M  END
>  <TORSDO>  (48) 
F 21

>  <SCORE>  (48) 
-8.596

>  <name>  (48) 
47

>  <ligand_id>  (48) 
47

>  <original_smiles>  (48) 
[H]C(C(=O)N1C([H])([H])C([H])([H])C([H])([H])C([H])(n2nc(-c3c([H])c([H])c(Oc4c([H])c([H])c(F)c([H])c4F)c([H])c3[H])c(C(=O)N([H])[H])c2N([H])[H])C1([H])[H])=C([H])c1c([H])c([H])c(C2([H])C([H])([H])C([H])([H])C([H])(C(=O)N([H])C([H])([H])C([H])([H])Oc3c([H])c([H])c4c(c3[H])C([H])([H])N(C(=O)C([H])(N([H])C(=O)C([H])(N([H])C([H])([H])[H])C([H])([H])[H])C(C([H])([H])[H])(C([H])([H])[H])C([H])([H])[H])C([H])(C(=O)N([H])C3([H])c5c([H])c([H])c([H])c([H])c5C([H])([H])C([H])([H])C3([H])[H])C4([H])[H])C2([H])[H])c([H])c1[H]

>  <smiles>  (48) 
[H]C(C(=O)N1C([H])([H])C([H])([H])C([H])([H])C([H])(n2nc(-c3c([H])c([H])c(Oc4c([H])c([H])c(F)c([H])c4F)c([H])c3[H])c(C(=O)N([H])[H])c2N([H])[H])C1([H])[H])=C([H])c1c([H])c([H])c(C2([H])C([H])([H])C([H])([H])C([H])(C(=O)N([H])C([H])([H])C([H])([H])Oc3c([H])c([H])c4c(c3[H])C([H])([H])N(C(=O)C([H])(N([H])C(=O)C([H])(N([H])C([H])([H])[H])C([H])([H])[H])C(C([H])([H])[H])(C([H])([H])[H])C([H])([H])[H])C([H])(C(=O)N([H])C3([H])c5c([H])c([H])c([H])c([H])c5C([H])([H])C([H])([H])C3([H])[H])C4([H])[H])C2([H])[H])c([H])c1[H]

$$$$
48:0:0
     RDKit          3D

 96104  0  0  1  0  0  0  0  0999 V2000
  -30.2210  -22.6290   22.0550 C   0  0  0  0  0  2  0  0  0  0  0  0
  -29.4510  -19.3950   20.0770 C   0  0  0  0  0  3  0  0  0  0  0  0
  -29.4490  -20.7410   20.5050 C   0  0  0  0  0  3  0  0  0  0  0  0
  -30.6040  -18.7440   22.0900 C   0  0  0  0  0  3  0  0  0  0  0  0
  -30.0890  -18.3700   20.8280 C   0  0  0  0  0  0  0  0  0  0  0  0
  -30.0420  -21.1260   21.7250 C   0  0  0  0  0  0  0  0  0  0  0  0
  -30.5850  -20.0900   22.5420 C   0  0  0  0  0  0  0  0  0  0  0  0
  -31.2280  -20.3820   23.8890 C   0  0  0  0  0  1  0  0  0  0  0  0
  -30.6200  -15.8470   20.9040 C   0  0  0  0  0  3  0  0  0  0  0  0
  -30.3350  -17.0080   20.2350 C   0  0  0  0  0  0  0  0  0  0  0  0
  -31.1690  -14.6780   20.1950 C   0  0  0  0  0  0  0  0  0  0  0  0
  -30.6750  -12.6310   18.9210 C   0  0  0  0  0  2  0  0  0  0  0  0
  -29.7080  -12.9880   17.7750 C   0  0  0  0  0  2  0  0  0  0  0  0
  -28.2550  -12.8460   18.2610 C   0  0  0  0  0  2  0  0  0  0  0  0
  -27.9980  -13.5880   19.6000 C   0  0  0  0  0  3  0  0  0  0  0  0
  -29.0950  -13.2860   20.6460 C   0  0  0  0  0  2  0  0  0  0  0  0
  -30.4020  -13.5590   20.0350 N   0  0  0  0  0  0  0  0  0  0  0  0
  -32.2860  -14.7520   19.6780 O   0  0  0  0  0  0  0  0  0  0  0  0
  -25.6350  -14.1850   20.4160 C   0  0  0  0  0  0  0  0  0  0  0  0
  -24.5750  -13.4080   20.8040 C   0  0  0  0  0  0  0  0  0  0  0  0
  -25.0250  -12.0560   20.7210 C   0  0  0  0  0  0  0  0  0  0  0  0
  -26.6640  -13.3040   20.1220 N   0  0  0  0  0  0  0  0  0  0  0  0
  -26.3040  -12.0160   20.3660 N   0  0  0  0  0  0  0  0  0  0  0  0
  -24.2960  -10.7940   20.9030 C   0  0  0  0  0  0  0  0  0  0  0  0
  -24.6830   -9.8500   21.8790 C   0  0  0  0  0  3  0  0  0  0  0  0
  -23.9550   -8.6520   22.0480 C   0  0  0  0  0  3  0  0  0  0  0  0
  -22.8240   -8.3900   21.2390 C   0  0  0  0  0  0  0  0  0  0  0  0
  -22.4570   -9.3220   20.2520 C   0  0  0  0  0  3  0  0  0  0  0  0
  -23.1870  -10.5110   20.0830 C   0  0  0  0  0  3  0  0  0  0  0  0
  -22.0730   -7.2430   21.3130 O   0  0  0  0  0  0  0  0  0  0  0  0
  -21.8580   -6.5980   22.5040 C   0  0  0  0  0  0  0  0  0  0  0  0
  -21.2340   -7.2400   23.5960 C   0  0  0  0  0  3  0  0  0  0  0  0
  -20.9700   -6.5180   24.7780 C   0  0  0  0  0  3  0  0  0  0  0  0
  -21.3210   -5.1570   24.8680 C   0  0  0  0  0  0  0  0  0  0  0  0
  -21.9360   -4.5180   23.7790 C   0  0  0  0  0  3  0  0  0  0  0  0
  -22.2020   -5.2350   22.5990 C   0  0  0  0  0  0  0  0  0  0  0  0
  -22.7760   -4.6060   21.5450 F   0  0  0  0  0  0  0  0  0  0  0  0
  -21.0630   -4.4630   26.0010 F   0  0  0  0  0  0  0  0  0  0  0  0
  -23.1920  -13.8880   21.1410 C   0  0  0  0  0  0  0  0  0  0  0  0
  -22.5020  -13.1950   22.0380 N   0  0  0  0  0  0  0  0  0  0  0  0
  -22.7330  -14.9140   20.6400 O   0  0  0  0  0  0  0  0  0  0  0  0
  -22.8850  -12.3660   22.4690 H   0  0  0  0  0  0  0  0  0  0  0  0
  -21.5750  -13.5020   22.3010 H   0  0  0  0  0  0  0  0  0  0  0  0
  -25.8060  -15.5570   20.2690 N   0  0  0  0  0  0  0  0  0  0  0  0
  -25.0550  -16.2210   20.4300 H   0  0  0  0  0  0  0  0  0  0  0  0
  -26.6620  -15.9970   19.9540 H   0  0  0  0  0  0  0  0  0  0  0  0
  -30.3330  -17.0270   18.8910 O   0  0  0  0  0  0  0  0  0  0  0  0
  -30.1560  -17.9190   18.6210 H   0  0  0  0  0  0  0  0  0  0  0  0
  -29.2760  -23.6780   21.3790 C   0  0  0  0  0  2  0  0  0  0  0  0
  -29.7610  -25.1590   21.5610 C   0  0  0  0  0  3  0  0  0  0  0  0
  -30.9270  -25.4780   20.7070 N   0  0  0  0  0  4  0  0  0  0  0  0
  -30.6850  -25.4220   19.7330 H   0  0  0  0  0  0  0  0  0  0  0  0
  -31.7020  -24.8640   20.8850 H   0  0  0  0  0  0  0  0  0  0  0  0
  -31.2420  -26.4190   20.8820 H   0  0  0  0  0  0  0  0  0  0  0  0
  -28.6860  -26.2760   21.4110 C   0  0  0  0  0  2  0  0  0  0  0  0
  -28.3040  -26.5840   20.0570 O   0  0  0  0  0  0  0  0  0  0  0  0
  -24.5090  -31.7430   23.1380 C   0  0  0  0  0  0  0  0  0  0  0  0
  -27.1780  -27.3770   20.0020 C   0  0  0  0  0  0  0  0  0  0  0  0
  -23.3010  -30.3470   21.4870 C   0  0  0  0  0  3  0  0  0  0  0  0
  -24.7640  -28.8500   20.0210 C   0  0  0  0  0  0  0  0  0  0  0  0
  -25.8170  -30.7480   21.2650 C   0  0  0  0  0  2  0  0  0  0  0  0
  -25.9150  -29.3850   20.6110 C   0  0  0  0  0  0  0  0  0  0  0  0
  -27.1250  -28.6570   20.6040 C   0  0  0  0  0  3  0  0  0  0  0  0
  -26.0210  -26.8640   19.3790 C   0  0  0  0  0  3  0  0  0  0  0  0
  -24.8120  -27.5900   19.3970 C   0  0  0  0  0  3  0  0  0  0  0  0
  -23.5050  -29.6860   20.0950 C   0  0  0  0  0  2  0  0  0  0  0  0
  -24.5600  -30.9600   22.0220 N   0  0  0  0  0  0  0  0  0  0  0  0
  -23.4310  -31.9920   23.6950 O   0  0  0  0  0  0  0  0  0  0  0  0
  -22.6730  -29.3060   22.4410 C   0  0  0  0  0  0  0  0  0  0  0  0
  -21.3560  -29.0830   22.3030 N   0  0  0  0  0  0  0  0  0  0  0  0
  -23.3700  -28.7000   23.2610 O   0  0  0  0  0  0  0  0  0  0  0  0
  -20.8540  -29.6280   21.6160 H   0  0  0  0  0  0  0  0  0  0  0  0
  -18.0200  -27.7730   22.7520 C   0  0  0  0  0  0  0  0  0  0  0  0
  -20.5620  -28.1210   23.0670 C   0  0  0  0  0  3  0  0  0  0  0  0
  -20.7240  -26.6920   22.4980 C   0  0  0  0  0  2  0  0  0  0  0  0
  -19.6520  -26.3280   21.4660 C   0  0  0  0  0  2  0  0  0  0  0  0
  -18.2560  -26.4270   22.0850 C   0  0  0  0  0  2  0  0  0  0  0  0
  -19.1040  -28.5740   23.1980 C   0  0  0  0  0  0  0  0  0  0  0  0
  -18.8320  -29.8320   23.7790 C   0  0  0  0  0  3  0  0  0  0  0  0
  -17.5070  -30.2890   23.9190 C   0  0  0  0  0  3  0  0  0  0  0  0
  -16.4380  -29.4840   23.4910 C   0  0  0  0  0  3  0  0  0  0  0  0
  -16.6950  -28.2280   22.9130 C   0  0  0  0  0  3  0  0  0  0  0  0
  -25.7950  -32.3780   23.7520 C   0  0  0  0  0  3  0  0  0  0  0  0
  -25.4780  -33.7690   24.1030 N   0  0  0  0  0  0  0  0  0  0  0  0
  -25.8100  -34.8350   23.3620 C   0  0  0  0  0  0  0  0  0  0  0  0
  -26.4880  -34.7520   22.3340 O   0  0  0  0  0  0  0  0  0  0  0  0
  -24.8750  -33.9070   24.9020 H   0  0  0  0  0  0  0  0  0  0  0  0
  -24.0730  -36.6210   23.0230 C   0  0  0  0  0  1  0  0  0  0  0  0
  -25.3100  -36.2120   23.8380 C   0  0  0  0  0  3  0  0  0  0  0  0
  -27.4310  -37.0960   24.7030 C   0  0  0  0  0  1  0  0  0  0  0  0
  -26.3360  -37.2740   23.7520 N   0  0  0  0  0  0  0  0  0  0  0  0
  -25.9220  -38.1880   23.9110 H   0  0  0  0  0  0  0  0  0  0  0  0
  -26.3400  -31.5960   25.0090 C   0  0  1  0  0  0  0  0  0  0  0  0
  -25.2650  -31.3290   26.0880 C   0  0  0  0  0  1  0  0  0  0  0  0
  -26.9350  -30.2330   24.5870 C   0  0  0  0  0  1  0  0  0  0  0  0
  -27.4910  -32.3950   25.6660 C   0  0  0  0  0  1  0  0  0  0  0  0
  2  3  2  0
  2  5  1  0
  3  6  1  0
  4  7  1  0
  5  4  2  0
  6  1  1  0
  6  7  2  0
  7  8  1  0
 10  5  1  0
 10  9  2  0
 11  9  1  0
 12 17  1  0
 13 14  1  0
 13 12  1  0
 15 14  1  0
 15 22  1  0
 15 16  1  0
 17 11  1  0
 17 16  1  0
 18 11  2  0
 19 20  2  0
 20 39  1  0
 21 20  1  0
 21 24  1  0
 22 23  1  0
 22 19  1  0
 23 21  2  0
 24 25  1  0
 25 26  2  0
 27 30  1  0
 27 26  1  0
 28 27  2  0
 29 28  1  0
 29 24  2  0
 30 31  1  0
 31 36  2  0
 31 32  1  0
 32 33  2  0
 33 34  1  0
 34 38  1  0
 35 34  2  0
 36 35  1  0
 37 36  1  0
 39 40  1  0
 40 43  1  0
 40 42  1  0
 41 39  2  0
 44 19  1  0
 44 45  1  0
 46 44  1  0
 47 10  1  0
 48 47  1  0
 49  1  1  0
 50 49  1  0
 51 54  1  0
 51 53  1  0
 51 50  1  0
 52 51  1  0
 55 50  1  0
 56 55  1  0
 57 68  2  0
 58 56  1  0
 58 63  1  0
 59 67  1  0
 59 69  1  0
 60 66  1  0
 60 62  1  0
 61 67  1  0
 62 61  1  0
 63 62  2  0
 64 65  1  0
 64 58  2  0
 65 60  2  0
 66 59  1  0
 67 57  1  0
 69 71  2  0
 70 69  1  0
 72 70  1  0
 73 82  2  0
 73 78  1  0
 74 70  1  0
 74 78  1  0
 75 74  1  0
 76 77  1  0
 76 75  1  0
 77 73  1  0
 78 79  2  0
 79 80  1  0
 81 80  2  0
 82 81  1  0
 83 57  1  0
 83 84  1  0
 83 93  1  0
 84 87  1  0
 85 89  1  0
 85 84  1  0
 86 85  2  0
 89 88  1  0
 91 89  1  0
 91 92  1  0
 91 90  1  0
 93 96  1  1
 93 94  1  0
 95 93  1  0
M  ISO  4   9 100  11 100  55 101  56 101
M  END
>  <TORSDO>  (49) 
F 23

>  <SCORE>  (49) 
-12.757

>  <name>  (49) 
48

>  <ligand_id>  (49) 
48

>  <original_smiles>  (49) 
[H]OC(=C([H])C(=O)N1C([H])([H])C([H])([H])C([H])([H])C([H])(n2nc(-c3c([H])c([H])c(Oc4c([H])c([H])c(F)c([H])c4F)c([H])c3[H])c(C(=O)N([H])[H])c2N([H])[H])C1([H])[H])c1c([H])c([H])c(C([H])([H])C([H])([H])C([H])(C([H])([H])Oc2c([H])c([H])c3c(c2[H])C([H])([H])N(C(=O)C([H])(N([H])C(=O)C([H])(N([H])C([H])([H])[H])C([H])([H])[H])C(C([H])([H])[H])(C([H])([H])[H])C([H])([H])[H])C([H])(C(=O)N([H])C2([H])c4c([H])c([H])c([H])c([H])c4C([H])([H])C([H])([H])C2([H])[H])C3([H])[H])[N+]([H])([H])[H])c(C([H])([H])[H])c1[H]

>  <smiles>  (49) 
[H]OC(=C([H])C(=O)N1C([H])([H])C([H])([H])C([H])([H])C([H])(n2nc(-c3c([H])c([H])c(Oc4c([H])c([H])c(F)c([H])c4F)c([H])c3[H])c(C(=O)N([H])[H])c2N([H])[H])C1([H])[H])c1c([H])c([H])c(C([H])([H])C([H])([H])C([H])(C([H])([H])Oc2c([H])c([H])c3c(c2[H])C([H])([H])N(C(=O)C([H])(N([H])C(=O)C([H])(N([H])C([H])([H])[H])C([H])([H])[H])C(C([H])([H])[H])(C([H])([H])[H])C([H])([H])[H])C([H])(C(=O)N([H])C2([H])c4c([H])c([H])c([H])c([H])c4C([H])([H])C([H])([H])C2([H])[H])C3([H])[H])[N+]([H])([H])[H])c(C([H])([H])[H])c1[H]

$$$$
49:0:0
     RDKit          3D

 89 97  0  0  1  0  0  0  0  0999 V2000
  -28.4660  -19.9880   21.1500 C   0  0  0  0  0  3  0  0  0  0  0  0
  -27.6430  -21.0530   21.5550 C   0  0  0  0  0  3  0  0  0  0  0  0
  -29.6660  -21.5470   19.7210 C   0  0  0  0  0  3  0  0  0  0  0  0
  -29.4820  -20.1950   20.2020 C   0  0  0  0  0  0  0  0  0  0  0  0
  -27.7880  -22.3600   21.0340 C   0  0  0  0  0  0  0  0  0  0  0  0
  -28.8420  -22.6690   20.1240 C   0  0  0  0  0  0  0  0  0  0  0  0
  -26.7300  -23.3680   21.4480 C   0  0  0  0  0  1  0  0  0  0  0  0
  -30.2560  -18.9460   19.6390 C   0  0  0  0  0  2  0  0  0  0  0  0
  -30.7130  -17.7260   20.5780 C   0  0  0  0  0  2  0  0  0  0  0  0
  -30.0470  -16.2740   20.4300 C   0  0  0  0  0  2  0  0  0  0  0  0
  -30.9220  -14.9580   20.2130 C   0  0  0  0  0  0  0  0  0  0  0  0
  -30.7300  -12.6890   19.2090 C   0  0  0  0  0  2  0  0  0  0  0  0
  -29.7770  -12.8010   17.9960 C   0  0  0  0  0  2  0  0  0  0  0  0
  -28.3050  -12.6450   18.4320 C   0  0  0  0  0  2  0  0  0  0  0  0
  -27.9530  -13.5270   19.6590 C   0  0  0  0  0  3  0  0  0  0  0  0
  -29.0190  -13.3920   20.7680 C   0  0  0  0  0  2  0  0  0  0  0  0
  -30.3270  -13.7220   20.1840 N   0  0  0  0  0  0  0  0  0  0  0  0
  -32.1010  -15.0820   19.8660 O   0  0  0  0  0  0  0  0  0  0  0  0
  -25.5830  -14.1500   20.4280 C   0  0  0  0  0  0  0  0  0  0  0  0
  -24.5080  -13.3870   20.7970 C   0  0  0  0  0  0  0  0  0  0  0  0
  -24.9480  -12.0290   20.7340 C   0  0  0  0  0  0  0  0  0  0  0  0
  -26.6090  -13.2570   20.1600 N   0  0  0  0  0  0  0  0  0  0  0  0
  -26.2340  -11.9760   20.4060 N   0  0  0  0  0  0  0  0  0  0  0  0
  -24.2050  -10.7750   20.9080 C   0  0  0  0  0  0  0  0  0  0  0  0
  -24.6150   -9.7970   21.8410 C   0  0  0  0  0  3  0  0  0  0  0  0
  -23.8730   -8.6070   22.0030 C   0  0  0  0  0  3  0  0  0  0  0  0
  -22.7060   -8.3880   21.2330 C   0  0  0  0  0  0  0  0  0  0  0  0
  -22.3150   -9.3540   20.2890 C   0  0  0  0  0  3  0  0  0  0  0  0
  -23.0590  -10.5360   20.1250 C   0  0  0  0  0  3  0  0  0  0  0  0
  -21.9380   -7.2500   21.3040 O   0  0  0  0  0  0  0  0  0  0  0  0
  -21.8430   -6.5170   22.4600 C   0  0  0  0  0  0  0  0  0  0  0  0
  -21.3670   -7.0810   23.6630 C   0  0  0  0  0  3  0  0  0  0  0  0
  -21.2210   -6.2740   24.8090 C   0  0  0  0  0  3  0  0  0  0  0  0
  -21.5410   -4.9040   24.7520 C   0  0  0  0  0  0  0  0  0  0  0  0
  -22.0090   -4.3400   23.5530 C   0  0  0  0  0  3  0  0  0  0  0  0
  -22.1580   -5.1440   22.4090 C   0  0  0  0  0  0  0  0  0  0  0  0
  -22.5900   -4.5910   21.2500 F   0  0  0  0  0  0  0  0  0  0  0  0
  -21.3930   -4.1270   25.8500 F   0  0  0  0  0  0  0  0  0  0  0  0
  -23.1220  -13.8810   21.0970 C   0  0  0  0  0  0  0  0  0  0  0  0
  -22.3970  -13.1840   21.9650 N   0  0  0  0  0  0  0  0  0  0  0  0
  -22.6910  -14.9210   20.5990 O   0  0  0  0  0  0  0  0  0  0  0  0
  -22.7580  -12.3430   22.3900 H   0  0  0  0  0  0  0  0  0  0  0  0
  -21.4690  -13.4980   22.2100 H   0  0  0  0  0  0  0  0  0  0  0  0
  -25.7690  -15.5200   20.2770 N   0  0  0  0  0  0  0  0  0  0  0  0
  -25.0210  -16.1910   20.4200 H   0  0  0  0  0  0  0  0  0  0  0  0
  -26.6300  -15.9500   19.9640 H   0  0  0  0  0  0  0  0  0  0  0  0
  -29.0200  -24.1140   19.4730 C   0  0  0  0  0  3  0  0  0  0  0  0
  -28.8010  -25.4730   20.3020 C   0  0  0  0  0  3  0  0  0  0  0  0
  -28.7870  -26.7960   19.6320 O   0  0  0  0  0  0  0  0  0  0  0  0
  -24.6830  -31.6990   23.0020 C   0  0  0  0  0  0  0  0  0  0  0  0
  -27.6040  -27.5430   19.6830 C   0  0  0  0  0  0  0  0  0  0  0  0
  -23.5720  -30.3120   21.2870 C   0  0  0  0  0  3  0  0  0  0  0  0
  -25.1230  -28.9520   19.7720 C   0  0  0  0  0  0  0  0  0  0  0  0
  -26.0760  -30.8330   21.1100 C   0  0  0  0  0  2  0  0  0  0  0  0
  -26.2550  -29.5020   20.3880 C   0  0  0  0  0  0  0  0  0  0  0  0
  -27.5010  -28.8120   20.3290 C   0  0  0  0  0  3  0  0  0  0  0  0
  -26.4490  -27.0340   19.0560 C   0  0  0  0  0  3  0  0  0  0  0  0
  -25.2200  -27.7230   19.0980 C   0  0  0  0  0  3  0  0  0  0  0  0
  -23.8240  -29.7290   19.8720 C   0  0  0  0  0  2  0  0  0  0  0  0
  -24.7950  -30.9630   21.8580 N   0  0  0  0  0  0  0  0  0  0  0  0
  -23.5870  -31.8640   23.5570 O   0  0  0  0  0  0  0  0  0  0  0  0
  -22.9930  -29.1970   22.1910 C   0  0  0  0  0  0  0  0  0  0  0  0
  -21.6750  -28.9550   22.0830 N   0  0  0  0  0  0  0  0  0  0  0  0
  -23.7270  -28.5570   22.9470 O   0  0  0  0  0  0  0  0  0  0  0  0
  -21.1380  -29.5320   21.4500 H   0  0  0  0  0  0  0  0  0  0  0  0
  -18.3760  -27.5710   22.6100 C   0  0  0  0  0  0  0  0  0  0  0  0
  -20.9300  -27.9210   22.8020 C   0  0  0  0  0  3  0  0  0  0  0  0
  -21.0680  -26.5480   22.1070 C   0  0  0  0  0  2  0  0  0  0  0  0
  -19.9380  -26.2560   21.1150 C   0  0  0  0  0  2  0  0  0  0  0  0
  -18.5800  -26.2880   21.8210 C   0  0  0  0  0  2  0  0  0  0  0  0
  -19.4790  -28.3440   23.0580 C   0  0  0  0  0  0  0  0  0  0  0  0
  -19.2330  -29.5440   23.7600 C   0  0  0  0  0  3  0  0  0  0  0  0
  -17.9160  -29.9720   24.0180 C   0  0  0  0  0  3  0  0  0  0  0  0
  -16.8280  -29.1940   23.5830 C   0  0  0  0  0  3  0  0  0  0  0  0
  -17.0590  -27.9950   22.8860 C   0  0  0  0  0  3  0  0  0  0  0  0
  -25.9220  -32.3860   23.6570 C   0  0  0  0  0  3  0  0  0  0  0  0
  -25.5180  -33.7400   24.0600 N   0  0  0  0  0  0  0  0  0  0  0  0
  -25.7870  -34.8540   23.3670 C   0  0  0  0  0  0  0  0  0  0  0  0
  -26.4730  -34.8530   22.3400 O   0  0  0  0  0  0  0  0  0  0  0  0
  -24.9070  -33.8090   24.8600 H   0  0  0  0  0  0  0  0  0  0  0  0
  -23.9530  -36.5530   23.0840 C   0  0  0  0  0  1  0  0  0  0  0  0
  -25.2050  -36.1800   23.8930 C   0  0  0  0  0  3  0  0  0  0  0  0
  -27.2650  -37.1500   24.8140 C   0  0  0  0  0  1  0  0  0  0  0  0
  -26.1700  -37.3020   23.8590 N   0  0  0  0  0  0  0  0  0  0  0  0
  -25.7030  -38.1840   24.0490 H   0  0  0  0  0  0  0  0  0  0  0  0
  -26.4950  -31.5880   24.8910 C   0  0  1  0  0  0  0  0  0  0  0  0
  -25.4270  -31.2250   25.9490 C   0  0  0  0  0  1  0  0  0  0  0  0
  -27.1640  -30.2720   24.4280 C   0  0  0  0  0  1  0  0  0  0  0  0
  -27.5940  -32.4210   25.5900 C   0  0  0  0  0  1  0  0  0  0  0  0
  1  2  1  0
  3  6  2  0
  3  4  1  0
  4  1  2  0
  5  7  1  0
  5  2  2  0
  6  5  1  0
  8  4  1  0
  8  9  1  0
 10  9  1  0
 11 10  1  0
 12 17  1  0
 13 14  1  0
 13 12  1  0
 15 14  1  0
 15 22  1  0
 15 16  1  0
 17 11  1  0
 17 16  1  0
 18 11  2  0
 19 20  2  0
 20 39  1  0
 21 20  1  0
 21 24  1  0
 22 23  1  0
 22 19  1  0
 23 21  2  0
 24 25  1  0
 25 26  2  0
 27 30  1  0
 27 26  1  0
 28 27  2  0
 29 28  1  0
 29 24  2  0
 30 31  1  0
 31 32  1  0
 32 33  2  0
 34 33  1  0
 34 38  1  0
 35 34  2  0
 36 31  2  0
 36 35  1  0
 37 36  1  0
 39 40  1  0
 40 43  1  0
 40 42  1  0
 41 39  2  0
 44 45  1  0
 44 19  1  0
 46 44  1  0
 47  6  1  0
 47 48  2  0
 49 51  1  0
 49 48  1  0
 50 61  2  0
 51 56  1  0
 52 60  1  0
 52 62  1  0
 53 59  1  0
 53 55  1  0
 54 60  1  0
 55 54  1  0
 56 55  2  0
 57 58  1  0
 57 51  2  0
 58 53  2  0
 59 52  1  0
 60 50  1  0
 62 64  2  0
 63 62  1  0
 65 63  1  0
 66 75  2  0
 66 71  1  0
 67 63  1  0
 67 71  1  0
 68 67  1  0
 69 70  1  0
 69 68  1  0
 70 66  1  0
 71 72  2  0
 72 73  1  0
 74 73  2  0
 75 74  1  0
 76 50  1  0
 76 77  1  0
 76 86  1  0
 77 80  1  0
 78 82  1  0
 78 77  1  0
 79 78  2  0
 82 81  1  0
 84 82  1  0
 84 85  1  0
 84 83  1  0
 86 89  1  1
 86 87  1  0
 88 86  1  0
M  ISO  4  10 100  11 100  48 101  49 101
M  END
>  <TORSDO>  (50) 
F 21

>  <SCORE>  (50) 
-11.265

>  <name>  (50) 
49

>  <ligand_id>  (50) 
49

>  <original_smiles>  (50) 
[H]c1c([H])c([H])c2c(c1[H])C([H])([H])C([H])([H])C([H])([H])C2([H])N([H])C(=O)C1([H])N(C(=O)C([H])(N([H])C(=O)C([H])(N([H])C([H])([H])[H])C([H])([H])[H])C(C([H])([H])[H])(C([H])([H])[H])C([H])([H])[H])C([H])([H])c2c([H])c(OC([H])([H])C([H])([H])c3c([H])c(C([H])([H])C([H])([H])C([H])([H])C(=O)N4C([H])([H])C([H])([H])C([H])([H])C([H])(n5nc(-c6c([H])c([H])c(Oc7c([H])c([H])c(F)c([H])c7F)c([H])c6[H])c(C(=O)N([H])[H])c5N([H])[H])C4([H])[H])c([H])c([H])c3C([H])([H])[H])c([H])c([H])c2C1([H])[H]

>  <smiles>  (50) 
[H]c1c([H])c([H])c2c(c1[H])C([H])([H])C([H])([H])C([H])([H])C2([H])N([H])C(=O)C1([H])N(C(=O)C([H])(N([H])C(=O)C([H])(N([H])C([H])([H])[H])C([H])([H])[H])C(C([H])([H])[H])(C([H])([H])[H])C([H])([H])[H])C([H])([H])c2c([H])c(OC([H])([H])C([H])([H])c3c([H])c(C([H])([H])C([H])([H])C([H])([H])C(=O)N4C([H])([H])C([H])([H])C([H])([H])C([H])(n5nc(-c6c([H])c([H])c(Oc7c([H])c([H])c(F)c([H])c7F)c([H])c6[H])c(C(=O)N([H])[H])c5N([H])[H])C4([H])[H])c([H])c([H])c3C([H])([H])[H])c([H])c([H])c2C1([H])[H]

$$$$
50:0:0
     RDKit          3D

 91 99  0  0  1  0  0  0  0  0999 V2000
  -26.9040  -22.5810   21.3520 C   0  0  0  0  0  3  0  0  0  0  0  0
  -27.7390  -21.4720   21.0860 C   0  0  0  0  0  3  0  0  0  0  0  0
  -27.2200  -23.8740   20.8770 C   0  0  0  0  0  3  0  0  0  0  0  0
  -29.2180  -22.9470   19.8570 C   0  0  0  0  0  3  0  0  0  0  0  0
  -28.9230  -21.6230   20.3370 C   0  0  0  0  0  0  0  0  0  0  0  0
  -28.3840  -24.0900   20.1130 C   0  0  0  0  0  0  0  0  0  0  0  0
  -29.8780  -20.4080   20.0520 C   0  0  0  0  0  3  0  0  0  0  0  0
  -29.4620  -18.8970   20.3990 C   0  0  0  0  0  3  0  0  0  0  0  0
  -31.7180  -17.9400   21.1020 C   0  0  0  0  0  1  0  0  0  0  0  0
  -30.5150  -17.6930   20.1610 C   0  0  2  0  0  0  0  0  0  0  0  0
  -31.9640  -18.7170   18.1460 C   0  0  0  0  0  1  0  0  0  0  0  0
  -30.9320  -17.6840   18.6490 C   0  0  0  0  0  2  0  0  0  0  0  0
  -29.9370  -16.2200   20.5350 C   0  0  0  0  0  2  0  0  0  0  0  0
  -30.7820  -14.8690   20.3210 C   0  0  0  0  0  0  0  0  0  0  0  0
  -30.5950  -12.6000   19.3250 C   0  0  0  0  0  2  0  0  0  0  0  0
  -29.6680  -12.7130   18.0910 C   0  0  0  0  0  2  0  0  0  0  0  0
  -28.1940  -12.5330   18.5050 C   0  0  0  0  0  2  0  0  0  0  0  0
  -27.8060  -13.4100   19.7260 C   0  0  0  0  0  3  0  0  0  0  0  0
  -28.8600  -13.3160   20.8510 C   0  0  0  0  0  2  0  0  0  0  0  0
  -30.1720  -13.6420   20.2830 N   0  0  0  0  0  0  0  0  0  0  0  0
  -31.9740  -14.9530   20.0210 O   0  0  0  0  0  0  0  0  0  0  0  0
  -25.4050  -13.9870   20.4290 C   0  0  0  0  0  0  0  0  0  0  0  0
  -24.3430  -13.2050   20.7890 C   0  0  0  0  0  0  0  0  0  0  0  0
  -24.8210  -11.8580   20.7750 C   0  0  0  0  0  0  0  0  0  0  0  0
  -26.4610  -13.1170   20.2070 N   0  0  0  0  0  0  0  0  0  0  0  0
  -26.1140  -11.8330   20.4800 N   0  0  0  0  0  0  0  0  0  0  0  0
  -24.1060  -10.5900   20.9600 C   0  0  0  0  0  0  0  0  0  0  0  0
  -24.5190   -9.6460   21.9260 C   0  0  0  0  0  3  0  0  0  0  0  0
  -23.8030   -8.4430   22.1020 C   0  0  0  0  0  3  0  0  0  0  0  0
  -22.6610   -8.1740   21.3110 C   0  0  0  0  0  0  0  0  0  0  0  0
  -22.2670   -9.1080   20.3350 C   0  0  0  0  0  3  0  0  0  0  0  0
  -22.9840  -10.3020   20.1580 C   0  0  0  0  0  3  0  0  0  0  0  0
  -21.9220   -7.0190   21.3940 O   0  0  0  0  0  0  0  0  0  0  0  0
  -21.8210   -6.3090   22.5650 C   0  0  0  0  0  0  0  0  0  0  0  0
  -21.2940   -6.8850   23.7420 C   0  0  0  0  0  3  0  0  0  0  0  0
  -21.1440   -6.1000   24.9030 C   0  0  0  0  0  3  0  0  0  0  0  0
  -21.5110   -4.7400   24.8880 C   0  0  0  0  0  0  0  0  0  0  0  0
  -22.0310   -4.1640   23.7150 C   0  0  0  0  0  3  0  0  0  0  0  0
  -22.1820   -4.9460   22.5560 C   0  0  0  0  0  0  0  0  0  0  0  0
  -22.6650   -4.3810   21.4230 F   0  0  0  0  0  0  0  0  0  0  0  0
  -21.3590   -3.9860   26.0000 F   0  0  0  0  0  0  0  0  0  0  0  0
  -22.9370  -13.6680   21.0380 C   0  0  0  0  0  0  0  0  0  0  0  0
  -22.2020  -12.9740   21.8990 N   0  0  0  0  0  0  0  0  0  0  0  0
  -22.4990  -14.6860   20.5040 O   0  0  0  0  0  0  0  0  0  0  0  0
  -22.5710  -12.1530   22.3590 H   0  0  0  0  0  0  0  0  0  0  0  0
  -21.2590  -13.2740   22.1040 H   0  0  0  0  0  0  0  0  0  0  0  0
  -25.5530  -15.3600   20.2480 N   0  0  0  0  0  0  0  0  0  0  0  0
  -24.7700  -15.9940   20.3590 H   0  0  0  0  0  0  0  0  0  0  0  0
  -26.3970  -15.8230   19.9350 H   0  0  0  0  0  0  0  0  0  0  0  0
  -28.6730  -25.4900   19.4730 C   0  0  0  0  0  2  0  0  0  0  0  0
  -28.4730  -26.7260   20.2450 O   0  0  0  0  0  0  0  0  0  0  0  0
  -24.6090  -31.9730   23.2670 C   0  0  0  0  0  0  0  0  0  0  0  0
  -27.3080  -27.4960   20.1810 C   0  0  0  0  0  0  0  0  0  0  0  0
  -23.4320  -30.5670   21.6110 C   0  0  0  0  0  3  0  0  0  0  0  0
  -24.9090  -29.0480   20.1770 C   0  0  0  0  0  0  0  0  0  0  0  0
  -25.9620  -30.9270   21.4420 C   0  0  0  0  0  2  0  0  0  0  0  0
  -26.0620  -29.5570   20.7860 C   0  0  0  0  0  0  0  0  0  0  0  0
  -27.2570  -28.7860   20.7870 C   0  0  0  0  0  3  0  0  0  0  0  0
  -26.1290  -27.0260   19.5600 C   0  0  0  0  0  3  0  0  0  0  0  0
  -24.9430  -27.7870   19.5590 C   0  0  0  0  0  3  0  0  0  0  0  0
  -23.6590  -29.9020   20.2270 C   0  0  0  0  0  2  0  0  0  0  0  0
  -24.6850  -31.1740   22.1640 N   0  0  0  0  0  0  0  0  0  0  0  0
  -23.5200  -32.2350   23.7980 O   0  0  0  0  0  0  0  0  0  0  0  0
  -22.7830  -29.5350   22.5620 C   0  0  0  0  0  0  0  0  0  0  0  0
  -21.4610  -29.3410   22.4230 N   0  0  0  0  0  0  0  0  0  0  0  0
  -23.4650  -28.9140   23.3790 O   0  0  0  0  0  0  0  0  0  0  0  0
  -20.9680  -29.8910   21.7320 H   0  0  0  0  0  0  0  0  0  0  0  0
  -18.0930  -28.1110   22.8970 C   0  0  0  0  0  0  0  0  0  0  0  0
  -20.6480  -28.3890   23.1810 C   0  0  0  0  0  3  0  0  0  0  0  0
  -20.7650  -26.9650   22.5910 C   0  0  0  0  0  2  0  0  0  0  0  0
  -19.6700  -26.6440   21.5700 C   0  0  0  0  0  2  0  0  0  0  0  0
  -18.2850  -26.7700   22.2090 C   0  0  0  0  0  2  0  0  0  0  0  0
  -19.2030  -28.8780   23.3390 C   0  0  0  0  0  0  0  0  0  0  0  0
  -18.9720  -30.1320   23.9430 C   0  0  0  0  0  3  0  0  0  0  0  0
  -17.6640  -30.6220   24.1100 C   0  0  0  0  0  3  0  0  0  0  0  0
  -16.5670  -29.8510   23.6880 C   0  0  0  0  0  3  0  0  0  0  0  0
  -16.7820  -28.5980   23.0860 C   0  0  0  0  0  3  0  0  0  0  0  0
  -25.8810  -32.6170   23.9000 C   0  0  0  0  0  3  0  0  0  0  0  0
  -25.5620  -34.0180   24.2150 N   0  0  0  0  0  0  0  0  0  0  0  0
  -25.9010  -35.0650   23.4520 C   0  0  0  0  0  0  0  0  0  0  0  0
  -26.5900  -34.9550   22.4330 O   0  0  0  0  0  0  0  0  0  0  0  0
  -24.9520  -34.1770   25.0040 H   0  0  0  0  0  0  0  0  0  0  0  0
  -24.1800  -36.8510   23.0490 C   0  0  0  0  0  1  0  0  0  0  0  0
  -25.4030  -36.4540   23.8910 C   0  0  0  0  0  3  0  0  0  0  0  0
  -27.5110  -37.3500   24.7700 C   0  0  0  0  0  1  0  0  0  0  0  0
  -26.4360  -37.5080   23.7950 N   0  0  0  0  0  0  0  0  0  0  0  0
  -26.0240  -38.4290   23.9220 H   0  0  0  0  0  0  0  0  0  0  0  0
  -26.3830  -31.8600   25.1920 C   0  0  1  0  0  0  0  0  0  0  0  0
  -25.2760  -31.6220   26.2460 C   0  0  0  0  0  1  0  0  0  0  0  0
  -26.9810  -30.4840   24.8200 C   0  0  0  0  0  1  0  0  0  0  0  0
  -27.5200  -32.6660   25.8620 C   0  0  0  0  0  1  0  0  0  0  0  0
  2  1  1  0
  3  1  2  0
  4  6  2  0
  4  5  1  0
  5  2  2  0
  6  3  1  0
  7  5  1  0
  7  8  2  0
 10  8  1  0
 10 13  1  0
 10  9  1  1
 11 12  1  0
 12 10  1  0
 14 13  1  0
 15 20  1  0
 16 17  1  0
 16 15  1  0
 18 17  1  0
 18 25  1  0
 18 19  1  0
 20 14  1  0
 20 19  1  0
 21 14  2  0
 22 23  2  0
 23 42  1  0
 24 23  1  0
 24 27  1  0
 25 22  1  0
 25 26  1  0
 26 24  2  0
 27 28  1  0
 28 29  2  0
 30 33  1  0
 30 29  1  0
 31 30  2  0
 32 31  1  0
 32 27  2  0
 33 34  1  0
 34 35  1  0
 35 36  2  0
 37 36  1  0
 37 41  1  0
 38 37  2  0
 39 34  2  0
 39 38  1  0
 40 39  1  0
 42 43  1  0
 43 46  1  0
 43 45  1  0
 44 42  2  0
 47 48  1  0
 47 22  1  0
 49 47  1  0
 50  6  1  0
 50 51  1  0
 52 63  2  0
 53 51  1  0
 53 58  1  0
 54 62  1  0
 54 64  1  0
 55 61  1  0
 55 57  1  0
 56 62  1  0
 57 58  2  0
 57 56  1  0
 59 53  2  0
 60 59  1  0
 60 55  2  0
 61 54  1  0
 62 52  1  0
 64 66  2  0
 65 64  1  0
 67 65  1  0
 68 77  2  0
 68 73  1  0
 69 65  1  0
 69 73  1  0
 70 69  1  0
 71 72  1  0
 71 70  1  0
 72 68  1  0
 73 74  2  0
 74 75  1  0
 76 75  2  0
 77 76  1  0
 78 52  1  0
 78 79  1  0
 78 88  1  0
 79 82  1  0
 80 84  1  0
 80 79  1  0
 81 80  2  0
 84 83  1  0
 86 84  1  0
 86 87  1  0
 86 85  1  0
 88 91  1  1
 88 89  1  0
 90 88  1  0
M  ISO  4  13 100  14 100  50 101  51 101
M  END
>  <TORSDO>  (51) 
F 22

>  <SCORE>  (51) 
-12.985

>  <name>  (51) 
50

>  <ligand_id>  (51) 
50

>  <original_smiles>  (51) 
[H]c1c([H])c([H])c2c(c1[H])C([H])([H])C([H])([H])C([H])([H])C2([H])N([H])C(=O)C1([H])N(C(=O)C([H])(N([H])C(=O)C([H])(N([H])C([H])([H])[H])C([H])([H])[H])C(C([H])([H])[H])(C([H])([H])[H])C([H])([H])[H])C([H])([H])c2c([H])c(OC([H])([H])c3c([H])c([H])c([H])c(C([H])([H])C([H])([H])C(C([H])([H])[H])(C([H])([H])C(=O)N4C([H])([H])C([H])([H])C([H])([H])C([H])(n5nc(-c6c([H])c([H])c(Oc7c([H])c([H])c(F)c([H])c7F)c([H])c6[H])c(C(=O)N([H])[H])c5N([H])[H])C4([H])[H])C([H])([H])C([H])([H])[H])c3[H])c([H])c([H])c2C1([H])[H]

>  <smiles>  (51) 
[H]c1c([H])c([H])c2c(c1[H])C([H])([H])C([H])([H])C([H])([H])C2([H])N([H])C(=O)C1([H])N(C(=O)C([H])(N([H])C(=O)C([H])(N([H])C([H])([H])[H])C([H])([H])[H])C(C([H])([H])[H])(C([H])([H])[H])C([H])([H])[H])C([H])([H])c2c([H])c(OC([H])([H])c3c([H])c([H])c([H])c(C([H])([H])C([H])([H])C(C([H])([H])[H])(C([H])([H])C(=O)N4C([H])([H])C([H])([H])C([H])([H])C([H])(n5nc(-c6c([H])c([H])c(Oc7c([H])c([H])c(F)c([H])c7F)c([H])c6[H])c(C(=O)N([H])[H])c5N([H])[H])C4([H])[H])C([H])([H])C([H])([H])[H])c3[H])c([H])c([H])c2C1([H])[H]

$$$$
51:0:0
     RDKit          3D

 93101  0  0  1  0  0  0  0  0999 V2000
  -32.9890  -22.0600   20.1910 C   0  0  0  0  0  3  0  0  0  0  0  0
  -33.1700  -20.8380   19.5280 C   0  0  0  0  0  3  0  0  0  0  0  0
  -31.7870  -22.3130   20.8710 C   0  0  0  0  0  3  0  0  0  0  0  0
  -32.1690  -19.8530   19.5950 C   0  0  0  0  0  3  0  0  0  0  0  0
  -30.7430  -21.3570   20.8980 C   0  0  0  0  0  0  0  0  0  0  0  0
  -30.9670  -20.0720   20.3090 C   0  0  0  0  0  0  0  0  0  0  0  0
  -29.4080  -21.7280   21.5600 C   0  0  0  0  0  2  0  0  0  0  0  0
  -29.1220  -23.2380   21.8360 C   0  0  0  0  0  2  0  0  0  0  0  0
  -28.8440  -24.1780   20.6420 C   0  0  0  0  0  0  0  0  0  0  0  0
  -29.2200  -23.9260   19.4920 O   0  0  0  0  0  0  0  0  0  0  0  0
  -28.0410  -25.4480   20.9780 C   0  0  0  0  0  2  0  0  0  0  0  0
  -28.2640  -26.5540   20.0800 O   0  0  0  0  0  0  0  0  0  0  0  0
  -24.5800  -31.8090   23.1750 C   0  0  0  0  0  0  0  0  0  0  0  0
  -27.1550  -27.3690   20.0360 C   0  0  0  0  0  0  0  0  0  0  0  0
  -23.3520  -30.4270   21.5330 C   0  0  0  0  0  3  0  0  0  0  0  0
  -24.7830  -28.8990   20.0780 C   0  0  0  0  0  0  0  0  0  0  0  0
  -25.8790  -30.7740   21.3130 C   0  0  0  0  0  2  0  0  0  0  0  0
  -25.9520  -29.4080   20.6590 C   0  0  0  0  0  0  0  0  0  0  0  0
  -27.1490  -28.6510   20.6320 C   0  0  0  0  0  3  0  0  0  0  0  0
  -25.9750  -26.8820   19.4360 C   0  0  0  0  0  3  0  0  0  0  0  0
  -24.7890  -27.6370   19.4600 C   0  0  0  0  0  3  0  0  0  0  0  0
  -23.5470  -29.7670   20.1420 C   0  0  0  0  0  2  0  0  0  0  0  0
  -24.6230  -31.0150   22.0670 N   0  0  0  0  0  0  0  0  0  0  0  0
  -23.5060  -32.0820   23.7270 O   0  0  0  0  0  0  0  0  0  0  0  0
  -22.7020  -29.3990   22.4900 C   0  0  0  0  0  0  0  0  0  0  0  0
  -21.3720  -29.2400   22.3890 N   0  0  0  0  0  0  0  0  0  0  0  0
  -23.3910  -28.7530   23.2840 O   0  0  0  0  0  0  0  0  0  0  0  0
  -20.8770  -29.8180   21.7240 H   0  0  0  0  0  0  0  0  0  0  0  0
  -17.9880  -28.0840   22.9230 C   0  0  0  0  0  0  0  0  0  0  0  0
  -20.5530  -28.3050   23.1620 C   0  0  0  0  0  3  0  0  0  0  0  0
  -20.6280  -26.8780   22.5710 C   0  0  0  0  0  2  0  0  0  0  0  0
  -19.5070  -26.5810   21.5690 C   0  0  0  0  0  2  0  0  0  0  0  0
  -18.1370  -26.7390   22.2330 C   0  0  0  0  0  2  0  0  0  0  0  0
  -19.1230  -28.8260   23.3450 C   0  0  0  0  0  0  0  0  0  0  0  0
  -18.9290  -30.0870   23.9510 C   0  0  0  0  0  3  0  0  0  0  0  0
  -17.6330  -30.6050   24.1380 C   0  0  0  0  0  3  0  0  0  0  0  0
  -16.5130  -29.8580   23.7330 C   0  0  0  0  0  3  0  0  0  0  0  0
  -16.6920  -28.6000   23.1310 C   0  0  0  0  0  3  0  0  0  0  0  0
  -25.8770  -32.4280   23.7850 C   0  0  0  0  0  3  0  0  0  0  0  0
  -25.5760  -33.8200   24.1480 N   0  0  0  0  0  0  0  0  0  0  0  0
  -25.8930  -34.8840   23.3990 C   0  0  0  0  0  0  0  0  0  0  0  0
  -26.5400  -34.7990   22.3510 O   0  0  0  0  0  0  0  0  0  0  0  0
  -24.9960  -33.9610   24.9620 H   0  0  0  0  0  0  0  0  0  0  0  0
  -24.1550  -36.6810   23.1140 C   0  0  0  0  0  1  0  0  0  0  0  0
  -25.4150  -36.2660   23.8890 C   0  0  0  0  0  3  0  0  0  0  0  0
  -27.5690  -37.1370   24.6810 C   0  0  0  0  0  1  0  0  0  0  0  0
  -26.4450  -37.3210   23.7680 N   0  0  0  0  0  0  0  0  0  0  0  0
  -26.0430  -38.2380   23.9420 H   0  0  0  0  0  0  0  0  0  0  0  0
  -26.4190  -31.6290   25.0330 C   0  0  1  0  0  0  0  0  0  0  0  0
  -25.3470  -31.3700   26.1190 C   0  0  0  0  0  1  0  0  0  0  0  0
  -26.9870  -30.2600   24.5970 C   0  0  0  0  0  1  0  0  0  0  0  0
  -27.5850  -32.4060   25.6890 C   0  0  0  0  0  1  0  0  0  0  0  0
  -29.9620  -18.9050   20.4040 C   0  0  0  0  0  2  0  0  0  0  0  0
  -30.6320  -17.5470   20.7520 C   0  0  0  0  0  2  0  0  0  0  0  0
  -29.6790  -16.3390   20.9490 C   0  0  0  0  0  2  0  0  0  0  0  0
  -30.7530  -14.2800   20.1530 C   0  0  0  0  0  0  0  0  0  0  0  0
  -30.2950  -12.1940   18.9170 C   0  0  0  0  0  2  0  0  0  0  0  0
  -29.2960  -12.4450   17.7730 C   0  0  0  0  0  2  0  0  0  0  0  0
  -27.8460  -12.3320   18.2770 C   0  0  0  0  0  2  0  0  0  0  0  0
  -27.5950  -13.1500   19.5730 C   0  0  0  0  0  3  0  0  0  0  0  0
  -28.7020  -12.8800   20.6170 C   0  0  0  0  0  2  0  0  0  0  0  0
  -30.0070  -13.1540   19.9930 N   0  0  0  0  0  0  0  0  0  0  0  0
  -31.7430  -14.5380   19.4610 O   0  0  0  0  0  0  0  0  0  0  0  0
  -31.2950  -15.1090   22.3490 C   0  0  0  0  0  1  0  0  0  0  0  0
  -30.4060  -15.0790   21.1860 N   0  0  0  0  0  0  0  0  0  0  0  0
  -25.2470  -13.7900   20.4210 C   0  0  0  0  0  0  0  0  0  0  0  0
  -24.1850  -13.0340   20.8370 C   0  0  0  0  0  0  0  0  0  0  0  0
  -24.6120  -11.6730   20.7510 C   0  0  0  0  0  0  0  0  0  0  0  0
  -26.2610  -12.8920   20.1180 N   0  0  0  0  0  0  0  0  0  0  0  0
  -25.8820  -11.6110   20.3690 N   0  0  0  0  0  0  0  0  0  0  0  0
  -23.8670  -10.4230   20.9550 C   0  0  0  0  0  0  0  0  0  0  0  0
  -24.3090   -9.4440   21.8730 C   0  0  0  0  0  3  0  0  0  0  0  0
  -23.5720   -8.2580   22.0650 C   0  0  0  0  0  3  0  0  0  0  0  0
  -22.3760   -8.0380   21.3410 C   0  0  0  0  0  0  0  0  0  0  0  0
  -21.9530   -9.0030   20.4110 C   0  0  0  0  0  3  0  0  0  0  0  0
  -22.6910  -10.1840   20.2150 C   0  0  0  0  0  3  0  0  0  0  0  0
  -21.6040   -6.9050   21.4470 O   0  0  0  0  0  0  0  0  0  0  0  0
  -21.5510   -6.1750   22.6080 C   0  0  0  0  0  0  0  0  0  0  0  0
  -21.1450   -6.7490   23.8330 C   0  0  0  0  0  3  0  0  0  0  0  0
  -21.0410   -5.9470   24.9870 C   0  0  0  0  0  3  0  0  0  0  0  0
  -21.3250   -4.5700   24.9150 C   0  0  0  0  0  0  0  0  0  0  0  0
  -21.7210   -3.9940   23.6950 C   0  0  0  0  0  3  0  0  0  0  0  0
  -21.8300   -4.7960   22.5450 C   0  0  0  0  0  0  0  0  0  0  0  0
  -22.1910   -4.2320   21.3680 F   0  0  0  0  0  0  0  0  0  0  0  0
  -21.2180   -3.7950   26.0200 F   0  0  0  0  0  0  0  0  0  0  0  0
  -22.8140  -13.5320   21.1990 C   0  0  0  0  0  0  0  0  0  0  0  0
  -22.1160  -12.8330   22.0880 N   0  0  0  0  0  0  0  0  0  0  0  0
  -22.3700  -14.5770   20.7260 O   0  0  0  0  0  0  0  0  0  0  0  0
  -22.4830  -11.9880   22.4980 H   0  0  0  0  0  0  0  0  0  0  0  0
  -21.1970  -13.1510   22.3620 H   0  0  0  0  0  0  0  0  0  0  0  0
  -25.4350  -15.1610   20.2560 N   0  0  0  0  0  0  0  0  0  0  0  0
  -24.7020  -15.8420   20.4210 H   0  0  0  0  0  0  0  0  0  0  0  0
  -26.2810  -15.5780   19.8860 H   0  0  0  0  0  0  0  0  0  0  0  0
  1  3  1  0
  2  4  1  0
  2  1  2  0
  3  5  2  0
  4  6  2  0
  5  7  1  0
  6 53  1  0
  6  5  1  0
  7  8  1  0
  9 11  1  0
  9  8  1  0
 10  9  2  0
 12 11  1  0
 13 24  2  0
 14 12  1  0
 14 19  1  0
 15 23  1  0
 15 25  1  0
 16 22  1  0
 16 18  1  0
 17 23  1  0
 18 17  1  0
 19 18  2  0
 20 21  1  0
 20 14  2  0
 21 16  2  0
 22 15  1  0
 23 13  1  0
 25 27  2  0
 26 25  1  0
 28 26  1  0
 29 38  2  0
 29 34  1  0
 30 26  1  0
 30 34  1  0
 31 30  1  0
 32 33  1  0
 32 31  1  0
 33 29  1  0
 34 35  2  0
 35 36  1  0
 37 36  2  0
 38 37  1  0
 39 13  1  0
 39 40  1  0
 39 49  1  0
 40 43  1  0
 41 45  1  0
 41 40  1  0
 42 41  2  0
 45 44  1  0
 47 45  1  0
 47 48  1  0
 47 46  1  0
 49 52  1  1
 49 50  1  0
 51 49  1  0
 53 54  1  0
 54 55  1  0
 55 65  1  0
 56 65  1  0
 57 62  1  0
 58 59  1  0
 58 57  1  0
 60 59  1  0
 60 69  1  0
 60 61  1  0
 62 56  1  0
 62 61  1  0
 63 56  2  0
 65 64  1  0
 66 67  2  0
 67 86  1  0
 68 67  1  0
 68 71  1  0
 69 70  1  0
 69 66  1  0
 70 68  2  0
 71 72  1  0
 72 73  2  0
 74 77  1  0
 74 73  1  0
 75 74  2  0
 76 75  1  0
 76 71  2  0
 77 78  1  0
 78 79  1  0
 79 80  2  0
 81 80  1  0
 81 85  1  0
 82 81  2  0
 83 78  2  0
 83 82  1  0
 84 83  1  0
 86 87  1  0
 87 90  1  0
 87 89  1  0
 88 86  2  0
 91 92  1  0
 91 66  1  0
 93 91  1  0
M  ISO  4  11 101  12 101  56 100  65 100
M  END
>  <TORSDO>  (52) 
F 23

>  <SCORE>  (52) 
-12.165

>  <name>  (52) 
51

>  <ligand_id>  (52) 
51

>  <original_smiles>  (52) 
[H]c1c([H])c([H])c(C([H])([H])C([H])([H])C([H])([H])N(C(=O)N2C([H])([H])C([H])([H])C([H])([H])C([H])(n3nc(-c4c([H])c([H])c(Oc5c([H])c([H])c(F)c([H])c5F)c([H])c4[H])c(C(=O)N([H])[H])c3N([H])[H])C2([H])[H])C([H])([H])[H])c(C([H])([H])C([H])([H])C(=O)C([H])([H])Oc2c([H])c([H])c3c(c2[H])C([H])([H])N(C(=O)C([H])(N([H])C(=O)C([H])(N([H])C([H])([H])[H])C([H])([H])[H])C(C([H])([H])[H])(C([H])([H])[H])C([H])([H])[H])C([H])(C(=O)N([H])C2([H])c4c([H])c([H])c([H])c([H])c4C([H])([H])C([H])([H])C2([H])[H])C3([H])[H])c1[H]

>  <smiles>  (52) 
[H]c1c([H])c([H])c(C([H])([H])C([H])([H])C([H])([H])N(C(=O)N2C([H])([H])C([H])([H])C([H])([H])C([H])(n3nc(-c4c([H])c([H])c(Oc5c([H])c([H])c(F)c([H])c5F)c([H])c4[H])c(C(=O)N([H])[H])c3N([H])[H])C2([H])[H])C([H])([H])[H])c(C([H])([H])C([H])([H])C(=O)C([H])([H])Oc2c([H])c([H])c3c(c2[H])C([H])([H])N(C(=O)C([H])(N([H])C(=O)C([H])(N([H])C([H])([H])[H])C([H])([H])[H])C(C([H])([H])[H])(C([H])([H])[H])C([H])([H])[H])C([H])(C(=O)N([H])C2([H])c4c([H])c([H])c([H])c([H])c4C([H])([H])C([H])([H])C2([H])[H])C3([H])[H])c1[H]

$$$$
52:0:0
     RDKit          3D

 94102  0  0  1  0  0  0  0  0999 V2000
  -28.6400  -22.5770   19.8730 C   0  0  0  0  0  3  0  0  0  0  0  0
  -28.4210  -21.2190   20.1610 C   0  0  0  0  0  3  0  0  0  0  0  0
  -30.7850  -22.4650   20.9910 C   0  0  0  0  0  3  0  0  0  0  0  0
  -29.8040  -23.2370   20.3290 C   0  0  0  0  0  0  0  0  0  0  0  0
  -29.3470  -20.4770   20.9230 C   0  0  0  0  0  0  0  0  0  0  0  0
  -30.5690  -21.0990   21.2990 C   0  0  0  0  0  0  0  0  0  0  0  0
  -31.6290  -20.3540   22.0900 C   0  0  0  0  0  1  0  0  0  0  0  0
  -29.9270  -24.7140   20.2650 C   0  0  0  0  0  3  0  0  0  0  0  0
  -28.9570  -25.5020   19.7540 C   0  0  0  0  0  3  0  0  0  0  0  0
  -28.9840  -26.8790   19.7110 O   0  0  0  0  0  0  0  0  0  0  0  0
  -24.7420  -31.5240   23.0600 C   0  0  0  0  0  0  0  0  0  0  0  0
  -27.7620  -27.5300   19.7140 C   0  0  0  0  0  0  0  0  0  0  0  0
  -23.6650  -30.1310   21.3250 C   0  0  0  0  0  3  0  0  0  0  0  0
  -25.2460  -28.8290   19.8100 C   0  0  0  0  0  0  0  0  0  0  0  0
  -26.1530  -30.7150   21.1740 C   0  0  0  0  0  2  0  0  0  0  0  0
  -26.3540  -29.4010   20.4470 C   0  0  0  0  0  0  0  0  0  0  0  0
  -27.6140  -28.7550   20.4030 C   0  0  0  0  0  3  0  0  0  0  0  0
  -26.6380  -26.9990   19.0360 C   0  0  0  0  0  3  0  0  0  0  0  0
  -25.3820  -27.6280   19.1010 C   0  0  0  0  0  3  0  0  0  0  0  0
  -23.9340  -29.5700   19.9050 C   0  0  0  0  0  2  0  0  0  0  0  0
  -24.8690  -30.8030   21.9110 N   0  0  0  0  0  0  0  0  0  0  0  0
  -23.6400  -31.6660   23.6090 O   0  0  0  0  0  0  0  0  0  0  0  0
  -23.1070  -28.9930   22.2120 C   0  0  0  0  0  0  0  0  0  0  0  0
  -21.8150  -28.6710   22.0310 N   0  0  0  0  0  0  0  0  0  0  0  0
  -23.8310  -28.4090   23.0230 O   0  0  0  0  0  0  0  0  0  0  0  0
  -21.2860  -29.2030   21.3560 H   0  0  0  0  0  0  0  0  0  0  0  0
  -18.6120  -27.0170   22.2700 C   0  0  0  0  0  0  0  0  0  0  0  0
  -21.0860  -27.6140   22.7280 C   0  0  0  0  0  3  0  0  0  0  0  0
  -21.4230  -26.2240   22.1410 C   0  0  0  0  0  2  0  0  0  0  0  0
  -20.4490  -25.7770   21.0480 C   0  0  0  0  0  2  0  0  0  0  0  0
  -19.0190  -25.7190   21.5920 C   0  0  0  0  0  2  0  0  0  0  0  0
  -19.5840  -27.9130   22.7890 C   0  0  0  0  0  0  0  0  0  0  0  0
  -19.1550  -29.1220   23.3780 C   0  0  0  0  0  3  0  0  0  0  0  0
  -17.7860  -29.4380   23.4570 C   0  0  0  0  0  3  0  0  0  0  0  0
  -16.8270  -28.5400   22.9560 C   0  0  0  0  0  3  0  0  0  0  0  0
  -17.2410  -27.3320   22.3680 C   0  0  0  0  0  3  0  0  0  0  0  0
  -25.9710  -32.2210   23.7250 C   0  0  0  0  0  3  0  0  0  0  0  0
  -25.5540  -33.5780   24.1030 N   0  0  0  0  0  0  0  0  0  0  0  0
  -25.8890  -34.6900   23.4340 C   0  0  0  0  0  0  0  0  0  0  0  0
  -26.6520  -34.6840   22.4640 O   0  0  0  0  0  0  0  0  0  0  0  0
  -24.8870  -33.6550   24.8560 H   0  0  0  0  0  0  0  0  0  0  0  0
  -24.1110  -36.4150   23.0080 C   0  0  0  0  0  1  0  0  0  0  0  0
  -25.2810  -36.0190   23.9210 C   0  0  0  0  0  3  0  0  0  0  0  0
  -27.2750  -36.9380   25.0170 C   0  0  0  0  0  1  0  0  0  0  0  0
  -26.2600  -37.1260   23.9840 N   0  0  0  0  0  0  0  0  0  0  0  0
  -25.7910  -38.0110   24.1580 H   0  0  0  0  0  0  0  0  0  0  0  0
  -26.5300  -31.4400   24.9760 C   0  0  1  0  0  0  0  0  0  0  0  0
  -25.4430  -31.0680   26.0110 C   0  0  0  0  0  1  0  0  0  0  0  0
  -27.2310  -30.1330   24.5370 C   0  0  0  0  0  1  0  0  0  0  0  0
  -27.6000  -32.2960   25.6940 C   0  0  0  0  0  1  0  0  0  0  0  0
  -28.8680  -19.1230   21.4560 C   0  0  0  0  0  2  0  0  0  0  0  0
  -29.8450  -17.9340   21.6460 C   0  0  0  0  0  2  0  0  0  0  0  0
  -29.5100  -17.3960   19.2260 C   0  0  0  0  0  1  0  0  0  0  0  0
  -30.3640  -17.2260   20.4320 N   0  0  2  0  0  4  0  0  0  0  0  0
  -31.2250  -17.7050   20.2140 H   0  0  0  0  0  0  0  0  0  0  0  0
  -30.9450  -15.3600   22.1330 C   0  0  0  0  0  1  0  0  0  0  0  0
  -30.7380  -15.7770   20.6460 C   0  0  0  0  0  3  0  0  0  0  0  0
  -32.0020  -15.3640   19.8180 C   0  0  0  0  0  2  0  0  0  0  0  0
  -32.1130  -13.9840   19.0920 C   0  0  0  0  0  0  0  0  0  0  0  0
  -31.5740  -11.6060   18.6160 C   0  0  0  0  0  2  0  0  0  0  0  0
  -30.4950  -11.4750   17.5250 C   0  0  0  0  0  2  0  0  0  0  0  0
  -29.0770  -11.5870   18.1220 C   0  0  0  0  0  2  0  0  0  0  0  0
  -28.9310  -12.7870   19.0960 C   0  0  0  0  0  3  0  0  0  0  0  0
  -30.1020  -12.7820   20.1100 C   0  0  0  0  0  2  0  0  0  0  0  0
  -31.3550  -12.8740   19.3490 N   0  0  0  0  0  0  0  0  0  0  0  0
  -33.0330  -13.9190   18.2690 O   0  0  0  0  0  0  0  0  0  0  0  0
  -26.8450  -13.8460   20.1790 C   0  0  0  0  0  0  0  0  0  0  0  0
  -25.6960  -13.2920   20.6790 C   0  0  0  0  0  0  0  0  0  0  0  0
  -25.8290  -11.8800   20.5070 C   0  0  0  0  0  0  0  0  0  0  0  0
  -27.6240  -12.7800   19.7530 N   0  0  0  0  0  0  0  0  0  0  0  0
  -27.0190  -11.5910   19.9990 N   0  0  0  0  0  0  0  0  0  0  0  0
  -24.8720  -10.7910   20.7460 C   0  0  0  0  0  0  0  0  0  0  0  0
  -25.1660   -9.7290   21.6290 C   0  0  0  0  0  3  0  0  0  0  0  0
  -24.2240   -8.7030   21.8550 C   0  0  0  0  0  3  0  0  0  0  0  0
  -22.9700   -8.7330   21.1990 C   0  0  0  0  0  0  0  0  0  0  0  0
  -22.6920   -9.7780   20.3020 C   0  0  0  0  0  3  0  0  0  0  0  0
  -23.6340  -10.7960   20.0740 C   0  0  0  0  0  3  0  0  0  0  0  0
  -22.0050   -7.7660   21.3390 O   0  0  0  0  0  0  0  0  0  0  0  0
  -21.8490   -7.0670   22.5110 C   0  0  0  0  0  0  0  0  0  0  0  0
  -21.5850   -7.7160   23.7370 C   0  0  0  0  0  3  0  0  0  0  0  0
  -21.3660   -6.9560   24.9040 C   0  0  0  0  0  3  0  0  0  0  0  0
  -21.3980   -5.5500   24.8450 C   0  0  0  0  0  0  0  0  0  0  0  0
  -21.6530   -4.9010   23.6230 C   0  0  0  0  0  3  0  0  0  0  0  0
  -21.8750   -5.6590   22.4590 C   0  0  0  0  0  0  0  0  0  0  0  0
  -22.0990   -5.0290   21.2810 F   0  0  0  0  0  0  0  0  0  0  0  0
  -21.1760   -4.8190   25.9620 F   0  0  0  0  0  0  0  0  0  0  0  0
  -24.4890  -14.0300   21.1890 C   0  0  0  0  0  0  0  0  0  0  0  0
  -23.7910  -13.4670   22.1680 N   0  0  0  0  0  0  0  0  0  0  0  0
  -24.1850  -15.1360   20.7470 O   0  0  0  0  0  0  0  0  0  0  0  0
  -24.0650  -12.5850   22.5780 H   0  0  0  0  0  0  0  0  0  0  0  0
  -22.9820  -13.9420   22.5390 H   0  0  0  0  0  0  0  0  0  0  0  0
  -27.2870  -15.1600   20.0330 N   0  0  0  0  0  0  0  0  0  0  0  0
  -26.6760  -15.9410   20.2380 H   0  0  0  0  0  0  0  0  0  0  0  0
  -28.0520  -15.4130   19.4220 H   0  0  0  0  0  0  0  0  0  0  0  0
  1  2  2  0
  1  4  1  0
  2  5  1  0
  3  6  1  0
  4  3  2  0
  5  6  2  0
  5 51  1  0
  6  7  1  0
  8  4  1  0
  9  8  2  0
 10 12  1  0
 10  9  1  0
 11 22  2  0
 12 17  1  0
 13 21  1  0
 13 23  1  0
 14 20  1  0
 14 16  1  0
 15 21  1  0
 16 15  1  0
 17 16  2  0
 18 19  1  0
 18 12  2  0
 19 14  2  0
 20 13  1  0
 21 11  1  0
 23 25  2  0
 24 23  1  0
 26 24  1  0
 27 36  2  0
 27 32  1  0
 28 24  1  0
 28 32  1  0
 29 28  1  0
 30 31  1  0
 30 29  1  0
 31 27  1  0
 32 33  2  0
 33 34  1  0
 35 34  2  0
 36 35  1  0
 37 11  1  0
 37 38  1  0
 37 47  1  0
 38 41  1  0
 39 43  1  0
 39 38  1  0
 40 39  2  0
 43 42  1  0
 43 45  1  0
 45 46  1  0
 45 44  1  0
 47 50  1  1
 47 48  1  0
 49 47  1  0
 51 52  1  0
 53 54  1  0
 54 57  1  0
 54 52  1  0
 54 55  1  6
 57 56  1  0
 58 57  1  0
 59 65  1  0
 59 58  1  0
 60 65  1  0
 61 62  1  0
 61 60  1  0
 63 62  1  0
 63 70  1  0
 63 64  1  0
 65 64  1  0
 66 59  2  0
 67 68  2  0
 68 87  1  0
 69 68  1  0
 69 72  1  0
 70 71  1  0
 70 67  1  0
 71 69  2  0
 72 73  1  0
 73 74  2  0
 75 78  1  0
 75 74  1  0
 76 75  2  0
 77 76  1  0
 77 72  2  0
 78 79  1  0
 79 80  1  0
 80 81  2  0
 82 81  1  0
 82 86  1  0
 83 82  2  0
 84 79  2  0
 84 83  1  0
 85 84  1  0
 87 88  1  0
 88 91  1  0
 88 90  1  0
 89 87  2  0
 92 67  1  0
 92 93  1  0
 94 92  1  0
M  ISO  4   9 101  10 101  58 100  59 100
M  END
>  <TORSDO>  (53) 
F 22

>  <SCORE>  (53) 
-9.214

>  <name>  (53) 
52

>  <ligand_id>  (53) 
52

>  <original_smiles>  (53) 
[H]C(Oc1c([H])c([H])c2c(c1[H])C([H])([H])N(C(=O)C([H])(N([H])C(=O)C([H])(N([H])C([H])([H])[H])C([H])([H])[H])C(C([H])([H])[H])(C([H])([H])[H])C([H])([H])[H])C([H])(C(=O)N([H])C1([H])c3c([H])c([H])c([H])c([H])c3C([H])([H])C([H])([H])C1([H])[H])C2([H])[H])=C([H])c1c([H])c([H])c(C([H])([H])C([H])([H])[N+]([H])(C([H])([H])[H])C([H])(C([H])([H])[H])C([H])([H])C(=O)N2C([H])([H])C([H])([H])C([H])([H])C([H])(n3nc(-c4c([H])c([H])c(Oc5c([H])c([H])c(F)c([H])c5F)c([H])c4[H])c(C(=O)N([H])[H])c3N([H])[H])C2([H])[H])c(C([H])([H])[H])c1[H]

>  <smiles>  (53) 
[H]C(Oc1c([H])c([H])c2c(c1[H])C([H])([H])N(C(=O)C([H])(N([H])C(=O)C([H])(N([H])C([H])([H])[H])C([H])([H])[H])C(C([H])([H])[H])(C([H])([H])[H])C([H])([H])[H])C([H])(C(=O)N([H])C1([H])c3c([H])c([H])c([H])c([H])c3C([H])([H])C([H])([H])C1([H])[H])C2([H])[H])=C([H])c1c([H])c([H])c(C([H])([H])C([H])([H])[N+]([H])(C([H])([H])[H])C([H])(C([H])([H])[H])C([H])([H])C(=O)N2C([H])([H])C([H])([H])C([H])([H])C([H])(n3nc(-c4c([H])c([H])c(Oc5c([H])c([H])c(F)c([H])c5F)c([H])c4[H])c(C(=O)N([H])[H])c3N([H])[H])C2([H])[H])c(C([H])([H])[H])c1[H]

$$$$
53:0:0
     RDKit          3D

 94103  0  0  1  0  0  0  0  0999 V2000
  -27.0310  -23.8010   21.1290 C   0  0  0  0  0  0  0  0  0  0  0  0
  -27.6360  -25.8180   22.1000 C   0  0  0  0  0  2  0  0  0  0  0  0
  -28.5120  -23.9980   20.8330 C   0  0  0  0  0  3  0  0  0  0  0  0
  -28.6330  -25.6270   20.9120 C   0  0  0  0  0  3  0  0  0  0  0  0
  -26.5890  -24.8330   21.8440 N   0  0  0  0  0  0  0  0  0  0  0  0
  -26.3570  -22.8350   20.7730 O   0  0  0  0  0  0  0  0  0  0  0  0
  -25.6280  -24.9560   22.1300 H   0  0  0  0  0  0  0  0  0  0  0  0
  -28.3700  -26.6510   19.8370 O   0  0  0  0  0  0  0  0  0  0  0  0
  -24.7430  -31.8150   23.4090 C   0  0  0  0  0  0  0  0  0  0  0  0
  -27.2820  -27.5460   19.9070 C   0  0  0  0  0  0  0  0  0  0  0  0
  -23.4940  -30.5350   21.7040 C   0  0  0  0  0  3  0  0  0  0  0  0
  -24.9080  -29.1330   20.0930 C   0  0  0  0  0  0  0  0  0  0  0  0
  -26.0180  -30.9070   21.4510 C   0  0  0  0  0  2  0  0  0  0  0  0
  -26.0890  -29.5830   20.6950 C   0  0  0  0  0  0  0  0  0  0  0  0
  -27.2820  -28.8010   20.5960 C   0  0  0  0  0  3  0  0  0  0  0  0
  -26.0940  -27.1700   19.2570 C   0  0  0  0  0  3  0  0  0  0  0  0
  -24.9150  -27.9350   19.3560 C   0  0  0  0  0  3  0  0  0  0  0  0
  -23.6620  -29.9800   20.2630 C   0  0  0  0  0  2  0  0  0  0  0  0
  -24.7720  -31.1000   22.2450 N   0  0  0  0  0  0  0  0  0  0  0  0
  -23.6770  -32.0320   24.0040 O   0  0  0  0  0  0  0  0  0  0  0  0
  -22.8840  -29.4360   22.6040 C   0  0  0  0  0  0  0  0  0  0  0  0
  -21.5710  -29.1860   22.4570 N   0  0  0  0  0  0  0  0  0  0  0  0
  -23.5940  -28.8090   23.3960 O   0  0  0  0  0  0  0  0  0  0  0  0
  -21.0520  -29.7530   21.7990 H   0  0  0  0  0  0  0  0  0  0  0  0
  -18.3030  -27.6570   22.7400 C   0  0  0  0  0  0  0  0  0  0  0  0
  -20.8030  -28.1620   23.1700 C   0  0  0  0  0  3  0  0  0  0  0  0
  -21.0800  -26.7550   22.5910 C   0  0  0  0  0  2  0  0  0  0  0  0
  -20.0770  -26.3410   21.5090 C   0  0  0  0  0  2  0  0  0  0  0  0
  -18.6510  -26.3410   22.0660 C   0  0  0  0  0  2  0  0  0  0  0  0
  -19.3140  -28.5190   23.2440 C   0  0  0  0  0  0  0  0  0  0  0  0
  -18.9350  -29.7450   23.8310 C   0  0  0  0  0  3  0  0  0  0  0  0
  -17.5790  -30.1140   23.9210 C   0  0  0  0  0  3  0  0  0  0  0  0
  -16.5830  -29.2500   23.4360 C   0  0  0  0  0  3  0  0  0  0  0  0
  -16.9460  -28.0230   22.8510 C   0  0  0  0  0  3  0  0  0  0  0  0
  -26.0410  -32.4160   24.0310 C   0  0  0  0  0  3  0  0  0  0  0  0
  -26.5910  -31.5780   25.2520 C   0  0  1  0  0  0  0  0  0  0  0  0
  -25.5250  -31.2750   26.3310 C   0  0  0  0  0  1  0  0  0  0  0  0
  -27.1680  -30.2260   24.7720 C   0  0  0  0  0  1  0  0  0  0  0  0
  -27.7550  -32.3430   25.9240 C   0  0  0  0  0  1  0  0  0  0  0  0
  -25.7420  -33.7940   24.4460 N   0  0  0  0  0  0  0  0  0  0  0  0
  -26.0680  -34.8880   23.7450 C   0  0  0  0  0  0  0  0  0  0  0  0
  -26.7220  -34.8420   22.7000 O   0  0  0  0  0  0  0  0  0  0  0  0
  -25.1620  -33.9060   25.2640 H   0  0  0  0  0  0  0  0  0  0  0  0
  -24.3450  -36.7100   23.5200 C   0  0  0  0  0  1  0  0  0  0  0  0
  -25.5930  -36.2510   24.2890 C   0  0  0  0  0  3  0  0  0  0  0  0
  -27.7430  -37.0780   25.1390 C   0  0  0  0  0  1  0  0  0  0  0  0
  -26.6290  -37.3060   24.2230 N   0  0  0  0  0  0  0  0  0  0  0  0
  -26.2290  -38.2170   24.4290 H   0  0  0  0  0  0  0  0  0  0  0  0
  -29.2520  -22.8610   19.9410 C   0  0  0  0  0  2  0  0  0  0  0  0
  -30.5340  -20.3010   22.6550 C   0  0  0  0  0  3  0  0  0  0  0  0
  -30.0380  -21.4610   22.0210 C   0  0  0  0  0  3  0  0  0  0  0  0
  -30.8000  -19.1190   21.9350 C   0  0  0  0  0  3  0  0  0  0  0  0
  -30.0730  -20.2690   19.9120 C   0  0  0  0  0  3  0  0  0  0  0  0
  -29.7850  -21.5050   20.6270 C   0  0  0  0  0  0  0  0  0  0  0  0
  -30.5780  -19.0580   20.5450 C   0  0  0  0  0  0  0  0  0  0  0  0
  -30.9710  -17.7290   19.7710 C   0  0  0  0  0  2  0  0  0  0  0  0
  -31.3590  -15.1900   20.1970 C   0  0  0  0  0  0  0  0  0  0  0  0
  -31.1710  -12.8340   19.4110 C   0  0  0  0  0  2  0  0  0  0  0  0
  -30.2750  -12.7840   18.1530 C   0  0  0  0  0  2  0  0  0  0  0  0
  -28.7920  -12.6460   18.5490 C   0  0  0  0  0  2  0  0  0  0  0  0
  -28.3760  -13.6540   19.6530 C   0  0  0  0  0  3  0  0  0  0  0  0
  -29.3950  -13.6870   20.8150 C   0  0  0  0  0  2  0  0  0  0  0  0
  -30.7180  -13.9730   20.2400 N   0  0  0  0  0  0  0  0  0  0  0  0
  -32.5430  -15.2510   19.8570 O   0  0  0  0  0  0  0  0  0  0  0  0
  -30.6070  -16.3440   20.2990 N   0  0  0  0  0  0  0  0  0  0  0  0
  -29.6440  -16.2160   20.5670 H   0  0  0  0  0  0  0  0  0  0  0  0
  -25.9940  -14.3210   20.3350 C   0  0  0  0  0  0  0  0  0  0  0  0
  -24.8990  -13.5810   20.6890 C   0  0  0  0  0  0  0  0  0  0  0  0
  -25.3220  -12.2160   20.6730 C   0  0  0  0  0  0  0  0  0  0  0  0
  -27.0150  -13.4090   20.1220 N   0  0  0  0  0  0  0  0  0  0  0  0
  -26.6170  -12.1370   20.3880 N   0  0  0  0  0  0  0  0  0  0  0  0
  -24.5570  -10.9780   20.8560 C   0  0  0  0  0  0  0  0  0  0  0  0
  -24.9020  -10.0360   21.8510 C   0  0  0  0  0  3  0  0  0  0  0  0
  -24.1370   -8.8600   22.0210 C   0  0  0  0  0  3  0  0  0  0  0  0
  -23.0140   -8.6190   21.1960 C   0  0  0  0  0  0  0  0  0  0  0  0
  -22.6880   -9.5480   20.1930 C   0  0  0  0  0  3  0  0  0  0  0  0
  -23.4520  -10.7140   20.0220 C   0  0  0  0  0  3  0  0  0  0  0  0
  -22.2290   -7.4940   21.2710 O   0  0  0  0  0  0  0  0  0  0  0  0
  -22.0040   -6.8520   22.4620 C   0  0  0  0  0  0  0  0  0  0  0  0
  -21.4310   -7.5150   23.5690 C   0  0  0  0  0  3  0  0  0  0  0  0
  -21.1500   -6.8010   24.7500 C   0  0  0  0  0  3  0  0  0  0  0  0
  -21.4350   -5.4240   24.8250 C   0  0  0  0  0  0  0  0  0  0  0  0
  -22.0010   -4.7600   23.7220 C   0  0  0  0  0  3  0  0  0  0  0  0
  -22.2820   -5.4730   22.5430 C   0  0  0  0  0  0  0  0  0  0  0  0
  -22.8060   -4.8240   21.4760 F   0  0  0  0  0  0  0  0  0  0  0  0
  -21.1600   -4.7350   25.9570 F   0  0  0  0  0  0  0  0  0  0  0  0
  -23.5120  -14.1000   20.9340 C   0  0  0  0  0  0  0  0  0  0  0  0
  -22.7630  -13.4530   21.8180 N   0  0  0  0  0  0  0  0  0  0  0  0
  -23.1040  -15.1180   20.3770 O   0  0  0  0  0  0  0  0  0  0  0  0
  -23.1040  -12.6290   22.2910 H   0  0  0  0  0  0  0  0  0  0  0  0
  -21.8310  -13.7870   22.0250 H   0  0  0  0  0  0  0  0  0  0  0  0
  -26.2030  -15.6840   20.1530 N   0  0  0  0  0  0  0  0  0  0  0  0
  -25.4590  -16.3670   20.2510 H   0  0  0  0  0  0  0  0  0  0  0  0
  -27.0730  -16.0950   19.8350 H   0  0  0  0  0  0  0  0  0  0  0  0
  1  5  1  0
  3 49  1  0
  3  4  1  0
  3  1  1  0
  4  8  1  0
  4  2  1  0
  5  2  1  0
  5  7  1  0
  6  1  2  0
  8 10  1  0
  9 20  2  0
 10 15  1  0
 11 19  1  0
 11 21  1  0
 12 18  1  0
 12 14  1  0
 13 19  1  0
 14 13  1  0
 15 14  2  0
 16 17  1  0
 16 10  2  0
 17 12  2  0
 18 11  1  0
 19  9  1  0
 21 23  2  0
 22 21  1  0
 24 22  1  0
 25 34  2  0
 25 30  1  0
 26 22  1  0
 26 30  1  0
 27 26  1  0
 28 29  1  0
 28 27  1  0
 29 25  1  0
 30 31  2  0
 31 32  1  0
 33 32  2  0
 34 33  1  0
 35  9  1  0
 35 40  1  0
 35 36  1  0
 36 39  1  1
 36 37  1  0
 38 36  1  0
 40 43  1  0
 41 45  1  0
 41 40  1  0
 42 41  2  0
 45 44  1  0
 47 45  1  0
 47 48  1  0
 47 46  1  0
 49 54  1  0
 51 50  1  0
 52 50  2  0
 53 55  2  0
 53 54  1  0
 54 51  2  0
 55 52  1  0
 56 65  1  0
 56 55  1  0
 57 63  1  0
 57 65  1  0
 58 63  1  0
 59 60  1  0
 59 58  1  0
 61 60  1  0
 61 70  1  0
 61 62  1  0
 63 62  1  0
 64 57  2  0
 65 66  1  0
 67 68  2  0
 68 87  1  0
 69 68  1  0
 69 72  1  0
 70 67  1  0
 70 71  1  0
 71 69  2  0
 72 73  1  0
 73 74  2  0
 75 78  1  0
 75 74  1  0
 76 75  2  0
 77 76  1  0
 77 72  2  0
 78 79  1  0
 79 84  2  0
 79 80  1  0
 80 81  2  0
 81 82  1  0
 82 86  1  0
 83 82  2  0
 84 83  1  0
 85 84  1  0
 87 88  1  0
 88 91  1  0
 88 90  1  0
 89 87  2  0
 92 93  1  0
 92 67  1  0
 94 92  1  0
M  ISO  4   4 101   8 101  57 100  65 100
M  END
>  <TORSDO>  (54) 
F 19

>  <SCORE>  (54) 
-12.928

>  <name>  (54) 
53

>  <ligand_id>  (54) 
53

>  <original_smiles>  (54) 
[H]c1c([H])c([H])c2c(c1[H])C([H])([H])C([H])([H])C([H])([H])C2([H])N([H])C(=O)C1([H])N(C(=O)C([H])(N([H])C(=O)C([H])(N([H])C([H])([H])[H])C([H])([H])[H])C(C([H])([H])[H])(C([H])([H])[H])C([H])([H])[H])C([H])([H])c2c([H])c(OC3([H])C([H])([H])N([H])C(=O)C3([H])C([H])([H])c3c([H])c([H])c([H])c(C([H])([H])N([H])C(=O)N4C([H])([H])C([H])([H])C([H])([H])C([H])(n5nc(-c6c([H])c([H])c(Oc7c([H])c([H])c(F)c([H])c7F)c([H])c6[H])c(C(=O)N([H])[H])c5N([H])[H])C4([H])[H])c3[H])c([H])c([H])c2C1([H])[H]

>  <smiles>  (54) 
[H]c1c([H])c([H])c2c(c1[H])C([H])([H])C([H])([H])C([H])([H])C2([H])N([H])C(=O)C1([H])N(C(=O)C([H])(N([H])C(=O)C([H])(N([H])C([H])([H])[H])C([H])([H])[H])C(C([H])([H])[H])(C([H])([H])[H])C([H])([H])[H])C([H])([H])c2c([H])c(OC3([H])C([H])([H])N([H])C(=O)C3([H])C([H])([H])c3c([H])c([H])c([H])c(C([H])([H])N([H])C(=O)N4C([H])([H])C([H])([H])C([H])([H])C([H])(n5nc(-c6c([H])c([H])c(Oc7c([H])c([H])c(F)c([H])c7F)c([H])c6[H])c(C(=O)N([H])[H])c5N([H])[H])C4([H])[H])c3[H])c([H])c([H])c2C1([H])[H]

$$$$
54:0:0
     RDKit          3D

 90 98  0  0  1  0  0  0  0  0999 V2000
  -26.3530  -20.7530   18.4090 C   0  0  0  0  0  3  0  0  0  0  0  0
  -26.6460  -19.3900   18.3220 C   0  0  0  0  0  3  0  0  0  0  0  0
  -27.1990  -21.5990   19.1390 C   0  0  0  0  0  3  0  0  0  0  0  0
  -27.7700  -18.8790   18.9870 C   0  0  0  0  0  3  0  0  0  0  0  0
  -28.3590  -21.1370   19.8090 C   0  0  0  0  0  0  0  0  0  0  0  0
  -28.6440  -19.6820   19.7640 C   0  0  0  0  0  0  0  0  0  0  0  0
  -31.0590  -18.8390   19.5390 C   0  0  0  0  0  1  0  0  0  0  0  0
  -29.8030  -18.8160   20.4240 C   0  0  0  0  0  3  0  0  0  0  0  0
  -29.7900  -16.0010   20.8020 C   0  0  0  0  0  0  0  0  0  0  0  0
  -29.4010  -17.3400   20.9220 C   0  0  0  0  0  3  0  0  0  0  0  0
  -30.6740  -14.8470   20.3550 C   0  0  0  0  0  0  0  0  0  0  0  0
  -30.4990  -12.5740   19.3160 C   0  0  0  0  0  2  0  0  0  0  0  0
  -29.5600  -12.6690   18.0890 C   0  0  0  0  0  2  0  0  0  0  0  0
  -28.0870  -12.4950   18.5090 C   0  0  0  0  0  2  0  0  0  0  0  0
  -27.7130  -13.3630   19.7400 C   0  0  0  0  0  3  0  0  0  0  0  0
  -28.7680  -13.2410   20.8600 C   0  0  0  0  0  2  0  0  0  0  0  0
  -30.0710  -13.6070   20.2890 N   0  0  0  0  0  0  0  0  0  0  0  0
  -31.8540  -14.9430   19.9840 O   0  0  0  0  0  0  0  0  0  0  0  0
  -25.3180  -13.9510   20.4470 C   0  0  0  0  0  0  0  0  0  0  0  0
  -24.2530  -13.1760   20.8150 C   0  0  0  0  0  0  0  0  0  0  0  0
  -24.7210  -11.8260   20.8000 C   0  0  0  0  0  0  0  0  0  0  0  0
  -26.3670  -13.0720   20.2230 N   0  0  0  0  0  0  0  0  0  0  0  0
  -26.0140  -11.7900   20.4980 N   0  0  0  0  0  0  0  0  0  0  0  0
  -23.9980  -10.5630   20.9970 C   0  0  0  0  0  0  0  0  0  0  0  0
  -24.4270   -9.6050   21.9420 C   0  0  0  0  0  3  0  0  0  0  0  0
  -23.7030   -8.4070   22.1270 C   0  0  0  0  0  3  0  0  0  0  0  0
  -22.5370   -8.1580   21.3650 C   0  0  0  0  0  0  0  0  0  0  0  0
  -22.1270   -9.1040   20.4090 C   0  0  0  0  0  3  0  0  0  0  0  0
  -22.8500  -10.2940   20.2240 C   0  0  0  0  0  3  0  0  0  0  0  0
  -21.7860   -7.0100   21.4570 O   0  0  0  0  0  0  0  0  0  0  0  0
  -21.7300   -6.2780   22.6160 C   0  0  0  0  0  0  0  0  0  0  0  0
  -21.2910   -6.8440   23.8330 C   0  0  0  0  0  3  0  0  0  0  0  0
  -21.1820   -6.0380   24.9840 C   0  0  0  0  0  3  0  0  0  0  0  0
  -21.5010   -4.6680   24.9180 C   0  0  0  0  0  0  0  0  0  0  0  0
  -21.9320   -4.1020   23.7060 C   0  0  0  0  0  3  0  0  0  0  0  0
  -22.0440   -4.9050   22.5570 C   0  0  0  0  0  0  0  0  0  0  0  0
  -22.4400   -4.3510   21.3860 F   0  0  0  0  0  0  0  0  0  0  0  0
  -21.3890   -3.8930   26.0220 F   0  0  0  0  0  0  0  0  0  0  0  0
  -22.8530  -13.6500   21.0750 C   0  0  0  0  0  0  0  0  0  0  0  0
  -22.1230  -12.9610   21.9430 N   0  0  0  0  0  0  0  0  0  0  0  0
  -22.4140  -14.6680   20.5410 O   0  0  0  0  0  0  0  0  0  0  0  0
  -22.4920  -12.1370   22.3970 H   0  0  0  0  0  0  0  0  0  0  0  0
  -21.1840  -13.2620   22.1620 H   0  0  0  0  0  0  0  0  0  0  0  0
  -25.4830  -15.3200   20.2630 N   0  0  0  0  0  0  0  0  0  0  0  0
  -24.7220  -15.9820   20.3750 H   0  0  0  0  0  0  0  0  0  0  0  0
  -26.3490  -15.7570   19.9750 H   0  0  0  0  0  0  0  0  0  0  0  0
  -29.1310  -22.3130   20.5270 C   0  0  0  0  0  2  0  0  0  0  0  0
  -29.0720  -23.8420   19.9380 C   0  0  0  0  0  3  0  0  0  0  0  0
  -28.1050  -25.0030   20.5160 C   0  0  0  0  0  3  0  0  0  0  0  0
  -28.3120  -26.4520   20.1560 O   0  0  0  0  0  0  0  0  0  0  0  0
  -24.5980  -31.9030   23.2190 C   0  0  0  0  0  0  0  0  0  0  0  0
  -27.2040  -27.3290   20.1450 C   0  0  0  0  0  0  0  0  0  0  0  0
  -23.3920  -30.5050   21.5820 C   0  0  0  0  0  3  0  0  0  0  0  0
  -24.8410  -28.9600   20.1430 C   0  0  0  0  0  0  0  0  0  0  0  0
  -25.9320  -30.8260   21.3870 C   0  0  0  0  0  2  0  0  0  0  0  0
  -26.0140  -29.4450   20.7370 C   0  0  0  0  0  0  0  0  0  0  0  0
  -27.2000  -28.6430   20.7230 C   0  0  0  0  0  3  0  0  0  0  0  0
  -26.0100  -26.9140   19.5170 C   0  0  0  0  0  3  0  0  0  0  0  0
  -24.8430  -27.7030   19.5220 C   0  0  0  0  0  3  0  0  0  0  0  0
  -23.6030  -29.8320   20.1990 C   0  0  0  0  0  2  0  0  0  0  0  0
  -24.6600  -31.0960   22.1190 N   0  0  0  0  0  0  0  0  0  0  0  0
  -23.5160  -32.1750   23.7600 O   0  0  0  0  0  0  0  0  0  0  0  0
  -22.7360  -29.4840   22.5440 C   0  0  0  0  0  0  0  0  0  0  0  0
  -21.4090  -29.3030   22.4240 N   0  0  0  0  0  0  0  0  0  0  0  0
  -23.4210  -28.8570   23.3550 O   0  0  0  0  0  0  0  0  0  0  0  0
  -20.9140  -29.8610   21.7430 H   0  0  0  0  0  0  0  0  0  0  0  0
  -18.0390  -28.0900   22.9380 C   0  0  0  0  0  0  0  0  0  0  0  0
  -20.5980  -28.3610   23.1980 C   0  0  0  0  0  3  0  0  0  0  0  0
  -20.7040  -26.9310   22.6180 C   0  0  0  0  0  2  0  0  0  0  0  0
  -19.6000  -26.6050   21.6080 C   0  0  0  0  0  2  0  0  0  0  0  0
  -18.2190  -26.7430   22.2580 C   0  0  0  0  0  2  0  0  0  0  0  0
  -19.1570  -28.8570   23.3640 C   0  0  0  0  0  0  0  0  0  0  0  0
  -18.9340  -30.1170   23.9610 C   0  0  0  0  0  3  0  0  0  0  0  0
  -17.6270  -30.6110   24.1340 C   0  0  0  0  0  3  0  0  0  0  0  0
  -16.5250  -29.8420   23.7250 C   0  0  0  0  0  3  0  0  0  0  0  0
  -16.7320  -28.5840   23.1330 C   0  0  0  0  0  3  0  0  0  0  0  0
  -25.8800  -32.5420   23.8360 C   0  0  0  0  0  3  0  0  0  0  0  0
  -25.5660  -33.9370   24.1740 N   0  0  0  0  0  0  0  0  0  0  0  0
  -25.8910  -34.9960   23.4200 C   0  0  0  0  0  0  0  0  0  0  0  0
  -26.5550  -34.9000   22.3840 O   0  0  0  0  0  0  0  0  0  0  0  0
  -24.9760  -34.0850   24.9800 H   0  0  0  0  0  0  0  0  0  0  0  0
  -24.1570  -36.7870   23.0820 C   0  0  0  0  0  1  0  0  0  0  0  0
  -25.4010  -36.3800   23.8870 C   0  0  0  0  0  3  0  0  0  0  0  0
  -27.5350  -37.2650   24.7190 C   0  0  0  0  0  1  0  0  0  0  0  0
  -26.4310  -37.4370   23.7790 N   0  0  0  0  0  0  0  0  0  0  0  0
  -26.0230  -38.3550   23.9350 H   0  0  0  0  0  0  0  0  0  0  0  0
  -26.4060  -31.7700   25.1090 C   0  0  1  0  0  0  0  0  0  0  0  0
  -25.3210  -31.5260   26.1830 C   0  0  0  0  0  1  0  0  0  0  0  0
  -26.9920  -30.3950   24.7120 C   0  0  0  0  0  1  0  0  0  0  0  0
  -27.5580  -32.5660   25.7670 C   0  0  0  0  0  1  0  0  0  0  0  0
  1  3  1  0
  2  1  2  0
  2  4  1  0
  3  5  2  0
  4  6  2  0
  5 47  1  0
  6  5  1  0
  6  8  1  0
  8  7  1  0
  8 10  1  0
  9 10  2  0
 11  9  2  0
 12 17  1  0
 13 14  1  0
 13 12  1  0
 15 14  1  0
 15 22  1  0
 15 16  1  0
 17 11  1  0
 17 16  1  0
 18 11  2  0
 19 20  2  0
 20 39  1  0
 21 20  1  0
 21 24  1  0
 22 19  1  0
 22 23  1  0
 23 21  2  0
 24 25  1  0
 25 26  2  0
 27 30  1  0
 27 26  1  0
 28 27  2  0
 29 28  1  0
 29 24  2  0
 30 31  1  0
 31 32  1  0
 32 33  2  0
 34 33  1  0
 34 38  1  0
 35 34  2  0
 36 31  2  0
 36 35  1  0
 37 36  1  0
 39 40  1  0
 40 43  1  0
 40 42  1  0
 41 39  2  0
 44 45  1  0
 44 19  1  0
 46 44  1  0
 48 49  2  0
 48 47  1  0
 50 49  1  0
 51 62  2  0
 52 50  1  0
 52 57  1  0
 53 61  1  0
 53 63  1  0
 54 60  1  0
 54 56  1  0
 55 61  1  0
 56 55  1  0
 57 56  2  0
 58 59  1  0
 58 52  2  0
 59 54  2  0
 60 53  1  0
 61 51  1  0
 63 65  2  0
 64 63  1  0
 66 64  1  0
 67 76  2  0
 67 72  1  0
 68 64  1  0
 68 72  1  0
 69 68  1  0
 70 71  1  0
 70 69  1  0
 71 67  1  0
 72 73  2  0
 73 74  1  0
 75 74  2  0
 76 75  1  0
 77 51  1  0
 77 78  1  0
 77 87  1  0
 78 81  1  0
 79 83  1  0
 79 78  1  0
 80 79  2  0
 83 82  1  0
 85 83  1  0
 85 86  1  0
 85 84  1  0
 87 90  1  1
 87 88  1  0
 89 87  1  0
M  ISO  4   9 100  11 100  49 101  50 101
M  END
>  <TORSDO>  (55) 
F 21

>  <SCORE>  (55) 
-13.581

>  <name>  (55) 
54

>  <ligand_id>  (55) 
54

>  <original_smiles>  (55) 
[H]C(C(=O)N1C([H])([H])C([H])([H])C([H])([H])C([H])(n2nc(-c3c([H])c([H])c(Oc4c([H])c([H])c(F)c([H])c4F)c([H])c3[H])c(C(=O)N([H])[H])c2N([H])[H])C1([H])[H])=C([H])C([H])(c1c([H])c([H])c([H])c([H])c1C([H])([H])C([H])([H])C([H])([H])Oc1c([H])c([H])c2c(c1[H])C([H])([H])N(C(=O)C([H])(N([H])C(=O)C([H])(N([H])C([H])([H])[H])C([H])([H])[H])C(C([H])([H])[H])(C([H])([H])[H])C([H])([H])[H])C([H])(C(=O)N([H])C1([H])c3c([H])c([H])c([H])c([H])c3C([H])([H])C([H])([H])C1([H])[H])C2([H])[H])C([H])([H])[H]

>  <smiles>  (55) 
[H]C(C(=O)N1C([H])([H])C([H])([H])C([H])([H])C([H])(n2nc(-c3c([H])c([H])c(Oc4c([H])c([H])c(F)c([H])c4F)c([H])c3[H])c(C(=O)N([H])[H])c2N([H])[H])C1([H])[H])=C([H])C([H])(c1c([H])c([H])c([H])c([H])c1C([H])([H])C([H])([H])C([H])([H])Oc1c([H])c([H])c2c(c1[H])C([H])([H])N(C(=O)C([H])(N([H])C(=O)C([H])(N([H])C([H])([H])[H])C([H])([H])[H])C(C([H])([H])[H])(C([H])([H])[H])C([H])([H])[H])C([H])(C(=O)N([H])C1([H])c3c([H])c([H])c([H])c([H])c3C([H])([H])C([H])([H])C1([H])[H])C2([H])[H])C([H])([H])[H]

$$$$
55:0:0
     RDKit          3D

 88 96  0  0  1  0  0  0  0  0999 V2000
  -28.1280  -21.9230   20.3400 C   0  0  0  0  0  3  0  0  0  0  0  0
  -30.2770  -21.6010   20.2150 C   0  0  0  0  0  3  0  0  0  0  0  0
  -29.1340  -20.8380   20.3360 C   0  0  0  0  0  0  0  0  0  0  0  0
  -28.6080  -23.2470   20.1960 C   0  0  0  0  0  0  0  0  0  0  0  0
  -30.9850  -24.0270   19.9290 C   0  0  0  0  0  1  0  0  0  0  0  0
  -29.9840  -22.9950   20.1190 N   0  0  0  0  0  0  0  0  0  0  0  0
  -28.9910  -19.2250   20.4530 C   0  0  0  0  0  0  0  0  0  0  0  0
  -27.8430  -18.8260   20.6630 O   0  0  0  0  0  0  0  0  0  0  0  0
  -30.0910  -17.9980   20.3290 C   0  0  0  0  0  3  0  0  0  0  0  0
  -29.6850  -16.3840   20.6560 C   0  0  0  0  0  3  0  0  0  0  0  0
  -30.5220  -14.9950   20.2900 C   0  0  0  0  0  0  0  0  0  0  0  0
  -30.4110  -12.6540   19.3030 C   0  0  0  0  0  2  0  0  0  0  0  0
  -29.4600  -12.6540   18.0810 C   0  0  0  0  0  2  0  0  0  0  0  0
  -27.9980  -12.4390   18.5200 C   0  0  0  0  0  2  0  0  0  0  0  0
  -27.6110  -13.3340   19.7250 C   0  0  0  0  0  3  0  0  0  0  0  0
  -28.6800  -13.3100   20.8380 C   0  0  0  0  0  2  0  0  0  0  0  0
  -29.9560  -13.7200   20.2400 N   0  0  0  0  0  0  0  0  0  0  0  0
  -31.7030  -15.0890   19.9330 O   0  0  0  0  0  0  0  0  0  0  0  0
  -25.2340  -13.9010   20.4910 C   0  0  0  0  0  0  0  0  0  0  0  0
  -24.1750  -13.1200   20.8650 C   0  0  0  0  0  0  0  0  0  0  0  0
  -24.6430  -11.7710   20.8220 C   0  0  0  0  0  0  0  0  0  0  0  0
  -26.2770  -13.0280   20.2350 N   0  0  0  0  0  0  0  0  0  0  0  0
  -25.9320  -11.7410   20.5000 N   0  0  0  0  0  0  0  0  0  0  0  0
  -23.9210  -10.5060   21.0130 C   0  0  0  0  0  0  0  0  0  0  0  0
  -24.3510   -9.5440   21.9530 C   0  0  0  0  0  3  0  0  0  0  0  0
  -23.6270   -8.3450   22.1320 C   0  0  0  0  0  3  0  0  0  0  0  0
  -22.4610   -8.1000   21.3690 C   0  0  0  0  0  0  0  0  0  0  0  0
  -22.0510   -9.0500   20.4180 C   0  0  0  0  0  3  0  0  0  0  0  0
  -22.7740  -10.2410   20.2370 C   0  0  0  0  0  3  0  0  0  0  0  0
  -21.7100   -6.9520   21.4550 O   0  0  0  0  0  0  0  0  0  0  0  0
  -21.6360   -6.2260   22.6170 C   0  0  0  0  0  0  0  0  0  0  0  0
  -21.1660   -6.7940   23.8220 C   0  0  0  0  0  3  0  0  0  0  0  0
  -21.0410   -5.9930   24.9750 C   0  0  0  0  0  3  0  0  0  0  0  0
  -21.3750   -4.6260   24.9240 C   0  0  0  0  0  0  0  0  0  0  0  0
  -21.8370   -4.0580   23.7240 C   0  0  0  0  0  3  0  0  0  0  0  0
  -21.9640   -4.8560   22.5720 C   0  0  0  0  0  0  0  0  0  0  0  0
  -22.3890   -4.2990   21.4130 F   0  0  0  0  0  0  0  0  0  0  0  0
  -21.2480   -3.8550   26.0290 F   0  0  0  0  0  0  0  0  0  0  0  0
  -22.7790  -13.5920   21.1500 C   0  0  0  0  0  0  0  0  0  0  0  0
  -22.0610  -12.8910   22.0210 N   0  0  0  0  0  0  0  0  0  0  0  0
  -22.3330  -14.6160   20.6350 O   0  0  0  0  0  0  0  0  0  0  0  0
  -22.4340  -12.0620   22.4590 H   0  0  0  0  0  0  0  0  0  0  0  0
  -21.1250  -13.1890   22.2550 H   0  0  0  0  0  0  0  0  0  0  0  0
  -25.3900  -15.2730   20.3220 N   0  0  0  0  0  0  0  0  0  0  0  0
  -24.6250  -15.9260   20.4550 H   0  0  0  0  0  0  0  0  0  0  0  0
  -26.2430  -15.7250   20.0140 H   0  0  0  0  0  0  0  0  0  0  0  0
  -27.7840  -24.6560   19.9430 C   0  0  0  0  0  2  0  0  0  0  0  0
  -28.1980  -26.1250   20.2700 O   0  0  0  0  0  0  0  0  0  0  0  0
  -24.6140  -31.8810   23.2460 C   0  0  0  0  0  0  0  0  0  0  0  0
  -27.1770  -27.1580   20.1900 C   0  0  0  0  0  0  0  0  0  0  0  0
  -23.4110  -30.4950   21.6050 C   0  0  0  0  0  3  0  0  0  0  0  0
  -24.8570  -28.9300   20.1710 C   0  0  0  0  0  0  0  0  0  0  0  0
  -25.9700  -30.7480   21.4460 C   0  0  0  0  0  2  0  0  0  0  0  0
  -26.0400  -29.3580   20.7850 C   0  0  0  0  0  0  0  0  0  0  0  0
  -27.2000  -28.4890   20.7830 C   0  0  0  0  0  3  0  0  0  0  0  0
  -25.9670  -26.8540   19.5200 C   0  0  0  0  0  3  0  0  0  0  0  0
  -24.8340  -27.6900   19.5220 C   0  0  0  0  0  3  0  0  0  0  0  0
  -23.6320  -29.8290   20.2230 C   0  0  0  0  0  2  0  0  0  0  0  0
  -24.6850  -31.0620   22.1540 N   0  0  0  0  0  0  0  0  0  0  0  0
  -23.5280  -32.1680   23.7730 O   0  0  0  0  0  0  0  0  0  0  0  0
  -22.7300  -29.4840   22.5620 C   0  0  0  0  0  0  0  0  0  0  0  0
  -21.4020  -29.3140   22.4340 N   0  0  0  0  0  0  0  0  0  0  0  0
  -23.3990  -28.8550   23.3860 O   0  0  0  0  0  0  0  0  0  0  0  0
  -20.9170  -29.8730   21.7460 H   0  0  0  0  0  0  0  0  0  0  0  0
  -18.0180  -28.1170   22.9340 C   0  0  0  0  0  0  0  0  0  0  0  0
  -20.5770  -28.3780   23.2030 C   0  0  0  0  0  3  0  0  0  0  0  0
  -20.6780  -26.9460   22.6300 C   0  0  0  0  0  2  0  0  0  0  0  0
  -19.5770  -26.6240   21.6140 C   0  0  0  0  0  2  0  0  0  0  0  0
  -18.1940  -26.7690   22.2570 C   0  0  0  0  0  2  0  0  0  0  0  0
  -19.1370  -28.8790   23.3640 C   0  0  0  0  0  0  0  0  0  0  0  0
  -18.9150  -30.1410   23.9600 C   0  0  0  0  0  3  0  0  0  0  0  0
  -17.6100  -30.6390   24.1280 C   0  0  0  0  0  3  0  0  0  0  0  0
  -16.5070  -29.8750   23.7120 C   0  0  0  0  0  3  0  0  0  0  0  0
  -16.7110  -28.6150   23.1220 C   0  0  0  0  0  3  0  0  0  0  0  0
  -25.8930  -32.5130   23.8740 C   0  0  0  0  0  3  0  0  0  0  0  0
  -26.4030  -31.7400   25.1520 C   0  0  1  0  0  0  0  0  0  0  0  0
  -25.3050  -31.5030   26.2170 C   0  0  0  0  0  1  0  0  0  0  0  0
  -26.9850  -30.3600   24.7670 C   0  0  0  0  0  1  0  0  0  0  0  0
  -27.5530  -32.5320   25.8180 C   0  0  0  0  0  1  0  0  0  0  0  0
  -25.5820  -33.9110   24.2120 N   0  0  0  0  0  0  0  0  0  0  0  0
  -25.8910  -34.9700   23.4510 C   0  0  0  0  0  0  0  0  0  0  0  0
  -26.5350  -34.8730   22.4030 O   0  0  0  0  0  0  0  0  0  0  0  0
  -25.0070  -34.0610   25.0280 H   0  0  0  0  0  0  0  0  0  0  0  0
  -24.1360  -36.7500   23.1650 C   0  0  0  0  0  1  0  0  0  0  0  0
  -25.4110  -36.3560   23.9270 C   0  0  0  0  0  3  0  0  0  0  0  0
  -27.5690  -37.2620   24.6720 C   0  0  0  0  0  1  0  0  0  0  0  0
  -26.4300  -37.4180   23.7700 N   0  0  0  0  0  0  0  0  0  0  0  0
  -26.0230  -38.3340   23.9310 H   0  0  0  0  0  0  0  0  0  0  0  0
  2  3  2  0
  3  1  1  0
  3  7  1  0
  4  1  2  0
  5  6  1  0
  6  4  1  0
  6  2  1  0
  7  8  2  0
  9  7  1  0
  9 10  2  0
 11 10  1  0
 12 17  1  0
 13 14  1  0
 13 12  1  0
 15 14  1  0
 15 22  1  0
 15 16  1  0
 17 11  1  0
 17 16  1  0
 18 11  2  0
 19 20  2  0
 20 39  1  0
 21 20  1  0
 21 24  1  0
 22 19  1  0
 22 23  1  0
 23 21  2  0
 24 25  1  0
 25 26  2  0
 27 30  1  0
 27 26  1  0
 28 27  2  0
 29 28  1  0
 29 24  2  0
 30 31  1  0
 31 32  1  0
 32 33  2  0
 34 33  1  0
 34 38  1  0
 35 34  2  0
 36 31  2  0
 36 35  1  0
 37 36  1  0
 39 40  1  0
 40 43  1  0
 40 42  1  0
 41 39  2  0
 44 45  1  0
 44 19  1  0
 46 44  1  0
 47  4  1  0
 47 48  1  0
 49 60  2  0
 50 48  1  0
 50 55  1  0
 51 59  1  0
 51 61  1  0
 52 58  1  0
 52 54  1  0
 53 59  1  0
 54 53  1  0
 55 54  2  0
 56 57  1  0
 56 50  2  0
 57 52  2  0
 58 51  1  0
 59 49  1  0
 61 63  2  0
 62 61  1  0
 64 62  1  0
 65 74  2  0
 65 70  1  0
 66 62  1  0
 66 70  1  0
 67 66  1  0
 68 69  1  0
 68 67  1  0
 69 65  1  0
 70 71  2  0
 71 72  1  0
 73 72  2  0
 74 73  1  0
 75 49  1  0
 75 80  1  0
 75 76  1  0
 76 79  1  1
 76 77  1  0
 78 76  1  0
 80 83  1  0
 81 85  1  0
 81 80  1  0
 82 81  2  0
 85 84  1  0
 87 85  1  0
 87 88  1  0
 87 86  1  0
M  ISO  4  10 100  11 100  47 101  48 101
M  END
>  <TORSDO>  (56) 
F 20

>  <SCORE>  (56) 
-14.605

>  <name>  (56) 
55

>  <ligand_id>  (56) 
55

>  <original_smiles>  (56) 
[H]c1c([H])c([H])c2c(c1[H])C([H])([H])C([H])([H])C([H])([H])C2([H])N([H])C(=O)C1([H])N(C(=O)C([H])(N([H])C(=O)C([H])(N([H])C([H])([H])[H])C([H])([H])[H])C(C([H])([H])[H])(C([H])([H])[H])C([H])([H])[H])C([H])([H])c2c([H])c(OC([H])([H])c3c([H])c(C(=O)C([H])([H])C([H])([H])C(=O)N4C([H])([H])C([H])([H])C([H])([H])C([H])(n5nc(-c6c([H])c([H])c(Oc7c([H])c([H])c(F)c([H])c7F)c([H])c6[H])c(C(=O)N([H])[H])c5N([H])[H])C4([H])[H])c([H])n3C([H])([H])[H])c([H])c([H])c2C1([H])[H]

>  <smiles>  (56) 
[H]c1c([H])c([H])c2c(c1[H])C([H])([H])C([H])([H])C([H])([H])C2([H])N([H])C(=O)C1([H])N(C(=O)C([H])(N([H])C(=O)C([H])(N([H])C([H])([H])[H])C([H])([H])[H])C(C([H])([H])[H])(C([H])([H])[H])C([H])([H])[H])C([H])([H])c2c([H])c(OC([H])([H])c3c([H])c(C(=O)C([H])([H])C([H])([H])C(=O)N4C([H])([H])C([H])([H])C([H])([H])C([H])(n5nc(-c6c([H])c([H])c(Oc7c([H])c([H])c(F)c([H])c7F)c([H])c6[H])c(C(=O)N([H])[H])c5N([H])[H])C4([H])[H])c([H])n3C([H])([H])[H])c([H])c([H])c2C1([H])[H]

$$$$
56:0:0
     RDKit          3D

 95 96  0  0  1  0  0  0  0  0999 V2000
  -18.7660  -28.6490   22.1420 C   0  0  0  0  0  2  0  0  0  0  0  0
  -18.6420  -26.5060   23.5640 C   0  0  0  0  0  1  0  0  0  0  0  0
  -20.0780  -28.8760   21.2320 C   0  0  0  0  0  1  0  0  0  0  0  0
  -20.0900  -25.4410   23.3930 C   0  0  0  0  0  2  0  0  0  0  0  0
  -21.3130  -27.7860   21.2440 C   0  0  0  0  0  3  0  0  0  0  0  0
  -21.4900  -25.7680   22.3850 C   0  0  0  0  0  2  0  0  0  0  0  0
  -22.4770  -28.6500   20.2610 C   0  0  0  0  0  0  0  0  0  0  0  0
  -22.2560  -29.8240   19.9580 O   0  0  0  0  0  0  0  0  0  0  0  0
  -23.9110  -28.1130   19.4810 C   0  0  0  0  0  2  0  0  0  0  0  0
  -25.2120  -26.9790   19.7010 C   0  0  0  0  0  2  0  0  0  0  0  0
  -26.3860  -26.6230   20.8820 C   0  0  0  0  0  2  0  0  0  0  0  0
  -27.9350  -26.7930   20.8510 O   0  0  0  0  0  0  0  0  0  0  0  0
  -26.3770  -31.9420   25.0390 C   0  0  0  0  0  0  0  0  0  0  0  0
  -28.1750  -28.1100   20.7230 C   0  0  0  0  0  0  0  0  0  0  0  0
  -25.1310  -31.3060   23.0590 C   0  0  0  0  0  3  0  0  0  0  0  0
  -26.3850  -30.1390   21.1870 C   0  0  0  0  0  0  0  0  0  0  0  0
  -27.6700  -31.0970   23.0780 C   0  0  0  0  0  2  0  0  0  0  0  0
  -27.4990  -30.0250   22.0250 C   0  0  0  0  0  0  0  0  0  0  0  0
  -28.3910  -28.9420   21.8480 C   0  0  0  0  0  3  0  0  0  0  0  0
  -27.3730  -28.5400   19.6750 C   0  0  0  0  0  3  0  0  0  0  0  0
  -26.3670  -29.4530   19.9810 C   0  0  0  0  0  3  0  0  0  0  0  0
  -25.3300  -31.1530   21.5370 C   0  0  0  0  0  2  0  0  0  0  0  0
  -26.4180  -31.5060   23.7560 N   0  0  0  0  0  0  0  0  0  0  0  0
  -25.3100  -32.2580   25.5880 O   0  0  0  0  0  0  0  0  0  0  0  0
  -24.5310  -30.0360   23.6460 C   0  0  0  0  0  0  0  0  0  0  0  0
  -23.3270  -29.7210   23.3520 N   0  0  0  0  0  0  0  0  0  0  0  0
  -25.1630  -29.2660   24.3600 O   0  0  0  0  0  0  0  0  0  0  0  0
  -22.6940  -30.3390   22.8620 H   0  0  0  0  0  0  0  0  0  0  0  0
  -19.5980  -28.1000   22.1830 C   0  0  0  0  0  3  0  0  0  0  0  0
  -22.9280  -28.3430   23.6050 C   0  0  0  0  0  2  0  0  0  0  0  0
  -23.5350  -27.0410   22.2000 C   0  0  0  0  0 15  0  0  0  0  0  0
  -21.9310  -26.3020   20.6030 C   0  0  0  0  0  2  0  0  0  0  0  0
  -19.9960  -26.9730   20.8860 C   0  0  0  0  0  2  0  0  0  0  0  0
  -21.3740  -28.8440   23.7340 C   0  0  0  0  0  3  0  0  0  0  0  0
  -20.7960  -30.1300   24.8760 C   0  0  0  0  0  3  0  0  0  0  0  0
  -19.1630  -30.7220   24.8650 C   0  0  0  0  0  3  0  0  0  0  0  0
  -17.9010  -30.2160   23.8110 C   0  0  0  0  0  3  0  0  0  0  0  0
  -18.0270  -29.0050   22.5320 C   0  0  0  0  0  2  0  0  0  0  0  0
  -27.6820  -32.0650   25.8600 C   0  0  0  0  0  3  0  0  0  0  0  0
  -27.7290  -33.4460   26.3410 N   0  0  0  0  0  0  0  0  0  0  0  0
  -28.4600  -34.4080   25.7700 C   0  0  0  0  0  0  0  0  0  0  0  0
  -29.2420  -34.1970   24.8390 O   0  0  0  0  0  0  0  0  0  0  0  0
  -27.0710  -33.7020   27.0630 H   0  0  0  0  0  0  0  0  0  0  0  0
  -27.4690  -36.6820   25.3650 C   0  0  0  0  0  1  0  0  0  0  0  0
  -28.3050  -35.8310   26.3340 C   0  0  0  0  0  3  0  0  0  0  0  0
  -30.3540  -35.8730   27.6830 C   0  0  0  0  0  1  0  0  0  0  0  0
  -29.5970  -36.4980   26.6000 N   0  0  0  0  0  0  0  0  0  0  0  0
  -29.4530  -37.4760   26.8390 H   0  0  0  0  0  0  0  0  0  0  0  0
  -27.7650  -31.0410   27.0550 C   0  0  1  0  0  0  0  0  0  0  0  0
  -26.5090  -31.0330   27.9580 C   0  0  0  0  0  1  0  0  0  0  0  0
  -27.9940  -29.5980   26.5460 C   0  0  0  0  0  1  0  0  0  0  0  0
  -28.9880  -31.3880   27.9320 C   0  0  0  0  0  1  0  0  0  0  0  0
  -23.6260  -24.3570   22.2230 C   0  0  0  0  0 15  0  0  0  0  0  0
  -25.3560  -22.1020   20.7560 C   0  0  0  0  0  1  0  0  0  0  0  0
  -26.0130  -23.2770   21.4990 C   0  0  0  0  0  1  0  0  0  0  0  0
  -29.9170  -21.4440   20.9200 C   0  0  0  0  0  1  0  0  0  0  0  0
  -28.3230  -22.2920   21.5660 C   0  0  0  0  0  2  0  0  0  0  0  0
  -31.9730  -20.5910   20.8770 C   0  0  0  0  0  2  0  0  0  0  0  0
  -34.9170  -20.0110   20.0260 C   0  0  0  0  0  2  0  0  0  0  0  0
  -35.9760  -20.8610   19.1250 C   0  0  0  0  0  2  0  0  0  0  0  0
  -35.5180  -21.0230   17.6800 C   0  0  0  0  0  2  0  0  0  0  0  0
  -34.0020  -20.9780   17.7950 C   0  0  0  0  0  3  0  0  0  0  0  0
  -33.3700  -19.7620   18.4990 C   0  0  0  0  0  2  0  0  0  0  0  0
  -33.2530  -20.2140   19.8990 N   0  0  0  0  0  0  0  0  0  0  0  0
  -32.8160  -20.1460   21.7920 O   0  0  0  0  0  1  0  0  0  0  0  0
  -31.9510  -21.6590   16.6900 C   0  0  0  0  0  0  0  0  0  0  0  0
  -31.5680  -21.6730   15.3960 C   0  0  0  0  0  0  0  0  0  0  0  0
  -32.6800  -21.1760   14.6460 C   0  0  0  0  0  0  0  0  0  0  0  0
  -33.2380  -21.1900   16.6490 N   0  0  0  0  0  0  0  0  0  0  0  0
  -33.6720  -20.8070   15.4380 N   0  0  0  0  0  0  0  0  0  0  0  0
  -32.8880  -21.1120   13.2090 C   0  0  0  0  0  0  0  0  0  0  0  0
  -33.2650  -19.9130   12.5710 C   0  0  0  0  0  3  0  0  0  0  0  0
  -33.4400  -19.8860   11.1740 C   0  0  0  0  0  3  0  0  0  0  0  0
  -33.2360  -21.0620   10.4150 C   0  0  0  0  0  0  0  0  0  0  0  0
  -32.8910  -22.2590   11.0650 C   0  0  0  0  0  3  0  0  0  0  0  0
  -32.7240  -22.2870   12.4560 C   0  0  0  0  0  3  0  0  0  0  0  0
  -33.3970  -21.1380    9.0550 O   0  0  0  0  0  0  0  0  0  0  0  0
  -33.2400  -20.0380    8.2550 C   0  0  0  0  0  0  0  0  0  0  0  0
  -32.0340  -19.3050    8.2260 C   0  0  0  0  0  3  0  0  0  0  0  0
  -31.8900  -18.2240    7.3350 C   0  0  0  0  0  3  0  0  0  0  0  0
  -32.9450  -17.8790    6.4690 C   0  0  0  0  0  0  0  0  0  0  0  0
  -34.1460  -18.6100    6.4950 C   0  0  0  0  0  3  0  0  0  0  0  0
  -34.2910  -19.6880    7.3860 C   0  0  0  0  0  0  0  0  0  0  0  0
  -35.4410  -20.4050    7.3970 F   0  0  0  0  0  0  0  0  0  0  0  0
  -32.8080  -16.8460    5.6060 F   0  0  0  0  0  0  0  0  0  0  0  0
  -30.2800  -22.2340   14.8990 C   0  0  0  0  0  0  0  0  0  0  0  0
  -29.7770  -21.7140   13.7900 N   0  0  0  0  0  0  0  0  0  0  0  0
  -29.6860  -23.1060   15.5340 O   0  0  0  0  0  0  0  0  0  0  0  0
  -30.2600  -20.9850   13.2830 H   0  0  0  0  0  0  0  0  0  0  0  0
  -28.8900  -22.0510   13.4420 H   0  0  0  0  0  0  0  0  0  0  0  0
  -31.3300  -22.0200   17.8870 N   0  0  0  0  0  0  0  0  0  0  0  0
  -30.4790  -22.5680   17.8250 H   0  0  0  0  0  0  0  0  0  0  0  0
  -31.8920  -22.2710   18.6910 H   0  0  0  0  0  0  0  0  0  0  0  0
  -28.5380  -22.5710   22.8560 O   0  0  0  0  0  0  0  0  0  0  0  0
  -27.7690  -23.0310   23.1760 H   0  0  0  0  0  0  0  0  0  0  0  0
  1 29  1  0
  1 38  1  0
  4  2  1  0
  5 32  1  0
  6  4  1  0
  7  5  1  0
  8  7  2  0
  9 10  1  0
  9  7  1  0
 10 11  1  0
 12 11  1  0
 13 24  2  0
 14 12  1  0
 14 19  1  0
 15 22  1  0
 15 25  1  0
 15 23  1  0
 16 22  1  0
 16 18  1  0
 17 23  1  0
 18 17  1  0
 19 18  2  0
 20 21  1  0
 20 14  2  0
 21 16  2  0
 23 13  1  0
 25 27  2  0
 26 30  1  0
 26 25  1  0
 28 26  1  0
 29  3  1  0
 30 34  1  0
 32  6  1  0
 33  5  1  0
 33 29  1  0
 34 35  2  0
 36 35  1  0
 37 36  2  0
 38 37  1  0
 39 13  1  0
 39 40  1  0
 39 49  1  0
 40 43  1  0
 41 45  1  0
 41 40  1  0
 42 41  2  0
 45 44  1  0
 45 47  1  0
 47 48  1  0
 47 46  1  0
 49 52  1  1
 49 50  1  0
 51 49  1  0
 54 55  1  0
 56 57  1  0
 57 94  1  0
 58 65  1  0
 60 59  1  0
 61 62  1  0
 61 60  1  0
 62 69  1  0
 62 63  1  0
 63 64  1  0
 64 59  1  0
 64 58  1  0
 66 91  1  0
 67 66  2  0
 68 67  1  0
 68 70  2  0
 69 66  1  0
 70 69  1  0
 71 68  1  0
 72 71  1  0
 73 72  2  0
 74 75  2  0
 74 73  1  0
 75 76  1  0
 76 71  2  0
 77 74  1  0
 78 77  1  0
 79 78  1  0
 80 79  2  0
 81 82  2  0
 81 80  1  0
 82 83  1  0
 83 84  1  0
 83 78  2  0
 85 81  1  0
 86 67  1  0
 86 88  2  0
 87 86  1  0
 89 87  1  0
 90 87  1  0
 91 93  1  0
 92 91  1  0
 94 95  1  0
M  ISO  4  11 101  12 101  56 100  58 100
M  END
>  <TORSDO>  (57) 
F 24

>  <SCORE>  (57) 
3.999

>  <name>  (57) 
56

>  <ligand_id>  (57) 
56

>  <original_smiles>  (57) 
[H]OC(=C([H])C(=O)N1C([H])([H])C([H])([H])C([H])([H])C([H])(n2nc(-c3c([H])c([H])c(Oc4c([H])c([H])c(F)c([H])c4F)c([H])c3[H])c(C(=O)N([H])[H])c2N([H])[H])C1([H])[H])C([H])(C([H])([H])[H])C([H])([H])c1c([H])c([H])c([H])c([H])c1C(=O)C([H])([H])C([H])([H])C([H])([H])Oc1c([H])c([H])c2c(c1[H])C([H])([H])N(C(=O)C([H])(N([H])C(=O)C([H])(N([H])C([H])([H])[H])C([H])([H])[H])C(C([H])([H])[H])(C([H])([H])[H])C([H])([H])[H])C([H])(C(=O)N([H])C1([H])c3c([H])c([H])c([H])c([H])c3C([H])([H])C([H])([H])C1([H])[H])C2([H])[H]

>  <smiles>  (57) 
[H]OC(=C([H])C(=O)N1C([H])([H])C([H])([H])C([H])([H])C([H])(n2nc(-c3c([H])c([H])c(Oc4c([H])c([H])c(F)c([H])c4F)c([H])c3[H])c(C(=O)N([H])[H])c2N([H])[H])C1([H])[H])C([H])(C([H])([H])[H])C([H])([H])c1c([H])c([H])c([H])c([H])c1C(=O)C([H])([H])C([H])([H])C([H])([H])Oc1c([H])c([H])c2c(c1[H])C([H])([H])N(C(=O)C([H])(N([H])C(=O)C([H])(N([H])C([H])([H])[H])C([H])([H])[H])C(C([H])([H])[H])(C([H])([H])[H])C([H])([H])[H])C([H])(C(=O)N([H])C1([H])c3c([H])c([H])c([H])c([H])c3C([H])([H])C([H])([H])C1([H])[H])C2([H])[H]

$$$$
57:0:0
     RDKit          3D

 86 93  0  0  1  0  0  0  0  0999 V2000
  -29.2450  -19.8630   20.0660 C   0  0  0  0  0  3  0  0  0  0  0  0
  -29.1350  -21.2320   20.6000 C   0  0  0  0  0  0  0  0  0  0  0  0
  -29.7910  -18.3690   20.6410 C   0  0  0  0  0  0  0  0  0  0  0  0
  -30.5560  -18.4240   21.6080 O   0  0  0  0  0  0  0  0  0  0  0  0
  -29.4770  -16.7310   20.1520 C   0  0  0  0  0  2  0  0  0  0  0  0
  -30.3780  -15.2340   20.2380 C   0  0  0  0  0  0  0  0  0  0  0  0
  -30.3730  -12.7910   19.3770 C   0  0  0  0  0  2  0  0  0  0  0  0
  -29.4370  -12.6300   18.1490 C   0  0  0  0  0  2  0  0  0  0  0  0
  -27.9840  -12.3730   18.5920 C   0  0  0  0  0  2  0  0  0  0  0  0
  -27.5500  -13.3230   19.7340 C   0  0  0  0  0  3  0  0  0  0  0  0
  -28.6070  -13.4320   20.8510 C   0  0  0  0  0  2  0  0  0  0  0  0
  -29.8510  -13.9140   20.2330 N   0  0  0  0  0  0  0  0  0  0  0  0
  -31.6020  -15.2480   20.0370 O   0  0  0  0  0  0  0  0  0  0  0  0
  -25.1880  -13.8820   20.5200 C   0  0  0  0  0  0  0  0  0  0  0  0
  -24.1280  -13.1050   20.8950 C   0  0  0  0  0  0  0  0  0  0  0  0
  -24.5920  -11.7550   20.8500 C   0  0  0  0  0  0  0  0  0  0  0  0
  -26.2260  -13.0070   20.2550 N   0  0  0  0  0  0  0  0  0  0  0  0
  -25.8800  -11.7200   20.5240 N   0  0  0  0  0  0  0  0  0  0  0  0
  -23.8640  -10.4920   21.0380 C   0  0  0  0  0  0  0  0  0  0  0  0
  -24.2950   -9.5190   21.9660 C   0  0  0  0  0  3  0  0  0  0  0  0
  -23.5650   -8.3250   22.1430 C   0  0  0  0  0  3  0  0  0  0  0  0
  -22.3880   -8.0940   21.3920 C   0  0  0  0  0  0  0  0  0  0  0  0
  -21.9760   -9.0540   20.4520 C   0  0  0  0  0  3  0  0  0  0  0  0
  -22.7060  -10.2410   20.2730 C   0  0  0  0  0  3  0  0  0  0  0  0
  -21.6290   -6.9510   21.4780 O   0  0  0  0  0  0  0  0  0  0  0  0
  -21.5750   -6.2080   22.6300 C   0  0  0  0  0  0  0  0  0  0  0  0
  -21.1400   -6.7620   23.8540 C   0  0  0  0  0  3  0  0  0  0  0  0
  -21.0320   -5.9460   24.9970 C   0  0  0  0  0  3  0  0  0  0  0  0
  -21.3490   -4.5780   24.9190 C   0  0  0  0  0  0  0  0  0  0  0  0
  -21.7770   -4.0230   23.7000 C   0  0  0  0  0  3  0  0  0  0  0  0
  -21.8860   -4.8360   22.5580 C   0  0  0  0  0  0  0  0  0  0  0  0
  -22.2790   -4.2910   21.3810 F   0  0  0  0  0  0  0  0  0  0  0  0
  -21.2390   -3.7910   26.0160 F   0  0  0  0  0  0  0  0  0  0  0  0
  -22.7340  -13.5840   21.1800 C   0  0  0  0  0  0  0  0  0  0  0  0
  -22.0090  -12.8820   22.0420 N   0  0  0  0  0  0  0  0  0  0  0  0
  -22.2980  -14.6160   20.6710 O   0  0  0  0  0  0  0  0  0  0  0  0
  -22.3760  -12.0470   22.4750 H   0  0  0  0  0  0  0  0  0  0  0  0
  -21.0740  -13.1850   22.2750 H   0  0  0  0  0  0  0  0  0  0  0  0
  -25.3520  -15.2550   20.3530 N   0  0  0  0  0  0  0  0  0  0  0  0
  -24.5860  -15.9080   20.4790 H   0  0  0  0  0  0  0  0  0  0  0  0
  -26.1930  -15.6950   20.0060 H   0  0  0  0  0  0  0  0  0  0  0  0
  -29.4210  -21.4250   21.8940 O   0  0  0  0  0  0  0  0  0  0  0  0
  -29.3800  -22.3560   22.0670 H   0  0  0  0  0  0  0  0  0  0  0  0
  -28.7810  -22.8070   19.9560 C   0  0  0  0  0  2  0  0  0  0  0  0
  -28.1230  -24.3300   20.6330 C   0  0  0  0  0  2  0  0  0  0  0  0
  -28.2800  -25.9270   20.3040 O   0  0  0  0  0  0  0  0  0  0  0  0
  -24.6420  -31.8610   23.2220 C   0  0  0  0  0  0  0  0  0  0  0  0
  -27.2340  -26.9780   20.2970 C   0  0  0  0  0  0  0  0  0  0  0  0
  -23.4580  -30.4370   21.6010 C   0  0  0  0  0  3  0  0  0  0  0  0
  -24.9190  -28.8190   20.2130 C   0  0  0  0  0  0  0  0  0  0  0  0
  -26.0220  -30.6670   21.4550 C   0  0  0  0  0  2  0  0  0  0  0  0
  -26.1020  -29.2500   20.8240 C   0  0  0  0  0  0  0  0  0  0  0  0
  -27.2590  -28.3530   20.8340 C   0  0  0  0  0  3  0  0  0  0  0  0
  -26.0160  -26.6820   19.6460 C   0  0  0  0  0  3  0  0  0  0  0  0
  -24.8970  -27.5530   19.6020 C   0  0  0  0  0  3  0  0  0  0  0  0
  -23.6950  -29.7330   20.2360 C   0  0  0  0  0  2  0  0  0  0  0  0
  -24.7290  -31.0160   22.1460 N   0  0  0  0  0  0  0  0  0  0  0  0
  -23.5500  -32.1530   23.7370 O   0  0  0  0  0  0  0  0  0  0  0  0
  -22.7680  -29.4510   22.5780 C   0  0  0  0  0  0  0  0  0  0  0  0
  -21.4390  -29.2780   22.4490 N   0  0  0  0  0  0  0  0  0  0  0  0
  -23.4330  -28.8410   23.4190 O   0  0  0  0  0  0  0  0  0  0  0  0
  -20.9550  -29.8210   21.7470 H   0  0  0  0  0  0  0  0  0  0  0  0
  -18.0610  -28.0570   22.9560 C   0  0  0  0  0  0  0  0  0  0  0  0
  -20.6170  -28.3490   23.2310 C   0  0  0  0  0  3  0  0  0  0  0  0
  -20.7330  -26.9070   22.6820 C   0  0  0  0  0  2  0  0  0  0  0  0
  -19.6390  -26.5590   21.6660 C   0  0  0  0  0  2  0  0  0  0  0  0
  -18.2530  -26.7010   22.3010 C   0  0  0  0  0  2  0  0  0  0  0  0
  -19.1700  -28.8380   23.3780 C   0  0  0  0  0  0  0  0  0  0  0  0
  -18.9340  -30.1050   23.9540 C   0  0  0  0  0  3  0  0  0  0  0  0
  -17.6230  -30.5940   24.1110 C   0  0  0  0  0  3  0  0  0  0  0  0
  -16.5290  -29.8110   23.7010 C   0  0  0  0  0  3  0  0  0  0  0  0
  -16.7480  -28.5450   23.1300 C   0  0  0  0  0  3  0  0  0  0  0  0
  -25.9090  -32.5170   23.8510 C   0  0  0  0  0  3  0  0  0  0  0  0
  -25.5830  -33.9180   24.1690 N   0  0  0  0  0  0  0  0  0  0  0  0
  -25.9150  -34.9740   23.4150 C   0  0  0  0  0  0  0  0  0  0  0  0
  -26.5910  -34.8710   22.3870 O   0  0  0  0  0  0  0  0  0  0  0  0
  -24.9820  -34.0700   24.9650 H   0  0  0  0  0  0  0  0  0  0  0  0
  -24.1870  -36.7700   23.0500 C   0  0  0  0  0  1  0  0  0  0  0  0
  -25.4230  -36.3640   23.8680 C   0  0  0  0  0  3  0  0  0  0  0  0
  -27.5490  -37.2570   24.7140 C   0  0  0  0  0  1  0  0  0  0  0  0
  -26.4550  -37.4200   23.7620 N   0  0  0  0  0  0  0  0  0  0  0  0
  -26.0450  -38.3390   23.9020 H   0  0  0  0  0  0  0  0  0  0  0  0
  -26.4150  -31.7700   25.1470 C   0  0  1  0  0  0  0  0  0  0  0  0
  -25.3130  -31.5460   26.2090 C   0  0  0  0  0  1  0  0  0  0  0  0
  -27.0070  -30.3870   24.7910 C   0  0  0  0  0  1  0  0  0  0  0  0
  -27.5560  -32.5800   25.8060 C   0  0  0  0  0  1  0  0  0  0  0  0
  1  2  2  0
  1  3  1  0
  2 42  1  0
  3  4  2  0
  5  6  1  0
  5  3  1  0
  7 12  1  0
  8  9  1  0
  8  7  1  0
 10  9  1  0
 10 17  1  0
 10 11  1  0
 12  6  1  0
 12 11  1  0
 13  6  2  0
 14 15  2  0
 15 34  1  0
 16 15  1  0
 16 19  1  0
 17 14  1  0
 17 18  1  0
 18 16  2  0
 19 20  1  0
 20 21  2  0
 22 25  1  0
 22 21  1  0
 23 22  2  0
 24 23  1  0
 24 19  2  0
 25 26  1  0
 26 27  1  0
 27 28  2  0
 29 28  1  0
 29 33  1  0
 30 29  2  0
 31 26  2  0
 31 30  1  0
 32 31  1  0
 34 35  1  0
 35 38  1  0
 35 37  1  0
 36 34  2  0
 39 40  1  0
 39 14  1  0
 41 39  1  0
 42 43  1  0
 44  2  1  0
 44 45  1  0
 46 45  1  0
 47 58  2  0
 48 46  1  0
 48 53  1  0
 49 57  1  0
 49 59  1  0
 50 56  1  0
 50 52  1  0
 51 57  1  0
 52 53  2  0
 52 51  1  0
 54 48  2  0
 55 54  1  0
 55 50  2  0
 56 49  1  0
 57 47  1  0
 59 61  2  0
 60 59  1  0
 62 60  1  0
 63 72  2  0
 63 68  1  0
 64 60  1  0
 64 68  1  0
 65 64  1  0
 66 67  1  0
 66 65  1  0
 67 63  1  0
 68 69  2  0
 69 70  1  0
 71 70  2  0
 72 71  1  0
 73 47  1  0
 73 74  1  0
 73 83  1  0
 74 77  1  0
 75 79  1  0
 75 74  1  0
 76 75  2  0
 79 78  1  0
 81 79  1  0
 81 82  1  0
 81 80  1  0
 83 86  1  1
 83 84  1  0
 85 83  1  0
M  ISO  4   5 100   6 100  45 101  46 101
M  END
>  <TORSDO>  (58) 
F 21

>  <SCORE>  (58) 
-15.342

>  <name>  (58) 
57

>  <ligand_id>  (58) 
57

>  <original_smiles>  (58) 
[H]OC(=C([H])C(=O)C([H])([H])C(=O)N1C([H])([H])C([H])([H])C([H])([H])C([H])(n2nc(-c3c([H])c([H])c(Oc4c([H])c([H])c(F)c([H])c4F)c([H])c3[H])c(C(=O)N([H])[H])c2N([H])[H])C1([H])[H])C([H])([H])C([H])([H])Oc1c([H])c([H])c2c(c1[H])C([H])([H])N(C(=O)C([H])(N([H])C(=O)C([H])(N([H])C([H])([H])[H])C([H])([H])[H])C(C([H])([H])[H])(C([H])([H])[H])C([H])([H])[H])C([H])(C(=O)N([H])C1([H])c3c([H])c([H])c([H])c([H])c3C([H])([H])C([H])([H])C1([H])[H])C2([H])[H]

>  <smiles>  (58) 
[H]OC(=C([H])C(=O)C([H])([H])C(=O)N1C([H])([H])C([H])([H])C([H])([H])C([H])(n2nc(-c3c([H])c([H])c(Oc4c([H])c([H])c(F)c([H])c4F)c([H])c3[H])c(C(=O)N([H])[H])c2N([H])[H])C1([H])[H])C([H])([H])C([H])([H])Oc1c([H])c([H])c2c(c1[H])C([H])([H])N(C(=O)C([H])(N([H])C(=O)C([H])(N([H])C([H])([H])[H])C([H])([H])[H])C(C([H])([H])[H])(C([H])([H])[H])C([H])([H])[H])C([H])(C(=O)N([H])C1([H])c3c([H])c([H])c([H])c([H])c3C([H])([H])C([H])([H])C1([H])[H])C2([H])[H]

$$$$
58:0:0
     RDKit          3D

 94102  0  0  1  0  0  0  0  0999 V2000
  -28.2440  -20.6580   21.9110 C   0  0  0  0  0  1  0  0  0  0  0  0
  -29.2070  -21.4970   21.0440 C   0  0  0  0  0  3  0  0  0  0  0  0
  -33.3970  -20.2260   21.5920 C   0  0  0  0  0  3  0  0  0  0  0  0
  -32.9530  -21.4890   21.9960 C   0  0  0  0  0  3  0  0  0  0  0  0
  -32.4860  -19.3190   21.0310 C   0  0  0  0  0  3  0  0  0  0  0  0
  -31.6090  -21.8480   21.8130 C   0  0  0  0  0  3  0  0  0  0  0  0
  -31.1140  -19.6300   20.8620 C   0  0  0  0  0  0  0  0  0  0  0  0
  -30.6610  -20.9610   21.2300 C   0  0  0  0  0  0  0  0  0  0  0  0
  -30.2820  -18.4930   20.1990 C   0  0  0  0  0  3  0  0  0  0  0  0
  -30.3820  -17.0400   20.8630 C   0  0  0  0  0  3  0  0  0  0  0  0
  -30.5770  -14.6460   20.0490 C   0  0  0  0  0  0  0  0  0  0  0  0
  -30.2490  -12.4220   19.0110 C   0  0  0  0  0  2  0  0  0  0  0  0
  -29.2540  -12.5260   17.8370 C   0  0  0  0  0  2  0  0  0  0  0  0
  -27.8030  -12.3740   18.3340 C   0  0  0  0  0  2  0  0  0  0  0  0
  -27.4850  -13.2320   19.5930 C   0  0  0  0  0  3  0  0  0  0  0  0
  -28.6090  -13.1480   20.6500 C   0  0  0  0  0  2  0  0  0  0  0  0
  -29.8830  -13.4640   19.9860 N   0  0  0  0  0  0  0  0  0  0  0  0
  -31.7820  -14.6900   19.7920 O   0  0  0  0  0  0  0  0  0  0  0  0
  -29.1510  -16.2120   18.8860 C   0  0  0  0  0  1  0  0  0  0  0  0
  -29.8680  -15.8300   20.1140 N   0  0  0  0  0  0  0  0  0  0  0  0
  -25.1320  -13.8030   20.4400 C   0  0  0  0  0  0  0  0  0  0  0  0
  -24.0870  -13.0150   20.8420 C   0  0  0  0  0  0  0  0  0  0  0  0
  -24.5630  -11.6690   20.7780 C   0  0  0  0  0  0  0  0  0  0  0  0
  -26.1720  -12.9330   20.1490 N   0  0  0  0  0  0  0  0  0  0  0  0
  -25.8410  -11.6460   20.4180 N   0  0  0  0  0  0  0  0  0  0  0  0
  -23.8590  -10.3970   20.9730 C   0  0  0  0  0  0  0  0  0  0  0  0
  -24.3240   -9.4300   21.8930 C   0  0  0  0  0  3  0  0  0  0  0  0
  -23.6210   -8.2200   22.0800 C   0  0  0  0  0  3  0  0  0  0  0  0
  -22.4370   -7.9680   21.3480 C   0  0  0  0  0  0  0  0  0  0  0  0
  -21.9920   -8.9210   20.4170 C   0  0  0  0  0  3  0  0  0  0  0  0
  -22.6930  -10.1230   20.2290 C   0  0  0  0  0  3  0  0  0  0  0  0
  -21.6980   -6.8150   21.4520 O   0  0  0  0  0  0  0  0  0  0  0  0
  -21.6790   -6.0750   22.6070 C   0  0  0  0  0  0  0  0  0  0  0  0
  -21.2410   -6.6190   23.8340 C   0  0  0  0  0  3  0  0  0  0  0  0
  -21.1760   -5.8040   24.9810 C   0  0  0  0  0  3  0  0  0  0  0  0
  -21.5320   -4.4430   24.9010 C   0  0  0  0  0  0  0  0  0  0  0  0
  -21.9580   -3.8980   23.6780 C   0  0  0  0  0  3  0  0  0  0  0  0
  -22.0310   -4.7120   22.5340 C   0  0  0  0  0  0  0  0  0  0  0  0
  -22.4230   -4.1770   21.3520 F   0  0  0  0  0  0  0  0  0  0  0  0
  -21.4580   -3.6580   26.0000 F   0  0  0  0  0  0  0  0  0  0  0  0
  -22.6960  -13.4750   21.1690 C   0  0  0  0  0  0  0  0  0  0  0  0
  -22.0060  -12.7610   22.0500 N   0  0  0  0  0  0  0  0  0  0  0  0
  -22.2300  -14.5010   20.6760 O   0  0  0  0  0  0  0  0  0  0  0  0
  -22.3970  -11.9320   22.4740 H   0  0  0  0  0  0  0  0  0  0  0  0
  -21.0740  -13.0520   22.3130 H   0  0  0  0  0  0  0  0  0  0  0  0
  -25.2840  -15.1760   20.2710 N   0  0  0  0  0  0  0  0  0  0  0  0
  -24.5310  -15.8400   20.4200 H   0  0  0  0  0  0  0  0  0  0  0  0
  -26.1480  -15.6060   19.9700 H   0  0  0  0  0  0  0  0  0  0  0  0
  -28.9540  -22.9460   21.4110 N   0  0  0  0  0  4  0  0  0  0  0  0
  -27.9540  -23.0160   21.5190 H   0  0  0  0  0  0  0  0  0  0  0  0
  -29.3340  -23.0960   22.3330 H   0  0  0  0  0  0  0  0  0  0  0  0
  -29.3590  -24.1120   20.5380 C   0  0  0  0  0  2  0  0  0  0  0  0
  -28.1770  -25.1140   20.2590 C   0  0  0  0  0  2  0  0  0  0  0  0
  -28.4370  -26.5580   20.1640 O   0  0  0  0  0  0  0  0  0  0  0  0
  -24.6580  -31.8430   23.2200 C   0  0  0  0  0  0  0  0  0  0  0  0
  -27.3050  -27.3760   20.1130 C   0  0  0  0  0  0  0  0  0  0  0  0
  -23.4580  -30.4560   21.5640 C   0  0  0  0  0  3  0  0  0  0  0  0
  -24.9200  -28.9410   20.1190 C   0  0  0  0  0  0  0  0  0  0  0  0
  -25.9900  -30.8110   21.3740 C   0  0  0  0  0  2  0  0  0  0  0  0
  -26.0830  -29.4420   20.7160 C   0  0  0  0  0  0  0  0  0  0  0  0
  -27.2790  -28.6730   20.7060 C   0  0  0  0  0  3  0  0  0  0  0  0
  -26.1180  -26.9260   19.4860 C   0  0  0  0  0  3  0  0  0  0  0  0
  -24.9380  -27.6860   19.4950 C   0  0  0  0  0  3  0  0  0  0  0  0
  -23.6720  -29.7930   20.1780 C   0  0  0  0  0  2  0  0  0  0  0  0
  -24.7210  -31.0520   22.1100 N   0  0  0  0  0  0  0  0  0  0  0  0
  -23.5750  -32.1070   23.7610 O   0  0  0  0  0  0  0  0  0  0  0  0
  -22.8080  -29.4240   22.5140 C   0  0  0  0  0  0  0  0  0  0  0  0
  -21.4820  -29.2430   22.3910 N   0  0  0  0  0  0  0  0  0  0  0  0
  -23.4940  -28.7880   23.3180 O   0  0  0  0  0  0  0  0  0  0  0  0
  -20.9870  -29.8080   21.7140 H   0  0  0  0  0  0  0  0  0  0  0  0
  -18.1100  -28.0370   22.8910 C   0  0  0  0  0  0  0  0  0  0  0  0
  -20.6690  -28.2920   23.1520 C   0  0  0  0  0  3  0  0  0  0  0  0
  -20.7680  -26.8690   22.5540 C   0  0  0  0  0  2  0  0  0  0  0  0
  -19.6620  -26.5610   21.5410 C   0  0  0  0  0  2  0  0  0  0  0  0
  -18.2840  -26.6980   22.1940 C   0  0  0  0  0  2  0  0  0  0  0  0
  -19.2310  -28.7930   23.3250 C   0  0  0  0  0  0  0  0  0  0  0  0
  -19.0160  -30.0480   23.9350 C   0  0  0  0  0  3  0  0  0  0  0  0
  -17.7130  -30.5470   24.1150 C   0  0  0  0  0  3  0  0  0  0  0  0
  -16.6050  -29.7880   23.6980 C   0  0  0  0  0  3  0  0  0  0  0  0
  -16.8060  -28.5340   23.0930 C   0  0  0  0  0  3  0  0  0  0  0  0
  -25.9410  -32.4750   23.8450 C   0  0  0  0  0  3  0  0  0  0  0  0
  -25.6300  -33.8700   24.1860 N   0  0  0  0  0  0  0  0  0  0  0  0
  -25.9460  -34.9260   23.4270 C   0  0  0  0  0  0  0  0  0  0  0  0
  -26.6020  -34.8300   22.3860 O   0  0  0  0  0  0  0  0  0  0  0  0
  -25.0480  -34.0180   24.9980 H   0  0  0  0  0  0  0  0  0  0  0  0
  -24.2000  -36.7070   23.1040 C   0  0  0  0  0  1  0  0  0  0  0  0
  -25.4560  -36.3090   23.8960 C   0  0  0  0  0  3  0  0  0  0  0  0
  -27.5940  -37.2090   24.7020 C   0  0  0  0  0  1  0  0  0  0  0  0
  -26.4790  -37.3700   23.7720 N   0  0  0  0  0  0  0  0  0  0  0  0
  -26.0670  -38.2860   23.9260 H   0  0  0  0  0  0  0  0  0  0  0  0
  -26.4610  -31.6940   25.1140 C   0  0  1  0  0  0  0  0  0  0  0  0
  -25.3690  -31.4460   26.1810 C   0  0  0  0  0  1  0  0  0  0  0  0
  -27.0470  -30.3210   24.7110 C   0  0  0  0  0  1  0  0  0  0  0  0
  -27.6100  -32.4850   25.7820 C   0  0  0  0  0  1  0  0  0  0  0  0
  2  8  1  0
  2 49  1  0
  2  1  1  0
  3  4  1  0
  5  3  2  0
  6  4  2  0
  7  5  1  0
  7  8  2  0
  8  6  1  0
  9  7  1  0
  9 10  2  0
 11 20  1  0
 12 17  1  0
 13 14  1  0
 13 12  1  0
 15 14  1  0
 15 24  1  0
 15 16  1  0
 17 11  1  0
 17 16  1  0
 18 11  2  0
 19 20  1  0
 20 10  1  0
 21 22  2  0
 22 41  1  0
 23 22  1  0
 23 26  1  0
 24 25  1  0
 24 21  1  0
 25 23  2  0
 26 27  1  0
 27 28  2  0
 29 32  1  0
 29 28  1  0
 30 29  2  0
 31 30  1  0
 31 26  2  0
 32 33  1  0
 33 34  1  0
 34 35  2  0
 36 35  1  0
 36 40  1  0
 37 36  2  0
 38 33  2  0
 38 37  1  0
 39 38  1  0
 41 42  1  0
 42 45  1  0
 42 44  1  0
 43 41  2  0
 46 47  1  0
 46 21  1  0
 48 46  1  0
 49 50  1  0
 49 51  1  0
 52 49  1  0
 53 52  1  0
 54 53  1  0
 55 66  2  0
 56 54  1  0
 56 61  1  0
 57 65  1  0
 57 67  1  0
 58 64  1  0
 58 60  1  0
 59 65  1  0
 60 59  1  0
 61 60  2  0
 62 63  1  0
 62 56  2  0
 63 58  2  0
 64 57  1  0
 65 55  1  0
 67 69  2  0
 68 67  1  0
 70 68  1  0
 71 80  2  0
 71 76  1  0
 72 68  1  0
 72 76  1  0
 73 72  1  0
 74 75  1  0
 74 73  1  0
 75 71  1  0
 76 77  2  0
 77 78  1  0
 79 78  2  0
 80 79  1  0
 81 55  1  0
 81 82  1  0
 81 91  1  0
 82 85  1  0
 83 87  1  0
 83 82  1  0
 84 83  2  0
 87 86  1  0
 89 87  1  0
 89 90  1  0
 89 88  1  0
 91 94  1  1
 91 92  1  0
 93 91  1  0
M  ISO  4  11 100  20 100  53 101  54 101
M  END
>  <TORSDO>  (59) 
F 22

>  <SCORE>  (59) 
-11.745

>  <name>  (59) 
58

>  <ligand_id>  (59) 
58

>  <original_smiles>  (59) 
[H]c1c([H])c([H])c(C([H])(C([H])([H])[H])[N+]([H])([H])C([H])([H])C([H])([H])Oc2c([H])c([H])c3c(c2[H])C([H])([H])N(C(=O)C([H])(N([H])C(=O)C([H])(N([H])C([H])([H])[H])C([H])([H])[H])C(C([H])([H])[H])(C([H])([H])[H])C([H])([H])[H])C([H])(C(=O)N([H])C2([H])c4c([H])c([H])c([H])c([H])c4C([H])([H])C([H])([H])C2([H])[H])C3([H])[H])c(C([H])([H])C([H])([H])N(C(=O)N2C([H])([H])C([H])([H])C([H])([H])C([H])(n3nc(-c4c([H])c([H])c(Oc5c([H])c([H])c(F)c([H])c5F)c([H])c4[H])c(C(=O)N([H])[H])c3N([H])[H])C2([H])[H])C([H])([H])[H])c1[H]

>  <smiles>  (59) 
[H]c1c([H])c([H])c(C([H])(C([H])([H])[H])[N+]([H])([H])C([H])([H])C([H])([H])Oc2c([H])c([H])c3c(c2[H])C([H])([H])N(C(=O)C([H])(N([H])C(=O)C([H])(N([H])C([H])([H])[H])C([H])([H])[H])C(C([H])([H])[H])(C([H])([H])[H])C([H])([H])[H])C([H])(C(=O)N([H])C2([H])c4c([H])c([H])c([H])c([H])c4C([H])([H])C([H])([H])C2([H])[H])C3([H])[H])c(C([H])([H])C([H])([H])N(C(=O)N2C([H])([H])C([H])([H])C([H])([H])C([H])(n3nc(-c4c([H])c([H])c(Oc5c([H])c([H])c(F)c([H])c5F)c([H])c4[H])c(C(=O)N([H])[H])c3N([H])[H])C2([H])[H])C([H])([H])[H])c1[H]

$$$$
59:0:0
     RDKit          3D

 96104  0  0  1  0  0  0  0  0999 V2000
  -28.5660  -21.7780   20.1500 C   0  0  0  0  0  3  0  0  0  0  0  0
  -27.9190  -21.0630   17.9200 C   0  0  0  0  0  3  0  0  0  0  0  0
  -28.4850  -20.4420   20.5990 C   0  0  0  0  0  3  0  0  0  0  0  0
  -27.8150  -19.7320   18.3730 C   0  0  0  0  0  3  0  0  0  0  0  0
  -28.2870  -22.1050   18.8020 C   0  0  0  0  0  0  0  0  0  0  0  0
  -28.0980  -19.4070   19.7200 C   0  0  0  0  0  0  0  0  0  0  0  0
  -28.3060  -23.5300   18.3000 C   0  0  0  0  0  0  0  0  0  0  0  0
  -29.1630  -24.3800   18.8810 N   0  0  0  0  0  0  0  0  0  0  0  0
  -27.5830  -23.8650   17.3590 O   0  0  0  0  0  0  0  0  0  0  0  0
  -29.7350  -24.0320   19.6370 H   0  0  0  0  0  0  0  0  0  0  0  0
  -29.3450  -25.7780   18.4760 C   0  0  0  0  0  2  0  0  0  0  0  0
  -29.7240  -26.6930   19.6560 C   0  0  0  0  0  2  0  0  0  0  0  0
  -28.8030  -26.6510   20.7430 O   0  0  0  0  0  0  0  0  0  0  0  0
  -24.7300  -31.8540   23.3450 C   0  0  0  0  0  0  0  0  0  0  0  0
  -27.6390  -27.3670   20.6010 C   0  0  0  0  0  0  0  0  0  0  0  0
  -23.6490  -30.3680   21.6860 C   0  0  0  0  0  3  0  0  0  0  0  0
  -25.2140  -28.8030   20.4160 C   0  0  0  0  0  0  0  0  0  0  0  0
  -26.1730  -30.7710   21.6300 C   0  0  0  0  0  2  0  0  0  0  0  0
  -26.3220  -29.3780   21.0520 C   0  0  0  0  0  0  0  0  0  0  0  0
  -27.5350  -28.6620   21.1520 C   0  0  0  0  0  3  0  0  0  0  0  0
  -26.5100  -26.7890   19.9830 C   0  0  0  0  0  3  0  0  0  0  0  0
  -25.3020  -27.5060   19.8820 C   0  0  0  0  0  3  0  0  0  0  0  0
  -23.9530  -29.6360   20.3510 C   0  0  0  0  0  2  0  0  0  0  0  0
  -24.8640  -31.0150   22.2800 N   0  0  0  0  0  0  0  0  0  0  0  0
  -23.6130  -32.1280   23.8060 O   0  0  0  0  0  0  0  0  0  0  0  0
  -22.9530  -29.3760   22.6450 C   0  0  0  0  0  0  0  0  0  0  0  0
  -21.6390  -29.1730   22.4480 N   0  0  0  0  0  0  0  0  0  0  0  0
  -23.5930  -28.7900   23.5210 O   0  0  0  0  0  0  0  0  0  0  0  0
  -21.1840  -29.7020   21.7160 H   0  0  0  0  0  0  0  0  0  0  0  0
  -18.2530  -27.9680   22.7950 C   0  0  0  0  0  0  0  0  0  0  0  0
  -20.7890  -28.2510   23.1990 C   0  0  0  0  0  3  0  0  0  0  0  0
  -20.9330  -26.8040   22.6720 C   0  0  0  0  0  2  0  0  0  0  0  0
  -19.8900  -26.4430   21.6090 C   0  0  0  0  0  2  0  0  0  0  0  0
  -18.4740  -26.5980   22.1720 C   0  0  0  0  0  2  0  0  0  0  0  0
  -19.3420  -28.7500   23.2620 C   0  0  0  0  0  0  0  0  0  0  0  0
  -19.0860  -30.0290   23.8010 C   0  0  0  0  0  3  0  0  0  0  0  0
  -17.7730  -30.5290   23.8740 C   0  0  0  0  0  3  0  0  0  0  0  0
  -16.6960  -29.7450   23.4250 C   0  0  0  0  0  3  0  0  0  0  0  0
  -16.9380  -28.4660   22.8910 C   0  0  0  0  0  3  0  0  0  0  0  0
  -25.9660  -32.5280   24.0190 C   0  0  0  0  0  3  0  0  0  0  0  0
  -25.6220  -33.9360   24.2680 N   0  0  0  0  0  0  0  0  0  0  0  0
  -25.9820  -34.9570   23.4780 C   0  0  0  0  0  0  0  0  0  0  0  0
  -26.7090  -34.8160   22.4910 O   0  0  0  0  0  0  0  0  0  0  0  0
  -24.9850  -34.1160   25.0300 H   0  0  0  0  0  0  0  0  0  0  0  0
  -24.2460  -36.6960   22.9500 C   0  0  0  0  0  1  0  0  0  0  0  0
  -25.4500  -36.3560   23.8420 C   0  0  0  0  0  3  0  0  0  0  0  0
  -27.5290  -37.3140   24.7290 C   0  0  0  0  0  1  0  0  0  0  0  0
  -26.4710  -37.4210   23.7290 N   0  0  0  0  0  0  0  0  0  0  0  0
  -26.0450  -38.3390   23.8160 H   0  0  0  0  0  0  0  0  0  0  0  0
  -26.4120  -31.8170   25.3550 C   0  0  1  0  0  0  0  0  0  0  0  0
  -25.2500  -31.5840   26.3490 C   0  0  0  0  0  1  0  0  0  0  0  0
  -27.0610  -30.4470   25.0530 C   0  0  0  0  0  1  0  0  0  0  0  0
  -27.4880  -32.6700   26.0690 C   0  0  0  0  0  1  0  0  0  0  0  0
  -26.4270  -17.6400   20.3670 C   0  0  0  0  0  1  0  0  0  0  0  0
  -27.9210  -17.9750   20.2380 C   0  0  0  0  0  3  0  0  0  0  0  0
  -28.6060  -16.9890   19.3710 N   0  0  0  0  0  4  0  0  0  0  0  0
  -28.1270  -16.1050   19.4370 H   0  0  0  0  0  0  0  0  0  0  0  0
  -28.4660  -17.3180   18.4290 H   0  0  0  0  0  0  0  0  0  0  0  0
  -30.0700  -16.8280   19.5770 C   0  0  0  0  0  2  0  0  0  0  0  0
  -30.4580  -15.7750   20.6550 C   0  0  0  0  0  2  0  0  0  0  0  0
  -31.0690  -14.4930   20.0440 C   0  0  0  0  0  0  0  0  0  0  0  0
  -30.7720  -12.1940   19.1880 C   0  0  0  0  0  2  0  0  0  0  0  0
  -29.8190  -12.2140   17.9740 C   0  0  0  0  0  2  0  0  0  0  0  0
  -28.3460  -12.1370   18.4260 C   0  0  0  0  0  2  0  0  0  0  0  0
  -28.0190  -13.1530   19.5510 C   0  0  0  0  0  3  0  0  0  0  0  0
  -29.0760  -13.0810   20.6740 C   0  0  0  0  0  2  0  0  0  0  0  0
  -30.3990  -13.3100   20.0730 N   0  0  0  0  0  0  0  0  0  0  0  0
  -32.1530  -14.6160   19.4620 O   0  0  0  0  0  0  0  0  0  0  0  0
  -25.6970  -13.9130   20.3600 C   0  0  0  0  0  0  0  0  0  0  0  0
  -24.5950  -13.2080   20.7680 C   0  0  0  0  0  0  0  0  0  0  0  0
  -24.9610  -11.8280   20.6940 C   0  0  0  0  0  0  0  0  0  0  0  0
  -26.6670  -12.9650   20.0690 N   0  0  0  0  0  0  0  0  0  0  0  0
  -26.2300  -11.7070   20.3270 N   0  0  0  0  0  0  0  0  0  0  0  0
  -24.1600  -10.6120   20.8890 C   0  0  0  0  0  0  0  0  0  0  0  0
  -24.5580   -9.6090   21.7990 C   0  0  0  0  0  3  0  0  0  0  0  0
  -23.7640   -8.4570   21.9860 C   0  0  0  0  0  3  0  0  0  0  0  0
  -22.5580   -8.3020   21.2610 C   0  0  0  0  0  0  0  0  0  0  0  0
  -22.1790   -9.2940   20.3390 C   0  0  0  0  0  3  0  0  0  0  0  0
  -22.9740  -10.4370   20.1500 C   0  0  0  0  0  3  0  0  0  0  0  0
  -21.7370   -7.2040   21.3560 O   0  0  0  0  0  0  0  0  0  0  0  0
  -21.6580   -6.4630   22.5080 C   0  0  0  0  0  0  0  0  0  0  0  0
  -21.2950   -7.0430   23.7440 C   0  0  0  0  0  3  0  0  0  0  0  0
  -21.1590   -6.2320   24.8890 C   0  0  0  0  0  3  0  0  0  0  0  0
  -21.3760   -4.8440   24.7990 C   0  0  0  0  0  0  0  0  0  0  0  0
  -21.7320   -4.2650   23.5680 C   0  0  0  0  0  3  0  0  0  0  0  0
  -21.8720   -5.0720   22.4270 C   0  0  0  0  0  0  0  0  0  0  0  0
  -22.1950   -4.5070   21.2390 F   0  0  0  0  0  0  0  0  0  0  0  0
  -21.2370   -4.0640   25.8970 F   0  0  0  0  0  0  0  0  0  0  0  0
  -23.2430  -13.7730   21.0910 C   0  0  0  0  0  0  0  0  0  0  0  0
  -22.5020  -13.1220   21.9810 N   0  0  0  0  0  0  0  0  0  0  0  0
  -22.8560  -14.8270   20.5870 O   0  0  0  0  0  0  0  0  0  0  0  0
  -22.8310  -12.2690   22.4110 H   0  0  0  0  0  0  0  0  0  0  0  0
  -21.5950  -13.4820   22.2390 H   0  0  0  0  0  0  0  0  0  0  0  0
  -25.9540  -15.2690   20.1710 N   0  0  0  0  0  0  0  0  0  0  0  0
  -25.1010  -15.8050   20.2960 H   0  0  0  0  0  0  0  0  0  0  0  0
  -26.2820  -15.4070   19.2220 H   0  0  0  0  0  0  0  0  0  0  0  0
  1  3  1  0
  2  4  2  0
  2  5  1  0
  4  6  1  0
  5  1  2  0
  6 55  1  0
  6  3  2  0
  7  5  1  0
  7  8  1  0
  8 10  1  0
  9  7  2  0
 11  8  1  0
 11 12  1  0
 12 13  1  0
 14 25  2  0
 15 13  1  0
 15 20  1  0
 16 24  1  0
 16 26  1  0
 17 19  1  0
 18 24  1  0
 19 20  2  0
 19 18  1  0
 21 15  2  0
 22 21  1  0
 22 17  2  0
 23 17  1  0
 23 16  1  0
 24 14  1  0
 26 28  2  0
 27 26  1  0
 29 27  1  0
 30 39  2  0
 30 35  1  0
 31 27  1  0
 31 35  1  0
 32 31  1  0
 33 34  1  0
 33 32  1  0
 34 30  1  0
 35 36  2  0
 36 37  1  0
 38 37  2  0
 39 38  1  0
 40 14  1  0
 40 41  1  0
 40 50  1  0
 41 44  1  0
 42 46  1  0
 42 41  1  0
 43 42  2  0
 46 45  1  0
 48 49  1  0
 48 46  1  0
 48 47  1  0
 50 53  1  1
 50 51  1  0
 52 50  1  0
 55 54  1  0
 56 57  1  0
 56 59  1  0
 56 55  1  0
 58 56  1  0
 59 60  1  0
 61 67  1  0
 61 60  1  0
 62 67  1  0
 63 64  1  0
 63 62  1  0
 65 64  1  0
 65 72  1  0
 65 66  1  0
 67 66  1  0
 68 61  2  0
 69 70  2  0
 70 89  1  0
 71 70  1  0
 71 74  1  0
 72 73  1  0
 72 69  1  0
 73 71  2  0
 74 75  1  0
 75 76  2  0
 77 80  1  0
 77 76  1  0
 78 77  2  0
 79 78  1  0
 79 74  2  0
 80 81  1  0
 81 82  1  0
 82 83  2  0
 84 83  1  0
 84 88  1  0
 85 84  2  0
 86 81  2  0
 86 85  1  0
 87 86  1  0
 89 90  1  0
 90 93  1  0
 90 92  1  0
 91 89  2  0
 94 95  1  0
 94 69  1  0
 96 94  1  0
M  ISO  4  12 101  13 101  60 100  61 100
M  END
>  <TORSDO>  (60) 
F 23

>  <SCORE>  (60) 
-12.861

>  <name>  (60) 
59

>  <ligand_id>  (60) 
59

>  <original_smiles>  (60) 
[H]c1c([H])c([H])c2c(c1[H])C([H])([H])C([H])([H])C([H])([H])C2([H])N([H])C(=O)C1([H])N(C(=O)C([H])(N([H])C(=O)C([H])(N([H])C([H])([H])[H])C([H])([H])[H])C(C([H])([H])[H])(C([H])([H])[H])C([H])([H])[H])C([H])([H])c2c([H])c(OC([H])([H])C([H])([H])N([H])C(=O)c3c([H])c([H])c(C([H])(C([H])([H])[H])[N+]([H])([H])C([H])([H])C([H])([H])C(=O)N4C([H])([H])C([H])([H])C([H])([H])C([H])(n5nc(-c6c([H])c([H])c(Oc7c([H])c([H])c(F)c([H])c7F)c([H])c6[H])c(C(=O)N([H])[H])c5N([H])[H])C4([H])[H])c([H])c3[H])c([H])c([H])c2C1([H])[H]

>  <smiles>  (60) 
[H]c1c([H])c([H])c2c(c1[H])C([H])([H])C([H])([H])C([H])([H])C2([H])N([H])C(=O)C1([H])N(C(=O)C([H])(N([H])C(=O)C([H])(N([H])C([H])([H])[H])C([H])([H])[H])C(C([H])([H])[H])(C([H])([H])[H])C([H])([H])[H])C([H])([H])c2c([H])c(OC([H])([H])C([H])([H])N([H])C(=O)c3c([H])c([H])c(C([H])(C([H])([H])[H])[N+]([H])([H])C([H])([H])C([H])([H])C(=O)N4C([H])([H])C([H])([H])C([H])([H])C([H])(n5nc(-c6c([H])c([H])c(Oc7c([H])c([H])c(F)c([H])c7F)c([H])c6[H])c(C(=O)N([H])[H])c5N([H])[H])C4([H])[H])c([H])c3[H])c([H])c([H])c2C1([H])[H]

$$$$
60:0:0
     RDKit          3D

 93102  0  0  1  0  0  0  0  0999 V2000
  -28.8870  -20.1120   18.7600 C   0  0  0  0  0  3  0  0  0  0  0  0
  -29.2610  -18.7660   19.0460 C   0  0  0  0  0  3  0  0  0  0  0  0
  -29.4510  -20.8200   21.0090 C   0  0  0  0  0  3  0  0  0  0  0  0
  -28.9910  -21.1770   19.7120 C   0  0  0  0  0  0  0  0  0  0  0  0
  -29.7350  -18.4450   20.3320 C   0  0  0  0  0  0  0  0  0  0  0  0
  -29.8020  -19.4660   21.2860 C   0  0  0  0  0  0  0  0  0  0  0  0
  -30.3120  -18.9260   22.5990 C   0  0  0  0  0  2  0  0  0  0  0  0
  -30.3490  -17.1240   20.8550 C   0  0  0  0  0  3  0  0  0  0  0  0
  -30.4490  -17.3900   22.3830 C   0  0  0  0  0  3  0  0  0  0  0  0
  -31.7080  -16.7910   23.0260 C   0  0  0  0  0  1  0  0  0  0  0  0
  -30.4250  -14.7040   20.0630 C   0  0  0  0  0  0  0  0  0  0  0  0
  -30.0810  -12.5520   18.8800 C   0  0  0  0  0  2  0  0  0  0  0  0
  -29.0560  -12.7500   17.7450 C   0  0  0  0  0  2  0  0  0  0  0  0
  -27.6220  -12.5590   18.2720 C   0  0  0  0  0  2  0  0  0  0  0  0
  -27.3530  -13.3510   19.5810 C   0  0  0  0  0  3  0  0  0  0  0  0
  -28.4910  -13.1580   20.6060 C   0  0  0  0  0  2  0  0  0  0  0  0
  -29.7500  -13.5200   19.9430 N   0  0  0  0  0  0  0  0  0  0  0  0
  -31.5610  -14.8350   19.6010 O   0  0  0  0  0  0  0  0  0  0  0  0
  -29.7510  -15.7830   20.5580 N   0  0  0  0  0  0  0  0  0  0  0  0
  -28.7960  -15.6350   20.8460 H   0  0  0  0  0  0  0  0  0  0  0  0
  -25.0050  -13.8780   20.4800 C   0  0  0  0  0  0  0  0  0  0  0  0
  -23.9790  -13.0710   20.8930 C   0  0  0  0  0  0  0  0  0  0  0  0
  -24.4610  -11.7310   20.7830 C   0  0  0  0  0  0  0  0  0  0  0  0
  -26.0460  -13.0260   20.1460 N   0  0  0  0  0  0  0  0  0  0  0  0
  -25.7280  -11.7280   20.3880 N   0  0  0  0  0  0  0  0  0  0  0  0
  -23.7690  -10.4500   20.9750 C   0  0  0  0  0  0  0  0  0  0  0  0
  -24.2430   -9.4840   21.8900 C   0  0  0  0  0  3  0  0  0  0  0  0
  -23.5500   -8.2680   22.0710 C   0  0  0  0  0  3  0  0  0  0  0  0
  -22.3690   -8.0080   21.3360 C   0  0  0  0  0  0  0  0  0  0  0  0
  -21.9140   -8.9630   20.4090 C   0  0  0  0  0  3  0  0  0  0  0  0
  -22.6080  -10.1710   20.2270 C   0  0  0  0  0  3  0  0  0  0  0  0
  -21.6440   -6.8440   21.4270 O   0  0  0  0  0  0  0  0  0  0  0  0
  -21.6140   -6.1030   22.5810 C   0  0  0  0  0  0  0  0  0  0  0  0
  -21.1320   -6.6350   23.7960 C   0  0  0  0  0  3  0  0  0  0  0  0
  -21.0560   -5.8170   24.9410 C   0  0  0  0  0  3  0  0  0  0  0  0
  -21.4510   -4.4680   24.8710 C   0  0  0  0  0  0  0  0  0  0  0  0
  -21.9260   -3.9350   23.6600 C   0  0  0  0  0  3  0  0  0  0  0  0
  -22.0040   -4.7500   22.5170 C   0  0  0  0  0  0  0  0  0  0  0  0
  -22.4430   -4.2250   21.3480 F   0  0  0  0  0  0  0  0  0  0  0  0
  -21.3690   -3.6790   25.9690 F   0  0  0  0  0  0  0  0  0  0  0  0
  -22.5960  -13.5130   21.2720 C   0  0  0  0  0  0  0  0  0  0  0  0
  -21.9390  -12.7750   22.1610 N   0  0  0  0  0  0  0  0  0  0  0  0
  -22.1060  -14.5470   20.8190 O   0  0  0  0  0  0  0  0  0  0  0  0
  -22.3490  -11.9380   22.5490 H   0  0  0  0  0  0  0  0  0  0  0  0
  -21.0140  -13.0500   22.4570 H   0  0  0  0  0  0  0  0  0  0  0  0
  -25.1340  -15.2560   20.3400 N   0  0  0  0  0  0  0  0  0  0  0  0
  -24.3640  -15.8910   20.5200 H   0  0  0  0  0  0  0  0  0  0  0  0
  -25.9460  -15.7220   19.9540 H   0  0  0  0  0  0  0  0  0  0  0  0
  -28.5290  -22.5830   19.2930 C   0  0  0  0  0  0  0  0  0  0  0  0
  -27.8330  -22.6980   18.2790 O   0  0  0  0  0  0  0  0  0  0  0  0
  -28.9130  -23.9170   20.0420 C   0  0  0  0  0  2  0  0  0  0  0  0
  -27.9770  -25.1450   19.6580 C   0  0  0  0  0  2  0  0  0  0  0  0
  -28.2090  -26.5470   20.0730 O   0  0  0  0  0  0  0  0  0  0  0  0
  -24.5340  -31.9080   23.2070 C   0  0  0  0  0  0  0  0  0  0  0  0
  -27.0980  -27.4090   20.0330 C   0  0  0  0  0  0  0  0  0  0  0  0
  -23.3050  -30.5310   21.5720 C   0  0  0  0  0  3  0  0  0  0  0  0
  -24.7320  -29.0170   20.0940 C   0  0  0  0  0  0  0  0  0  0  0  0
  -25.8420  -30.8580   21.3510 C   0  0  0  0  0  2  0  0  0  0  0  0
  -25.9110  -29.4920   20.6810 C   0  0  0  0  0  0  0  0  0  0  0  0
  -27.0960  -28.6980   20.6480 C   0  0  0  0  0  3  0  0  0  0  0  0
  -25.8940  -27.0020   19.4030 C   0  0  0  0  0  3  0  0  0  0  0  0
  -24.7240  -27.7750   19.4490 C   0  0  0  0  0  3  0  0  0  0  0  0
  -23.4940  -29.8820   20.1770 C   0  0  0  0  0  2  0  0  0  0  0  0
  -24.5800  -31.1150   22.0990 N   0  0  0  0  0  0  0  0  0  0  0  0
  -23.4600  -32.1770   23.7640 O   0  0  0  0  0  0  0  0  0  0  0  0
  -22.6650  -29.4940   22.5260 C   0  0  0  0  0  0  0  0  0  0  0  0
  -21.3400  -29.3010   22.4080 N   0  0  0  0  0  0  0  0  0  0  0  0
  -23.3580  -28.8680   23.3330 O   0  0  0  0  0  0  0  0  0  0  0  0
  -20.8390  -29.8580   21.7310 H   0  0  0  0  0  0  0  0  0  0  0  0
  -17.9780  -28.0710   22.9290 C   0  0  0  0  0  0  0  0  0  0  0  0
  -20.5370  -28.3500   23.1790 C   0  0  0  0  0  3  0  0  0  0  0  0
  -20.6460  -26.9230   22.5920 C   0  0  0  0  0  2  0  0  0  0  0  0
  -19.5380  -26.5990   21.5860 C   0  0  0  0  0  2  0  0  0  0  0  0
  -18.1610  -26.7280   22.2430 C   0  0  0  0  0  2  0  0  0  0  0  0
  -19.0950  -28.8390   23.3540 C   0  0  0  0  0  0  0  0  0  0  0  0
  -18.8710  -30.0950   23.9580 C   0  0  0  0  0  3  0  0  0  0  0  0
  -17.5640  -30.5850   24.1390 C   0  0  0  0  0  3  0  0  0  0  0  0
  -16.4620  -29.8130   23.7300 C   0  0  0  0  0  3  0  0  0  0  0  0
  -16.6700  -28.5570   23.1310 C   0  0  0  0  0  3  0  0  0  0  0  0
  -25.8270  -32.5350   23.8130 C   0  0  0  0  0  3  0  0  0  0  0  0
  -26.3680  -31.7490   25.0700 C   0  0  1  0  0  0  0  0  0  0  0  0
  -25.2930  -31.4880   26.1510 C   0  0  0  0  0  1  0  0  0  0  0  0
  -26.9530  -30.3800   24.6500 C   0  0  0  0  0  1  0  0  0  0  0  0
  -27.5230  -32.5400   25.7260 C   0  0  0  0  0  1  0  0  0  0  0  0
  -25.5200  -33.9280   24.1660 N   0  0  0  0  0  0  0  0  0  0  0  0
  -25.8230  -34.9910   23.4090 C   0  0  0  0  0  0  0  0  0  0  0  0
  -26.4630  -34.9020   22.3570 O   0  0  0  0  0  0  0  0  0  0  0  0
  -24.9460  -34.0710   24.9860 H   0  0  0  0  0  0  0  0  0  0  0  0
  -24.0790  -36.7800   23.1200 C   0  0  0  0  0  1  0  0  0  0  0  0
  -25.3430  -36.3710   23.8950 C   0  0  0  0  0  3  0  0  0  0  0  0
  -27.4860  -37.2620   24.6920 C   0  0  0  0  0  1  0  0  0  0  0  0
  -26.3680  -37.4310   23.7690 N   0  0  0  0  0  0  0  0  0  0  0  0
  -25.9610  -38.3480   23.9270 H   0  0  0  0  0  0  0  0  0  0  0  0
  1  2  2  0
  1  4  1  0
  2  5  1  0
  3  6  1  0
  4  3  2  0
  5  8  1  0
  5  6  2  0
  6  7  1  0
  8 19  1  0
  8  9  1  0
  9  7  1  0
  9 10  1  0
 11 19  1  0
 12 17  1  0
 13 14  1  0
 13 12  1  0
 15 14  1  0
 15 24  1  0
 15 16  1  0
 17 11  1  0
 17 16  1  0
 18 11  2  0
 19 20  1  0
 21 22  2  0
 22 41  1  0
 23 22  1  0
 23 26  1  0
 24 25  1  0
 24 21  1  0
 25 23  2  0
 26 27  1  0
 27 28  2  0
 29 32  1  0
 29 28  1  0
 30 29  2  0
 31 30  1  0
 31 26  2  0
 32 33  1  0
 33 34  1  0
 34 35  2  0
 36 35  1  0
 36 40  1  0
 37 36  2  0
 38 33  2  0
 38 37  1  0
 39 38  1  0
 41 42  1  0
 42 45  1  0
 42 44  1  0
 43 41  2  0
 46 21  1  0
 46 47  1  0
 48 46  1  0
 49  4  1  0
 49 51  1  0
 50 49  2  0
 52 51  1  0
 52 53  1  0
 54 65  2  0
 55 53  1  0
 55 60  1  0
 56 64  1  0
 56 66  1  0
 57 63  1  0
 57 59  1  0
 58 64  1  0
 59 58  1  0
 60 59  2  0
 61 62  1  0
 61 55  2  0
 62 57  2  0
 63 56  1  0
 64 54  1  0
 66 68  2  0
 67 66  1  0
 69 67  1  0
 70 79  2  0
 70 75  1  0
 71 67  1  0
 71 75  1  0
 72 71  1  0
 73 74  1  0
 73 72  1  0
 74 70  1  0
 75 76  2  0
 76 77  1  0
 78 77  2  0
 79 78  1  0
 80 54  1  0
 80 85  1  0
 80 81  1  0
 81 84  1  1
 81 82  1  0
 83 81  1  0
 85 88  1  0
 86 90  1  0
 86 85  1  0
 87 86  2  0
 90 89  1  0
 92 90  1  0
 92 93  1  0
 92 91  1  0
M  ISO  4  11 100  19 100  52 101  53 101
M  END
>  <TORSDO>  (61) 
F 19

>  <SCORE>  (61) 
-11.825

>  <name>  (61) 
60

>  <ligand_id>  (61) 
60

>  <original_smiles>  (61) 
[H]c1c([H])c([H])c2c(c1[H])C([H])([H])C([H])([H])C([H])([H])C2([H])N([H])C(=O)C1([H])N(C(=O)C([H])(N([H])C(=O)C([H])(N([H])C([H])([H])[H])C([H])([H])[H])C(C([H])([H])[H])(C([H])([H])[H])C([H])([H])[H])C([H])([H])c2c([H])c(OC([H])([H])C([H])([H])C(=O)c3c([H])c([H])c4c(c3[H])C([H])([H])C([H])(C([H])([H])[H])C4([H])N([H])C(=O)N3C([H])([H])C([H])([H])C([H])([H])C([H])(n4nc(-c5c([H])c([H])c(Oc6c([H])c([H])c(F)c([H])c6F)c([H])c5[H])c(C(=O)N([H])[H])c4N([H])[H])C3([H])[H])c([H])c([H])c2C1([H])[H]

>  <smiles>  (61) 
[H]c1c([H])c([H])c2c(c1[H])C([H])([H])C([H])([H])C([H])([H])C2([H])N([H])C(=O)C1([H])N(C(=O)C([H])(N([H])C(=O)C([H])(N([H])C([H])([H])[H])C([H])([H])[H])C(C([H])([H])[H])(C([H])([H])[H])C([H])([H])[H])C([H])([H])c2c([H])c(OC([H])([H])C([H])([H])C(=O)c3c([H])c([H])c4c(c3[H])C([H])([H])C([H])(C([H])([H])[H])C4([H])N([H])C(=O)N3C([H])([H])C([H])([H])C([H])([H])C([H])(n4nc(-c5c([H])c([H])c(Oc6c([H])c([H])c(F)c([H])c6F)c([H])c5[H])c(C(=O)N([H])[H])c4N([H])[H])C3([H])[H])c([H])c([H])c2C1([H])[H]

$$$$
61:0:0
     RDKit          3D

 93101  0  0  1  0  0  0  0  0999 V2000
  -32.1440  -20.3670   20.2150 C   0  0  0  0  0  3  0  0  0  0  0  0
  -31.3150  -21.4940   20.4020 C   0  0  0  0  0  3  0  0  0  0  0  0
  -31.6360  -19.0520   20.3200 C   0  0  0  0  0  3  0  0  0  0  0  0
  -29.4520  -19.9790   20.8320 C   0  0  0  0  0  3  0  0  0  0  0  0
  -29.9510  -21.3290   20.7280 C   0  0  0  0  0  0  0  0  0  0  0  0
  -30.2740  -18.8050   20.6100 C   0  0  0  0  0  0  0  0  0  0  0  0
  -29.0250  -22.5720   20.9890 C   0  0  0  0  0  2  0  0  0  0  0  0
  -29.5050  -24.0770   20.7140 C   0  0  0  0  0  2  0  0  0  0  0  0
  -28.3750  -25.1770   20.9310 C   0  0  0  0  0  2  0  0  0  0  0  0
  -28.5920  -26.5990   20.5670 O   0  0  0  0  0  0  0  0  0  0  0  0
  -24.7230  -32.0180   23.3770 C   0  0  0  0  0  0  0  0  0  0  0  0
  -27.4590  -27.4290   20.4820 C   0  0  0  0  0  0  0  0  0  0  0  0
  -23.5770  -30.5730   21.7410 C   0  0  0  0  0  3  0  0  0  0  0  0
  -25.0700  -29.0030   20.3840 C   0  0  0  0  0  0  0  0  0  0  0  0
  -26.1130  -30.9110   21.6060 C   0  0  0  0  0  2  0  0  0  0  0  0
  -26.2190  -29.5220   20.9960 C   0  0  0  0  0  0  0  0  0  0  0  0
  -27.4190  -28.7490   21.0300 C   0  0  0  0  0  3  0  0  0  0  0  0
  -26.2910  -26.9720   19.8280 C   0  0  0  0  0  3  0  0  0  0  0  0
  -25.1100  -27.7350   19.7880 C   0  0  0  0  0  3  0  0  0  0  0  0
  -23.8260  -29.8650   20.3830 C   0  0  0  0  0  2  0  0  0  0  0  0
  -24.8240  -31.1880   22.2980 N   0  0  0  0  0  0  0  0  0  0  0  0
  -23.6240  -32.2940   23.8800 O   0  0  0  0  0  0  0  0  0  0  0  0
  -22.8940  -29.5740   22.7050 C   0  0  0  0  0  0  0  0  0  0  0  0
  -21.5860  -29.3410   22.5130 N   0  0  0  0  0  0  0  0  0  0  0  0
  -23.5460  -29.0080   23.5860 O   0  0  0  0  0  0  0  0  0  0  0  0
  -21.1190  -29.8460   21.7730 H   0  0  0  0  0  0  0  0  0  0  0  0
  -18.2390  -28.0120   22.8610 C   0  0  0  0  0  0  0  0  0  0  0  0
  -20.7600  -28.4030   23.2770 C   0  0  0  0  0  3  0  0  0  0  0  0
  -20.9600  -26.9520   22.7810 C   0  0  0  0  0  2  0  0  0  0  0  0
  -19.9380  -26.5300   21.7190 C   0  0  0  0  0  2  0  0  0  0  0  0
  -18.5150  -26.6420   22.2700 C   0  0  0  0  0  2  0  0  0  0  0  0
  -19.2930  -28.8450   23.3200 C   0  0  0  0  0  0  0  0  0  0  0  0
  -18.9810  -30.1220   23.8340 C   0  0  0  0  0  3  0  0  0  0  0  0
  -17.6460  -30.5670   23.8930 C   0  0  0  0  0  3  0  0  0  0  0  0
  -16.6060  -29.7340   23.4450 C   0  0  0  0  0  3  0  0  0  0  0  0
  -16.9030  -28.4570   22.9370 C   0  0  0  0  0  3  0  0  0  0  0  0
  -25.9810  -32.6750   24.0220 C   0  0  0  0  0  3  0  0  0  0  0  0
  -25.6470  -34.0750   24.3220 N   0  0  0  0  0  0  0  0  0  0  0  0
  -25.9800  -35.1220   23.5560 C   0  0  0  0  0  0  0  0  0  0  0  0
  -26.6730  -35.0150   22.5420 O   0  0  0  0  0  0  0  0  0  0  0  0
  -25.0430  -34.2330   25.1140 H   0  0  0  0  0  0  0  0  0  0  0  0
  -24.2370  -36.8880   23.1260 C   0  0  0  0  0  1  0  0  0  0  0  0
  -25.4630  -36.5130   23.9760 C   0  0  0  0  0  3  0  0  0  0  0  0
  -27.5650  -37.4370   24.8410 C   0  0  0  0  0  1  0  0  0  0  0  0
  -26.4830  -37.5800   23.8700 N   0  0  0  0  0  0  0  0  0  0  0  0
  -26.0650  -38.4990   23.9940 H   0  0  0  0  0  0  0  0  0  0  0  0
  -26.4710  -31.9290   25.3260 C   0  0  1  0  0  0  0  0  0  0  0  0
  -25.3440  -31.6560   26.3480 C   0  0  0  0  0  1  0  0  0  0  0  0
  -27.1140  -30.5720   24.9660 C   0  0  0  0  0  1  0  0  0  0  0  0
  -27.5680  -32.7680   26.0270 C   0  0  0  0  0  1  0  0  0  0  0  0
  -29.7780  -17.2990   20.5350 C   0  0  0  0  0  3  0  0  0  0  0  0
  -30.3030  -16.2210   21.6080 C   0  0  0  0  0  2  0  0  0  0  0  0
  -30.9890  -14.8840   21.0840 C   0  0  0  0  0  0  0  0  0  0  0  0
  -30.8210  -12.7300   19.8740 C   0  0  0  0  0  2  0  0  0  0  0  0
  -29.9730  -12.9420   18.6040 C   0  0  0  0  0  2  0  0  0  0  0  0
  -28.4790  -12.7440   18.9350 C   0  0  0  0  0  2  0  0  0  0  0  0
  -28.0330  -13.5100   20.2090 C   0  0  0  0  0  3  0  0  0  0  0  0
  -29.0130  -13.3040   21.3760 C   0  0  0  0  0  2  0  0  0  0  0  0
  -30.3500  -13.6840   20.8990 N   0  0  0  0  0  0  0  0  0  0  0  0
  -32.1740  -14.9860   20.7550 O   0  0  0  0  0  0  0  0  0  0  0  0
  -25.5720  -14.0580   20.7220 C   0  0  0  0  0  0  0  0  0  0  0  0
  -24.4950  -13.2540   20.9900 C   0  0  0  0  0  0  0  0  0  0  0  0
  -25.0020  -11.9180   21.0170 C   0  0  0  0  0  0  0  0  0  0  0  0
  -26.6570  -13.2060   20.5850 N   0  0  0  0  0  0  0  0  0  0  0  0
  -26.3140  -11.9190   20.8280 N   0  0  0  0  0  0  0  0  0  0  0  0
  -24.3050  -10.6330   21.1470 C   0  0  0  0  0  0  0  0  0  0  0  0
  -24.6750   -9.6920   22.1310 C   0  0  0  0  0  3  0  0  0  0  0  0
  -23.9690   -8.4750   22.2570 C   0  0  0  0  0  3  0  0  0  0  0  0
  -22.8800   -8.1950   21.3990 C   0  0  0  0  0  0  0  0  0  0  0  0
  -22.5270   -9.1330   20.4110 C   0  0  0  0  0  3  0  0  0  0  0  0
  -23.2390  -10.3360   20.2780 C   0  0  0  0  0  3  0  0  0  0  0  0
  -22.1620   -7.0230   21.4330 O   0  0  0  0  0  0  0  0  0  0  0  0
  -21.9900   -6.3150   22.5940 C   0  0  0  0  0  0  0  0  0  0  0  0
  -21.3930   -6.8920   23.7400 C   0  0  0  0  0  3  0  0  0  0  0  0
  -21.1660   -6.1080   24.8890 C   0  0  0  0  0  3  0  0  0  0  0  0
  -21.5430   -4.7530   24.8970 C   0  0  0  0  0  0  0  0  0  0  0  0
  -22.1390   -4.1750   23.7620 C   0  0  0  0  0  3  0  0  0  0  0  0
  -22.3570   -4.9540   22.6120 C   0  0  0  0  0  0  0  0  0  0  0  0
  -22.9080   -4.3860   21.5110 F   0  0  0  0  0  0  0  0  0  0  0  0
  -21.3210   -3.9970   25.9960 F   0  0  0  0  0  0  0  0  0  0  0  0
  -23.0680  -13.6990   21.1200 C   0  0  0  0  0  0  0  0  0  0  0  0
  -22.2780  -12.9930   21.9300 N   0  0  0  0  0  0  0  0  0  0  0  0
  -22.6540  -14.6980   20.5370 O   0  0  0  0  0  0  0  0  0  0  0  0
  -22.6380  -12.1960   22.4300 H   0  0  0  0  0  0  0  0  0  0  0  0
  -21.3160  -13.2710   22.0730 H   0  0  0  0  0  0  0  0  0  0  0  0
  -25.7000  -15.4340   20.5670 N   0  0  0  0  0  0  0  0  0  0  0  0
  -24.8980  -16.0360   20.7360 H   0  0  0  0  0  0  0  0  0  0  0  0
  -26.5790  -15.9310   20.5830 H   0  0  0  0  0  0  0  0  0  0  0  0
  -28.2500  -17.1590   20.2620 C   0  0  0  0  0  2  0  0  0  0  0  0
  -26.4550  -16.9480   18.5710 C   0  0  0  0  0  1  0  0  0  0  0  0
  -27.9030  -17.0740   18.8230 N   0  0  0  0  0  4  0  0  0  0  0  0
  -28.2410  -17.9070   18.3610 H   0  0  0  0  0  0  0  0  0  0  0  0
  -28.3580  -16.2780   18.3990 H   0  0  0  0  0  0  0  0  0  0  0  0
  1  3  2  0
  1  2  1  0
  2  5  2  0
  3  6  1  0
  5  4  1  0
  5  7  1  0
  6  4  2  0
  8  9  1  0
  8  7  1  0
 10  9  1  0
 11 22  2  0
 12 10  1  0
 12 17  1  0
 13 21  1  0
 13 23  1  0
 14 16  1  0
 15 21  1  0
 16 17  2  0
 16 15  1  0
 18 12  2  0
 19 18  1  0
 19 14  2  0
 20 14  1  0
 20 13  1  0
 21 11  1  0
 23 25  2  0
 24 23  1  0
 26 24  1  0
 27 36  2  0
 27 32  1  0
 28 24  1  0
 28 32  1  0
 29 28  1  0
 30 31  1  0
 30 29  1  0
 31 27  1  0
 32 33  2  0
 33 34  1  0
 35 34  2  0
 36 35  1  0
 37 11  1  0
 37 38  1  0
 37 47  1  0
 38 41  1  0
 39 43  1  0
 39 38  1  0
 40 39  2  0
 43 42  1  0
 45 43  1  0
 45 46  1  0
 45 44  1  0
 47 50  1  1
 47 48  1  0
 49 47  1  0
 51 89  1  0
 51  6  1  0
 51 52  1  0
 53 52  1  0
 54 59  1  0
 55 56  1  0
 55 54  1  0
 57 56  1  0
 57 64  1  0
 57 58  1  0
 59 53  1  0
 59 58  1  0
 60 53  2  0
 61 62  2  0
 62 63  1  0
 62 81  1  0
 63 66  1  0
 64 61  1  0
 64 65  1  0
 65 63  2  0
 66 67  1  0
 67 68  2  0
 69 72  1  0
 69 68  1  0
 70 69  2  0
 71 70  1  0
 71 66  2  0
 72 73  1  0
 73 78  2  0
 73 74  1  0
 74 75  2  0
 75 76  1  0
 76 80  1  0
 77 76  2  0
 78 77  1  0
 79 78  1  0
 81 82  1  0
 82 85  1  0
 82 84  1  0
 83 81  2  0
 86 88  1  0
 86 61  1  0
 86 87  1  0
 90 91  1  0
 91 89  1  0
 92 91  1  0
 93 91  1  0
M  ISO  4   9 101  10 101  52 100  53 100
M  END
>  <TORSDO>  (62) 
F 23

>  <SCORE>  (62) 
-11.557

>  <name>  (62) 
61

>  <ligand_id>  (62) 
61

>  <original_smiles>  (62) 
[H]c1c([H])c([H])c2c(c1[H])C([H])([H])C([H])([H])C([H])([H])C2([H])N([H])C(=O)C1([H])N(C(=O)C([H])(N([H])C(=O)C([H])(N([H])C([H])([H])[H])C([H])([H])[H])C(C([H])([H])[H])(C([H])([H])[H])C([H])([H])[H])C([H])([H])c2c([H])c(OC([H])([H])C([H])([H])C([H])([H])c3c([H])c([H])c([H])c(C([H])(C([H])([H])C(=O)N4C([H])([H])C([H])([H])C([H])([H])C([H])(n5nc(-c6c([H])c([H])c(Oc7c([H])c([H])c(F)c([H])c7F)c([H])c6[H])c(C(=O)N([H])[H])c5N([H])[H])C4([H])[H])C([H])([H])[N+]([H])([H])C([H])([H])[H])c3[H])c([H])c([H])c2C1([H])[H]

>  <smiles>  (62) 
[H]c1c([H])c([H])c2c(c1[H])C([H])([H])C([H])([H])C([H])([H])C2([H])N([H])C(=O)C1([H])N(C(=O)C([H])(N([H])C(=O)C([H])(N([H])C([H])([H])[H])C([H])([H])[H])C(C([H])([H])[H])(C([H])([H])[H])C([H])([H])[H])C([H])([H])c2c([H])c(OC([H])([H])C([H])([H])C([H])([H])c3c([H])c([H])c([H])c(C([H])(C([H])([H])C(=O)N4C([H])([H])C([H])([H])C([H])([H])C([H])(n5nc(-c6c([H])c([H])c(Oc7c([H])c([H])c(F)c([H])c7F)c([H])c6[H])c(C(=O)N([H])[H])c5N([H])[H])C4([H])[H])C([H])([H])[N+]([H])([H])C([H])([H])[H])c3[H])c([H])c([H])c2C1([H])[H]

$$$$
62:0:0
     RDKit          3D

 92100  0  0  1  0  0  0  0  0999 V2000
  -29.0410  -21.3950   20.9060 C   0  0  0  0  0  0  0  0  0  0  0  0
  -29.2510  -22.5290   20.1510 N   0  0  0  0  0  0  0  0  0  0  0  0
  -28.4590  -21.5150   21.9850 O   0  0  0  0  0  0  0  0  0  0  0  0
  -29.7210  -22.3660   19.2670 H   0  0  0  0  0  0  0  0  0  0  0  0
  -29.5560  -20.0480   20.4480 C   0  0  0  0  0  0  0  0  0  0  0  0
  -30.3820  -19.7470   19.4330 C   0  0  0  0  0  0  0  0  0  0  0  0
  -29.2440  -18.6960   21.1430 C   0  0  0  0  0  2  0  0  0  0  0  0
  -30.7660  -18.2660   19.3170 C   0  0  0  0  0  2  0  0  0  0  0  0
  -29.7100  -17.5040   20.1760 C   0  0  2  0  0  0  0  0  0  0  0  0
  -28.5110  -17.1950   19.2560 C   0  0  0  0  0  1  0  0  0  0  0  0
  -30.9060  -20.5460   18.4940 O   0  0  0  0  0  0  0  0  0  0  0  0
  -31.3730  -19.9940   17.8770 H   0  0  0  0  0  0  0  0  0  0  0  0
  -30.1540  -16.1160   20.9050 C   0  0  0  0  0  2  0  0  0  0  0  0
  -30.7210  -14.8200   20.1420 C   0  0  0  0  0  0  0  0  0  0  0  0
  -30.4600  -12.5800   19.0410 C   0  0  0  0  0  2  0  0  0  0  0  0
  -29.4670  -12.6660   17.8600 C   0  0  0  0  0  2  0  0  0  0  0  0
  -28.0210  -12.4760   18.3520 C   0  0  0  0  0  2  0  0  0  0  0  0
  -27.6970  -13.3530   19.5900 C   0  0  0  0  0  3  0  0  0  0  0  0
  -28.7950  -13.2340   20.6680 C   0  0  0  0  0  2  0  0  0  0  0  0
  -30.0740  -13.6020   20.0470 N   0  0  0  0  0  0  0  0  0  0  0  0
  -31.8300  -14.9390   19.6130 O   0  0  0  0  0  0  0  0  0  0  0  0
  -25.3320  -13.9350   20.4010 C   0  0  0  0  0  0  0  0  0  0  0  0
  -24.2820  -13.1590   20.7980 C   0  0  0  0  0  0  0  0  0  0  0  0
  -24.7430  -11.8090   20.7390 C   0  0  0  0  0  0  0  0  0  0  0  0
  -26.3700  -13.0610   20.1220 N   0  0  0  0  0  0  0  0  0  0  0  0
  -26.0250  -11.7760   20.3870 N   0  0  0  0  0  0  0  0  0  0  0  0
  -24.0210  -10.5460   20.9390 C   0  0  0  0  0  0  0  0  0  0  0  0
  -24.4520   -9.5870   21.8830 C   0  0  0  0  0  3  0  0  0  0  0  0
  -23.7260   -8.3910   22.0700 C   0  0  0  0  0  3  0  0  0  0  0  0
  -22.5550   -8.1440   21.3130 C   0  0  0  0  0  0  0  0  0  0  0  0
  -22.1440   -9.0920   20.3590 C   0  0  0  0  0  3  0  0  0  0  0  0
  -22.8700  -10.2790   20.1700 C   0  0  0  0  0  3  0  0  0  0  0  0
  -21.8030   -6.9990   21.4090 O   0  0  0  0  0  0  0  0  0  0  0  0
  -21.7230   -6.2920   22.5820 C   0  0  0  0  0  0  0  0  0  0  0  0
  -21.2110   -6.8690   23.7650 C   0  0  0  0  0  3  0  0  0  0  0  0
  -21.0830   -6.0870   24.9310 C   0  0  0  0  0  3  0  0  0  0  0  0
  -21.4510   -4.7290   24.9110 C   0  0  0  0  0  0  0  0  0  0  0  0
  -21.9560   -4.1520   23.7330 C   0  0  0  0  0  3  0  0  0  0  0  0
  -22.0890   -4.9310   22.5700 C   0  0  0  0  0  0  0  0  0  0  0  0
  -22.5560   -4.3660   21.4310 F   0  0  0  0  0  0  0  0  0  0  0  0
  -21.3200   -3.9740   26.0280 F   0  0  0  0  0  0  0  0  0  0  0  0
  -22.8950  -13.6380   21.1160 C   0  0  0  0  0  0  0  0  0  0  0  0
  -22.1940  -12.9340   21.9970 N   0  0  0  0  0  0  0  0  0  0  0  0
  -22.4450  -14.6700   20.6210 O   0  0  0  0  0  0  0  0  0  0  0  0
  -22.5720  -12.0990   22.4200 H   0  0  0  0  0  0  0  0  0  0  0  0
  -21.2670  -13.2390   22.2560 H   0  0  0  0  0  0  0  0  0  0  0  0
  -25.4760  -15.3050   20.2290 N   0  0  0  0  0  0  0  0  0  0  0  0
  -24.7020  -15.9440   20.3680 H   0  0  0  0  0  0  0  0  0  0  0  0
  -26.3030  -15.7480   19.8550 H   0  0  0  0  0  0  0  0  0  0  0  0
  -29.1850  -23.9870   20.6090 C   0  0  0  0  0  3  0  0  0  0  0  0
  -28.1460  -25.0300   19.9630 C   0  0  0  0  0  3  0  0  0  0  0  0
  -28.3180  -26.5010   20.2030 O   0  0  0  0  0  0  0  0  0  0  0  0
  -24.5810  -31.9350   23.1830 C   0  0  0  0  0  0  0  0  0  0  0  0
  -27.2040  -27.3660   20.1280 C   0  0  0  0  0  0  0  0  0  0  0  0
  -23.3810  -30.5380   21.5380 C   0  0  0  0  0  3  0  0  0  0  0  0
  -24.8380  -28.9920   20.1080 C   0  0  0  0  0  0  0  0  0  0  0  0
  -25.9200  -30.8570   21.3600 C   0  0  0  0  0  2  0  0  0  0  0  0
  -26.0050  -29.4780   20.7100 C   0  0  0  0  0  0  0  0  0  0  0  0
  -27.1890  -28.6750   20.7120 C   0  0  0  0  0  3  0  0  0  0  0  0
  -26.0130  -26.9450   19.4920 C   0  0  0  0  0  3  0  0  0  0  0  0
  -24.8470  -27.7330   19.4890 C   0  0  0  0  0  3  0  0  0  0  0  0
  -23.5990  -29.8660   20.1570 C   0  0  0  0  0  2  0  0  0  0  0  0
  -24.6450  -31.1290   22.0820 N   0  0  0  0  0  0  0  0  0  0  0  0
  -23.4990  -32.2110   23.7190 O   0  0  0  0  0  0  0  0  0  0  0  0
  -22.7190  -29.5200   22.4970 C   0  0  0  0  0  0  0  0  0  0  0  0
  -21.3910  -29.3440   22.3790 N   0  0  0  0  0  0  0  0  0  0  0  0
  -23.4000  -28.8890   23.3100 O   0  0  0  0  0  0  0  0  0  0  0  0
  -20.8970  -29.9030   21.6990 H   0  0  0  0  0  0  0  0  0  0  0  0
  -18.0120  -28.1730   22.9210 C   0  0  0  0  0  0  0  0  0  0  0  0
  -20.5780  -28.4050   23.1540 C   0  0  0  0  0  3  0  0  0  0  0  0
  -20.6570  -26.9790   22.5610 C   0  0  0  0  0  2  0  0  0  0  0  0
  -19.5360  -26.6800   21.5590 C   0  0  0  0  0  2  0  0  0  0  0  0
  -18.1660  -26.8310   22.2250 C   0  0  0  0  0  2  0  0  0  0  0  0
  -19.1450  -28.9190   23.3430 C   0  0  0  0  0  0  0  0  0  0  0  0
  -18.9470  -30.1760   23.9540 C   0  0  0  0  0  3  0  0  0  0  0  0
  -17.6500  -30.6880   24.1460 C   0  0  0  0  0  3  0  0  0  0  0  0
  -16.5320  -29.9390   23.7390 C   0  0  0  0  0  3  0  0  0  0  0  0
  -16.7140  -28.6830   23.1320 C   0  0  0  0  0  3  0  0  0  0  0  0
  -25.8650  -32.5710   23.8020 C   0  0  0  0  0  3  0  0  0  0  0  0
  -25.5510  -33.9650   24.1430 N   0  0  0  0  0  0  0  0  0  0  0  0
  -25.8790  -35.0260   23.3920 C   0  0  0  0  0  0  0  0  0  0  0  0
  -26.5450  -34.9330   22.3580 O   0  0  0  0  0  0  0  0  0  0  0  0
  -24.9560  -34.1120   24.9440 H   0  0  0  0  0  0  0  0  0  0  0  0
  -24.1580  -36.8300   23.0450 C   0  0  0  0  0  1  0  0  0  0  0  0
  -25.3880  -36.4080   23.8630 C   0  0  0  0  0  3  0  0  0  0  0  0
  -27.5070  -37.2880   24.7400 C   0  0  0  0  0  1  0  0  0  0  0  0
  -26.4230  -37.4620   23.7770 N   0  0  0  0  0  0  0  0  0  0  0  0
  -26.0120  -38.3810   23.9270 H   0  0  0  0  0  0  0  0  0  0  0  0
  -26.3910  -31.7950   25.0740 C   0  0  1  0  0  0  0  0  0  0  0  0
  -25.3020  -31.5450   26.1430 C   0  0  0  0  0  1  0  0  0  0  0  0
  -26.9850  -30.4230   24.6760 C   0  0  0  0  0  1  0  0  0  0  0  0
  -27.5310  -32.5970   25.7440 C   0  0  0  0  0  1  0  0  0  0  0  0
  1  3  2  0
  2 50  1  0
  2  1  1  0
  4  2  1  0
  5  1  1  0
  5  7  1  0
  6  5  2  0
  8  6  1  0
  8  9  1  0
  9 10  1  6
  9 13  1  0
  9  7  1  0
 11  6  1  0
 12 11  1  0
 14 13  1  0
 15 20  1  0
 16 17  1  0
 16 15  1  0
 18 17  1  0
 18 25  1  0
 18 19  1  0
 20 14  1  0
 20 19  1  0
 21 14  2  0
 22 23  2  0
 23 42  1  0
 24 23  1  0
 24 27  1  0
 25 26  1  0
 25 22  1  0
 26 24  2  0
 27 28  1  0
 28 29  2  0
 30 33  1  0
 30 29  1  0
 31 30  2  0
 32 31  1  0
 32 27  2  0
 33 34  1  0
 34 35  1  0
 35 36  2  0
 37 36  1  0
 37 41  1  0
 38 37  2  0
 39 34  2  0
 39 38  1  0
 40 39  1  0
 42 43  1  0
 43 46  1  0
 43 45  1  0
 44 42  2  0
 47 48  1  0
 47 22  1  0
 49 47  1  0
 51 52  1  0
 51 50  2  0
 53 64  2  0
 54 52  1  0
 54 59  1  0
 55 63  1  0
 55 65  1  0
 56 62  1  0
 56 58  1  0
 57 63  1  0
 58 59  2  0
 58 57  1  0
 60 54  2  0
 61 60  1  0
 61 56  2  0
 62 55  1  0
 63 53  1  0
 65 67  2  0
 66 65  1  0
 68 66  1  0
 69 78  2  0
 69 74  1  0
 70 66  1  0
 70 74  1  0
 71 70  1  0
 72 73  1  0
 72 71  1  0
 73 69  1  0
 74 75  2  0
 75 76  1  0
 77 76  2  0
 78 77  1  0
 79 53  1  0
 79 80  1  0
 79 89  1  0
 80 83  1  0
 81 85  1  0
 81 80  1  0
 82 81  2  0
 85 84  1  0
 87 85  1  0
 87 88  1  0
 87 86  1  0
 89 92  1  1
 89 90  1  0
 91 89  1  0
M  ISO  4  13 100  14 100  51 101  52 101
M  END
>  <TORSDO>  (63) 
F 21

>  <SCORE>  (63) 
-13.583

>  <name>  (63) 
62

>  <ligand_id>  (63) 
62

>  <original_smiles>  (63) 
[H]OC1=C(C(=O)N([H])C([H])([H])C([H])([H])Oc2c([H])c([H])c3c(c2[H])C([H])([H])N(C(=O)C([H])(N([H])C(=O)C([H])(N([H])C([H])([H])[H])C([H])([H])[H])C(C([H])([H])[H])(C([H])([H])[H])C([H])([H])[H])C([H])(C(=O)N([H])C2([H])c4c([H])c([H])c([H])c([H])c4C([H])([H])C([H])([H])C2([H])[H])C3([H])[H])C([H])([H])C(C([H])([H])[H])(C([H])([H])C(=O)N2C([H])([H])C([H])([H])C([H])([H])C([H])(n3nc(-c4c([H])c([H])c(Oc5c([H])c([H])c(F)c([H])c5F)c([H])c4[H])c(C(=O)N([H])[H])c3N([H])[H])C2([H])[H])C1([H])[H]

>  <smiles>  (63) 
[H]OC1=C(C(=O)N([H])C([H])([H])C([H])([H])Oc2c([H])c([H])c3c(c2[H])C([H])([H])N(C(=O)C([H])(N([H])C(=O)C([H])(N([H])C([H])([H])[H])C([H])([H])[H])C(C([H])([H])[H])(C([H])([H])[H])C([H])([H])[H])C([H])(C(=O)N([H])C2([H])c4c([H])c([H])c([H])c([H])c4C([H])([H])C([H])([H])C2([H])[H])C3([H])[H])C([H])([H])C(C([H])([H])[H])(C([H])([H])C(=O)N2C([H])([H])C([H])([H])C([H])([H])C([H])(n3nc(-c4c([H])c([H])c(Oc5c([H])c([H])c(F)c([H])c5F)c([H])c4[H])c(C(=O)N([H])[H])c3N([H])[H])C2([H])[H])C1([H])[H]

$$$$
63:0:0
     RDKit          3D

 91 99  0  0  1  0  0  0  0  0999 V2000
  -27.1800  -20.7500   18.8480 C   0  0  0  0  0  3  0  0  0  0  0  0
  -27.9820  -19.6420   19.1830 C   0  0  0  0  0  3  0  0  0  0  0  0
  -27.5400  -22.0570   19.2290 C   0  0  0  0  0  3  0  0  0  0  0  0
  -29.5190  -21.1510   20.3150 C   0  0  0  0  0  3  0  0  0  0  0  0
  -29.1700  -19.8010   19.9280 C   0  0  0  0  0  0  0  0  0  0  0  0
  -28.7190  -22.3110   19.9690 C   0  0  0  0  0  0  0  0  0  0  0  0
  -30.4830  -24.1700   19.7820 C   0  0  0  0  0  1  0  0  0  0  0  0
  -29.1030  -23.8050   20.3500 C   0  0  0  0  0  3  0  0  0  0  0  0
  -28.0690  -24.9680   19.9670 C   0  0  0  0  0  2  0  0  0  0  0  0
  -28.3110  -26.4020   20.2940 O   0  0  0  0  0  0  0  0  0  0  0  0
  -24.6270  -31.8700   23.2510 C   0  0  0  0  0  0  0  0  0  0  0  0
  -27.2190  -27.2860   20.2110 C   0  0  0  0  0  0  0  0  0  0  0  0
  -23.4270  -30.4880   21.5960 C   0  0  0  0  0  3  0  0  0  0  0  0
  -24.8770  -28.9340   20.1770 C   0  0  0  0  0  0  0  0  0  0  0  0
  -25.9730  -30.7810   21.4390 C   0  0  0  0  0  2  0  0  0  0  0  0
  -26.0440  -29.4030   20.7920 C   0  0  0  0  0  0  0  0  0  0  0  0
  -27.2180  -28.5880   20.8060 C   0  0  0  0  0  3  0  0  0  0  0  0
  -26.0300  -26.8860   19.5560 C   0  0  0  0  0  3  0  0  0  0  0  0
  -24.8730  -27.6810   19.5520 C   0  0  0  0  0  3  0  0  0  0  0  0
  -23.6490  -29.8210   20.2140 C   0  0  0  0  0  2  0  0  0  0  0  0
  -24.6950  -31.0650   22.1520 N   0  0  0  0  0  0  0  0  0  0  0  0
  -23.5400  -32.1570   23.7750 O   0  0  0  0  0  0  0  0  0  0  0  0
  -22.7460  -29.4740   22.5460 C   0  0  0  0  0  0  0  0  0  0  0  0
  -21.4170  -29.3200   22.4160 N   0  0  0  0  0  0  0  0  0  0  0  0
  -23.4120  -28.8270   23.3580 O   0  0  0  0  0  0  0  0  0  0  0  0
  -20.9370  -29.8930   21.7360 H   0  0  0  0  0  0  0  0  0  0  0  0
  -18.0140  -28.1960   22.9220 C   0  0  0  0  0  0  0  0  0  0  0  0
  -20.5800  -28.3900   23.1780 C   0  0  0  0  0  3  0  0  0  0  0  0
  -20.6450  -26.9650   22.5820 C   0  0  0  0  0  2  0  0  0  0  0  0
  -19.5300  -26.6830   21.5710 C   0  0  0  0  0  2  0  0  0  0  0  0
  -18.1540  -26.8520   22.2240 C   0  0  0  0  0  2  0  0  0  0  0  0
  -19.1540  -28.9250   23.3540 C   0  0  0  0  0  0  0  0  0  0  0  0
  -18.9700  -30.1830   23.9660 C   0  0  0  0  0  3  0  0  0  0  0  0
  -17.6790  -30.7140   24.1470 C   0  0  0  0  0  3  0  0  0  0  0  0
  -16.5540  -29.9830   23.7300 C   0  0  0  0  0  3  0  0  0  0  0  0
  -16.7220  -28.7240   23.1240 C   0  0  0  0  0  3  0  0  0  0  0  0
  -25.9100  -32.4900   23.8870 C   0  0  0  0  0  3  0  0  0  0  0  0
  -25.6090  -33.8890   24.2220 N   0  0  0  0  0  0  0  0  0  0  0  0
  -25.9240  -34.9420   23.4550 C   0  0  0  0  0  0  0  0  0  0  0  0
  -26.5720  -34.8360   22.4090 O   0  0  0  0  0  0  0  0  0  0  0  0
  -25.0350  -34.0450   25.0380 H   0  0  0  0  0  0  0  0  0  0  0  0
  -24.1810  -36.7280   23.1430 C   0  0  0  0  0  1  0  0  0  0  0  0
  -25.4470  -36.3310   23.9190 C   0  0  0  0  0  3  0  0  0  0  0  0
  -27.6000  -37.2290   24.6860 C   0  0  0  0  0  1  0  0  0  0  0  0
  -26.4720  -37.3880   23.7710 N   0  0  0  0  0  0  0  0  0  0  0  0
  -26.0670  -38.3070   23.9260 H   0  0  0  0  0  0  0  0  0  0  0  0
  -26.4080  -31.7080   25.1640 C   0  0  1  0  0  0  0  0  0  0  0  0
  -25.3040  -31.4700   26.2200 C   0  0  0  0  0  1  0  0  0  0  0  0
  -26.9850  -30.3280   24.7690 C   0  0  0  0  0  1  0  0  0  0  0  0
  -27.5560  -32.4910   25.8420 C   0  0  0  0  0  1  0  0  0  0  0  0
  -30.0720  -18.5240   20.1650 C   0  0  0  0  0  2  0  0  0  0  0  0
  -29.7760  -15.8030   20.5150 C   0  0  0  0  0  3  0  0  0  0  0  0
  -29.4430  -17.1470   20.6460 C   0  0  0  0  0  0  0  0  0  0  0  0
  -30.6600  -14.6640   20.0590 C   0  0  0  0  0  0  0  0  0  0  0  0
  -30.3840  -12.4380   18.9670 C   0  0  0  0  0  2  0  0  0  0  0  0
  -29.3800  -12.6160   17.8050 C   0  0  0  0  0  2  0  0  0  0  0  0
  -27.9290  -12.4630   18.3000 C   0  0  0  0  0  2  0  0  0  0  0  0
  -27.6490  -13.2780   19.5940 C   0  0  0  0  0  3  0  0  0  0  0  0
  -28.7670  -13.0800   20.6400 C   0  0  0  0  0  2  0  0  0  0  0  0
  -30.0430  -13.4350   20.0050 N   0  0  0  0  0  0  0  0  0  0  0  0
  -31.8260  -14.7620   19.6370 O   0  0  0  0  0  0  0  0  0  0  0  0
  -25.3090  -13.8690   20.4640 C   0  0  0  0  0  0  0  0  0  0  0  0
  -24.2570  -13.0920   20.8680 C   0  0  0  0  0  0  0  0  0  0  0  0
  -24.7060  -11.7390   20.7740 C   0  0  0  0  0  0  0  0  0  0  0  0
  -26.3310  -12.9890   20.1470 N   0  0  0  0  0  0  0  0  0  0  0  0
  -25.9770  -11.7010   20.3920 N   0  0  0  0  0  0  0  0  0  0  0  0
  -23.9820  -10.4770   20.9720 C   0  0  0  0  0  0  0  0  0  0  0  0
  -24.4300   -9.5050   21.8970 C   0  0  0  0  0  3  0  0  0  0  0  0
  -23.7080   -8.3070   22.0830 C   0  0  0  0  0  3  0  0  0  0  0  0
  -22.5230   -8.0700   21.3430 C   0  0  0  0  0  0  0  0  0  0  0  0
  -22.0950   -9.0290   20.4090 C   0  0  0  0  0  3  0  0  0  0  0  0
  -22.8170  -10.2210   20.2240 C   0  0  0  0  0  3  0  0  0  0  0  0
  -21.7730   -6.9230   21.4380 O   0  0  0  0  0  0  0  0  0  0  0  0
  -21.6970   -6.2030   22.6040 C   0  0  0  0  0  0  0  0  0  0  0  0
  -21.2140   -6.7760   23.8000 C   0  0  0  0  0  3  0  0  0  0  0  0
  -21.0870   -5.9850   24.9590 C   0  0  0  0  0  3  0  0  0  0  0  0
  -21.4320   -4.6210   24.9220 C   0  0  0  0  0  0  0  0  0  0  0  0
  -21.9080   -4.0470   23.7300 C   0  0  0  0  0  3  0  0  0  0  0  0
  -22.0370   -4.8360   22.5730 C   0  0  0  0  0  0  0  0  0  0  0  0
  -22.4760   -4.2730   21.4210 F   0  0  0  0  0  0  0  0  0  0  0  0
  -21.3020   -3.8570   26.0310 F   0  0  0  0  0  0  0  0  0  0  0  0
  -22.8810  -13.5680   21.2320 C   0  0  0  0  0  0  0  0  0  0  0  0
  -22.2010  -12.8520   22.1190 N   0  0  0  0  0  0  0  0  0  0  0  0
  -22.4190  -14.6090   20.7650 O   0  0  0  0  0  0  0  0  0  0  0  0
  -22.5880  -12.0080   22.5150 H   0  0  0  0  0  0  0  0  0  0  0  0
  -21.2770  -13.1500   22.4040 H   0  0  0  0  0  0  0  0  0  0  0  0
  -25.4790  -15.2420   20.3230 N   0  0  0  0  0  0  0  0  0  0  0  0
  -24.7460  -15.9120   20.5300 H   0  0  0  0  0  0  0  0  0  0  0  0
  -26.3600  -15.6830   20.0830 H   0  0  0  0  0  0  0  0  0  0  0  0
  -28.3350  -17.4400   21.3410 O   0  0  0  0  0  0  0  0  0  0  0  0
  -28.2070  -18.3800   21.2740 H   0  0  0  0  0  0  0  0  0  0  0  0
  1  2  2  0
  1  3  1  0
  2  5  1  0
  3  6  2  0
  5 51  1  0
  5  4  2  0
  6  4  1  0
  6  8  1  0
  8  7  1  0
  9 10  1  0
  9  8  1  0
 11 22  2  0
 12 10  1  0
 12 17  1  0
 13 21  1  0
 13 23  1  0
 14 20  1  0
 14 16  1  0
 15 21  1  0
 16 17  2  0
 16 15  1  0
 18 12  2  0
 19 18  1  0
 19 14  2  0
 20 13  1  0
 21 11  1  0
 23 25  2  0
 24 23  1  0
 26 24  1  0
 27 36  2  0
 27 32  1  0
 28 24  1  0
 28 32  1  0
 29 28  1  0
 30 31  1  0
 30 29  1  0
 31 27  1  0
 32 33  2  0
 33 34  1  0
 35 34  2  0
 36 35  1  0
 37 11  1  0
 37 38  1  0
 37 47  1  0
 38 41  1  0
 39 43  1  0
 39 38  1  0
 40 39  2  0
 43 42  1  0
 45 43  1  0
 45 46  1  0
 45 44  1  0
 47 50  1  1
 47 48  1  0
 49 47  1  0
 51 53  1  0
 52 53  2  0
 53 90  1  0
 54 52  1  0
 55 60  1  0
 56 57  1  0
 56 55  1  0
 58 57  1  0
 58 65  1  0
 58 59  1  0
 60 54  1  0
 60 59  1  0
 61 54  2  0
 62 63  2  0
 63 82  1  0
 64 63  1  0
 64 67  1  0
 65 66  1  0
 65 62  1  0
 66 64  2  0
 67 68  1  0
 68 69  2  0
 70 73  1  0
 70 69  1  0
 71 70  2  0
 72 71  1  0
 72 67  2  0
 73 74  1  0
 74 75  1  0
 75 76  2  0
 77 76  1  0
 77 81  1  0
 78 77  2  0
 79 74  2  0
 79 78  1  0
 80 79  1  0
 82 83  1  0
 83 86  1  0
 83 85  1  0
 84 82  2  0
 87 62  1  0
 87 88  1  0
 89 87  1  0
 91 90  1  0
M  ISO  4   9 101  10 101  52 100  54 100
M  END
>  <TORSDO>  (64) 
F 21

>  <SCORE>  (64) 
-13.655

>  <name>  (64) 
63

>  <ligand_id>  (64) 
63

>  <original_smiles>  (64) 
[H]OC(=C([H])C(=O)N1C([H])([H])C([H])([H])C([H])([H])C([H])(n2nc(-c3c([H])c([H])c(Oc4c([H])c([H])c(F)c([H])c4F)c([H])c3[H])c(C(=O)N([H])[H])c2N([H])[H])C1([H])[H])C([H])([H])c1c([H])c([H])c([H])c(C([H])(C([H])([H])[H])C([H])([H])Oc2c([H])c([H])c3c(c2[H])C([H])([H])N(C(=O)C([H])(N([H])C(=O)C([H])(N([H])C([H])([H])[H])C([H])([H])[H])C(C([H])([H])[H])(C([H])([H])[H])C([H])([H])[H])C([H])(C(=O)N([H])C2([H])c4c([H])c([H])c([H])c([H])c4C([H])([H])C([H])([H])C2([H])[H])C3([H])[H])c1[H]

>  <smiles>  (64) 
[H]OC(=C([H])C(=O)N1C([H])([H])C([H])([H])C([H])([H])C([H])(n2nc(-c3c([H])c([H])c(Oc4c([H])c([H])c(F)c([H])c4F)c([H])c3[H])c(C(=O)N([H])[H])c2N([H])[H])C1([H])[H])C([H])([H])c1c([H])c([H])c([H])c(C([H])(C([H])([H])[H])C([H])([H])Oc2c([H])c([H])c3c(c2[H])C([H])([H])N(C(=O)C([H])(N([H])C(=O)C([H])(N([H])C([H])([H])[H])C([H])([H])[H])C(C([H])([H])[H])(C([H])([H])[H])C([H])([H])[H])C([H])(C(=O)N([H])C2([H])c4c([H])c([H])c([H])c([H])c4C([H])([H])C([H])([H])C2([H])[H])C3([H])[H])c1[H]

$$$$
64:0:0
     RDKit          3D

 92100  0  0  1  0  0  0  0  0999 V2000
  -29.8690  -21.7480   19.0530 C   0  0  0  0  0  3  0  0  0  0  0  0
  -30.0830  -22.1600   21.4250 C   0  0  0  0  0  3  0  0  0  0  0  0
  -29.2780  -23.0260   18.8930 C   0  0  0  0  0  3  0  0  0  0  0  0
  -29.4790  -23.4410   21.2630 C   0  0  0  0  0  3  0  0  0  0  0  0
  -30.2660  -21.2780   20.3250 C   0  0  0  0  0  0  0  0  0  0  0  0
  -29.0530  -23.8930   19.9910 C   0  0  0  0  0  0  0  0  0  0  0  0
  -30.9790  -19.9010   20.4660 C   0  0  0  0  0  2  0  0  0  0  0  0
  -30.1160  -18.5860   20.5930 C   0  0  0  0  0  3  0  0  0  0  0  0
  -29.3260  -18.6200   21.8400 N   0  0  0  0  0  4  0  0  0  0  0  0
  -29.9200  -18.6120   22.6500 H   0  0  0  0  0  0  0  0  0  0  0  0
  -28.7000  -17.8380   21.8930 H   0  0  0  0  0  0  0  0  0  0  0  0
  -28.7710  -19.4570   21.8650 H   0  0  0  0  0  0  0  0  0  0  0  0
  -30.9710  -17.2580   20.4780 C   0  0  0  0  0  2  0  0  0  0  0  0
  -30.2730  -15.8640   20.7550 C   0  0  0  0  0  2  0  0  0  0  0  0
  -30.9620  -14.5930   20.1430 C   0  0  0  0  0  0  0  0  0  0  0  0
  -30.5900  -12.4530   18.9400 C   0  0  0  0  0  2  0  0  0  0  0  0
  -29.5940  -12.6990   17.7860 C   0  0  0  0  0  2  0  0  0  0  0  0
  -28.1410  -12.5510   18.2810 C   0  0  0  0  0  2  0  0  0  0  0  0
  -27.8720  -13.3520   19.5810 C   0  0  0  0  0  3  0  0  0  0  0  0
  -28.9810  -13.1120   20.6300 C   0  0  0  0  0  2  0  0  0  0  0  0
  -30.2770  -13.4170   20.0110 N   0  0  0  0  0  0  0  0  0  0  0  0
  -32.0880  -14.7280   19.6550 O   0  0  0  0  0  0  0  0  0  0  0  0
  -25.5200  -13.9620   20.4240 C   0  0  0  0  0  0  0  0  0  0  0  0
  -24.4610  -13.1930   20.8230 C   0  0  0  0  0  0  0  0  0  0  0  0
  -24.9040  -11.8370   20.7370 C   0  0  0  0  0  0  0  0  0  0  0  0
  -26.5420  -13.0760   20.1200 N   0  0  0  0  0  0  0  0  0  0  0  0
  -26.1790  -11.7920   20.3680 N   0  0  0  0  0  0  0  0  0  0  0  0
  -24.1710  -10.5780   20.9270 C   0  0  0  0  0  0  0  0  0  0  0  0
  -24.5830   -9.6210   21.8800 C   0  0  0  0  0  3  0  0  0  0  0  0
  -23.8520   -8.4270   22.0570 C   0  0  0  0  0  3  0  0  0  0  0  0
  -22.6940   -8.1820   21.2820 C   0  0  0  0  0  0  0  0  0  0  0  0
  -22.3010   -9.1280   20.3190 C   0  0  0  0  0  3  0  0  0  0  0  0
  -23.0340  -10.3140   20.1390 C   0  0  0  0  0  3  0  0  0  0  0  0
  -21.9360   -7.0390   21.3670 O   0  0  0  0  0  0  0  0  0  0  0  0
  -21.7880   -6.3610   22.5500 C   0  0  0  0  0  0  0  0  0  0  0  0
  -21.2270   -6.9700   23.6930 C   0  0  0  0  0  3  0  0  0  0  0  0
  -21.0290   -6.2160   24.8680 C   0  0  0  0  0  3  0  0  0  0  0  0
  -21.3820   -4.8540   24.8980 C   0  0  0  0  0  0  0  0  0  0  0  0
  -21.9350   -4.2430   23.7590 C   0  0  0  0  0  3  0  0  0  0  0  0
  -22.1350   -4.9940   22.5860 C   0  0  0  0  0  0  0  0  0  0  0  0
  -22.6490   -4.3970   21.4850 F   0  0  0  0  0  0  0  0  0  0  0  0
  -21.1850   -4.1270   26.0230 F   0  0  0  0  0  0  0  0  0  0  0  0
  -23.0830  -13.6790   21.1700 C   0  0  0  0  0  0  0  0  0  0  0  0
  -22.3880  -12.9720   22.0550 N   0  0  0  0  0  0  0  0  0  0  0  0
  -22.6330  -14.7190   20.6920 O   0  0  0  0  0  0  0  0  0  0  0  0
  -22.7650  -12.1280   22.4610 H   0  0  0  0  0  0  0  0  0  0  0  0
  -21.4670  -13.2790   22.3290 H   0  0  0  0  0  0  0  0  0  0  0  0
  -25.6950  -15.3350   20.2730 N   0  0  0  0  0  0  0  0  0  0  0  0
  -24.9370  -15.9940   20.4190 H   0  0  0  0  0  0  0  0  0  0  0  0
  -26.5230  -15.7660   19.8830 H   0  0  0  0  0  0  0  0  0  0  0  0
  -28.0960  -25.0980   19.7950 C   0  0  0  0  0  2  0  0  0  0  0  0
  -28.3600  -26.4580   20.2840 O   0  0  0  0  0  0  0  0  0  0  0  0
  -24.6130  -31.8360   23.2890 C   0  0  0  0  0  0  0  0  0  0  0  0
  -27.2560  -27.3280   20.2070 C   0  0  0  0  0  0  0  0  0  0  0  0
  -23.4340  -30.4740   21.6050 C   0  0  0  0  0  3  0  0  0  0  0  0
  -24.9020  -28.9510   20.1840 C   0  0  0  0  0  0  0  0  0  0  0  0
  -25.9800  -30.7790   21.4840 C   0  0  0  0  0  2  0  0  0  0  0  0
  -26.0620  -29.4150   20.8170 C   0  0  0  0  0  0  0  0  0  0  0  0
  -27.2410  -28.6120   20.8280 C   0  0  0  0  0  3  0  0  0  0  0  0
  -26.0680  -26.9350   19.5340 C   0  0  0  0  0  3  0  0  0  0  0  0
  -24.9050  -27.7140   19.5380 C   0  0  0  0  0  3  0  0  0  0  0  0
  -23.6710  -29.8290   20.2190 C   0  0  0  0  0  2  0  0  0  0  0  0
  -24.6930  -31.0440   22.1830 N   0  0  0  0  0  0  0  0  0  0  0  0
  -23.5190  -32.1140   23.8030 O   0  0  0  0  0  0  0  0  0  0  0  0
  -22.7460  -29.4420   22.5300 C   0  0  0  0  0  0  0  0  0  0  0  0
  -21.4250  -29.2620   22.3580 N   0  0  0  0  0  0  0  0  0  0  0  0
  -23.3990  -28.8070   23.3630 O   0  0  0  0  0  0  0  0  0  0  0  0
  -20.9590  -29.8260   21.6620 H   0  0  0  0  0  0  0  0  0  0  0  0
  -18.0350  -28.0590   22.7340 C   0  0  0  0  0  0  0  0  0  0  0  0
  -20.5820  -28.3190   23.0940 C   0  0  0  0  0  3  0  0  0  0  0  0
  -20.7060  -26.8900   22.5160 C   0  0  0  0  0  2  0  0  0  0  0  0
  -19.6400  -26.5720   21.4620 C   0  0  0  0  0  2  0  0  0  0  0  0
  -18.2360  -26.7130   22.0580 C   0  0  0  0  0  2  0  0  0  0  0  0
  -19.1370  -28.8200   23.2050 C   0  0  0  0  0  0  0  0  0  0  0  0
  -18.8960  -30.0800   23.7950 C   0  0  0  0  0  3  0  0  0  0  0  0
  -17.5860  -30.5810   23.9160 C   0  0  0  0  0  3  0  0  0  0  0  0
  -16.4980  -29.8170   23.4610 C   0  0  0  0  0  3  0  0  0  0  0  0
  -16.7230  -28.5580   22.8750 C   0  0  0  0  0  3  0  0  0  0  0  0
  -25.8870  -32.4480   23.9470 C   0  0  0  0  0  3  0  0  0  0  0  0
  -25.5910  -33.8520   24.2630 N   0  0  0  0  0  0  0  0  0  0  0  0
  -25.9250  -34.8930   23.4880 C   0  0  0  0  0  0  0  0  0  0  0  0
  -26.5850  -34.7720   22.4540 O   0  0  0  0  0  0  0  0  0  0  0  0
  -25.0040  -34.0210   25.0670 H   0  0  0  0  0  0  0  0  0  0  0  0
  -24.1880  -36.6800   23.1470 C   0  0  0  0  0  1  0  0  0  0  0  0
  -25.4500  -36.2900   23.9340 C   0  0  0  0  0  3  0  0  0  0  0  0
  -27.6020  -37.1920   24.6970 C   0  0  0  0  0  1  0  0  0  0  0  0
  -26.4800  -37.3390   23.7740 N   0  0  0  0  0  0  0  0  0  0  0  0
  -26.0760  -38.2620   23.9110 H   0  0  0  0  0  0  0  0  0  0  0  0
  -26.3520  -31.6720   25.2400 C   0  0  1  0  0  0  0  0  0  0  0  0
  -25.2210  -31.4480   26.2700 C   0  0  0  0  0  1  0  0  0  0  0  0
  -26.9300  -30.2860   24.8680 C   0  0  0  0  0  1  0  0  0  0  0  0
  -27.4900  -32.4530   25.9380 C   0  0  0  0  0  1  0  0  0  0  0  0
  1  5  1  0
  3  1  2  0
  3  6  1  0
  4  2  1  0
  5  7  1  0
  5  2  2  0
  6  4  2  0
  8  7  1  0
  8  9  1  0
  9 12  1  0
  9 11  1  0
  9 10  1  0
 13  8  1  0
 13 14  1  0
 15 14  1  0
 16 21  1  0
 17 18  1  0
 17 16  1  0
 19 18  1  0
 19 26  1  0
 19 20  1  0
 21 15  1  0
 21 20  1  0
 22 15  2  0
 23 24  2  0
 24 43  1  0
 25 24  1  0
 25 28  1  0
 26 27  1  0
 26 23  1  0
 27 25  2  0
 28 29  1  0
 29 30  2  0
 31 34  1  0
 31 30  1  0
 32 31  2  0
 33 32  1  0
 33 28  2  0
 34 35  1  0
 35 40  2  0
 35 36  1  0
 36 37  2  0
 37 38  1  0
 38 42  1  0
 39 38  2  0
 40 39  1  0
 41 40  1  0
 43 44  1  0
 44 47  1  0
 44 46  1  0
 45 43  2  0
 48 49  1  0
 48 23  1  0
 50 48  1  0
 51  6  1  0
 51 52  1  0
 53 64  2  0
 54 52  1  0
 54 59  1  0
 55 63  1  0
 55 65  1  0
 56 62  1  0
 56 58  1  0
 57 63  1  0
 58 59  2  0
 58 57  1  0
 60 61  1  0
 60 54  2  0
 61 56  2  0
 62 55  1  0
 63 53  1  0
 65 67  2  0
 66 65  1  0
 68 66  1  0
 69 78  2  0
 69 74  1  0
 70 66  1  0
 70 74  1  0
 71 70  1  0
 72 73  1  0
 72 71  1  0
 73 69  1  0
 74 75  2  0
 75 76  1  0
 77 76  2  0
 78 77  1  0
 79 53  1  0
 79 80  1  0
 79 89  1  0
 80 83  1  0
 81 85  1  0
 81 80  1  0
 82 81  2  0
 85 84  1  0
 87 88  1  0
 87 85  1  0
 87 86  1  0
 89 92  1  1
 89 90  1  0
 91 89  1  0
M  ISO  4  14 100  15 100  51 101  52 101
M  END
>  <TORSDO>  (65) 
F 22

>  <SCORE>  (65) 
-12.506

>  <name>  (65) 
64

>  <ligand_id>  (65) 
64

>  <original_smiles>  (65) 
[H]c1c([H])c([H])c2c(c1[H])C([H])([H])C([H])([H])C([H])([H])C2([H])N([H])C(=O)C1([H])N(C(=O)C([H])(N([H])C(=O)C([H])(N([H])C([H])([H])[H])C([H])([H])[H])C(C([H])([H])[H])(C([H])([H])[H])C([H])([H])[H])C([H])([H])c2c([H])c(OC([H])([H])c3c([H])c([H])c(C([H])([H])C([H])(C([H])([H])C([H])([H])C(=O)N4C([H])([H])C([H])([H])C([H])([H])C([H])(n5nc(-c6c([H])c([H])c(Oc7c([H])c([H])c(F)c([H])c7F)c([H])c6[H])c(C(=O)N([H])[H])c5N([H])[H])C4([H])[H])[N+]([H])([H])[H])c([H])c3[H])c([H])c([H])c2C1([H])[H]

>  <smiles>  (65) 
[H]c1c([H])c([H])c2c(c1[H])C([H])([H])C([H])([H])C([H])([H])C2([H])N([H])C(=O)C1([H])N(C(=O)C([H])(N([H])C(=O)C([H])(N([H])C([H])([H])[H])C([H])([H])[H])C(C([H])([H])[H])(C([H])([H])[H])C([H])([H])[H])C([H])([H])c2c([H])c(OC([H])([H])c3c([H])c([H])c(C([H])([H])C([H])(C([H])([H])C([H])([H])C(=O)N4C([H])([H])C([H])([H])C([H])([H])C([H])(n5nc(-c6c([H])c([H])c(Oc7c([H])c([H])c(F)c([H])c7F)c([H])c6[H])c(C(=O)N([H])[H])c5N([H])[H])C4([H])[H])[N+]([H])([H])[H])c([H])c3[H])c([H])c([H])c2C1([H])[H]

$$$$
65:0:0
     RDKit          3D

 95103  0  0  1  0  0  0  0  0999 V2000
  -28.9750  -23.1590   21.2750 C   0  0  0  0  0  2  0  0  0  0  0  0
  -28.6720  -21.6880   20.8560 C   0  0  0  0  0  2  0  0  0  0  0  0
  -31.5690  -19.9290   22.6790 C   0  0  0  0  0  3  0  0  0  0  0  0
  -31.7310  -18.7500   21.9310 C   0  0  0  0  0  3  0  0  0  0  0  0
  -30.5880  -20.8690   22.3150 C   0  0  0  0  0  3  0  0  0  0  0  0
  -30.9070  -18.4850   20.8170 C   0  0  0  0  0  0  0  0  0  0  0  0
  -29.7620  -20.6520   21.1910 C   0  0  0  0  0  0  0  0  0  0  0  0
  -29.9210  -19.4460   20.4460 C   0  0  0  0  0  0  0  0  0  0  0  0
  -29.1140  -19.2160   19.3700 O   0  0  0  0  0  0  0  0  0  0  0  0
  -29.2900  -18.3870   18.9410 H   0  0  0  0  0  0  0  0  0  0  0  0
  -31.1560  -17.1920   20.0200 C   0  0  0  0  0  2  0  0  0  0  0  0
  -30.7970  -15.8670   20.7560 C   0  0  0  0  0  2  0  0  0  0  0  0
  -31.4050  -14.6040   20.0940 C   0  0  0  0  0  0  0  0  0  0  0  0
  -31.0150  -12.3870   19.0680 C   0  0  0  0  0  2  0  0  0  0  0  0
  -30.0740  -12.5500   17.8570 C   0  0  0  0  0  2  0  0  0  0  0  0
  -28.5980  -12.5040   18.3000 C   0  0  0  0  0  2  0  0  0  0  0  0
  -28.3050  -13.4380   19.5040 C   0  0  0  0  0  3  0  0  0  0  0  0
  -29.3560  -13.2450   20.6200 C   0  0  0  0  0  2  0  0  0  0  0  0
  -30.6870  -13.4490   20.0320 N   0  0  0  0  0  0  0  0  0  0  0  0
  -32.5120  -14.7070   19.5570 O   0  0  0  0  0  0  0  0  0  0  0  0
  -25.9630  -14.2100   20.2430 C   0  0  0  0  0  0  0  0  0  0  0  0
  -24.8500  -13.5130   20.6290 C   0  0  0  0  0  0  0  0  0  0  0  0
  -25.2180  -12.1320   20.5950 C   0  0  0  0  0  0  0  0  0  0  0  0
  -26.9430  -13.2580   20.0020 N   0  0  0  0  0  0  0  0  0  0  0  0
  -26.4980  -12.0040   20.2690 N   0  0  0  0  0  0  0  0  0  0  0  0
  -24.4110  -10.9220   20.8000 C   0  0  0  0  0  0  0  0  0  0  0  0
  -24.7680   -9.9500   21.7600 C   0  0  0  0  0  3  0  0  0  0  0  0
  -23.9660   -8.8040   21.9510 C   0  0  0  0  0  3  0  0  0  0  0  0
  -22.7920   -8.6230   21.1810 C   0  0  0  0  0  0  0  0  0  0  0  0
  -22.4540   -9.5830   20.2110 C   0  0  0  0  0  3  0  0  0  0  0  0
  -23.2550  -10.7200   20.0180 C   0  0  0  0  0  3  0  0  0  0  0  0
  -21.9670   -7.5300   21.2800 O   0  0  0  0  0  0  0  0  0  0  0  0
  -21.8140   -6.8460   22.4600 C   0  0  0  0  0  0  0  0  0  0  0  0
  -21.3770   -7.4860   23.6400 C   0  0  0  0  0  3  0  0  0  0  0  0
  -21.1680   -6.7330   24.8120 C   0  0  0  0  0  3  0  0  0  0  0  0
  -21.3860   -5.3420   24.8050 C   0  0  0  0  0  0  0  0  0  0  0  0
  -21.8150   -4.7020   23.6290 C   0  0  0  0  0  3  0  0  0  0  0  0
  -22.0260   -5.4530   22.4590 C   0  0  0  0  0  0  0  0  0  0  0  0
  -22.4200   -4.8290   21.3230 F   0  0  0  0  0  0  0  0  0  0  0  0
  -21.1770   -4.6170   25.9290 F   0  0  0  0  0  0  0  0  0  0  0  0
  -23.4920  -14.0840   20.9220 C   0  0  0  0  0  0  0  0  0  0  0  0
  -22.7460  -13.4590   21.8270 N   0  0  0  0  0  0  0  0  0  0  0  0
  -23.1040  -15.1190   20.3830 O   0  0  0  0  0  0  0  0  0  0  0  0
  -23.0740  -12.6220   22.2850 H   0  0  0  0  0  0  0  0  0  0  0  0
  -21.8360  -13.8250   22.0660 H   0  0  0  0  0  0  0  0  0  0  0  0
  -26.2170  -15.5660   20.0590 N   0  0  0  0  0  0  0  0  0  0  0  0
  -25.5000  -16.2720   20.1800 H   0  0  0  0  0  0  0  0  0  0  0  0
  -27.0960  -15.9450   19.7310 H   0  0  0  0  0  0  0  0  0  0  0  0
  -27.9910  -24.2240   20.6900 C   0  0  0  0  0  3  0  0  0  0  0  0
  -26.6300  -24.0340   21.2490 N   0  0  0  0  0  4  0  0  0  0  0  0
  -26.6300  -24.0990   22.2540 H   0  0  0  0  0  0  0  0  0  0  0  0
  -26.2480  -23.1400   20.9930 H   0  0  0  0  0  0  0  0  0  0  0  0
  -26.0080  -24.7420   20.8970 H   0  0  0  0  0  0  0  0  0  0  0  0
  -28.4660  -25.6910   20.9240 C   0  0  0  0  0  2  0  0  0  0  0  0
  -28.1730  -26.5860   19.8360 O   0  0  0  0  0  0  0  0  0  0  0  0
  -24.5730  -31.8130   23.1200 C   0  0  0  0  0  0  0  0  0  0  0  0
  -27.0240  -27.3350   19.9380 C   0  0  0  0  0  0  0  0  0  0  0  0
  -23.2850  -30.4420   21.5130 C   0  0  0  0  0  3  0  0  0  0  0  0
  -24.6610  -28.8820   20.0360 C   0  0  0  0  0  0  0  0  0  0  0  0
  -25.8080  -30.7520   21.2330 C   0  0  0  0  0  2  0  0  0  0  0  0
  -25.8460  -29.3790   20.5940 C   0  0  0  0  0  0  0  0  0  0  0  0
  -27.0320  -28.6100   20.5490 C   0  0  0  0  0  3  0  0  0  0  0  0
  -25.8320  -26.8610   19.3530 C   0  0  0  0  0  3  0  0  0  0  0  0
  -24.6480  -27.6200   19.4150 C   0  0  0  0  0  3  0  0  0  0  0  0
  -23.4360  -29.7640   20.1240 C   0  0  0  0  0  2  0  0  0  0  0  0
  -24.5750  -31.0170   22.0120 N   0  0  0  0  0  0  0  0  0  0  0  0
  -23.5170  -32.1020   23.6980 O   0  0  0  0  0  0  0  0  0  0  0  0
  -22.6480  -29.4280   22.4890 C   0  0  0  0  0  0  0  0  0  0  0  0
  -21.3210  -29.2490   22.3850 N   0  0  0  0  0  0  0  0  0  0  0  0
  -23.3440  -28.8030   23.2950 O   0  0  0  0  0  0  0  0  0  0  0  0
  -20.8220  -29.8040   21.7050 H   0  0  0  0  0  0  0  0  0  0  0  0
  -17.9600  -28.0280   22.9010 C   0  0  0  0  0  0  0  0  0  0  0  0
  -20.5140  -28.3180   23.1740 C   0  0  0  0  0  3  0  0  0  0  0  0
  -20.6340  -26.8770   22.6260 C   0  0  0  0  0  2  0  0  0  0  0  0
  -19.5380  -26.5220   21.6170 C   0  0  0  0  0  2  0  0  0  0  0  0
  -18.1530  -26.6660   22.2550 C   0  0  0  0  0  2  0  0  0  0  0  0
  -19.0700  -28.8100   23.3170 C   0  0  0  0  0  0  0  0  0  0  0  0
  -18.8360  -30.0830   23.8800 C   0  0  0  0  0  3  0  0  0  0  0  0
  -17.5260  -30.5750   24.0320 C   0  0  0  0  0  3  0  0  0  0  0  0
  -16.4310  -29.7890   23.6330 C   0  0  0  0  0  3  0  0  0  0  0  0
  -16.6490  -28.5170   23.0730 C   0  0  0  0  0  3  0  0  0  0  0  0
  -25.8930  -32.4140   23.6980 C   0  0  0  0  0  3  0  0  0  0  0  0
  -25.6100  -33.8000   24.0930 N   0  0  0  0  0  0  0  0  0  0  0  0
  -25.9320  -34.8780   23.3670 C   0  0  0  0  0  0  0  0  0  0  0  0
  -26.5720  -34.8100   22.3140 O   0  0  0  0  0  0  0  0  0  0  0  0
  -25.0430  -33.9280   24.9180 H   0  0  0  0  0  0  0  0  0  0  0  0
  -24.2190  -36.7030   23.1280 C   0  0  0  0  0  1  0  0  0  0  0  0
  -25.4730  -36.2520   23.8930 C   0  0  0  0  0  3  0  0  0  0  0  0
  -27.6380  -37.0730   24.7080 C   0  0  0  0  0  1  0  0  0  0  0  0
  -26.5160  -37.2960   23.8000 N   0  0  0  0  0  0  0  0  0  0  0  0
  -26.1260  -38.2140   23.9980 H   0  0  0  0  0  0  0  0  0  0  0  0
  -26.4710  -31.5920   24.9140 C   0  0  1  0  0  0  0  0  0  0  0  0
  -25.4340  -31.3170   26.0280 C   0  0  0  0  0  1  0  0  0  0  0  0
  -27.0240  -30.2280   24.4370 C   0  0  0  0  0  1  0  0  0  0  0  0
  -27.6600  -32.3550   25.5430 C   0  0  0  0  0  1  0  0  0  0  0  0
  2  7  1  0
  2  1  1  0
  4  3  2  0
  5  3  1  0
  6  4  1  0
  7  5  2  0
  8  6  2  0
  8  7  1  0
  9  8  1  0
 10  9  1  0
 11 12  1  0
 11  6  1  0
 13 12  1  0
 14 19  1  0
 15 16  1  0
 15 14  1  0
 17 16  1  0
 17 24  1  0
 17 18  1  0
 19 13  1  0
 19 18  1  0
 20 13  2  0
 21 22  2  0
 22 41  1  0
 23 22  1  0
 23 26  1  0
 24 21  1  0
 24 25  1  0
 25 23  2  0
 26 27  1  0
 27 28  2  0
 29 32  1  0
 29 28  1  0
 30 29  2  0
 31 30  1  0
 31 26  2  0
 32 33  1  0
 33 34  1  0
 34 35  2  0
 36 35  1  0
 36 40  1  0
 37 36  2  0
 38 33  2  0
 38 37  1  0
 39 38  1  0
 41 42  1  0
 42 45  1  0
 42 44  1  0
 43 41  2  0
 46 47  1  0
 46 21  1  0
 48 46  1  0
 49 54  1  0
 49 50  1  0
 49  1  1  0
 50 51  1  0
 52 50  1  0
 53 50  1  0
 55 57  1  0
 55 54  1  0
 56 67  2  0
 57 62  1  0
 58 66  1  0
 58 68  1  0
 59 65  1  0
 59 61  1  0
 60 66  1  0
 61 60  1  0
 62 61  2  0
 63 64  1  0
 63 57  2  0
 64 59  2  0
 65 58  1  0
 66 56  1  0
 68 70  2  0
 69 68  1  0
 71 69  1  0
 72 81  2  0
 72 77  1  0
 73 69  1  0
 73 77  1  0
 74 73  1  0
 75 76  1  0
 75 74  1  0
 76 72  1  0
 77 78  2  0
 78 79  1  0
 80 79  2  0
 81 80  1  0
 82 56  1  0
 82 83  1  0
 82 92  1  0
 83 86  1  0
 84 88  1  0
 84 83  1  0
 85 84  2  0
 88 87  1  0
 90 88  1  0
 90 91  1  0
 90 89  1  0
 92 95  1  1
 92 93  1  0
 94 92  1  0
M  ISO  4  12 100  13 100  54 101  55 101
M  END
>  <TORSDO>  (66) 
F 24

>  <SCORE>  (66) 
-12.489

>  <name>  (66) 
65

>  <ligand_id>  (66) 
65

>  <original_smiles>  (66) 
[H]Oc1c(C([H])([H])C([H])([H])C(=O)N2C([H])([H])C([H])([H])C([H])([H])C([H])(n3nc(-c4c([H])c([H])c(Oc5c([H])c([H])c(F)c([H])c5F)c([H])c4[H])c(C(=O)N([H])[H])c3N([H])[H])C2([H])[H])c([H])c([H])c([H])c1C([H])([H])C([H])([H])C([H])(C([H])([H])Oc1c([H])c([H])c2c(c1[H])C([H])([H])N(C(=O)C([H])(N([H])C(=O)C([H])(N([H])C([H])([H])[H])C([H])([H])[H])C(C([H])([H])[H])(C([H])([H])[H])C([H])([H])[H])C([H])(C(=O)N([H])C1([H])c3c([H])c([H])c([H])c([H])c3C([H])([H])C([H])([H])C1([H])[H])C2([H])[H])[N+]([H])([H])[H]

>  <smiles>  (66) 
[H]Oc1c(C([H])([H])C([H])([H])C(=O)N2C([H])([H])C([H])([H])C([H])([H])C([H])(n3nc(-c4c([H])c([H])c(Oc5c([H])c([H])c(F)c([H])c5F)c([H])c4[H])c(C(=O)N([H])[H])c3N([H])[H])C2([H])[H])c([H])c([H])c([H])c1C([H])([H])C([H])([H])C([H])(C([H])([H])Oc1c([H])c([H])c2c(c1[H])C([H])([H])N(C(=O)C([H])(N([H])C(=O)C([H])(N([H])C([H])([H])[H])C([H])([H])[H])C(C([H])([H])[H])(C([H])([H])[H])C([H])([H])[H])C([H])(C(=O)N([H])C1([H])c3c([H])c([H])c([H])c([H])c3C([H])([H])C([H])([H])C1([H])[H])C2([H])[H])[N+]([H])([H])[H]

$$$$
66:0:0
     RDKit          3D

 94101  0  0  1  0  0  0  0  0999 V2000
  -28.9770  -20.7770   20.7140 C   0  0  0  0  0  0  0  0  0  0  0  0
  -29.1250  -21.5240   19.6010 N   0  0  0  0  0  0  0  0  0  0  0  0
  -28.6420  -21.2780   21.7880 O   0  0  0  0  0  0  0  0  0  0  0  0
  -29.4650  -20.9970   18.8050 H   0  0  0  0  0  0  0  0  0  0  0  0
  -29.1220  -19.2220   20.6000 C   0  0  0  0  0  2  0  0  0  0  0  0
  -30.5260  -18.5890   20.9090 C   0  0  0  0  0  3  0  0  0  0  0  0
  -31.6230  -18.9110   19.8540 C   0  0  0  0  0  2  0  0  0  0  0  0
  -31.3040  -18.5900   18.3890 C   0  0  0  0  0  0  0  0  0  0  0  0
  -31.5260  -19.5440   17.4920 N   0  0  0  0  0  0  0  0  0  0  0  0
  -30.8680  -17.4950   18.0430 O   0  0  0  0  0  0  0  0  0  0  0  0
  -31.9170  -20.4350   17.7670 H   0  0  0  0  0  0  0  0  0  0  0  0
  -31.3530  -19.3690   16.5120 H   0  0  0  0  0  0  0  0  0  0  0  0
  -30.5690  -17.1000   21.4500 C   0  0  0  0  0  2  0  0  0  0  0  0
  -29.7970  -15.9280   20.7460 C   0  0  0  0  0  2  0  0  0  0  0  0
  -30.6110  -14.6410   20.3630 C   0  0  0  0  0  0  0  0  0  0  0  0
  -30.3600  -12.4630   19.2160 C   0  0  0  0  0  2  0  0  0  0  0  0
  -29.3930  -12.6750   18.0290 C   0  0  0  0  0  2  0  0  0  0  0  0
  -27.9250  -12.5170   18.4790 C   0  0  0  0  0  2  0  0  0  0  0  0
  -27.6030  -13.3220   19.7650 C   0  0  0  0  0  3  0  0  0  0  0  0
  -28.6820  -13.0850   20.8440 C   0  0  0  0  0  2  0  0  0  0  0  0
  -29.9880  -13.4280   20.2650 N   0  0  0  0  0  0  0  0  0  0  0  0
  -31.7710  -14.7890   19.9650 O   0  0  0  0  0  0  0  0  0  0  0  0
  -25.2130  -13.9030   20.5160 C   0  0  0  0  0  0  0  0  0  0  0  0
  -24.1550  -13.1190   20.8930 C   0  0  0  0  0  0  0  0  0  0  0  0
  -24.6270  -11.7710   20.8450 C   0  0  0  0  0  0  0  0  0  0  0  0
  -26.2610  -13.0320   20.2630 N   0  0  0  0  0  0  0  0  0  0  0  0
  -25.9130  -11.7440   20.5190 N   0  0  0  0  0  0  0  0  0  0  0  0
  -23.9120  -10.5020   21.0360 C   0  0  0  0  0  0  0  0  0  0  0  0
  -24.3650   -9.5310   21.9560 C   0  0  0  0  0  3  0  0  0  0  0  0
  -23.6500   -8.3270   22.1360 C   0  0  0  0  0  3  0  0  0  0  0  0
  -22.4690   -8.0850   21.3930 C   0  0  0  0  0  0  0  0  0  0  0  0
  -22.0370   -9.0450   20.4610 C   0  0  0  0  0  3  0  0  0  0  0  0
  -22.7520  -10.2410   20.2800 C   0  0  0  0  0  3  0  0  0  0  0  0
  -21.7260   -6.9330   21.4810 O   0  0  0  0  0  0  0  0  0  0  0  0
  -21.6950   -6.1820   22.6290 C   0  0  0  0  0  0  0  0  0  0  0  0
  -21.2770   -6.7250   23.8630 C   0  0  0  0  0  3  0  0  0  0  0  0
  -21.1940   -5.9010   25.0020 C   0  0  0  0  0  3  0  0  0  0  0  0
  -21.5200   -4.5340   24.9090 C   0  0  0  0  0  0  0  0  0  0  0  0
  -21.9320   -3.9900   23.6790 C   0  0  0  0  0  3  0  0  0  0  0  0
  -22.0160   -4.8120   22.5410 C   0  0  0  0  0  0  0  0  0  0  0  0
  -22.3940   -4.2790   21.3540 F   0  0  0  0  0  0  0  0  0  0  0  0
  -21.4330   -3.7400   26.0010 F   0  0  0  0  0  0  0  0  0  0  0  0
  -22.7590  -13.5840   21.1900 C   0  0  0  0  0  0  0  0  0  0  0  0
  -22.0480  -12.8720   22.0590 N   0  0  0  0  0  0  0  0  0  0  0  0
  -22.3060  -14.6110   20.6870 O   0  0  0  0  0  0  0  0  0  0  0  0
  -22.4300  -12.0410   22.4850 H   0  0  0  0  0  0  0  0  0  0  0  0
  -21.1130  -13.1640   22.3020 H   0  0  0  0  0  0  0  0  0  0  0  0
  -25.3660  -15.2760   20.3490 N   0  0  0  0  0  0  0  0  0  0  0  0
  -24.5990  -15.9260   20.4780 H   0  0  0  0  0  0  0  0  0  0  0  0
  -26.2140  -15.7220   20.0240 H   0  0  0  0  0  0  0  0  0  0  0  0
  -28.5930  -22.8670   19.2350 C   0  0  0  0  0  2  0  0  0  0  0  0
  -28.8020  -24.1160   20.1590 C   0  0  0  0  0  2  0  0  0  0  0  0
  -28.5950  -25.4730   19.3890 C   0  0  0  0  0  2  0  0  0  0  0  0
  -28.4260  -26.6850   20.1800 O   0  0  0  0  0  0  0  0  0  0  0  0
  -24.5950  -31.9010   23.2580 C   0  0  0  0  0  0  0  0  0  0  0  0
  -27.2420  -27.4210   20.1590 C   0  0  0  0  0  0  0  0  0  0  0  0
  -23.3910  -30.5010   21.6170 C   0  0  0  0  0  3  0  0  0  0  0  0
  -24.8440  -28.9660   20.1870 C   0  0  0  0  0  0  0  0  0  0  0  0
  -25.9220  -30.8490   21.4200 C   0  0  0  0  0  2  0  0  0  0  0  0
  -26.0080  -29.4760   20.7730 C   0  0  0  0  0  0  0  0  0  0  0  0
  -27.2040  -28.7110   20.7560 C   0  0  0  0  0  3  0  0  0  0  0  0
  -26.0400  -26.9310   19.5920 C   0  0  0  0  0  3  0  0  0  0  0  0
  -24.8580  -27.6920   19.5960 C   0  0  0  0  0  3  0  0  0  0  0  0
  -23.6020  -29.8270   20.2360 C   0  0  0  0  0  2  0  0  0  0  0  0
  -24.6550  -31.1000   22.1560 N   0  0  0  0  0  0  0  0  0  0  0  0
  -23.5130  -32.1700   23.7990 O   0  0  0  0  0  0  0  0  0  0  0  0
  -22.7420  -29.4760   22.5760 C   0  0  0  0  0  0  0  0  0  0  0  0
  -21.4180  -29.2880   22.4480 N   0  0  0  0  0  0  0  0  0  0  0  0
  -23.4260  -28.8530   23.3920 O   0  0  0  0  0  0  0  0  0  0  0  0
  -20.9240  -29.8430   21.7630 H   0  0  0  0  0  0  0  0  0  0  0  0
  -18.0480  -28.0730   22.9430 C   0  0  0  0  0  0  0  0  0  0  0  0
  -20.6040  -28.3450   23.2170 C   0  0  0  0  0  3  0  0  0  0  0  0
  -20.7160  -26.9150   22.6410 C   0  0  0  0  0  2  0  0  0  0  0  0
  -19.6170  -26.5870   21.6250 C   0  0  0  0  0  2  0  0  0  0  0  0
  -18.2330  -26.7240   22.2670 C   0  0  0  0  0  2  0  0  0  0  0  0
  -19.1630  -28.8410   23.3740 C   0  0  0  0  0  0  0  0  0  0  0  0
  -18.9360  -30.1040   23.9640 C   0  0  0  0  0  3  0  0  0  0  0  0
  -17.6280  -30.5990   24.1280 C   0  0  0  0  0  3  0  0  0  0  0  0
  -16.5290  -29.8260   23.7120 C   0  0  0  0  0  3  0  0  0  0  0  0
  -16.7390  -28.5660   23.1260 C   0  0  0  0  0  3  0  0  0  0  0  0
  -25.8780  -32.5370   23.8780 C   0  0  0  0  0  3  0  0  0  0  0  0
  -26.3930  -31.7730   25.1600 C   0  0  1  0  0  0  0  0  0  0  0  0
  -25.2990  -31.5440   26.2290 C   0  0  0  0  0  1  0  0  0  0  0  0
  -26.9760  -30.3930   24.7790 C   0  0  0  0  0  1  0  0  0  0  0  0
  -27.5420  -32.5720   25.8190 C   0  0  0  0  0  1  0  0  0  0  0  0
  -25.5690  -33.9370   24.1970 N   0  0  0  0  0  0  0  0  0  0  0  0
  -25.9060  -34.9840   23.4320 C   0  0  0  0  0  0  0  0  0  0  0  0
  -26.5790  -34.8730   22.4050 O   0  0  0  0  0  0  0  0  0  0  0  0
  -24.9670  -34.0970   24.9930 H   0  0  0  0  0  0  0  0  0  0  0  0
  -24.1820  -36.7790   23.0570 C   0  0  0  0  0  1  0  0  0  0  0  0
  -25.4170  -36.3760   23.8790 C   0  0  0  0  0  3  0  0  0  0  0  0
  -27.5480  -37.2630   24.7190 C   0  0  0  0  0  1  0  0  0  0  0  0
  -26.4530  -37.4270   23.7670 N   0  0  0  0  0  0  0  0  0  0  0  0
  -26.0470  -38.3480   23.9050 H   0  0  0  0  0  0  0  0  0  0  0  0
  1  3  2  0
  2  1  1  0
  4  2  1  0
  5  1  1  0
  5  6  1  0
  6  7  1  0
  6 13  1  0
  8  7  1  0
  9 11  1  0
  9  8  1  0
 10  8  2  0
 12  9  1  0
 14 13  1  0
 15 14  1  0
 16 21  1  0
 17 18  1  0
 17 16  1  0
 19 18  1  0
 19 26  1  0
 19 20  1  0
 21 15  1  0
 21 20  1  0
 22 15  2  0
 23 24  2  0
 24 43  1  0
 25 24  1  0
 25 28  1  0
 26 23  1  0
 26 27  1  0
 27 25  2  0
 28 29  1  0
 29 30  2  0
 31 34  1  0
 31 30  1  0
 32 31  2  0
 33 32  1  0
 33 28  2  0
 34 35  1  0
 35 36  1  0
 36 37  2  0
 38 37  1  0
 38 42  1  0
 39 38  2  0
 40 35  2  0
 40 39  1  0
 41 40  1  0
 43 44  1  0
 44 47  1  0
 44 46  1  0
 45 43  2  0
 48 49  1  0
 48 23  1  0
 50 48  1  0
 51  2  1  0
 51 52  1  0
 53 52  1  0
 53 54  1  0
 55 66  2  0
 56 54  1  0
 56 61  1  0
 57 65  1  0
 57 67  1  0
 58 64  1  0
 58 60  1  0
 59 65  1  0
 60 59  1  0
 61 60  2  0
 62 63  1  0
 62 56  2  0
 63 58  2  0
 64 57  1  0
 65 55  1  0
 67 69  2  0
 68 67  1  0
 70 68  1  0
 71 80  2  0
 71 76  1  0
 72 68  1  0
 72 76  1  0
 73 72  1  0
 74 75  1  0
 74 73  1  0
 75 71  1  0
 76 77  2  0
 77 78  1  0
 79 78  2  0
 80 79  1  0
 81 55  1  0
 81 86  1  0
 81 82  1  0
 82 85  1  1
 82 83  1  0
 84 82  1  0
 86 89  1  0
 87 91  1  0
 87 86  1  0
 88 87  2  0
 91 90  1  0
 93 91  1  0
 93 94  1  0
 93 92  1  0
M  ISO  4  14 100  15 100  53 101  54 101
M  END
>  <TORSDO>  (67) 
F 25

>  <SCORE>  (67) 
-12.408

>  <name>  (67) 
66

>  <ligand_id>  (67) 
66

>  <original_smiles>  (67) 
[H]c1c([H])c([H])c2c(c1[H])C([H])([H])C([H])([H])C([H])([H])C2([H])N([H])C(=O)C1([H])N(C(=O)C([H])(N([H])C(=O)C([H])(N([H])C([H])([H])[H])C([H])([H])[H])C(C([H])([H])[H])(C([H])([H])[H])C([H])([H])[H])C([H])([H])c2c([H])c(OC([H])([H])C([H])([H])C([H])([H])N([H])C(=O)C([H])([H])C([H])(C([H])([H])C(=O)N([H])[H])C([H])([H])C([H])([H])C(=O)N3C([H])([H])C([H])([H])C([H])([H])C([H])(n4nc(-c5c([H])c([H])c(Oc6c([H])c([H])c(F)c([H])c6F)c([H])c5[H])c(C(=O)N([H])[H])c4N([H])[H])C3([H])[H])c([H])c([H])c2C1([H])[H]

>  <smiles>  (67) 
[H]c1c([H])c([H])c2c(c1[H])C([H])([H])C([H])([H])C([H])([H])C2([H])N([H])C(=O)C1([H])N(C(=O)C([H])(N([H])C(=O)C([H])(N([H])C([H])([H])[H])C([H])([H])[H])C(C([H])([H])[H])(C([H])([H])[H])C([H])([H])[H])C([H])([H])c2c([H])c(OC([H])([H])C([H])([H])C([H])([H])N([H])C(=O)C([H])([H])C([H])(C([H])([H])C(=O)N([H])[H])C([H])([H])C([H])([H])C(=O)N3C([H])([H])C([H])([H])C([H])([H])C([H])(n4nc(-c5c([H])c([H])c(Oc6c([H])c([H])c(F)c([H])c6F)c([H])c5[H])c(C(=O)N([H])[H])c4N([H])[H])C3([H])[H])c([H])c([H])c2C1([H])[H]

$$$$
67:0:0
     RDKit          3D

 92100  0  0  1  0  0  0  0  0999 V2000
  -28.9650  -21.3680   20.4760 C   0  0  0  0  0  0  0  0  0  0  0  0
  -29.2830  -22.6610   20.1320 N   0  0  0  0  0  0  0  0  0  0  0  0
  -27.9020  -21.1370   21.0580 O   0  0  0  0  0  0  0  0  0  0  0  0
  -30.1520  -22.7810   19.6280 H   0  0  0  0  0  0  0  0  0  0  0  0
  -32.0850  -19.2800   19.4730 C   0  0  0  0  0  3  0  0  0  0  0  0
  -31.2110  -20.3730   19.6620 C   0  0  0  0  0  3  0  0  0  0  0  0
  -31.7170  -17.9560   19.8120 C   0  0  0  0  0  3  0  0  0  0  0  0
  -29.5710  -18.8080   20.5060 C   0  0  0  0  0  3  0  0  0  0  0  0
  -29.9190  -20.1750   20.1900 C   0  0  0  0  0  0  0  0  0  0  0  0
  -30.4400  -17.6460   20.3440 C   0  0  0  0  0  0  0  0  0  0  0  0
  -28.5060  -16.1890   20.9940 C   0  0  0  0  0  1  0  0  0  0  0  0
  -30.6060  -16.0770   22.3060 C   0  0  0  0  0  1  0  0  0  0  0  0
  -30.0520  -16.1630   20.8690 C   0  0  2  0  0  0  0  0  0  0  0  0
  -30.6580  -14.8210   20.1270 C   0  0  0  0  0  0  0  0  0  0  0  0
  -30.4220  -12.6190   18.9240 C   0  0  0  0  0  2  0  0  0  0  0  0
  -29.3970  -12.7430   17.7700 C   0  0  0  0  0  2  0  0  0  0  0  0
  -27.9500  -12.5400   18.2710 C   0  0  0  0  0  2  0  0  0  0  0  0
  -27.6650  -13.3380   19.5690 C   0  0  0  0  0  3  0  0  0  0  0  0
  -28.7980  -13.0860   20.5960 C   0  0  0  0  0  2  0  0  0  0  0  0
  -30.0390  -13.5850   19.9880 N   0  0  0  0  0  0  0  0  0  0  0  0
  -31.7840  -14.9130   19.6240 O   0  0  0  0  0  0  0  0  0  0  0  0
  -25.2970  -13.9350   20.3840 C   0  0  0  0  0  0  0  0  0  0  0  0
  -24.2530  -13.1560   20.8000 C   0  0  0  0  0  0  0  0  0  0  0  0
  -24.7210  -11.8080   20.7430 C   0  0  0  0  0  0  0  0  0  0  0  0
  -26.3410  -13.0590   20.1120 N   0  0  0  0  0  0  0  0  0  0  0  0
  -25.9980  -11.7750   20.3830 N   0  0  0  0  0  0  0  0  0  0  0  0
  -24.0090  -10.5420   20.9510 C   0  0  0  0  0  0  0  0  0  0  0  0
  -24.4660   -9.5840   21.8820 C   0  0  0  0  0  3  0  0  0  0  0  0
  -23.7530   -8.3820   22.0770 C   0  0  0  0  0  3  0  0  0  0  0  0
  -22.5700   -8.1310   21.3420 C   0  0  0  0  0  0  0  0  0  0  0  0
  -22.1340   -9.0780   20.3990 C   0  0  0  0  0  3  0  0  0  0  0  0
  -22.8480  -10.2700   20.2020 C   0  0  0  0  0  3  0  0  0  0  0  0
  -21.8270   -6.9790   21.4500 O   0  0  0  0  0  0  0  0  0  0  0  0
  -21.7700   -6.2680   22.6220 C   0  0  0  0  0  0  0  0  0  0  0  0
  -21.3280   -6.8550   23.8290 C   0  0  0  0  0  3  0  0  0  0  0  0
  -21.2180   -6.0680   24.9930 C   0  0  0  0  0  3  0  0  0  0  0  0
  -21.5410   -4.6990   24.9520 C   0  0  0  0  0  0  0  0  0  0  0  0
  -21.9780   -4.1130   23.7510 C   0  0  0  0  0  3  0  0  0  0  0  0
  -22.0880   -4.8960   22.5880 C   0  0  0  0  0  0  0  0  0  0  0  0
  -22.4870   -4.3220   21.4280 F   0  0  0  0  0  0  0  0  0  0  0  0
  -21.4280   -3.9420   26.0690 F   0  0  0  0  0  0  0  0  0  0  0  0
  -22.8660  -13.6280   21.1330 C   0  0  0  0  0  0  0  0  0  0  0  0
  -22.1780  -12.9290   22.0300 N   0  0  0  0  0  0  0  0  0  0  0  0
  -22.4000  -14.6510   20.6330 O   0  0  0  0  0  0  0  0  0  0  0  0
  -22.5680  -12.1080   22.4690 H   0  0  0  0  0  0  0  0  0  0  0  0
  -21.2450  -13.2230   22.2840 H   0  0  0  0  0  0  0  0  0  0  0  0
  -25.4290  -15.3060   20.1900 N   0  0  0  0  0  0  0  0  0  0  0  0
  -24.6530  -15.9460   20.3160 H   0  0  0  0  0  0  0  0  0  0  0  0
  -26.2630  -15.7600   19.8460 H   0  0  0  0  0  0  0  0  0  0  0  0
  -28.6130  -23.9330   20.6290 C   0  0  0  0  0  2  0  0  0  0  0  0
  -28.5170  -25.2040   19.6610 C   0  0  0  0  0  2  0  0  0  0  0  0
  -28.3730  -26.5680   20.2350 O   0  0  0  0  0  0  0  0  0  0  0  0
  -24.5790  -31.9160   23.2340 C   0  0  0  0  0  0  0  0  0  0  0  0
  -27.2070  -27.3550   20.1750 C   0  0  0  0  0  0  0  0  0  0  0  0
  -23.3760  -30.5110   21.5990 C   0  0  0  0  0  3  0  0  0  0  0  0
  -24.8260  -28.9570   20.1730 C   0  0  0  0  0  0  0  0  0  0  0  0
  -25.9140  -30.8320   21.4120 C   0  0  0  0  0  2  0  0  0  0  0  0
  -25.9940  -29.4540   20.7660 C   0  0  0  0  0  0  0  0  0  0  0  0
  -27.1810  -28.6630   20.7560 C   0  0  0  0  0  3  0  0  0  0  0  0
  -26.0100  -26.9010   19.5760 C   0  0  0  0  0  3  0  0  0  0  0  0
  -24.8370  -27.6870   19.5730 C   0  0  0  0  0  3  0  0  0  0  0  0
  -23.5900  -29.8340   20.2180 C   0  0  0  0  0  2  0  0  0  0  0  0
  -24.6410  -31.1040   22.1380 N   0  0  0  0  0  0  0  0  0  0  0  0
  -23.4970  -32.1940   23.7710 O   0  0  0  0  0  0  0  0  0  0  0  0
  -22.7180  -29.4950   22.5630 C   0  0  0  0  0  0  0  0  0  0  0  0
  -21.3920  -29.3130   22.4370 N   0  0  0  0  0  0  0  0  0  0  0  0
  -23.3990  -28.8770   23.3860 O   0  0  0  0  0  0  0  0  0  0  0  0
  -20.9000  -29.8690   21.7520 H   0  0  0  0  0  0  0  0  0  0  0  0
  -18.0230  -28.0870   22.9200 C   0  0  0  0  0  0  0  0  0  0  0  0
  -20.5770  -28.3730   23.2100 C   0  0  0  0  0  3  0  0  0  0  0  0
  -20.6970  -26.9380   22.6480 C   0  0  0  0  0  2  0  0  0  0  0  0
  -19.6070  -26.5950   21.6280 C   0  0  0  0  0  2  0  0  0  0  0  0
  -18.2190  -26.7340   22.2590 C   0  0  0  0  0  2  0  0  0  0  0  0
  -19.1310  -28.8640   23.3530 C   0  0  0  0  0  0  0  0  0  0  0  0
  -18.8960  -30.1300   23.9310 C   0  0  0  0  0  3  0  0  0  0  0  0
  -17.5850  -30.6190   24.0810 C   0  0  0  0  0  3  0  0  0  0  0  0
  -16.4910  -29.8400   23.6660 C   0  0  0  0  0  3  0  0  0  0  0  0
  -16.7110  -28.5770   23.0900 C   0  0  0  0  0  3  0  0  0  0  0  0
  -25.8630  -32.5520   23.8510 C   0  0  0  0  0  3  0  0  0  0  0  0
  -26.3900  -31.7780   25.1220 C   0  0  1  0  0  0  0  0  0  0  0  0
  -25.3010  -31.5330   26.1930 C   0  0  0  0  0  1  0  0  0  0  0  0
  -26.9750  -30.4020   24.7250 C   0  0  0  0  0  1  0  0  0  0  0  0
  -27.5380  -32.5760   25.7830 C   0  0  0  0  0  1  0  0  0  0  0  0
  -25.5490  -33.9470   24.1900 N   0  0  0  0  0  0  0  0  0  0  0  0
  -25.8720  -35.0070   23.4360 C   0  0  0  0  0  0  0  0  0  0  0  0
  -26.5370  -34.9120   22.4000 O   0  0  0  0  0  0  0  0  0  0  0  0
  -24.9540  -34.0950   24.9920 H   0  0  0  0  0  0  0  0  0  0  0  0
  -24.1320  -36.7950   23.1070 C   0  0  0  0  0  1  0  0  0  0  0  0
  -25.3820  -36.3910   23.9050 C   0  0  0  0  0  3  0  0  0  0  0  0
  -27.5170  -37.2830   24.7250 C   0  0  0  0  0  1  0  0  0  0  0  0
  -26.4080  -37.4500   23.7900 N   0  0  0  0  0  0  0  0  0  0  0  0
  -25.9970  -38.3660   23.9470 H   0  0  0  0  0  0  0  0  0  0  0  0
  1  3  2  0
  2  1  1  0
  2 50  1  0
  4  2  1  0
  5  6  2  0
  5  7  1  0
  6  9  1  0
  7 10  2  0
  9  1  1  0
  9  8  2  0
 10  8  1  0
 10 13  1  0
 13 11  1  1
 13 12  1  0
 14 13  1  0
 15 20  1  0
 16 17  1  0
 16 15  1  0
 18 17  1  0
 18 25  1  0
 18 19  1  0
 20 14  1  0
 20 19  1  0
 21 14  2  0
 22 23  2  0
 23 42  1  0
 24 23  1  0
 24 27  1  0
 25 26  1  0
 25 22  1  0
 26 24  2  0
 27 28  1  0
 28 29  2  0
 30 33  1  0
 30 29  1  0
 31 30  2  0
 32 31  1  0
 32 27  2  0
 33 34  1  0
 34 35  1  0
 35 36  2  0
 37 36  1  0
 37 41  1  0
 38 37  2  0
 39 34  2  0
 39 38  1  0
 40 39  1  0
 42 43  1  0
 43 46  1  0
 43 45  1  0
 44 42  2  0
 47 48  1  0
 47 22  1  0
 49 47  1  0
 51 52  1  0
 51 50  1  0
 53 64  2  0
 54 52  1  0
 54 59  1  0
 55 63  1  0
 55 65  1  0
 56 62  1  0
 56 58  1  0
 57 63  1  0
 58 57  1  0
 59 58  2  0
 60 54  2  0
 61 60  1  0
 61 56  2  0
 62 55  1  0
 63 53  1  0
 65 67  2  0
 66 65  1  0
 68 66  1  0
 69 78  2  0
 69 74  1  0
 70 66  1  0
 70 74  1  0
 71 70  1  0
 72 73  1  0
 72 71  1  0
 73 69  1  0
 74 75  2  0
 75 76  1  0
 77 76  2  0
 78 77  1  0
 79 53  1  0
 79 84  1  0
 79 80  1  0
 80 83  1  1
 80 81  1  0
 82 80  1  0
 84 87  1  0
 85 89  1  0
 85 84  1  0
 86 85  2  0
 89 88  1  0
 91 89  1  0
 91 92  1  0
 91 90  1  0
M  ISO  4  13 100  14 100  51 101  52 101
M  END
>  <TORSDO>  (68) 
F 20

>  <SCORE>  (68) 
-13.577

>  <name>  (68) 
67

>  <ligand_id>  (68) 
67

>  <original_smiles>  (68) 
[H]c1c([H])c([H])c2c(c1[H])C([H])([H])C([H])([H])C([H])([H])C2([H])N([H])C(=O)C1([H])N(C(=O)C([H])(N([H])C(=O)C([H])(N([H])C([H])([H])[H])C([H])([H])[H])C(C([H])([H])[H])(C([H])([H])[H])C([H])([H])[H])C([H])([H])c2c([H])c(OC([H])([H])C([H])([H])N([H])C(=O)c3c([H])c([H])c([H])c(C(C(=O)N4C([H])([H])C([H])([H])C([H])([H])C([H])(n5nc(-c6c([H])c([H])c(Oc7c([H])c([H])c(F)c([H])c7F)c([H])c6[H])c(C(=O)N([H])[H])c5N([H])[H])C4([H])[H])(C([H])([H])[H])C([H])([H])[H])c3[H])c([H])c([H])c2C1([H])[H]

>  <smiles>  (68) 
[H]c1c([H])c([H])c2c(c1[H])C([H])([H])C([H])([H])C([H])([H])C2([H])N([H])C(=O)C1([H])N(C(=O)C([H])(N([H])C(=O)C([H])(N([H])C([H])([H])[H])C([H])([H])[H])C(C([H])([H])[H])(C([H])([H])[H])C([H])([H])[H])C([H])([H])c2c([H])c(OC([H])([H])C([H])([H])N([H])C(=O)c3c([H])c([H])c([H])c(C(C(=O)N4C([H])([H])C([H])([H])C([H])([H])C([H])(n5nc(-c6c([H])c([H])c(Oc7c([H])c([H])c(F)c([H])c7F)c([H])c6[H])c(C(=O)N([H])[H])c5N([H])[H])C4([H])[H])(C([H])([H])[H])C([H])([H])[H])c3[H])c([H])c([H])c2C1([H])[H]

$$$$
68:0:0
     RDKit          3D

 91 99  0  0  1  0  0  0  0  0999 V2000
  -29.4750  -20.1000   20.0440 C   0  0  0  0  0  0  0  0  0  0  0  0
  -29.7350  -19.5140   18.9920 O   0  0  0  0  0  0  0  0  0  0  0  0
  -30.9920  -19.2970   24.0470 C   0  0  0  0  0  3  0  0  0  0  0  0
  -30.4420  -20.5310   23.6890 C   0  0  0  0  0  3  0  0  0  0  0  0
  -31.1500  -18.2940   23.0760 C   0  0  0  0  0  3  0  0  0  0  0  0
  -30.0010  -20.7240   22.3730 C   0  0  0  0  0  3  0  0  0  0  0  0
  -30.7420  -18.4580   21.7240 C   0  0  0  0  0  0  0  0  0  0  0  0
  -30.0790  -19.7090   21.3830 C   0  0  0  0  0  0  0  0  0  0  0  0
  -31.1040  -17.2950   20.8280 C   0  0  0  0  0  3  0  0  0  0  0  0
  -31.0240  -15.9650   21.1650 C   0  0  0  0  0  3  0  0  0  0  0  0
  -31.6350  -14.8650   20.3770 C   0  0  0  0  0  0  0  0  0  0  0  0
  -31.2690  -12.7220   19.1760 C   0  0  0  0  0  2  0  0  0  0  0  0
  -30.3510  -12.9790   17.9620 C   0  0  0  0  0  2  0  0  0  0  0  0
  -28.8650  -12.9070   18.3670 C   0  0  0  0  0  2  0  0  0  0  0  0
  -28.5580  -13.7370   19.6430 C   0  0  0  0  0  3  0  0  0  0  0  0
  -29.5800  -13.4120   20.7550 C   0  0  0  0  0  2  0  0  0  0  0  0
  -30.9210  -13.7060   20.2230 N   0  0  0  0  0  0  0  0  0  0  0  0
  -32.7470  -14.9870   19.8550 O   0  0  0  0  0  0  0  0  0  0  0  0
  -26.1950  -14.4890   20.3280 C   0  0  0  0  0  0  0  0  0  0  0  0
  -25.0750  -13.7830   20.6740 C   0  0  0  0  0  0  0  0  0  0  0  0
  -25.4490  -12.4050   20.6360 C   0  0  0  0  0  0  0  0  0  0  0  0
  -27.1840  -13.5450   20.1000 N   0  0  0  0  0  0  0  0  0  0  0  0
  -26.7380  -12.2860   20.3420 N   0  0  0  0  0  0  0  0  0  0  0  0
  -24.6400  -11.1900   20.8040 C   0  0  0  0  0  0  0  0  0  0  0  0
  -24.9820  -10.2020   21.7530 C   0  0  0  0  0  3  0  0  0  0  0  0
  -24.1780   -9.0520   21.9100 C   0  0  0  0  0  3  0  0  0  0  0  0
  -23.0200   -8.8820   21.1160 C   0  0  0  0  0  0  0  0  0  0  0  0
  -22.6960   -9.8580   20.1580 C   0  0  0  0  0  3  0  0  0  0  0  0
  -23.4990  -10.9990   19.9980 C   0  0  0  0  0  3  0  0  0  0  0  0
  -22.1960   -7.7840   21.1810 O   0  0  0  0  0  0  0  0  0  0  0  0
  -22.0210   -7.0820   22.3470 C   0  0  0  0  0  0  0  0  0  0  0  0
  -21.5740   -7.7060   23.5320 C   0  0  0  0  0  3  0  0  0  0  0  0
  -21.3430   -6.9350   24.6890 C   0  0  0  0  0  3  0  0  0  0  0  0
  -21.5460   -5.5420   24.6590 C   0  0  0  0  0  0  0  0  0  0  0  0
  -21.9870   -4.9190   23.4790 C   0  0  0  0  0  3  0  0  0  0  0  0
  -22.2200   -5.6870   22.3250 C   0  0  0  0  0  0  0  0  0  0  0  0
  -22.6230   -5.0790   21.1820 F   0  0  0  0  0  0  0  0  0  0  0  0
  -21.3160   -4.8000   25.7670 F   0  0  0  0  0  0  0  0  0  0  0  0
  -23.7070  -14.3450   20.9370 C   0  0  0  0  0  0  0  0  0  0  0  0
  -22.9350  -13.7050   21.8090 N   0  0  0  0  0  0  0  0  0  0  0  0
  -23.3320  -15.3900   20.4040 O   0  0  0  0  0  0  0  0  0  0  0  0
  -23.2480  -12.8590   22.2630 H   0  0  0  0  0  0  0  0  0  0  0  0
  -22.0160  -14.0660   22.0270 H   0  0  0  0  0  0  0  0  0  0  0  0
  -26.4530  -15.8480   20.1710 N   0  0  0  0  0  0  0  0  0  0  0  0
  -25.7380  -16.5550   20.2970 H   0  0  0  0  0  0  0  0  0  0  0  0
  -27.3480  -16.2330   19.8970 H   0  0  0  0  0  0  0  0  0  0  0  0
  -28.4090  -21.2580   20.0120 C   0  0  0  0  0  2  0  0  0  0  0  0
  -28.8280  -22.6500   19.4140 C   0  0  0  0  0  3  0  0  0  0  0  0
  -28.1250  -23.9330   20.0110 C   0  0  0  0  0  3  0  0  0  0  0  0
  -28.2690  -25.2440   19.1590 C   0  0  0  0  0  2  0  0  0  0  0  0
  -28.1520  -26.5160   19.8570 O   0  0  0  0  0  0  0  0  0  0  0  0
  -24.4800  -31.7380   23.0730 C   0  0  0  0  0  0  0  0  0  0  0  0
  -26.9940  -27.2860   19.8230 C   0  0  0  0  0  0  0  0  0  0  0  0
  -23.3800  -30.1350   21.5380 C   0  0  0  0  0  3  0  0  0  0  0  0
  -24.6580  -28.8950   19.8250 C   0  0  0  0  0  0  0  0  0  0  0  0
  -25.7780  -30.7490   21.1530 C   0  0  0  0  0  2  0  0  0  0  0  0
  -25.8440  -29.3940   20.4110 C   0  0  0  0  0  0  0  0  0  0  0  0
  -27.0050  -28.5810   20.4120 C   0  0  0  0  0  3  0  0  0  0  0  0
  -25.7910  -26.8220   19.2500 C   0  0  0  0  0  3  0  0  0  0  0  0
  -24.6290  -27.6110   19.2540 C   0  0  0  0  0  3  0  0  0  0  0  0
  -23.3840  -29.6840   20.0610 C   0  0  0  0  0  2  0  0  0  0  0  0
  -24.5170  -31.0030   21.9250 N   0  0  0  0  0  0  0  0  0  0  0  0
  -23.4090  -31.9890   23.6430 O   0  0  0  0  0  0  0  0  0  0  0  0
  -22.4990  -29.3640   22.5410 C   0  0  0  0  0  0  0  0  0  0  0  0
  -21.1980  -29.2170   22.2820 N   0  0  0  0  0  0  0  0  0  0  0  0
  -23.0180  -28.7800   23.5080 O   0  0  0  0  0  0  0  0  0  0  0  0
  -20.7920  -29.6890   21.4870 H   0  0  0  0  0  0  0  0  0  0  0  0
  -17.8160  -28.0210   22.7520 C   0  0  0  0  0  0  0  0  0  0  0  0
  -20.3570  -28.2760   23.0270 C   0  0  0  0  0  3  0  0  0  0  0  0
  -20.4720  -26.8480   22.4440 C   0  0  0  0  0  2  0  0  0  0  0  0
  -19.3740  -26.5280   21.4290 C   0  0  0  0  0  2  0  0  0  0  0  0
  -17.9930  -26.6720   22.0730 C   0  0  0  0  0  2  0  0  0  0  0  0
  -18.9280  -28.7830   23.1820 C   0  0  0  0  0  0  0  0  0  0  0  0
  -18.7210  -30.0440   23.7840 C   0  0  0  0  0  3  0  0  0  0  0  0
  -17.4190  -30.5470   23.9540 C   0  0  0  0  0  3  0  0  0  0  0  0
  -16.3140  -29.7820   23.5390 C   0  0  0  0  0  3  0  0  0  0  0  0
  -16.5120  -28.5220   22.9470 C   0  0  0  0  0  3  0  0  0  0  0  0
  -25.7770  -32.3360   23.6970 C   0  0  0  0  0  3  0  0  0  0  0  0
  -25.4860  -33.7190   24.1000 N   0  0  0  0  0  0  0  0  0  0  0  0
  -25.8330  -34.8030   23.3960 C   0  0  0  0  0  0  0  0  0  0  0  0
  -26.4970  -34.7390   22.3570 O   0  0  0  0  0  0  0  0  0  0  0  0
  -24.9030  -33.8440   24.9150 H   0  0  0  0  0  0  0  0  0  0  0  0
  -24.1390  -36.6390   23.1300 C   0  0  0  0  0  1  0  0  0  0  0  0
  -25.3690  -36.1740   23.9250 C   0  0  0  0  0  3  0  0  0  0  0  0
  -27.5200  -36.9680   24.8020 C   0  0  0  0  0  1  0  0  0  0  0  0
  -26.4220  -37.2110   23.8700 N   0  0  0  0  0  0  0  0  0  0  0  0
  -26.0360  -38.1320   24.0650 H   0  0  0  0  0  0  0  0  0  0  0  0
  -26.3190  -31.4990   24.9230 C   0  0  1  0  0  0  0  0  0  0  0  0
  -25.2550  -31.2220   26.0110 C   0  0  0  0  0  1  0  0  0  0  0  0
  -26.8710  -30.1340   24.4520 C   0  0  0  0  0  1  0  0  0  0  0  0
  -27.5000  -32.2480   25.5870 C   0  0  0  0  0  1  0  0  0  0  0  0
  1  8  1  0
  2  1  2  0
  4  3  1  0
  5  3  2  0
  6  4  2  0
  7  5  1  0
  8  7  2  0
  8  6  1  0
  9 10  2  0
  9  7  1  0
 11 10  1  0
 12 17  1  0
 13 14  1  0
 13 12  1  0
 15 14  1  0
 15 22  1  0
 15 16  1  0
 17 11  1  0
 17 16  1  0
 18 11  2  0
 19 20  2  0
 20 39  1  0
 21 20  1  0
 21 24  1  0
 22 19  1  0
 22 23  1  0
 23 21  2  0
 24 25  1  0
 25 26  2  0
 27 30  1  0
 27 26  1  0
 28 27  2  0
 29 28  1  0
 29 24  2  0
 30 31  1  0
 31 32  1  0
 32 33  2  0
 34 33  1  0
 34 38  1  0
 35 34  2  0
 36 31  2  0
 36 35  1  0
 37 36  1  0
 39 40  1  0
 40 43  1  0
 40 42  1  0
 41 39  2  0
 44 45  1  0
 44 19  1  0
 46 44  1  0
 47  1  1  0
 48 49  2  0
 48 47  1  0
 50 51  1  0
 50 49  1  0
 52 63  2  0
 53 51  1  0
 53 58  1  0
 54 62  1  0
 54 64  1  0
 55 61  1  0
 55 57  1  0
 56 62  1  0
 57 58  2  0
 57 56  1  0
 59 60  1  0
 59 53  2  0
 60 55  2  0
 61 54  1  0
 62 52  1  0
 64 66  2  0
 65 64  1  0
 67 65  1  0
 68 77  2  0
 68 73  1  0
 69 65  1  0
 69 73  1  0
 70 69  1  0
 71 72  1  0
 71 70  1  0
 72 68  1  0
 73 74  2  0
 74 75  1  0
 76 75  2  0
 77 76  1  0
 78 52  1  0
 78 79  1  0
 78 88  1  0
 79 82  1  0
 80 84  1  0
 80 79  1  0
 81 80  2  0
 84 83  1  0
 86 84  1  0
 86 87  1  0
 86 85  1  0
 88 91  1  1
 88 89  1  0
 90 88  1  0
M  ISO  4  10 100  11 100  50 101  51 101
M  END
>  <TORSDO>  (69) 
F 22

>  <SCORE>  (69) 
-11.176

>  <name>  (69) 
68

>  <ligand_id>  (69) 
68

>  <original_smiles>  (69) 
[H]C(C(=O)N1C([H])([H])C([H])([H])C([H])([H])C([H])(n2nc(-c3c([H])c([H])c(Oc4c([H])c([H])c(F)c([H])c4F)c([H])c3[H])c(C(=O)N([H])[H])c2N([H])[H])C1([H])[H])=C([H])c1c([H])c([H])c([H])c([H])c1C(=O)C([H])([H])C([H])([H])C([H])([H])C([H])([H])Oc1c([H])c([H])c2c(c1[H])C([H])([H])N(C(=O)C([H])(N([H])C(=O)C([H])(N([H])C([H])([H])[H])C([H])([H])[H])C(C([H])([H])[H])(C([H])([H])[H])C([H])([H])[H])C([H])(C(=O)N([H])C1([H])c3c([H])c([H])c([H])c([H])c3C([H])([H])C([H])([H])C1([H])[H])C2([H])[H]

>  <smiles>  (69) 
[H]C(C(=O)N1C([H])([H])C([H])([H])C([H])([H])C([H])(n2nc(-c3c([H])c([H])c(Oc4c([H])c([H])c(F)c([H])c4F)c([H])c3[H])c(C(=O)N([H])[H])c2N([H])[H])C1([H])[H])=C([H])c1c([H])c([H])c([H])c([H])c1C(=O)C([H])([H])C([H])([H])C([H])([H])C([H])([H])Oc1c([H])c([H])c2c(c1[H])C([H])([H])N(C(=O)C([H])(N([H])C(=O)C([H])(N([H])C([H])([H])[H])C([H])([H])[H])C(C([H])([H])[H])(C([H])([H])[H])C([H])([H])[H])C([H])(C(=O)N([H])C1([H])c3c([H])c([H])c([H])c([H])c3C([H])([H])C([H])([H])C1([H])[H])C2([H])[H]

$$$$
69:0:0
     RDKit          3D

 95 98  0  0  1  0  0  0  0  0999 V2000
  -20.9220  -26.0890   22.8990 C   0  0  0  0  0  2  0  0  0  0  0  0
  -21.1150  -27.2590   24.1850 C   0  0  0  0  0  2  0  0  0  0  0  0
  -23.0540  -27.6330   21.0470 C   0  0  0  0  0  2  0  0  0  0  0  0
  -22.4070  -28.4820   23.8010 C   0  0  0  0  0  2  0  0  0  0  0  0
  -23.4570  -25.3820   20.9830 C   0  0  0  0  0  3  0  0  0  0  0  0
  -19.8700  -25.4270   23.0730 O   0  0  0  0  0  1  0  0  0  0  0  0
  -23.3360  -25.4690   19.5050 N   0  0  0  0  0  4  0  0  0  0  0  0
  -22.8470  -24.6640   19.1610 H   0  0  0  0  0  0  0  0  0  0  0  0
  -24.2530  -25.4800   19.0940 H   0  0  0  0  0  0  0  0  0  0  0  0
  -22.8450  -26.2990   19.2330 H   0  0  0  0  0  0  0  0  0  0  0  0
  -26.7340  -21.1020   20.5600 C   0  0  0  0  0 15  0  0  0  0  0  0
  -25.2230  -22.8070   20.6310 C   0  0  0  0  0  1  0  0  0  0  0  0
  -28.3350  -18.9350   20.2920 C   0  0  0  0  0  2  0  0  0  0  0  0
  -30.1720  -16.1110   19.3170 C   0  0  0  0  0  2  0  0  0  0  0  0
  -30.1880  -14.6670   18.4000 C   0  0  0  0  0  2  0  0  0  0  0  0
  -29.2560  -13.5620   18.8770 C   0  0  0  0  0  2  0  0  0  0  0  0
  -28.2850  -14.4370   19.6460 C   0  0  0  0  0  3  0  0  0  0  0  0
  -28.7530  -15.6020   20.6800 C   0  0  0  0  0  2  0  0  0  0  0  0
  -28.8430  -17.1090   20.0370 N   0  0  0  0  0  0  0  0  0  0  0  0
  -29.6990  -18.7430   20.1930 O   0  0  0  0  0  1  0  0  0  0  0  0
  -25.9980  -14.6520   20.2670 C   0  0  0  0  0  0  0  0  0  0  0  0
  -25.0250  -13.8180   20.6590 C   0  0  0  0  0  0  0  0  0  0  0  0
  -25.5740  -12.4980   20.6220 C   0  0  0  0  0  0  0  0  0  0  0  0
  -27.0880  -13.8530   20.0830 N   0  0  0  0  0  0  0  0  0  0  0  0
  -26.8740  -12.5320   20.3120 N   0  0  0  0  0  0  0  0  0  0  0  0
  -24.8820  -11.2230   20.8000 C   0  0  0  0  0  0  0  0  0  0  0  0
  -25.2280  -10.3160   21.8240 C   0  0  0  0  0  3  0  0  0  0  0  0
  -24.4910   -9.1250   21.9960 C   0  0  0  0  0  3  0  0  0  0  0  0
  -23.3980   -8.8380   21.1430 C   0  0  0  0  0  0  0  0  0  0  0  0
  -23.0760   -9.7340   20.1100 C   0  0  0  0  0  3  0  0  0  0  0  0
  -23.8140  -10.9130   19.9360 C   0  0  0  0  0  3  0  0  0  0  0  0
  -22.6380   -7.6970   21.2190 O   0  0  0  0  0  0  0  0  0  0  0  0
  -22.3080   -7.1350   22.4250 C   0  0  0  0  0  0  0  0  0  0  0  0
  -21.6340   -7.8640   23.4280 C   0  0  0  0  0  3  0  0  0  0  0  0
  -21.2530   -7.2250   24.6250 C   0  0  0  0  0  3  0  0  0  0  0  0
  -21.5360   -5.8600   24.8150 C   0  0  0  0  0  0  0  0  0  0  0  0
  -22.2030   -5.1320   23.8150 C   0  0  0  0  0  3  0  0  0  0  0  0
  -22.5860   -5.7670   22.6210 C   0  0  0  0  0  0  0  0  0  0  0  0
  -23.2090   -5.0580   21.6510 F   0  0  0  0  0  0  0  0  0  0  0  0
  -21.1620   -5.2430   25.9610 F   0  0  0  0  0  0  0  0  0  0  0  0
  -23.6360  -14.2740   20.9330 C   0  0  0  0  0  0  0  0  0  0  0  0
  -22.9700  -13.6400   21.8840 N   0  0  0  0  0  0  0  0  0  0  0  0
  -23.1710  -15.2560   20.3540 O   0  0  0  0  0  0  0  0  0  0  0  0
  -23.3760  -12.8580   22.3770 H   0  0  0  0  0  0  0  0  0  0  0  0
  -22.0360  -13.9420   22.1260 H   0  0  0  0  0  0  0  0  0  0  0  0
  -26.0260  -16.0290   20.0280 N   0  0  0  0  0  0  0  0  0  0  0  0
  -25.1890  -16.6000   20.0690 H   0  0  0  0  0  0  0  0  0  0  0  0
  -26.8400  -16.5140   19.6750 H   0  0  0  0  0  0  0  0  0  0  0  0
  -24.2540  -22.2980   19.8600 O   0  0  0  0  0  0  0  0  0  0  0  0
  -24.5130  -21.4240   19.6000 H   0  0  0  0  0  0  0  0  0  0  0  0
  -23.3690  -28.0110   25.2490 C   0  0  0  0  0  3  0  0  0  0  0  0
  -24.8040  -26.9910   25.4510 C   0  0  0  0  0  3  0  0  0  0  0  0
  -25.9040  -26.1090   24.4370 C   0  0  0  0  0  2  0  0  0  0  0  0
  -27.3330  -26.5750   23.6770 C   0  0  0  0  0  2  0  0  0  0  0  0
  -28.0260  -26.0930   22.3580 O   0  0  0  0  0  0  0  0  0  0  0  0
  -25.3010  -31.6640   23.3950 C   0  0  0  0  0  0  0  0  0  0  0  0
  -28.0100  -27.0380   21.3700 C   0  0  0  0  0  0  0  0  0  0  0  0
  -24.6630  -30.1660   21.3910 C   0  0  0  0  0  3  0  0  0  0  0  0
  -26.4700  -29.0040   20.1990 C   0  0  0  0  0  0  0  0  0  0  0  0
  -27.1030  -30.6370   22.0240 C   0  0  0  0  0  2  0  0  0  0  0  0
  -27.3330  -29.3380   21.2590 C   0  0  0  0  0  0  0  0  0  0  0  0
  -28.2030  -28.3670   21.7730 C   0  0  0  0  0  3  0  0  0  0  0  0
  -27.3170  -26.7320   20.1850 C   0  0  0  0  0  3  0  0  0  0  0  0
  -26.5220  -27.7310   19.5970 C   0  0  0  0  0  3  0  0  0  0  0  0
  -25.2850  -29.9230   20.0030 C   0  0  0  0  0  2  0  0  0  0  0  0
  -25.6690  -30.9730   22.2520 N   0  0  0  0  0  0  0  0  0  0  0  0
  -24.1260  -32.0130   23.5690 O   0  0  0  0  0  0  0  0  0  0  0  0
  -24.5470  -28.7620   22.1360 C   0  0  0  0  0  0  0  0  0  0  0  0
  -24.2150  -27.3600   21.9860 N   0  0  2  0  0  4  0  0  0  0  0  0
  -24.8220  -28.9290   23.2680 O   0  0  0  0  0  0  0  0  0  0  0  0
  -24.8190  -26.9320   22.6720 H   0  0  0  0  0  0  0  0  0  0  0  0
  -19.3670  -28.3160   21.5800 C   0  0  0  0  0  0  0  0  0  0  0  0
  -22.7270  -26.2920   21.9620 C   0  0  0  0  0  3  0  0  0  0  0  0
  -21.8040  -24.4460   21.1700 C   0  0  0  0  0  1  0  0  0  0  0  0
  -20.1820  -25.5520   19.9000 C   0  0  0  0  0  1  0  0  0  0  0  0
  -19.2810  -27.2400   20.2760 C   0  0  0  0  0  2  0  0  0  0  0  0
  -20.7600  -28.3730   22.1070 C   0  0  0  0  0  3  0  0  0  0  0  0
  -20.5320  -29.5120   23.2110 C   0  0  0  0  0  3  0  0  0  0  0  0
  -19.3740  -30.1530   23.8520 C   0  0  0  0  0  3  0  0  0  0  0  0
  -18.1170  -29.8980   23.3210 C   0  0  0  0  0  3  0  0  0  0  0  0
  -18.1650  -29.0330   22.1730 C   0  0  0  0  0  3  0  0  0  0  0  0
  -26.3220  -32.0270   24.5510 C   0  0  0  0  0  3  0  0  0  0  0  0
  -26.1040  -33.4360   24.9070 N   0  0  0  0  0  0  0  0  0  0  0  0
  -26.8450  -34.4560   24.4600 C   0  0  0  0  0  0  0  0  0  0  0  0
  -27.8210  -34.3010   23.7220 O   0  0  0  0  0  0  0  0  0  0  0  0
  -25.2850  -33.6370   25.4610 H   0  0  0  0  0  0  0  0  0  0  0  0
  -25.5230  -36.4910   23.8070 C   0  0  0  0  0  1  0  0  0  0  0  0
  -26.4270  -35.8770   24.8870 C   0  0  0  0  0  3  0  0  0  0  0  0
  -28.3520  -36.3940   26.3220 C   0  0  0  0  0  1  0  0  0  0  0  0
  -27.5730  -36.7760   25.1480 N   0  0  0  0  0  0  0  0  0  0  0  0
  -27.2580  -37.7340   25.2740 H   0  0  0  0  0  0  0  0  0  0  0  0
  -26.2430  -31.1410   25.8750 C   0  0  1  0  0  0  0  0  0  0  0  0
  -24.8040  -30.9510   26.4020 C   0  0  0  0  0  1  0  0  0  0  0  0
  -26.8910  -29.7520   25.6950 C   0  0  0  0  0  1  0  0  0  0  0  0
  -27.0730  -31.7880   27.0120 C   0  0  0  0  0  1  0  0  0  0  0  0
  1  6  1  0
  1  2  1  0
  3 73  1  0
  3 69  1  0
  4  2  1  0
  4 51  1  0
  5 74  1  0
  7  5  1  0
  8  7  1  0
  9  7  1  0
 10  7  1  0
 14 19  1  0
 15 16  1  0
 15 14  1  0
 17 16  1  0
 17 24  1  0
 17 18  1  0
 19 13  1  0
 19 18  1  0
 20 13  1  0
 21 22  2  0
 22 41  1  0
 23 22  1  0
 23 26  1  0
 24 21  1  0
 24 25  1  0
 25 23  2  0
 26 27  1  0
 27 28  2  0
 29 32  1  0
 29 28  1  0
 30 29  2  0
 31 30  1  0
 31 26  2  0
 32 33  1  0
 33 38  2  0
 33 34  1  0
 34 35  2  0
 35 36  1  0
 36 40  1  0
 37 36  2  0
 38 37  1  0
 39 38  1  0
 41 42  1  0
 42 45  1  0
 42 44  1  0
 43 41  2  0
 46 47  1  0
 46 21  1  0
 48 46  1  0
 49 12  1  0
 50 49  1  0
 51 52  2  0
 53 52  1  0
 54 53  1  0
 55 54  1  0
 56 67  2  0
 57 62  1  0
 57 55  1  0
 58 68  1  0
 58 66  1  0
 59 61  1  0
 60 66  1  0
 61 62  2  0
 61 60  1  0
 63 57  2  0
 64 63  1  0
 64 59  2  0
 65 59  1  0
 65 58  1  0
 66 56  1  0
 68 70  2  0
 69 68  1  0
 69 71  1  1
 72 77  2  0
 72 81  1  0
 73  5  1  0
 73 69  1  0
 75 76  1  0
 76 72  1  0
 77 78  1  0
 78 79  2  0
 80 79  1  0
 81 80  2  0
 82 56  1  0
 82 83  1  0
 82 92  1  0
 83 86  1  0
 84 88  1  0
 84 83  1  0
 85 84  2  0
 88 87  1  0
 88 90  1  0
 90 91  1  0
 90 89  1  0
 92 93  1  1
 92 95  1  0
 94 92  1  0
M  ISO  4  11 100  13 100  54 101  55 101
M  END
>  <TORSDO>  (70) 
F 23

>  <SCORE>  (70) 
-7.332

>  <name>  (70) 
69

>  <ligand_id>  (70) 
69

>  <original_smiles>  (70) 
[H]OC(=C([H])C(=O)N1C([H])([H])C([H])([H])C([H])([H])C([H])(n2nc(-c3c([H])c([H])c(Oc4c([H])c([H])c(F)c([H])c4F)c([H])c3[H])c(C(=O)N([H])[H])c2N([H])[H])C1([H])[H])C1([N+]([H])([H])[H])C(=O)C([H])([H])C([H])(C([H])([H])C([H])([H])C([H])([H])C([H])([H])Oc2c([H])c([H])c3c(c2[H])C([H])([H])N(C(=O)C([H])(N([H])C(=O)C([H])(N([H])C([H])([H])[H])C([H])([H])[H])C(C([H])([H])[H])(C([H])([H])[H])C([H])([H])[H])C([H])(C(=O)N([H])C2([H])c4c([H])c([H])c([H])c([H])c4C([H])([H])C([H])([H])C2([H])[H])C3([H])[H])C1([H])[H]

>  <smiles>  (70) 
[H]OC(=C([H])C(=O)N1C([H])([H])C([H])([H])C([H])([H])C([H])(n2nc(-c3c([H])c([H])c(Oc4c([H])c([H])c(F)c([H])c4F)c([H])c3[H])c(C(=O)N([H])[H])c2N([H])[H])C1([H])[H])C1([N+]([H])([H])[H])C(=O)C([H])([H])C([H])(C([H])([H])C([H])([H])C([H])([H])C([H])([H])Oc2c([H])c([H])c3c(c2[H])C([H])([H])N(C(=O)C([H])(N([H])C(=O)C([H])(N([H])C([H])([H])[H])C([H])([H])[H])C(C([H])([H])[H])(C([H])([H])[H])C([H])([H])[H])C([H])(C(=O)N([H])C2([H])c4c([H])c([H])c([H])c([H])c4C([H])([H])C([H])([H])C2([H])[H])C3([H])[H])C1([H])[H]

$$$$
70:0:0
     RDKit          3D

 93101  0  0  1  0  0  0  0  0999 V2000
  -29.1720  -23.5910   22.9000 C   0  0  0  0  0  3  0  0  0  0  0  0
  -30.7310  -23.0670   21.1040 C   0  0  0  0  0  3  0  0  0  0  0  0
  -29.6430  -22.4840   23.6330 C   0  0  0  0  0  3  0  0  0  0  0  0
  -31.2080  -21.9630   21.8380 C   0  0  0  0  0  3  0  0  0  0  0  0
  -29.7060  -23.8840   21.6170 C   0  0  0  0  0  0  0  0  0  0  0  0
  -30.6620  -21.6650   23.1040 C   0  0  0  0  0  0  0  0  0  0  0  0
  -29.2920  -25.0410   20.8040 C   0  0  0  0  0  3  0  0  0  0  0  0
  -28.4110  -25.9820   20.4380 C   0  0  0  0  0  3  0  0  0  0  0  0
  -28.2800  -27.1180   19.7010 O   0  0  0  0  0  0  0  0  0  0  0  0
  -24.5740  -31.8490   23.4730 C   0  0  0  0  0  0  0  0  0  0  0  0
  -27.0970  -27.7840   19.8600 C   0  0  0  0  0  0  0  0  0  0  0  0
  -23.2920  -30.5830   21.7750 C   0  0  0  0  0  3  0  0  0  0  0  0
  -24.6810  -29.1980   20.1460 C   0  0  0  0  0  0  0  0  0  0  0  0
  -25.7950  -31.0060   21.4740 C   0  0  0  0  0  2  0  0  0  0  0  0
  -25.8600  -29.7020   20.7120 C   0  0  0  0  0  0  0  0  0  0  0  0
  -27.0720  -29.0000   20.5680 C   0  0  0  0  0  3  0  0  0  0  0  0
  -25.9090  -27.2770   19.2990 C   0  0  0  0  0  3  0  0  0  0  0  0
  -24.6970  -27.9810   19.4420 C   0  0  0  0  0  3  0  0  0  0  0  0
  -23.4300  -30.0250   20.3330 C   0  0  0  0  0  2  0  0  0  0  0  0
  -24.5740  -31.1540   22.3000 N   0  0  0  0  0  0  0  0  0  0  0  0
  -23.5200  -32.0580   24.0900 O   0  0  0  0  0  0  0  0  0  0  0  0
  -22.7010  -29.4720   22.6740 C   0  0  0  0  0  0  0  0  0  0  0  0
  -21.4000  -29.1910   22.4930 N   0  0  0  0  0  0  0  0  0  0  0  0
  -23.4080  -28.8710   23.4840 O   0  0  0  0  0  0  0  0  0  0  0  0
  -20.8890  -29.7300   21.8090 H   0  0  0  0  0  0  0  0  0  0  0  0
  -18.1630  -27.6010   22.7000 C   0  0  0  0  0  0  0  0  0  0  0  0
  -20.6380  -28.1590   23.1950 C   0  0  0  0  0  3  0  0  0  0  0  0
  -20.9610  -26.7530   22.6360 C   0  0  0  0  0  2  0  0  0  0  0  0
  -19.9980  -26.3100   21.5320 C   0  0  0  0  0  2  0  0  0  0  0  0
  -18.5590  -26.2840   22.0540 C   0  0  0  0  0  2  0  0  0  0  0  0
  -19.1410  -28.4880   23.2220 C   0  0  0  0  0  0  0  0  0  0  0  0
  -18.7230  -29.7150   23.7820 C   0  0  0  0  0  3  0  0  0  0  0  0
  -17.3590  -30.0570   23.8290 C   0  0  0  0  0  3  0  0  0  0  0  0
  -16.3940  -29.1670   23.3280 C   0  0  0  0  0  3  0  0  0  0  0  0
  -16.7960  -27.9410   22.7690 C   0  0  0  0  0  3  0  0  0  0  0  0
  -25.8880  -32.4350   24.0790 C   0  0  0  0  0  3  0  0  0  0  0  0
  -25.6120  -33.8230   24.4700 N   0  0  0  0  0  0  0  0  0  0  0  0
  -25.9560  -34.8980   23.7470 C   0  0  0  0  0  0  0  0  0  0  0  0
  -26.6090  -34.8220   22.7030 O   0  0  0  0  0  0  0  0  0  0  0  0
  -25.0300  -33.9580   25.2820 H   0  0  0  0  0  0  0  0  0  0  0  0
  -24.2690  -36.7430   23.4760 C   0  0  0  0  0  1  0  0  0  0  0  0
  -25.5010  -36.2750   24.2660 C   0  0  0  0  0  3  0  0  0  0  0  0
  -27.6550  -37.0760   25.1290 C   0  0  0  0  0  1  0  0  0  0  0  0
  -26.5590  -37.3080   24.1930 N   0  0  0  0  0  0  0  0  0  0  0  0
  -26.1720  -38.2310   24.3760 H   0  0  0  0  0  0  0  0  0  0  0  0
  -26.4310  -31.6030   25.3060 C   0  0  1  0  0  0  0  0  0  0  0  0
  -25.3590  -31.3170   26.3830 C   0  0  0  0  0  1  0  0  0  0  0  0
  -26.9990  -30.2450   24.8340 C   0  0  0  0  0  1  0  0  0  0  0  0
  -27.6000  -32.3630   25.9760 C   0  0  0  0  0  1  0  0  0  0  0  0
  -31.2130  -20.4970   23.9090 C   0  0  0  0  0  2  0  0  0  0  0  0
  -30.5300  -18.3690   24.8700 C   0  0  0  0  0  1  0  0  0  0  0  0
  -30.5360  -19.2000   23.6420 N   0  0  2  0  0  4  0  0  0  0  0  0
  -29.5740  -19.4380   23.4510 H   0  0  0  0  0  0  0  0  0  0  0  0
  -31.0590  -18.4770   22.4400 C   0  0  0  0  0  2  0  0  0  0  0  0
  -30.5290  -17.0260   22.2980 C   0  0  0  0  0  2  0  0  0  0  0  0
  -30.9890  -16.2700   21.0270 C   0  0  0  0  0  2  0  0  0  0  0  0
  -30.4270  -14.8270   21.0130 C   0  0  0  0  0  2  0  0  0  0  0  0
  -30.8400  -13.8960   19.8460 C   0  0  0  0  0  0  0  0  0  0  0  0
  -30.4210  -11.7950   18.5850 C   0  0  0  0  0  2  0  0  0  0  0  0
  -29.3560  -11.9850   17.4860 C   0  0  0  0  0  2  0  0  0  0  0  0
  -27.9270  -11.8590   18.0560 C   0  0  0  0  0  2  0  0  0  0  0  0
  -27.7270  -12.7120   19.3360 C   0  0  0  0  0  3  0  0  0  0  0  0
  -28.8660  -12.4210   20.3370 C   0  0  0  0  0  2  0  0  0  0  0  0
  -30.1380  -12.7440   19.6710 N   0  0  0  0  0  0  0  0  0  0  0  0
  -31.8020  -14.1960   19.1270 O   0  0  0  0  0  0  0  0  0  0  0  0
  -25.4290  -13.4030   20.2760 C   0  0  0  0  0  0  0  0  0  0  0  0
  -24.3690  -12.6640   20.7310 C   0  0  0  0  0  0  0  0  0  0  0  0
  -24.7690  -11.2970   20.6250 C   0  0  0  0  0  0  0  0  0  0  0  0
  -26.4110  -12.4860   19.9310 N   0  0  0  0  0  0  0  0  0  0  0  0
  -26.0190  -11.2140   20.1900 N   0  0  0  0  0  0  0  0  0  0  0  0
  -24.0150  -10.0580   20.8590 C   0  0  0  0  0  0  0  0  0  0  0  0
  -24.4230   -9.1190   21.8300 C   0  0  0  0  0  3  0  0  0  0  0  0
  -23.6740   -7.9430   22.0480 C   0  0  0  0  0  3  0  0  0  0  0  0
  -22.5010   -7.6990   21.2940 C   0  0  0  0  0  0  0  0  0  0  0  0
  -22.1110   -8.6290   20.3140 C   0  0  0  0  0  3  0  0  0  0  0  0
  -22.8620   -9.7960   20.0940 C   0  0  0  0  0  3  0  0  0  0  0  0
  -21.7250   -6.5740   21.4190 O   0  0  0  0  0  0  0  0  0  0  0  0
  -21.5720   -5.9340   22.6240 C   0  0  0  0  0  0  0  0  0  0  0  0
  -21.0290   -6.5880   23.7500 C   0  0  0  0  0  3  0  0  0  0  0  0
  -20.8250   -5.8740   24.9480 C   0  0  0  0  0  3  0  0  0  0  0  0
  -21.1560   -4.5070   25.0190 C   0  0  0  0  0  0  0  0  0  0  0  0
  -21.6940   -3.8540   23.8950 C   0  0  0  0  0  3  0  0  0  0  0  0
  -21.8980   -4.5660   22.7000 C   0  0  0  0  0  0  0  0  0  0  0  0
  -22.3960   -3.9260   21.6150 F   0  0  0  0  0  0  0  0  0  0  0  0
  -20.9540   -3.8190   26.1660 F   0  0  0  0  0  0  0  0  0  0  0  0
  -23.0270  -13.1870   21.1550 C   0  0  0  0  0  0  0  0  0  0  0  0
  -22.3680  -12.5020   22.0820 N   0  0  0  0  0  0  0  0  0  0  0  0
  -22.5770  -14.2370   20.6980 O   0  0  0  0  0  0  0  0  0  0  0  0
  -22.7480  -11.6510   22.4710 H   0  0  0  0  0  0  0  0  0  0  0  0
  -21.4720  -12.8320   22.4110 H   0  0  0  0  0  0  0  0  0  0  0  0
  -25.6360  -14.7700   20.1130 N   0  0  0  0  0  0  0  0  0  0  0  0
  -24.9150  -15.4580   20.3010 H   0  0  0  0  0  0  0  0  0  0  0  0
  -26.4820  -15.1750   19.7330 H   0  0  0  0  0  0  0  0  0  0  0  0
  1  3  1  0
  2  5  1  0
  2  4  2  0
  4  6  1  0
  5  1  2  0
  6  3  2  0
  6 50  1  0
  7  5  1  0
  8  7  2  0
  9 11  1  0
  9  8  1  0
 10 21  2  0
 11 16  1  0
 12 20  1  0
 12 22  1  0
 13 19  1  0
 13 15  1  0
 14 20  1  0
 15 14  1  0
 16 15  2  0
 17 18  1  0
 17 11  2  0
 18 13  2  0
 19 12  1  0
 20 10  1  0
 22 24  2  0
 23 22  1  0
 25 23  1  0
 26 35  2  0
 26 31  1  0
 27 23  1  0
 27 31  1  0
 28 27  1  0
 29 30  1  0
 29 28  1  0
 30 26  1  0
 31 32  2  0
 32 33  1  0
 34 33  2  0
 35 34  1  0
 36 10  1  0
 36 37  1  0
 36 46  1  0
 37 40  1  0
 38 42  1  0
 38 37  1  0
 39 38  2  0
 42 41  1  0
 44 42  1  0
 44 45  1  0
 44 43  1  0
 46 49  1  1
 46 47  1  0
 48 46  1  0
 52 50  1  0
 52 51  1  0
 52 53  1  6
 54 52  1  0
 55 54  1  0
 56 55  1  0
 57 56  1  0
 58 57  1  0
 59 64  1  0
 60 61  1  0
 60 59  1  0
 62 61  1  0
 62 69  1  0
 62 63  1  0
 64 58  1  0
 64 63  1  0
 65 58  2  0
 66 67  2  0
 67 86  1  0
 68 67  1  0
 68 71  1  0
 69 70  1  0
 69 66  1  0
 70 68  2  0
 71 72  1  0
 72 73  2  0
 74 77  1  0
 74 73  1  0
 75 74  2  0
 76 75  1  0
 76 71  2  0
 77 78  1  0
 78 83  2  0
 78 79  1  0
 79 80  2  0
 80 81  1  0
 81 85  1  0
 82 81  2  0
 83 82  1  0
 84 83  1  0
 86 87  1  0
 87 90  1  0
 87 89  1  0
 88 86  2  0
 91 66  1  0
 91 92  1  0
 93 91  1  0
M  ISO  4   8 101   9 101  57 100  58 100
M  END
>  <TORSDO>  (71) 
F 23

>  <SCORE>  (71) 
-9.898

>  <name>  (71) 
70

>  <ligand_id>  (71) 
70

>  <original_smiles>  (71) 
[H]C(Oc1c([H])c([H])c2c(c1[H])C([H])([H])N(C(=O)C([H])(N([H])C(=O)C([H])(N([H])C([H])([H])[H])C([H])([H])[H])C(C([H])([H])[H])(C([H])([H])[H])C([H])([H])[H])C([H])(C(=O)N([H])C1([H])c3c([H])c([H])c([H])c([H])c3C([H])([H])C([H])([H])C1([H])[H])C2([H])[H])=C([H])c1c([H])c([H])c(C([H])([H])[N+]([H])(C([H])([H])[H])C([H])([H])C([H])([H])C([H])([H])C([H])([H])C(=O)N2C([H])([H])C([H])([H])C([H])([H])C([H])(n3nc(-c4c([H])c([H])c(Oc5c([H])c([H])c(F)c([H])c5F)c([H])c4[H])c(C(=O)N([H])[H])c3N([H])[H])C2([H])[H])c([H])c1[H]

>  <smiles>  (71) 
[H]C(Oc1c([H])c([H])c2c(c1[H])C([H])([H])N(C(=O)C([H])(N([H])C(=O)C([H])(N([H])C([H])([H])[H])C([H])([H])[H])C(C([H])([H])[H])(C([H])([H])[H])C([H])([H])[H])C([H])(C(=O)N([H])C1([H])c3c([H])c([H])c([H])c([H])c3C([H])([H])C([H])([H])C1([H])[H])C2([H])[H])=C([H])c1c([H])c([H])c(C([H])([H])[N+]([H])(C([H])([H])[H])C([H])([H])C([H])([H])C([H])([H])C([H])([H])C(=O)N2C([H])([H])C([H])([H])C([H])([H])C([H])(n3nc(-c4c([H])c([H])c(Oc5c([H])c([H])c(F)c([H])c5F)c([H])c4[H])c(C(=O)N([H])[H])c3N([H])[H])C2([H])[H])c([H])c1[H]

$$$$
71:0:0
     RDKit          3D

 94102  0  0  1  0  0  0  0  0999 V2000
  -31.4020  -19.8430   20.2400 C   0  0  0  0  0  3  0  0  0  0  0  0
  -31.7930  -21.1890   20.1320 C   0  0  0  0  0  3  0  0  0  0  0  0
  -29.1100  -20.5630   20.5460 C   0  0  0  0  0  3  0  0  0  0  0  0
  -30.0510  -19.5080   20.4690 C   0  0  0  0  0  0  0  0  0  0  0  0
  -29.4770  -21.9300   20.4140 C   0  0  0  0  0  0  0  0  0  0  0  0
  -30.8610  -22.2510   20.2450 C   0  0  0  0  0  0  0  0  0  0  0  0
  -32.7550  -23.8740   20.3340 C   0  0  0  0  0  1  0  0  0  0  0  0
  -31.3330  -23.5790   20.2120 N   0  0  0  0  0  0  0  0  0  0  0  0
  -30.6980  -24.3470   20.4090 H   0  0  0  0  0  0  0  0  0  0  0  0
  -28.3510  -22.9240   20.5520 C   0  0  0  0  0  0  0  0  0  0  0  0
  -27.3580  -22.6950   21.2540 O   0  0  0  0  0  0  0  0  0  0  0  0
  -28.3670  -24.2310   19.7390 C   0  0  0  0  0  2  0  0  0  0  0  0
  -28.3390  -25.4820   20.6450 C   0  0  0  0  0  2  0  0  0  0  0  0
  -28.3470  -26.7050   19.9010 O   0  0  0  0  0  0  0  0  0  0  0  0
  -24.5260  -31.7450   23.1610 C   0  0  0  0  0  0  0  0  0  0  0  0
  -27.1740  -27.4190   19.9430 C   0  0  0  0  0  0  0  0  0  0  0  0
  -23.3190  -30.3980   21.4720 C   0  0  0  0  0  3  0  0  0  0  0  0
  -24.7750  -28.9040   20.0030 C   0  0  0  0  0  0  0  0  0  0  0  0
  -25.8430  -30.7680   21.2860 C   0  0  0  0  0  2  0  0  0  0  0  0
  -25.9300  -29.4190   20.6050 C   0  0  0  0  0  0  0  0  0  0  0  0
  -27.1360  -28.6830   20.5700 C   0  0  0  0  0  3  0  0  0  0  0  0
  -26.0030  -26.9090   19.3430 C   0  0  0  0  0  3  0  0  0  0  0  0
  -24.8040  -27.6480   19.3710 C   0  0  0  0  0  3  0  0  0  0  0  0
  -23.5300  -29.7610   20.0720 C   0  0  0  0  0  2  0  0  0  0  0  0
  -24.5810  -30.9820   22.0330 N   0  0  0  0  0  0  0  0  0  0  0  0
  -23.4450  -32.0000   23.7110 O   0  0  0  0  0  0  0  0  0  0  0  0
  -22.6670  -29.3480   22.3980 C   0  0  0  0  0  0  0  0  0  0  0  0
  -21.3380  -29.1920   22.2800 N   0  0  0  0  0  0  0  0  0  0  0  0
  -23.3510  -28.6800   23.1760 O   0  0  0  0  0  0  0  0  0  0  0  0
  -20.8480  -29.7830   21.6230 H   0  0  0  0  0  0  0  0  0  0  0  0
  -17.9460  -28.0660   22.8070 C   0  0  0  0  0  0  0  0  0  0  0  0
  -20.5160  -28.2350   23.0210 C   0  0  0  0  0  3  0  0  0  0  0  0
  -20.5620  -26.8370   22.3620 C   0  0  0  0  0  2  0  0  0  0  0  0
  -19.4240  -26.6030   21.3640 C   0  0  0  0  0  2  0  0  0  0  0  0
  -18.0650  -26.7520   22.0540 C   0  0  0  0  0  2  0  0  0  0  0  0
  -19.0980  -28.7700   23.2460 C   0  0  0  0  0  0  0  0  0  0  0  0
  -18.9330  -30.0050   23.9110 C   0  0  0  0  0  3  0  0  0  0  0  0
  -17.6490  -30.5340   24.1400 C   0  0  0  0  0  3  0  0  0  0  0  0
  -16.5110  -29.8250   23.7160 C   0  0  0  0  0  3  0  0  0  0  0  0
  -16.6610  -28.5920   23.0550 C   0  0  0  0  0  3  0  0  0  0  0  0
  -25.8130  -32.3520   23.8030 C   0  0  0  0  0  3  0  0  0  0  0  0
  -25.5200  -33.7490   24.1460 N   0  0  0  0  0  0  0  0  0  0  0  0
  -25.8780  -34.8050   23.4010 C   0  0  0  0  0  0  0  0  0  0  0  0
  -26.5630  -34.7040   22.3800 O   0  0  0  0  0  0  0  0  0  0  0  0
  -24.9150  -33.9040   24.9390 H   0  0  0  0  0  0  0  0  0  0  0  0
  -24.1890  -36.6300   23.0280 C   0  0  0  0  0  1  0  0  0  0  0  0
  -25.4010  -36.1940   23.8660 C   0  0  0  0  0  3  0  0  0  0  0  0
  -27.5230  -37.0370   24.7720 C   0  0  0  0  0  1  0  0  0  0  0  0
  -26.4540  -37.2320   23.7950 N   0  0  0  0  0  0  0  0  0  0  0  0
  -26.0580  -38.1570   23.9390 H   0  0  0  0  0  0  0  0  0  0  0  0
  -26.3100  -31.5580   25.0740 C   0  0  1  0  0  0  0  0  0  0  0  0
  -25.2030  -31.3170   26.1270 C   0  0  0  0  0  1  0  0  0  0  0  0
  -26.8820  -30.1800   24.6660 C   0  0  0  0  0  1  0  0  0  0  0  0
  -27.4610  -32.3300   25.7580 C   0  0  0  0  0  1  0  0  0  0  0  0
  -29.6020  -18.0860   20.6380 C   0  0  0  0  0  0  0  0  0  0  0  0
  -28.4130  -17.7900   20.7940 O   0  0  0  0  0  0  0  0  0  0  0  0
  -30.6710  -16.9780   20.6240 C   0  0  0  0  0  2  0  0  0  0  0  0
  -30.1640  -15.5650   21.0340 C   0  0  0  0  0  2  0  0  0  0  0  0
  -30.7950  -14.4180   20.2200 C   0  0  0  0  0  0  0  0  0  0  0  0
  -30.4500  -12.2810   19.0250 C   0  0  0  0  0  2  0  0  0  0  0  0
  -29.4560  -12.5060   17.8690 C   0  0  0  0  0  2  0  0  0  0  0  0
  -27.9990  -12.3730   18.3580 C   0  0  0  0  0  2  0  0  0  0  0  0
  -27.7230  -13.1990   19.6440 C   0  0  0  0  0  3  0  0  0  0  0  0
  -28.8210  -12.9390   20.7000 C   0  0  0  0  0  2  0  0  0  0  0  0
  -30.1220  -13.2450   20.0860 N   0  0  0  0  0  0  0  0  0  0  0  0
  -31.8700  -14.6280   19.6470 O   0  0  0  0  0  0  0  0  0  0  0  0
  -25.3660  -13.8290   20.4680 C   0  0  0  0  0  0  0  0  0  0  0  0
  -24.3010  -13.0640   20.8620 C   0  0  0  0  0  0  0  0  0  0  0  0
  -24.7380  -11.7060   20.7770 C   0  0  0  0  0  0  0  0  0  0  0  0
  -26.3860  -12.9370   20.1720 N   0  0  0  0  0  0  0  0  0  0  0  0
  -26.0130  -11.6550   20.4110 N   0  0  0  0  0  0  0  0  0  0  0  0
  -24.0010  -10.4500   20.9670 C   0  0  0  0  0  0  0  0  0  0  0  0
  -24.4200   -9.4840   21.9090 C   0  0  0  0  0  3  0  0  0  0  0  0
  -23.6850   -8.2930   22.0870 C   0  0  0  0  0  3  0  0  0  0  0  0
  -22.5170   -8.0580   21.3230 C   0  0  0  0  0  0  0  0  0  0  0  0
  -22.1170   -9.0130   20.3710 C   0  0  0  0  0  3  0  0  0  0  0  0
  -22.8510  -10.1960   20.1920 C   0  0  0  0  0  3  0  0  0  0  0  0
  -21.7550   -6.9180   21.4100 O   0  0  0  0  0  0  0  0  0  0  0  0
  -21.6480   -6.2110   22.5810 C   0  0  0  0  0  0  0  0  0  0  0  0
  -21.1190   -6.7910   23.7550 C   0  0  0  0  0  3  0  0  0  0  0  0
  -20.9620   -6.0080   24.9160 C   0  0  0  0  0  3  0  0  0  0  0  0
  -21.3250   -4.6480   24.9040 C   0  0  0  0  0  0  0  0  0  0  0  0
  -21.8470   -4.0680   23.7340 C   0  0  0  0  0  3  0  0  0  0  0  0
  -22.0050   -4.8480   22.5740 C   0  0  0  0  0  0  0  0  0  0  0  0
  -22.4890   -4.2800   21.4440 F   0  0  0  0  0  0  0  0  0  0  0  0
  -21.1670   -3.8930   26.0160 F   0  0  0  0  0  0  0  0  0  0  0  0
  -22.9250  -13.5540   21.2100 C   0  0  0  0  0  0  0  0  0  0  0  0
  -22.2230  -12.8390   22.0830 N   0  0  0  0  0  0  0  0  0  0  0  0
  -22.4820  -14.6040   20.7450 O   0  0  0  0  0  0  0  0  0  0  0  0
  -22.5950  -11.9890   22.4800 H   0  0  0  0  0  0  0  0  0  0  0  0
  -21.3010  -13.1470   22.3580 H   0  0  0  0  0  0  0  0  0  0  0  0
  -25.5450  -15.2000   20.3190 N   0  0  0  0  0  0  0  0  0  0  0  0
  -24.7990  -15.8660   20.4940 H   0  0  0  0  0  0  0  0  0  0  0  0
  -26.4020  -15.6410   20.0090 H   0  0  0  0  0  0  0  0  0  0  0  0
  1  4  1  0
  2  1  2  0
  2  6  1  0
  4  3  2  0
  4 55  1  0
  5  3  1  0
  5 10  1  0
  6  5  2  0
  8  6  1  0
  8  7  1  0
  8  9  1  0
 10 11  2  0
 12 10  1  0
 12 13  1  0
 14 16  1  0
 14 13  1  0
 15 26  2  0
 16 21  1  0
 17 25  1  0
 17 27  1  0
 18 24  1  0
 18 20  1  0
 19 25  1  0
 20 19  1  0
 21 20  2  0
 22 23  1  0
 22 16  2  0
 23 18  2  0
 24 17  1  0
 25 15  1  0
 27 29  2  0
 28 27  1  0
 30 28  1  0
 31 40  2  0
 31 36  1  0
 32 28  1  0
 32 36  1  0
 33 32  1  0
 34 35  1  0
 34 33  1  0
 35 31  1  0
 36 37  2  0
 37 38  1  0
 39 38  2  0
 40 39  1  0
 41 15  1  0
 41 42  1  0
 41 51  1  0
 42 45  1  0
 43 47  1  0
 43 42  1  0
 44 43  2  0
 47 46  1  0
 49 47  1  0
 49 50  1  0
 49 48  1  0
 51 54  1  1
 51 52  1  0
 53 51  1  0
 55 56  2  0
 57 55  1  0
 57 58  1  0
 59 58  1  0
 60 65  1  0
 61 62  1  0
 61 60  1  0
 63 62  1  0
 63 70  1  0
 63 64  1  0
 65 59  1  0
 65 64  1  0
 66 59  2  0
 67 68  2  0
 68 87  1  0
 69 68  1  0
 69 72  1  0
 70 71  1  0
 70 67  1  0
 71 69  2  0
 72 73  1  0
 73 74  2  0
 75 78  1  0
 75 74  1  0
 76 75  2  0
 77 76  1  0
 77 72  2  0
 78 79  1  0
 79 80  1  0
 80 81  2  0
 82 81  1  0
 82 86  1  0
 83 82  2  0
 84 79  2  0
 84 83  1  0
 85 84  1  0
 87 88  1  0
 88 91  1  0
 88 90  1  0
 89 87  2  0
 92 67  1  0
 92 93  1  0
 94 92  1  0
M  ISO  4  13 101  14 101  58 100  59 100
M  END
>  <TORSDO>  (72) 
F 23

>  <SCORE>  (72) 
-12.733

>  <name>  (72) 
71

>  <ligand_id>  (72) 
71

>  <original_smiles>  (72) 
[H]c1c([H])c([H])c2c(c1[H])C([H])([H])C([H])([H])C([H])([H])C2([H])N([H])C(=O)C1([H])N(C(=O)C([H])(N([H])C(=O)C([H])(N([H])C([H])([H])[H])C([H])([H])[H])C(C([H])([H])[H])(C([H])([H])[H])C([H])([H])[H])C([H])([H])c2c([H])c(OC([H])([H])C([H])([H])C(=O)c3c([H])c(C(=O)C([H])([H])C([H])([H])C(=O)N4C([H])([H])C([H])([H])C([H])([H])C([H])(n5nc(-c6c([H])c([H])c(Oc7c([H])c([H])c(F)c([H])c7F)c([H])c6[H])c(C(=O)N([H])[H])c5N([H])[H])C4([H])[H])c([H])c([H])c3N([H])C([H])([H])[H])c([H])c([H])c2C1([H])[H]

>  <smiles>  (72) 
[H]c1c([H])c([H])c2c(c1[H])C([H])([H])C([H])([H])C([H])([H])C2([H])N([H])C(=O)C1([H])N(C(=O)C([H])(N([H])C(=O)C([H])(N([H])C([H])([H])[H])C([H])([H])[H])C(C([H])([H])[H])(C([H])([H])[H])C([H])([H])[H])C([H])([H])c2c([H])c(OC([H])([H])C([H])([H])C(=O)c3c([H])c(C(=O)C([H])([H])C([H])([H])C(=O)N4C([H])([H])C([H])([H])C([H])([H])C([H])(n5nc(-c6c([H])c([H])c(Oc7c([H])c([H])c(F)c([H])c7F)c([H])c6[H])c(C(=O)N([H])[H])c5N([H])[H])C4([H])[H])c([H])c([H])c3N([H])C([H])([H])[H])c([H])c([H])c2C1([H])[H]

$$$$
72:0:0
     RDKit          3D

 94102  0  0  1  0  0  0  0  0999 V2000
  -29.8330  -19.4840   20.8760 C   0  0  0  0  0  3  0  0  0  0  0  0
  -30.2400  -21.1710   22.5780 C   0  0  0  0  0  3  0  0  0  0  0  0
  -31.5730  -19.1200   22.5410 C   0  0  0  0  0  3  0  0  0  0  0  0
  -29.5400  -20.7550   21.4350 C   0  0  0  0  0  0  0  0  0  0  0  0
  -30.8010  -18.6110   21.4480 C   0  0  0  0  0  0  0  0  0  0  0  0
  -31.2840  -20.3980   23.1070 C   0  0  0  0  0  0  0  0  0  0  0  0
  -32.0660  -21.0220   24.2660 C   0  0  0  0  0  1  0  0  0  0  0  0
  -28.5090  -21.6330   20.8410 C   0  0  0  0  0  3  0  0  0  0  0  0
  -28.0480  -22.7830   21.3840 C   0  0  0  0  0  3  0  0  0  0  0  0
  -27.0400  -23.6080   20.7020 C   0  0  0  0  0  0  0  0  0  0  0  0
  -26.1590  -23.1270   19.9860 O   0  0  0  0  0  0  0  0  0  0  0  0
  -27.1030  -25.1170   20.9410 C   0  0  0  0  0  2  0  0  0  0  0  0
  -28.1380  -25.8590   20.0440 C   0  0  0  0  0  2  0  0  0  0  0  0
  -27.6430  -26.7490   19.0450 O   0  0  0  0  0  0  0  0  0  0  0  0
  -24.4620  -31.7240   23.1080 C   0  0  0  0  0  0  0  0  0  0  0  0
  -26.5510  -27.5160   19.3570 C   0  0  0  0  0  0  0  0  0  0  0  0
  -23.0330  -30.5450   21.4740 C   0  0  0  0  0  3  0  0  0  0  0  0
  -24.2560  -29.0900   19.7790 C   0  0  0  0  0  0  0  0  0  0  0  0
  -25.5500  -30.8020   21.0710 C   0  0  0  0  0  2  0  0  0  0  0  0
  -25.4960  -29.5050   20.2900 C   0  0  0  0  0  0  0  0  0  0  0  0
  -26.6510  -28.7280   20.0740 C   0  0  0  0  0  3  0  0  0  0  0  0
  -25.3010  -27.1040   18.8560 C   0  0  0  0  0  3  0  0  0  0  0  0
  -24.1510  -27.8800   19.0720 C   0  0  0  0  0  3  0  0  0  0  0  0
  -23.0730  -29.9940   20.0260 C   0  0  0  0  0  2  0  0  0  0  0  0
  -24.3730  -31.0310   21.9410 N   0  0  0  0  0  0  0  0  0  0  0  0
  -23.4520  -31.9920   23.7750 O   0  0  0  0  0  0  0  0  0  0  0  0
  -22.4140  -29.4640   22.3890 C   0  0  0  0  0  0  0  0  0  0  0  0
  -21.0800  -29.3160   22.3210 N   0  0  0  0  0  0  0  0  0  0  0  0
  -23.1280  -28.7680   23.1190 O   0  0  0  0  0  0  0  0  0  0  0  0
  -20.5690  -29.9140   21.6870 H   0  0  0  0  0  0  0  0  0  0  0  0
  -17.7210  -28.1000   22.8810 C   0  0  0  0  0  0  0  0  0  0  0  0
  -20.2880  -28.3420   23.0700 C   0  0  0  0  0  3  0  0  0  0  0  0
  -20.3680  -26.9390   22.4230 C   0  0  0  0  0  2  0  0  0  0  0  0
  -19.2320  -26.6710   21.4350 C   0  0  0  0  0  2  0  0  0  0  0  0
  -17.8720  -26.7880   22.1250 C   0  0  0  0  0  2  0  0  0  0  0  0
  -18.8570  -28.8410   23.3050 C   0  0  0  0  0  0  0  0  0  0  0  0
  -18.6590  -30.0770   23.9570 C   0  0  0  0  0  3  0  0  0  0  0  0
  -17.3640  -30.5680   24.1960 C   0  0  0  0  0  3  0  0  0  0  0  0
  -16.2440  -29.8220   23.7910 C   0  0  0  0  0  3  0  0  0  0  0  0
  -16.4240  -28.5890   23.1400 C   0  0  0  0  0  3  0  0  0  0  0  0
  -25.8370  -32.2320   23.6540 C   0  0  0  0  0  3  0  0  0  0  0  0
  -25.6440  -33.6110   24.1140 N   0  0  0  0  0  0  0  0  0  0  0  0
  -25.9900  -34.7020   23.4160 C   0  0  0  0  0  0  0  0  0  0  0  0
  -26.5780  -34.6420   22.3330 O   0  0  0  0  0  0  0  0  0  0  0  0
  -25.1500  -33.7420   24.9870 H   0  0  0  0  0  0  0  0  0  0  0  0
  -24.3660  -36.6140   23.3100 C   0  0  0  0  0  1  0  0  0  0  0  0
  -25.6200  -36.0710   24.0120 C   0  0  0  0  0  3  0  0  0  0  0  0
  -27.8510  -36.7440   24.7840 C   0  0  0  0  0  1  0  0  0  0  0  0
  -26.7110  -37.0680   23.9290 N   0  0  0  0  0  0  0  0  0  0  0  0
  -26.3720  -37.9920   24.1880 H   0  0  0  0  0  0  0  0  0  0  0  0
  -26.4180  -31.3310   24.8100 C   0  0  1  0  0  0  0  0  0  0  0  0
  -25.4120  -31.0580   25.9540 C   0  0  0  0  0  1  0  0  0  0  0  0
  -26.8830  -29.9610   24.2670 C   0  0  0  0  0  1  0  0  0  0  0  0
  -27.6780  -32.0010   25.4090 C   0  0  0  0  0  1  0  0  0  0  0  0
  -30.9190  -16.0220   21.4040 C   0  0  0  0  0  3  0  0  0  0  0  0
  -31.0100  -17.2600   20.8080 C   0  0  0  0  0  0  0  0  0  0  0  0
  -31.3450  -14.7770   20.7080 C   0  0  0  0  0  0  0  0  0  0  0  0
  -30.9200  -12.5170   19.7670 C   0  0  0  0  0  2  0  0  0  0  0  0
  -30.1180  -12.6710   18.4630 C   0  0  0  0  0  2  0  0  0  0  0  0
  -28.6140  -12.5700   18.7680 C   0  0  0  0  0  2  0  0  0  0  0  0
  -28.1990  -13.5130   19.9350 C   0  0  0  0  0  3  0  0  0  0  0  0
  -29.1750  -13.4480   21.1380 C   0  0  0  0  0  2  0  0  0  0  0  0
  -30.5530  -13.6520   20.6520 N   0  0  0  0  0  0  0  0  0  0  0  0
  -32.4530  -14.7590   20.1650 O   0  0  0  0  0  0  0  0  0  0  0  0
  -25.7870  -14.1800   20.4940 C   0  0  0  0  0  0  0  0  0  0  0  0
  -24.6730  -13.4510   20.8050 C   0  0  0  0  0  0  0  0  0  0  0  0
  -25.0890  -12.0800   20.8150 C   0  0  0  0  0  0  0  0  0  0  0  0
  -26.8180  -13.2690   20.3380 N   0  0  0  0  0  0  0  0  0  0  0  0
  -26.3960  -11.9980   20.5810 N   0  0  0  0  0  0  0  0  0  0  0  0
  -24.3060  -10.8470   20.9770 C   0  0  0  0  0  0  0  0  0  0  0  0
  -24.6600   -9.8660   21.9280 C   0  0  0  0  0  3  0  0  0  0  0  0
  -23.8840   -8.7000   22.0790 C   0  0  0  0  0  3  0  0  0  0  0  0
  -22.7350   -8.5030   21.2800 C   0  0  0  0  0  0  0  0  0  0  0  0
  -22.3970   -9.4720   20.3170 C   0  0  0  0  0  3  0  0  0  0  0  0
  -23.1750  -10.6300   20.1640 C   0  0  0  0  0  3  0  0  0  0  0  0
  -21.9330   -7.3930   21.3400 O   0  0  0  0  0  0  0  0  0  0  0  0
  -21.8130   -6.6480   22.4890 C   0  0  0  0  0  0  0  0  0  0  0  0
  -21.3580   -7.2150   23.6970 C   0  0  0  0  0  3  0  0  0  0  0  0
  -21.1880   -6.4000   24.8340 C   0  0  0  0  0  3  0  0  0  0  0  0
  -21.4560   -5.0220   24.7590 C   0  0  0  0  0  0  0  0  0  0  0  0
  -21.9090   -4.4550   23.5550 C   0  0  0  0  0  3  0  0  0  0  0  0
  -22.0830   -5.2690   22.4180 C   0  0  0  0  0  0  0  0  0  0  0  0
  -22.4950   -4.7130   21.2550 F   0  0  0  0  0  0  0  0  0  0  0  0
  -21.2880   -4.2370   25.8500 F   0  0  0  0  0  0  0  0  0  0  0  0
  -23.2820  -13.9790   21.0000 C   0  0  0  0  0  0  0  0  0  0  0  0
  -22.4890  -13.3240   21.8370 N   0  0  0  0  0  0  0  0  0  0  0  0
  -22.9080  -15.0140   20.4470 O   0  0  0  0  0  0  0  0  0  0  0  0
  -22.8100  -12.4910   22.3090 H   0  0  0  0  0  0  0  0  0  0  0  0
  -21.5520  -13.6590   22.0070 H   0  0  0  0  0  0  0  0  0  0  0  0
  -26.0130  -15.5430   20.3130 N   0  0  0  0  0  0  0  0  0  0  0  0
  -25.2760  -16.2390   20.3630 H   0  0  0  0  0  0  0  0  0  0  0  0
  -26.9080  -15.9330   20.0430 H   0  0  0  0  0  0  0  0  0  0  0  0
  -31.3400  -17.3880   19.5040 O   0  0  0  0  0  0  0  0  0  0  0  0
  -31.2170  -18.2920   19.2530 H   0  0  0  0  0  0  0  0  0  0  0  0
  1  4  2  0
  1  5  1  0
  2  6  2  0
  3  6  1  0
  4  2  1  0
  5  3  2  0
  6  7  1  0
  8  9  2  0
  8  4  1  0
 10 12  1  0
 10  9  1  0
 11 10  2  0
 13 12  1  0
 14 16  1  0
 14 13  1  0
 15 26  2  0
 16 21  1  0
 17 25  1  0
 17 27  1  0
 18 24  1  0
 18 20  1  0
 19 25  1  0
 20 19  1  0
 21 20  2  0
 22 23  1  0
 22 16  2  0
 23 18  2  0
 24 17  1  0
 25 15  1  0
 27 29  2  0
 28 27  1  0
 30 28  1  0
 31 40  2  0
 31 36  1  0
 32 28  1  0
 32 36  1  0
 33 32  1  0
 34 35  1  0
 34 33  1  0
 35 31  1  0
 36 37  2  0
 37 38  1  0
 39 38  2  0
 40 39  1  0
 41 15  1  0
 41 42  1  0
 41 51  1  0
 42 45  1  0
 43 47  1  0
 43 42  1  0
 44 43  2  0
 47 46  1  0
 49 47  1  0
 49 50  1  0
 49 48  1  0
 51 54  1  1
 51 52  1  0
 53 51  1  0
 56 55  2  0
 56  5  1  0
 57 55  1  0
 58 63  1  0
 59 60  1  0
 59 58  1  0
 61 60  1  0
 61 68  1  0
 61 62  1  0
 63 57  1  0
 63 62  1  0
 64 57  2  0
 65 66  2  0
 66 67  1  0
 66 85  1  0
 67 70  1  0
 68 65  1  0
 68 69  1  0
 69 67  2  0
 70 71  1  0
 71 72  2  0
 73 76  1  0
 73 72  1  0
 74 73  2  0
 75 74  1  0
 75 70  2  0
 76 77  1  0
 77 78  1  0
 78 79  2  0
 80 79  1  0
 80 84  1  0
 81 80  2  0
 82 77  2  0
 82 81  1  0
 83 82  1  0
 85 86  1  0
 86 89  1  0
 86 88  1  0
 87 85  2  0
 90 91  1  0
 90 65  1  0
 92 90  1  0
 93 56  1  0
 94 93  1  0
M  ISO  4  13 101  14 101  55 100  57 100
M  END
>  <TORSDO>  (73) 
F 22

>  <SCORE>  (73) 
-12.838

>  <name>  (73) 
72

>  <ligand_id>  (73) 
72

>  <original_smiles>  (73) 
[H]OC(=C([H])C(=O)N1C([H])([H])C([H])([H])C([H])([H])C([H])(n2nc(-c3c([H])c([H])c(Oc4c([H])c([H])c(F)c([H])c4F)c([H])c3[H])c(C(=O)N([H])[H])c2N([H])[H])C1([H])[H])c1c([H])c(C([H])=C([H])C(=O)C([H])([H])C([H])([H])Oc2c([H])c([H])c3c(c2[H])C([H])([H])N(C(=O)C([H])(N([H])C(=O)C([H])(N([H])C([H])([H])[H])C([H])([H])[H])C(C([H])([H])[H])(C([H])([H])[H])C([H])([H])[H])C([H])(C(=O)N([H])C2([H])c4c([H])c([H])c([H])c([H])c4C([H])([H])C([H])([H])C2([H])[H])C3([H])[H])c([H])c(C([H])([H])[H])c1[H]

>  <smiles>  (73) 
[H]OC(=C([H])C(=O)N1C([H])([H])C([H])([H])C([H])([H])C([H])(n2nc(-c3c([H])c([H])c(Oc4c([H])c([H])c(F)c([H])c4F)c([H])c3[H])c(C(=O)N([H])[H])c2N([H])[H])C1([H])[H])c1c([H])c(C([H])=C([H])C(=O)C([H])([H])C([H])([H])Oc2c([H])c([H])c3c(c2[H])C([H])([H])N(C(=O)C([H])(N([H])C(=O)C([H])(N([H])C([H])([H])[H])C([H])([H])[H])C(C([H])([H])[H])(C([H])([H])[H])C([H])([H])[H])C([H])(C(=O)N([H])C2([H])c4c([H])c([H])c([H])c([H])c4C([H])([H])C([H])([H])C2([H])[H])C3([H])[H])c([H])c(C([H])([H])[H])c1[H]

$$$$
73:0:0
     RDKit          3D

 93101  0  0  1  0  0  0  0  0999 V2000
  -27.8480  -19.6730   19.7440 C   0  0  0  0  0  3  0  0  0  0  0  0
  -26.9350  -20.7000   19.4410 C   0  0  0  0  0  3  0  0  0  0  0  0
  -29.3570  -21.3600   20.6140 C   0  0  0  0  0  3  0  0  0  0  0  0
  -29.0850  -19.9590   20.3520 C   0  0  0  0  0  0  0  0  0  0  0  0
  -28.4580  -22.4520   20.2710 C   0  0  0  0  0  0  0  0  0  0  0  0
  -27.2000  -22.0600   19.7180 C   0  0  0  0  0  0  0  0  0  0  0  0
  -28.7840  -23.9330   20.6330 C   0  0  0  0  0  0  0  0  0  0  0  0
  -29.3550  -24.1910   21.6980 O   0  0  0  0  0  0  0  0  0  0  0  0
  -28.4930  -25.1540   19.6510 C   0  0  0  0  0  2  0  0  0  0  0  0
  -28.4340  -26.5220   20.2490 O   0  0  0  0  0  0  0  0  0  0  0  0
  -24.6050  -31.8790   23.2160 C   0  0  0  0  0  0  0  0  0  0  0  0
  -27.2910  -27.3440   20.1670 C   0  0  0  0  0  0  0  0  0  0  0  0
  -23.4350  -30.4830   21.5490 C   0  0  0  0  0  3  0  0  0  0  0  0
  -24.9150  -28.9510   20.1370 C   0  0  0  0  0  0  0  0  0  0  0  0
  -25.9750  -30.8140   21.4090 C   0  0  0  0  0  2  0  0  0  0  0  0
  -26.0720  -29.4390   20.7560 C   0  0  0  0  0  0  0  0  0  0  0  0
  -27.2580  -28.6450   20.7640 C   0  0  0  0  0  3  0  0  0  0  0  0
  -26.1050  -26.9150   19.5250 C   0  0  0  0  0  3  0  0  0  0  0  0
  -24.9350  -27.6950   19.5150 C   0  0  0  0  0  3  0  0  0  0  0  0
  -23.6750  -29.8170   20.1690 C   0  0  0  0  0  2  0  0  0  0  0  0
  -24.6890  -31.0760   22.1140 N   0  0  0  0  0  0  0  0  0  0  0  0
  -23.5120  -32.1470   23.7360 O   0  0  0  0  0  0  0  0  0  0  0  0
  -22.7630  -29.4580   22.4940 C   0  0  0  0  0  0  0  0  0  0  0  0
  -21.4380  -29.2860   22.3580 N   0  0  0  0  0  0  0  0  0  0  0  0
  -23.4360  -28.8200   23.3080 O   0  0  0  0  0  0  0  0  0  0  0  0
  -20.9570  -29.8510   21.6710 H   0  0  0  0  0  0  0  0  0  0  0  0
  -18.0540  -28.1100   22.8420 C   0  0  0  0  0  0  0  0  0  0  0  0
  -20.6130  -28.3440   23.1150 C   0  0  0  0  0  3  0  0  0  0  0  0
  -20.7030  -26.9210   22.5150 C   0  0  0  0  0  2  0  0  0  0  0  0
  -19.6010  -26.6290   21.4920 C   0  0  0  0  0  2  0  0  0  0  0  0
  -18.2200  -26.7730   22.1390 C   0  0  0  0  0  2  0  0  0  0  0  0
  -19.1780  -28.8550   23.2840 C   0  0  0  0  0  0  0  0  0  0  0  0
  -18.9690  -30.1100   23.8950 C   0  0  0  0  0  3  0  0  0  0  0  0
  -17.6670  -30.6190   24.0730 C   0  0  0  0  0  3  0  0  0  0  0  0
  -16.5570  -29.8670   23.6500 C   0  0  0  0  0  3  0  0  0  0  0  0
  -16.7520  -28.6160   23.0380 C   0  0  0  0  0  3  0  0  0  0  0  0
  -25.8760  -32.5150   23.8600 C   0  0  0  0  0  3  0  0  0  0  0  0
  -25.5560  -33.9130   24.1800 N   0  0  0  0  0  0  0  0  0  0  0  0
  -25.8990  -34.9650   23.4260 C   0  0  0  0  0  0  0  0  0  0  0  0
  -26.5880  -34.8620   22.4070 O   0  0  0  0  0  0  0  0  0  0  0  0
  -24.9450  -34.0670   24.9700 H   0  0  0  0  0  0  0  0  0  0  0  0
  -24.1790  -36.7600   23.0330 C   0  0  0  0  0  1  0  0  0  0  0  0
  -25.4010  -36.3540   23.8720 C   0  0  0  0  0  3  0  0  0  0  0  0
  -27.5110  -37.2430   24.7610 C   0  0  0  0  0  1  0  0  0  0  0  0
  -26.4360  -37.4070   23.7860 N   0  0  0  0  0  0  0  0  0  0  0  0
  -26.0250  -38.3270   23.9190 H   0  0  0  0  0  0  0  0  0  0  0  0
  -26.3690  -31.7490   25.1490 C   0  0  1  0  0  0  0  0  0  0  0  0
  -25.2570  -31.5110   26.1960 C   0  0  0  0  0  1  0  0  0  0  0  0
  -26.9620  -30.3710   24.7730 C   0  0  0  0  0  1  0  0  0  0  0  0
  -27.5040  -32.5480   25.8310 C   0  0  0  0  0  1  0  0  0  0  0  0
  -29.9990  -18.7830   20.7810 C   0  0  0  0  0  0  0  0  0  0  0  0
  -30.8390  -18.9410   21.6700 O   0  0  0  0  0  0  0  0  0  0  0  0
  -29.9580  -17.3600   20.0760 C   0  0  0  0  0  2  0  0  0  0  0  0
  -30.0090  -16.0240   20.9640 C   0  0  0  0  0  2  0  0  0  0  0  0
  -30.6970  -14.7210   20.3650 C   0  0  0  0  0  0  0  0  0  0  0  0
  -30.4660  -12.4860   19.2720 C   0  0  0  0  0  2  0  0  0  0  0  0
  -29.5260  -12.6280   18.0550 C   0  0  0  0  0  2  0  0  0  0  0  0
  -28.0540  -12.4650   18.4820 C   0  0  0  0  0  2  0  0  0  0  0  0
  -27.7000  -13.3180   19.7280 C   0  0  0  0  0  3  0  0  0  0  0  0
  -28.7580  -13.1540   20.8410 C   0  0  0  0  0  2  0  0  0  0  0  0
  -30.0660  -13.5020   20.2700 N   0  0  0  0  0  0  0  0  0  0  0  0
  -31.8360  -14.8510   19.9050 O   0  0  0  0  0  0  0  0  0  0  0  0
  -25.3050  -13.9150   20.4410 C   0  0  0  0  0  0  0  0  0  0  0  0
  -24.2390  -13.1440   20.8130 C   0  0  0  0  0  0  0  0  0  0  0  0
  -24.7020  -11.7920   20.7890 C   0  0  0  0  0  0  0  0  0  0  0  0
  -26.3510  -13.0350   20.2120 N   0  0  0  0  0  0  0  0  0  0  0  0
  -25.9930  -11.7530   20.4810 N   0  0  0  0  0  0  0  0  0  0  0  0
  -23.9750  -10.5310   20.9850 C   0  0  0  0  0  0  0  0  0  0  0  0
  -24.4030   -9.5700   21.9290 C   0  0  0  0  0  3  0  0  0  0  0  0
  -23.6760   -8.3740   22.1120 C   0  0  0  0  0  3  0  0  0  0  0  0
  -22.5080   -8.1280   21.3520 C   0  0  0  0  0  0  0  0  0  0  0  0
  -22.1000   -9.0780   20.3970 C   0  0  0  0  0  3  0  0  0  0  0  0
  -22.8270  -10.2660   20.2120 C   0  0  0  0  0  3  0  0  0  0  0  0
  -21.7530   -6.9840   21.4450 O   0  0  0  0  0  0  0  0  0  0  0  0
  -21.6920   -6.2540   22.6040 C   0  0  0  0  0  0  0  0  0  0  0  0
  -21.2400   -6.8190   23.8170 C   0  0  0  0  0  3  0  0  0  0  0  0
  -21.1250   -6.0140   24.9670 C   0  0  0  0  0  3  0  0  0  0  0  0
  -21.4530   -4.6470   24.9070 C   0  0  0  0  0  0  0  0  0  0  0  0
  -21.8990   -4.0820   23.7000 C   0  0  0  0  0  3  0  0  0  0  0  0
  -22.0130   -4.8830   22.5500 C   0  0  0  0  0  0  0  0  0  0  0  0
  -22.4220   -4.3280   21.3840 F   0  0  0  0  0  0  0  0  0  0  0  0
  -21.3360   -3.8720   26.0120 F   0  0  0  0  0  0  0  0  0  0  0  0
  -22.8410  -13.6210   21.0830 C   0  0  0  0  0  0  0  0  0  0  0  0
  -22.1120  -12.9260   21.9490 N   0  0  0  0  0  0  0  0  0  0  0  0
  -22.4030  -14.6460   20.5590 O   0  0  0  0  0  0  0  0  0  0  0  0
  -22.4790  -12.0970   22.3940 H   0  0  0  0  0  0  0  0  0  0  0  0
  -21.1740  -13.2270   22.1730 H   0  0  0  0  0  0  0  0  0  0  0  0
  -25.4700  -15.2860   20.2590 N   0  0  0  0  0  0  0  0  0  0  0  0
  -24.7070  -15.9430   20.3700 H   0  0  0  0  0  0  0  0  0  0  0  0
  -26.3240  -15.7220   19.9380 H   0  0  0  0  0  0  0  0  0  0  0  0
  -26.0460  -23.0180   19.4490 C   0  0  0  0  0  2  0  0  0  0  0  0
  -25.9780  -23.3930   18.0890 O   0  0  0  0  0  0  0  0  0  0  0  0
  -25.1540  -23.8490   17.9500 H   0  0  0  0  0  0  0  0  0  0  0  0
  1  4  1  0
  2  6  1  0
  2  1  2  0
  4  3  2  0
  4 51  1  0
  5  3  1  0
  5  7  1  0
  6  5  2  0
  7  8  2  0
  9 10  1  0
  9  7  1  0
 11 22  2  0
 12 10  1  0
 12 17  1  0
 13 21  1  0
 13 23  1  0
 14 20  1  0
 14 16  1  0
 15 21  1  0
 16 17  2  0
 16 15  1  0
 18 12  2  0
 19 18  1  0
 19 14  2  0
 20 13  1  0
 21 11  1  0
 23 25  2  0
 24 23  1  0
 26 24  1  0
 27 36  2  0
 27 32  1  0
 28 24  1  0
 28 32  1  0
 29 28  1  0
 30 31  1  0
 30 29  1  0
 31 27  1  0
 32 33  2  0
 33 34  1  0
 35 34  2  0
 36 35  1  0
 37 11  1  0
 37 38  1  0
 37 47  1  0
 38 41  1  0
 39 43  1  0
 39 38  1  0
 40 39  2  0
 43 42  1  0
 45 43  1  0
 45 46  1  0
 45 44  1  0
 47 50  1  1
 47 48  1  0
 49 47  1  0
 51 52  2  0
 53 51  1  0
 53 54  1  0
 55 54  1  0
 56 61  1  0
 57 58  1  0
 57 56  1  0
 59 58  1  0
 59 66  1  0
 59 60  1  0
 61 55  1  0
 61 60  1  0
 62 55  2  0
 63 64  2  0
 64 83  1  0
 65 64  1  0
 65 68  1  0
 66 63  1  0
 66 67  1  0
 67 65  2  0
 68 69  1  0
 69 70  2  0
 71 74  1  0
 71 70  1  0
 72 71  2  0
 73 72  1  0
 73 68  2  0
 74 75  1  0
 75 76  1  0
 76 77  2  0
 78 77  1  0
 78 82  1  0
 79 78  2  0
 80 75  2  0
 80 79  1  0
 81 80  1  0
 83 84  1  0
 84 87  1  0
 84 86  1  0
 85 83  2  0
 88 89  1  0
 88 63  1  0
 90 88  1  0
 91  6  1  0
 92 91  1  0
 93 92  1  0
M  ISO  4   9 101  10 101  54 100  55 100
M  END
>  <TORSDO>  (74) 
F 23

>  <SCORE>  (74) 
-12.967

>  <name>  (74) 
73

>  <ligand_id>  (74) 
73

>  <original_smiles>  (74) 
[H]OC([H])([H])c1c([H])c([H])c(C(=O)C([H])([H])C([H])([H])C(=O)N2C([H])([H])C([H])([H])C([H])([H])C([H])(n3nc(-c4c([H])c([H])c(Oc5c([H])c([H])c(F)c([H])c5F)c([H])c4[H])c(C(=O)N([H])[H])c3N([H])[H])C2([H])[H])c([H])c1C(=O)C([H])([H])Oc1c([H])c([H])c2c(c1[H])C([H])([H])N(C(=O)C([H])(N([H])C(=O)C([H])(N([H])C([H])([H])[H])C([H])([H])[H])C(C([H])([H])[H])(C([H])([H])[H])C([H])([H])[H])C([H])(C(=O)N([H])C1([H])c3c([H])c([H])c([H])c([H])c3C([H])([H])C([H])([H])C1([H])[H])C2([H])[H]

>  <smiles>  (74) 
[H]OC([H])([H])c1c([H])c([H])c(C(=O)C([H])([H])C([H])([H])C(=O)N2C([H])([H])C([H])([H])C([H])([H])C([H])(n3nc(-c4c([H])c([H])c(Oc5c([H])c([H])c(F)c([H])c5F)c([H])c4[H])c(C(=O)N([H])[H])c3N([H])[H])C2([H])[H])c([H])c1C(=O)C([H])([H])Oc1c([H])c([H])c2c(c1[H])C([H])([H])N(C(=O)C([H])(N([H])C(=O)C([H])(N([H])C([H])([H])[H])C([H])([H])[H])C(C([H])([H])[H])(C([H])([H])[H])C([H])([H])[H])C([H])(C(=O)N([H])C1([H])c3c([H])c([H])c([H])c([H])c3C([H])([H])C([H])([H])C1([H])[H])C2([H])[H]

$$$$
74:0:0
     RDKit          3D

 89 96  0  0  1  0  0  0  0  0999 V2000
  -29.1750  -21.3130   20.0520 N   0  0  0  0  0  4  0  0  0  0  0  0
  -29.6850  -21.5010   19.2030 H   0  0  0  0  0  0  0  0  0  0  0  0
  -28.2470  -21.0350   19.7760 H   0  0  0  0  0  0  0  0  0  0  0  0
  -31.3650  -20.3270   20.7490 C   0  0  0  0  0  1  0  0  0  0  0  0
  -29.8370  -20.1250   20.7340 C   0  0  0  0  0  3  0  0  0  0  0  0
  -27.9440  -18.4480   20.3700 C   0  0  0  0  0  1  0  0  0  0  0  0
  -29.4500  -18.6840   20.1420 C   0  0  0  0  0  3  0  0  0  0  0  0
  -30.2990  -17.4110   20.6360 C   0  0  0  0  0  2  0  0  0  0  0  0
  -29.6730  -15.9530   20.4580 C   0  0  0  0  0  2  0  0  0  0  0  0
  -30.5680  -14.6580   20.2530 C   0  0  0  0  0  0  0  0  0  0  0  0
  -30.3610  -12.4000   19.2360 C   0  0  0  0  0  2  0  0  0  0  0  0
  -29.3990  -12.5330   18.0320 C   0  0  0  0  0  2  0  0  0  0  0  0
  -27.9290  -12.3860   18.4770 C   0  0  0  0  0  2  0  0  0  0  0  0
  -27.5930  -13.2570   19.7160 C   0  0  0  0  0  3  0  0  0  0  0  0
  -28.6670  -13.0990   20.8140 C   0  0  0  0  0  2  0  0  0  0  0  0
  -29.9730  -13.4220   20.2260 N   0  0  0  0  0  0  0  0  0  0  0  0
  -31.7430  -14.7960   19.9000 O   0  0  0  0  0  0  0  0  0  0  0  0
  -25.2250  -13.8950   20.4820 C   0  0  0  0  0  0  0  0  0  0  0  0
  -24.1510  -13.1380   20.8660 C   0  0  0  0  0  0  0  0  0  0  0  0
  -24.5910  -11.7800   20.8230 C   0  0  0  0  0  0  0  0  0  0  0  0
  -26.2490  -12.9970   20.2240 N   0  0  0  0  0  0  0  0  0  0  0  0
  -25.8750  -11.7200   20.4900 N   0  0  0  0  0  0  0  0  0  0  0  0
  -23.8490  -10.5300   21.0220 C   0  0  0  0  0  0  0  0  0  0  0  0
  -24.2870   -9.5490   21.9400 C   0  0  0  0  0  3  0  0  0  0  0  0
  -23.5470   -8.3620   22.1250 C   0  0  0  0  0  3  0  0  0  0  0  0
  -22.3550   -8.1470   21.3930 C   0  0  0  0  0  0  0  0  0  0  0  0
  -21.9380   -9.1150   20.4630 C   0  0  0  0  0  3  0  0  0  0  0  0
  -22.6780  -10.2940   20.2760 C   0  0  0  0  0  3  0  0  0  0  0  0
  -21.5860   -7.0120   21.4880 O   0  0  0  0  0  0  0  0  0  0  0  0
  -21.5530   -6.2590   22.6330 C   0  0  0  0  0  0  0  0  0  0  0  0
  -21.1580   -6.8060   23.8730 C   0  0  0  0  0  3  0  0  0  0  0  0
  -21.0700   -5.9790   25.0120 C   0  0  0  0  0  3  0  0  0  0  0  0
  -21.3700   -4.6070   24.9110 C   0  0  0  0  0  0  0  0  0  0  0  0
  -21.7590   -4.0600   23.6760 C   0  0  0  0  0  3  0  0  0  0  0  0
  -21.8480   -4.8840   22.5400 C   0  0  0  0  0  0  0  0  0  0  0  0
  -22.2030   -4.3460   21.3470 F   0  0  0  0  0  0  0  0  0  0  0  0
  -21.2810   -3.8120   26.0030 F   0  0  0  0  0  0  0  0  0  0  0  0
  -22.7670  -13.6370   21.1650 C   0  0  0  0  0  0  0  0  0  0  0  0
  -22.0420  -12.9480   22.0400 N   0  0  0  0  0  0  0  0  0  0  0  0
  -22.3360  -14.6720   20.6580 O   0  0  0  0  0  0  0  0  0  0  0  0
  -22.4050  -12.1100   22.4700 H   0  0  0  0  0  0  0  0  0  0  0  0
  -21.1140  -13.2630   22.2810 H   0  0  0  0  0  0  0  0  0  0  0  0
  -25.4090  -15.2620   20.3090 N   0  0  0  0  0  0  0  0  0  0  0  0
  -24.6600  -15.9330   20.4420 H   0  0  0  0  0  0  0  0  0  0  0  0
  -26.2670  -15.6850   19.9790 H   0  0  0  0  0  0  0  0  0  0  0  0
  -29.0260  -22.6090   20.8360 C   0  0  0  0  0  2  0  0  0  0  0  0
  -28.7500  -23.9490   20.0150 C   0  0  0  0  0  3  0  0  0  0  0  0
  -28.3360  -25.2320   20.8570 C   0  0  0  0  0  3  0  0  0  0  0  0
  -28.4220  -26.5690   20.2440 O   0  0  0  0  0  0  0  0  0  0  0  0
  -24.6120  -31.9090   23.2330 C   0  0  0  0  0  0  0  0  0  0  0  0
  -27.2770  -27.3650   20.2460 C   0  0  0  0  0  0  0  0  0  0  0  0
  -23.4210  -30.4790   21.6080 C   0  0  0  0  0  3  0  0  0  0  0  0
  -24.8880  -28.9190   20.2100 C   0  0  0  0  0  0  0  0  0  0  0  0
  -25.9520  -30.8300   21.4160 C   0  0  0  0  0  2  0  0  0  0  0  0
  -26.0490  -29.4430   20.7950 C   0  0  0  0  0  0  0  0  0  0  0  0
  -27.2490  -28.6790   20.7990 C   0  0  0  0  0  3  0  0  0  0  0  0
  -26.0970  -26.8750   19.6510 C   0  0  0  0  0  3  0  0  0  0  0  0
  -24.9110  -27.6390   19.6300 C   0  0  0  0  0  3  0  0  0  0  0  0
  -23.6420  -29.7800   20.2400 C   0  0  0  0  0  2  0  0  0  0  0  0
  -24.6800  -31.0900   22.1440 N   0  0  0  0  0  0  0  0  0  0  0  0
  -23.5260  -32.1850   23.7650 O   0  0  0  0  0  0  0  0  0  0  0  0
  -22.7640  -29.4720   22.5820 C   0  0  0  0  0  0  0  0  0  0  0  0
  -21.4390  -29.2890   22.4580 N   0  0  0  0  0  0  0  0  0  0  0  0
  -23.4460  -28.8570   23.4070 O   0  0  0  0  0  0  0  0  0  0  0  0
  -20.9490  -29.8360   21.7640 H   0  0  0  0  0  0  0  0  0  0  0  0
  -18.0660  -28.0920   22.9700 C   0  0  0  0  0  0  0  0  0  0  0  0
  -20.6230  -28.3570   23.2370 C   0  0  0  0  0  3  0  0  0  0  0  0
  -20.7280  -26.9210   22.6750 C   0  0  0  0  0  2  0  0  0  0  0  0
  -19.6260  -26.5860   21.6650 C   0  0  0  0  0  2  0  0  0  0  0  0
  -18.2440  -26.7370   22.3090 C   0  0  0  0  0  2  0  0  0  0  0  0
  -19.1830  -28.8600   23.3930 C   0  0  0  0  0  0  0  0  0  0  0  0
  -18.9620  -30.1290   23.9710 C   0  0  0  0  0  3  0  0  0  0  0  0
  -17.6570  -30.6300   24.1310 C   0  0  0  0  0  3  0  0  0  0  0  0
  -16.5530  -29.8580   23.7260 C   0  0  0  0  0  3  0  0  0  0  0  0
  -16.7600  -28.5910   23.1540 C   0  0  0  0  0  3  0  0  0  0  0  0
  -25.8900  -32.5580   23.8510 C   0  0  0  0  0  3  0  0  0  0  0  0
  -26.4140  -31.7980   25.1320 C   0  0  1  0  0  0  0  0  0  0  0  0
  -25.3220  -31.5550   26.2000 C   0  0  0  0  0  1  0  0  0  0  0  0
  -27.0100  -30.4250   24.7460 C   0  0  0  0  0  1  0  0  0  0  0  0
  -27.5590  -32.6050   25.7900 C   0  0  0  0  0  1  0  0  0  0  0  0
  -25.5700  -33.9550   24.1730 N   0  0  0  0  0  0  0  0  0  0  0  0
  -25.8870  -35.0060   23.4030 C   0  0  0  0  0  0  0  0  0  0  0  0
  -26.5510  -34.9000   22.3690 O   0  0  0  0  0  0  0  0  0  0  0  0
  -24.9780  -34.1100   24.9750 H   0  0  0  0  0  0  0  0  0  0  0  0
  -24.1400  -36.7790   23.0470 C   0  0  0  0  0  1  0  0  0  0  0  0
  -25.3900  -36.3930   23.8530 C   0  0  0  0  0  3  0  0  0  0  0  0
  -27.5210  -37.3070   24.6630 C   0  0  0  0  0  1  0  0  0  0  0  0
  -26.4130  -37.4540   23.7230 N   0  0  0  0  0  0  0  0  0  0  0  0
  -25.9980  -38.3720   23.8650 H   0  0  0  0  0  0  0  0  0  0  0  0
  1  5  1  0
  1 46  1  0
  2  1  1  0
  3  1  1  0
  5  4  1  0
  7  6  1  0
  7  8  1  0
  7  5  1  0
  9  8  1  0
 10  9  1  0
 11 16  1  0
 12 13  1  0
 12 11  1  0
 14 13  1  0
 14 21  1  0
 14 15  1  0
 16 10  1  0
 16 15  1  0
 17 10  2  0
 18 19  2  0
 19 38  1  0
 20 19  1  0
 20 23  1  0
 21 18  1  0
 21 22  1  0
 22 20  2  0
 23 24  1  0
 24 25  2  0
 26 29  1  0
 26 25  1  0
 27 26  2  0
 28 27  1  0
 28 23  2  0
 29 30  1  0
 30 31  1  0
 31 32  2  0
 33 32  1  0
 33 37  1  0
 34 33  2  0
 35 30  2  0
 35 34  1  0
 36 35  1  0
 38 39  1  0
 39 42  1  0
 39 41  1  0
 40 38  2  0
 43 44  1  0
 43 18  1  0
 45 43  1  0
 47 46  1  0
 47 48  2  0
 49 51  1  0
 49 48  1  0
 50 61  2  0
 51 56  1  0
 52 60  1  0
 52 62  1  0
 53 59  1  0
 53 55  1  0
 54 60  1  0
 55 56  2  0
 55 54  1  0
 57 51  2  0
 58 57  1  0
 58 53  2  0
 59 52  1  0
 60 50  1  0
 62 64  2  0
 63 62  1  0
 65 63  1  0
 66 75  2  0
 66 71  1  0
 67 63  1  0
 67 71  1  0
 68 67  1  0
 69 70  1  0
 69 68  1  0
 70 66  1  0
 71 72  2  0
 72 73  1  0
 74 73  2  0
 75 74  1  0
 76 50  1  0
 76 81  1  0
 76 77  1  0
 77 80  1  1
 77 78  1  0
 79 77  1  0
 81 84  1  0
 82 86  1  0
 82 81  1  0
 83 82  2  0
 86 85  1  0
 88 86  1  0
 88 89  1  0
 88 87  1  0
M  ISO  4   9 100  10 100  48 101  49 101
M  END
>  <TORSDO>  (75) 
F 23

>  <SCORE>  (75) 
-12.756

>  <name>  (75) 
74

>  <ligand_id>  (75) 
74

>  <original_smiles>  (75) 
[H]c1c([H])c([H])c2c(c1[H])C([H])([H])C([H])([H])C([H])([H])C2([H])N([H])C(=O)C1([H])N(C(=O)C([H])(N([H])C(=O)C([H])(N([H])C([H])([H])[H])C([H])([H])[H])C(C([H])([H])[H])(C([H])([H])[H])C([H])([H])[H])C([H])([H])c2c([H])c(OC([H])([H])C([H])([H])C([H])([H])[N+]([H])([H])C([H])(C([H])([H])[H])C([H])(C([H])([H])[H])C([H])([H])C([H])([H])C(=O)N3C([H])([H])C([H])([H])C([H])([H])C([H])(n4nc(-c5c([H])c([H])c(Oc6c([H])c([H])c(F)c([H])c6F)c([H])c5[H])c(C(=O)N([H])[H])c4N([H])[H])C3([H])[H])c([H])c([H])c2C1([H])[H]

>  <smiles>  (75) 
[H]c1c([H])c([H])c2c(c1[H])C([H])([H])C([H])([H])C([H])([H])C2([H])N([H])C(=O)C1([H])N(C(=O)C([H])(N([H])C(=O)C([H])(N([H])C([H])([H])[H])C([H])([H])[H])C(C([H])([H])[H])(C([H])([H])[H])C([H])([H])[H])C([H])([H])c2c([H])c(OC([H])([H])C([H])([H])C([H])([H])[N+]([H])([H])C([H])(C([H])([H])[H])C([H])(C([H])([H])[H])C([H])([H])C([H])([H])C(=O)N3C([H])([H])C([H])([H])C([H])([H])C([H])(n4nc(-c5c([H])c([H])c(Oc6c([H])c([H])c(F)c([H])c6F)c([H])c5[H])c(C(=O)N([H])[H])c4N([H])[H])C3([H])[H])c([H])c([H])c2C1([H])[H]

$$$$
75:0:0
     RDKit          3D

 93102  0  0  1  0  0  0  0  0999 V2000
  -30.5920  -22.3630   18.6410 C   0  0  0  0  0  2  0  0  0  0  0  0
  -30.3770  -23.6710   18.7370 C   0  0  0  0  0  2  0  0  0  0  0  0
  -29.9540  -21.6400   19.7950 C   0  0  0  0  0  3  0  0  0  0  0  0
  -29.5550  -24.0020   19.9570 C   0  0  0  0  0  3  0  0  0  0  0  0
  -29.1710  -22.6850   20.4440 O   0  0  0  0  0  0  0  0  0  0  0  0
  -27.3890  -18.7360   19.9760 C   0  0  0  0  0  2  0  0  0  0  0  0
  -28.0140  -20.0500   20.4710 C   0  0  0  0  0  2  0  0  0  0  0  0
  -28.2200  -18.2930   18.7580 C   0  0  0  0  0  2  0  0  0  0  0  0
  -29.0370  -20.4350   19.3980 C   0  0  0  0  0  3  0  0  0  0  0  0
  -29.5630  -19.0440   18.8620 C   0  0  0  0  0  3  0  0  0  0  0  0
  -30.5040  -18.2630   19.7360 N   0  0  0  0  0  4  0  0  0  0  0  0
  -30.1930  -18.2710   20.6940 H   0  0  0  0  0  0  0  0  0  0  0  0
  -31.3780  -18.7650   19.7170 H   0  0  0  0  0  0  0  0  0  0  0  0
  -30.8660  -16.8580   19.3120 C   0  0  0  0  0  2  0  0  0  0  0  0
  -30.3350  -15.6430   20.1770 C   0  0  0  0  0  2  0  0  0  0  0  0
  -31.0260  -14.2640   19.8770 C   0  0  0  0  0  0  0  0  0  0  0  0
  -30.7340  -11.8800   19.2500 C   0  0  0  0  0  2  0  0  0  0  0  0
  -29.7750  -11.8010   18.0430 C   0  0  0  0  0  2  0  0  0  0  0  0
  -28.3090  -11.7540   18.5120 C   0  0  0  0  0  2  0  0  0  0  0  0
  -27.9840  -12.8440   19.5680 C   0  0  0  0  0  3  0  0  0  0  0  0
  -29.0600  -12.8970   20.6770 C   0  0  0  0  0  2  0  0  0  0  0  0
  -30.3670  -13.0760   20.0320 N   0  0  0  0  0  0  0  0  0  0  0  0
  -32.1570  -14.2930   19.3840 O   0  0  0  0  0  0  0  0  0  0  0  0
  -25.7150  -13.6430   20.4730 C   0  0  0  0  0  0  0  0  0  0  0  0
  -24.5910  -12.9620   20.8570 C   0  0  0  0  0  0  0  0  0  0  0  0
  -24.8990  -11.5750   20.7060 C   0  0  0  0  0  0  0  0  0  0  0  0
  -26.6410  -12.6750   20.1160 N   0  0  0  0  0  0  0  0  0  0  0  0
  -26.1570  -11.4220   20.3140 N   0  0  0  0  0  0  0  0  0  0  0  0
  -24.0480  -10.3870   20.8580 C   0  0  0  0  0  0  0  0  0  0  0  0
  -24.3820   -9.3490   21.7550 C   0  0  0  0  0  3  0  0  0  0  0  0
  -23.5380   -8.2260   21.8970 C   0  0  0  0  0  3  0  0  0  0  0  0
  -22.3450   -8.1350   21.1400 C   0  0  0  0  0  0  0  0  0  0  0  0
  -22.0300   -9.1610   20.2300 C   0  0  0  0  0  3  0  0  0  0  0  0
  -22.8740  -10.2740   20.0870 C   0  0  0  0  0  3  0  0  0  0  0  0
  -21.4780   -7.0700   21.1920 O   0  0  0  0  0  0  0  0  0  0  0  0
  -21.3200   -6.3260   22.3340 C   0  0  0  0  0  0  0  0  0  0  0  0
  -20.8760   -6.9040   23.5430 C   0  0  0  0  0  3  0  0  0  0  0  0
  -20.6600   -6.0920   24.6750 C   0  0  0  0  0  3  0  0  0  0  0  0
  -20.8770   -4.7040   24.5970 C   0  0  0  0  0  0  0  0  0  0  0  0
  -21.3150   -4.1250   23.3920 C   0  0  0  0  0  3  0  0  0  0  0  0
  -21.5320   -4.9340   22.2640 C   0  0  0  0  0  0  0  0  0  0  0  0
  -21.9320   -4.3680   21.0980 F   0  0  0  0  0  0  0  0  0  0  0  0
  -20.6620   -3.9220   25.6810 F   0  0  0  0  0  0  0  0  0  0  0  0
  -23.2740  -13.5630   21.2500 C   0  0  0  0  0  0  0  0  0  0  0  0
  -22.5320  -12.8920   22.1250 N   0  0  0  0  0  0  0  0  0  0  0  0
  -22.9150  -14.6590   20.8190 O   0  0  0  0  0  0  0  0  0  0  0  0
  -22.8370  -12.0030   22.4880 H   0  0  0  0  0  0  0  0  0  0  0  0
  -21.6480  -13.2740   22.4330 H   0  0  0  0  0  0  0  0  0  0  0  0
  -26.0160  -14.9980   20.3760 N   0  0  0  0  0  0  0  0  0  0  0  0
  -25.3260  -15.7170   20.5670 H   0  0  0  0  0  0  0  0  0  0  0  0
  -26.8780  -15.3710   19.9980 H   0  0  0  0  0  0  0  0  0  0  0  0
  -28.3450  -24.9530   19.6560 C   0  0  0  0  0  2  0  0  0  0  0  0
  -28.4340  -26.3310   20.1260 O   0  0  0  0  0  0  0  0  0  0  0  0
  -24.5660  -31.5870   23.0940 C   0  0  0  0  0  0  0  0  0  0  0  0
  -27.2810  -27.1120   20.0620 C   0  0  0  0  0  0  0  0  0  0  0  0
  -23.4030  -30.1900   21.4210 C   0  0  0  0  0  3  0  0  0  0  0  0
  -24.8930  -28.6670   20.0180 C   0  0  0  0  0  0  0  0  0  0  0  0
  -25.9380  -30.5440   21.2840 C   0  0  0  0  0  2  0  0  0  0  0  0
  -26.0410  -29.1720   20.6390 C   0  0  0  0  0  0  0  0  0  0  0  0
  -27.2360  -28.4040   20.6570 C   0  0  0  0  0  3  0  0  0  0  0  0
  -26.1040  -26.6450   19.4270 C   0  0  0  0  0  3  0  0  0  0  0  0
  -24.9220  -27.4060   19.4070 C   0  0  0  0  0  3  0  0  0  0  0  0
  -23.6470  -29.5250   20.0430 C   0  0  0  0  0  2  0  0  0  0  0  0
  -24.6540  -30.7890   21.9910 N   0  0  0  0  0  0  0  0  0  0  0  0
  -23.4710  -31.8540   23.6080 O   0  0  0  0  0  0  0  0  0  0  0  0
  -22.7340  -29.1600   22.3610 C   0  0  0  0  0  0  0  0  0  0  0  0
  -21.4080  -28.9910   22.2210 N   0  0  0  0  0  0  0  0  0  0  0  0
  -23.4040  -28.5170   23.1730 O   0  0  0  0  0  0  0  0  0  0  0  0
  -20.9260  -29.5610   21.5380 H   0  0  0  0  0  0  0  0  0  0  0  0
  -18.0130  -27.8540   22.7140 C   0  0  0  0  0  0  0  0  0  0  0  0
  -20.5770  -28.0510   22.9730 C   0  0  0  0  0  3  0  0  0  0  0  0
  -20.6460  -26.6340   22.3560 C   0  0  0  0  0  2  0  0  0  0  0  0
  -19.5300  -26.3630   21.3430 C   0  0  0  0  0  2  0  0  0  0  0  0
  -18.1550  -26.5220   22.0000 C   0  0  0  0  0  2  0  0  0  0  0  0
  -19.1500  -28.5800   23.1570 C   0  0  0  0  0  0  0  0  0  0  0  0
  -18.9630  -29.8320   23.7840 C   0  0  0  0  0  3  0  0  0  0  0  0
  -17.6710  -30.3570   23.9700 C   0  0  0  0  0  3  0  0  0  0  0  0
  -16.5470  -29.6280   23.5440 C   0  0  0  0  0  3  0  0  0  0  0  0
  -16.7190  -28.3780   22.9240 C   0  0  0  0  0  3  0  0  0  0  0  0
  -25.8340  -32.2230   23.7440 C   0  0  0  0  0  3  0  0  0  0  0  0
  -25.5110  -33.6160   24.0800 N   0  0  0  0  0  0  0  0  0  0  0  0
  -25.8870  -34.6790   23.3580 C   0  0  0  0  0  0  0  0  0  0  0  0
  -26.6120  -34.5890   22.3640 O   0  0  0  0  0  0  0  0  0  0  0  0
  -24.8750  -33.7600   24.8520 H   0  0  0  0  0  0  0  0  0  0  0  0
  -24.1910  -36.4850   22.9270 C   0  0  0  0  0  1  0  0  0  0  0  0
  -25.3760  -36.0610   23.8080 C   0  0  0  0  0  3  0  0  0  0  0  0
  -27.4530  -36.9250   24.7930 C   0  0  0  0  0  1  0  0  0  0  0  0
  -26.4160  -37.1100   23.7800 N   0  0  0  0  0  0  0  0  0  0  0  0
  -26.0040  -38.0300   23.9140 H   0  0  0  0  0  0  0  0  0  0  0  0
  -26.3340  -31.4420   25.0210 C   0  0  1  0  0  0  0  0  0  0  0  0
  -25.2200  -31.1770   26.0590 C   0  0  0  0  0  1  0  0  0  0  0  0
  -26.9430  -30.0780   24.6220 C   0  0  0  0  0  1  0  0  0  0  0  0
  -27.4590  -32.2410   25.7170 C   0  0  0  0  0  1  0  0  0  0  0  0
  1  2  1  0
  2  4  1  0
  3  1  1  0
  3  5  1  0
  4 52  1  0
  4  5  1  0
  6  7  1  0
  8 10  1  0
  8  6  1  0
  9  3  1  0
  9  7  1  0
 10  9  1  0
 10 11  1  0
 11 12  1  0
 13 11  1  0
 14 11  1  0
 14 15  1  0
 16 22  1  0
 16 15  1  0
 17 22  1  0
 18 19  1  0
 18 17  1  0
 20 19  1  0
 20 27  1  0
 20 21  1  0
 22 21  1  0
 23 16  2  0
 24 25  2  0
 25 44  1  0
 26 25  1  0
 26 29  1  0
 27 28  1  0
 27 24  1  0
 28 26  2  0
 29 30  1  0
 30 31  2  0
 32 35  1  0
 32 31  1  0
 33 32  2  0
 34 33  1  0
 34 29  2  0
 35 36  1  0
 36 37  1  0
 37 38  2  0
 39 38  1  0
 39 43  1  0
 40 39  2  0
 41 36  2  0
 41 40  1  0
 42 41  1  0
 44 45  1  0
 45 48  1  0
 45 47  1  0
 46 44  2  0
 49 24  1  0
 49 50  1  0
 51 49  1  0
 52 53  1  0
 54 65  2  0
 55 53  1  0
 55 60  1  0
 56 64  1  0
 56 66  1  0
 57 63  1  0
 57 59  1  0
 58 64  1  0
 59 60  2  0
 59 58  1  0
 61 55  2  0
 62 61  1  0
 62 57  2  0
 63 56  1  0
 64 54  1  0
 66 68  2  0
 67 66  1  0
 69 67  1  0
 70 79  2  0
 70 75  1  0
 71 67  1  0
 71 75  1  0
 72 71  1  0
 73 74  1  0
 73 72  1  0
 74 70  1  0
 75 76  2  0
 76 77  1  0
 78 77  2  0
 79 78  1  0
 80 54  1  0
 80 81  1  0
 80 90  1  0
 81 84  1  0
 82 86  1  0
 82 81  1  0
 83 82  2  0
 86 85  1  0
 88 86  1  0
 88 89  1  0
 88 87  1  0
 90 93  1  1
 90 91  1  0
 92 90  1  0
M  ISO  4  15 100  16 100  52 101  53 101
M  END
>  <TORSDO>  (76) 
F 21

>  <SCORE>  (76) 
-12.520

>  <name>  (76) 
75

>  <ligand_id>  (76) 
75

>  <original_smiles>  (76) 
[H]C1=C([H])C([H])(C2([H])C([H])([H])C([H])([H])C([H])([H])C2([H])[N+]([H])([H])C([H])([H])C([H])([H])C(=O)N2C([H])([H])C([H])([H])C([H])([H])C([H])(n3nc(-c4c([H])c([H])c(Oc5c([H])c([H])c(F)c([H])c5F)c([H])c4[H])c(C(=O)N([H])[H])c3N([H])[H])C2([H])[H])OC1([H])C([H])([H])Oc1c([H])c([H])c2c(c1[H])C([H])([H])N(C(=O)C([H])(N([H])C(=O)C([H])(N([H])C([H])([H])[H])C([H])([H])[H])C(C([H])([H])[H])(C([H])([H])[H])C([H])([H])[H])C([H])(C(=O)N([H])C1([H])c3c([H])c([H])c([H])c([H])c3C([H])([H])C([H])([H])C1([H])[H])C2([H])[H]

>  <smiles>  (76) 
[H]C1=C([H])C([H])(C2([H])C([H])([H])C([H])([H])C([H])([H])C2([H])[N+]([H])([H])C([H])([H])C([H])([H])C(=O)N2C([H])([H])C([H])([H])C([H])([H])C([H])(n3nc(-c4c([H])c([H])c(Oc5c([H])c([H])c(F)c([H])c5F)c([H])c4[H])c(C(=O)N([H])[H])c3N([H])[H])C2([H])[H])OC1([H])C([H])([H])Oc1c([H])c([H])c2c(c1[H])C([H])([H])N(C(=O)C([H])(N([H])C(=O)C([H])(N([H])C([H])([H])[H])C([H])([H])[H])C(C([H])([H])[H])(C([H])([H])[H])C([H])([H])[H])C([H])(C(=O)N([H])C1([H])c3c([H])c([H])c([H])c([H])c3C([H])([H])C([H])([H])C1([H])[H])C2([H])[H]

$$$$
76:0:0
     RDKit          3D

 96104  0  0  1  0  0  0  0  0999 V2000
  -30.8030  -23.4310   20.2720 C   0  0  0  0  0  3  0  0  0  0  0  0
  -30.3370  -23.5010   22.6640 C   0  0  0  0  0  3  0  0  0  0  0  0
  -30.2310  -24.7090   20.1250 C   0  0  0  0  0  3  0  0  0  0  0  0
  -29.7640  -24.7790   22.5160 C   0  0  0  0  0  3  0  0  0  0  0  0
  -30.8530  -22.8190   21.5410 C   0  0  0  0  0  0  0  0  0  0  0  0
  -29.6950  -25.3820   21.2420 C   0  0  0  0  0  0  0  0  0  0  0  0
  -31.4540  -21.4330   21.6980 C   0  0  0  0  0  2  0  0  0  0  0  0
  -30.4020  -20.3170   21.5430 C   0  0  0  0  0  2  0  0  0  0  0  0
  -31.6280  -18.6600   23.0720 C   0  0  0  0  0  1  0  0  0  0  0  0
  -30.9830  -18.8930   21.6930 C   0  0  0  0  0  3  0  0  0  0  0  0
  -29.9350  -17.8690   21.4520 N   0  0  0  0  0  4  0  0  0  0  0  0
  -29.1040  -18.2880   21.0560 H   0  0  0  0  0  0  0  0  0  0  0  0
  -29.6670  -17.4550   22.3300 H   0  0  0  0  0  0  0  0  0  0  0  0
  -30.2750  -16.8050   20.4790 C   0  0  0  0  0  3  0  0  0  0  0  0
  -30.0000  -15.3900   21.0540 C   0  0  0  0  0  2  0  0  0  0  0  0
  -30.5090  -14.2720   20.1230 C   0  0  0  0  0  0  0  0  0  0  0  0
  -30.1320  -12.1560   18.9090 C   0  0  0  0  0  2  0  0  0  0  0  0
  -29.1100  -12.4000   17.7820 C   0  0  0  0  0  2  0  0  0  0  0  0
  -27.6690  -12.2360   18.3080 C   0  0  0  0  0  2  0  0  0  0  0  0
  -27.4180  -13.0330   19.6200 C   0  0  0  0  0  3  0  0  0  0  0  0
  -28.5480  -12.7690   20.6400 C   0  0  0  0  0  2  0  0  0  0  0  0
  -29.8270  -13.1040   19.9920 N   0  0  0  0  0  0  0  0  0  0  0  0
  -31.5290  -14.5040   19.4660 O   0  0  0  0  0  0  0  0  0  0  0  0
  -25.0650  -13.5910   20.5020 C   0  0  0  0  0  0  0  0  0  0  0  0
  -24.0340  -12.7970   20.9240 C   0  0  0  0  0  0  0  0  0  0  0  0
  -24.5060  -11.4520   20.8260 C   0  0  0  0  0  0  0  0  0  0  0  0
  -26.1030  -12.7310   20.1790 N   0  0  0  0  0  0  0  0  0  0  0  0
  -25.7710  -11.4360   20.4230 N   0  0  0  0  0  0  0  0  0  0  0  0
  -23.8100  -10.1750   21.0370 C   0  0  0  0  0  0  0  0  0  0  0  0
  -24.2940   -9.2150   21.9520 C   0  0  0  0  0  3  0  0  0  0  0  0
  -23.6000   -8.0030   22.1520 C   0  0  0  0  0  3  0  0  0  0  0  0
  -22.4060   -7.7400   21.4380 C   0  0  0  0  0  0  0  0  0  0  0  0
  -21.9380   -8.6920   20.5150 C   0  0  0  0  0  3  0  0  0  0  0  0
  -22.6330   -9.8960   20.3120 C   0  0  0  0  0  3  0  0  0  0  0  0
  -21.6790   -6.5790   21.5470 O   0  0  0  0  0  0  0  0  0  0  0  0
  -21.6610   -5.8500   22.7080 C   0  0  0  0  0  0  0  0  0  0  0  0
  -21.2190   -6.4020   23.9310 C   0  0  0  0  0  3  0  0  0  0  0  0
  -21.1490   -5.5950   25.0830 C   0  0  0  0  0  3  0  0  0  0  0  0
  -21.5100   -4.2360   25.0150 C   0  0  0  0  0  0  0  0  0  0  0  0
  -21.9450   -3.6830   23.7980 C   0  0  0  0  0  3  0  0  0  0  0  0
  -22.0160   -4.4870   22.6470 C   0  0  0  0  0  0  0  0  0  0  0  0
  -22.4150   -3.9440   21.4730 F   0  0  0  0  0  0  0  0  0  0  0  0
  -21.4360   -3.4590   26.1210 F   0  0  0  0  0  0  0  0  0  0  0  0
  -22.6560  -13.2470   21.3150 C   0  0  0  0  0  0  0  0  0  0  0  0
  -22.0050  -12.5200   22.2160 N   0  0  0  0  0  0  0  0  0  0  0  0
  -22.1660  -14.2800   20.8570 O   0  0  0  0  0  0  0  0  0  0  0  0
  -22.4180  -11.6860   22.6060 H   0  0  0  0  0  0  0  0  0  0  0  0
  -21.0840  -12.8000   22.5190 H   0  0  0  0  0  0  0  0  0  0  0  0
  -25.2020  -14.9680   20.3530 N   0  0  0  0  0  0  0  0  0  0  0  0
  -24.4380  -15.6090   20.5330 H   0  0  0  0  0  0  0  0  0  0  0  0
  -26.0500  -15.4380   20.0510 H   0  0  0  0  0  0  0  0  0  0  0  0
  -29.4820  -17.0820   19.1860 C   0  0  0  0  0  2  0  0  0  0  0  0
  -28.1030  -17.1960   19.5070 O   0  0  0  0  0  0  0  0  0  0  0  0
  -27.6300  -17.3840   18.6990 H   0  0  0  0  0  0  0  0  0  0  0  0
  -29.0320  -26.7350   21.0650 C   0  0  0  0  0  2  0  0  0  0  0  0
  -28.1250  -26.6890   19.9700 O   0  0  0  0  0  0  0  0  0  0  0  0
  -24.3750  -31.8500   23.1760 C   0  0  0  0  0  0  0  0  0  0  0  0
  -26.9950  -27.4640   20.0400 C   0  0  0  0  0  0  0  0  0  0  0  0
  -23.1490  -30.4630   21.5300 C   0  0  0  0  0  3  0  0  0  0  0  0
  -24.5910  -28.9380   20.0830 C   0  0  0  0  0  0  0  0  0  0  0  0
  -25.6670  -30.8330   21.3090 C   0  0  0  0  0  2  0  0  0  0  0  0
  -25.7490  -29.4670   20.6670 C   0  0  0  0  0  0  0  0  0  0  0  0
  -26.9560  -28.7390   20.6490 C   0  0  0  0  0  3  0  0  0  0  0  0
  -25.8280  -26.9460   19.4470 C   0  0  0  0  0  3  0  0  0  0  0  0
  -24.6220  -27.6720   19.4720 C   0  0  0  0  0  3  0  0  0  0  0  0
  -23.3420  -29.7880   20.1450 C   0  0  0  0  0  2  0  0  0  0  0  0
  -24.4140  -31.0620   22.0650 N   0  0  0  0  0  0  0  0  0  0  0  0
  -23.3000  -32.1230   23.7260 O   0  0  0  0  0  0  0  0  0  0  0  0
  -22.5040  -29.4380   22.4880 C   0  0  0  0  0  0  0  0  0  0  0  0
  -21.1770  -29.2640   22.3710 N   0  0  0  0  0  0  0  0  0  0  0  0
  -23.1920  -28.7980   23.2880 O   0  0  0  0  0  0  0  0  0  0  0  0
  -20.6840  -29.8320   21.6960 H   0  0  0  0  0  0  0  0  0  0  0  0
  -17.7980  -28.1010   22.8870 C   0  0  0  0  0  0  0  0  0  0  0  0
  -20.3600  -28.3250   23.1370 C   0  0  0  0  0  3  0  0  0  0  0  0
  -20.4420  -26.8990   22.5410 C   0  0  0  0  0  2  0  0  0  0  0  0
  -19.3250  -26.6030   21.5350 C   0  0  0  0  0  2  0  0  0  0  0  0
  -17.9520  -26.7580   22.1940 C   0  0  0  0  0  2  0  0  0  0  0  0
  -18.9300  -28.8440   23.3160 C   0  0  0  0  0  0  0  0  0  0  0  0
  -18.7330  -30.1040   23.9200 C   0  0  0  0  0  3  0  0  0  0  0  0
  -17.4350  -30.6200   24.1060 C   0  0  0  0  0  3  0  0  0  0  0  0
  -16.3180  -29.8700   23.6970 C   0  0  0  0  0  3  0  0  0  0  0  0
  -16.5000  -28.6130   23.0930 C   0  0  0  0  0  3  0  0  0  0  0  0
  -25.6700  -32.4690   23.7870 C   0  0  0  0  0  3  0  0  0  0  0  0
  -26.2020  -31.6780   25.0450 C   0  0  1  0  0  0  0  0  0  0  0  0
  -25.1200  -31.4210   26.1190 C   0  0  0  0  0  1  0  0  0  0  0  0
  -26.7810  -30.3080   24.6220 C   0  0  0  0  0  1  0  0  0  0  0  0
  -27.3590  -32.4630   25.7080 C   0  0  0  0  0  1  0  0  0  0  0  0
  -25.3720  -33.8640   24.1350 N   0  0  0  0  0  0  0  0  0  0  0  0
  -25.7140  -34.9220   23.3880 C   0  0  0  0  0  0  0  0  0  0  0  0
  -26.3830  -34.8250   22.3550 O   0  0  0  0  0  0  0  0  0  0  0  0
  -24.7810  -34.0150   24.9400 H   0  0  0  0  0  0  0  0  0  0  0  0
  -23.9960  -36.7260   23.0490 C   0  0  0  0  0  1  0  0  0  0  0  0
  -25.2340  -36.3070   23.8590 C   0  0  0  0  0  3  0  0  0  0  0  0
  -27.3710  -37.1690   24.7070 C   0  0  0  0  0  1  0  0  0  0  0  0
  -26.2730  -37.3550   23.7620 N   0  0  0  0  0  0  0  0  0  0  0  0
  -25.8710  -38.2750   23.9200 H   0  0  0  0  0  0  0  0  0  0  0  0
  1  5  1  0
  3  1  2  0
  3  6  1  0
  4  2  1  0
  5  7  1  0
  5  2  2  0
  6  4  2  0
  8 10  1  0
  8  7  1  0
 10  9  1  0
 11 10  1  0
 11 13  1  0
 12 11  1  0
 14 52  1  0
 14 15  1  0
 14 11  1  0
 16 15  1  0
 17 22  1  0
 18 19  1  0
 18 17  1  0
 20 19  1  0
 20 27  1  0
 20 21  1  0
 22 16  1  0
 22 21  1  0
 23 16  2  0
 24 25  2  0
 25 44  1  0
 26 25  1  0
 26 29  1  0
 27 28  1  0
 27 24  1  0
 28 26  2  0
 29 30  1  0
 30 31  2  0
 32 35  1  0
 32 31  1  0
 33 32  2  0
 34 33  1  0
 34 29  2  0
 35 36  1  0
 36 37  1  0
 37 38  2  0
 39 38  1  0
 39 43  1  0
 40 39  2  0
 41 36  2  0
 41 40  1  0
 42 41  1  0
 44 45  1  0
 45 48  1  0
 45 47  1  0
 46 44  2  0
 49 24  1  0
 49 50  1  0
 51 49  1  0
 52 53  1  0
 54 53  1  0
 55  6  1  0
 56 58  1  0
 56 55  1  0
 57 68  2  0
 58 63  1  0
 59 67  1  0
 59 69  1  0
 60 66  1  0
 60 62  1  0
 61 67  1  0
 62 61  1  0
 63 62  2  0
 64 65  1  0
 64 58  2  0
 65 60  2  0
 66 59  1  0
 67 57  1  0
 69 71  2  0
 70 69  1  0
 72 70  1  0
 73 82  2  0
 73 78  1  0
 74 70  1  0
 74 78  1  0
 75 74  1  0
 76 77  1  0
 76 75  1  0
 77 73  1  0
 78 79  2  0
 79 80  1  0
 81 80  2  0
 82 81  1  0
 83 57  1  0
 83 88  1  0
 83 84  1  0
 84 87  1  1
 84 85  1  0
 86 84  1  0
 88 91  1  0
 89 93  1  0
 89 88  1  0
 90 89  2  0
 93 92  1  0
 95 93  1  0
 95 96  1  0
 95 94  1  0
M  ISO  4  15 100  16 100  55 101  56 101
M  END
>  <TORSDO>  (77) 
F 25

>  <SCORE>  (77) 
-11.787

>  <name>  (77) 
76

>  <ligand_id>  (77) 
76

>  <original_smiles>  (77) 
[H]OC([H])([H])C([H])(C([H])([H])C(=O)N1C([H])([H])C([H])([H])C([H])([H])C([H])(n2nc(-c3c([H])c([H])c(Oc4c([H])c([H])c(F)c([H])c4F)c([H])c3[H])c(C(=O)N([H])[H])c2N([H])[H])C1([H])[H])[N+]([H])([H])C([H])(C([H])([H])[H])C([H])([H])C([H])([H])c1c([H])c([H])c(C([H])([H])Oc2c([H])c([H])c3c(c2[H])C([H])([H])N(C(=O)C([H])(N([H])C(=O)C([H])(N([H])C([H])([H])[H])C([H])([H])[H])C(C([H])([H])[H])(C([H])([H])[H])C([H])([H])[H])C([H])(C(=O)N([H])C2([H])c4c([H])c([H])c([H])c([H])c4C([H])([H])C([H])([H])C2([H])[H])C3([H])[H])c([H])c1[H]

>  <smiles>  (77) 
[H]OC([H])([H])C([H])(C([H])([H])C(=O)N1C([H])([H])C([H])([H])C([H])([H])C([H])(n2nc(-c3c([H])c([H])c(Oc4c([H])c([H])c(F)c([H])c4F)c([H])c3[H])c(C(=O)N([H])[H])c2N([H])[H])C1([H])[H])[N+]([H])([H])C([H])(C([H])([H])[H])C([H])([H])C([H])([H])c1c([H])c([H])c(C([H])([H])Oc2c([H])c([H])c3c(c2[H])C([H])([H])N(C(=O)C([H])(N([H])C(=O)C([H])(N([H])C([H])([H])[H])C([H])([H])[H])C(C([H])([H])[H])(C([H])([H])[H])C([H])([H])[H])C([H])(C(=O)N([H])C2([H])c4c([H])c([H])c([H])c([H])c4C([H])([H])C([H])([H])C2([H])[H])C3([H])[H])c([H])c1[H]

$$$$
77:0:0
     RDKit          3D

 96 97  0  0  1  0  0  0  0  0999 V2000
  -28.3480  -18.5370   18.6190 C   0  0  0  0  0  2  0  0  0  0  0  0
  -27.1330  -17.5780   18.5000 C   0  0  0  0  0  2  0  0  0  0  0  0
  -28.0150  -20.0610   18.6200 C   0  0  0  0  0  2  0  0  0  0  0  0
  -26.3330  -19.2740   20.3730 C   0  0  0  0  0  2  0  0  0  0  0  0
  -26.2290  -17.5600   19.7580 C   0  0  0  0  0  3  0  0  0  0  0  0
  -27.2490  -20.5330   19.8080 N   0  0  2  0  0  4  0  0  0  0  0  0
  -27.9640  -20.5680   20.5330 H   0  0  0  0  0  0  0  0  0  0  0  0
  -25.9510  -12.2780   18.7700 C   0  0  0  0  0 15  0  0  0  0  0  0
  -27.4750  -11.5510   20.3300 C   0  0  0  0  0 15  0  0  0  0  0  0
  -25.3050  -14.3940   18.7950 C   0  0  0  0  0 15  0  0  0  0  0  0
  -27.4120  -15.1220   21.7880 C   0  0  0  0  0 15  0  0  0  0  0  0
  -28.1460  -13.1000   21.7800 C   0  0  0  0  0  1  0  0  0  0  0  0
  -26.0460  -15.8560   20.2900 C   0  0  0  0  0  1  0  0  0  0  0  0
  -29.5580  -13.1590   22.3150 C   0  0  0  0  0  0  0  0  0  0  0  0
  -30.0180  -12.3970   23.1630 O   0  0  0  0  0  0  0  0  0  0  0  0
  -30.4550  -14.2710   21.6150 C   0  0  0  0  0  2  0  0  0  0  0  0
  -31.7200  -13.8860   20.7260 C   0  0  0  0  0  2  0  0  0  0  0  0
  -31.5700  -13.5990   19.1710 C   0  0  0  0  0  0  0  0  0  0  0  0
  -31.0300  -11.6010   17.6880 C   0  0  0  0  0  2  0  0  0  0  0  0
  -29.6710  -11.5450   16.9250 C   0  0  0  0  0  2  0  0  0  0  0  0
  -28.3880  -11.5750   17.7880 C   0  0  0  0  0  2  0  0  0  0  0  0
  -28.6950  -12.5570   18.9150 C   0  0  0  0  0  2  0  0  0  0  0  0
  -29.9250  -11.9940   19.6590 C   0  0  0  0  0  2  0  0  0  0  0  0
  -30.9990  -12.4260   18.8930 N   0  0  0  0  0  0  0  0  0  0  0  0
  -32.1670  -14.2240   18.2850 O   0  0  0  0  0  0  0  0  0  0  0  0
  -25.9760  -13.4880   20.8000 C   0  0  0  0  0  1  0  0  0  0  0  0
  -24.7500  -12.9030   21.4040 C   0  0  0  0  0  0  0  0  0  0  0  0
  -24.9330  -11.7020   21.1160 C   0  0  0  0  0  0  0  0  0  0  0  0
  -27.3400  -13.4930   19.9800 N   0  0  0  0  0  1  0  0  0  0  0  0
  -25.7360  -12.9280   20.9060 N   0  0  0  0  0  0  0  0  0  0  0  0
  -24.4150  -10.2750   20.9830 C   0  0  0  0  0  0  0  0  0  0  0  0
  -24.7780   -9.1700   21.8070 C   0  0  0  0  0  3  0  0  0  0  0  0
  -23.9300   -8.0340   21.9640 C   0  0  0  0  0  3  0  0  0  0  0  0
  -22.6990   -7.9530   21.2680 C   0  0  0  0  0  0  0  0  0  0  0  0
  -22.3650   -9.0150   20.4060 C   0  0  0  0  0  3  0  0  0  0  0  0
  -23.2090  -10.1330   20.2560 C   0  0  0  0  0  3  0  0  0  0  0  0
  -21.7940   -6.9130   21.3420 O   0  0  0  0  0  0  0  0  0  0  0  0
  -21.5760   -6.1670   22.4830 C   0  0  0  0  0  0  0  0  0  0  0  0
  -21.0780   -6.7430   23.6730 C   0  0  0  0  0  3  0  0  0  0  0  0
  -20.8210   -5.9340   24.7980 C   0  0  0  0  0  3  0  0  0  0  0  0
  -21.0350   -4.5460   24.7340 C   0  0  0  0  0  0  0  0  0  0  0  0
  -21.5120   -3.9610   23.5490 C   0  0  0  0  0  3  0  0  0  0  0  0
  -21.7710   -4.7660   22.4230 C   0  0  0  0  0  0  0  0  0  0  0  0
  -22.2040   -4.1860   21.2780 F   0  0  0  0  0  0  0  0  0  0  0  0
  -20.7880   -3.7760   25.8210 F   0  0  0  0  0  0  0  0  0  0  0  0
  -23.4630  -13.4910   21.8770 C   0  0  0  0  0  0  0  0  0  0  0  0
  -22.8020  -12.7080   22.7220 N   0  0  0  0  0  0  0  0  0  0  0  0
  -23.1020  -14.5950   21.4680 O   0  0  0  0  0  0  0  0  0  0  0  0
  -23.1950  -11.8230   23.0070 H   0  0  0  0  0  0  0  0  0  0  0  0
  -21.9140  -13.0050   23.1130 H   0  0  0  0  0  0  0  0  0  0  0  0
  -27.5200  -14.0000   19.9860 N   0  0  0  0  0  0  0  0  0  0  0  0
  -27.9720  -14.3420   20.8250 H   0  0  0  0  0  0  0  0  0  0  0  0
  -27.1270  -14.8680   19.6240 H   0  0  0  0  0  0  0  0  0  0  0  0
  -26.8610  -22.1590   19.6580 C   0  0  0  0  0  2  0  0  0  0  0  0
  -27.7690  -23.6990   20.0600 C   0  0  0  0  0  2  0  0  0  0  0  0
  -28.1560  -25.2870   19.5880 O   0  0  0  0  0  0  0  0  0  0  0  0
  -24.7810  -31.2930   22.6140 C   0  0  0  0  0  0  0  0  0  0  0  0
  -27.3240  -26.4960   19.5560 C   0  0  0  0  0  0  0  0  0  0  0  0
  -23.6750  -29.9240   20.9080 C   0  0  0  0  0  3  0  0  0  0  0  0
  -25.1700  -28.4370   19.4440 C   0  0  0  0  0  0  0  0  0  0  0  0
  -26.2400  -30.1940   20.8390 C   0  0  0  0  0  2  0  0  0  0  0  0
  -26.3330  -28.8060   20.1320 C   0  0  0  0  0  0  0  0  0  0  0  0
  -27.4350  -27.8410   20.1670 C   0  0  0  0  0  3  0  0  0  0  0  0
  -26.2000  -26.3300   18.7530 C   0  0  0  0  0  3  0  0  0  0  0  0
  -25.1360  -27.2410   18.7240 C   0  0  0  0  0  3  0  0  0  0  0  0
  -23.9480  -29.3320   19.5030 C   0  0  0  0  0  2  0  0  0  0  0  0
  -24.9190  -30.5000   21.5060 N   0  0  0  0  0  0  0  0  0  0  0  0
  -23.6700  -31.5170   23.1180 O   0  0  0  0  0  0  0  0  0  0  0  0
  -23.0210  -28.8430   21.8090 C   0  0  0  0  0  0  0  0  0  0  0  0
  -21.6890  -28.6820   21.7150 N   0  0  0  0  0  0  0  0  0  0  0  0
  -23.7120  -28.1640   22.5740 O   0  0  0  0  0  0  0  0  0  0  0  0
  -21.1810  -29.2710   21.0670 H   0  0  0  0  0  0  0  0  0  0  0  0
  -18.3170  -27.5460   22.3910 C   0  0  0  0  0  0  0  0  0  0  0  0
  -20.8970  -27.6940   22.4530 C   0  0  0  0  0  3  0  0  0  0  0  0
  -20.8890  -26.3280   21.7260 C   0  0  0  0  0  2  0  0  0  0  0  0
  -19.6920  -26.1550   20.7870 C   0  0  0  0  0  2  0  0  0  0  0  0
  -18.3770  -26.2770   21.5600 C   0  0  0  0  0  2  0  0  0  0  0  0
  -19.4970  -28.2180   22.8010 C   0  0  0  0  0  0  0  0  0  0  0  0
  -19.3790  -29.4110   23.5490 C   0  0  0  0  0  3  0  0  0  0  0  0
  -18.1150  -29.9240   23.8910 C   0  0  0  0  0  3  0  0  0  0  0  0
  -16.9480  -29.2470   23.4910 C   0  0  0  0  0  3  0  0  0  0  0  0
  -17.0520  -28.0590   22.7450 C   0  0  0  0  0  3  0  0  0  0  0  0
  -26.0060  -31.9770   23.2900 C   0  0  0  0  0  3  0  0  0  0  0  0
  -25.5640  -33.2840   23.8100 N   0  0  0  0  0  0  0  0  0  0  0  0
  -25.8000  -34.4650   23.2240 C   0  0  0  0  0  0  0  0  0  0  0  0
  -26.4700  -34.5710   22.1950 O   0  0  0  0  0  0  0  0  0  0  0  0
  -24.9640  -33.2620   24.6210 H   0  0  0  0  0  0  0  0  0  0  0  0
  -23.9390  -36.1580   23.0980 C   0  0  0  0  0  1  0  0  0  0  0  0
  -25.1910  -35.7220   23.8760 C   0  0  0  0  0  3  0  0  0  0  0  0
  -27.2190  -36.6320   24.9220 C   0  0  0  0  0  1  0  0  0  0  0  0
  -26.1380  -36.8540   23.9670 N   0  0  0  0  0  0  0  0  0  0  0  0
  -25.6550  -37.7100   24.2270 H   0  0  0  0  0  0  0  0  0  0  0  0
  -26.6260  -31.1140   24.4590 C   0  0  1  0  0  0  0  0  0  0  0  0
  -25.5870  -30.6380   25.5020 C   0  0  0  0  0  1  0  0  0  0  0  0
  -27.3390  -29.8580   23.9090 C   0  0  0  0  0  1  0  0  0  0  0  0
  -27.7070  -31.9380   25.1990 C   0  0  0  0  0  1  0  0  0  0  0  0
  1  3  1  0
  2  1  1  0
  2  5  1  0
  3  6  1  0
  5 13  1  0
  5  4  1  0
  6  4  1  0
  6  7  1  1
 12 14  1  0
 14 15  2  0
 16 14  1  0
 17 16  1  0
 18 17  1  0
 19 24  1  0
 20 19  1  0
 20 21  1  0
 21 22  1  0
 22 23  1  0
 24 18  1  0
 24 23  1  0
 25 18  2  0
 26 30  1  0
 27 46  1  0
 28 27  2  0
 29 51  1  0
 30 28  1  0
 30 27  1  0
 31 28  1  0
 31 32  1  0
 32 33  2  0
 34 37  1  0
 34 33  1  0
 35 34  2  0
 36 35  1  0
 36 31  2  0
 37 38  1  0
 38 39  1  0
 39 40  2  0
 41 40  1  0
 41 45  1  0
 42 41  2  0
 43 38  2  0
 43 42  1  0
 44 43  1  0
 46 47  1  0
 47 49  1  0
 47 50  1  0
 48 46  2  0
 51 52  1  0
 53 51  1  0
 54  6  1  0
 54 55  1  0
 56 55  1  0
 57 68  2  0
 58 56  1  0
 58 63  1  0
 59 67  1  0
 59 69  1  0
 60 66  1  0
 60 62  1  0
 61 67  1  0
 62 63  2  0
 62 61  1  0
 64 58  2  0
 65 64  1  0
 65 60  2  0
 66 59  1  0
 67 57  1  0
 69 71  2  0
 70 69  1  0
 72 70  1  0
 73 82  2  0
 73 78  1  0
 74 70  1  0
 74 78  1  0
 75 74  1  0
 76 77  1  0
 76 75  1  0
 77 73  1  0
 78 79  2  0
 79 80  1  0
 81 80  2  0
 82 81  1  0
 83 57  1  0
 83 84  1  0
 83 93  1  0
 84 87  1  0
 85 84  1  0
 85 89  1  0
 86 85  2  0
 89 88  1  0
 89 91  1  0
 91 92  1  0
 91 90  1  0
 93 96  1  1
 93 94  1  0
 95 93  1  0
M  ISO  4  17 100  18 100  55 101  56 101
M  END
>  <TORSDO>  (78) 
F 22

>  <SCORE>  (78) 
-0.810

>  <name>  (78) 
77

>  <ligand_id>  (78) 
77

>  <original_smiles>  (78) 
[H]c1c([H])c([H])c2c(c1[H])C([H])([H])C([H])([H])C([H])([H])C2([H])N([H])C(=O)C1([H])N(C(=O)C([H])(N([H])C(=O)C([H])(N([H])C([H])([H])[H])C([H])([H])[H])C(C([H])([H])[H])(C([H])([H])[H])C([H])([H])[H])C([H])([H])c2c([H])c(OC([H])([H])C([H])([H])[N+]3([H])C([H])([H])C([H])([H])C([H])([H])C([H])(c4c([H])c([H])c([H])c(C(=O)C([H])([H])C([H])([H])C(=O)N5C([H])([H])C([H])([H])C([H])([H])C([H])(n6nc(-c7c([H])c([H])c(Oc8c([H])c([H])c(F)c([H])c8F)c([H])c7[H])c(C(=O)N([H])[H])c6N([H])[H])C5([H])[H])c4[H])C3([H])[H])c([H])c([H])c2C1([H])[H]

>  <smiles>  (78) 
[H]c1c([H])c([H])c2c(c1[H])C([H])([H])C([H])([H])C([H])([H])C2([H])N([H])C(=O)C1([H])N(C(=O)C([H])(N([H])C(=O)C([H])(N([H])C([H])([H])[H])C([H])([H])[H])C(C([H])([H])[H])(C([H])([H])[H])C([H])([H])[H])C([H])([H])c2c([H])c(OC([H])([H])C([H])([H])[N+]3([H])C([H])([H])C([H])([H])C([H])([H])C([H])(c4c([H])c([H])c([H])c(C(=O)C([H])([H])C([H])([H])C(=O)N5C([H])([H])C([H])([H])C([H])([H])C([H])(n6nc(-c7c([H])c([H])c(Oc8c([H])c([H])c(F)c([H])c8F)c([H])c7[H])c(C(=O)N([H])[H])c6N([H])[H])C5([H])[H])c4[H])C3([H])[H])c([H])c([H])c2C1([H])[H]

$$$$
78:0:0
     RDKit          3D

 92100  0  0  1  0  0  0  0  0999 V2000
  -28.9610  -21.0940   20.0950 N   0  0  0  0  0  4  0  0  0  0  0  0
  -28.4510  -20.8970   20.9420 H   0  0  0  0  0  0  0  0  0  0  0  0
  -28.3060  -20.9840   19.3380 H   0  0  0  0  0  0  0  0  0  0  0  0
  -30.4230  -22.8980   19.0710 C   0  0  0  0  0  1  0  0  0  0  0  0
  -29.3830  -22.5700   20.1610 C   0  0  0  0  0  3  0  0  0  0  0  0
  -28.2210  -23.6910   20.1060 C   0  0  0  0  0  2  0  0  0  0  0  0
  -28.4670  -25.1150   20.8120 C   0  0  0  0  0  2  0  0  0  0  0  0
  -28.4670  -26.4270   20.1180 O   0  0  0  0  0  0  0  0  0  0  0  0
  -24.5540  -31.7230   23.1510 C   0  0  0  0  0  0  0  0  0  0  0  0
  -27.3210  -27.2280   20.1420 C   0  0  0  0  0  0  0  0  0  0  0  0
  -23.4170  -30.3070   21.4770 C   0  0  0  0  0  3  0  0  0  0  0  0
  -24.9300  -28.7870   20.0820 C   0  0  0  0  0  0  0  0  0  0  0  0
  -25.9500  -30.6800   21.3440 C   0  0  0  0  0  2  0  0  0  0  0  0
  -26.0740  -29.3010   20.7040 C   0  0  0  0  0  0  0  0  0  0  0  0
  -27.2780  -28.5350   20.7180 C   0  0  0  0  0  3  0  0  0  0  0  0
  -26.1570  -26.7540   19.5060 C   0  0  0  0  0  3  0  0  0  0  0  0
  -24.9740  -27.5180   19.4770 C   0  0  0  0  0  3  0  0  0  0  0  0
  -23.6740  -29.6380   20.1010 C   0  0  0  0  0  2  0  0  0  0  0  0
  -24.6590  -30.9200   22.0500 N   0  0  0  0  0  0  0  0  0  0  0  0
  -23.4550  -31.9750   23.6610 O   0  0  0  0  0  0  0  0  0  0  0  0
  -22.7570  -29.2730   22.4200 C   0  0  0  0  0  0  0  0  0  0  0  0
  -21.4400  -29.0660   22.2620 N   0  0  0  0  0  0  0  0  0  0  0  0
  -23.4330  -28.6590   23.2490 O   0  0  0  0  0  0  0  0  0  0  0  0
  -20.9580  -29.6210   21.5660 H   0  0  0  0  0  0  0  0  0  0  0  0
  -18.0750  -27.7970   22.6610 C   0  0  0  0  0  0  0  0  0  0  0  0
  -20.6200  -28.1070   23.0020 C   0  0  0  0  0  3  0  0  0  0  0  0
  -20.7690  -26.6820   22.4230 C   0  0  0  0  0  2  0  0  0  0  0  0
  -19.7000  -26.3410   21.3790 C   0  0  0  0  0  2  0  0  0  0  0  0
  -18.2970  -26.4540   21.9850 C   0  0  0  0  0  2  0  0  0  0  0  0
  -19.1660  -28.5790   23.1230 C   0  0  0  0  0  0  0  0  0  0  0  0
  -18.9040  -29.8350   23.7130 C   0  0  0  0  0  3  0  0  0  0  0  0
  -17.5850  -30.3080   23.8480 C   0  0  0  0  0  3  0  0  0  0  0  0
  -16.5090  -29.5200   23.4030 C   0  0  0  0  0  3  0  0  0  0  0  0
  -16.7550  -28.2690   22.8120 C   0  0  0  0  0  3  0  0  0  0  0  0
  -25.8100  -32.3760   23.8060 C   0  0  0  0  0  3  0  0  0  0  0  0
  -25.4620  -33.7630   24.1480 N   0  0  0  0  0  0  0  0  0  0  0  0
  -25.7820  -34.8330   23.4070 C   0  0  0  0  0  0  0  0  0  0  0  0
  -26.4680  -34.7570   22.3850 O   0  0  0  0  0  0  0  0  0  0  0  0
  -24.8550  -33.8950   24.9430 H   0  0  0  0  0  0  0  0  0  0  0  0
  -24.0180  -36.5920   23.0470 C   0  0  0  0  0  1  0  0  0  0  0  0
  -25.2540  -36.2040   23.8730 C   0  0  0  0  0  3  0  0  0  0  0  0
  -27.3500  -37.1280   24.7550 C   0  0  0  0  0  1  0  0  0  0  0  0
  -26.2640  -37.2810   23.7910 N   0  0  0  0  0  0  0  0  0  0  0  0
  -25.8360  -38.1910   23.9410 H   0  0  0  0  0  0  0  0  0  0  0  0
  -26.3150  -31.6030   25.0860 C   0  0  1  0  0  0  0  0  0  0  0  0
  -25.2030  -31.3240   26.1260 C   0  0  0  0  0  1  0  0  0  0  0  0
  -26.9380  -30.2470   24.6820 C   0  0  0  0  0  1  0  0  0  0  0  0
  -27.4340  -32.4150   25.7810 C   0  0  0  0  0  1  0  0  0  0  0  0
  -30.0290  -19.9990   19.9530 C   0  0  0  0  0  2  0  0  0  0  0  0
  -31.1540  -18.2890   22.3800 C   0  0  0  0  0  2  0  0  0  0  0  0
  -29.6910  -18.5050   21.9870 C   0  0  0  0  0  2  0  0  0  0  0  0
  -31.7910  -17.4640   21.2540 C   0  0  0  0  0  2  0  0  0  0  0  0
  -29.6840  -18.4960   20.4550 C   0  0  0  0  0  3  0  0  0  0  0  0
  -30.7340  -17.3050   20.1390 C   0  0  0  0  0  3  0  0  0  0  0  0
  -30.9840  -14.7010   19.8840 C   0  0  0  0  0  0  0  0  0  0  0  0
  -30.7400  -12.3620   19.0420 C   0  0  0  0  0  2  0  0  0  0  0  0
  -29.7590  -12.3320   17.8520 C   0  0  0  0  0  2  0  0  0  0  0  0
  -28.3050  -12.2020   18.3420 C   0  0  0  0  0  2  0  0  0  0  0  0
  -27.9740  -13.1900   19.4910 C   0  0  0  0  0  3  0  0  0  0  0  0
  -29.0640  -13.1910   20.5840 C   0  0  0  0  0  2  0  0  0  0  0  0
  -30.3420  -13.4840   19.9230 N   0  0  0  0  0  0  0  0  0  0  0  0
  -32.1460  -14.7710   19.4710 O   0  0  0  0  0  0  0  0  0  0  0  0
  -30.2580  -15.8500   20.1480 N   0  0  0  0  0  0  0  0  0  0  0  0
  -29.3090  -15.6980   20.4520 H   0  0  0  0  0  0  0  0  0  0  0  0
  -25.6530  -13.8700   20.3430 C   0  0  0  0  0  0  0  0  0  0  0  0
  -24.5770  -13.1370   20.7560 C   0  0  0  0  0  0  0  0  0  0  0  0
  -24.9820  -11.7680   20.6920 C   0  0  0  0  0  0  0  0  0  0  0  0
  -26.6460  -12.9530   20.0450 N   0  0  0  0  0  0  0  0  0  0  0  0
  -26.2520  -11.6820   20.3160 N   0  0  0  0  0  0  0  0  0  0  0  0
  -24.2150  -10.5340   20.9060 C   0  0  0  0  0  0  0  0  0  0  0  0
  -24.6010   -9.5820   21.8740 C   0  0  0  0  0  3  0  0  0  0  0  0
  -23.8360   -8.4130   22.0740 C   0  0  0  0  0  3  0  0  0  0  0  0
  -22.6680   -8.1880   21.3050 C   0  0  0  0  0  0  0  0  0  0  0  0
  -22.3020   -9.1290   20.3260 C   0  0  0  0  0  3  0  0  0  0  0  0
  -23.0690  -10.2890   20.1250 C   0  0  0  0  0  3  0  0  0  0  0  0
  -21.8770   -7.0700   21.4130 O   0  0  0  0  0  0  0  0  0  0  0  0
  -21.7290   -6.4060   22.6040 C   0  0  0  0  0  0  0  0  0  0  0  0
  -21.2190   -7.0470   23.7540 C   0  0  0  0  0  3  0  0  0  0  0  0
  -21.0140   -6.3110   24.9380 C   0  0  0  0  0  3  0  0  0  0  0  0
  -21.3080   -4.9340   24.9710 C   0  0  0  0  0  0  0  0  0  0  0  0
  -21.8120   -4.2930   23.8250 C   0  0  0  0  0  3  0  0  0  0  0  0
  -22.0160   -5.0260   22.6430 C   0  0  0  0  0  0  0  0  0  0  0  0
  -22.4800   -4.4000   21.5350 F   0  0  0  0  0  0  0  0  0  0  0  0
  -21.1050   -4.2230   26.1050 F   0  0  0  0  0  0  0  0  0  0  0  0
  -23.2170  -13.6680   21.1030 C   0  0  0  0  0  0  0  0  0  0  0  0
  -22.5150  -13.0090   22.0170 N   0  0  0  0  0  0  0  0  0  0  0  0
  -22.7890  -14.7050   20.5960 O   0  0  0  0  0  0  0  0  0  0  0  0
  -22.8730  -12.1690   22.4450 H   0  0  0  0  0  0  0  0  0  0  0  0
  -21.6050  -13.3540   22.2950 H   0  0  0  0  0  0  0  0  0  0  0  0
  -25.8670  -15.2350   20.1690 N   0  0  0  0  0  0  0  0  0  0  0  0
  -25.1360  -15.9200   20.3260 H   0  0  0  0  0  0  0  0  0  0  0  0
  -26.7110  -15.6370   19.7810 H   0  0  0  0  0  0  0  0  0  0  0  0
  1  5  1  0
  1  2  1  0
  3  1  1  0
  5  4  1  0
  6  5  1  0
  6  7  1  0
  8 10  1  0
  8  7  1  0
  9 20  2  0
 10 15  1  0
 11 19  1  0
 11 21  1  0
 12 18  1  0
 12 14  1  0
 13 19  1  0
 14 15  2  0
 14 13  1  0
 16 10  2  0
 17 16  1  0
 17 12  2  0
 18 11  1  0
 19  9  1  0
 21 23  2  0
 22 21  1  0
 24 22  1  0
 25 34  2  0
 25 30  1  0
 26 22  1  0
 26 30  1  0
 27 26  1  0
 28 29  1  0
 28 27  1  0
 29 25  1  0
 30 31  2  0
 31 32  1  0
 33 32  2  0
 34 33  1  0
 35  9  1  0
 35 36  1  0
 35 45  1  0
 36 39  1  0
 37 41  1  0
 37 36  1  0
 38 37  2  0
 41 40  1  0
 43 41  1  0
 43 44  1  0
 43 42  1  0
 45 48  1  1
 45 46  1  0
 47 45  1  0
 49  1  1  0
 51 50  1  0
 52 50  1  0
 53 49  1  0
 53 51  1  0
 54 63  1  0
 54 53  1  0
 54 52  1  0
 55 61  1  0
 55 63  1  0
 56 61  1  0
 57 58  1  0
 57 56  1  0
 59 58  1  0
 59 68  1  0
 59 60  1  0
 61 60  1  0
 62 55  2  0
 63 64  1  0
 65 66  2  0
 66 85  1  0
 67 66  1  0
 67 70  1  0
 68 69  1  0
 68 65  1  0
 69 67  2  0
 70 71  1  0
 71 72  2  0
 73 76  1  0
 73 72  1  0
 74 73  2  0
 75 74  1  0
 75 70  2  0
 76 77  1  0
 77 82  2  0
 77 78  1  0
 78 79  2  0
 79 80  1  0
 80 84  1  0
 81 80  2  0
 82 81  1  0
 83 82  1  0
 85 86  1  0
 86 89  1  0
 86 88  1  0
 87 85  2  0
 90 91  1  0
 90 65  1  0
 92 90  1  0
M  ISO  4   7 101   8 101  55 100  63 100
M  END
>  <TORSDO>  (79) 
F 21

>  <SCORE>  (79) 
-12.142

>  <name>  (79) 
78

>  <ligand_id>  (79) 
78

>  <original_smiles>  (79) 
[H]c1c([H])c([H])c2c(c1[H])C([H])([H])C([H])([H])C([H])([H])C2([H])N([H])C(=O)C1([H])N(C(=O)C([H])(N([H])C(=O)C([H])(N([H])C([H])([H])[H])C([H])([H])[H])C(C([H])([H])[H])(C([H])([H])[H])C([H])([H])[H])C([H])([H])c2c([H])c(OC([H])([H])C([H])([H])C([H])(C([H])([H])[H])[N+]([H])([H])C([H])([H])C3([H])C([H])([H])C([H])([H])C([H])([H])C3([H])N([H])C(=O)N3C([H])([H])C([H])([H])C([H])([H])C([H])(n4nc(-c5c([H])c([H])c(Oc6c([H])c([H])c(F)c([H])c6F)c([H])c5[H])c(C(=O)N([H])[H])c4N([H])[H])C3([H])[H])c([H])c([H])c2C1([H])[H]

>  <smiles>  (79) 
[H]c1c([H])c([H])c2c(c1[H])C([H])([H])C([H])([H])C([H])([H])C2([H])N([H])C(=O)C1([H])N(C(=O)C([H])(N([H])C(=O)C([H])(N([H])C([H])([H])[H])C([H])([H])[H])C(C([H])([H])[H])(C([H])([H])[H])C([H])([H])[H])C([H])([H])c2c([H])c(OC([H])([H])C([H])([H])C([H])(C([H])([H])[H])[N+]([H])([H])C([H])([H])C3([H])C([H])([H])C([H])([H])C([H])([H])C3([H])N([H])C(=O)N3C([H])([H])C([H])([H])C([H])([H])C([H])(n4nc(-c5c([H])c([H])c(Oc6c([H])c([H])c(F)c([H])c6F)c([H])c5[H])c(C(=O)N([H])[H])c4N([H])[H])C3([H])[H])c([H])c([H])c2C1([H])[H]

$$$$
79:0:0
     RDKit          3D

 91 98  0  0  1  0  0  0  0  0999 V2000
  -29.3720  -20.8220   21.8730 C   0  0  0  0  0  2  0  0  0  0  0  0
  -29.6470  -22.3130   22.1170 C   0  0  0  0  0  2  0  0  0  0  0  0
  -28.9450  -23.1660   21.0500 C   0  0  0  0  0  2  0  0  0  0  0  0
  -29.1030  -24.6860   21.2150 C   0  0  0  0  0  2  0  0  0  0  0  0
  -28.3640  -25.4130   20.0810 C   0  0  0  0  0  2  0  0  0  0  0  0
  -28.3890  -26.8310   20.2590 O   0  0  0  0  0  0  0  0  0  0  0  0
  -24.5390  -31.9620   23.2700 C   0  0  0  0  0  0  0  0  0  0  0  0
  -27.1960  -27.5220   20.2180 C   0  0  0  0  0  0  0  0  0  0  0  0
  -23.3330  -30.5440   21.6410 C   0  0  0  0  0  3  0  0  0  0  0  0
  -24.7880  -29.0100   20.2210 C   0  0  0  0  0  0  0  0  0  0  0  0
  -25.8520  -30.9220   21.4280 C   0  0  0  0  0  2  0  0  0  0  0  0
  -25.9440  -29.5450   20.8030 C   0  0  0  0  0  0  0  0  0  0  0  0
  -27.1470  -28.8060   20.8030 C   0  0  0  0  0  3  0  0  0  0  0  0
  -26.0240  -27.0150   19.6030 C   0  0  0  0  0  3  0  0  0  0  0  0
  -24.8230  -27.7430   19.6190 C   0  0  0  0  0  3  0  0  0  0  0  0
  -23.5380  -29.8580   20.2660 C   0  0  0  0  0  2  0  0  0  0  0  0
  -24.5930  -31.1560   22.1740 N   0  0  0  0  0  0  0  0  0  0  0  0
  -23.4590  -32.2320   23.8140 O   0  0  0  0  0  0  0  0  0  0  0  0
  -22.6920  -29.5240   22.6090 C   0  0  0  0  0  0  0  0  0  0  0  0
  -21.3690  -29.3310   22.4830 N   0  0  0  0  0  0  0  0  0  0  0  0
  -23.3810  -28.9090   23.4270 O   0  0  0  0  0  0  0  0  0  0  0  0
  -20.8770  -29.8780   21.7920 H   0  0  0  0  0  0  0  0  0  0  0  0
  -18.0060  -28.1100   22.9740 C   0  0  0  0  0  0  0  0  0  0  0  0
  -20.5590  -28.3940   23.2600 C   0  0  0  0  0  3  0  0  0  0  0  0
  -20.6800  -26.9580   22.7020 C   0  0  0  0  0  2  0  0  0  0  0  0
  -19.5880  -26.6120   21.6860 C   0  0  0  0  0  2  0  0  0  0  0  0
  -18.2000  -26.7530   22.3190 C   0  0  0  0  0  2  0  0  0  0  0  0
  -19.1150  -28.8860   23.4020 C   0  0  0  0  0  0  0  0  0  0  0  0
  -18.8810  -30.1550   23.9760 C   0  0  0  0  0  3  0  0  0  0  0  0
  -17.5720  -30.6490   24.1220 C   0  0  0  0  0  3  0  0  0  0  0  0
  -16.4770  -29.8690   23.7120 C   0  0  0  0  0  3  0  0  0  0  0  0
  -16.6950  -28.6000   23.1440 C   0  0  0  0  0  3  0  0  0  0  0  0
  -25.8250  -32.6000   23.8800 C   0  0  0  0  0  3  0  0  0  0  0  0
  -26.3540  -31.8360   25.1550 C   0  0  1  0  0  0  0  0  0  0  0  0
  -25.2670  -31.5930   26.2280 C   0  0  0  0  0  1  0  0  0  0  0  0
  -26.9440  -30.4620   24.7590 C   0  0  0  0  0  1  0  0  0  0  0  0
  -27.5030  -32.6400   25.8100 C   0  0  0  0  0  1  0  0  0  0  0  0
  -25.5130  -33.9990   24.2010 N   0  0  0  0  0  0  0  0  0  0  0  0
  -25.8370  -35.0440   23.4270 C   0  0  0  0  0  0  0  0  0  0  0  0
  -26.4990  -34.9330   22.3910 O   0  0  0  0  0  0  0  0  0  0  0  0
  -24.9220  -34.1580   25.0030 H   0  0  0  0  0  0  0  0  0  0  0  0
  -24.0930  -36.8180   23.0700 C   0  0  0  0  0  1  0  0  0  0  0  0
  -25.3460  -36.4340   23.8730 C   0  0  0  0  0  3  0  0  0  0  0  0
  -27.4850  -37.3390   24.6670 C   0  0  0  0  0  1  0  0  0  0  0  0
  -26.3700  -37.4910   23.7350 N   0  0  0  0  0  0  0  0  0  0  0  0
  -25.9610  -38.4090   23.8800 H   0  0  0  0  0  0  0  0  0  0  0  0
  -30.2860  -19.8760   22.6630 C   0  0  0  0  0  2  0  0  0  0  0  0
  -30.0120  -18.4050   22.3030 C   0  0  0  0  0  2  0  0  0  0  0  0
  -31.1330  -17.4320   22.7330 C   0  0  0  0  0  2  0  0  0  0  0  0
  -31.5690  -16.4440   21.6240 C   0  0  0  0  0  3  0  0  0  0  0  0
  -32.1820  -17.1840   20.4970 N   0  0  0  0  0  4  0  0  0  0  0  0
  -31.5690  -17.8870   20.1240 H   0  0  0  0  0  0  0  0  0  0  0  0
  -32.3900  -16.5180   19.7630 H   0  0  0  0  0  0  0  0  0  0  0  0
  -33.0430  -17.6210   20.7780 H   0  0  0  0  0  0  0  0  0  0  0  0
  -30.4240  -15.4610   21.2110 C   0  0  0  0  0  2  0  0  0  0  0  0
  -30.7860  -14.4120   20.1360 C   0  0  0  0  0  0  0  0  0  0  0  0
  -30.3030  -12.3380   18.8880 C   0  0  0  0  0  2  0  0  0  0  0  0
  -29.3010  -12.5730   17.7430 C   0  0  0  0  0  2  0  0  0  0  0  0
  -27.8580  -12.4380   18.2600 C   0  0  0  0  0  2  0  0  0  0  0  0
  -27.6040  -13.2880   19.5330 C   0  0  0  0  0  3  0  0  0  0  0  0
  -28.7100  -13.0510   20.5850 C   0  0  0  0  0  2  0  0  0  0  0  0
  -30.0180  -13.3060   19.9590 N   0  0  0  0  0  0  0  0  0  0  0  0
  -31.7770  -14.6330   19.4320 O   0  0  0  0  0  0  0  0  0  0  0  0
  -25.2560  -13.9340   20.3720 C   0  0  0  0  0  0  0  0  0  0  0  0
  -24.1950  -13.1770   20.7960 C   0  0  0  0  0  0  0  0  0  0  0  0
  -24.6320  -11.8190   20.7330 C   0  0  0  0  0  0  0  0  0  0  0  0
  -26.2730  -13.0360   20.0820 N   0  0  0  0  0  0  0  0  0  0  0  0
  -25.9020  -11.7590   20.3530 N   0  0  0  0  0  0  0  0  0  0  0  0
  -23.8960  -10.5670   20.9560 C   0  0  0  0  0  0  0  0  0  0  0  0
  -24.3620   -9.5890   21.8630 C   0  0  0  0  0  3  0  0  0  0  0  0
  -23.6290   -8.4010   22.0740 C   0  0  0  0  0  3  0  0  0  0  0  0
  -22.4160   -8.1830   21.3790 C   0  0  0  0  0  0  0  0  0  0  0  0
  -21.9690   -9.1490   20.4600 C   0  0  0  0  0  3  0  0  0  0  0  0
  -22.7010  -10.3280   20.2470 C   0  0  0  0  0  3  0  0  0  0  0  0
  -21.6500   -7.0480   21.5000 O   0  0  0  0  0  0  0  0  0  0  0  0
  -21.6480   -6.3020   22.6510 C   0  0  0  0  0  0  0  0  0  0  0  0
  -21.3140   -6.8640   23.9040 C   0  0  0  0  0  3  0  0  0  0  0  0
  -21.2560   -6.0470   25.0490 C   0  0  0  0  0  3  0  0  0  0  0  0
  -21.5230   -4.6680   24.9450 C   0  0  0  0  0  0  0  0  0  0  0  0
  -21.8500   -4.1060   23.7000 C   0  0  0  0  0  3  0  0  0  0  0  0
  -21.9100   -4.9210   22.5550 C   0  0  0  0  0  0  0  0  0  0  0  0
  -22.2060   -4.3710   21.3530 F   0  0  0  0  0  0  0  0  0  0  0  0
  -21.4590   -3.8800   26.0450 F   0  0  0  0  0  0  0  0  0  0  0  0
  -22.8230  -13.6750   21.1480 C   0  0  0  0  0  0  0  0  0  0  0  0
  -22.1350  -12.9870   22.0520 N   0  0  0  0  0  0  0  0  0  0  0  0
  -22.3720  -14.7070   20.6540 O   0  0  0  0  0  0  0  0  0  0  0  0
  -22.5130  -12.1510   22.4720 H   0  0  0  0  0  0  0  0  0  0  0  0
  -21.2160  -13.3000   22.3290 H   0  0  0  0  0  0  0  0  0  0  0  0
  -25.4340  -15.3020   20.1940 N   0  0  0  0  0  0  0  0  0  0  0  0
  -24.6880  -15.9700   20.3480 H   0  0  0  0  0  0  0  0  0  0  0  0
  -26.2800  -15.7280   19.8340 H   0  0  0  0  0  0  0  0  0  0  0  0
  1  2  1  0
  1 47  1  0
  3  4  1  0
  3  2  1  0
  5  6  1  0
  5  4  1  0
  7 18  2  0
  8  6  1  0
  8 13  1  0
  9 17  1  0
  9 19  1  0
 10 16  1  0
 10 12  1  0
 11 17  1  0
 12 13  2  0
 12 11  1  0
 14 15  1  0
 14  8  2  0
 15 10  2  0
 16  9  1  0
 17  7  1  0
 19 21  2  0
 20 19  1  0
 22 20  1  0
 23 32  2  0
 23 28  1  0
 24 20  1  0
 24 28  1  0
 25 24  1  0
 26 27  1  0
 26 25  1  0
 27 23  1  0
 28 29  2  0
 29 30  1  0
 31 30  2  0
 32 31  1  0
 33  7  1  0
 33 38  1  0
 33 34  1  0
 34 37  1  1
 34 35  1  0
 36 34  1  0
 38 41  1  0
 39 43  1  0
 39 38  1  0
 40 39  2  0
 43 42  1  0
 45 43  1  0
 45 46  1  0
 45 44  1  0
 48 47  1  0
 48 49  1  0
 50 55  1  0
 50 49  1  0
 51 54  1  0
 51 50  1  0
 52 51  1  0
 53 51  1  0
 56 55  1  0
 57 62  1  0
 58 59  1  0
 58 57  1  0
 60 59  1  0
 60 67  1  0
 60 61  1  0
 62 56  1  0
 62 61  1  0
 63 56  2  0
 64 65  2  0
 65 84  1  0
 66 65  1  0
 66 69  1  0
 67 68  1  0
 67 64  1  0
 68 66  2  0
 69 70  1  0
 70 71  2  0
 72 75  1  0
 72 71  1  0
 73 72  2  0
 74 73  1  0
 74 69  2  0
 75 76  1  0
 76 77  1  0
 77 78  2  0
 79 78  1  0
 79 83  1  0
 80 79  2  0
 81 76  2  0
 81 80  1  0
 82 81  1  0
 84 85  1  0
 85 88  1  0
 85 87  1  0
 86 84  2  0
 89 90  1  0
 89 64  1  0
 91 89  1  0
M  ISO  4   5 101   6 101  55 100  56 100
M  END
>  <TORSDO>  (80) 
F 26

>  <SCORE>  (80) 
-10.339

>  <name>  (80) 
79

>  <ligand_id>  (80) 
79

>  <original_smiles>  (80) 
[H]c1c([H])c([H])c2c(c1[H])C([H])([H])C([H])([H])C([H])([H])C2([H])N([H])C(=O)C1([H])N(C(=O)C([H])(N([H])C(=O)C([H])(N([H])C([H])([H])[H])C([H])([H])[H])C(C([H])([H])[H])(C([H])([H])[H])C([H])([H])[H])C([H])([H])c2c([H])c(OC([H])([H])C([H])([H])C([H])([H])C([H])([H])C([H])([H])C([H])([H])C([H])([H])C([H])([H])C([H])(C([H])([H])C(=O)N3C([H])([H])C([H])([H])C([H])([H])C([H])(n4nc(-c5c([H])c([H])c(Oc6c([H])c([H])c(F)c([H])c6F)c([H])c5[H])c(C(=O)N([H])[H])c4N([H])[H])C3([H])[H])[N+]([H])([H])[H])c([H])c([H])c2C1([H])[H]

>  <smiles>  (80) 
[H]c1c([H])c([H])c2c(c1[H])C([H])([H])C([H])([H])C([H])([H])C2([H])N([H])C(=O)C1([H])N(C(=O)C([H])(N([H])C(=O)C([H])(N([H])C([H])([H])[H])C([H])([H])[H])C(C([H])([H])[H])(C([H])([H])[H])C([H])([H])[H])C([H])([H])c2c([H])c(OC([H])([H])C([H])([H])C([H])([H])C([H])([H])C([H])([H])C([H])([H])C([H])([H])C([H])([H])C([H])(C([H])([H])C(=O)N3C([H])([H])C([H])([H])C([H])([H])C([H])(n4nc(-c5c([H])c([H])c(Oc6c([H])c([H])c(F)c([H])c6F)c([H])c5[H])c(C(=O)N([H])[H])c4N([H])[H])C3([H])[H])[N+]([H])([H])[H])c([H])c([H])c2C1([H])[H]

$$$$
80:0:0
     RDKit          3D

 89 97  0  0  1  0  0  0  0  0999 V2000
  -28.2900  -21.2200   21.1900 C   0  0  0  0  0  2  0  0  0  0  0  0
  -29.9550  -22.0120   19.7200 C   0  0  0  0  0  3  0  0  0  0  0  0
  -28.7800  -19.8700   21.0850 C   0  0  0  0  0  3  0  0  0  0  0  0
  -30.4520  -20.6440   19.6090 C   0  0  0  0  0  3  0  0  0  0  0  0
  -28.8480  -22.3850   20.5520 C   0  0  0  0  0  0  0  0  0  0  0  0
  -29.9060  -19.5000   20.3020 C   0  0  0  0  0  0  0  0  0  0  0  0
  -28.1610  -23.7720   20.9190 C   0  0  0  0  0  0  0  0  0  0  0  0
  -27.9430  -25.1690   20.8220 C   0  0  0  0  0  3  0  0  0  0  0  0
  -28.3350  -26.3810   20.1440 O   0  0  0  0  0  0  0  0  0  0  0  0
  -24.5940  -31.9410   23.1490 C   0  0  0  0  0  0  0  0  0  0  0  0
  -27.3130  -27.3830   20.0690 C   0  0  0  0  0  0  0  0  0  0  0  0
  -23.4400  -30.5430   21.4770 C   0  0  0  0  0  3  0  0  0  0  0  0
  -24.9410  -29.0350   20.0390 C   0  0  0  0  0  0  0  0  0  0  0  0
  -25.9850  -30.8830   21.3390 C   0  0  0  0  0  2  0  0  0  0  0  0
  -26.1010  -29.5080   20.6680 C   0  0  0  0  0  0  0  0  0  0  0  0
  -27.2920  -28.6950   20.6750 C   0  0  0  0  0  3  0  0  0  0  0  0
  -26.1320  -27.0030   19.3970 C   0  0  0  0  0  3  0  0  0  0  0  0
  -24.9660  -27.7920   19.3890 C   0  0  0  0  0  3  0  0  0  0  0  0
  -23.6890  -29.8930   20.0900 C   0  0  0  0  0  2  0  0  0  0  0  0
  -24.6910  -31.1420   22.0430 N   0  0  0  0  0  0  0  0  0  0  0  0
  -23.4980  -32.1920   23.6720 O   0  0  0  0  0  0  0  0  0  0  0  0
  -22.7780  -29.5040   22.4160 C   0  0  0  0  0  0  0  0  0  0  0  0
  -21.4510  -29.3260   22.2930 N   0  0  0  0  0  0  0  0  0  0  0  0
  -23.4600  -28.8630   23.2190 O   0  0  0  0  0  0  0  0  0  0  0  0
  -20.9570  -29.8950   21.6190 H   0  0  0  0  0  0  0  0  0  0  0  0
  -18.0720  -28.1420   22.8370 C   0  0  0  0  0  0  0  0  0  0  0  0
  -20.6400  -28.3670   23.0450 C   0  0  0  0  0  3  0  0  0  0  0  0
  -20.7120  -26.9590   22.4090 C   0  0  0  0  0  2  0  0  0  0  0  0
  -19.5790  -26.6910   21.4120 C   0  0  0  0  0  2  0  0  0  0  0  0
  -18.2170  -26.8220   22.0990 C   0  0  0  0  0  2  0  0  0  0  0  0
  -19.2100  -28.8750   23.2670 C   0  0  0  0  0  0  0  0  0  0  0  0
  -19.0200  -30.1110   23.9200 C   0  0  0  0  0  3  0  0  0  0  0  0
  -17.7260  -30.6160   24.1460 C   0  0  0  0  0  3  0  0  0  0  0  0
  -16.6030  -29.8800   23.7300 C   0  0  0  0  0  3  0  0  0  0  0  0
  -16.7770  -28.6450   23.0810 C   0  0  0  0  0  3  0  0  0  0  0  0
  -25.8530  -32.5930   23.7970 C   0  0  0  0  0  3  0  0  0  0  0  0
  -26.3610  -31.8230   25.0780 C   0  0  1  0  0  0  0  0  0  0  0  0
  -25.2470  -31.5300   26.1090 C   0  0  0  0  0  1  0  0  0  0  0  0
  -27.0080  -30.4730   24.6870 C   0  0  0  0  0  1  0  0  0  0  0  0
  -27.4620  -32.6490   25.7830 C   0  0  0  0  0  1  0  0  0  0  0  0
  -25.5120  -33.9840   24.1340 N   0  0  0  0  0  0  0  0  0  0  0  0
  -25.8380  -35.0510   23.3940 C   0  0  0  0  0  0  0  0  0  0  0  0
  -26.5240  -34.9680   22.3710 O   0  0  0  0  0  0  0  0  0  0  0  0
  -24.9020  -34.1210   24.9280 H   0  0  0  0  0  0  0  0  0  0  0  0
  -24.1010  -36.8340   23.0180 C   0  0  0  0  0  1  0  0  0  0  0  0
  -25.3220  -36.4270   23.8590 C   0  0  0  0  0  3  0  0  0  0  0  0
  -27.4130  -37.3310   24.7780 C   0  0  0  0  0  1  0  0  0  0  0  0
  -26.3470  -37.4920   23.7940 N   0  0  0  0  0  0  0  0  0  0  0  0
  -25.9250  -38.4060   23.9310 H   0  0  0  0  0  0  0  0  0  0  0  0
  -30.6090  -18.0210   20.3820 C   0  0  0  0  0  2  0  0  0  0  0  0
  -29.2110  -16.7190   18.7250 C   0  0  0  0  0  1  0  0  0  0  0  0
  -29.9070  -16.5500   20.0910 C   0  0  2  0  0  0  0  0  0  0  0  0
  -28.9340  -16.4310   20.9950 F   0  0  0  0  0  0  0  0  0  0  0  0
  -30.7630  -15.1240   20.0700 C   0  0  0  0  0  0  0  0  0  0  0  0
  -30.6290  -12.7780   19.1640 C   0  0  0  0  0  2  0  0  0  0  0  0
  -29.6450  -12.7690   17.9700 C   0  0  0  0  0  2  0  0  0  0  0  0
  -28.1960  -12.5610   18.4530 C   0  0  0  0  0  2  0  0  0  0  0  0
  -27.8360  -13.4540   19.6680 C   0  0  0  0  0  3  0  0  0  0  0  0
  -28.9420  -13.4340   20.7430 C   0  0  0  0  0  2  0  0  0  0  0  0
  -30.1980  -13.8510   20.1000 N   0  0  0  0  0  0  0  0  0  0  0  0
  -31.9650  -15.1850   19.7870 O   0  0  0  0  0  0  0  0  0  0  0  0
  -25.4880  -14.0230   20.5130 C   0  0  0  0  0  0  0  0  0  0  0  0
  -24.4350  -13.2390   20.8950 C   0  0  0  0  0  0  0  0  0  0  0  0
  -24.8940  -11.8880   20.8040 C   0  0  0  0  0  0  0  0  0  0  0  0
  -26.5190  -13.1470   20.2100 N   0  0  0  0  0  0  0  0  0  0  0  0
  -26.1720  -11.8580   20.4470 N   0  0  0  0  0  0  0  0  0  0  0  0
  -24.1730  -10.6210   20.9830 C   0  0  0  0  0  0  0  0  0  0  0  0
  -24.5830   -9.6650   21.9370 C   0  0  0  0  0  3  0  0  0  0  0  0
  -23.8590   -8.4630   22.1020 C   0  0  0  0  0  3  0  0  0  0  0  0
  -22.7120   -8.2120   21.3130 C   0  0  0  0  0  0  0  0  0  0  0  0
  -22.3210   -9.1590   20.3500 C   0  0  0  0  0  3  0  0  0  0  0  0
  -23.0450  -10.3510   20.1820 C   0  0  0  0  0  3  0  0  0  0  0  0
  -21.9650   -7.0620   21.3890 O   0  0  0  0  0  0  0  0  0  0  0  0
  -21.8200   -6.3740   22.5670 C   0  0  0  0  0  0  0  0  0  0  0  0
  -21.2120   -6.9570   23.7010 C   0  0  0  0  0  3  0  0  0  0  0  0
  -21.0180   -6.1920   24.8680 C   0  0  0  0  0  3  0  0  0  0  0  0
  -21.4230   -4.8440   24.9020 C   0  0  0  0  0  0  0  0  0  0  0  0
  -22.0260   -4.2610   23.7740 C   0  0  0  0  0  3  0  0  0  0  0  0
  -22.2190   -5.0220   22.6090 C   0  0  0  0  0  0  0  0  0  0  0  0
  -22.7800   -4.4500   21.5150 F   0  0  0  0  0  0  0  0  0  0  0  0
  -21.2310   -4.1050   26.0210 F   0  0  0  0  0  0  0  0  0  0  0  0
  -23.0500  -13.7100   21.2340 C   0  0  0  0  0  0  0  0  0  0  0  0
  -22.3520  -12.9850   22.1010 N   0  0  0  0  0  0  0  0  0  0  0  0
  -22.5980  -14.7550   20.7680 O   0  0  0  0  0  0  0  0  0  0  0  0
  -22.7290  -12.1390   22.5010 H   0  0  0  0  0  0  0  0  0  0  0  0
  -21.4260  -13.2860   22.3720 H   0  0  0  0  0  0  0  0  0  0  0  0
  -25.6500  -15.3980   20.3800 N   0  0  0  0  0  0  0  0  0  0  0  0
  -24.9050  -16.0550   20.5860 H   0  0  0  0  0  0  0  0  0  0  0  0
  -26.5290  -15.8500   20.1580 H   0  0  0  0  0  0  0  0  0  0  0  0
  2  5  1  0
  3  1  1  0
  4  2  2  0
  4  6  1  0
  5  7  2  0
  5  1  1  0
  6 50  1  0
  6  3  2  0
  8  7  2  0
  9  8  1  0
 10 21  2  0
 11  9  1  0
 11 16  1  0
 12 20  1  0
 12 22  1  0
 13 19  1  0
 13 15  1  0
 14 20  1  0
 15 16  2  0
 15 14  1  0
 17 11  2  0
 18 17  1  0
 18 13  2  0
 19 12  1  0
 20 10  1  0
 22 24  2  0
 23 22  1  0
 25 23  1  0
 26 35  2  0
 26 31  1  0
 27 23  1  0
 27 31  1  0
 28 27  1  0
 29 30  1  0
 29 28  1  0
 30 26  1  0
 31 32  2  0
 32 33  1  0
 34 33  2  0
 35 34  1  0
 36 10  1  0
 36 41  1  0
 36 37  1  0
 37 40  1  1
 37 38  1  0
 39 37  1  0
 41 44  1  0
 42 46  1  0
 42 41  1  0
 43 42  2  0
 46 45  1  0
 48 46  1  0
 48 49  1  0
 48 47  1  0
 52 51  1  6
 52 50  1  0
 52 53  1  0
 54 52  1  0
 54 60  1  0
 55 60  1  0
 56 57  1  0
 56 55  1  0
 58 57  1  0
 58 65  1  0
 58 59  1  0
 60 59  1  0
 61 54  2  0
 62 63  2  0
 63 82  1  0
 64 63  1  0
 64 67  1  0
 65 66  1  0
 65 62  1  0
 66 64  2  0
 67 68  1  0
 68 69  2  0
 70 73  1  0
 70 69  1  0
 71 70  2  0
 72 71  1  0
 72 67  2  0
 73 74  1  0
 74 79  2  0
 74 75  1  0
 75 76  2  0
 76 77  1  0
 77 81  1  0
 78 77  2  0
 79 78  1  0
 80 79  1  0
 82 83  1  0
 83 86  1  0
 83 85  1  0
 84 82  2  0
 87 62  1  0
 87 88  1  0
 89 87  1  0
M  ISO  4   8 101   9 101  52 100  54 100
M  END
>  <TORSDO>  (81) 
F 19

>  <SCORE>  (81) 
-13.728

>  <name>  (81) 
80

>  <ligand_id>  (81) 
80

>  <original_smiles>  (81) 
[H]C(Oc1c([H])c([H])c2c(c1[H])C([H])([H])N(C(=O)C([H])(N([H])C(=O)C([H])(N([H])C([H])([H])[H])C([H])([H])[H])C(C([H])([H])[H])(C([H])([H])[H])C([H])([H])[H])C([H])(C(=O)N([H])C1([H])c3c([H])c([H])c([H])c([H])c3C([H])([H])C([H])([H])C1([H])[H])C2([H])[H])=C([H])c1c([H])c([H])c(C([H])([H])C(F)(C(=O)N2C([H])([H])C([H])([H])C([H])([H])C([H])(n3nc(-c4c([H])c([H])c(Oc5c([H])c([H])c(F)c([H])c5F)c([H])c4[H])c(C(=O)N([H])[H])c3N([H])[H])C2([H])[H])C([H])([H])[H])c([H])c1[H]

>  <smiles>  (81) 
[H]C(Oc1c([H])c([H])c2c(c1[H])C([H])([H])N(C(=O)C([H])(N([H])C(=O)C([H])(N([H])C([H])([H])[H])C([H])([H])[H])C(C([H])([H])[H])(C([H])([H])[H])C([H])([H])[H])C([H])(C(=O)N([H])C1([H])c3c([H])c([H])c([H])c([H])c3C([H])([H])C([H])([H])C1([H])[H])C2([H])[H])=C([H])c1c([H])c([H])c(C([H])([H])C(F)(C(=O)N2C([H])([H])C([H])([H])C([H])([H])C([H])(n3nc(-c4c([H])c([H])c(Oc5c([H])c([H])c(F)c([H])c5F)c([H])c4[H])c(C(=O)N([H])[H])c3N([H])[H])C2([H])[H])C([H])([H])[H])c([H])c1[H]

$$$$
81:0:0
     RDKit          3D

 95102  0  0  1  0  0  0  0  0999 V2000
  -27.1740  -20.2680   20.3400 C   0  0  0  0  0  1  0  0  0  0  0  0
  -28.3740  -20.1030   19.3720 C   0  0  0  0  0  3  0  0  0  0  0  0
  -28.6150  -21.5150   18.5730 N   0  0  0  0  0  4  0  0  0  0  0  0
  -29.2880  -21.3250   17.8460 H   0  0  0  0  0  0  0  0  0  0  0  0
  -27.7390  -21.5960   18.0800 H   0  0  0  0  0  0  0  0  0  0  0  0
  -28.8600  -23.0700   19.0350 C   0  0  0  0  0  2  0  0  0  0  0  0
  -28.3490  -24.5270   18.2000 C   0  0  0  0  0  2  0  0  0  0  0  0
  -28.8350  -26.0760   18.1720 O   0  0  0  0  0  0  0  0  0  0  0  0
  -26.2370  -30.3220   23.5900 C   0  0  0  0  0  0  0  0  0  0  0  0
  -28.0260  -27.2260   18.5610 C   0  0  0  0  0  0  0  0  0  0  0  0
  -24.7820  -29.8170   21.6680 C   0  0  0  0  0  3  0  0  0  0  0  0
  -25.9550  -29.0290   19.5230 C   0  0  0  0  0  0  0  0  0  0  0  0
  -27.3250  -30.0450   21.3270 C   0  0  0  0  0  2  0  0  0  0  0  0
  -27.2180  -29.0770   20.1270 C   0  0  0  0  0  0  0  0  0  0  0  0
  -28.2630  -28.1980   19.6360 C   0  0  0  0  0  3  0  0  0  0  0  0
  -26.7930  -27.3960   17.9060 C   0  0  0  0  0  3  0  0  0  0  0  0
  -25.7690  -28.2310   18.3890 C   0  0  0  0  0  3  0  0  0  0  0  0
  -24.8180  -29.8420   20.1200 C   0  0  0  0  0  2  0  0  0  0  0  0
  -26.1410  -30.0630   22.2490 N   0  0  0  0  0  0  0  0  0  0  0  0
  -25.2330  -30.3590   24.3170 O   0  0  0  0  0  0  0  0  0  0  0  0
  -24.1440  -28.4910   22.1560 C   0  0  0  0  0  0  0  0  0  0  0  0
  -22.8210  -28.3360   21.9670 N   0  0  0  0  0  0  0  0  0  0  0  0
  -24.8410  -27.6200   22.6830 O   0  0  0  0  0  0  0  0  0  0  0  0
  -22.3110  -29.0960   21.5380 H   0  0  0  0  0  0  0  0  0  0  0  0
  -19.5380  -26.8170   21.7310 C   0  0  0  0  0  0  0  0  0  0  0  0
  -22.0350  -27.1500   22.3200 C   0  0  0  0  0  3  0  0  0  0  0  0
  -22.3130  -25.9860   21.3390 C   0  0  0  0  0  2  0  0  0  0  0  0
  -21.3230  -25.9330   20.1700 C   0  0  0  0  0  2  0  0  0  0  0  0
  -19.8910  -25.7730   20.6860 C   0  0  0  0  0  2  0  0  0  0  0  0
  -20.5440  -27.4740   22.4880 C   0  0  0  0  0  0  0  0  0  0  0  0
  -20.1600  -28.4580   23.4250 C   0  0  0  0  0  3  0  0  0  0  0  0
  -18.8040  -28.7860   23.6120 C   0  0  0  0  0  3  0  0  0  0  0  0
  -17.8120  -28.1230   22.8700 C   0  0  0  0  0  3  0  0  0  0  0  0
  -18.1790  -27.1390   21.9350 C   0  0  0  0  0  3  0  0  0  0  0  0
  -27.6120  -30.6020   24.2690 C   0  0  0  0  0  3  0  0  0  0  0  0
  -27.3970  -31.6260   25.3040 N   0  0  0  0  0  0  0  0  0  0  0  0
  -27.7760  -32.9080   25.2060 C   0  0  0  0  0  0  0  0  0  0  0  0
  -28.4060  -33.3450   24.2400 O   0  0  0  0  0  0  0  0  0  0  0  0
  -26.8350  -31.3520   26.0960 H   0  0  0  0  0  0  0  0  0  0  0  0
  -26.1820  -34.7070   25.9540 C   0  0  0  0  0  1  0  0  0  0  0  0
  -27.3930  -33.8540   26.3610 C   0  0  0  0  0  3  0  0  0  0  0  0
  -29.5820  -34.0250   27.4620 C   0  0  0  0  0  1  0  0  0  0  0  0
  -28.5010  -34.7370   26.7890 N   0  0  0  0  0  0  0  0  0  0  0  0
  -28.1610  -35.4630   27.4140 H   0  0  0  0  0  0  0  0  0  0  0  0
  -28.2690  -29.3130   24.9030 C   0  0  1  0  0  0  0  0  0  0  0  0
  -27.3240  -28.5390   25.8520 C   0  0  0  0  0  1  0  0  0  0  0  0
  -28.7360  -28.3270   23.8070 C   0  0  0  0  0  1  0  0  0  0  0  0
  -29.5330  -29.7110   25.7010 C   0  0  0  0  0  1  0  0  0  0  0  0
  -29.7370  -17.7170   20.6510 C   0  0  0  0  0  2  0  0  0  0  0  0
  -29.4490  -19.0690   20.1750 C   0  0  0  0  0  2  0  0  0  0  0  0
  -29.3120  -13.3650   21.5650 C   0  0  0  0  0  1  0  0  0  0  0  0
  -28.8170  -15.0400   21.6750 C   0  0  0  0  0  2  0  0  0  0  0  0
  -30.5260  -13.1770   19.8770 C   0  0  0  0  0  2  0  0  0  0  0  0
  -30.2100  -15.7400   19.3220 C   0  0  0  0  0  2  0  0  0  0  0  0
  -29.3770  -16.1420   20.5360 C   0  0  0  0  0  3  0  0  0  0  0  0
  -30.8530  -14.3980   19.0440 C   0  0  0  0  0  3  0  0  0  0  0  0
  -32.3120  -14.3740   18.6320 C   0  0  0  0  0  3  0  0  0  0  0  0
  -32.5030  -13.5390   17.6060 F   0  0  0  0  0  0  0  0  0  0  0  0
  -33.2030  -13.9470   19.8640 C   0  0  0  0  0  2  0  0  0  0  0  0
  -33.2610  -12.4260   20.3650 C   0  0  0  0  0  0  0  0  0  0  0  0
  -31.8850  -10.2770   19.8000 C   0  0  0  0  0  3  0  0  0  0  0  0
  -30.4740  -10.0620   18.5850 C   0  0  0  0  0  3  0  0  0  0  0  0
  -28.9600  -11.1030   18.3260 C   0  0  0  0  0  2  0  0  0  0  0  0
  -28.5970  -12.6550   19.4010 C   0  0  0  0  0  2  0  0  0  0  0  0
  -31.2580  -12.8400   21.3040 C   0  0  0  0  0  2  0  0  0  0  0  0
  -32.2750  -11.6250   20.8250 N   0  0  0  0  0  0  0  0  0  0  0  0
  -34.3110  -11.9150   20.1420 O   0  0  0  0  0  0  0  0  0  0  0  0
  -26.2800  -13.0070   20.0070 C   0  0  0  0  0  0  0  0  0  0  0  0
  -25.2650  -12.2760   20.4810 C   0  0  0  0  0  0  0  0  0  0  0  0
  -25.7550  -10.9660   20.7830 C   0  0  0  0  0  0  0  0  0  0  0  0
  -27.3000  -12.1610   19.9190 N   0  0  0  0  0  0  0  0  0  0  0  0
  -27.0540  -10.9370   20.5340 N   0  0  0  0  0  0  0  0  0  0  0  0
  -25.0070   -9.7500   21.1190 C   0  0  0  0  0  0  0  0  0  0  0  0
  -25.2190   -9.0010   22.3010 C   0  0  0  0  0  3  0  0  0  0  0  0
  -24.4100   -7.8740   22.5770 C   0  0  0  0  0  3  0  0  0  0  0  0
  -23.3820   -7.4970   21.6760 C   0  0  0  0  0  0  0  0  0  0  0  0
  -23.1920   -8.2360   20.5020 C   0  0  0  0  0  3  0  0  0  0  0  0
  -24.0000   -9.3500   20.2250 C   0  0  0  0  0  3  0  0  0  0  0  0
  -22.5610   -6.4090   21.8370 O   0  0  0  0  0  0  0  0  0  0  0  0
  -22.0880   -6.0350   23.0650 C   0  0  0  0  0  0  0  0  0  0  0  0
  -21.3720   -6.9260   23.8950 C   0  0  0  0  0  3  0  0  0  0  0  0
  -20.8520   -6.4750   25.1210 C   0  0  0  0  0  3  0  0  0  0  0  0
  -21.0360   -5.1340   25.5170 C   0  0  0  0  0  0  0  0  0  0  0  0
  -21.7380   -4.2460   24.6840 C   0  0  0  0  0  3  0  0  0  0  0  0
  -22.2600   -4.6960   23.4620 C   0  0  0  0  0  0  0  0  0  0  0  0
  -22.9180   -3.8300   22.6530 F   0  0  0  0  0  0  0  0  0  0  0  0
  -20.5280   -4.6980   26.6950 F   0  0  0  0  0  0  0  0  0  0  0  0
  -23.8860  -12.7910   20.4550 C   0  0  0  0  0  0  0  0  0  0  0  0
  -23.0910  -12.4030   21.4330 N   0  0  0  0  0  0  0  0  0  0  0  0
  -23.5540  -13.6340   19.6240 O   0  0  0  0  0  0  0  0  0  0  0  0
  -23.4290  -11.7920   22.1620 H   0  0  0  0  0  0  0  0  0  0  0  0
  -22.2230  -12.9010   21.5750 H   0  0  0  0  0  0  0  0  0  0  0  0
  -26.4060  -14.3190   19.5720 N   0  0  0  0  0  0  0  0  0  0  0  0
  -27.3230  -14.7240   19.4470 H   0  0  0  0  0  0  0  0  0  0  0  0
  -25.6600  -15.0000   19.6220 H   0  0  0  0  0  0  0  0  0  0  0  0
  2 50  1  0
  2  1  1  0
  3  6  1  0
  3  2  1  0
  4  3  1  0
  5  3  1  0
  7  6  1  0
  8  7  1  0
  8 10  1  0
  9 20  2  0
 10 15  1  0
 11 21  1  0
 11 19  1  0
 12 18  1  0
 12 14  1  0
 13 19  1  0
 14 13  1  0
 15 14  2  0
 16 17  1  0
 16 10  2  0
 17 12  2  0
 18 11  1  0
 19  9  1  0
 21 23  2  0
 22 21  1  0
 24 22  1  0
 25 34  2  0
 25 30  1  0
 26 22  1  0
 26 30  1  0
 27 26  1  0
 28 29  1  0
 28 27  1  0
 29 25  1  0
 30 31  2  0
 31 32  1  0
 33 32  2  0
 34 33  1  0
 35  9  1  0
 35 45  1  0
 35 36  1  0
 36 39  1  0
 37 36  1  0
 37 41  1  0
 38 37  2  0
 41 40  1  0
 41 43  1  0
 43 44  1  0
 43 42  1  0
 45 48  1  1
 45 46  1  0
 47 45  1  0
 50 49  1  0
 51 52  1  0
 53 65  1  0
 55 54  1  0
 55 49  1  0
 55 52  1  0
 56 54  1  0
 56 53  1  0
 57 58  1  0
 57 56  1  0
 57 59  1  0
 59 60  1  0
 60 66  1  0
 61 66  1  0
 62 61  2  0
 63 62  1  0
 63 64  1  0
 64 71  1  0
 66 65  1  0
 67 60  2  0
 68 69  2  0
 69 70  1  0
 70 73  1  0
 71 68  1  0
 71 72  1  0
 72 70  2  0
 73 74  1  0
 74 75  2  0
 76 79  1  0
 76 75  1  0
 77 76  2  0
 78 77  1  0
 78 73  2  0
 79 80  1  0
 80 85  2  0
 80 81  1  0
 81 82  2  0
 82 83  1  0
 83 87  1  0
 84 83  2  0
 85 84  1  0
 86 85  1  0
 88 69  1  0
 88 89  1  0
 89 92  1  0
 89 91  1  0
 90 88  2  0
 93 95  1  0
 93 68  1  0
 94 93  1  0
M  ISO  4   7 101   8 101  59 100  60 100
M  END
>  <TORSDO>  (82) 
F 23

>  <SCORE>  (82) 
-3.949

>  <name>  (82) 
81

>  <ligand_id>  (82) 
81

>  <original_smiles>  (82) 
[H]C(=C([H])C([H])(C([H])([H])[H])[N+]([H])([H])C([H])([H])C([H])([H])Oc1c([H])c([H])c2c(c1[H])C([H])([H])N(C(=O)C([H])(N([H])C(=O)C([H])(N([H])C([H])([H])[H])C([H])([H])[H])C(C([H])([H])[H])(C([H])([H])[H])C([H])([H])[H])C([H])(C(=O)N([H])C1([H])c3c([H])c([H])c([H])c([H])c3C([H])([H])C([H])([H])C1([H])[H])C2([H])[H])c1c([H])c([H])c([H])c(C([H])(F)C([H])([H])C(=O)N2C([H])([H])C([H])([H])C([H])([H])C([H])(n3nc(-c4c([H])c([H])c(Oc5c([H])c([H])c(F)c([H])c5F)c([H])c4[H])c(C(=O)N([H])[H])c3N([H])[H])C2([H])[H])c1[H]

>  <smiles>  (82) 
[H]C(=C([H])C([H])(C([H])([H])[H])[N+]([H])([H])C([H])([H])C([H])([H])Oc1c([H])c([H])c2c(c1[H])C([H])([H])N(C(=O)C([H])(N([H])C(=O)C([H])(N([H])C([H])([H])[H])C([H])([H])[H])C(C([H])([H])[H])(C([H])([H])[H])C([H])([H])[H])C([H])(C(=O)N([H])C1([H])c3c([H])c([H])c([H])c([H])c3C([H])([H])C([H])([H])C1([H])[H])C2([H])[H])c1c([H])c([H])c([H])c(C([H])(F)C([H])([H])C(=O)N2C([H])([H])C([H])([H])C([H])([H])C([H])(n3nc(-c4c([H])c([H])c(Oc5c([H])c([H])c(F)c([H])c5F)c([H])c4[H])c(C(=O)N([H])[H])c3N([H])[H])C2([H])[H])c1[H]

$$$$
82:0:0
     RDKit          3D

 86 93  0  0  1  0  0  0  0  0999 V2000
  -28.7470  -22.9250   20.5350 C   0  0  0  0  0  0  0  0  0  0  0  0
  -29.1330  -23.1000   21.6960 O   0  0  0  0  0  0  0  0  0  0  0  0
  -28.9810  -21.3620   19.9330 C   0  0  0  0  0  3  0  0  0  0  0  0
  -29.3900  -20.0600   20.4870 C   0  0  0  0  0  0  0  0  0  0  0  0
  -29.5820  -19.9650   21.8090 O   0  0  0  0  0  0  0  0  0  0  0  0
  -29.4220  -20.8240   22.1840 H   0  0  0  0  0  0  0  0  0  0  0  0
  -29.7780  -18.4870   19.8550 C   0  0  0  0  0  3  0  0  0  0  0  0
  -29.7900  -16.8430   20.5650 C   0  0  0  0  0  3  0  0  0  0  0  0
  -30.5100  -15.3140   20.1060 C   0  0  0  0  0  0  0  0  0  0  0  0
  -30.4410  -12.8860   19.1890 C   0  0  0  0  0  2  0  0  0  0  0  0
  -29.4840  -12.7540   17.9770 C   0  0  0  0  0  2  0  0  0  0  0  0
  -28.0400  -12.4980   18.4450 C   0  0  0  0  0  2  0  0  0  0  0  0
  -27.6400  -13.4330   19.6120 C   0  0  0  0  0  3  0  0  0  0  0  0
  -28.7200  -13.5190   20.7120 C   0  0  0  0  0  2  0  0  0  0  0  0
  -29.9540  -14.0040   20.0780 N   0  0  0  0  0  0  0  0  0  0  0  0
  -31.6900  -15.3220   19.7270 O   0  0  0  0  0  0  0  0  0  0  0  0
  -25.2890  -13.9960   20.4250 C   0  0  0  0  0  0  0  0  0  0  0  0
  -24.2340  -13.2210   20.8170 C   0  0  0  0  0  0  0  0  0  0  0  0
  -24.6950  -11.8700   20.7700 C   0  0  0  0  0  0  0  0  0  0  0  0
  -26.3220  -13.1200   20.1510 N   0  0  0  0  0  0  0  0  0  0  0  0
  -25.9790  -11.8330   20.4260 N   0  0  0  0  0  0  0  0  0  0  0  0
  -23.9680  -10.6090   20.9740 C   0  0  0  0  0  0  0  0  0  0  0  0
  -24.4120   -9.6400   21.9010 C   0  0  0  0  0  3  0  0  0  0  0  0
  -23.6830   -8.4470   22.0940 C   0  0  0  0  0  3  0  0  0  0  0  0
  -22.4950   -8.2140   21.3610 C   0  0  0  0  0  0  0  0  0  0  0  0
  -22.0700   -9.1710   20.4230 C   0  0  0  0  0  3  0  0  0  0  0  0
  -22.8000  -10.3560   20.2280 C   0  0  0  0  0  3  0  0  0  0  0  0
  -21.7370   -7.0730   21.4630 O   0  0  0  0  0  0  0  0  0  0  0  0
  -21.6980   -6.3350   22.6190 C   0  0  0  0  0  0  0  0  0  0  0  0
  -21.2820   -6.8940   23.8470 C   0  0  0  0  0  3  0  0  0  0  0  0
  -21.1900   -6.0830   24.9950 C   0  0  0  0  0  3  0  0  0  0  0  0
  -21.5050   -4.7140   24.9180 C   0  0  0  0  0  0  0  0  0  0  0  0
  -21.9150   -4.1530   23.6950 C   0  0  0  0  0  3  0  0  0  0  0  0
  -22.0070   -4.9620   22.5490 C   0  0  0  0  0  0  0  0  0  0  0  0
  -22.3820   -4.4110   21.3680 F   0  0  0  0  0  0  0  0  0  0  0  0
  -21.4110   -3.9330   26.0200 F   0  0  0  0  0  0  0  0  0  0  0  0
  -22.8440  -13.7020   21.1220 C   0  0  0  0  0  0  0  0  0  0  0  0
  -22.1370  -13.0090   22.0060 N   0  0  0  0  0  0  0  0  0  0  0  0
  -22.3990  -14.7290   20.6110 O   0  0  0  0  0  0  0  0  0  0  0  0
  -22.5110  -12.1790   22.4410 H   0  0  0  0  0  0  0  0  0  0  0  0
  -21.2050  -13.3140   22.2530 H   0  0  0  0  0  0  0  0  0  0  0  0
  -25.4500  -15.3680   20.2510 N   0  0  0  0  0  0  0  0  0  0  0  0
  -24.6920  -16.0250   20.3910 H   0  0  0  0  0  0  0  0  0  0  0  0
  -26.2970  -15.8080   19.9110 H   0  0  0  0  0  0  0  0  0  0  0  0
  -28.0360  -24.3590   19.8430 C   0  0  0  0  0  2  0  0  0  0  0  0
  -28.1850  -25.9260   20.3070 O   0  0  0  0  0  0  0  0  0  0  0  0
  -24.6250  -31.8800   23.2110 C   0  0  0  0  0  0  0  0  0  0  0  0
  -27.1790  -27.0170   20.1970 C   0  0  0  0  0  0  0  0  0  0  0  0
  -23.4290  -30.4820   21.5750 C   0  0  0  0  0  3  0  0  0  0  0  0
  -24.8770  -28.8820   20.1490 C   0  0  0  0  0  0  0  0  0  0  0  0
  -25.9930  -30.6980   21.4270 C   0  0  0  0  0  2  0  0  0  0  0  0
  -26.0620  -29.2910   20.7720 C   0  0  0  0  0  0  0  0  0  0  0  0
  -27.2060  -28.3760   20.7760 C   0  0  0  0  0  3  0  0  0  0  0  0
  -25.9690  -26.7590   19.5140 C   0  0  0  0  0  3  0  0  0  0  0  0
  -24.8550  -27.6370   19.4990 C   0  0  0  0  0  3  0  0  0  0  0  0
  -23.6560  -29.7980   20.1980 C   0  0  0  0  0  2  0  0  0  0  0  0
  -24.7040  -31.0470   22.1250 N   0  0  0  0  0  0  0  0  0  0  0  0
  -23.5370  -32.1700   23.7340 O   0  0  0  0  0  0  0  0  0  0  0  0
  -22.7360  -29.4870   22.5420 C   0  0  0  0  0  0  0  0  0  0  0  0
  -21.4070  -29.3220   22.4200 N   0  0  0  0  0  0  0  0  0  0  0  0
  -23.4030  -28.8630   23.3730 O   0  0  0  0  0  0  0  0  0  0  0  0
  -20.9230  -29.8760   21.7270 H   0  0  0  0  0  0  0  0  0  0  0  0
  -18.0240  -28.1150   22.9320 C   0  0  0  0  0  0  0  0  0  0  0  0
  -20.5840  -28.3860   23.1930 C   0  0  0  0  0  3  0  0  0  0  0  0
  -20.6870  -26.9520   22.6230 C   0  0  0  0  0  2  0  0  0  0  0  0
  -19.5850  -26.6250   21.6100 C   0  0  0  0  0  2  0  0  0  0  0  0
  -18.2030  -26.7660   22.2550 C   0  0  0  0  0  2  0  0  0  0  0  0
  -19.1410  -28.8820   23.3590 C   0  0  0  0  0  0  0  0  0  0  0  0
  -18.9170  -30.1420   23.9550 C   0  0  0  0  0  3  0  0  0  0  0  0
  -17.6110  -30.6360   24.1280 C   0  0  0  0  0  3  0  0  0  0  0  0
  -16.5090  -29.8670   23.7140 C   0  0  0  0  0  3  0  0  0  0  0  0
  -16.7160  -28.6080   23.1230 C   0  0  0  0  0  3  0  0  0  0  0  0
  -25.8980  -32.5220   23.8420 C   0  0  0  0  0  3  0  0  0  0  0  0
  -25.5850  -33.9250   24.1650 N   0  0  0  0  0  0  0  0  0  0  0  0
  -25.9180  -34.9790   23.4090 C   0  0  0  0  0  0  0  0  0  0  0  0
  -26.5830  -34.8740   22.3760 O   0  0  0  0  0  0  0  0  0  0  0  0
  -24.9930  -34.0810   24.9670 H   0  0  0  0  0  0  0  0  0  0  0  0
  -24.1920  -36.7830   23.0710 C   0  0  0  0  0  1  0  0  0  0  0  0
  -25.4390  -36.3720   23.8700 C   0  0  0  0  0  3  0  0  0  0  0  0
  -27.5820  -37.2570   24.6830 C   0  0  0  0  0  1  0  0  0  0  0  0
  -26.4740  -37.4230   23.7460 N   0  0  0  0  0  0  0  0  0  0  0  0
  -26.0710  -38.3450   23.8910 H   0  0  0  0  0  0  0  0  0  0  0  0
  -26.3980  -31.7660   25.1360 C   0  0  1  0  0  0  0  0  0  0  0  0
  -25.2930  -31.5490   26.1970 C   0  0  0  0  0  1  0  0  0  0  0  0
  -26.9770  -30.3790   24.7770 C   0  0  0  0  0  1  0  0  0  0  0  0
  -27.5460  -32.5630   25.7970 C   0  0  0  0  0  1  0  0  0  0  0  0
  1  2  2  0
  3  4  2  0
  3  1  1  0
  4  5  1  0
  5  6  1  0
  7  4  1  0
  7  8  2  0
  9  8  1  0
 10 15  1  0
 11 12  1  0
 11 10  1  0
 13 12  1  0
 13 20  1  0
 13 14  1  0
 15  9  1  0
 15 14  1  0
 16  9  2  0
 17 18  2  0
 18 37  1  0
 19 18  1  0
 19 22  1  0
 20 17  1  0
 20 21  1  0
 21 19  2  0
 22 23  1  0
 23 24  2  0
 25 28  1  0
 25 24  1  0
 26 25  2  0
 27 26  1  0
 27 22  2  0
 28 29  1  0
 29 30  1  0
 30 31  2  0
 32 31  1  0
 32 36  1  0
 33 32  2  0
 34 29  2  0
 34 33  1  0
 35 34  1  0
 37 38  1  0
 38 41  1  0
 38 40  1  0
 39 37  2  0
 42 43  1  0
 42 17  1  0
 44 42  1  0
 45 46  1  0
 45  1  1  0
 47 58  2  0
 48 46  1  0
 48 53  1  0
 49 57  1  0
 49 59  1  0
 50 56  1  0
 50 52  1  0
 51 57  1  0
 52 53  2  0
 52 51  1  0
 54 48  2  0
 55 54  1  0
 55 50  2  0
 56 49  1  0
 57 47  1  0
 59 61  2  0
 60 59  1  0
 62 60  1  0
 63 72  2  0
 63 68  1  0
 64 60  1  0
 64 68  1  0
 65 64  1  0
 66 67  1  0
 66 65  1  0
 67 63  1  0
 68 69  2  0
 69 70  1  0
 71 70  2  0
 72 71  1  0
 73 47  1  0
 73 74  1  0
 73 83  1  0
 74 77  1  0
 75 79  1  0
 75 74  1  0
 76 75  2  0
 79 78  1  0
 81 79  1  0
 81 82  1  0
 81 80  1  0
 83 86  1  1
 83 84  1  0
 85 83  1  0
M  ISO  4   8 100   9 100  45 101  46 101
M  END
>  <TORSDO>  (83) 
F 21

>  <SCORE>  (83) 
-15.319

>  <name>  (83) 
82

>  <ligand_id>  (83) 
82

>  <original_smiles>  (83) 
[H]OC(=C([H])C(=O)C([H])([H])Oc1c([H])c([H])c2c(c1[H])C([H])([H])N(C(=O)C([H])(N([H])C(=O)C([H])(N([H])C([H])([H])[H])C([H])([H])[H])C(C([H])([H])[H])(C([H])([H])[H])C([H])([H])[H])C([H])(C(=O)N([H])C1([H])c3c([H])c([H])c([H])c([H])c3C([H])([H])C([H])([H])C1([H])[H])C2([H])[H])C([H])([H])C([H])([H])C(=O)N1C([H])([H])C([H])([H])C([H])([H])C([H])(n2nc(-c3c([H])c([H])c(Oc4c([H])c([H])c(F)c([H])c4F)c([H])c3[H])c(C(=O)N([H])[H])c2N([H])[H])C1([H])[H]

>  <smiles>  (83) 
[H]OC(=C([H])C(=O)C([H])([H])Oc1c([H])c([H])c2c(c1[H])C([H])([H])N(C(=O)C([H])(N([H])C(=O)C([H])(N([H])C([H])([H])[H])C([H])([H])[H])C(C([H])([H])[H])(C([H])([H])[H])C([H])([H])[H])C([H])(C(=O)N([H])C1([H])c3c([H])c([H])c([H])c([H])c3C([H])([H])C([H])([H])C1([H])[H])C2([H])[H])C([H])([H])C([H])([H])C(=O)N1C([H])([H])C([H])([H])C([H])([H])C([H])(n2nc(-c3c([H])c([H])c(Oc4c([H])c([H])c(F)c([H])c4F)c([H])c3[H])c(C(=O)N([H])[H])c2N([H])[H])C1([H])[H]

$$$$
84:0:0
     RDKit          3D

 93101  0  0  1  0  0  0  0  0999 V2000
  -31.4010  -21.6990   19.2720 C   0  0  0  0  0  3  0  0  0  0  0  0
  -30.5580  -22.8060   19.4890 C   0  0  0  0  0  3  0  0  0  0  0  0
  -31.0240  -20.3990   19.6600 C   0  0  0  0  0  3  0  0  0  0  0  0
  -28.9290  -21.3090   20.4910 C   0  0  0  0  0  3  0  0  0  0  0  0
  -29.2930  -22.6570   20.1070 C   0  0  0  0  0  0  0  0  0  0  0  0
  -29.7730  -20.1540   20.2680 C   0  0  0  0  0  0  0  0  0  0  0  0
  -28.4410  -23.9140   20.4210 C   0  0  0  0  0  0  0  0  0  0  0  0
  -27.6110  -23.8950   21.3360 O   0  0  0  0  0  0  0  0  0  0  0  0
  -28.5500  -25.2380   19.5500 C   0  0  0  0  0  2  0  0  0  0  0  0
  -28.3910  -26.5330   20.2530 O   0  0  0  0  0  0  0  0  0  0  0  0
  -24.6090  -31.8710   23.2450 C   0  0  0  0  0  0  0  0  0  0  0  0
  -27.2350  -27.3250   20.1810 C   0  0  0  0  0  0  0  0  0  0  0  0
  -23.4040  -30.4680   21.6060 C   0  0  0  0  0  3  0  0  0  0  0  0
  -24.8550  -28.9160   20.1790 C   0  0  0  0  0  0  0  0  0  0  0  0
  -25.9400  -30.7940   21.4180 C   0  0  0  0  0  2  0  0  0  0  0  0
  -26.0200  -29.4150   20.7740 C   0  0  0  0  0  0  0  0  0  0  0  0
  -27.2070  -28.6270   20.7690 C   0  0  0  0  0  3  0  0  0  0  0  0
  -26.0420  -26.8670   19.5750 C   0  0  0  0  0  3  0  0  0  0  0  0
  -24.8670  -27.6480   19.5750 C   0  0  0  0  0  3  0  0  0  0  0  0
  -23.6170  -29.7880   20.2270 C   0  0  0  0  0  2  0  0  0  0  0  0
  -24.6700  -31.0620   22.1470 N   0  0  0  0  0  0  0  0  0  0  0  0
  -23.5270  -32.1480   23.7820 O   0  0  0  0  0  0  0  0  0  0  0  0
  -22.7450  -29.4540   22.5700 C   0  0  0  0  0  0  0  0  0  0  0  0
  -21.4190  -29.2740   22.4430 N   0  0  0  0  0  0  0  0  0  0  0  0
  -23.4250  -28.8310   23.3890 O   0  0  0  0  0  0  0  0  0  0  0  0
  -20.9300  -29.8280   21.7550 H   0  0  0  0  0  0  0  0  0  0  0  0
  -18.0450  -28.0730   22.9410 C   0  0  0  0  0  0  0  0  0  0  0  0
  -20.6020  -28.3370   23.2150 C   0  0  0  0  0  3  0  0  0  0  0  0
  -20.7080  -26.9050   22.6440 C   0  0  0  0  0  2  0  0  0  0  0  0
  -19.6090  -26.5760   21.6290 C   0  0  0  0  0  2  0  0  0  0  0  0
  -18.2260  -26.7210   22.2690 C   0  0  0  0  0  2  0  0  0  0  0  0
  -19.1610  -28.8380   23.3700 C   0  0  0  0  0  0  0  0  0  0  0  0
  -18.9380  -30.1020   23.9580 C   0  0  0  0  0  3  0  0  0  0  0  0
  -17.6320  -30.6010   24.1200 C   0  0  0  0  0  3  0  0  0  0  0  0
  -16.5300  -29.8330   23.7060 C   0  0  0  0  0  3  0  0  0  0  0  0
  -16.7370  -28.5690   23.1220 C   0  0  0  0  0  3  0  0  0  0  0  0
  -25.8930  -32.5060   23.8650 C   0  0  0  0  0  3  0  0  0  0  0  0
  -25.5830  -33.9050   24.1910 N   0  0  0  0  0  0  0  0  0  0  0  0
  -25.9170  -34.9560   23.4310 C   0  0  0  0  0  0  0  0  0  0  0  0
  -26.5880  -34.8490   22.4000 O   0  0  0  0  0  0  0  0  0  0  0  0
  -24.9890  -34.0620   24.9910 H   0  0  0  0  0  0  0  0  0  0  0  0
  -24.1940  -36.7520   23.0690 C   0  0  0  0  0  1  0  0  0  0  0  0
  -25.4320  -36.3460   23.8840 C   0  0  0  0  0  3  0  0  0  0  0  0
  -27.5670  -37.2290   24.7180 C   0  0  0  0  0  1  0  0  0  0  0  0
  -26.4670  -37.3970   23.7710 N   0  0  0  0  0  0  0  0  0  0  0  0
  -26.0640  -38.3190   23.9160 H   0  0  0  0  0  0  0  0  0  0  0  0
  -26.4080  -31.7380   25.1450 C   0  0  1  0  0  0  0  0  0  0  0  0
  -25.3150  -31.5060   26.2150 C   0  0  0  0  0  1  0  0  0  0  0  0
  -26.9890  -30.3590   24.7590 C   0  0  0  0  0  1  0  0  0  0  0  0
  -27.5600  -32.5340   25.8030 C   0  0  0  0  0  1  0  0  0  0  0  0
  -29.3780  -18.6880   20.7150 C   0  0  0  0  0  2  0  0  0  0  0  0
  -30.1830  -17.4020   20.1740 C   0  0  0  0  0  3  0  0  0  0  0  0
  -30.1080  -17.3660   18.6960 N   0  0  0  0  0  4  0  0  0  0  0  0
  -29.1820  -17.1480   18.3750 H   0  0  0  0  0  0  0  0  0  0  0  0
  -30.7550  -16.6930   18.3180 H   0  0  0  0  0  0  0  0  0  0  0  0
  -30.3550  -18.2660   18.3210 H   0  0  0  0  0  0  0  0  0  0  0  0
  -29.8040  -15.9710   20.8140 C   0  0  0  0  0  2  0  0  0  0  0  0
  -30.5700  -14.6560   20.3460 C   0  0  0  0  0  0  0  0  0  0  0  0
  -30.3370  -12.4180   19.2750 C   0  0  0  0  0  2  0  0  0  0  0  0
  -29.3800  -12.5520   18.0690 C   0  0  0  0  0  2  0  0  0  0  0  0
  -27.9110  -12.3930   18.5140 C   0  0  0  0  0  2  0  0  0  0  0  0
  -27.5700  -13.2550   19.7560 C   0  0  0  0  0  3  0  0  0  0  0  0
  -28.6420  -13.1070   20.8600 C   0  0  0  0  0  2  0  0  0  0  0  0
  -29.9460  -13.4360   20.2720 N   0  0  0  0  0  0  0  0  0  0  0  0
  -31.7180  -14.7880   19.9100 O   0  0  0  0  0  0  0  0  0  0  0  0
  -25.1890  -13.8620   20.5110 C   0  0  0  0  0  0  0  0  0  0  0  0
  -24.1240  -13.0920   20.8910 C   0  0  0  0  0  0  0  0  0  0  0  0
  -24.5810  -11.7400   20.8510 C   0  0  0  0  0  0  0  0  0  0  0  0
  -26.2270  -12.9780   20.2600 N   0  0  0  0  0  0  0  0  0  0  0  0
  -25.8670  -11.6960   20.5260 N   0  0  0  0  0  0  0  0  0  0  0  0
  -23.8520  -10.4790   21.0460 C   0  0  0  0  0  0  0  0  0  0  0  0
  -24.2900   -9.5090   21.9740 C   0  0  0  0  0  3  0  0  0  0  0  0
  -23.5610   -8.3140   22.1560 C   0  0  0  0  0  3  0  0  0  0  0  0
  -22.3810   -8.0820   21.4110 C   0  0  0  0  0  0  0  0  0  0  0  0
  -21.9630   -9.0400   20.4730 C   0  0  0  0  0  3  0  0  0  0  0  0
  -22.6910  -10.2270   20.2880 C   0  0  0  0  0  3  0  0  0  0  0  0
  -21.6230   -6.9390   21.5040 O   0  0  0  0  0  0  0  0  0  0  0  0
  -21.5810   -6.1950   22.6560 C   0  0  0  0  0  0  0  0  0  0  0  0
  -21.1620   -6.7490   23.8870 C   0  0  0  0  0  3  0  0  0  0  0  0
  -21.0660   -5.9320   25.0300 C   0  0  0  0  0  3  0  0  0  0  0  0
  -21.3780   -4.5620   24.9450 C   0  0  0  0  0  0  0  0  0  0  0  0
  -21.7890   -4.0070   23.7200 C   0  0  0  0  0  3  0  0  0  0  0  0
  -21.8870   -4.8220   22.5790 C   0  0  0  0  0  0  0  0  0  0  0  0
  -22.2630   -4.2780   21.3960 F   0  0  0  0  0  0  0  0  0  0  0  0
  -21.2790   -3.7750   26.0420 F   0  0  0  0  0  0  0  0  0  0  0  0
  -22.7330  -13.5740   21.1810 C   0  0  0  0  0  0  0  0  0  0  0  0
  -22.0100  -12.8760   22.0500 N   0  0  0  0  0  0  0  0  0  0  0  0
  -22.2940  -14.6050   20.6710 O   0  0  0  0  0  0  0  0  0  0  0  0
  -22.3780  -12.0430   22.4830 H   0  0  0  0  0  0  0  0  0  0  0  0
  -21.0770  -13.1810   22.2860 H   0  0  0  0  0  0  0  0  0  0  0  0
  -25.3560  -15.2330   20.3360 N   0  0  0  0  0  0  0  0  0  0  0  0
  -24.5920  -15.8870   20.4610 H   0  0  0  0  0  0  0  0  0  0  0  0
  -26.2010  -15.6730   19.9950 H   0  0  0  0  0  0  0  0  0  0  0  0
  1  2  2  0
  1  3  1  0
  2  5  1  0
  3  6  2  0
  5  7  1  0
  5  4  2  0
  6  4  1  0
  6 51  1  0
  7  8  2  0
  9 10  1  0
  9  7  1  0
 11 22  2  0
 12 10  1  0
 12 17  1  0
 13 21  1  0
 13 23  1  0
 14 20  1  0
 14 16  1  0
 15 21  1  0
 16 15  1  0
 17 16  2  0
 18 12  2  0
 19 18  1  0
 19 14  2  0
 20 13  1  0
 21 11  1  0
 23 25  2  0
 24 23  1  0
 26 24  1  0
 27 36  2  0
 27 32  1  0
 28 24  1  0
 28 32  1  0
 29 28  1  0
 30 31  1  0
 30 29  1  0
 31 27  1  0
 32 33  2  0
 33 34  1  0
 35 34  2  0
 36 35  1  0
 37 11  1  0
 37 38  1  0
 37 47  1  0
 38 41  1  0
 39 43  1  0
 39 38  1  0
 40 39  2  0
 43 42  1  0
 45 43  1  0
 45 46  1  0
 45 44  1  0
 47 50  1  1
 47 48  1  0
 49 47  1  0
 52 51  1  0
 52 57  1  0
 53 52  1  0
 54 53  1  0
 55 53  1  0
 56 53  1  0
 58 57  1  0
 59 64  1  0
 60 61  1  0
 60 59  1  0
 62 61  1  0
 62 69  1  0
 62 63  1  0
 64 58  1  0
 64 63  1  0
 65 58  2  0
 66 67  2  0
 67 86  1  0
 68 67  1  0
 68 71  1  0
 69 66  1  0
 69 70  1  0
 70 68  2  0
 71 72  1  0
 72 73  2  0
 74 77  1  0
 74 73  1  0
 75 74  2  0
 76 75  1  0
 76 71  2  0
 77 78  1  0
 78 79  1  0
 79 80  2  0
 81 80  1  0
 81 85  1  0
 82 81  2  0
 83 78  2  0
 83 82  1  0
 84 83  1  0
 86 87  1  0
 87 90  1  0
 87 89  1  0
 88 86  2  0
 91 92  1  0
 91 66  1  0
 93 91  1  0
M  ISO  4   9 101  10 101  57 100  58 100
M  END
>  <TORSDO>  (84) 
F 22

>  <SCORE>  (84) 
-13.357

>  <name>  (84) 
84

>  <ligand_id>  (84) 
84

>  <original_smiles>  (84) 
[H]c1c([H])c([H])c2c(c1[H])C([H])([H])C([H])([H])C([H])([H])C2([H])N([H])C(=O)C1([H])N(C(=O)C([H])(N([H])C(=O)C([H])(N([H])C([H])([H])[H])C([H])([H])[H])C(C([H])([H])[H])(C([H])([H])[H])C([H])([H])[H])C([H])([H])c2c([H])c(OC([H])([H])C(=O)c3c([H])c([H])c([H])c(C([H])([H])C([H])(C([H])([H])C(=O)N4C([H])([H])C([H])([H])C([H])([H])C([H])(n5nc(-c6c([H])c([H])c(Oc7c([H])c([H])c(F)c([H])c7F)c([H])c6[H])c(C(=O)N([H])[H])c5N([H])[H])C4([H])[H])[N+]([H])([H])[H])c3[H])c([H])c([H])c2C1([H])[H]

>  <smiles>  (84) 
[H]c1c([H])c([H])c2c(c1[H])C([H])([H])C([H])([H])C([H])([H])C2([H])N([H])C(=O)C1([H])N(C(=O)C([H])(N([H])C(=O)C([H])(N([H])C([H])([H])[H])C([H])([H])[H])C(C([H])([H])[H])(C([H])([H])[H])C([H])([H])[H])C([H])([H])c2c([H])c(OC([H])([H])C(=O)c3c([H])c([H])c([H])c(C([H])([H])C([H])(C([H])([H])C(=O)N4C([H])([H])C([H])([H])C([H])([H])C([H])(n5nc(-c6c([H])c([H])c(Oc7c([H])c([H])c(F)c([H])c7F)c([H])c6[H])c(C(=O)N([H])[H])c5N([H])[H])C4([H])[H])[N+]([H])([H])[H])c3[H])c([H])c([H])c2C1([H])[H]

$$$$
85:0:0
     RDKit          3D

 91 99  0  0  1  0  0  0  0  0999 V2000
  -30.4450  -21.1740   20.6600 C   0  0  0  0  0  3  0  0  0  0  0  0
  -28.2440  -20.2140   21.0350 C   0  0  0  0  0  3  0  0  0  0  0  0
  -29.8740  -22.4660   20.6390 C   0  0  0  0  0  3  0  0  0  0  0  0
  -27.6760  -21.4990   21.0050 C   0  0  0  0  0  3  0  0  0  0  0  0
  -29.6350  -20.0300   20.8720 C   0  0  0  0  0  0  0  0  0  0  0  0
  -28.4840  -22.6380   20.8220 C   0  0  0  0  0  0  0  0  0  0  0  0
  -30.1860  -18.6420   20.9730 C   0  0  0  0  0  0  0  0  0  0  0  0
  -29.6000  -17.7510   21.5940 O   0  0  0  0  0  0  0  0  0  0  0  0
  -31.5210  -18.3200   20.2730 C   0  0  0  0  0  2  0  0  0  0  0  0
  -32.2290  -17.0310   20.7670 C   0  0  0  0  0  2  0  0  0  0  0  0
  -31.3730  -15.7320   20.7430 C   0  0  0  0  0  2  0  0  0  0  0  0
  -31.7970  -14.6190   19.7620 C   0  0  0  0  0  0  0  0  0  0  0  0
  -31.3490  -12.3810   18.7970 C   0  0  0  0  0  2  0  0  0  0  0  0
  -30.3290  -12.4560   17.6450 C   0  0  0  0  0  2  0  0  0  0  0  0
  -28.8840  -12.4200   18.1810 C   0  0  0  0  0  2  0  0  0  0  0  0
  -28.6530  -13.4260   19.3390 C   0  0  0  0  0  3  0  0  0  0  0  0
  -29.7640  -13.2900   20.4020 C   0  0  0  0  0  2  0  0  0  0  0  0
  -31.0630  -13.4770   19.7330 N   0  0  0  0  0  0  0  0  0  0  0  0
  -32.7840  -14.7890   19.0370 O   0  0  0  0  0  0  0  0  0  0  0  0
  -26.4010  -14.2440   20.2910 C   0  0  0  0  0  0  0  0  0  0  0  0
  -25.2890  -13.5670   20.7160 C   0  0  0  0  0  0  0  0  0  0  0  0
  -25.5930  -12.1790   20.5710 C   0  0  0  0  0  0  0  0  0  0  0  0
  -27.3200  -13.2720   19.9210 N   0  0  0  0  0  0  0  0  0  0  0  0
  -26.8390  -12.0220   20.1420 N   0  0  0  0  0  0  0  0  0  0  0  0
  -24.7510  -10.9910   20.7620 C   0  0  0  0  0  0  0  0  0  0  0  0
  -25.0950   -9.9840   21.6910 C   0  0  0  0  0  3  0  0  0  0  0  0
  -24.2620   -8.8600   21.8690 C   0  0  0  0  0  3  0  0  0  0  0  0
  -23.0700   -8.7340   21.1180 C   0  0  0  0  0  0  0  0  0  0  0  0
  -22.7440   -9.7270   20.1780 C   0  0  0  0  0  3  0  0  0  0  0  0
  -23.5770  -10.8440   19.9970 C   0  0  0  0  0  3  0  0  0  0  0  0
  -22.2130   -7.6640   21.2040 O   0  0  0  0  0  0  0  0  0  0  0  0
  -21.9950   -7.0110   22.3910 C   0  0  0  0  0  0  0  0  0  0  0  0
  -21.4930   -7.6790   23.5280 C   0  0  0  0  0  3  0  0  0  0  0  0
  -21.2190   -6.9550   24.7070 C   0  0  0  0  0  3  0  0  0  0  0  0
  -21.4360   -5.5650   24.7460 C   0  0  0  0  0  0  0  0  0  0  0  0
  -21.9310   -4.8970   23.6120 C   0  0  0  0  0  3  0  0  0  0  0  0
  -22.2070   -5.6170   22.4370 C   0  0  0  0  0  0  0  0  0  0  0  0
  -22.6630   -4.9660   21.3400 F   0  0  0  0  0  0  0  0  0  0  0  0
  -21.1660   -4.8680   25.8740 F   0  0  0  0  0  0  0  0  0  0  0  0
  -23.9830  -14.1700   21.1440 C   0  0  0  0  0  0  0  0  0  0  0  0
  -23.2720  -13.5150   22.0560 N   0  0  0  0  0  0  0  0  0  0  0  0
  -23.6050  -15.2560   20.7050 O   0  0  0  0  0  0  0  0  0  0  0  0
  -23.5920  -12.6350   22.4320 H   0  0  0  0  0  0  0  0  0  0  0  0
  -22.3970  -13.9000   22.3810 H   0  0  0  0  0  0  0  0  0  0  0  0
  -26.7030  -15.5980   20.1710 N   0  0  0  0  0  0  0  0  0  0  0  0
  -26.0320  -16.3250   20.3920 H   0  0  0  0  0  0  0  0  0  0  0  0
  -27.5740  -15.9600   19.8050 H   0  0  0  0  0  0  0  0  0  0  0  0
  -27.7990  -24.0020   20.8400 C   0  0  0  0  0  2  0  0  0  0  0  0
  -28.6940  -25.2570   20.9070 C   0  0  0  0  0  2  0  0  0  0  0  0
  -29.0830  -25.8430   19.5340 C   0  0  0  0  0  2  0  0  0  0  0  0
  -28.9770  -27.2700   19.5510 O   0  0  0  0  0  0  0  0  0  0  0  0
  -24.5570  -31.6310   23.0170 C   0  0  0  0  0  0  0  0  0  0  0  0
  -27.7150  -27.8270   19.5930 C   0  0  0  0  0  0  0  0  0  0  0  0
  -23.5390  -30.2970   21.2000 C   0  0  0  0  0  3  0  0  0  0  0  0
  -25.1740  -29.0640   19.6830 C   0  0  0  0  0  0  0  0  0  0  0  0
  -26.0190  -30.9200   21.1290 C   0  0  0  0  0  2  0  0  0  0  0  0
  -26.2570  -29.6390   20.3580 C   0  0  0  0  0  0  0  0  0  0  0  0
  -27.5290  -29.0290   20.3080 C   0  0  0  0  0  3  0  0  0  0  0  0
  -26.6110  -27.2570   18.9170 C   0  0  0  0  0  3  0  0  0  0  0  0
  -25.3440  -27.8690   18.9610 C   0  0  0  0  0  3  0  0  0  0  0  0
  -23.8480  -29.7860   19.7680 C   0  0  0  0  0  2  0  0  0  0  0  0
  -24.7200  -30.9600   21.8420 N   0  0  0  0  0  0  0  0  0  0  0  0
  -23.4400  -31.7420   23.5410 O   0  0  0  0  0  0  0  0  0  0  0  0
  -22.9690  -29.1240   22.0290 C   0  0  0  0  0  0  0  0  0  0  0  0
  -21.6600  -28.8640   21.8750 N   0  0  0  0  0  0  0  0  0  0  0  0
  -23.7010  -28.4530   22.7610 O   0  0  0  0  0  0  0  0  0  0  0  0
  -21.1290  -29.4620   21.2570 H   0  0  0  0  0  0  0  0  0  0  0  0
  -18.3700  -27.4260   22.2600 C   0  0  0  0  0  0  0  0  0  0  0  0
  -20.9160  -27.7850   22.5210 C   0  0  0  0  0  3  0  0  0  0  0  0
  -21.0800  -26.4550   21.7500 C   0  0  0  0  0  2  0  0  0  0  0  0
  -19.9710  -26.2140   20.7200 C   0  0  0  0  0  2  0  0  0  0  0  0
  -18.6010  -26.1930   21.4020 C   0  0  0  0  0  2  0  0  0  0  0  0
  -19.4570  -28.1830   22.7720 C   0  0  0  0  0  0  0  0  0  0  0  0
  -19.1860  -29.3400   23.5340 C   0  0  0  0  0  3  0  0  0  0  0  0
  -17.8620  -29.7420   23.7880 C   0  0  0  0  0  3  0  0  0  0  0  0
  -16.7900  -28.9790   23.2930 C   0  0  0  0  0  3  0  0  0  0  0  0
  -17.0440  -27.8230   22.5340 C   0  0  0  0  0  3  0  0  0  0  0  0
  -25.7580  -32.3130   23.7430 C   0  0  0  0  0  3  0  0  0  0  0  0
  -25.3400  -33.6720   24.1080 N   0  0  0  0  0  0  0  0  0  0  0  0
  -25.6480  -34.7740   23.4120 C   0  0  0  0  0  0  0  0  0  0  0  0
  -26.3870  -34.7570   22.4220 O   0  0  0  0  0  0  0  0  0  0  0  0
  -24.6860  -33.7550   24.8720 H   0  0  0  0  0  0  0  0  0  0  0  0
  -23.8280  -36.4640   23.0190 C   0  0  0  0  0  1  0  0  0  0  0  0
  -25.0440  -36.1080   23.8880 C   0  0  0  0  0  3  0  0  0  0  0  0
  -27.0620  -37.0950   24.8800 C   0  0  0  0  0  1  0  0  0  0  0  0
  -26.0100  -37.2290   23.8760 N   0  0  0  0  0  0  0  0  0  0  0  0
  -25.5360  -38.1150   24.0290 H   0  0  0  0  0  0  0  0  0  0  0  0
  -26.2490  -31.5180   25.0160 C   0  0  1  0  0  0  0  0  0  0  0  0
  -25.1110  -31.1640   26.0030 C   0  0  0  0  0  1  0  0  0  0  0  0
  -26.9420  -30.1990   24.6000 C   0  0  0  0  0  1  0  0  0  0  0  0
  -27.3050  -32.3520   25.7790 C   0  0  0  0  0  1  0  0  0  0  0  0
  1  5  1  0
  3  1  2  0
  3  6  1  0
  4  2  1  0
  5  7  1  0
  5  2  2  0
  6 48  1  0
  6  4  2  0
  7  8  2  0
  9 10  1  0
  9  7  1  0
 11 10  1  0
 12 11  1  0
 13 18  1  0
 14 15  1  0
 14 13  1  0
 16 15  1  0
 16 23  1  0
 16 17  1  0
 18 12  1  0
 18 17  1  0
 19 12  2  0
 20 21  2  0
 21 40  1  0
 22 21  1  0
 22 25  1  0
 23 24  1  0
 23 20  1  0
 24 22  2  0
 25 26  1  0
 26 27  2  0
 28 31  1  0
 28 27  1  0
 29 28  2  0
 30 29  1  0
 30 25  2  0
 31 32  1  0
 32 37  2  0
 32 33  1  0
 33 34  2  0
 34 35  1  0
 35 39  1  0
 36 35  2  0
 37 36  1  0
 38 37  1  0
 40 41  1  0
 41 44  1  0
 41 43  1  0
 42 40  2  0
 45 20  1  0
 45 46  1  0
 47 45  1  0
 48 49  1  0
 50 51  1  0
 50 49  1  0
 51 53  1  0
 52 63  2  0
 53 58  1  0
 54 62  1  0
 54 64  1  0
 55 61  1  0
 55 57  1  0
 56 62  1  0
 57 56  1  0
 58 57  2  0
 59 60  1  0
 59 53  2  0
 60 55  2  0
 61 54  1  0
 62 52  1  0
 64 66  2  0
 65 64  1  0
 67 65  1  0
 68 77  2  0
 68 73  1  0
 69 65  1  0
 69 73  1  0
 70 69  1  0
 71 72  1  0
 71 70  1  0
 72 68  1  0
 73 74  2  0
 74 75  1  0
 76 75  2  0
 77 76  1  0
 78 52  1  0
 78 79  1  0
 78 88  1  0
 79 82  1  0
 80 84  1  0
 80 79  1  0
 81 80  2  0
 84 83  1  0
 86 84  1  0
 86 87  1  0
 86 85  1  0
 88 91  1  1
 88 89  1  0
 90 88  1  0
M  ISO  4  11 100  12 100  50 101  51 101
M  END
>  <TORSDO>  (85) 
F 23

>  <SCORE>  (85) 
-9.968

>  <name>  (85) 
85

>  <ligand_id>  (85) 
85

>  <original_smiles>  (85) 
[H]c1c([H])c([H])c2c(c1[H])C([H])([H])C([H])([H])C([H])([H])C2([H])N([H])C(=O)C1([H])N(C(=O)C([H])(N([H])C(=O)C([H])(N([H])C([H])([H])[H])C([H])([H])[H])C(C([H])([H])[H])(C([H])([H])[H])C([H])([H])[H])C([H])([H])c2c([H])c(OC([H])([H])C([H])([H])C([H])([H])c3c([H])c([H])c(C(=O)C([H])([H])C([H])([H])C([H])([H])C(=O)N4C([H])([H])C([H])([H])C([H])([H])C([H])(n5nc(-c6c([H])c([H])c(Oc7c([H])c([H])c(F)c([H])c7F)c([H])c6[H])c(C(=O)N([H])[H])c5N([H])[H])C4([H])[H])c([H])c3[H])c([H])c([H])c2C1([H])[H]

>  <smiles>  (85) 
[H]c1c([H])c([H])c2c(c1[H])C([H])([H])C([H])([H])C([H])([H])C2([H])N([H])C(=O)C1([H])N(C(=O)C([H])(N([H])C(=O)C([H])(N([H])C([H])([H])[H])C([H])([H])[H])C(C([H])([H])[H])(C([H])([H])[H])C([H])([H])[H])C([H])([H])c2c([H])c(OC([H])([H])C([H])([H])C([H])([H])c3c([H])c([H])c(C(=O)C([H])([H])C([H])([H])C([H])([H])C(=O)N4C([H])([H])C([H])([H])C([H])([H])C([H])(n5nc(-c6c([H])c([H])c(Oc7c([H])c([H])c(F)c([H])c7F)c([H])c6[H])c(C(=O)N([H])[H])c5N([H])[H])C4([H])[H])c([H])c3[H])c([H])c([H])c2C1([H])[H]

$$$$
86:0:0
     RDKit          3D

 96100  0  0  1  0  0  0  0  0999 V2000
  -23.7790  -24.9220   23.5970 C   0  0  0  0  0  3  0  0  0  0  0  0
  -24.6150  -23.7150   23.0740 C   0  0  0  0  0  3  0  0  0  0  0  0
  -25.3720  -26.2940   22.9380 C   0  0  0  0  0  3  0  0  0  0  0  0
  -24.0010  -26.4190   23.5410 C   0  0  0  0  0  0  0  0  0  0  0  0
  -25.9810  -23.6160   22.4320 C   0  0  0  0  0  0  0  0  0  0  0  0
  -26.2360  -25.0970   22.4780 C   0  0  0  0  0  0  0  0  0  0  0  0
  -27.6240  -25.4870   22.0100 C   0  0  0  0  0  1  0  0  0  0  0  0
  -23.0260  -27.8910   24.0910 C   0  0  0  0  0  0  0  0  0  0  0  0
  -22.1420  -29.0840   23.3440 N   0  0  0  0  0  2  0  0  0  0  0  0
  -23.0460  -27.9360   25.3220 O   0  0  0  0  0  0  0  0  0  0  0  0
  -21.7280  -29.6790   24.0530 H   0  0  0  0  0  0  0  0  0  0  0  0
  -21.4520  -29.5740   21.5110 C   0  0  0  0  0 15  0  0  0  0  0  0
  -21.9730  -28.4550   19.6120 C   0  0  0  0  0 15  0  0  0  0  0  0
  -23.7260  -27.5770   19.1970 O   0  0  0  0  0  1  0  0  0  0  0  0
  -24.5310  -31.4390   22.6560 C   0  0  0  0  0  0  0  0  0  0  0  0
  -25.2540  -27.6650   18.9960 C   0  0  0  0  0  3  0  0  0  0  0  0
  -23.6700  -29.8950   20.9820 C   0  0  0  0  0  3  0  0  0  0  0  0
  -24.5620  -29.9550   18.5850 C   0  0  0  0  0  3  0  0  0  0  0  0
  -25.7940  -30.9540   20.5290 C   0  0  0  0  0  2  0  0  0  0  0  0
  -25.6930  -29.9280   19.3970 C   0  0  0  0  0  3  0  0  0  0  0  0
  -26.1790  -28.6310   19.5520 C   0  0  0  0  0  2  0  0  0  0  0  0
  -25.2550  -27.8430   17.6320 C   0  0  0  0  0  2  0  0  0  0  0  0
  -24.4300  -28.9910   17.5320 C   0  0  0  0  0  2  0  0  0  0  0  0
  -23.4560  -30.4260   19.4330 C   0  0  0  0  0  2  0  0  0  0  0  0
  -24.6920  -30.7580   21.4920 N   0  0  0  0  0  0  0  0  0  0  0  0
  -23.4900  -31.4150   23.3390 O   0  0  0  0  0  0  0  0  0  0  0  0
  -23.8780  -28.2090   21.5810 C   0  0  0  0  0  0  0  0  0  0  0  0
  -22.9560  -26.8990   21.3020 N   0  0  0  0  0  0  0  0  0  0  0  0
  -24.6290  -28.1520   22.4940 O   0  0  0  0  0  0  0  0  0  0  0  0
  -23.5750  -26.0880   21.3140 H   0  0  0  0  0  0  0  0  0  0  0  0
  -18.3720  -26.3470   21.5060 C   0  0  0  0  0  0  0  0  0  0  0  0
  -21.1960  -26.3260   21.5070 C   0  0  0  0  0  3  0  0  0  0  0  0
  -21.0470  -25.3190   20.4750 C   0  0  0  0  0  2  0  0  0  0  0  0
  -19.8000  -25.4560   19.6650 C   0  0  0  0  0  2  0  0  0  0  0  0
  -18.5390  -25.2700   20.4860 C   0  0  0  0  0  2  0  0  0  0  0  0
  -19.5600  -26.9490   22.0530 C   0  0  0  0  0  0  0  0  0  0  0  0
  -19.0930  -27.9980   23.0110 C   0  0  0  0  0  3  0  0  0  0  0  0
  -17.7330  -28.3950   23.2750 C   0  0  0  0  0  3  0  0  0  0  0  0
  -16.6620  -27.7250   22.6740 C   0  0  0  0  0  3  0  0  0  0  0  0
  -17.0080  -26.6810   21.8030 C   0  0  0  0  0  3  0  0  0  0  0  0
  -25.7680  -32.1900   23.1940 C   0  0  0  0  0  3  0  0  0  0  0  0
  -25.3440  -33.4890   23.7290 N   0  0  0  0  0  0  0  0  0  0  0  0
  -25.5720  -34.6580   23.1220 C   0  0  0  0  0  0  0  0  0  0  0  0
  -26.1820  -34.7380   22.0530 O   0  0  0  0  0  0  0  0  0  0  0  0
  -24.8200  -33.4960   24.5920 H   0  0  0  0  0  0  0  0  0  0  0  0
  -23.7760  -36.4230   23.0690 C   0  0  0  0  0  1  0  0  0  0  0  0
  -25.0390  -35.9360   23.7970 C   0  0  0  0  0  3  0  0  0  0  0  0
  -27.1560  -36.7550   24.7310 C   0  0  0  0  0  1  0  0  0  0  0  0
  -26.0330  -37.0320   23.8410 N   0  0  0  0  0  0  0  0  0  0  0  0
  -25.6020  -37.9010   24.1470 H   0  0  0  0  0  0  0  0  0  0  0  0
  -26.5060  -31.3360   24.2920 C   0  0  1  0  0  0  0  0  0  0  0  0
  -25.5800  -30.8080   25.4160 C   0  0  0  0  0  1  0  0  0  0  0  0
  -27.2590  -30.1290   23.6850 C   0  0  0  0  0  1  0  0  0  0  0  0
  -27.6180  -32.1920   24.9280 C   0  0  0  0  0  1  0  0  0  0  0  0
  -26.9470  -22.2190   21.5120 C   0  0  0  0  0  2  0  0  0  0  0  0
  -28.0000  -20.7630   21.6370 N   0  0  0  0  0  4  0  0  0  0  0  0
  -28.8090  -21.1750   22.0700 H   0  0  0  0  0  0  0  0  0  0  0  0
  -27.5480  -20.2510   22.3770 H   0  0  0  0  0  0  0  0  0  0  0  0
  -28.6710  -19.4640   20.5450 C   0  0  0  0  0  1  0  0  0  0  0  0
  -29.3800  -17.5760   20.6120 C   0  0  0  0  0  1  0  0  0  0  0  0
  -30.4990  -16.2010   19.8090 C   0  0  0  0  0  0  0  0  0  0  0  0
  -31.0260  -13.6690   18.8350 C   0  0  0  0  0  2  0  0  0  0  0  0
  -30.1310  -13.1590   17.6480 C   0  0  0  0  0  2  0  0  0  0  0  0
  -28.7180  -12.7700   18.1240 C   0  0  0  0  0  2  0  0  0  0  0  0
  -28.2320  -13.7970   19.1670 C   0  0  0  0  0  3  0  0  0  0  0  0
  -29.2360  -14.0180   20.2980 C   0  0  0  0  0  2  0  0  0  0  0  0
  -30.3220  -14.7520   19.6960 N   0  0  0  0  0  0  0  0  0  0  0  0
  -31.6330  -16.3890   19.2820 O   0  0  0  0  0  0  0  0  0  0  0  0
  -25.9820  -14.3980   20.1240 C   0  0  0  0  0  0  0  0  0  0  0  0
  -24.9500  -13.6390   20.5880 C   0  0  0  0  0  0  0  0  0  0  0  0
  -25.3750  -12.2790   20.4770 C   0  0  0  0  0  0  0  0  0  0  0  0
  -26.9520  -13.4960   19.7420 N   0  0  0  0  0  0  0  0  0  0  0  0
  -26.6190  -12.2160   20.0230 N   0  0  0  0  0  0  0  0  0  0  0  0
  -24.6460  -11.0320   20.7140 C   0  0  0  0  0  0  0  0  0  0  0  0
  -25.0280  -10.1330   21.7330 C   0  0  0  0  0  3  0  0  0  0  0  0
  -24.2940   -8.9470   21.9460 C   0  0  0  0  0  3  0  0  0  0  0  0
  -23.1650   -8.6590   21.1440 C   0  0  0  0  0  0  0  0  0  0  0  0
  -22.8070   -9.5460   20.1140 C   0  0  0  0  0  3  0  0  0  0  0  0
  -23.5420  -10.7210   19.8970 C   0  0  0  0  0  3  0  0  0  0  0  0
  -22.4020   -7.5230   21.2650 O   0  0  0  0  0  0  0  0  0  0  0  0
  -22.0880   -7.0000   22.4930 C   0  0  0  0  0  0  0  0  0  0  0  0
  -21.4370   -7.7650   23.4860 C   0  0  0  0  0  3  0  0  0  0  0  0
  -21.0680   -7.1640   24.7060 C   0  0  0  0  0  3  0  0  0  0  0  0
  -21.3410   -5.8000   24.9310 C   0  0  0  0  0  0  0  0  0  0  0  0
  -21.9840   -5.0380   23.9410 C   0  0  0  0  0  3  0  0  0  0  0  0
  -22.3540   -5.6360   22.7240 C   0  0  0  0  0  0  0  0  0  0  0  0
  -22.9580   -4.8920   21.7640 F   0  0  0  0  0  0  0  0  0  0  0  0
  -20.9790   -5.2210   26.0990 F   0  0  0  0  0  0  0  0  0  0  0  0
  -23.6070  -14.1470   21.0140 C   0  0  0  0  0  0  0  0  0  0  0  0
  -22.9960  -13.5000   22.0000 N   0  0  0  0  0  0  0  0  0  0  0  0
  -23.1170  -15.1510   20.5000 O   0  0  0  0  0  0  0  0  0  0  0  0
  -23.4140  -12.6860   22.4280 H   0  0  0  0  0  0  0  0  0  0  0  0
  -22.0960  -13.8170   22.3350 H   0  0  0  0  0  0  0  0  0  0  0  0
  -26.1800  -15.7700   19.9780 N   0  0  0  0  0  0  0  0  0  0  0  0
  -25.4450  -16.4420   20.1660 H   0  0  0  0  0  0  0  0  0  0  0  0
  -26.9870  -16.1780   19.5280 H   0  0  0  0  0  0  0  0  0  0  0  0
  2  1  2  0
  3  4  2  0
  4  1  1  0
  4  8  1  0
  5  6  2  0
  5  2  1  0
  6  3  1  0
  7  6  1  0
  8 10  2  0
  9 11  1  0
  9  8  1  0
 15 26  2  0
 16 14  1  0
 16 21  1  0
 17 25  1  0
 17 27  1  0
 18 23  1  0
 18 20  1  0
 18 24  1  0
 19 25  1  0
 20 21  1  0
 20 19  1  0
 22 16  1  0
 23 22  1  0
 24 17  1  0
 25 15  1  0
 27 29  2  0
 28 30  1  0
 28 27  1  0
 31 40  2  0
 31 36  1  0
 32 28  1  0
 32 36  1  0
 33 32  1  0
 34 33  1  0
 34 35  1  0
 35 31  1  0
 36 37  2  0
 37 38  1  0
 39 38  2  0
 40 39  1  0
 41 15  1  0
 41 42  1  0
 41 51  1  0
 42 45  1  0
 43 42  1  0
 43 47  1  0
 44 43  2  0
 47 46  1  0
 47 49  1  0
 49 50  1  0
 49 48  1  0
 51 54  1  1
 51 52  1  0
 53 51  1  0
 55 56  1  0
 55  5  1  0
 56 57  1  0
 56 58  1  0
 59 56  1  0
 61 60  1  0
 62 67  1  0
 63 64  1  0
 63 62  1  0
 65 64  1  0
 65 72  1  0
 65 66  1  0
 67 61  1  0
 67 66  1  0
 68 61  2  0
 69 70  2  0
 70 89  1  0
 71 70  1  0
 71 74  1  0
 72 73  1  0
 72 69  1  0
 73 71  2  0
 74 75  1  0
 75 76  2  0
 77 80  1  0
 77 76  1  0
 78 77  2  0
 79 78  1  0
 79 74  2  0
 80 81  1  0
 81 86  2  0
 81 82  1  0
 82 83  2  0
 83 84  1  0
 84 88  1  0
 85 84  2  0
 86 85  1  0
 87 86  1  0
 89 90  1  0
 90 93  1  0
 90 92  1  0
 91 89  2  0
 94 69  1  0
 94 95  1  0
 96 94  1  0
M  ISO  4  13 101  14 101  60 100  61 100
M  END
>  <TORSDO>  (86) 
F 23

>  <SCORE>  (86) 
-11.287

>  <name>  (86) 
86

>  <ligand_id>  (86) 
86

>  <original_smiles>  (86) 
[H]c1c([H])c([H])c2c(c1[H])C([H])([H])C([H])([H])C([H])([H])C2([H])N([H])C(=O)C1([H])N(C(=O)C([H])(N([H])C(=O)C([H])(N([H])C([H])([H])[H])C([H])([H])[H])C(C([H])([H])[H])(C([H])([H])[H])C([H])([H])[H])C([H])([H])c2c([H])c(OC([H])([H])C([H])([H])N([H])C(=O)c3c([H])c([H])c(C([H])([H])[N+]([H])([H])C([H])([H])C([H])([H])C(=O)N4C([H])([H])C([H])([H])C([H])([H])C([H])(n5nc(-c6c([H])c([H])c(Oc7c([H])c([H])c(F)c([H])c7F)c([H])c6[H])c(C(=O)N([H])[H])c5N([H])[H])C4([H])[H])c(C([H])([H])[H])c3[H])c([H])c([H])c2C1([H])[H]

>  <smiles>  (86) 
[H]c1c([H])c([H])c2c(c1[H])C([H])([H])C([H])([H])C([H])([H])C2([H])N([H])C(=O)C1([H])N(C(=O)C([H])(N([H])C(=O)C([H])(N([H])C([H])([H])[H])C([H])([H])[H])C(C([H])([H])[H])(C([H])([H])[H])C([H])([H])[H])C([H])([H])c2c([H])c(OC([H])([H])C([H])([H])N([H])C(=O)c3c([H])c([H])c(C([H])([H])[N+]([H])([H])C([H])([H])C([H])([H])C(=O)N4C([H])([H])C([H])([H])C([H])([H])C([H])(n5nc(-c6c([H])c([H])c(Oc7c([H])c([H])c(F)c([H])c7F)c([H])c6[H])c(C(=O)N([H])[H])c5N([H])[H])C4([H])[H])c(C([H])([H])[H])c3[H])c([H])c([H])c2C1([H])[H]

$$$$
87:0:0
     RDKit          3D

 91 99  0  0  1  0  0  0  0  0999 V2000
  -28.4570  -20.1810   21.1390 C   0  0  0  0  0  3  0  0  0  0  0  0
  -28.8470  -18.8440   20.8570 C   0  0  0  0  0  3  0  0  0  0  0  0
  -30.2930  -21.0230   19.8400 C   0  0  0  0  0  3  0  0  0  0  0  0
  -29.1510  -21.3120   20.6260 C   0  0  0  0  0  0  0  0  0  0  0  0
  -29.9900  -18.5460   20.0740 C   0  0  0  0  0  0  0  0  0  0  0  0
  -30.7010  -19.6820   19.5630 C   0  0  0  0  0  0  0  0  0  0  0  0
  -31.9160  -19.5040   18.6630 C   0  0  0  0  0  1  0  0  0  0  0  0
  -28.6580  -22.7230   20.9710 C   0  0  0  0  0  0  0  0  0  0  0  0
  -27.7760  -22.8650   21.8250 O   0  0  0  0  0  0  0  0  0  0  0  0
  -29.2190  -24.0350   20.3090 C   0  0  0  0  0  2  0  0  0  0  0  0
  -28.1280  -25.1230   19.9370 C   0  0  0  0  0  2  0  0  0  0  0  0
  -28.3730  -26.5690   20.0970 O   0  0  0  0  0  0  0  0  0  0  0  0
  -24.5510  -31.8460   23.1630 C   0  0  0  0  0  0  0  0  0  0  0  0
  -27.2400  -27.3950   20.0470 C   0  0  0  0  0  0  0  0  0  0  0  0
  -23.3680  -30.4570   21.5000 C   0  0  0  0  0  3  0  0  0  0  0  0
  -24.8450  -28.9550   20.0580 C   0  0  0  0  0  0  0  0  0  0  0  0
  -25.9070  -30.8150   21.3350 C   0  0  0  0  0  2  0  0  0  0  0  0
  -26.0070  -29.4550   20.6630 C   0  0  0  0  0  0  0  0  0  0  0  0
  -27.2070  -28.6870   20.6470 C   0  0  0  0  0  3  0  0  0  0  0  0
  -26.0520  -26.9480   19.4190 C   0  0  0  0  0  3  0  0  0  0  0  0
  -24.8680  -27.7050   19.4300 C   0  0  0  0  0  3  0  0  0  0  0  0
  -23.5940  -29.8060   20.1110 C   0  0  0  0  0  2  0  0  0  0  0  0
  -24.6250  -31.0550   22.0550 N   0  0  0  0  0  0  0  0  0  0  0  0
  -23.4640  -32.1030   23.6980 O   0  0  0  0  0  0  0  0  0  0  0  0
  -22.7180  -29.4160   22.4420 C   0  0  0  0  0  0  0  0  0  0  0  0
  -21.3980  -29.2130   22.2950 N   0  0  0  0  0  0  0  0  0  0  0  0
  -23.3980  -28.7980   23.2640 O   0  0  0  0  0  0  0  0  0  0  0  0
  -20.9070  -29.7710   21.6090 H   0  0  0  0  0  0  0  0  0  0  0  0
  -18.0400  -27.9460   22.7290 C   0  0  0  0  0  0  0  0  0  0  0  0
  -20.5850  -28.2530   23.0450 C   0  0  0  0  0  3  0  0  0  0  0  0
  -20.7260  -26.8270   22.4650 C   0  0  0  0  0  2  0  0  0  0  0  0
  -19.6490  -26.4890   21.4290 C   0  0  0  0  0  2  0  0  0  0  0  0
  -18.2540  -26.6040   22.0490 C   0  0  0  0  0  2  0  0  0  0  0  0
  -19.1350  -28.7280   23.1810 C   0  0  0  0  0  0  0  0  0  0  0  0
  -18.8840  -29.9840   23.7740 C   0  0  0  0  0  3  0  0  0  0  0  0
  -17.5680  -30.4600   23.9230 C   0  0  0  0  0  3  0  0  0  0  0  0
  -16.4850  -29.6750   23.4900 C   0  0  0  0  0  3  0  0  0  0  0  0
  -16.7200  -28.4220   22.8980 C   0  0  0  0  0  3  0  0  0  0  0  0
  -25.8260  -32.4810   23.7980 C   0  0  0  0  0  3  0  0  0  0  0  0
  -26.3460  -31.6970   25.0660 C   0  0  1  0  0  0  0  0  0  0  0  0
  -25.2500  -31.4260   26.1230 C   0  0  0  0  0  1  0  0  0  0  0  0
  -26.9510  -30.3310   24.6660 C   0  0  0  0  0  1  0  0  0  0  0  0
  -27.4840  -32.4970   25.7420 C   0  0  0  0  0  1  0  0  0  0  0  0
  -25.5000  -33.8720   24.1410 N   0  0  0  0  0  0  0  0  0  0  0  0
  -25.8310  -34.9370   23.3990 C   0  0  0  0  0  0  0  0  0  0  0  0
  -26.5080  -34.8530   22.3700 O   0  0  0  0  0  0  0  0  0  0  0  0
  -24.8960  -34.0100   24.9360 H   0  0  0  0  0  0  0  0  0  0  0  0
  -24.0870  -36.7200   23.0570 C   0  0  0  0  0  1  0  0  0  0  0  0
  -25.3270  -36.3160   23.8690 C   0  0  0  0  0  3  0  0  0  0  0  0
  -27.4480  -37.2120   24.7230 C   0  0  0  0  0  1  0  0  0  0  0  0
  -26.3490  -37.3810   23.7760 N   0  0  0  0  0  0  0  0  0  0  0  0
  -25.9320  -38.2950   23.9300 H   0  0  0  0  0  0  0  0  0  0  0  0
  -30.4340  -17.0810   19.6740 C   0  0  0  0  0  2  0  0  0  0  0  0
  -30.8470  -14.6580   20.0860 C   0  0  0  0  0  0  0  0  0  0  0  0
  -30.4880  -12.4860   18.9380 C   0  0  0  0  0  2  0  0  0  0  0  0
  -29.5000  -12.6910   17.7710 C   0  0  0  0  0  2  0  0  0  0  0  0
  -28.0460  -12.5330   18.2600 C   0  0  0  0  0  2  0  0  0  0  0  0
  -27.7610  -13.3400   19.5540 C   0  0  0  0  0  3  0  0  0  0  0  0
  -28.8670  -13.1180   20.6060 C   0  0  0  0  0  2  0  0  0  0  0  0
  -30.1500  -13.4790   19.9810 N   0  0  0  0  0  0  0  0  0  0  0  0
  -31.9700  -14.7490   19.5770 O   0  0  0  0  0  0  0  0  0  0  0  0
  -29.7630  -15.9620   21.8510 C   0  0  0  0  0  1  0  0  0  0  0  0
  -30.1780  -15.8080   20.4550 N   0  0  0  0  0  0  0  0  0  0  0  0
  -25.3980  -13.9200   20.3810 C   0  0  0  0  0  0  0  0  0  0  0  0
  -24.3490  -13.1390   20.7800 C   0  0  0  0  0  0  0  0  0  0  0  0
  -24.8090  -11.7890   20.7020 C   0  0  0  0  0  0  0  0  0  0  0  0
  -26.4330  -13.0480   20.0890 N   0  0  0  0  0  0  0  0  0  0  0  0
  -26.0850  -11.7590   20.3390 N   0  0  0  0  0  0  0  0  0  0  0  0
  -24.0920  -10.5230   20.9000 C   0  0  0  0  0  0  0  0  0  0  0  0
  -24.5240   -9.5680   21.8460 C   0  0  0  0  0  3  0  0  0  0  0  0
  -23.8060   -8.3670   22.0320 C   0  0  0  0  0  3  0  0  0  0  0  0
  -22.6420   -8.1120   21.2700 C   0  0  0  0  0  0  0  0  0  0  0  0
  -22.2280   -9.0540   20.3130 C   0  0  0  0  0  3  0  0  0  0  0  0
  -22.9470  -10.2460   20.1260 C   0  0  0  0  0  3  0  0  0  0  0  0
  -21.8960   -6.9620   21.3630 O   0  0  0  0  0  0  0  0  0  0  0  0
  -21.7880   -6.2680   22.5410 C   0  0  0  0  0  0  0  0  0  0  0  0
  -21.2820   -6.8670   23.7140 C   0  0  0  0  0  3  0  0  0  0  0  0
  -21.1220   -6.1000   24.8850 C   0  0  0  0  0  3  0  0  0  0  0  0
  -21.4580   -4.7320   24.8820 C   0  0  0  0  0  0  0  0  0  0  0  0
  -21.9570   -4.1320   23.7130 C   0  0  0  0  0  3  0  0  0  0  0  0
  -22.1170   -4.8970   22.5450 C   0  0  0  0  0  0  0  0  0  0  0  0
  -22.5790   -4.3100   21.4150 F   0  0  0  0  0  0  0  0  0  0  0  0
  -21.2960   -3.9920   26.0030 F   0  0  0  0  0  0  0  0  0  0  0  0
  -22.9650  -13.6090   21.1240 C   0  0  0  0  0  0  0  0  0  0  0  0
  -22.2800  -12.8990   22.0150 N   0  0  0  0  0  0  0  0  0  0  0  0
  -22.5000  -14.6400   20.6390 O   0  0  0  0  0  0  0  0  0  0  0  0
  -22.6690  -12.0610   22.4210 H   0  0  0  0  0  0  0  0  0  0  0  0
  -21.3560  -13.1980   22.2940 H   0  0  0  0  0  0  0  0  0  0  0  0
  -25.5530  -15.2960   20.2280 N   0  0  0  0  0  0  0  0  0  0  0  0
  -24.7920  -15.9440   20.4000 H   0  0  0  0  0  0  0  0  0  0  0  0
  -26.3930  -15.7480   19.8900 H   0  0  0  0  0  0  0  0  0  0  0  0
  2  1  1  0
  3  4  1  0
  4  8  1  0
  4  1  2  0
  5  2  2  0
  6  3  2  0
  6  5  1  0
  7  6  1  0
  8  9  2  0
 10  8  1  0
 11 12  1  0
 11 10  1  0
 13 24  2  0
 14 12  1  0
 14 19  1  0
 15 23  1  0
 15 25  1  0
 16 22  1  0
 16 18  1  0
 17 23  1  0
 18 17  1  0
 19 18  2  0
 20 21  1  0
 20 14  2  0
 21 16  2  0
 22 15  1  0
 23 13  1  0
 25 27  2  0
 26 25  1  0
 28 26  1  0
 29 38  2  0
 29 34  1  0
 30 26  1  0
 30 34  1  0
 31 30  1  0
 32 33  1  0
 32 31  1  0
 33 29  1  0
 34 35  2  0
 35 36  1  0
 37 36  2  0
 38 37  1  0
 39 13  1  0
 39 44  1  0
 39 40  1  0
 40 43  1  1
 40 41  1  0
 42 40  1  0
 44 47  1  0
 45 49  1  0
 45 44  1  0
 46 45  2  0
 49 48  1  0
 51 49  1  0
 51 52  1  0
 51 50  1  0
 53  5  1  0
 53 63  1  0
 54 63  1  0
 55 60  1  0
 56 57  1  0
 56 55  1  0
 58 57  1  0
 58 67  1  0
 58 59  1  0
 60 54  1  0
 60 59  1  0
 61 54  2  0
 63 62  1  0
 64 65  2  0
 65 84  1  0
 66 65  1  0
 66 69  1  0
 67 68  1  0
 67 64  1  0
 68 66  2  0
 69 70  1  0
 70 71  2  0
 72 75  1  0
 72 71  1  0
 73 72  2  0
 74 73  1  0
 74 69  2  0
 75 76  1  0
 76 81  2  0
 76 77  1  0
 77 78  2  0
 79 78  1  0
 79 83  1  0
 80 79  2  0
 81 80  1  0
 82 81  1  0
 84 85  1  0
 85 88  1  0
 85 87  1  0
 86 84  2  0
 89 64  1  0
 89 90  1  0
 91 89  1  0
M  ISO  4  11 101  12 101  54 100  63 100
M  END
>  <TORSDO>  (87) 
F 20

>  <SCORE>  (87) 
-13.035

>  <name>  (87) 
87

>  <ligand_id>  (87) 
87

>  <original_smiles>  (87) 
[H]c1c([H])c([H])c2c(c1[H])C([H])([H])C([H])([H])C([H])([H])C2([H])N([H])C(=O)C1([H])N(C(=O)C([H])(N([H])C(=O)C([H])(N([H])C([H])([H])[H])C([H])([H])[H])C(C([H])([H])[H])(C([H])([H])[H])C([H])([H])[H])C([H])([H])c2c([H])c(OC([H])([H])C([H])([H])C(=O)c3c([H])c([H])c(C([H])([H])N(C(=O)N4C([H])([H])C([H])([H])C([H])([H])C([H])(n5nc(-c6c([H])c([H])c(Oc7c([H])c([H])c(F)c([H])c7F)c([H])c6[H])c(C(=O)N([H])[H])c5N([H])[H])C4([H])[H])C([H])([H])[H])c(C([H])([H])[H])c3[H])c([H])c([H])c2C1([H])[H]

>  <smiles>  (87) 
[H]c1c([H])c([H])c2c(c1[H])C([H])([H])C([H])([H])C([H])([H])C2([H])N([H])C(=O)C1([H])N(C(=O)C([H])(N([H])C(=O)C([H])(N([H])C([H])([H])[H])C([H])([H])[H])C(C([H])([H])[H])(C([H])([H])[H])C([H])([H])[H])C([H])([H])c2c([H])c(OC([H])([H])C([H])([H])C(=O)c3c([H])c([H])c(C([H])([H])N(C(=O)N4C([H])([H])C([H])([H])C([H])([H])C([H])(n5nc(-c6c([H])c([H])c(Oc7c([H])c([H])c(F)c([H])c7F)c([H])c6[H])c(C(=O)N([H])[H])c5N([H])[H])C4([H])[H])C([H])([H])[H])c(C([H])([H])[H])c3[H])c([H])c([H])c2C1([H])[H]

$$$$
88:0:0
     RDKit          3D

 85 92  0  0  1  0  0  0  0  0999 V2000
  -28.9580  -22.9860   19.8620 C   0  0  0  0  0  2  0  0  0  0  0  0
  -29.1200  -21.3450   20.4660 C   0  0  0  0  0  2  0  0  0  0  0  0
  -29.3790  -19.8040   19.6630 C   0  0  0  0  0  2  0  0  0  0  0  0
  -31.6980  -18.6310   19.8350 C   0  0  0  0  0  1  0  0  0  0  0  0
  -30.0830  -18.3050   21.6940 C   0  0  0  0  0  1  0  0  0  0  0  0
  -30.2220  -18.3400   20.1610 C   0  0  1  0  0  0  0  0  0  0  0  0
  -29.9120  -16.6860   19.6380 C   0  0  0  0  0  2  0  0  0  0  0  0
  -30.7340  -15.1720   19.7820 C   0  0  0  0  0  0  0  0  0  0  0  0
  -30.5910  -12.7380   18.9760 C   0  0  0  0  0  2  0  0  0  0  0  0
  -29.6000  -12.6090   17.7920 C   0  0  0  0  0  2  0  0  0  0  0  0
  -28.1630  -12.3980   18.3060 C   0  0  0  0  0  2  0  0  0  0  0  0
  -27.8080  -13.3830   19.4460 C   0  0  0  0  0  3  0  0  0  0  0  0
  -28.9160  -13.4840   20.5120 C   0  0  0  0  0  2  0  0  0  0  0  0
  -30.1520  -13.8870   19.8310 N   0  0  0  0  0  0  0  0  0  0  0  0
  -31.9490  -15.1500   19.5460 O   0  0  0  0  0  0  0  0  0  0  0  0
  -25.5160  -14.0170   20.3760 C   0  0  0  0  0  0  0  0  0  0  0  0
  -24.4500  -13.2720   20.7960 C   0  0  0  0  0  0  0  0  0  0  0  0
  -24.8590  -11.9060   20.7000 C   0  0  0  0  0  0  0  0  0  0  0  0
  -26.5030  -13.1090   20.0370 N   0  0  0  0  0  0  0  0  0  0  0  0
  -26.1250  -11.8320   20.3020 N   0  0  0  0  0  0  0  0  0  0  0  0
  -24.0950  -10.6680   20.9040 C   0  0  0  0  0  0  0  0  0  0  0  0
  -24.4780   -9.7130   21.8710 C   0  0  0  0  0  3  0  0  0  0  0  0
  -23.7160   -8.5420   22.0650 C   0  0  0  0  0  3  0  0  0  0  0  0
  -22.5540   -8.3140   21.2890 C   0  0  0  0  0  0  0  0  0  0  0  0
  -22.1890   -9.2570   20.3110 C   0  0  0  0  0  3  0  0  0  0  0  0
  -22.9520  -10.4210   20.1170 C   0  0  0  0  0  3  0  0  0  0  0  0
  -21.7680   -7.1930   21.3870 O   0  0  0  0  0  0  0  0  0  0  0  0
  -21.5940   -6.5360   22.5810 C   0  0  0  0  0  0  0  0  0  0  0  0
  -21.0260   -7.1730   23.7050 C   0  0  0  0  0  3  0  0  0  0  0  0
  -20.8020   -6.4440   24.8890 C   0  0  0  0  0  3  0  0  0  0  0  0
  -21.1340   -5.0770   24.9490 C   0  0  0  0  0  0  0  0  0  0  0  0
  -21.6950   -4.4390   23.8280 C   0  0  0  0  0  3  0  0  0  0  0  0
  -21.9200   -5.1670   22.6460 C   0  0  0  0  0  0  0  0  0  0  0  0
  -22.4410   -4.5420   21.5620 F   0  0  0  0  0  0  0  0  0  0  0  0
  -20.9120   -4.3730   26.0840 F   0  0  0  0  0  0  0  0  0  0  0  0
  -23.0930  -13.7940   21.1690 C   0  0  0  0  0  0  0  0  0  0  0  0
  -22.3920  -13.1020   22.0600 N   0  0  0  0  0  0  0  0  0  0  0  0
  -22.6660  -14.8490   20.7040 O   0  0  0  0  0  0  0  0  0  0  0  0
  -22.7490  -12.2480   22.4590 H   0  0  0  0  0  0  0  0  0  0  0  0
  -21.4830  -13.4360   22.3510 H   0  0  0  0  0  0  0  0  0  0  0  0
  -25.7230  -15.3860   20.2270 N   0  0  0  0  0  0  0  0  0  0  0  0
  -24.9980  -16.0660   20.4250 H   0  0  0  0  0  0  0  0  0  0  0  0
  -26.5670  -15.8060   19.8610 H   0  0  0  0  0  0  0  0  0  0  0  0
  -28.1860  -24.4070   20.5420 C   0  0  0  0  0  2  0  0  0  0  0  0
  -28.3940  -25.9890   20.3460 O   0  0  0  0  0  0  0  0  0  0  0  0
  -24.6360  -31.8080   23.1820 C   0  0  0  0  0  0  0  0  0  0  0  0
  -27.3280  -26.9980   20.3020 C   0  0  0  0  0  0  0  0  0  0  0  0
  -23.4860  -30.3560   21.5560 C   0  0  0  0  0  3  0  0  0  0  0  0
  -24.9820  -28.7640   20.1870 C   0  0  0  0  0  0  0  0  0  0  0  0
  -26.0420  -30.6400   21.4280 C   0  0  0  0  0  2  0  0  0  0  0  0
  -26.1500  -29.2270   20.8070 C   0  0  0  0  0  0  0  0  0  0  0  0
  -27.3230  -28.3640   20.8380 C   0  0  0  0  0  3  0  0  0  0  0  0
  -26.1320  -26.6590   19.6350 C   0  0  0  0  0  3  0  0  0  0  0  0
  -24.9940  -27.4990   19.5790 C   0  0  0  0  0  3  0  0  0  0  0  0
  -23.7430  -29.6500   20.1970 C   0  0  0  0  0  2  0  0  0  0  0  0
  -24.7400  -30.9600   22.1100 N   0  0  0  0  0  0  0  0  0  0  0  0
  -23.5370  -32.0830   23.6900 O   0  0  0  0  0  0  0  0  0  0  0  0
  -22.8060  -29.3620   22.5330 C   0  0  0  0  0  0  0  0  0  0  0  0
  -21.4800  -29.1780   22.4050 N   0  0  0  0  0  0  0  0  0  0  0  0
  -23.4780  -28.7580   23.3720 O   0  0  0  0  0  0  0  0  0  0  0  0
  -20.9900  -29.7190   21.7050 H   0  0  0  0  0  0  0  0  0  0  0  0
  -18.1130  -27.9350   22.9100 C   0  0  0  0  0  0  0  0  0  0  0  0
  -20.6670  -28.2420   23.1860 C   0  0  0  0  0  3  0  0  0  0  0  0
  -20.7920  -26.8020   22.6370 C   0  0  0  0  0  2  0  0  0  0  0  0
  -19.7010  -26.4420   21.6240 C   0  0  0  0  0  2  0  0  0  0  0  0
  -18.3140  -26.5790   22.2570 C   0  0  0  0  0  2  0  0  0  0  0  0
  -19.2170  -28.7230   23.3340 C   0  0  0  0  0  0  0  0  0  0  0  0
  -18.9740  -29.9880   23.9090 C   0  0  0  0  0  3  0  0  0  0  0  0
  -17.6590  -30.4700   24.0620 C   0  0  0  0  0  3  0  0  0  0  0  0
  -16.5700  -29.6820   23.6490 C   0  0  0  0  0  3  0  0  0  0  0  0
  -16.7980  -28.4150   23.0810 C   0  0  0  0  0  3  0  0  0  0  0  0
  -25.8920  -32.4830   23.8150 C   0  0  0  0  0  3  0  0  0  0  0  0
  -25.5470  -33.8810   24.1200 N   0  0  0  0  0  0  0  0  0  0  0  0
  -25.8720  -34.9330   23.3560 C   0  0  0  0  0  0  0  0  0  0  0  0
  -26.5570  -34.8290   22.3370 O   0  0  0  0  0  0  0  0  0  0  0  0
  -24.9380  -34.0340   24.9090 H   0  0  0  0  0  0  0  0  0  0  0  0
  -24.1220  -36.7000   22.9560 C   0  0  0  0  0  1  0  0  0  0  0  0
  -25.3560  -36.3200   23.7920 C   0  0  0  0  0  3  0  0  0  0  0  0
  -27.4560  -37.2580   24.6550 C   0  0  0  0  0  1  0  0  0  0  0  0
  -26.3740  -37.3890   23.6830 N   0  0  0  0  0  0  0  0  0  0  0  0
  -25.9510  -38.3050   23.8030 H   0  0  0  0  0  0  0  0  0  0  0  0
  -26.3970  -31.7500   25.1200 C   0  0  1  0  0  0  0  0  0  0  0  0
  -25.2870  -31.5110   26.1700 C   0  0  0  0  0  1  0  0  0  0  0  0
  -27.0190  -30.3780   24.7750 C   0  0  0  0  0  1  0  0  0  0  0  0
  -27.5170  -32.5830   25.7870 C   0  0  0  0  0  1  0  0  0  0  0  0
  1  2  1  0
  1 44  1  0
  3  6  1  0
  3  2  1  0
  6  4  1  1
  6  5  1  0
  7  8  1  0
  7  6  1  0
  8 14  1  0
  9 14  1  0
 10 11  1  0
 10  9  1  0
 12 11  1  0
 12 19  1  0
 12 13  1  0
 14 13  1  0
 15  8  2  0
 16 17  2  0
 17 36  1  0
 18 17  1  0
 18 21  1  0
 19 20  1  0
 19 16  1  0
 20 18  2  0
 21 22  1  0
 22 23  2  0
 24 27  1  0
 24 23  1  0
 25 24  2  0
 26 25  1  0
 26 21  2  0
 27 28  1  0
 28 33  2  0
 28 29  1  0
 29 30  2  0
 30 31  1  0
 31 35  1  0
 32 31  2  0
 33 32  1  0
 34 33  1  0
 36 37  1  0
 37 40  1  0
 37 39  1  0
 38 36  2  0
 41 16  1  0
 41 42  1  0
 43 41  1  0
 45 44  1  0
 46 57  2  0
 47 45  1  0
 47 52  1  0
 48 56  1  0
 48 58  1  0
 49 55  1  0
 49 51  1  0
 50 56  1  0
 51 52  2  0
 51 50  1  0
 53 47  2  0
 54 53  1  0
 54 49  2  0
 55 48  1  0
 56 46  1  0
 58 60  2  0
 59 58  1  0
 61 59  1  0
 62 71  2  0
 62 67  1  0
 63 59  1  0
 63 67  1  0
 64 63  1  0
 65 66  1  0
 65 64  1  0
 66 62  1  0
 67 68  2  0
 68 69  1  0
 70 69  2  0
 71 70  1  0
 72 46  1  0
 72 73  1  0
 72 82  1  0
 73 76  1  0
 74 78  1  0
 74 73  1  0
 75 74  2  0
 78 77  1  0
 80 78  1  0
 80 81  1  0
 80 79  1  0
 82 85  1  1
 82 83  1  0
 84 82  1  0
M  ISO  4   7 100   8 100  44 101  45 101
M  END
>  <TORSDO>  (88) 
F 21

>  <SCORE>  (88) 
-15.254

>  <name>  (88) 
88

>  <ligand_id>  (88) 
88

>  <original_smiles>  (88) 
[H]c1c([H])c([H])c2c(c1[H])C([H])([H])C([H])([H])C([H])([H])C2([H])N([H])C(=O)C1([H])N(C(=O)C([H])(N([H])C(=O)C([H])(N([H])C([H])([H])[H])C([H])([H])[H])C(C([H])([H])[H])(C([H])([H])[H])C([H])([H])[H])C([H])([H])c2c([H])c(OC([H])([H])C([H])([H])C([H])([H])C([H])([H])C(C([H])([H])[H])(C([H])([H])[H])C([H])([H])C(=O)N3C([H])([H])C([H])([H])C([H])([H])C([H])(n4nc(-c5c([H])c([H])c(Oc6c([H])c([H])c(F)c([H])c6F)c([H])c5[H])c(C(=O)N([H])[H])c4N([H])[H])C3([H])[H])c([H])c([H])c2C1([H])[H]

>  <smiles>  (88) 
[H]c1c([H])c([H])c2c(c1[H])C([H])([H])C([H])([H])C([H])([H])C2([H])N([H])C(=O)C1([H])N(C(=O)C([H])(N([H])C(=O)C([H])(N([H])C([H])([H])[H])C([H])([H])[H])C(C([H])([H])[H])(C([H])([H])[H])C([H])([H])[H])C([H])([H])c2c([H])c(OC([H])([H])C([H])([H])C([H])([H])C([H])([H])C(C([H])([H])[H])(C([H])([H])[H])C([H])([H])C(=O)N3C([H])([H])C([H])([H])C([H])([H])C([H])(n4nc(-c5c([H])c([H])c(Oc6c([H])c([H])c(F)c([H])c6F)c([H])c5[H])c(C(=O)N([H])[H])c4N([H])[H])C3([H])[H])c([H])c([H])c2C1([H])[H]

$$$$
89:0:0
     RDKit          3D

 86 89  0  0  1  0  0  0  0  0999 V2000
  -27.7420  -20.9500   18.9910 C   0  0  0  0  0  3  0  0  0  0  0  0
  -28.3380  -19.3970   18.3100 C   0  0  0  0  0  3  0  0  0  0  0  0
  -28.0280  -17.6700   18.6970 C   0  0  0  0  0  3  0  0  0  0  0  0
  -28.3440  -16.0600   17.9030 C   0  0  0  0  0  3  0  0  0  0  0  0
  -28.2760  -14.2020   18.2810 C   0  0  0  0  0  2  0  0  0  0  0  0
  -29.8780  -13.2630   20.9160 C   0  0  2  0  0  0  0  0  0  0  0  0
  -31.1660  -13.3960   20.0830 C   0  0  0  0  0  1  0  0  0  0  0  0
  -30.2510  -15.1200   19.6910 C   0  0  0  0  0 15  0  0  0  0  0  0
  -28.3850  -15.1730   20.5610 C   0  0  0  0  0  1  0  0  0  0  0  0
  -27.6220  -13.7700   21.4370 C   0  0  0  0  0  2  0  0  0  0  0  0
  -28.7710  -12.4540   21.8150 C   0  0  0  0  0  1  0  0  0  0  0  0
  -30.3140  -12.3500   21.1370 N   0  0  0  0  0  1  0  0  0  0  0  0
  -30.2770  -14.1990   21.9040 O   0  0  0  0  0  1  0  0  0  0  0  0
  -28.8100  -11.7430   18.8500 C   0  0  0  0  0  1  0  0  0  0  0  0
  -28.9950  -13.0860   19.4420 N   0  0  0  0  0  2  0  0  0  0  0  0
  -25.1100  -13.9060   20.9740 C   0  0  0  0  0  0  0  0  0  0  0  0
  -24.0810  -13.0210   21.1440 C   0  0  0  0  0  0  0  0  0  0  0  0
  -24.6630  -11.7230   21.2320 C   0  0  0  0  0  0  0  0  0  0  0  0
  -26.2860  -13.1990   21.0670 N   0  0  0  0  0  0  0  0  0  0  0  0
  -25.9970  -11.8530   21.2000 N   0  0  0  0  0  0  0  0  0  0  0  0
  -24.0060  -10.3950   21.3560 C   0  0  0  0  0  0  0  0  0  0  0  0
  -24.3820   -9.4500   22.3390 C   0  0  0  0  0  3  0  0  0  0  0  0
  -23.7020   -8.2140   22.4540 C   0  0  0  0  0  3  0  0  0  0  0  0
  -22.6270   -7.9030   21.5900 C   0  0  0  0  0  0  0  0  0  0  0  0
  -22.2620   -8.8390   20.6040 C   0  0  0  0  0  3  0  0  0  0  0  0
  -22.9430  -10.0650   20.4880 C   0  0  0  0  0  3  0  0  0  0  0  0
  -21.9360   -6.7100   21.6010 O   0  0  0  0  0  0  0  0  0  0  0  0
  -21.8450   -5.9280   22.7280 C   0  0  0  0  0  0  0  0  0  0  0  0
  -21.3300   -6.4310   23.9430 C   0  0  0  0  0  3  0  0  0  0  0  0
  -21.1880   -5.5790   25.0560 C   0  0  0  0  0  3  0  0  0  0  0  0
  -21.5510   -4.2230   24.9580 C   0  0  0  0  0  0  0  0  0  0  0  0
  -22.0550   -3.7160   23.7490 C   0  0  0  0  0  3  0  0  0  0  0  0
  -22.2000   -4.5650   22.6360 C   0  0  0  0  0  0  0  0  0  0  0  0
  -22.6640   -4.0630   21.4670 F   0  0  0  0  0  0  0  0  0  0  0  0
  -21.4140   -3.4040   26.0290 F   0  0  0  0  0  0  0  0  0  0  0  0
  -22.6270  -13.3820   21.2160 C   0  0  0  0  0  0  0  0  0  0  0  0
  -21.8490  -12.6520   22.0090 N   0  0  0  0  0  0  0  0  0  0  0  0
  -22.1890  -14.3640   20.6200 O   0  0  0  0  0  0  0  0  0  0  0  0
  -22.2300  -11.8680   22.5200 H   0  0  0  0  0  0  0  0  0  0  0  0
  -20.8720  -12.8840   22.1140 H   0  0  0  0  0  0  0  0  0  0  0  0
  -25.1450  -15.2850   20.8510 N   0  0  0  0  0  0  0  0  0  0  0  0
  -24.2970  -15.8390   20.8280 H   0  0  0  0  0  0  0  0  0  0  0  0
  -25.9870  -15.8450   20.8410 H   0  0  0  0  0  0  0  0  0  0  0  0
  -28.2500  -22.6750   18.8770 C   0  0  0  0  0  3  0  0  0  0  0  0
  -27.5830  -24.2080   19.5480 C   0  0  0  0  0  3  0  0  0  0  0  0
  -28.0070  -25.8140   19.6700 O   0  0  0  0  0  0  0  0  0  0  0  0
  -24.6750  -31.8520   23.0730 C   0  0  0  0  0  0  0  0  0  0  0  0
  -27.0670  -26.9580   19.8310 C   0  0  0  0  0  0  0  0  0  0  0  0
  -23.4430  -30.4620   21.4800 C   0  0  0  0  0  3  0  0  0  0  0  0
  -24.8230  -28.8730   20.0030 C   0  0  0  0  0  0  0  0  0  0  0  0
  -26.0140  -30.6360   21.2710 C   0  0  0  0  0  2  0  0  0  0  0  0
  -26.0450  -29.2360   20.5820 C   0  0  0  0  0  0  0  0  0  0  0  0
  -27.1730  -28.2930   20.4830 C   0  0  0  0  0  3  0  0  0  0  0  0
  -25.8110  -26.7660   19.2360 C   0  0  0  0  0  3  0  0  0  0  0  0
  -24.7280  -27.6560   19.3270 C   0  0  0  0  0  3  0  0  0  0  0  0
  -23.6250  -29.8080   20.0940 C   0  0  0  0  0  2  0  0  0  0  0  0
  -24.7380  -31.0090   21.9920 N   0  0  0  0  0  0  0  0  0  0  0  0
  -23.5980  -32.1430   23.6170 O   0  0  0  0  0  0  0  0  0  0  0  0
  -22.7770  -29.4510   22.4530 C   0  0  0  0  0  0  0  0  0  0  0  0
  -21.4440  -29.2860   22.3650 N   0  0  0  0  0  0  0  0  0  0  0  0
  -23.4670  -28.8200   23.2580 O   0  0  0  0  0  0  0  0  0  0  0  0
  -20.9410  -29.8450   21.6890 H   0  0  0  0  0  0  0  0  0  0  0  0
  -18.0750  -28.0720   22.9540 C   0  0  0  0  0  0  0  0  0  0  0  0
  -20.6400  -28.3490   23.1570 C   0  0  0  0  0  3  0  0  0  0  0  0
  -20.7340  -26.9150   22.5850 C   0  0  0  0  0  2  0  0  0  0  0  0
  -19.6080  -26.5840   21.5990 C   0  0  0  0  0  2  0  0  0  0  0  0
  -18.2410  -26.7220   22.2750 C   0  0  0  0  0  2  0  0  0  0  0  0
  -19.1990  -28.8430   23.3530 C   0  0  0  0  0  0  0  0  0  0  0  0
  -18.9860  -30.1030   23.9520 C   0  0  0  0  0  3  0  0  0  0  0  0
  -17.6830  -30.5950   24.1520 C   0  0  0  0  0  3  0  0  0  0  0  0
  -16.5730  -29.8210   23.7690 C   0  0  0  0  0  3  0  0  0  0  0  0
  -16.7700  -28.5610   23.1760 C   0  0  0  0  0  3  0  0  0  0  0  0
  -25.9560  -32.5030   23.6710 C   0  0  0  0  0  3  0  0  0  0  0  0
  -26.5240  -31.7140   24.9160 C   0  0  1  0  0  0  0  0  0  0  0  0
  -25.4720  -31.4370   26.0170 C   0  0  0  0  0  1  0  0  0  0  0  0
  -27.1160  -30.3550   24.4840 C   0  0  0  0  0  1  0  0  0  0  0  0
  -27.6850  -32.5140   25.5530 C   0  0  0  0  0  1  0  0  0  0  0  0
  -25.6200  -33.8840   24.0660 N   0  0  0  0  0  0  0  0  0  0  0  0
  -25.9010  -34.9810   23.3490 C   0  0  0  0  0  0  0  0  0  0  0  0
  -26.5390  -34.9380   22.2960 O   0  0  0  0  0  0  0  0  0  0  0  0
  -25.0520  -33.9860   24.8950 H   0  0  0  0  0  0  0  0  0  0  0  0
  -24.1230  -36.7510   23.1450 C   0  0  0  0  0  1  0  0  0  0  0  0
  -25.4040  -36.3400   23.8880 C   0  0  0  0  0  3  0  0  0  0  0  0
  -27.5520  -37.2350   24.6690 C   0  0  0  0  0  1  0  0  0  0  0  0
  -26.4090  -37.4210   23.7800 N   0  0  0  0  0  0  0  0  0  0  0  0
  -25.9910  -38.3240   23.9860 H   0  0  0  0  0  0  0  0  0  0  0  0
  2  3  1  0
  2  1  2  0
  4  5  1  0
  4  3  2  0
  5 15  1  0
  6 12  1  0
  6 11  1  6
  6 13  1  0
  7  6  1  0
  9 10  1  0
 14 15  1  0
 16 19  1  0
 16 17  2  0
 17 36  1  0
 17 18  1  0
 18 21  1  0
 19 20  1  0
 19 10  1  0
 20 18  2  0
 21 22  1  0
 22 23  2  0
 24 27  1  0
 24 23  1  0
 25 24  2  0
 26 25  1  0
 26 21  2  0
 27 28  1  0
 28 29  1  0
 29 30  2  0
 31 30  1  0
 31 35  1  0
 32 31  2  0
 33 28  2  0
 33 32  1  0
 34 33  1  0
 36 37  1  0
 37 40  1  0
 37 39  1  0
 38 36  2  0
 41 16  1  0
 42 41  1  0
 43 41  1  0
 44  1  1  0
 44 45  2  0
 45 46  1  0
 46 48  1  0
 47 58  2  0
 48 53  1  0
 49 57  1  0
 49 59  1  0
 50 56  1  0
 50 52  1  0
 51 57  1  0
 52 51  1  0
 53 52  2  0
 54 55  1  0
 54 48  2  0
 55 50  2  0
 56 49  1  0
 57 47  1  0
 59 61  2  0
 60 59  1  0
 62 60  1  0
 63 72  2  0
 63 68  1  0
 64 60  1  0
 64 68  1  0
 65 64  1  0
 66 67  1  0
 66 65  1  0
 67 63  1  0
 68 69  2  0
 69 70  1  0
 71 70  2  0
 72 71  1  0
 73 47  1  0
 73 78  1  0
 73 74  1  0
 74 77  1  1
 74 75  1  0
 76 74  1  0
 78 81  1  0
 79 83  1  0
 79 78  1  0
 80 79  2  0
 83 82  1  0
 85 83  1  0
 85 86  1  0
 85 84  1  0
M  ISO  4   6 100  15 100  45 101  46 101
M  END
>  <TORSDO>  (89) 
F 22

>  <SCORE>  (89) 
-13.017

>  <name>  (89) 
89

>  <ligand_id>  (89) 
89

>  <original_smiles>  (89) 
[H]c1c([H])c([H])c2c(c1[H])C([H])([H])C([H])([H])C([H])([H])C2([H])N([H])C(=O)C1([H])N(C(=O)C([H])(N([H])C(=O)C([H])(N([H])C([H])([H])[H])C([H])([H])[H])C(C([H])([H])[H])(C([H])([H])[H])C([H])([H])[H])C([H])([H])c2c([H])c(OC([H])([H])C([H])([H])C([H])([H])C([H])([H])C([H])([H])C([H])([H])C([H])([H])N(C(=O)N3C([H])([H])C([H])([H])C([H])([H])C([H])(n4nc(-c5c([H])c([H])c(Oc6c([H])c([H])c(F)c([H])c6F)c([H])c5[H])c(C(=O)N([H])[H])c4N([H])[H])C3([H])[H])C([H])([H])[H])c([H])c([H])c2C1([H])[H]

>  <smiles>  (89) 
[H]c1c([H])c([H])c2c(c1[H])C([H])([H])C([H])([H])C([H])([H])C2([H])N([H])C(=O)C1([H])N(C(=O)C([H])(N([H])C(=O)C([H])(N([H])C([H])([H])[H])C([H])([H])[H])C(C([H])([H])[H])(C([H])([H])[H])C([H])([H])[H])C([H])([H])c2c([H])c(OC([H])([H])C([H])([H])C([H])([H])C([H])([H])C([H])([H])C([H])([H])C([H])([H])N(C(=O)N3C([H])([H])C([H])([H])C([H])([H])C([H])(n4nc(-c5c([H])c([H])c(Oc6c([H])c([H])c(F)c([H])c6F)c([H])c5[H])c(C(=O)N([H])[H])c4N([H])[H])C3([H])[H])C([H])([H])[H])c([H])c([H])c2C1([H])[H]

$$$$
90:0:0
     RDKit          3D

 88 95  0  0  1  0  0  0  0  0999 V2000
  -29.7100  -21.9560   20.5270 C   0  0  0  0  0  2  0  0  0  0  0  0
  -28.9350  -23.1320   21.1430 C   0  0  0  0  0  2  0  0  0  0  0  0
  -29.0900  -24.4410   20.3480 C   0  0  0  0  0  2  0  0  0  0  0  0
  -28.3510  -25.6130   21.0070 C   0  0  0  0  0  2  0  0  0  0  0  0
  -28.3910  -26.7620   20.1620 O   0  0  0  0  0  0  0  0  0  0  0  0
  -24.5850  -31.8890   23.2600 C   0  0  0  0  0  0  0  0  0  0  0  0
  -27.2260  -27.4850   20.1670 C   0  0  0  0  0  0  0  0  0  0  0  0
  -23.3700  -30.4850   21.6240 C   0  0  0  0  0  3  0  0  0  0  0  0
  -24.8200  -28.9530   20.1920 C   0  0  0  0  0  0  0  0  0  0  0  0
  -25.8890  -30.8640   21.4020 C   0  0  0  0  0  2  0  0  0  0  0  0
  -25.9790  -29.4950   20.7670 C   0  0  0  0  0  0  0  0  0  0  0  0
  -27.1880  -28.7680   20.7490 C   0  0  0  0  0  3  0  0  0  0  0  0
  -26.0570  -26.9460   19.5900 C   0  0  0  0  0  3  0  0  0  0  0  0
  -24.8530  -27.6760   19.6030 C   0  0  0  0  0  3  0  0  0  0  0  0
  -23.5720  -29.8020   20.2440 C   0  0  0  0  0  2  0  0  0  0  0  0
  -24.6330  -31.0920   22.1560 N   0  0  0  0  0  0  0  0  0  0  0  0
  -23.5060  -32.1570   23.8090 O   0  0  0  0  0  0  0  0  0  0  0  0
  -22.7290  -29.4630   22.5880 C   0  0  0  0  0  0  0  0  0  0  0  0
  -21.4050  -29.2760   22.4650 N   0  0  0  0  0  0  0  0  0  0  0  0
  -23.4180  -28.8380   23.3990 O   0  0  0  0  0  0  0  0  0  0  0  0
  -20.9120  -29.8300   21.7790 H   0  0  0  0  0  0  0  0  0  0  0  0
  -18.0360  -28.0710   22.9670 C   0  0  0  0  0  0  0  0  0  0  0  0
  -20.5930  -28.3370   23.2380 C   0  0  0  0  0  3  0  0  0  0  0  0
  -20.7000  -26.9070   22.6640 C   0  0  0  0  0  2  0  0  0  0  0  0
  -19.6000  -26.5770   21.6510 C   0  0  0  0  0  2  0  0  0  0  0  0
  -18.2170  -26.7210   22.2950 C   0  0  0  0  0  2  0  0  0  0  0  0
  -19.1530  -28.8370   23.3960 C   0  0  0  0  0  0  0  0  0  0  0  0
  -18.9320  -30.1030   23.9820 C   0  0  0  0  0  3  0  0  0  0  0  0
  -17.6260  -30.6020   24.1450 C   0  0  0  0  0  3  0  0  0  0  0  0
  -16.5240  -29.8320   23.7350 C   0  0  0  0  0  3  0  0  0  0  0  0
  -16.7300  -28.5690   23.1530 C   0  0  0  0  0  3  0  0  0  0  0  0
  -25.8750  -32.5210   23.8730 C   0  0  0  0  0  3  0  0  0  0  0  0
  -26.4040  -31.7490   25.1440 C   0  0  1  0  0  0  0  0  0  0  0  0
  -25.3200  -31.5060   26.2200 C   0  0  0  0  0  1  0  0  0  0  0  0
  -26.9840  -30.3740   24.7400 C   0  0  0  0  0  1  0  0  0  0  0  0
  -27.5580  -32.5440   25.7970 C   0  0  0  0  0  1  0  0  0  0  0  0
  -25.5680  -33.9190   24.2030 N   0  0  0  0  0  0  0  0  0  0  0  0
  -25.8990  -34.9690   23.4390 C   0  0  0  0  0  0  0  0  0  0  0  0
  -26.5660  -34.8630   22.4050 O   0  0  0  0  0  0  0  0  0  0  0  0
  -24.9790  -34.0750   25.0070 H   0  0  0  0  0  0  0  0  0  0  0  0
  -24.1680  -36.7580   23.0810 C   0  0  0  0  0  1  0  0  0  0  0  0
  -25.4110  -36.3570   23.8920 C   0  0  0  0  0  3  0  0  0  0  0  0
  -27.5480  -37.2420   24.7150 C   0  0  0  0  0  1  0  0  0  0  0  0
  -26.4430  -37.4110   23.7760 N   0  0  0  0  0  0  0  0  0  0  0  0
  -26.0360  -38.3300   23.9280 H   0  0  0  0  0  0  0  0  0  0  0  0
  -29.4440  -20.6250   21.2550 C   0  0  0  0  0  2  0  0  0  0  0  0
  -30.2290  -19.4410   20.6580 C   0  0  0  0  0  2  0  0  0  0  0  0
  -29.8910  -18.1520   21.3050 N   0  0  0  0  0  4  0  0  0  0  0  0
  -30.1180  -18.2080   22.2860 H   0  0  0  0  0  0  0  0  0  0  0  0
  -28.8970  -18.0120   21.2260 H   0  0  0  0  0  0  0  0  0  0  0  0
  -30.5930  -16.9880   20.7140 C   0  0  0  0  0  2  0  0  0  0  0  0
  -30.0550  -15.6180   21.2020 C   0  0  0  0  0  2  0  0  0  0  0  0
  -30.6800  -14.4420   20.4230 C   0  0  0  0  0  0  0  0  0  0  0  0
  -30.3360  -12.3320   19.1920 C   0  0  0  0  0  2  0  0  0  0  0  0
  -29.3770  -12.5830   18.0100 C   0  0  0  0  0  2  0  0  0  0  0  0
  -27.9090  -12.4490   18.4610 C   0  0  0  0  0  2  0  0  0  0  0  0
  -27.6010  -13.2560   19.7490 C   0  0  0  0  0  3  0  0  0  0  0  0
  -28.6700  -12.9880   20.8340 C   0  0  0  0  0  2  0  0  0  0  0  0
  -29.9890  -13.2850   20.2560 N   0  0  0  0  0  0  0  0  0  0  0  0
  -31.7750  -14.6310   19.8820 O   0  0  0  0  0  0  0  0  0  0  0  0
  -25.2040  -13.8660   20.4710 C   0  0  0  0  0  0  0  0  0  0  0  0
  -24.1410  -13.0930   20.8530 C   0  0  0  0  0  0  0  0  0  0  0  0
  -24.6040  -11.7420   20.8250 C   0  0  0  0  0  0  0  0  0  0  0  0
  -26.2500  -12.9850   20.2390 N   0  0  0  0  0  0  0  0  0  0  0  0
  -25.8920  -11.7030   20.5070 N   0  0  0  0  0  0  0  0  0  0  0  0
  -23.8820  -10.4790   21.0270 C   0  0  0  0  0  0  0  0  0  0  0  0
  -24.3370   -9.5070   21.9470 C   0  0  0  0  0  3  0  0  0  0  0  0
  -23.6160   -8.3090   22.1360 C   0  0  0  0  0  3  0  0  0  0  0  0
  -22.4270   -8.0730   21.4070 C   0  0  0  0  0  0  0  0  0  0  0  0
  -21.9910   -9.0340   20.4760 C   0  0  0  0  0  3  0  0  0  0  0  0
  -22.7120  -10.2240   20.2850 C   0  0  0  0  0  3  0  0  0  0  0  0
  -21.6750   -6.9270   21.5070 O   0  0  0  0  0  0  0  0  0  0  0  0
  -21.6690   -6.1680   22.6500 C   0  0  0  0  0  0  0  0  0  0  0  0
  -21.3050   -6.7100   23.9020 C   0  0  0  0  0  3  0  0  0  0  0  0
  -21.2450   -5.8790   25.0390 C   0  0  0  0  0  3  0  0  0  0  0  0
  -21.5380   -4.5060   24.9240 C   0  0  0  0  0  0  0  0  0  0  0  0
  -21.8960   -3.9640   23.6770 C   0  0  0  0  0  3  0  0  0  0  0  0
  -21.9580   -4.7930   22.5430 C   0  0  0  0  0  0  0  0  0  0  0  0
  -22.2830   -4.2610   21.3390 F   0  0  0  0  0  0  0  0  0  0  0  0
  -21.4740   -3.7060   26.0130 F   0  0  0  0  0  0  0  0  0  0  0  0
  -22.7450  -13.5680   21.1370 C   0  0  0  0  0  0  0  0  0  0  0  0
  -22.0280  -12.8740   22.0140 N   0  0  0  0  0  0  0  0  0  0  0  0
  -22.3000  -14.5900   20.6170 O   0  0  0  0  0  0  0  0  0  0  0  0
  -22.4020  -12.0460   22.4550 H   0  0  0  0  0  0  0  0  0  0  0  0
  -21.0920  -13.1740   22.2480 H   0  0  0  0  0  0  0  0  0  0  0  0
  -25.3660  -15.2350   20.2830 N   0  0  0  0  0  0  0  0  0  0  0  0
  -24.5930  -15.8860   20.3790 H   0  0  0  0  0  0  0  0  0  0  0  0
  -26.2030  -15.6660   19.9140 H   0  0  0  0  0  0  0  0  0  0  0  0
  1  2  1  0
  1 46  1  0
  3  4  1  0
  3  2  1  0
  5  7  1  0
  5  4  1  0
  6 17  2  0
  7 12  1  0
  8 16  1  0
  8 18  1  0
  9 15  1  0
  9 11  1  0
 10 16  1  0
 11 10  1  0
 12 11  2  0
 13 14  1  0
 13  7  2  0
 14  9  2  0
 15  8  1  0
 16  6  1  0
 18 20  2  0
 19 18  1  0
 21 19  1  0
 22 31  2  0
 22 27  1  0
 23 19  1  0
 23 27  1  0
 24 23  1  0
 25 26  1  0
 25 24  1  0
 26 22  1  0
 27 28  2  0
 28 29  1  0
 30 29  2  0
 31 30  1  0
 32  6  1  0
 32 37  1  0
 32 33  1  0
 33 36  1  1
 33 34  1  0
 35 33  1  0
 37 40  1  0
 38 42  1  0
 38 37  1  0
 39 38  2  0
 42 41  1  0
 44 42  1  0
 44 45  1  0
 44 43  1  0
 47 46  1  0
 47 48  1  0
 48 49  1  0
 50 48  1  0
 51 52  1  0
 51 48  1  0
 53 52  1  0
 54 59  1  0
 55 56  1  0
 55 54  1  0
 57 56  1  0
 57 64  1  0
 57 58  1  0
 59 53  1  0
 59 58  1  0
 60 53  2  0
 61 62  2  0
 62 81  1  0
 63 62  1  0
 63 66  1  0
 64 61  1  0
 64 65  1  0
 65 63  2  0
 66 67  1  0
 67 68  2  0
 69 72  1  0
 69 68  1  0
 70 69  2  0
 71 70  1  0
 71 66  2  0
 72 73  1  0
 73 74  1  0
 74 75  2  0
 76 75  1  0
 76 80  1  0
 77 76  2  0
 78 73  2  0
 78 77  1  0
 79 78  1  0
 81 82  1  0
 82 85  1  0
 82 84  1  0
 83 81  2  0
 86 87  1  0
 86 61  1  0
 88 86  1  0
M  ISO  4   4 101   5 101  52 100  53 100
M  END
>  <TORSDO>  (90) 
F 24

>  <SCORE>  (90) 
-12.386

>  <name>  (90) 
90

>  <ligand_id>  (90) 
90

>  <original_smiles>  (90) 
[H]c1c([H])c([H])c2c(c1[H])C([H])([H])C([H])([H])C([H])([H])C2([H])N([H])C(=O)C1([H])N(C(=O)C([H])(N([H])C(=O)C([H])(N([H])C([H])([H])[H])C([H])([H])[H])C(C([H])([H])[H])(C([H])([H])[H])C([H])([H])[H])C([H])([H])c2c([H])c(OC([H])([H])C([H])([H])C([H])([H])C([H])([H])C([H])([H])C([H])([H])[N+]([H])([H])C([H])([H])C([H])([H])C(=O)N3C([H])([H])C([H])([H])C([H])([H])C([H])(n4nc(-c5c([H])c([H])c(Oc6c([H])c([H])c(F)c([H])c6F)c([H])c5[H])c(C(=O)N([H])[H])c4N([H])[H])C3([H])[H])c([H])c([H])c2C1([H])[H]

>  <smiles>  (90) 
[H]c1c([H])c([H])c2c(c1[H])C([H])([H])C([H])([H])C([H])([H])C2([H])N([H])C(=O)C1([H])N(C(=O)C([H])(N([H])C(=O)C([H])(N([H])C([H])([H])[H])C([H])([H])[H])C(C([H])([H])[H])(C([H])([H])[H])C([H])([H])[H])C([H])([H])c2c([H])c(OC([H])([H])C([H])([H])C([H])([H])C([H])([H])C([H])([H])C([H])([H])[N+]([H])([H])C([H])([H])C([H])([H])C(=O)N3C([H])([H])C([H])([H])C([H])([H])C([H])(n4nc(-c5c([H])c([H])c(Oc6c([H])c([H])c(F)c([H])c6F)c([H])c5[H])c(C(=O)N([H])[H])c4N([H])[H])C3([H])[H])c([H])c([H])c2C1([H])[H]

$$$$
91:0:0
     RDKit          3D

 94102  0  0  1  0  0  0  0  0999 V2000
  -29.1650  -18.4000   20.7370 C   0  0  0  0  0  0  0  0  0  0  0  0
  -29.3520  -19.7270   20.5960 N   0  0  0  0  0  0  0  0  0  0  0  0
  -28.3110  -17.7880   20.0890 O   0  0  0  0  0  0  0  0  0  0  0  0
  -30.0800  -20.1590   21.1500 H   0  0  0  0  0  0  0  0  0  0  0  0
  -31.1730  -17.6900   23.9200 C   0  0  0  0  0  3  0  0  0  0  0  0
  -31.6750  -16.4000   23.6920 C   0  0  0  0  0  3  0  0  0  0  0  0
  -30.3840  -18.3210   22.9400 C   0  0  0  0  0  3  0  0  0  0  0  0
  -31.3790  -15.7400   22.4880 C   0  0  0  0  0  3  0  0  0  0  0  0
  -30.0710  -17.6790   21.7170 C   0  0  0  0  0  0  0  0  0  0  0  0
  -30.5740  -16.3560   21.4980 C   0  0  0  0  0  0  0  0  0  0  0  0
  -30.8490  -14.5520   19.8230 C   0  0  0  0  0  0  0  0  0  0  0  0
  -30.4000  -12.4480   18.6110 C   0  0  0  0  0  2  0  0  0  0  0  0
  -29.3650  -12.6650   17.4890 C   0  0  0  0  0  2  0  0  0  0  0  0
  -27.9250  -12.5610   18.0320 C   0  0  0  0  0  2  0  0  0  0  0  0
  -27.7030  -13.4000   19.3200 C   0  0  0  0  0  3  0  0  0  0  0  0
  -28.8330  -13.1470   20.3390 C   0  0  0  0  0  2  0  0  0  0  0  0
  -30.1100  -13.4270   19.6620 N   0  0  0  0  0  0  0  0  0  0  0  0
  -31.9680  -14.7150   19.3280 O   0  0  0  0  0  0  0  0  0  0  0  0
  -30.1830  -15.5790   20.3700 N   0  0  0  0  0  0  0  0  0  0  0  0
  -29.1910  -15.5850   20.1860 H   0  0  0  0  0  0  0  0  0  0  0  0
  -25.3980  -14.0610   20.2440 C   0  0  0  0  0  0  0  0  0  0  0  0
  -24.3400  -13.3110   20.6860 C   0  0  0  0  0  0  0  0  0  0  0  0
  -24.7570  -11.9480   20.5930 C   0  0  0  0  0  0  0  0  0  0  0  0
  -26.3900  -13.1550   19.9070 N   0  0  0  0  0  0  0  0  0  0  0  0
  -26.0160  -11.8780   20.1790 N   0  0  0  0  0  0  0  0  0  0  0  0
  -24.0140  -10.7020   20.8200 C   0  0  0  0  0  0  0  0  0  0  0  0
  -24.4660   -9.7320   21.7390 C   0  0  0  0  0  3  0  0  0  0  0  0
  -23.7300   -8.5470   21.9520 C   0  0  0  0  0  3  0  0  0  0  0  0
  -22.5240   -8.3250   21.2440 C   0  0  0  0  0  0  0  0  0  0  0  0
  -22.0910   -9.2840   20.3090 C   0  0  0  0  0  3  0  0  0  0  0  0
  -22.8300  -10.4600   20.0970 C   0  0  0  0  0  3  0  0  0  0  0  0
  -21.7550   -7.1950   21.3670 O   0  0  0  0  0  0  0  0  0  0  0  0
  -21.6880   -6.4920   22.5440 C   0  0  0  0  0  0  0  0  0  0  0  0
  -21.2690   -7.0940   23.7490 C   0  0  0  0  0  3  0  0  0  0  0  0
  -21.1480   -6.3190   24.9190 C   0  0  0  0  0  3  0  0  0  0  0  0
  -21.4380   -4.9410   24.8850 C   0  0  0  0  0  0  0  0  0  0  0  0
  -21.8480   -4.3370   23.6830 C   0  0  0  0  0  3  0  0  0  0  0  0
  -21.9720   -5.1110   22.5160 C   0  0  0  0  0  0  0  0  0  0  0  0
  -22.3490   -4.5210   21.3560 F   0  0  0  0  0  0  0  0  0  0  0  0
  -21.3140   -4.1940   26.0050 F   0  0  0  0  0  0  0  0  0  0  0  0
  -22.9840  -13.8190   21.0770 C   0  0  0  0  0  0  0  0  0  0  0  0
  -22.3120  -13.1280   21.9900 N   0  0  0  0  0  0  0  0  0  0  0  0
  -22.5280  -14.8570   20.6020 O   0  0  0  0  0  0  0  0  0  0  0  0
  -22.6990  -12.2900   22.3970 H   0  0  0  0  0  0  0  0  0  0  0  0
  -21.3970  -13.4410   22.2860 H   0  0  0  0  0  0  0  0  0  0  0  0
  -25.5940  -15.4290   20.0790 N   0  0  0  0  0  0  0  0  0  0  0  0
  -24.8790  -16.1160   20.2880 H   0  0  0  0  0  0  0  0  0  0  0  0
  -26.4350  -15.8430   19.6920 H   0  0  0  0  0  0  0  0  0  0  0  0
  -28.5460  -20.5780   19.7130 C   0  0  0  0  0  2  0  0  0  0  0  0
  -28.8840  -22.0880   19.8170 C   0  0  0  0  0  2  0  0  0  0  0  0
  -28.0150  -22.9560   18.8720 C   0  0  0  0  0  2  0  0  0  0  0  0
  -28.4220  -24.4470   18.7100 C   0  0  0  0  0  2  0  0  0  0  0  0
  -28.2420  -25.3360   19.9600 C   0  0  0  0  0  2  0  0  0  0  0  0
  -28.3250  -26.7460   19.6700 O   0  0  0  0  0  0  0  0  0  0  0  0
  -24.7880  -31.7010   23.3840 C   0  0  0  0  0  0  0  0  0  0  0  0
  -27.1680  -27.4890   19.7900 C   0  0  0  0  0  0  0  0  0  0  0  0
  -23.4700  -30.4840   21.6810 C   0  0  0  0  0  3  0  0  0  0  0  0
  -24.8130  -29.0430   20.0580 C   0  0  0  0  0  0  0  0  0  0  0  0
  -25.9930  -30.7980   21.3950 C   0  0  0  0  0  2  0  0  0  0  0  0
  -26.0110  -29.4860   20.6320 C   0  0  0  0  0  0  0  0  0  0  0  0
  -27.1910  -28.7180   20.4920 C   0  0  0  0  0  3  0  0  0  0  0  0
  -25.9520  -27.0660   19.2070 C   0  0  0  0  0  3  0  0  0  0  0  0
  -24.7800  -27.8330   19.3440 C   0  0  0  0  0  3  0  0  0  0  0  0
  -23.5950  -29.9220   20.2400 C   0  0  0  0  0  2  0  0  0  0  0  0
  -24.7720  -31.0030   22.2120 N   0  0  0  0  0  0  0  0  0  0  0  0
  -23.7410  -31.9500   23.9960 O   0  0  0  0  0  0  0  0  0  0  0  0
  -22.8300  -29.4020   22.5780 C   0  0  0  0  0  0  0  0  0  0  0  0
  -21.5050  -29.2180   22.4460 N   0  0  0  0  0  0  0  0  0  0  0  0
  -23.5210  -28.7310   23.3490 O   0  0  0  0  0  0  0  0  0  0  0  0
  -21.0030  -29.8170   21.8070 H   0  0  0  0  0  0  0  0  0  0  0  0
  -18.1660  -27.8920   22.7950 C   0  0  0  0  0  0  0  0  0  0  0  0
  -20.7040  -28.2200   23.1540 C   0  0  0  0  0  3  0  0  0  0  0  0
  -20.8710  -26.8190   22.5170 C   0  0  0  0  0  2  0  0  0  0  0  0
  -19.8100  -26.5070   21.4600 C   0  0  0  0  0  2  0  0  0  0  0  0
  -18.4070  -26.5780   22.0700 C   0  0  0  0  0  2  0  0  0  0  0  0
  -19.2460  -28.6700   23.2910 C   0  0  0  0  0  0  0  0  0  0  0  0
  -18.9670  -29.8990   23.9280 C   0  0  0  0  0  3  0  0  0  0  0  0
  -17.6420  -30.3500   24.0730 C   0  0  0  0  0  3  0  0  0  0  0  0
  -16.5770  -29.5690   23.5920 C   0  0  0  0  0  3  0  0  0  0  0  0
  -16.8390  -28.3410   22.9600 C   0  0  0  0  0  3  0  0  0  0  0  0
  -26.1180  -32.2380   24.0000 C   0  0  0  0  0  3  0  0  0  0  0  0
  -25.8670  -33.6070   24.4700 N   0  0  0  0  0  0  0  0  0  0  0  0
  -26.2050  -34.7160   23.7990 C   0  0  0  0  0  0  0  0  0  0  0  0
  -26.8340  -34.6910   22.7370 O   0  0  0  0  0  0  0  0  0  0  0  0
  -25.3100  -33.7030   25.3080 H   0  0  0  0  0  0  0  0  0  0  0  0
  -24.5240  -36.5800   23.6760 C   0  0  0  0  0  1  0  0  0  0  0  0
  -25.7790  -36.0690   24.4010 C   0  0  0  0  0  3  0  0  0  0  0  0
  -27.9680  -36.8090   25.2290 C   0  0  0  0  0  1  0  0  0  0  0  0
  -26.8400  -37.0980   24.3470 N   0  0  0  0  0  0  0  0  0  0  0  0
  -26.4690  -38.0110   24.5970 H   0  0  0  0  0  0  0  0  0  0  0  0
  -26.6690  -31.3380   25.1740 C   0  0  1  0  0  0  0  0  0  0  0  0
  -25.6160  -31.0150   26.2580 C   0  0  0  0  0  1  0  0  0  0  0  0
  -27.2080  -30.0000   24.6220 C   0  0  0  0  0  1  0  0  0  0  0  0
  -27.8630  -32.0470   25.8580 C   0  0  0  0  0  1  0  0  0  0  0  0
  1  9  1  0
  2  1  1  0
  2  4  1  0
  3  1  2  0
  6  5  1  0
  7  5  2  0
  8  6  2  0
  9  7  1  0
 10  9  2  0
 10  8  1  0
 11 19  1  0
 12 17  1  0
 13 14  1  0
 13 12  1  0
 15 14  1  0
 15 24  1  0
 15 16  1  0
 17 11  1  0
 17 16  1  0
 18 11  2  0
 19 10  1  0
 20 19  1  0
 21 22  2  0
 22 41  1  0
 23 22  1  0
 23 26  1  0
 24 25  1  0
 24 21  1  0
 25 23  2  0
 26 27  1  0
 27 28  2  0
 29 32  1  0
 29 28  1  0
 30 29  2  0
 31 30  1  0
 31 26  2  0
 32 33  1  0
 33 34  1  0
 34 35  2  0
 36 35  1  0
 36 40  1  0
 37 36  2  0
 38 33  2  0
 38 37  1  0
 39 38  1  0
 41 42  1  0
 42 45  1  0
 42 44  1  0
 43 41  2  0
 46 21  1  0
 46 47  1  0
 48 46  1  0
 49 50  1  0
 49  2  1  0
 51 50  1  0
 52 51  1  0
 52 53  1  0
 54 56  1  0
 54 53  1  0
 55 66  2  0
 56 61  1  0
 57 65  1  0
 57 67  1  0
 58 64  1  0
 58 60  1  0
 59 65  1  0
 60 59  1  0
 61 60  2  0
 62 63  1  0
 62 56  2  0
 63 58  2  0
 64 57  1  0
 65 55  1  0
 67 69  2  0
 68 67  1  0
 70 68  1  0
 71 80  2  0
 71 76  1  0
 72 68  1  0
 72 76  1  0
 73 72  1  0
 74 75  1  0
 74 73  1  0
 75 71  1  0
 76 77  2  0
 77 78  1  0
 79 78  2  0
 80 79  1  0
 81 55  1  0
 81 82  1  0
 81 91  1  0
 82 85  1  0
 83 87  1  0
 83 82  1  0
 84 83  2  0
 87 86  1  0
 89 87  1  0
 89 90  1  0
 89 88  1  0
 91 94  1  1
 91 92  1  0
 93 91  1  0
M  ISO  4  11 100  19 100  53 101  54 101
M  END
>  <TORSDO>  (91) 
F 22

>  <SCORE>  (91) 
-7.546

>  <name>  (91) 
91

>  <ligand_id>  (91) 
91

>  <original_smiles>  (91) 
[H]c1c([H])c([H])c(N([H])C(=O)N2C([H])([H])C([H])([H])C([H])([H])C([H])(n3nc(-c4c([H])c([H])c(Oc5c([H])c([H])c(F)c([H])c5F)c([H])c4[H])c(C(=O)N([H])[H])c3N([H])[H])C2([H])[H])c(C(=O)N([H])C([H])([H])C([H])([H])C([H])([H])C([H])([H])C([H])([H])Oc2c([H])c([H])c3c(c2[H])C([H])([H])N(C(=O)C([H])(N([H])C(=O)C([H])(N([H])C([H])([H])[H])C([H])([H])[H])C(C([H])([H])[H])(C([H])([H])[H])C([H])([H])[H])C([H])(C(=O)N([H])C2([H])c4c([H])c([H])c([H])c([H])c4C([H])([H])C([H])([H])C2([H])[H])C3([H])[H])c1[H]

>  <smiles>  (91) 
[H]c1c([H])c([H])c(N([H])C(=O)N2C([H])([H])C([H])([H])C([H])([H])C([H])(n3nc(-c4c([H])c([H])c(Oc5c([H])c([H])c(F)c([H])c5F)c([H])c4[H])c(C(=O)N([H])[H])c3N([H])[H])C2([H])[H])c(C(=O)N([H])C([H])([H])C([H])([H])C([H])([H])C([H])([H])C([H])([H])Oc2c([H])c([H])c3c(c2[H])C([H])([H])N(C(=O)C([H])(N([H])C(=O)C([H])(N([H])C([H])([H])[H])C([H])([H])[H])C(C([H])([H])[H])(C([H])([H])[H])C([H])([H])[H])C([H])(C(=O)N([H])C2([H])c4c([H])c([H])c([H])c([H])c4C([H])([H])C([H])([H])C2([H])[H])C3([H])[H])c1[H]

$$$$
92:0:0
     RDKit          3D

 88 95  0  0  1  0  0  0  0  0999 V2000
  -29.2790  -22.1250   20.4610 C   0  0  0  0  0  2  0  0  0  0  0  0
  -28.3550  -23.4390   20.0020 C   0  0  0  0  0  2  0  0  0  0  0  0
  -28.3470  -24.9190   20.7550 C   0  0  0  0  0  2  0  0  0  0  0  0
  -28.3360  -26.3210   20.1420 O   0  0  0  0  0  0  0  0  0  0  0  0
  -24.6470  -31.8790   23.2170 C   0  0  0  0  0  0  0  0  0  0  0  0
  -27.2230  -27.2100   20.1960 C   0  0  0  0  0  0  0  0  0  0  0  0
  -23.4340  -30.4730   21.5920 C   0  0  0  0  0  3  0  0  0  0  0  0
  -24.8750  -28.8910   20.1750 C   0  0  0  0  0  0  0  0  0  0  0  0
  -25.9800  -30.7630   21.3970 C   0  0  0  0  0  2  0  0  0  0  0  0
  -26.0550  -29.3690   20.7600 C   0  0  0  0  0  0  0  0  0  0  0  0
  -27.2340  -28.5450   20.7470 C   0  0  0  0  0  3  0  0  0  0  0  0
  -26.0160  -26.8010   19.5950 C   0  0  0  0  0  3  0  0  0  0  0  0
  -24.8620  -27.6170   19.5810 C   0  0  0  0  0  3  0  0  0  0  0  0
  -23.6440  -29.7830   20.2180 C   0  0  0  0  0  2  0  0  0  0  0  0
  -24.7070  -31.0590   22.1240 N   0  0  0  0  0  0  0  0  0  0  0  0
  -23.5650  -32.1630   23.7530 O   0  0  0  0  0  0  0  0  0  0  0  0
  -22.7670  -29.4690   22.5650 C   0  0  0  0  0  0  0  0  0  0  0  0
  -21.4390  -29.2990   22.4490 N   0  0  0  0  0  0  0  0  0  0  0  0
  -23.4480  -28.8470   23.3830 O   0  0  0  0  0  0  0  0  0  0  0  0
  -20.9490  -29.8510   21.7600 H   0  0  0  0  0  0  0  0  0  0  0  0
  -18.0630  -28.0980   22.9730 C   0  0  0  0  0  0  0  0  0  0  0  0
  -20.6220  -28.3660   23.2300 C   0  0  0  0  0  3  0  0  0  0  0  0
  -20.7250  -26.9300   22.6660 C   0  0  0  0  0  2  0  0  0  0  0  0
  -19.6210  -26.5970   21.6580 C   0  0  0  0  0  2  0  0  0  0  0  0
  -18.2400  -26.7430   22.3050 C   0  0  0  0  0  2  0  0  0  0  0  0
  -19.1810  -28.8650   23.3930 C   0  0  0  0  0  0  0  0  0  0  0  0
  -18.9620  -30.1310   23.9780 C   0  0  0  0  0  3  0  0  0  0  0  0
  -17.6560  -30.6300   24.1470 C   0  0  0  0  0  3  0  0  0  0  0  0
  -16.5510  -29.8600   23.7430 C   0  0  0  0  0  3  0  0  0  0  0  0
  -16.7560  -28.5950   23.1630 C   0  0  0  0  0  3  0  0  0  0  0  0
  -25.9310  -32.5160   23.8310 C   0  0  0  0  0  3  0  0  0  0  0  0
  -25.6160  -33.9110   24.1760 N   0  0  0  0  0  0  0  0  0  0  0  0
  -25.9330  -34.9730   23.4220 C   0  0  0  0  0  0  0  0  0  0  0  0
  -26.5870  -34.8830   22.3800 O   0  0  0  0  0  0  0  0  0  0  0  0
  -25.0330  -34.0540   24.9860 H   0  0  0  0  0  0  0  0  0  0  0  0
  -24.1850  -36.7590   23.1220 C   0  0  0  0  0  1  0  0  0  0  0  0
  -25.4470  -36.3560   23.9010 C   0  0  0  0  0  3  0  0  0  0  0  0
  -27.5950  -37.2480   24.6870 C   0  0  0  0  0  1  0  0  0  0  0  0
  -26.4700  -37.4160   23.7720 N   0  0  0  0  0  0  0  0  0  0  0  0
  -26.0620  -38.3320   23.9370 H   0  0  0  0  0  0  0  0  0  0  0  0
  -26.4620  -31.7420   25.1010 C   0  0  1  0  0  0  0  0  0  0  0  0
  -25.3810  -31.5000   26.1800 C   0  0  0  0  0  1  0  0  0  0  0  0
  -27.0440  -30.3670   24.7010 C   0  0  0  0  0  1  0  0  0  0  0  0
  -27.6190  -32.5370   25.7520 C   0  0  0  0  0  1  0  0  0  0  0  0
  -28.7680  -20.5540   20.6930 C   0  0  0  0  0  2  0  0  0  0  0  0
  -29.2230  -19.1320   19.9310 C   0  0  0  0  0  3  0  0  0  0  0  0
  -28.9290  -20.0700   17.6290 C   0  0  0  0  0  1  0  0  0  0  0  0
  -29.8250  -19.4160   18.6080 N   0  0  0  0  0  4  0  0  0  0  0  0
  -30.6540  -19.9760   18.7260 H   0  0  0  0  0  0  0  0  0  0  0  0
  -30.1180  -18.5440   18.1990 H   0  0  0  0  0  0  0  0  0  0  0  0
  -29.9740  -17.8100   20.6240 C   0  0  0  0  0  2  0  0  0  0  0  0
  -29.5150  -16.2330   20.3440 C   0  0  0  0  0  2  0  0  0  0  0  0
  -30.4540  -14.8820   20.3020 C   0  0  0  0  0  0  0  0  0  0  0  0
  -30.3630  -12.5490   19.3530 C   0  0  0  0  0  2  0  0  0  0  0  0
  -29.4080  -12.5740   18.1330 C   0  0  0  0  0  2  0  0  0  0  0  0
  -27.9420  -12.3770   18.5710 C   0  0  0  0  0  2  0  0  0  0  0  0
  -27.5620  -13.2700   19.7820 C   0  0  0  0  0  3  0  0  0  0  0  0
  -28.6300  -13.2110   20.8910 C   0  0  0  0  0  2  0  0  0  0  0  0
  -29.9130  -13.6050   20.2970 N   0  0  0  0  0  0  0  0  0  0  0  0
  -31.6540  -14.9970   20.0290 O   0  0  0  0  0  0  0  0  0  0  0  0
  -25.1910  -13.8520   20.5600 C   0  0  0  0  0  0  0  0  0  0  0  0
  -24.1280  -13.0750   20.9330 C   0  0  0  0  0  0  0  0  0  0  0  0
  -24.5880  -11.7230   20.8760 C   0  0  0  0  0  0  0  0  0  0  0  0
  -26.2270  -12.9720   20.2910 N   0  0  0  0  0  0  0  0  0  0  0  0
  -25.8740  -11.6860   20.5470 N   0  0  0  0  0  0  0  0  0  0  0  0
  -23.8590  -10.4610   21.0580 C   0  0  0  0  0  0  0  0  0  0  0  0
  -24.3200   -9.4620   21.9440 C   0  0  0  0  0  3  0  0  0  0  0  0
  -23.5910   -8.2650   22.1170 C   0  0  0  0  0  3  0  0  0  0  0  0
  -22.3870   -8.0590   21.4030 C   0  0  0  0  0  0  0  0  0  0  0  0
  -21.9430   -9.0460   20.5050 C   0  0  0  0  0  3  0  0  0  0  0  0
  -22.6730  -10.2350   20.3300 C   0  0  0  0  0  3  0  0  0  0  0  0
  -21.6270   -6.9170   21.4860 O   0  0  0  0  0  0  0  0  0  0  0  0
  -21.6460   -6.1200   22.6030 C   0  0  0  0  0  0  0  0  0  0  0  0
  -21.3310   -6.6250   23.8840 C   0  0  0  0  0  3  0  0  0  0  0  0
  -21.2940   -5.7570   24.9930 C   0  0  0  0  0  3  0  0  0  0  0  0
  -21.5630   -4.3850   24.8230 C   0  0  0  0  0  0  0  0  0  0  0  0
  -21.8730   -3.8810   23.5480 C   0  0  0  0  0  3  0  0  0  0  0  0
  -21.9120   -4.7460   22.4400 C   0  0  0  0  0  0  0  0  0  0  0  0
  -22.1900   -4.2510   21.2100 F   0  0  0  0  0  0  0  0  0  0  0  0
  -21.5200   -3.5500   25.8860 F   0  0  0  0  0  0  0  0  0  0  0  0
  -22.7360  -13.5520   21.2290 C   0  0  0  0  0  0  0  0  0  0  0  0
  -22.0200  -12.8490   22.1000 N   0  0  0  0  0  0  0  0  0  0  0  0
  -22.2940  -14.5840   20.7260 O   0  0  0  0  0  0  0  0  0  0  0  0
  -22.3920  -12.0150   22.5260 H   0  0  0  0  0  0  0  0  0  0  0  0
  -21.0870  -13.1510   22.3410 H   0  0  0  0  0  0  0  0  0  0  0  0
  -25.3590  -15.2240   20.4030 N   0  0  0  0  0  0  0  0  0  0  0  0
  -24.5970  -15.8790   20.5380 H   0  0  0  0  0  0  0  0  0  0  0  0
  -26.2070  -15.6650   20.0730 H   0  0  0  0  0  0  0  0  0  0  0  0
  1 45  1  0
  2  1  1  0
  2  3  1  0
  4  6  1  0
  4  3  1  0
  5 16  2  0
  6 11  1  0
  7 15  1  0
  7 17  1  0
  8 14  1  0
  8 10  1  0
  9 15  1  0
 10  9  1  0
 11 10  2  0
 12  6  2  0
 13 12  1  0
 13  8  2  0
 14  7  1  0
 15  5  1  0
 17 19  2  0
 18 17  1  0
 20 18  1  0
 21 30  2  0
 21 26  1  0
 22 18  1  0
 22 26  1  0
 23 22  1  0
 24 25  1  0
 24 23  1  0
 25 21  1  0
 26 27  2  0
 27 28  1  0
 29 28  2  0
 30 29  1  0
 31  5  1  0
 31 32  1  0
 31 41  1  0
 32 35  1  0
 33 37  1  0
 33 32  1  0
 34 33  2  0
 37 36  1  0
 39 37  1  0
 39 40  1  0
 39 38  1  0
 41 44  1  1
 41 42  1  0
 43 41  1  0
 46 51  1  0
 46 45  1  0
 47 48  1  0
 48 49  1  0
 48 46  1  0
 50 48  1  0
 52 51  1  0
 53 52  1  0
 54 59  1  0
 55 56  1  0
 55 54  1  0
 57 56  1  0
 57 64  1  0
 57 58  1  0
 59 53  1  0
 59 58  1  0
 60 53  2  0
 61 62  2  0
 62 81  1  0
 63 62  1  0
 63 66  1  0
 64 65  1  0
 64 61  1  0
 65 63  2  0
 66 67  1  0
 67 68  2  0
 69 72  1  0
 69 68  1  0
 70 69  2  0
 71 70  1  0
 71 66  2  0
 72 73  1  0
 73 74  1  0
 74 75  2  0
 76 75  1  0
 76 80  1  0
 77 76  2  0
 78 73  2  0
 78 77  1  0
 79 78  1  0
 81 82  1  0
 82 85  1  0
 82 84  1  0
 83 81  2  0
 86 87  1  0
 86 61  1  0
 88 86  1  0
M  ISO  4   3 101   4 101  52 100  53 100
M  END
>  <TORSDO>  (92) 
F 23

>  <SCORE>  (92) 
-12.590

>  <name>  (92) 
92

>  <ligand_id>  (92) 
92

>  <original_smiles>  (92) 
[H]c1c([H])c([H])c2c(c1[H])C([H])([H])C([H])([H])C([H])([H])C2([H])N([H])C(=O)C1([H])N(C(=O)C([H])(N([H])C(=O)C([H])(N([H])C([H])([H])[H])C([H])([H])[H])C(C([H])([H])[H])(C([H])([H])[H])C([H])([H])[H])C([H])([H])c2c([H])c(OC([H])([H])C([H])([H])C([H])([H])C([H])([H])C([H])(C([H])([H])C([H])([H])C(=O)N3C([H])([H])C([H])([H])C([H])([H])C([H])(n4nc(-c5c([H])c([H])c(Oc6c([H])c([H])c(F)c([H])c6F)c([H])c5[H])c(C(=O)N([H])[H])c4N([H])[H])C3([H])[H])[N+]([H])([H])C([H])([H])[H])c([H])c([H])c2C1([H])[H]

>  <smiles>  (92) 
[H]c1c([H])c([H])c2c(c1[H])C([H])([H])C([H])([H])C([H])([H])C2([H])N([H])C(=O)C1([H])N(C(=O)C([H])(N([H])C(=O)C([H])(N([H])C([H])([H])[H])C([H])([H])[H])C(C([H])([H])[H])(C([H])([H])[H])C([H])([H])[H])C([H])([H])c2c([H])c(OC([H])([H])C([H])([H])C([H])([H])C([H])([H])C([H])(C([H])([H])C([H])([H])C(=O)N3C([H])([H])C([H])([H])C([H])([H])C([H])(n4nc(-c5c([H])c([H])c(Oc6c([H])c([H])c(F)c([H])c6F)c([H])c5[H])c(C(=O)N([H])[H])c4N([H])[H])C3([H])[H])[N+]([H])([H])C([H])([H])[H])c([H])c([H])c2C1([H])[H]

$$$$
93:0:0
     RDKit          3D

 94101  0  0  1  0  0  0  0  0999 V2000
  -27.5940  -19.3490   20.2670 C   0  0  0  0  0  2  0  0  0  0  0  0
  -28.9770  -18.7180   20.0310 C   0  0  0  0  0  2  0  0  0  0  0  0
  -28.9260  -17.1990   19.7800 C   0  0  0  0  0  2  0  0  0  0  0  0
  -30.3330  -16.5680   19.8340 C   0  0  0  0  0  2  0  0  0  0  0  0
  -30.3720  -15.0810   20.2990 C   0  0  0  0  0  3  0  0  0  0  0  0
  -30.4520  -14.0770   19.1200 C   0  0  0  0  0  0  0  0  0  0  0  0
  -29.9730  -11.8800   18.0900 C   0  0  0  0  0  2  0  0  0  0  0  0
  -28.8190  -11.9300   17.0720 C   0  0  0  0  0  2  0  0  0  0  0  0
  -27.4620  -11.7530   17.7790 C   0  0  0  0  0  2  0  0  0  0  0  0
  -27.3140  -12.6810   19.0120 C   0  0  0  0  0  3  0  0  0  0  0  0
  -28.5560  -12.5870   19.9220 C   0  0  0  0  0  2  0  0  0  0  0  0
  -29.7450  -12.9140   19.1130 N   0  0  0  0  0  0  0  0  0  0  0  0
  -31.2670  -14.3450   18.2290 O   0  0  0  0  0  0  0  0  0  0  0  0
  -25.1330  -13.2700   20.2480 C   0  0  0  0  0  0  0  0  0  0  0  0
  -24.1550  -12.4890   20.7980 C   0  0  0  0  0  0  0  0  0  0  0  0
  -24.5690  -11.1370   20.5950 C   0  0  0  0  0  0  0  0  0  0  0  0
  -26.0860  -12.3950   19.7510 N   0  0  0  0  0  0  0  0  0  0  0  0
  -25.7600  -11.1030   20.0110 N   0  0  0  0  0  0  0  0  0  0  0  0
  -23.8750   -9.8710   20.8710 C   0  0  0  0  0  0  0  0  0  0  0  0
  -24.3260   -8.9860   21.8750 C   0  0  0  0  0  3  0  0  0  0  0  0
  -23.6320   -7.7850   22.1340 C   0  0  0  0  0  3  0  0  0  0  0  0
  -22.4740   -7.4590   21.3870 C   0  0  0  0  0  0  0  0  0  0  0  0
  -22.0440   -8.3330   20.3730 C   0  0  0  0  0  3  0  0  0  0  0  0
  -22.7390   -9.5260   20.1140 C   0  0  0  0  0  3  0  0  0  0  0  0
  -21.7530   -6.3020   21.5490 O   0  0  0  0  0  0  0  0  0  0  0  0
  -21.5680   -5.7370   22.7850 C   0  0  0  0  0  0  0  0  0  0  0  0
  -20.9100   -6.4240   23.8280 C   0  0  0  0  0  3  0  0  0  0  0  0
  -20.6800   -5.7800   25.0600 C   0  0  0  0  0  3  0  0  0  0  0  0
  -21.0970   -4.4490   25.2490 C   0  0  0  0  0  0  0  0  0  0  0  0
  -21.7480   -3.7610   24.2090 C   0  0  0  0  0  3  0  0  0  0  0  0
  -21.9790   -4.4020   22.9800 C   0  0  0  0  0  0  0  0  0  0  0  0
  -22.5870   -3.7290   21.9750 F   0  0  0  0  0  0  0  0  0  0  0  0
  -20.8700   -3.8260   26.4290 F   0  0  0  0  0  0  0  0  0  0  0  0
  -22.8590  -12.9620   21.3930 C   0  0  0  0  0  0  0  0  0  0  0  0
  -22.3380  -12.2390   22.3780 N   0  0  0  0  0  0  0  0  0  0  0  0
  -22.3260  -14.0050   21.0180 O   0  0  0  0  0  0  0  0  0  0  0  0
  -22.7840  -11.3920   22.6970 H   0  0  0  0  0  0  0  0  0  0  0  0
  -21.4780  -12.5360   22.8170 H   0  0  0  0  0  0  0  0  0  0  0  0
  -25.2870  -14.6470   20.1140 N   0  0  0  0  0  0  0  0  0  0  0  0
  -24.5790  -15.3030   20.4240 H   0  0  0  0  0  0  0  0  0  0  0  0
  -26.0580  -15.0950   19.6350 H   0  0  0  0  0  0  0  0  0  0  0  0
  -31.5210  -14.7680   21.3130 C   0  0  0  0  0  3  0  0  0  0  0  0
  -32.8780  -15.0770   20.8080 N   0  0  0  0  0  4  0  0  0  0  0  0
  -32.9990  -16.0700   20.7230 H   0  0  0  0  0  0  0  0  0  0  0  0
  -33.0550  -14.6370   19.9210 H   0  0  0  0  0  0  0  0  0  0  0  0
  -33.5590  -14.7520   21.4710 H   0  0  0  0  0  0  0  0  0  0  0  0
  -31.3570  -15.5270   22.6370 C   0  0  0  0  0  3  0  0  0  0  0  0
  -31.7020  -16.6990   22.8090 O   0  0  0  0  0  0  0  0  0  0  0  0
  -27.6780  -20.7440   20.9110 C   0  0  0  0  0  2  0  0  0  0  0  0
  -28.1710  -21.8660   19.9810 C   0  0  0  0  0  2  0  0  0  0  0  0
  -28.2770  -23.1990   20.7400 C   0  0  0  0  0  2  0  0  0  0  0  0
  -28.5400  -24.4170   19.8430 C   0  0  0  0  0  2  0  0  0  0  0  0
  -28.4870  -25.7230   20.6480 C   0  0  0  0  0  2  0  0  0  0  0  0
  -28.4660  -26.8490   19.7780 O   0  0  0  0  0  0  0  0  0  0  0  0
  -24.6170  -31.8120   23.0910 C   0  0  0  0  0  0  0  0  0  0  0  0
  -27.2860  -27.5480   19.8190 C   0  0  0  0  0  0  0  0  0  0  0  0
  -23.4130  -30.4750   21.3920 C   0  0  0  0  0  3  0  0  0  0  0  0
  -24.8700  -28.9970   19.9100 C   0  0  0  0  0  0  0  0  0  0  0  0
  -25.9310  -30.8590   21.2000 C   0  0  0  0  0  2  0  0  0  0  0  0
  -26.0240  -29.5170   20.5100 C   0  0  0  0  0  0  0  0  0  0  0  0
  -27.2360  -28.7980   20.4640 C   0  0  0  0  0  3  0  0  0  0  0  0
  -26.1200  -27.0230   19.2250 C   0  0  0  0  0  3  0  0  0  0  0  0
  -24.9090  -27.7420   19.2700 C   0  0  0  0  0  3  0  0  0  0  0  0
  -23.6220  -29.8450   19.9880 C   0  0  0  0  0  2  0  0  0  0  0  0
  -24.6720  -31.0590   21.9540 N   0  0  0  0  0  0  0  0  0  0  0  0
  -23.5360  -32.0630   23.6410 O   0  0  0  0  0  0  0  0  0  0  0  0
  -22.7650  -29.4160   22.3120 C   0  0  0  0  0  0  0  0  0  0  0  0
  -21.4310  -29.2870   22.2270 N   0  0  0  0  0  0  0  0  0  0  0  0
  -23.4570  -28.7170   23.0570 O   0  0  0  0  0  0  0  0  0  0  0  0
  -20.9370  -29.9040   21.5990 H   0  0  0  0  0  0  0  0  0  0  0  0
  -18.0320  -28.2240   22.8320 C   0  0  0  0  0  0  0  0  0  0  0  0
  -20.6120  -28.3280   22.9650 C   0  0  0  0  0  3  0  0  0  0  0  0
  -20.6020  -26.9490   22.2670 C   0  0  0  0  0  2  0  0  0  0  0  0
  -19.4270  -26.7710   21.3000 C   0  0  0  0  0  2  0  0  0  0  0  0
  -18.0940  -26.9290   22.0390 C   0  0  0  0  0  2  0  0  0  0  0  0
  -19.2150  -28.8880   23.2540 C   0  0  0  0  0  0  0  0  0  0  0  0
  -19.1020  -30.1070   23.9570 C   0  0  0  0  0  3  0  0  0  0  0  0
  -17.8390  -30.6600   24.2420 C   0  0  0  0  0  3  0  0  0  0  0  0
  -16.6730  -29.9910   23.8360 C   0  0  0  0  0  3  0  0  0  0  0  0
  -16.7710  -28.7730   23.1360 C   0  0  0  0  0  3  0  0  0  0  0  0
  -25.9040  -32.4150   23.7340 C   0  0  0  0  0  3  0  0  0  0  0  0
  -26.4400  -31.5740   24.9570 C   0  0  1  0  0  0  0  0  0  0  0  0
  -25.3610  -31.2740   26.0260 C   0  0  0  0  0  1  0  0  0  0  0  0
  -27.0170  -30.2210   24.4780 C   0  0  0  0  0  1  0  0  0  0  0  0
  -27.5980  -32.3310   25.6480 C   0  0  0  0  0  1  0  0  0  0  0  0
  -25.5890  -33.7900   24.1450 N   0  0  0  0  0  0  0  0  0  0  0  0
  -25.9120  -34.8840   23.4430 C   0  0  0  0  0  0  0  0  0  0  0  0
  -26.5790  -34.8420   22.4050 O   0  0  0  0  0  0  0  0  0  0  0  0
  -24.9890  -33.8950   24.9510 H   0  0  0  0  0  0  0  0  0  0  0  0
  -24.1740  -36.6840   23.1850 C   0  0  0  0  0  1  0  0  0  0  0  0
  -25.4150  -36.2410   23.9770 C   0  0  0  0  0  3  0  0  0  0  0  0
  -27.5380  -37.0950   24.8680 C   0  0  0  0  0  1  0  0  0  0  0  0
  -26.4430  -37.3030   23.9240 N   0  0  0  0  0  0  0  0  0  0  0  0
  -26.0300  -38.2140   24.1060 H   0  0  0  0  0  0  0  0  0  0  0  0
  1 49  1  0
  2  1  1  0
  3  4  1  0
  3  2  1  0
  5  4  1  0
  5 42  1  0
  6  5  1  0
  7 12  1  0
  8  9  1  0
  8  7  1  0
 10  9  1  0
 10 17  1  0
 10 11  1  0
 12  6  1  0
 12 11  1  0
 13  6  2  0
 14 15  2  0
 15 34  1  0
 16 15  1  0
 16 19  1  0
 17 18  1  0
 17 14  1  0
 18 16  2  0
 19 20  1  0
 20 21  2  0
 22 25  1  0
 22 21  1  0
 23 22  2  0
 24 23  1  0
 24 19  2  0
 25 26  1  0
 26 31  2  0
 26 27  1  0
 27 28  2  0
 28 29  1  0
 29 33  1  0
 30 29  2  0
 31 30  1  0
 32 31  1  0
 34 35  1  0
 35 37  1  0
 35 38  1  0
 36 34  2  0
 39 14  1  0
 39 40  1  0
 41 39  1  0
 42 47  1  0
 43 42  1  0
 43 46  1  0
 44 43  1  0
 45 43  1  0
 47 48  2  0
 50 51  1  0
 50 49  1  0
 52 53  1  0
 52 51  1  0
 54 56  1  0
 54 53  1  0
 55 66  2  0
 56 61  1  0
 57 65  1  0
 57 67  1  0
 58 64  1  0
 58 60  1  0
 59 65  1  0
 60 59  1  0
 61 60  2  0
 62 63  1  0
 62 56  2  0
 63 58  2  0
 64 57  1  0
 65 55  1  0
 67 69  2  0
 68 67  1  0
 70 68  1  0
 71 80  2  0
 71 76  1  0
 72 68  1  0
 72 76  1  0
 73 72  1  0
 74 75  1  0
 74 73  1  0
 75 71  1  0
 76 77  2  0
 77 78  1  0
 79 78  2  0
 80 79  1  0
 81 55  1  0
 81 86  1  0
 81 82  1  0
 82 85  1  1
 82 83  1  0
 84 82  1  0
 86 89  1  0
 87 91  1  0
 87 86  1  0
 88 87  2  0
 91 90  1  0
 93 91  1  0
 93 94  1  0
 93 92  1  0
M  ISO  4   5 100   6 100  53 101  54 101
M  END
>  <TORSDO>  (93) 
F 28

>  <SCORE>  (93) 
-6.553

>  <name>  (93) 
93

>  <ligand_id>  (93) 
93

>  <original_smiles>  (93) 
[H]C(=O)C([H])(C([H])(C(=O)N1C([H])([H])C([H])([H])C([H])([H])C([H])(n2nc(-c3c([H])c([H])c(Oc4c([H])c([H])c(F)c([H])c4F)c([H])c3[H])c(C(=O)N([H])[H])c2N([H])[H])C1([H])[H])C([H])([H])C([H])([H])C([H])([H])C([H])([H])C([H])([H])C([H])([H])C([H])([H])C([H])([H])C([H])([H])Oc1c([H])c([H])c2c(c1[H])C([H])([H])N(C(=O)C([H])(N([H])C(=O)C([H])(N([H])C([H])([H])[H])C([H])([H])[H])C(C([H])([H])[H])(C([H])([H])[H])C([H])([H])[H])C([H])(C(=O)N([H])C1([H])c3c([H])c([H])c([H])c([H])c3C([H])([H])C([H])([H])C1([H])[H])C2([H])[H])[N+]([H])([H])[H]

>  <smiles>  (93) 
[H]C(=O)C([H])(C([H])(C(=O)N1C([H])([H])C([H])([H])C([H])([H])C([H])(n2nc(-c3c([H])c([H])c(Oc4c([H])c([H])c(F)c([H])c4F)c([H])c3[H])c(C(=O)N([H])[H])c2N([H])[H])C1([H])[H])C([H])([H])C([H])([H])C([H])([H])C([H])([H])C([H])([H])C([H])([H])C([H])([H])C([H])([H])C([H])([H])Oc1c([H])c([H])c2c(c1[H])C([H])([H])N(C(=O)C([H])(N([H])C(=O)C([H])(N([H])C([H])([H])[H])C([H])([H])[H])C(C([H])([H])[H])(C([H])([H])[H])C([H])([H])[H])C([H])(C(=O)N([H])C1([H])c3c([H])c([H])c([H])c([H])c3C([H])([H])C([H])([H])C1([H])[H])C2([H])[H])[N+]([H])([H])[H]

$$$$
94:0:0
     RDKit          3D

 97106  0  0  1  0  0  0  0  0999 V2000
  -28.5950  -20.9080   19.2610 C   0  0  0  0  0  3  0  0  0  0  0  0
  -30.9040  -21.6400   19.4870 C   0  0  0  0  0  3  0  0  0  0  0  0
  -28.1870  -22.2540   19.1520 C   0  0  0  0  0  3  0  0  0  0  0  0
  -30.4990  -22.9800   19.3770 C   0  0  0  0  0  3  0  0  0  0  0  0
  -29.9660  -20.5790   19.4150 C   0  0  0  0  0  0  0  0  0  0  0  0
  -29.1420  -23.2900   19.1860 C   0  0  0  0  0  0  0  0  0  0  0  0
  -29.6500  -17.9260   19.7470 C   0  0  0  0  0  0  0  0  0  0  0  0
  -31.7820  -17.4670   20.7530 C   0  0  0  0  0  2  0  0  0  0  0  0
  -31.7730  -18.9220   20.2320 C   0  0  0  0  0  2  0  0  0  0  0  0
  -30.6070  -16.7890   20.0410 C   0  0  0  0  0  3  0  0  0  0  0  0
  -30.5130  -19.1410   19.3330 C   0  0  2  0  0  0  0  0  0  0  0  0
  -28.4180  -17.8620   19.7680 O   0  0  0  0  0  0  0  0  0  0  0  0
  -30.7360  -14.4080   20.4560 C   0  0  0  0  0  0  0  0  0  0  0  0
  -30.3210  -12.2810   19.3360 C   0  0  0  0  0  2  0  0  0  0  0  0
  -29.4040  -12.5380   18.1240 C   0  0  0  0  0  2  0  0  0  0  0  0
  -27.9270  -12.4290   18.5500 C   0  0  0  0  0  2  0  0  0  0  0  0
  -27.6000  -13.2660   19.8170 C   0  0  0  0  0  3  0  0  0  0  0  0
  -28.6540  -13.0570   20.9320 C   0  0  0  0  0  2  0  0  0  0  0  0
  -29.9850  -13.2850   20.3540 N   0  0  0  0  0  0  0  0  0  0  0  0
  -31.9090  -14.4540   20.0800 O   0  0  0  0  0  0  0  0  0  0  0  0
  -30.0780  -15.5600   20.6610 N   0  0  0  0  0  0  0  0  0  0  0  0
  -29.0990  -15.5290   20.9090 H   0  0  0  0  0  0  0  0  0  0  0  0
  -25.2050  -13.8790   20.5260 C   0  0  0  0  0  0  0  0  0  0  0  0
  -24.1330  -13.1090   20.8940 C   0  0  0  0  0  0  0  0  0  0  0  0
  -24.5890  -11.7560   20.8640 C   0  0  0  0  0  0  0  0  0  0  0  0
  -26.2470  -12.9940   20.2990 N   0  0  0  0  0  0  0  0  0  0  0  0
  -25.8810  -11.7120   20.5620 N   0  0  0  0  0  0  0  0  0  0  0  0
  -23.8580  -10.4950   21.0520 C   0  0  0  0  0  0  0  0  0  0  0  0
  -24.2900   -9.5240   21.9830 C   0  0  0  0  0  3  0  0  0  0  0  0
  -23.5610   -8.3290   22.1610 C   0  0  0  0  0  3  0  0  0  0  0  0
  -22.3860   -8.0940   21.4080 C   0  0  0  0  0  0  0  0  0  0  0  0
  -21.9730   -9.0540   20.4670 C   0  0  0  0  0  3  0  0  0  0  0  0
  -22.7020  -10.2420   20.2880 C   0  0  0  0  0  3  0  0  0  0  0  0
  -21.6290   -6.9500   21.4940 O   0  0  0  0  0  0  0  0  0  0  0  0
  -21.5860   -6.2000   22.6420 C   0  0  0  0  0  0  0  0  0  0  0  0
  -21.1750   -6.7500   23.8760 C   0  0  0  0  0  3  0  0  0  0  0  0
  -21.0780   -5.9270   25.0160 C   0  0  0  0  0  3  0  0  0  0  0  0
  -21.3820   -4.5550   24.9220 C   0  0  0  0  0  0  0  0  0  0  0  0
  -21.7880   -4.0050   23.6940 C   0  0  0  0  0  3  0  0  0  0  0  0
  -21.8870   -4.8250   22.5560 C   0  0  0  0  0  0  0  0  0  0  0  0
  -22.2550   -4.2860   21.3700 F   0  0  0  0  0  0  0  0  0  0  0  0
  -21.2820   -3.7640   26.0150 F   0  0  0  0  0  0  0  0  0  0  0  0
  -22.7370  -13.5890   21.1610 C   0  0  0  0  0  0  0  0  0  0  0  0
  -22.0040  -12.8960   22.0260 N   0  0  0  0  0  0  0  0  0  0  0  0
  -22.3040  -14.6160   20.6410 O   0  0  0  0  0  0  0  0  0  0  0  0
  -22.3680  -12.0670   22.4730 H   0  0  0  0  0  0  0  0  0  0  0  0
  -21.0650  -13.1980   22.2440 H   0  0  0  0  0  0  0  0  0  0  0  0
  -25.3760  -15.2490   20.3500 N   0  0  0  0  0  0  0  0  0  0  0  0
  -24.6150  -15.9080   20.4650 H   0  0  0  0  0  0  0  0  0  0  0  0
  -26.2290  -15.6870   20.0230 H   0  0  0  0  0  0  0  0  0  0  0  0
  -30.8330  -18.9260   17.9110 N   0  0  0  0  0  4  0  0  0  0  0  0
  -29.9770  -18.9450   17.3880 H   0  0  0  0  0  0  0  0  0  0  0  0
  -31.2860  -18.0460   17.7500 H   0  0  0  0  0  0  0  0  0  0  0  0
  -31.4220  -19.6640   17.5710 H   0  0  0  0  0  0  0  0  0  0  0  0
  -28.7360  -24.7390   19.0080 C   0  0  0  0  0  2  0  0  0  0  0  0
  -28.4000  -25.4010   20.3450 C   0  0  0  0  0  2  0  0  0  0  0  0
  -28.4090  -26.8150   20.1990 O   0  0  0  0  0  0  0  0  0  0  0  0
  -24.5610  -31.8870   23.2580 C   0  0  0  0  0  0  0  0  0  0  0  0
  -27.2040  -27.4730   20.1870 C   0  0  0  0  0  0  0  0  0  0  0  0
  -23.3480  -30.4840   21.6180 C   0  0  0  0  0  3  0  0  0  0  0  0
  -24.7970  -28.9460   20.1920 C   0  0  0  0  0  0  0  0  0  0  0  0
  -25.8670  -30.8570   21.4050 C   0  0  0  0  0  2  0  0  0  0  0  0
  -25.9510  -29.4860   20.7720 C   0  0  0  0  0  0  0  0  0  0  0  0
  -27.1560  -28.7580   20.7600 C   0  0  0  0  0  3  0  0  0  0  0  0
  -26.0340  -26.9320   19.6070 C   0  0  0  0  0  3  0  0  0  0  0  0
  -24.8320  -27.6670   19.6070 C   0  0  0  0  0  3  0  0  0  0  0  0
  -23.5490  -29.7980   20.2390 C   0  0  0  0  0  2  0  0  0  0  0  0
  -24.6100  -31.0910   22.1520 N   0  0  0  0  0  0  0  0  0  0  0  0
  -23.4820  -32.1590   23.8020 O   0  0  0  0  0  0  0  0  0  0  0  0
  -22.7000  -29.4660   22.5820 C   0  0  0  0  0  0  0  0  0  0  0  0
  -21.3770  -29.2790   22.4550 N   0  0  0  0  0  0  0  0  0  0  0  0
  -23.3870  -28.8430   23.3990 O   0  0  0  0  0  0  0  0  0  0  0  0
  -20.8870  -29.8330   21.7660 H   0  0  0  0  0  0  0  0  0  0  0  0
  -18.0050  -28.0920   22.9530 C   0  0  0  0  0  0  0  0  0  0  0  0
  -20.5620  -28.3440   23.2250 C   0  0  0  0  0  3  0  0  0  0  0  0
  -20.6630  -26.9130   22.6490 C   0  0  0  0  0  2  0  0  0  0  0  0
  -19.5620  -26.5920   21.6360 C   0  0  0  0  0  2  0  0  0  0  0  0
  -18.1790  -26.7410   22.2780 C   0  0  0  0  0  2  0  0  0  0  0  0
  -19.1240  -28.8520   23.3830 C   0  0  0  0  0  0  0  0  0  0  0  0
  -18.9090  -30.1160   23.9720 C   0  0  0  0  0  3  0  0  0  0  0  0
  -17.6060  -30.6220   24.1340 C   0  0  0  0  0  3  0  0  0  0  0  0
  -16.5000  -29.8590   23.7200 C   0  0  0  0  0  3  0  0  0  0  0  0
  -16.7000  -28.5960   23.1360 C   0  0  0  0  0  3  0  0  0  0  0  0
  -25.8510  -32.5150   23.8750 C   0  0  0  0  0  3  0  0  0  0  0  0
  -26.3690  -31.7470   25.1520 C   0  0  1  0  0  0  0  0  0  0  0  0
  -25.2770  -31.5160   26.2240 C   0  0  0  0  0  1  0  0  0  0  0  0
  -26.9450  -30.3660   24.7600 C   0  0  0  0  0  1  0  0  0  0  0  0
  -27.5260  -32.5360   25.8080 C   0  0  0  0  0  1  0  0  0  0  0  0
  -25.5520  -33.9160   24.1970 N   0  0  0  0  0  0  0  0  0  0  0  0
  -25.8940  -34.9620   23.4320 C   0  0  0  0  0  0  0  0  0  0  0  0
  -26.5690  -34.8480   22.4060 O   0  0  0  0  0  0  0  0  0  0  0  0
  -24.9570  -34.0800   24.9960 H   0  0  0  0  0  0  0  0  0  0  0  0
  -24.1810  -36.7610   23.0460 C   0  0  0  0  0  1  0  0  0  0  0  0
  -25.4080  -36.3550   23.8770 C   0  0  0  0  0  3  0  0  0  0  0  0
  -27.5380  -37.2270   24.7300 C   0  0  0  0  0  1  0  0  0  0  0  0
  -26.4490  -37.3990   23.7720 N   0  0  0  0  0  0  0  0  0  0  0  0
  -26.0470  -38.3230   23.9110 H   0  0  0  0  0  0  0  0  0  0  0  0
  1  5  1  0
  3  6  1  0
  3  1  2  0
  4  2  1  0
  5  2  2  0
  6  4  2  0
  7 12  2  0
  7 10  1  0
  9  8  1  0
 10 21  1  0
 10  8  1  0
 11 51  1  6
 11  5  1  0
 11  7  1  0
 11  9  1  0
 13 21  1  0
 14 19  1  0
 15 16  1  0
 15 14  1  0
 17 16  1  0
 17 26  1  0
 17 18  1  0
 19 13  1  0
 19 18  1  0
 20 13  2  0
 21 22  1  0
 23 24  2  0
 24 43  1  0
 25 24  1  0
 25 28  1  0
 26 23  1  0
 26 27  1  0
 27 25  2  0
 28 29  1  0
 29 30  2  0
 31 34  1  0
 31 30  1  0
 32 31  2  0
 33 32  1  0
 33 28  2  0
 34 35  1  0
 35 36  1  0
 36 37  2  0
 38 37  1  0
 38 42  1  0
 39 38  2  0
 40 35  2  0
 40 39  1  0
 41 40  1  0
 43 44  1  0
 44 47  1  0
 44 46  1  0
 45 43  2  0
 48 49  1  0
 48 23  1  0
 50 48  1  0
 52 51  1  0
 53 51  1  0
 54 51  1  0
 55  6  1  0
 55 56  1  0
 57 56  1  0
 58 69  2  0
 59 57  1  0
 59 64  1  0
 60 68  1  0
 60 70  1  0
 61 67  1  0
 61 63  1  0
 62 68  1  0
 63 62  1  0
 64 63  2  0
 65 59  2  0
 66 65  1  0
 66 61  2  0
 67 60  1  0
 68 58  1  0
 70 72  2  0
 71 70  1  0
 73 71  1  0
 74 83  2  0
 74 79  1  0
 75 71  1  0
 75 79  1  0
 76 75  1  0
 77 78  1  0
 77 76  1  0
 78 74  1  0
 79 80  2  0
 80 81  1  0
 82 81  2  0
 83 82  1  0
 84 58  1  0
 84 89  1  0
 84 85  1  0
 85 88  1  1
 85 86  1  0
 87 85  1  0
 89 92  1  0
 90 94  1  0
 90 89  1  0
 91 90  2  0
 94 93  1  0
 96 94  1  0
 96 97  1  0
 96 95  1  0
M  ISO  4  13 100  21 100  56 101  57 101
M  END
>  <TORSDO>  (94) 
F 20

>  <SCORE>  (94) 
-14.253

>  <name>  (94) 
94

>  <ligand_id>  (94) 
94

>  <original_smiles>  (94) 
[H]c1c([H])c([H])c2c(c1[H])C([H])([H])C([H])([H])C([H])([H])C2([H])N([H])C(=O)C1([H])N(C(=O)C([H])(N([H])C(=O)C([H])(N([H])C([H])([H])[H])C([H])([H])[H])C(C([H])([H])[H])(C([H])([H])[H])C([H])([H])[H])C([H])([H])c2c([H])c(OC([H])([H])C([H])([H])c3c([H])c([H])c(C4([N+]([H])([H])[H])C(=O)C([H])(N([H])C(=O)N5C([H])([H])C([H])([H])C([H])([H])C([H])(n6nc(-c7c([H])c([H])c(Oc8c([H])c([H])c(F)c([H])c8F)c([H])c7[H])c(C(=O)N([H])[H])c6N([H])[H])C5([H])[H])C([H])([H])C4([H])[H])c([H])c3[H])c([H])c([H])c2C1([H])[H]

>  <smiles>  (94) 
[H]c1c([H])c([H])c2c(c1[H])C([H])([H])C([H])([H])C([H])([H])C2([H])N([H])C(=O)C1([H])N(C(=O)C([H])(N([H])C(=O)C([H])(N([H])C([H])([H])[H])C([H])([H])[H])C(C([H])([H])[H])(C([H])([H])[H])C([H])([H])[H])C([H])([H])c2c([H])c(OC([H])([H])C([H])([H])c3c([H])c([H])c(C4([N+]([H])([H])[H])C(=O)C([H])(N([H])C(=O)N5C([H])([H])C([H])([H])C([H])([H])C([H])(n6nc(-c7c([H])c([H])c(Oc8c([H])c([H])c(F)c([H])c8F)c([H])c7[H])c(C(=O)N([H])[H])c6N([H])[H])C5([H])[H])C([H])([H])C4([H])[H])c([H])c3[H])c([H])c([H])c2C1([H])[H]

$$$$
95:0:0
     RDKit          3D

 90 98  0  0  1  0  0  0  0  0999 V2000
  -27.9800  -20.5730   20.4090 C   0  0  0  0  0  3  0  0  0  0  0  0
  -27.9680  -21.9840   20.2390 C   0  0  0  0  0  3  0  0  0  0  0  0
  -30.1000  -21.8350   19.1410 C   0  0  0  0  0  3  0  0  0  0  0  0
  -29.0500  -19.7420   19.9730 C   0  0  0  0  0  0  0  0  0  0  0  0
  -29.0420  -22.6540   19.6120 C   0  0  0  0  0  0  0  0  0  0  0  0
  -30.1130  -20.4160   19.2950 C   0  0  0  0  0  0  0  0  0  0  0  0
  -31.2790  -19.6620   18.6770 C   0  0  0  0  0  1  0  0  0  0  0  0
  -28.8890  -18.2240   20.1810 C   0  0  0  0  0  0  0  0  0  0  0  0
  -27.7630  -17.7450   20.3480 O   0  0  0  0  0  0  0  0  0  0  0  0
  -30.0930  -17.2220   20.2130 C   0  0  0  0  0  2  0  0  0  0  0  0
  -29.8700  -15.8650   21.0070 C   0  0  0  0  0  2  0  0  0  0  0  0
  -30.6430  -14.6060   20.4760 C   0  0  0  0  0  0  0  0  0  0  0  0
  -30.4280  -12.4090   19.3480 C   0  0  0  0  0  2  0  0  0  0  0  0
  -29.4950  -12.6180   18.1340 C   0  0  0  0  0  2  0  0  0  0  0  0
  -28.0140  -12.4700   18.5430 C   0  0  0  0  0  2  0  0  0  0  0  0
  -27.6640  -13.2920   19.8120 C   0  0  0  0  0  3  0  0  0  0  0  0
  -28.7080  -13.0510   20.9250 C   0  0  0  0  0  2  0  0  0  0  0  0
  -30.0280  -13.3890   20.3750 N   0  0  0  0  0  0  0  0  0  0  0  0
  -31.7910  -14.7740   20.0500 O   0  0  0  0  0  0  0  0  0  0  0  0
  -25.2550  -13.9060   20.4740 C   0  0  0  0  0  0  0  0  0  0  0  0
  -24.1810  -13.1370   20.8330 C   0  0  0  0  0  0  0  0  0  0  0  0
  -24.6430  -11.7850   20.8250 C   0  0  0  0  0  0  0  0  0  0  0  0
  -26.3050  -13.0210   20.2740 N   0  0  0  0  0  0  0  0  0  0  0  0
  -25.9380  -11.7410   20.5380 N   0  0  0  0  0  0  0  0  0  0  0  0
  -23.9100  -10.5280   21.0190 C   0  0  0  0  0  0  0  0  0  0  0  0
  -24.3270   -9.5680   21.9650 C   0  0  0  0  0  3  0  0  0  0  0  0
  -23.5970   -8.3720   22.1440 C   0  0  0  0  0  3  0  0  0  0  0  0
  -22.4310   -8.1330   21.3770 C   0  0  0  0  0  0  0  0  0  0  0  0
  -22.0340   -9.0820   20.4180 C   0  0  0  0  0  3  0  0  0  0  0  0
  -22.7660  -10.2660   20.2380 C   0  0  0  0  0  3  0  0  0  0  0  0
  -21.6710   -6.9910   21.4670 O   0  0  0  0  0  0  0  0  0  0  0  0
  -21.6100   -6.2550   22.6220 C   0  0  0  0  0  0  0  0  0  0  0  0
  -21.1810   -6.8200   23.8430 C   0  0  0  0  0  3  0  0  0  0  0  0
  -21.0660   -6.0120   24.9900 C   0  0  0  0  0  3  0  0  0  0  0  0
  -21.3680   -4.6390   24.9180 C   0  0  0  0  0  0  0  0  0  0  0  0
  -21.7920   -4.0730   23.7030 C   0  0  0  0  0  3  0  0  0  0  0  0
  -21.9090   -4.8790   22.5570 C   0  0  0  0  0  0  0  0  0  0  0  0
  -22.2960   -4.3250   21.3830 F   0  0  0  0  0  0  0  0  0  0  0  0
  -21.2490   -3.8610   26.0190 F   0  0  0  0  0  0  0  0  0  0  0  0
  -22.7810  -13.6220   21.0810 C   0  0  0  0  0  0  0  0  0  0  0  0
  -22.0350  -12.9340   21.9400 N   0  0  0  0  0  0  0  0  0  0  0  0
  -22.3530  -14.6410   20.5440 O   0  0  0  0  0  0  0  0  0  0  0  0
  -22.3870  -12.1070   22.3990 H   0  0  0  0  0  0  0  0  0  0  0  0
  -21.0980  -13.2470   22.1490 H   0  0  0  0  0  0  0  0  0  0  0  0
  -25.4160  -15.2750   20.2880 N   0  0  0  0  0  0  0  0  0  0  0  0
  -24.6350  -15.9150   20.3940 H   0  0  0  0  0  0  0  0  0  0  0  0
  -26.2840  -15.7520   20.0760 H   0  0  0  0  0  0  0  0  0  0  0  0
  -29.0650  -24.2020   19.3790 C   0  0  0  0  0  3  0  0  0  0  0  0
  -28.2510  -25.1380   20.3550 C   0  0  0  0  0  3  0  0  0  0  0  0
  -28.3720  -26.5910   20.1490 O   0  0  0  0  0  0  0  0  0  0  0  0
  -24.5850  -31.8900   23.2510 C   0  0  0  0  0  0  0  0  0  0  0  0
  -27.2170  -27.3770   20.1720 C   0  0  0  0  0  0  0  0  0  0  0  0
  -23.3800  -30.4920   21.6100 C   0  0  0  0  0  3  0  0  0  0  0  0
  -24.8360  -28.9490   20.1860 C   0  0  0  0  0  0  0  0  0  0  0  0
  -25.9160  -30.8270   21.4230 C   0  0  0  0  0  2  0  0  0  0  0  0
  -26.0010  -29.4510   20.7780 C   0  0  0  0  0  0  0  0  0  0  0  0
  -27.1960  -28.6760   20.7600 C   0  0  0  0  0  3  0  0  0  0  0  0
  -26.0250  -26.9150   19.5710 C   0  0  0  0  0  3  0  0  0  0  0  0
  -24.8470  -27.6830   19.5800 C   0  0  0  0  0  3  0  0  0  0  0  0
  -23.5940  -29.8180   20.2290 C   0  0  0  0  0  2  0  0  0  0  0  0
  -24.6460  -31.0840   22.1520 N   0  0  0  0  0  0  0  0  0  0  0  0
  -23.5020  -32.1670   23.7870 O   0  0  0  0  0  0  0  0  0  0  0  0
  -22.7220  -29.4730   22.5700 C   0  0  0  0  0  0  0  0  0  0  0  0
  -21.3950  -29.2950   22.4450 N   0  0  0  0  0  0  0  0  0  0  0  0
  -23.4040  -28.8450   23.3840 O   0  0  0  0  0  0  0  0  0  0  0  0
  -20.9040  -29.8560   21.7620 H   0  0  0  0  0  0  0  0  0  0  0  0
  -18.0190  -28.1050   22.9490 C   0  0  0  0  0  0  0  0  0  0  0  0
  -20.5780  -28.3590   23.2180 C   0  0  0  0  0  3  0  0  0  0  0  0
  -20.6780  -26.9280   22.6440 C   0  0  0  0  0  2  0  0  0  0  0  0
  -19.5760  -26.6070   21.6300 C   0  0  0  0  0  2  0  0  0  0  0  0
  -18.1940  -26.7550   22.2750 C   0  0  0  0  0  2  0  0  0  0  0  0
  -19.1400  -28.8650   23.3780 C   0  0  0  0  0  0  0  0  0  0  0  0
  -18.9240  -30.1290   23.9700 C   0  0  0  0  0  3  0  0  0  0  0  0
  -17.6210  -30.6330   24.1370 C   0  0  0  0  0  3  0  0  0  0  0  0
  -16.5140  -29.8700   23.7250 C   0  0  0  0  0  3  0  0  0  0  0  0
  -16.7140  -28.6100   23.1360 C   0  0  0  0  0  3  0  0  0  0  0  0
  -25.8690  -32.5240   23.8700 C   0  0  0  0  0  3  0  0  0  0  0  0
  -25.5620  -33.9250   24.1900 N   0  0  0  0  0  0  0  0  0  0  0  0
  -25.9000  -34.9730   23.4270 C   0  0  0  0  0  0  0  0  0  0  0  0
  -26.5750  -34.8620   22.4010 O   0  0  0  0  0  0  0  0  0  0  0  0
  -24.9660  -34.0870   24.9890 H   0  0  0  0  0  0  0  0  0  0  0  0
  -24.1830  -36.7710   23.0530 C   0  0  0  0  0  1  0  0  0  0  0  0
  -25.4150  -36.3640   23.8780 C   0  0  0  0  0  3  0  0  0  0  0  0
  -27.5420  -37.2430   24.7270 C   0  0  0  0  0  1  0  0  0  0  0  0
  -26.4490  -37.4130   23.7740 N   0  0  0  0  0  0  0  0  0  0  0  0
  -26.0430  -38.3330   23.9200 H   0  0  0  0  0  0  0  0  0  0  0  0
  -26.3840  -31.7600   25.1520 C   0  0  1  0  0  0  0  0  0  0  0  0
  -25.2890  -31.5340   26.2190 C   0  0  0  0  0  1  0  0  0  0  0  0
  -26.9650  -30.3780   24.7710 C   0  0  0  0  0  1  0  0  0  0  0  0
  -27.5340  -32.5580   25.8120 C   0  0  0  0  0  1  0  0  0  0  0  0
  2  1  1  0
  3  6  2  0
  3  5  1  0
  4  8  1  0
  4  1  2  0
  5  2  2  0
  6  4  1  0
  7  6  1  0
  8 10  1  0
  8  9  2  0
 10 11  1  0
 12 11  1  0
 13 18  1  0
 14 15  1  0
 14 13  1  0
 16 15  1  0
 16 23  1  0
 16 17  1  0
 18 12  1  0
 18 17  1  0
 19 12  2  0
 20 21  2  0
 21 40  1  0
 22 21  1  0
 22 25  1  0
 23 20  1  0
 23 24  1  0
 24 22  2  0
 25 26  1  0
 26 27  2  0
 28 31  1  0
 28 27  1  0
 29 28  2  0
 30 29  1  0
 30 25  2  0
 31 32  1  0
 32 33  1  0
 33 34  2  0
 35 34  1  0
 35 39  1  0
 36 35  2  0
 37 32  2  0
 37 36  1  0
 38 37  1  0
 40 41  1  0
 41 44  1  0
 41 43  1  0
 42 40  2  0
 45 46  1  0
 45 20  1  0
 47 45  1  0
 48  5  1  0
 48 49  2  0
 50 52  1  0
 50 49  1  0
 51 62  2  0
 52 57  1  0
 53 61  1  0
 53 63  1  0
 54 60  1  0
 54 56  1  0
 55 61  1  0
 56 55  1  0
 57 56  2  0
 58 59  1  0
 58 52  2  0
 59 54  2  0
 60 53  1  0
 61 51  1  0
 63 65  2  0
 64 63  1  0
 66 64  1  0
 67 76  2  0
 67 72  1  0
 68 64  1  0
 68 72  1  0
 69 68  1  0
 70 71  1  0
 70 69  1  0
 71 67  1  0
 72 73  2  0
 73 74  1  0
 75 74  2  0
 76 75  1  0
 77 51  1  0
 77 78  1  0
 77 87  1  0
 78 81  1  0
 79 83  1  0
 79 78  1  0
 80 79  2  0
 83 82  1  0
 85 83  1  0
 85 86  1  0
 85 84  1  0
 87 90  1  1
 87 88  1  0
 89 87  1  0
M  ISO  4  11 100  12 100  49 101  50 101
M  END
>  <TORSDO>  (95) 
F 21

>  <SCORE>  (95) 
-13.609

>  <name>  (95) 
95

>  <ligand_id>  (95) 
95

>  <original_smiles>  (95) 
[H]c1c([H])c([H])c2c(c1[H])C([H])([H])C([H])([H])C([H])([H])C2([H])N([H])C(=O)C1([H])N(C(=O)C([H])(N([H])C(=O)C([H])(N([H])C([H])([H])[H])C([H])([H])[H])C(C([H])([H])[H])(C([H])([H])[H])C([H])([H])[H])C([H])([H])c2c([H])c(OC([H])([H])C([H])([H])c3c([H])c([H])c(C(=O)C([H])([H])C([H])([H])C(=O)N4C([H])([H])C([H])([H])C([H])([H])C([H])(n5nc(-c6c([H])c([H])c(Oc7c([H])c([H])c(F)c([H])c7F)c([H])c6[H])c(C(=O)N([H])[H])c5N([H])[H])C4([H])[H])c(C([H])([H])[H])c3[H])c([H])c([H])c2C1([H])[H]

>  <smiles>  (95) 
[H]c1c([H])c([H])c2c(c1[H])C([H])([H])C([H])([H])C([H])([H])C2([H])N([H])C(=O)C1([H])N(C(=O)C([H])(N([H])C(=O)C([H])(N([H])C([H])([H])[H])C([H])([H])[H])C(C([H])([H])[H])(C([H])([H])[H])C([H])([H])[H])C([H])([H])c2c([H])c(OC([H])([H])C([H])([H])c3c([H])c([H])c(C(=O)C([H])([H])C([H])([H])C(=O)N4C([H])([H])C([H])([H])C([H])([H])C([H])(n5nc(-c6c([H])c([H])c(Oc7c([H])c([H])c(F)c([H])c7F)c([H])c6[H])c(C(=O)N([H])[H])c5N([H])[H])C4([H])[H])c(C([H])([H])[H])c3[H])c([H])c([H])c2C1([H])[H]

$$$$
96:0:0
     RDKit          3D

 93101  0  0  1  0  0  0  0  0999 V2000
  -28.8670  -21.2900   20.3400 C   0  0  0  0  0  3  0  0  0  0  0  0
  -30.5880  -22.9850   20.1710 C   0  0  0  0  0  3  0  0  0  0  0  0
  -29.2140  -22.6920   20.2490 C   0  0  0  0  0  0  0  0  0  0  0  0
  -29.8350  -20.2090   20.4070 C   0  0  0  0  0  0  0  0  0  0  0  0
  -31.5630  -21.9650   20.1950 C   0  0  0  0  0  0  0  0  0  0  0  0
  -31.2050  -20.5970   20.3500 C   0  0  0  0  0  0  0  0  0  0  0  0
  -33.0150  -22.3740   19.9960 C   0  0  0  0  0  1  0  0  0  0  0  0
  -28.2070  -23.8540   20.0690 C   0  0  0  0  0  0  0  0  0  0  0  0
  -27.2220  -23.7090   19.3400 O   0  0  0  0  0  0  0  0  0  0  0  0
  -28.3490  -25.2230   20.8710 C   0  0  0  0  0  2  0  0  0  0  0  0
  -28.3460  -26.5070   20.1220 O   0  0  0  0  0  0  0  0  0  0  0  0
  -24.5900  -31.8760   23.2400 C   0  0  0  0  0  0  0  0  0  0  0  0
  -27.2120  -27.3300   20.1750 C   0  0  0  0  0  0  0  0  0  0  0  0
  -23.3880  -30.4750   21.5990 C   0  0  0  0  0  3  0  0  0  0  0  0
  -24.8410  -28.9260   20.1750 C   0  0  0  0  0  0  0  0  0  0  0  0
  -25.9250  -30.8040   21.4110 C   0  0  0  0  0  2  0  0  0  0  0  0
  -26.0100  -29.4240   20.7650 C   0  0  0  0  0  0  0  0  0  0  0  0
  -27.2010  -28.6400   20.7480 C   0  0  0  0  0  3  0  0  0  0  0  0
  -26.0210  -26.8750   19.5770 C   0  0  0  0  0  3  0  0  0  0  0  0
  -24.8480  -27.6560   19.5750 C   0  0  0  0  0  3  0  0  0  0  0  0
  -23.6020  -29.7990   20.2190 C   0  0  0  0  0  2  0  0  0  0  0  0
  -24.6530  -31.0690   22.1400 N   0  0  0  0  0  0  0  0  0  0  0  0
  -23.5070  -32.1480   23.7770 O   0  0  0  0  0  0  0  0  0  0  0  0
  -22.7290  -29.4560   22.5580 C   0  0  0  0  0  0  0  0  0  0  0  0
  -21.4050  -29.2730   22.4310 N   0  0  0  0  0  0  0  0  0  0  0  0
  -23.4110  -28.8330   23.3770 O   0  0  0  0  0  0  0  0  0  0  0  0
  -20.9130  -29.8270   21.7440 H   0  0  0  0  0  0  0  0  0  0  0  0
  -18.0310  -28.0660   22.9330 C   0  0  0  0  0  0  0  0  0  0  0  0
  -20.5890  -28.3310   23.1990 C   0  0  0  0  0  3  0  0  0  0  0  0
  -20.6940  -26.9010   22.6190 C   0  0  0  0  0  2  0  0  0  0  0  0
  -19.5910  -26.5790   21.6060 C   0  0  0  0  0  2  0  0  0  0  0  0
  -18.2100  -26.7190   22.2520 C   0  0  0  0  0  2  0  0  0  0  0  0
  -19.1490  -28.8300   23.3630 C   0  0  0  0  0  0  0  0  0  0  0  0
  -18.9280  -30.0900   23.9590 C   0  0  0  0  0  3  0  0  0  0  0  0
  -17.6220  -30.5870   24.1270 C   0  0  0  0  0  3  0  0  0  0  0  0
  -16.5190  -29.8210   23.7140 C   0  0  0  0  0  3  0  0  0  0  0  0
  -16.7240  -28.5610   23.1220 C   0  0  0  0  0  3  0  0  0  0  0  0
  -25.8720  -32.5100   23.8620 C   0  0  0  0  0  3  0  0  0  0  0  0
  -25.5640  -33.9100   24.1830 N   0  0  0  0  0  0  0  0  0  0  0  0
  -25.8980  -34.9590   23.4190 C   0  0  0  0  0  0  0  0  0  0  0  0
  -26.5670  -34.8480   22.3890 O   0  0  0  0  0  0  0  0  0  0  0  0
  -24.9670  -34.0700   24.9830 H   0  0  0  0  0  0  0  0  0  0  0  0
  -24.1770  -36.7570   23.0480 C   0  0  0  0  0  1  0  0  0  0  0  0
  -25.4120  -36.3510   23.8680 C   0  0  0  0  0  3  0  0  0  0  0  0
  -27.5430  -37.2350   24.7120 C   0  0  0  0  0  1  0  0  0  0  0  0
  -26.4480  -37.4010   23.7580 N   0  0  0  0  0  0  0  0  0  0  0  0
  -26.0440  -38.3230   23.8990 H   0  0  0  0  0  0  0  0  0  0  0  0
  -26.3830  -31.7470   25.1460 C   0  0  1  0  0  0  0  0  0  0  0  0
  -25.2850  -31.5170   26.2110 C   0  0  0  0  0  1  0  0  0  0  0  0
  -26.9680  -30.3660   24.7670 C   0  0  0  0  0  1  0  0  0  0  0  0
  -27.5310  -32.5440   25.8080 C   0  0  0  0  0  1  0  0  0  0  0  0
  -29.3900  -18.7190   20.5360 C   0  0  0  0  0  0  0  0  0  0  0  0
  -28.1910  -18.4490   20.6520 O   0  0  0  0  0  0  0  0  0  0  0  0
  -30.3940  -17.4820   20.5320 C   0  0  0  0  0  2  0  0  0  0  0  0
  -29.8190  -16.0050   20.7970 C   0  0  0  0  0  2  0  0  0  0  0  0
  -30.6240  -14.7240   20.3040 C   0  0  0  0  0  0  0  0  0  0  0  0
  -30.4170  -12.4950   19.1970 C   0  0  0  0  0  2  0  0  0  0  0  0
  -29.4550  -12.6270   17.9950 C   0  0  0  0  0  2  0  0  0  0  0  0
  -27.9860  -12.4640   18.4360 C   0  0  0  0  0  2  0  0  0  0  0  0
  -27.6400  -13.3100   19.6880 C   0  0  0  0  0  3  0  0  0  0  0  0
  -28.7120  -13.1490   20.7870 C   0  0  0  0  0  2  0  0  0  0  0  0
  -30.0150  -13.4970   20.2070 N   0  0  0  0  0  0  0  0  0  0  0  0
  -31.7750  -14.8770   19.8890 O   0  0  0  0  0  0  0  0  0  0  0  0
  -25.2560  -13.8980   20.4390 C   0  0  0  0  0  0  0  0  0  0  0  0
  -24.1930  -13.1190   20.8130 C   0  0  0  0  0  0  0  0  0  0  0  0
  -24.6610  -11.7690   20.7750 C   0  0  0  0  0  0  0  0  0  0  0  0
  -26.2990  -13.0210   20.1890 N   0  0  0  0  0  0  0  0  0  0  0  0
  -25.9490  -11.7360   20.4550 N   0  0  0  0  0  0  0  0  0  0  0  0
  -23.9390  -10.5040   20.9690 C   0  0  0  0  0  0  0  0  0  0  0  0
  -24.3680   -9.5470   21.9150 C   0  0  0  0  0  3  0  0  0  0  0  0
  -23.6470   -8.3470   22.0970 C   0  0  0  0  0  3  0  0  0  0  0  0
  -22.4830   -8.0960   21.3310 C   0  0  0  0  0  0  0  0  0  0  0  0
  -22.0730   -9.0430   20.3770 C   0  0  0  0  0  3  0  0  0  0  0  0
  -22.7940  -10.2340   20.1930 C   0  0  0  0  0  3  0  0  0  0  0  0
  -21.7340   -6.9480   21.4230 O   0  0  0  0  0  0  0  0  0  0  0  0
  -21.6640   -6.2230   22.5850 C   0  0  0  0  0  0  0  0  0  0  0  0
  -21.1750   -6.7850   23.7840 C   0  0  0  0  0  3  0  0  0  0  0  0
  -21.0540   -5.9870   24.9390 C   0  0  0  0  0  3  0  0  0  0  0  0
  -21.4120   -4.6260   24.8940 C   0  0  0  0  0  0  0  0  0  0  0  0
  -21.8950   -4.0620   23.7000 C   0  0  0  0  0  3  0  0  0  0  0  0
  -22.0170   -4.8580   22.5480 C   0  0  0  0  0  0  0  0  0  0  0  0
  -22.4630   -4.3070   21.3930 F   0  0  0  0  0  0  0  0  0  0  0  0
  -21.2880   -3.8560   26.0000 F   0  0  0  0  0  0  0  0  0  0  0  0
  -22.7970  -13.5900   21.0970 C   0  0  0  0  0  0  0  0  0  0  0  0
  -22.0760  -12.8860   21.9630 N   0  0  0  0  0  0  0  0  0  0  0  0
  -22.3530  -14.6180   20.5890 O   0  0  0  0  0  0  0  0  0  0  0  0
  -22.4500  -12.0550   22.3980 H   0  0  0  0  0  0  0  0  0  0  0  0
  -21.1400  -13.1840   22.1960 H   0  0  0  0  0  0  0  0  0  0  0  0
  -25.4150  -15.2690   20.2720 N   0  0  0  0  0  0  0  0  0  0  0  0
  -24.6510  -15.9250   20.4010 H   0  0  0  0  0  0  0  0  0  0  0  0
  -26.2710  -15.7210   19.9750 H   0  0  0  0  0  0  0  0  0  0  0  0
  -32.8990  -19.5970   21.6340 C   0  0  0  0  0  1  0  0  0  0  0  0
  -32.2030  -19.6550   20.3930 O   0  0  0  0  0  0  0  0  0  0  0  0
  1  4  1  0
  2  5  2  0
  2  3  1  0
  3  1  2  0
  4 52  1  0
  5  6  1  0
  6 93  1  0
  6  4  2  0
  7  5  1  0
  8  3  1  0
  8 10  1  0
  9  8  2  0
 11 13  1  0
 11 10  1  0
 12 23  2  0
 13 18  1  0
 14 22  1  0
 14 24  1  0
 15 21  1  0
 15 17  1  0
 16 22  1  0
 17 16  1  0
 18 17  2  0
 19 13  2  0
 20 19  1  0
 20 15  2  0
 21 14  1  0
 22 12  1  0
 24 26  2  0
 25 24  1  0
 27 25  1  0
 28 37  2  0
 28 33  1  0
 29 25  1  0
 29 33  1  0
 30 29  1  0
 31 32  1  0
 31 30  1  0
 32 28  1  0
 33 34  2  0
 34 35  1  0
 36 35  2  0
 37 36  1  0
 38 12  1  0
 38 39  1  0
 38 48  1  0
 39 42  1  0
 40 44  1  0
 40 39  1  0
 41 40  2  0
 44 43  1  0
 46 44  1  0
 46 47  1  0
 46 45  1  0
 48 51  1  1
 48 49  1  0
 50 48  1  0
 52 53  2  0
 54 52  1  0
 54 55  1  0
 56 55  1  0
 57 62  1  0
 58 59  1  0
 58 57  1  0
 60 59  1  0
 60 67  1  0
 60 61  1  0
 62 56  1  0
 62 61  1  0
 63 56  2  0
 64 65  2  0
 65 84  1  0
 66 65  1  0
 66 69  1  0
 67 64  1  0
 67 68  1  0
 68 66  2  0
 69 70  1  0
 70 71  2  0
 72 75  1  0
 72 71  1  0
 73 72  2  0
 74 73  1  0
 74 69  2  0
 75 76  1  0
 76 77  1  0
 77 78  2  0
 79 78  1  0
 79 83  1  0
 80 79  2  0
 81 76  2  0
 81 80  1  0
 82 81  1  0
 84 85  1  0
 85 88  1  0
 85 87  1  0
 86 84  2  0
 89 90  1  0
 89 64  1  0
 91 89  1  0
 93 92  1  0
M  ISO  4  10 101  11 101  55 100  56 100
M  END
>  <TORSDO>  (96) 
F 22

>  <SCORE>  (96) 
-13.415

>  <name>  (96) 
96

>  <ligand_id>  (96) 
96

>  <original_smiles>  (96) 
[H]c1c([H])c([H])c2c(c1[H])C([H])([H])C([H])([H])C([H])([H])C2([H])N([H])C(=O)C1([H])N(C(=O)C([H])(N([H])C(=O)C([H])(N([H])C([H])([H])[H])C([H])([H])[H])C(C([H])([H])[H])(C([H])([H])[H])C([H])([H])[H])C([H])([H])c2c([H])c(OC([H])([H])C(=O)c3c([H])c(C(=O)C([H])([H])C([H])([H])C(=O)N4C([H])([H])C([H])([H])C([H])([H])C([H])(n5nc(-c6c([H])c([H])c(Oc7c([H])c([H])c(F)c([H])c7F)c([H])c6[H])c(C(=O)N([H])[H])c5N([H])[H])C4([H])[H])c(OC([H])([H])[H])c(C([H])([H])[H])c3[H])c([H])c([H])c2C1([H])[H]

>  <smiles>  (96) 
[H]c1c([H])c([H])c2c(c1[H])C([H])([H])C([H])([H])C([H])([H])C2([H])N([H])C(=O)C1([H])N(C(=O)C([H])(N([H])C(=O)C([H])(N([H])C([H])([H])[H])C([H])([H])[H])C(C([H])([H])[H])(C([H])([H])[H])C([H])([H])[H])C([H])([H])c2c([H])c(OC([H])([H])C(=O)c3c([H])c(C(=O)C([H])([H])C([H])([H])C(=O)N4C([H])([H])C([H])([H])C([H])([H])C([H])(n5nc(-c6c([H])c([H])c(Oc7c([H])c([H])c(F)c([H])c7F)c([H])c6[H])c(C(=O)N([H])[H])c5N([H])[H])C4([H])[H])c(OC([H])([H])[H])c(C([H])([H])[H])c3[H])c([H])c([H])c2C1([H])[H]

$$$$
97:0:0
     RDKit          3D

 95 97  0  0  1  0  0  0  0  0999 V2000
  -24.1530  -24.8410   18.7880 C   0  0  0  0  0  3  0  0  0  0  0  0
  -25.0200  -23.5090   18.7010 C   0  0  0  0  0  3  0  0  0  0  0  0
  -24.4090  -24.8890   20.8830 C   0  0  0  0  0  3  0  0  0  0  0  0
  -23.6870  -25.8150   19.8860 C   0  0  0  0  0  0  0  0  0  0  0  0
  -25.7610  -22.5830   19.6830 C   0  0  0  0  0  3  0  0  0  0  0  0
  -25.2530  -23.5260   20.8160 C   0  0  0  0  0  0  0  0  0  0  0  0
  -25.5420  -23.0190   22.2150 C   0  0  0  0  0  1  0  0  0  0  0  0
  -22.5210  -27.3540   19.8750 C   0  0  0  0  0  0  0  0  0  0  0  0
  -22.0260  -28.7390   20.7830 N   0  0  0  0  0  2  0  0  0  0  0  0
  -21.9720  -27.3750   18.7730 O   0  0  0  0  0  0  0  0  0  0  0  0
  -21.2880  -29.2230   20.2860 H   0  0  0  0  0  0  0  0  0  0  0  0
  -22.4450  -29.7970   22.5530 C   0  0  0  0  0 15  0  0  0  0  0  0
  -24.1620  -29.1670   23.9210 C   0  0  0  0  0 15  0  0  0  0  0  0
  -25.9990  -28.6100   23.2500 O   0  0  0  0  0  1  0  0  0  0  0  0
  -24.6340  -31.7110   23.1850 C   0  0  0  0  0  0  0  0  0  0  0  0
  -26.8440  -27.9720   22.1350 C   0  0  0  0  0  3  0  0  0  0  0  0
  -24.3980  -29.3010   21.4480 C   0  0  0  0  0  2  0  0  0  0  0  0
  -25.9410  -28.9900   19.9910 C   0  0  0  0  0  3  0  0  0  0  0  0
  -26.2980  -30.9990   21.5410 C   0  0  0  0  0  2  0  0  0  0  0  0
  -26.7950  -29.7250   20.8730 C   0  0  0  0  0  3  0  0  0  0  0  0
  -27.6670  -28.9640   21.6420 C   0  0  0  0  0  2  0  0  0  0  0  0
  -26.5360  -27.0350   21.0650 C   0  0  0  0  0  2  0  0  0  0  0  0
  -26.0340  -27.6020   19.8870 C   0  0  0  0  0  2  0  0  0  0  0  0
  -24.5890  -29.4320   19.9440 C   0  0  0  0  0  2  0  0  0  0  0  0
  -24.9720  -30.7810   22.1000 N   0  0  0  0  0  0  0  0  0  0  0  0
  -23.4510  -31.9220   23.5310 O   0  0  0  0  0  0  0  0  0  0  0  0
  -23.8640  -27.4730   22.3760 C   0  0  0  0  0  2  0  0  0  0  0  0
  -22.5330  -27.1380   23.0470 N   0  0  0  0  0  0  0  0  0  0  0  0
  -24.5000  -26.8160   23.1380 O   0  0  0  0  0  1  0  0  0  0  0  0
  -22.8100  -26.4260   23.7090 H   0  0  0  0  0  0  0  0  0  0  0  0
  -18.3530  -27.7580   22.2810 C   0  0  0  0  0  0  0  0  0  0  0  0
  -20.8870  -27.2410   23.1130 C   0  0  0  0  0  3  0  0  0  0  0  0
  -20.5870  -25.9820   22.3490 C   0  0  0  0  0  2  0  0  0  0  0  0
  -19.8040  -26.1790   21.0600 C   0  0  0  0  0  2  0  0  0  0  0  0
  -18.4020  -26.5210   21.4250 C   0  0  0  0  0  2  0  0  0  0  0  0
  -19.5220  -28.2510   22.9900 C   0  0  0  0  0  0  0  0  0  0  0  0
  -19.1750  -29.4290   23.7590 C   0  0  0  0  0  3  0  0  0  0  0  0
  -17.8730  -30.0260   23.7890 C   0  0  0  0  0  3  0  0  0  0  0  0
  -16.7930  -29.4720   23.0870 C   0  0  0  0  0  3  0  0  0  0  0  0
  -17.0550  -28.3300   22.3320 C   0  0  0  0  0  3  0  0  0  0  0  0
  -25.6670  -32.3360   24.2650 C   0  0  0  0  0  3  0  0  0  0  0  0
  -25.3940  -33.7810   24.3750 N   0  0  0  0  0  0  0  0  0  0  0  0
  -26.0000  -34.7240   23.6460 C   0  0  0  0  0  0  0  0  0  0  0  0
  -26.8580  -34.4420   22.8060 O   0  0  0  0  0  0  0  0  0  0  0  0
  -24.6610  -34.0660   25.0060 H   0  0  0  0  0  0  0  0  0  0  0  0
  -24.5040  -36.5740   22.8500 C   0  0  0  0  0  1  0  0  0  0  0  0
  -25.5920  -36.1910   23.8650 C   0  0  0  0  0  3  0  0  0  0  0  0
  -27.6690  -37.0440   24.8620 C   0  0  0  0  0  1  0  0  0  0  0  0
  -26.7180  -37.1450   23.7600 N   0  0  0  0  0  0  0  0  0  0  0  0
  -26.3750  -38.1010   23.7250 H   0  0  0  0  0  0  0  0  0  0  0  0
  -25.7120  -31.7910   25.7960 C   0  0  1  0  0  0  0  0  0  0  0  0
  -24.3210  -31.5960   26.4810 C   0  0  0  0  0  1  0  0  0  0  0  0
  -26.5630  -30.5020   25.9540 C   0  0  0  0  0  1  0  0  0  0  0  0
  -26.4650  -32.8130   26.6970 C   0  0  0  0  0  1  0  0  0  0  0  0
  -26.6160  -20.7180   19.5710 C   0  0  0  0  0 15  0  0  0  0  0  0
  -28.6220  -17.8160   19.6560 C   0  0  0  0  0  2  0  0  0  0  0  0
  -28.1740  -19.3980   19.5570 C   0  0  0  0  0  2  0  0  0  0  0  0
  -29.9230  -16.4800   19.6030 C   0  0  0  0  0  0  0  0  0  0  0  0
  -30.6630  -13.8660   18.9850 C   0  0  0  0  0  2  0  0  0  0  0  0
  -29.8450  -13.1520   17.8580 C   0  0  0  0  0  2  0  0  0  0  0  0
  -28.4810  -12.6790   18.3860 C   0  0  0  0  0  2  0  0  0  0  0  0
  -27.9080  -13.7350   19.3510 C   0  0  0  0  0  3  0  0  0  0  0  0
  -28.8780  -14.1830   20.4330 C   0  0  0  0  0  2  0  0  0  0  0  0
  -29.8350  -14.9890   19.6920 N   0  0  0  0  0  0  0  0  0  0  0  0
  -31.1710  -16.5690   19.3780 O   0  0  0  0  0  0  0  0  0  0  0  0
  -25.7000  -14.3200   20.3590 C   0  0  0  0  0  0  0  0  0  0  0  0
  -24.6450  -13.5690   20.7700 C   0  0  0  0  0  0  0  0  0  0  0  0
  -25.0450  -12.2090   20.6010 C   0  0  0  0  0  0  0  0  0  0  0  0
  -26.6480  -13.4150   19.9380 N   0  0  0  0  0  0  0  0  0  0  0  0
  -26.2930  -12.1340   20.1630 N   0  0  0  0  0  0  0  0  0  0  0  0
  -24.2820  -10.9760   20.7600 C   0  0  0  0  0  0  0  0  0  0  0  0
  -24.7280   -9.9380   21.6060 C   0  0  0  0  0  3  0  0  0  0  0  0
  -23.9580   -8.7670   21.7580 C   0  0  0  0  0  3  0  0  0  0  0  0
  -22.7340   -8.6300   21.0610 C   0  0  0  0  0  0  0  0  0  0  0  0
  -22.3100   -9.6570   20.2010 C   0  0  0  0  0  3  0  0  0  0  0  0
  -23.0780  -10.8200   20.0470 C   0  0  0  0  0  3  0  0  0  0  0  0
  -21.9290   -7.5200   21.1280 O   0  0  0  0  0  0  0  0  0  0  0  0
  -21.7850   -6.8100   22.2900 C   0  0  0  0  0  0  0  0  0  0  0  0
  -21.2750   -7.4010   23.4650 C   0  0  0  0  0  3  0  0  0  0  0  0
  -21.0800   -6.6160   24.6190 C   0  0  0  0  0  3  0  0  0  0  0  0
  -21.3790   -5.2400   24.5940 C   0  0  0  0  0  0  0  0  0  0  0  0
  -21.8820   -4.6500   23.4210 C   0  0  0  0  0  3  0  0  0  0  0  0
  -22.0810   -5.4330   22.2710 C   0  0  0  0  0  0  0  0  0  0  0  0
  -22.5460   -4.8580   21.1360 F   0  0  0  0  0  0  0  0  0  0  0  0
  -21.1830   -4.4800   25.6960 F   0  0  0  0  0  0  0  0  0  0  0  0
  -23.3080  -14.0980   21.1860 C   0  0  0  0  0  0  0  0  0  0  0  0
  -22.6130  -13.3730   22.0530 N   0  0  0  0  0  0  0  0  0  0  0  0
  -22.9010  -15.1830   20.7770 O   0  0  0  0  0  0  0  0  0  0  0  0
  -22.9660  -12.4940   22.3990 H   0  0  0  0  0  0  0  0  0  0  0  0
  -21.7180  -13.7070   22.3800 H   0  0  0  0  0  0  0  0  0  0  0  0
  -25.9100  -15.6920   20.2750 N   0  0  0  0  0  0  0  0  0  0  0  0
  -25.1760  -16.3550   20.4980 H   0  0  0  0  0  0  0  0  0  0  0  0
  -26.7190  -16.1170   19.8470 H   0  0  0  0  0  0  0  0  0  0  0  0
  -29.2190  -20.2140   19.3380 O   0  0  0  0  0  0  0  0  0  0  0  0
  -28.8880  -21.0830   19.1340 H   0  0  0  0  0  0  0  0  0  0  0  0
  1  4  1  0
  2  1  2  0
  2  5  1  0
  4  3  2  0
  5  6  2  0
  6  3  1  0
  6  7  1  0
  8  4  1  0
  8  9  1  0
 10  8  2  0
 11  9  1  0
 15 26  2  0
 16 14  1  0
 17 25  1  0
 18 23  1  0
 18 20  1  0
 19 25  1  0
 20 19  1  0
 20 21  1  0
 21 16  1  0
 22 16  1  0
 23 22  1  0
 24 18  1  0
 24 17  1  0
 25 15  1  0
 27 28  1  0
 27 29  1  0
 28 30  1  0
 31 40  2  0
 31 36  1  0
 32 28  1  0
 33 32  1  0
 34 35  1  0
 34 33  1  0
 35 31  1  0
 36 32  1  0
 36 37  2  0
 37 38  1  0
 39 38  2  0
 40 39  1  0
 41 15  1  0
 41 42  1  0
 41 51  1  0
 42 45  1  0
 43 47  1  0
 43 42  1  0
 44 43  2  0
 47 46  1  0
 49 47  1  0
 49 48  1  0
 50 49  1  0
 51 53  1  6
 51 52  1  0
 51 54  1  0
 57 56  1  0
 58 56  1  0
 58 64  1  0
 59 64  1  0
 60 61  1  0
 60 59  1  0
 62 61  1  0
 62 69  1  0
 62 63  1  0
 64 63  1  0
 65 58  2  0
 66 67  2  0
 67 86  1  0
 68 71  1  0
 68 67  1  0
 69 70  1  0
 69 66  1  0
 70 68  2  0
 71 72  1  0
 72 73  2  0
 74 77  1  0
 74 73  1  0
 75 74  2  0
 76 75  1  0
 76 71  2  0
 77 78  1  0
 78 79  1  0
 79 80  2  0
 81 80  1  0
 81 85  1  0
 82 81  2  0
 83 78  2  0
 83 82  1  0
 84 83  1  0
 86 87  1  0
 87 90  1  0
 87 89  1  0
 88 86  2  0
 91 66  1  0
 91 92  1  0
 93 91  1  0
 94 57  1  0
 95 94  1  0
M  ISO  4  13 101  14 101  56 100  58 100
M  END
>  <TORSDO>  (97) 
F 22

>  <SCORE>  (97) 
-12.987

>  <name>  (97) 
97

>  <ligand_id>  (97) 
97

>  <original_smiles>  (97) 
[H]OC(=C([H])C(=O)N1C([H])([H])C([H])([H])C([H])([H])C([H])(n2nc(-c3c([H])c([H])c(Oc4c([H])c([H])c(F)c([H])c4F)c([H])c3[H])c(C(=O)N([H])[H])c2N([H])[H])C1([H])[H])C([H])([H])c1c([H])c([H])c(C(=O)N([H])C([H])([H])C([H])([H])Oc2c([H])c([H])c3c(c2[H])C([H])([H])N(C(=O)C([H])(N([H])C(=O)C([H])(N([H])C([H])([H])[H])C([H])([H])[H])C(C([H])([H])[H])(C([H])([H])[H])C([H])([H])[H])C([H])(C(=O)N([H])C2([H])c4c([H])c([H])c([H])c([H])c4C([H])([H])C([H])([H])C2([H])[H])C3([H])[H])c([H])c1C([H])([H])[H]

>  <smiles>  (97) 
[H]OC(=C([H])C(=O)N1C([H])([H])C([H])([H])C([H])([H])C([H])(n2nc(-c3c([H])c([H])c(Oc4c([H])c([H])c(F)c([H])c4F)c([H])c3[H])c(C(=O)N([H])[H])c2N([H])[H])C1([H])[H])C([H])([H])c1c([H])c([H])c(C(=O)N([H])C([H])([H])C([H])([H])Oc2c([H])c([H])c3c(c2[H])C([H])([H])N(C(=O)C([H])(N([H])C(=O)C([H])(N([H])C([H])([H])[H])C([H])([H])[H])C(C([H])([H])[H])(C([H])([H])[H])C([H])([H])[H])C([H])(C(=O)N([H])C2([H])c4c([H])c([H])c([H])c([H])c4C([H])([H])C([H])([H])C2([H])[H])C3([H])[H])c([H])c1C([H])([H])[H]

$$$$
98:0:0
     RDKit          3D

 92 99  0  0  1  0  0  0  0  0999 V2000
  -29.4250  -23.6010   18.5390 C   0  0  0  0  0  0  0  0  0  0  0  0
  -28.4730  -24.5140   18.3190 N   0  0  0  0  0  0  0  0  0  0  0  0
  -30.6230  -23.8450   18.3910 O   0  0  0  0  0  0  0  0  0  0  0  0
  -27.5170  -24.2370   18.4840 H   0  0  0  0  0  0  0  0  0  0  0  0
  -28.9500  -22.2030   18.9530 C   0  0  0  0  0  2  0  0  0  0  0  0
  -29.9830  -21.3930   19.7660 C   0  0  0  0  0  2  0  0  0  0  0  0
  -29.5540  -19.9280   19.9620 C   0  0  0  0  0  2  0  0  0  0  0  0
  -30.6060  -19.0850   20.7020 C   0  0  0  0  0  2  0  0  0  0  0  0
  -30.9350  -16.6760   21.2220 C   0  0  0  0  0  0  0  0  0  0  0  0
  -30.1660  -17.6990   20.8160 N   0  0  0  0  0  0  0  0  0  0  0  0
  -32.1160  -16.8400   21.5400 O   0  0  0  0  0  0  0  0  0  0  0  0
  -29.1960  -17.5040   20.6030 H   0  0  0  0  0  0  0  0  0  0  0  0
  -30.2660  -15.2970   21.3620 C   0  0  0  0  0  2  0  0  0  0  0  0
  -30.7170  -14.3300   20.2350 C   0  0  0  0  0  0  0  0  0  0  0  0
  -30.2770  -12.2880   18.9030 C   0  0  0  0  0  2  0  0  0  0  0  0
  -29.2660  -12.5680   17.7740 C   0  0  0  0  0  2  0  0  0  0  0  0
  -27.8170  -12.4440   18.2820 C   0  0  0  0  0  2  0  0  0  0  0  0
  -27.5780  -13.2260   19.6010 C   0  0  0  0  0  3  0  0  0  0  0  0
  -28.6820  -12.8960   20.6310 C   0  0  0  0  0  2  0  0  0  0  0  0
  -29.9840  -13.2060   20.0140 N   0  0  0  0  0  0  0  0  0  0  0  0
  -31.7280  -14.5730   19.5630 O   0  0  0  0  0  0  0  0  0  0  0  0
  -25.2160  -13.8710   20.4050 C   0  0  0  0  0  0  0  0  0  0  0  0
  -24.1510  -13.1130   20.8140 C   0  0  0  0  0  0  0  0  0  0  0  0
  -24.5870  -11.7540   20.7520 C   0  0  0  0  0  0  0  0  0  0  0  0
  -26.2380  -12.9750   20.1310 N   0  0  0  0  0  0  0  0  0  0  0  0
  -25.8630  -11.6960   20.3920 N   0  0  0  0  0  0  0  0  0  0  0  0
  -23.8490  -10.5030   20.9620 C   0  0  0  0  0  0  0  0  0  0  0  0
  -24.3000   -9.5280   21.8790 C   0  0  0  0  0  3  0  0  0  0  0  0
  -23.5640   -8.3410   22.0800 C   0  0  0  0  0  3  0  0  0  0  0  0
  -22.3630   -8.1190   21.3650 C   0  0  0  0  0  0  0  0  0  0  0  0
  -21.9290   -9.0840   20.4390 C   0  0  0  0  0  3  0  0  0  0  0  0
  -22.6640  -10.2640   20.2360 C   0  0  0  0  0  3  0  0  0  0  0  0
  -21.5980   -6.9830   21.4770 O   0  0  0  0  0  0  0  0  0  0  0  0
  -21.5780   -6.2420   22.6300 C   0  0  0  0  0  0  0  0  0  0  0  0
  -21.2110   -6.8050   23.8710 C   0  0  0  0  0  3  0  0  0  0  0  0
  -21.1330   -5.9910   25.0190 C   0  0  0  0  0  3  0  0  0  0  0  0
  -21.4110   -4.6150   24.9260 C   0  0  0  0  0  0  0  0  0  0  0  0
  -21.7700   -4.0500   23.6900 C   0  0  0  0  0  3  0  0  0  0  0  0
  -21.8500   -4.8620   22.5450 C   0  0  0  0  0  0  0  0  0  0  0  0
  -22.1760   -4.3090   21.3510 F   0  0  0  0  0  0  0  0  0  0  0  0
  -21.3290   -3.8300   26.0270 F   0  0  0  0  0  0  0  0  0  0  0  0
  -22.7760  -13.6110   21.1500 C   0  0  0  0  0  0  0  0  0  0  0  0
  -22.0780  -12.9200   22.0450 N   0  0  0  0  0  0  0  0  0  0  0  0
  -22.3280  -14.6460   20.6570 O   0  0  0  0  0  0  0  0  0  0  0  0
  -22.4520  -12.0830   22.4680 H   0  0  0  0  0  0  0  0  0  0  0  0
  -21.1550  -13.2320   22.3100 H   0  0  0  0  0  0  0  0  0  0  0  0
  -25.3920  -15.2400   20.2270 N   0  0  0  0  0  0  0  0  0  0  0  0
  -24.6350  -15.9020   20.3570 H   0  0  0  0  0  0  0  0  0  0  0  0
  -26.2300  -15.6690   19.8510 H   0  0  0  0  0  0  0  0  0  0  0  0
  -28.6910  -25.8790   17.8370 C   0  0  0  0  0  2  0  0  0  0  0  0
  -29.1690  -26.8260   18.9550 C   0  0  0  0  0  2  0  0  0  0  0  0
  -28.3670  -26.7400   20.1300 O   0  0  0  0  0  0  0  0  0  0  0  0
  -24.5800  -31.8910   23.2350 C   0  0  0  0  0  0  0  0  0  0  0  0
  -27.2110  -27.4790   20.1210 C   0  0  0  0  0  0  0  0  0  0  0  0
  -23.3640  -30.4880   21.6010 C   0  0  0  0  0  3  0  0  0  0  0  0
  -24.8090  -28.9520   20.1680 C   0  0  0  0  0  0  0  0  0  0  0  0
  -25.8860  -30.8550   21.3830 C   0  0  0  0  0  2  0  0  0  0  0  0
  -25.9690  -29.4860   20.7440 C   0  0  0  0  0  0  0  0  0  0  0  0
  -27.1750  -28.7530   20.7230 C   0  0  0  0  0  3  0  0  0  0  0  0
  -26.0340  -26.9420   19.5640 C   0  0  0  0  0  3  0  0  0  0  0  0
  -24.8350  -27.6770   19.5770 C   0  0  0  0  0  3  0  0  0  0  0  0
  -23.5640  -29.8080   20.2210 C   0  0  0  0  0  2  0  0  0  0  0  0
  -24.6290  -31.0920   22.1320 N   0  0  0  0  0  0  0  0  0  0  0  0
  -23.5020  -32.1640   23.7810 O   0  0  0  0  0  0  0  0  0  0  0  0
  -22.7190  -29.4690   22.5650 C   0  0  0  0  0  0  0  0  0  0  0  0
  -21.3930  -29.2870   22.4420 N   0  0  0  0  0  0  0  0  0  0  0  0
  -23.4040  -28.8430   23.3770 O   0  0  0  0  0  0  0  0  0  0  0  0
  -20.9010  -29.8390   21.7540 H   0  0  0  0  0  0  0  0  0  0  0  0
  -18.0220  -28.1020   22.9600 C   0  0  0  0  0  0  0  0  0  0  0  0
  -20.5810  -28.3530   23.2190 C   0  0  0  0  0  3  0  0  0  0  0  0
  -20.6770  -26.9210   22.6420 C   0  0  0  0  0  2  0  0  0  0  0  0
  -19.5680  -26.6020   21.6340 C   0  0  0  0  0  2  0  0  0  0  0  0
  -18.1900  -26.7520   22.2850 C   0  0  0  0  0  2  0  0  0  0  0  0
  -19.1440  -28.8610   23.3860 C   0  0  0  0  0  0  0  0  0  0  0  0
  -18.9320  -30.1260   23.9770 C   0  0  0  0  0  3  0  0  0  0  0  0
  -17.6300  -30.6310   24.1470 C   0  0  0  0  0  3  0  0  0  0  0  0
  -16.5210  -29.8700   23.7400 C   0  0  0  0  0  3  0  0  0  0  0  0
  -16.7190  -28.6080   23.1510 C   0  0  0  0  0  3  0  0  0  0  0  0
  -25.8720  -32.5200   23.8470 C   0  0  0  0  0  3  0  0  0  0  0  0
  -25.5660  -33.9170   24.1820 N   0  0  0  0  0  0  0  0  0  0  0  0
  -25.8970  -34.9700   23.4220 C   0  0  0  0  0  0  0  0  0  0  0  0
  -26.5610  -34.8670   22.3880 O   0  0  0  0  0  0  0  0  0  0  0  0
  -24.9750  -34.0700   24.9850 H   0  0  0  0  0  0  0  0  0  0  0  0
  -24.1670  -36.7630   23.0770 C   0  0  0  0  0  1  0  0  0  0  0  0
  -25.4100  -36.3550   23.8850 C   0  0  0  0  0  3  0  0  0  0  0  0
  -27.5480  -37.2360   24.7080 C   0  0  0  0  0  1  0  0  0  0  0  0
  -26.4410  -37.4090   23.7720 N   0  0  0  0  0  0  0  0  0  0  0  0
  -26.0370  -38.3290   23.9230 H   0  0  0  0  0  0  0  0  0  0  0  0
  -26.4030  -31.7430   25.1160 C   0  0  1  0  0  0  0  0  0  0  0  0
  -25.3200  -31.4990   26.1920 C   0  0  0  0  0  1  0  0  0  0  0  0
  -26.9840  -30.3680   24.7100 C   0  0  0  0  0  1  0  0  0  0  0  0
  -27.5600  -32.5350   25.7670 C   0  0  0  0  0  1  0  0  0  0  0  0
  1  5  1  0
  2  4  1  0
  2  1  1  0
  3  1  2  0
  5  6  1  0
  6  7  1  0
  7  8  1  0
  8 10  1  0
  9 13  1  0
  9 11  2  0
 10  9  1  0
 12 10  1  0
 14 13  1  0
 15 20  1  0
 16 17  1  0
 16 15  1  0
 18 17  1  0
 18 25  1  0
 18 19  1  0
 20 14  1  0
 20 19  1  0
 21 14  2  0
 22 23  2  0
 23 42  1  0
 24 23  1  0
 24 27  1  0
 25 26  1  0
 25 22  1  0
 26 24  2  0
 27 28  1  0
 28 29  2  0
 30 33  1  0
 30 29  1  0
 31 30  2  0
 32 31  1  0
 32 27  2  0
 33 34  1  0
 34 35  1  0
 35 36  2  0
 37 36  1  0
 37 41  1  0
 38 37  2  0
 39 34  2  0
 39 38  1  0
 40 39  1  0
 42 43  1  0
 43 46  1  0
 43 45  1  0
 44 42  2  0
 47 48  1  0
 47 22  1  0
 49 47  1  0
 50  2  1  0
 50 51  1  0
 51 52  1  0
 53 64  2  0
 54 52  1  0
 54 59  1  0
 55 63  1  0
 55 65  1  0
 56 62  1  0
 56 58  1  0
 57 63  1  0
 58 57  1  0
 59 58  2  0
 60 61  1  0
 60 54  2  0
 61 56  2  0
 62 55  1  0
 63 53  1  0
 65 67  2  0
 66 65  1  0
 68 66  1  0
 69 78  2  0
 69 74  1  0
 70 66  1  0
 70 74  1  0
 71 70  1  0
 72 73  1  0
 72 71  1  0
 73 69  1  0
 74 75  2  0
 75 76  1  0
 77 76  2  0
 78 77  1  0
 79 53  1  0
 79 80  1  0
 79 89  1  0
 80 83  1  0
 81 85  1  0
 81 80  1  0
 82 81  2  0
 85 84  1  0
 87 85  1  0
 87 88  1  0
 87 86  1  0
 89 92  1  1
 89 90  1  0
 91 89  1  0
M  ISO  4  13 100  14 100  51 101  52 101
M  END
>  <TORSDO>  (98) 
F 24

>  <SCORE>  (98) 
-12.126

>  <name>  (98) 
98

>  <ligand_id>  (98) 
98

>  <original_smiles>  (98) 
[H]c1c([H])c([H])c2c(c1[H])C([H])([H])C([H])([H])C([H])([H])C2([H])N([H])C(=O)C1([H])N(C(=O)C([H])(N([H])C(=O)C([H])(N([H])C([H])([H])[H])C([H])([H])[H])C(C([H])([H])[H])(C([H])([H])[H])C([H])([H])[H])C([H])([H])c2c([H])c(OC([H])([H])C([H])([H])N([H])C(=O)C([H])([H])C([H])([H])C([H])([H])C([H])([H])N([H])C(=O)C([H])([H])C(=O)N3C([H])([H])C([H])([H])C([H])([H])C([H])(n4nc(-c5c([H])c([H])c(Oc6c([H])c([H])c(F)c([H])c6F)c([H])c5[H])c(C(=O)N([H])[H])c4N([H])[H])C3([H])[H])c([H])c([H])c2C1([H])[H]

>  <smiles>  (98) 
[H]c1c([H])c([H])c2c(c1[H])C([H])([H])C([H])([H])C([H])([H])C2([H])N([H])C(=O)C1([H])N(C(=O)C([H])(N([H])C(=O)C([H])(N([H])C([H])([H])[H])C([H])([H])[H])C(C([H])([H])[H])(C([H])([H])[H])C([H])([H])[H])C([H])([H])c2c([H])c(OC([H])([H])C([H])([H])N([H])C(=O)C([H])([H])C([H])([H])C([H])([H])C([H])([H])N([H])C(=O)C([H])([H])C(=O)N3C([H])([H])C([H])([H])C([H])([H])C([H])(n4nc(-c5c([H])c([H])c(Oc6c([H])c([H])c(F)c([H])c6F)c([H])c5[H])c(C(=O)N([H])[H])c4N([H])[H])C3([H])[H])c([H])c([H])c2C1([H])[H]

$$$$
99:0:0
     RDKit          3D

 89 96  0  0  1  0  0  0  0  0999 V2000
  -29.0340  -19.8720   20.6360 C   0  0  0  0  0  0  0  0  0  0  0  0
  -29.4650  -21.1760   20.5760 N   0  0  0  0  0  0  0  0  0  0  0  0
  -27.8260  -19.6590   20.5750 O   0  0  0  0  0  0  0  0  0  0  0  0
  -30.4640  -21.3360   20.5920 H   0  0  0  0  0  0  0  0  0  0  0  0
  -30.0260  -18.6420   20.8810 C   0  0  0  0  0  2  0  0  0  0  0  0
  -28.3570  -16.8070   20.1700 C   0  0  0  0  0  1  0  0  0  0  0  0
  -30.3010  -17.3590   18.6880 C   0  0  0  0  0  1  0  0  0  0  0  0
  -29.8430  -17.2030   20.1540 C   0  0  1  0  0  0  0  0  0  0  0  0
  -30.5890  -15.9510   20.8600 C   0  0  0  0  0  2  0  0  0  0  0  0
  -31.0360  -14.6360   20.0820 C   0  0  0  0  0  0  0  0  0  0  0  0
  -30.7260  -12.3590   19.0970 C   0  0  0  0  0  2  0  0  0  0  0  0
  -29.7610  -12.4360   17.8960 C   0  0  0  0  0  2  0  0  0  0  0  0
  -28.3100  -12.2710   18.3740 C   0  0  0  0  0  2  0  0  0  0  0  0
  -27.9750  -13.1980   19.5730 C   0  0  0  0  0  3  0  0  0  0  0  0
  -29.0690  -13.1270   20.6730 C   0  0  0  0  0  2  0  0  0  0  0  0
  -30.3600  -13.4350   20.0490 N   0  0  0  0  0  0  0  0  0  0  0  0
  -32.1040  -14.7310   19.4710 O   0  0  0  0  0  0  0  0  0  0  0  0
  -25.6060  -13.8020   20.3780 C   0  0  0  0  0  0  0  0  0  0  0  0
  -24.5520  -13.0360   20.7890 C   0  0  0  0  0  0  0  0  0  0  0  0
  -24.9910  -11.6820   20.7030 C   0  0  0  0  0  0  0  0  0  0  0  0
  -26.6380  -12.9200   20.1010 N   0  0  0  0  0  0  0  0  0  0  0  0
  -26.2700  -11.6350   20.3480 N   0  0  0  0  0  0  0  0  0  0  0  0
  -24.2480  -10.4310   20.8850 C   0  0  0  0  0  0  0  0  0  0  0  0
  -24.6210   -9.4870   21.8660 C   0  0  0  0  0  3  0  0  0  0  0  0
  -23.8760   -8.3010   22.0380 C   0  0  0  0  0  3  0  0  0  0  0  0
  -22.7430   -8.0530   21.2300 C   0  0  0  0  0  0  0  0  0  0  0  0
  -22.3870   -8.9850   20.2390 C   0  0  0  0  0  3  0  0  0  0  0  0
  -23.1340  -10.1630   20.0650 C   0  0  0  0  0  3  0  0  0  0  0  0
  -21.9750   -6.9160   21.3100 O   0  0  0  0  0  0  0  0  0  0  0  0
  -21.7920   -6.2530   22.4970 C   0  0  0  0  0  0  0  0  0  0  0  0
  -21.1750   -6.8720   23.6070 C   0  0  0  0  0  3  0  0  0  0  0  0
  -20.9410   -6.1330   24.7840 C   0  0  0  0  0  3  0  0  0  0  0  0
  -21.3140   -4.7770   24.8530 C   0  0  0  0  0  0  0  0  0  0  0  0
  -21.9260   -4.1590   23.7480 C   0  0  0  0  0  3  0  0  0  0  0  0
  -22.1610   -4.8940   22.5720 C   0  0  0  0  0  0  0  0  0  0  0  0
  -22.7280   -4.2880   21.5030 F   0  0  0  0  0  0  0  0  0  0  0  0
  -21.0840   -4.0670   25.9800 F   0  0  0  0  0  0  0  0  0  0  0  0
  -23.1790  -13.5320   21.1380 C   0  0  0  0  0  0  0  0  0  0  0  0
  -22.4850  -12.8350   22.0300 N   0  0  0  0  0  0  0  0  0  0  0  0
  -22.7330  -14.5760   20.6600 O   0  0  0  0  0  0  0  0  0  0  0  0
  -22.8590  -11.9890   22.4340 H   0  0  0  0  0  0  0  0  0  0  0  0
  -21.5670  -13.1480   22.3060 H   0  0  0  0  0  0  0  0  0  0  0  0
  -25.7440  -15.1700   20.1970 N   0  0  0  0  0  0  0  0  0  0  0  0
  -24.9710  -15.8070   20.3470 H   0  0  0  0  0  0  0  0  0  0  0  0
  -26.5770  -15.6280   19.8500 H   0  0  0  0  0  0  0  0  0  0  0  0
  -28.5580  -22.3890   20.5850 C   0  0  0  0  0  2  0  0  0  0  0  0
  -29.1600  -23.8590   20.3950 C   0  0  0  0  0  3  0  0  0  0  0  0
  -28.1070  -25.0530   20.5390 C   0  0  0  0  0  3  0  0  0  0  0  0
  -28.4280  -26.4690   20.2010 O   0  0  0  0  0  0  0  0  0  0  0  0
  -24.6560  -31.8520   23.1800 C   0  0  0  0  0  0  0  0  0  0  0  0
  -27.3310  -27.3420   20.1240 C   0  0  0  0  0  0  0  0  0  0  0  0
  -23.4770  -30.4470   21.5260 C   0  0  0  0  0  3  0  0  0  0  0  0
  -24.9580  -28.9350   20.0880 C   0  0  0  0  0  0  0  0  0  0  0  0
  -26.0150  -30.8000   21.3610 C   0  0  0  0  0  2  0  0  0  0  0  0
  -26.1150  -29.4280   20.7040 C   0  0  0  0  0  0  0  0  0  0  0  0
  -27.3090  -28.6430   20.7130 C   0  0  0  0  0  3  0  0  0  0  0  0
  -26.1620  -26.9210   19.4500 C   0  0  0  0  0  3  0  0  0  0  0  0
  -24.9860  -27.6900   19.4440 C   0  0  0  0  0  3  0  0  0  0  0  0
  -23.7060  -29.7860   20.1400 C   0  0  0  0  0  2  0  0  0  0  0  0
  -24.7340  -31.0510   22.0770 N   0  0  0  0  0  0  0  0  0  0  0  0
  -23.5660  -32.1090   23.7120 O   0  0  0  0  0  0  0  0  0  0  0  0
  -22.8290  -29.4110   22.4770 C   0  0  0  0  0  0  0  0  0  0  0  0
  -21.5040  -29.2230   22.3570 N   0  0  0  0  0  0  0  0  0  0  0  0
  -23.5160  -28.7850   23.2890 O   0  0  0  0  0  0  0  0  0  0  0  0
  -21.0080  -29.7800   21.6760 H   0  0  0  0  0  0  0  0  0  0  0  0
  -18.1330  -28.0210   22.8940 C   0  0  0  0  0  0  0  0  0  0  0  0
  -20.6960  -28.2720   23.1250 C   0  0  0  0  0  3  0  0  0  0  0  0
  -20.7860  -26.8510   22.5230 C   0  0  0  0  0  2  0  0  0  0  0  0
  -19.6660  -26.5480   21.5240 C   0  0  0  0  0  2  0  0  0  0  0  0
  -18.2950  -26.6840   22.1920 C   0  0  0  0  0  2  0  0  0  0  0  0
  -19.2610  -28.7740   23.3190 C   0  0  0  0  0  0  0  0  0  0  0  0
  -19.0520  -30.0260   23.9370 C   0  0  0  0  0  3  0  0  0  0  0  0
  -17.7500  -30.5250   24.1350 C   0  0  0  0  0  3  0  0  0  0  0  0
  -16.6390  -29.7690   23.7240 C   0  0  0  0  0  3  0  0  0  0  0  0
  -16.8300  -28.5200   23.1100 C   0  0  0  0  0  3  0  0  0  0  0  0
  -25.9290  -32.5020   23.8060 C   0  0  0  0  0  3  0  0  0  0  0  0
  -25.5940  -33.8920   24.1470 N   0  0  0  0  0  0  0  0  0  0  0  0
  -25.9180  -34.9580   23.4020 C   0  0  0  0  0  0  0  0  0  0  0  0
  -26.5990  -34.8750   22.3750 O   0  0  0  0  0  0  0  0  0  0  0  0
  -24.9930  -34.0310   24.9460 H   0  0  0  0  0  0  0  0  0  0  0  0
  -24.1840  -36.7430   23.0330 C   0  0  0  0  0  1  0  0  0  0  0  0
  -25.4080  -36.3350   23.8690 C   0  0  0  0  0  3  0  0  0  0  0  0
  -27.5050  -37.2310   24.7780 C   0  0  0  0  0  1  0  0  0  0  0  0
  -26.4340  -37.3990   23.8010 N   0  0  0  0  0  0  0  0  0  0  0  0
  -26.0150  -38.3140   23.9440 H   0  0  0  0  0  0  0  0  0  0  0  0
  -26.4570  -31.7320   25.0770 C   0  0  1  0  0  0  0  0  0  0  0  0
  -25.3640  -31.4550   26.1360 C   0  0  0  0  0  1  0  0  0  0  0  0
  -27.0780  -30.3720   24.6790 C   0  0  0  0  0  1  0  0  0  0  0  0
  -27.5830  -32.5470   25.7510 C   0  0  0  0  0  1  0  0  0  0  0  0
  1  5  1  0
  2 46  1  0
  2  4  1  0
  2  1  1  0
  3  1  2  0
  8  7  1  6
  8  6  1  0
  8  9  1  0
  8  5  1  0
 10  9  1  0
 11 16  1  0
 12 13  1  0
 12 11  1  0
 14 13  1  0
 14 21  1  0
 14 15  1  0
 16 10  1  0
 16 15  1  0
 17 10  2  0
 18 19  2  0
 19 38  1  0
 20 19  1  0
 20 23  1  0
 21 22  1  0
 21 18  1  0
 22 20  2  0
 23 24  1  0
 24 25  2  0
 26 29  1  0
 26 25  1  0
 27 26  2  0
 28 27  1  0
 28 23  2  0
 29 30  1  0
 30 35  2  0
 30 31  1  0
 31 32  2  0
 32 33  1  0
 33 37  1  0
 34 33  2  0
 35 34  1  0
 36 35  1  0
 38 39  1  0
 39 42  1  0
 39 41  1  0
 40 38  2  0
 43 44  1  0
 43 18  1  0
 45 43  1  0
 47 48  2  0
 47 46  1  0
 49 48  1  0
 50 61  2  0
 51 49  1  0
 51 56  1  0
 52 60  1  0
 52 62  1  0
 53 59  1  0
 53 55  1  0
 54 60  1  0
 55 56  2  0
 55 54  1  0
 57 51  2  0
 58 57  1  0
 58 53  2  0
 59 52  1  0
 60 50  1  0
 62 64  2  0
 63 62  1  0
 65 63  1  0
 66 75  2  0
 66 71  1  0
 67 63  1  0
 67 71  1  0
 68 67  1  0
 69 70  1  0
 69 68  1  0
 70 66  1  0
 71 72  2  0
 72 73  1  0
 74 73  2  0
 75 74  1  0
 76 50  1  0
 76 77  1  0
 76 86  1  0
 77 80  1  0
 78 82  1  0
 78 77  1  0
 79 78  2  0
 82 81  1  0
 84 82  1  0
 84 85  1  0
 84 83  1  0
 86 89  1  1
 86 87  1  0
 88 86  1  0
M  ISO  4   9 100  10 100  48 101  49 101
M  END
>  <TORSDO>  (99) 
F 22

>  <SCORE>  (99) 
-12.746

>  <name>  (99) 
99

>  <ligand_id>  (99) 
99

>  <original_smiles>  (99) 
[H]c1c([H])c([H])c2c(c1[H])C([H])([H])C([H])([H])C([H])([H])C2([H])N([H])C(=O)C1([H])N(C(=O)C([H])(N([H])C(=O)C([H])(N([H])C([H])([H])[H])C([H])([H])[H])C(C([H])([H])[H])(C([H])([H])[H])C([H])([H])[H])C([H])([H])c2c([H])c(OC([H])([H])C([H])([H])C([H])([H])N([H])C(=O)C([H])([H])C(C([H])([H])[H])(C([H])([H])[H])C([H])([H])C(=O)N3C([H])([H])C([H])([H])C([H])([H])C([H])(n4nc(-c5c([H])c([H])c(Oc6c([H])c([H])c(F)c([H])c6F)c([H])c5[H])c(C(=O)N([H])[H])c4N([H])[H])C3([H])[H])c([H])c([H])c2C1([H])[H]

>  <smiles>  (99) 
[H]c1c([H])c([H])c2c(c1[H])C([H])([H])C([H])([H])C([H])([H])C2([H])N([H])C(=O)C1([H])N(C(=O)C([H])(N([H])C(=O)C([H])(N([H])C([H])([H])[H])C([H])([H])[H])C(C([H])([H])[H])(C([H])([H])[H])C([H])([H])[H])C([H])([H])c2c([H])c(OC([H])([H])C([H])([H])C([H])([H])N([H])C(=O)C([H])([H])C(C([H])([H])[H])(C([H])([H])[H])C([H])([H])C(=O)N3C([H])([H])C([H])([H])C([H])([H])C([H])(n4nc(-c5c([H])c([H])c(Oc6c([H])c([H])c(F)c([H])c6F)c([H])c5[H])c(C(=O)N([H])[H])c4N([H])[H])C3([H])[H])c([H])c([H])c2C1([H])[H]

$$$$
