0:0:0
     RDKit          3D

 94102  0  0  1  0  0  0  0  0999 V2000
  -24.8880  -18.9750   18.0890 C   0  0  0  0  0  3  0  0  0  0  0  0
  -25.9670  -18.1910   18.5470 C   0  0  0  0  0  3  0  0  0  0  0  0
  -24.9110  -20.3720   18.2600 C   0  0  0  0  0  3  0  0  0  0  0  0
  -27.0810  -20.1970   19.3590 C   0  0  0  0  0  3  0  0  0  0  0  0
  -27.0690  -18.7910   19.2020 C   0  0  0  0  0  0  0  0  0  0  0  0
  -26.0140  -20.9870   18.8830 C   0  0  0  0  0  0  0  0  0  0  0  0
  -28.1940  -17.9430   19.6920 C   0  0  0  0  0  0  0  0  0  0  0  0
  -28.3980  -16.8030   19.2670 O   0  0  0  0  0  0  0  0  0  0  0  0
  -29.1080  -18.5300   20.7850 C   0  0  0  0  0  2  0  0  0  0  0  0
  -30.3290  -17.6570   21.1710 C   0  0  0  0  0  2  0  0  0  0  0  0
  -29.9990  -16.3110   21.8840 C   0  0  0  0  0  2  0  0  0  0  0  0
  -30.8210  -15.1290   21.3220 C   0  0  0  0  0  0  0  0  0  0  0  0
  -30.7240  -13.0710   19.9750 C   0  0  0  0  0  2  0  0  0  0  0  0
  -29.8840  -13.3700   18.7160 C   0  0  0  0  0  2  0  0  0  0  0  0
  -28.3830  -13.1550   18.9920 C   0  0  0  0  0  2  0  0  0  0  0  0
  -27.9060  -13.8490   20.2970 C   0  0  0  0  0  3  0  0  0  0  0  0
  -28.8700  -13.5490   21.4680 C   0  0  0  0  0  2  0  0  0  0  0  0
  -30.2240  -13.9380   21.0520 N   0  0  0  0  0  0  0  0  0  0  0  0
  -31.9900  -15.3600   20.9960 O   0  0  0  0  0  0  0  0  0  0  0  0
  -25.4190  -14.3150   20.7780 C   0  0  0  0  0  0  0  0  0  0  0  0
  -24.3580  -13.4840   20.9990 C   0  0  0  0  0  0  0  0  0  0  0  0
  -24.8870  -12.1570   20.9580 C   0  0  0  0  0  0  0  0  0  0  0  0
  -26.5270  -13.4940   20.6220 N   0  0  0  0  0  0  0  0  0  0  0  0
  -26.2030  -12.1880   20.7860 N   0  0  0  0  0  0  0  0  0  0  0  0
  -24.2130  -10.8560   21.0180 C   0  0  0  0  0  0  0  0  0  0  0  0
  -24.5510   -9.8920   21.9940 C   0  0  0  0  0  3  0  0  0  0  0  0
  -23.8760   -8.6540   22.0410 C   0  0  0  0  0  3  0  0  0  0  0  0
  -22.8470   -8.3740   21.1120 C   0  0  0  0  0  0  0  0  0  0  0  0
  -22.5260   -9.3300   20.1300 C   0  0  0  0  0  3  0  0  0  0  0  0
  -23.2050  -10.5580   20.0800 C   0  0  0  0  0  3  0  0  0  0  0  0
  -22.1540   -7.1870   21.0620 O   0  0  0  0  0  0  0  0  0  0  0  0
  -21.8340   -6.4930   22.2030 C   0  0  0  0  0  0  0  0  0  0  0  0
  -21.0490   -7.0640   23.2300 C   0  0  0  0  0  3  0  0  0  0  0  0
  -20.6890   -6.2930   24.3520 C   0  0  0  0  0  3  0  0  0  0  0  0
  -21.0970   -4.9500   24.4460 C   0  0  0  0  0  0  0  0  0  0  0  0
  -21.8720   -4.3760   23.4210 C   0  0  0  0  0  3  0  0  0  0  0  0
  -22.2360   -5.1450   22.3020 C   0  0  0  0  0  0  0  0  0  0  0  0
  -22.9630   -4.5800   21.3090 F   0  0  0  0  0  0  0  0  0  0  0  0
  -20.7460   -4.2080   25.5220 F   0  0  0  0  0  0  0  0  0  0  0  0
  -22.9190  -13.8890   21.1460 C   0  0  0  0  0  0  0  0  0  0  0  0
  -22.1370  -13.1390   21.9110 N   0  0  0  0  0  0  0  0  0  0  0  0
  -22.4850  -14.9130   20.6150 O   0  0  0  0  0  0  0  0  0  0  0  0
  -22.4850  -12.3100   22.3710 H   0  0  0  0  0  0  0  0  0  0  0  0
  -21.1700  -13.4070   22.0430 H   0  0  0  0  0  0  0  0  0  0  0  0
  -25.5270  -15.6980   20.6770 N   0  0  0  0  0  0  0  0  0  0  0  0
  -24.6980  -16.2810   20.6320 H   0  0  0  0  0  0  0  0  0  0  0  0
  -26.3720  -16.1820   20.4110 H   0  0  0  0  0  0  0  0  0  0  0  0
  -26.0670  -22.4970   19.0370 C   0  0  0  0  0  2  0  0  0  0  0  0
  -27.4600  -23.0660   18.6920 C   0  0  0  0  0  2  0  0  0  0  0  0
  -28.1790  -23.6630   19.9090 C   0  0  0  0  0  2  0  0  0  0  0  0
  -29.6030  -24.1430   19.5900 C   0  0  0  0  0  2  0  0  0  0  0  0
  -30.3600  -24.6590   20.8270 C   0  0  0  0  0  2  0  0  0  0  0  0
  -29.6640  -25.8520   21.4960 C   0  0  0  0  0  2  0  0  0  0  0  0
  -29.5190  -26.8840   20.5300 O   0  0  0  0  0  0  0  0  0  0  0  0
  -24.9010  -31.3610   23.5600 C   0  0  0  0  0  0  0  0  0  0  0  0
  -28.2830  -27.4730   20.4930 C   0  0  0  0  0  0  0  0  0  0  0  0
  -24.0300  -30.0300   21.6650 C   0  0  0  0  0  3  0  0  0  0  0  0
  -25.7750  -28.7480   20.3220 C   0  0  0  0  0  0  0  0  0  0  0  0
  -26.5170  -30.6030   21.8270 C   0  0  0  0  0  2  0  0  0  0  0  0
  -26.7960  -29.3090   21.0990 C   0  0  0  0  0  0  0  0  0  0  0  0
  -28.0520  -28.6760   21.1870 C   0  0  0  0  0  3  0  0  0  0  0  0
  -27.2530  -26.9150   19.7060 C   0  0  0  0  0  3  0  0  0  0  0  0
  -25.9940  -27.5470   19.6230 C   0  0  0  0  0  3  0  0  0  0  0  0
  -24.4650  -29.4990   20.2710 C   0  0  0  0  0  2  0  0  0  0  0  0
  -25.1580  -30.6750   22.4120 N   0  0  0  0  0  0  0  0  0  0  0  0
  -23.7430  -31.5020   23.9760 O   0  0  0  0  0  0  0  0  0  0  0  0
  -23.3580  -28.8770   22.4430 C   0  0  0  0  0  0  0  0  0  0  0  0
  -22.0880  -28.5900   22.1150 N   0  0  0  0  0  0  0  0  0  0  0  0
  -23.9810  -28.2470   23.3020 O   0  0  0  0  0  0  0  0  0  0  0  0
  -21.6380  -29.1560   21.4090 H   0  0  0  0  0  0  0  0  0  0  0  0
  -18.8230  -27.0540   22.0080 C   0  0  0  0  0  0  0  0  0  0  0  0
  -21.2710  -27.5230   22.6930 C   0  0  0  0  0  3  0  0  0  0  0  0
  -21.6050  -26.1550   22.0560 C   0  0  0  0  0  2  0  0  0  0  0  0
  -20.7070  -25.8130   20.8630 C   0  0  0  0  0  2  0  0  0  0  0  0
  -19.2370  -25.7810   21.2900 C   0  0  0  0  0  2  0  0  0  0  0  0
  -19.7800  -27.8790   22.6560 C   0  0  0  0  0  0  0  0  0  0  0  0
  -19.3470  -29.0690   23.2790 C   0  0  0  0  0  3  0  0  0  0  0  0
  -17.9890  -29.4390   23.2630 C   0  0  0  0  0  3  0  0  0  0  0  0
  -17.0430  -28.6100   22.6360 C   0  0  0  0  0  3  0  0  0  0  0  0
  -17.4600  -27.4180   22.0160 C   0  0  0  0  0  3  0  0  0  0  0  0
  -26.0430  -32.0280   24.3890 C   0  0  0  0  0  3  0  0  0  0  0  0
  -26.3070  -31.3130   25.7720 C   0  0  1  0  0  0  0  0  0  0  0  0
  -25.0310  -31.1150   26.6220 C   0  0  0  0  0  1  0  0  0  0  0  0
  -26.9480  -29.9230   25.5550 C   0  0  0  0  0  1  0  0  0  0  0  0
  -27.3180  -32.1370   26.6030 C   0  0  0  0  0  1  0  0  0  0  0  0
  -25.6840  -33.4370   24.5860 N   0  0  0  0  0  0  0  0  0  0  0  0
  -26.1780  -34.4540   23.8660 C   0  0  0  0  0  0  0  0  0  0  0  0
  -27.0440  -34.3030   22.9990 O   0  0  0  0  0  0  0  0  0  0  0  0
  -24.9330  -33.6310   25.2310 H   0  0  0  0  0  0  0  0  0  0  0  0
  -24.5760  -36.2240   23.0770 C   0  0  0  0  0  1  0  0  0  0  0  0
  -25.6160  -35.8580   24.1490 C   0  0  0  0  0  3  0  0  0  0  0  0
  -27.5280  -36.7870   25.3770 C   0  0  0  0  0  1  0  0  0  0  0  0
  -26.6580  -36.9070   24.2100 N   0  0  0  0  0  0  0  0  0  0  0  0
  -26.2370  -37.8310   24.2230 H   0  0  0  0  0  0  0  0  0  0  0  0
  1  3  2  0
  1  2  1  0
  2  5  2  0
  3  6  1  0
  5  4  1  0
  5  7  1  0
  6 48  1  0
  6  4  2  0
  7  9  1  0
  8  7  2  0
  9 10  1  0
 10 11  1  0
 12 11  1  0
 13 18  1  0
 14 15  1  0
 14 13  1  0
 16 15  1  0
 16 23  1  0
 16 17  1  0
 18 12  1  0
 18 17  1  0
 19 12  2  0
 20 21  2  0
 21 40  1  0
 22 21  1  0
 22 25  1  0
 23 20  1  0
 23 24  1  0
 24 22  2  0
 25 26  1  0
 26 27  2  0
 28 27  1  0
 29 28  2  0
 30 29  1  0
 30 25  2  0
 31 28  1  0
 31 32  1  0
 32 37  2  0
 32 33  1  0
 33 34  2  0
 34 35  1  0
 35 39  1  0
 36 35  2  0
 37 36  1  0
 38 37  1  0
 40 41  1  0
 41 44  1  0
 41 43  1  0
 42 40  2  0
 45 20  1  0
 46 45  1  0
 47 45  1  0
 49 48  1  0
 49 50  1  0
 51 50  1  0
 51 52  1  0
 52 53  1  0
 54 53  1  0
 55 66  2  0
 56 54  1  0
 56 61  1  0
 57 65  1  0
 57 67  1  0
 58 60  1  0
 59 65  1  0
 60 61  2  0
 60 59  1  0
 62 56  2  0
 63 62  1  0
 63 58  2  0
 64 58  1  0
 64 57  1  0
 65 55  1  0
 67 69  2  0
 68 67  1  0
 70 68  1  0
 71 80  2  0
 71 76  1  0
 72 68  1  0
 73 72  1  0
 74 75  1  0
 74 73  1  0
 75 71  1  0
 76 72  1  0
 76 77  2  0
 78 77  1  0
 79 78  2  0
 80 79  1  0
 81 55  1  0
 81 86  1  0
 81 82  1  0
 82 85  1  1
 82 83  1  0
 84 82  1  0
 86 89  1  0
 87 91  1  0
 87 86  1  0
 88 87  2  0
 91 90  1  0
 91 93  1  0
 93 94  1  0
 93 92  1  0
M  ISO  4  11 100  12 100  53 101  54 101
M  END
>  <TORSDO>  (1) 
F 26

>  <SCORE>  (1) 
-7.632

>  <name>  (1) 
0

>  <ligand_id>  (1) 
0

>  <original_smiles>  (1) 
[H]c1c([H])c([H])c2c(c1[H])C([H])([H])C([H])([H])C([H])([H])C2([H])N([H])C(=O)C1([H])N(C(=O)C([H])(N([H])C(=O)C([H])(N([H])C([H])([H])[H])C([H])([H])[H])C(C([H])([H])[H])(C([H])([H])[H])C([H])([H])[H])C([H])([H])c2c([H])c(OC([H])([H])C([H])([H])C([H])([H])C([H])([H])C([H])([H])C([H])([H])c3c([H])c([H])c([H])c(C(=O)C([H])([H])C([H])([H])C([H])([H])C(=O)N4C([H])([H])C([H])([H])C([H])([H])C([H])(n5nc(-c6c([H])c([H])c(Oc7c([H])c([H])c(F)c([H])c7F)c([H])c6[H])c(C(=O)N([H])[H])c5N([H])[H])C4([H])[H])c3[H])c([H])c([H])c2C1([H])[H]

>  <smiles>  (1) 
[H]c1c([H])c([H])c2c(c1[H])C([H])([H])C([H])([H])C([H])([H])C2([H])N([H])C(=O)C1([H])N(C(=O)C([H])(N([H])C(=O)C([H])(N([H])C([H])([H])[H])C([H])([H])[H])C(C([H])([H])[H])(C([H])([H])[H])C([H])([H])[H])C([H])([H])c2c([H])c(OC([H])([H])C([H])([H])C([H])([H])C([H])([H])C([H])([H])C([H])([H])c3c([H])c([H])c([H])c(C(=O)C([H])([H])C([H])([H])C([H])([H])C(=O)N4C([H])([H])C([H])([H])C([H])([H])C([H])(n5nc(-c6c([H])c([H])c(Oc7c([H])c([H])c(F)c([H])c7F)c([H])c6[H])c(C(=O)N([H])[H])c5N([H])[H])C4([H])[H])c3[H])c([H])c([H])c2C1([H])[H]

$$$$
1:0:0
     RDKit          3D

 96104  0  0  1  0  0  0  0  0999 V2000
  -29.1410  -22.5170   21.0100 C   0  0  0  0  0  3  0  0  0  0  0  0
  -29.4700  -21.2250   21.4680 C   0  0  0  0  0  3  0  0  0  0  0  0
  -31.3790  -22.7430   20.1050 C   0  0  0  0  0  3  0  0  0  0  0  0
  -30.1020  -23.3020   20.3350 C   0  0  0  0  0  0  0  0  0  0  0  0
  -30.7610  -20.6770   21.2720 C   0  0  0  0  0  0  0  0  0  0  0  0
  -31.7260  -21.4460   20.5580 C   0  0  0  0  0  0  0  0  0  0  0  0
  -34.0200  -21.7080   19.5880 C   0  0  0  0  0  1  0  0  0  0  0  0
  -33.0110  -20.9300   20.2990 N   0  0  0  0  0  0  0  0  0  0  0  0
  -33.3320  -20.0760   20.7460 H   0  0  0  0  0  0  0  0  0  0  0  0
  -29.8320  -24.7010   19.8650 C   0  0  0  0  0  0  0  0  0  0  0  0
  -30.6900  -25.3820   19.2910 O   0  0  0  0  0  0  0  0  0  0  0  0
  -28.4360  -25.3060   20.1010 C   0  0  0  0  0  2  0  0  0  0  0  0
  -28.4700  -26.7260   19.9030 O   0  0  0  0  0  0  0  0  0  0  0  0
  -24.5970  -31.7420   23.1150 C   0  0  0  0  0  0  0  0  0  0  0  0
  -27.2630  -27.3880   19.9410 C   0  0  0  0  0  0  0  0  0  0  0  0
  -23.3780  -30.3160   21.5020 C   0  0  0  0  0  3  0  0  0  0  0  0
  -24.8270  -28.8190   20.0330 C   0  0  0  0  0  0  0  0  0  0  0  0
  -25.8840  -30.7440   21.2300 C   0  0  0  0  0  2  0  0  0  0  0  0
  -25.9870  -29.3780   20.5820 C   0  0  0  0  0  0  0  0  0  0  0  0
  -27.2080  -28.6710   20.5280 C   0  0  0  0  0  3  0  0  0  0  0  0
  -26.0830  -26.8360   19.3920 C   0  0  0  0  0  3  0  0  0  0  0  0
  -24.8680  -27.5470   19.4360 C   0  0  0  0  0  3  0  0  0  0  0  0
  -23.5630  -29.6440   20.1160 C   0  0  0  0  0  2  0  0  0  0  0  0
  -24.6390  -30.9480   22.0080 N   0  0  0  0  0  0  0  0  0  0  0  0
  -23.5250  -31.9850   23.6860 O   0  0  0  0  0  0  0  0  0  0  0  0
  -22.7800  -29.2760   22.4760 C   0  0  0  0  0  0  0  0  0  0  0  0
  -21.4660  -29.0260   22.3510 N   0  0  0  0  0  0  0  0  0  0  0  0
  -23.4940  -28.6960   23.2980 O   0  0  0  0  0  0  0  0  0  0  0  0
  -20.9490  -29.5490   21.6590 H   0  0  0  0  0  0  0  0  0  0  0  0
  -18.1740  -27.6070   22.7970 C   0  0  0  0  0  0  0  0  0  0  0  0
  -20.6970  -28.0580   23.1320 C   0  0  0  0  0  3  0  0  0  0  0  0
  -20.9190  -26.6190   22.6120 C   0  0  0  0  0  2  0  0  0  0  0  0
  -19.8760  -26.1810   21.5800 C   0  0  0  0  0  2  0  0  0  0  0  0
  -18.4680  -26.2500   22.1790 C   0  0  0  0  0  2  0  0  0  0  0  0
  -19.2210  -28.4630   23.2300 C   0  0  0  0  0  0  0  0  0  0  0  0
  -18.8960  -29.7280   23.7650 C   0  0  0  0  0  3  0  0  0  0  0  0
  -17.5540  -30.1410   23.8710 C   0  0  0  0  0  3  0  0  0  0  0  0
  -16.5210  -29.2830   23.4560 C   0  0  0  0  0  3  0  0  0  0  0  0
  -16.8320  -28.0190   22.9250 C   0  0  0  0  0  3  0  0  0  0  0  0
  -25.8850  -32.3990   23.7010 C   0  0  0  0  0  3  0  0  0  0  0  0
  -25.5470  -33.7810   24.0680 N   0  0  0  0  0  0  0  0  0  0  0  0
  -25.8790  -34.8610   23.3490 C   0  0  0  0  0  0  0  0  0  0  0  0
  -26.5720  -34.8000   22.3290 O   0  0  0  0  0  0  0  0  0  0  0  0
  -24.9330  -33.9020   24.8610 H   0  0  0  0  0  0  0  0  0  0  0  0
  -24.1420  -36.6440   22.9950 C   0  0  0  0  0  1  0  0  0  0  0  0
  -25.3580  -36.2260   23.8360 C   0  0  0  0  0  3  0  0  0  0  0  0
  -27.4520  -37.1010   24.7760 C   0  0  0  0  0  1  0  0  0  0  0  0
  -26.3810  -37.2940   23.8000 N   0  0  0  0  0  0  0  0  0  0  0  0
  -25.9590  -38.2030   23.9690 H   0  0  0  0  0  0  0  0  0  0  0  0
  -26.4730  -31.6200   24.9400 C   0  0  1  0  0  0  0  0  0  0  0  0
  -25.4280  -31.3210   26.0400 C   0  0  0  0  0  1  0  0  0  0  0  0
  -27.0880  -30.2730   24.4940 C   0  0  0  0  0  1  0  0  0  0  0  0
  -27.6190  -32.4400   25.5790 C   0  0  0  0  0  1  0  0  0  0  0  0
  -30.6790  -19.1490   23.3410 C   0  0  0  0  0  1  0  0  0  0  0  0
  -31.0860  -19.2880   21.8600 C   0  0  0  0  0  3  0  0  0  0  0  0
  -30.4990  -18.1970   21.0450 N   0  0  0  0  0  4  0  0  0  0  0  0
  -29.5690  -18.0080   21.3790 H   0  0  0  0  0  0  0  0  0  0  0  0
  -30.4120  -18.5480   20.1040 H   0  0  0  0  0  0  0  0  0  0  0  0
  -31.3020  -16.9460   20.9690 C   0  0  0  0  0  2  0  0  0  0  0  0
  -30.4470  -15.6470   20.9460 C   0  0  0  0  0  2  0  0  0  0  0  0
  -31.0760  -14.4580   20.1840 C   0  0  0  0  0  0  0  0  0  0  0  0
  -30.6970  -12.3180   19.0070 C   0  0  0  0  0  2  0  0  0  0  0  0
  -29.7330  -12.5480   17.8250 C   0  0  0  0  0  2  0  0  0  0  0  0
  -28.2660  -12.4460   18.2860 C   0  0  0  0  0  2  0  0  0  0  0  0
  -27.9760  -13.2970   19.5510 C   0  0  0  0  0  3  0  0  0  0  0  0
  -29.0460  -13.0450   20.6350 C   0  0  0  0  0  2  0  0  0  0  0  0
  -30.3700  -13.3040   20.0470 N   0  0  0  0  0  0  0  0  0  0  0  0
  -32.1680  -14.6180   19.6310 O   0  0  0  0  0  0  0  0  0  0  0  0
  -25.6100  -13.9710   20.3060 C   0  0  0  0  0  0  0  0  0  0  0  0
  -24.5280  -13.2290   20.6980 C   0  0  0  0  0  0  0  0  0  0  0  0
  -24.9530  -11.8650   20.6600 C   0  0  0  0  0  0  0  0  0  0  0  0
  -26.6260  -13.0620   20.0560 N   0  0  0  0  0  0  0  0  0  0  0  0
  -26.2350  -11.7910   20.3250 N   0  0  0  0  0  0  0  0  0  0  0  0
  -24.1980  -10.6220   20.8670 C   0  0  0  0  0  0  0  0  0  0  0  0
  -24.5940   -9.6690   21.8320 C   0  0  0  0  0  3  0  0  0  0  0  0
  -23.8410   -8.4910   22.0240 C   0  0  0  0  0  3  0  0  0  0  0  0
  -22.6790   -8.2570   21.2500 C   0  0  0  0  0  0  0  0  0  0  0  0
  -22.3030   -9.1970   20.2750 C   0  0  0  0  0  3  0  0  0  0  0  0
  -23.0560  -10.3670   20.0820 C   0  0  0  0  0  3  0  0  0  0  0  0
  -21.9000   -7.1300   21.3510 O   0  0  0  0  0  0  0  0  0  0  0  0
  -21.7700   -6.4470   22.5340 C   0  0  0  0  0  0  0  0  0  0  0  0
  -21.2690   -7.0660   23.6990 C   0  0  0  0  0  3  0  0  0  0  0  0
  -21.0860   -6.3100   24.8740 C   0  0  0  0  0  3  0  0  0  0  0  0
  -21.3950   -4.9370   24.8840 C   0  0  0  0  0  0  0  0  0  0  0  0
  -21.8920   -4.3180   23.7230 C   0  0  0  0  0  3  0  0  0  0  0  0
  -22.0760   -5.0710   22.5510 C   0  0  0  0  0  0  0  0  0  0  0  0
  -22.5330   -4.4660   21.4290 F   0  0  0  0  0  0  0  0  0  0  0  0
  -21.2120   -4.2090   26.0100 F   0  0  0  0  0  0  0  0  0  0  0  0
  -23.1500  -13.7410   20.9990 C   0  0  0  0  0  0  0  0  0  0  0  0
  -22.4280  -13.0720   21.8910 N   0  0  0  0  0  0  0  0  0  0  0  0
  -22.7220  -14.7710   20.4780 O   0  0  0  0  0  0  0  0  0  0  0  0
  -22.7870  -12.2390   22.3330 H   0  0  0  0  0  0  0  0  0  0  0  0
  -21.5040  -13.3980   22.1370 H   0  0  0  0  0  0  0  0  0  0  0  0
  -25.8060  -15.3370   20.1220 N   0  0  0  0  0  0  0  0  0  0  0  0
  -25.0580  -16.0120   20.2410 H   0  0  0  0  0  0  0  0  0  0  0  0
  -26.6540  -15.7480   19.7540 H   0  0  0  0  0  0  0  0  0  0  0  0
  1  2  1  0
  3  4  1  0
  3  6  2  0
  4  1  2  0
  5  2  2  0
  5 55  1  0
  6  5  1  0
  7  8  1  0
  8  6  1  0
  8  9  1  0
 10 12  1  0
 10  4  1  0
 11 10  2  0
 13 15  1  0
 13 12  1  0
 14 25  2  0
 15 20  1  0
 16 24  1  0
 16 26  1  0
 17 23  1  0
 17 19  1  0
 18 24  1  0
 19 18  1  0
 20 19  2  0
 21 22  1  0
 21 15  2  0
 22 17  2  0
 23 16  1  0
 24 14  1  0
 26 28  2  0
 27 26  1  0
 29 27  1  0
 30 39  2  0
 30 35  1  0
 31 27  1  0
 31 35  1  0
 32 31  1  0
 33 34  1  0
 33 32  1  0
 34 30  1  0
 35 36  2  0
 36 37  1  0
 38 37  2  0
 39 38  1  0
 40 14  1  0
 40 41  1  0
 40 50  1  0
 41 44  1  0
 42 46  1  0
 42 41  1  0
 43 42  2  0
 46 45  1  0
 48 46  1  0
 48 49  1  0
 48 47  1  0
 50 53  1  1
 50 51  1  0
 52 50  1  0
 55 54  1  0
 56 57  1  0
 56 55  1  0
 58 56  1  0
 59 56  1  0
 60 59  1  0
 61 60  1  0
 62 67  1  0
 63 64  1  0
 63 62  1  0
 65 64  1  0
 65 72  1  0
 65 66  1  0
 67 61  1  0
 67 66  1  0
 68 61  2  0
 69 70  2  0
 70 89  1  0
 71 70  1  0
 71 74  1  0
 72 69  1  0
 72 73  1  0
 73 71  2  0
 74 75  1  0
 75 76  2  0
 77 80  1  0
 77 76  1  0
 78 77  2  0
 79 78  1  0
 79 74  2  0
 80 81  1  0
 81 86  2  0
 81 82  1  0
 82 83  2  0
 83 84  1  0
 84 88  1  0
 85 84  2  0
 86 85  1  0
 87 86  1  0
 89 90  1  0
 90 93  1  0
 90 92  1  0
 91 89  2  0
 94 95  1  0
 94 69  1  0
 96 94  1  0
M  ISO  4  12 101  13 101  60 100  61 100
M  END
>  <TORSDO>  (2) 
F 23

>  <SCORE>  (2) 
-12.270

>  <name>  (2) 
1

>  <ligand_id>  (2) 
1

>  <original_smiles>  (2) 
[H]c1c([H])c([H])c2c(c1[H])C([H])([H])C([H])([H])C([H])([H])C2([H])N([H])C(=O)C1([H])N(C(=O)C([H])(N([H])C(=O)C([H])(N([H])C([H])([H])[H])C([H])([H])[H])C(C([H])([H])[H])(C([H])([H])[H])C([H])([H])[H])C([H])([H])c2c([H])c(OC([H])([H])C(=O)c3c([H])c([H])c(C([H])(C([H])([H])[H])[N+]([H])([H])C([H])([H])C([H])([H])C(=O)N4C([H])([H])C([H])([H])C([H])([H])C([H])(n5nc(-c6c([H])c([H])c(Oc7c([H])c([H])c(F)c([H])c7F)c([H])c6[H])c(C(=O)N([H])[H])c5N([H])[H])C4([H])[H])c(N([H])C([H])([H])[H])c3[H])c([H])c([H])c2C1([H])[H]

>  <smiles>  (2) 
[H]c1c([H])c([H])c2c(c1[H])C([H])([H])C([H])([H])C([H])([H])C2([H])N([H])C(=O)C1([H])N(C(=O)C([H])(N([H])C(=O)C([H])(N([H])C([H])([H])[H])C([H])([H])[H])C(C([H])([H])[H])(C([H])([H])[H])C([H])([H])[H])C([H])([H])c2c([H])c(OC([H])([H])C(=O)c3c([H])c([H])c(C([H])(C([H])([H])[H])[N+]([H])([H])C([H])([H])C([H])([H])C(=O)N4C([H])([H])C([H])([H])C([H])([H])C([H])(n5nc(-c6c([H])c([H])c(Oc7c([H])c([H])c(F)c([H])c7F)c([H])c6[H])c(C(=O)N([H])[H])c5N([H])[H])C4([H])[H])c(N([H])C([H])([H])[H])c3[H])c([H])c([H])c2C1([H])[H]

$$$$
2:0:0
     RDKit          3D

 98107  0  0  1  0  0  0  0  0999 V2000
  -27.9450  -17.0390   18.6550 C   0  0  0  0  0  3  0  0  0  0  0  0
  -26.6870  -17.6590   18.5840 C   0  0  0  0  0  3  0  0  0  0  0  0
  -28.7490  -18.8130   20.0970 C   0  0  0  0  0  3  0  0  0  0  0  0
  -29.0130  -17.6060   19.3940 C   0  0  0  0  0  0  0  0  0  0  0  0
  -27.4770  -19.4420   20.0490 C   0  0  0  0  0  0  0  0  0  0  0  0
  -26.4380  -18.8280   19.3070 C   0  0  0  0  0  0  0  0  0  0  0  0
  -31.2260  -18.2220   17.4520 C   0  0  0  0  0  2  0  0  0  0  0  0
  -31.7430  -18.9030   18.7290 C   0  0  0  0  0  2  0  0  0  0  0  0
  -30.8550  -16.7940   17.8780 C   0  0  0  0  0  2  0  0  0  0  0  0
  -31.5460  -17.8690   19.8510 C   0  0  0  0  0  2  0  0  0  0  0  0
  -30.4150  -16.9370   19.3660 C   0  0  1  0  0  0  0  0  0  0  0  0
  -31.2450  -14.6200   20.1320 C   0  0  0  0  0  0  0  0  0  0  0  0
  -30.9950  -12.3010   19.3910 C   0  0  0  0  0  2  0  0  0  0  0  0
  -30.0620  -12.3390   18.1680 C   0  0  0  0  0  2  0  0  0  0  0  0
  -28.5840  -12.2720   18.6000 C   0  0  0  0  0  2  0  0  0  0  0  0
  -28.2450  -13.2840   19.7230 C   0  0  0  0  0  3  0  0  0  0  0  0
  -29.2920  -13.2190   20.8610 C   0  0  0  0  0  2  0  0  0  0  0  0
  -30.6210  -13.4220   20.2590 N   0  0  0  0  0  0  0  0  0  0  0  0
  -32.4260  -14.7270   19.7850 O   0  0  0  0  0  0  0  0  0  0  0  0
  -30.3840  -15.6590   20.1080 N   0  0  0  0  0  0  0  0  0  0  0  0
  -29.4810  -15.4330   20.4960 H   0  0  0  0  0  0  0  0  0  0  0  0
  -25.9630  -14.0440   20.6380 C   0  0  0  0  0  0  0  0  0  0  0  0
  -24.8320  -13.3530   20.9530 C   0  0  0  0  0  0  0  0  0  0  0  0
  -25.1380  -11.9790   20.7210 C   0  0  0  0  0  0  0  0  0  0  0  0
  -26.8920  -13.1000   20.2330 N   0  0  0  0  0  0  0  0  0  0  0  0
  -26.4050  -11.8430   20.3470 N   0  0  0  0  0  0  0  0  0  0  0  0
  -24.2830  -10.7940   20.7810 C   0  0  0  0  0  0  0  0  0  0  0  0
  -24.6390   -9.6780   21.5650 C   0  0  0  0  0  3  0  0  0  0  0  0
  -23.7940   -8.5500   21.6240 C   0  0  0  0  0  3  0  0  0  0  0  0
  -22.5790   -8.5370   20.8970 C   0  0  0  0  0  0  0  0  0  0  0  0
  -22.2410   -9.6450   20.1010 C   0  0  0  0  0  3  0  0  0  0  0  0
  -23.0850  -10.7640   20.0390 C   0  0  0  0  0  3  0  0  0  0  0  0
  -21.7080   -7.4790   20.8720 O   0  0  0  0  0  0  0  0  0  0  0  0
  -21.6080   -6.6040   21.9210 C   0  0  0  0  0  0  0  0  0  0  0  0
  -21.2680   -7.0360   23.2210 C   0  0  0  0  0  3  0  0  0  0  0  0
  -21.0980   -6.0920   24.2530 C   0  0  0  0  0  3  0  0  0  0  0  0
  -21.2710   -4.7200   23.9880 C   0  0  0  0  0  0  0  0  0  0  0  0
  -21.6090   -4.2890   22.6930 C   0  0  0  0  0  3  0  0  0  0  0  0
  -21.7700   -5.2280   21.6610 C   0  0  0  0  0  0  0  0  0  0  0  0
  -22.0730   -4.8090   20.4090 F   0  0  0  0  0  0  0  0  0  0  0  0
  -21.1030   -3.8110   24.9770 F   0  0  0  0  0  0  0  0  0  0  0  0
  -23.5110  -13.9400   21.3570 C   0  0  0  0  0  0  0  0  0  0  0  0
  -22.7560  -13.2370   22.1920 N   0  0  0  0  0  0  0  0  0  0  0  0
  -23.1640  -15.0570   20.9700 O   0  0  0  0  0  0  0  0  0  0  0  0
  -23.0450  -12.3310   22.5240 H   0  0  0  0  0  0  0  0  0  0  0  0
  -21.8720  -13.6090   22.5070 H   0  0  0  0  0  0  0  0  0  0  0  0
  -26.2710  -15.3940   20.6450 N   0  0  0  0  0  0  0  0  0  0  0  0
  -25.5540  -16.0940   20.7990 H   0  0  0  0  0  0  0  0  0  0  0  0
  -27.1210  -15.7930   20.2610 H   0  0  0  0  0  0  0  0  0  0  0  0
  -25.1660  -19.3270   19.3000 O   0  0  0  0  0  0  0  0  0  0  0  0
  -25.0260  -19.9580   19.9960 H   0  0  0  0  0  0  0  0  0  0  0  0
  -27.2060  -20.7640   20.7760 C   0  0  0  0  0  2  0  0  0  0  0  0
  -28.3890  -21.7520   20.8250 C   0  0  0  0  0  2  0  0  0  0  0  0
  -27.9930  -23.1880   21.2430 C   0  0  0  0  0  2  0  0  0  0  0  0
  -27.7120  -24.1430   20.0520 C   0  0  0  0  0  2  0  0  0  0  0  0
  -28.3850  -25.5330   20.1430 C   0  0  0  0  0  2  0  0  0  0  0  0
  -28.5670  -26.2450   18.7690 C   0  0  0  0  0  2  0  0  0  0  0  0
  -28.1920  -27.5980   18.4020 O   0  0  0  0  0  0  0  0  0  0  0  0
  -24.4350  -31.4950   23.0350 C   0  0  0  0  0  0  0  0  0  0  0  0
  -26.9510  -28.1330   18.7270 C   0  0  0  0  0  0  0  0  0  0  0  0
  -23.1210  -30.3010   21.3170 C   0  0  0  0  0  3  0  0  0  0  0  0
  -24.4600  -29.2880   19.3980 C   0  0  0  0  0  0  0  0  0  0  0  0
  -25.5300  -31.0220   20.8410 C   0  0  0  0  0  2  0  0  0  0  0  0
  -25.6420  -29.8260   19.9190 C   0  0  0  0  0  0  0  0  0  0  0  0
  -26.8900  -29.2550   19.5830 C   0  0  0  0  0  3  0  0  0  0  0  0
  -25.7480  -27.6280   18.1860 C   0  0  0  0  0  3  0  0  0  0  0  0
  -24.5060  -28.1890   18.5230 C   0  0  0  0  0  3  0  0  0  0  0  0
  -23.1670  -29.9530   19.8060 C   0  0  0  0  0  2  0  0  0  0  0  0
  -24.3910  -30.9430   21.7890 N   0  0  0  0  0  0  0  0  0  0  0  0
  -23.4380  -31.5010   23.7690 O   0  0  0  0  0  0  0  0  0  0  0  0
  -22.7480  -29.0260   22.1050 C   0  0  0  0  0  0  0  0  0  0  0  0
  -21.4760  -28.6100   22.0000 N   0  0  0  0  0  0  0  0  0  0  0  0
  -23.5950  -28.4270   22.7710 O   0  0  0  0  0  0  0  0  0  0  0  0
  -20.8390  -29.1640   21.4440 H   0  0  0  0  0  0  0  0  0  0  0  0
  -18.5370  -26.5050   22.1330 C   0  0  0  0  0  0  0  0  0  0  0  0
  -20.9110  -27.4120   22.6320 C   0  0  0  0  0  3  0  0  0  0  0  0
  -21.4270  -26.1200   21.9570 C   0  0  0  0  0  2  0  0  0  0  0  0
  -20.5100  -25.6420   20.8220 C   0  0  0  0  0  2  0  0  0  0  0  0
  -19.1170  -25.3240   21.3770 C   0  0  0  0  0  2  0  0  0  0  0  0
  -19.3790  -27.4900   22.7110 C   0  0  0  0  0  0  0  0  0  0  0  0
  -18.7920  -28.5790   23.3910 C   0  0  0  0  0  3  0  0  0  0  0  0
  -17.3960  -28.6980   23.4980 C   0  0  0  0  0  3  0  0  0  0  0  0
  -16.5680  -27.7190   22.9250 C   0  0  0  0  0  3  0  0  0  0  0  0
  -17.1350  -26.6190   22.2570 C   0  0  0  0  0  3  0  0  0  0  0  0
  -25.7370  -32.1570   23.5860 C   0  0  0  0  0  3  0  0  0  0  0  0
  -25.3950  -33.5290   23.9900 N   0  0  0  0  0  0  0  0  0  0  0  0
  -25.7060  -34.6280   23.2890 C   0  0  0  0  0  0  0  0  0  0  0  0
  -26.3810  -34.5970   22.2570 O   0  0  0  0  0  0  0  0  0  0  0  0
  -24.8000  -33.6210   24.8030 H   0  0  0  0  0  0  0  0  0  0  0  0
  -23.9550  -36.4140   23.0030 C   0  0  0  0  0  1  0  0  0  0  0  0
  -25.1820  -35.9780   23.8190 C   0  0  0  0  0  3  0  0  0  0  0  0
  -27.2830  -36.8420   24.7520 C   0  0  0  0  0  1  0  0  0  0  0  0
  -26.1990  -37.0500   23.7960 N   0  0  0  0  0  0  0  0  0  0  0  0
  -25.7750  -37.9500   23.9970 H   0  0  0  0  0  0  0  0  0  0  0  0
  -26.3720  -31.3640   24.7930 C   0  0  1  0  0  0  0  0  0  0  0  0
  -25.3700  -31.0590   25.9300 C   0  0  0  0  0  1  0  0  0  0  0  0
  -26.9660  -30.0210   24.3070 C   0  0  0  0  0  1  0  0  0  0  0  0
  -27.5430  -32.1740   25.3970 C   0  0  0  0  0  1  0  0  0  0  0  0
  1  4  1  0
  2  1  2  0
  2  6  1  0
  4  3  2  0
  5  3  1  0
  5 52  1  0
  6  5  2  0
  7  9  1  0
  7  8  1  0
  8 10  1  0
  9 11  1  0
 11  4  1  0
 11 10  1  0
 11 20  1  1
 12 18  1  0
 13 18  1  0
 14 15  1  0
 14 13  1  0
 16 15  1  0
 16 25  1  0
 16 17  1  0
 18 17  1  0
 19 12  2  0
 20 12  1  0
 20 21  1  0
 22 47  1  0
 22 23  2  0
 23 42  1  0
 24 27  1  0
 24 23  1  0
 25 26  1  0
 25 22  1  0
 26 24  2  0
 27 28  1  0
 28 29  2  0
 30 29  1  0
 31 30  2  0
 32 31  1  0
 32 27  2  0
 33 30  1  0
 33 34  1  0
 34 35  1  0
 35 36  2  0
 37 36  1  0
 37 41  1  0
 38 37  2  0
 39 34  2  0
 39 38  1  0
 40 39  1  0
 42 43  1  0
 43 46  1  0
 43 45  1  0
 44 42  2  0
 47 48  1  0
 49 47  1  0
 50  6  1  0
 50 51  1  0
 52 53  1  0
 53 54  1  0
 55 56  1  0
 55 54  1  0
 57 56  1  0
 58 60  1  0
 58 57  1  0
 59 70  2  0
 60 65  1  0
 61 69  1  0
 61 71  1  0
 62 68  1  0
 62 64  1  0
 63 69  1  0
 64 63  1  0
 65 64  2  0
 66 67  1  0
 66 60  2  0
 67 62  2  0
 68 61  1  0
 69 59  1  0
 71 73  2  0
 72 71  1  0
 74 72  1  0
 75 84  2  0
 75 80  1  0
 76 72  1  0
 76 80  1  0
 77 76  1  0
 78 79  1  0
 78 77  1  0
 79 75  1  0
 80 81  2  0
 81 82  1  0
 83 82  2  0
 84 83  1  0
 85 59  1  0
 85 86  1  0
 85 95  1  0
 86 89  1  0
 87 91  1  0
 87 86  1  0
 88 87  2  0
 91 90  1  0
 93 91  1  0
 93 94  1  0
 93 92  1  0
 95 98  1  1
 95 96  1  0
 97 95  1  0
M  ISO  4  12 100  20 100  57 101  58 101
M  END
>  <TORSDO>  (3) 
F 24

>  <SCORE>  (3) 
-7.701

>  <name>  (3) 
2

>  <ligand_id>  (3) 
2

>  <original_smiles>  (3) 
[H]Oc1c([H])c([H])c(C2(N([H])C(=O)N3C([H])([H])C([H])([H])C([H])([H])C([H])(n4nc(-c5c([H])c([H])c(Oc6c([H])c([H])c(F)c([H])c6F)c([H])c5[H])c(C(=O)N([H])[H])c4N([H])[H])C3([H])[H])C([H])([H])C([H])([H])C([H])([H])C2([H])[H])c([H])c1C([H])([H])C([H])([H])C([H])([H])C([H])([H])C([H])([H])C([H])([H])Oc1c([H])c([H])c2c(c1[H])C([H])([H])N(C(=O)C([H])(N([H])C(=O)C([H])(N([H])C([H])([H])[H])C([H])([H])[H])C(C([H])([H])[H])(C([H])([H])[H])C([H])([H])[H])C([H])(C(=O)N([H])C1([H])c3c([H])c([H])c([H])c([H])c3C([H])([H])C([H])([H])C1([H])[H])C2([H])[H]

>  <smiles>  (3) 
[H]Oc1c([H])c([H])c(C2(N([H])C(=O)N3C([H])([H])C([H])([H])C([H])([H])C([H])(n4nc(-c5c([H])c([H])c(Oc6c([H])c([H])c(F)c([H])c6F)c([H])c5[H])c(C(=O)N([H])[H])c4N([H])[H])C3([H])[H])C([H])([H])C([H])([H])C([H])([H])C2([H])[H])c([H])c1C([H])([H])C([H])([H])C([H])([H])C([H])([H])C([H])([H])C([H])([H])Oc1c([H])c([H])c2c(c1[H])C([H])([H])N(C(=O)C([H])(N([H])C(=O)C([H])(N([H])C([H])([H])[H])C([H])([H])[H])C(C([H])([H])[H])(C([H])([H])[H])C([H])([H])[H])C([H])(C(=O)N([H])C1([H])c3c([H])c([H])c([H])c([H])c3C([H])([H])C([H])([H])C1([H])[H])C2([H])[H]

$$$$
3:0:0
     RDKit          3D

 88 95  0  0  1  0  0  0  0  0999 V2000
  -29.0280  -23.9530   20.3790 C   0  0  0  0  0  0  0  0  0  0  0  0
  -29.7400  -24.2090   21.3550 O   0  0  0  0  0  0  0  0  0  0  0  0
  -28.9710  -22.4850   19.8030 C   0  0  0  0  0  2  0  0  0  0  0  0
  -29.3630  -21.2490   20.7340 C   0  0  0  0  0  3  0  0  0  0  0  0
  -29.3990  -19.8120   20.0400 C   0  0  0  0  0  3  0  0  0  0  0  0
  -29.6640  -18.6000   20.9200 N   0  0  0  0  0  4  0  0  0  0  0  0
  -30.4400  -18.8110   21.5270 H   0  0  0  0  0  0  0  0  0  0  0  0
  -28.8570  -18.4760   21.5090 H   0  0  0  0  0  0  0  0  0  0  0  0
  -29.9720  -17.2780   20.2290 C   0  0  0  0  0  3  0  0  0  0  0  0
  -29.8910  -15.9380   21.1010 C   0  0  0  0  0  3  0  0  0  0  0  0
  -30.6010  -14.6360   20.5380 C   0  0  0  0  0  0  0  0  0  0  0  0
  -30.3900  -12.3980   19.4680 C   0  0  0  0  0  2  0  0  0  0  0  0
  -29.4700  -12.5260   18.2330 C   0  0  0  0  0  2  0  0  0  0  0  0
  -27.9870  -12.3820   18.6360 C   0  0  0  0  0  2  0  0  0  0  0  0
  -27.6120  -13.2520   19.8670 C   0  0  0  0  0  3  0  0  0  0  0  0
  -28.6510  -13.0830   21.0000 C   0  0  0  0  0  2  0  0  0  0  0  0
  -29.9700  -13.4220   20.4470 N   0  0  0  0  0  0  0  0  0  0  0  0
  -31.7490  -14.7650   20.1000 O   0  0  0  0  0  0  0  0  0  0  0  0
  -25.2080  -13.8690   20.5280 C   0  0  0  0  0  0  0  0  0  0  0  0
  -24.1300  -13.1030   20.8890 C   0  0  0  0  0  0  0  0  0  0  0  0
  -24.5880  -11.7520   20.8850 C   0  0  0  0  0  0  0  0  0  0  0  0
  -26.2520  -12.9810   20.3280 N   0  0  0  0  0  0  0  0  0  0  0  0
  -25.8840  -11.7030   20.6020 N   0  0  0  0  0  0  0  0  0  0  0  0
  -23.8530  -10.4960   21.0780 C   0  0  0  0  0  0  0  0  0  0  0  0
  -24.2840   -9.5220   22.0060 C   0  0  0  0  0  3  0  0  0  0  0  0
  -23.5490   -8.3320   22.1880 C   0  0  0  0  0  3  0  0  0  0  0  0
  -22.3700   -8.1030   21.4400 C   0  0  0  0  0  0  0  0  0  0  0  0
  -21.9590   -9.0650   20.4990 C   0  0  0  0  0  3  0  0  0  0  0  0
  -22.6950  -10.2470   20.3160 C   0  0  0  0  0  3  0  0  0  0  0  0
  -21.6080   -6.9640   21.5290 O   0  0  0  0  0  0  0  0  0  0  0  0
  -21.5780   -6.2050   22.6710 C   0  0  0  0  0  0  0  0  0  0  0  0
  -21.2090   -6.7510   23.9200 C   0  0  0  0  0  3  0  0  0  0  0  0
  -21.1270   -5.9200   25.0540 C   0  0  0  0  0  3  0  0  0  0  0  0
  -21.4020   -4.5440   24.9420 C   0  0  0  0  0  0  0  0  0  0  0  0
  -21.7660   -3.9980   23.6970 C   0  0  0  0  0  3  0  0  0  0  0  0
  -21.8510   -4.8260   22.5660 C   0  0  0  0  0  0  0  0  0  0  0  0
  -22.1790   -4.2920   21.3640 F   0  0  0  0  0  0  0  0  0  0  0  0
  -21.3170   -3.7420   26.0290 F   0  0  0  0  0  0  0  0  0  0  0  0
  -22.7310  -13.5900   21.1300 C   0  0  0  0  0  0  0  0  0  0  0  0
  -21.9850  -12.9090   21.9940 N   0  0  0  0  0  0  0  0  0  0  0  0
  -22.3070  -14.6100   20.5870 O   0  0  0  0  0  0  0  0  0  0  0  0
  -22.3370  -12.0810   22.4510 H   0  0  0  0  0  0  0  0  0  0  0  0
  -21.0460  -13.2210   22.1990 H   0  0  0  0  0  0  0  0  0  0  0  0
  -25.3790  -15.2370   20.3360 N   0  0  0  0  0  0  0  0  0  0  0  0
  -24.6080  -15.8900   20.4270 H   0  0  0  0  0  0  0  0  0  0  0  0
  -26.2270  -15.6740   19.9970 H   0  0  0  0  0  0  0  0  0  0  0  0
  -28.1610  -25.0720   19.6860 C   0  0  0  0  0  2  0  0  0  0  0  0
  -28.3200  -26.4700   20.1600 O   0  0  0  0  0  0  0  0  0  0  0  0
  -24.6210  -31.8760   23.2160 C   0  0  0  0  0  0  0  0  0  0  0  0
  -27.2010  -27.3210   20.1110 C   0  0  0  0  0  0  0  0  0  0  0  0
  -23.4030  -30.4790   21.5880 C   0  0  0  0  0  3  0  0  0  0  0  0
  -24.8380  -28.9380   20.1480 C   0  0  0  0  0  0  0  0  0  0  0  0
  -25.9450  -30.7900   21.3910 C   0  0  0  0  0  2  0  0  0  0  0  0
  -26.0140  -29.4170   20.7390 C   0  0  0  0  0  0  0  0  0  0  0  0
  -27.1960  -28.6140   20.7220 C   0  0  0  0  0  3  0  0  0  0  0  0
  -26.0020  -26.9110   19.4800 C   0  0  0  0  0  3  0  0  0  0  0  0
  -24.8320  -27.6880   19.5170 C   0  0  0  0  0  3  0  0  0  0  0  0
  -23.6040  -29.8120   20.2060 C   0  0  0  0  0  2  0  0  0  0  0  0
  -24.6740  -31.0670   22.1190 N   0  0  0  0  0  0  0  0  0  0  0  0
  -23.5430  -32.1550   23.7590 O   0  0  0  0  0  0  0  0  0  0  0  0
  -22.7490  -29.4580   22.5540 C   0  0  0  0  0  0  0  0  0  0  0  0
  -21.4230  -29.2800   22.4380 N   0  0  0  0  0  0  0  0  0  0  0  0
  -23.4360  -28.8290   23.3620 O   0  0  0  0  0  0  0  0  0  0  0  0
  -20.9310  -29.8340   21.7500 H   0  0  0  0  0  0  0  0  0  0  0  0
  -18.0470  -28.0800   22.9510 C   0  0  0  0  0  0  0  0  0  0  0  0
  -20.6060  -28.3450   23.2150 C   0  0  0  0  0  3  0  0  0  0  0  0
  -20.7130  -26.9100   22.6470 C   0  0  0  0  0  2  0  0  0  0  0  0
  -19.6090  -26.5800   21.6390 C   0  0  0  0  0  2  0  0  0  0  0  0
  -18.2260  -26.7270   22.2830 C   0  0  0  0  0  2  0  0  0  0  0  0
  -19.1660  -28.8460   23.3740 C   0  0  0  0  0  0  0  0  0  0  0  0
  -18.9460  -30.1130   23.9580 C   0  0  0  0  0  3  0  0  0  0  0  0
  -17.6400  -30.6120   24.1260 C   0  0  0  0  0  3  0  0  0  0  0  0
  -16.5360  -29.8400   23.7220 C   0  0  0  0  0  3  0  0  0  0  0  0
  -16.7410  -28.5770   23.1400 C   0  0  0  0  0  3  0  0  0  0  0  0
  -25.9110  -32.5070   23.8260 C   0  0  0  0  0  3  0  0  0  0  0  0
  -26.4440  -31.7290   25.0900 C   0  0  1  0  0  0  0  0  0  0  0  0
  -25.3650  -31.4810   26.1710 C   0  0  0  0  0  1  0  0  0  0  0  0
  -27.0270  -30.3560   24.6840 C   0  0  0  0  0  1  0  0  0  0  0  0
  -27.6050  -32.5210   25.7390 C   0  0  0  0  0  1  0  0  0  0  0  0
  -25.6020  -33.9010   24.1720 N   0  0  0  0  0  0  0  0  0  0  0  0
  -25.9170  -34.9610   23.4150 C   0  0  0  0  0  0  0  0  0  0  0  0
  -26.5680  -34.8670   22.3710 O   0  0  0  0  0  0  0  0  0  0  0  0
  -25.0260  -34.0470   24.9860 H   0  0  0  0  0  0  0  0  0  0  0  0
  -24.1730  -36.7450   23.1090 C   0  0  0  0  0  1  0  0  0  0  0  0
  -25.4330  -36.3440   23.8920 C   0  0  0  0  0  3  0  0  0  0  0  0
  -27.5820  -37.2300   24.6790 C   0  0  0  0  0  1  0  0  0  0  0  0
  -26.4570  -37.4030   23.7640 N   0  0  0  0  0  0  0  0  0  0  0  0
  -26.0520  -38.3200   23.9290 H   0  0  0  0  0  0  0  0  0  0  0  0
  1  2  2  0
  3  1  1  0
  3  4  1  0
  5  4  2  0
  5  6  1  0
  6  8  1  0
  6  7  1  0
  9  6  1  0
  9 10  2  0
 11 10  1  0
 12 17  1  0
 13 14  1  0
 13 12  1  0
 15 14  1  0
 15 22  1  0
 15 16  1  0
 17 11  1  0
 17 16  1  0
 18 11  2  0
 19 20  2  0
 20 39  1  0
 21 20  1  0
 21 24  1  0
 22 19  1  0
 22 23  1  0
 23 21  2  0
 24 25  1  0
 25 26  2  0
 27 30  1  0
 27 26  1  0
 28 27  2  0
 29 28  1  0
 29 24  2  0
 30 31  1  0
 31 32  1  0
 32 33  2  0
 34 33  1  0
 34 38  1  0
 35 34  2  0
 36 31  2  0
 36 35  1  0
 37 36  1  0
 39 40  1  0
 40 43  1  0
 40 42  1  0
 41 39  2  0
 44 45  1  0
 44 19  1  0
 46 44  1  0
 47 48  1  0
 47  1  1  0
 49 60  2  0
 50 48  1  0
 50 55  1  0
 51 59  1  0
 51 61  1  0
 52 58  1  0
 52 54  1  0
 53 59  1  0
 54 53  1  0
 55 54  2  0
 56 57  1  0
 56 50  2  0
 57 52  2  0
 58 51  1  0
 59 49  1  0
 61 63  2  0
 62 61  1  0
 64 62  1  0
 65 74  2  0
 65 70  1  0
 66 62  1  0
 66 70  1  0
 67 66  1  0
 68 69  1  0
 68 67  1  0
 69 65  1  0
 70 71  2  0
 71 72  1  0
 73 72  2  0
 74 73  1  0
 75 49  1  0
 75 80  1  0
 75 76  1  0
 76 79  1  1
 76 77  1  0
 78 76  1  0
 80 83  1  0
 81 85  1  0
 81 80  1  0
 82 81  2  0
 85 84  1  0
 87 85  1  0
 87 88  1  0
 87 86  1  0
M  ISO  4  10 100  11 100  47 101  48 101
M  END
>  <TORSDO>  (4) 
F 23

>  <SCORE>  (4) 
-12.681

>  <name>  (4) 
3

>  <ligand_id>  (4) 
3

>  <original_smiles>  (4) 
[H]c1c([H])c([H])c2c(c1[H])C([H])([H])C([H])([H])C([H])([H])C2([H])N([H])C(=O)C1([H])N(C(=O)C([H])(N([H])C(=O)C([H])(N([H])C([H])([H])[H])C([H])([H])[H])C(C([H])([H])[H])(C([H])([H])[H])C([H])([H])[H])C([H])([H])c2c([H])c(OC([H])([H])C(=O)C([H])([H])C([H])([H])C([H])([H])[N+]([H])([H])C([H])([H])C([H])([H])C(=O)N3C([H])([H])C([H])([H])C([H])([H])C([H])(n4nc(-c5c([H])c([H])c(Oc6c([H])c([H])c(F)c([H])c6F)c([H])c5[H])c(C(=O)N([H])[H])c4N([H])[H])C3([H])[H])c([H])c([H])c2C1([H])[H]

>  <smiles>  (4) 
[H]c1c([H])c([H])c2c(c1[H])C([H])([H])C([H])([H])C([H])([H])C2([H])N([H])C(=O)C1([H])N(C(=O)C([H])(N([H])C(=O)C([H])(N([H])C([H])([H])[H])C([H])([H])[H])C(C([H])([H])[H])(C([H])([H])[H])C([H])([H])[H])C([H])([H])c2c([H])c(OC([H])([H])C(=O)C([H])([H])C([H])([H])C([H])([H])[N+]([H])([H])C([H])([H])C([H])([H])C(=O)N3C([H])([H])C([H])([H])C([H])([H])C([H])(n4nc(-c5c([H])c([H])c(Oc6c([H])c([H])c(F)c([H])c6F)c([H])c5[H])c(C(=O)N([H])[H])c4N([H])[H])C3([H])[H])c([H])c([H])c2C1([H])[H]

$$$$
4:0:0
     RDKit          3D

 93101  0  0  1  0  0  0  0  0999 V2000
  -27.3880  -20.5880   19.2470 C   0  0  0  0  0  2  0  0  0  0  0  0
  -29.8400  -21.0510   22.1550 C   0  0  0  0  0  3  0  0  0  0  0  0
  -30.8420  -20.1200   21.8260 C   0  0  0  0  0  3  0  0  0  0  0  0
  -28.7240  -21.2070   21.3100 C   0  0  0  0  0  3  0  0  0  0  0  0
  -29.6110  -19.4980   19.8110 C   0  0  0  0  0  3  0  0  0  0  0  0
  -30.7210  -19.3160   20.6680 C   0  0  0  0  0  0  0  0  0  0  0  0
  -28.6100  -20.4380   20.1340 C   0  0  0  0  0  0  0  0  0  0  0  0
  -31.7880  -18.3340   20.3530 C   0  0  0  0  0  0  0  0  0  0  0  0
  -32.9910  -18.5980   20.4540 O   0  0  0  0  0  0  0  0  0  0  0  0
  -31.3360  -16.9270   19.9610 C   0  0  0  0  0  2  0  0  0  0  0  0
  -32.2290  -15.8180   20.5500 C   0  0  0  0  0  2  0  0  0  0  0  0
  -32.3910  -14.6430   19.5890 C   0  0  0  0  0  0  0  0  0  0  0  0
  -31.7710  -12.3750   18.8410 C   0  0  0  0  0  2  0  0  0  0  0  0
  -30.7450  -12.4020   17.6960 C   0  0  0  0  0  2  0  0  0  0  0  0
  -29.3130  -12.4610   18.2590 C   0  0  0  0  0  2  0  0  0  0  0  0
  -29.1450  -13.5860   19.3130 C   0  0  0  0  0  3  0  0  0  0  0  0
  -30.2700  -13.5320   20.3700 C   0  0  0  0  0  2  0  0  0  0  0  0
  -31.5680  -13.5680   19.6730 N   0  0  0  0  0  0  0  0  0  0  0  0
  -33.3300  -14.7000   18.7890 O   0  0  0  0  0  0  0  0  0  0  0  0
  -27.0310  -14.5750   20.4070 C   0  0  0  0  0  0  0  0  0  0  0  0
  -25.8600  -13.9970   20.8190 C   0  0  0  0  0  0  0  0  0  0  0  0
  -26.0000  -12.5980   20.5640 C   0  0  0  0  0  0  0  0  0  0  0  0
  -27.8220  -13.5380   19.9310 N   0  0  0  0  0  0  0  0  0  0  0  0
  -27.2070  -12.3350   20.0830 N   0  0  0  0  0  0  0  0  0  0  0  0
  -25.0340  -11.5000   20.6990 C   0  0  0  0  0  0  0  0  0  0  0  0
  -25.3200  -10.3560   21.4750 C   0  0  0  0  0  3  0  0  0  0  0  0
  -24.3670   -9.3220   21.6040 C   0  0  0  0  0  3  0  0  0  0  0  0
  -23.1130   -9.4260   20.9550 C   0  0  0  0  0  0  0  0  0  0  0  0
  -22.8450  -10.5560   20.1620 C   0  0  0  0  0  3  0  0  0  0  0  0
  -23.7960  -11.5820   20.0310 C   0  0  0  0  0  3  0  0  0  0  0  0
  -22.1360   -8.4590   21.0030 O   0  0  0  0  0  0  0  0  0  0  0  0
  -21.9880   -7.6380   22.0920 C   0  0  0  0  0  0  0  0  0  0  0  0
  -21.7640   -8.1530   23.3880 C   0  0  0  0  0  3  0  0  0  0  0  0
  -21.5450   -7.2730   24.4660 C   0  0  0  0  0  3  0  0  0  0  0  0
  -21.5430   -5.8810   24.2510 C   0  0  0  0  0  0  0  0  0  0  0  0
  -21.7610   -5.3670   22.9610 C   0  0  0  0  0  3  0  0  0  0  0  0
  -21.9800   -6.2450   21.8840 C   0  0  0  0  0  0  0  0  0  0  0  0
  -22.1680   -5.7440   20.6410 F   0  0  0  0  0  0  0  0  0  0  0  0
  -21.3250   -5.0360   25.2870 F   0  0  0  0  0  0  0  0  0  0  0  0
  -24.6410  -14.7070   21.3330 C   0  0  0  0  0  0  0  0  0  0  0  0
  -23.9120  -14.0860   22.2540 N   0  0  0  0  0  0  0  0  0  0  0  0
  -24.3550  -15.8440   20.9540 O   0  0  0  0  0  0  0  0  0  0  0  0
  -24.1530  -13.1630   22.5780 H   0  0  0  0  0  0  0  0  0  0  0  0
  -23.0970  -14.5440   22.6400 H   0  0  0  0  0  0  0  0  0  0  0  0
  -27.4850  -15.8890   20.3790 N   0  0  0  0  0  0  0  0  0  0  0  0
  -26.9120  -16.6690   20.6850 H   0  0  0  0  0  0  0  0  0  0  0  0
  -28.3850  -16.1820   20.0200 H   0  0  0  0  0  0  0  0  0  0  0  0
  -27.3370  -21.9020   18.4540 C   0  0  0  0  0  2  0  0  0  0  0  0
  -27.4360  -23.1790   19.3090 C   0  0  0  0  0  2  0  0  0  0  0  0
  -27.1450  -24.4570   18.5130 C   0  0  0  0  0  0  0  0  0  0  0  0
  -26.3820  -24.4600   17.5400 O   0  0  0  0  0  0  0  0  0  0  0  0
  -27.8330  -25.7430   18.9830 C   0  0  0  0  0  2  0  0  0  0  0  0
  -26.9680  -26.8730   18.8480 O   0  0  0  0  0  0  0  0  0  0  0  0
  -27.6620  -31.2560   24.3790 C   0  0  0  0  0  0  0  0  0  0  0  0
  -26.4250  -27.3170   20.0280 C   0  0  0  0  0  0  0  0  0  0  0  0
  -25.9030  -29.5310   24.5910 C   0  0  0  0  0  3  0  0  0  0  0  0
  -25.3400  -28.2550   22.4570 C   0  0  0  0  0  0  0  0  0  0  0  0
  -26.5950  -30.4140   22.2950 C   0  0  0  0  0  2  0  0  0  0  0  0
  -26.2300  -29.0560   21.7320 C   0  0  0  0  0  0  0  0  0  0  0  0
  -26.7690  -28.5970   20.5120 C   0  0  0  0  0  3  0  0  0  0  0  0
  -25.5220  -26.5190   20.7650 C   0  0  0  0  0  3  0  0  0  0  0  0
  -24.9790  -26.9820   21.9770 C   0  0  0  0  0  3  0  0  0  0  0  0
  -24.8070  -28.8230   23.7500 C   0  0  0  0  0  2  0  0  0  0  0  0
  -26.7780  -30.4210   23.7650 N   0  0  0  0  0  0  0  0  0  0  0  0
  -27.7220  -31.3270   25.6140 O   0  0  0  0  0  0  0  0  0  0  0  0
  -26.6900  -28.4590   25.3770 C   0  0  0  0  0  0  0  0  0  0  0  0
  -26.2710  -28.2090   26.6280 N   0  0  0  0  0  0  0  0  0  0  0  0
  -27.6350  -27.8570   24.8580 O   0  0  0  0  0  0  0  0  0  0  0  0
  -25.4980  -28.7540   26.9850 H   0  0  0  0  0  0  0  0  0  0  0  0
  -26.1970  -27.0120   30.0370 C   0  0  0  0  0  0  0  0  0  0  0  0
  -26.8240  -27.2070   27.5370 C   0  0  0  0  0  3  0  0  0  0  0  0
  -26.1150  -25.8460   27.3530 C   0  0  0  0  0  2  0  0  0  0  0  0
  -24.9470  -25.6320   28.3240 C   0  0  0  0  0  2  0  0  0  0  0  0
  -25.4290  -25.7290   29.7720 C   0  0  0  0  0  2  0  0  0  0  0  0
  -26.8440  -27.7120   28.9850 C   0  0  0  0  0  0  0  0  0  0  0  0
  -27.5150  -28.9170   29.2770 C   0  0  0  0  0  3  0  0  0  0  0  0
  -27.5520  -29.4240   30.5910 C   0  0  0  0  0  3  0  0  0  0  0  0
  -26.9260  -28.7160   31.6310 C   0  0  0  0  0  3  0  0  0  0  0  0
  -26.2500  -27.5140   31.3540 C   0  0  0  0  0  3  0  0  0  0  0  0
  -28.6200  -32.1810   23.5620 C   0  0  0  0  0  3  0  0  0  0  0  0
  -28.6110  -33.5020   24.2050 N   0  0  0  0  0  0  0  0  0  0  0  0
  -27.9580  -34.5700   23.7320 C   0  0  0  0  0  0  0  0  0  0  0  0
  -27.3490  -34.5630   22.6590 O   0  0  0  0  0  0  0  0  0  0  0  0
  -29.0390  -33.5640   25.1160 H   0  0  0  0  0  0  0  0  0  0  0  0
  -26.6290  -36.0250   25.2930 C   0  0  0  0  0  1  0  0  0  0  0  0
  -27.9830  -35.8510   24.5870 C   0  0  0  0  0  3  0  0  0  0  0  0
  -29.6830  -37.1150   23.3470 C   0  0  0  0  0  1  0  0  0  0  0  0
  -28.2980  -37.0690   23.8080 N   0  0  0  0  0  0  0  0  0  0  0  0
  -28.1180  -37.9060   24.3570 H   0  0  0  0  0  0  0  0  0  0  0  0
  -30.0900  -31.6160   23.4620 C   0  0  1  0  0  0  0  0  0  0  0  0
  -30.7040  -31.2350   24.8300 C   0  0  0  0  0  1  0  0  0  0  0  0
  -30.1330  -30.3610   22.5590 C   0  0  0  0  0  1  0  0  0  0  0  0
  -31.0120  -32.6690   22.8030 C   0  0  0  0  0  1  0  0  0  0  0  0
  1  7  1  0
  3  2  1  0
  4  2  2  0
  5  7  2  0
  5  6  1  0
  6  3  2  0
  7  4  1  0
  8  9  2  0
  8  6  1  0
 10  8  1  0
 10 11  1  0
 12 18  1  0
 12 11  1  0
 13 18  1  0
 14 15  1  0
 14 13  1  0
 16 15  1  0
 16 23  1  0
 16 17  1  0
 18 17  1  0
 19 12  2  0
 20 21  2  0
 21 40  1  0
 22 25  1  0
 22 21  1  0
 23 24  1  0
 23 20  1  0
 24 22  2  0
 25 26  1  0
 26 27  2  0
 28 31  1  0
 28 27  1  0
 29 28  2  0
 30 29  1  0
 30 25  2  0
 31 32  1  0
 32 33  1  0
 33 34  2  0
 35 34  1  0
 35 39  1  0
 36 35  2  0
 37 32  2  0
 37 36  1  0
 38 37  1  0
 40 41  1  0
 41 43  1  0
 41 44  1  0
 42 40  2  0
 45 20  1  0
 45 46  1  0
 47 45  1  0
 48  1  1  0
 48 49  1  0
 50 52  1  0
 50 49  1  0
 51 50  2  0
 53 52  1  0
 53 55  1  0
 54 65  2  0
 55 60  2  0
 55 61  1  0
 56 66  1  0
 57 63  1  0
 58 64  1  0
 59 58  1  0
 59 57  2  0
 60 59  1  0
 61 62  2  0
 62 57  1  0
 63 56  1  0
 64 54  1  0
 64 56  1  0
 66 67  1  0
 67 69  1  0
 68 66  2  0
 70 79  1  0
 71 67  1  0
 71 75  1  0
 72 71  1  0
 72 73  1  0
 73 74  1  0
 74 70  1  0
 75 76  1  0
 75 70  2  0
 76 77  2  0
 77 78  1  0
 79 78  2  0
 80 81  1  0
 80 54  1  0
 81 84  1  0
 82 81  1  0
 82 86  1  0
 83 82  2  0
 86 85  1  0
 87 88  1  0
 88 89  1  0
 88 86  1  0
 90 80  1  0
 90 91  1  1
 92 90  1  0
 93 90  1  0
M  ISO  4  11 100  12 100  52 101  53 101
M  END
>  <TORSDO>  (5) 
F 24

>  <SCORE>  (5) 
-7.767

>  <name>  (5) 
4

>  <ligand_id>  (5) 
4

>  <original_smiles>  (5) 
[H]c1c([H])c(C(=O)C([H])([H])C([H])([H])C(=O)N2C([H])([H])C([H])([H])C([H])([H])C([H])(n3nc(-c4c([H])c([H])c(Oc5c([H])c([H])c(F)c([H])c5F)c([H])c4[H])c(C(=O)N([H])[H])c3N([H])[H])C2([H])[H])c([H])c(C([H])([H])C([H])([H])C([H])([H])C(=O)C([H])([H])Oc2c([H])c([H])c3c(c2[H])C([H])([H])N(C(=O)C([H])(N([H])C(=O)C([H])(N([H])C([H])([H])[H])C([H])([H])[H])C(C([H])([H])[H])(C([H])([H])[H])C([H])([H])[H])C([H])(C(=O)N([H])C2([H])c4c([H])c([H])c([H])c([H])c4C([H])([H])C([H])([H])C2([H])[H])C3([H])[H])c1[H]

>  <smiles>  (5) 
[H]c1c([H])c(C(=O)C([H])([H])C([H])([H])C(=O)N2C([H])([H])C([H])([H])C([H])([H])C([H])(n3nc(-c4c([H])c([H])c(Oc5c([H])c([H])c(F)c([H])c5F)c([H])c4[H])c(C(=O)N([H])[H])c3N([H])[H])C2([H])[H])c([H])c(C([H])([H])C([H])([H])C([H])([H])C(=O)C([H])([H])Oc2c([H])c([H])c3c(c2[H])C([H])([H])N(C(=O)C([H])(N([H])C(=O)C([H])(N([H])C([H])([H])[H])C([H])([H])[H])C(C([H])([H])[H])(C([H])([H])[H])C([H])([H])[H])C([H])(C(=O)N([H])C2([H])c4c([H])c([H])c([H])c([H])c4C([H])([H])C([H])([H])C2([H])[H])C3([H])[H])c1[H]

$$$$
5:0:0
     RDKit          3D

 87 94  0  0  1  0  0  0  0  0999 V2000
  -28.5370  -21.8690   20.2800 C   0  0  0  0  0  2  0  0  0  0  0  0
  -29.2240  -19.1780   20.4130 C   0  0  0  0  0  3  0  0  0  0  0  0
  -29.5190  -20.5650   20.3750 C   0  0  0  0  0  0  0  0  0  0  0  0
  -30.1610  -17.8880   20.4590 C   0  0  0  0  0  0  0  0  0  0  0  0
  -31.3800  -18.0400   20.3450 O   0  0  0  0  0  0  0  0  0  0  0  0
  -29.6410  -16.3400   20.6690 C   0  0  0  0  0  2  0  0  0  0  0  0
  -30.5120  -14.9650   20.3650 C   0  0  0  0  0  0  0  0  0  0  0  0
  -30.3890  -12.6460   19.3590 C   0  0  0  0  0  2  0  0  0  0  0  0
  -29.4470  -12.6790   18.1310 C   0  0  0  0  0  2  0  0  0  0  0  0
  -27.9810  -12.4720   18.5580 C   0  0  0  0  0  2  0  0  0  0  0  0
  -27.5910  -13.3570   19.7690 C   0  0  0  0  0  3  0  0  0  0  0  0
  -28.6500  -13.3040   20.8900 C   0  0  0  0  0  2  0  0  0  0  0  0
  -29.9380  -13.6990   20.3080 N   0  0  0  0  0  0  0  0  0  0  0  0
  -31.7020  -15.0440   20.0360 O   0  0  0  0  0  0  0  0  0  0  0  0
  -25.2050  -13.9280   20.5100 C   0  0  0  0  0  0  0  0  0  0  0  0
  -24.1430  -13.1480   20.8780 C   0  0  0  0  0  0  0  0  0  0  0  0
  -24.6130  -11.8000   20.8420 C   0  0  0  0  0  0  0  0  0  0  0  0
  -26.2520  -13.0540   20.2650 N   0  0  0  0  0  0  0  0  0  0  0  0
  -25.9040  -11.7690   20.5310 N   0  0  0  0  0  0  0  0  0  0  0  0
  -23.8910  -10.5330   21.0270 C   0  0  0  0  0  0  0  0  0  0  0  0
  -24.3140   -9.5730   21.9720 C   0  0  0  0  0  3  0  0  0  0  0  0
  -23.5910   -8.3730   22.1450 C   0  0  0  0  0  3  0  0  0  0  0  0
  -22.4310   -8.1240   21.3740 C   0  0  0  0  0  0  0  0  0  0  0  0
  -22.0280   -9.0740   20.4180 C   0  0  0  0  0  3  0  0  0  0  0  0
  -22.7510  -10.2650   20.2430 C   0  0  0  0  0  3  0  0  0  0  0  0
  -21.6810   -6.9760   21.4550 O   0  0  0  0  0  0  0  0  0  0  0  0
  -21.6020   -6.2490   22.6160 C   0  0  0  0  0  0  0  0  0  0  0  0
  -21.1020   -6.8080   23.8120 C   0  0  0  0  0  3  0  0  0  0  0  0
  -20.9720   -6.0050   24.9630 C   0  0  0  0  0  3  0  0  0  0  0  0
  -21.3320   -4.6460   24.9190 C   0  0  0  0  0  0  0  0  0  0  0  0
  -21.8270   -4.0870   23.7270 C   0  0  0  0  0  3  0  0  0  0  0  0
  -21.9570   -4.8860   22.5780 C   0  0  0  0  0  0  0  0  0  0  0  0
  -22.4140   -4.3370   21.4260 F   0  0  0  0  0  0  0  0  0  0  0  0
  -21.2020   -3.8730   26.0230 F   0  0  0  0  0  0  0  0  0  0  0  0
  -22.7440  -13.6180   21.1490 C   0  0  0  0  0  0  0  0  0  0  0  0
  -22.0170  -12.9160   22.0100 N   0  0  0  0  0  0  0  0  0  0  0  0
  -22.3030  -14.6450   20.6320 O   0  0  0  0  0  0  0  0  0  0  0  0
  -22.3860  -12.0870   22.4510 H   0  0  0  0  0  0  0  0  0  0  0  0
  -21.0780  -13.2140   22.2350 H   0  0  0  0  0  0  0  0  0  0  0  0
  -25.3640  -15.3010   20.3390 N   0  0  0  0  0  0  0  0  0  0  0  0
  -24.5940  -15.9510   20.4560 H   0  0  0  0  0  0  0  0  0  0  0  0
  -26.2090  -15.7450   20.0070 H   0  0  0  0  0  0  0  0  0  0  0  0
  -30.7810  -21.0130   20.4070 O   0  0  0  0  0  0  0  0  0  0  0  0
  -30.7460  -21.9610   20.3740 H   0  0  0  0  0  0  0  0  0  0  0  0
  -29.0030  -23.4770   20.3600 C   0  0  0  0  0  3  0  0  0  0  0  0
  -27.9560  -24.7580   20.1170 C   0  0  0  0  0  3  0  0  0  0  0  0
  -28.2410  -26.2700   20.2620 O   0  0  0  0  0  0  0  0  0  0  0  0
  -24.6030  -31.9180   23.2380 C   0  0  0  0  0  0  0  0  0  0  0  0
  -27.1740  -27.2320   20.1980 C   0  0  0  0  0  0  0  0  0  0  0  0
  -23.3960  -30.5250   21.6010 C   0  0  0  0  0  3  0  0  0  0  0  0
  -24.8400  -28.9550   20.1720 C   0  0  0  0  0  0  0  0  0  0  0  0
  -25.9490  -30.7970   21.4280 C   0  0  0  0  0  2  0  0  0  0  0  0
  -26.0200  -29.4080   20.7760 C   0  0  0  0  0  0  0  0  0  0  0  0
  -27.1890  -28.5630   20.7710 C   0  0  0  0  0  3  0  0  0  0  0  0
  -25.9650  -26.8720   19.5590 C   0  0  0  0  0  3  0  0  0  0  0  0
  -24.8240  -27.7000   19.5500 C   0  0  0  0  0  3  0  0  0  0  0  0
  -23.6130  -29.8490   20.2220 C   0  0  0  0  0  2  0  0  0  0  0  0
  -24.6690  -31.1000   22.1440 N   0  0  0  0  0  0  0  0  0  0  0  0
  -23.5180  -32.2030   23.7690 O   0  0  0  0  0  0  0  0  0  0  0  0
  -22.7210  -29.5160   22.5630 C   0  0  0  0  0  0  0  0  0  0  0  0
  -21.3930  -29.3450   22.4370 N   0  0  0  0  0  0  0  0  0  0  0  0
  -23.3930  -28.8900   23.3870 O   0  0  0  0  0  0  0  0  0  0  0  0
  -20.9070  -29.9020   21.7470 H   0  0  0  0  0  0  0  0  0  0  0  0
  -18.0090  -28.1580   22.9490 C   0  0  0  0  0  0  0  0  0  0  0  0
  -20.5700  -28.4100   23.2090 C   0  0  0  0  0  3  0  0  0  0  0  0
  -20.6640  -26.9780   22.6320 C   0  0  0  0  0  2  0  0  0  0  0  0
  -19.5570  -26.6610   21.6210 C   0  0  0  0  0  2  0  0  0  0  0  0
  -18.1780  -26.8100   22.2710 C   0  0  0  0  0  2  0  0  0  0  0  0
  -19.1330  -28.9160   23.3760 C   0  0  0  0  0  0  0  0  0  0  0  0
  -18.9200  -30.1780   23.9730 C   0  0  0  0  0  3  0  0  0  0  0  0
  -17.6160  -30.6820   24.1460 C   0  0  0  0  0  3  0  0  0  0  0  0
  -16.5080  -29.9220   23.7350 C   0  0  0  0  0  3  0  0  0  0  0  0
  -16.7060  -28.6610   23.1420 C   0  0  0  0  0  3  0  0  0  0  0  0
  -25.8830  -32.5510   23.8620 C   0  0  0  0  0  3  0  0  0  0  0  0
  -26.3970  -31.7780   25.1390 C   0  0  1  0  0  0  0  0  0  0  0  0
  -25.3020  -31.5380   26.2050 C   0  0  0  0  0  1  0  0  0  0  0  0
  -26.9830  -30.4000   24.7490 C   0  0  0  0  0  1  0  0  0  0  0  0
  -27.5460  -32.5710   25.8040 C   0  0  0  0  0  1  0  0  0  0  0  0
  -25.5730  -33.9490   24.2000 N   0  0  0  0  0  0  0  0  0  0  0  0
  -25.8850  -35.0060   23.4380 C   0  0  0  0  0  0  0  0  0  0  0  0
  -26.5310  -34.9070   22.3930 O   0  0  0  0  0  0  0  0  0  0  0  0
  -24.9950  -34.0990   25.0140 H   0  0  0  0  0  0  0  0  0  0  0  0
  -24.1390  -36.7930   23.1360 C   0  0  0  0  0  1  0  0  0  0  0  0
  -25.4040  -36.3920   23.9110 C   0  0  0  0  0  3  0  0  0  0  0  0
  -27.5540  -37.2930   24.6860 C   0  0  0  0  0  1  0  0  0  0  0  0
  -26.4290  -37.4510   23.7690 N   0  0  0  0  0  0  0  0  0  0  0  0
  -26.0210  -38.3690   23.9210 H   0  0  0  0  0  0  0  0  0  0  0  0
  1 45  1  0
  1  3  1  0
  2  4  1  0
  3 43  1  0
  3  2  2  0
  4  6  1  0
  5  4  2  0
  7  6  1  0
  8 13  1  0
  9 10  1  0
  9  8  1  0
 11 10  1  0
 11 18  1  0
 11 12  1  0
 13  7  1  0
 13 12  1  0
 14  7  2  0
 15 16  2  0
 16 35  1  0
 17 16  1  0
 17 20  1  0
 18 15  1  0
 18 19  1  0
 19 17  2  0
 20 21  1  0
 21 22  2  0
 23 26  1  0
 23 22  1  0
 24 23  2  0
 25 24  1  0
 25 20  2  0
 26 27  1  0
 27 28  1  0
 28 29  2  0
 30 29  1  0
 30 34  1  0
 31 30  2  0
 32 27  2  0
 32 31  1  0
 33 32  1  0
 35 36  1  0
 36 39  1  0
 36 38  1  0
 37 35  2  0
 40 41  1  0
 40 15  1  0
 42 40  1  0
 44 43  1  0
 46 47  1  0
 46 45  2  0
 48 59  2  0
 49 47  1  0
 49 54  1  0
 50 58  1  0
 50 60  1  0
 51 57  1  0
 51 53  1  0
 52 58  1  0
 53 52  1  0
 54 53  2  0
 55 49  2  0
 56 55  1  0
 56 51  2  0
 57 50  1  0
 58 48  1  0
 60 62  2  0
 61 60  1  0
 63 61  1  0
 64 73  2  0
 64 69  1  0
 65 61  1  0
 65 69  1  0
 66 65  1  0
 67 68  1  0
 67 66  1  0
 68 64  1  0
 69 70  2  0
 70 71  1  0
 72 71  2  0
 73 72  1  0
 74 48  1  0
 74 79  1  0
 74 75  1  0
 75 78  1  1
 75 76  1  0
 77 75  1  0
 79 82  1  0
 80 84  1  0
 80 79  1  0
 81 80  2  0
 84 83  1  0
 86 84  1  0
 86 87  1  0
 86 85  1  0
M  ISO  4   6 100   7 100  46 101  47 101
M  END
>  <TORSDO>  (6) 
F 22

>  <SCORE>  (6) 
-13.201

>  <name>  (6) 
5

>  <ligand_id>  (6) 
5

>  <original_smiles>  (6) 
[H]OC(=C([H])C(=O)C([H])([H])C(=O)N1C([H])([H])C([H])([H])C([H])([H])C([H])(n2nc(-c3c([H])c([H])c(Oc4c([H])c([H])c(F)c([H])c4F)c([H])c3[H])c(C(=O)N([H])[H])c2N([H])[H])C1([H])[H])C([H])([H])C([H])([H])C([H])([H])Oc1c([H])c([H])c2c(c1[H])C([H])([H])N(C(=O)C([H])(N([H])C(=O)C([H])(N([H])C([H])([H])[H])C([H])([H])[H])C(C([H])([H])[H])(C([H])([H])[H])C([H])([H])[H])C([H])(C(=O)N([H])C1([H])c3c([H])c([H])c([H])c([H])c3C([H])([H])C([H])([H])C1([H])[H])C2([H])[H]

>  <smiles>  (6) 
[H]OC(=C([H])C(=O)C([H])([H])C(=O)N1C([H])([H])C([H])([H])C([H])([H])C([H])(n2nc(-c3c([H])c([H])c(Oc4c([H])c([H])c(F)c([H])c4F)c([H])c3[H])c(C(=O)N([H])[H])c2N([H])[H])C1([H])[H])C([H])([H])C([H])([H])C([H])([H])Oc1c([H])c([H])c2c(c1[H])C([H])([H])N(C(=O)C([H])(N([H])C(=O)C([H])(N([H])C([H])([H])[H])C([H])([H])[H])C(C([H])([H])[H])(C([H])([H])[H])C([H])([H])[H])C([H])(C(=O)N([H])C1([H])c3c([H])c([H])c([H])c([H])c3C([H])([H])C([H])([H])C1([H])[H])C2([H])[H]

$$$$
6:0:0
     RDKit          3D

 98107  0  0  1  0  0  0  0  0999 V2000
  -26.0160  -18.6430   19.6130 C   0  0  0  0  0  3  0  0  0  0  0  0
  -25.7890  -19.8410   18.9270 C   0  0  0  0  0  3  0  0  0  0  0  0
  -27.2580  -18.4190   20.2260 C   0  0  0  0  0  3  0  0  0  0  0  0
  -26.7840  -20.8400   18.8730 C   0  0  0  0  0  0  0  0  0  0  0  0
  -28.2910  -19.3800   20.1770 C   0  0  0  0  0  0  0  0  0  0  0  0
  -28.0470  -20.6320   19.5160 C   0  0  0  0  0  0  0  0  0  0  0  0
  -26.4390  -22.0650   18.0980 C   0  0  0  0  0  0  0  0  0  0  0  0
  -25.1990  -22.8230   18.5590 C   0  0  0  0  0  1  0  0  0  0  0  0
  -27.0890  -22.4860   17.1380 O   0  0  0  0  0  0  0  0  0  0  0  0
  -29.5910  -19.0070   20.9100 C   0  0  0  0  0  2  0  0  0  0  0  0
  -31.4500  -18.0430   17.7420 C   0  0  0  0  0  2  0  0  0  0  0  0
  -31.2340  -19.0200   18.9010 C   0  0  0  0  0  2  0  0  0  0  0  0
  -31.2330  -16.6490   18.3160 C   0  0  0  0  0  2  0  0  0  0  0  0
  -30.6670  -18.2240   20.0960 C   0  0  0  0  0  3  0  0  0  0  0  0
  -30.2730  -16.8430   19.5120 C   0  0  0  0  0  3  0  0  0  0  0  0
  -31.0310  -14.6520   20.5940 C   0  0  0  0  0  0  0  0  0  0  0  0
  -30.7800  -12.4390   19.5920 C   0  0  0  0  0  2  0  0  0  0  0  0
  -29.9150  -12.6530   18.3320 C   0  0  0  0  0  2  0  0  0  0  0  0
  -28.4150  -12.5540   18.6780 C   0  0  0  0  0  2  0  0  0  0  0  0
  -28.0190  -13.4080   19.9140 C   0  0  0  0  0  3  0  0  0  0  0  0
  -29.0220  -13.2140   21.0790 C   0  0  0  0  0  2  0  0  0  0  0  0
  -30.3780  -13.4620   20.5670 N   0  0  0  0  0  0  0  0  0  0  0  0
  -32.2410  -14.7640   20.3970 O   0  0  0  0  0  0  0  0  0  0  0  0
  -30.1960  -15.7030   20.4640 N   0  0  0  0  0  0  0  0  0  0  0  0
  -29.2530  -15.4700   20.7340 H   0  0  0  0  0  0  0  0  0  0  0  0
  -25.5970  -14.0400   20.4880 C   0  0  0  0  0  0  0  0  0  0  0  0
  -24.5070  -13.2830   20.8240 C   0  0  0  0  0  0  0  0  0  0  0  0
  -24.9600  -11.9280   20.8390 C   0  0  0  0  0  0  0  0  0  0  0  0
  -26.6460  -13.1480   20.3310 N   0  0  0  0  0  0  0  0  0  0  0  0
  -26.2650  -11.8740   20.6020 N   0  0  0  0  0  0  0  0  0  0  0  0
  -24.2150  -10.6750   21.0110 C   0  0  0  0  0  0  0  0  0  0  0  0
  -24.5770   -9.7330   21.9970 C   0  0  0  0  0  3  0  0  0  0  0  0
  -23.8350   -8.5420   22.1550 C   0  0  0  0  0  3  0  0  0  0  0  0
  -22.7180   -8.2860   21.3240 C   0  0  0  0  0  0  0  0  0  0  0  0
  -22.3740   -9.2190   20.3300 C   0  0  0  0  0  3  0  0  0  0  0  0
  -23.1160  -10.4020   20.1710 C   0  0  0  0  0  3  0  0  0  0  0  0
  -21.9560   -7.1430   21.3870 O   0  0  0  0  0  0  0  0  0  0  0  0
  -21.7990   -6.4480   22.5590 C   0  0  0  0  0  0  0  0  0  0  0  0
  -21.2320   -7.0420   23.7080 C   0  0  0  0  0  3  0  0  0  0  0  0
  -21.0250   -6.2720   24.8700 C   0  0  0  0  0  3  0  0  0  0  0  0
  -21.3750   -4.9080   24.8830 C   0  0  0  0  0  0  0  0  0  0  0  0
  -21.9350   -4.3130   23.7390 C   0  0  0  0  0  3  0  0  0  0  0  0
  -22.1440   -5.0820   22.5800 C   0  0  0  0  0  0  0  0  0  0  0  0
  -22.6630   -4.4990   21.4710 F   0  0  0  0  0  0  0  0  0  0  0  0
  -21.1690   -4.1660   25.9960 F   0  0  0  0  0  0  0  0  0  0  0  0
  -23.1020  -13.7770   21.0160 C   0  0  0  0  0  0  0  0  0  0  0  0
  -22.3270  -13.1030   21.8570 N   0  0  0  0  0  0  0  0  0  0  0  0
  -22.6990  -14.7960   20.4560 O   0  0  0  0  0  0  0  0  0  0  0  0
  -22.6680  -12.2790   22.3300 H   0  0  0  0  0  0  0  0  0  0  0  0
  -21.3820  -13.4120   22.0310 H   0  0  0  0  0  0  0  0  0  0  0  0
  -25.7740  -15.4020   20.2770 N   0  0  0  0  0  0  0  0  0  0  0  0
  -24.9770  -16.0260   20.2460 H   0  0  0  0  0  0  0  0  0  0  0  0
  -26.6060  -15.8040   19.8690 H   0  0  0  0  0  0  0  0  0  0  0  0
  -29.0760  -21.7770   19.5150 C   0  0  0  0  0  2  0  0  0  0  0  0
  -28.7030  -22.9350   20.4780 C   0  0  0  0  0  2  0  0  0  0  0  0
  -28.8600  -24.3550   19.8830 C   0  0  0  0  0  2  0  0  0  0  0  0
  -28.4380  -25.4620   20.8670 C   0  0  0  0  0  2  0  0  0  0  0  0
  -28.5250  -26.7660   20.2790 O   0  0  0  0  0  0  0  0  0  0  0  0
  -24.6850  -31.8910   23.3700 C   0  0  0  0  0  0  0  0  0  0  0  0
  -27.3530  -27.4880   20.2700 C   0  0  0  0  0  0  0  0  0  0  0  0
  -23.4870  -30.5050   21.7070 C   0  0  0  0  0  3  0  0  0  0  0  0
  -24.9520  -28.9780   20.2780 C   0  0  0  0  0  0  0  0  0  0  0  0
  -26.0130  -30.8690   21.5260 C   0  0  0  0  0  2  0  0  0  0  0  0
  -26.1040  -29.5050   20.8720 C   0  0  0  0  0  0  0  0  0  0  0  0
  -27.3100  -28.7700   20.8600 C   0  0  0  0  0  3  0  0  0  0  0  0
  -26.1860  -26.9690   19.6690 C   0  0  0  0  0  3  0  0  0  0  0  0
  -24.9870  -27.7080   19.6710 C   0  0  0  0  0  3  0  0  0  0  0  0
  -23.7050  -29.8320   20.3250 C   0  0  0  0  0  2  0  0  0  0  0  0
  -24.7450  -31.1030   22.2600 N   0  0  0  0  0  0  0  0  0  0  0  0
  -23.6010  -32.1600   23.9070 O   0  0  0  0  0  0  0  0  0  0  0  0
  -22.8280  -29.4770   22.6540 C   0  0  0  0  0  0  0  0  0  0  0  0
  -21.5080  -29.2850   22.5020 N   0  0  0  0  0  0  0  0  0  0  0  0
  -23.5030  -28.8550   23.4790 O   0  0  0  0  0  0  0  0  0  0  0  0
  -21.0270  -29.8390   21.8060 H   0  0  0  0  0  0  0  0  0  0  0  0
  -18.1360  -28.0660   22.9380 C   0  0  0  0  0  0  0  0  0  0  0  0
  -20.6850  -28.3380   23.2550 C   0  0  0  0  0  3  0  0  0  0  0  0
  -20.8070  -26.9110   22.6730 C   0  0  0  0  0  2  0  0  0  0  0  0
  -19.7250  -26.5850   21.6390 C   0  0  0  0  0  2  0  0  0  0  0  0
  -18.3310  -26.7200   22.2590 C   0  0  0  0  0  2  0  0  0  0  0  0
  -19.2420  -28.8330   23.3890 C   0  0  0  0  0  0  0  0  0  0  0  0
  -19.0060  -30.0940   23.9800 C   0  0  0  0  0  3  0  0  0  0  0  0
  -17.6960  -30.5880   24.1220 C   0  0  0  0  0  3  0  0  0  0  0  0
  -16.6040  -29.8180   23.6870 C   0  0  0  0  0  3  0  0  0  0  0  0
  -16.8240  -28.5590   23.1010 C   0  0  0  0  0  3  0  0  0  0  0  0
  -25.9690  -32.5120   24.0060 C   0  0  0  0  0  3  0  0  0  0  0  0
  -25.6830  -33.9230   24.2900 N   0  0  0  0  0  0  0  0  0  0  0  0
  -26.0630  -34.9470   23.5130 C   0  0  0  0  0  0  0  0  0  0  0  0
  -26.7610  -34.8010   22.5060 O   0  0  0  0  0  0  0  0  0  0  0  0
  -25.0660  -34.1130   25.0670 H   0  0  0  0  0  0  0  0  0  0  0  0
  -24.3970  -36.7720   23.0430 C   0  0  0  0  0  1  0  0  0  0  0  0
  -25.5910  -36.3580   23.9170 C   0  0  0  0  0  3  0  0  0  0  0  0
  -27.7040  -37.2140   24.8260 C   0  0  0  0  0  1  0  0  0  0  0  0
  -26.6540  -37.3820   23.8250 N   0  0  0  0  0  0  0  0  0  0  0  0
  -26.2650  -38.3150   23.9240 H   0  0  0  0  0  0  0  0  0  0  0  0
  -26.4400  -31.7650   25.3150 C   0  0  1  0  0  0  0  0  0  0  0  0
  -25.3160  -31.5700   26.3590 C   0  0  0  0  0  1  0  0  0  0  0  0
  -27.0110  -30.3690   24.9690 C   0  0  0  0  0  1  0  0  0  0  0  0
  -27.5890  -32.5550   25.9840 C   0  0  0  0  0  1  0  0  0  0  0  0
  1  3  1  0
  2  1  2  0
  4  2  1  0
  4  6  2  0
  5  3  2  0
  5 10  1  0
  6  5  1  0
  7  8  1  0
  7  4  1  0
  9  7  2  0
 11 13  1  0
 11 12  1  0
 12 14  1  0
 13 15  1  0
 14 10  1  0
 15 14  1  0
 15 24  1  0
 17 22  1  0
 18 19  1  0
 18 17  1  0
 20 19  1  0
 20 29  1  0
 20 21  1  0
 22 16  1  0
 22 21  1  0
 23 16  2  0
 24 16  1  0
 24 25  1  0
 26 27  2  0
 27 28  1  0
 27 46  1  0
 28 31  1  0
 29 26  1  0
 29 30  1  0
 30 28  2  0
 31 32  1  0
 32 33  2  0
 34 37  1  0
 34 33  1  0
 35 34  2  0
 36 35  1  0
 36 31  2  0
 37 38  1  0
 38 43  2  0
 38 39  1  0
 39 40  2  0
 40 41  1  0
 41 45  1  0
 42 41  2  0
 43 42  1  0
 44 43  1  0
 46 47  1  0
 47 50  1  0
 47 49  1  0
 48 46  2  0
 51 26  1  0
 52 51  1  0
 53 51  1  0
 54  6  1  0
 54 55  1  0
 56 55  1  0
 56 57  1  0
 58 57  1  0
 59 70  2  0
 60 58  1  0
 60 65  1  0
 61 69  1  0
 61 71  1  0
 62 68  1  0
 62 64  1  0
 63 69  1  0
 64 63  1  0
 65 64  2  0
 66 67  1  0
 66 60  2  0
 67 62  2  0
 68 61  1  0
 69 59  1  0
 71 73  2  0
 72 71  1  0
 74 72  1  0
 75 84  2  0
 75 80  1  0
 76 72  1  0
 76 80  1  0
 77 76  1  0
 78 79  1  0
 78 77  1  0
 79 75  1  0
 80 81  2  0
 81 82  1  0
 83 82  2  0
 84 83  1  0
 85 59  1  0
 85 86  1  0
 85 95  1  0
 86 89  1  0
 87 91  1  0
 87 86  1  0
 88 87  2  0
 91 90  1  0
 93 91  1  0
 93 94  1  0
 93 92  1  0
 95 98  1  1
 95 96  1  0
 97 95  1  0
M  ISO  4  16 100  24 100  57 101  58 101
M  END
>  <TORSDO>  (7) 
F 23

>  <SCORE>  (7) 
-11.824

>  <name>  (7) 
6

>  <ligand_id>  (7) 
6

>  <original_smiles>  (7) 
[H]c1c([H])c([H])c2c(c1[H])C([H])([H])C([H])([H])C([H])([H])C2([H])N([H])C(=O)C1([H])N(C(=O)C([H])(N([H])C(=O)C([H])(N([H])C([H])([H])[H])C([H])([H])[H])C(C([H])([H])[H])(C([H])([H])[H])C([H])([H])[H])C([H])([H])c2c([H])c(OC([H])([H])C([H])([H])C([H])([H])C([H])([H])c3c(C(=O)C([H])([H])[H])c([H])c([H])c([H])c3C([H])([H])C3([H])C([H])([H])C([H])([H])C([H])([H])C3([H])N([H])C(=O)N3C([H])([H])C([H])([H])C([H])([H])C([H])(n4nc(-c5c([H])c([H])c(Oc6c([H])c([H])c(F)c([H])c6F)c([H])c5[H])c(C(=O)N([H])[H])c4N([H])[H])C3([H])[H])c([H])c([H])c2C1([H])[H]

>  <smiles>  (7) 
[H]c1c([H])c([H])c2c(c1[H])C([H])([H])C([H])([H])C([H])([H])C2([H])N([H])C(=O)C1([H])N(C(=O)C([H])(N([H])C(=O)C([H])(N([H])C([H])([H])[H])C([H])([H])[H])C(C([H])([H])[H])(C([H])([H])[H])C([H])([H])[H])C([H])([H])c2c([H])c(OC([H])([H])C([H])([H])C([H])([H])C([H])([H])c3c(C(=O)C([H])([H])[H])c([H])c([H])c([H])c3C([H])([H])C3([H])C([H])([H])C([H])([H])C([H])([H])C3([H])N([H])C(=O)N3C([H])([H])C([H])([H])C([H])([H])C([H])(n4nc(-c5c([H])c([H])c(Oc6c([H])c([H])c(F)c([H])c6F)c([H])c5[H])c(C(=O)N([H])[H])c4N([H])[H])C3([H])[H])c([H])c([H])c2C1([H])[H]

$$$$
7:0:0
     RDKit          3D

 89 94  0  0  1  0  0  0  0  0999 V2000
  -27.3490  -20.2140   20.3130 C   0  0  0  0  0  3  0  0  0  0  0  0
  -27.5030  -21.7240   19.6750 C   0  0  0  0  0  2  0  0  0  0  0  0
  -28.1190  -23.0630   20.4180 C   0  0  0  0  0  3  0  0  0  0  0  0
  -28.0380  -24.4910   19.6240 C   0  0  0  0  0  3  0  0  0  0  0  0
  -28.5580  -25.8980   20.0050 O   0  0  0  0  0  0  0  0  0  0  0  0
  -25.2940  -31.3880   23.6200 C   0  0  0  0  0  0  0  0  0  0  0  0
  -27.6680  -27.0090   20.0160 C   0  0  0  0  0  0  0  0  0  0  0  0
  -24.0920  -30.3020   21.7710 C   0  0  0  0  0  3  0  0  0  0  0  0
  -25.5040  -28.8970   20.1780 C   0  0  0  0  0  0  0  0  0  0  0  0
  -26.6660  -30.4230   21.7470 C   0  0  0  0  0  2  0  0  0  0  0  0
  -26.6760  -29.1420   20.9060 C   0  0  0  0  0  0  0  0  0  0  0  0
  -27.7610  -28.1960   20.8420 C   0  0  0  0  0  3  0  0  0  0  0  0
  -26.5270  -26.9460   19.1900 C   0  0  0  0  0  3  0  0  0  0  0  0
  -25.4410  -27.8070   19.3150 C   0  0  0  0  0  3  0  0  0  0  0  0
  -24.3330  -29.8420   20.3160 C   0  0  0  0  0  2  0  0  0  0  0  0
  -25.3700  -30.7160   22.4340 N   0  0  0  0  0  0  0  0  0  0  0  0
  -24.2020  -31.6630   24.1380 O   0  0  0  0  0  0  0  0  0  0  0  0
  -23.3330  -29.1970   22.5470 C   0  0  0  0  0  0  0  0  0  0  0  0
  -22.0060  -29.1130   22.3460 N   0  0  0  0  0  0  0  0  0  0  0  0
  -23.9400  -28.4270   23.2960 O   0  0  0  0  0  0  0  0  0  0  0  0
  -21.5790  -29.7850   21.7260 H   0  0  0  0  0  0  0  0  0  0  0  0
  -18.5550  -28.0360   22.5270 C   0  0  0  0  0  0  0  0  0  0  0  0
  -21.1040  -28.1320   22.9540 C   0  0  0  0  0  3  0  0  0  0  0  0
  -21.1730  -26.7770   22.2120 C   0  0  0  0  0  2  0  0  0  0  0  0
  -20.1170  -26.6340   21.1120 C   0  0  0  0  0  2  0  0  0  0  0  0
  -18.7090  -26.7700   21.7010 C   0  0  0  0  0  2  0  0  0  0  0  0
  -19.6800  -28.6840   23.1020 C   0  0  0  0  0  0  0  0  0  0  0  0
  -19.4850  -29.8750   23.8330 C   0  0  0  0  0  3  0  0  0  0  0  0
  -18.1970  -30.4180   23.9950 C   0  0  0  0  0  3  0  0  0  0  0  0
  -17.0840  -29.7660   23.4360 C   0  0  0  0  0  3  0  0  0  0  0  0
  -17.2630  -28.5760   22.7080 C   0  0  0  0  0  3  0  0  0  0  0  0
  -26.5770  -31.8610   24.3650 C   0  0  0  0  0  3  0  0  0  0  0  0
  -26.2790  -33.1660   24.9730 N   0  0  0  0  0  0  0  0  0  0  0  0
  -26.6850  -34.3460   24.4850 C   0  0  0  0  0  0  0  0  0  0  0  0
  -27.4180  -34.4440   23.4980 O   0  0  0  0  0  0  0  0  0  0  0  0
  -25.6380  -33.1650   25.7520 H   0  0  0  0  0  0  0  0  0  0  0  0
  -25.0370  -36.2480   24.4220 C   0  0  0  0  0  1  0  0  0  0  0  0
  -26.2010  -35.6190   25.2060 C   0  0  0  0  0  3  0  0  0  0  0  0
  -28.2910  -36.2010   26.3560 C   0  0  0  0  0  1  0  0  0  0  0  0
  -27.2680  -36.6240   25.4040 N   0  0  0  0  0  0  0  0  0  0  0  0
  -26.8770  -37.5050   25.7290 H   0  0  0  0  0  0  0  0  0  0  0  0
  -27.0640  -30.8370   25.4620 C   0  0  1  0  0  0  0  0  0  0  0  0
  -25.9570  -30.4130   26.4560 C   0  0  0  0  0  1  0  0  0  0  0  0
  -27.6240  -29.5510   24.8130 C   0  0  0  0  0  1  0  0  0  0  0  0
  -28.2240  -31.4580   26.2760 C   0  0  0  0  0  1  0  0  0  0  0  0
  -26.9580  -18.9550   19.3360 C   0  0  0  0  0  3  0  0  0  0  0  0
  -27.1730  -16.3240   19.4560 C   0  0  0  0  0  0  0  0  0  0  0  0
  -26.5800  -17.5340   19.8130 N   0  0  0  0  0  0  0  0  0  0  0  0
  -28.3070  -16.3680   18.9810 O   0  0  0  0  0  0  0  0  0  0  0  0
  -25.6570  -17.4440   20.2290 H   0  0  0  0  0  0  0  0  0  0  0  0
  -26.7230  -14.1400   18.1300 C   0  0  0  0  0  1  0  0  0  0  0  0
  -26.4450  -14.8560   19.4680 C   0  0  0  0  0  3  0  0  0  0  0  0
  -26.7480  -13.7390   20.6540 C   0  0  0  0  0  1  0  0  0  0  0  0
  -28.7140  -14.0120   21.1950 C   0  0  0  0  0  2  0  0  0  0  0  0
  -30.5450  -12.4770   20.5460 C   0  0  0  0  0  2  0  0  0  0  0  0
  -29.7310  -12.1270   19.3010 C   0  0  0  0  0  2  0  0  0  0  0  0
  -28.5470  -11.2440   19.8430 C   0  0  0  0  0  2  0  0  0  0  0  0
  -28.0580  -11.5320   21.4120 C   0  0  0  0  0  3  0  0  0  0  0  0
  -29.0510  -12.0280   22.3460 C   0  0  0  0  0  2  0  0  0  0  0  0
  -29.5870  -13.0110   21.5410 N   0  0  0  0  0  0  0  0  0  0  0  0
  -29.5890  -14.9310   21.2680 O   0  0  0  0  0  1  0  0  0  0  0  0
  -25.2630  -13.5700   22.1490 C   0  0  0  0  0  2  0  0  0  0  0  0
  -24.0990  -12.9000   21.1550 C   0  0  0  0  0  3  0  0  0  0  0  0
  -24.5230  -11.3660   20.5700 C   0  0  0  0  0  3  0  0  0  0  0  0
  -26.8080  -12.0490   21.9880 N   0  0  0  0  0  2  0  0  0  0  0  0
  -26.0030  -11.0400   20.8560 N   0  0  0  0  0  2  0  0  0  0  0  0
  -23.7980  -10.0170   21.0780 C   0  0  0  0  0  0  0  0  0  0  0  0
  -24.2520   -9.1060   22.1300 C   0  0  0  0  0  3  0  0  0  0  0  0
  -23.6120   -7.8550   22.4600 C   0  0  0  0  0  3  0  0  0  0  0  0
  -22.4490   -7.4440   21.7620 C   0  0  0  0  0  0  0  0  0  0  0  0
  -21.9530   -8.3490   20.8020 C   0  0  0  0  0  3  0  0  0  0  0  0
  -22.5910   -9.5790   20.4890 C   0  0  0  0  0  3  0  0  0  0  0  0
  -21.8020   -6.2130   21.8510 O   0  0  0  0  0  0  0  0  0  0  0  0
  -21.7540   -5.4050   22.9740 C   0  0  0  0  0  0  0  0  0  0  0  0
  -21.2580   -5.8740   24.2100 C   0  0  0  0  0  3  0  0  0  0  0  0
  -21.1470   -4.9990   25.3130 C   0  0  0  0  0  3  0  0  0  0  0  0
  -21.5210   -3.6470   25.1880 C   0  0  0  0  0  0  0  0  0  0  0  0
  -21.9930   -3.1660   23.9560 C   0  0  0  0  0  3  0  0  0  0  0  0
  -22.0990   -4.0360   22.8520 C   0  0  0  0  0  0  0  0  0  0  0  0
  -22.5230   -3.5410   21.6660 F   0  0  0  0  0  0  0  0  0  0  0  0
  -21.4230   -2.8110   26.2530 F   0  0  0  0  0  0  0  0  0  0  0  0
  -22.6210  -13.0670   21.4730 C   0  0  0  0  0  0  0  0  0  0  0  0
  -22.0120  -12.2270   22.3200 N   0  0  0  0  0  0  0  0  0  0  0  0
  -21.9840  -13.9750   20.9520 O   0  0  0  0  0  0  0  0  0  0  0  0
  -22.5110  -11.4610   22.7470 H   0  0  0  0  0  0  0  0  0  0  0  0
  -21.0340  -12.3500   22.5380 H   0  0  0  0  0  0  0  0  0  0  0  0
  -25.2950  -14.9380   22.3270 N   0  0  0  0  0  0  0  0  0  0  0  0
  -24.4160  -15.3790   22.5740 H   0  0  0  0  0  0  0  0  0  0  0  0
  -26.0490  -15.2810   22.9120 H   0  0  0  0  0  0  0  0  0  0  0  0
  2  1  1  0
  2  3  1  0
  4  5  1  0
  4  3  2  0
  5  7  1  0
  6 17  2  0
  7 12  1  0
  8 16  1  0
  8 18  1  0
  9 15  1  0
  9 11  1  0
 10 16  1  0
 11 10  1  0
 12 11  2  0
 13 14  1  0
 13  7  2  0
 14  9  2  0
 15  8  1  0
 16  6  1  0
 18 20  2  0
 19 18  1  0
 21 19  1  0
 22 31  2  0
 22 27  1  0
 23 19  1  0
 23 27  1  0
 24 23  1  0
 25 26  1  0
 25 24  1  0
 26 22  1  0
 27 28  2  0
 28 29  1  0
 30 29  2  0
 31 30  1  0
 32  6  1  0
 32 33  1  0
 32 42  1  0
 33 36  1  0
 34 33  1  0
 34 38  1  0
 35 34  2  0
 38 37  1  0
 38 40  1  0
 40 41  1  0
 40 39  1  0
 42 45  1  1
 42 43  1  0
 44 42  1  0
 46 48  1  0
 46  1  2  0
 47 52  1  0
 47 48  1  0
 48 50  1  0
 49 47  2  0
 51 52  1  0
 52 53  1  0
 54 61  1  0
 54 60  1  0
 55 60  1  0
 56 57  1  0
 56 55  1  0
 57 58  1  0
 58 65  1  0
 58 59  1  0
 60 59  1  0
 62 87  1  0
 63 82  1  0
 63 62  1  0
 64 66  1  0
 64 67  1  0
 64 63  1  0
 66 65  1  0
 67 68  1  0
 68 69  2  0
 70 73  1  0
 70 69  1  0
 71 70  2  0
 72 71  1  0
 72 67  2  0
 73 74  1  0
 74 75  1  0
 75 76  2  0
 77 76  1  0
 77 81  1  0
 78 77  2  0
 79 74  2  0
 79 78  1  0
 80 79  1  0
 82 83  1  0
 83 86  1  0
 83 85  1  0
 84 82  2  0
 87 88  1  0
 87 89  1  0
M  ISO  4   4 101   5 101  53 100  54 100
M  END
>  <TORSDO>  (8) 
F 23

>  <SCORE>  (8) 
-7.289

>  <name>  (8) 
7

>  <ligand_id>  (8) 
7

>  <original_smiles>  (8) 
[H]c1c([H])c([H])c2c(c1[H])C([H])([H])C([H])([H])C([H])([H])C2([H])N([H])C(=O)C1([H])N(C(=O)C([H])(N([H])C(=O)C([H])(N([H])C([H])([H])[H])C([H])([H])[H])C(C([H])([H])[H])(C([H])([H])[H])C([H])([H])[H])C([H])([H])c2c([H])c(OC([H])([H])C([H])([H])C([H])([H])C([H])([H])C([H])([H])N([H])C(=O)C([H])(C([H])([H])[H])C([H])([H])C(=O)N3C([H])([H])C([H])([H])C([H])([H])C([H])(n4nc(-c5c([H])c([H])c(Oc6c([H])c([H])c(F)c([H])c6F)c([H])c5[H])c(C(=O)N([H])[H])c4N([H])[H])C3([H])[H])c([H])c([H])c2C1([H])[H]

>  <smiles>  (8) 
[H]c1c([H])c([H])c2c(c1[H])C([H])([H])C([H])([H])C([H])([H])C2([H])N([H])C(=O)C1([H])N(C(=O)C([H])(N([H])C(=O)C([H])(N([H])C([H])([H])[H])C([H])([H])[H])C(C([H])([H])[H])(C([H])([H])[H])C([H])([H])[H])C([H])([H])c2c([H])c(OC([H])([H])C([H])([H])C([H])([H])C([H])([H])C([H])([H])N([H])C(=O)C([H])(C([H])([H])[H])C([H])([H])C(=O)N3C([H])([H])C([H])([H])C([H])([H])C([H])(n4nc(-c5c([H])c([H])c(Oc6c([H])c([H])c(F)c([H])c6F)c([H])c5[H])c(C(=O)N([H])[H])c4N([H])[H])C3([H])[H])c([H])c([H])c2C1([H])[H]

$$$$
8:0:0
     RDKit          3D

 85 92  0  0  1  0  0  0  0  0999 V2000
  -28.9730  -23.5700   20.3490 C   0  0  0  0  0  0  0  0  0  0  0  0
  -30.1370  -23.8610   20.6430 O   0  0  0  0  0  0  0  0  0  0  0  0
  -28.5560  -21.9890   20.3000 C   0  0  0  0  0  3  0  0  0  0  0  0
  -29.6160  -20.7090   20.3500 C   0  0  0  0  0  3  0  0  0  0  0  0
  -29.1430  -19.1220   20.4960 C   0  0  0  0  0  2  0  0  0  0  0  0
  -30.1520  -17.8020   20.3920 C   0  0  0  0  0  3  0  0  0  0  0  0
  -29.6760  -16.2450   20.7280 C   0  0  0  0  0  3  0  0  0  0  0  0
  -30.5280  -14.8840   20.3870 C   0  0  0  0  0  0  0  0  0  0  0  0
  -30.4050  -12.5680   19.3860 C   0  0  0  0  0  2  0  0  0  0  0  0
  -29.4680  -12.6010   18.1550 C   0  0  0  0  0  2  0  0  0  0  0  0
  -27.9990  -12.4000   18.5780 C   0  0  0  0  0  2  0  0  0  0  0  0
  -27.6070  -13.2950   19.7820 C   0  0  0  0  0  3  0  0  0  0  0  0
  -28.6610  -13.2390   20.9080 C   0  0  0  0  0  2  0  0  0  0  0  0
  -29.9550  -13.6220   20.3310 N   0  0  0  0  0  0  0  0  0  0  0  0
  -31.7090  -14.9930   20.0390 O   0  0  0  0  0  0  0  0  0  0  0  0
  -25.2170  -13.8780   20.5040 C   0  0  0  0  0  0  0  0  0  0  0  0
  -24.1520  -13.1020   20.8720 C   0  0  0  0  0  0  0  0  0  0  0  0
  -24.6220  -11.7530   20.8500 C   0  0  0  0  0  0  0  0  0  0  0  0
  -26.2640  -13.0010   20.2720 N   0  0  0  0  0  0  0  0  0  0  0  0
  -25.9130  -11.7180   20.5450 N   0  0  0  0  0  0  0  0  0  0  0  0
  -23.8980  -10.4880   21.0430 C   0  0  0  0  0  0  0  0  0  0  0  0
  -24.3360   -9.5210   21.9750 C   0  0  0  0  0  3  0  0  0  0  0  0
  -23.6120   -8.3230   22.1550 C   0  0  0  0  0  3  0  0  0  0  0  0
  -22.4380   -8.0820   21.4030 C   0  0  0  0  0  0  0  0  0  0  0  0
  -22.0190   -9.0390   20.4620 C   0  0  0  0  0  3  0  0  0  0  0  0
  -22.7430  -10.2280   20.2790 C   0  0  0  0  0  3  0  0  0  0  0  0
  -21.6850   -6.9360   21.4930 O   0  0  0  0  0  0  0  0  0  0  0  0
  -21.6500   -6.1860   22.6420 C   0  0  0  0  0  0  0  0  0  0  0  0
  -21.2480   -6.7360   23.8780 C   0  0  0  0  0  3  0  0  0  0  0  0
  -21.1610   -5.9120   25.0190 C   0  0  0  0  0  3  0  0  0  0  0  0
  -21.4660   -4.5420   24.9240 C   0  0  0  0  0  0  0  0  0  0  0  0
  -21.8600   -3.9910   23.6910 C   0  0  0  0  0  3  0  0  0  0  0  0
  -21.9500   -4.8120   22.5530 C   0  0  0  0  0  0  0  0  0  0  0  0
  -22.3110   -4.2720   21.3630 F   0  0  0  0  0  0  0  0  0  0  0  0
  -21.3740   -3.7480   26.0170 F   0  0  0  0  0  0  0  0  0  0  0  0
  -22.7530  -13.5750   21.1360 C   0  0  0  0  0  0  0  0  0  0  0  0
  -22.0260  -12.8840   22.0070 N   0  0  0  0  0  0  0  0  0  0  0  0
  -22.3110  -14.5930   20.6050 O   0  0  0  0  0  0  0  0  0  0  0  0
  -22.3980  -12.0600   22.4580 H   0  0  0  0  0  0  0  0  0  0  0  0
  -21.0870  -13.1820   22.2270 H   0  0  0  0  0  0  0  0  0  0  0  0
  -25.3780  -15.2490   20.3240 N   0  0  0  0  0  0  0  0  0  0  0  0
  -24.6110  -15.9030   20.4360 H   0  0  0  0  0  0  0  0  0  0  0  0
  -26.2320  -15.6910   20.0090 H   0  0  0  0  0  0  0  0  0  0  0  0
  -27.9120  -24.7690   20.0350 C   0  0  0  0  0  2  0  0  0  0  0  0
  -28.2490  -26.2550   20.2280 O   0  0  0  0  0  0  0  0  0  0  0  0
  -24.6330  -31.8810   23.2290 C   0  0  0  0  0  0  0  0  0  0  0  0
  -27.1870  -27.2150   20.1660 C   0  0  0  0  0  0  0  0  0  0  0  0
  -23.4150  -30.4880   21.5990 C   0  0  0  0  0  3  0  0  0  0  0  0
  -24.8510  -28.9250   20.1580 C   0  0  0  0  0  0  0  0  0  0  0  0
  -25.9650  -30.7670   21.4080 C   0  0  0  0  0  2  0  0  0  0  0  0
  -26.0330  -29.3800   20.7560 C   0  0  0  0  0  0  0  0  0  0  0  0
  -27.2030  -28.5390   20.7470 C   0  0  0  0  0  3  0  0  0  0  0  0
  -25.9790  -26.8530   19.5270 C   0  0  0  0  0  3  0  0  0  0  0  0
  -24.8350  -27.6740   19.5290 C   0  0  0  0  0  3  0  0  0  0  0  0
  -23.6210  -29.8150   20.2180 C   0  0  0  0  0  2  0  0  0  0  0  0
  -24.6910  -31.0650   22.1340 N   0  0  0  0  0  0  0  0  0  0  0  0
  -23.5530  -32.1660   23.7670 O   0  0  0  0  0  0  0  0  0  0  0  0
  -22.7480  -29.4770   22.5640 C   0  0  0  0  0  0  0  0  0  0  0  0
  -21.4200  -29.3060   22.4480 N   0  0  0  0  0  0  0  0  0  0  0  0
  -23.4280  -28.8500   23.3810 O   0  0  0  0  0  0  0  0  0  0  0  0
  -20.9300  -29.8660   21.7630 H   0  0  0  0  0  0  0  0  0  0  0  0
  -18.0430  -28.1030   22.9610 C   0  0  0  0  0  0  0  0  0  0  0  0
  -20.6020  -28.3710   23.2230 C   0  0  0  0  0  3  0  0  0  0  0  0
  -20.7060  -26.9370   22.6560 C   0  0  0  0  0  2  0  0  0  0  0  0
  -19.6020  -26.6060   21.6450 C   0  0  0  0  0  2  0  0  0  0  0  0
  -18.2210  -26.7520   22.2900 C   0  0  0  0  0  2  0  0  0  0  0  0
  -19.1600  -28.8710   23.3840 C   0  0  0  0  0  0  0  0  0  0  0  0
  -18.9400  -30.1350   23.9730 C   0  0  0  0  0  3  0  0  0  0  0  0
  -17.6340  -30.6330   24.1400 C   0  0  0  0  0  3  0  0  0  0  0  0
  -16.5310  -29.8620   23.7320 C   0  0  0  0  0  3  0  0  0  0  0  0
  -16.7370  -28.6000   23.1490 C   0  0  0  0  0  3  0  0  0  0  0  0
  -25.9190  -32.5130   23.8440 C   0  0  0  0  0  3  0  0  0  0  0  0
  -26.4430  -31.7370   25.1140 C   0  0  1  0  0  0  0  0  0  0  0  0
  -25.3590  -31.4990   26.1920 C   0  0  0  0  0  1  0  0  0  0  0  0
  -27.0200  -30.3600   24.7150 C   0  0  0  0  0  1  0  0  0  0  0  0
  -27.6030  -32.5260   25.7670 C   0  0  0  0  0  1  0  0  0  0  0  0
  -25.6080  -33.9100   24.1890 N   0  0  0  0  0  0  0  0  0  0  0  0
  -25.9150  -34.9690   23.4290 C   0  0  0  0  0  0  0  0  0  0  0  0
  -26.5560  -34.8740   22.3780 O   0  0  0  0  0  0  0  0  0  0  0  0
  -25.0380  -34.0570   25.0090 H   0  0  0  0  0  0  0  0  0  0  0  0
  -24.1590  -36.7500   23.1500 C   0  0  0  0  0  1  0  0  0  0  0  0
  -25.4360  -36.3540   23.9080 C   0  0  0  0  0  3  0  0  0  0  0  0
  -27.5980  -37.2530   24.6490 C   0  0  0  0  0  1  0  0  0  0  0  0
  -26.4550  -37.4150   23.7540 N   0  0  0  0  0  0  0  0  0  0  0  0
  -26.0480  -38.3320   23.9230 H   0  0  0  0  0  0  0  0  0  0  0  0
  1  2  2  0
  3  1  1  0
  3  4  2  0
  4  5  1  0
  6  5  1  0
  6  7  2  0
  8  7  1  0
  9 14  1  0
 10 11  1  0
 10  9  1  0
 12 11  1  0
 12 19  1  0
 12 13  1  0
 14  8  1  0
 14 13  1  0
 15  8  2  0
 16 17  2  0
 17 36  1  0
 18 17  1  0
 18 21  1  0
 19 16  1  0
 19 20  1  0
 20 18  2  0
 21 22  1  0
 22 23  2  0
 24 27  1  0
 24 23  1  0
 25 24  2  0
 26 25  1  0
 26 21  2  0
 27 28  1  0
 28 29  1  0
 29 30  2  0
 31 30  1  0
 31 35  1  0
 32 31  2  0
 33 28  2  0
 33 32  1  0
 34 33  1  0
 36 37  1  0
 37 40  1  0
 37 39  1  0
 38 36  2  0
 41 42  1  0
 41 16  1  0
 43 41  1  0
 44 45  1  0
 44  1  1  0
 46 57  2  0
 47 45  1  0
 47 52  1  0
 48 56  1  0
 48 58  1  0
 49 55  1  0
 49 51  1  0
 50 56  1  0
 51 50  1  0
 52 51  2  0
 53 54  1  0
 53 47  2  0
 54 49  2  0
 55 48  1  0
 56 46  1  0
 58 60  2  0
 59 58  1  0
 61 59  1  0
 62 71  2  0
 62 67  1  0
 63 59  1  0
 63 67  1  0
 64 63  1  0
 65 66  1  0
 65 64  1  0
 66 62  1  0
 67 68  2  0
 68 69  1  0
 70 69  2  0
 71 70  1  0
 72 46  1  0
 72 77  1  0
 72 73  1  0
 73 76  1  1
 73 74  1  0
 75 73  1  0
 77 80  1  0
 78 82  1  0
 78 77  1  0
 79 78  2  0
 82 81  1  0
 84 82  1  0
 84 85  1  0
 84 83  1  0
M  ISO  4   7 100   8 100  44 101  45 101
M  END
>  <TORSDO>  (9) 
F 22

>  <SCORE>  (9) 
-12.864

>  <name>  (9) 
8

>  <ligand_id>  (9) 
8

>  <original_smiles>  (9) 
[H]c1c([H])c([H])c2c(c1[H])C([H])([H])C([H])([H])C([H])([H])C2([H])N([H])C(=O)C1([H])N(C(=O)C([H])(N([H])C(=O)C([H])(N([H])C([H])([H])[H])C([H])([H])[H])C(C([H])([H])[H])(C([H])([H])[H])C([H])([H])[H])C([H])([H])c2c([H])c(OC([H])([H])C(=O)C([H])([H])C([H])([H])C([H])([H])C([H])([H])C([H])([H])C(=O)N3C([H])([H])C([H])([H])C([H])([H])C([H])(n4nc(-c5c([H])c([H])c(Oc6c([H])c([H])c(F)c([H])c6F)c([H])c5[H])c(C(=O)N([H])[H])c4N([H])[H])C3([H])[H])c([H])c([H])c2C1([H])[H]

>  <smiles>  (9) 
[H]c1c([H])c([H])c2c(c1[H])C([H])([H])C([H])([H])C([H])([H])C2([H])N([H])C(=O)C1([H])N(C(=O)C([H])(N([H])C(=O)C([H])(N([H])C([H])([H])[H])C([H])([H])[H])C(C([H])([H])[H])(C([H])([H])[H])C([H])([H])[H])C([H])([H])c2c([H])c(OC([H])([H])C(=O)C([H])([H])C([H])([H])C([H])([H])C([H])([H])C([H])([H])C(=O)N3C([H])([H])C([H])([H])C([H])([H])C([H])(n4nc(-c5c([H])c([H])c(Oc6c([H])c([H])c(F)c([H])c6F)c([H])c5[H])c(C(=O)N([H])[H])c4N([H])[H])C3([H])[H])c([H])c([H])c2C1([H])[H]

$$$$
9:0:0
     RDKit          3D

 98 99  0  0  1  0  0  0  0  0999 V2000
  -24.0360  -28.0090   20.0990 C   0  0  0  0  0  1  0  0  0  0  0  0
  -24.8700  -27.7160   22.2660 C   0  0  0  0  0  2  0  0  0  0  0  0
  -24.0300  -26.1970   19.4760 C   0  0  0  0  0  2  0  0  0  0  0  0
  -25.1870  -24.9920   21.6800 C   0  0  0  0  0  3  0  0  0  0  0  0
  -25.2760  -26.2180   22.6400 C   0  0  0  0  0  0  0  0  0  0  0  0
  -24.8690  -24.7760   20.1840 C   0  0  0  0  0  2  0  0  0  0  0  0
  -25.9410  -25.9180   23.9570 C   0  0  0  0  0  0  0  0  0  0  0  0
  -27.2950  -25.8300   24.0260 N   0  0  0  0  0  0  0  0  0  0  0  0
  -25.2510  -25.6090   24.9310 O   0  0  0  0  0  0  0  0  0  0  0  0
  -27.6280  -25.4510   24.9030 H   0  0  0  0  0  0  0  0  0  0  0  0
  -28.3430  -26.5530   23.2870 C   0  0  0  0  0  2  0  0  0  0  0  0
  -28.7140  -26.0400   21.8700 C   0  0  0  0  0  2  0  0  0  0  0  0
  -29.3960  -27.0440   21.1090 O   0  0  0  0  0  0  0  0  0  0  0  0
  -24.8270  -32.1050   23.8170 C   0  0  0  0  0  0  0  0  0  0  0  0
  -28.5740  -27.9500   20.5770 C   0  0  0  0  0  3  0  0  0  0  0  0
  -23.4050  -30.2950   22.3780 C   0  0  0  0  0  2  0  0  0  0  0  0
  -26.2320  -28.1000   20.8310 C   0  0  0  0  0  2  0  0  0  0  0  0
  -26.1940  -31.0760   21.6980 C   0  0  0  0  0  2  0  0  0  0  0  0
  -26.9010  -29.5800   20.9860 C   0  0  0  0  0  3  0  0  0  0  0  0
  -28.2160  -29.1990   21.1830 C   0  0  0  0  0  2  0  0  0  0  0  0
  -27.7920  -27.4130   19.5550 C   0  0  0  0  0  2  0  0  0  0  0  0
  -26.5410  -27.8270   19.4860 C   0  0  0  0  0  2  0  0  0  0  0  0
  -23.4200  -28.1890   22.0950 C   0  0  0  0  0  1  0  0  0  0  0  0
  -24.7910  -31.3130   22.6240 N   0  0  0  0  0  0  0  0  0  0  0  0
  -23.7680  -32.5030   24.3240 O   0  0  0  0  0  0  0  0  0  0  0  0
  -22.5370  -30.0970   23.4340 C   0  0  0  0  0  0  0  0  0  0  0  0
  -21.4090  -29.6310   22.9390 N   0  0  0  0  0  0  0  0  0  0  0  0
  -23.0320  -29.8950   24.5320 O   0  0  0  0  0  0  0  0  0  0  0  0
  -21.1890  -29.8100   21.9710 H   0  0  0  0  0  0  0  0  0  0  0  0
  -18.3120  -28.1350   22.7380 C   0  0  0  0  0  0  0  0  0  0  0  0
  -20.6390  -28.6440   23.6080 C   0  0  0  0  0  3  0  0  0  0  0  0
  -20.9420  -27.1870   23.1850 C   0  0  0  0  0  2  0  0  0  0  0  0
  -20.2880  -26.8150   21.8590 C   0  0  0  0  0  2  0  0  0  0  0  0
  -18.7770  -26.8200   22.1170 C   0  0  0  0  0  2  0  0  0  0  0  0
  -19.2090  -29.0240   23.3750 C   0  0  0  0  0  0  0  0  0  0  0  0
  -18.7810  -30.2990   23.8040 C   0  0  0  0  0  3  0  0  0  0  0  0
  -17.4300  -30.6570   23.6830 C   0  0  0  0  0  3  0  0  0  0  0  0
  -16.5190  -29.7410   23.1260 C   0  0  0  0  0  3  0  0  0  0  0  0
  -16.9580  -28.4950   22.6440 C   0  0  0  0  0  3  0  0  0  0  0  0
  -26.0950  -32.6040   24.6940 C   0  0  0  0  0  3  0  0  0  0  0  0
  -26.3070  -31.8860   26.1190 C   0  0  1  0  0  0  0  0  0  0  0  0
  -25.0440  -31.8470   27.0230 C   0  0  0  0  0  1  0  0  0  0  0  0
  -26.7550  -30.4380   25.9000 C   0  0  0  0  0  1  0  0  0  0  0  0
  -27.4320  -32.5530   26.9680 C   0  0  0  0  0  1  0  0  0  0  0  0
  -25.9760  -34.0580   24.9930 N   0  0  0  0  0  0  0  0  0  0  0  0
  -26.6590  -35.0570   24.4150 C   0  0  0  0  0  0  0  0  0  0  0  0
  -27.4920  -34.8440   23.5330 O   0  0  0  0  0  0  0  0  0  0  0  0
  -25.2570  -34.3190   25.6520 H   0  0  0  0  0  0  0  0  0  0  0  0
  -25.2880  -37.1170   23.9410 C   0  0  0  0  0  1  0  0  0  0  0  0
  -26.3680  -36.5120   24.8550 C   0  0  0  0  0  3  0  0  0  0  0  0
  -28.5220  -37.0640   25.9080 C   0  0  0  0  0  1  0  0  0  0  0  0
  -27.5590  -37.3930   24.8640 N   0  0  0  0  0  0  0  0  0  0  0  0
  -27.2910  -38.3660   24.9800 H   0  0  0  0  0  0  0  0  0  0  0  0
  -26.0150  -23.1800   19.5780 C   0  0  0  0  0 15  0  0  0  0  0  0
  -26.6670  -21.0980   19.4830 C   0  0  0  0  0  1  0  0  0  0  0  0
  -28.1470  -19.5460   19.6790 C   0  0  0  0  0 15  0  0  0  0  0  0
  -28.7360  -17.5090   19.2390 C   0  0  0  0  0 15  0  0  0  0  0  0
  -29.8930  -15.8020   19.4490 C   0  0  0  0  0  2  0  0  0  0  0  0
  -30.4180  -13.1190   18.8590 C   0  0  0  0  0  2  0  0  0  0  0  0
  -29.5400  -12.4080   17.7730 C   0  0  0  0  0  2  0  0  0  0  0  0
  -28.1830  -11.9900   18.3590 C   0  0  0  0  0  2  0  0  0  0  0  0
  -27.6770  -13.0560   19.3460 C   0  0  0  0  0  3  0  0  0  0  0  0
  -28.7150  -13.5500   20.3540 C   0  0  0  0  0  2  0  0  0  0  0  0
  -29.6770  -14.3140   19.5490 N   0  0  0  0  0  0  0  0  0  0  0  0
  -31.1470  -15.7900   19.2600 O   0  0  0  0  0  1  0  0  0  0  0  0
  -25.4880  -13.6670   20.4030 C   0  0  0  0  0  0  0  0  0  0  0  0
  -24.4440  -12.9270   20.8690 C   0  0  0  0  0  0  0  0  0  0  0  0
  -24.8390  -11.5600   20.7480 C   0  0  0  0  0  0  0  0  0  0  0  0
  -26.4350  -12.7480   20.0000 N   0  0  0  0  0  0  0  0  0  0  0  0
  -26.0790  -11.4720   20.2780 N   0  0  0  0  0  0  0  0  0  0  0  0
  -24.0800  -10.3320   20.9860 C   0  0  0  0  0  0  0  0  0  0  0  0
  -24.5080   -9.3650   21.9210 C   0  0  0  0  0  3  0  0  0  0  0  0
  -23.7410   -8.2010   22.1450 C   0  0  0  0  0  3  0  0  0  0  0  0
  -22.5350   -8.0000   21.4310 C   0  0  0  0  0  0  0  0  0  0  0  0
  -22.1260   -8.9570   20.4850 C   0  0  0  0  0  3  0  0  0  0  0  0
  -22.8930  -10.1110   20.2610 C   0  0  0  0  0  3  0  0  0  0  0  0
  -21.7380   -6.8880   21.5630 O   0  0  0  0  0  0  0  0  0  0  0  0
  -21.6310   -6.2190   22.7550 C   0  0  0  0  0  0  0  0  0  0  0  0
  -21.1680   -6.8550   23.9270 C   0  0  0  0  0  3  0  0  0  0  0  0
  -21.0020   -6.1120   25.1120 C   0  0  0  0  0  3  0  0  0  0  0  0
  -21.2970   -4.7350   25.1290 C   0  0  0  0  0  0  0  0  0  0  0  0
  -21.7530   -4.0980   23.9610 C   0  0  0  0  0  3  0  0  0  0  0  0
  -21.9170   -4.8390   22.7760 C   0  0  0  0  0  0  0  0  0  0  0  0
  -22.3370   -4.2160   21.6490 F   0  0  0  0  0  0  0  0  0  0  0  0
  -21.1320   -4.0190   26.2660 F   0  0  0  0  0  0  0  0  0  0  0  0
  -23.1160  -13.4700   21.2950 C   0  0  0  0  0  0  0  0  0  0  0  0
  -22.4530  -12.7890   22.2180 N   0  0  0  0  0  0  0  0  0  0  0  0
  -22.6900  -14.5360   20.8520 O   0  0  0  0  0  0  0  0  0  0  0  0
  -22.8220  -11.9280   22.5940 H   0  0  0  0  0  0  0  0  0  0  0  0
  -21.5630  -13.1300   22.5490 H   0  0  0  0  0  0  0  0  0  0  0  0
  -25.7000  -15.0370   20.2570 N   0  0  0  0  0  0  0  0  0  0  0  0
  -24.9860  -15.7110   20.5090 H   0  0  0  0  0  0  0  0  0  0  0  0
  -26.5250  -15.4640   19.8580 H   0  0  0  0  0  0  0  0  0  0  0  0
  -26.6140  -20.9010   17.9440 C   0  0  0  0  0  2  0  0  0  0  0  0
  -25.2850  -21.1110   17.3560 N   0  0  0  0  0  4  0  0  0  0  0  0
  -24.6330  -20.4750   17.7700 H   0  0  0  0  0  0  0  0  0  0  0  0
  -25.3240  -20.9240   16.3670 H   0  0  0  0  0  0  0  0  0  0  0  0
  -24.9800  -22.0570   17.4970 H   0  0  0  0  0  0  0  0  0  0  0  0
  2  5  1  0
  3  1  1  0
  3  6  1  0
  4  5  2  0
  5  7  1  0
  6  4  1  0
  7  8  1  0
  7  9  2  0
  8 10  1  0
 11  8  1  0
 12 11  1  0
 13 12  1  0
 14 25  2  0
 15 13  1  0
 15 20  1  0
 16 24  1  0
 16 26  1  0
 17 19  1  0
 18 24  1  0
 19 20  1  0
 19 18  1  0
 21 15  1  0
 22 21  1  0
 22 17  1  0
 23  2  1  0
 24 14  1  0
 26 28  2  0
 27 26  1  0
 29 27  1  0
 30 35  1  0
 31 27  1  0
 32 31  1  0
 33 34  1  0
 33 32  1  0
 34 30  1  0
 35 31  1  0
 35 36  2  0
 37 36  1  0
 38 37  2  0
 39 30  2  0
 39 38  1  0
 40 14  1  0
 40 45  1  0
 40 41  1  0
 41 44  1  1
 41 42  1  0
 43 41  1  0
 45 48  1  0
 46 50  1  0
 46 45  1  0
 47 46  2  0
 50 49  1  0
 50 52  1  0
 52 53  1  0
 52 51  1  0
 58 64  1  0
 59 64  1  0
 60 61  1  0
 60 59  1  0
 62 61  1  0
 62 69  1  0
 62 63  1  0
 64 63  1  0
 65 58  1  0
 66 67  2  0
 67 86  1  0
 68 67  1  0
 68 71  1  0
 69 70  1  0
 69 66  1  0
 70 68  2  0
 71 72  1  0
 72 73  2  0
 74 77  1  0
 74 73  1  0
 75 74  2  0
 76 75  1  0
 76 71  2  0
 77 78  1  0
 78 83  2  0
 78 79  1  0
 79 80  2  0
 80 81  1  0
 81 85  1  0
 82 81  2  0
 83 82  1  0
 84 83  1  0
 86 87  1  0
 87 90  1  0
 87 89  1  0
 88 86  2  0
 91 66  1  0
 91 92  1  0
 93 91  1  0
 94 55  1  0
 95 98  1  0
 95 96  1  0
 95 94  1  0
 97 95  1  0
M  ISO  4  12 101  13 101  57 100  58 100
M  END
>  <TORSDO>  (10) 
F 25

>  <SCORE>  (10) 
-11.667

>  <name>  (10) 
9

>  <ligand_id>  (10) 
9

>  <original_smiles>  (10) 
[H]c1c([H])c([H])c2c(c1[H])C([H])([H])C([H])([H])C([H])([H])C2([H])N([H])C(=O)C1([H])N(C(=O)C([H])(N([H])C(=O)C([H])(N([H])C([H])([H])[H])C([H])([H])[H])C(C([H])([H])[H])(C([H])([H])[H])C([H])([H])[H])C([H])([H])c2c([H])c(OC([H])([H])C([H])([H])N([H])C(=O)c3c([H])c([H])c([H])c(C([H])([H])C([H])(C([H])([H])C([H])([H])C(=O)N4C([H])([H])C([H])([H])C([H])([H])C([H])(n5nc(-c6c([H])c([H])c(Oc7c([H])c([H])c(F)c([H])c7F)c([H])c6[H])c(C(=O)N([H])[H])c5N([H])[H])C4([H])[H])C([H])([H])[N+]([H])([H])[H])c3[H])c([H])c([H])c2C1([H])[H]

>  <smiles>  (10) 
[H]c1c([H])c([H])c2c(c1[H])C([H])([H])C([H])([H])C([H])([H])C2([H])N([H])C(=O)C1([H])N(C(=O)C([H])(N([H])C(=O)C([H])(N([H])C([H])([H])[H])C([H])([H])[H])C(C([H])([H])[H])(C([H])([H])[H])C([H])([H])[H])C([H])([H])c2c([H])c(OC([H])([H])C([H])([H])N([H])C(=O)c3c([H])c([H])c([H])c(C([H])([H])C([H])(C([H])([H])C([H])([H])C(=O)N4C([H])([H])C([H])([H])C([H])([H])C([H])(n5nc(-c6c([H])c([H])c(Oc7c([H])c([H])c(F)c([H])c7F)c([H])c6[H])c(C(=O)N([H])[H])c5N([H])[H])C4([H])[H])C([H])([H])[N+]([H])([H])[H])c3[H])c([H])c([H])c2C1([H])[H]

$$$$
10:0:0
     RDKit          3D

 93101  0  0  1  0  0  0  0  0999 V2000
  -29.5200  -20.4350   21.6870 C   0  0  0  0  0  3  0  0  0  0  0  0
  -29.9050  -21.7870   21.6390 C   0  0  0  0  0  3  0  0  0  0  0  0
  -31.5740  -19.8130   20.5490 C   0  0  0  0  0  3  0  0  0  0  0  0
  -30.3570  -19.4290   21.1580 C   0  0  0  0  0  0  0  0  0  0  0  0
  -31.1250  -22.1710   21.0470 C   0  0  0  0  0  0  0  0  0  0  0  0
  -31.9700  -21.1750   20.4870 C   0  0  0  0  0  0  0  0  0  0  0  0
  -34.0630  -20.5890   19.4390 C   0  0  0  0  0  1  0  0  0  0  0  0
  -33.1630  -21.5790   19.9230 O   0  0  0  0  0  0  0  0  0  0  0  0
  -29.9400  -17.9980   21.2680 C   0  0  0  0  0  0  0  0  0  0  0  0
  -28.8180  -17.6700   21.6670 O   0  0  0  0  0  0  0  0  0  0  0  0
  -30.9660  -16.9120   20.8950 C   0  0  0  0  0  2  0  0  0  0  0  0
  -30.4730  -15.4610   21.1460 C   0  0  0  0  0  2  0  0  0  0  0  0
  -31.0480  -14.4070   20.1840 C   0  0  0  0  0  0  0  0  0  0  0  0
  -30.6600  -12.3200   18.9100 C   0  0  0  0  0  2  0  0  0  0  0  0
  -29.6670  -12.5680   17.7570 C   0  0  0  0  0  2  0  0  0  0  0  0
  -28.2060  -12.4690   18.2430 C   0  0  0  0  0  2  0  0  0  0  0  0
  -27.9470  -13.2890   19.5350 C   0  0  0  0  0  3  0  0  0  0  0  0
  -29.0290  -12.9710   20.5890 C   0  0  0  0  0  2  0  0  0  0  0  0
  -30.3430  -13.2620   19.9910 N   0  0  0  0  0  0  0  0  0  0  0  0
  -32.1020  -14.6450   19.5840 O   0  0  0  0  0  0  0  0  0  0  0  0
  -25.5790  -13.9750   20.2870 C   0  0  0  0  0  0  0  0  0  0  0  0
  -24.5040  -13.2370   20.7080 C   0  0  0  0  0  0  0  0  0  0  0  0
  -24.9350  -11.8750   20.6980 C   0  0  0  0  0  0  0  0  0  0  0  0
  -26.5980  -13.0640   20.0530 N   0  0  0  0  0  0  0  0  0  0  0  0
  -26.2140  -11.7980   20.3540 N   0  0  0  0  0  0  0  0  0  0  0  0
  -24.1900  -10.6340   20.9430 C   0  0  0  0  0  0  0  0  0  0  0  0
  -24.5760   -9.7290   21.9560 C   0  0  0  0  0  3  0  0  0  0  0  0
  -23.8340   -8.5500   22.1850 C   0  0  0  0  0  3  0  0  0  0  0  0
  -22.6910   -8.2670   21.3980 C   0  0  0  0  0  0  0  0  0  0  0  0
  -22.3220   -9.1620   20.3780 C   0  0  0  0  0  3  0  0  0  0  0  0
  -23.0660  -10.3320   20.1490 C   0  0  0  0  0  3  0  0  0  0  0  0
  -21.9240   -7.1360   21.5320 O   0  0  0  0  0  0  0  0  0  0  0  0
  -21.7380   -6.5320   22.7500 C   0  0  0  0  0  0  0  0  0  0  0  0
  -21.1620   -7.2170   23.8410 C   0  0  0  0  0  3  0  0  0  0  0  0
  -20.9250   -6.5370   25.0530 C   0  0  0  0  0  3  0  0  0  0  0  0
  -21.2540   -5.1740   25.1730 C   0  0  0  0  0  0  0  0  0  0  0  0
  -21.8230   -4.4900   24.0850 C   0  0  0  0  0  3  0  0  0  0  0  0
  -22.0620   -5.1650   22.8760 C   0  0  0  0  0  0  0  0  0  0  0  0
  -22.5900   -4.4950   21.8250 F   0  0  0  0  0  0  0  0  0  0  0  0
  -21.0190   -4.5190   26.3340 F   0  0  0  0  0  0  0  0  0  0  0  0
  -23.1260  -13.7500   21.0120 C   0  0  0  0  0  0  0  0  0  0  0  0
  -22.4150  -13.1000   21.9260 N   0  0  0  0  0  0  0  0  0  0  0  0
  -22.6880  -14.7640   20.4680 O   0  0  0  0  0  0  0  0  0  0  0  0
  -22.7800  -12.2800   22.3880 H   0  0  0  0  0  0  0  0  0  0  0  0
  -21.4900  -13.4280   22.1690 H   0  0  0  0  0  0  0  0  0  0  0  0
  -25.7690  -15.3360   20.0710 N   0  0  0  0  0  0  0  0  0  0  0  0
  -25.0300  -16.0190   20.2010 H   0  0  0  0  0  0  0  0  0  0  0  0
  -26.6370  -15.7490   19.7530 H   0  0  0  0  0  0  0  0  0  0  0  0
  -31.5620  -23.6400   21.0920 C   0  0  0  0  0  2  0  0  0  0  0  0
  -30.6520  -24.6690   20.3740 C   0  0  0  0  0  2  0  0  0  0  0  0
  -29.5170  -25.2420   21.2550 C   0  0  0  0  0  2  0  0  0  0  0  0
  -29.0860  -26.6850   20.9190 C   0  0  0  0  0  2  0  0  0  0  0  0
  -28.2630  -26.7160   19.7520 O   0  0  0  0  0  0  0  0  0  0  0  0
  -24.5330  -31.7930   23.1190 C   0  0  0  0  0  0  0  0  0  0  0  0
  -27.1230  -27.4880   19.8290 C   0  0  0  0  0  0  0  0  0  0  0  0
  -23.2900  -30.4530   21.4490 C   0  0  0  0  0  3  0  0  0  0  0  0
  -24.7180  -28.9670   19.9410 C   0  0  0  0  0  0  0  0  0  0  0  0
  -25.8060  -30.8300   21.2050 C   0  0  0  0  0  2  0  0  0  0  0  0
  -25.8820  -29.4800   20.5230 C   0  0  0  0  0  0  0  0  0  0  0  0
  -27.0890  -28.7520   20.4660 C   0  0  0  0  0  3  0  0  0  0  0  0
  -25.9480  -26.9900   19.2330 C   0  0  0  0  0  3  0  0  0  0  0  0
  -24.7420  -27.7200   19.2920 C   0  0  0  0  0  3  0  0  0  0  0  0
  -23.4730  -29.8200   20.0400 C   0  0  0  0  0  2  0  0  0  0  0  0
  -24.5620  -31.0370   21.9830 N   0  0  0  0  0  0  0  0  0  0  0  0
  -23.4660  -32.0410   23.6960 O   0  0  0  0  0  0  0  0  0  0  0  0
  -22.6620  -29.3970   22.3860 C   0  0  0  0  0  0  0  0  0  0  0  0
  -21.3370  -29.2120   22.2750 N   0  0  0  0  0  0  0  0  0  0  0  0
  -23.3620  -28.7490   23.1690 O   0  0  0  0  0  0  0  0  0  0  0  0
  -20.8320  -29.7910   21.6200 H   0  0  0  0  0  0  0  0  0  0  0  0
  -17.9810  -27.9780   22.7710 C   0  0  0  0  0  0  0  0  0  0  0  0
  -20.5380  -28.2460   23.0280 C   0  0  0  0  0  3  0  0  0  0  0  0
  -20.6460  -26.8330   22.4100 C   0  0  0  0  0  2  0  0  0  0  0  0
  -19.5370  -26.5330   21.3980 C   0  0  0  0  0  2  0  0  0  0  0  0
  -18.1610  -26.6480   22.0570 C   0  0  0  0  0  2  0  0  0  0  0  0
  -19.0980  -28.7350   23.2140 C   0  0  0  0  0  0  0  0  0  0  0  0
  -18.8730  -29.9810   23.8400 C   0  0  0  0  0  3  0  0  0  0  0  0
  -17.5670  -30.4670   24.0330 C   0  0  0  0  0  3  0  0  0  0  0  0
  -16.4660  -29.7070   23.6040 C   0  0  0  0  0  3  0  0  0  0  0  0
  -16.6740  -28.4650   22.9800 C   0  0  0  0  0  3  0  0  0  0  0  0
  -25.8340  -32.3980   23.7320 C   0  0  0  0  0  3  0  0  0  0  0  0
  -25.5480  -33.7920   24.0920 N   0  0  0  0  0  0  0  0  0  0  0  0
  -25.9020  -34.8540   23.3570 C   0  0  0  0  0  0  0  0  0  0  0  0
  -26.5750  -34.7630   22.3270 O   0  0  0  0  0  0  0  0  0  0  0  0
  -24.9510  -33.9370   24.8950 H   0  0  0  0  0  0  0  0  0  0  0  0
  -24.2050  -36.6800   23.0240 C   0  0  0  0  0  1  0  0  0  0  0  0
  -25.4310  -36.2410   23.8410 C   0  0  0  0  0  3  0  0  0  0  0  0
  -27.5700  -37.0730   24.7150 C   0  0  0  0  0  1  0  0  0  0  0  0
  -26.4820  -37.2790   23.7620 N   0  0  0  0  0  0  0  0  0  0  0  0
  -26.0910  -38.2030   23.9220 H   0  0  0  0  0  0  0  0  0  0  0  0
  -26.3650  -31.5950   24.9820 C   0  0  1  0  0  0  0  0  0  0  0  0
  -25.2890  -31.3460   26.0630 C   0  0  0  0  0  1  0  0  0  0  0  0
  -26.9280  -30.2220   24.5440 C   0  0  0  0  0  1  0  0  0  0  0  0
  -27.5330  -32.3630   25.6420 C   0  0  0  0  0  1  0  0  0  0  0  0
  2  1  1  0
  3  4  1  0
  4  9  1  0
  4  1  2  0
  5 49  1  0
  5  2  2  0
  6  3  2  0
  6  5  1  0
  7  8  1  0
  8  6  1  0
  9 10  2  0
 11 12  1  0
 11  9  1  0
 13 12  1  0
 14 19  1  0
 15 16  1  0
 15 14  1  0
 17 16  1  0
 17 24  1  0
 17 18  1  0
 19 13  1  0
 19 18  1  0
 20 13  2  0
 21 22  2  0
 22 41  1  0
 23 22  1  0
 23 26  1  0
 24 21  1  0
 24 25  1  0
 25 23  2  0
 26 27  1  0
 27 28  2  0
 29 32  1  0
 29 28  1  0
 30 29  2  0
 31 30  1  0
 31 26  2  0
 32 33  1  0
 33 38  2  0
 33 34  1  0
 34 35  2  0
 35 36  1  0
 36 40  1  0
 37 36  2  0
 38 37  1  0
 39 38  1  0
 41 42  1  0
 42 45  1  0
 42 44  1  0
 43 41  2  0
 46 47  1  0
 46 21  1  0
 48 46  1  0
 50 49  1  0
 50 51  1  0
 52 51  1  0
 53 55  1  0
 53 52  1  0
 54 65  2  0
 55 60  1  0
 56 64  1  0
 56 66  1  0
 57 63  1  0
 57 59  1  0
 58 64  1  0
 59 58  1  0
 60 59  2  0
 61 62  1  0
 61 55  2  0
 62 57  2  0
 63 56  1  0
 64 54  1  0
 66 68  2  0
 67 66  1  0
 69 67  1  0
 70 79  2  0
 70 75  1  0
 71 67  1  0
 71 75  1  0
 72 71  1  0
 73 74  1  0
 73 72  1  0
 74 70  1  0
 75 76  2  0
 76 77  1  0
 78 77  2  0
 79 78  1  0
 80 54  1  0
 80 81  1  0
 80 90  1  0
 81 84  1  0
 82 86  1  0
 82 81  1  0
 83 82  2  0
 86 85  1  0
 88 86  1  0
 88 89  1  0
 88 87  1  0
 90 93  1  1
 90 91  1  0
 92 90  1  0
M  ISO  4  12 100  13 100  52 101  53 101
M  END
>  <TORSDO>  (11) 
F 24

>  <SCORE>  (11) 
-11.225

>  <name>  (11) 
10

>  <ligand_id>  (11) 
10

>  <original_smiles>  (11) 
[H]c1c([H])c([H])c2c(c1[H])C([H])([H])C([H])([H])C([H])([H])C2([H])N([H])C(=O)C1([H])N(C(=O)C([H])(N([H])C(=O)C([H])(N([H])C([H])([H])[H])C([H])([H])[H])C(C([H])([H])[H])(C([H])([H])[H])C([H])([H])[H])C([H])([H])c2c([H])c(OC([H])([H])C([H])([H])C([H])([H])C([H])([H])c3c([H])c([H])c(C(=O)C([H])([H])C([H])([H])C(=O)N4C([H])([H])C([H])([H])C([H])([H])C([H])(n5nc(-c6c([H])c([H])c(Oc7c([H])c([H])c(F)c([H])c7F)c([H])c6[H])c(C(=O)N([H])[H])c5N([H])[H])C4([H])[H])c([H])c3OC([H])([H])[H])c([H])c([H])c2C1([H])[H]

>  <smiles>  (11) 
[H]c1c([H])c([H])c2c(c1[H])C([H])([H])C([H])([H])C([H])([H])C2([H])N([H])C(=O)C1([H])N(C(=O)C([H])(N([H])C(=O)C([H])(N([H])C([H])([H])[H])C([H])([H])[H])C(C([H])([H])[H])(C([H])([H])[H])C([H])([H])[H])C([H])([H])c2c([H])c(OC([H])([H])C([H])([H])C([H])([H])C([H])([H])c3c([H])c([H])c(C(=O)C([H])([H])C([H])([H])C(=O)N4C([H])([H])C([H])([H])C([H])([H])C([H])(n5nc(-c6c([H])c([H])c(Oc7c([H])c([H])c(F)c([H])c7F)c([H])c6[H])c(C(=O)N([H])[H])c5N([H])[H])C4([H])[H])c([H])c3OC([H])([H])[H])c([H])c([H])c2C1([H])[H]

$$$$
11:0:0
     RDKit          3D

 92100  0  0  1  0  0  0  0  0999 V2000
  -29.8090  -21.9870   22.0540 C   0  0  0  0  0  3  0  0  0  0  0  0
  -30.7550  -22.1050   24.2910 C   0  0  0  0  0  3  0  0  0  0  0  0
  -30.3750  -20.7130   21.8820 C   0  0  0  0  0  3  0  0  0  0  0  0
  -31.3080  -20.8170   24.1270 C   0  0  0  0  0  3  0  0  0  0  0  0
  -29.9950  -22.7080   23.2580 C   0  0  0  0  0  0  0  0  0  0  0  0
  -31.1140  -20.1150   22.9210 C   0  0  0  0  0  0  0  0  0  0  0  0
  -29.3760  -24.0570   23.4790 C   0  0  0  0  0  0  0  0  0  0  0  0
  -29.5040  -24.6600   24.5500 O   0  0  0  0  0  0  0  0  0  0  0  0
  -28.5810  -24.6510   22.3920 C   0  0  0  0  0  3  0  0  0  0  0  0
  -29.1140  -24.9990   21.2060 C   0  0  0  0  0  3  0  0  0  0  0  0
  -28.2960  -25.5250   20.0480 C   0  0  0  0  0  2  0  0  0  0  0  0
  -28.3760  -26.9460   19.9740 O   0  0  0  0  0  0  0  0  0  0  0  0
  -24.5960  -31.9750   23.2390 C   0  0  0  0  0  0  0  0  0  0  0  0
  -27.1850  -27.6340   20.0020 C   0  0  0  0  0  0  0  0  0  0  0  0
  -23.3520  -30.6010   21.6000 C   0  0  0  0  0  3  0  0  0  0  0  0
  -24.7750  -29.1030   20.1070 C   0  0  0  0  0  0  0  0  0  0  0  0
  -25.8660  -30.9850   21.3410 C   0  0  0  0  0  2  0  0  0  0  0  0
  -25.9420  -29.6280   20.6730 C   0  0  0  0  0  0  0  0  0  0  0  0
  -27.1500  -28.9010   20.6190 C   0  0  0  0  0  3  0  0  0  0  0  0
  -26.0020  -27.1220   19.4180 C   0  0  0  0  0  3  0  0  0  0  0  0
  -24.7970  -27.8470   19.4770 C   0  0  0  0  0  3  0  0  0  0  0  0
  -23.5260  -29.9500   20.2020 C   0  0  0  0  0  2  0  0  0  0  0  0
  -24.6240  -31.1990   22.1190 N   0  0  0  0  0  0  0  0  0  0  0  0
  -23.5290  -32.2290   23.8140 O   0  0  0  0  0  0  0  0  0  0  0  0
  -22.7330  -29.5550   22.5560 C   0  0  0  0  0  0  0  0  0  0  0  0
  -21.4130  -29.3480   22.4380 N   0  0  0  0  0  0  0  0  0  0  0  0
  -23.4370  -28.9360   23.3570 O   0  0  0  0  0  0  0  0  0  0  0  0
  -20.9040  -29.9020   21.7620 H   0  0  0  0  0  0  0  0  0  0  0  0
  -18.0690  -28.0730   22.9340 C   0  0  0  0  0  0  0  0  0  0  0  0
  -20.6210  -28.3880   23.2050 C   0  0  0  0  0  3  0  0  0  0  0  0
  -20.7550  -26.9630   22.6200 C   0  0  0  0  0  2  0  0  0  0  0  0
  -19.6600  -26.6200   21.6050 C   0  0  0  0  0  2  0  0  0  0  0  0
  -18.2770  -26.7310   22.2520 C   0  0  0  0  0  2  0  0  0  0  0  0
  -19.1710  -28.8580   23.3680 C   0  0  0  0  0  0  0  0  0  0  0  0
  -18.9260  -30.1140   23.9640 C   0  0  0  0  0  3  0  0  0  0  0  0
  -17.6110  -30.5860   24.1330 C   0  0  0  0  0  3  0  0  0  0  0  0
  -16.5230  -29.7980   23.7170 C   0  0  0  0  0  3  0  0  0  0  0  0
  -16.7530  -28.5440   23.1240 C   0  0  0  0  0  3  0  0  0  0  0  0
  -25.8970  -32.5970   23.8370 C   0  0  0  0  0  3  0  0  0  0  0  0
  -25.6030  -33.9970   24.1700 N   0  0  0  0  0  0  0  0  0  0  0  0
  -25.9310  -35.0450   23.4010 C   0  0  0  0  0  0  0  0  0  0  0  0
  -26.5830  -34.9340   22.3600 O   0  0  0  0  0  0  0  0  0  0  0  0
  -25.0220  -34.1570   24.9780 H   0  0  0  0  0  0  0  0  0  0  0  0
  -24.2050  -36.8430   23.0730 C   0  0  0  0  0  1  0  0  0  0  0  0
  -25.4590  -36.4370   23.8620 C   0  0  0  0  0  3  0  0  0  0  0  0
  -27.6110  -37.3160   24.6520 C   0  0  0  0  0  1  0  0  0  0  0  0
  -26.4940  -37.4840   23.7260 N   0  0  0  0  0  0  0  0  0  0  0  0
  -26.0960  -38.4060   23.8760 H   0  0  0  0  0  0  0  0  0  0  0  0
  -26.4330  -31.8210   25.1020 C   0  0  1  0  0  0  0  0  0  0  0  0
  -25.3560  -31.5850   26.1870 C   0  0  0  0  0  1  0  0  0  0  0  0
  -27.0050  -30.4430   24.6950 C   0  0  0  0  0  1  0  0  0  0  0  0
  -27.5960  -32.6110   25.7480 C   0  0  0  0  0  1  0  0  0  0  0  0
  -31.7050  -18.7330   22.7060 C   0  0  0  0  0  2  0  0  0  0  0  0
  -30.6330  -17.6290   22.5800 C   0  0  0  0  0  2  0  0  0  0  0  0
  -31.0740  -16.5180   21.6140 C   0  0  0  0  0  2  0  0  0  0  0  0
  -30.0350  -15.3880   21.4080 C   0  0  0  0  0  2  0  0  0  0  0  0
  -30.4160  -14.4330   20.2610 C   0  0  0  0  0  0  0  0  0  0  0  0
  -30.0330  -12.3740   18.9540 C   0  0  0  0  0  2  0  0  0  0  0  0
  -29.0240  -12.5970   17.8140 C   0  0  0  0  0  2  0  0  0  0  0  0
  -27.5860  -12.3900   18.3210 C   0  0  0  0  0  2  0  0  0  0  0  0
  -27.2940  -13.1870   19.6200 C   0  0  0  0  0  3  0  0  0  0  0  0
  -28.4100  -12.9720   20.6700 C   0  0  0  0  0  2  0  0  0  0  0  0
  -29.7030  -13.2980   20.0490 N   0  0  0  0  0  0  0  0  0  0  0  0
  -31.3880  -14.7300   19.5560 O   0  0  0  0  0  0  0  0  0  0  0  0
  -24.8940  -13.6890   20.4110 C   0  0  0  0  0  0  0  0  0  0  0  0
  -23.8810  -12.8720   20.8330 C   0  0  0  0  0  0  0  0  0  0  0  0
  -24.4070  -11.5440   20.8050 C   0  0  0  0  0  0  0  0  0  0  0  0
  -25.9740  -12.8580   20.1560 N   0  0  0  0  0  0  0  0  0  0  0  0
  -25.6840  -11.5630   20.4470 N   0  0  0  0  0  0  0  0  0  0  0  0
  -23.7520  -10.2520   21.0450 C   0  0  0  0  0  0  0  0  0  0  0  0
  -24.2330   -9.3500   22.0200 C   0  0  0  0  0  3  0  0  0  0  0  0
  -23.5770   -8.1210   22.2460 C   0  0  0  0  0  3  0  0  0  0  0  0
  -22.4250   -7.7840   21.4940 C   0  0  0  0  0  0  0  0  0  0  0  0
  -21.9650   -8.6740   20.5090 C   0  0  0  0  0  3  0  0  0  0  0  0
  -22.6220   -9.8950   20.2830 C   0  0  0  0  0  3  0  0  0  0  0  0
  -21.7380   -6.6020   21.6260 O   0  0  0  0  0  0  0  0  0  0  0  0
  -21.6870   -5.9280   22.8200 C   0  0  0  0  0  0  0  0  0  0  0  0
  -21.1630   -6.5220   23.9890 C   0  0  0  0  0  3  0  0  0  0  0  0
  -21.0650   -5.7700   25.1780 C   0  0  0  0  0  3  0  0  0  0  0  0
  -21.4800   -4.4260   25.1970 C   0  0  0  0  0  0  0  0  0  0  0  0
  -21.9970   -3.8310   24.0330 C   0  0  0  0  0  3  0  0  0  0  0  0
  -22.0970   -4.5790   22.8470 C   0  0  0  0  0  0  0  0  0  0  0  0
  -22.5760   -3.9950   21.7220 F   0  0  0  0  0  0  0  0  0  0  0  0
  -21.3790   -3.7010   26.3360 F   0  0  0  0  0  0  0  0  0  0  0  0
  -22.4730  -13.2840   21.1560 C   0  0  0  0  0  0  0  0  0  0  0  0
  -21.8180  -12.5700   22.0640 N   0  0  0  0  0  0  0  0  0  0  0  0
  -21.9610  -14.2760   20.6360 O   0  0  0  0  0  0  0  0  0  0  0  0
  -22.2430  -11.7680   22.5050 H   0  0  0  0  0  0  0  0  0  0  0  0
  -20.8760  -12.8290   22.3230 H   0  0  0  0  0  0  0  0  0  0  0  0
  -24.9840  -15.0630   20.2040 N   0  0  0  0  0  0  0  0  0  0  0  0
  -24.1950  -15.6860   20.3350 H   0  0  0  0  0  0  0  0  0  0  0  0
  -25.8080  -15.5370   19.8540 H   0  0  0  0  0  0  0  0  0  0  0  0
  1  5  1  0
  3  1  2  0
  3  6  1  0
  4  2  1  0
  5  7  1  0
  5  2  2  0
  6  4  2  0
  7  8  2  0
  9  7  1  0
 10  9  2  0
 11 10  1  0
 12 14  1  0
 12 11  1  0
 13 24  2  0
 14 19  1  0
 15 23  1  0
 15 25  1  0
 16 22  1  0
 16 18  1  0
 17 23  1  0
 18 17  1  0
 19 18  2  0
 20 21  1  0
 20 14  2  0
 21 16  2  0
 22 15  1  0
 23 13  1  0
 25 27  2  0
 26 25  1  0
 28 26  1  0
 29 38  2  0
 29 34  1  0
 30 26  1  0
 30 34  1  0
 31 30  1  0
 32 33  1  0
 32 31  1  0
 33 29  1  0
 34 35  2  0
 35 36  1  0
 37 36  2  0
 38 37  1  0
 39 13  1  0
 39 40  1  0
 39 49  1  0
 40 43  1  0
 41 45  1  0
 41 40  1  0
 42 41  2  0
 45 44  1  0
 47 45  1  0
 47 48  1  0
 47 46  1  0
 49 52  1  1
 49 50  1  0
 51 49  1  0
 53  6  1  0
 54 53  1  0
 55 54  1  0
 56 55  1  0
 57 56  1  0
 58 63  1  0
 59 60  1  0
 59 58  1  0
 61 60  1  0
 61 68  1  0
 61 62  1  0
 63 57  1  0
 63 62  1  0
 64 57  2  0
 65 66  2  0
 66 85  1  0
 67 66  1  0
 67 70  1  0
 68 65  1  0
 68 69  1  0
 69 67  2  0
 70 71  1  0
 71 72  2  0
 73 76  1  0
 73 72  1  0
 74 73  2  0
 75 74  1  0
 75 70  2  0
 76 77  1  0
 77 82  2  0
 77 78  1  0
 78 79  2  0
 79 80  1  0
 80 84  1  0
 81 80  2  0
 82 81  1  0
 83 82  1  0
 85 86  1  0
 86 89  1  0
 86 88  1  0
 87 85  2  0
 90 91  1  0
 90 65  1  0
 92 90  1  0
M  ISO  4  11 101  12 101  56 100  57 100
M  END
>  <TORSDO>  (12) 
F 23

>  <SCORE>  (12) 
-12.144

>  <name>  (12) 
11

>  <ligand_id>  (12) 
11

>  <original_smiles>  (12) 
[H]C(C(=O)c1c([H])c([H])c(C([H])([H])C([H])([H])C([H])([H])C([H])([H])C(=O)N2C([H])([H])C([H])([H])C([H])([H])C([H])(n3nc(-c4c([H])c([H])c(Oc5c([H])c([H])c(F)c([H])c5F)c([H])c4[H])c(C(=O)N([H])[H])c3N([H])[H])C2([H])[H])c([H])c1[H])=C([H])C([H])([H])Oc1c([H])c([H])c2c(c1[H])C([H])([H])N(C(=O)C([H])(N([H])C(=O)C([H])(N([H])C([H])([H])[H])C([H])([H])[H])C(C([H])([H])[H])(C([H])([H])[H])C([H])([H])[H])C([H])(C(=O)N([H])C1([H])c3c([H])c([H])c([H])c([H])c3C([H])([H])C([H])([H])C1([H])[H])C2([H])[H]

>  <smiles>  (12) 
[H]C(C(=O)c1c([H])c([H])c(C([H])([H])C([H])([H])C([H])([H])C([H])([H])C(=O)N2C([H])([H])C([H])([H])C([H])([H])C([H])(n3nc(-c4c([H])c([H])c(Oc5c([H])c([H])c(F)c([H])c5F)c([H])c4[H])c(C(=O)N([H])[H])c3N([H])[H])C2([H])[H])c([H])c1[H])=C([H])C([H])([H])Oc1c([H])c([H])c2c(c1[H])C([H])([H])N(C(=O)C([H])(N([H])C(=O)C([H])(N([H])C([H])([H])[H])C([H])([H])[H])C(C([H])([H])[H])(C([H])([H])[H])C([H])([H])[H])C([H])(C(=O)N([H])C1([H])c3c([H])c([H])c([H])c([H])c3C([H])([H])C([H])([H])C1([H])[H])C2([H])[H]

$$$$
12:0:0
     RDKit          3D

 93102  0  0  1  0  0  0  0  0999 V2000
  -31.4980  -19.9820   20.2280 C   0  0  0  0  0  3  0  0  0  0  0  0
  -29.2300  -20.1850   19.4250 C   0  0  0  0  0  3  0  0  0  0  0  0
  -31.5970  -21.3970   20.2570 C   0  0  0  0  0  3  0  0  0  0  0  0
  -29.3230  -21.5920   19.4560 C   0  0  0  0  0  3  0  0  0  0  0  0
  -30.3200  -19.3410   19.7790 C   0  0  0  0  0  0  0  0  0  0  0  0
  -30.5200  -22.2180   19.8430 C   0  0  0  0  0  0  0  0  0  0  0  0
  -27.9390  -17.2360   19.1090 C   0  0  0  0  0  2  0  0  0  0  0  0
  -29.3200  -17.4020   18.4530 C   0  0  0  0  0  2  0  0  0  0  0  0
  -28.1880  -17.2760   20.6340 C   0  0  0  0  0  2  0  0  0  0  0  0
  -30.2750  -17.7900   19.5950 C   0  0  0  0  0  3  0  0  0  0  0  0
  -29.6900  -16.9960   20.8040 C   0  0  0  0  0  3  0  0  0  0  0  0
  -30.5960  -14.5690   20.2900 C   0  0  0  0  0  0  0  0  0  0  0  0
  -30.3510  -12.4080   19.1090 C   0  0  0  0  0  2  0  0  0  0  0  0
  -29.3640  -12.6260   17.9410 C   0  0  0  0  0  2  0  0  0  0  0  0
  -27.8980  -12.4690   18.4030 C   0  0  0  0  0  2  0  0  0  0  0  0
  -27.5950  -13.2570   19.7040 C   0  0  0  0  0  3  0  0  0  0  0  0
  -28.6830  -12.9930   20.7690 C   0  0  0  0  0  2  0  0  0  0  0  0
  -29.9890  -13.3510   20.1790 N   0  0  0  0  0  0  0  0  0  0  0  0
  -31.7050  -14.8200   19.8110 O   0  0  0  0  0  0  0  0  0  0  0  0
  -29.7790  -15.5100   20.8090 N   0  0  0  0  0  0  0  0  0  0  0  0
  -28.9490  -15.0820   21.1880 H   0  0  0  0  0  0  0  0  0  0  0  0
  -25.2050  -13.8790   20.4540 C   0  0  0  0  0  0  0  0  0  0  0  0
  -24.1430  -13.1090   20.8390 C   0  0  0  0  0  0  0  0  0  0  0  0
  -24.6010  -11.7580   20.7910 C   0  0  0  0  0  0  0  0  0  0  0  0
  -26.2480  -12.9950   20.2020 N   0  0  0  0  0  0  0  0  0  0  0  0
  -25.8850  -11.7150   20.4570 N   0  0  0  0  0  0  0  0  0  0  0  0
  -23.8770  -10.4980   20.9880 C   0  0  0  0  0  0  0  0  0  0  0  0
  -24.3110   -9.5370   21.9260 C   0  0  0  0  0  3  0  0  0  0  0  0
  -23.5870   -8.3400   22.1080 C   0  0  0  0  0  3  0  0  0  0  0  0
  -22.4160   -8.0980   21.3530 C   0  0  0  0  0  0  0  0  0  0  0  0
  -22.0000   -9.0490   20.4050 C   0  0  0  0  0  3  0  0  0  0  0  0
  -22.7250  -10.2370   20.2200 C   0  0  0  0  0  3  0  0  0  0  0  0
  -21.6630   -6.9520   21.4470 O   0  0  0  0  0  0  0  0  0  0  0  0
  -21.5970   -6.2280   22.6100 C   0  0  0  0  0  0  0  0  0  0  0  0
  -21.1260   -6.7940   23.8140 C   0  0  0  0  0  3  0  0  0  0  0  0
  -21.0100   -5.9960   24.9690 C   0  0  0  0  0  3  0  0  0  0  0  0
  -21.3540   -4.6310   24.9200 C   0  0  0  0  0  0  0  0  0  0  0  0
  -21.8180   -4.0640   23.7200 C   0  0  0  0  0  3  0  0  0  0  0  0
  -21.9360   -4.8600   22.5670 C   0  0  0  0  0  0  0  0  0  0  0  0
  -22.3640   -4.3050   21.4080 F   0  0  0  0  0  0  0  0  0  0  0  0
  -21.2340   -3.8600   26.0260 F   0  0  0  0  0  0  0  0  0  0  0  0
  -22.7530  -13.5910   21.1430 C   0  0  0  0  0  0  0  0  0  0  0  0
  -22.0380  -12.8880   22.0130 N   0  0  0  0  0  0  0  0  0  0  0  0
  -22.3110  -14.6250   20.6450 O   0  0  0  0  0  0  0  0  0  0  0  0
  -22.4050  -12.0490   22.4370 H   0  0  0  0  0  0  0  0  0  0  0  0
  -21.1080  -13.1970   22.2600 H   0  0  0  0  0  0  0  0  0  0  0  0
  -25.3560  -15.2490   20.2860 N   0  0  0  0  0  0  0  0  0  0  0  0
  -24.5870  -15.8950   20.4240 H   0  0  0  0  0  0  0  0  0  0  0  0
  -26.2010  -15.7040   19.9660 H   0  0  0  0  0  0  0  0  0  0  0  0
  -30.6840  -23.7370   19.6920 C   0  0  0  0  0  2  0  0  0  0  0  0
  -29.7530  -24.6610   20.5310 C   0  0  0  0  0  2  0  0  0  0  0  0
  -28.5940  -25.3800   19.7790 C   0  0  0  0  0  2  0  0  0  0  0  0
  -28.4950  -26.7520   20.2130 O   0  0  0  0  0  0  0  0  0  0  0  0
  -24.6100  -31.8900   23.2280 C   0  0  0  0  0  0  0  0  0  0  0  0
  -27.2940  -27.4430   20.1640 C   0  0  0  0  0  0  0  0  0  0  0  0
  -23.4150  -30.4800   21.5830 C   0  0  0  0  0  3  0  0  0  0  0  0
  -24.8810  -28.9420   20.1650 C   0  0  0  0  0  0  0  0  0  0  0  0
  -25.9390  -30.8470   21.3940 C   0  0  0  0  0  2  0  0  0  0  0  0
  -26.0330  -29.4720   20.7590 C   0  0  0  0  0  0  0  0  0  0  0  0
  -27.2350  -28.7270   20.7560 C   0  0  0  0  0  3  0  0  0  0  0  0
  -26.1220  -26.9330   19.5560 C   0  0  0  0  0  3  0  0  0  0  0  0
  -24.9210  -27.6730   19.5620 C   0  0  0  0  0  3  0  0  0  0  0  0
  -23.6320  -29.7950   20.2060 C   0  0  0  0  0  2  0  0  0  0  0  0
  -24.6730  -31.0880   22.1280 N   0  0  0  0  0  0  0  0  0  0  0  0
  -23.5260  -32.1590   23.7640 O   0  0  0  0  0  0  0  0  0  0  0  0
  -22.7630  -29.4600   22.5450 C   0  0  0  0  0  0  0  0  0  0  0  0
  -21.4390  -29.2800   22.4200 N   0  0  0  0  0  0  0  0  0  0  0  0
  -23.4480  -28.8320   23.3580 O   0  0  0  0  0  0  0  0  0  0  0  0
  -20.9480  -29.8390   21.7360 H   0  0  0  0  0  0  0  0  0  0  0  0
  -18.0600  -28.1100   22.9380 C   0  0  0  0  0  0  0  0  0  0  0  0
  -20.6220  -28.3430   23.1900 C   0  0  0  0  0  3  0  0  0  0  0  0
  -20.7080  -26.9160   22.5980 C   0  0  0  0  0  2  0  0  0  0  0  0
  -19.5940  -26.6140   21.5910 C   0  0  0  0  0  2  0  0  0  0  0  0
  -18.2180  -26.7650   22.2490 C   0  0  0  0  0  2  0  0  0  0  0  0
  -19.1890  -28.8570   23.3660 C   0  0  0  0  0  0  0  0  0  0  0  0
  -18.9870  -30.1180   23.9710 C   0  0  0  0  0  3  0  0  0  0  0  0
  -17.6880  -30.6300   24.1510 C   0  0  0  0  0  3  0  0  0  0  0  0
  -16.5740  -29.8780   23.7400 C   0  0  0  0  0  3  0  0  0  0  0  0
  -16.7600  -28.6200   23.1410 C   0  0  0  0  0  3  0  0  0  0  0  0
  -25.8920  -32.5260   23.8520 C   0  0  0  0  0  3  0  0  0  0  0  0
  -26.4090  -31.7600   25.1310 C   0  0  1  0  0  0  0  0  0  0  0  0
  -25.3130  -31.5160   26.1940 C   0  0  0  0  0  1  0  0  0  0  0  0
  -27.0010  -30.3860   24.7390 C   0  0  0  0  0  1  0  0  0  0  0  0
  -27.5530  -32.5610   25.7970 C   0  0  0  0  0  1  0  0  0  0  0  0
  -25.5790  -33.9250   24.1760 N   0  0  0  0  0  0  0  0  0  0  0  0
  -25.9170  -34.9750   23.4160 C   0  0  0  0  0  0  0  0  0  0  0  0
  -26.5970  -34.8700   22.3910 O   0  0  0  0  0  0  0  0  0  0  0  0
  -24.9790  -34.0810   24.9730 H   0  0  0  0  0  0  0  0  0  0  0  0
  -24.2000  -36.7700   23.0300 C   0  0  0  0  0  1  0  0  0  0  0  0
  -25.4240  -36.3650   23.8660 C   0  0  0  0  0  3  0  0  0  0  0  0
  -27.5420  -37.2460   24.7390 C   0  0  0  0  0  1  0  0  0  0  0  0
  -26.4610  -37.4150   23.7730 N   0  0  0  0  0  0  0  0  0  0  0  0
  -26.0540  -38.3360   23.9100 H   0  0  0  0  0  0  0  0  0  0  0  0
  1  3  1  0
  2  4  2  0
  2  5  1  0
  4  6  1  0
  5  1  2  0
  6  3  2  0
  7  9  1  0
  8  7  1  0
  8 10  1  0
  9 11  1  0
 10  5  1  0
 10 11  1  0
 11 20  1  0
 12 20  1  0
 13 18  1  0
 14 15  1  0
 14 13  1  0
 16 15  1  0
 16 25  1  0
 16 17  1  0
 18 12  1  0
 18 17  1  0
 19 12  2  0
 20 21  1  0
 22 23  2  0
 23 42  1  0
 24 23  1  0
 24 27  1  0
 25 22  1  0
 25 26  1  0
 26 24  2  0
 27 28  1  0
 28 29  2  0
 30 33  1  0
 30 29  1  0
 31 30  2  0
 32 31  1  0
 32 27  2  0
 33 34  1  0
 34 35  1  0
 35 36  2  0
 37 36  1  0
 37 41  1  0
 38 37  2  0
 39 34  2  0
 39 38  1  0
 40 39  1  0
 42 43  1  0
 43 46  1  0
 43 45  1  0
 44 42  2  0
 47 48  1  0
 47 22  1  0
 49 47  1  0
 50  6  1  0
 50 51  1  0
 52 53  1  0
 52 51  1  0
 54 65  2  0
 55 53  1  0
 55 60  1  0
 56 64  1  0
 56 66  1  0
 57 63  1  0
 57 59  1  0
 58 64  1  0
 59 58  1  0
 60 59  2  0
 61 62  1  0
 61 55  2  0
 62 57  2  0
 63 56  1  0
 64 54  1  0
 66 68  2  0
 67 66  1  0
 69 67  1  0
 70 79  2  0
 70 75  1  0
 71 67  1  0
 71 75  1  0
 72 71  1  0
 73 74  1  0
 73 72  1  0
 74 70  1  0
 75 76  2  0
 76 77  1  0
 78 77  2  0
 79 78  1  0
 80 54  1  0
 80 85  1  0
 80 81  1  0
 81 84  1  1
 81 82  1  0
 83 81  1  0
 85 88  1  0
 86 90  1  0
 86 85  1  0
 87 86  2  0
 90 89  1  0
 92 90  1  0
 92 93  1  0
 92 91  1  0
M  ISO  4  12 100  20 100  52 101  53 101
M  END
>  <TORSDO>  (13) 
F 20

>  <SCORE>  (13) 
-14.053

>  <name>  (13) 
12

>  <ligand_id>  (13) 
12

>  <original_smiles>  (13) 
[H]c1c([H])c([H])c2c(c1[H])C([H])([H])C([H])([H])C([H])([H])C2([H])N([H])C(=O)C1([H])N(C(=O)C([H])(N([H])C(=O)C([H])(N([H])C([H])([H])[H])C([H])([H])[H])C(C([H])([H])[H])(C([H])([H])[H])C([H])([H])[H])C([H])([H])c2c([H])c(OC([H])([H])C([H])([H])C([H])([H])c3c([H])c([H])c(C4([H])C([H])([H])C([H])([H])C([H])([H])C4([H])N([H])C(=O)N4C([H])([H])C([H])([H])C([H])([H])C([H])(n5nc(-c6c([H])c([H])c(Oc7c([H])c([H])c(F)c([H])c7F)c([H])c6[H])c(C(=O)N([H])[H])c5N([H])[H])C4([H])[H])c([H])c3[H])c([H])c([H])c2C1([H])[H]

>  <smiles>  (13) 
[H]c1c([H])c([H])c2c(c1[H])C([H])([H])C([H])([H])C([H])([H])C2([H])N([H])C(=O)C1([H])N(C(=O)C([H])(N([H])C(=O)C([H])(N([H])C([H])([H])[H])C([H])([H])[H])C(C([H])([H])[H])(C([H])([H])[H])C([H])([H])[H])C([H])([H])c2c([H])c(OC([H])([H])C([H])([H])C([H])([H])c3c([H])c([H])c(C4([H])C([H])([H])C([H])([H])C([H])([H])C4([H])N([H])C(=O)N4C([H])([H])C([H])([H])C([H])([H])C([H])(n5nc(-c6c([H])c([H])c(Oc7c([H])c([H])c(F)c([H])c7F)c([H])c6[H])c(C(=O)N([H])[H])c5N([H])[H])C4([H])[H])c([H])c3[H])c([H])c([H])c2C1([H])[H]

$$$$
13:0:0
     RDKit          3D

 97106  0  0  1  0  0  0  0  0999 V2000
  -29.4360  -17.8960   16.4960 C   0  0  0  0  0  3  0  0  0  0  0  0
  -30.6800  -17.2930   16.7480 C   0  0  0  0  0  3  0  0  0  0  0  0
  -28.6360  -18.3110   17.5750 C   0  0  0  0  0  3  0  0  0  0  0  0
  -31.1180  -17.1020   18.0740 C   0  0  0  0  0  3  0  0  0  0  0  0
  -29.0870  -18.1440   18.9000 C   0  0  0  0  0  0  0  0  0  0  0  0
  -30.3380  -17.5300   19.1770 C   0  0  0  0  0  0  0  0  0  0  0  0
  -30.1520  -18.3770   21.6040 C   0  0  0  0  0  0  0  0  0  0  0  0
  -28.2710  -18.7070   20.0440 C   0  0  0  0  0  2  0  0  0  0  0  0
  -29.1920  -19.4450   21.0350 C   0  0  0  0  0  3  0  0  0  0  0  0
  -30.8520  -17.3600   20.6340 C   0  0  2  0  0  0  0  0  0  0  0  0
  -32.3600  -17.7330   20.7200 C   0  0  0  0  0  1  0  0  0  0  0  0
  -30.3660  -18.3390   22.8200 O   0  0  0  0  0  0  0  0  0  0  0  0
  -30.5590  -15.9000   21.1690 C   0  0  0  0  0  2  0  0  0  0  0  0
  -31.2250  -14.6720   20.4760 C   0  0  0  0  0  0  0  0  0  0  0  0
  -30.8810  -12.5510   19.2530 C   0  0  0  0  0  2  0  0  0  0  0  0
  -29.9630  -12.8260   18.0450 C   0  0  0  0  0  2  0  0  0  0  0  0
  -28.4760  -12.7320   18.4480 C   0  0  0  0  0  2  0  0  0  0  0  0
  -28.1530  -13.5350   19.7390 C   0  0  0  0  0  3  0  0  0  0  0  0
  -29.1860  -13.2360   20.8480 C   0  0  0  0  0  2  0  0  0  0  0  0
  -30.5230  -13.5170   20.3040 N   0  0  0  0  0  0  0  0  0  0  0  0
  -32.3660  -14.7870   20.0230 O   0  0  0  0  0  0  0  0  0  0  0  0
  -25.7600  -14.2050   20.4020 C   0  0  0  0  0  0  0  0  0  0  0  0
  -24.6690  -13.4610   20.7640 C   0  0  0  0  0  0  0  0  0  0  0  0
  -25.0990  -12.0990   20.7520 C   0  0  0  0  0  0  0  0  0  0  0  0
  -26.7850  -13.2960   20.1930 N   0  0  0  0  0  0  0  0  0  0  0  0
  -26.3900  -12.0260   20.4620 N   0  0  0  0  0  0  0  0  0  0  0  0
  -24.3400  -10.8560   20.9420 C   0  0  0  0  0  0  0  0  0  0  0  0
  -24.7250   -9.8940   21.9000 C   0  0  0  0  0  3  0  0  0  0  0  0
  -23.9670   -8.7170   22.0780 C   0  0  0  0  0  3  0  0  0  0  0  0
  -22.8110   -8.4900   21.2950 C   0  0  0  0  0  0  0  0  0  0  0  0
  -22.4440   -9.4410   20.3290 C   0  0  0  0  0  3  0  0  0  0  0  0
  -23.2010  -10.6110   20.1490 C   0  0  0  0  0  3  0  0  0  0  0  0
  -22.0250   -7.3660   21.3810 O   0  0  0  0  0  0  0  0  0  0  0  0
  -21.9030   -6.6640   22.5530 C   0  0  0  0  0  0  0  0  0  0  0  0
  -21.4420   -7.2720   23.7420 C   0  0  0  0  0  3  0  0  0  0  0  0
  -21.2620   -6.4950   24.9040 C   0  0  0  0  0  3  0  0  0  0  0  0
  -21.5330   -5.1140   24.8810 C   0  0  0  0  0  0  0  0  0  0  0  0
  -21.9870   -4.5080   23.6960 C   0  0  0  0  0  3  0  0  0  0  0  0
  -22.1680   -5.2810   22.5350 C   0  0  0  0  0  0  0  0  0  0  0  0
  -22.5830   -4.6870   21.3910 F   0  0  0  0  0  0  0  0  0  0  0  0
  -21.3550   -4.3650   25.9950 F   0  0  0  0  0  0  0  0  0  0  0  0
  -23.2790  -13.9740   21.0110 C   0  0  0  0  0  0  0  0  0  0  0  0
  -22.5290  -13.3150   21.8870 N   0  0  0  0  0  0  0  0  0  0  0  0
  -22.8680  -14.9950   20.4610 O   0  0  0  0  0  0  0  0  0  0  0  0
  -22.8750  -12.4940   22.3640 H   0  0  0  0  0  0  0  0  0  0  0  0
  -21.5970  -13.6420   22.0950 H   0  0  0  0  0  0  0  0  0  0  0  0
  -25.9590  -15.5690   20.2160 N   0  0  0  0  0  0  0  0  0  0  0  0
  -25.1960  -16.2330   20.2920 H   0  0  0  0  0  0  0  0  0  0  0  0
  -26.8160  -15.9770   19.8590 H   0  0  0  0  0  0  0  0  0  0  0  0
  -29.9690  -20.6930   20.4860 C   0  0  0  0  0  2  0  0  0  0  0  0
  -29.1490  -21.8770   19.9100 C   0  0  0  0  0  0  0  0  0  0  0  0
  -29.4180  -23.1200   20.3620 N   0  0  0  0  0  0  0  0  0  0  0  0
  -28.3410  -21.6870   18.9990 O   0  0  0  0  0  0  0  0  0  0  0  0
  -30.0580  -23.1940   21.1430 H   0  0  0  0  0  0  0  0  0  0  0  0
  -29.0450  -24.3910   19.6990 C   0  0  0  0  0  2  0  0  0  0  0  0
  -28.6940  -25.5330   20.6910 C   0  0  0  0  0  2  0  0  0  0  0  0
  -28.6630  -26.8470   20.0960 O   0  0  0  0  0  0  0  0  0  0  0  0
  -24.5790  -31.8550   23.1540 C   0  0  0  0  0  0  0  0  0  0  0  0
  -27.4590  -27.5220   20.1110 C   0  0  0  0  0  0  0  0  0  0  0  0
  -23.4650  -30.4220   21.4750 C   0  0  0  0  0  3  0  0  0  0  0  0
  -25.0070  -28.9360   20.0850 C   0  0  0  0  0  0  0  0  0  0  0  0
  -25.9810  -30.8720   21.3360 C   0  0  0  0  0  2  0  0  0  0  0  0
  -26.1330  -29.5070   20.6890 C   0  0  0  0  0  0  0  0  0  0  0  0
  -27.3640  -28.8120   20.6870 C   0  0  0  0  0  3  0  0  0  0  0  0
  -26.3110  -26.9580   19.5150 C   0  0  0  0  0  3  0  0  0  0  0  0
  -25.0890  -27.6610   19.4980 C   0  0  0  0  0  3  0  0  0  0  0  0
  -23.7320  -29.7490   20.1030 C   0  0  0  0  0  2  0  0  0  0  0  0
  -24.6930  -31.0650   22.0490 N   0  0  0  0  0  0  0  0  0  0  0  0
  -23.4770  -32.0850   23.6690 O   0  0  0  0  0  0  0  0  0  0  0  0
  -22.8200  -29.3780   22.4180 C   0  0  0  0  0  0  0  0  0  0  0  0
  -21.4970  -29.1910   22.2880 N   0  0  0  0  0  0  0  0  0  0  0  0
  -23.5100  -28.7400   23.2160 O   0  0  0  0  0  0  0  0  0  0  0  0
  -20.9990  -29.7630   21.6220 H   0  0  0  0  0  0  0  0  0  0  0  0
  -18.1290  -27.9700   22.7780 C   0  0  0  0  0  0  0  0  0  0  0  0
  -20.6880  -28.2250   23.0360 C   0  0  0  0  0  3  0  0  0  0  0  0
  -20.7890  -26.8130   22.4150 C   0  0  0  0  0  2  0  0  0  0  0  0
  -19.6820  -26.5190   21.3990 C   0  0  0  0  0  2  0  0  0  0  0  0
  -18.3050  -26.6440   22.0570 C   0  0  0  0  0  2  0  0  0  0  0  0
  -19.2500  -28.7220   23.2230 C   0  0  0  0  0  0  0  0  0  0  0  0
  -19.0330  -29.9650   23.8550 C   0  0  0  0  0  3  0  0  0  0  0  0
  -17.7300  -30.4590   24.0440 C   0  0  0  0  0  3  0  0  0  0  0  0
  -16.6240  -29.7060   23.6180 C   0  0  0  0  0  3  0  0  0  0  0  0
  -16.8240  -28.4630   22.9910 C   0  0  0  0  0  3  0  0  0  0  0  0
  -25.8270  -32.5280   23.8120 C   0  0  0  0  0  3  0  0  0  0  0  0
  -25.4630  -33.9100   24.1490 N   0  0  0  0  0  0  0  0  0  0  0  0
  -25.7770  -34.9810   23.4100 C   0  0  0  0  0  0  0  0  0  0  0  0
  -26.4720  -34.9130   22.3920 O   0  0  0  0  0  0  0  0  0  0  0  0
  -24.8400  -34.0360   24.9350 H   0  0  0  0  0  0  0  0  0  0  0  0
  -23.9900  -36.7120   23.0500 C   0  0  0  0  0  1  0  0  0  0  0  0
  -25.2350  -36.3460   23.8750 C   0  0  0  0  0  3  0  0  0  0  0  0
  -27.3270  -37.2960   24.7410 C   0  0  0  0  0  1  0  0  0  0  0  0
  -26.2300  -37.4370   23.7860 N   0  0  0  0  0  0  0  0  0  0  0  0
  -25.7900  -38.3390   23.9450 H   0  0  0  0  0  0  0  0  0  0  0  0
  -26.3440  -31.7620   25.0900 C   0  0  1  0  0  0  0  0  0  0  0  0
  -25.2380  -31.4830   26.1330 C   0  0  0  0  0  1  0  0  0  0  0  0
  -26.9760  -30.4080   24.6930 C   0  0  0  0  0  1  0  0  0  0  0  0
  -27.4570  -32.5840   25.7810 C   0  0  0  0  0  1  0  0  0  0  0  0
  1  2  2  0
  1  3  1  0
  2  4  1  0
  3  5  2  0
  4  6  2  0
  5  6  1  0
  5  8  1  0
  6 10  1  0
  7 12  2  0
  8  9  1  0
  9 50  1  0
  9  7  1  0
 10 11  1  6
 10 13  1  0
 10  7  1  0
 14 13  1  0
 15 20  1  0
 16 17  1  0
 16 15  1  0
 18 17  1  0
 18 25  1  0
 18 19  1  0
 20 14  1  0
 20 19  1  0
 21 14  2  0
 22 23  2  0
 23 42  1  0
 24 23  1  0
 24 27  1  0
 25 22  1  0
 25 26  1  0
 26 24  2  0
 27 28  1  0
 28 29  2  0
 30 33  1  0
 30 29  1  0
 31 30  2  0
 32 31  1  0
 32 27  2  0
 33 34  1  0
 34 35  1  0
 35 36  2  0
 37 36  1  0
 37 41  1  0
 38 37  2  0
 39 34  2  0
 39 38  1  0
 40 39  1  0
 42 43  1  0
 43 46  1  0
 43 45  1  0
 44 42  2  0
 47 48  1  0
 47 22  1  0
 49 47  1  0
 51 52  1  0
 51 50  1  0
 52 54  1  0
 53 51  2  0
 55 52  1  0
 55 56  1  0
 57 59  1  0
 57 56  1  0
 58 69  2  0
 59 64  1  0
 60 68  1  0
 60 70  1  0
 61 67  1  0
 61 63  1  0
 62 68  1  0
 63 62  1  0
 64 63  2  0
 65 59  2  0
 66 65  1  0
 66 61  2  0
 67 60  1  0
 68 58  1  0
 70 72  2  0
 71 70  1  0
 73 71  1  0
 74 83  2  0
 74 79  1  0
 75 71  1  0
 75 79  1  0
 76 75  1  0
 77 78  1  0
 77 76  1  0
 78 74  1  0
 79 80  2  0
 80 81  1  0
 82 81  2  0
 83 82  1  0
 84 58  1  0
 84 85  1  0
 84 94  1  0
 85 88  1  0
 86 90  1  0
 86 85  1  0
 87 86  2  0
 90 89  1  0
 92 90  1  0
 92 93  1  0
 92 91  1  0
 94 97  1  1
 94 95  1  0
 96 94  1  0
M  ISO  4  13 100  14 100  56 101  57 101
M  END
>  <TORSDO>  (14) 
F 21

>  <SCORE>  (14) 
-11.860

>  <name>  (14) 
13

>  <ligand_id>  (14) 
13

>  <original_smiles>  (14) 
[H]c1c([H])c([H])c2c(c1[H])C([H])([H])C([H])([H])C([H])([H])C2([H])N([H])C(=O)C1([H])N(C(=O)C([H])(N([H])C(=O)C([H])(N([H])C([H])([H])[H])C([H])([H])[H])C(C([H])([H])[H])(C([H])([H])[H])C([H])([H])[H])C([H])([H])c2c([H])c(OC([H])([H])C([H])([H])N([H])C(=O)C([H])([H])C3([H])C(=O)C(C([H])([H])[H])(C([H])([H])C(=O)N4C([H])([H])C([H])([H])C([H])([H])C([H])(n5nc(-c6c([H])c([H])c(Oc7c([H])c([H])c(F)c([H])c7F)c([H])c6[H])c(C(=O)N([H])[H])c5N([H])[H])C4([H])[H])c4c([H])c([H])c([H])c([H])c4C3([H])[H])c([H])c([H])c2C1([H])[H]

>  <smiles>  (14) 
[H]c1c([H])c([H])c2c(c1[H])C([H])([H])C([H])([H])C([H])([H])C2([H])N([H])C(=O)C1([H])N(C(=O)C([H])(N([H])C(=O)C([H])(N([H])C([H])([H])[H])C([H])([H])[H])C(C([H])([H])[H])(C([H])([H])[H])C([H])([H])[H])C([H])([H])c2c([H])c(OC([H])([H])C([H])([H])N([H])C(=O)C([H])([H])C3([H])C(=O)C(C([H])([H])[H])(C([H])([H])C(=O)N4C([H])([H])C([H])([H])C([H])([H])C([H])(n5nc(-c6c([H])c([H])c(Oc7c([H])c([H])c(F)c([H])c7F)c([H])c6[H])c(C(=O)N([H])[H])c5N([H])[H])C4([H])[H])c4c([H])c([H])c([H])c([H])c4C3([H])[H])c([H])c([H])c2C1([H])[H]

$$$$
14:0:0
     RDKit          3D

 94102  0  0  1  0  0  0  0  0999 V2000
  -24.4650  -20.2750   19.6400 C   0  0  0  0  0  3  0  0  0  0  0  0
  -25.7600  -19.9050   19.2270 C   0  0  0  0  0  3  0  0  0  0  0  0
  -23.6510  -21.0430   18.7760 C   0  0  0  0  0  3  0  0  0  0  0  0
  -25.4580  -21.1050   17.1370 C   0  0  0  0  0  3  0  0  0  0  0  0
  -26.2520  -20.2790   17.9640 C   0  0  0  0  0  0  0  0  0  0  0  0
  -24.1420  -21.4750   17.5280 C   0  0  0  0  0  0  0  0  0  0  0  0
  -27.6430  -19.9250   17.5630 C   0  0  0  0  0  0  0  0  0  0  0  0
  -28.3340  -20.6610   16.8520 O   0  0  0  0  0  0  0  0  0  0  0  0
  -28.2110  -18.5890   18.0290 C   0  0  0  0  0  2  0  0  0  0  0  0
  -28.9330  -17.8620   16.8660 C   0  0  0  0  0  2  0  0  0  0  0  0
  -30.3680  -17.3450   17.1940 C   0  0  0  0  0  2  0  0  0  0  0  0
  -30.3310  -16.4510   18.4430 C   0  0  0  0  0  2  0  0  0  0  0  0
  -31.5690  -15.6740   18.9740 C   0  0  0  0  0  0  0  0  0  0  0  0
  -32.0110  -13.3720   19.7480 C   0  0  0  0  0  2  0  0  0  0  0  0
  -31.2210  -12.4260   18.8120 C   0  0  0  0  0  2  0  0  0  0  0  0
  -29.7470  -12.2630   19.2580 C   0  0  0  0  0  2  0  0  0  0  0  0
  -29.0670  -13.6270   19.5520 C   0  0  0  0  0  3  0  0  0  0  0  0
  -29.9860  -14.4600   20.4810 C   0  0  0  0  0  2  0  0  0  0  0  0
  -31.2820  -14.6410   19.8120 N   0  0  0  0  0  0  0  0  0  0  0  0
  -32.6890  -15.8350   18.4710 O   0  0  0  0  0  0  0  0  0  0  0  0
  -26.8230  -14.4900   20.4580 C   0  0  0  0  0  0  0  0  0  0  0  0
  -25.6790  -13.8240   20.8280 C   0  0  0  0  0  0  0  0  0  0  0  0
  -25.9610  -12.4390   20.6680 C   0  0  0  0  0  0  0  0  0  0  0  0
  -27.7220  -13.4990   20.0960 N   0  0  0  0  0  0  0  0  0  0  0  0
  -27.2120  -12.2600   20.2790 N   0  0  0  0  0  0  0  0  0  0  0  0
  -25.0940  -11.2660   20.8110 C   0  0  0  0  0  0  0  0  0  0  0  0
  -25.3780  -10.2520   21.7510 C   0  0  0  0  0  3  0  0  0  0  0  0
  -24.5230   -9.1390   21.8760 C   0  0  0  0  0  3  0  0  0  0  0  0
  -23.3730   -9.0340   21.0580 C   0  0  0  0  0  0  0  0  0  0  0  0
  -23.1080  -10.0340   20.1090 C   0  0  0  0  0  3  0  0  0  0  0  0
  -23.9640  -11.1410   19.9790 C   0  0  0  0  0  3  0  0  0  0  0  0
  -22.4980   -7.9770   21.0920 O   0  0  0  0  0  0  0  0  0  0  0  0
  -22.2220   -7.3100   22.2580 C   0  0  0  0  0  0  0  0  0  0  0  0
  -21.6470   -7.9630   23.3700 C   0  0  0  0  0  3  0  0  0  0  0  0
  -21.3130   -7.2270   24.5240 C   0  0  0  0  0  3  0  0  0  0  0  0
  -21.5460   -5.8380   24.5670 C   0  0  0  0  0  0  0  0  0  0  0  0
  -22.1180   -5.1860   23.4590 C   0  0  0  0  0  3  0  0  0  0  0  0
  -22.4510   -5.9220   22.3070 C   0  0  0  0  0  0  0  0  0  0  0  0
  -22.9820   -5.2860   21.2340 F   0  0  0  0  0  0  0  0  0  0  0  0
  -21.2210   -5.1260   25.6710 F   0  0  0  0  0  0  0  0  0  0  0  0
  -24.3720  -14.4530   21.2180 C   0  0  0  0  0  0  0  0  0  0  0  0
  -23.6120  -13.7870   22.0880 N   0  0  0  0  0  0  0  0  0  0  0  0
  -24.0360  -15.5580   20.8020 O   0  0  0  0  0  0  0  0  0  0  0  0
  -23.9030  -12.8880   22.4480 H   0  0  0  0  0  0  0  0  0  0  0  0
  -22.7320  -14.1820   22.3930 H   0  0  0  0  0  0  0  0  0  0  0  0
  -27.1410  -15.8390   20.3770 N   0  0  0  0  0  0  0  0  0  0  0  0
  -26.4450  -16.5540   20.5700 H   0  0  0  0  0  0  0  0  0  0  0  0
  -28.0070  -16.2130   20.0080 H   0  0  0  0  0  0  0  0  0  0  0  0
  -23.2350  -22.3550   16.6580 C   0  0  0  0  0  2  0  0  0  0  0  0
  -23.7710  -22.8280   15.2780 C   0  0  0  0  0  2  0  0  0  0  0  0
  -24.3530  -24.2620   15.2710 C   0  0  0  0  0  2  0  0  0  0  0  0
  -25.7520  -24.4400   15.9490 C   0  0  0  0  0  2  0  0  0  0  0  0
  -26.3080  -25.8760   15.7430 C   0  0  0  0  0  2  0  0  0  0  0  0
  -26.8230  -26.5550   16.9110 O   0  0  0  0  0  0  0  0  0  0  0  0
  -25.3100  -29.6520   23.1850 C   0  0  0  0  0  0  0  0  0  0  0  0
  -25.9480  -27.3230   17.6620 C   0  0  0  0  0  0  0  0  0  0  0  0
  -23.4860  -29.5970   21.5220 C   0  0  0  0  0  3  0  0  0  0  0  0
  -24.1650  -28.9350   19.1630 C   0  0  0  0  0  0  0  0  0  0  0  0
  -25.9430  -29.6130   20.7800 C   0  0  0  0  0  2  0  0  0  0  0  0
  -25.5050  -28.8330   19.5550 C   0  0  0  0  0  0  0  0  0  0  0  0
  -26.4050  -28.0210   18.8160 C   0  0  0  0  0  3  0  0  0  0  0  0
  -24.5900  -27.4590   17.2940 C   0  0  0  0  0  3  0  0  0  0  0  0
  -23.7000  -28.2470   18.0340 C   0  0  0  0  0  3  0  0  0  0  0  0
  -23.2640  -29.8060   20.0040 C   0  0  0  0  0  2  0  0  0  0  0  0
  -24.9470  -29.5980   21.8770 N   0  0  0  0  0  0  0  0  0  0  0  0
  -24.4570  -29.7480   24.0790 O   0  0  0  0  0  0  0  0  0  0  0  0
  -22.7410  -28.3120   21.9750 C   0  0  0  0  0  0  0  0  0  0  0  0
  -21.3980  -28.3460   21.9020 N   0  0  0  0  0  0  0  0  0  0  0  0
  -23.3590  -27.3220   22.3780 O   0  0  0  0  0  0  0  0  0  0  0  0
  -20.9550  -29.2030   21.6130 H   0  0  0  0  0  0  0  0  0  0  0  0
  -17.9460  -27.2560   21.7280 C   0  0  0  0  0  0  0  0  0  0  0  0
  -20.4710  -27.2660   22.2600 C   0  0  0  0  0  3  0  0  0  0  0  0
  -20.5440  -26.0960   21.2550 C   0  0  0  0  0  2  0  0  0  0  0  0
  -19.5590  -26.2430   20.1040 C   0  0  0  0  0  2  0  0  0  0  0  0
  -18.1460  -26.1810   20.6680 C   0  0  0  0  0  2  0  0  0  0  0  0
  -19.0430  -27.7910   22.4690 C   0  0  0  0  0  0  0  0  0  0  0  0
  -18.8190  -28.8290   23.3970 C   0  0  0  0  0  3  0  0  0  0  0  0
  -17.5140  -29.3310   23.5880 C   0  0  0  0  0  3  0  0  0  0  0  0
  -16.4310  -28.7750   22.8800 C   0  0  0  0  0  3  0  0  0  0  0  0
  -16.6400  -27.7360   21.9590 C   0  0  0  0  0  3  0  0  0  0  0  0
  -26.8080  -29.6330   23.6190 C   0  0  0  0  0  3  0  0  0  0  0  0
  -27.2640  -28.2400   24.2030 C   0  0  1  0  0  0  0  0  0  0  0  0
  -26.3470  -27.7150   25.3330 C   0  0  0  0  0  1  0  0  0  0  0  0
  -27.3090  -27.1660   23.0900 C   0  0  0  0  0  1  0  0  0  0  0  0
  -28.6970  -28.3490   24.7670 C   0  0  0  0  0  1  0  0  0  0  0  0
  -27.0050  -30.7090   24.6010 N   0  0  0  0  0  0  0  0  0  0  0  0
  -27.6190  -31.8700   24.3470 C   0  0  0  0  0  0  0  0  0  0  0  0
  -28.1430  -32.1200   23.2580 O   0  0  0  0  0  0  0  0  0  0  0  0
  -26.5720  -30.5800   25.5040 H   0  0  0  0  0  0  0  0  0  0  0  0
  -26.6180  -34.0140   25.1810 C   0  0  0  0  0  1  0  0  0  0  0  0
  -27.6520  -32.9150   25.4710 C   0  0  0  0  0  3  0  0  0  0  0  0
  -29.9720  -32.6060   26.2080 C   0  0  0  0  0  1  0  0  0  0  0  0
  -28.9810  -33.5270   25.6680 N   0  0  0  0  0  0  0  0  0  0  0  0
  -28.9190  -34.3260   26.2920 H   0  0  0  0  0  0  0  0  0  0  0  0
  2  1  1  0
  3  1  2  0
  4  6  2  0
  4  5  1  0
  5  2  2  0
  6  3  1  0
  7  5  1  0
  7  9  1  0
  8  7  2  0
 10 11  1  0
 10  9  1  0
 11 12  1  0
 12 13  1  0
 13 19  1  0
 14 19  1  0
 15 16  1  0
 15 14  1  0
 17 16  1  0
 17 24  1  0
 17 18  1  0
 19 18  1  0
 20 13  2  0
 21 22  2  0
 22 41  1  0
 23 26  1  0
 23 22  1  0
 24 25  1  0
 24 21  1  0
 25 23  2  0
 26 27  1  0
 27 28  2  0
 29 32  1  0
 29 28  1  0
 30 29  2  0
 31 30  1  0
 31 26  2  0
 32 33  1  0
 33 38  2  0
 33 34  1  0
 34 35  2  0
 35 36  1  0
 36 40  1  0
 37 36  2  0
 38 37  1  0
 39 38  1  0
 41 42  1  0
 42 45  1  0
 42 44  1  0
 43 41  2  0
 46 21  1  0
 46 47  1  0
 48 46  1  0
 49  6  1  0
 50 49  1  0
 51 50  1  0
 51 52  1  0
 53 52  1  0
 53 54  1  0
 54 56  1  0
 55 66  2  0
 56 61  1  0
 57 65  1  0
 57 67  1  0
 58 60  1  0
 58 64  1  0
 59 65  1  0
 60 59  1  0
 61 60  2  0
 62 56  2  0
 62 63  1  0
 63 58  2  0
 64 57  1  0
 65 55  1  0
 67 69  2  0
 68 67  1  0
 70 68  1  0
 71 80  2  0
 71 76  1  0
 72 68  1  0
 72 76  1  0
 73 72  1  0
 74 75  1  0
 74 73  1  0
 75 71  1  0
 76 77  2  0
 77 78  1  0
 79 78  2  0
 80 79  1  0
 81 55  1  0
 81 82  1  0
 81 86  1  0
 82 85  1  1
 82 83  1  0
 84 82  1  0
 86 89  1  0
 87 86  1  0
 87 91  1  0
 88 87  2  0
 91 90  1  0
 91 93  1  0
 93 92  1  0
 93 94  1  0
M  ISO  4  12 100  13 100  53 101  54 101
M  END
>  <TORSDO>  (15) 
F 26

>  <SCORE>  (15) 
-2.698

>  <name>  (15) 
14

>  <ligand_id>  (15) 
14

>  <original_smiles>  (15) 
[H]c1c([H])c([H])c2c(c1[H])C([H])([H])C([H])([H])C([H])([H])C2([H])N([H])C(=O)C1([H])N(C(=O)C([H])(N([H])C(=O)C([H])(N([H])C([H])([H])[H])C([H])([H])[H])C(C([H])([H])[H])(C([H])([H])[H])C([H])([H])[H])C([H])([H])c2c([H])c(OC([H])([H])C([H])([H])C([H])([H])C([H])([H])C([H])([H])c3c([H])c([H])c([H])c(C(=O)C([H])([H])C([H])([H])C([H])([H])C([H])([H])C(=O)N4C([H])([H])C([H])([H])C([H])([H])C([H])(n5nc(-c6c([H])c([H])c(Oc7c([H])c([H])c(F)c([H])c7F)c([H])c6[H])c(C(=O)N([H])[H])c5N([H])[H])C4([H])[H])c3[H])c([H])c([H])c2C1([H])[H]

>  <smiles>  (15) 
[H]c1c([H])c([H])c2c(c1[H])C([H])([H])C([H])([H])C([H])([H])C2([H])N([H])C(=O)C1([H])N(C(=O)C([H])(N([H])C(=O)C([H])(N([H])C([H])([H])[H])C([H])([H])[H])C(C([H])([H])[H])(C([H])([H])[H])C([H])([H])[H])C([H])([H])c2c([H])c(OC([H])([H])C([H])([H])C([H])([H])C([H])([H])C([H])([H])c3c([H])c([H])c([H])c(C(=O)C([H])([H])C([H])([H])C([H])([H])C([H])([H])C(=O)N4C([H])([H])C([H])([H])C([H])([H])C([H])(n5nc(-c6c([H])c([H])c(Oc7c([H])c([H])c(F)c([H])c7F)c([H])c6[H])c(C(=O)N([H])[H])c5N([H])[H])C4([H])[H])c3[H])c([H])c([H])c2C1([H])[H]

$$$$
15:0:0
     RDKit          3D

 97106  0  0  1  0  0  0  0  0999 V2000
  -29.1210  -21.2430   19.8330 C   0  0  0  0  0  3  0  0  0  0  0  0
  -27.8200  -21.5260   19.4130 C   0  0  0  0  0  3  0  0  0  0  0  0
  -29.6630  -23.6420   19.8310 C   0  0  0  0  0  3  0  0  0  0  0  0
  -30.0640  -22.2820   19.9970 C   0  0  0  0  0  0  0  0  0  0  0  0
  -28.3260  -23.9370   19.4580 C   0  0  0  0  0  0  0  0  0  0  0  0
  -27.4410  -22.8520   19.1960 C   0  0  0  0  0  0  0  0  0  0  0  0
  -26.1820  -23.0790   18.7420 F   0  0  0  0  0  0  0  0  0  0  0  0
  -31.4900  -21.8860   20.3510 C   0  0  0  0  0  2  0  0  0  0  0  0
  -33.9330  -20.3940   18.2890 C   0  0  0  0  0  2  0  0  0  0  0  0
  -32.8930  -21.5030   18.1310 C   0  0  0  0  0  2  0  0  0  0  0  0
  -33.4120  -20.1610   19.7160 C   0  0  0  0  0  3  0  0  0  0  0  0
  -32.1220  -20.9150   19.3300 C   0  0  0  0  0  3  0  0  0  0  0  0
  -33.3520  -18.6650   20.0830 C   0  0  0  0  0  0  0  0  0  0  0  0
  -32.2260  -18.1240   20.5820 N   0  0  0  0  0  0  0  0  0  0  0  0
  -34.3790  -17.9980   19.9430 O   0  0  0  0  0  0  0  0  0  0  0  0
  -31.4090  -18.7130   20.6710 H   0  0  0  0  0  0  0  0  0  0  0  0
  -32.2080  -16.7770   21.1710 C   0  0  0  0  0  2  0  0  0  0  0  0
  -30.8090  -16.2120   21.5140 C   0  0  0  0  0  2  0  0  0  0  0  0
  -29.9100  -15.6510   20.3740 C   0  0  0  0  0  2  0  0  0  0  0  0
  -30.4390  -14.4070   19.6160 C   0  0  0  0  0  0  0  0  0  0  0  0
  -30.1180  -12.1320   18.6870 C   0  0  0  0  0  2  0  0  0  0  0  0
  -29.0380  -12.1200   17.5860 C   0  0  0  0  0  2  0  0  0  0  0  0
  -27.6240  -11.9870   18.1870 C   0  0  0  0  0  2  0  0  0  0  0  0
  -27.3740  -12.9520   19.3760 C   0  0  0  0  0  3  0  0  0  0  0  0
  -28.5540  -12.8800   20.3740 C   0  0  0  0  0  2  0  0  0  0  0  0
  -29.7920  -13.2040   19.6460 N   0  0  0  0  0  0  0  0  0  0  0  0
  -31.4270  -14.5830   18.9000 O   0  0  0  0  0  0  0  0  0  0  0  0
  -25.0780  -13.5610   20.3850 C   0  0  0  0  0  0  0  0  0  0  0  0
  -24.0590  -12.7930   20.8790 C   0  0  0  0  0  0  0  0  0  0  0  0
  -24.4980  -11.4380   20.7670 C   0  0  0  0  0  0  0  0  0  0  0  0
  -26.0850  -12.6780   20.0180 N   0  0  0  0  0  0  0  0  0  0  0  0
  -25.7430  -11.3950   20.3010 N   0  0  0  0  0  0  0  0  0  0  0  0
  -23.7900  -10.1780   21.0270 C   0  0  0  0  0  0  0  0  0  0  0  0
  -24.2950   -9.2210   21.9340 C   0  0  0  0  0  3  0  0  0  0  0  0
  -23.5870   -8.0250   22.1860 C   0  0  0  0  0  3  0  0  0  0  0  0
  -22.3560   -7.7780   21.5310 C   0  0  0  0  0  0  0  0  0  0  0  0
  -21.8690   -8.7230   20.6100 C   0  0  0  0  0  3  0  0  0  0  0  0
  -22.5780   -9.9100   20.3580 C   0  0  0  0  0  3  0  0  0  0  0  0
  -21.6120   -6.6350   21.6960 O   0  0  0  0  0  0  0  0  0  0  0  0
  -21.6220   -5.9320   22.8740 C   0  0  0  0  0  0  0  0  0  0  0  0
  -21.2540   -6.5250   24.1020 C   0  0  0  0  0  3  0  0  0  0  0  0
  -21.2140   -5.7450   25.2760 C   0  0  0  0  0  3  0  0  0  0  0  0
  -21.5310   -4.3750   25.2260 C   0  0  0  0  0  0  0  0  0  0  0  0
  -21.8920   -3.7820   24.0040 C   0  0  0  0  0  3  0  0  0  0  0  0
  -21.9360   -4.5580   22.8310 C   0  0  0  0  0  0  0  0  0  0  0  0
  -22.2630   -3.9760   21.6530 F   0  0  0  0  0  0  0  0  0  0  0  0
  -21.4870   -3.6250   26.3520 F   0  0  0  0  0  0  0  0  0  0  0  0
  -22.7120  -13.2750   21.3400 C   0  0  0  0  0  0  0  0  0  0  0  0
  -22.0940  -12.5720   22.2840 N   0  0  0  0  0  0  0  0  0  0  0  0
  -22.2200  -14.3150   20.9000 O   0  0  0  0  0  0  0  0  0  0  0  0
  -22.5030  -11.7280   22.6610 H   0  0  0  0  0  0  0  0  0  0  0  0
  -21.1980  -12.8760   22.6350 H   0  0  0  0  0  0  0  0  0  0  0  0
  -25.2350  -14.9320   20.1990 N   0  0  0  0  0  0  0  0  0  0  0  0
  -24.5080  -15.6050   20.4140 H   0  0  0  0  0  0  0  0  0  0  0  0
  -26.0520  -15.3500   19.7740 H   0  0  0  0  0  0  0  0  0  0  0  0
  -27.6850  -25.3220   19.2600 C   0  0  0  0  0  2  0  0  0  0  0  0
  -27.9770  -26.5720   19.9620 O   0  0  0  0  0  0  0  0  0  0  0  0
  -24.4700  -31.9720   23.2530 C   0  0  0  0  0  0  0  0  0  0  0  0
  -26.8810  -27.4610   19.9820 C   0  0  0  0  0  0  0  0  0  0  0  0
  -23.1770  -30.6140   21.6540 C   0  0  0  0  0  3  0  0  0  0  0  0
  -24.5450  -29.1000   20.1410 C   0  0  0  0  0  0  0  0  0  0  0  0
  -25.7170  -30.9000   21.3750 C   0  0  0  0  0  2  0  0  0  0  0  0
  -25.7480  -29.5420   20.7010 C   0  0  0  0  0  0  0  0  0  0  0  0
  -26.9200  -28.7280   20.6350 C   0  0  0  0  0  3  0  0  0  0  0  0
  -25.6410  -27.1110   19.3680 C   0  0  0  0  0  3  0  0  0  0  0  0
  -24.4880  -27.8810   19.4740 C   0  0  0  0  0  3  0  0  0  0  0  0
  -23.3240  -29.9800   20.2550 C   0  0  0  0  0  2  0  0  0  0  0  0
  -24.4760  -31.1730   22.1490 N   0  0  0  0  0  0  0  0  0  0  0  0
  -23.4150  -32.2580   23.8330 O   0  0  0  0  0  0  0  0  0  0  0  0
  -22.5470  -29.5810   22.6190 C   0  0  0  0  0  0  0  0  0  0  0  0
  -21.2270  -29.3620   22.4880 N   0  0  0  0  0  0  0  0  0  0  0  0
  -23.2410  -28.9830   23.4450 O   0  0  0  0  0  0  0  0  0  0  0  0
  -20.7270  -29.8960   21.7920 H   0  0  0  0  0  0  0  0  0  0  0  0
  -17.8920  -28.0320   22.9230 C   0  0  0  0  0  0  0  0  0  0  0  0
  -20.4250  -28.4200   23.2700 C   0  0  0  0  0  3  0  0  0  0  0  0
  -20.6140  -26.9730   22.7580 C   0  0  0  0  0  2  0  0  0  0  0  0
  -19.5630  -26.5580   21.7240 C   0  0  0  0  0  2  0  0  0  0  0  0
  -18.1540  -26.6650   22.3150 C   0  0  0  0  0  2  0  0  0  0  0  0
  -18.9580  -28.8640   23.3560 C   0  0  0  0  0  0  0  0  0  0  0  0
  -18.6610  -30.1400   23.8820 C   0  0  0  0  0  3  0  0  0  0  0  0
  -17.3300  -30.5850   23.9830 C   0  0  0  0  0  3  0  0  0  0  0  0
  -16.2780  -29.7510   23.5690 C   0  0  0  0  0  3  0  0  0  0  0  0
  -16.5580  -28.4770   23.0440 C   0  0  0  0  0  3  0  0  0  0  0  0
  -25.7890  -32.5760   23.8220 C   0  0  0  0  0  3  0  0  0  0  0  0
  -25.5130  -33.9730   24.1800 N   0  0  0  0  0  0  0  0  0  0  0  0
  -25.8270  -35.0290   23.4190 C   0  0  0  0  0  0  0  0  0  0  0  0
  -26.4500  -34.9290   22.3580 O   0  0  0  0  0  0  0  0  0  0  0  0
  -24.9630  -34.1250   25.0130 H   0  0  0  0  0  0  0  0  0  0  0  0
  -24.1140  -36.8480   23.1510 C   0  0  0  0  0  1  0  0  0  0  0  0
  -25.3780  -36.4170   23.9110 C   0  0  0  0  0  3  0  0  0  0  0  0
  -27.5540  -37.2570   24.6750 C   0  0  0  0  0  1  0  0  0  0  0  0
  -26.4210  -37.4560   23.7750 N   0  0  0  0  0  0  0  0  0  0  0  0
  -26.0360  -38.3800   23.9500 H   0  0  0  0  0  0  0  0  0  0  0  0
  -26.3490  -31.7790   25.0620 C   0  0  1  0  0  0  0  0  0  0  0  0
  -25.2990  -31.5350   26.1710 C   0  0  0  0  0  1  0  0  0  0  0  0
  -26.9010  -30.4000   24.6270 C   0  0  0  0  0  1  0  0  0  0  0  0
  -27.5350  -32.5510   25.6880 C   0  0  0  0  0  1  0  0  0  0  0  0
  1  4  1  0
  2  1  2  0
  3  4  2  0
  4  8  1  0
  5  3  1  0
  6  2  1  0
  6  5  2  0
  7  6  1  0
  9 11  1  0
 10  9  1  0
 10 12  1  0
 11 13  1  0
 12 11  1  0
 12  8  1  0
 13 14  1  0
 14 16  1  0
 14 17  1  0
 15 13  2  0
 17 18  1  0
 19 18  1  0
 20 26  1  0
 20 19  1  0
 21 26  1  0
 22 23  1  0
 22 21  1  0
 24 23  1  0
 24 31  1  0
 24 25  1  0
 26 25  1  0
 27 20  2  0
 28 29  2  0
 29 48  1  0
 30 29  1  0
 30 33  1  0
 31 32  1  0
 31 28  1  0
 32 30  2  0
 33 34  1  0
 34 35  2  0
 36 39  1  0
 36 35  1  0
 37 36  2  0
 38 37  1  0
 38 33  2  0
 39 40  1  0
 40 41  1  0
 41 42  2  0
 43 42  1  0
 43 47  1  0
 44 43  2  0
 45 40  2  0
 45 44  1  0
 46 45  1  0
 48 49  1  0
 49 52  1  0
 49 51  1  0
 50 48  2  0
 53 28  1  0
 53 54  1  0
 55 53  1  0
 56  5  1  0
 56 57  1  0
 57 59  1  0
 58 69  2  0
 59 64  1  0
 60 68  1  0
 60 70  1  0
 61 67  1  0
 61 63  1  0
 62 68  1  0
 63 62  1  0
 64 63  2  0
 65 66  1  0
 65 59  2  0
 66 61  2  0
 67 60  1  0
 68 58  1  0
 70 72  2  0
 71 70  1  0
 73 71  1  0
 74 83  2  0
 74 79  1  0
 75 71  1  0
 75 79  1  0
 76 75  1  0
 77 78  1  0
 77 76  1  0
 78 74  1  0
 79 80  2  0
 80 81  1  0
 82 81  2  0
 83 82  1  0
 84 58  1  0
 84 85  1  0
 84 94  1  0
 85 88  1  0
 86 90  1  0
 86 85  1  0
 87 86  2  0
 90 89  1  0
 92 90  1  0
 92 93  1  0
 92 91  1  0
 94 97  1  1
 94 95  1  0
 96 94  1  0
M  ISO  4  19 100  20 100  56 101  57 101
M  END
>  <TORSDO>  (16) 
F 23

>  <SCORE>  (16) 
-11.854

>  <name>  (16) 
15

>  <ligand_id>  (16) 
15

>  <original_smiles>  (16) 
[H]c1c([H])c([H])c2c(c1[H])C([H])([H])C([H])([H])C([H])([H])C2([H])N([H])C(=O)C1([H])N(C(=O)C([H])(N([H])C(=O)C([H])(N([H])C([H])([H])[H])C([H])([H])[H])C(C([H])([H])[H])(C([H])([H])[H])C([H])([H])[H])C([H])([H])c2c([H])c(OC([H])([H])c3c([H])c(C([H])([H])C4([H])C([H])([H])C([H])([H])C4([H])C(=O)N([H])C([H])([H])C([H])([H])C([H])([H])C(=O)N4C([H])([H])C([H])([H])C([H])([H])C([H])(n5nc(-c6c([H])c([H])c(Oc7c([H])c([H])c(F)c([H])c7F)c([H])c6[H])c(C(=O)N([H])[H])c5N([H])[H])C4([H])[H])c([H])c([H])c3F)c([H])c([H])c2C1([H])[H]

>  <smiles>  (16) 
[H]c1c([H])c([H])c2c(c1[H])C([H])([H])C([H])([H])C([H])([H])C2([H])N([H])C(=O)C1([H])N(C(=O)C([H])(N([H])C(=O)C([H])(N([H])C([H])([H])[H])C([H])([H])[H])C(C([H])([H])[H])(C([H])([H])[H])C([H])([H])[H])C([H])([H])c2c([H])c(OC([H])([H])c3c([H])c(C([H])([H])C4([H])C([H])([H])C([H])([H])C4([H])C(=O)N([H])C([H])([H])C([H])([H])C([H])([H])C(=O)N4C([H])([H])C([H])([H])C([H])([H])C([H])(n5nc(-c6c([H])c([H])c(Oc7c([H])c([H])c(F)c([H])c7F)c([H])c6[H])c(C(=O)N([H])[H])c5N([H])[H])C4([H])[H])c([H])c([H])c3F)c([H])c([H])c2C1([H])[H]

$$$$
16:0:0
     RDKit          3D

 92100  0  0  1  0  0  0  0  0999 V2000
  -26.4670  -20.5390   20.4040 C   0  0  0  0  0  3  0  0  0  0  0  0
  -26.6340  -21.9060   20.6910 C   0  0  0  0  0  3  0  0  0  0  0  0
  -27.5610  -19.7770   19.9600 C   0  0  0  0  0  3  0  0  0  0  0  0
  -28.9790  -21.7640   20.0460 C   0  0  0  0  0  3  0  0  0  0  0  0
  -27.8850  -22.5330   20.5160 C   0  0  0  0  0  0  0  0  0  0  0  0
  -28.8350  -20.3740   19.8050 C   0  0  0  0  0  0  0  0  0  0  0  0
  -30.0140  -19.5440   19.3760 C   0  0  0  0  0  0  0  0  0  0  0  0
  -30.0870  -18.3230   19.9290 N   0  0  0  0  0  0  0  0  0  0  0  0
  -30.8650  -19.9890   18.6050 O   0  0  0  0  0  0  0  0  0  0  0  0
  -29.3530  -18.0940   20.5850 H   0  0  0  0  0  0  0  0  0  0  0  0
  -31.1010  -17.3080   19.6430 C   0  0  0  0  0  2  0  0  0  0  0  0
  -31.2750  -16.3190   20.8200 C   0  0  0  0  0  2  0  0  0  0  0  0
  -31.9820  -15.0220   20.3680 C   0  0  0  0  0  0  0  0  0  0  0  0
  -31.6900  -12.7890   19.3800 C   0  0  0  0  0  2  0  0  0  0  0  0
  -30.7780  -12.9360   18.1420 C   0  0  0  0  0  2  0  0  0  0  0  0
  -29.2890  -12.8700   18.5380 C   0  0  0  0  0  2  0  0  0  0  0  0
  -28.9450  -13.8000   19.7320 C   0  0  0  0  0  3  0  0  0  0  0  0
  -29.9650  -13.5950   20.8750 C   0  0  0  0  0  2  0  0  0  0  0  0
  -31.3080  -13.8410   20.3320 N   0  0  0  0  0  0  0  0  0  0  0  0
  -33.1260  -15.1360   19.9140 O   0  0  0  0  0  0  0  0  0  0  0  0
  -26.5810  -14.5370   20.4370 C   0  0  0  0  0  0  0  0  0  0  0  0
  -25.4660  -13.8210   20.7770 C   0  0  0  0  0  0  0  0  0  0  0  0
  -25.8440  -12.4450   20.7080 C   0  0  0  0  0  0  0  0  0  0  0  0
  -27.5720  -13.5990   20.1890 N   0  0  0  0  0  0  0  0  0  0  0  0
  -27.1310  -12.3350   20.4070 N   0  0  0  0  0  0  0  0  0  0  0  0
  -25.0430  -11.2240   20.8550 C   0  0  0  0  0  0  0  0  0  0  0  0
  -25.3260  -10.2700   21.8580 C   0  0  0  0  0  3  0  0  0  0  0  0
  -24.5300   -9.1110   21.9870 C   0  0  0  0  0  3  0  0  0  0  0  0
  -23.4360   -8.9000   21.1160 C   0  0  0  0  0  0  0  0  0  0  0  0
  -23.1730   -9.8420   20.1050 C   0  0  0  0  0  3  0  0  0  0  0  0
  -23.9690  -10.9920   19.9730 C   0  0  0  0  0  3  0  0  0  0  0  0
  -22.6230   -7.7950   21.1520 O   0  0  0  0  0  0  0  0  0  0  0  0
  -22.2860   -7.1880   22.3350 C   0  0  0  0  0  0  0  0  0  0  0  0
  -21.5920   -7.8750   23.3540 C   0  0  0  0  0  3  0  0  0  0  0  0
  -21.2040   -7.1940   24.5250 C   0  0  0  0  0  3  0  0  0  0  0  0
  -21.5020   -5.8260   24.6750 C   0  0  0  0  0  0  0  0  0  0  0  0
  -22.1890   -5.1390   23.6600 C   0  0  0  0  0  3  0  0  0  0  0  0
  -22.5770   -5.8170   22.4910 C   0  0  0  0  0  0  0  0  0  0  0  0
  -23.2190   -5.1450   21.5060 F   0  0  0  0  0  0  0  0  0  0  0  0
  -21.1230   -5.1690   25.7970 F   0  0  0  0  0  0  0  0  0  0  0  0
  -24.0960  -14.3730   21.0550 C   0  0  0  0  0  0  0  0  0  0  0  0
  -23.3290  -13.7080   21.9110 N   0  0  0  0  0  0  0  0  0  0  0  0
  -23.7170  -15.4280   20.5470 O   0  0  0  0  0  0  0  0  0  0  0  0
  -23.6480  -12.8510   22.3370 H   0  0  0  0  0  0  0  0  0  0  0  0
  -22.4100  -14.0610   22.1400 H   0  0  0  0  0  0  0  0  0  0  0  0
  -26.8320  -15.8980   20.2950 N   0  0  0  0  0  0  0  0  0  0  0  0
  -26.0980  -16.5900   20.3930 H   0  0  0  0  0  0  0  0  0  0  0  0
  -27.6870  -16.2790   19.9110 H   0  0  0  0  0  0  0  0  0  0  0  0
  -27.9700  -23.9780   20.8610 C   0  0  0  0  0  3  0  0  0  0  0  0
  -28.4630  -25.0750   20.2320 C   0  0  0  0  0  3  0  0  0  0  0  0
  -29.0880  -25.8150   19.0420 C   0  0  0  0  0  2  0  0  0  0  0  0
  -28.9550  -27.2330   19.2120 O   0  0  0  0  0  0  0  0  0  0  0  0
  -24.6280  -31.3630   23.0600 C   0  0  0  0  0  0  0  0  0  0  0  0
  -27.6920  -27.7870   19.3090 C   0  0  0  0  0  0  0  0  0  0  0  0
  -23.5550  -30.1160   21.2140 C   0  0  0  0  0  3  0  0  0  0  0  0
  -25.1420  -28.9930   19.5660 C   0  0  0  0  0  0  0  0  0  0  0  0
  -26.0220  -30.7780   21.0770 C   0  0  0  0  0  2  0  0  0  0  0  0
  -26.2460  -29.5430   20.2290 C   0  0  0  0  0  0  0  0  0  0  0  0
  -27.5200  -28.9480   20.0960 C   0  0  0  0  0  3  0  0  0  0  0  0
  -26.5620  -27.2450   18.6510 C   0  0  0  0  0  3  0  0  0  0  0  0
  -25.2950  -27.8420   18.7760 C   0  0  0  0  0  3  0  0  0  0  0  0
  -23.8140  -29.6890   19.7440 C   0  0  0  0  0  2  0  0  0  0  0  0
  -24.7530  -30.7600   21.8440 N   0  0  0  0  0  0  0  0  0  0  0  0
  -23.5320  -31.4240   23.6370 O   0  0  0  0  0  0  0  0  0  0  0  0
  -23.0350  -28.8910   21.9990 C   0  0  0  0  0  0  0  0  0  0  0  0
  -21.7460  -28.5640   21.8110 N   0  0  0  0  0  0  0  0  0  0  0  0
  -23.7870  -28.2450   22.7330 O   0  0  0  0  0  0  0  0  0  0  0  0
  -21.1930  -29.1530   21.2050 H   0  0  0  0  0  0  0  0  0  0  0  0
  -18.5630  -26.8650   21.9930 C   0  0  0  0  0  0  0  0  0  0  0  0
  -21.0530  -27.4210   22.4050 C   0  0  0  0  0  3  0  0  0  0  0  0
  -21.3670  -26.1160   21.6380 C   0  0  0  0  0  2  0  0  0  0  0  0
  -20.3430  -25.7940   20.5450 C   0  0  0  0  0  2  0  0  0  0  0  0
  -18.9400  -25.6630   21.1440 C   0  0  0  0  0  2  0  0  0  0  0  0
  -19.5540  -27.6990   22.5730 C   0  0  0  0  0  0  0  0  0  0  0  0
  -19.1500  -28.8260   23.3200 C   0  0  0  0  0  3  0  0  0  0  0  0
  -17.7850  -29.1210   23.4980 C   0  0  0  0  0  3  0  0  0  0  0  0
  -16.8060  -28.2810   22.9360 C   0  0  0  0  0  3  0  0  0  0  0  0
  -17.1970  -27.1560   22.1880 C   0  0  0  0  0  3  0  0  0  0  0  0
  -25.8480  -32.0260   23.7740 C   0  0  0  0  0  3  0  0  0  0  0  0
  -25.4260  -33.3570   24.2250 N   0  0  0  0  0  0  0  0  0  0  0  0
  -25.7220  -34.5040   23.5960 C   0  0  0  0  0  0  0  0  0  0  0  0
  -26.4490  -34.5520   22.5990 O   0  0  0  0  0  0  0  0  0  0  0  0
  -24.7830  -33.3880   25.0020 H   0  0  0  0  0  0  0  0  0  0  0  0
  -23.9010  -36.2150   23.3110 C   0  0  0  0  0  1  0  0  0  0  0  0
  -25.1140  -35.8010   24.1600 C   0  0  0  0  0  3  0  0  0  0  0  0
  -27.1230  -36.7240   25.2300 C   0  0  0  0  0  1  0  0  0  0  0  0
  -26.0780  -36.9210   24.2300 N   0  0  0  0  0  0  0  0  0  0  0  0
  -25.6010  -37.7950   24.4360 H   0  0  0  0  0  0  0  0  0  0  0  0
  -26.3980  -31.1750   24.9840 C   0  0  1  0  0  0  0  0  0  0  0  0
  -25.3080  -30.7580   25.9980 C   0  0  0  0  0  1  0  0  0  0  0  0
  -27.0850  -29.8870   24.4730 C   0  0  0  0  0  1  0  0  0  0  0  0
  -27.4760  -31.9810   25.7460 C   0  0  0  0  0  1  0  0  0  0  0  0
  1  2  1  0
  3  1  2  0
  4  5  1  0
  5  2  2  0
  5 49  1  0
  6  3  1  0
  6  4  2  0
  7  6  1  0
  7  8  1  0
  8 10  1  0
  9  7  2  0
 11  8  1  0
 11 12  1  0
 13 12  1  0
 14 19  1  0
 15 16  1  0
 15 14  1  0
 17 16  1  0
 17 24  1  0
 17 18  1  0
 19 13  1  0
 19 18  1  0
 20 13  2  0
 21 22  2  0
 22 41  1  0
 23 22  1  0
 23 26  1  0
 24 25  1  0
 24 21  1  0
 25 23  2  0
 26 27  1  0
 27 28  2  0
 29 32  1  0
 29 28  1  0
 30 29  2  0
 31 30  1  0
 31 26  2  0
 32 33  1  0
 33 38  2  0
 33 34  1  0
 34 35  2  0
 35 36  1  0
 36 40  1  0
 37 36  2  0
 38 37  1  0
 39 38  1  0
 41 42  1  0
 42 45  1  0
 42 44  1  0
 43 41  2  0
 46 47  1  0
 46 21  1  0
 48 46  1  0
 50 49  2  0
 51 52  1  0
 51 50  1  0
 52 54  1  0
 53 64  2  0
 54 59  1  0
 55 63  1  0
 55 65  1  0
 56 62  1  0
 56 58  1  0
 57 63  1  0
 58 57  1  0
 59 58  2  0
 60 61  1  0
 60 54  2  0
 61 56  2  0
 62 55  1  0
 63 53  1  0
 65 67  2  0
 66 65  1  0
 68 66  1  0
 69 78  2  0
 69 74  1  0
 70 66  1  0
 70 74  1  0
 71 70  1  0
 72 73  1  0
 72 71  1  0
 73 69  1  0
 74 75  2  0
 75 76  1  0
 77 76  2  0
 78 77  1  0
 79 53  1  0
 79 80  1  0
 79 89  1  0
 80 83  1  0
 81 85  1  0
 81 80  1  0
 82 81  2  0
 85 84  1  0
 85 87  1  0
 87 88  1  0
 87 86  1  0
 89 92  1  1
 89 90  1  0
 91 89  1  0
M  ISO  4  12 100  13 100  51 101  52 101
M  END
>  <TORSDO>  (17) 
F 21

>  <SCORE>  (17) 
-7.278

>  <name>  (17) 
16

>  <ligand_id>  (17) 
16

>  <original_smiles>  (17) 
[H]C(=C([H])C([H])([H])Oc1c([H])c([H])c2c(c1[H])C([H])([H])N(C(=O)C([H])(N([H])C(=O)C([H])(N([H])C([H])([H])[H])C([H])([H])[H])C(C([H])([H])[H])(C([H])([H])[H])C([H])([H])[H])C([H])(C(=O)N([H])C1([H])c3c([H])c([H])c([H])c([H])c3C([H])([H])C([H])([H])C1([H])[H])C2([H])[H])c1c([H])c([H])c([H])c(C(=O)N([H])C([H])([H])C([H])([H])C(=O)N2C([H])([H])C([H])([H])C([H])([H])C([H])(n3nc(-c4c([H])c([H])c(Oc5c([H])c([H])c(F)c([H])c5F)c([H])c4[H])c(C(=O)N([H])[H])c3N([H])[H])C2([H])[H])c1[H]

>  <smiles>  (17) 
[H]C(=C([H])C([H])([H])Oc1c([H])c([H])c2c(c1[H])C([H])([H])N(C(=O)C([H])(N([H])C(=O)C([H])(N([H])C([H])([H])[H])C([H])([H])[H])C(C([H])([H])[H])(C([H])([H])[H])C([H])([H])[H])C([H])(C(=O)N([H])C1([H])c3c([H])c([H])c([H])c([H])c3C([H])([H])C([H])([H])C1([H])[H])C2([H])[H])c1c([H])c([H])c([H])c(C(=O)N([H])C([H])([H])C([H])([H])C(=O)N2C([H])([H])C([H])([H])C([H])([H])C([H])(n3nc(-c4c([H])c([H])c(Oc5c([H])c([H])c(F)c([H])c5F)c([H])c4[H])c(C(=O)N([H])[H])c3N([H])[H])C2([H])[H])c1[H]

$$$$
17:0:0
     RDKit          3D

 94102  0  0  1  0  0  0  0  0999 V2000
  -30.8730  -22.0810   19.3220 C   0  0  0  0  0  3  0  0  0  0  0  0
  -30.9710  -20.6640   19.2950 C   0  0  0  0  0  3  0  0  0  0  0  0
  -28.5670  -21.9240   19.9840 C   0  0  0  0  0  3  0  0  0  0  0  0
  -29.6610  -22.7570   19.6340 C   0  0  0  0  0  0  0  0  0  0  0  0
  -29.8690  -19.8310   19.6100 C   0  0  0  0  0  0  0  0  0  0  0  0
  -28.6630  -20.4970   19.9870 C   0  0  0  0  0  0  0  0  0  0  0  0
  -27.4330  -19.6990   20.3840 C   0  0  0  0  0  1  0  0  0  0  0  0
  -29.6230  -24.2930   19.6370 C   0  0  0  0  0  0  0  0  0  0  0  0
  -30.6700  -24.9490   19.5770 O   0  0  0  0  0  0  0  0  0  0  0  0
  -28.2710  -25.0810   19.6500 C   0  0  0  0  0  2  0  0  0  0  0  0
  -28.4210  -26.5510   19.6630 O   0  0  0  0  0  0  0  0  0  0  0  0
  -24.5520  -31.6520   22.9560 C   0  0  0  0  0  0  0  0  0  0  0  0
  -27.2580  -27.3260   19.6830 C   0  0  0  0  0  0  0  0  0  0  0  0
  -23.3680  -30.2950   21.2680 C   0  0  0  0  0  3  0  0  0  0  0  0
  -24.8420  -28.8460   19.7700 C   0  0  0  0  0  0  0  0  0  0  0  0
  -25.8940  -30.6960   21.0740 C   0  0  0  0  0  2  0  0  0  0  0  0
  -26.0030  -29.3500   20.3700 C   0  0  0  0  0  0  0  0  0  0  0  0
  -27.2140  -28.6030   20.3140 C   0  0  0  0  0  3  0  0  0  0  0  0
  -26.0710  -26.8640   19.0680 C   0  0  0  0  0  3  0  0  0  0  0  0
  -24.8770  -27.6050   19.1140 C   0  0  0  0  0  3  0  0  0  0  0  0
  -23.5840  -29.6820   19.8610 C   0  0  0  0  0  2  0  0  0  0  0  0
  -24.6230  -30.8960   21.8230 N   0  0  0  0  0  0  0  0  0  0  0  0
  -23.4680  -31.8790   23.5120 O   0  0  0  0  0  0  0  0  0  0  0  0
  -22.7400  -29.2210   22.1880 C   0  0  0  0  0  0  0  0  0  0  0  0
  -21.4100  -29.0550   22.1020 N   0  0  0  0  0  0  0  0  0  0  0  0
  -23.4490  -28.5420   22.9360 O   0  0  0  0  0  0  0  0  0  0  0  0
  -20.8980  -29.6550   21.4700 H   0  0  0  0  0  0  0  0  0  0  0  0
  -18.0400  -27.8990   22.7140 C   0  0  0  0  0  0  0  0  0  0  0  0
  -20.6150  -28.0780   22.8450 C   0  0  0  0  0  3  0  0  0  0  0  0
  -20.6440  -26.6950   22.1530 C   0  0  0  0  0  2  0  0  0  0  0  0
  -19.4760  -26.4810   21.1860 C   0  0  0  0  0  2  0  0  0  0  0  0
  -18.1380  -26.6060   21.9200 C   0  0  0  0  0  2  0  0  0  0  0  0
  -19.2010  -28.5980   23.1330 C   0  0  0  0  0  0  0  0  0  0  0  0
  -19.0530  -29.8140   23.8350 C   0  0  0  0  0  3  0  0  0  0  0  0
  -17.7750  -30.3280   24.1230 C   0  0  0  0  0  3  0  0  0  0  0  0
  -16.6270  -29.6240   23.7190 C   0  0  0  0  0  3  0  0  0  0  0  0
  -16.7620  -28.4110   23.0200 C   0  0  0  0  0  3  0  0  0  0  0  0
  -25.8260  -32.2870   23.5940 C   0  0  0  0  0  3  0  0  0  0  0  0
  -25.4840  -33.6580   23.9980 N   0  0  0  0  0  0  0  0  0  0  0  0
  -25.8020  -34.7580   23.3030 C   0  0  0  0  0  0  0  0  0  0  0  0
  -26.4850  -34.7270   22.2750 O   0  0  0  0  0  0  0  0  0  0  0  0
  -24.8780  -33.7560   24.7990 H   0  0  0  0  0  0  0  0  0  0  0  0
  -24.0490  -36.5390   23.0190 C   0  0  0  0  0  1  0  0  0  0  0  0
  -25.2800  -36.1070   23.8320 C   0  0  0  0  0  3  0  0  0  0  0  0
  -27.3730  -36.9820   24.7720 C   0  0  0  0  0  1  0  0  0  0  0  0
  -26.2950  -37.1830   23.8070 N   0  0  0  0  0  0  0  0  0  0  0  0
  -25.8670  -38.0860   23.9930 H   0  0  0  0  0  0  0  0  0  0  0  0
  -26.3800  -31.4680   24.8230 C   0  0  1  0  0  0  0  0  0  0  0  0
  -25.3050  -31.1400   25.8860 C   0  0  0  0  0  1  0  0  0  0  0  0
  -27.0030  -30.1310   24.3560 C   0  0  0  0  0  1  0  0  0  0  0  0
  -27.5100  -32.2640   25.5180 C   0  0  0  0  0  1  0  0  0  0  0  0
  -29.9620  -18.2770   19.3910 C   0  0  0  0  0  2  0  0  0  0  0  0
  -30.6120  -17.3530   20.4980 C   0  0  0  0  0  3  0  0  0  0  0  0
  -32.0860  -17.4570   20.5010 N   0  0  0  0  0  4  0  0  0  0  0  0
  -32.4800  -16.9700   19.7140 H   0  0  0  0  0  0  0  0  0  0  0  0
  -32.4660  -17.0480   21.3370 H   0  0  0  0  0  0  0  0  0  0  0  0
  -32.3750  -18.4190   20.4720 H   0  0  0  0  0  0  0  0  0  0  0  0
  -30.0690  -15.8490   20.6080 C   0  0  0  0  0  2  0  0  0  0  0  0
  -30.7570  -14.6120   19.9150 C   0  0  0  0  0  0  0  0  0  0  0  0
  -30.4830  -12.3330   18.9380 C   0  0  0  0  0  2  0  0  0  0  0  0
  -29.4680  -12.4000   17.7750 C   0  0  0  0  0  2  0  0  0  0  0  0
  -28.0210  -12.2730   18.2940 C   0  0  0  0  0  2  0  0  0  0  0  0
  -27.7380  -13.2030   19.5020 C   0  0  0  0  0  3  0  0  0  0  0  0
  -28.8560  -13.0890   20.5620 C   0  0  0  0  0  2  0  0  0  0  0  0
  -30.1340  -13.3930   19.9030 N   0  0  0  0  0  0  0  0  0  0  0  0
  -31.8390  -14.7750   19.3400 O   0  0  0  0  0  0  0  0  0  0  0  0
  -25.4270  -13.8700   20.4060 C   0  0  0  0  0  0  0  0  0  0  0  0
  -24.3580  -13.1250   20.8280 C   0  0  0  0  0  0  0  0  0  0  0  0
  -24.7630  -11.7590   20.7210 C   0  0  0  0  0  0  0  0  0  0  0  0
  -26.4170  -12.9590   20.0720 N   0  0  0  0  0  0  0  0  0  0  0  0
  -26.0250  -11.6820   20.3170 N   0  0  0  0  0  0  0  0  0  0  0  0
  -24.0030  -10.5180   20.9250 C   0  0  0  0  0  0  0  0  0  0  0  0
  -24.4090   -9.5490   21.8690 C   0  0  0  0  0  3  0  0  0  0  0  0
  -23.6510   -8.3750   22.0590 C   0  0  0  0  0  3  0  0  0  0  0  0
  -22.4740   -8.1600   21.3050 C   0  0  0  0  0  0  0  0  0  0  0  0
  -22.0880   -9.1160   20.3490 C   0  0  0  0  0  3  0  0  0  0  0  0
  -22.8450  -10.2830   20.1570 C   0  0  0  0  0  3  0  0  0  0  0  0
  -21.6890   -7.0360   21.4050 O   0  0  0  0  0  0  0  0  0  0  0  0
  -21.5680   -6.3450   22.5840 C   0  0  0  0  0  0  0  0  0  0  0  0
  -21.0450   -6.9460   23.7490 C   0  0  0  0  0  3  0  0  0  0  0  0
  -20.8710   -6.1810   24.9190 C   0  0  0  0  0  3  0  0  0  0  0  0
  -21.2130   -4.8150   24.9240 C   0  0  0  0  0  0  0  0  0  0  0  0
  -21.7300   -4.2130   23.7630 C   0  0  0  0  0  3  0  0  0  0  0  0
  -21.9040   -4.9760   22.5960 C   0  0  0  0  0  0  0  0  0  0  0  0
  -22.3830   -4.3860   21.4730 F   0  0  0  0  0  0  0  0  0  0  0  0
  -21.0390   -4.0760   26.0450 F   0  0  0  0  0  0  0  0  0  0  0  0
  -23.0050  -13.6430   21.2180 C   0  0  0  0  0  0  0  0  0  0  0  0
  -22.3100  -12.9360   22.1020 N   0  0  0  0  0  0  0  0  0  0  0  0
  -22.5750  -14.7080   20.7750 O   0  0  0  0  0  0  0  0  0  0  0  0
  -22.6700  -12.0710   22.4750 H   0  0  0  0  0  0  0  0  0  0  0  0
  -21.4040  -13.2630   22.4080 H   0  0  0  0  0  0  0  0  0  0  0  0
  -25.6330  -15.2380   20.2600 N   0  0  0  0  0  0  0  0  0  0  0  0
  -24.9010  -15.9180   20.4340 H   0  0  0  0  0  0  0  0  0  0  0  0
  -26.4730  -15.6500   19.8740 H   0  0  0  0  0  0  0  0  0  0  0  0
  1  4  1  0
  2  1  2  0
  2  5  1  0
  3  6  1  0
  4  8  1  0
  4  3  2  0
  5  6  2  0
  6  7  1  0
  8 10  1  0
  9  8  2  0
 10 11  1  0
 11 13  1  0
 12 23  2  0
 13 18  1  0
 14 22  1  0
 14 24  1  0
 15 21  1  0
 15 17  1  0
 16 22  1  0
 17 16  1  0
 18 17  2  0
 19 20  1  0
 19 13  2  0
 20 15  2  0
 21 14  1  0
 22 12  1  0
 24 26  2  0
 25 24  1  0
 27 25  1  0
 28 37  2  0
 28 33  1  0
 29 25  1  0
 29 33  1  0
 30 29  1  0
 31 32  1  0
 31 30  1  0
 32 28  1  0
 33 34  2  0
 34 35  1  0
 36 35  2  0
 37 36  1  0
 38 12  1  0
 38 39  1  0
 38 48  1  0
 39 42  1  0
 40 44  1  0
 40 39  1  0
 41 40  2  0
 44 43  1  0
 46 44  1  0
 46 47  1  0
 46 45  1  0
 48 51  1  1
 48 49  1  0
 50 48  1  0
 52  5  1  0
 53 52  1  0
 53 54  1  0
 53 58  1  0
 54 56  1  0
 55 54  1  0
 57 54  1  0
 59 58  1  0
 60 65  1  0
 61 62  1  0
 61 60  1  0
 63 62  1  0
 63 70  1  0
 63 64  1  0
 65 59  1  0
 65 64  1  0
 66 59  2  0
 67 68  2  0
 68 87  1  0
 69 68  1  0
 69 72  1  0
 70 71  1  0
 70 67  1  0
 71 69  2  0
 72 73  1  0
 73 74  2  0
 75 78  1  0
 75 74  1  0
 76 75  2  0
 77 76  1  0
 77 72  2  0
 78 79  1  0
 79 84  2  0
 79 80  1  0
 80 81  2  0
 81 82  1  0
 82 86  1  0
 83 82  2  0
 84 83  1  0
 85 84  1  0
 87 88  1  0
 88 91  1  0
 88 90  1  0
 89 87  2  0
 92 67  1  0
 92 93  1  0
 94 92  1  0
M  ISO  4  10 101  11 101  58 100  59 100
M  END
>  <TORSDO>  (18) 
F 22

>  <SCORE>  (18) 
-12.379

>  <name>  (18) 
17

>  <ligand_id>  (18) 
17

>  <original_smiles>  (18) 
[H]c1c([H])c([H])c2c(c1[H])C([H])([H])C([H])([H])C([H])([H])C2([H])N([H])C(=O)C1([H])N(C(=O)C([H])(N([H])C(=O)C([H])(N([H])C([H])([H])[H])C([H])([H])[H])C(C([H])([H])[H])(C([H])([H])[H])C([H])([H])[H])C([H])([H])c2c([H])c(OC([H])([H])C(=O)c3c([H])c([H])c(C([H])([H])C([H])(C([H])([H])C(=O)N4C([H])([H])C([H])([H])C([H])([H])C([H])(n5nc(-c6c([H])c([H])c(Oc7c([H])c([H])c(F)c([H])c7F)c([H])c6[H])c(C(=O)N([H])[H])c5N([H])[H])C4([H])[H])[N+]([H])([H])[H])c(C([H])([H])[H])c3[H])c([H])c([H])c2C1([H])[H]

>  <smiles>  (18) 
[H]c1c([H])c([H])c2c(c1[H])C([H])([H])C([H])([H])C([H])([H])C2([H])N([H])C(=O)C1([H])N(C(=O)C([H])(N([H])C(=O)C([H])(N([H])C([H])([H])[H])C([H])([H])[H])C(C([H])([H])[H])(C([H])([H])[H])C([H])([H])[H])C([H])([H])c2c([H])c(OC([H])([H])C(=O)c3c([H])c([H])c(C([H])([H])C([H])(C([H])([H])C(=O)N4C([H])([H])C([H])([H])C([H])([H])C([H])(n5nc(-c6c([H])c([H])c(Oc7c([H])c([H])c(F)c([H])c7F)c([H])c6[H])c(C(=O)N([H])[H])c5N([H])[H])C4([H])[H])[N+]([H])([H])[H])c(C([H])([H])[H])c3[H])c([H])c([H])c2C1([H])[H]

$$$$
18:0:0
     RDKit          3D

 96104  0  0  1  0  0  0  0  0999 V2000
  -27.5830  -23.2570   19.5540 C   0  0  0  0  0  3  0  0  0  0  0  0
  -27.0000  -21.9830   19.4130 C   0  0  0  0  0  3  0  0  0  0  0  0
  -29.6060  -22.4230   18.4810 C   0  0  0  0  0  3  0  0  0  0  0  0
  -28.8990  -23.4850   19.0910 C   0  0  0  0  0  0  0  0  0  0  0  0
  -27.7100  -20.9260   18.8050 C   0  0  0  0  0  0  0  0  0  0  0  0
  -29.0160  -21.1540   18.3020 C   0  0  0  0  0  0  0  0  0  0  0  0
  -27.0430  -19.5650   18.7040 C   0  0  0  0  0  1  0  0  0  0  0  0
  -29.5660  -24.8070   19.2610 C   0  0  0  0  0  0  0  0  0  0  0  0
  -30.7580  -24.9180   19.5610 O   0  0  0  0  0  0  0  0  0  0  0  0
  -28.7430  -26.0620   18.9430 C   0  0  0  0  0  2  0  0  0  0  0  0
  -28.4030  -26.7690   20.1400 O   0  0  0  0  0  0  0  0  0  0  0  0
  -24.5620  -31.8930   23.2550 C   0  0  0  0  0  0  0  0  0  0  0  0
  -27.2160  -27.4690   20.1440 C   0  0  0  0  0  0  0  0  0  0  0  0
  -23.3570  -30.4930   21.6110 C   0  0  0  0  0  3  0  0  0  0  0  0
  -24.8070  -28.9520   20.1920 C   0  0  0  0  0  0  0  0  0  0  0  0
  -25.8810  -30.8490   21.4150 C   0  0  0  0  0  2  0  0  0  0  0  0
  -25.9670  -29.4780   20.7760 C   0  0  0  0  0  0  0  0  0  0  0  0
  -27.1690  -28.7370   20.7610 C   0  0  0  0  0  3  0  0  0  0  0  0
  -26.0290  -26.9400   19.5860 C   0  0  0  0  0  3  0  0  0  0  0  0
  -24.8290  -27.6730   19.6090 C   0  0  0  0  0  3  0  0  0  0  0  0
  -23.5690  -29.8160   20.2320 C   0  0  0  0  0  2  0  0  0  0  0  0
  -24.6180  -31.0930   22.1530 N   0  0  0  0  0  0  0  0  0  0  0  0
  -23.4810  -32.1620   23.7980 O   0  0  0  0  0  0  0  0  0  0  0  0
  -22.7080  -29.4670   22.5690 C   0  0  0  0  0  0  0  0  0  0  0  0
  -21.3850  -29.2800   22.4380 N   0  0  0  0  0  0  0  0  0  0  0  0
  -23.3920  -28.8430   23.3840 O   0  0  0  0  0  0  0  0  0  0  0  0
  -20.8910  -29.8310   21.7510 H   0  0  0  0  0  0  0  0  0  0  0  0
  -18.0190  -28.0750   22.9310 C   0  0  0  0  0  0  0  0  0  0  0  0
  -20.5730  -28.3410   23.2110 C   0  0  0  0  0  3  0  0  0  0  0  0
  -20.6870  -26.9100   22.6380 C   0  0  0  0  0  2  0  0  0  0  0  0
  -19.5880  -26.5800   21.6220 C   0  0  0  0  0  2  0  0  0  0  0  0
  -18.2030  -26.7250   22.2600 C   0  0  0  0  0  2  0  0  0  0  0  0
  -19.1330  -28.8400   23.3640 C   0  0  0  0  0  0  0  0  0  0  0  0
  -18.9090  -30.1060   23.9490 C   0  0  0  0  0  3  0  0  0  0  0  0
  -17.6020  -30.6020   24.1160 C   0  0  0  0  0  3  0  0  0  0  0  0
  -16.5020  -29.8330   23.7000 C   0  0  0  0  0  3  0  0  0  0  0  0
  -16.7100  -28.5730   23.1100 C   0  0  0  0  0  3  0  0  0  0  0  0
  -25.8480  -32.5250   23.8710 C   0  0  0  0  0  3  0  0  0  0  0  0
  -25.5450  -33.9260   24.1890 N   0  0  0  0  0  0  0  0  0  0  0  0
  -25.8870  -34.9720   23.4240 C   0  0  0  0  0  0  0  0  0  0  0  0
  -26.5660  -34.8580   22.4000 O   0  0  0  0  0  0  0  0  0  0  0  0
  -24.9540  -34.0910   24.9910 H   0  0  0  0  0  0  0  0  0  0  0  0
  -24.1760  -36.7730   23.0290 C   0  0  0  0  0  1  0  0  0  0  0  0
  -25.4010  -36.3650   23.8650 C   0  0  0  0  0  3  0  0  0  0  0  0
  -27.5250  -37.2430   24.7300 C   0  0  0  0  0  1  0  0  0  0  0  0
  -26.4410  -37.4120   23.7660 N   0  0  0  0  0  0  0  0  0  0  0  0
  -26.0370  -38.3340   23.9070 H   0  0  0  0  0  0  0  0  0  0  0  0
  -26.3650  -31.7620   25.1520 C   0  0  1  0  0  0  0  0  0  0  0  0
  -25.2730  -31.5300   26.2230 C   0  0  0  0  0  1  0  0  0  0  0  0
  -26.9480  -30.3810   24.7690 C   0  0  0  0  0  1  0  0  0  0  0  0
  -27.5160  -32.5590   25.8110 C   0  0  0  0  0  1  0  0  0  0  0  0
  -29.7610  -20.0890   17.4910 C   0  0  0  0  0  2  0  0  0  0  0  0
  -32.2710  -19.8780   18.0260 C   0  0  0  0  0  1  0  0  0  0  0  0
  -30.8730  -19.2500   18.1840 C   0  0  0  0  0  3  0  0  0  0  0  0
  -30.6410  -18.8680   19.6600 C   0  0  0  0  0  0  0  0  0  0  0  0
  -30.6150  -17.5590   19.9420 N   0  0  0  0  0  0  0  0  0  0  0  0
  -30.5900  -19.7320   20.5370 O   0  0  0  0  0  0  0  0  0  0  0  0
  -30.6680  -16.9190   19.1590 H   0  0  0  0  0  0  0  0  0  0  0  0
  -30.8190  -16.9830   21.2760 C   0  0  0  0  0  2  0  0  0  0  0  0
  -30.2280  -15.5640   21.4510 C   0  0  0  0  0  2  0  0  0  0  0  0
  -30.7940  -14.4700   20.5210 C   0  0  0  0  0  0  0  0  0  0  0  0
  -30.4660  -12.3640   19.2770 C   0  0  0  0  0  2  0  0  0  0  0  0
  -29.5370  -12.6070   18.0700 C   0  0  0  0  0  2  0  0  0  0  0  0
  -28.0590  -12.4690   18.4890 C   0  0  0  0  0  2  0  0  0  0  0  0
  -27.7180  -13.2940   19.7620 C   0  0  0  0  0  3  0  0  0  0  0  0
  -28.7600  -13.0310   20.8750 C   0  0  0  0  0  2  0  0  0  0  0  0
  -30.0960  -13.3210   20.3280 N   0  0  0  0  0  0  0  0  0  0  0  0
  -31.8620  -14.6930   19.9420 O   0  0  0  0  0  0  0  0  0  0  0  0
  -25.3020  -13.9140   20.4140 C   0  0  0  0  0  0  0  0  0  0  0  0
  -24.2300  -13.1430   20.7820 C   0  0  0  0  0  0  0  0  0  0  0  0
  -24.6970  -11.7940   20.7820 C   0  0  0  0  0  0  0  0  0  0  0  0
  -26.3550  -13.0310   20.2210 N   0  0  0  0  0  0  0  0  0  0  0  0
  -25.9910  -11.7530   20.4950 N   0  0  0  0  0  0  0  0  0  0  0  0
  -23.9730  -10.5320   20.9820 C   0  0  0  0  0  0  0  0  0  0  0  0
  -24.4000   -9.5760   21.9300 C   0  0  0  0  0  3  0  0  0  0  0  0
  -23.6740   -8.3810   22.1200 C   0  0  0  0  0  3  0  0  0  0  0  0
  -22.5050   -8.1330   21.3610 C   0  0  0  0  0  0  0  0  0  0  0  0
  -22.0980   -9.0770   20.4040 C   0  0  0  0  0  3  0  0  0  0  0  0
  -22.8250  -10.2650   20.2120 C   0  0  0  0  0  3  0  0  0  0  0  0
  -21.7510   -6.9870   21.4590 O   0  0  0  0  0  0  0  0  0  0  0  0
  -21.7040   -6.2540   22.6150 C   0  0  0  0  0  0  0  0  0  0  0  0
  -21.2790   -6.8170   23.8390 C   0  0  0  0  0  3  0  0  0  0  0  0
  -21.1800   -6.0100   24.9900 C   0  0  0  0  0  3  0  0  0  0  0  0
  -21.4900   -4.6390   24.9170 C   0  0  0  0  0  0  0  0  0  0  0  0
  -21.9040   -4.0730   23.6990 C   0  0  0  0  0  3  0  0  0  0  0  0
  -22.0070   -4.8780   22.5500 C   0  0  0  0  0  0  0  0  0  0  0  0
  -22.3880   -4.3230   21.3740 F   0  0  0  0  0  0  0  0  0  0  0  0
  -21.3890   -3.8610   26.0220 F   0  0  0  0  0  0  0  0  0  0  0  0
  -22.8270  -13.6200   21.0260 C   0  0  0  0  0  0  0  0  0  0  0  0
  -22.0920  -12.9330   21.8930 N   0  0  0  0  0  0  0  0  0  0  0  0
  -22.3900  -14.6340   20.4860 O   0  0  0  0  0  0  0  0  0  0  0  0
  -22.4630  -12.1140   22.3490 H   0  0  0  0  0  0  0  0  0  0  0  0
  -21.1480  -13.2290   22.0990 H   0  0  0  0  0  0  0  0  0  0  0  0
  -25.4690  -15.2800   20.2100 N   0  0  0  0  0  0  0  0  0  0  0  0
  -24.7080  -15.9450   20.3030 H   0  0  0  0  0  0  0  0  0  0  0  0
  -26.3350  -15.7170   19.9150 H   0  0  0  0  0  0  0  0  0  0  0  0
  2  1  1  0
  3  4  1  0
  4  8  1  0
  4  1  2  0
  5  2  2  0
  6  3  2  0
  6  5  1  0
  7  5  1  0
  8  9  2  0
 10  8  1  0
 10 11  1  0
 11 13  1  0
 12 23  2  0
 13 18  1  0
 14 22  1  0
 14 24  1  0
 15 21  1  0
 15 17  1  0
 16 22  1  0
 17 16  1  0
 18 17  2  0
 19 20  1  0
 19 13  2  0
 20 15  2  0
 21 14  1  0
 22 12  1  0
 24 26  2  0
 25 24  1  0
 27 25  1  0
 28 37  2  0
 28 33  1  0
 29 25  1  0
 29 33  1  0
 30 29  1  0
 31 32  1  0
 31 30  1  0
 32 28  1  0
 33 34  2  0
 34 35  1  0
 36 35  2  0
 37 36  1  0
 38 12  1  0
 38 39  1  0
 38 48  1  0
 39 42  1  0
 40 44  1  0
 40 39  1  0
 41 40  2  0
 44 43  1  0
 46 44  1  0
 46 47  1  0
 46 45  1  0
 48 51  1  1
 48 49  1  0
 50 48  1  0
 52 54  1  0
 52  6  1  0
 54 53  1  0
 54 55  1  0
 55 56  1  0
 55 57  2  0
 56 59  1  0
 58 56  1  0
 59 60  1  0
 61 60  1  0
 62 67  1  0
 63 64  1  0
 63 62  1  0
 65 64  1  0
 65 72  1  0
 65 66  1  0
 67 61  1  0
 67 66  1  0
 68 61  2  0
 69 70  2  0
 70 89  1  0
 71 70  1  0
 71 74  1  0
 72 69  1  0
 72 73  1  0
 73 71  2  0
 74 75  1  0
 75 76  2  0
 77 80  1  0
 77 76  1  0
 78 77  2  0
 79 78  1  0
 79 74  2  0
 80 81  1  0
 81 82  1  0
 82 83  2  0
 84 83  1  0
 84 88  1  0
 85 84  2  0
 86 81  2  0
 86 85  1  0
 87 86  1  0
 89 90  1  0
 90 93  1  0
 90 92  1  0
 91 89  2  0
 94 95  1  0
 94 69  1  0
 96 94  1  0
M  ISO  4  10 101  11 101  60 100  61 100
M  END
>  <TORSDO>  (19) 
F 23

>  <SCORE>  (19) 
-12.987

>  <name>  (19) 
18

>  <ligand_id>  (19) 
18

>  <original_smiles>  (19) 
[H]c1c([H])c([H])c2c(c1[H])C([H])([H])C([H])([H])C([H])([H])C2([H])N([H])C(=O)C1([H])N(C(=O)C([H])(N([H])C(=O)C([H])(N([H])C([H])([H])[H])C([H])([H])[H])C(C([H])([H])[H])(C([H])([H])[H])C([H])([H])[H])C([H])([H])c2c([H])c(OC([H])([H])C(=O)c3c([H])c([H])c(C([H])([H])[H])c(C([H])([H])C([H])(C(=O)N([H])C([H])([H])C([H])([H])C(=O)N4C([H])([H])C([H])([H])C([H])([H])C([H])(n5nc(-c6c([H])c([H])c(Oc7c([H])c([H])c(F)c([H])c7F)c([H])c6[H])c(C(=O)N([H])[H])c5N([H])[H])C4([H])[H])C([H])([H])[H])c3[H])c([H])c([H])c2C1([H])[H]

>  <smiles>  (19) 
[H]c1c([H])c([H])c2c(c1[H])C([H])([H])C([H])([H])C([H])([H])C2([H])N([H])C(=O)C1([H])N(C(=O)C([H])(N([H])C(=O)C([H])(N([H])C([H])([H])[H])C([H])([H])[H])C(C([H])([H])[H])(C([H])([H])[H])C([H])([H])[H])C([H])([H])c2c([H])c(OC([H])([H])C(=O)c3c([H])c([H])c(C([H])([H])[H])c(C([H])([H])C([H])(C(=O)N([H])C([H])([H])C([H])([H])C(=O)N4C([H])([H])C([H])([H])C([H])([H])C([H])(n5nc(-c6c([H])c([H])c(Oc7c([H])c([H])c(F)c([H])c7F)c([H])c6[H])c(C(=O)N([H])[H])c5N([H])[H])C4([H])[H])C([H])([H])[H])c3[H])c([H])c([H])c2C1([H])[H]

$$$$
19:0:0
     RDKit          3D

 91100  0  0  1  0  0  0  0  0999 V2000
  -27.4870  -22.9660   20.0650 C   0  0  0  0  0  2  0  0  0  0  0  0
  -29.5490  -22.9670   20.2910 C   0  0  0  0  0  2  0  0  0  0  0  0
  -28.4720  -21.9170   20.6490 C   0  0  0  0  0  3  0  0  0  0  0  0
  -28.4840  -24.1000   20.4010 C   0  0  0  0  0  3  0  0  0  0  0  0
  -27.4190  -18.6250   18.9200 C   0  0  0  0  0  3  0  0  0  0  0  0
  -27.4900  -19.9780   19.3010 C   0  0  0  0  0  3  0  0  0  0  0  0
  -28.3300  -17.6840   19.4360 C   0  0  0  0  0  3  0  0  0  0  0  0
  -29.3960  -19.4620   20.7200 C   0  0  0  0  0  3  0  0  0  0  0  0
  -28.4800  -20.4290   20.2010 C   0  0  0  0  0  0  0  0  0  0  0  0
  -29.3230  -18.0790   20.3580 C   0  0  0  0  0  0  0  0  0  0  0  0
  -30.3110  -17.0310   20.9320 C   0  0  0  0  0  2  0  0  0  0  0  0
  -30.6530  -14.5440   20.4940 C   0  0  0  0  0  0  0  0  0  0  0  0
  -30.3940  -12.3560   19.3760 C   0  0  0  0  0  2  0  0  0  0  0  0
  -29.4640  -12.5360   18.1570 C   0  0  0  0  0  2  0  0  0  0  0  0
  -27.9860  -12.3920   18.5710 C   0  0  0  0  0  2  0  0  0  0  0  0
  -27.6290  -13.2490   19.8140 C   0  0  0  0  0  3  0  0  0  0  0  0
  -28.6710  -13.0480   20.9380 C   0  0  0  0  0  2  0  0  0  0  0  0
  -29.9950  -13.3560   20.3820 N   0  0  0  0  0  0  0  0  0  0  0  0
  -31.8130  -14.6960   20.1010 O   0  0  0  0  0  0  0  0  0  0  0  0
  -29.9040  -15.6010   20.8860 N   0  0  0  0  0  0  0  0  0  0  0  0
  -28.9620  -15.3910   21.1780 H   0  0  0  0  0  0  0  0  0  0  0  0
  -25.2230  -13.8740   20.4780 C   0  0  0  0  0  0  0  0  0  0  0  0
  -24.1460  -13.1070   20.8320 C   0  0  0  0  0  0  0  0  0  0  0  0
  -24.6040  -11.7540   20.8270 C   0  0  0  0  0  0  0  0  0  0  0  0
  -26.2690  -12.9870   20.2760 N   0  0  0  0  0  0  0  0  0  0  0  0
  -25.9000  -11.7080   20.5440 N   0  0  0  0  0  0  0  0  0  0  0  0
  -23.8720  -10.4950   21.0180 C   0  0  0  0  0  0  0  0  0  0  0  0
  -24.2870   -9.5350   21.9660 C   0  0  0  0  0  3  0  0  0  0  0  0
  -23.5550   -8.3400   22.1420 C   0  0  0  0  0  3  0  0  0  0  0  0
  -22.3940   -8.1000   21.3690 C   0  0  0  0  0  0  0  0  0  0  0  0
  -21.9970   -9.0500   20.4120 C   0  0  0  0  0  3  0  0  0  0  0  0
  -22.7290  -10.2360   20.2350 C   0  0  0  0  0  3  0  0  0  0  0  0
  -21.6330   -6.9590   21.4560 O   0  0  0  0  0  0  0  0  0  0  0  0
  -21.5650   -6.2260   22.6140 C   0  0  0  0  0  0  0  0  0  0  0  0
  -21.1170   -6.7900   23.8290 C   0  0  0  0  0  3  0  0  0  0  0  0
  -20.9970   -5.9820   24.9770 C   0  0  0  0  0  3  0  0  0  0  0  0
  -21.3140   -4.6120   24.9110 C   0  0  0  0  0  0  0  0  0  0  0  0
  -21.7550   -4.0480   23.7020 C   0  0  0  0  0  3  0  0  0  0  0  0
  -21.8780   -4.8530   22.5550 C   0  0  0  0  0  0  0  0  0  0  0  0
  -22.2830   -4.2990   21.3870 F   0  0  0  0  0  0  0  0  0  0  0  0
  -21.1900   -3.8350   26.0120 F   0  0  0  0  0  0  0  0  0  0  0  0
  -22.7450  -13.5930   21.0700 C   0  0  0  0  0  0  0  0  0  0  0  0
  -21.9950  -12.9100   21.9270 N   0  0  0  0  0  0  0  0  0  0  0  0
  -22.3200  -14.6130   20.5300 O   0  0  0  0  0  0  0  0  0  0  0  0
  -22.3470  -12.0810   22.3870 H   0  0  0  0  0  0  0  0  0  0  0  0
  -21.0560  -13.2200   22.1270 H   0  0  0  0  0  0  0  0  0  0  0  0
  -25.3910  -15.2420   20.2900 N   0  0  0  0  0  0  0  0  0  0  0  0
  -24.6210  -15.8940   20.3920 H   0  0  0  0  0  0  0  0  0  0  0  0
  -26.2470  -15.6910   19.9970 H   0  0  0  0  0  0  0  0  0  0  0  0
  -28.5790  -25.3890   19.5260 C   0  0  0  0  0  2  0  0  0  0  0  0
  -28.4130  -26.6650   20.2110 O   0  0  0  0  0  0  0  0  0  0  0  0
  -24.5700  -31.8880   23.2370 C   0  0  0  0  0  0  0  0  0  0  0  0
  -27.2270  -27.3950   20.1720 C   0  0  0  0  0  0  0  0  0  0  0  0
  -23.3710  -30.4880   21.5900 C   0  0  0  0  0  3  0  0  0  0  0  0
  -24.8330  -28.9420   20.1740 C   0  0  0  0  0  0  0  0  0  0  0  0
  -25.9060  -30.8290   21.4100 C   0  0  0  0  0  2  0  0  0  0  0  0
  -25.9920  -29.4540   20.7670 C   0  0  0  0  0  0  0  0  0  0  0  0
  -27.1870  -28.6900   20.7610 C   0  0  0  0  0  3  0  0  0  0  0  0
  -26.0370  -26.9030   19.5870 C   0  0  0  0  0  3  0  0  0  0  0  0
  -24.8540  -27.6670   19.5840 C   0  0  0  0  0  3  0  0  0  0  0  0
  -23.5920  -29.8070   20.2130 C   0  0  0  0  0  2  0  0  0  0  0  0
  -24.6340  -31.0840   22.1360 N   0  0  0  0  0  0  0  0  0  0  0  0
  -23.4840  -32.1610   23.7690 O   0  0  0  0  0  0  0  0  0  0  0  0
  -22.7120  -29.4680   22.5480 C   0  0  0  0  0  0  0  0  0  0  0  0
  -21.3860  -29.2980   22.4230 N   0  0  0  0  0  0  0  0  0  0  0  0
  -23.3910  -28.8340   23.3620 O   0  0  0  0  0  0  0  0  0  0  0  0
  -20.9010  -29.8630   21.7410 H   0  0  0  0  0  0  0  0  0  0  0  0
  -18.0080  -28.1200   22.9090 C   0  0  0  0  0  0  0  0  0  0  0  0
  -20.5670  -28.3580   23.1860 C   0  0  0  0  0  3  0  0  0  0  0  0
  -20.6630  -26.9320   22.5970 C   0  0  0  0  0  2  0  0  0  0  0  0
  -19.5590  -26.6200   21.5810 C   0  0  0  0  0  2  0  0  0  0  0  0
  -18.1750  -26.7730   22.2210 C   0  0  0  0  0  2  0  0  0  0  0  0
  -19.1310  -28.8690   23.3470 C   0  0  0  0  0  0  0  0  0  0  0  0
  -18.9210  -30.1330   23.9440 C   0  0  0  0  0  3  0  0  0  0  0  0
  -17.6200  -30.6420   24.1100 C   0  0  0  0  0  3  0  0  0  0  0  0
  -16.5100  -29.8870   23.6940 C   0  0  0  0  0  3  0  0  0  0  0  0
  -16.7060  -28.6280   23.0980 C   0  0  0  0  0  3  0  0  0  0  0  0
  -25.8520  -32.5220   23.8620 C   0  0  0  0  0  3  0  0  0  0  0  0
  -26.3600  -31.7550   25.1450 C   0  0  1  0  0  0  0  0  0  0  0  0
  -25.2590  -31.5230   26.2060 C   0  0  0  0  0  1  0  0  0  0  0  0
  -26.9410  -30.3740   24.7630 C   0  0  0  0  0  1  0  0  0  0  0  0
  -27.5050  -32.5510   25.8130 C   0  0  0  0  0  1  0  0  0  0  0  0
  -25.5420  -33.9220   24.1830 N   0  0  0  0  0  0  0  0  0  0  0  0
  -25.8860  -34.9710   23.4240 C   0  0  0  0  0  0  0  0  0  0  0  0
  -26.5700  -34.8620   22.4020 O   0  0  0  0  0  0  0  0  0  0  0  0
  -24.9400  -34.0830   24.9770 H   0  0  0  0  0  0  0  0  0  0  0  0
  -24.1740  -36.7710   23.0380 C   0  0  0  0  0  1  0  0  0  0  0  0
  -25.3980  -36.3630   23.8710 C   0  0  0  0  0  3  0  0  0  0  0  0
  -27.5210  -37.2420   24.7380 C   0  0  0  0  0  1  0  0  0  0  0  0
  -26.4370  -37.4110   23.7720 N   0  0  0  0  0  0  0  0  0  0  0  0
  -26.0320  -38.3330   23.9100 H   0  0  0  0  0  0  0  0  0  0  0  0
  1  4  1  0
  1  3  1  0
  2  4  1  0
  2  3  1  0
  3  9  1  0
  4 50  1  0
  5  6  2  0
  5  7  1  0
  6  9  1  0
  7 10  2  0
  9  8  2  0
 10  8  1  0
 10 11  1  0
 12 20  1  0
 13 18  1  0
 14 15  1  0
 14 13  1  0
 16 15  1  0
 16 25  1  0
 16 17  1  0
 18 12  1  0
 18 17  1  0
 19 12  2  0
 20 11  1  0
 20 21  1  0
 22 23  2  0
 23 42  1  0
 24 23  1  0
 24 27  1  0
 25 22  1  0
 25 26  1  0
 26 24  2  0
 27 28  1  0
 28 29  2  0
 30 33  1  0
 30 29  1  0
 31 30  2  0
 32 31  1  0
 32 27  2  0
 33 34  1  0
 34 35  1  0
 35 36  2  0
 37 36  1  0
 37 41  1  0
 38 37  2  0
 39 34  2  0
 39 38  1  0
 40 39  1  0
 42 43  1  0
 43 46  1  0
 43 45  1  0
 44 42  2  0
 47 48  1  0
 47 22  1  0
 49 47  1  0
 50 51  1  0
 52 63  2  0
 53 51  1  0
 53 58  1  0
 54 62  1  0
 54 64  1  0
 55 61  1  0
 55 57  1  0
 56 62  1  0
 57 56  1  0
 58 57  2  0
 59 53  2  0
 60 59  1  0
 60 55  2  0
 61 54  1  0
 62 52  1  0
 64 66  2  0
 65 64  1  0
 67 65  1  0
 68 77  2  0
 68 73  1  0
 69 65  1  0
 69 73  1  0
 70 69  1  0
 71 72  1  0
 71 70  1  0
 72 68  1  0
 73 74  2  0
 74 75  1  0
 76 75  2  0
 77 76  1  0
 78 52  1  0
 78 83  1  0
 78 79  1  0
 79 82  1  1
 79 80  1  0
 81 79  1  0
 83 86  1  0
 84 88  1  0
 84 83  1  0
 85 84  2  0
 88 87  1  0
 90 88  1  0
 90 91  1  0
 90 89  1  0
M  ISO  4  12 100  20 100  50 101  51 101
M  END
>  <TORSDO>  (20) 
F 19

>  <SCORE>  (20) 
-14.426

>  <name>  (20) 
19

>  <ligand_id>  (20) 
19

>  <original_smiles>  (20) 
[H]c1c([H])c([H])c2c(c1[H])C([H])([H])C([H])([H])C([H])([H])C2([H])N([H])C(=O)C1([H])N(C(=O)C([H])(N([H])C(=O)C([H])(N([H])C([H])([H])[H])C([H])([H])[H])C(C([H])([H])[H])(C([H])([H])[H])C([H])([H])[H])C([H])([H])c2c([H])c(OC([H])([H])C3([H])C([H])([H])C([H])(c4c([H])c([H])c([H])c(C([H])([H])N([H])C(=O)N5C([H])([H])C([H])([H])C([H])([H])C([H])(n6nc(-c7c([H])c([H])c(Oc8c([H])c([H])c(F)c([H])c8F)c([H])c7[H])c(C(=O)N([H])[H])c6N([H])[H])C5([H])[H])c4[H])C3([H])[H])c([H])c([H])c2C1([H])[H]

>  <smiles>  (20) 
[H]c1c([H])c([H])c2c(c1[H])C([H])([H])C([H])([H])C([H])([H])C2([H])N([H])C(=O)C1([H])N(C(=O)C([H])(N([H])C(=O)C([H])(N([H])C([H])([H])[H])C([H])([H])[H])C(C([H])([H])[H])(C([H])([H])[H])C([H])([H])[H])C([H])([H])c2c([H])c(OC([H])([H])C3([H])C([H])([H])C([H])(c4c([H])c([H])c([H])c(C([H])([H])N([H])C(=O)N5C([H])([H])C([H])([H])C([H])([H])C([H])(n6nc(-c7c([H])c([H])c(Oc8c([H])c([H])c(F)c([H])c8F)c([H])c7[H])c(C(=O)N([H])[H])c6N([H])[H])C5([H])[H])c4[H])C3([H])[H])c([H])c([H])c2C1([H])[H]

$$$$
20:0:0
     RDKit          3D

 84 91  0  0  1  0  0  0  0  0999 V2000
  -28.7190  -22.1800   20.5330 C   0  0  0  0  0  0  0  0  0  0  0  0
  -28.9980  -22.2460   21.7330 O   0  0  0  0  0  1  0  0  0  0  0  0
  -29.0430  -20.5650   19.8020 C   0  0  0  0  0  0  0  0  0  0  0  0
  -29.3520  -19.0290   19.7720 C   0  0  0  0  0  0  0  0  0  0  0  0
  -29.5060  -18.5440   18.3310 C   0  0  0  0  0  1  0  0  0  0  0  0
  -29.6200  -17.3840   20.5830 C   0  0  0  0  0  2  0  0  0  0  0  0
  -30.3300  -15.6720   20.2380 C   0  0  0  0  0  0  0  0  0  0  0  0
  -30.4330  -13.1170   19.4370 C   0  0  0  0  0  2  0  0  0  0  0  0
  -29.5520  -12.7500   18.2070 C   0  0  0  0  0  2  0  0  0  0  0  0
  -28.1200  -12.4020   18.6400 C   0  0  0  0  0  2  0  0  0  0  0  0
  -27.6080  -13.3940   19.7070 C   0  0  0  0  0  3  0  0  0  0  0  0
  -28.6270  -13.6890   20.8340 C   0  0  0  0  0  2  0  0  0  0  0  0
  -29.8270  -14.2950   20.2130 N   0  0  0  0  0  0  0  0  0  0  0  0
  -31.5430  -15.5950   19.9590 O   0  0  0  0  0  0  0  0  0  0  0  0
  -25.2360  -13.9130   20.4480 C   0  0  0  0  0  0  0  0  0  0  0  0
  -24.1790  -13.1280   20.8100 C   0  0  0  0  0  0  0  0  0  0  0  0
  -24.6590  -11.7830   20.7930 C   0  0  0  0  0  0  0  0  0  0  0  0
  -26.2880  -13.0490   20.2170 N   0  0  0  0  0  0  0  0  0  0  0  0
  -25.9550  -11.7600   20.4930 N   0  0  0  0  0  0  0  0  0  0  0  0
  -23.9380  -10.5160   20.9860 C   0  0  0  0  0  0  0  0  0  0  0  0
  -24.3670   -9.5540   21.9270 C   0  0  0  0  0  3  0  0  0  0  0  0
  -23.6410   -8.3570   22.1100 C   0  0  0  0  0  3  0  0  0  0  0  0
  -22.4710   -8.1120   21.3520 C   0  0  0  0  0  0  0  0  0  0  0  0
  -22.0610   -9.0630   20.4010 C   0  0  0  0  0  3  0  0  0  0  0  0
  -22.7880  -10.2510   20.2160 C   0  0  0  0  0  3  0  0  0  0  0  0
  -21.7180   -6.9660   21.4420 O   0  0  0  0  0  0  0  0  0  0  0  0
  -21.6680   -6.2260   22.5970 C   0  0  0  0  0  0  0  0  0  0  0  0
  -21.2420   -6.7860   23.8210 C   0  0  0  0  0  3  0  0  0  0  0  0
  -21.1390   -5.9730   24.9680 C   0  0  0  0  0  3  0  0  0  0  0  0
  -21.4530   -4.6020   24.8910 C   0  0  0  0  0  0  0  0  0  0  0  0
  -21.8730   -4.0430   23.6710 C   0  0  0  0  0  3  0  0  0  0  0  0
  -21.9770   -4.8530   22.5270 C   0  0  0  0  0  0  0  0  0  0  0  0
  -22.3610   -4.3040   21.3490 F   0  0  0  0  0  0  0  0  0  0  0  0
  -21.3470   -3.8190   25.9900 F   0  0  0  0  0  0  0  0  0  0  0  0
  -22.7750  -13.5970   21.0580 C   0  0  0  0  0  0  0  0  0  0  0  0
  -22.0420  -12.9050   21.9220 N   0  0  0  0  0  0  0  0  0  0  0  0
  -22.3390  -14.6160   20.5230 O   0  0  0  0  0  0  0  0  0  0  0  0
  -22.4080  -12.0810   22.3760 H   0  0  0  0  0  0  0  0  0  0  0  0
  -21.1000  -13.2030   22.1310 H   0  0  0  0  0  0  0  0  0  0  0  0
  -25.3880  -15.2850   20.2630 N   0  0  0  0  0  0  0  0  0  0  0  0
  -24.6160  -15.9340   20.3700 H   0  0  0  0  0  0  0  0  0  0  0  0
  -26.2390  -15.7320   19.9480 H   0  0  0  0  0  0  0  0  0  0  0  0
  -28.0400  -23.8130   19.9110 C   0  0  0  0  0  2  0  0  0  0  0  0
  -28.1170  -25.5120   20.3710 O   0  0  0  0  0  0  0  0  0  0  0  0
  -24.5780  -31.8150   23.1720 C   0  0  0  0  0  0  0  0  0  0  0  0
  -27.1570  -26.7280   20.2420 C   0  0  0  0  0  0  0  0  0  0  0  0
  -23.4090  -30.3970   21.5380 C   0  0  0  0  0  3  0  0  0  0  0  0
  -24.8780  -28.7470   20.1460 C   0  0  0  0  0  0  0  0  0  0  0  0
  -25.9880  -30.5520   21.4370 C   0  0  0  0  0  2  0  0  0  0  0  0
  -26.0640  -29.1150   20.7920 C   0  0  0  0  0  0  0  0  0  0  0  0
  -27.1850  -28.1310   20.8120 C   0  0  0  0  0  3  0  0  0  0  0  0
  -25.9410  -26.5740   19.5280 C   0  0  0  0  0  3  0  0  0  0  0  0
  -24.8560  -27.5030   19.4910 C   0  0  0  0  0  3  0  0  0  0  0  0
  -23.6630  -29.6900   20.1740 C   0  0  0  0  0  2  0  0  0  0  0  0
  -24.6820  -30.9550   22.1010 N   0  0  0  0  0  0  0  0  0  0  0  0
  -23.4800  -32.1140   23.6720 O   0  0  0  0  0  0  0  0  0  0  0  0
  -22.6910  -29.4250   22.5130 C   0  0  0  0  0  0  0  0  0  0  0  0
  -21.3560  -29.2810   22.3950 N   0  0  0  0  0  0  0  0  0  0  0  0
  -23.3460  -28.7970   23.3480 O   0  0  0  0  0  0  0  0  0  0  0  0
  -20.8780  -29.8380   21.7010 H   0  0  0  0  0  0  0  0  0  0  0  0
  -17.9610  -28.1050   22.9350 C   0  0  0  0  0  0  0  0  0  0  0  0
  -20.5250  -28.3520   23.1720 C   0  0  0  0  0  3  0  0  0  0  0  0
  -20.6080  -26.9190   22.5960 C   0  0  0  0  0  2  0  0  0  0  0  0
  -19.4950  -26.6090   21.5900 C   0  0  0  0  0  2  0  0  0  0  0  0
  -18.1200  -26.7590   22.2470 C   0  0  0  0  0  2  0  0  0  0  0  0
  -19.0880  -28.8600   23.3540 C   0  0  0  0  0  0  0  0  0  0  0  0
  -18.8810  -30.1160   23.9640 C   0  0  0  0  0  3  0  0  0  0  0  0
  -17.5800  -30.6200   24.1520 C   0  0  0  0  0  3  0  0  0  0  0  0
  -16.4670  -29.8630   23.7450 C   0  0  0  0  0  3  0  0  0  0  0  0
  -16.6590  -28.6070   23.1420 C   0  0  0  0  0  3  0  0  0  0  0  0
  -25.8330  -32.4780   23.8180 C   0  0  0  0  0  3  0  0  0  0  0  0
  -26.3270  -31.7280   25.1180 C   0  0  1  0  0  0  0  0  0  0  0  0
  -25.2170  -31.5050   26.1710 C   0  0  0  0  0  1  0  0  0  0  0  0
  -26.9220  -30.3460   24.7690 C   0  0  0  0  0  1  0  0  0  0  0  0
  -27.4650  -32.5370   25.7860 C   0  0  0  0  0  1  0  0  0  0  0  0
  -25.4970  -33.8770   24.1460 N   0  0  0  0  0  0  0  0  0  0  0  0
  -25.8270  -34.9460   23.4080 C   0  0  0  0  0  0  0  0  0  0  0  0
  -26.5050  -34.8570   22.3810 O   0  0  0  0  0  0  0  0  0  0  0  0
  -24.8930  -34.0170   24.9440 H   0  0  0  0  0  0  0  0  0  0  0  0
  -24.0890  -36.7410   23.0770 C   0  0  0  0  0  1  0  0  0  0  0  0
  -25.3340  -36.3310   23.8810 C   0  0  0  0  0  3  0  0  0  0  0  0
  -27.4640  -37.2280   24.7170 C   0  0  0  0  0  1  0  0  0  0  0  0
  -26.3600  -37.3920   23.7750 N   0  0  0  0  0  0  0  0  0  0  0  0
  -25.9470  -38.3090   23.9270 H   0  0  0  0  0  0  0  0  0  0  0  0
  1  2  1  0
  3  1  2  0
  4  3  2  0
  4  6  1  0
  5  4  1  0
  7  6  1  0
  8 13  1  0
  9 10  1  0
  9  8  1  0
 11 10  1  0
 11 18  1  0
 11 12  1  0
 13  7  1  0
 13 12  1  0
 14  7  2  0
 15 16  2  0
 16 35  1  0
 17 16  1  0
 17 20  1  0
 18 15  1  0
 18 19  1  0
 19 17  2  0
 20 21  1  0
 21 22  2  0
 23 26  1  0
 23 22  1  0
 24 23  2  0
 25 24  1  0
 25 20  2  0
 26 27  1  0
 27 28  1  0
 28 29  2  0
 30 29  1  0
 30 34  1  0
 31 30  2  0
 32 27  2  0
 32 31  1  0
 33 32  1  0
 35 36  1  0
 36 39  1  0
 36 38  1  0
 37 35  2  0
 40 41  1  0
 40 15  1  0
 42 40  1  0
 43 44  1  0
 43  1  1  0
 45 56  2  0
 46 44  1  0
 46 51  1  0
 47 55  1  0
 47 57  1  0
 48 54  1  0
 48 50  1  0
 49 55  1  0
 50 51  2  0
 50 49  1  0
 52 46  2  0
 53 52  1  0
 53 48  2  0
 54 47  1  0
 55 45  1  0
 57 59  2  0
 58 57  1  0
 60 58  1  0
 61 70  2  0
 61 66  1  0
 62 58  1  0
 62 66  1  0
 63 62  1  0
 64 65  1  0
 64 63  1  0
 65 61  1  0
 66 67  2  0
 67 68  1  0
 69 68  2  0
 70 69  1  0
 71 45  1  0
 71 76  1  0
 71 72  1  0
 72 75  1  1
 72 73  1  0
 74 72  1  0
 76 79  1  0
 77 81  1  0
 77 76  1  0
 78 77  2  0
 81 80  1  0
 83 81  1  0
 83 84  1  0
 83 82  1  0
M  ISO  4   6 100   7 100  43 101  44 101
M  END
>  <TORSDO>  (21) 
F 19

>  <SCORE>  (21) 
-16.380

>  <name>  (21) 
20

>  <ligand_id>  (21) 
20

>  <original_smiles>  (21) 
[H]C(C(=O)C([H])([H])Oc1c([H])c([H])c2c(c1[H])C([H])([H])N(C(=O)C([H])(N([H])C(=O)C([H])(N([H])C([H])([H])[H])C([H])([H])[H])C(C([H])([H])[H])(C([H])([H])[H])C([H])([H])[H])C([H])(C(=O)N([H])C1([H])c3c([H])c([H])c([H])c([H])c3C([H])([H])C([H])([H])C1([H])[H])C2([H])[H])=C(C([H])([H])[H])C([H])([H])C(=O)N1C([H])([H])C([H])([H])C([H])([H])C([H])(n2nc(-c3c([H])c([H])c(Oc4c([H])c([H])c(F)c([H])c4F)c([H])c3[H])c(C(=O)N([H])[H])c2N([H])[H])C1([H])[H]

>  <smiles>  (21) 
[H]C(C(=O)C([H])([H])Oc1c([H])c([H])c2c(c1[H])C([H])([H])N(C(=O)C([H])(N([H])C(=O)C([H])(N([H])C([H])([H])[H])C([H])([H])[H])C(C([H])([H])[H])(C([H])([H])[H])C([H])([H])[H])C([H])(C(=O)N([H])C1([H])c3c([H])c([H])c([H])c([H])c3C([H])([H])C([H])([H])C1([H])[H])C2([H])[H])=C(C([H])([H])[H])C([H])([H])C(=O)N1C([H])([H])C([H])([H])C([H])([H])C([H])(n2nc(-c3c([H])c([H])c(Oc4c([H])c([H])c(F)c([H])c4F)c([H])c3[H])c(C(=O)N([H])[H])c2N([H])[H])C1([H])[H]

$$$$
21:0:0
     RDKit          3D

 84 91  0  0  1  0  0  0  0  0999 V2000
  -28.8120  -22.8250   20.5790 C   0  0  0  0  0  3  0  0  0  0  0  0
  -28.9290  -21.2180   19.9190 C   0  0  0  0  0  0  0  0  0  0  0  0
  -28.7240  -21.2060   18.7030 O   0  0  0  0  0  0  0  0  0  0  0  0
  -29.2650  -19.7150   20.5960 C   0  0  0  0  0  3  0  0  0  0  0  0
  -29.5270  -18.3690   20.0640 C   0  0  0  0  0  3  0  0  0  0  0  0
  -29.6900  -16.7640   20.7030 C   0  0  0  0  0  2  0  0  0  0  0  0
  -30.4700  -15.2620   20.2730 C   0  0  0  0  0  0  0  0  0  0  0  0
  -30.4540  -12.8250   19.3830 C   0  0  0  0  0  2  0  0  0  0  0  0
  -29.5200  -12.6690   18.1550 C   0  0  0  0  0  2  0  0  0  0  0  0
  -28.0710  -12.4060   18.5980 C   0  0  0  0  0  2  0  0  0  0  0  0
  -27.6380  -13.3530   19.7450 C   0  0  0  0  0  3  0  0  0  0  0  0
  -28.6950  -13.4560   20.8650 C   0  0  0  0  0  2  0  0  0  0  0  0
  -29.9380  -13.9450   20.2490 N   0  0  0  0  0  0  0  0  0  0  0  0
  -31.6570  -15.2950   19.9150 O   0  0  0  0  0  0  0  0  0  0  0  0
  -25.2720  -13.9080   20.5230 C   0  0  0  0  0  0  0  0  0  0  0  0
  -24.2130  -13.1270   20.8950 C   0  0  0  0  0  0  0  0  0  0  0  0
  -24.6790  -11.7780   20.8490 C   0  0  0  0  0  0  0  0  0  0  0  0
  -26.3120  -13.0340   20.2610 N   0  0  0  0  0  0  0  0  0  0  0  0
  -25.9670  -11.7460   20.5250 N   0  0  0  0  0  0  0  0  0  0  0  0
  -23.9540  -10.5140   21.0360 C   0  0  0  0  0  0  0  0  0  0  0  0
  -24.3960   -9.5340   21.9520 C   0  0  0  0  0  3  0  0  0  0  0  0
  -23.6680   -8.3370   22.1290 C   0  0  0  0  0  3  0  0  0  0  0  0
  -22.4830   -8.1120   21.3890 C   0  0  0  0  0  0  0  0  0  0  0  0
  -22.0590   -9.0790   20.4620 C   0  0  0  0  0  3  0  0  0  0  0  0
  -22.7870  -10.2680   20.2830 C   0  0  0  0  0  3  0  0  0  0  0  0
  -21.7260   -6.9680   21.4760 O   0  0  0  0  0  0  0  0  0  0  0  0
  -21.6970   -6.2080   22.6180 C   0  0  0  0  0  0  0  0  0  0  0  0
  -21.2980   -6.7460   23.8600 C   0  0  0  0  0  3  0  0  0  0  0  0
  -21.2150   -5.9130   24.9940 C   0  0  0  0  0  3  0  0  0  0  0  0
  -21.5220   -4.5440   24.8860 C   0  0  0  0  0  0  0  0  0  0  0  0
  -21.9140   -4.0050   23.6480 C   0  0  0  0  0  3  0  0  0  0  0  0
  -21.9970   -4.8350   22.5170 C   0  0  0  0  0  0  0  0  0  0  0  0
  -22.3550   -4.3060   21.3220 F   0  0  0  0  0  0  0  0  0  0  0  0
  -21.4360   -3.7420   25.9740 F   0  0  0  0  0  0  0  0  0  0  0  0
  -22.8180  -13.6020   21.1810 C   0  0  0  0  0  0  0  0  0  0  0  0
  -22.0970  -12.9000   22.0460 N   0  0  0  0  0  0  0  0  0  0  0  0
  -22.3770  -14.6320   20.6710 O   0  0  0  0  0  0  0  0  0  0  0  0
  -22.4660  -12.0660   22.4800 H   0  0  0  0  0  0  0  0  0  0  0  0
  -21.1610  -13.2000   22.2810 H   0  0  0  0  0  0  0  0  0  0  0  0
  -25.4330  -15.2800   20.3570 N   0  0  0  0  0  0  0  0  0  0  0  0
  -24.6690  -15.9340   20.4880 H   0  0  0  0  0  0  0  0  0  0  0  0
  -26.2820  -15.7230   20.0290 H   0  0  0  0  0  0  0  0  0  0  0  0
  -28.0480  -24.3300   19.9800 C   0  0  0  0  0  3  0  0  0  0  0  0
  -28.2040  -25.9270   20.3130 O   0  0  0  0  0  0  0  0  0  0  0  0
  -24.6230  -31.8660   23.1980 C   0  0  0  0  0  0  0  0  0  0  0  0
  -27.1860  -27.0020   20.2070 C   0  0  0  0  0  0  0  0  0  0  0  0
  -23.4290  -30.4620   21.5650 C   0  0  0  0  0  3  0  0  0  0  0  0
  -24.8790  -28.8560   20.1480 C   0  0  0  0  0  0  0  0  0  0  0  0
  -25.9920  -30.6830   21.4170 C   0  0  0  0  0  2  0  0  0  0  0  0
  -26.0630  -29.2720   20.7690 C   0  0  0  0  0  0  0  0  0  0  0  0
  -27.2100  -28.3640   20.7770 C   0  0  0  0  0  3  0  0  0  0  0  0
  -25.9750  -26.7310   19.5310 C   0  0  0  0  0  3  0  0  0  0  0  0
  -24.8580  -27.6050   19.5090 C   0  0  0  0  0  3  0  0  0  0  0  0
  -23.6580  -29.7720   20.1910 C   0  0  0  0  0  2  0  0  0  0  0  0
  -24.7030  -31.0290   22.1130 N   0  0  0  0  0  0  0  0  0  0  0  0
  -23.5340  -32.1570   23.7180 O   0  0  0  0  0  0  0  0  0  0  0  0
  -22.7370  -29.4690   22.5360 C   0  0  0  0  0  0  0  0  0  0  0  0
  -21.4060  -29.3080   22.4160 N   0  0  0  0  0  0  0  0  0  0  0  0
  -23.4030  -28.8450   23.3650 O   0  0  0  0  0  0  0  0  0  0  0  0
  -20.9220  -29.8630   21.7240 H   0  0  0  0  0  0  0  0  0  0  0  0
  -18.0200  -28.1180   22.9410 C   0  0  0  0  0  0  0  0  0  0  0  0
  -20.5820  -28.3760   23.1930 C   0  0  0  0  0  3  0  0  0  0  0  0
  -20.6760  -26.9420   22.6200 C   0  0  0  0  0  2  0  0  0  0  0  0
  -19.5680  -26.6210   21.6120 C   0  0  0  0  0  2  0  0  0  0  0  0
  -18.1900  -26.7690   22.2620 C   0  0  0  0  0  2  0  0  0  0  0  0
  -19.1430  -28.8790   23.3630 C   0  0  0  0  0  0  0  0  0  0  0  0
  -18.9270  -30.1400   23.9600 C   0  0  0  0  0  3  0  0  0  0  0  0
  -17.6230  -30.6410   24.1390 C   0  0  0  0  0  3  0  0  0  0  0  0
  -16.5170  -29.8770   23.7290 C   0  0  0  0  0  3  0  0  0  0  0  0
  -16.7150  -28.6180   23.1370 C   0  0  0  0  0  3  0  0  0  0  0  0
  -25.8950  -32.5100   23.8280 C   0  0  0  0  0  3  0  0  0  0  0  0
  -26.4030  -31.7500   25.1150 C   0  0  1  0  0  0  0  0  0  0  0  0
  -25.3030  -31.5210   26.1790 C   0  0  0  0  0  1  0  0  0  0  0  0
  -26.9870  -30.3670   24.7450 C   0  0  0  0  0  1  0  0  0  0  0  0
  -27.5500  -32.5480   25.7770 C   0  0  0  0  0  1  0  0  0  0  0  0
  -25.5760  -33.9110   24.1600 N   0  0  0  0  0  0  0  0  0  0  0  0
  -25.9110  -34.9720   23.4120 C   0  0  0  0  0  0  0  0  0  0  0  0
  -26.5820  -34.8750   22.3830 O   0  0  0  0  0  0  0  0  0  0  0  0
  -24.9800  -34.0580   24.9600 H   0  0  0  0  0  0  0  0  0  0  0  0
  -24.1870  -36.7760   23.0720 C   0  0  0  0  0  1  0  0  0  0  0  0
  -25.4260  -36.3590   23.8810 C   0  0  0  0  0  3  0  0  0  0  0  0
  -27.5590  -37.2380   24.7260 C   0  0  0  0  0  1  0  0  0  0  0  0
  -26.4610  -37.4120   23.7790 N   0  0  0  0  0  0  0  0  0  0  0  0
  -26.0550  -38.3320   23.9290 H   0  0  0  0  0  0  0  0  0  0  0  0
  2  1  1  0
  2  4  1  0
  3  2  2  0
  5  4  2  0
  5  6  1  0
  7  6  1  0
  8 13  1  0
  9 10  1  0
  9  8  1  0
 11 10  1  0
 11 18  1  0
 11 12  1  0
 13  7  1  0
 13 12  1  0
 14  7  2  0
 15 16  2  0
 16 35  1  0
 17 16  1  0
 17 20  1  0
 18 15  1  0
 18 19  1  0
 19 17  2  0
 20 21  1  0
 21 22  2  0
 23 26  1  0
 23 22  1  0
 24 23  2  0
 25 24  1  0
 25 20  2  0
 26 27  1  0
 27 28  1  0
 28 29  2  0
 30 29  1  0
 30 34  1  0
 31 30  2  0
 32 27  2  0
 32 31  1  0
 33 32  1  0
 35 36  1  0
 36 39  1  0
 36 38  1  0
 37 35  2  0
 40 41  1  0
 40 15  1  0
 42 40  1  0
 43 44  1  0
 43  1  2  0
 45 56  2  0
 46 44  1  0
 46 51  1  0
 47 55  1  0
 47 57  1  0
 48 54  1  0
 48 50  1  0
 49 55  1  0
 50 51  2  0
 50 49  1  0
 52 46  2  0
 53 52  1  0
 53 48  2  0
 54 47  1  0
 55 45  1  0
 57 59  2  0
 58 57  1  0
 60 58  1  0
 61 70  2  0
 61 66  1  0
 62 58  1  0
 62 66  1  0
 63 62  1  0
 64 65  1  0
 64 63  1  0
 65 61  1  0
 66 67  2  0
 67 68  1  0
 69 68  2  0
 70 69  1  0
 71 45  1  0
 71 76  1  0
 71 72  1  0
 72 75  1  1
 72 73  1  0
 74 72  1  0
 76 79  1  0
 77 81  1  0
 77 76  1  0
 78 77  2  0
 81 80  1  0
 83 81  1  0
 83 84  1  0
 83 82  1  0
M  ISO  4   6 100   7 100  43 101  44 101
M  END
>  <TORSDO>  (22) 
F 20

>  <SCORE>  (22) 
-15.440

>  <name>  (22) 
21

>  <ligand_id>  (22) 
21

>  <original_smiles>  (22) 
[H]C(C(=O)C([H])([H])C([H])([H])Oc1c([H])c([H])c2c(c1[H])C([H])([H])N(C(=O)C([H])(N([H])C(=O)C([H])(N([H])C([H])([H])[H])C([H])([H])[H])C(C([H])([H])[H])(C([H])([H])[H])C([H])([H])[H])C([H])(C(=O)N([H])C1([H])c3c([H])c([H])c([H])c([H])c3C([H])([H])C([H])([H])C1([H])[H])C2([H])[H])=C([H])C([H])([H])C(=O)N1C([H])([H])C([H])([H])C([H])([H])C([H])(n2nc(-c3c([H])c([H])c(Oc4c([H])c([H])c(F)c([H])c4F)c([H])c3[H])c(C(=O)N([H])[H])c2N([H])[H])C1([H])[H]

>  <smiles>  (22) 
[H]C(C(=O)C([H])([H])C([H])([H])Oc1c([H])c([H])c2c(c1[H])C([H])([H])N(C(=O)C([H])(N([H])C(=O)C([H])(N([H])C([H])([H])[H])C([H])([H])[H])C(C([H])([H])[H])(C([H])([H])[H])C([H])([H])[H])C([H])(C(=O)N([H])C1([H])c3c([H])c([H])c([H])c([H])c3C([H])([H])C([H])([H])C1([H])[H])C2([H])[H])=C([H])C([H])([H])C(=O)N1C([H])([H])C([H])([H])C([H])([H])C([H])(n2nc(-c3c([H])c([H])c(Oc4c([H])c([H])c(F)c([H])c4F)c([H])c3[H])c(C(=O)N([H])[H])c2N([H])[H])C1([H])[H]

$$$$
22:0:0
     RDKit          3D

 99107  0  0  1  0  0  0  0  0999 V2000
  -27.6280  -22.4530   22.3410 C   0  0  0  0  0  3  0  0  0  0  0  0
  -28.1960  -21.2430   21.8910 C   0  0  0  0  0  3  0  0  0  0  0  0
  -27.4190  -23.4960   21.4280 C   0  0  0  0  0  3  0  0  0  0  0  0
  -28.4010  -22.1400   19.6470 C   0  0  0  0  0  3  0  0  0  0  0  0
  -28.5860  -21.0420   20.5360 C   0  0  0  0  0  0  0  0  0  0  0  0
  -27.7940  -23.3670   20.0770 C   0  0  0  0  0  0  0  0  0  0  0  0
  -28.9940  -19.5830   20.1110 C   0  0  0  0  0  2  0  0  0  0  0  0
  -30.3580  -19.2420   19.3740 C   0  0  0  0  0  3  0  0  0  0  0  0
  -30.4350  -19.8700   18.0300 N   0  0  0  0  0  4  0  0  0  0  0  0
  -29.6370  -19.6610   17.4520 H   0  0  0  0  0  0  0  0  0  0  0  0
  -31.2490  -19.5310   17.5480 H   0  0  0  0  0  0  0  0  0  0  0  0
  -30.5320  -20.8720   18.0830 H   0  0  0  0  0  0  0  0  0  0  0  0
  -30.7330  -17.6970   19.2150 C   0  0  0  0  0  2  0  0  0  0  0  0
  -30.9010  -16.7310   20.4710 C   0  0  0  0  0  2  0  0  0  0  0  0
  -31.6930  -15.3870   20.1680 C   0  0  0  0  0  0  0  0  0  0  0  0
  -31.5380  -13.0540   19.3470 C   0  0  0  0  0  2  0  0  0  0  0  0
  -30.5970  -13.0180   18.1180 C   0  0  0  0  0  2  0  0  0  0  0  0
  -29.1240  -12.9180   18.5460 C   0  0  0  0  0  2  0  0  0  0  0  0
  -28.7500  -13.9030   19.6830 C   0  0  0  0  0  3  0  0  0  0  0  0
  -29.7910  -13.8590   20.8190 C   0  0  0  0  0  2  0  0  0  0  0  0
  -31.1020  -14.1550   20.2290 N   0  0  0  0  0  0  0  0  0  0  0  0
  -32.8470  -15.5050   19.7460 O   0  0  0  0  0  0  0  0  0  0  0  0
  -26.4190  -14.5740   20.5190 C   0  0  0  0  0  0  0  0  0  0  0  0
  -25.3190  -13.8430   20.8430 C   0  0  0  0  0  0  0  0  0  0  0  0
  -25.6930  -12.4710   20.6980 C   0  0  0  0  0  0  0  0  0  0  0  0
  -27.4070  -13.6570   20.1930 N   0  0  0  0  0  0  0  0  0  0  0  0
  -26.9750  -12.3790   20.3610 N   0  0  0  0  0  0  0  0  0  0  0  0
  -24.8960  -11.2450   20.8210 C   0  0  0  0  0  0  0  0  0  0  0  0
  -25.2300  -10.2460   21.7610 C   0  0  0  0  0  3  0  0  0  0  0  0
  -24.4370   -9.0870   21.8820 C   0  0  0  0  0  3  0  0  0  0  0  0
  -23.2960   -8.9180   21.0680 C   0  0  0  0  0  0  0  0  0  0  0  0
  -22.9690   -9.9130   20.1310 C   0  0  0  0  0  3  0  0  0  0  0  0
  -23.7560  -11.0670   20.0050 C   0  0  0  0  0  3  0  0  0  0  0  0
  -22.4880   -7.8080   21.0980 O   0  0  0  0  0  0  0  0  0  0  0  0
  -22.2230   -7.1300   22.2660 C   0  0  0  0  0  0  0  0  0  0  0  0
  -21.6100   -7.7640   23.3660 C   0  0  0  0  0  3  0  0  0  0  0  0
  -21.2890   -7.0220   24.5220 C   0  0  0  0  0  3  0  0  0  0  0  0
  -21.5720   -5.6450   24.5720 C   0  0  0  0  0  0  0  0  0  0  0  0
  -22.1700   -5.0040   23.4700 C   0  0  0  0  0  3  0  0  0  0  0  0
  -22.4890   -5.7470   22.3180 C   0  0  0  0  0  0  0  0  0  0  0  0
  -23.0450   -5.1220   21.2520 F   0  0  0  0  0  0  0  0  0  0  0  0
  -21.2630   -4.9290   25.6770 F   0  0  0  0  0  0  0  0  0  0  0  0
  -23.9570  -14.3840   21.1950 C   0  0  0  0  0  0  0  0  0  0  0  0
  -23.2160  -13.6830   22.0450 N   0  0  0  0  0  0  0  0  0  0  0  0
  -23.5690  -15.4640   20.7450 O   0  0  0  0  0  0  0  0  0  0  0  0
  -23.5480  -12.8190   22.4450 H   0  0  0  0  0  0  0  0  0  0  0  0
  -22.3040  -14.0140   22.3250 H   0  0  0  0  0  0  0  0  0  0  0  0
  -26.6620  -15.9400   20.4460 N   0  0  0  0  0  0  0  0  0  0  0  0
  -25.9220  -16.6170   20.6290 H   0  0  0  0  0  0  0  0  0  0  0  0
  -27.5680  -16.3440   20.2500 H   0  0  0  0  0  0  0  0  0  0  0  0
  -27.4150  -24.5410   19.1430 C   0  0  0  0  0  3  0  0  0  0  0  0
  -26.9240  -24.0750   17.7180 C   0  0  0  0  0  2  0  0  0  0  0  0
  -25.4690  -23.5430   17.6470 C   0  0  0  0  0  0  0  0  0  0  0  0
  -24.7380  -23.4530   18.7560 N   0  0  0  0  0  0  0  0  0  0  0  0
  -24.9750  -23.2300   16.5610 O   0  0  0  0  0  0  0  0  0  0  0  0
  -25.1400  -23.6780   19.6530 H   0  0  0  0  0  0  0  0  0  0  0  0
  -23.7850  -23.1130   18.7350 H   0  0  0  0  0  0  0  0  0  0  0  0
  -28.4770  -25.7040   19.1630 C   0  0  0  0  0  2  0  0  0  0  0  0
  -28.2050  -27.1030   18.8470 O   0  0  0  0  0  0  0  0  0  0  0  0
  -24.4960  -31.5990   23.0820 C   0  0  0  0  0  0  0  0  0  0  0  0
  -27.0140  -27.7260   19.1790 C   0  0  0  0  0  0  0  0  0  0  0  0
  -23.2010  -30.3860   21.3470 C   0  0  0  0  0  3  0  0  0  0  0  0
  -24.5850  -29.1280   19.6270 C   0  0  0  0  0  0  0  0  0  0  0  0
  -25.7020  -30.8720   21.0130 C   0  0  0  0  0  2  0  0  0  0  0  0
  -25.7760  -29.6030   20.1860 C   0  0  0  0  0  0  0  0  0  0  0  0
  -26.9960  -28.9150   19.9590 C   0  0  0  0  0  3  0  0  0  0  0  0
  -25.7930  -27.2820   18.6310 C   0  0  0  0  0  3  0  0  0  0  0  0
  -24.5850  -27.9490   18.8740 C   0  0  0  0  0  3  0  0  0  0  0  0
  -23.3370  -29.9450   19.8680 C   0  0  0  0  0  2  0  0  0  0  0  0
  -24.4890  -30.9680   21.8670 N   0  0  0  0  0  0  0  0  0  0  0  0
  -23.4580  -31.7290   23.7460 O   0  0  0  0  0  0  0  0  0  0  0  0
  -22.6720  -29.2020   22.1930 C   0  0  0  0  0  0  0  0  0  0  0  0
  -21.3760  -28.8750   22.0350 N   0  0  0  0  0  0  0  0  0  0  0  0
  -23.4280  -28.5900   22.9540 O   0  0  0  0  0  0  0  0  0  0  0  0
  -20.8470  -29.3810   21.3360 H   0  0  0  0  0  0  0  0  0  0  0  0
  -18.1780  -27.1980   22.2770 C   0  0  0  0  0  0  0  0  0  0  0  0
  -20.6680  -27.7810   22.7110 C   0  0  0  0  0  3  0  0  0  0  0  0
  -20.9860  -26.4320   22.0310 C   0  0  0  0  0  2  0  0  0  0  0  0
  -20.0030  -26.1090   20.8980 C   0  0  0  0  0  2  0  0  0  0  0  0
  -18.5860  -25.9760   21.4570 C   0  0  0  0  0  2  0  0  0  0  0  0
  -19.1620  -28.0620   22.8420 C   0  0  0  0  0  0  0  0  0  0  0  0
  -18.7320  -29.2060   23.5550 C   0  0  0  0  0  3  0  0  0  0  0  0
  -17.3610  -29.4880   23.7060 C   0  0  0  0  0  3  0  0  0  0  0  0
  -16.3980  -28.6340   23.1370 C   0  0  0  0  0  3  0  0  0  0  0  0
  -16.8090  -27.4950   22.4220 C   0  0  0  0  0  3  0  0  0  0  0  0
  -25.8100  -32.2050   23.6810 C   0  0  0  0  0  3  0  0  0  0  0  0
  -26.3810  -31.3840   24.9030 C   0  0  1  0  0  0  0  0  0  0  0  0
  -25.3310  -31.0880   26.0000 C   0  0  0  0  0  1  0  0  0  0  0  0
  -26.9680  -30.0350   24.4300 C   0  0  0  0  0  1  0  0  0  0  0  0
  -27.5460  -32.1560   25.5690 C   0  0  0  0  0  1  0  0  0  0  0  0
  -25.5160  -33.5850   24.0980 N   0  0  0  0  0  0  0  0  0  0  0  0
  -25.7950  -34.6760   23.3710 C   0  0  0  0  0  0  0  0  0  0  0  0
  -26.4140  -34.6290   22.3030 O   0  0  0  0  0  0  0  0  0  0  0  0
  -24.9700  -33.6930   24.9390 H   0  0  0  0  0  0  0  0  0  0  0  0
  -24.0380  -36.4730   23.1840 C   0  0  0  0  0  1  0  0  0  0  0  0
  -25.3220  -36.0440   23.9160 C   0  0  0  0  0  3  0  0  0  0  0  0
  -27.4840  -36.9110   24.6900 C   0  0  0  0  0  1  0  0  0  0  0  0
  -26.3400  -37.1120   23.8010 N   0  0  0  0  0  0  0  0  0  0  0  0
  -25.9360  -38.0200   24.0090 H   0  0  0  0  0  0  0  0  0  0  0  0
  2  1  1  0
  3  1  2  0
  4  6  2  0
  4  5  1  0
  5  2  2  0
  6  3  1  0
  7  5  1  0
  8 13  1  0
  8  7  1  0
  9 12  1  0
  9  8  1  0
 10  9  1  0
 11  9  1  0
 13 14  1  0
 15 21  1  0
 15 14  1  0
 16 21  1  0
 17 18  1  0
 17 16  1  0
 19 18  1  0
 19 26  1  0
 19 20  1  0
 21 20  1  0
 22 15  2  0
 23 24  2  0
 24 43  1  0
 25 28  1  0
 25 24  1  0
 26 27  1  0
 26 23  1  0
 27 25  2  0
 28 29  1  0
 29 30  2  0
 31 34  1  0
 31 30  1  0
 32 31  2  0
 33 32  1  0
 33 28  2  0
 34 35  1  0
 35 40  2  0
 35 36  1  0
 36 37  2  0
 37 38  1  0
 38 42  1  0
 39 38  2  0
 40 39  1  0
 41 40  1  0
 43 44  1  0
 44 47  1  0
 44 46  1  0
 45 43  2  0
 48 23  1  0
 48 49  1  0
 50 48  1  0
 51 52  1  0
 51 58  1  0
 51  6  1  0
 53 52  1  0
 53 54  1  0
 54 56  1  0
 55 53  2  0
 57 54  1  0
 59 58  1  0
 59 61  1  0
 60 71  2  0
 61 66  1  0
 62 70  1  0
 62 72  1  0
 63 69  1  0
 63 65  1  0
 64 70  1  0
 65 64  1  0
 66 65  2  0
 67 68  1  0
 67 61  2  0
 68 63  2  0
 69 62  1  0
 70 60  1  0
 72 74  2  0
 73 72  1  0
 75 73  1  0
 76 85  2  0
 76 81  1  0
 77 73  1  0
 77 81  1  0
 78 77  1  0
 79 80  1  0
 79 78  1  0
 80 76  1  0
 81 82  2  0
 82 83  1  0
 84 83  2  0
 85 84  1  0
 86 60  1  0
 86 91  1  0
 86 87  1  0
 87 90  1  1
 87 88  1  0
 89 87  1  0
 91 94  1  0
 92 96  1  0
 92 91  1  0
 93 92  2  0
 96 95  1  0
 98 96  1  0
 98 99  1  0
 98 97  1  0
M  ISO  4  14 100  15 100  58 101  59 101
M  END
>  <TORSDO>  (23) 
F 25

>  <SCORE>  (23) 
-9.053

>  <name>  (23) 
22

>  <ligand_id>  (23) 
22

>  <original_smiles>  (23) 
[H]c1c([H])c([H])c2c(c1[H])C([H])([H])C([H])([H])C([H])([H])C2([H])N([H])C(=O)C1([H])N(C(=O)C([H])(N([H])C(=O)C([H])(N([H])C([H])([H])[H])C([H])([H])[H])C(C([H])([H])[H])(C([H])([H])[H])C([H])([H])[H])C([H])([H])c2c([H])c(OC([H])([H])C([H])(c3c([H])c([H])c([H])c(C([H])([H])C([H])(C([H])([H])C([H])([H])C(=O)N4C([H])([H])C([H])([H])C([H])([H])C([H])(n5nc(-c6c([H])c([H])c(Oc7c([H])c([H])c(F)c([H])c7F)c([H])c6[H])c(C(=O)N([H])[H])c5N([H])[H])C4([H])[H])[N+]([H])([H])[H])c3[H])C([H])([H])C(=O)N([H])[H])c([H])c([H])c2C1([H])[H]

>  <smiles>  (23) 
[H]c1c([H])c([H])c2c(c1[H])C([H])([H])C([H])([H])C([H])([H])C2([H])N([H])C(=O)C1([H])N(C(=O)C([H])(N([H])C(=O)C([H])(N([H])C([H])([H])[H])C([H])([H])[H])C(C([H])([H])[H])(C([H])([H])[H])C([H])([H])[H])C([H])([H])c2c([H])c(OC([H])([H])C([H])(c3c([H])c([H])c([H])c(C([H])([H])C([H])(C([H])([H])C([H])([H])C(=O)N4C([H])([H])C([H])([H])C([H])([H])C([H])(n5nc(-c6c([H])c([H])c(Oc7c([H])c([H])c(F)c([H])c7F)c([H])c6[H])c(C(=O)N([H])[H])c5N([H])[H])C4([H])[H])[N+]([H])([H])[H])c3[H])C([H])([H])C(=O)N([H])[H])c([H])c([H])c2C1([H])[H]

$$$$
23:0:0
     RDKit          3D

101109  0  0  1  0  0  0  0  0999 V2000
  -33.7650  -20.3570   17.0170 C   0  0  0  0  0  2  0  0  0  0  0  0
  -30.9670  -22.8950   17.6380 C   0  0  0  0  0  3  0  0  0  0  0  0
  -33.1000  -24.0600   17.7470 C   0  0  0  0  0  3  0  0  0  0  0  0
  -31.6370  -21.6910   17.3520 C   0  0  0  0  0  3  0  0  0  0  0  0
  -33.7750  -22.8570   17.4640 C   0  0  0  0  0  3  0  0  0  0  0  0
  -31.6930  -24.0900   17.8440 C   0  0  0  0  0  0  0  0  0  0  0  0
  -33.0450  -21.6660   17.2710 C   0  0  0  0  0  0  0  0  0  0  0  0
  -31.0370  -25.3630   18.1830 C   0  0  0  0  0  3  0  0  0  0  0  0
  -29.7270  -25.5370   18.4330 C   0  0  0  0  0  3  0  0  0  0  0  0
  -29.0990  -26.8670   18.7710 C   0  0  0  0  0  2  0  0  0  0  0  0
  -28.4610  -26.8020   20.0400 O   0  0  0  0  0  0  0  0  0  0  0  0
  -24.6040  -31.8660   23.2060 C   0  0  0  0  0  0  0  0  0  0  0  0
  -27.2820  -27.4950   20.0910 C   0  0  0  0  0  0  0  0  0  0  0  0
  -23.4080  -30.4750   21.5430 C   0  0  0  0  0  3  0  0  0  0  0  0
  -24.8750  -28.9510   20.1180 C   0  0  0  0  0  0  0  0  0  0  0  0
  -25.9300  -30.8490   21.3620 C   0  0  0  0  0  2  0  0  0  0  0  0
  -26.0230  -29.4830   20.7200 C   0  0  0  0  0  0  0  0  0  0  0  0
  -27.2290  -28.7560   20.7170 C   0  0  0  0  0  3  0  0  0  0  0  0
  -26.1200  -26.9560   19.5030 C   0  0  0  0  0  3  0  0  0  0  0  0
  -24.9140  -27.6820   19.5140 C   0  0  0  0  0  3  0  0  0  0  0  0
  -23.6260  -29.8030   20.1600 C   0  0  0  0  0  2  0  0  0  0  0  0
  -24.6650  -31.0770   22.0960 N   0  0  0  0  0  0  0  0  0  0  0  0
  -23.5200  -32.1310   23.7430 O   0  0  0  0  0  0  0  0  0  0  0  0
  -22.7560  -29.4440   22.4910 C   0  0  0  0  0  0  0  0  0  0  0  0
  -21.4310  -29.2700   22.3620 N   0  0  0  0  0  0  0  0  0  0  0  0
  -23.4380  -28.8030   23.2950 O   0  0  0  0  0  0  0  0  0  0  0  0
  -20.9440  -29.8390   21.6840 H   0  0  0  0  0  0  0  0  0  0  0  0
  -18.0490  -28.1000   22.8480 C   0  0  0  0  0  0  0  0  0  0  0  0
  -20.6090  -28.3280   23.1200 C   0  0  0  0  0  3  0  0  0  0  0  0
  -20.6970  -26.9060   22.5210 C   0  0  0  0  0  2  0  0  0  0  0  0
  -19.5910  -26.6100   21.5030 C   0  0  0  0  0  2  0  0  0  0  0  0
  -18.2110  -26.7590   22.1520 C   0  0  0  0  0  2  0  0  0  0  0  0
  -19.1760  -28.8440   23.2880 C   0  0  0  0  0  0  0  0  0  0  0  0
  -18.9710  -30.1020   23.8970 C   0  0  0  0  0  3  0  0  0  0  0  0
  -17.6730  -30.6140   24.0720 C   0  0  0  0  0  3  0  0  0  0  0  0
  -16.5600  -29.8660   23.6490 C   0  0  0  0  0  3  0  0  0  0  0  0
  -16.7500  -28.6110   23.0430 C   0  0  0  0  0  3  0  0  0  0  0  0
  -25.8880  -32.4900   23.8380 C   0  0  0  0  0  3  0  0  0  0  0  0
  -26.3940  -31.7140   25.1150 C   0  0  1  0  0  0  0  0  0  0  0  0
  -25.2930  -31.4740   26.1720 C   0  0  0  0  0  1  0  0  0  0  0  0
  -26.9780  -30.3380   24.7200 C   0  0  0  0  0  1  0  0  0  0  0  0
  -27.5410  -32.5040   25.7880 C   0  0  0  0  0  1  0  0  0  0  0  0
  -25.5820  -33.8890   24.1650 N   0  0  0  0  0  0  0  0  0  0  0  0
  -25.9250  -34.9390   23.4050 C   0  0  0  0  0  0  0  0  0  0  0  0
  -26.6020  -34.8310   22.3780 O   0  0  0  0  0  0  0  0  0  0  0  0
  -24.9830  -34.0470   24.9610 H   0  0  0  0  0  0  0  0  0  0  0  0
  -24.2020  -36.7330   23.0320 C   0  0  0  0  0  1  0  0  0  0  0  0
  -25.4360  -36.3290   23.8550 C   0  0  0  0  0  3  0  0  0  0  0  0
  -27.5660  -37.2080   24.7010 C   0  0  0  0  0  1  0  0  0  0  0  0
  -26.4720  -37.3790   23.7490 N   0  0  0  0  0  0  0  0  0  0  0  0
  -26.0660  -38.3000   23.8950 H   0  0  0  0  0  0  0  0  0  0  0  0
  -33.9730  -19.6600   18.2980 N   0  0  0  0  0  4  0  0  0  0  0  0
  -33.0760  -19.5980   18.7500 H   0  0  0  0  0  0  0  0  0  0  0  0
  -34.5720  -20.2100   18.8900 H   0  0  0  0  0  0  0  0  0  0  0  0
  -36.0130  -18.2230   18.1100 C   0  0  0  0  0  1  0  0  0  0  0  0
  -34.4770  -18.2750   18.1940 C   0  0  0  0  0  3  0  0  0  0  0  0
  -33.9550  -17.4260   19.3740 C   0  0  0  0  0  2  0  0  0  0  0  0
  -31.4880  -17.4430   19.0120 C   0  0  0  0  0  0  0  0  0  0  0  0
  -32.5660  -17.6860   19.7690 N   0  0  0  0  0  0  0  0  0  0  0  0
  -31.5410  -17.4200   17.7820 O   0  0  0  0  0  0  0  0  0  0  0  0
  -32.4040  -17.7480   20.7670 H   0  0  0  0  0  0  0  0  0  0  0  0
  -30.1570  -17.1620   19.7330 C   0  0  0  0  0  2  0  0  0  0  0  0
  -28.6240  -15.9530   21.2580 C   0  0  0  0  0  1  0  0  0  0  0  0
  -31.0300  -15.9220   21.7960 C   0  0  0  0  0  1  0  0  0  0  0  0
  -30.0260  -15.8580   20.6150 C   0  0  2  0  0  0  0  0  0  0  0  0
  -30.3810  -14.5580   19.7870 C   0  0  0  0  0  0  0  0  0  0  0  0
  -29.9920  -12.3700   18.7030 C   0  0  0  0  0  2  0  0  0  0  0  0
  -28.9190  -12.4870   17.6020 C   0  0  0  0  0  2  0  0  0  0  0  0
  -27.5060  -12.2980   18.1900 C   0  0  0  0  0  2  0  0  0  0  0  0
  -27.2780  -13.1520   19.4650 C   0  0  0  0  0  3  0  0  0  0  0  0
  -28.4590  -12.9690   20.4410 C   0  0  0  0  0  2  0  0  0  0  0  0
  -29.6880  -13.3760   19.7440 N   0  0  0  0  0  0  0  0  0  0  0  0
  -31.4030  -14.6540   19.1030 O   0  0  0  0  0  0  0  0  0  0  0  0
  -24.9870  -13.6890   20.5070 C   0  0  0  0  0  0  0  0  0  0  0  0
  -23.9830  -12.8820   20.9740 C   0  0  0  0  0  0  0  0  0  0  0  0
  -24.4480  -11.5410   20.8130 C   0  0  0  0  0  0  0  0  0  0  0  0
  -26.0010  -12.8370   20.0990 N   0  0  0  0  0  0  0  0  0  0  0  0
  -25.6860  -11.5370   20.3340 N   0  0  0  0  0  0  0  0  0  0  0  0
  -23.7660  -10.2600   21.0310 C   0  0  0  0  0  0  0  0  0  0  0  0
  -24.2800   -9.2910   21.9200 C   0  0  0  0  0  3  0  0  0  0  0  0
  -23.5960   -8.0740   22.1280 C   0  0  0  0  0  3  0  0  0  0  0  0
  -22.3830   -7.8160   21.4440 C   0  0  0  0  0  0  0  0  0  0  0  0
  -21.8870   -8.7750   20.5440 C   0  0  0  0  0  3  0  0  0  0  0  0
  -22.5720   -9.9840   20.3360 C   0  0  0  0  0  3  0  0  0  0  0  0
  -21.6640   -6.6520   21.5630 O   0  0  0  0  0  0  0  0  0  0  0  0
  -21.6570   -5.9250   22.7260 C   0  0  0  0  0  0  0  0  0  0  0  0
  -21.2150   -6.4780   23.9480 C   0  0  0  0  0  3  0  0  0  0  0  0
  -21.1590   -5.6750   25.1040 C   0  0  0  0  0  3  0  0  0  0  0  0
  -21.5370   -4.3200   25.0410 C   0  0  0  0  0  0  0  0  0  0  0  0
  -21.9720   -3.7660   23.8240 C   0  0  0  0  0  3  0  0  0  0  0  0
  -22.0300   -4.5670   22.6690 C   0  0  0  0  0  0  0  0  0  0  0  0
  -22.4300   -4.0230   21.4940 F   0  0  0  0  0  0  0  0  0  0  0  0
  -21.4760   -3.5460   26.1490 F   0  0  0  0  0  0  0  0  0  0  0  0
  -22.6310  -13.3240   21.4530 C   0  0  0  0  0  0  0  0  0  0  0  0
  -22.0370  -12.5810   22.3810 N   0  0  0  0  0  0  0  0  0  0  0  0
  -22.1130  -14.3600   21.0400 O   0  0  0  0  0  0  0  0  0  0  0  0
  -22.4710  -11.7420   22.7360 H   0  0  0  0  0  0  0  0  0  0  0  0
  -21.1350  -12.8570   22.7410 H   0  0  0  0  0  0  0  0  0  0  0  0
  -25.1130  -15.0690   20.3780 N   0  0  0  0  0  0  0  0  0  0  0  0
  -24.3610  -15.7040   20.6180 H   0  0  0  0  0  0  0  0  0  0  0  0
  -25.9090  -15.5360   19.9620 H   0  0  0  0  0  0  0  0  0  0  0  0
  1  7  1  0
  1 52  1  0
  2  6  1  0
  3  6  2  0
  4  2  2  0
  5  3  1  0
  6  8  1  0
  7  4  1  0
  7  5  2  0
  8  9  2  0
  9 10  1  0
 10 11  1  0
 11 13  1  0
 12 23  2  0
 13 18  1  0
 14 22  1  0
 14 24  1  0
 15 21  1  0
 15 17  1  0
 16 22  1  0
 17 16  1  0
 18 17  2  0
 19 20  1  0
 19 13  2  0
 20 15  2  0
 21 14  1  0
 22 12  1  0
 24 26  2  0
 25 24  1  0
 27 25  1  0
 28 37  2  0
 28 33  1  0
 29 25  1  0
 29 33  1  0
 30 29  1  0
 31 32  1  0
 31 30  1  0
 32 28  1  0
 33 34  2  0
 34 35  1  0
 36 35  2  0
 37 36  1  0
 38 12  1  0
 38 43  1  0
 38 39  1  0
 39 42  1  1
 39 40  1  0
 41 39  1  0
 43 46  1  0
 44 48  1  0
 44 43  1  0
 45 44  2  0
 48 47  1  0
 50 48  1  0
 50 51  1  0
 50 49  1  0
 52 53  1  0
 52 54  1  0
 56 55  1  0
 56 52  1  0
 56 57  1  0
 57 59  1  0
 58 62  1  0
 58 59  1  0
 59 61  1  0
 60 58  2  0
 62 65  1  0
 65 63  1  1
 65 64  1  0
 66 65  1  0
 67 72  1  0
 68 69  1  0
 68 67  1  0
 70 69  1  0
 70 77  1  0
 70 71  1  0
 72 66  1  0
 72 71  1  0
 73 66  2  0
 74 75  2  0
 75 94  1  0
 76 75  1  0
 76 79  1  0
 77 78  1  0
 77 74  1  0
 78 76  2  0
 79 80  1  0
 80 81  2  0
 82 85  1  0
 82 81  1  0
 83 82  2  0
 84 83  1  0
 84 79  2  0
 85 86  1  0
 86 87  1  0
 87 88  2  0
 89 88  1  0
 89 93  1  0
 90 89  2  0
 91 86  2  0
 91 90  1  0
 92 91  1  0
 94 95  1  0
 95 97  1  0
 95 98  1  0
 96 94  2  0
 99 74  1  0
 99100  1  0
101 99  1  0
M  ISO  4  10 101  11 101  65 100  66 100
M  END
>  <TORSDO>  (24) 
F 25

>  <SCORE>  (24) 
-11.275

>  <name>  (24) 
23

>  <ligand_id>  (24) 
23

>  <original_smiles>  (24) 
[H]C(=C([H])C([H])([H])Oc1c([H])c([H])c2c(c1[H])C([H])([H])N(C(=O)C([H])(N([H])C(=O)C([H])(N([H])C([H])([H])[H])C([H])([H])[H])C(C([H])([H])[H])(C([H])([H])[H])C([H])([H])[H])C([H])(C(=O)N([H])C1([H])c3c([H])c([H])c([H])c([H])c3C([H])([H])C([H])([H])C1([H])[H])C2([H])[H])c1c([H])c([H])c(C([H])([H])[N+]([H])([H])C([H])(C([H])([H])[H])C([H])([H])N([H])C(=O)C([H])([H])C(C(=O)N2C([H])([H])C([H])([H])C([H])([H])C([H])(n3nc(-c4c([H])c([H])c(Oc5c([H])c([H])c(F)c([H])c5F)c([H])c4[H])c(C(=O)N([H])[H])c3N([H])[H])C2([H])[H])(C([H])([H])[H])C([H])([H])[H])c([H])c1[H]

>  <smiles>  (24) 
[H]C(=C([H])C([H])([H])Oc1c([H])c([H])c2c(c1[H])C([H])([H])N(C(=O)C([H])(N([H])C(=O)C([H])(N([H])C([H])([H])[H])C([H])([H])[H])C(C([H])([H])[H])(C([H])([H])[H])C([H])([H])[H])C([H])(C(=O)N([H])C1([H])c3c([H])c([H])c([H])c([H])c3C([H])([H])C([H])([H])C1([H])[H])C2([H])[H])c1c([H])c([H])c(C([H])([H])[N+]([H])([H])C([H])(C([H])([H])[H])C([H])([H])N([H])C(=O)C([H])([H])C(C(=O)N2C([H])([H])C([H])([H])C([H])([H])C([H])(n3nc(-c4c([H])c([H])c(Oc5c([H])c([H])c(F)c([H])c5F)c([H])c4[H])c(C(=O)N([H])[H])c3N([H])[H])C2([H])[H])(C([H])([H])[H])C([H])([H])[H])c([H])c1[H]

$$$$
24:0:0
     RDKit          3D

 96105  0  0  1  0  0  0  0  0999 V2000
  -29.3510  -22.4870   22.3340 C   0  0  0  0  0  0  0  0  0  0  0  0
  -28.8050  -21.7670   21.4930 O   0  0  0  0  0  0  0  0  0  0  0  0
  -29.0700  -26.0780   23.6250 C   0  0  0  0  0  3  0  0  0  0  0  0
  -29.2430  -24.6820   23.6070 C   0  0  0  0  0  3  0  0  0  0  0  0
  -28.8120  -26.7730   22.4300 C   0  0  0  0  0  3  0  0  0  0  0  0
  -28.8710  -24.6790   21.1940 C   0  0  0  0  0  3  0  0  0  0  0  0
  -29.1660  -23.9690   22.3860 C   0  0  0  0  0  0  0  0  0  0  0  0
  -28.6940  -26.0820   21.2020 C   0  0  0  0  0  0  0  0  0  0  0  0
  -28.4260  -26.7440   20.0200 O   0  0  0  0  0  0  0  0  0  0  0  0
  -24.5810  -31.8170   23.1020 C   0  0  0  0  0  0  0  0  0  0  0  0
  -27.2640  -27.4730   19.9800 C   0  0  0  0  0  0  0  0  0  0  0  0
  -23.3760  -30.4070   21.4610 C   0  0  0  0  0  3  0  0  0  0  0  0
  -24.8360  -28.9060   20.0040 C   0  0  0  0  0  0  0  0  0  0  0  0
  -25.8830  -30.8300   21.2220 C   0  0  0  0  0  2  0  0  0  0  0  0
  -25.9860  -29.4680   20.5720 C   0  0  0  0  0  0  0  0  0  0  0  0
  -27.2040  -28.7670   20.5390 C   0  0  0  0  0  3  0  0  0  0  0  0
  -26.1070  -26.9170   19.3980 C   0  0  0  0  0  3  0  0  0  0  0  0
  -24.8920  -27.6330   19.4040 C   0  0  0  0  0  3  0  0  0  0  0  0
  -23.5760  -29.7370   20.0730 C   0  0  0  0  0  2  0  0  0  0  0  0
  -24.6330  -31.0330   21.9880 N   0  0  0  0  0  0  0  0  0  0  0  0
  -23.5030  -32.0650   23.6580 O   0  0  0  0  0  0  0  0  0  0  0  0
  -22.7540  -29.3690   22.4240 C   0  0  0  0  0  0  0  0  0  0  0  0
  -21.4340  -29.1540   22.2950 N   0  0  0  0  0  0  0  0  0  0  0  0
  -23.4520  -28.7620   23.2410 O   0  0  0  0  0  0  0  0  0  0  0  0
  -20.9310  -29.6980   21.6090 H   0  0  0  0  0  0  0  0  0  0  0  0
  -18.0990  -27.8480   22.7460 C   0  0  0  0  0  0  0  0  0  0  0  0
  -20.6400  -28.1940   23.0630 C   0  0  0  0  0  3  0  0  0  0  0  0
  -20.8030  -26.7620   22.5020 C   0  0  0  0  0  2  0  0  0  0  0  0
  -19.7310  -26.3940   21.4710 C   0  0  0  0  0  2  0  0  0  0  0  0
  -18.3320  -26.5000   22.0870 C   0  0  0  0  0  2  0  0  0  0  0  0
  -19.1830  -28.6510   23.1900 C   0  0  0  0  0  0  0  0  0  0  0  0
  -18.9100  -29.9120   23.7620 C   0  0  0  0  0  3  0  0  0  0  0  0
  -17.5860  -30.3710   23.8970 C   0  0  0  0  0  3  0  0  0  0  0  0
  -16.5170  -29.5630   23.4740 C   0  0  0  0  0  3  0  0  0  0  0  0
  -16.7740  -28.3040   22.9040 C   0  0  0  0  0  3  0  0  0  0  0  0
  -25.8660  -32.4570   23.7150 C   0  0  0  0  0  3  0  0  0  0  0  0
  -26.4300  -31.6620   24.9540 C   0  0  1  0  0  0  0  0  0  0  0  0
  -25.3630  -31.3530   26.0310 C   0  0  0  0  0  1  0  0  0  0  0  0
  -27.0490  -30.3210   24.5000 C   0  0  0  0  0  1  0  0  0  0  0  0
  -27.5680  -32.4680   25.6220 C   0  0  0  0  0  1  0  0  0  0  0  0
  -25.5400  -33.8400   24.0880 N   0  0  0  0  0  0  0  0  0  0  0  0
  -25.8540  -34.9170   23.3560 C   0  0  0  0  0  0  0  0  0  0  0  0
  -26.5170  -34.8500   22.3160 O   0  0  0  0  0  0  0  0  0  0  0  0
  -24.9490  -33.9650   24.8960 H   0  0  0  0  0  0  0  0  0  0  0  0
  -24.0940  -36.6870   23.0550 C   0  0  0  0  0  1  0  0  0  0  0  0
  -25.3460  -36.2850   23.8510 C   0  0  0  0  0  3  0  0  0  0  0  0
  -27.4710  -37.1780   24.6960 C   0  0  0  0  0  1  0  0  0  0  0  0
  -26.3610  -37.3570   23.7630 N   0  0  0  0  0  0  0  0  0  0  0  0
  -25.9430  -38.2680   23.9340 H   0  0  0  0  0  0  0  0  0  0  0  0
  -30.3080  -21.8290   23.3400 C   0  0  0  0  0  2  0  0  0  0  0  0
  -31.3630  -20.9300   22.6580 C   0  0  0  0  0  2  0  0  0  0  0  0
  -30.9160  -17.8280   20.4250 C   0  0  0  0  0  2  0  0  0  0  0  0
  -30.4210  -17.1930   22.7930 C   0  0  0  0  0  2  0  0  0  0  0  0
  -31.4680  -19.1790   20.9220 C   0  0  0  0  0  2  0  0  0  0  0  0
  -30.9580  -18.5650   23.2550 C   0  0  0  0  0  2  0  0  0  0  0  0
  -31.0880  -16.7230   21.4870 C   0  0  0  0  0  3  0  0  0  0  0  0
  -30.8410  -19.6090   22.1990 N   0  0  1  0  0  4  0  0  0  0  0  0
  -29.8580  -19.7360   21.9940 H   0  0  0  0  0  0  0  0  0  0  0  0
  -31.0030  -14.5820   20.1540 C   0  0  0  0  0  0  0  0  0  0  0  0
  -30.6160  -12.4780   18.9250 C   0  0  0  0  0  2  0  0  0  0  0  0
  -29.6270  -12.6890   17.7630 C   0  0  0  0  0  2  0  0  0  0  0  0
  -28.1710  -12.5480   18.2470 C   0  0  0  0  0  2  0  0  0  0  0  0
  -27.8820  -13.3870   19.5210 C   0  0  0  0  0  3  0  0  0  0  0  0
  -28.9700  -13.1450   20.5890 C   0  0  0  0  0  2  0  0  0  0  0  0
  -30.2860  -13.4390   19.9890 N   0  0  0  0  0  0  0  0  0  0  0  0
  -32.0260  -14.8360   19.5130 O   0  0  0  0  0  0  0  0  0  0  0  0
  -30.5180  -15.4360   21.0690 N   0  0  0  0  0  0  0  0  0  0  0  0
  -29.6950  -15.1210   21.5600 H   0  0  0  0  0  0  0  0  0  0  0  0
  -25.5140  -14.0030   20.3270 C   0  0  0  0  0  0  0  0  0  0  0  0
  -24.4580  -13.2320   20.7330 C   0  0  0  0  0  0  0  0  0  0  0  0
  -24.9110  -11.8790   20.6700 C   0  0  0  0  0  0  0  0  0  0  0  0
  -26.5450  -13.1180   20.0480 N   0  0  0  0  0  0  0  0  0  0  0  0
  -26.1880  -11.8360   20.3120 N   0  0  0  0  0  0  0  0  0  0  0  0
  -24.1890  -10.6180   20.8830 C   0  0  0  0  0  0  0  0  0  0  0  0
  -24.6260   -9.6680   21.8330 C   0  0  0  0  0  3  0  0  0  0  0  0
  -23.9040   -8.4700   22.0300 C   0  0  0  0  0  3  0  0  0  0  0  0
  -22.7320   -8.2160   21.2790 C   0  0  0  0  0  0  0  0  0  0  0  0
  -22.3150   -9.1540   20.3190 C   0  0  0  0  0  3  0  0  0  0  0  0
  -23.0370  -10.3440   20.1210 C   0  0  0  0  0  3  0  0  0  0  0  0
  -21.9810   -7.0700   21.3850 O   0  0  0  0  0  0  0  0  0  0  0  0
  -21.8820   -6.3820   22.5690 C   0  0  0  0  0  0  0  0  0  0  0  0
  -21.4030   -6.9940   23.7480 C   0  0  0  0  0  3  0  0  0  0  0  0
  -21.2500   -6.2310   24.9240 C   0  0  0  0  0  3  0  0  0  0  0  0
  -21.5650   -4.8590   24.9190 C   0  0  0  0  0  0  0  0  0  0  0  0
  -22.0360   -4.2490   23.7440 C   0  0  0  0  0  3  0  0  0  0  0  0
  -22.1920   -5.0080   22.5710 C   0  0  0  0  0  0  0  0  0  0  0  0
  -22.6250   -4.4090   21.4360 F   0  0  0  0  0  0  0  0  0  0  0  0
  -21.4110   -4.1250   26.0460 F   0  0  0  0  0  0  0  0  0  0  0  0
  -23.0740  -13.7120   21.0630 C   0  0  0  0  0  0  0  0  0  0  0  0
  -22.3840  -13.0200   21.9630 N   0  0  0  0  0  0  0  0  0  0  0  0
  -22.6140  -14.7340   20.5560 O   0  0  0  0  0  0  0  0  0  0  0  0
  -22.7700  -12.1950   22.3970 H   0  0  0  0  0  0  0  0  0  0  0  0
  -21.4560  -13.3230   22.2240 H   0  0  0  0  0  0  0  0  0  0  0  0
  -25.6770  -15.3740   20.1550 N   0  0  0  0  0  0  0  0  0  0  0  0
  -24.9220  -16.0340   20.3080 H   0  0  0  0  0  0  0  0  0  0  0  0
  -26.5240  -15.8140   19.8160 H   0  0  0  0  0  0  0  0  0  0  0  0
  1  7  1  0
  1 50  1  0
  2  1  2  0
  4  3  1  0
  5  3  2  0
  6  8  2  0
  6  7  1  0
  7  4  2  0
  8  5  1  0
  9  8  1  0
 10 21  2  0
 11  9  1  0
 11 16  1  0
 12 20  1  0
 12 22  1  0
 13 19  1  0
 13 15  1  0
 14 20  1  0
 15 14  1  0
 16 15  2  0
 17 18  1  0
 17 11  2  0
 18 13  2  0
 19 12  1  0
 20 10  1  0
 22 24  2  0
 23 22  1  0
 25 23  1  0
 26 35  2  0
 26 31  1  0
 27 23  1  0
 27 31  1  0
 28 27  1  0
 29 30  1  0
 29 28  1  0
 30 26  1  0
 31 32  2  0
 32 33  1  0
 34 33  2  0
 35 34  1  0
 36 10  1  0
 36 41  1  0
 36 37  1  0
 37 40  1  1
 37 38  1  0
 39 37  1  0
 41 44  1  0
 42 46  1  0
 42 41  1  0
 43 42  2  0
 46 45  1  0
 48 46  1  0
 48 49  1  0
 48 47  1  0
 51 50  1  0
 52 54  1  0
 52 56  1  0
 53 55  1  0
 54 57  1  0
 56 67  1  0
 56 53  1  0
 57 51  1  0
 57 55  1  0
 57 58  1  6
 59 67  1  0
 60 65  1  0
 61 62  1  0
 61 60  1  0
 63 62  1  0
 63 72  1  0
 63 64  1  0
 65 59  1  0
 65 64  1  0
 66 59  2  0
 67 68  1  0
 69 70  2  0
 70 89  1  0
 71 70  1  0
 71 74  1  0
 72 73  1  0
 72 69  1  0
 73 71  2  0
 74 75  1  0
 75 76  2  0
 77 80  1  0
 77 76  1  0
 78 77  2  0
 79 78  1  0
 79 74  2  0
 80 81  1  0
 81 86  2  0
 81 82  1  0
 82 83  2  0
 84 83  1  0
 84 88  1  0
 85 84  2  0
 86 85  1  0
 87 86  1  0
 89 90  1  0
 90 93  1  0
 90 92  1  0
 91 89  2  0
 94 95  1  0
 94 69  1  0
 96 94  1  0
M  ISO  4   8 101   9 101  59 100  67 100
M  END
>  <TORSDO>  (25) 
F 20

>  <SCORE>  (25) 
-13.618

>  <name>  (25) 
24

>  <ligand_id>  (25) 
24

>  <original_smiles>  (25) 
[H]c1c([H])c(Oc2c([H])c([H])c3c(c2[H])C([H])([H])N(C(=O)C([H])(N([H])C(=O)C([H])(N([H])C([H])([H])[H])C([H])([H])[H])C(C([H])([H])[H])(C([H])([H])[H])C([H])([H])[H])C([H])(C(=O)N([H])C2([H])c4c([H])c([H])c([H])c([H])c4C([H])([H])C([H])([H])C2([H])[H])C3([H])[H])c([H])c(C(=O)C([H])([H])C([H])([H])[N+]2([H])C([H])([H])C([H])([H])C([H])(N([H])C(=O)N3C([H])([H])C([H])([H])C([H])([H])C([H])(n4nc(-c5c([H])c([H])c(Oc6c([H])c([H])c(F)c([H])c6F)c([H])c5[H])c(C(=O)N([H])[H])c4N([H])[H])C3([H])[H])C([H])([H])C2([H])[H])c1[H]

>  <smiles>  (25) 
[H]c1c([H])c(Oc2c([H])c([H])c3c(c2[H])C([H])([H])N(C(=O)C([H])(N([H])C(=O)C([H])(N([H])C([H])([H])[H])C([H])([H])[H])C(C([H])([H])[H])(C([H])([H])[H])C([H])([H])[H])C([H])(C(=O)N([H])C2([H])c4c([H])c([H])c([H])c([H])c4C([H])([H])C([H])([H])C2([H])[H])C3([H])[H])c([H])c(C(=O)C([H])([H])C([H])([H])[N+]2([H])C([H])([H])C([H])([H])C([H])(N([H])C(=O)N3C([H])([H])C([H])([H])C([H])([H])C([H])(n4nc(-c5c([H])c([H])c(Oc6c([H])c([H])c(F)c([H])c6F)c([H])c5[H])c(C(=O)N([H])[H])c4N([H])[H])C3([H])[H])C([H])([H])C2([H])[H])c1[H]

$$$$
25:0:0
     RDKit          3D

 96104  0  0  1  0  0  0  0  0999 V2000
  -29.0520  -20.8300   19.8470 C   0  0  0  0  0  3  0  0  0  0  0  0
  -29.6940  -19.7850   20.5400 C   0  0  0  0  0  3  0  0  0  0  0  0
  -31.1730  -21.4500   18.8370 C   0  0  0  0  0  3  0  0  0  0  0  0
  -29.7870  -21.6690   18.9800 C   0  0  0  0  0  0  0  0  0  0  0  0
  -31.0790  -19.5580   20.3960 C   0  0  0  0  0  0  0  0  0  0  0  0
  -31.8250  -20.4080   19.5350 C   0  0  0  0  0  0  0  0  0  0  0  0
  -33.3190  -20.2350   19.3200 C   0  0  0  0  0  1  0  0  0  0  0  0
  -27.8830  -22.2010   17.3840 C   0  0  0  0  0  1  0  0  0  0  0  0
  -29.0990  -22.7550   18.1480 C   0  0  0  0  0  3  0  0  0  0  0  0
  -28.7230  -23.9410   18.9610 N   0  0  0  0  0  4  0  0  0  0  0  0
  -27.7950  -24.1990   18.6650 H   0  0  0  0  0  0  0  0  0  0  0  0
  -28.6650  -23.6720   19.9300 H   0  0  0  0  0  0  0  0  0  0  0  0
  -29.6060  -25.1330   18.8160 C   0  0  0  0  0  2  0  0  0  0  0  0
  -28.8400  -26.4730   18.8520 C   0  0  0  0  0  2  0  0  0  0  0  0
  -28.4370  -26.8700   20.1730 O   0  0  0  0  0  0  0  0  0  0  0  0
  -24.5960  -32.0090   23.3510 C   0  0  0  0  0  0  0  0  0  0  0  0
  -27.2600  -27.5850   20.2360 C   0  0  0  0  0  0  0  0  0  0  0  0
  -23.3930  -30.5930   21.7220 C   0  0  0  0  0  3  0  0  0  0  0  0
  -24.8480  -29.0600   20.3000 C   0  0  0  0  0  0  0  0  0  0  0  0
  -25.9160  -30.9670   21.5120 C   0  0  0  0  0  2  0  0  0  0  0  0
  -26.0080  -29.5920   20.8770 C   0  0  0  0  0  0  0  0  0  0  0  0
  -27.2160  -28.8580   20.8530 C   0  0  0  0  0  3  0  0  0  0  0  0
  -26.0700  -27.0480   19.6970 C   0  0  0  0  0  3  0  0  0  0  0  0
  -24.8710  -27.7810   19.7180 C   0  0  0  0  0  3  0  0  0  0  0  0
  -23.6010  -29.9120   20.3450 C   0  0  0  0  0  2  0  0  0  0  0  0
  -24.6540  -31.2040   22.2540 N   0  0  0  0  0  0  0  0  0  0  0  0
  -23.5150  -32.2750   23.8950 O   0  0  0  0  0  0  0  0  0  0  0  0
  -22.7530  -29.5680   22.6880 C   0  0  0  0  0  0  0  0  0  0  0  0
  -21.4380  -29.3420   22.5340 N   0  0  0  0  0  0  0  0  0  0  0  0
  -23.4370  -28.9800   23.5280 O   0  0  0  0  0  0  0  0  0  0  0  0
  -20.9490  -29.8700   21.8240 H   0  0  0  0  0  0  0  0  0  0  0  0
  -18.1020  -28.0160   22.9420 C   0  0  0  0  0  0  0  0  0  0  0  0
  -20.6330  -28.3940   23.3030 C   0  0  0  0  0  3  0  0  0  0  0  0
  -20.8210  -26.9520   22.7790 C   0  0  0  0  0  2  0  0  0  0  0  0
  -19.7740  -26.5490   21.7370 C   0  0  0  0  0  2  0  0  0  0  0  0
  -18.3620  -26.6540   22.3210 C   0  0  0  0  0  2  0  0  0  0  0  0
  -19.1690  -28.8400   23.3880 C   0  0  0  0  0  0  0  0  0  0  0  0
  -18.8740  -30.1120   23.9270 C   0  0  0  0  0  3  0  0  0  0  0  0
  -17.5430  -30.5600   24.0250 C   0  0  0  0  0  3  0  0  0  0  0  0
  -16.4900  -29.7340   23.5950 C   0  0  0  0  0  3  0  0  0  0  0  0
  -16.7700  -28.4640   23.0590 C   0  0  0  0  0  3  0  0  0  0  0  0
  -25.8790  -32.6520   23.9630 C   0  0  0  0  0  3  0  0  0  0  0  0
  -25.5670  -34.0510   24.2760 N   0  0  0  0  0  0  0  0  0  0  0  0
  -25.8850  -35.0940   23.4970 C   0  0  0  0  0  0  0  0  0  0  0  0
  -26.5450  -34.9790   22.4610 O   0  0  0  0  0  0  0  0  0  0  0  0
  -24.9810  -34.2150   25.0820 H   0  0  0  0  0  0  0  0  0  0  0  0
  -24.1350  -36.8650   23.1400 C   0  0  0  0  0  1  0  0  0  0  0  0
  -25.3940  -36.4860   23.9370 C   0  0  0  0  0  3  0  0  0  0  0  0
  -27.5340  -37.4010   24.7170 C   0  0  0  0  0  1  0  0  0  0  0  0
  -26.4150  -37.5450   23.7900 N   0  0  0  0  0  0  0  0  0  0  0  0
  -26.0030  -38.4640   23.9310 H   0  0  0  0  0  0  0  0  0  0  0  0
  -26.4020  -31.8950   25.2460 C   0  0  1  0  0  0  0  0  0  0  0  0
  -25.3080  -31.6490   26.3120 C   0  0  0  0  0  1  0  0  0  0  0  0
  -27.0010  -30.5230   24.8610 C   0  0  0  0  0  1  0  0  0  0  0  0
  -27.5390  -32.7090   25.9070 C   0  0  0  0  0  1  0  0  0  0  0  0
  -31.7220  -18.4460   21.2270 C   0  0  0  0  0  2  0  0  0  0  0  0
  -33.2170  -16.5970   20.3360 C   0  0  0  0  0  1  0  0  0  0  0  0
  -31.7580  -17.0330   20.5660 C   0  0  0  0  0  3  0  0  0  0  0  0
  -30.5790  -14.7530   21.1160 C   0  0  0  0  0  3  0  0  0  0  0  0
  -31.0590  -15.9810   21.4330 C   0  0  0  0  0  3  0  0  0  0  0  0
  -30.6680  -14.0990   19.8060 C   0  0  0  0  0  0  0  0  0  0  0  0
  -30.0600  -12.0860   18.4980 C   0  0  0  0  0  2  0  0  0  0  0  0
  -28.9980  -12.3650   17.4220 C   0  0  0  0  0  2  0  0  0  0  0  0
  -27.5840  -12.2180   18.0080 C   0  0  0  0  0  2  0  0  0  0  0  0
  -27.4130  -13.0220   19.3210 C   0  0  0  0  0  3  0  0  0  0  0  0
  -28.5720  -12.7490   20.3040 C   0  0  0  0  0  2  0  0  0  0  0  0
  -29.8540  -13.0190   19.6220 N   0  0  0  0  0  0  0  0  0  0  0  0
  -31.5150  -14.4080   18.9640 O   0  0  0  0  0  0  0  0  0  0  0  0
  -25.1010  -13.6570   20.2630 C   0  0  0  0  0  0  0  0  0  0  0  0
  -24.0710  -12.8970   20.7480 C   0  0  0  0  0  0  0  0  0  0  0  0
  -24.5160  -11.5410   20.6840 C   0  0  0  0  0  0  0  0  0  0  0  0
  -26.1120  -12.7650   19.9360 N   0  0  0  0  0  0  0  0  0  0  0  0
  -25.7670  -11.4870   20.2460 N   0  0  0  0  0  0  0  0  0  0  0  0
  -23.8030  -10.2870   20.9630 C   0  0  0  0  0  0  0  0  0  0  0  0
  -24.2950   -9.3500   21.9000 C   0  0  0  0  0  3  0  0  0  0  0  0
  -23.5840   -8.1610   22.1660 C   0  0  0  0  0  3  0  0  0  0  0  0
  -22.3650   -7.8980   21.4950 C   0  0  0  0  0  0  0  0  0  0  0  0
  -21.8900   -8.8230   20.5490 C   0  0  0  0  0  3  0  0  0  0  0  0
  -22.6010  -10.0060   20.2820 C   0  0  0  0  0  3  0  0  0  0  0  0
  -21.6200   -6.7570   21.6710 O   0  0  0  0  0  0  0  0  0  0  0  0
  -21.6170   -6.0720   22.8610 C   0  0  0  0  0  0  0  0  0  0  0  0
  -21.2400   -6.6890   24.0740 C   0  0  0  0  0  3  0  0  0  0  0  0
  -21.1850   -5.9330   25.2620 C   0  0  0  0  0  3  0  0  0  0  0  0
  -21.4960   -4.5600   25.2380 C   0  0  0  0  0  0  0  0  0  0  0  0
  -21.8640   -3.9410   24.0300 C   0  0  0  0  0  3  0  0  0  0  0  0
  -21.9210   -4.6960   22.8450 C   0  0  0  0  0  0  0  0  0  0  0  0
  -22.2600   -4.0900   21.6800 F   0  0  0  0  0  0  0  0  0  0  0  0
  -21.4340   -3.8310   26.3770 F   0  0  0  0  0  0  0  0  0  0  0  0
  -22.7130  -13.3850   21.1610 C   0  0  0  0  0  0  0  0  0  0  0  0
  -22.0840  -12.7130   22.1200 N   0  0  0  0  0  0  0  0  0  0  0  0
  -22.2220  -14.4010   20.6680 O   0  0  0  0  0  0  0  0  0  0  0  0
  -22.4960  -11.8910   22.5370 H   0  0  0  0  0  0  0  0  0  0  0  0
  -21.1770  -13.0240   22.4390 H   0  0  0  0  0  0  0  0  0  0  0  0
  -25.2580  -15.0240   20.0530 N   0  0  0  0  0  0  0  0  0  0  0  0
  -24.5140  -15.6900   20.2380 H   0  0  0  0  0  0  0  0  0  0  0  0
  -26.0820  -15.4550   19.6530 H   0  0  0  0  0  0  0  0  0  0  0  0
  1  2  1  0
  3  4  1  0
  3  6  2  0
  4  1  2  0
  5  2  2  0
  5 56  1  0
  6  5  1  0
  7  6  1  0
  9  8  1  0
  9 10  1  0
  9  4  1  0
 10 12  1  0
 11 10  1  0
 13 14  1  0
 13 10  1  0
 14 15  1  0
 15 17  1  0
 16 27  2  0
 17 22  1  0
 18 26  1  0
 18 28  1  0
 19 25  1  0
 19 21  1  0
 20 26  1  0
 21 20  1  0
 22 21  2  0
 23 24  1  0
 23 17  2  0
 24 19  2  0
 25 18  1  0
 26 16  1  0
 28 30  2  0
 29 28  1  0
 31 29  1  0
 32 41  2  0
 32 37  1  0
 33 29  1  0
 33 37  1  0
 34 33  1  0
 35 36  1  0
 35 34  1  0
 36 32  1  0
 37 38  2  0
 38 39  1  0
 40 39  2  0
 41 40  1  0
 42 16  1  0
 42 43  1  0
 42 52  1  0
 43 46  1  0
 44 48  1  0
 44 43  1  0
 45 44  2  0
 48 47  1  0
 50 51  1  0
 50 48  1  0
 50 49  1  0
 52 55  1  1
 52 53  1  0
 54 52  1  0
 58 57  1  0
 58 56  1  0
 58 60  1  0
 59 60  2  0
 61 59  1  0
 62 67  1  0
 63 64  1  0
 63 62  1  0
 65 64  1  0
 65 72  1  0
 65 66  1  0
 67 61  1  0
 67 66  1  0
 68 61  2  0
 69 70  2  0
 70 89  1  0
 71 70  1  0
 71 74  1  0
 72 73  1  0
 72 69  1  0
 73 71  2  0
 74 75  1  0
 75 76  2  0
 77 80  1  0
 77 76  1  0
 78 77  2  0
 79 78  1  0
 79 74  2  0
 80 81  1  0
 81 82  1  0
 82 83  2  0
 84 83  1  0
 84 88  1  0
 85 84  2  0
 86 81  2  0
 86 85  1  0
 87 86  1  0
 89 90  1  0
 90 93  1  0
 90 92  1  0
 91 89  2  0
 94 95  1  0
 94 69  1  0
 96 94  1  0
M  ISO  4  14 101  15 101  59 100  61 100
M  END
>  <TORSDO>  (26) 
F 23

>  <SCORE>  (26) 
-11.445

>  <name>  (26) 
25

>  <ligand_id>  (26) 
25

>  <original_smiles>  (26) 
[H]C(C(=O)N1C([H])([H])C([H])([H])C([H])([H])C([H])(n2nc(-c3c([H])c([H])c(Oc4c([H])c([H])c(F)c([H])c4F)c([H])c3[H])c(C(=O)N([H])[H])c2N([H])[H])C1([H])[H])=C([H])C([H])(C([H])([H])[H])C([H])([H])c1c([H])c([H])c(C([H])(C([H])([H])[H])[N+]([H])([H])C([H])([H])C([H])([H])Oc2c([H])c([H])c3c(c2[H])C([H])([H])N(C(=O)C([H])(N([H])C(=O)C([H])(N([H])C([H])([H])[H])C([H])([H])[H])C(C([H])([H])[H])(C([H])([H])[H])C([H])([H])[H])C([H])(C(=O)N([H])C2([H])c4c([H])c([H])c([H])c([H])c4C([H])([H])C([H])([H])C2([H])[H])C3([H])[H])c([H])c1C([H])([H])[H]

>  <smiles>  (26) 
[H]C(C(=O)N1C([H])([H])C([H])([H])C([H])([H])C([H])(n2nc(-c3c([H])c([H])c(Oc4c([H])c([H])c(F)c([H])c4F)c([H])c3[H])c(C(=O)N([H])[H])c2N([H])[H])C1([H])[H])=C([H])C([H])(C([H])([H])[H])C([H])([H])c1c([H])c([H])c(C([H])(C([H])([H])[H])[N+]([H])([H])C([H])([H])C([H])([H])Oc2c([H])c([H])c3c(c2[H])C([H])([H])N(C(=O)C([H])(N([H])C(=O)C([H])(N([H])C([H])([H])[H])C([H])([H])[H])C(C([H])([H])[H])(C([H])([H])[H])C([H])([H])[H])C([H])(C(=O)N([H])C2([H])c4c([H])c([H])c([H])c([H])c4C([H])([H])C([H])([H])C2([H])[H])C3([H])[H])c([H])c1C([H])([H])[H]

$$$$
26:0:0
     RDKit          3D

 93101  0  0  1  0  0  0  0  0999 V2000
  -29.2910  -23.7580   19.7920 C   0  0  0  0  0  3  0  0  0  0  0  0
  -29.6000  -22.4280   20.1600 C   0  0  0  0  0  3  0  0  0  0  0  0
  -31.2040  -23.7730   18.3040 C   0  0  0  0  0  3  0  0  0  0  0  0
  -30.0840  -24.4390   18.8430 C   0  0  0  0  0  0  0  0  0  0  0  0
  -30.7290  -21.7670   19.6210 C   0  0  0  0  0  0  0  0  0  0  0  0
  -31.5360  -22.4470   18.6750 C   0  0  0  0  0  0  0  0  0  0  0  0
  -29.8300  -25.8180   18.3690 C   0  0  0  0  0  3  0  0  0  0  0  0
  -29.0790  -26.8050   18.8940 C   0  0  0  0  0  3  0  0  0  0  0  0
  -28.3980  -26.7460   20.0770 O   0  0  0  0  0  0  0  0  0  0  0  0
  -24.5870  -31.8880   23.2250 C   0  0  0  0  0  0  0  0  0  0  0  0
  -27.2400  -27.4780   20.1230 C   0  0  0  0  0  0  0  0  0  0  0  0
  -23.3810  -30.4850   21.5820 C   0  0  0  0  0  3  0  0  0  0  0  0
  -24.8360  -28.9520   20.1550 C   0  0  0  0  0  0  0  0  0  0  0  0
  -25.9020  -30.8570   21.3770 C   0  0  0  0  0  2  0  0  0  0  0  0
  -25.9920  -29.4850   20.7410 C   0  0  0  0  0  0  0  0  0  0  0  0
  -27.1970  -28.7510   20.7330 C   0  0  0  0  0  3  0  0  0  0  0  0
  -26.0710  -26.9490   19.5410 C   0  0  0  0  0  3  0  0  0  0  0  0
  -24.8670  -27.6790   19.5560 C   0  0  0  0  0  3  0  0  0  0  0  0
  -23.5880  -29.8050   20.2020 C   0  0  0  0  0  2  0  0  0  0  0  0
  -24.6410  -31.0910   22.1200 N   0  0  0  0  0  0  0  0  0  0  0  0
  -23.5060  -32.1550   23.7680 O   0  0  0  0  0  0  0  0  0  0  0  0
  -22.7340  -29.4610   22.5430 C   0  0  0  0  0  0  0  0  0  0  0  0
  -21.4110  -29.2760   22.4180 N   0  0  0  0  0  0  0  0  0  0  0  0
  -23.4220  -28.8350   23.3540 O   0  0  0  0  0  0  0  0  0  0  0  0
  -20.9170  -29.8330   21.7340 H   0  0  0  0  0  0  0  0  0  0  0  0
  -18.0390  -28.0850   22.9280 C   0  0  0  0  0  0  0  0  0  0  0  0
  -20.5980  -28.3370   23.1880 C   0  0  0  0  0  3  0  0  0  0  0  0
  -20.6970  -26.9090   22.6040 C   0  0  0  0  0  2  0  0  0  0  0  0
  -19.5880  -26.5920   21.5930 C   0  0  0  0  0  2  0  0  0  0  0  0
  -18.2100  -26.7380   22.2450 C   0  0  0  0  0  2  0  0  0  0  0  0
  -19.1610  -28.8420   23.3570 C   0  0  0  0  0  0  0  0  0  0  0  0
  -18.9490  -30.1030   23.9540 C   0  0  0  0  0  3  0  0  0  0  0  0
  -17.6460  -30.6080   24.1280 C   0  0  0  0  0  3  0  0  0  0  0  0
  -16.5390  -29.8460   23.7170 C   0  0  0  0  0  3  0  0  0  0  0  0
  -16.7350  -28.5860   23.1230 C   0  0  0  0  0  3  0  0  0  0  0  0
  -25.8730  -32.5210   23.8420 C   0  0  0  0  0  3  0  0  0  0  0  0
  -25.5650  -33.9190   24.1700 N   0  0  0  0  0  0  0  0  0  0  0  0
  -25.9040  -34.9700   23.4120 C   0  0  0  0  0  0  0  0  0  0  0  0
  -26.5810  -34.8640   22.3850 O   0  0  0  0  0  0  0  0  0  0  0  0
  -24.9640  -34.0750   24.9660 H   0  0  0  0  0  0  0  0  0  0  0  0
  -24.1880  -36.7670   23.0330 C   0  0  0  0  0  1  0  0  0  0  0  0
  -25.4140  -36.3590   23.8630 C   0  0  0  0  0  3  0  0  0  0  0  0
  -27.5390  -37.2330   24.7290 C   0  0  0  0  0  1  0  0  0  0  0  0
  -26.4510  -37.4080   23.7690 N   0  0  0  0  0  0  0  0  0  0  0  0
  -26.0470  -38.3290   23.9140 H   0  0  0  0  0  0  0  0  0  0  0  0
  -26.3970  -31.7490   25.1150 C   0  0  1  0  0  0  0  0  0  0  0  0
  -25.3090  -31.5080   26.1870 C   0  0  0  0  0  1  0  0  0  0  0  0
  -26.9800  -30.3740   24.7170 C   0  0  0  0  0  1  0  0  0  0  0  0
  -27.5480  -32.5450   25.7730 C   0  0  0  0  0  1  0  0  0  0  0  0
  -31.0750  -20.3700   19.9760 C   0  0  0  0  0  3  0  0  0  0  0  0
  -30.2470  -19.3880   20.3980 C   0  0  0  0  0  3  0  0  0  0  0  0
  -30.7700  -18.0440   20.7340 C   0  0  0  0  0  0  0  0  0  0  0  0
  -31.9630  -17.8450   20.9870 O   0  0  0  0  0  0  0  0  0  0  0  0
  -29.7880  -16.8590   20.7410 C   0  0  0  0  0  2  0  0  0  0  0  0
  -30.2560  -15.5940   21.5180 C   0  0  0  0  0  2  0  0  0  0  0  0
  -30.7660  -14.4690   20.5920 C   0  0  0  0  0  0  0  0  0  0  0  0
  -30.4430  -12.3680   19.3300 C   0  0  0  0  0  2  0  0  0  0  0  0
  -29.5170  -12.6180   18.1220 C   0  0  0  0  0  2  0  0  0  0  0  0
  -28.0360  -12.4830   18.5270 C   0  0  0  0  0  2  0  0  0  0  0  0
  -27.6960  -13.2860   19.8110 C   0  0  0  0  0  3  0  0  0  0  0  0
  -28.7310  -12.9970   20.9210 C   0  0  0  0  0  2  0  0  0  0  0  0
  -30.0670  -13.3170   20.3930 N   0  0  0  0  0  0  0  0  0  0  0  0
  -31.8360  -14.6830   20.0120 O   0  0  0  0  0  0  0  0  0  0  0  0
  -25.2810  -13.9030   20.4590 C   0  0  0  0  0  0  0  0  0  0  0  0
  -24.2050  -13.1350   20.8130 C   0  0  0  0  0  0  0  0  0  0  0  0
  -24.6650  -11.7830   20.8060 C   0  0  0  0  0  0  0  0  0  0  0  0
  -26.3310  -13.0180   20.2610 N   0  0  0  0  0  0  0  0  0  0  0  0
  -25.9600  -11.7390   20.5220 N   0  0  0  0  0  0  0  0  0  0  0  0
  -23.9330  -10.5240   20.9950 C   0  0  0  0  0  0  0  0  0  0  0  0
  -24.3440   -9.5670   21.9500 C   0  0  0  0  0  3  0  0  0  0  0  0
  -23.6120   -8.3720   22.1270 C   0  0  0  0  0  3  0  0  0  0  0  0
  -22.4570   -8.1260   21.3480 C   0  0  0  0  0  0  0  0  0  0  0  0
  -22.0660   -9.0710   20.3830 C   0  0  0  0  0  3  0  0  0  0  0  0
  -22.7980  -10.2570   20.2040 C   0  0  0  0  0  3  0  0  0  0  0  0
  -21.7000   -6.9820   21.4320 O   0  0  0  0  0  0  0  0  0  0  0  0
  -21.6240   -6.2530   22.5920 C   0  0  0  0  0  0  0  0  0  0  0  0
  -21.1660   -6.8230   23.8000 C   0  0  0  0  0  3  0  0  0  0  0  0
  -21.0360   -6.0210   24.9520 C   0  0  0  0  0  3  0  0  0  0  0  0
  -21.3540   -4.6500   24.8960 C   0  0  0  0  0  0  0  0  0  0  0  0
  -21.8050   -4.0810   23.6930 C   0  0  0  0  0  3  0  0  0  0  0  0
  -21.9370   -4.8790   22.5440 C   0  0  0  0  0  0  0  0  0  0  0  0
  -22.3520   -4.3210   21.3810 F   0  0  0  0  0  0  0  0  0  0  0  0
  -21.2220   -3.8790   26.0000 F   0  0  0  0  0  0  0  0  0  0  0  0
  -22.8030  -13.6170   21.0530 C   0  0  0  0  0  0  0  0  0  0  0  0
  -22.0590  -12.9300   21.9130 N   0  0  0  0  0  0  0  0  0  0  0  0
  -22.3770  -14.6370   20.5150 O   0  0  0  0  0  0  0  0  0  0  0  0
  -22.4190  -12.1050   22.3700 H   0  0  0  0  0  0  0  0  0  0  0  0
  -21.1180  -13.2340   22.1180 H   0  0  0  0  0  0  0  0  0  0  0  0
  -25.4500  -15.2720   20.2720 N   0  0  0  0  0  0  0  0  0  0  0  0
  -24.6800  -15.9250   20.3630 H   0  0  0  0  0  0  0  0  0  0  0  0
  -26.3100  -15.7110   19.9690 H   0  0  0  0  0  0  0  0  0  0  0  0
  -33.4000  -22.4070   17.1460 C   0  0  0  0  0  1  0  0  0  0  0  0
  -32.6160  -21.7670   18.1460 O   0  0  0  0  0  0  0  0  0  0  0  0
  1  2  1  0
  3  6  2  0
  3  4  1  0
  4  1  2  0
  5 50  1  0
  5  2  2  0
  6  5  1  0
  7  4  1  0
  7  8  2  0
  8  9  1  0
  9 11  1  0
 10 21  2  0
 11 16  1  0
 12 20  1  0
 12 22  1  0
 13 19  1  0
 13 15  1  0
 14 20  1  0
 15 14  1  0
 16 15  2  0
 17 18  1  0
 17 11  2  0
 18 13  2  0
 19 12  1  0
 20 10  1  0
 22 24  2  0
 23 22  1  0
 25 23  1  0
 26 35  2  0
 26 31  1  0
 27 23  1  0
 27 31  1  0
 28 27  1  0
 29 30  1  0
 29 28  1  0
 30 26  1  0
 31 32  2  0
 32 33  1  0
 34 33  2  0
 35 34  1  0
 36 10  1  0
 36 37  1  0
 36 46  1  0
 37 40  1  0
 38 42  1  0
 38 37  1  0
 39 38  2  0
 42 41  1  0
 44 42  1  0
 44 45  1  0
 44 43  1  0
 46 49  1  1
 46 47  1  0
 48 46  1  0
 50 51  2  0
 51 52  1  0
 52 54  1  0
 52 53  2  0
 54 55  1  0
 56 55  1  0
 57 62  1  0
 58 59  1  0
 58 57  1  0
 60 59  1  0
 60 67  1  0
 60 61  1  0
 62 56  1  0
 62 61  1  0
 63 56  2  0
 64 65  2  0
 65 84  1  0
 66 65  1  0
 66 69  1  0
 67 64  1  0
 67 68  1  0
 68 66  2  0
 69 70  1  0
 70 71  2  0
 72 75  1  0
 72 71  1  0
 73 72  2  0
 74 73  1  0
 74 69  2  0
 75 76  1  0
 76 77  1  0
 77 78  2  0
 79 78  1  0
 79 83  1  0
 80 79  2  0
 81 76  2  0
 81 80  1  0
 82 81  1  0
 84 85  1  0
 85 88  1  0
 85 87  1  0
 86 84  2  0
 89 90  1  0
 89 64  1  0
 91 89  1  0
 92 93  1  0
 93  6  1  0
M  ISO  4   8 101   9 101  55 100  56 100
M  END
>  <TORSDO>  (27) 
F 22

>  <SCORE>  (27) 
-13.117

>  <name>  (27) 
26

>  <ligand_id>  (27) 
26

>  <original_smiles>  (27) 
[H]C(Oc1c([H])c([H])c2c(c1[H])C([H])([H])N(C(=O)C([H])(N([H])C(=O)C([H])(N([H])C([H])([H])[H])C([H])([H])[H])C(C([H])([H])[H])(C([H])([H])[H])C([H])([H])[H])C([H])(C(=O)N([H])C1([H])c3c([H])c([H])c([H])c([H])c3C([H])([H])C([H])([H])C1([H])[H])C2([H])[H])=C([H])c1c([H])c([H])c(C([H])=C([H])C(=O)C([H])([H])C([H])([H])C(=O)N2C([H])([H])C([H])([H])C([H])([H])C([H])(n3nc(-c4c([H])c([H])c(Oc5c([H])c([H])c(F)c([H])c5F)c([H])c4[H])c(C(=O)N([H])[H])c3N([H])[H])C2([H])[H])c(OC([H])([H])[H])c1[H]

>  <smiles>  (27) 
[H]C(Oc1c([H])c([H])c2c(c1[H])C([H])([H])N(C(=O)C([H])(N([H])C(=O)C([H])(N([H])C([H])([H])[H])C([H])([H])[H])C(C([H])([H])[H])(C([H])([H])[H])C([H])([H])[H])C([H])(C(=O)N([H])C1([H])c3c([H])c([H])c([H])c([H])c3C([H])([H])C([H])([H])C1([H])[H])C2([H])[H])=C([H])c1c([H])c([H])c(C([H])=C([H])C(=O)C([H])([H])C([H])([H])C(=O)N2C([H])([H])C([H])([H])C([H])([H])C([H])(n3nc(-c4c([H])c([H])c(Oc5c([H])c([H])c(F)c([H])c5F)c([H])c4[H])c(C(=O)N([H])[H])c3N([H])[H])C2([H])[H])c(OC([H])([H])[H])c1[H]

$$$$
27:0:0
     RDKit          3D

 93101  0  0  1  0  0  0  0  0999 V2000
  -29.2000  -20.4760   19.7800 C   0  0  0  0  0  3  0  0  0  0  0  0
  -30.6590  -19.5280   21.4560 C   0  0  0  0  0  3  0  0  0  0  0  0
  -30.1580  -21.9610   21.4380 C   0  0  0  0  0  3  0  0  0  0  0  0
  -29.8710  -19.2460   20.3160 C   0  0  0  0  0  0  0  0  0  0  0  0
  -29.2760  -21.8730   20.3340 C   0  0  0  0  0  0  0  0  0  0  0  0
  -30.8570  -20.8410   21.9730 C   0  0  0  0  0  0  0  0  0  0  0  0
  -30.0880  -16.4360   20.3910 C   0  0  0  0  0  3  0  0  0  0  0  0
  -30.0180  -17.7200   19.7520 C   0  0  0  0  0  0  0  0  0  0  0  0
  -30.6250  -15.0540   19.8680 C   0  0  0  0  0  0  0  0  0  0  0  0
  -30.3180  -12.6950   18.9810 C   0  0  0  0  0  2  0  0  0  0  0  0
  -29.3390  -12.7100   17.7840 C   0  0  0  0  0  2  0  0  0  0  0  0
  -27.8950  -12.5310   18.2830 C   0  0  0  0  0  2  0  0  0  0  0  0
  -27.5730  -13.4480   19.4930 C   0  0  0  0  0  3  0  0  0  0  0  0
  -28.6890  -13.4630   20.5610 C   0  0  0  0  0  2  0  0  0  0  0  0
  -29.9490  -13.8250   19.8960 N   0  0  0  0  0  0  0  0  0  0  0  0
  -31.7540  -14.9970   19.3730 O   0  0  0  0  0  0  0  0  0  0  0  0
  -25.2570  -14.0420   20.4020 C   0  0  0  0  0  0  0  0  0  0  0  0
  -24.2030  -13.2790   20.8260 C   0  0  0  0  0  0  0  0  0  0  0  0
  -24.6370  -11.9210   20.7400 C   0  0  0  0  0  0  0  0  0  0  0  0
  -26.2630  -13.1540   20.0720 N   0  0  0  0  0  0  0  0  0  0  0  0
  -25.9060  -11.8690   20.3490 N   0  0  0  0  0  0  0  0  0  0  0  0
  -23.8950  -10.6690   20.9520 C   0  0  0  0  0  0  0  0  0  0  0  0
  -24.3610   -9.6730   21.8380 C   0  0  0  0  0  3  0  0  0  0  0  0
  -23.6170   -8.4900   22.0410 C   0  0  0  0  0  3  0  0  0  0  0  0
  -22.3910   -8.2950   21.3610 C   0  0  0  0  0  0  0  0  0  0  0  0
  -21.9420   -9.2810   20.4690 C   0  0  0  0  0  3  0  0  0  0  0  0
  -22.6860  -10.4540   20.2620 C   0  0  0  0  0  3  0  0  0  0  0  0
  -21.6120   -7.1700   21.4850 O   0  0  0  0  0  0  0  0  0  0  0  0
  -21.6150   -6.4100   22.6280 C   0  0  0  0  0  0  0  0  0  0  0  0
  -21.2630   -6.9510   23.8830 C   0  0  0  0  0  3  0  0  0  0  0  0
  -21.2070   -6.1190   25.0190 C   0  0  0  0  0  3  0  0  0  0  0  0
  -21.4950   -4.7450   24.9030 C   0  0  0  0  0  0  0  0  0  0  0  0
  -21.8370   -4.2030   23.6520 C   0  0  0  0  0  3  0  0  0  0  0  0
  -21.8950   -5.0320   22.5190 C   0  0  0  0  0  0  0  0  0  0  0  0
  -22.2060   -4.4970   21.3130 F   0  0  0  0  0  0  0  0  0  0  0  0
  -21.4370   -3.9450   25.9950 F   0  0  0  0  0  0  0  0  0  0  0  0
  -22.8370  -13.7800   21.1890 C   0  0  0  0  0  0  0  0  0  0  0  0
  -22.1460  -13.1030   22.0970 N   0  0  0  0  0  0  0  0  0  0  0  0
  -22.3890  -14.8110   20.6900 O   0  0  0  0  0  0  0  0  0  0  0  0
  -22.5190  -12.2660   22.5240 H   0  0  0  0  0  0  0  0  0  0  0  0
  -21.2290  -13.4310   22.3660 H   0  0  0  0  0  0  0  0  0  0  0  0
  -25.4360  -15.4140   20.2460 N   0  0  0  0  0  0  0  0  0  0  0  0
  -24.6970  -16.0800   20.4440 H   0  0  0  0  0  0  0  0  0  0  0  0
  -26.2820  -15.8470   19.8940 H   0  0  0  0  0  0  0  0  0  0  0  0
  -30.2360  -17.7470   18.4260 O   0  0  0  0  0  0  0  0  0  0  0  0
  -30.1900  -18.6460   18.1280 H   0  0  0  0  0  0  0  0  0  0  0  0
  -28.6380  -23.2890   19.7770 C   0  0  0  0  0  0  0  0  0  0  0  0
  -28.3680  -23.3520   18.5750 O   0  0  0  0  0  0  0  0  0  0  0  0
  -28.2660  -24.6690   20.6620 C   0  0  0  0  0  2  0  0  0  0  0  0
  -28.3500  -26.1580   20.1390 O   0  0  0  0  0  0  0  0  0  0  0  0
  -24.7680  -31.8050   23.4210 C   0  0  0  0  0  0  0  0  0  0  0  0
  -27.2790  -27.1400   20.2260 C   0  0  0  0  0  0  0  0  0  0  0  0
  -23.5440  -30.4910   21.7360 C   0  0  0  0  0  3  0  0  0  0  0  0
  -24.9660  -28.9320   20.2590 C   0  0  0  0  0  0  0  0  0  0  0  0
  -26.1060  -30.7140   21.5720 C   0  0  0  0  0  2  0  0  0  0  0  0
  -26.1560  -29.3390   20.8750 C   0  0  0  0  0  0  0  0  0  0  0  0
  -27.3140  -28.4650   20.8310 C   0  0  0  0  0  3  0  0  0  0  0  0
  -26.0570  -26.8350   19.5900 C   0  0  0  0  0  3  0  0  0  0  0  0
  -24.9300  -27.6900   19.6000 C   0  0  0  0  0  3  0  0  0  0  0  0
  -23.7530  -29.8520   20.3340 C   0  0  0  0  0  2  0  0  0  0  0  0
  -24.8290  -31.0240   22.2990 N   0  0  0  0  0  0  0  0  0  0  0  0
  -23.6870  -32.0960   23.9590 O   0  0  0  0  0  0  0  0  0  0  0  0
  -22.8460  -29.4630   22.6640 C   0  0  0  0  0  0  0  0  0  0  0  0
  -21.5170  -29.3050   22.5150 N   0  0  0  0  0  0  0  0  0  0  0  0
  -23.5020  -28.8120   23.4780 O   0  0  0  0  0  0  0  0  0  0  0  0
  -21.0410  -29.8830   21.8370 H   0  0  0  0  0  0  0  0  0  0  0  0
  -18.1310  -28.0700   22.8970 C   0  0  0  0  0  0  0  0  0  0  0  0
  -20.6800  -28.3500   23.2460 C   0  0  0  0  0  3  0  0  0  0  0  0
  -20.8080  -26.9260   22.6540 C   0  0  0  0  0  2  0  0  0  0  0  0
  -19.7390  -26.6130   21.6010 C   0  0  0  0  0  2  0  0  0  0  0  0
  -18.3370  -26.7350   22.2010 C   0  0  0  0  0  2  0  0  0  0  0  0
  -19.2300  -28.8350   23.3710 C   0  0  0  0  0  0  0  0  0  0  0  0
  -18.9790  -30.0860   23.9750 C   0  0  0  0  0  3  0  0  0  0  0  0
  -17.6640  -30.5730   24.1100 C   0  0  0  0  0  3  0  0  0  0  0  0
  -16.5810  -29.8060   23.6520 C   0  0  0  0  0  3  0  0  0  0  0  0
  -16.8140  -28.5550   23.0520 C   0  0  0  0  0  3  0  0  0  0  0  0
  -26.0590  -32.3910   24.0750 C   0  0  0  0  0  3  0  0  0  0  0  0
  -25.8030  -33.8050   24.3950 N   0  0  0  0  0  0  0  0  0  0  0  0
  -26.2070  -34.8430   23.6500 C   0  0  0  0  0  0  0  0  0  0  0  0
  -26.9030  -34.7070   22.6410 O   0  0  0  0  0  0  0  0  0  0  0  0
  -25.1870  -33.9900   25.1730 H   0  0  0  0  0  0  0  0  0  0  0  0
  -24.5750  -36.7160   23.2530 C   0  0  0  0  0  1  0  0  0  0  0  0
  -25.7750  -36.2550   24.0940 C   0  0  0  0  0  3  0  0  0  0  0  0
  -27.9250  -37.0470   24.9800 C   0  0  0  0  0  1  0  0  0  0  0  0
  -26.8590  -37.2590   24.0030 N   0  0  0  0  0  0  0  0  0  0  0  0
  -26.4930  -38.1990   24.1310 H   0  0  0  0  0  0  0  0  0  0  0  0
  -26.5060  -31.6080   25.3730 C   0  0  1  0  0  0  0  0  0  0  0  0
  -25.3750  -31.4420   26.4160 C   0  0  0  0  0  1  0  0  0  0  0  0
  -27.0230  -30.1960   25.0100 C   0  0  0  0  0  1  0  0  0  0  0  0
  -27.6830  -32.3480   26.0500 C   0  0  0  0  0  1  0  0  0  0  0  0
  -31.8630  -21.0680   23.1100 C   0  0  0  0  0  2  0  0  0  0  0  0
  -34.3840  -21.1920   23.7550 C   0  0  0  0  0  1  0  0  0  0  0  0
  -33.3130  -20.5880   22.8180 C   0  0  0  0  0  2  0  0  0  0  0  0
  1  4  2  0
  1  5  1  0
  2  6  2  0
  3  6  1  0
  4  2  1  0
  5  3  2  0
  6 91  1  0
  8  4  1  0
  8  7  2  0
  9 15  1  0
  9  7  1  0
 10 15  1  0
 11 12  1  0
 11 10  1  0
 13 12  1  0
 13 20  1  0
 13 14  1  0
 15 14  1  0
 16  9  2  0
 17 18  2  0
 18 37  1  0
 19 18  1  0
 19 22  1  0
 20 21  1  0
 20 17  1  0
 21 19  2  0
 22 23  1  0
 23 24  2  0
 25 28  1  0
 25 24  1  0
 26 25  2  0
 27 26  1  0
 27 22  2  0
 28 29  1  0
 29 30  1  0
 30 31  2  0
 32 31  1  0
 32 36  1  0
 33 32  2  0
 34 29  2  0
 34 33  1  0
 35 34  1  0
 37 38  1  0
 38 41  1  0
 38 40  1  0
 39 37  2  0
 42 17  1  0
 42 43  1  0
 44 42  1  0
 45  8  1  0
 46 45  1  0
 47  5  1  0
 47 49  1  0
 48 47  2  0
 50 52  1  0
 50 49  1  0
 51 62  2  0
 52 57  1  0
 53 61  1  0
 53 63  1  0
 54 60  1  0
 54 56  1  0
 55 61  1  0
 56 55  1  0
 57 56  2  0
 58 59  1  0
 58 52  2  0
 59 54  2  0
 60 53  1  0
 61 51  1  0
 63 65  2  0
 64 63  1  0
 66 64  1  0
 67 76  2  0
 67 72  1  0
 68 64  1  0
 68 72  1  0
 69 68  1  0
 70 71  1  0
 70 69  1  0
 71 67  1  0
 72 73  2  0
 73 74  1  0
 75 74  2  0
 76 75  1  0
 77 51  1  0
 77 78  1  0
 77 87  1  0
 78 81  1  0
 79 83  1  0
 79 78  1  0
 80 79  2  0
 83 82  1  0
 85 83  1  0
 85 86  1  0
 85 84  1  0
 87 90  1  1
 87 88  1  0
 89 87  1  0
 93 91  1  0
 93 92  1  0
M  ISO  4   7 100   9 100  49 101  50 101
M  END
>  <TORSDO>  (28) 
F 22

>  <SCORE>  (28) 
-12.671

>  <name>  (28) 
27

>  <ligand_id>  (28) 
27

>  <original_smiles>  (28) 
[H]OC(=C([H])C(=O)N1C([H])([H])C([H])([H])C([H])([H])C([H])(n2nc(-c3c([H])c([H])c(Oc4c([H])c([H])c(F)c([H])c4F)c([H])c3[H])c(C(=O)N([H])[H])c2N([H])[H])C1([H])[H])c1c([H])c(C(=O)C([H])([H])Oc2c([H])c([H])c3c(c2[H])C([H])([H])N(C(=O)C([H])(N([H])C(=O)C([H])(N([H])C([H])([H])[H])C([H])([H])[H])C(C([H])([H])[H])(C([H])([H])[H])C([H])([H])[H])C([H])(C(=O)N([H])C2([H])c4c([H])c([H])c([H])c([H])c4C([H])([H])C([H])([H])C2([H])[H])C3([H])[H])c([H])c(C([H])([H])C([H])([H])C([H])([H])[H])c1[H]

>  <smiles>  (28) 
[H]OC(=C([H])C(=O)N1C([H])([H])C([H])([H])C([H])([H])C([H])(n2nc(-c3c([H])c([H])c(Oc4c([H])c([H])c(F)c([H])c4F)c([H])c3[H])c(C(=O)N([H])[H])c2N([H])[H])C1([H])[H])c1c([H])c(C(=O)C([H])([H])Oc2c([H])c([H])c3c(c2[H])C([H])([H])N(C(=O)C([H])(N([H])C(=O)C([H])(N([H])C([H])([H])[H])C([H])([H])[H])C(C([H])([H])[H])(C([H])([H])[H])C([H])([H])[H])C([H])(C(=O)N([H])C2([H])c4c([H])c([H])c([H])c([H])c4C([H])([H])C([H])([H])C2([H])[H])C3([H])[H])c([H])c(C([H])([H])C([H])([H])C([H])([H])[H])c1[H]

$$$$
28:0:0
     RDKit          3D

 89 94  0  0  1  0  0  0  0  0999 V2000
  -23.0210  -23.9030   22.2130 C   0  0  0  0  0  0  0  0  0  0  0  0
  -21.6050  -24.5880   22.3850 N   0  0  0  0  0  0  0  0  0  0  0  0
  -23.9700  -24.5720   22.6120 O   0  0  0  0  0  0  0  0  0  0  0  0
  -20.9260  -23.8620   22.1930 H   0  0  0  0  0  0  0  0  0  0  0  0
  -23.7650  -22.3120   21.5920 C   0  0  0  0  0  3  0  0  0  0  0  0
  -25.4830  -21.6510   20.9580 C   0  0  0  0  0  3  0  0  0  0  0  0
  -26.3840  -20.0280   20.3810 C   0  0  0  0  0  2  0  0  0  0  0  0
  -28.1440  -19.2820   20.0210 C   0  0  0  0  0  3  0  0  0  0  0  0
  -29.0260  -17.5620   19.8810 C   0  0  0  0  0  3  0  0  0  0  0  0
  -30.6270  -16.5620   19.8110 C   0  0  0  0  0  0  0  0  0  0  0  0
  -31.5890  -14.0850   19.3870 C   0  0  0  0  0  2  0  0  0  0  0  0
  -30.8310  -13.3800   18.2140 C   0  0  0  0  0  2  0  0  0  0  0  0
  -29.4010  -12.9620   18.6240 C   0  0  0  0  0  2  0  0  0  0  0  0
  -28.7490  -14.0670   19.4830 C   0  0  0  0  0  3  0  0  0  0  0  0
  -29.6360  -14.4530   20.6630 C   0  0  0  0  0  2  0  0  0  0  0  0
  -30.7090  -15.1550   20.0280 N   0  0  0  0  0  0  0  0  0  0  0  0
  -31.7740  -16.9340   19.4370 O   0  0  0  0  0  0  0  0  0  0  0  0
  -26.4260  -14.6510   20.2860 C   0  0  0  0  0  0  0  0  0  0  0  0
  -25.3900  -13.8730   20.7010 C   0  0  0  0  0  0  0  0  0  0  0  0
  -25.8600  -12.5250   20.6350 C   0  0  0  0  0  0  0  0  0  0  0  0
  -27.4410  -13.7660   19.9770 N   0  0  0  0  0  0  0  0  0  0  0  0
  -27.1270  -12.4850   20.2600 N   0  0  0  0  0  0  0  0  0  0  0  0
  -25.1560  -11.2640   20.8350 C   0  0  0  0  0  0  0  0  0  0  0  0
  -25.4920  -10.3900   21.8910 C   0  0  0  0  0  3  0  0  0  0  0  0
  -24.7820   -9.1840   22.0670 C   0  0  0  0  0  3  0  0  0  0  0  0
  -23.7270   -8.8500   21.1850 C   0  0  0  0  0  0  0  0  0  0  0  0
  -23.4150   -9.7150   20.1220 C   0  0  0  0  0  3  0  0  0  0  0  0
  -24.1260  -10.9110   19.9440 C   0  0  0  0  0  3  0  0  0  0  0  0
  -22.9950   -7.6920   21.2640 O   0  0  0  0  0  0  0  0  0  0  0  0
  -22.5870   -7.1850   22.4700 C   0  0  0  0  0  0  0  0  0  0  0  0
  -21.8100   -7.9420   23.3740 C   0  0  0  0  0  3  0  0  0  0  0  0
  -21.3550   -7.3560   24.5710 C   0  0  0  0  0  3  0  0  0  0  0  0
  -21.6650   -6.0140   24.8600 C   0  0  0  0  0  0  0  0  0  0  0  0
  -22.4360   -5.2580   23.9600 C   0  0  0  0  0  3  0  0  0  0  0  0
  -22.8930   -5.8420   22.7650 C   0  0  0  0  0  0  0  0  0  0  0  0
  -23.6180   -5.1040   21.8900 F   0  0  0  0  0  0  0  0  0  0  0  0
  -21.2180   -5.4470   26.0050 F   0  0  0  0  0  0  0  0  0  0  0  0
  -24.0120  -14.3510   21.0340 C   0  0  0  0  0  0  0  0  0  0  0  0
  -23.3300  -13.6580   21.9370 N   0  0  0  0  0  0  0  0  0  0  0  0
  -23.5530  -15.3720   20.5250 O   0  0  0  0  0  0  0  0  0  0  0  0
  -23.7210  -12.8320   22.3650 H   0  0  0  0  0  0  0  0  0  0  0  0
  -22.4040  -13.9580   22.2070 H   0  0  0  0  0  0  0  0  0  0  0  0
  -26.5670  -16.0230   20.1230 N   0  0  0  0  0  0  0  0  0  0  0  0
  -25.8000  -16.6610   20.3070 H   0  0  0  0  0  0  0  0  0  0  0  0
  -27.3840  -16.4860   19.7510 H   0  0  0  0  0  0  0  0  0  0  0  0
  -20.6290  -26.2120   22.4630 C   0  0  0  0  0  2  0  0  0  0  0  0
  -21.1720  -28.0520   20.2480 C   0  0  0  0  0  2  0  0  0  0  0  0
  -23.0840  -27.9760   19.4890 C   0  0  0  0  0  1  0  0  0  0  0  0
  -24.8740  -27.8490   19.8950 O   0  0  0  0  0  0  0  0  0  0  0  0
  -24.7660  -32.2970   23.0920 C   0  0  0  0  0  0  0  0  0  0  0  0
  -26.1610  -28.2390   19.3350 C   0  0  0  0  0  3  0  0  0  0  0  0
  -23.4930  -31.2530   21.2950 C   0  0  0  0  0  3  0  0  0  0  0  0
  -24.8210  -30.4140   19.2210 C   0  0  0  0  0  3  0  0  0  0  0  0
  -26.0110  -31.5820   21.0590 C   0  0  0  0  0  2  0  0  0  0  0  0
  -25.9250  -30.4470   20.0720 C   0  0  0  0  0  3  0  0  0  0  0  0
  -26.7850  -29.3360   20.0120 C   0  0  0  0  0  2  0  0  0  0  0  0
  -25.8390  -28.5260   18.0410 C   0  0  0  0  0  2  0  0  0  0  0  0
  -24.9120  -29.5850   18.0580 C   0  0  0  0  0  2  0  0  0  0  0  0
  -23.5740  -31.1150   19.7250 C   0  0  0  0  0  2  0  0  0  0  0  0
  -24.7700  -31.7700   21.8420 N   0  0  0  0  0  0  0  0  0  0  0  0
  -23.7120  -32.4390   23.7310 O   0  0  0  0  0  0  0  0  0  0  0  0
  -23.1700  -29.9710   22.1180 C   0  0  0  0  0  0  0  0  0  0  0  0
  -21.9820  -29.7840   22.6320 N   0  0  0  0  0  0  0  0  0  0  0  0
  -24.0240  -29.1470   22.4070 O   0  0  0  0  0  0  0  0  0  0  0  0
  -21.2840  -30.5070   22.5310 H   0  0  0  0  0  0  0  0  0  0  0  0
  -18.6030  -28.5080   22.4560 C   0  0  0  0  0  0  0  0  0  0  0  0
  -21.4760  -28.4180   22.9350 C   0  0  0  0  0  2  0  0  0  0  0  0
  -22.0820  -26.9890   21.6080 C   0  0  0  0  0  2  0  0  0  0  0  0
  -20.1700  -26.4660   20.2400 C   0  0  0  0  0  1  0  0  0  0  0  0
  -18.5880  -27.4420   21.0360 C   0  0  0  0  0  1  0  0  0  0  0  0
  -19.8390  -28.9390   23.1980 C   0  0  0  0  0  0  0  0  0  0  0  0
  -19.6630  -30.0230   24.1680 C   0  0  0  0  0  3  0  0  0  0  0  0
  -18.4330  -30.6110   24.5680 C   0  0  0  0  0  3  0  0  0  0  0  0
  -17.2580  -30.0850   24.0240 C   0  0  0  0  0  3  0  0  0  0  0  0
  -17.3590  -29.0760   23.0080 C   0  0  0  0  0  3  0  0  0  0  0  0
  -26.0850  -32.7650   23.7560 C   0  0  0  0  0  3  0  0  0  0  0  0
  -25.7940  -34.0610   24.3700 N   0  0  0  0  0  0  0  0  0  0  0  0
  -26.0500  -35.2410   23.7930 C   0  0  0  0  0  0  0  0  0  0  0  0
  -26.6460  -35.3450   22.7180 O   0  0  0  0  0  0  0  0  0  0  0  0
  -25.2550  -34.0480   25.2240 H   0  0  0  0  0  0  0  0  0  0  0  0
  -24.2830  -37.0260   23.8900 C   0  0  0  0  0  1  0  0  0  0  0  0
  -25.5770  -36.5050   24.5330 C   0  0  0  0  0  3  0  0  0  0  0  0
  -27.7620  -37.2460   25.3690 C   0  0  0  0  0  1  0  0  0  0  0  0
  -26.5910  -37.5800   24.5620 N   0  0  0  0  0  0  0  0  0  0  0  0
  -26.1910  -38.4410   24.9220 H   0  0  0  0  0  0  0  0  0  0  0  0
  -26.6430  -31.7440   24.8190 C   0  0  1  0  0  0  0  0  0  0  0  0
  -25.5860  -31.2630   25.8420 C   0  0  0  0  0  1  0  0  0  0  0  0
  -27.2310  -30.4870   24.1350 C   0  0  0  0  0  1  0  0  0  0  0  0
  -27.8050  -32.4040   25.5940 C   0  0  0  0  0  1  0  0  0  0  0  0
  1  2  1  0
  1  3  2  0
  2 46  1  0
  4  2  1  0
  5  1  1  0
  6  5  2  0
  7  6  1  0
  8  7  1  0
  9  8  2  0
 10  9  1  0
 10 16  1  0
 11 16  1  0
 12 13  1  0
 12 11  1  0
 14 13  1  0
 14 21  1  0
 14 15  1  0
 16 15  1  0
 17 10  2  0
 18 19  2  0
 19 38  1  0
 20 19  1  0
 20 23  1  0
 21 22  1  0
 21 18  1  0
 22 20  2  0
 23 24  1  0
 24 25  2  0
 26 29  1  0
 26 25  1  0
 27 26  2  0
 28 27  1  0
 28 23  2  0
 29 30  1  0
 30 35  2  0
 30 31  1  0
 31 32  2  0
 32 33  1  0
 33 37  1  0
 34 33  2  0
 35 34  1  0
 36 35  1  0
 38 39  1  0
 39 42  1  0
 39 41  1  0
 40 38  2  0
 43 18  1  0
 43 44  1  0
 45 43  1  0
 47 68  1  0
 48 49  1  0
 50 61  2  0
 51 49  1  0
 51 56  1  0
 52 60  1  0
 52 62  1  0
 53 58  1  0
 53 59  1  0
 53 55  1  0
 54 60  1  0
 55 56  1  0
 55 54  1  0
 57 58  1  0
 57 51  1  0
 59 52  1  0
 60 50  1  0
 62 64  2  0
 62 63  1  0
 63 67  1  0
 65 63  1  0
 66 75  2  0
 66 71  1  0
 67 71  1  0
 68 46  1  0
 69 47  1  0
 70 66  1  0
 71 72  2  0
 72 73  1  0
 74 73  2  0
 75 74  1  0
 76 50  1  0
 76 77  1  0
 76 86  1  0
 77 80  1  0
 78 77  1  0
 78 82  1  0
 79 78  2  0
 82 81  1  0
 82 84  1  0
 84 85  1  0
 84 83  1  0
 86 89  1  1
 86 87  1  0
 88 86  1  0
M  ISO  4   9 100  10 100  48 101  49 101
M  END
>  <TORSDO>  (29) 
F 24

>  <SCORE>  (29) 
0.458

>  <name>  (29) 
28

>  <ligand_id>  (29) 
28

>  <original_smiles>  (29) 
[H]c1c([H])c([H])c2c(c1[H])C([H])([H])C([H])([H])C([H])([H])C2([H])N([H])C(=O)C1([H])N(C(=O)C([H])(N([H])C(=O)C([H])(N([H])C([H])([H])[H])C([H])([H])[H])C(C([H])([H])[H])(C([H])([H])[H])C([H])([H])[H])C([H])([H])c2c([H])c(OC([H])([H])C([H])([H])C([H])([H])N([H])C(=O)C([H])([H])C([H])([H])C([H])([H])C([H])([H])C([H])([H])C(=O)N3C([H])([H])C([H])([H])C([H])([H])C([H])(n4nc(-c5c([H])c([H])c(Oc6c([H])c([H])c(F)c([H])c6F)c([H])c5[H])c(C(=O)N([H])[H])c4N([H])[H])C3([H])[H])c([H])c([H])c2C1([H])[H]

>  <smiles>  (29) 
[H]c1c([H])c([H])c2c(c1[H])C([H])([H])C([H])([H])C([H])([H])C2([H])N([H])C(=O)C1([H])N(C(=O)C([H])(N([H])C(=O)C([H])(N([H])C([H])([H])[H])C([H])([H])[H])C(C([H])([H])[H])(C([H])([H])[H])C([H])([H])[H])C([H])([H])c2c([H])c(OC([H])([H])C([H])([H])C([H])([H])N([H])C(=O)C([H])([H])C([H])([H])C([H])([H])C([H])([H])C([H])([H])C(=O)N3C([H])([H])C([H])([H])C([H])([H])C([H])(n4nc(-c5c([H])c([H])c(Oc6c([H])c([H])c(F)c([H])c6F)c([H])c5[H])c(C(=O)N([H])[H])c4N([H])[H])C3([H])[H])c([H])c([H])c2C1([H])[H]

$$$$
29:0:0
     RDKit          3D

 99107  0  0  1  0  0  0  0  0999 V2000
  -30.4190  -21.0840   23.9230 C   0  0  0  0  0  3  0  0  0  0  0  0
  -29.5990  -22.1920   24.2020 C   0  0  0  0  0  3  0  0  0  0  0  0
  -30.8780  -21.9910   21.7140 C   0  0  0  0  0  3  0  0  0  0  0  0
  -31.0870  -20.9870   22.6850 C   0  0  0  0  0  0  0  0  0  0  0  0
  -29.4420  -23.2300   23.2580 C   0  0  0  0  0  0  0  0  0  0  0  0
  -30.0890  -23.1270   21.9980 C   0  0  0  0  0  0  0  0  0  0  0  0
  -27.1200  -24.2620   23.1860 C   0  0  0  0  0  1  0  0  0  0  0  0
  -28.5770  -24.4270   23.6360 C   0  0  0  0  0  2  0  0  0  0  0  0
  -29.9880  -24.2120   20.9310 C   0  0  0  0  0  2  0  0  0  0  0  0
  -30.8910  -25.4310   21.2100 C   0  0  0  0  0  2  0  0  0  0  0  0
  -32.3960  -25.2250   20.9190 C   0  0  0  0  0  2  0  0  0  0  0  0
  -33.3080  -25.9120   21.9530 C   0  0  0  0  0  2  0  0  0  0  0  0
  -34.4550  -26.7400   21.3150 C   0  0  0  0  0  2  0  0  0  0  0  0
  -34.2950  -28.1470   21.5170 O   0  0  0  0  0  0  0  0  0  0  0  0
  -29.1450  -31.3340   25.1780 C   0  0  0  0  0  0  0  0  0  0  0  0
  -33.0170  -28.6560   21.4530 C   0  0  0  0  0  0  0  0  0  0  0  0
  -28.4740  -30.3990   22.9880 C   0  0  0  0  0  3  0  0  0  0  0  0
  -30.3820  -29.6730   21.4660 C   0  0  0  0  0  0  0  0  0  0  0  0
  -30.8750  -31.1850   23.3960 C   0  0  0  0  0  2  0  0  0  0  0  0
  -31.3200  -30.1470   22.3910 C   0  0  0  0  0  0  0  0  0  0  0  0
  -32.6410  -29.6490   22.3820 C   0  0  0  0  0  3  0  0  0  0  0  0
  -32.0590  -28.1940   20.5190 C   0  0  0  0  0  3  0  0  0  0  0  0
  -30.7470  -28.6950   20.5250 C   0  0  0  0  0  3  0  0  0  0  0  0
  -28.9950  -30.2630   21.5340 C   0  0  0  0  0  2  0  0  0  0  0  0
  -29.5040  -30.9700   23.9150 N   0  0  0  0  0  0  0  0  0  0  0  0
  -27.9690  -31.2430   25.5600 O   0  0  0  0  0  0  0  0  0  0  0  0
  -27.9280  -29.0260   23.4480 C   0  0  0  0  0  0  0  0  0  0  0  0
  -26.7130  -28.6810   22.9890 N   0  0  0  0  0  0  0  0  0  0  0  0
  -28.5990  -28.2910   24.1770 O   0  0  0  0  0  0  0  0  0  0  0  0
  -26.2260  -29.3440   22.4030 H   0  0  0  0  0  0  0  0  0  0  0  0
  -23.6450  -26.8720   22.3920 C   0  0  0  0  0  0  0  0  0  0  0  0
  -26.0140  -27.4250   23.2620 C   0  0  0  0  0  3  0  0  0  0  0  0
  -26.5110  -26.2960   22.3290 C   0  0  0  0  0  2  0  0  0  0  0  0
  -25.6720  -26.1560   21.0560 C   0  0  0  0  0  2  0  0  0  0  0  0
  -24.2100  -25.8640   21.4040 C   0  0  0  0  0  2  0  0  0  0  0  0
  -24.4940  -27.6170   23.2520 C   0  0  0  0  0  0  0  0  0  0  0  0
  -23.9190  -28.5690   24.1220 C   0  0  0  0  0  3  0  0  0  0  0  0
  -22.5280  -28.7740   24.1470 C   0  0  0  0  0  3  0  0  0  0  0  0
  -21.6910  -28.0190   23.3060 C   0  0  0  0  0  3  0  0  0  0  0  0
  -22.2500  -27.0690   22.4330 C   0  0  0  0  0  3  0  0  0  0  0  0
  -30.1830  -31.9090   26.1910 C   0  0  0  0  0  3  0  0  0  0  0  0
  -29.7220  -33.2460   26.5820 N   0  0  0  0  0  0  0  0  0  0  0  0
  -30.1540  -34.3890   26.0340 C   0  0  0  0  0  0  0  0  0  0  0  0
  -31.0480  -34.4320   25.1840 O   0  0  0  0  0  0  0  0  0  0  0  0
  -28.9590  -33.2870   27.2400 H   0  0  0  0  0  0  0  0  0  0  0  0
  -28.4300  -36.1360   25.4820 C   0  0  0  0  0  1  0  0  0  0  0  0
  -29.4910  -35.6980   26.5060 C   0  0  0  0  0  3  0  0  0  0  0  0
  -31.3640  -36.5550   27.8410 C   0  0  0  0  0  1  0  0  0  0  0  0
  -30.4530  -36.7980   26.7270 N   0  0  0  0  0  0  0  0  0  0  0  0
  -29.9650  -37.6740   26.9000 H   0  0  0  0  0  0  0  0  0  0  0  0
  -30.3890  -30.9940   27.4610 C   0  0  1  0  0  0  0  0  0  0  0  0
  -29.0660  -30.5780   28.1450 C   0  0  0  0  0  1  0  0  0  0  0  0
  -31.1530  -29.7020   27.0880 C   0  0  0  0  0  1  0  0  0  0  0  0
  -31.2590  -31.7330   28.5040 C   0  0  0  0  0  1  0  0  0  0  0  0
  -32.0680  -19.8400   22.4330 C   0  0  0  0  0  3  0  0  0  0  0  0
  -31.3990  -18.6860   21.7980 N   0  0  0  0  0  4  0  0  0  0  0  0
  -30.6820  -19.0100   21.1690 H   0  0  0  0  0  0  0  0  0  0  0  0
  -32.1060  -18.2300   21.2460 H   0  0  0  0  0  0  0  0  0  0  0  0
  -30.8510  -17.6610   22.7140 C   0  0  0  0  0  2  0  0  0  0  0  0
  -31.2790  -16.2500   22.2700 C   0  0  0  0  0  2  0  0  0  0  0  0
  -30.1760  -15.4750   21.5150 C   0  0  0  0  0  2  0  0  0  0  0  0
  -30.6860  -14.4630   20.4720 C   0  0  0  0  0  0  0  0  0  0  0  0
  -30.3860  -12.3050   19.3010 C   0  0  0  0  0  2  0  0  0  0  0  0
  -29.4120  -12.4370   18.1170 C   0  0  0  0  0  2  0  0  0  0  0  0
  -27.9500  -12.2810   18.5800 C   0  0  0  0  0  2  0  0  0  0  0  0
  -27.6210  -13.1690   19.8080 C   0  0  0  0  0  3  0  0  0  0  0  0
  -28.6930  -12.9960   20.9040 C   0  0  0  0  0  2  0  0  0  0  0  0
  -30.0090  -13.2980   20.3150 N   0  0  0  0  0  0  0  0  0  0  0  0
  -31.6870  -14.7380   19.8020 O   0  0  0  0  0  0  0  0  0  0  0  0
  -25.2580  -13.7880   20.6310 C   0  0  0  0  0  0  0  0  0  0  0  0
  -24.1890  -13.0180   21.0000 C   0  0  0  0  0  0  0  0  0  0  0  0
  -24.6190  -11.6610   20.8780 C   0  0  0  0  0  0  0  0  0  0  0  0
  -26.2770  -12.9000   20.3180 N   0  0  0  0  0  0  0  0  0  0  0  0
  -25.8940  -11.6140   20.5180 N   0  0  0  0  0  0  0  0  0  0  0  0
  -23.8730  -10.4060   21.0290 C   0  0  0  0  0  0  0  0  0  0  0  0
  -24.3050   -9.3930   21.9130 C   0  0  0  0  0  3  0  0  0  0  0  0
  -23.5620   -8.2010   22.0540 C   0  0  0  0  0  3  0  0  0  0  0  0
  -22.3740   -8.0130   21.3080 C   0  0  0  0  0  0  0  0  0  0  0  0
  -21.9610   -9.0160   20.4130 C   0  0  0  0  0  3  0  0  0  0  0  0
  -22.7040  -10.1990   20.2700 C   0  0  0  0  0  3  0  0  0  0  0  0
  -21.6030   -6.8780   21.3600 O   0  0  0  0  0  0  0  0  0  0  0  0
  -21.5240   -6.1130   22.4960 C   0  0  0  0  0  0  0  0  0  0  0  0
  -21.0830   -6.6490   23.7270 C   0  0  0  0  0  3  0  0  0  0  0  0
  -20.9490   -5.8110   24.8520 C   0  0  0  0  0  3  0  0  0  0  0  0
  -21.2470   -4.4380   24.7480 C   0  0  0  0  0  0  0  0  0  0  0  0
  -21.6810   -3.9030   23.5230 C   0  0  0  0  0  3  0  0  0  0  0  0
  -21.8160   -4.7370   22.4000 C   0  0  0  0  0  0  0  0  0  0  0  0
  -22.2130   -4.2120   21.2160 F   0  0  0  0  0  0  0  0  0  0  0  0
  -21.1110   -3.6320   25.8260 F   0  0  0  0  0  0  0  0  0  0  0  0
  -22.8130  -13.5070   21.3540 C   0  0  0  0  0  0  0  0  0  0  0  0
  -22.1160  -12.7930   22.2300 N   0  0  0  0  0  0  0  0  0  0  0  0
  -22.3690  -14.5560   20.8890 O   0  0  0  0  0  0  0  0  0  0  0  0
  -22.4900  -11.9430   22.6250 H   0  0  0  0  0  0  0  0  0  0  0  0
  -21.1940  -13.1010   22.5090 H   0  0  0  0  0  0  0  0  0  0  0  0
  -25.4440  -15.1630   20.5160 N   0  0  0  0  0  0  0  0  0  0  0  0
  -24.6870  -15.8200   20.6680 H   0  0  0  0  0  0  0  0  0  0  0  0
  -26.2800  -15.6000   20.1500 H   0  0  0  0  0  0  0  0  0  0  0  0
  -34.1160  -21.4250   22.2020 C   0  0  0  0  0  1  0  0  0  0  0  0
  -33.3120  -20.2550   21.6110 C   0  0  0  0  0  2  0  0  0  0  0  0
  1  2  1  0
  3  6  2  0
  3  4  1  0
  4  1  2  0
  5  8  1  0
  5  2  2  0
  6  5  1  0
  7  8  1  0
  9 10  1  0
  9  6  1  0
 11 10  1  0
 11 12  1  0
 13 14  1  0
 13 12  1  0
 15 26  2  0
 16 14  1  0
 16 21  1  0
 17 27  1  0
 17 25  1  0
 18 24  1  0
 18 20  1  0
 19 25  1  0
 20 19  1  0
 21 20  2  0
 22 23  1  0
 22 16  2  0
 23 18  2  0
 24 17  1  0
 25 15  1  0
 27 29  2  0
 28 27  1  0
 30 28  1  0
 31 40  2  0
 31 36  1  0
 32 28  1  0
 33 32  1  0
 34 35  1  0
 34 33  1  0
 35 31  1  0
 36 32  1  0
 36 37  2  0
 37 38  1  0
 39 38  2  0
 40 39  1  0
 41 15  1  0
 41 42  1  0
 41 51  1  0
 42 45  1  0
 43 47  1  0
 43 42  1  0
 44 43  2  0
 47 46  1  0
 47 49  1  0
 49 50  1  0
 49 48  1  0
 51 52  1  1
 51 54  1  0
 53 51  1  0
 55 99  1  0
 55  4  1  0
 56 55  1  0
 56 59  1  0
 57 56  1  0
 58 56  1  0
 60 59  1  0
 61 60  1  0
 62 61  1  0
 63 68  1  0
 64 65  1  0
 64 63  1  0
 66 65  1  0
 66 73  1  0
 66 67  1  0
 68 62  1  0
 68 67  1  0
 69 62  2  0
 70 71  2  0
 71 90  1  0
 72 71  1  0
 72 75  1  0
 73 74  1  0
 73 70  1  0
 74 72  2  0
 75 76  1  0
 76 77  2  0
 78 81  1  0
 78 77  1  0
 79 78  2  0
 80 79  1  0
 80 75  2  0
 81 82  1  0
 82 83  1  0
 83 84  2  0
 85 84  1  0
 85 89  1  0
 86 85  2  0
 87 82  2  0
 87 86  1  0
 88 87  1  0
 90 91  1  0
 91 94  1  0
 91 93  1  0
 92 90  2  0
 95 70  1  0
 95 96  1  0
 97 95  1  0
 99 98  1  0
M  ISO  4  13 101  14 101  61 100  62 100
M  END
>  <TORSDO>  (30) 
F 28

>  <SCORE>  (30) 
-2.794

>  <name>  (30) 
29

>  <ligand_id>  (30) 
29

>  <original_smiles>  (30) 
[H]c1c([H])c([H])c2c(c1[H])C([H])([H])C([H])([H])C([H])([H])C2([H])N([H])C(=O)C1([H])N(C(=O)C([H])(N([H])C(=O)C([H])(N([H])C([H])([H])[H])C([H])([H])[H])C(C([H])([H])[H])(C([H])([H])[H])C([H])([H])[H])C([H])([H])c2c([H])c(OC([H])([H])C([H])([H])C([H])([H])C([H])([H])C([H])([H])c3c([H])c(C([H])(C([H])([H])C([H])([H])[H])[N+]([H])([H])C([H])([H])C([H])([H])C([H])([H])C(=O)N4C([H])([H])C([H])([H])C([H])([H])C([H])(n5nc(-c6c([H])c([H])c(Oc7c([H])c([H])c(F)c([H])c7F)c([H])c6[H])c(C(=O)N([H])[H])c5N([H])[H])C4([H])[H])c([H])c([H])c3C([H])([H])C([H])([H])[H])c([H])c([H])c2C1([H])[H]

>  <smiles>  (30) 
[H]c1c([H])c([H])c2c(c1[H])C([H])([H])C([H])([H])C([H])([H])C2([H])N([H])C(=O)C1([H])N(C(=O)C([H])(N([H])C(=O)C([H])(N([H])C([H])([H])[H])C([H])([H])[H])C(C([H])([H])[H])(C([H])([H])[H])C([H])([H])[H])C([H])([H])c2c([H])c(OC([H])([H])C([H])([H])C([H])([H])C([H])([H])C([H])([H])c3c([H])c(C([H])(C([H])([H])C([H])([H])[H])[N+]([H])([H])C([H])([H])C([H])([H])C([H])([H])C(=O)N4C([H])([H])C([H])([H])C([H])([H])C([H])(n5nc(-c6c([H])c([H])c(Oc7c([H])c([H])c(F)c([H])c7F)c([H])c6[H])c(C(=O)N([H])[H])c5N([H])[H])C4([H])[H])c([H])c([H])c3C([H])([H])C([H])([H])[H])c([H])c([H])c2C1([H])[H]

$$$$
30:0:0
     RDKit          3D

 90 97  0  0  1  0  0  0  0  0999 V2000
  -28.1400  -22.5520   21.3700 C   0  0  0  0  0  1  0  0  0  0  0  0
  -29.4290  -22.9260   20.7140 N   0  0  1  0  0  4  0  0  0  0  0  0
  -30.0660  -23.0470   21.4890 H   0  0  0  0  0  0  0  0  0  0  0  0
  -30.0540  -21.8030   19.9100 C   0  0  0  0  0  2  0  0  0  0  0  0
  -30.3280  -20.4210   20.6260 C   0  0  0  0  0  2  0  0  0  0  0  0
  -29.2430  -19.3320   20.4140 C   0  0  0  0  0  0  0  0  0  0  0  0
  -29.4720  -18.0000   20.5110 N   0  0  0  0  0  0  0  0  0  0  0  0
  -28.1030  -19.6900   20.1240 O   0  0  0  0  0  0  0  0  0  0  0  0
  -28.6570  -17.4520   20.2800 H   0  0  0  0  0  0  0  0  0  0  0  0
  -30.6240  -17.1980   20.9660 C   0  0  0  0  0  2  0  0  0  0  0  0
  -30.2220  -15.7260   21.3950 C   0  0  0  0  0  2  0  0  0  0  0  0
  -30.7340  -14.5370   20.5210 C   0  0  0  0  0  0  0  0  0  0  0  0
  -30.3870  -12.3830   19.3410 C   0  0  0  0  0  2  0  0  0  0  0  0
  -29.4430  -12.5650   18.1340 C   0  0  0  0  0  2  0  0  0  0  0  0
  -27.9670  -12.4370   18.5620 C   0  0  0  0  0  2  0  0  0  0  0  0
  -27.6320  -13.2800   19.8150 C   0  0  0  0  0  3  0  0  0  0  0  0
  -28.6920  -13.0730   20.9240 C   0  0  0  0  0  2  0  0  0  0  0  0
  -30.0190  -13.3780   20.3620 N   0  0  0  0  0  0  0  0  0  0  0  0
  -31.8200  -14.6900   19.9550 O   0  0  0  0  0  0  0  0  0  0  0  0
  -25.2260  -13.9030   20.4840 C   0  0  0  0  0  0  0  0  0  0  0  0
  -24.1500  -13.1370   20.8570 C   0  0  0  0  0  0  0  0  0  0  0  0
  -24.6080  -11.7860   20.8460 C   0  0  0  0  0  0  0  0  0  0  0  0
  -26.2710  -13.0160   20.2800 N   0  0  0  0  0  0  0  0  0  0  0  0
  -25.9010  -11.7370   20.5550 N   0  0  0  0  0  0  0  0  0  0  0  0
  -23.8740  -10.5270   21.0420 C   0  0  0  0  0  0  0  0  0  0  0  0
  -24.2970   -9.5590   21.9780 C   0  0  0  0  0  3  0  0  0  0  0  0
  -23.5650   -8.3650   22.1570 C   0  0  0  0  0  3  0  0  0  0  0  0
  -22.3900   -8.1350   21.4000 C   0  0  0  0  0  0  0  0  0  0  0  0
  -21.9870   -9.0900   20.4490 C   0  0  0  0  0  3  0  0  0  0  0  0
  -22.7230  -10.2740   20.2690 C   0  0  0  0  0  3  0  0  0  0  0  0
  -21.6270   -6.9960   21.4910 O   0  0  0  0  0  0  0  0  0  0  0  0
  -21.5830   -6.2550   22.6450 C   0  0  0  0  0  0  0  0  0  0  0  0
  -21.1690   -6.8130   23.8740 C   0  0  0  0  0  3  0  0  0  0  0  0
  -21.0670   -5.9980   25.0180 C   0  0  0  0  0  3  0  0  0  0  0  0
  -21.3680   -4.6250   24.9340 C   0  0  0  0  0  0  0  0  0  0  0  0
  -21.7730   -4.0660   23.7080 C   0  0  0  0  0  3  0  0  0  0  0  0
  -21.8750   -4.8790   22.5670 C   0  0  0  0  0  0  0  0  0  0  0  0
  -22.2440   -4.3330   21.3850 F   0  0  0  0  0  0  0  0  0  0  0  0
  -21.2640   -3.8370   26.0310 F   0  0  0  0  0  0  0  0  0  0  0  0
  -22.7500  -13.6220   21.1080 C   0  0  0  0  0  0  0  0  0  0  0  0
  -22.0160  -12.9330   21.9760 N   0  0  0  0  0  0  0  0  0  0  0  0
  -22.3170  -14.6380   20.5730 O   0  0  0  0  0  0  0  0  0  0  0  0
  -22.3790  -12.1010   22.4200 H   0  0  0  0  0  0  0  0  0  0  0  0
  -21.0790  -13.2420   22.1920 H   0  0  0  0  0  0  0  0  0  0  0  0
  -25.3990  -15.2670   20.2730 N   0  0  0  0  0  0  0  0  0  0  0  0
  -26.2190  -15.6600   19.8290 H   0  0  0  0  0  0  0  0  0  0  0  0
  -24.6250  -15.9220   20.3010 H   0  0  0  0  0  0  0  0  0  0  0  0
  -29.4650  -24.2980   20.0420 C   0  0  0  0  0  2  0  0  0  0  0  0
  -28.2340  -25.2580   19.8000 C   0  0  0  0  0  2  0  0  0  0  0  0
  -28.3770  -26.6580   20.1720 O   0  0  0  0  0  0  0  0  0  0  0  0
  -24.6080  -31.9090   23.2400 C   0  0  0  0  0  0  0  0  0  0  0  0
  -27.2160  -27.4320   20.1450 C   0  0  0  0  0  0  0  0  0  0  0  0
  -23.3830  -30.5120   21.6090 C   0  0  0  0  0  3  0  0  0  0  0  0
  -24.8250  -28.9840   20.1670 C   0  0  0  0  0  0  0  0  0  0  0  0
  -25.9120  -30.8600   21.3960 C   0  0  0  0  0  2  0  0  0  0  0  0
  -25.9920  -29.4900   20.7490 C   0  0  0  0  0  0  0  0  0  0  0  0
  -27.1870  -28.7240   20.7360 C   0  0  0  0  0  3  0  0  0  0  0  0
  -26.0140  -26.9610   19.5520 C   0  0  0  0  0  3  0  0  0  0  0  0
  -24.8340  -27.7190   19.5640 C   0  0  0  0  0  3  0  0  0  0  0  0
  -23.5810  -29.8440   20.2240 C   0  0  0  0  0  2  0  0  0  0  0  0
  -24.6530  -31.1080   22.1380 N   0  0  0  0  0  0  0  0  0  0  0  0
  -23.5300  -32.1890   23.7850 O   0  0  0  0  0  0  0  0  0  0  0  0
  -22.7370  -29.4910   22.5710 C   0  0  0  0  0  0  0  0  0  0  0  0
  -21.4130  -29.3020   22.4440 N   0  0  0  0  0  0  0  0  0  0  0  0
  -23.4250  -28.8700   23.3860 O   0  0  0  0  0  0  0  0  0  0  0  0
  -20.9210  -29.8540   21.7570 H   0  0  0  0  0  0  0  0  0  0  0  0
  -18.0460  -28.0980   22.9380 C   0  0  0  0  0  0  0  0  0  0  0  0
  -20.6000  -28.3670   23.2190 C   0  0  0  0  0  3  0  0  0  0  0  0
  -20.7130  -26.9340   22.6480 C   0  0  0  0  0  2  0  0  0  0  0  0
  -19.6150  -26.6000   21.6320 C   0  0  0  0  0  2  0  0  0  0  0  0
  -18.2300  -26.7450   22.2710 C   0  0  0  0  0  2  0  0  0  0  0  0
  -19.1590  -28.8660   23.3680 C   0  0  0  0  0  0  0  0  0  0  0  0
  -18.9360  -30.1330   23.9490 C   0  0  0  0  0  3  0  0  0  0  0  0
  -17.6290  -30.6310   24.1080 C   0  0  0  0  0  3  0  0  0  0  0  0
  -16.5280  -29.8590   23.6960 C   0  0  0  0  0  3  0  0  0  0  0  0
  -16.7380  -28.5950   23.1160 C   0  0  0  0  0  3  0  0  0  0  0  0
  -25.9010  -32.5340   23.8490 C   0  0  0  0  0  3  0  0  0  0  0  0
  -25.6040  -33.9350   24.1700 N   0  0  0  0  0  0  0  0  0  0  0  0
  -25.9410  -34.9800   23.4030 C   0  0  0  0  0  0  0  0  0  0  0  0
  -26.6090  -34.8660   22.3720 O   0  0  0  0  0  0  0  0  0  0  0  0
  -25.0100  -34.0990   24.9690 H   0  0  0  0  0  0  0  0  0  0  0  0
  -24.2230  -36.7810   23.0380 C   0  0  0  0  0  1  0  0  0  0  0  0
  -25.4610  -36.3720   23.8540 C   0  0  0  0  0  3  0  0  0  0  0  0
  -27.5990  -37.2480   24.6840 C   0  0  0  0  0  1  0  0  0  0  0  0
  -26.5000  -37.4180   23.7370 N   0  0  0  0  0  0  0  0  0  0  0  0
  -26.0990  -38.3410   23.8760 H   0  0  0  0  0  0  0  0  0  0  0  0
  -26.4210  -31.7650   25.1250 C   0  0  1  0  0  0  0  0  0  0  0  0
  -25.3300  -31.5410   26.1970 C   0  0  0  0  0  1  0  0  0  0  0  0
  -26.9950  -30.3820   24.7380 C   0  0  0  0  0  1  0  0  0  0  0  0
  -27.5780  -32.5550   25.7790 C   0  0  0  0  0  1  0  0  0  0  0  0
  2  1  1  0
  2  3  1  1
  4  5  1  0
  4  2  1  0
  6  7  1  0
  6  5  1  0
  7 10  1  0
  8  6  2  0
  9  7  1  0
 10 11  1  0
 12 11  1  0
 13 18  1  0
 14 15  1  0
 14 13  1  0
 16 15  1  0
 16 23  1  0
 16 17  1  0
 18 12  1  0
 18 17  1  0
 19 12  2  0
 20 21  2  0
 21 40  1  0
 22 21  1  0
 22 25  1  0
 23 20  1  0
 23 24  1  0
 24 22  2  0
 25 26  1  0
 26 27  2  0
 28 31  1  0
 28 27  1  0
 29 28  2  0
 30 29  1  0
 30 25  2  0
 31 32  1  0
 32 33  1  0
 33 34  2  0
 35 34  1  0
 35 39  1  0
 36 35  2  0
 37 32  2  0
 37 36  1  0
 38 37  1  0
 40 41  1  0
 41 44  1  0
 41 43  1  0
 42 40  2  0
 45 47  1  0
 45 20  1  0
 46 45  1  0
 48  2  1  0
 49 48  1  0
 49 50  1  0
 51 62  2  0
 52 50  1  0
 52 57  1  0
 53 61  1  0
 53 63  1  0
 54 60  1  0
 54 56  1  0
 55 61  1  0
 56 55  1  0
 57 56  2  0
 58 59  1  0
 58 52  2  0
 59 54  2  0
 60 53  1  0
 61 51  1  0
 63 65  2  0
 64 63  1  0
 66 64  1  0
 67 76  2  0
 67 72  1  0
 68 64  1  0
 68 72  1  0
 69 68  1  0
 70 71  1  0
 70 69  1  0
 71 67  1  0
 72 73  2  0
 73 74  1  0
 75 74  2  0
 76 75  1  0
 77 51  1  0
 77 78  1  0
 77 87  1  0
 78 81  1  0
 79 83  1  0
 79 78  1  0
 80 79  2  0
 83 82  1  0
 85 83  1  0
 85 86  1  0
 85 84  1  0
 87 90  1  1
 87 88  1  0
 89 87  1  0
M  ISO  4  11 100  12 100  49 101  50 101
M  END
>  <TORSDO>  (31) 
F 23

>  <SCORE>  (31) 
-12.849

>  <name>  (31) 
30

>  <ligand_id>  (31) 
30

>  <original_smiles>  (31) 
[H]c1c([H])c([H])c2c(c1[H])C([H])([H])C([H])([H])C([H])([H])C2([H])N([H])C(=O)C1([H])N(C(=O)C([H])(N([H])C(=O)C([H])(N([H])C([H])([H])[H])C([H])([H])[H])C(C([H])([H])[H])(C([H])([H])[H])C([H])([H])[H])C([H])([H])c2c([H])c(OC([H])([H])C([H])([H])[N+]([H])(C([H])([H])[H])C([H])([H])C([H])([H])C(=O)N([H])C([H])([H])C([H])([H])C(=O)N3C([H])([H])C([H])([H])C([H])([H])C([H])(n4nc(-c5c([H])c([H])c(Oc6c([H])c([H])c(F)c([H])c6F)c([H])c5[H])c(C(=O)N([H])[H])c4N([H])[H])C3([H])[H])c([H])c([H])c2C1([H])[H]

>  <smiles>  (31) 
[H]c1c([H])c([H])c2c(c1[H])C([H])([H])C([H])([H])C([H])([H])C2([H])N([H])C(=O)C1([H])N(C(=O)C([H])(N([H])C(=O)C([H])(N([H])C([H])([H])[H])C([H])([H])[H])C(C([H])([H])[H])(C([H])([H])[H])C([H])([H])[H])C([H])([H])c2c([H])c(OC([H])([H])C([H])([H])[N+]([H])(C([H])([H])[H])C([H])([H])C([H])([H])C(=O)N([H])C([H])([H])C([H])([H])C(=O)N3C([H])([H])C([H])([H])C([H])([H])C([H])(n4nc(-c5c([H])c([H])c(Oc6c([H])c([H])c(F)c([H])c6F)c([H])c5[H])c(C(=O)N([H])[H])c4N([H])[H])C3([H])[H])c([H])c([H])c2C1([H])[H]

$$$$
31:0:0
     RDKit          3D

 96104  0  0  1  0  0  0  0  0999 V2000
  -27.6190  -24.5180   22.0550 C   0  0  0  0  0  3  0  0  0  0  0  0
  -27.3750  -25.9410   22.3740 C   0  0  0  0  0  3  0  0  0  0  0  0
  -29.4500  -24.8010   23.5070 C   0  0  0  0  0  3  0  0  0  0  0  0
  -28.8680  -23.8310   22.5520 C   0  0  0  0  0  0  0  0  0  0  0  0
  -28.3720  -26.8480   22.7600 C   0  0  0  0  0  0  0  0  0  0  0  0
  -29.1010  -26.2020   23.7210 C   0  0  0  0  0  0  0  0  0  0  0  0
  -28.5100  -26.7450   25.0870 C   0  0  0  0  0  1  0  0  0  0  0  0
  -29.8360  -21.9740   23.9890 C   0  0  0  0  0  1  0  0  0  0  0  0
  -29.5310  -22.1810   22.4470 C   0  0  0  0  0  3  0  0  0  0  0  0
  -29.2540  -20.7640   21.5450 N   0  0  0  0  0  4  0  0  0  0  0  0
  -28.2940  -20.5930   21.8260 H   0  0  0  0  0  0  0  0  0  0  0  0
  -29.2480  -21.1780   20.6390 H   0  0  0  0  0  0  0  0  0  0  0  0
  -30.1240  -19.2240   21.4710 C   0  0  0  0  0  3  0  0  0  0  0  0
  -29.8720  -17.5130   20.5660 C   0  0  0  0  0  3  0  0  0  0  0  0
  -30.7220  -15.8240   20.1840 C   0  0  0  0  0  0  0  0  0  0  0  0
  -30.7820  -13.3500   19.1360 C   0  0  0  0  0  2  0  0  0  0  0  0
  -29.8740  -12.8610   17.9400 C   0  0  0  0  0  2  0  0  0  0  0  0
  -28.4720  -12.4640   18.4170 C   0  0  0  0  0  2  0  0  0  0  0  0
  -27.9880  -13.5210   19.4200 C   0  0  0  0  0  3  0  0  0  0  0  0
  -28.9810  -13.8540   20.5580 C   0  0  0  0  0  2  0  0  0  0  0  0
  -30.1720  -14.4880   19.9850 N   0  0  0  0  0  0  0  0  0  0  0  0
  -31.9100  -15.7540   19.7970 O   0  0  0  0  0  0  0  0  0  0  0  0
  -25.6850  -14.1810   20.2630 C   0  0  0  0  0  0  0  0  0  0  0  0
  -24.5870  -13.4130   20.6990 C   0  0  0  0  0  0  0  0  0  0  0  0
  -24.9840  -12.0640   20.6000 C   0  0  0  0  0  0  0  0  0  0  0  0
  -26.6530  -13.2330   19.9470 N   0  0  0  0  0  0  0  0  0  0  0  0
  -26.2520  -11.9540   20.2060 N   0  0  0  0  0  0  0  0  0  0  0  0
  -24.1890  -10.8310   20.8120 C   0  0  0  0  0  0  0  0  0  0  0  0
  -24.5900   -9.8490   21.7340 C   0  0  0  0  0  3  0  0  0  0  0  0
  -23.7910   -8.6980   21.9370 C   0  0  0  0  0  3  0  0  0  0  0  0
  -22.5930   -8.5330   21.2090 C   0  0  0  0  0  0  0  0  0  0  0  0
  -22.2160   -9.5070   20.2710 C   0  0  0  0  0  3  0  0  0  0  0  0
  -23.0130  -10.6490   20.0650 C   0  0  0  0  0  3  0  0  0  0  0  0
  -21.7680   -7.4390   21.3190 O   0  0  0  0  0  0  0  0  0  0  0  0
  -21.6590   -6.7340   22.4870 C   0  0  0  0  0  0  0  0  0  0  0  0
  -21.2650   -7.3480   23.6970 C   0  0  0  0  0  3  0  0  0  0  0  0
  -21.0990   -6.5730   24.8600 C   0  0  0  0  0  3  0  0  0  0  0  0
  -21.3130   -5.1820   24.8200 C   0  0  0  0  0  0  0  0  0  0  0  0
  -21.7040   -4.5670   23.6160 C   0  0  0  0  0  3  0  0  0  0  0  0
  -21.8700   -5.3400   22.4530 C   0  0  0  0  0  0  0  0  0  0  0  0
  -22.2230   -4.7360   21.2920 F   0  0  0  0  0  0  0  0  0  0  0  0
  -21.1490   -4.4330   25.9370 F   0  0  0  0  0  0  0  0  0  0  0  0
  -23.2620  -14.0000   21.0450 C   0  0  0  0  0  0  0  0  0  0  0  0
  -22.5460  -13.3180   21.9690 N   0  0  0  0  0  0  0  0  0  0  0  0
  -22.8480  -15.0360   20.5760 O   0  0  0  0  0  0  0  0  0  0  0  0
  -22.8970  -12.4700   22.3800 H   0  0  0  0  0  0  0  0  0  0  0  0
  -21.6430  -13.6750   22.2520 H   0  0  0  0  0  0  0  0  0  0  0  0
  -25.8970  -15.5200   20.1360 N   0  0  0  0  0  0  0  0  0  0  0  0
  -25.1680  -16.2010   20.3020 H   0  0  0  0  0  0  0  0  0  0  0  0
  -26.7510  -15.9440   19.7770 H   0  0  0  0  0  0  0  0  0  0  0  0
  -28.8790  -28.1710   21.9900 C   0  0  0  0  0  3  0  0  0  0  0  0
  -28.3970  -29.7510   21.9180 C   0  0  0  0  0  2  0  0  0  0  0  0
  -28.7360  -30.9500   22.5190 O   0  0  0  0  0  0  0  0  0  0  0  0
  -28.4200  -31.4900   21.7580 H   0  0  0  0  0  0  0  0  0  0  0  0
  -29.1440  -27.6640   20.4560 C   0  0  0  0  0  2  0  0  0  0  0  0
  -27.9680  -27.0820   19.6790 O   0  0  0  0  0  0  0  0  0  0  0  0
  -24.4270  -32.0260   23.3930 C   0  0  0  0  0  0  0  0  0  0  0  0
  -26.7290  -27.7500   19.6770 C   0  0  0  0  0  0  0  0  0  0  0  0
  -23.0150  -30.7260   21.7960 C   0  0  0  0  0  3  0  0  0  0  0  0
  -24.2830  -29.1940   20.1770 C   0  0  0  0  0  0  0  0  0  0  0  0
  -25.4020  -31.2020   21.1470 C   0  0  0  0  0  2  0  0  0  0  0  0
  -25.4960  -29.7710   20.5250 C   0  0  0  0  0  0  0  0  0  0  0  0
  -26.6370  -29.0930   20.0240 C   0  0  0  0  0  3  0  0  0  0  0  0
  -25.4740  -27.1720   19.4090 C   0  0  0  0  0  3  0  0  0  0  0  0
  -24.2550  -27.9010   19.5930 C   0  0  0  0  0  3  0  0  0  0  0  0
  -23.0220  -30.0190   20.4060 C   0  0  0  0  0  2  0  0  0  0  0  0
  -24.3580  -31.3240   22.2000 N   0  0  0  0  0  0  0  0  0  0  0  0
  -23.3830  -32.2540   24.0530 O   0  0  0  0  0  0  0  0  0  0  0  0
  -22.4760  -29.6500   22.7550 C   0  0  0  0  0  0  0  0  0  0  0  0
  -21.1520  -29.4160   22.6400 N   0  0  0  0  0  0  0  0  0  0  0  0
  -23.2190  -29.0230   23.5110 O   0  0  0  0  0  0  0  0  0  0  0  0
  -20.6470  -29.9740   21.9660 H   0  0  0  0  0  0  0  0  0  0  0  0
  -17.8610  -28.0440   22.9930 C   0  0  0  0  0  0  0  0  0  0  0  0
  -20.3740  -28.4180   23.3650 C   0  0  0  0  0  3  0  0  0  0  0  0
  -20.5860  -27.0150   22.7630 C   0  0  0  0  0  2  0  0  0  0  0  0
  -19.5290  -26.6390   21.7140 C   0  0  0  0  0  2  0  0  0  0  0  0
  -18.1230  -26.7090   22.3220 C   0  0  0  0  0  2  0  0  0  0  0  0
  -18.9230  -28.8590   23.4570 C   0  0  0  0  0  0  0  0  0  0  0  0
  -18.6200  -30.1120   24.0310 C   0  0  0  0  0  3  0  0  0  0  0  0
  -17.2860  -30.5510   24.1500 C   0  0  0  0  0  3  0  0  0  0  0  0
  -16.2340  -29.7220   23.7090 C   0  0  0  0  0  3  0  0  0  0  0  0
  -16.5230  -28.4720   23.1340 C   0  0  0  0  0  3  0  0  0  0  0  0
  -25.7220  -32.6560   24.0310 C   0  0  0  0  0  3  0  0  0  0  0  0
  -25.4710  -34.1090   24.2290 N   0  0  0  0  0  0  0  0  0  0  0  0
  -25.9060  -35.0910   23.4820 C   0  0  0  0  0  0  0  0  0  0  0  0
  -26.5500  -34.8940   22.4430 O   0  0  0  0  0  0  0  0  0  0  0  0
  -25.0790  -34.4500   25.1030 H   0  0  0  0  0  0  0  0  0  0  0  0
  -24.2360  -36.8830   23.2190 C   0  0  0  0  0  1  0  0  0  0  0  0
  -25.5150  -36.4940   23.9850 C   0  0  0  0  0  3  0  0  0  0  0  0
  -27.6850  -37.2110   24.8170 C   0  0  0  0  0  1  0  0  0  0  0  0
  -26.5910  -37.4980   23.8990 N   0  0  0  0  0  0  0  0  0  0  0  0
  -26.2430  -38.4210   24.1340 H   0  0  0  0  0  0  0  0  0  0  0  0
  -26.1350  -32.2030   25.4610 C   0  0  1  0  0  0  0  0  0  0  0  0
  -25.1750  -31.4030   26.3690 C   0  0  0  0  0  1  0  0  0  0  0  0
  -27.0900  -31.0960   25.3050 C   0  0  0  0  0  1  0  0  0  0  0  0
  -26.9410  -33.3480   26.2430 C   0  0  0  0  0  1  0  0  0  0  0  0
  1  2  2  0
  1  4  1  0
  2  5  1  0
  3  6  1  0
  4  3  2  0
  5  6  2  3
  6  7  1  0
  9  4  1  0
  9  8  1  0
 10 11  1  0
 10  9  1  0
 12 10  1  0
 13 10  1  0
 14 13  2  0
 15 14  1  0
 16 21  1  0
 17 18  1  0
 17 16  1  0
 19 18  1  0
 19 26  1  0
 19 20  1  0
 21 15  1  0
 21 20  1  0
 22 15  2  0
 23 24  2  0
 24 43  1  0
 25 24  1  0
 25 28  1  0
 26 27  1  0
 26 23  1  0
 27 25  2  0
 28 29  1  0
 29 30  2  0
 31 34  1  0
 31 30  1  0
 32 31  2  0
 33 32  1  0
 33 28  2  0
 34 35  1  0
 35 36  1  0
 36 37  2  0
 38 37  1  0
 38 42  1  0
 39 38  2  0
 40 35  2  0
 40 39  1  0
 41 40  1  0
 43 44  1  0
 44 47  1  0
 44 46  1  0
 45 43  2  0
 48 23  1  0
 48 49  1  0
 50 48  1  0
 51 55  1  0
 51  5  1  0
 52 51  1  0
 52 53  1  0
 54 53  1  0
 56 55  1  0
 57 68  2  0
 58 56  1  0
 58 63  1  0
 59 67  1  0
 59 69  1  0
 60 66  1  0
 60 62  1  0
 61 67  1  0
 62 61  1  0
 63 62  2  0
 64 65  1  0
 64 58  2  0
 65 60  2  0
 66 59  1  0
 67 57  1  0
 69 71  2  0
 70 69  1  0
 72 70  1  0
 73 82  2  0
 73 78  1  0
 74 70  1  0
 74 78  1  0
 75 74  1  0
 76 77  1  0
 76 75  1  0
 77 73  1  0
 78 79  2  0
 79 80  1  0
 81 80  2  0
 82 81  1  0
 83 57  1  0
 83 84  1  0
 83 93  1  0
 84 87  1  0
 85 89  1  0
 85 84  1  0
 86 85  2  0
 89 88  1  0
 91 89  1  0
 91 92  1  0
 91 90  1  0
 93 96  1  1
 93 94  1  0
 95 93  1  0
M  ISO  4  14 100  15 100  55 101  56 101
M  END
>  <TORSDO>  (32) 
F 24

>  <SCORE>  (32) 
-12.714

>  <name>  (32) 
31

>  <ligand_id>  (32) 
31

>  <original_smiles>  (32) 
[H]OC([H])([H])C([H])(c1c([H])c([H])c(C([H])(C([H])([H])[H])[N+]([H])([H])C([H])([H])C([H])([H])C(=O)N2C([H])([H])C([H])([H])C([H])([H])C([H])(n3nc(-c4c([H])c([H])c(Oc5c([H])c([H])c(F)c([H])c5F)c([H])c4[H])c(C(=O)N([H])[H])c3N([H])[H])C2([H])[H])c([H])c1C([H])([H])[H])C([H])([H])Oc1c([H])c([H])c2c(c1[H])C([H])([H])N(C(=O)C([H])(N([H])C(=O)C([H])(N([H])C([H])([H])[H])C([H])([H])[H])C(C([H])([H])[H])(C([H])([H])[H])C([H])([H])[H])C([H])(C(=O)N([H])C1([H])c3c([H])c([H])c([H])c([H])c3C([H])([H])C([H])([H])C1([H])[H])C2([H])[H]

>  <smiles>  (32) 
[H]OC([H])([H])C([H])(c1c([H])c([H])c(C([H])(C([H])([H])[H])[N+]([H])([H])C([H])([H])C([H])([H])C(=O)N2C([H])([H])C([H])([H])C([H])([H])C([H])(n3nc(-c4c([H])c([H])c(Oc5c([H])c([H])c(F)c([H])c5F)c([H])c4[H])c(C(=O)N([H])[H])c3N([H])[H])C2([H])[H])c([H])c1C([H])([H])[H])C([H])([H])Oc1c([H])c([H])c2c(c1[H])C([H])([H])N(C(=O)C([H])(N([H])C(=O)C([H])(N([H])C([H])([H])[H])C([H])([H])[H])C(C([H])([H])[H])(C([H])([H])[H])C([H])([H])[H])C([H])(C(=O)N([H])C1([H])c3c([H])c([H])c([H])c([H])c3C([H])([H])C([H])([H])C1([H])[H])C2([H])[H]

$$$$
32:0:0
     RDKit          3D

 92101  0  0  1  0  0  0  0  0999 V2000
  -28.5690  -20.4930   21.1880 C   0  0  0  0  0  3  0  0  0  0  0  0
  -29.0470  -19.1500   21.1350 C   0  0  0  0  0  3  0  0  0  0  0  0
  -30.3450  -21.2510   19.7270 C   0  0  0  0  0  3  0  0  0  0  0  0
  -29.1960  -21.5790   20.4940 C   0  0  0  0  0  0  0  0  0  0  0  0
  -30.1940  -18.8540   20.3710 C   0  0  0  0  0  0  0  0  0  0  0  0
  -30.8110  -19.9070   19.6860 C   0  0  0  0  0  0  0  0  0  0  0  0
  -32.0450  -19.4300   18.9770 C   0  0  0  0  0  2  0  0  0  0  0  0
  -32.0030  -17.8940   19.1400 C   0  0  0  0  0  2  0  0  0  0  0  0
  -30.9840  -17.5200   20.2670 C   0  0  1  0  0  0  0  0  0  0  0  0
  -31.7380  -17.3250   21.6000 C   0  0  0  0  0  1  0  0  0  0  0  0
  -28.6140  -22.9920   20.6280 C   0  0  0  0  0  0  0  0  0  0  0  0
  -27.5360  -23.1560   21.2120 O   0  0  0  0  0  0  0  0  0  0  0  0
  -29.3320  -24.2850   20.0980 C   0  0  0  0  0  2  0  0  0  0  0  0
  -28.3840  -25.3770   19.4530 C   0  0  0  0  0  2  0  0  0  0  0  0
  -28.4520  -26.7700   19.9310 O   0  0  0  0  0  0  0  0  0  0  0  0
  -24.5970  -31.9030   23.1710 C   0  0  0  0  0  0  0  0  0  0  0  0
  -27.2960  -27.5610   19.9030 C   0  0  0  0  0  0  0  0  0  0  0  0
  -23.4090  -30.5390   21.4890 C   0  0  0  0  0  3  0  0  0  0  0  0
  -24.8810  -29.0900   19.9870 C   0  0  0  0  0  0  0  0  0  0  0  0
  -25.9360  -30.9250   21.3040 C   0  0  0  0  0  2  0  0  0  0  0  0
  -26.0400  -29.5800   20.6020 C   0  0  0  0  0  0  0  0  0  0  0  0
  -27.2440  -28.8220   20.5620 C   0  0  0  0  0  3  0  0  0  0  0  0
  -26.1200  -27.1370   19.2340 C   0  0  0  0  0  3  0  0  0  0  0  0
  -24.9240  -27.8720   19.2940 C   0  0  0  0  0  3  0  0  0  0  0  0
  -23.6240  -29.9260   20.0790 C   0  0  0  0  0  2  0  0  0  0  0  0
  -24.6650  -31.1380   22.0440 N   0  0  0  0  0  0  0  0  0  0  0  0
  -23.5140  -32.1380   23.7250 O   0  0  0  0  0  0  0  0  0  0  0  0
  -22.7810  -29.4690   22.4130 C   0  0  0  0  0  0  0  0  0  0  0  0
  -21.4570  -29.2660   22.2890 N   0  0  0  0  0  0  0  0  0  0  0  0
  -23.4810  -28.8280   23.2020 O   0  0  0  0  0  0  0  0  0  0  0  0
  -20.9520  -29.8420   21.6300 H   0  0  0  0  0  0  0  0  0  0  0  0
  -18.1010  -28.0290   22.8160 C   0  0  0  0  0  0  0  0  0  0  0  0
  -20.6650  -28.2850   23.0290 C   0  0  0  0  0  3  0  0  0  0  0  0
  -20.7570  -26.8880   22.3730 C   0  0  0  0  0  2  0  0  0  0  0  0
  -19.6270  -26.6130   21.3730 C   0  0  0  0  0  2  0  0  0  0  0  0
  -18.2640  -26.7190   22.0620 C   0  0  0  0  0  2  0  0  0  0  0  0
  -19.2290  -28.7710   23.2550 C   0  0  0  0  0  0  0  0  0  0  0  0
  -19.0230  -30.0000   23.9180 C   0  0  0  0  0  3  0  0  0  0  0  0
  -17.7220  -30.4850   24.1480 C   0  0  0  0  0  3  0  0  0  0  0  0
  -16.6080  -29.7360   23.7280 C   0  0  0  0  0  3  0  0  0  0  0  0
  -16.7990  -28.5110   23.0660 C   0  0  0  0  0  3  0  0  0  0  0  0
  -25.8750  -32.5370   23.8040 C   0  0  0  0  0  3  0  0  0  0  0  0
  -26.3870  -31.7620   25.0800 C   0  0  1  0  0  0  0  0  0  0  0  0
  -25.2830  -31.4970   26.1320 C   0  0  0  0  0  1  0  0  0  0  0  0
  -26.9980  -30.3970   24.6850 C   0  0  0  0  0  1  0  0  0  0  0  0
  -27.5150  -32.5690   25.7630 C   0  0  0  0  0  1  0  0  0  0  0  0
  -25.5560  -33.9310   24.1390 N   0  0  0  0  0  0  0  0  0  0  0  0
  -25.8960  -34.9910   23.3930 C   0  0  0  0  0  0  0  0  0  0  0  0
  -26.5840  -34.8980   22.3740 O   0  0  0  0  0  0  0  0  0  0  0  0
  -24.9490  -34.0760   24.9320 H   0  0  0  0  0  0  0  0  0  0  0  0
  -24.1910  -36.7960   22.9940 C   0  0  0  0  0  1  0  0  0  0  0  0
  -25.3950  -36.3740   23.8500 C   0  0  0  0  0  3  0  0  0  0  0  0
  -27.4880  -37.2440   24.7960 C   0  0  0  0  0  1  0  0  0  0  0  0
  -26.4350  -37.4260   23.8000 N   0  0  0  0  0  0  0  0  0  0  0  0
  -26.0220  -38.3450   23.9390 H   0  0  0  0  0  0  0  0  0  0  0  0
  -30.1550  -16.1890   19.9580 C   0  0  0  0  0  2  0  0  0  0  0  0
  -30.9330  -14.8290   19.7230 C   0  0  0  0  0  0  0  0  0  0  0  0
  -30.6730  -12.5110   18.8890 C   0  0  0  0  0  2  0  0  0  0  0  0
  -29.6770  -12.5280   17.7090 C   0  0  0  0  0  2  0  0  0  0  0  0
  -28.2290  -12.3890   18.2200 C   0  0  0  0  0  2  0  0  0  0  0  0
  -27.9120  -13.3560   19.3940 C   0  0  0  0  0  3  0  0  0  0  0  0
  -29.0260  -13.3350   20.4600 C   0  0  0  0  0  2  0  0  0  0  0  0
  -30.3040  -13.6150   19.7960 N   0  0  0  0  0  0  0  0  0  0  0  0
  -32.0830  -14.8920   19.2840 O   0  0  0  0  0  0  0  0  0  0  0  0
  -25.5980  -13.9790   20.3220 C   0  0  0  0  0  0  0  0  0  0  0  0
  -24.5450  -13.2160   20.7500 C   0  0  0  0  0  0  0  0  0  0  0  0
  -24.9700  -11.8570   20.6370 C   0  0  0  0  0  0  0  0  0  0  0  0
  -26.5990  -13.0850   19.9740 N   0  0  0  0  0  0  0  0  0  0  0  0
  -26.2310  -11.8020   20.2240 N   0  0  0  0  0  0  0  0  0  0  0  0
  -24.2280  -10.6050   20.8410 C   0  0  0  0  0  0  0  0  0  0  0  0
  -24.6170   -9.6680   21.8240 C   0  0  0  0  0  3  0  0  0  0  0  0
  -23.8770   -8.4800   22.0130 C   0  0  0  0  0  3  0  0  0  0  0  0
  -22.7350   -8.2220   21.2210 C   0  0  0  0  0  0  0  0  0  0  0  0
  -22.3660   -9.1460   20.2280 C   0  0  0  0  0  3  0  0  0  0  0  0
  -23.1060  -10.3250   20.0360 C   0  0  0  0  0  3  0  0  0  0  0  0
  -21.9710   -7.0840   21.3190 O   0  0  0  0  0  0  0  0  0  0  0  0
  -21.7890   -6.4390   22.5140 C   0  0  0  0  0  0  0  0  0  0  0  0
  -21.1500   -7.0630   23.6100 C   0  0  0  0  0  3  0  0  0  0  0  0
  -20.9210   -6.3400   24.7970 C   0  0  0  0  0  3  0  0  0  0  0  0
  -21.3220   -4.9940   24.8920 C   0  0  0  0  0  0  0  0  0  0  0  0
  -21.9550   -4.3710   23.8010 C   0  0  0  0  0  3  0  0  0  0  0  0
  -22.1850   -5.0900   22.6170 C   0  0  0  0  0  0  0  0  0  0  0  0
  -22.7750   -4.4770   21.5620 F   0  0  0  0  0  0  0  0  0  0  0  0
  -21.0960   -4.2960   26.0280 F   0  0  0  0  0  0  0  0  0  0  0  0
  -23.1850  -13.7160   21.1460 C   0  0  0  0  0  0  0  0  0  0  0  0
  -22.5000  -12.9940   22.0260 N   0  0  0  0  0  0  0  0  0  0  0  0
  -22.7410  -14.7760   20.7120 O   0  0  0  0  0  0  0  0  0  0  0  0
  -22.8710  -12.1340   22.4040 H   0  0  0  0  0  0  0  0  0  0  0  0
  -21.5880  -13.3090   22.3290 H   0  0  0  0  0  0  0  0  0  0  0  0
  -25.7790  -15.3510   20.1800 N   0  0  0  0  0  0  0  0  0  0  0  0
  -25.0360  -16.0140   20.3790 H   0  0  0  0  0  0  0  0  0  0  0  0
  -26.6140  -15.7900   19.8150 H   0  0  0  0  0  0  0  0  0  0  0  0
  2  1  1  0
  3  4  1  0
  4 11  1  0
  4  1  2  0
  5  2  2  0
  6  3  2  0
  6  5  1  0
  7  8  1  0
  7  6  1  0
  8  9  1  0
  9  5  1  0
  9 10  1  1
 11 12  2  0
 13 11  1  0
 14 15  1  0
 14 13  1  0
 16 27  2  0
 17 15  1  0
 17 22  1  0
 18 26  1  0
 18 28  1  0
 19 25  1  0
 19 21  1  0
 20 26  1  0
 21 20  1  0
 22 21  2  0
 23 24  1  0
 23 17  2  0
 24 19  2  0
 25 18  1  0
 26 16  1  0
 28 30  2  0
 29 28  1  0
 31 29  1  0
 32 41  2  0
 32 37  1  0
 33 29  1  0
 33 37  1  0
 34 33  1  0
 35 36  1  0
 35 34  1  0
 36 32  1  0
 37 38  2  0
 38 39  1  0
 40 39  2  0
 41 40  1  0
 42 16  1  0
 42 47  1  0
 42 43  1  0
 43 46  1  1
 43 44  1  0
 45 43  1  0
 47 50  1  0
 48 52  1  0
 48 47  1  0
 49 48  2  0
 52 51  1  0
 54 52  1  0
 54 55  1  0
 54 53  1  0
 56  9  1  0
 57 63  1  0
 57 56  1  0
 58 63  1  0
 59 60  1  0
 59 58  1  0
 61 60  1  0
 61 68  1  0
 61 62  1  0
 63 62  1  0
 64 57  2  0
 65 66  2  0
 66 85  1  0
 67 66  1  0
 67 70  1  0
 68 69  1  0
 68 65  1  0
 69 67  2  0
 70 71  1  0
 71 72  2  0
 73 76  1  0
 73 72  1  0
 74 73  2  0
 75 74  1  0
 75 70  2  0
 76 77  1  0
 77 82  2  0
 77 78  1  0
 78 79  2  0
 79 80  1  0
 80 84  1  0
 81 80  2  0
 82 81  1  0
 83 82  1  0
 85 86  1  0
 86 89  1  0
 86 88  1  0
 87 85  2  0
 90 65  1  0
 90 91  1  0
 92 90  1  0
M  ISO  4  14 101  15 101  56 100  57 100
M  END
>  <TORSDO>  (33) 
F 20

>  <SCORE>  (33) 
-12.837

>  <name>  (33) 
32

>  <ligand_id>  (33) 
32

>  <original_smiles>  (33) 
[H]c1c([H])c([H])c2c(c1[H])C([H])([H])C([H])([H])C([H])([H])C2([H])N([H])C(=O)C1([H])N(C(=O)C([H])(N([H])C(=O)C([H])(N([H])C([H])([H])[H])C([H])([H])[H])C(C([H])([H])[H])(C([H])([H])[H])C([H])([H])[H])C([H])([H])c2c([H])c(OC([H])([H])C([H])([H])C(=O)c3c([H])c([H])c4c(c3[H])C([H])([H])C([H])([H])C4(C([H])([H])[H])C([H])([H])C(=O)N3C([H])([H])C([H])([H])C([H])([H])C([H])(n4nc(-c5c([H])c([H])c(Oc6c([H])c([H])c(F)c([H])c6F)c([H])c5[H])c(C(=O)N([H])[H])c4N([H])[H])C3([H])[H])c([H])c([H])c2C1([H])[H]

>  <smiles>  (33) 
[H]c1c([H])c([H])c2c(c1[H])C([H])([H])C([H])([H])C([H])([H])C2([H])N([H])C(=O)C1([H])N(C(=O)C([H])(N([H])C(=O)C([H])(N([H])C([H])([H])[H])C([H])([H])[H])C(C([H])([H])[H])(C([H])([H])[H])C([H])([H])[H])C([H])([H])c2c([H])c(OC([H])([H])C([H])([H])C(=O)c3c([H])c([H])c4c(c3[H])C([H])([H])C([H])([H])C4(C([H])([H])[H])C([H])([H])C(=O)N3C([H])([H])C([H])([H])C([H])([H])C([H])(n4nc(-c5c([H])c([H])c(Oc6c([H])c([H])c(F)c([H])c6F)c([H])c5[H])c(C(=O)N([H])[H])c4N([H])[H])C3([H])[H])c([H])c([H])c2C1([H])[H]

$$$$
33:0:0
     RDKit          3D

 91 98  0  0  1  0  0  0  0  0999 V2000
  -26.4290  -20.7860   20.5840 C   0  0  0  0  0  2  0  0  0  0  0  0
  -26.8800  -22.0480   19.8270 C   0  0  0  0  0  2  0  0  0  0  0  0
  -27.7420  -22.9970   20.6840 C   0  0  0  0  0  2  0  0  0  0  0  0
  -27.7750  -24.3950   20.0590 C   0  0  0  0  0  2  0  0  0  0  0  0
  -28.5730  -25.4650   20.8380 C   0  0  0  0  0  2  0  0  0  0  0  0
  -28.6780  -26.7270   20.1600 O   0  0  0  0  0  0  0  0  0  0  0  0
  -24.7250  -31.7030   23.3760 C   0  0  0  0  0  0  0  0  0  0  0  0
  -27.5230  -27.4750   20.1490 C   0  0  0  0  0  0  0  0  0  0  0  0
  -23.5970  -30.3870   21.6130 C   0  0  0  0  0  3  0  0  0  0  0  0
  -25.1200  -28.9570   20.1580 C   0  0  0  0  0  0  0  0  0  0  0  0
  -26.1250  -30.7750   21.5430 C   0  0  0  0  0  2  0  0  0  0  0  0
  -26.2480  -29.4420   20.8350 C   0  0  0  0  0  0  0  0  0  0  0  0
  -27.4510  -28.7010   20.8420 C   0  0  0  0  0  3  0  0  0  0  0  0
  -26.3990  -27.0430   19.4100 C   0  0  0  0  0  3  0  0  0  0  0  0
  -25.1900  -27.7520   19.4430 C   0  0  0  0  0  3  0  0  0  0  0  0
  -23.8690  -29.7990   20.2040 C   0  0  0  0  0  2  0  0  0  0  0  0
  -24.8310  -30.9660   22.2370 N   0  0  0  0  0  0  0  0  0  0  0  0
  -23.6220  -31.9400   23.8870 O   0  0  0  0  0  0  0  0  0  0  0  0
  -22.9240  -29.3030   22.4850 C   0  0  0  0  0  0  0  0  0  0  0  0
  -21.6100  -29.1130   22.2900 N   0  0  0  0  0  0  0  0  0  0  0  0
  -23.5810  -28.6420   23.2930 O   0  0  0  0  0  0  0  0  0  0  0  0
  -21.1430  -29.7040   21.6170 H   0  0  0  0  0  0  0  0  0  0  0  0
  -18.2310  -27.8640   22.5690 C   0  0  0  0  0  0  0  0  0  0  0  0
  -20.7690  -28.1280   22.9720 C   0  0  0  0  0  3  0  0  0  0  0  0
  -20.9140  -26.7310   22.3240 C   0  0  0  0  0  2  0  0  0  0  0  0
  -19.8610  -26.4540   21.2460 C   0  0  0  0  0  2  0  0  0  0  0  0
  -18.4500  -26.5530   21.8340 C   0  0  0  0  0  2  0  0  0  0  0  0
  -19.3200  -28.6120   23.0910 C   0  0  0  0  0  0  0  0  0  0  0  0
  -19.0620  -29.8410   23.7360 C   0  0  0  0  0  3  0  0  0  0  0  0
  -17.7470  -30.3230   23.8650 C   0  0  0  0  0  3  0  0  0  0  0  0
  -16.6710  -29.5720   23.3620 C   0  0  0  0  0  3  0  0  0  0  0  0
  -16.9130  -28.3440   22.7220 C   0  0  0  0  0  3  0  0  0  0  0  0
  -25.9820  -32.3060   24.0800 C   0  0  0  0  0  3  0  0  0  0  0  0
  -26.4440  -31.4800   25.3420 C   0  0  1  0  0  0  0  0  0  0  0  0
  -25.3050  -31.1980   26.3490 C   0  0  0  0  0  1  0  0  0  0  0  0
  -27.0460  -30.1210   24.9140 C   0  0  0  0  0  1  0  0  0  0  0  0
  -27.5620  -32.2470   26.0890 C   0  0  0  0  0  1  0  0  0  0  0  0
  -25.6590  -33.6900   24.4470 N   0  0  0  0  0  0  0  0  0  0  0  0
  -26.0290  -34.7670   23.7440 C   0  0  0  0  0  0  0  0  0  0  0  0
  -26.7480  -34.7020   22.7440 O   0  0  0  0  0  0  0  0  0  0  0  0
  -25.0260  -33.8160   25.2230 H   0  0  0  0  0  0  0  0  0  0  0  0
  -24.3200  -36.5740   23.3670 C   0  0  0  0  0  1  0  0  0  0  0  0
  -25.5170  -36.1370   24.2270 C   0  0  0  0  0  3  0  0  0  0  0  0
  -27.6050  -36.9850   25.2020 C   0  0  0  0  0  1  0  0  0  0  0  0
  -26.5530  -37.1910   24.2100 N   0  0  0  0  0  0  0  0  0  0  0  0
  -26.1380  -38.1040   24.3740 H   0  0  0  0  0  0  0  0  0  0  0  0
  -26.3420  -19.5370   19.6950 C   0  0  0  0  0  2  0  0  0  0  0  0
  -27.6980  -19.0580   19.1540 C   0  0  0  0  0  2  0  0  0  0  0  0
  -28.6130  -18.4700   20.2360 C   0  0  0  0  0  2  0  0  0  0  0  0
  -29.8360  -17.7910   19.6150 C   0  0  0  0  0  2  0  0  0  0  0  0
  -30.6880  -17.0290   20.6360 C   0  0  0  0  0  2  0  0  0  0  0  0
  -29.9270  -15.8600   21.2910 C   0  0  0  0  0  2  0  0  0  0  0  0
  -30.8400  -14.7050   21.7510 C   0  0  0  0  0  2  0  0  0  0  0  0
  -31.0650  -13.7770   19.4230 C   0  0  0  0  0  0  0  0  0  0  0  0
  -30.4140  -11.6380   18.4220 C   0  0  0  0  0  2  0  0  0  0  0  0
  -29.3300  -11.7300   17.3380 C   0  0  0  0  0  2  0  0  0  0  0  0
  -27.9310  -11.6630   17.9720 C   0  0  0  0  0  2  0  0  0  0  0  0
  -27.7610  -12.6930   19.1150 C   0  0  0  0  0  3  0  0  0  0  0  0
  -28.9360  -12.5860   20.1140 C   0  0  0  0  0  2  0  0  0  0  0  0
  -30.2220  -12.7150   19.4010 N   0  0  0  0  0  0  0  0  0  0  0  0
  -31.7380  -14.1050   18.4360 O   0  0  0  0  0  0  0  0  0  0  0  0
  -33.0200  -14.0160   20.8630 C   0  0  0  0  0  1  0  0  0  0  0  0
  -31.5650  -14.0290   20.6590 N   0  0  0  0  0  0  0  0  0  0  0  0
  -25.5510  -13.5040   20.1770 C   0  0  0  0  0  0  0  0  0  0  0  0
  -24.4830  -12.8240   20.7000 C   0  0  0  0  0  0  0  0  0  0  0  0
  -24.8100  -11.4360   20.5950 C   0  0  0  0  0  0  0  0  0  0  0  0
  -26.4680  -12.5370   19.7880 N   0  0  0  0  0  0  0  0  0  0  0  0
  -26.0310  -11.2880   20.0930 N   0  0  0  0  0  0  0  0  0  0  0  0
  -24.0110  -10.2390   20.8870 C   0  0  0  0  0  0  0  0  0  0  0  0
  -24.4500   -9.2650   21.8150 C   0  0  0  0  0  3  0  0  0  0  0  0
  -23.6550   -8.1310   22.0940 C   0  0  0  0  0  3  0  0  0  0  0  0
  -22.4080   -7.9620   21.4460 C   0  0  0  0  0  0  0  0  0  0  0  0
  -21.9880   -8.9220   20.5070 C   0  0  0  0  0  3  0  0  0  0  0  0
  -22.7820  -10.0470   20.2270 C   0  0  0  0  0  3  0  0  0  0  0  0
  -21.5780   -6.8830   21.6360 O   0  0  0  0  0  0  0  0  0  0  0  0
  -21.5350   -6.2100   22.8300 C   0  0  0  0  0  0  0  0  0  0  0  0
  -21.2170   -6.8600   24.0440 C   0  0  0  0  0  3  0  0  0  0  0  0
  -21.1220   -6.1160   25.2370 C   0  0  0  0  0  3  0  0  0  0  0  0
  -21.3270   -4.7240   25.2180 C   0  0  0  0  0  0  0  0  0  0  0  0
  -21.6380   -4.0730   24.0100 C   0  0  0  0  0  3  0  0  0  0  0  0
  -21.7390   -4.8150   22.8200 C   0  0  0  0  0  0  0  0  0  0  0  0
  -22.0200   -4.1800   21.6570 F   0  0  0  0  0  0  0  0  0  0  0  0
  -21.2280   -4.0110   26.3630 F   0  0  0  0  0  0  0  0  0  0  0  0
  -23.1900  -13.4180   21.1800 C   0  0  0  0  0  0  0  0  0  0  0  0
  -22.5540  -12.7950   22.1660 N   0  0  0  0  0  0  0  0  0  0  0  0
  -22.7600  -14.4720   20.7130 O   0  0  0  0  0  0  0  0  0  0  0  0
  -22.9170  -11.9470   22.5760 H   0  0  0  0  0  0  0  0  0  0  0  0
  -21.6920  -13.1750   22.5300 H   0  0  0  0  0  0  0  0  0  0  0  0
  -25.8120  -14.8570   19.9810 N   0  0  0  0  0  0  0  0  0  0  0  0
  -25.1210  -15.5740   20.1770 H   0  0  0  0  0  0  0  0  0  0  0  0
  -26.6390  -15.2170   19.5230 H   0  0  0  0  0  0  0  0  0  0  0  0
  2  1  1  0
  2  3  1  0
  4  3  1  0
  4  5  1  0
  6  5  1  0
  7 18  2  0
  8  6  1  0
  8 13  1  0
  9 17  1  0
  9 19  1  0
 10 16  1  0
 10 12  1  0
 11 17  1  0
 12 13  2  0
 12 11  1  0
 14 15  1  0
 14  8  2  0
 15 10  2  0
 16  9  1  0
 17  7  1  0
 19 21  2  0
 20 19  1  0
 22 20  1  0
 23 32  2  0
 23 28  1  0
 24 20  1  0
 24 28  1  0
 25 24  1  0
 26 27  1  0
 26 25  1  0
 27 23  1  0
 28 29  2  0
 29 30  1  0
 31 30  2  0
 32 31  1  0
 33  7  1  0
 33 38  1  0
 33 34  1  0
 34 37  1  1
 34 35  1  0
 36 34  1  0
 38 41  1  0
 39 43  1  0
 39 38  1  0
 40 39  2  0
 43 42  1  0
 45 43  1  0
 45 46  1  0
 45 44  1  0
 47  1  1  0
 48 47  1  0
 48 49  1  0
 50 49  1  0
 50 51  1  0
 51 52  1  0
 52 53  1  0
 54 63  1  0
 55 60  1  0
 56 57  1  0
 56 55  1  0
 58 57  1  0
 58 67  1  0
 58 59  1  0
 60 54  1  0
 60 59  1  0
 61 54  2  0
 63 62  1  0
 63 53  1  0
 64 65  2  0
 65 84  1  0
 66 65  1  0
 66 69  1  0
 67 68  1  0
 67 64  1  0
 68 66  2  0
 69 70  1  0
 70 71  2  0
 72 75  1  0
 72 71  1  0
 73 72  2  0
 74 73  1  0
 74 69  2  0
 75 76  1  0
 76 77  1  0
 77 78  2  0
 79 78  1  0
 79 83  1  0
 80 79  2  0
 81 76  2  0
 81 80  1  0
 82 81  1  0
 84 85  1  0
 85 88  1  0
 85 87  1  0
 86 84  2  0
 89 90  1  0
 89 64  1  0
 91 89  1  0
M  ISO  4   5 101   6 101  54 100  63 100
M  END
>  <TORSDO>  (34) 
F 27

>  <SCORE>  (34) 
-7.668

>  <name>  (34) 
33

>  <ligand_id>  (34) 
33

>  <original_smiles>  (34) 
[H]c1c([H])c([H])c2c(c1[H])C([H])([H])C([H])([H])C([H])([H])C2([H])N([H])C(=O)C1([H])N(C(=O)C([H])(N([H])C(=O)C([H])(N([H])C([H])([H])[H])C([H])([H])[H])C(C([H])([H])[H])(C([H])([H])[H])C([H])([H])[H])C([H])([H])c2c([H])c(OC([H])([H])C([H])([H])C([H])([H])C([H])([H])C([H])([H])C([H])([H])C([H])([H])C([H])([H])C([H])([H])C([H])([H])C([H])([H])C([H])([H])N(C(=O)N3C([H])([H])C([H])([H])C([H])([H])C([H])(n4nc(-c5c([H])c([H])c(Oc6c([H])c([H])c(F)c([H])c6F)c([H])c5[H])c(C(=O)N([H])[H])c4N([H])[H])C3([H])[H])C([H])([H])[H])c([H])c([H])c2C1([H])[H]

>  <smiles>  (34) 
[H]c1c([H])c([H])c2c(c1[H])C([H])([H])C([H])([H])C([H])([H])C2([H])N([H])C(=O)C1([H])N(C(=O)C([H])(N([H])C(=O)C([H])(N([H])C([H])([H])[H])C([H])([H])[H])C(C([H])([H])[H])(C([H])([H])[H])C([H])([H])[H])C([H])([H])c2c([H])c(OC([H])([H])C([H])([H])C([H])([H])C([H])([H])C([H])([H])C([H])([H])C([H])([H])C([H])([H])C([H])([H])C([H])([H])C([H])([H])C([H])([H])N(C(=O)N3C([H])([H])C([H])([H])C([H])([H])C([H])(n4nc(-c5c([H])c([H])c(Oc6c([H])c([H])c(F)c([H])c6F)c([H])c5[H])c(C(=O)N([H])[H])c4N([H])[H])C3([H])[H])C([H])([H])[H])c([H])c([H])c2C1([H])[H]

$$$$
34:0:0
     RDKit          3D

 94102  0  0  1  0  0  0  0  0999 V2000
  -27.2760  -18.2010   20.1460 C   0  0  0  0  0  3  0  0  0  0  0  0
  -26.1850  -18.7910   19.4860 C   0  0  0  0  0  3  0  0  0  0  0  0
  -28.7470  -19.9400   19.2730 C   0  0  0  0  0  3  0  0  0  0  0  0
  -28.5700  -18.7480   20.0090 C   0  0  0  0  0  0  0  0  0  0  0  0
  -27.6570  -20.5340   18.6000 C   0  0  0  0  0  0  0  0  0  0  0  0
  -26.3750  -19.9400   18.6970 C   0  0  0  0  0  0  0  0  0  0  0  0
  -29.7340  -18.0610   20.6170 C   0  0  0  0  0  0  0  0  0  0  0  0
  -30.5870  -18.6240   21.3090 O   0  0  0  0  0  0  0  0  0  0  0  0
  -29.8920  -16.5980   20.2070 C   0  0  0  0  0  2  0  0  0  0  0  0
  -30.5110  -15.6660   21.2670 C   0  0  0  0  0  2  0  0  0  0  0  0
  -31.1120  -14.4500   20.5530 C   0  0  0  0  0  0  0  0  0  0  0  0
  -30.7560  -12.3260   19.3550 C   0  0  0  0  0  2  0  0  0  0  0  0
  -29.8270  -12.5690   18.1470 C   0  0  0  0  0  2  0  0  0  0  0  0
  -28.3480  -12.4540   18.5640 C   0  0  0  0  0  2  0  0  0  0  0  0
  -28.0190  -13.2900   19.8290 C   0  0  0  0  0  3  0  0  0  0  0  0
  -29.0610  -13.0280   20.9410 C   0  0  0  0  0  2  0  0  0  0  0  0
  -30.4010  -13.3000   20.3980 N   0  0  0  0  0  0  0  0  0  0  0  0
  -32.2140  -14.6200   20.0240 O   0  0  0  0  0  0  0  0  0  0  0  0
  -25.6310  -13.9520   20.5370 C   0  0  0  0  0  0  0  0  0  0  0  0
  -24.5420  -13.2030   20.8880 C   0  0  0  0  0  0  0  0  0  0  0  0
  -24.9650  -11.8400   20.8290 C   0  0  0  0  0  0  0  0  0  0  0  0
  -26.6540  -13.0470   20.2930 N   0  0  0  0  0  0  0  0  0  0  0  0
  -26.2540  -11.7700   20.5240 N   0  0  0  0  0  0  0  0  0  0  0  0
  -24.2030  -10.5960   20.9880 C   0  0  0  0  0  0  0  0  0  0  0  0
  -24.5880   -9.6110   21.9240 C   0  0  0  0  0  3  0  0  0  0  0  0
  -23.8300   -8.4280   22.0720 C   0  0  0  0  0  3  0  0  0  0  0  0
  -22.6730   -8.2240   21.2820 C   0  0  0  0  0  0  0  0  0  0  0  0
  -22.3080   -9.1980   20.3360 C   0  0  0  0  0  3  0  0  0  0  0  0
  -23.0650  -10.3720   20.1870 C   0  0  0  0  0  3  0  0  0  0  0  0
  -21.8900   -7.0970   21.3380 O   0  0  0  0  0  0  0  0  0  0  0  0
  -21.7620   -6.3680   22.4930 C   0  0  0  0  0  0  0  0  0  0  0  0
  -21.2360   -6.9310   23.6750 C   0  0  0  0  0  3  0  0  0  0  0  0
  -21.0570   -6.1280   24.8190 C   0  0  0  0  0  3  0  0  0  0  0  0
  -21.3930   -4.7610   24.7800 C   0  0  0  0  0  0  0  0  0  0  0  0
  -21.9120   -4.1970   23.6010 C   0  0  0  0  0  3  0  0  0  0  0  0
  -22.0930   -4.9990   22.4600 C   0  0  0  0  0  0  0  0  0  0  0  0
  -22.5730   -4.4450   21.3200 F   0  0  0  0  0  0  0  0  0  0  0  0
  -21.2140   -3.9860   25.8750 F   0  0  0  0  0  0  0  0  0  0  0  0
  -23.1560  -13.7120   21.1680 C   0  0  0  0  0  0  0  0  0  0  0  0
  -22.4100  -13.0200   22.0220 N   0  0  0  0  0  0  0  0  0  0  0  0
  -22.7450  -14.7570   20.6660 O   0  0  0  0  0  0  0  0  0  0  0  0
  -22.7530  -12.1740   22.4490 H   0  0  0  0  0  0  0  0  0  0  0  0
  -21.4810  -13.3440   22.2520 H   0  0  0  0  0  0  0  0  0  0  0  0
  -25.8310  -15.3190   20.3840 N   0  0  0  0  0  0  0  0  0  0  0  0
  -25.0680  -15.9810   20.4700 H   0  0  0  0  0  0  0  0  0  0  0  0
  -26.6700  -15.7260   19.9950 H   0  0  0  0  0  0  0  0  0  0  0  0
  -25.3020  -20.4580   18.0310 O   0  0  0  0  0  0  0  0  0  0  0  0
  -25.5280  -21.2390   17.5380 H   0  0  0  0  0  0  0  0  0  0  0  0
  -27.8870  -21.7770   17.7490 C   0  0  0  0  0  2  0  0  0  0  0  0
  -27.2400  -23.0420   18.3420 C   0  0  0  0  0  2  0  0  0  0  0  0
  -28.2050  -23.9630   19.1120 C   0  0  0  0  0  2  0  0  0  0  0  0
  -28.7080  -25.1550   18.2680 C   0  0  0  0  0  2  0  0  0  0  0  0
  -29.2610  -26.3360   19.0930 C   0  0  0  0  0  2  0  0  0  0  0  0
  -28.5540  -26.6490   20.2970 O   0  0  0  0  0  0  0  0  0  0  0  0
  -24.6140  -31.7310   23.3080 C   0  0  0  0  0  0  0  0  0  0  0  0
  -27.3840  -27.3700   20.2230 C   0  0  0  0  0  0  0  0  0  0  0  0
  -23.4740  -30.3670   21.5880 C   0  0  0  0  0  3  0  0  0  0  0  0
  -24.9820  -28.8600   20.1920 C   0  0  0  0  0  0  0  0  0  0  0  0
  -26.0070  -30.7240   21.5050 C   0  0  0  0  0  2  0  0  0  0  0  0
  -26.1140  -29.3690   20.8400 C   0  0  0  0  0  0  0  0  0  0  0  0
  -27.3130  -28.6250   20.8640 C   0  0  0  0  0  3  0  0  0  0  0  0
  -26.2240  -26.8580   19.6000 C   0  0  0  0  0  3  0  0  0  0  0  0
  -25.0300  -27.5980   19.5750 C   0  0  0  0  0  3  0  0  0  0  0  0
  -23.7390  -29.7160   20.2040 C   0  0  0  0  0  2  0  0  0  0  0  0
  -24.7140  -30.9530   22.1930 N   0  0  0  0  0  0  0  0  0  0  0  0
  -23.5130  -31.9960   23.8060 O   0  0  0  0  0  0  0  0  0  0  0  0
  -22.7800  -29.3280   22.4980 C   0  0  0  0  0  0  0  0  0  0  0  0
  -21.4550  -29.1860   22.3400 N   0  0  0  0  0  0  0  0  0  0  0  0
  -23.4320  -28.6570   23.3010 O   0  0  0  0  0  0  0  0  0  0  0  0
  -20.9920  -29.7860   21.6720 H   0  0  0  0  0  0  0  0  0  0  0  0
  -18.0350  -28.1110   22.7770 C   0  0  0  0  0  0  0  0  0  0  0  0
  -20.6000  -28.2400   23.0570 C   0  0  0  0  0  3  0  0  0  0  0  0
  -20.6430  -26.8410   22.4010 C   0  0  0  0  0  2  0  0  0  0  0  0
  -19.5260  -26.6230   21.3750 C   0  0  0  0  0  2  0  0  0  0  0  0
  -18.1520  -26.7920   22.0310 C   0  0  0  0  0  2  0  0  0  0  0  0
  -19.1850  -28.7960   23.2450 C   0  0  0  0  0  0  0  0  0  0  0  0
  -19.0250  -30.0350   23.9040 C   0  0  0  0  0  3  0  0  0  0  0  0
  -17.7440  -30.5860   24.1000 C   0  0  0  0  0  3  0  0  0  0  0  0
  -16.6060  -29.8950   23.6490 C   0  0  0  0  0  3  0  0  0  0  0  0
  -16.7530  -28.6580   22.9930 C   0  0  0  0  0  3  0  0  0  0  0  0
  -25.8760  -32.3420   23.9930 C   0  0  0  0  0  3  0  0  0  0  0  0
  -26.2950  -31.5840   25.3120 C   0  0  1  0  0  0  0  0  0  0  0  0
  -25.1360  -31.4020   26.3190 C   0  0  0  0  0  1  0  0  0  0  0  0
  -26.8580  -30.1820   24.9810 C   0  0  0  0  0  1  0  0  0  0  0  0
  -27.4300  -32.3580   26.0210 C   0  0  0  0  0  1  0  0  0  0  0  0
  -25.5840  -33.7540   24.2730 N   0  0  0  0  0  0  0  0  0  0  0  0
  -25.9960  -34.7790   23.5160 C   0  0  0  0  0  0  0  0  0  0  0  0
  -26.7310  -34.6350   22.5350 O   0  0  0  0  0  0  0  0  0  0  0  0
  -24.9410  -33.9410   25.0280 H   0  0  0  0  0  0  0  0  0  0  0  0
  -24.3440  -36.6050   23.0060 C   0  0  0  0  0  1  0  0  0  0  0  0
  -25.5160  -36.1890   23.9100 C   0  0  0  0  0  3  0  0  0  0  0  0
  -27.6060  -37.0450   24.8740 C   0  0  0  0  0  1  0  0  0  0  0  0
  -26.5820  -37.2120   23.8450 N   0  0  0  0  0  0  0  0  0  0  0  0
  -26.1920  -38.1460   23.9330 H   0  0  0  0  0  0  0  0  0  0  0  0
  2  1  2  0
  3  4  2  0
  4  1  1  0
  4  7  1  0
  5  6  2  0
  5  3  1  0
  6  2  1  0
  7  8  2  0
  9  7  1  0
  9 10  1  0
 11 10  1  0
 12 17  1  0
 13 14  1  0
 13 12  1  0
 15 14  1  0
 15 22  1  0
 15 16  1  0
 17 11  1  0
 17 16  1  0
 18 11  2  0
 19 20  2  0
 20 39  1  0
 21 20  1  0
 21 24  1  0
 22 23  1  0
 22 19  1  0
 23 21  2  0
 24 25  1  0
 25 26  2  0
 27 30  1  0
 27 26  1  0
 28 27  2  0
 29 28  1  0
 29 24  2  0
 30 31  1  0
 31 32  1  0
 32 33  2  0
 34 33  1  0
 34 38  1  0
 35 34  2  0
 36 31  2  0
 36 35  1  0
 37 36  1  0
 39 40  1  0
 40 43  1  0
 40 42  1  0
 41 39  2  0
 44 45  1  0
 44 19  1  0
 46 44  1  0
 47  6  1  0
 48 47  1  0
 49 50  1  0
 49  5  1  0
 50 51  1  0
 52 53  1  0
 52 51  1  0
 53 54  1  0
 55 66  2  0
 56 54  1  0
 56 61  1  0
 57 65  1  0
 57 67  1  0
 58 64  1  0
 58 60  1  0
 59 65  1  0
 60 61  2  0
 60 59  1  0
 62 56  2  0
 63 62  1  0
 63 58  2  0
 64 57  1  0
 65 55  1  0
 67 69  2  0
 68 67  1  0
 70 68  1  0
 71 80  2  0
 71 76  1  0
 72 68  1  0
 72 76  1  0
 73 72  1  0
 74 75  1  0
 74 73  1  0
 75 71  1  0
 76 77  2  0
 77 78  1  0
 79 78  2  0
 80 79  1  0
 81 55  1  0
 81 86  1  0
 81 82  1  0
 82 85  1  1
 82 83  1  0
 84 82  1  0
 86 89  1  0
 87 91  1  0
 87 86  1  0
 88 87  2  0
 91 90  1  0
 93 91  1  0
 93 94  1  0
 93 92  1  0
M  ISO  4  10 100  11 100  53 101  54 101
M  END
>  <TORSDO>  (35) 
F 25

>  <SCORE>  (35) 
-11.952

>  <name>  (35) 
34

>  <ligand_id>  (35) 
34

>  <original_smiles>  (35) 
[H]Oc1c([H])c([H])c(C(=O)C([H])([H])C([H])([H])C(=O)N2C([H])([H])C([H])([H])C([H])([H])C([H])(n3nc(-c4c([H])c([H])c(Oc5c([H])c([H])c(F)c([H])c5F)c([H])c4[H])c(C(=O)N([H])[H])c3N([H])[H])C2([H])[H])c([H])c1C([H])([H])C([H])([H])C([H])([H])C([H])([H])C([H])([H])Oc1c([H])c([H])c2c(c1[H])C([H])([H])N(C(=O)C([H])(N([H])C(=O)C([H])(N([H])C([H])([H])[H])C([H])([H])[H])C(C([H])([H])[H])(C([H])([H])[H])C([H])([H])[H])C([H])(C(=O)N([H])C1([H])c3c([H])c([H])c([H])c([H])c3C([H])([H])C([H])([H])C1([H])[H])C2([H])[H]

>  <smiles>  (35) 
[H]Oc1c([H])c([H])c(C(=O)C([H])([H])C([H])([H])C(=O)N2C([H])([H])C([H])([H])C([H])([H])C([H])(n3nc(-c4c([H])c([H])c(Oc5c([H])c([H])c(F)c([H])c5F)c([H])c4[H])c(C(=O)N([H])[H])c3N([H])[H])C2([H])[H])c([H])c1C([H])([H])C([H])([H])C([H])([H])C([H])([H])C([H])([H])Oc1c([H])c([H])c2c(c1[H])C([H])([H])N(C(=O)C([H])(N([H])C(=O)C([H])(N([H])C([H])([H])[H])C([H])([H])[H])C(C([H])([H])[H])(C([H])([H])[H])C([H])([H])[H])C([H])(C(=O)N([H])C1([H])c3c([H])c([H])c([H])c([H])c3C([H])([H])C([H])([H])C1([H])[H])C2([H])[H]

$$$$
35:0:0
     RDKit          3D

 95104  0  0  1  0  0  0  0  0999 V2000
  -30.4740  -23.7420   19.4810 C   0  0  0  0  0  2  0  0  0  0  0  0
  -30.6970  -25.2460   19.5420 C   0  0  0  0  0  2  0  0  0  0  0  0
  -29.3590  -24.4870   21.4700 C   0  0  0  0  0  2  0  0  0  0  0  0
  -29.1750  -23.5520   20.2640 C   0  0  0  0  0  3  0  0  0  0  0  0
  -30.2200  -25.6790   20.9510 C   0  0  1  0  0  0  0  0  0  0  0  0
  -31.4500  -25.8930   21.8540 C   0  0  0  0  0  1  0  0  0  0  0  0
  -28.8850  -22.1360   20.5990 N   0  0  0  0  0  4  0  0  0  0  0  0
  -27.9870  -22.0910   21.0590 H   0  0  0  0  0  0  0  0  0  0  0  0
  -29.5780  -21.7850   21.2410 H   0  0  0  0  0  0  0  0  0  0  0  0
  -28.8450  -21.2640   19.4030 C   0  0  0  0  0  2  0  0  0  0  0  0
  -27.6390  -17.7630   18.6100 C   0  0  0  0  0  2  0  0  0  0  0  0
  -27.8300  -19.2400   18.2870 C   0  0  0  0  0  2  0  0  0  0  0  0
  -28.9540  -18.8670   20.3790 C   0  0  0  0  0  2  0  0  0  0  0  0
  -28.4300  -17.4980   19.9060 C   0  0  0  0  0  3  0  0  0  0  0  0
  -28.1250  -19.9200   19.6270 C   0  0  0  0  0  3  0  0  0  0  0  0
  -29.5500  -16.4560   19.7200 C   0  0  0  0  0  2  0  0  0  0  0  0
  -30.0010  -15.7780   21.0370 C   0  0  0  0  0  2  0  0  0  0  0  0
  -30.7730  -14.4850   20.7240 C   0  0  0  0  0  0  0  0  0  0  0  0
  -30.5120  -12.3100   19.6270 C   0  0  0  0  0  2  0  0  0  0  0  0
  -29.6410  -12.5510   18.3770 C   0  0  0  0  0  2  0  0  0  0  0  0
  -28.1400  -12.4440   18.7200 C   0  0  0  0  0  2  0  0  0  0  0  0
  -27.7440  -13.2680   19.9780 C   0  0  0  0  0  3  0  0  0  0  0  0
  -28.7500  -13.0340   21.1330 C   0  0  0  0  0  2  0  0  0  0  0  0
  -30.1090  -13.3020   20.6330 N   0  0  0  0  0  0  0  0  0  0  0  0
  -31.9420  -14.6220   20.3600 O   0  0  0  0  0  0  0  0  0  0  0  0
  -25.3080  -13.8910   20.5300 C   0  0  0  0  0  0  0  0  0  0  0  0
  -24.2230  -13.1260   20.8620 C   0  0  0  0  0  0  0  0  0  0  0  0
  -24.6850  -11.7750   20.8950 C   0  0  0  0  0  0  0  0  0  0  0  0
  -26.3670  -13.0060   20.3870 N   0  0  0  0  0  0  0  0  0  0  0  0
  -25.9910  -11.7320   20.6650 N   0  0  0  0  0  0  0  0  0  0  0  0
  -23.9500  -10.5190   21.0770 C   0  0  0  0  0  0  0  0  0  0  0  0
  -24.3500   -9.5600   22.0330 C   0  0  0  0  0  3  0  0  0  0  0  0
  -23.6140   -8.3680   22.2020 C   0  0  0  0  0  3  0  0  0  0  0  0
  -22.4650   -8.1240   21.4160 C   0  0  0  0  0  0  0  0  0  0  0  0
  -22.0840   -9.0720   20.4510 C   0  0  0  0  0  3  0  0  0  0  0  0
  -22.8190  -10.2560   20.2790 C   0  0  0  0  0  3  0  0  0  0  0  0
  -21.7050   -6.9820   21.4920 O   0  0  0  0  0  0  0  0  0  0  0  0
  -21.6410   -6.2360   22.6430 C   0  0  0  0  0  0  0  0  0  0  0  0
  -21.2260   -6.7990   23.8700 C   0  0  0  0  0  3  0  0  0  0  0  0
  -21.1080   -5.9840   25.0130 C   0  0  0  0  0  3  0  0  0  0  0  0
  -21.3950   -4.6070   24.9310 C   0  0  0  0  0  0  0  0  0  0  0  0
  -21.8030   -4.0460   23.7080 C   0  0  0  0  0  3  0  0  0  0  0  0
  -21.9220   -4.8580   22.5670 C   0  0  0  0  0  0  0  0  0  0  0  0
  -22.2970   -4.3090   21.3860 F   0  0  0  0  0  0  0  0  0  0  0  0
  -21.2740   -3.8210   26.0260 F   0  0  0  0  0  0  0  0  0  0  0  0
  -22.8120  -13.6080   21.0490 C   0  0  0  0  0  0  0  0  0  0  0  0
  -22.0410  -12.9340   21.8920 N   0  0  0  0  0  0  0  0  0  0  0  0
  -22.4030  -14.6210   20.4830 O   0  0  0  0  0  0  0  0  0  0  0  0
  -22.3820  -12.1160   22.3760 H   0  0  0  0  0  0  0  0  0  0  0  0
  -21.0970  -13.2460   22.0660 H   0  0  0  0  0  0  0  0  0  0  0  0
  -25.4710  -15.2580   20.3190 N   0  0  0  0  0  0  0  0  0  0  0  0
  -24.6780  -15.8890   20.3510 H   0  0  0  0  0  0  0  0  0  0  0  0
  -26.3230  -15.7010   19.9990 H   0  0  0  0  0  0  0  0  0  0  0  0
  -29.3850  -26.9750   20.8800 C   0  0  0  0  0  2  0  0  0  0  0  0
  -28.3020  -26.7100   19.9980 O   0  0  0  0  0  0  0  0  0  0  0  0
  -24.5300  -31.8800   23.1620 C   0  0  0  0  0  0  0  0  0  0  0  0
  -27.1750  -27.4840   20.0690 C   0  0  0  0  0  0  0  0  0  0  0  0
  -23.3130  -30.4700   21.5310 C   0  0  0  0  0  3  0  0  0  0  0  0
  -24.7620  -28.9400   20.0980 C   0  0  0  0  0  0  0  0  0  0  0  0
  -25.8260  -30.8540   21.3040 C   0  0  0  0  0  2  0  0  0  0  0  0
  -25.9170  -29.4810   20.6770 C   0  0  0  0  0  0  0  0  0  0  0  0
  -27.1270  -28.7600   20.6700 C   0  0  0  0  0  3  0  0  0  0  0  0
  -26.0090  -26.9480   19.4850 C   0  0  0  0  0  3  0  0  0  0  0  0
  -24.8000  -27.6670   19.5020 C   0  0  0  0  0  3  0  0  0  0  0  0
  -23.5140  -29.7850   20.1500 C   0  0  0  0  0  2  0  0  0  0  0  0
  -24.5750  -31.0830   22.0570 N   0  0  0  0  0  0  0  0  0  0  0  0
  -23.4550  -32.1460   23.7150 O   0  0  0  0  0  0  0  0  0  0  0  0
  -22.6830  -29.4440   22.4990 C   0  0  0  0  0  0  0  0  0  0  0  0
  -21.3570  -29.2650   22.3940 N   0  0  0  0  0  0  0  0  0  0  0  0
  -23.3810  -28.8110   23.2970 O   0  0  0  0  0  0  0  0  0  0  0  0
  -20.8590  -29.8320   21.7220 H   0  0  0  0  0  0  0  0  0  0  0  0
  -17.9880  -28.0830   22.9440 C   0  0  0  0  0  0  0  0  0  0  0  0
  -20.5510  -28.3270   23.1730 C   0  0  0  0  0  3  0  0  0  0  0  0
  -20.6370  -26.8990   22.5860 C   0  0  0  0  0  2  0  0  0  0  0  0
  -19.5150  -26.5860   21.5890 C   0  0  0  0  0  2  0  0  0  0  0  0
  -18.1460  -26.7360   22.2580 C   0  0  0  0  0  2  0  0  0  0  0  0
  -19.1200  -28.8370   23.3580 C   0  0  0  0  0  0  0  0  0  0  0  0
  -18.9190  -30.1000   23.9570 C   0  0  0  0  0  3  0  0  0  0  0  0
  -17.6210  -30.6090   24.1470 C   0  0  0  0  0  3  0  0  0  0  0  0
  -16.5060  -29.8510   23.7520 C   0  0  0  0  0  3  0  0  0  0  0  0
  -16.6890  -28.5920   23.1550 C   0  0  0  0  0  3  0  0  0  0  0  0
  -25.8240  -32.5120   23.7690 C   0  0  0  0  0  3  0  0  0  0  0  0
  -25.5050  -33.8970   24.1410 N   0  0  0  0  0  0  0  0  0  0  0  0
  -25.8140  -34.9700   23.4030 C   0  0  0  0  0  0  0  0  0  0  0  0
  -26.4720  -34.9020   22.3600 O   0  0  0  0  0  0  0  0  0  0  0  0
  -24.9210  -34.0230   24.9540 H   0  0  0  0  0  0  0  0  0  0  0  0
  -24.0600  -36.7480   23.1090 C   0  0  0  0  0  1  0  0  0  0  0  0
  -25.3130  -36.3390   23.8990 C   0  0  0  0  0  3  0  0  0  0  0  0
  -27.4470  -37.2240   24.7330 C   0  0  0  0  0  1  0  0  0  0  0  0
  -26.3310  -37.4080   23.8080 N   0  0  0  0  0  0  0  0  0  0  0  0
  -25.9150  -38.3180   23.9910 H   0  0  0  0  0  0  0  0  0  0  0  0
  -26.3890  -31.7140   25.0070 C   0  0  1  0  0  0  0  0  0  0  0  0
  -25.3280  -31.4210   26.0920 C   0  0  0  0  0  1  0  0  0  0  0  0
  -26.9930  -30.3620   24.5560 C   0  0  0  0  0  1  0  0  0  0  0  0
  -27.5390  -32.5120   25.6670 C   0  0  0  0  0  1  0  0  0  0  0  0
  1  2  1  0
  1  4  1  0
  2  5  1  0
  4  7  1  0
  4  3  1  0
  5  3  1  0
  5  6  1  1
  7  8  1  0
  7  9  1  0
 10  7  1  0
 11 14  1  0
 12 11  1  0
 12 15  1  0
 14 16  1  0
 14 13  1  0
 15 10  1  0
 15 13  1  0
 16 17  1  0
 18 17  1  0
 19 24  1  0
 20 21  1  0
 20 19  1  0
 22 21  1  0
 22 29  1  0
 22 23  1  0
 24 18  1  0
 24 23  1  0
 25 18  2  0
 26 27  2  0
 27 28  1  0
 27 46  1  0
 28 31  1  0
 29 26  1  0
 29 30  1  0
 30 28  2  0
 31 32  1  0
 32 33  2  0
 34 37  1  0
 34 33  1  0
 35 34  2  0
 36 35  1  0
 36 31  2  0
 37 38  1  0
 38 39  1  0
 39 40  2  0
 41 40  1  0
 41 45  1  0
 42 41  2  0
 43 38  2  0
 43 42  1  0
 44 43  1  0
 46 47  1  0
 47 50  1  0
 47 49  1  0
 48 46  2  0
 51 52  1  0
 51 26  1  0
 53 51  1  0
 54  5  1  0
 55 57  1  0
 55 54  1  0
 56 67  2  0
 57 62  1  0
 58 66  1  0
 58 68  1  0
 59 65  1  0
 59 61  1  0
 60 66  1  0
 61 60  1  0
 62 61  2  0
 63 64  1  0
 63 57  2  0
 64 59  2  0
 65 58  1  0
 66 56  1  0
 68 70  2  0
 69 68  1  0
 71 69  1  0
 72 81  2  0
 72 77  1  0
 73 69  1  0
 73 77  1  0
 74 73  1  0
 75 76  1  0
 75 74  1  0
 76 72  1  0
 77 78  2  0
 78 79  1  0
 80 79  2  0
 81 80  1  0
 82 56  1  0
 82 83  1  0
 82 92  1  0
 83 86  1  0
 84 88  1  0
 84 83  1  0
 85 84  2  0
 88 87  1  0
 90 88  1  0
 90 91  1  0
 90 89  1  0
 92 95  1  1
 92 93  1  0
 94 92  1  0
M  ISO  4  17 100  18 100  54 101  55 101
M  END
>  <TORSDO>  (36) 
F 22

>  <SCORE>  (36) 
-12.993

>  <name>  (36) 
35

>  <ligand_id>  (36) 
35

>  <original_smiles>  (36) 
[H]c1c([H])c([H])c2c(c1[H])C([H])([H])C([H])([H])C([H])([H])C2([H])N([H])C(=O)C1([H])N(C(=O)C([H])(N([H])C(=O)C([H])(N([H])C([H])([H])[H])C([H])([H])[H])C(C([H])([H])[H])(C([H])([H])[H])C([H])([H])[H])C([H])([H])c2c([H])c(OC([H])([H])C3(C([H])([H])[H])C([H])([H])C([H])([H])C([H])([N+]([H])([H])C([H])([H])C4([H])C([H])([H])C([H])([H])C([H])(C([H])([H])C([H])([H])C(=O)N5C([H])([H])C([H])([H])C([H])([H])C([H])(n6nc(-c7c([H])c([H])c(Oc8c([H])c([H])c(F)c([H])c8F)c([H])c7[H])c(C(=O)N([H])[H])c6N([H])[H])C5([H])[H])C4([H])[H])C3([H])[H])c([H])c([H])c2C1([H])[H]

>  <smiles>  (36) 
[H]c1c([H])c([H])c2c(c1[H])C([H])([H])C([H])([H])C([H])([H])C2([H])N([H])C(=O)C1([H])N(C(=O)C([H])(N([H])C(=O)C([H])(N([H])C([H])([H])[H])C([H])([H])[H])C(C([H])([H])[H])(C([H])([H])[H])C([H])([H])[H])C([H])([H])c2c([H])c(OC([H])([H])C3(C([H])([H])[H])C([H])([H])C([H])([H])C([H])([N+]([H])([H])C([H])([H])C4([H])C([H])([H])C([H])([H])C([H])(C([H])([H])C([H])([H])C(=O)N5C([H])([H])C([H])([H])C([H])([H])C([H])(n6nc(-c7c([H])c([H])c(Oc8c([H])c([H])c(F)c([H])c8F)c([H])c7[H])c(C(=O)N([H])[H])c6N([H])[H])C5([H])[H])C4([H])[H])C3([H])[H])c([H])c([H])c2C1([H])[H]

$$$$
36:0:0
     RDKit          3D

 88 95  0  0  1  0  0  0  0  0999 V2000
  -27.9640  -21.7640   20.0540 C   0  0  0  0  0  3  0  0  0  0  0  0
  -28.1870  -20.3300   19.9820 C   0  0  0  0  0  0  0  0  0  0  0  0
  -26.8980  -19.5870   19.5690 C   0  0  0  0  0  1  0  0  0  0  0  0
  -28.6220  -23.1970   20.3680 C   0  0  0  0  0  0  0  0  0  0  0  0
  -29.7040  -23.2720   20.9620 O   0  0  0  0  0  0  0  0  0  0  0  0
  -27.8400  -24.6100   19.9350 C   0  0  0  0  0  2  0  0  0  0  0  0
  -28.1990  -26.0750   20.3600 O   0  0  0  0  0  0  0  0  0  0  0  0
  -24.6230  -31.8770   23.2510 C   0  0  0  0  0  0  0  0  0  0  0  0
  -27.2070  -27.1250   20.2520 C   0  0  0  0  0  0  0  0  0  0  0  0
  -23.4460  -30.4780   21.6000 C   0  0  0  0  0  3  0  0  0  0  0  0
  -24.9090  -28.9110   20.1850 C   0  0  0  0  0  0  0  0  0  0  0  0
  -25.9990  -30.7400   21.4720 C   0  0  0  0  0  2  0  0  0  0  0  0
  -26.0790  -29.3440   20.8190 C   0  0  0  0  0  0  0  0  0  0  0  0
  -27.2350  -28.4550   20.8430 C   0  0  0  0  0  3  0  0  0  0  0  0
  -26.0220  -26.8300   19.5510 C   0  0  0  0  0  3  0  0  0  0  0  0
  -24.8980  -27.6760   19.5330 C   0  0  0  0  0  3  0  0  0  0  0  0
  -23.6840  -29.8120   20.2210 C   0  0  0  0  0  2  0  0  0  0  0  0
  -24.7080  -31.0540   22.1640 N   0  0  0  0  0  0  0  0  0  0  0  0
  -23.5260  -32.1600   23.7620 O   0  0  0  0  0  0  0  0  0  0  0  0
  -22.7600  -29.4680   22.5550 C   0  0  0  0  0  0  0  0  0  0  0  0
  -21.4300  -29.2960   22.4160 N   0  0  0  0  0  0  0  0  0  0  0  0
  -23.4260  -28.8470   23.3840 O   0  0  0  0  0  0  0  0  0  0  0  0
  -20.9510  -29.8570   21.7270 H   0  0  0  0  0  0  0  0  0  0  0  0
  -18.0410  -28.1070   22.9100 C   0  0  0  0  0  0  0  0  0  0  0  0
  -20.6020  -28.3590   23.1780 C   0  0  0  0  0  3  0  0  0  0  0  0
  -20.6990  -26.9280   22.5990 C   0  0  0  0  0  2  0  0  0  0  0  0
  -19.5920  -26.6180   21.5810 C   0  0  0  0  0  2  0  0  0  0  0  0
  -18.2110  -26.7630   22.2300 C   0  0  0  0  0  2  0  0  0  0  0  0
  -19.1630  -28.8630   23.3460 C   0  0  0  0  0  0  0  0  0  0  0  0
  -18.9520  -30.1200   23.9510 C   0  0  0  0  0  3  0  0  0  0  0  0
  -17.6460  -30.6230   24.1270 C   0  0  0  0  0  3  0  0  0  0  0  0
  -16.5370  -29.8660   23.7050 C   0  0  0  0  0  3  0  0  0  0  0  0
  -16.7390  -28.6090   23.1060 C   0  0  0  0  0  3  0  0  0  0  0  0
  -25.8930  -32.5210   23.8880 C   0  0  0  0  0  3  0  0  0  0  0  0
  -25.5780  -33.9280   24.1850 N   0  0  0  0  0  0  0  0  0  0  0  0
  -25.9050  -34.9670   23.4090 C   0  0  0  0  0  0  0  0  0  0  0  0
  -26.5660  -34.8430   22.3720 O   0  0  0  0  0  0  0  0  0  0  0  0
  -24.9890  -34.0970   24.9880 H   0  0  0  0  0  0  0  0  0  0  0  0
  -24.1740  -36.7540   23.0340 C   0  0  0  0  0  1  0  0  0  0  0  0
  -25.4240  -36.3640   23.8390 C   0  0  0  0  0  3  0  0  0  0  0  0
  -27.5620  -37.2770   24.6350 C   0  0  0  0  0  1  0  0  0  0  0  0
  -26.4530  -37.4180   23.6950 N   0  0  0  0  0  0  0  0  0  0  0  0
  -26.0430  -38.3400   23.8190 H   0  0  0  0  0  0  0  0  0  0  0  0
  -26.3700  -31.7770   25.1940 C   0  0  1  0  0  0  0  0  0  0  0  0
  -25.2460  -31.5660   26.2360 C   0  0  0  0  0  1  0  0  0  0  0  0
  -26.9600  -30.3890   24.8560 C   0  0  0  0  0  1  0  0  0  0  0  0
  -27.5020  -32.5830   25.8730 C   0  0  0  0  0  1  0  0  0  0  0  0
  -29.4230  -19.2150   20.1730 C   0  0  0  0  0  2  0  0  0  0  0  0
  -30.0340  -16.4150   20.5060 C   0  0  0  0  0  2  0  0  0  0  0  0
  -29.7030  -17.5830   19.7460 C   0  0  0  0  0  3  0  0  0  0  0  0
  -30.6920  -15.0630   20.0640 C   0  0  0  0  0  0  0  0  0  0  0  0
  -30.5530  -12.6660   19.2520 C   0  0  0  0  0  2  0  0  0  0  0  0
  -29.6060  -12.6120   18.0360 C   0  0  0  0  0  2  0  0  0  0  0  0
  -28.1700  -12.3870   18.5080 C   0  0  0  0  0  2  0  0  0  0  0  0
  -27.7760  -13.3560   19.6480 C   0  0  0  0  0  3  0  0  0  0  0  0
  -28.8410  -13.4270   20.7630 C   0  0  0  0  0  2  0  0  0  0  0  0
  -30.1070  -13.8000   20.1250 N   0  0  0  0  0  0  0  0  0  0  0  0
  -31.8640  -15.0530   19.6620 O   0  0  0  0  0  0  0  0  0  0  0  0
  -25.4470  -13.9720   20.4990 C   0  0  0  0  0  0  0  0  0  0  0  0
  -24.3760  -13.2080   20.8910 C   0  0  0  0  0  0  0  0  0  0  0  0
  -24.8110  -11.8490   20.8050 C   0  0  0  0  0  0  0  0  0  0  0  0
  -26.4540  -13.0750   20.1890 N   0  0  0  0  0  0  0  0  0  0  0  0
  -26.0840  -11.7920   20.4440 N   0  0  0  0  0  0  0  0  0  0  0  0
  -24.0630  -10.5970   20.9900 C   0  0  0  0  0  0  0  0  0  0  0  0
  -24.4890   -9.6140   21.9090 C   0  0  0  0  0  3  0  0  0  0  0  0
  -23.7400   -8.4300   22.0850 C   0  0  0  0  0  3  0  0  0  0  0  0
  -22.5540   -8.2230   21.3420 C   0  0  0  0  0  0  0  0  0  0  0  0
  -22.1510   -9.1960   20.4120 C   0  0  0  0  0  3  0  0  0  0  0  0
  -22.8980  -10.3690   20.2330 C   0  0  0  0  0  3  0  0  0  0  0  0
  -21.7750   -7.0960   21.4260 O   0  0  0  0  0  0  0  0  0  0  0  0
  -21.6960   -6.3610   22.5800 C   0  0  0  0  0  0  0  0  0  0  0  0
  -21.2000   -6.9160   23.7820 C   0  0  0  0  0  3  0  0  0  0  0  0
  -21.0680   -6.1070   24.9280 C   0  0  0  0  0  3  0  0  0  0  0  0
  -21.4220   -4.7460   24.8750 C   0  0  0  0  0  0  0  0  0  0  0  0
  -21.9100   -4.1920   23.6820 C   0  0  0  0  0  3  0  0  0  0  0  0
  -22.0440   -4.9950   22.5350 C   0  0  0  0  0  0  0  0  0  0  0  0
  -22.4950   -4.4490   21.3810 F   0  0  0  0  0  0  0  0  0  0  0  0
  -21.2850   -3.9690   25.9780 F   0  0  0  0  0  0  0  0  0  0  0  0
  -23.0050  -13.7120   21.2150 C   0  0  0  0  0  0  0  0  0  0  0  0
  -22.2960  -13.0200   22.1060 N   0  0  0  0  0  0  0  0  0  0  0  0
  -22.5640  -14.7440   20.7180 O   0  0  0  0  0  0  0  0  0  0  0  0
  -22.6680  -12.1830   22.5270 H   0  0  0  0  0  0  0  0  0  0  0  0
  -21.3820  -13.3450   22.3810 H   0  0  0  0  0  0  0  0  0  0  0  0
  -25.6430  -15.3440   20.3610 N   0  0  0  0  0  0  0  0  0  0  0  0
  -24.9070  -16.0100   20.5660 H   0  0  0  0  0  0  0  0  0  0  0  0
  -26.4780  -15.7780   19.9860 H   0  0  0  0  0  0  0  0  0  0  0  0
  -29.6830  -17.4430   18.4020 O   0  0  0  0  0  0  0  0  0  0  0  0
  -29.3050  -18.2380   18.0530 H   0  0  0  0  0  0  0  0  0  0  0  0
  1  4  1  0
  2  1  2  0
  2 48  1  0
  3  2  1  0
  4  5  2  0
  6  7  1  0
  6  4  1  0
  8 19  2  0
  9  7  1  0
  9 14  1  0
 10 18  1  0
 10 20  1  0
 11 17  1  0
 11 13  1  0
 12 18  1  0
 13 14  2  0
 13 12  1  0
 15  9  2  0
 16 15  1  0
 16 11  2  0
 17 10  1  0
 18  8  1  0
 20 22  2  0
 21 20  1  0
 23 21  1  0
 24 33  2  0
 24 29  1  0
 25 21  1  0
 25 29  1  0
 26 25  1  0
 27 28  1  0
 27 26  1  0
 28 24  1  0
 29 30  2  0
 30 31  1  0
 32 31  2  0
 33 32  1  0
 34  8  1  0
 34 35  1  0
 34 44  1  0
 35 38  1  0
 36 40  1  0
 36 35  1  0
 37 36  2  0
 40 39  1  0
 42 43  1  0
 42 40  1  0
 42 41  1  0
 44 47  1  1
 44 45  1  0
 46 44  1  0
 50 48  1  0
 50 49  1  0
 51 57  1  0
 51 49  1  0
 52 57  1  0
 53 54  1  0
 53 52  1  0
 55 54  1  0
 55 62  1  0
 55 56  1  0
 57 56  1  0
 58 51  2  0
 59 60  2  0
 60 79  1  0
 61 60  1  0
 61 64  1  0
 62 63  1  0
 62 59  1  0
 63 61  2  0
 64 65  1  0
 65 66  2  0
 67 70  1  0
 67 66  1  0
 68 67  2  0
 69 68  1  0
 69 64  2  0
 70 71  1  0
 71 72  1  0
 72 73  2  0
 74 73  1  0
 74 78  1  0
 75 74  2  0
 76 71  2  0
 76 75  1  0
 77 76  1  0
 79 80  1  0
 80 83  1  0
 80 82  1  0
 81 79  2  0
 84 59  1  0
 84 85  1  0
 86 84  1  0
 87 50  1  0
 88 87  1  0
M  ISO  4   6 101   7 101  49 100  51 100
M  END
>  <TORSDO>  (37) 
F 21

>  <SCORE>  (37) 
-13.830

>  <name>  (37) 
36

>  <ligand_id>  (37) 
36

>  <original_smiles>  (37) 
[H]OC(=C([H])C(=O)N1C([H])([H])C([H])([H])C([H])([H])C([H])(n2nc(-c3c([H])c([H])c(Oc4c([H])c([H])c(F)c([H])c4F)c([H])c3[H])c(C(=O)N([H])[H])c2N([H])[H])C1([H])[H])C([H])([H])C(=C([H])C(=O)C([H])([H])Oc1c([H])c([H])c2c(c1[H])C([H])([H])N(C(=O)C([H])(N([H])C(=O)C([H])(N([H])C([H])([H])[H])C([H])([H])[H])C(C([H])([H])[H])(C([H])([H])[H])C([H])([H])[H])C([H])(C(=O)N([H])C1([H])c3c([H])c([H])c([H])c([H])c3C([H])([H])C([H])([H])C1([H])[H])C2([H])[H])C([H])([H])[H]

>  <smiles>  (37) 
[H]OC(=C([H])C(=O)N1C([H])([H])C([H])([H])C([H])([H])C([H])(n2nc(-c3c([H])c([H])c(Oc4c([H])c([H])c(F)c([H])c4F)c([H])c3[H])c(C(=O)N([H])[H])c2N([H])[H])C1([H])[H])C([H])([H])C(=C([H])C(=O)C([H])([H])Oc1c([H])c([H])c2c(c1[H])C([H])([H])N(C(=O)C([H])(N([H])C(=O)C([H])(N([H])C([H])([H])[H])C([H])([H])[H])C(C([H])([H])[H])(C([H])([H])[H])C([H])([H])[H])C([H])(C(=O)N([H])C1([H])c3c([H])c([H])c([H])c([H])c3C([H])([H])C([H])([H])C1([H])[H])C2([H])[H])C([H])([H])[H]

$$$$
37:0:0
     RDKit          3D

 91 98  0  0  1  0  0  0  0  0999 V2000
  -27.7980  -24.6190   20.8910 C   0  0  0  0  0  3  0  0  0  0  0  0
  -26.8380  -24.3180   22.0530 C   0  0  0  0  0  0  0  0  0  0  0  0
  -27.2440  -23.8310   23.1120 O   0  0  0  0  0  0  0  0  0  0  0  0
  -24.4870  -24.4960   23.0960 C   0  0  0  0  0  1  0  0  0  0  0  0
  -25.3590  -24.6630   21.8390 C   0  0  0  0  0  2  0  0  0  0  0  0
  -28.5060  -25.9890   21.0990 C   0  0  0  0  0  2  0  0  0  0  0  0
  -28.3580  -26.8700   19.9860 O   0  0  0  0  0  0  0  0  0  0  0  0
  -24.5820  -31.9570   23.2420 C   0  0  0  0  0  0  0  0  0  0  0  0
  -27.2070  -27.6110   20.0280 C   0  0  0  0  0  0  0  0  0  0  0  0
  -23.3660  -30.5890   21.5780 C   0  0  0  0  0  3  0  0  0  0  0  0
  -24.8110  -29.0920   20.1050 C   0  0  0  0  0  0  0  0  0  0  0  0
  -25.8880  -30.9620   21.3690 C   0  0  0  0  0  2  0  0  0  0  0  0
  -25.9700  -29.6080   20.6970 C   0  0  0  0  0  0  0  0  0  0  0  0
  -27.1730  -28.8690   20.6660 C   0  0  0  0  0  3  0  0  0  0  0  0
  -26.0390  -27.1090   19.4220 C   0  0  0  0  0  3  0  0  0  0  0  0
  -24.8370  -27.8370   19.4710 C   0  0  0  0  0  3  0  0  0  0  0  0
  -23.5640  -29.9430   20.1810 C   0  0  0  0  0  2  0  0  0  0  0  0
  -24.6310  -31.1820   22.1210 N   0  0  0  0  0  0  0  0  0  0  0  0
  -23.5030  -32.2170   23.7940 O   0  0  0  0  0  0  0  0  0  0  0  0
  -22.7280  -29.5410   22.5180 C   0  0  0  0  0  0  0  0  0  0  0  0
  -21.4030  -29.3580   22.3910 N   0  0  0  0  0  0  0  0  0  0  0  0
  -23.4190  -28.9000   23.3130 O   0  0  0  0  0  0  0  0  0  0  0  0
  -20.9120  -29.9270   21.7160 H   0  0  0  0  0  0  0  0  0  0  0  0
  -18.0290  -28.1660   22.8970 C   0  0  0  0  0  0  0  0  0  0  0  0
  -20.5910  -28.4000   23.1400 C   0  0  0  0  0  3  0  0  0  0  0  0
  -20.6800  -26.9890   22.5160 C   0  0  0  0  0  2  0  0  0  0  0  0
  -19.5610  -26.7000   21.5130 C   0  0  0  0  0  2  0  0  0  0  0  0
  -18.1900  -26.8330   22.1830 C   0  0  0  0  0  2  0  0  0  0  0  0
  -19.1590  -28.9090   23.3330 C   0  0  0  0  0  0  0  0  0  0  0  0
  -18.9550  -30.1550   23.9640 C   0  0  0  0  0  3  0  0  0  0  0  0
  -17.6560  -30.6610   24.1610 C   0  0  0  0  0  3  0  0  0  0  0  0
  -16.5420  -29.9140   23.7400 C   0  0  0  0  0  3  0  0  0  0  0  0
  -16.7290  -28.6680   23.1150 C   0  0  0  0  0  3  0  0  0  0  0  0
  -25.8720  -32.5740   23.8670 C   0  0  0  0  0  3  0  0  0  0  0  0
  -26.3760  -31.8000   25.1460 C   0  0  1  0  0  0  0  0  0  0  0  0
  -25.2750  -31.5700   26.2060 C   0  0  0  0  0  1  0  0  0  0  0  0
  -26.9510  -30.4190   24.7540 C   0  0  0  0  0  1  0  0  0  0  0  0
  -27.5300  -32.5850   25.8130 C   0  0  0  0  0  1  0  0  0  0  0  0
  -25.5760  -33.9770   24.1870 N   0  0  0  0  0  0  0  0  0  0  0  0
  -25.9280  -35.0210   23.4250 C   0  0  0  0  0  0  0  0  0  0  0  0
  -26.6090  -34.9060   22.4020 O   0  0  0  0  0  0  0  0  0  0  0  0
  -24.9740  -34.1430   24.9790 H   0  0  0  0  0  0  0  0  0  0  0  0
  -24.2220  -36.8270   23.0450 C   0  0  0  0  0  1  0  0  0  0  0  0
  -25.4480  -36.4150   23.8720 C   0  0  0  0  0  3  0  0  0  0  0  0
  -27.5820  -37.2800   24.7250 C   0  0  0  0  0  1  0  0  0  0  0  0
  -26.4930  -37.4560   23.7680 N   0  0  0  0  0  0  0  0  0  0  0  0
  -26.0940  -38.3800   23.9110 H   0  0  0  0  0  0  0  0  0  0  0  0
  -28.8270  -23.4960   20.6090 C   0  0  0  0  0  2  0  0  0  0  0  0
  -28.2680  -22.0620   20.4590 C   0  0  0  0  0  2  0  0  0  0  0  0
  -29.0380  -21.2210   19.4230 C   0  0  0  0  0  2  0  0  0  0  0  0
  -28.9170  -19.7010   19.6220 C   0  0  0  0  0  2  0  0  0  0  0  0
  -29.9530  -19.1070   20.5910 C   0  0  0  0  0  2  0  0  0  0  0  0
  -29.8760  -17.5710   20.6040 C   0  0  0  0  0  2  0  0  0  0  0  0
  -30.9820  -16.8790   21.4170 C   0  0  0  0  0  2  0  0  0  0  0  0
  -30.7320  -15.3620   21.5680 C   0  0  0  0  0  2  0  0  0  0  0  0
  -31.0420  -14.4960   20.3250 C   0  0  0  0  0  0  0  0  0  0  0  0
  -30.6510  -12.4560   18.9750 C   0  0  0  0  0  2  0  0  0  0  0  0
  -29.6860  -12.7090   17.8020 C   0  0  0  0  0  2  0  0  0  0  0  0
  -28.2230  -12.5520   18.2590 C   0  0  0  0  0  2  0  0  0  0  0  0
  -27.9210  -13.3510   19.5560 C   0  0  0  0  0  3  0  0  0  0  0  0
  -28.9880  -13.0450   20.6320 C   0  0  0  0  0  2  0  0  0  0  0  0
  -30.3080  -13.3800   20.0670 N   0  0  0  0  0  0  0  0  0  0  0  0
  -32.0160  -14.8100   19.6310 O   0  0  0  0  0  0  0  0  0  0  0  0
  -25.5170  -13.9720   20.2530 C   0  0  0  0  0  0  0  0  0  0  0  0
  -24.4530  -13.2040   20.6450 C   0  0  0  0  0  0  0  0  0  0  0  0
  -24.9170  -11.8540   20.6380 C   0  0  0  0  0  0  0  0  0  0  0  0
  -26.5670  -13.0870   20.0400 N   0  0  0  0  0  0  0  0  0  0  0  0
  -26.2050  -11.8090   20.3190 N   0  0  0  0  0  0  0  0  0  0  0  0
  -24.1970  -10.5940   20.8570 C   0  0  0  0  0  0  0  0  0  0  0  0
  -24.6040   -9.6710   21.8460 C   0  0  0  0  0  3  0  0  0  0  0  0
  -23.8820   -8.4760   22.0500 C   0  0  0  0  0  3  0  0  0  0  0  0
  -22.7400   -8.1920   21.2640 C   0  0  0  0  0  0  0  0  0  0  0  0
  -22.3510   -9.1050   20.2660 C   0  0  0  0  0  3  0  0  0  0  0  0
  -23.0740  -10.2920   20.0610 C   0  0  0  0  0  3  0  0  0  0  0  0
  -21.9960   -7.0420   21.3720 O   0  0  0  0  0  0  0  0  0  0  0  0
  -21.8660   -6.3790   22.5670 C   0  0  0  0  0  0  0  0  0  0  0  0
  -21.3420   -7.0120   23.7150 C   0  0  0  0  0  3  0  0  0  0  0  0
  -21.1630   -6.2760   24.9050 C   0  0  0  0  0  3  0  0  0  0  0  0
  -21.4960   -4.9100   24.9450 C   0  0  0  0  0  0  0  0  0  0  0  0
  -22.0120   -4.2760   23.8010 C   0  0  0  0  0  3  0  0  0  0  0  0
  -22.1930   -5.0090   22.6140 C   0  0  0  0  0  0  0  0  0  0  0  0
  -22.6710   -4.3890   21.5080 F   0  0  0  0  0  0  0  0  0  0  0  0
  -21.3170   -4.1990   26.0840 F   0  0  0  0  0  0  0  0  0  0  0  0
  -23.0570  -13.6860   20.9210 C   0  0  0  0  0  0  0  0  0  0  0  0
  -22.3410  -13.0100   21.8130 N   0  0  0  0  0  0  0  0  0  0  0  0
  -22.6110  -14.6990   20.3850 O   0  0  0  0  0  0  0  0  0  0  0  0
  -22.7110  -12.1870   22.2660 H   0  0  0  0  0  0  0  0  0  0  0  0
  -21.4090  -13.3220   22.0440 H   0  0  0  0  0  0  0  0  0  0  0  0
  -25.6740  -15.3380   20.0480 N   0  0  0  0  0  0  0  0  0  0  0  0
  -24.9030  -15.9900   20.1590 H   0  0  0  0  0  0  0  0  0  0  0  0
  -26.5220  -15.7810   19.7160 H   0  0  0  0  0  0  0  0  0  0  0  0
  1 48  1  0
  1  6  1  0
  1  2  1  0
  2  3  2  0
  5  2  1  0
  5  4  1  0
  7  9  1  0
  7  6  1  0
  8 19  2  0
  9 14  1  0
 10 18  1  0
 10 20  1  0
 11 17  1  0
 11 13  1  0
 12 18  1  0
 13 12  1  0
 14 13  2  0
 15 16  1  0
 15  9  2  0
 16 11  2  0
 17 10  1  0
 18  8  1  0
 20 22  2  0
 21 20  1  0
 23 21  1  0
 24 33  2  0
 24 29  1  0
 25 21  1  0
 25 29  1  0
 26 25  1  0
 27 28  1  0
 27 26  1  0
 28 24  1  0
 29 30  2  0
 30 31  1  0
 32 31  2  0
 33 32  1  0
 34  8  1  0
 34 39  1  0
 34 35  1  0
 35 38  1  1
 35 36  1  0
 37 35  1  0
 39 42  1  0
 40 44  1  0
 40 39  1  0
 41 40  2  0
 44 43  1  0
 46 44  1  0
 46 47  1  0
 46 45  1  0
 49 48  1  0
 50 51  1  0
 50 49  1  0
 51 52  1  0
 52 53  1  0
 53 54  1  0
 54 55  1  0
 56 55  1  0
 57 62  1  0
 58 59  1  0
 58 57  1  0
 60 59  1  0
 60 67  1  0
 60 61  1  0
 62 56  1  0
 62 61  1  0
 63 56  2  0
 64 65  2  0
 65 84  1  0
 66 65  1  0
 66 69  1  0
 67 64  1  0
 67 68  1  0
 68 66  2  0
 69 70  1  0
 70 71  2  0
 72 75  1  0
 72 71  1  0
 73 72  2  0
 74 73  1  0
 74 69  2  0
 75 76  1  0
 76 81  2  0
 76 77  1  0
 77 78  2  0
 78 79  1  0
 79 83  1  0
 80 79  2  0
 81 80  1  0
 82 81  1  0
 84 85  1  0
 85 88  1  0
 85 87  1  0
 86 84  2  0
 89 90  1  0
 89 64  1  0
 91 89  1  0
M  ISO  4   6 101   7 101  55 100  56 100
M  END
>  <TORSDO>  (38) 
F 27

>  <SCORE>  (38) 
-10.679

>  <name>  (38) 
37

>  <ligand_id>  (38) 
37

>  <original_smiles>  (38) 
[H]c1c([H])c([H])c2c(c1[H])C([H])([H])C([H])([H])C([H])([H])C2([H])N([H])C(=O)C1([H])N(C(=O)C([H])(N([H])C(=O)C([H])(N([H])C([H])([H])[H])C([H])([H])[H])C(C([H])([H])[H])(C([H])([H])[H])C([H])([H])[H])C([H])([H])c2c([H])c(OC([H])([H])C([H])(C(=O)C([H])([H])C([H])([H])[H])C([H])([H])C([H])([H])C([H])([H])C([H])([H])C([H])([H])C([H])([H])C([H])([H])C([H])([H])C(=O)N3C([H])([H])C([H])([H])C([H])([H])C([H])(n4nc(-c5c([H])c([H])c(Oc6c([H])c([H])c(F)c([H])c6F)c([H])c5[H])c(C(=O)N([H])[H])c4N([H])[H])C3([H])[H])c([H])c([H])c2C1([H])[H]

>  <smiles>  (38) 
[H]c1c([H])c([H])c2c(c1[H])C([H])([H])C([H])([H])C([H])([H])C2([H])N([H])C(=O)C1([H])N(C(=O)C([H])(N([H])C(=O)C([H])(N([H])C([H])([H])[H])C([H])([H])[H])C(C([H])([H])[H])(C([H])([H])[H])C([H])([H])[H])C([H])([H])c2c([H])c(OC([H])([H])C([H])(C(=O)C([H])([H])C([H])([H])[H])C([H])([H])C([H])([H])C([H])([H])C([H])([H])C([H])([H])C([H])([H])C([H])([H])C([H])([H])C(=O)N3C([H])([H])C([H])([H])C([H])([H])C([H])(n4nc(-c5c([H])c([H])c(Oc6c([H])c([H])c(F)c([H])c6F)c([H])c5[H])c(C(=O)N([H])[H])c4N([H])[H])C3([H])[H])c([H])c([H])c2C1([H])[H]

$$$$
38:0:0
     RDKit          3D

 91 98  0  0  1  0  0  0  0  0999 V2000
  -29.5860  -23.3070   23.5600 C   0  0  0  0  0  0  0  0  0  0  0  0
  -29.4940  -24.4990   22.9590 N   0  0  0  0  0  0  0  0  0  0  0  0
  -28.5980  -22.6670   23.9280 O   0  0  0  0  0  0  0  0  0  0  0  0
  -30.3560  -24.9630   22.7010 H   0  0  0  0  0  0  0  0  0  0  0  0
  -30.9920  -22.7550   23.7870 C   0  0  0  0  0  2  0  0  0  0  0  0
  -31.3960  -21.6690   22.7700 C   0  0  0  0  0  2  0  0  0  0  0  0
  -30.6660  -20.3240   22.9430 C   0  0  0  0  0  2  0  0  0  0  0  0
  -31.2080  -19.2450   21.9970 C   0  0  0  0  0  2  0  0  0  0  0  0
  -30.4770  -17.9030   22.1480 C   0  0  0  0  0  2  0  0  0  0  0  0
  -31.0430  -16.8360   21.2010 C   0  0  0  0  0  2  0  0  0  0  0  0
  -30.2790  -15.4970   21.2610 C   0  0  0  0  0  2  0  0  0  0  0  0
  -30.7760  -14.4710   20.2270 C   0  0  0  0  0  0  0  0  0  0  0  0
  -30.3450  -12.4500   18.8770 C   0  0  0  0  0  2  0  0  0  0  0  0
  -29.3380  -12.7610   17.7530 C   0  0  0  0  0  2  0  0  0  0  0  0
  -27.8890  -12.6130   18.2590 C   0  0  0  0  0  2  0  0  0  0  0  0
  -27.6430  -13.3650   19.5950 C   0  0  0  0  0  3  0  0  0  0  0  0
  -28.7520  -13.0360   20.6210 C   0  0  0  0  0  2  0  0  0  0  0  0
  -30.0520  -13.3450   20.0040 N   0  0  0  0  0  0  0  0  0  0  0  0
  -31.8050  -14.7270   19.5940 O   0  0  0  0  0  0  0  0  0  0  0  0
  -25.2700  -13.9550   20.4070 C   0  0  0  0  0  0  0  0  0  0  0  0
  -24.2230  -13.1720   20.8130 C   0  0  0  0  0  0  0  0  0  0  0  0
  -24.6880  -11.8240   20.7470 C   0  0  0  0  0  0  0  0  0  0  0  0
  -26.3110  -13.0810   20.1250 N   0  0  0  0  0  0  0  0  0  0  0  0
  -25.9640  -11.7940   20.3840 N   0  0  0  0  0  0  0  0  0  0  0  0
  -23.9780  -10.5560   20.9560 C   0  0  0  0  0  0  0  0  0  0  0  0
  -24.4370   -9.5950   21.8840 C   0  0  0  0  0  3  0  0  0  0  0  0
  -23.7280   -8.3910   22.0790 C   0  0  0  0  0  3  0  0  0  0  0  0
  -22.5430   -8.1390   21.3460 C   0  0  0  0  0  0  0  0  0  0  0  0
  -22.1030   -9.0880   20.4060 C   0  0  0  0  0  3  0  0  0  0  0  0
  -22.8140  -10.2840   20.2090 C   0  0  0  0  0  3  0  0  0  0  0  0
  -21.8030   -6.9860   21.4510 O   0  0  0  0  0  0  0  0  0  0  0  0
  -21.7580   -6.2620   22.6150 C   0  0  0  0  0  0  0  0  0  0  0  0
  -21.3270   -6.8350   23.8320 C   0  0  0  0  0  3  0  0  0  0  0  0
  -21.2310   -6.0370   24.9890 C   0  0  0  0  0  3  0  0  0  0  0  0
  -21.5540   -4.6690   24.9310 C   0  0  0  0  0  0  0  0  0  0  0  0
  -21.9780   -4.0960   23.7190 C   0  0  0  0  0  3  0  0  0  0  0  0
  -22.0760   -4.8910   22.5640 C   0  0  0  0  0  0  0  0  0  0  0  0
  -22.4650   -4.3290   21.3940 F   0  0  0  0  0  0  0  0  0  0  0  0
  -21.4540   -3.9000   26.0410 F   0  0  0  0  0  0  0  0  0  0  0  0
  -22.8350  -13.6390   21.1510 C   0  0  0  0  0  0  0  0  0  0  0  0
  -22.1490  -12.9290   22.0400 N   0  0  0  0  0  0  0  0  0  0  0  0
  -22.3690  -14.6670   20.6620 O   0  0  0  0  0  0  0  0  0  0  0  0
  -22.5390  -12.0960   22.4560 H   0  0  0  0  0  0  0  0  0  0  0  0
  -21.2210  -13.2230   22.3080 H   0  0  0  0  0  0  0  0  0  0  0  0
  -25.4220  -15.3270   20.2360 N   0  0  0  0  0  0  0  0  0  0  0  0
  -24.6620  -15.9810   20.3870 H   0  0  0  0  0  0  0  0  0  0  0  0
  -26.2630  -15.7730   19.8910 H   0  0  0  0  0  0  0  0  0  0  0  0
  -28.2440  -25.1770   22.6280 C   0  0  0  0  0  2  0  0  0  0  0  0
  -27.7370  -24.7920   21.2260 C   0  0  0  0  0  2  0  0  0  0  0  0
  -28.5390  -25.4130   20.0580 C   0  0  0  0  0  2  0  0  0  0  0  0
  -28.5730  -26.8420   20.0920 O   0  0  0  0  0  0  0  0  0  0  0  0
  -24.6340  -31.8290   23.2220 C   0  0  0  0  0  0  0  0  0  0  0  0
  -27.3800  -27.5280   20.0540 C   0  0  0  0  0  0  0  0  0  0  0  0
  -23.4680  -30.4600   21.5220 C   0  0  0  0  0  3  0  0  0  0  0  0
  -24.9610  -28.9850   20.0750 C   0  0  0  0  0  0  0  0  0  0  0  0
  -25.9890  -30.8590   21.3720 C   0  0  0  0  0  2  0  0  0  0  0  0
  -26.1010  -29.5100   20.6940 C   0  0  0  0  0  0  0  0  0  0  0  0
  -27.3120  -28.7880   20.6830 C   0  0  0  0  0  3  0  0  0  0  0  0
  -26.2250  -27.0170   19.4150 C   0  0  0  0  0  3  0  0  0  0  0  0
  -25.0160  -27.7360   19.4340 C   0  0  0  0  0  3  0  0  0  0  0  0
  -23.7040  -29.8230   20.1270 C   0  0  0  0  0  2  0  0  0  0  0  0
  -24.7140  -31.0620   22.0970 N   0  0  0  0  0  0  0  0  0  0  0  0
  -23.5420  -32.0740   23.7520 O   0  0  0  0  0  0  0  0  0  0  0  0
  -22.8170  -29.4030   22.4420 C   0  0  0  0  0  0  0  0  0  0  0  0
  -21.4970  -29.2080   22.2870 N   0  0  0  0  0  0  0  0  0  0  0  0
  -23.4960  -28.7650   23.2520 O   0  0  0  0  0  0  0  0  0  0  0  0
  -21.0120  -29.7780   21.6070 H   0  0  0  0  0  0  0  0  0  0  0  0
  -18.1330  -27.9560   22.6780 C   0  0  0  0  0  0  0  0  0  0  0  0
  -20.6800  -28.2400   23.0150 C   0  0  0  0  0  3  0  0  0  0  0  0
  -20.8160  -26.8250   22.4050 C   0  0  0  0  0  2  0  0  0  0  0  0
  -19.7410  -26.5130   21.3590 C   0  0  0  0  0  2  0  0  0  0  0  0
  -18.3440  -26.6240   21.9760 C   0  0  0  0  0  2  0  0  0  0  0  0
  -19.2310  -28.7210   23.1520 C   0  0  0  0  0  0  0  0  0  0  0  0
  -18.9840  -29.9680   23.7670 C   0  0  0  0  0  3  0  0  0  0  0  0
  -17.6700  -30.4490   23.9150 C   0  0  0  0  0  3  0  0  0  0  0  0
  -16.5840  -29.6800   23.4590 C   0  0  0  0  0  3  0  0  0  0  0  0
  -16.8180  -28.4360   22.8470 C   0  0  0  0  0  3  0  0  0  0  0  0
  -25.9050  -32.4550   23.8780 C   0  0  0  0  0  3  0  0  0  0  0  0
  -26.4100  -31.6570   25.1420 C   0  0  1  0  0  0  0  0  0  0  0  0
  -25.3020  -31.3830   26.1860 C   0  0  0  0  0  1  0  0  0  0  0  0
  -27.0130  -30.2960   24.7220 C   0  0  0  0  0  1  0  0  0  0  0  0
  -27.5430  -32.4460   25.8410 C   0  0  0  0  0  1  0  0  0  0  0  0
  -25.5800  -33.8430   24.2320 N   0  0  0  0  0  0  0  0  0  0  0  0
  -25.9230  -34.9140   23.5030 C   0  0  0  0  0  0  0  0  0  0  0  0
  -26.6170  -34.8380   22.4860 O   0  0  0  0  0  0  0  0  0  0  0  0
  -24.9670  -33.9780   25.0220 H   0  0  0  0  0  0  0  0  0  0  0  0
  -24.1900  -36.7020   23.1450 C   0  0  0  0  0  1  0  0  0  0  0  0
  -25.4140  -36.2880   23.9790 C   0  0  0  0  0  3  0  0  0  0  0  0
  -27.5190  -37.1660   24.8870 C   0  0  0  0  0  1  0  0  0  0  0  0
  -26.4410  -37.3490   23.9190 N   0  0  0  0  0  0  0  0  0  0  0  0
  -26.0240  -38.2630   24.0770 H   0  0  0  0  0  0  0  0  0  0  0  0
  1  5  1  0
  1  3  2  0
  2  1  1  0
  4  2  1  0
  6  7  1  0
  6  5  1  0
  8  9  1  0
  8  7  1  0
 10 11  1  0
 10  9  1  0
 12 11  1  0
 13 18  1  0
 14 15  1  0
 14 13  1  0
 16 15  1  0
 16 23  1  0
 16 17  1  0
 18 12  1  0
 18 17  1  0
 19 12  2  0
 20 21  2  0
 21 40  1  0
 22 21  1  0
 22 25  1  0
 23 24  1  0
 23 20  1  0
 24 22  2  0
 25 26  1  0
 26 27  2  0
 28 31  1  0
 28 27  1  0
 29 28  2  0
 30 29  1  0
 30 25  2  0
 31 32  1  0
 32 33  1  0
 33 34  2  0
 35 34  1  0
 35 39  1  0
 36 35  2  0
 37 32  2  0
 37 36  1  0
 38 37  1  0
 40 41  1  0
 41 44  1  0
 41 43  1  0
 42 40  2  0
 45 46  1  0
 45 20  1  0
 47 45  1  0
 48  2  1  0
 49 48  1  0
 50 51  1  0
 50 49  1  0
 52 63  2  0
 53 51  1  0
 53 58  1  0
 54 62  1  0
 54 64  1  0
 55 61  1  0
 55 57  1  0
 56 62  1  0
 57 56  1  0
 58 57  2  0
 59 60  1  0
 59 53  2  0
 60 55  2  0
 61 54  1  0
 62 52  1  0
 64 66  2  0
 65 64  1  0
 67 65  1  0
 68 77  2  0
 68 73  1  0
 69 65  1  0
 69 73  1  0
 70 69  1  0
 71 72  1  0
 71 70  1  0
 72 68  1  0
 73 74  2  0
 74 75  1  0
 76 75  2  0
 77 76  1  0
 78 52  1  0
 78 83  1  0
 78 79  1  0
 79 82  1  1
 79 80  1  0
 81 79  1  0
 83 86  1  0
 84 88  1  0
 84 83  1  0
 85 84  2  0
 88 87  1  0
 90 88  1  0
 90 91  1  0
 90 89  1  0
M  ISO  4  11 100  12 100  50 101  51 101
M  END
>  <TORSDO>  (39) 
F 26

>  <SCORE>  (39) 
-9.900

>  <name>  (39) 
38

>  <ligand_id>  (39) 
38

>  <original_smiles>  (39) 
[H]c1c([H])c([H])c2c(c1[H])C([H])([H])C([H])([H])C([H])([H])C2([H])N([H])C(=O)C1([H])N(C(=O)C([H])(N([H])C(=O)C([H])(N([H])C([H])([H])[H])C([H])([H])[H])C(C([H])([H])[H])(C([H])([H])[H])C([H])([H])[H])C([H])([H])c2c([H])c(OC([H])([H])C([H])([H])C([H])([H])N([H])C(=O)C([H])([H])C([H])([H])C([H])([H])C([H])([H])C([H])([H])C([H])([H])C([H])([H])C(=O)N3C([H])([H])C([H])([H])C([H])([H])C([H])(n4nc(-c5c([H])c([H])c(Oc6c([H])c([H])c(F)c([H])c6F)c([H])c5[H])c(C(=O)N([H])[H])c4N([H])[H])C3([H])[H])c([H])c([H])c2C1([H])[H]

>  <smiles>  (39) 
[H]c1c([H])c([H])c2c(c1[H])C([H])([H])C([H])([H])C([H])([H])C2([H])N([H])C(=O)C1([H])N(C(=O)C([H])(N([H])C(=O)C([H])(N([H])C([H])([H])[H])C([H])([H])[H])C(C([H])([H])[H])(C([H])([H])[H])C([H])([H])[H])C([H])([H])c2c([H])c(OC([H])([H])C([H])([H])C([H])([H])N([H])C(=O)C([H])([H])C([H])([H])C([H])([H])C([H])([H])C([H])([H])C([H])([H])C([H])([H])C(=O)N3C([H])([H])C([H])([H])C([H])([H])C([H])(n4nc(-c5c([H])c([H])c(Oc6c([H])c([H])c(F)c([H])c6F)c([H])c5[H])c(C(=O)N([H])[H])c4N([H])[H])C3([H])[H])c([H])c([H])c2C1([H])[H]

$$$$
39:0:0
     RDKit          3D

 88 95  0  0  1  0  0  0  0  0999 V2000
  -28.5840  -21.9760   20.3080 C   0  0  0  0  0  3  0  0  0  0  0  0
  -29.0370  -23.5700   20.3710 C   0  0  0  0  0  3  0  0  0  0  0  0
  -27.9700  -24.8080   20.1200 C   0  0  0  0  0  3  0  0  0  0  0  0
  -28.2520  -26.3080   20.2570 O   0  0  0  0  0  0  0  0  0  0  0  0
  -24.6030  -31.9000   23.2560 C   0  0  0  0  0  0  0  0  0  0  0  0
  -27.1760  -27.2480   20.1960 C   0  0  0  0  0  0  0  0  0  0  0  0
  -23.3940  -30.5100   21.6160 C   0  0  0  0  0  3  0  0  0  0  0  0
  -24.8360  -28.9490   20.1810 C   0  0  0  0  0  0  0  0  0  0  0  0
  -25.9430  -30.7930   21.4370 C   0  0  0  0  0  2  0  0  0  0  0  0
  -26.0150  -29.4080   20.7820 C   0  0  0  0  0  0  0  0  0  0  0  0
  -27.1880  -28.5730   20.7730 C   0  0  0  0  0  3  0  0  0  0  0  0
  -25.9680  -26.8760   19.5620 C   0  0  0  0  0  3  0  0  0  0  0  0
  -24.8210  -27.6940   19.5580 C   0  0  0  0  0  3  0  0  0  0  0  0
  -23.6070  -29.8380   20.2350 C   0  0  0  0  0  2  0  0  0  0  0  0
  -24.6670  -31.0870   22.1590 N   0  0  0  0  0  0  0  0  0  0  0  0
  -23.5200  -32.1820   23.7900 O   0  0  0  0  0  0  0  0  0  0  0  0
  -22.7220  -29.4970   22.5760 C   0  0  0  0  0  0  0  0  0  0  0  0
  -21.3940  -29.3240   22.4500 N   0  0  0  0  0  0  0  0  0  0  0  0
  -23.3970  -28.8690   23.3960 O   0  0  0  0  0  0  0  0  0  0  0  0
  -20.9080  -29.8830   21.7630 H   0  0  0  0  0  0  0  0  0  0  0  0
  -18.0140  -28.1290   22.9550 C   0  0  0  0  0  0  0  0  0  0  0  0
  -20.5740  -28.3870   23.2210 C   0  0  0  0  0  3  0  0  0  0  0  0
  -20.6730  -26.9560   22.6440 C   0  0  0  0  0  2  0  0  0  0  0  0
  -19.5700  -26.6350   21.6310 C   0  0  0  0  0  2  0  0  0  0  0  0
  -18.1900  -26.7810   22.2770 C   0  0  0  0  0  2  0  0  0  0  0  0
  -19.1340  -28.8910   23.3840 C   0  0  0  0  0  0  0  0  0  0  0  0
  -18.9160  -30.1510   23.9800 C   0  0  0  0  0  3  0  0  0  0  0  0
  -17.6120  -30.6530   24.1500 C   0  0  0  0  0  3  0  0  0  0  0  0
  -16.5070  -29.8890   23.7360 C   0  0  0  0  0  3  0  0  0  0  0  0
  -16.7080  -28.6290   23.1440 C   0  0  0  0  0  3  0  0  0  0  0  0
  -25.8860  -32.5300   23.8790 C   0  0  0  0  0  3  0  0  0  0  0  0
  -26.3950  -31.7590   25.1590 C   0  0  1  0  0  0  0  0  0  0  0  0
  -25.3000  -31.5280   26.2260 C   0  0  0  0  0  1  0  0  0  0  0  0
  -26.9740  -30.3780   24.7740 C   0  0  0  0  0  1  0  0  0  0  0  0
  -27.5490  -32.5500   25.8220 C   0  0  0  0  0  1  0  0  0  0  0  0
  -25.5800  -33.9300   24.2110 N   0  0  0  0  0  0  0  0  0  0  0  0
  -25.8980  -34.9830   23.4440 C   0  0  0  0  0  0  0  0  0  0  0  0
  -26.5470  -34.8760   22.4000 O   0  0  0  0  0  0  0  0  0  0  0  0
  -25.0010  -34.0860   25.0220 H   0  0  0  0  0  0  0  0  0  0  0  0
  -24.1580  -36.7730   23.1300 C   0  0  0  0  0  1  0  0  0  0  0  0
  -25.4210  -36.3720   23.9090 C   0  0  0  0  0  3  0  0  0  0  0  0
  -27.5730  -37.2680   24.6820 C   0  0  0  0  0  1  0  0  0  0  0  0
  -26.4490  -37.4270   23.7640 N   0  0  0  0  0  0  0  0  0  0  0  0
  -26.0440  -38.3470   23.9140 H   0  0  0  0  0  0  0  0  0  0  0  0
  -29.6180  -20.6790   20.3740 C   0  0  0  0  0  3  0  0  0  0  0  0
  -29.1130  -19.0980   20.4210 C   0  0  0  0  0  3  0  0  0  0  0  0
  -28.1120  -18.9130   19.3540 N   0  0  0  0  0  4  0  0  0  0  0  0
  -28.5280  -19.0300   18.4460 H   0  0  0  0  0  0  0  0  0  0  0  0
  -27.3700  -19.5820   19.4530 H   0  0  0  0  0  0  0  0  0  0  0  0
  -27.7020  -17.9990   19.4010 H   0  0  0  0  0  0  0  0  0  0  0  0
  -30.1520  -17.7990   20.3930 C   0  0  0  0  0  3  0  0  0  0  0  0
  -29.6760  -16.2470   20.7310 C   0  0  0  0  0  3  0  0  0  0  0  0
  -30.5220  -14.8920   20.3770 C   0  0  0  0  0  0  0  0  0  0  0  0
  -30.3720  -12.5930   19.3510 C   0  0  0  0  0  2  0  0  0  0  0  0
  -29.4240  -12.6530   18.1300 C   0  0  0  0  0  2  0  0  0  0  0  0
  -27.9570  -12.4600   18.5630 C   0  0  0  0  0  2  0  0  0  0  0  0
  -27.5810  -13.3420   19.7820 C   0  0  0  0  0  3  0  0  0  0  0  0
  -28.6450  -13.2620   20.8980 C   0  0  0  0  0  2  0  0  0  0  0  0
  -29.9390  -13.6370   20.3130 N   0  0  0  0  0  0  0  0  0  0  0  0
  -31.6990  -15.0030   20.0200 O   0  0  0  0  0  0  0  0  0  0  0  0
  -25.2010  -13.9330   20.5320 C   0  0  0  0  0  0  0  0  0  0  0  0
  -24.1340  -13.1610   20.9020 C   0  0  0  0  0  0  0  0  0  0  0  0
  -24.5930  -11.8090   20.8600 C   0  0  0  0  0  0  0  0  0  0  0  0
  -26.2400  -13.0520   20.2810 N   0  0  0  0  0  0  0  0  0  0  0  0
  -25.8830  -11.7690   20.5430 N   0  0  0  0  0  0  0  0  0  0  0  0
  -23.8640  -10.5480   21.0440 C   0  0  0  0  0  0  0  0  0  0  0  0
  -24.2870   -9.5790   21.9790 C   0  0  0  0  0  3  0  0  0  0  0  0
  -23.5570   -8.3830   22.1510 C   0  0  0  0  0  3  0  0  0  0  0  0
  -22.3900   -8.1480   21.3860 C   0  0  0  0  0  0  0  0  0  0  0  0
  -21.9860   -9.1060   20.4390 C   0  0  0  0  0  3  0  0  0  0  0  0
  -22.7160  -10.2930   20.2650 C   0  0  0  0  0  3  0  0  0  0  0  0
  -21.6320   -7.0050   21.4670 O   0  0  0  0  0  0  0  0  0  0  0  0
  -21.5640   -6.2670   22.6220 C   0  0  0  0  0  0  0  0  0  0  0  0
  -21.1000   -6.8220   23.8350 C   0  0  0  0  0  3  0  0  0  0  0  0
  -20.9810   -6.0100   24.9810 C   0  0  0  0  0  3  0  0  0  0  0  0
  -21.3130   -4.6440   24.9140 C   0  0  0  0  0  0  0  0  0  0  0  0
  -21.7700   -4.0880   23.7060 C   0  0  0  0  0  3  0  0  0  0  0  0
  -21.8910   -4.8970   22.5620 C   0  0  0  0  0  0  0  0  0  0  0  0
  -22.3110   -4.3520   21.3950 F   0  0  0  0  0  0  0  0  0  0  0  0
  -21.1910   -3.8620   26.0120 F   0  0  0  0  0  0  0  0  0  0  0  0
  -22.7400  -13.6420   21.1820 C   0  0  0  0  0  0  0  0  0  0  0  0
  -22.0130  -12.9430   22.0460 N   0  0  0  0  0  0  0  0  0  0  0  0
  -22.3050  -14.6720   20.6690 O   0  0  0  0  0  0  0  0  0  0  0  0
  -22.3780  -12.1090   22.4820 H   0  0  0  0  0  0  0  0  0  0  0  0
  -21.0770  -13.2470   22.2760 H   0  0  0  0  0  0  0  0  0  0  0  0
  -25.3690  -15.3040   20.3630 N   0  0  0  0  0  0  0  0  0  0  0  0
  -24.6060  -15.9610   20.4800 H   0  0  0  0  0  0  0  0  0  0  0  0
  -26.2170  -15.7310   20.0170 H   0  0  0  0  0  0  0  0  0  0  0  0
  1  2  1  0
  1 45  2  0
  3  4  1  0
  3  2  2  0
  5 16  2  0
  6  4  1  0
  6 11  1  0
  7 15  1  0
  7 17  1  0
  8 14  1  0
  8 10  1  0
  9 15  1  0
 10  9  1  0
 11 10  2  0
 12  6  2  0
 13 12  1  0
 13  8  2  0
 14  7  1  0
 15  5  1  0
 17 19  2  0
 18 17  1  0
 20 18  1  0
 21 30  2  0
 21 26  1  0
 22 18  1  0
 22 26  1  0
 23 22  1  0
 24 25  1  0
 24 23  1  0
 25 21  1  0
 26 27  2  0
 27 28  1  0
 29 28  2  0
 30 29  1  0
 31  5  1  0
 31 36  1  0
 31 32  1  0
 32 35  1  1
 32 33  1  0
 34 32  1  0
 36 39  1  0
 37 41  1  0
 37 36  1  0
 38 37  2  0
 41 40  1  0
 43 41  1  0
 43 44  1  0
 43 42  1  0
 46 45  1  0
 47 50  1  0
 47 49  1  0
 47 46  1  0
 48 47  1  0
 51 46  1  0
 51 52  2  0
 53 52  1  0
 54 59  1  0
 55 56  1  0
 55 54  1  0
 57 56  1  0
 57 64  1  0
 57 58  1  0
 59 53  1  0
 59 58  1  0
 60 53  2  0
 61 62  2  0
 62 81  1  0
 63 62  1  0
 63 66  1  0
 64 61  1  0
 64 65  1  0
 65 63  2  0
 66 67  1  0
 67 68  2  0
 69 72  1  0
 69 68  1  0
 70 69  2  0
 71 70  1  0
 71 66  2  0
 72 73  1  0
 73 74  1  0
 74 75  2  0
 76 75  1  0
 76 80  1  0
 77 76  2  0
 78 73  2  0
 78 77  1  0
 79 78  1  0
 81 82  1  0
 82 85  1  0
 82 84  1  0
 83 81  2  0
 86 87  1  0
 86 61  1  0
 88 86  1  0
M  ISO  4   3 101   4 101  52 100  53 100
M  END
>  <TORSDO>  (40) 
F 23

>  <SCORE>  (40) 
-12.769

>  <name>  (40) 
39

>  <ligand_id>  (40) 
39

>  <original_smiles>  (40) 
[H]c1c([H])c([H])c2c(c1[H])C([H])([H])C([H])([H])C([H])([H])C2([H])N([H])C(=O)C1([H])N(C(=O)C([H])(N([H])C(=O)C([H])(N([H])C([H])([H])[H])C([H])([H])[H])C(C([H])([H])[H])(C([H])([H])[H])C([H])([H])[H])C([H])([H])c2c([H])c(OC([H])([H])C([H])([H])C([H])([H])C([H])([H])C([H])(C([H])([H])C([H])([H])C(=O)N3C([H])([H])C([H])([H])C([H])([H])C([H])(n4nc(-c5c([H])c([H])c(Oc6c([H])c([H])c(F)c([H])c6F)c([H])c5[H])c(C(=O)N([H])[H])c4N([H])[H])C3([H])[H])[N+]([H])([H])[H])c([H])c([H])c2C1([H])[H]

>  <smiles>  (40) 
[H]c1c([H])c([H])c2c(c1[H])C([H])([H])C([H])([H])C([H])([H])C2([H])N([H])C(=O)C1([H])N(C(=O)C([H])(N([H])C(=O)C([H])(N([H])C([H])([H])[H])C([H])([H])[H])C(C([H])([H])[H])(C([H])([H])[H])C([H])([H])[H])C([H])([H])c2c([H])c(OC([H])([H])C([H])([H])C([H])([H])C([H])([H])C([H])(C([H])([H])C([H])([H])C(=O)N3C([H])([H])C([H])([H])C([H])([H])C([H])(n4nc(-c5c([H])c([H])c(Oc6c([H])c([H])c(F)c([H])c6F)c([H])c5[H])c(C(=O)N([H])[H])c4N([H])[H])C3([H])[H])[N+]([H])([H])[H])c([H])c([H])c2C1([H])[H]

$$$$
40:0:0
     RDKit          3D

 86 93  0  0  1  0  0  0  0  0999 V2000
  -28.9800  -22.4790   21.0050 C   0  0  0  0  0  2  0  0  0  0  0  0
  -29.4790  -21.1600   20.2530 C   0  0  0  0  0  2  0  0  0  0  0  0
  -29.7850  -19.8400   21.1050 C   0  0  0  0  0  2  0  0  0  0  0  0
  -29.6010  -18.3990   20.4310 C   0  0  0  0  0  3  0  0  0  0  0  0
  -30.3280  -17.1550   21.1200 C   0  0  0  0  0  3  0  0  0  0  0  0
  -30.6110  -14.6570   20.4230 C   0  0  0  0  0  0  0  0  0  0  0  0
  -30.3530  -12.4260   19.3360 C   0  0  0  0  0  2  0  0  0  0  0  0
  -29.3940  -12.5250   18.1310 C   0  0  0  0  0  2  0  0  0  0  0  0
  -27.9300  -12.3690   18.5830 C   0  0  0  0  0  2  0  0  0  0  0  0
  -27.5880  -13.2500   19.8130 C   0  0  0  0  0  3  0  0  0  0  0  0
  -28.6560  -13.1200   20.9190 C   0  0  0  0  0  2  0  0  0  0  0  0
  -29.9530  -13.4560   20.3160 N   0  0  0  0  0  0  0  0  0  0  0  0
  -31.7780  -14.7790   20.0480 O   0  0  0  0  0  0  0  0  0  0  0  0
  -29.8720  -15.7510   20.8020 N   0  0  0  0  0  0  0  0  0  0  0  0
  -28.9080  -15.5450   21.0140 H   0  0  0  0  0  0  0  0  0  0  0  0
  -25.2090  -13.8580   20.5630 C   0  0  0  0  0  0  0  0  0  0  0  0
  -24.1410  -13.0890   20.9420 C   0  0  0  0  0  0  0  0  0  0  0  0
  -24.5980  -11.7360   20.9050 C   0  0  0  0  0  0  0  0  0  0  0  0
  -26.2460  -12.9730   20.3150 N   0  0  0  0  0  0  0  0  0  0  0  0
  -25.8850  -11.6930   20.5850 N   0  0  0  0  0  0  0  0  0  0  0  0
  -23.8680  -10.4760   21.0980 C   0  0  0  0  0  0  0  0  0  0  0  0
  -24.3260   -9.4880   21.9970 C   0  0  0  0  0  3  0  0  0  0  0  0
  -23.6000   -8.2930   22.1790 C   0  0  0  0  0  3  0  0  0  0  0  0
  -22.3980   -8.0770   21.4620 C   0  0  0  0  0  0  0  0  0  0  0  0
  -21.9580   -9.0530   20.5510 C   0  0  0  0  0  3  0  0  0  0  0  0
  -22.6870  -10.2400   20.3670 C   0  0  0  0  0  3  0  0  0  0  0  0
  -21.6380   -6.9350   21.5570 O   0  0  0  0  0  0  0  0  0  0  0  0
  -21.6480   -6.1560   22.6860 C   0  0  0  0  0  0  0  0  0  0  0  0
  -21.3270   -6.6810   23.9570 C   0  0  0  0  0  3  0  0  0  0  0  0
  -21.2820   -5.8290   25.0790 C   0  0  0  0  0  3  0  0  0  0  0  0
  -21.5480   -4.4540   24.9310 C   0  0  0  0  0  0  0  0  0  0  0  0
  -21.8650   -3.9300   23.6660 C   0  0  0  0  0  3  0  0  0  0  0  0
  -21.9110   -4.7790   22.5470 C   0  0  0  0  0  0  0  0  0  0  0  0
  -22.1940   -4.2640   21.3250 F   0  0  0  0  0  0  0  0  0  0  0  0
  -21.4990   -3.6350   26.0070 F   0  0  0  0  0  0  0  0  0  0  0  0
  -22.7490  -13.5720   21.2330 C   0  0  0  0  0  0  0  0  0  0  0  0
  -22.0320  -12.8730   22.1050 N   0  0  0  0  0  0  0  0  0  0  0  0
  -22.3080  -14.6000   20.7210 O   0  0  0  0  0  0  0  0  0  0  0  0
  -22.4030  -12.0400   22.5360 H   0  0  0  0  0  0  0  0  0  0  0  0
  -21.0970  -13.1720   22.3460 H   0  0  0  0  0  0  0  0  0  0  0  0
  -25.3790  -15.2290   20.3850 N   0  0  0  0  0  0  0  0  0  0  0  0
  -24.6160  -15.8890   20.4880 H   0  0  0  0  0  0  0  0  0  0  0  0
  -26.2250  -15.6560   20.0270 H   0  0  0  0  0  0  0  0  0  0  0  0
  -29.1500  -23.9070   20.2970 C   0  0  0  0  0  3  0  0  0  0  0  0
  -28.0460  -25.0230   20.5970 C   0  0  0  0  0  3  0  0  0  0  0  0
  -28.2900  -26.4390   20.1990 O   0  0  0  0  0  0  0  0  0  0  0  0
  -24.6070  -31.8740   23.2220 C   0  0  0  0  0  0  0  0  0  0  0  0
  -27.1830  -27.3050   20.1620 C   0  0  0  0  0  0  0  0  0  0  0  0
  -23.3870  -30.4750   21.5950 C   0  0  0  0  0  3  0  0  0  0  0  0
  -24.8260  -28.9290   20.1560 C   0  0  0  0  0  0  0  0  0  0  0  0
  -25.9260  -30.7960   21.3860 C   0  0  0  0  0  2  0  0  0  0  0  0
  -26.0020  -29.4170   20.7410 C   0  0  0  0  0  0  0  0  0  0  0  0
  -27.1820  -28.6140   20.7330 C   0  0  0  0  0  3  0  0  0  0  0  0
  -25.9900  -26.8820   19.5320 C   0  0  0  0  0  3  0  0  0  0  0  0
  -24.8260  -27.6700   19.5400 C   0  0  0  0  0  3  0  0  0  0  0  0
  -23.5900  -29.8020   20.2120 C   0  0  0  0  0  2  0  0  0  0  0  0
  -24.6590  -31.0640   22.1250 N   0  0  0  0  0  0  0  0  0  0  0  0
  -23.5260  -32.1490   23.7670 O   0  0  0  0  0  0  0  0  0  0  0  0
  -22.7380  -29.4550   22.5610 C   0  0  0  0  0  0  0  0  0  0  0  0
  -21.4090  -29.2770   22.4470 N   0  0  0  0  0  0  0  0  0  0  0  0
  -23.4250  -28.8260   23.3720 O   0  0  0  0  0  0  0  0  0  0  0  0
  -20.9090  -29.8350   21.7690 H   0  0  0  0  0  0  0  0  0  0  0  0
  -18.0390  -28.0670   22.9680 C   0  0  0  0  0  0  0  0  0  0  0  0
  -20.5960  -28.3400   23.2270 C   0  0  0  0  0  3  0  0  0  0  0  0
  -20.7040  -26.9030   22.6660 C   0  0  0  0  0  2  0  0  0  0  0  0
  -19.6020  -26.5660   21.6570 C   0  0  0  0  0  2  0  0  0  0  0  0
  -18.2210  -26.7140   22.3010 C   0  0  0  0  0  2  0  0  0  0  0  0
  -19.1560  -28.8390   23.3880 C   0  0  0  0  0  0  0  0  0  0  0  0
  -18.9340  -30.1050   23.9690 C   0  0  0  0  0  3  0  0  0  0  0  0
  -17.6270  -30.6010   24.1370 C   0  0  0  0  0  3  0  0  0  0  0  0
  -16.5240  -29.8270   23.7350 C   0  0  0  0  0  3  0  0  0  0  0  0
  -16.7320  -28.5620   23.1540 C   0  0  0  0  0  3  0  0  0  0  0  0
  -25.8940  -32.5120   23.8280 C   0  0  0  0  0  3  0  0  0  0  0  0
  -26.4370  -31.7360   25.0900 C   0  0  1  0  0  0  0  0  0  0  0  0
  -25.3620  -31.4850   26.1750 C   0  0  0  0  0  1  0  0  0  0  0  0
  -27.0210  -30.3640   24.6790 C   0  0  0  0  0  1  0  0  0  0  0  0
  -27.5940  -32.5300   25.7380 C   0  0  0  0  0  1  0  0  0  0  0  0
  -25.5800  -33.9050   24.1760 N   0  0  0  0  0  0  0  0  0  0  0  0
  -25.8920  -34.9660   23.4210 C   0  0  0  0  0  0  0  0  0  0  0  0
  -26.5470  -34.8760   22.3760 O   0  0  0  0  0  0  0  0  0  0  0  0
  -25.0000  -34.0500   24.9900 H   0  0  0  0  0  0  0  0  0  0  0  0
  -24.1420  -36.7460   23.1190 C   0  0  0  0  0  1  0  0  0  0  0  0
  -25.4020  -36.3450   23.9010 C   0  0  0  0  0  3  0  0  0  0  0  0
  -27.5490  -37.2370   24.6910 C   0  0  0  0  0  1  0  0  0  0  0  0
  -26.4230  -37.4100   23.7780 N   0  0  0  0  0  0  0  0  0  0  0  0
  -26.0130  -38.3230   23.9600 H   0  0  0  0  0  0  0  0  0  0  0  0
  2  1  1  0
  2  3  1  0
  4  3  1  0
  4  5  2  0
  6 14  1  0
  7 12  1  0
  8  9  1  0
  8  7  1  0
 10  9  1  0
 10 19  1  0
 10 11  1  0
 12  6  1  0
 12 11  1  0
 13  6  2  0
 14 15  1  0
 14  5  1  0
 16 17  2  0
 17 36  1  0
 18 17  1  0
 18 21  1  0
 19 16  1  0
 19 20  1  0
 20 18  2  0
 21 22  1  0
 22 23  2  0
 24 27  1  0
 24 23  1  0
 25 24  2  0
 26 25  1  0
 26 21  2  0
 27 28  1  0
 28 29  1  0
 29 30  2  0
 31 30  1  0
 31 35  1  0
 32 31  2  0
 33 28  2  0
 33 32  1  0
 34 33  1  0
 36 37  1  0
 37 40  1  0
 37 39  1  0
 38 36  2  0
 41 42  1  0
 41 16  1  0
 43 41  1  0
 44 45  2  0
 44  1  1  0
 46 45  1  0
 47 58  2  0
 48 46  1  0
 48 53  1  0
 49 57  1  0
 49 59  1  0
 50 56  1  0
 50 52  1  0
 51 57  1  0
 52 51  1  0
 53 52  2  0
 54 55  1  0
 54 48  2  0
 55 50  2  0
 56 49  1  0
 57 47  1  0
 59 61  2  0
 60 59  1  0
 62 60  1  0
 63 72  2  0
 63 68  1  0
 64 60  1  0
 64 68  1  0
 65 64  1  0
 66 67  1  0
 66 65  1  0
 67 63  1  0
 68 69  2  0
 69 70  1  0
 71 70  2  0
 72 71  1  0
 73 47  1  0
 73 78  1  0
 73 74  1  0
 74 77  1  1
 74 75  1  0
 76 74  1  0
 78 81  1  0
 79 83  1  0
 79 78  1  0
 80 79  2  0
 83 82  1  0
 85 83  1  0
 85 86  1  0
 85 84  1  0
M  ISO  4   6 100  14 100  45 101  46 101
M  END
>  <TORSDO>  (41) 
F 22

>  <SCORE>  (41) 
-12.815

>  <name>  (41) 
40

>  <ligand_id>  (41) 
40

>  <original_smiles>  (41) 
[H]c1c([H])c([H])c2c(c1[H])C([H])([H])C([H])([H])C([H])([H])C2([H])N([H])C(=O)C1([H])N(C(=O)C([H])(N([H])C(=O)C([H])(N([H])C([H])([H])[H])C([H])([H])[H])C(C([H])([H])[H])(C([H])([H])[H])C([H])([H])[H])C([H])([H])c2c([H])c(OC([H])([H])C([H])([H])C([H])([H])C([H])([H])C([H])([H])C([H])([H])C([H])([H])N([H])C(=O)N3C([H])([H])C([H])([H])C([H])([H])C([H])(n4nc(-c5c([H])c([H])c(Oc6c([H])c([H])c(F)c([H])c6F)c([H])c5[H])c(C(=O)N([H])[H])c4N([H])[H])C3([H])[H])c([H])c([H])c2C1([H])[H]

>  <smiles>  (41) 
[H]c1c([H])c([H])c2c(c1[H])C([H])([H])C([H])([H])C([H])([H])C2([H])N([H])C(=O)C1([H])N(C(=O)C([H])(N([H])C(=O)C([H])(N([H])C([H])([H])[H])C([H])([H])[H])C(C([H])([H])[H])(C([H])([H])[H])C([H])([H])[H])C([H])([H])c2c([H])c(OC([H])([H])C([H])([H])C([H])([H])C([H])([H])C([H])([H])C([H])([H])C([H])([H])N([H])C(=O)N3C([H])([H])C([H])([H])C([H])([H])C([H])(n4nc(-c5c([H])c([H])c(Oc6c([H])c([H])c(F)c([H])c6F)c([H])c5[H])c(C(=O)N([H])[H])c4N([H])[H])C3([H])[H])c([H])c([H])c2C1([H])[H]

$$$$
41:0:0
     RDKit          3D

 94102  0  0  1  0  0  0  0  0999 V2000
  -29.4700  -22.3670   19.8190 C   0  0  0  0  0  3  0  0  0  0  0  0
  -29.5250  -23.7130   20.2370 C   0  0  0  0  0  3  0  0  0  0  0  0
  -27.0760  -22.4010   20.1630 C   0  0  0  0  0  3  0  0  0  0  0  0
  -28.2310  -21.6990   19.7610 C   0  0  0  0  0  0  0  0  0  0  0  0
  -28.3710  -24.4190   20.6500 C   0  0  0  0  0  0  0  0  0  0  0  0
  -27.1170  -23.7280   20.6600 C   0  0  0  0  0  0  0  0  0  0  0  0
  -25.1730  -23.4090   22.2870 C   0  0  0  0  0  1  0  0  0  0  0  0
  -25.7810  -24.2870   21.1790 C   0  0  2  0  0  0  0  0  0  0  0  0
  -24.9170  -24.3180   20.1650 F   0  0  0  0  0  0  0  0  0  0  0  0
  -25.8380  -25.5050   21.7000 F   0  0  0  0  0  0  0  0  0  0  0  0
  -28.0630  -20.3230   19.2000 C   0  0  0  0  0  0  0  0  0  0  0  0
  -27.0700  -20.0300   18.5290 O   0  0  0  0  0  0  0  0  0  0  0  0
  -29.1070  -19.2290   19.5170 C   0  0  0  0  0  2  0  0  0  0  0  0
  -28.4740  -17.8070   19.5840 C   0  0  0  0  0  2  0  0  0  0  0  0
  -29.4300  -16.6010   19.4370 C   0  0  0  0  0  2  0  0  0  0  0  0
  -30.0180  -16.0060   20.7410 C   0  0  0  0  0  2  0  0  0  0  0  0
  -30.6950  -14.6510   20.4300 C   0  0  0  0  0  0  0  0  0  0  0  0
  -30.3360  -12.4550   19.3860 C   0  0  0  0  0  2  0  0  0  0  0  0
  -29.4500  -12.6190   18.1250 C   0  0  0  0  0  2  0  0  0  0  0  0
  -27.9580  -12.9040   18.4410 C   0  0  0  0  0  2  0  0  0  0  0  0
  -27.6490  -12.8370   19.9360 C   0  0  0  0  0  3  0  0  0  0  0  0
  -28.6620  -13.3020   20.9830 C   0  0  0  0  0  2  0  0  0  0  0  0
  -29.9780  -13.5030   20.3610 N   0  0  0  0  0  0  0  0  0  0  0  0
  -31.8590  -14.7200   20.0370 O   0  0  0  0  0  0  0  0  0  0  0  0
  -25.2390  -13.8090   20.5250 C   0  0  0  0  0  0  0  0  0  0  0  0
  -24.1290  -13.0820   20.9000 C   0  0  0  0  0  0  0  0  0  0  0  0
  -24.5370  -11.7190   20.8840 C   0  0  0  0  0  0  0  0  0  0  0  0
  -26.2470  -12.8550   20.3340 N   0  0  0  0  0  0  0  0  0  0  0  0
  -25.7990  -11.6180   20.5820 N   0  0  0  0  0  0  0  0  0  0  0  0
  -23.8260  -10.4640   21.0750 C   0  0  0  0  0  0  0  0  0  0  0  0
  -24.3020   -9.4930   21.9850 C   0  0  0  0  0  3  0  0  0  0  0  0
  -23.6130   -8.2760   22.1450 C   0  0  0  0  0  3  0  0  0  0  0  0
  -22.4370   -8.0300   21.4000 C   0  0  0  0  0  0  0  0  0  0  0  0
  -21.9890   -8.9900   20.4740 C   0  0  0  0  0  3  0  0  0  0  0  0
  -22.6790  -10.1980   20.3070 C   0  0  0  0  0  3  0  0  0  0  0  0
  -21.7070   -6.8730   21.4840 O   0  0  0  0  0  0  0  0  0  0  0  0
  -21.6930   -6.1140   22.6250 C   0  0  0  0  0  0  0  0  0  0  0  0
  -21.2890   -6.6440   23.8700 C   0  0  0  0  0  3  0  0  0  0  0  0
  -21.2290   -5.8100   25.0040 C   0  0  0  0  0  3  0  0  0  0  0  0
  -21.5580   -4.4460   24.8930 C   0  0  0  0  0  0  0  0  0  0  0  0
  -21.9540   -3.9150   23.6540 C   0  0  0  0  0  3  0  0  0  0  0  0
  -22.0200   -4.7480   22.5230 C   0  0  0  0  0  0  0  0  0  0  0  0
  -22.3830   -4.2290   21.3240 F   0  0  0  0  0  0  0  0  0  0  0  0
  -21.4900   -3.6400   25.9780 F   0  0  0  0  0  0  0  0  0  0  0  0
  -22.7390  -13.5790   21.1760 C   0  0  0  0  0  0  0  0  0  0  0  0
  -21.9990  -12.8770   22.0310 N   0  0  0  0  0  0  0  0  0  0  0  0
  -22.3080  -14.6090   20.6620 O   0  0  0  0  0  0  0  0  0  0  0  0
  -22.3530  -12.0350   22.4630 H   0  0  0  0  0  0  0  0  0  0  0  0
  -21.0550  -13.1700   22.2370 H   0  0  0  0  0  0  0  0  0  0  0  0
  -25.4560  -15.1700   20.3320 N   0  0  0  0  0  0  0  0  0  0  0  0
  -24.7100  -15.8550   20.3730 H   0  0  0  0  0  0  0  0  0  0  0  0
  -26.3350  -15.5510   20.0090 H   0  0  0  0  0  0  0  0  0  0  0  0
  -28.5830  -25.8820   21.0760 C   0  0  0  0  0  2  0  0  0  0  0  0
  -28.4950  -26.8300   20.0000 O   0  0  0  0  0  0  0  0  0  0  0  0
  -24.6580  -31.9040   23.1780 C   0  0  0  0  0  0  0  0  0  0  0  0
  -27.3430  -27.5750   20.0020 C   0  0  0  0  0  0  0  0  0  0  0  0
  -23.4650  -30.5340   21.4990 C   0  0  0  0  0  3  0  0  0  0  0  0
  -24.9350  -29.0480   20.0380 C   0  0  0  0  0  0  0  0  0  0  0  0
  -25.9880  -30.9240   21.3140 C   0  0  0  0  0  2  0  0  0  0  0  0
  -26.0870  -29.5730   20.6410 C   0  0  0  0  0  0  0  0  0  0  0  0
  -27.2980  -28.8440   20.6180 C   0  0  0  0  0  3  0  0  0  0  0  0
  -26.1860  -27.0670   19.3780 C   0  0  0  0  0  3  0  0  0  0  0  0
  -24.9810  -27.7930   19.4020 C   0  0  0  0  0  3  0  0  0  0  0  0
  -23.6820  -29.8900   20.1030 C   0  0  0  0  0  2  0  0  0  0  0  0
  -24.7210  -31.1340   22.0550 N   0  0  0  0  0  0  0  0  0  0  0  0
  -23.5740  -32.1520   23.7250 O   0  0  0  0  0  0  0  0  0  0  0  0
  -22.8220  -29.4820   22.4320 C   0  0  0  0  0  0  0  0  0  0  0  0
  -21.4960  -29.3080   22.3110 N   0  0  0  0  0  0  0  0  0  0  0  0
  -23.5120  -28.8280   23.2190 O   0  0  0  0  0  0  0  0  0  0  0  0
  -21.0030  -29.8850   21.6440 H   0  0  0  0  0  0  0  0  0  0  0  0
  -18.1170  -28.1440   22.8310 C   0  0  0  0  0  0  0  0  0  0  0  0
  -20.6830  -28.3520   23.0610 C   0  0  0  0  0  3  0  0  0  0  0  0
  -20.7540  -26.9450   22.4230 C   0  0  0  0  0  2  0  0  0  0  0  0
  -19.6280  -26.6810   21.4200 C   0  0  0  0  0  2  0  0  0  0  0  0
  -18.2610  -26.8200   22.0970 C   0  0  0  0  0  2  0  0  0  0  0  0
  -19.2560  -28.8690   23.2700 C   0  0  0  0  0  0  0  0  0  0  0  0
  -19.0710  -30.1100   23.9180 C   0  0  0  0  0  3  0  0  0  0  0  0
  -17.7790  -30.6250   24.1320 C   0  0  0  0  0  3  0  0  0  0  0  0
  -16.6540  -29.8950   23.7110 C   0  0  0  0  0  3  0  0  0  0  0  0
  -16.8230  -28.6560   23.0680 C   0  0  0  0  0  3  0  0  0  0  0  0
  -25.9390  -32.5270   23.8140 C   0  0  0  0  0  3  0  0  0  0  0  0
  -25.6240  -33.9170   24.1630 N   0  0  0  0  0  0  0  0  0  0  0  0
  -25.9500  -34.9810   23.4160 C   0  0  0  0  0  0  0  0  0  0  0  0
  -26.6190  -34.8950   22.3820 O   0  0  0  0  0  0  0  0  0  0  0  0
  -25.0290  -34.0580   24.9660 H   0  0  0  0  0  0  0  0  0  0  0  0
  -24.2050  -36.7630   23.0940 C   0  0  0  0  0  1  0  0  0  0  0  0
  -25.4550  -36.3600   23.8920 C   0  0  0  0  0  3  0  0  0  0  0  0
  -27.5870  -37.2550   24.7150 C   0  0  0  0  0  1  0  0  0  0  0  0
  -26.4760  -37.4230   23.7820 N   0  0  0  0  0  0  0  0  0  0  0  0
  -26.0630  -38.3360   23.9450 H   0  0  0  0  0  0  0  0  0  0  0  0
  -26.4570  -31.7360   25.0790 C   0  0  1  0  0  0  0  0  0  0  0  0
  -25.3630  -31.4810   26.1430 C   0  0  0  0  0  1  0  0  0  0  0  0
  -27.0470  -30.3680   24.6670 C   0  0  0  0  0  1  0  0  0  0  0  0
  -27.6000  -32.5260   25.7600 C   0  0  0  0  0  1  0  0  0  0  0  0
  1  2  1  0
  2  5  2  0
  3  6  2  0
  4  1  2  0
  4  3  1  0
  5  6  1  0
  5 53  1  0
  6  8  1  0
  8 10  1  0
  8  7  1  1
  9  8  1  0
 11 13  1  0
 11  4  1  0
 12 11  2  0
 13 14  1  0
 15 14  1  0
 15 16  1  0
 17 16  1  0
 18 23  1  0
 19 20  1  0
 19 18  1  0
 21 20  1  0
 21 28  1  0
 21 22  1  0
 23 17  1  0
 23 22  1  0
 24 17  2  0
 25 26  2  0
 26 45  1  0
 27 26  1  0
 27 30  1  0
 28 25  1  0
 28 29  1  0
 29 27  2  0
 30 31  1  0
 31 32  2  0
 33 36  1  0
 33 32  1  0
 34 33  2  0
 35 34  1  0
 35 30  2  0
 36 37  1  0
 37 38  1  0
 38 39  2  0
 40 39  1  0
 40 44  1  0
 41 40  2  0
 42 37  2  0
 42 41  1  0
 43 42  1  0
 45 46  1  0
 46 49  1  0
 46 48  1  0
 47 45  2  0
 50 51  1  0
 50 25  1  0
 52 50  1  0
 54 56  1  0
 54 53  1  0
 55 66  2  0
 56 61  1  0
 57 65  1  0
 57 67  1  0
 58 64  1  0
 58 60  1  0
 59 65  1  0
 60 59  1  0
 61 60  2  0
 62 63  1  0
 62 56  2  0
 63 58  2  0
 64 57  1  0
 65 55  1  0
 67 69  2  0
 68 67  1  0
 70 68  1  0
 71 80  2  0
 71 76  1  0
 72 68  1  0
 72 76  1  0
 73 72  1  0
 74 75  1  0
 74 73  1  0
 75 71  1  0
 76 77  2  0
 77 78  1  0
 79 78  2  0
 80 79  1  0
 81 55  1  0
 81 82  1  0
 81 91  1  0
 82 85  1  0
 83 87  1  0
 83 82  1  0
 84 83  2  0
 87 86  1  0
 89 87  1  0
 89 90  1  0
 89 88  1  0
 91 94  1  1
 91 92  1  0
 93 91  1  0
M  ISO  4  16 100  17 100  53 101  54 101
M  END
>  <TORSDO>  (42) 
F 23

>  <SCORE>  (42) 
-12.908

>  <name>  (42) 
41

>  <ligand_id>  (42) 
41

>  <original_smiles>  (42) 
[H]c1c([H])c([H])c2c(c1[H])C([H])([H])C([H])([H])C([H])([H])C2([H])N([H])C(=O)C1([H])N(C(=O)C([H])(N([H])C(=O)C([H])(N([H])C([H])([H])[H])C([H])([H])[H])C(C([H])([H])[H])(C([H])([H])[H])C([H])([H])[H])C([H])([H])c2c([H])c(OC([H])([H])c3c([H])c([H])c(C(=O)C([H])([H])C([H])([H])C([H])([H])C([H])([H])C(=O)N4C([H])([H])C([H])([H])C([H])([H])C([H])(n5nc(-c6c([H])c([H])c(Oc7c([H])c([H])c(F)c([H])c7F)c([H])c6[H])c(C(=O)N([H])[H])c5N([H])[H])C4([H])[H])c([H])c3C(F)(F)C([H])([H])[H])c([H])c([H])c2C1([H])[H]

>  <smiles>  (42) 
[H]c1c([H])c([H])c2c(c1[H])C([H])([H])C([H])([H])C([H])([H])C2([H])N([H])C(=O)C1([H])N(C(=O)C([H])(N([H])C(=O)C([H])(N([H])C([H])([H])[H])C([H])([H])[H])C(C([H])([H])[H])(C([H])([H])[H])C([H])([H])[H])C([H])([H])c2c([H])c(OC([H])([H])c3c([H])c([H])c(C(=O)C([H])([H])C([H])([H])C([H])([H])C([H])([H])C(=O)N4C([H])([H])C([H])([H])C([H])([H])C([H])(n5nc(-c6c([H])c([H])c(Oc7c([H])c([H])c(F)c([H])c7F)c([H])c6[H])c(C(=O)N([H])[H])c5N([H])[H])C4([H])[H])c([H])c3C(F)(F)C([H])([H])[H])c([H])c([H])c2C1([H])[H]

$$$$
42:0:0
     RDKit          3D

 95103  0  0  1  0  0  0  0  0999 V2000
  -29.9770  -23.6110   21.6410 C   0  0  0  0  0  2  0  0  0  0  0  0
  -30.5960  -21.5560   18.4450 C   0  0  0  0  0  3  0  0  0  0  0  0
  -29.9860  -20.3320   18.7740 C   0  0  0  0  0  3  0  0  0  0  0  0
  -30.5780  -22.6250   19.3590 C   0  0  0  0  0  3  0  0  0  0  0  0
  -29.3020  -21.2620   20.9250 C   0  0  0  0  0  3  0  0  0  0  0  0
  -29.3510  -20.1730   20.0240 C   0  0  0  0  0  0  0  0  0  0  0  0
  -29.9230  -22.4920   20.6040 C   0  0  0  0  0  0  0  0  0  0  0  0
  -28.7350  -18.8270   20.3920 C   0  0  0  0  0  2  0  0  0  0  0  0
  -29.7460  -17.8350   20.9800 C   0  0  0  0  0  0  0  0  0  0  0  0
  -30.5850  -18.1910   21.8150 O   0  0  0  0  0  0  0  0  0  0  0  0
  -29.6410  -16.3810   20.5080 C   0  0  0  0  0  2  0  0  0  0  0  0
  -30.6370  -15.3870   21.1580 C   0  0  0  0  0  2  0  0  0  0  0  0
  -31.0680  -14.3030   20.1610 C   0  0  0  0  0  0  0  0  0  0  0  0
  -30.6270  -12.1950   18.9480 C   0  0  0  0  0  2  0  0  0  0  0  0
  -29.6590  -12.4370   17.7740 C   0  0  0  0  0  2  0  0  0  0  0  0
  -28.1920  -12.3600   18.2390 C   0  0  0  0  0  2  0  0  0  0  0  0
  -27.9260  -13.2180   19.5010 C   0  0  0  0  0  3  0  0  0  0  0  0
  -28.9920  -12.9400   20.5840 C   0  0  0  0  0  2  0  0  0  0  0  0
  -30.3220  -13.1780   19.9980 N   0  0  0  0  0  0  0  0  0  0  0  0
  -32.0980  -14.5120   19.5090 O   0  0  0  0  0  0  0  0  0  0  0  0
  -25.5710  -13.9400   20.2580 C   0  0  0  0  0  0  0  0  0  0  0  0
  -24.4800  -13.2180   20.6590 C   0  0  0  0  0  0  0  0  0  0  0  0
  -24.8800  -11.8470   20.6330 C   0  0  0  0  0  0  0  0  0  0  0  0
  -26.5710  -13.0110   20.0130 N   0  0  0  0  0  0  0  0  0  0  0  0
  -26.1580  -11.7480   20.2930 N   0  0  0  0  0  0  0  0  0  0  0  0
  -24.1040  -10.6190   20.8520 C   0  0  0  0  0  0  0  0  0  0  0  0
  -24.5060   -9.6530   21.7990 C   0  0  0  0  0  3  0  0  0  0  0  0
  -23.7350   -8.4890   22.0060 C   0  0  0  0  0  3  0  0  0  0  0  0
  -22.5460   -8.2850   21.2650 C   0  0  0  0  0  0  0  0  0  0  0  0
  -22.1620   -9.2390   20.3060 C   0  0  0  0  0  3  0  0  0  0  0  0
  -22.9350  -10.3940   20.1000 C   0  0  0  0  0  3  0  0  0  0  0  0
  -21.7470   -7.1730   21.3800 O   0  0  0  0  0  0  0  0  0  0  0  0
  -21.6580   -6.4690   22.5530 C   0  0  0  0  0  0  0  0  0  0  0  0
  -21.2600   -7.0810   23.7620 C   0  0  0  0  0  3  0  0  0  0  0  0
  -21.1170   -6.3060   24.9290 C   0  0  0  0  0  3  0  0  0  0  0  0
  -21.3630   -4.9200   24.8900 C   0  0  0  0  0  0  0  0  0  0  0  0
  -21.7540   -4.3080   23.6860 C   0  0  0  0  0  3  0  0  0  0  0  0
  -21.9010   -5.0810   22.5210 C   0  0  0  0  0  0  0  0  0  0  0  0
  -22.2570   -4.4840   21.3570 F   0  0  0  0  0  0  0  0  0  0  0  0
  -21.2170   -4.1720   26.0090 F   0  0  0  0  0  0  0  0  0  0  0  0
  -23.1100  -13.7570   20.9590 C   0  0  0  0  0  0  0  0  0  0  0  0
  -22.3770  -13.1050   21.8550 N   0  0  0  0  0  0  0  0  0  0  0  0
  -22.6990  -14.7910   20.4350 O   0  0  0  0  0  0  0  0  0  0  0  0
  -22.7200  -12.2660   22.2980 H   0  0  0  0  0  0  0  0  0  0  0  0
  -21.4590  -13.4470   22.0990 H   0  0  0  0  0  0  0  0  0  0  0  0
  -25.7890  -15.3000   20.0560 N   0  0  0  0  0  0  0  0  0  0  0  0
  -25.0460  -15.9850   20.1500 H   0  0  0  0  0  0  0  0  0  0  0  0
  -26.6280  -15.6830   19.6440 H   0  0  0  0  0  0  0  0  0  0  0  0
  -29.8350  -25.0630   21.1050 C   0  0  0  0  0  3  0  0  0  0  0  0
  -30.2900  -26.0300   22.1300 N   0  0  0  0  0  4  0  0  0  0  0  0
  -29.7160  -26.0050   22.9570 H   0  0  0  0  0  0  0  0  0  0  0  0
  -30.2480  -26.9610   21.7460 H   0  0  0  0  0  0  0  0  0  0  0  0
  -31.2440  -25.8530   22.3960 H   0  0  0  0  0  0  0  0  0  0  0  0
  -28.4050  -25.4320   20.6540 C   0  0  0  0  0  2  0  0  0  0  0  0
  -28.4510  -26.7740   20.1580 O   0  0  0  0  0  0  0  0  0  0  0  0
  -24.5920  -31.8710   23.2360 C   0  0  0  0  0  0  0  0  0  0  0  0
  -27.2620  -27.4600   20.1640 C   0  0  0  0  0  0  0  0  0  0  0  0
  -23.3900  -30.4640   21.5940 C   0  0  0  0  0  3  0  0  0  0  0  0
  -24.8500  -28.9300   20.1720 C   0  0  0  0  0  0  0  0  0  0  0  0
  -25.9100  -30.8430   21.3900 C   0  0  0  0  0  2  0  0  0  0  0  0
  -26.0040  -29.4730   20.7510 C   0  0  0  0  0  0  0  0  0  0  0  0
  -27.2140  -28.7490   20.7360 C   0  0  0  0  0  3  0  0  0  0  0  0
  -26.0920  -26.9190   19.5830 C   0  0  0  0  0  3  0  0  0  0  0  0
  -24.8890  -27.6520   19.5840 C   0  0  0  0  0  3  0  0  0  0  0  0
  -23.6010  -29.7810   20.2160 C   0  0  0  0  0  2  0  0  0  0  0  0
  -24.6490  -31.0730   22.1320 N   0  0  0  0  0  0  0  0  0  0  0  0
  -23.5110  -32.1380   23.7770 O   0  0  0  0  0  0  0  0  0  0  0  0
  -22.7450  -29.4400   22.5550 C   0  0  0  0  0  0  0  0  0  0  0  0
  -21.4190  -29.2620   22.4350 N   0  0  0  0  0  0  0  0  0  0  0  0
  -23.4310  -28.8090   23.3620 O   0  0  0  0  0  0  0  0  0  0  0  0
  -20.9240  -29.8230   21.7560 H   0  0  0  0  0  0  0  0  0  0  0  0
  -18.0440  -28.0810   22.9480 C   0  0  0  0  0  0  0  0  0  0  0  0
  -20.6040  -28.3240   23.2060 C   0  0  0  0  0  3  0  0  0  0  0  0
  -20.6960  -26.8950   22.6200 C   0  0  0  0  0  2  0  0  0  0  0  0
  -19.5860  -26.5840   21.6110 C   0  0  0  0  0  2  0  0  0  0  0  0
  -18.2080  -26.7340   22.2640 C   0  0  0  0  0  2  0  0  0  0  0  0
  -19.1700  -28.8340   23.3760 C   0  0  0  0  0  0  0  0  0  0  0  0
  -18.9630  -30.0970   23.9730 C   0  0  0  0  0  3  0  0  0  0  0  0
  -17.6620  -30.6050   24.1490 C   0  0  0  0  0  3  0  0  0  0  0  0
  -16.5500  -29.8480   23.7390 C   0  0  0  0  0  3  0  0  0  0  0  0
  -16.7430  -28.5890   23.1450 C   0  0  0  0  0  3  0  0  0  0  0  0
  -25.8770  -32.5040   23.8560 C   0  0  0  0  0  3  0  0  0  0  0  0
  -26.4000  -31.7330   25.1310 C   0  0  1  0  0  0  0  0  0  0  0  0
  -25.3100  -31.4940   26.2010 C   0  0  0  0  0  1  0  0  0  0  0  0
  -26.9860  -30.3580   24.7370 C   0  0  0  0  0  1  0  0  0  0  0  0
  -27.5490  -32.5320   25.7930 C   0  0  0  0  0  1  0  0  0  0  0  0
  -25.5680  -33.9020   24.1820 N   0  0  0  0  0  0  0  0  0  0  0  0
  -25.9080  -34.9530   23.4230 C   0  0  0  0  0  0  0  0  0  0  0  0
  -26.5860  -34.8470   22.3970 O   0  0  0  0  0  0  0  0  0  0  0  0
  -24.9660  -34.0590   24.9780 H   0  0  0  0  0  0  0  0  0  0  0  0
  -24.1830  -36.7440   23.0450 C   0  0  0  0  0  1  0  0  0  0  0  0
  -25.4140  -36.3410   23.8720 C   0  0  0  0  0  3  0  0  0  0  0  0
  -27.5440  -37.2210   24.7230 C   0  0  0  0  0  1  0  0  0  0  0  0
  -26.4480  -37.3950   23.7720 N   0  0  0  0  0  0  0  0  0  0  0  0
  -26.0410  -38.3140   23.9240 H   0  0  0  0  0  0  0  0  0  0  0  0
  2  3  2  0
  2  4  1  0
  3  6  1  0
  4  7  2  0
  6  8  1  0
  6  5  2  0
  7  5  1  0
  7  1  1  0
  8  9  1  0
  9 10  2  0
 11  9  1  0
 11 12  1  0
 13 12  1  0
 14 19  1  0
 15 16  1  0
 15 14  1  0
 17 16  1  0
 17 24  1  0
 17 18  1  0
 19 13  1  0
 19 18  1  0
 20 13  2  0
 21 22  2  0
 22 41  1  0
 23 22  1  0
 23 26  1  0
 24 21  1  0
 24 25  1  0
 25 23  2  0
 26 27  1  0
 27 28  2  0
 29 32  1  0
 29 28  1  0
 30 29  2  0
 31 30  1  0
 31 26  2  0
 32 33  1  0
 33 34  1  0
 34 35  2  0
 36 35  1  0
 36 40  1  0
 37 36  2  0
 38 33  2  0
 38 37  1  0
 39 38  1  0
 41 42  1  0
 42 45  1  0
 42 44  1  0
 43 41  2  0
 46 47  1  0
 46 21  1  0
 48 46  1  0
 49 54  1  0
 49  1  1  0
 49 50  1  0
 50 53  1  0
 50 51  1  0
 52 50  1  0
 55 57  1  0
 55 54  1  0
 56 67  2  0
 57 62  1  0
 58 66  1  0
 58 68  1  0
 59 65  1  0
 59 61  1  0
 60 66  1  0
 61 60  1  0
 62 61  2  0
 63 64  1  0
 63 57  2  0
 64 59  2  0
 65 58  1  0
 66 56  1  0
 68 70  2  0
 69 68  1  0
 71 69  1  0
 72 81  2  0
 72 77  1  0
 73 69  1  0
 73 77  1  0
 74 73  1  0
 75 76  1  0
 75 74  1  0
 76 72  1  0
 77 78  2  0
 78 79  1  0
 80 79  2  0
 81 80  1  0
 82 56  1  0
 82 87  1  0
 82 83  1  0
 83 86  1  1
 83 84  1  0
 85 83  1  0
 87 90  1  0
 88 92  1  0
 88 87  1  0
 89 88  2  0
 92 91  1  0
 94 92  1  0
 94 95  1  0
 94 93  1  0
M  ISO  4  12 100  13 100  54 101  55 101
M  END
>  <TORSDO>  (43) 
F 24

>  <SCORE>  (43) 
-12.823

>  <name>  (43) 
42

>  <ligand_id>  (43) 
42

>  <original_smiles>  (43) 
[H]c1c([H])c([H])c2c(c1[H])C([H])([H])C([H])([H])C([H])([H])C2([H])N([H])C(=O)C1([H])N(C(=O)C([H])(N([H])C(=O)C([H])(N([H])C([H])([H])[H])C([H])([H])[H])C(C([H])([H])[H])(C([H])([H])[H])C([H])([H])[H])C([H])([H])c2c([H])c(OC([H])([H])C([H])(C([H])([H])c3c([H])c([H])c([H])c(C([H])([H])C(=O)C([H])([H])C([H])([H])C(=O)N4C([H])([H])C([H])([H])C([H])([H])C([H])(n5nc(-c6c([H])c([H])c(Oc7c([H])c([H])c(F)c([H])c7F)c([H])c6[H])c(C(=O)N([H])[H])c5N([H])[H])C4([H])[H])c3[H])[N+]([H])([H])[H])c([H])c([H])c2C1([H])[H]

>  <smiles>  (43) 
[H]c1c([H])c([H])c2c(c1[H])C([H])([H])C([H])([H])C([H])([H])C2([H])N([H])C(=O)C1([H])N(C(=O)C([H])(N([H])C(=O)C([H])(N([H])C([H])([H])[H])C([H])([H])[H])C(C([H])([H])[H])(C([H])([H])[H])C([H])([H])[H])C([H])([H])c2c([H])c(OC([H])([H])C([H])(C([H])([H])c3c([H])c([H])c([H])c(C([H])([H])C(=O)C([H])([H])C([H])([H])C(=O)N4C([H])([H])C([H])([H])C([H])([H])C([H])(n5nc(-c6c([H])c([H])c(Oc7c([H])c([H])c(F)c([H])c7F)c([H])c6[H])c(C(=O)N([H])[H])c5N([H])[H])C4([H])[H])c3[H])[N+]([H])([H])[H])c([H])c([H])c2C1([H])[H]

$$$$
43:0:0
     RDKit          3D

 89 96  0  0  1  0  0  0  0  0999 V2000
  -30.3640  -22.9920   19.6680 C   0  0  0  0  0  2  0  0  0  0  0  0
  -29.7100  -21.6190   19.5010 C   0  0  0  0  0  2  0  0  0  0  0  0
  -30.4440  -20.4650   20.2000 C   0  0  0  0  0  2  0  0  0  0  0  0
  -29.7350  -19.1510   19.8450 C   0  0  0  0  0  2  0  0  0  0  0  0
  -30.1830  -17.9000   20.5980 C   0  0  0  0  0  0  0  0  0  0  0  0
  -30.8620  -17.9390   21.6290 O   0  0  0  0  0  0  0  0  0  0  0  0
  -29.6920  -16.5990   19.9750 C   0  0  0  0  0  2  0  0  0  0  0  0
  -30.6360  -14.4180   20.4860 C   0  0  0  0  0  0  0  0  0  0  0  0
  -30.3470  -12.2750   19.3400 C   0  0  0  0  0  2  0  0  0  0  0  0
  -29.4040  -12.5340   18.1420 C   0  0  0  0  0  2  0  0  0  0  0  0
  -27.9240  -12.4140   18.5680 C   0  0  0  0  0  2  0  0  0  0  0  0
  -27.6040  -13.2200   19.8560 C   0  0  0  0  0  3  0  0  0  0  0  0
  -28.6580  -12.9410   20.9550 C   0  0  0  0  0  2  0  0  0  0  0  0
  -29.9940  -13.2270   20.4000 N   0  0  0  0  0  0  0  0  0  0  0  0
  -31.7540  -14.6360   20.0100 O   0  0  0  0  0  0  0  0  0  0  0  0
  -29.8310  -15.4230   20.8350 N   0  0  0  0  0  0  0  0  0  0  0  0
  -28.9950  -15.1550   21.3310 H   0  0  0  0  0  0  0  0  0  0  0  0
  -25.2040  -13.8460   20.5570 C   0  0  0  0  0  0  0  0  0  0  0  0
  -24.1320  -13.0800   20.9310 C   0  0  0  0  0  0  0  0  0  0  0  0
  -24.5870  -11.7260   20.9000 C   0  0  0  0  0  0  0  0  0  0  0  0
  -26.2450  -12.9590   20.3280 N   0  0  0  0  0  0  0  0  0  0  0  0
  -25.8750  -11.6800   20.5870 N   0  0  0  0  0  0  0  0  0  0  0  0
  -23.8560  -10.4660   21.0940 C   0  0  0  0  0  0  0  0  0  0  0  0
  -24.3070   -9.4850   22.0040 C   0  0  0  0  0  3  0  0  0  0  0  0
  -23.5800   -8.2890   22.1870 C   0  0  0  0  0  3  0  0  0  0  0  0
  -22.3860   -8.0680   21.4600 C   0  0  0  0  0  0  0  0  0  0  0  0
  -21.9520   -9.0380   20.5400 C   0  0  0  0  0  3  0  0  0  0  0  0
  -22.6820  -10.2250   20.3550 C   0  0  0  0  0  3  0  0  0  0  0  0
  -21.6290   -6.9250   21.5510 O   0  0  0  0  0  0  0  0  0  0  0  0
  -21.6250   -6.1530   22.6840 C   0  0  0  0  0  0  0  0  0  0  0  0
  -21.2790   -6.6830   23.9470 C   0  0  0  0  0  3  0  0  0  0  0  0
  -21.2190   -5.8390   25.0730 C   0  0  0  0  0  3  0  0  0  0  0  0
  -21.4970   -4.4650   24.9400 C   0  0  0  0  0  0  0  0  0  0  0  0
  -21.8390   -3.9340   23.6850 C   0  0  0  0  0  3  0  0  0  0  0  0
  -21.8980   -4.7760   22.5600 C   0  0  0  0  0  0  0  0  0  0  0  0
  -22.2050   -4.2550   21.3470 F   0  0  0  0  0  0  0  0  0  0  0  0
  -21.4340   -3.6540   26.0220 F   0  0  0  0  0  0  0  0  0  0  0  0
  -22.7370  -13.5620   21.2100 C   0  0  0  0  0  0  0  0  0  0  0  0
  -22.0110  -12.8710   22.0820 N   0  0  0  0  0  0  0  0  0  0  0  0
  -22.2970  -14.5870   20.6890 O   0  0  0  0  0  0  0  0  0  0  0  0
  -22.3810  -12.0430   22.5270 H   0  0  0  0  0  0  0  0  0  0  0  0
  -21.0730  -13.1700   22.3090 H   0  0  0  0  0  0  0  0  0  0  0  0
  -25.3780  -15.2150   20.3750 N   0  0  0  0  0  0  0  0  0  0  0  0
  -24.6230  -15.8840   20.4810 H   0  0  0  0  0  0  0  0  0  0  0  0
  -26.2340  -15.6360   20.0330 H   0  0  0  0  0  0  0  0  0  0  0  0
  -29.4550  -24.0900   19.0930 C   0  0  0  0  0  2  0  0  0  0  0  0
  -30.1030  -25.4810   19.0370 C   0  0  0  0  0  2  0  0  0  0  0  0
  -29.0560  -26.5930   18.8750 C   0  0  0  0  0  2  0  0  0  0  0  0
  -28.4320  -26.7790   20.1370 O   0  0  0  0  0  0  0  0  0  0  0  0
  -24.6160  -31.8890   23.2320 C   0  0  0  0  0  0  0  0  0  0  0  0
  -27.2620  -27.4910   20.1210 C   0  0  0  0  0  0  0  0  0  0  0  0
  -23.4000  -30.4840   21.5950 C   0  0  0  0  0  3  0  0  0  0  0  0
  -24.8510  -28.9500   20.1590 C   0  0  0  0  0  0  0  0  0  0  0  0
  -25.9190  -30.8570   21.3810 C   0  0  0  0  0  2  0  0  0  0  0  0
  -26.0060  -29.4870   20.7460 C   0  0  0  0  0  0  0  0  0  0  0  0
  -27.2100  -28.7560   20.7390 C   0  0  0  0  0  3  0  0  0  0  0  0
  -26.0950  -26.9510   19.5410 C   0  0  0  0  0  3  0  0  0  0  0  0
  -24.8880  -27.6780   19.5610 C   0  0  0  0  0  3  0  0  0  0  0  0
  -23.6040  -29.8030   20.2130 C   0  0  0  0  0  2  0  0  0  0  0  0
  -24.6640  -31.0910   22.1280 N   0  0  0  0  0  0  0  0  0  0  0  0
  -23.5400  -32.1580   23.7790 O   0  0  0  0  0  0  0  0  0  0  0  0
  -22.7600  -29.4610   22.5590 C   0  0  0  0  0  0  0  0  0  0  0  0
  -21.4360  -29.2760   22.4410 N   0  0  0  0  0  0  0  0  0  0  0  0
  -23.4510  -28.8360   23.3690 O   0  0  0  0  0  0  0  0  0  0  0  0
  -20.9390  -29.8350   21.7600 H   0  0  0  0  0  0  0  0  0  0  0  0
  -18.0690  -28.0740   22.9490 C   0  0  0  0  0  0  0  0  0  0  0  0
  -20.6260  -28.3370   23.2160 C   0  0  0  0  0  3  0  0  0  0  0  0
  -20.7300  -26.9060   22.6420 C   0  0  0  0  0  2  0  0  0  0  0  0
  -19.6270  -26.5780   21.6310 C   0  0  0  0  0  2  0  0  0  0  0  0
  -18.2460  -26.7230   22.2780 C   0  0  0  0  0  2  0  0  0  0  0  0
  -19.1870  -28.8390   23.3760 C   0  0  0  0  0  0  0  0  0  0  0  0
  -18.9670  -30.1040   23.9640 C   0  0  0  0  0  3  0  0  0  0  0  0
  -17.6620  -30.6040   24.1300 C   0  0  0  0  0  3  0  0  0  0  0  0
  -16.5580  -29.8360   23.7180 C   0  0  0  0  0  3  0  0  0  0  0  0
  -16.7630  -28.5740   23.1350 C   0  0  0  0  0  3  0  0  0  0  0  0
  -25.9060  -32.5200   23.8420 C   0  0  0  0  0  3  0  0  0  0  0  0
  -25.5970  -33.9150   24.1820 N   0  0  0  0  0  0  0  0  0  0  0  0
  -25.9240  -34.9720   23.4250 C   0  0  0  0  0  0  0  0  0  0  0  0
  -26.5870  -34.8750   22.3890 O   0  0  0  0  0  0  0  0  0  0  0  0
  -25.0090  -34.0670   24.9870 H   0  0  0  0  0  0  0  0  0  0  0  0
  -24.1870  -36.7570   23.0880 C   0  0  0  0  0  1  0  0  0  0  0  0
  -25.4350  -36.3560   23.8900 C   0  0  0  0  0  3  0  0  0  0  0  0
  -27.5760  -37.2390   24.7070 C   0  0  0  0  0  1  0  0  0  0  0  0
  -26.4630  -37.4130   23.7750 N   0  0  0  0  0  0  0  0  0  0  0  0
  -26.0560  -38.3310   23.9360 H   0  0  0  0  0  0  0  0  0  0  0  0
  -26.4430  -31.7430   25.1050 C   0  0  1  0  0  0  0  0  0  0  0  0
  -25.3650  -31.4950   26.1860 C   0  0  0  0  0  1  0  0  0  0  0  0
  -27.0260  -30.3710   24.6920 C   0  0  0  0  0  1  0  0  0  0  0  0
  -27.6010  -32.5350   25.7560 C   0  0  0  0  0  1  0  0  0  0  0  0
  2  1  1  0
  2  3  1  0
  4  3  1  0
  4  5  1  0
  5  6  2  0
  7  5  1  0
  7 16  1  0
  8 16  1  0
  9 14  1  0
 10 11  1  0
 10  9  1  0
 12 11  1  0
 12 21  1  0
 12 13  1  0
 14  8  1  0
 14 13  1  0
 15  8  2  0
 16 17  1  0
 18 19  2  0
 19 38  1  0
 20 19  1  0
 20 23  1  0
 21 18  1  0
 21 22  1  0
 22 20  2  0
 23 24  1  0
 24 25  2  0
 26 29  1  0
 26 25  1  0
 27 26  2  0
 28 27  1  0
 28 23  2  0
 29 30  1  0
 30 31  1  0
 31 32  2  0
 33 32  1  0
 33 37  1  0
 34 33  2  0
 35 30  2  0
 35 34  1  0
 36 35  1  0
 38 39  1  0
 39 42  1  0
 39 41  1  0
 40 38  2  0
 43 44  1  0
 43 18  1  0
 45 43  1  0
 46  1  1  0
 47 46  1  0
 48 47  1  0
 48 49  1  0
 50 61  2  0
 51 49  1  0
 51 56  1  0
 52 60  1  0
 52 62  1  0
 53 59  1  0
 53 55  1  0
 54 60  1  0
 55 54  1  0
 56 55  2  0
 57 58  1  0
 57 51  2  0
 58 53  2  0
 59 52  1  0
 60 50  1  0
 62 64  2  0
 63 62  1  0
 65 63  1  0
 66 75  2  0
 66 71  1  0
 67 63  1  0
 67 71  1  0
 68 67  1  0
 69 70  1  0
 69 68  1  0
 70 66  1  0
 71 72  2  0
 72 73  1  0
 74 73  2  0
 75 74  1  0
 76 50  1  0
 76 77  1  0
 76 86  1  0
 77 80  1  0
 78 82  1  0
 78 77  1  0
 79 78  2  0
 82 81  1  0
 84 82  1  0
 84 85  1  0
 84 83  1  0
 86 89  1  1
 86 87  1  0
 88 86  1  0
M  ISO  4   8 100  16 100  48 101  49 101
M  END
>  <TORSDO>  (44) 
F 24

>  <SCORE>  (44) 
-12.335

>  <name>  (44) 
43

>  <ligand_id>  (44) 
43

>  <original_smiles>  (44) 
[H]c1c([H])c([H])c2c(c1[H])C([H])([H])C([H])([H])C([H])([H])C2([H])N([H])C(=O)C1([H])N(C(=O)C([H])(N([H])C(=O)C([H])(N([H])C([H])([H])[H])C([H])([H])[H])C(C([H])([H])[H])(C([H])([H])[H])C([H])([H])[H])C([H])([H])c2c([H])c(OC([H])([H])C([H])([H])C([H])([H])C([H])([H])C([H])([H])C([H])([H])C([H])([H])C(=O)C([H])([H])N([H])C(=O)N3C([H])([H])C([H])([H])C([H])([H])C([H])(n4nc(-c5c([H])c([H])c(Oc6c([H])c([H])c(F)c([H])c6F)c([H])c5[H])c(C(=O)N([H])[H])c4N([H])[H])C3([H])[H])c([H])c([H])c2C1([H])[H]

>  <smiles>  (44) 
[H]c1c([H])c([H])c2c(c1[H])C([H])([H])C([H])([H])C([H])([H])C2([H])N([H])C(=O)C1([H])N(C(=O)C([H])(N([H])C(=O)C([H])(N([H])C([H])([H])[H])C([H])([H])[H])C(C([H])([H])[H])(C([H])([H])[H])C([H])([H])[H])C([H])([H])c2c([H])c(OC([H])([H])C([H])([H])C([H])([H])C([H])([H])C([H])([H])C([H])([H])C([H])([H])C(=O)C([H])([H])N([H])C(=O)N3C([H])([H])C([H])([H])C([H])([H])C([H])(n4nc(-c5c([H])c([H])c(Oc6c([H])c([H])c(F)c([H])c6F)c([H])c5[H])c(C(=O)N([H])[H])c4N([H])[H])C3([H])[H])c([H])c([H])c2C1([H])[H]

$$$$
44:0:0
     RDKit          3D

 95103  0  0  1  0  0  0  0  0999 V2000
  -33.7420  -20.3870   16.5580 C   0  0  0  0  0  2  0  0  0  0  0  0
  -31.4340  -17.5280   15.4120 C   0  0  0  0  0  3  0  0  0  0  0  0
  -30.9090  -17.0790   16.6470 C   0  0  0  0  0  3  0  0  0  0  0  0
  -32.3240  -18.6140   15.3830 C   0  0  0  0  0  3  0  0  0  0  0  0
  -31.2510  -17.6870   17.8890 C   0  0  0  0  0  0  0  0  0  0  0  0
  -32.6750  -19.2740   16.5840 C   0  0  0  0  0  0  0  0  0  0  0  0
  -32.1200  -18.8270   17.8190 C   0  0  0  0  0  0  0  0  0  0  0  0
  -32.5020  -19.4730   18.9590 F   0  0  0  0  0  0  0  0  0  0  0  0
  -30.4720  -15.6890   19.2830 C   0  0  0  0  0  2  0  0  0  0  0  0
  -30.9510  -16.9690   19.2020 C   0  0  0  0  0  3  0  0  0  0  0  0
  -30.7770  -14.7710   20.3990 C   0  0  0  0  0  0  0  0  0  0  0  0
  -30.5480  -12.4970   19.5370 C   0  0  0  0  0  2  0  0  0  0  0  0
  -29.6170  -12.4310   18.3120 C   0  0  0  0  0  2  0  0  0  0  0  0
  -28.1310  -12.3670   18.7230 C   0  0  0  0  0  2  0  0  0  0  0  0
  -27.7320  -13.3360   19.8650 C   0  0  0  0  0  3  0  0  0  0  0  0
  -28.7810  -13.3420   20.9990 C   0  0  0  0  0  2  0  0  0  0  0  0
  -30.0990  -13.5910   20.4040 N   0  0  0  0  0  0  0  0  0  0  0  0
  -31.9260  -14.8280   20.8140 O   0  0  0  0  0  0  0  0  0  0  0  0
  -25.3150  -13.9140   20.5440 C   0  0  0  0  0  0  0  0  0  0  0  0
  -24.2430  -13.1260   20.8850 C   0  0  0  0  0  0  0  0  0  0  0  0
  -24.7290  -11.7850   20.8910 C   0  0  0  0  0  0  0  0  0  0  0  0
  -26.3800  -13.0470   20.3570 N   0  0  0  0  0  0  0  0  0  0  0  0
  -26.0300  -11.7640   20.6370 N   0  0  0  0  0  0  0  0  0  0  0  0
  -24.0150  -10.5110   21.0610 C   0  0  0  0  0  0  0  0  0  0  0  0
  -24.4310   -9.5580   22.0130 C   0  0  0  0  0  3  0  0  0  0  0  0
  -23.7220   -8.3480   22.1730 C   0  0  0  0  0  3  0  0  0  0  0  0
  -22.5810   -8.0840   21.3780 C   0  0  0  0  0  0  0  0  0  0  0  0
  -22.1820   -9.0290   20.4150 C   0  0  0  0  0  3  0  0  0  0  0  0
  -22.8930  -10.2300   20.2540 C   0  0  0  0  0  3  0  0  0  0  0  0
  -21.8380   -6.9300   21.4520 O   0  0  0  0  0  0  0  0  0  0  0  0
  -21.7650   -6.1920   22.6030 C   0  0  0  0  0  0  0  0  0  0  0  0
  -21.2790   -6.7430   23.8110 C   0  0  0  0  0  3  0  0  0  0  0  0
  -21.1530   -5.9300   24.9550 C   0  0  0  0  0  3  0  0  0  0  0  0
  -21.5040   -4.5690   24.8950 C   0  0  0  0  0  0  0  0  0  0  0  0
  -21.9800   -4.0170   23.6930 C   0  0  0  0  0  3  0  0  0  0  0  0
  -22.1080   -4.8250   22.5510 C   0  0  0  0  0  0  0  0  0  0  0  0
  -22.5500   -4.2840   21.3890 F   0  0  0  0  0  0  0  0  0  0  0  0
  -21.3750   -3.7850   25.9920 F   0  0  0  0  0  0  0  0  0  0  0  0
  -22.8290  -13.5840   21.0920 C   0  0  0  0  0  0  0  0  0  0  0  0
  -22.0770  -12.8820   21.9340 N   0  0  0  0  0  0  0  0  0  0  0  0
  -22.3960  -14.5970   20.5470 O   0  0  0  0  0  0  0  0  0  0  0  0
  -22.4380  -12.0620   22.3980 H   0  0  0  0  0  0  0  0  0  0  0  0
  -21.1250  -13.1680   22.1160 H   0  0  0  0  0  0  0  0  0  0  0  0
  -25.4590  -15.2820   20.3570 N   0  0  0  0  0  0  0  0  0  0  0  0
  -24.6850  -15.9290   20.4460 H   0  0  0  0  0  0  0  0  0  0  0  0
  -26.3230  -15.7370   20.0770 H   0  0  0  0  0  0  0  0  0  0  0  0
  -31.2680  -17.6530   20.3270 O   0  0  0  0  0  0  0  0  0  0  0  0
  -31.4640  -18.5550   20.0890 H   0  0  0  0  0  0  0  0  0  0  0  0
  -33.2240  -21.8480   16.4470 C   0  0  0  0  0  2  0  0  0  0  0  0
  -31.8810  -22.1580   17.1410 C   0  0  0  0  0  2  0  0  0  0  0  0
  -31.4890  -23.6570   17.1640 C   0  0  0  0  0  2  0  0  0  0  0  0
  -30.3210  -23.9240   18.1580 C   0  0  0  0  0  2  0  0  0  0  0  0
  -29.8680  -25.3930   18.4290 C   0  0  0  0  0  2  0  0  0  0  0  0
  -28.7280  -25.4800   19.4990 C   0  0  0  0  0  2  0  0  0  0  0  0
  -28.5330  -26.7980   20.0700 O   0  0  0  0  0  0  0  0  0  0  0  0
  -24.5730  -31.8820   23.2230 C   0  0  0  0  0  0  0  0  0  0  0  0
  -27.2990  -27.4480   20.1020 C   0  0  0  0  0  0  0  0  0  0  0  0
  -23.4110  -30.4880   21.5470 C   0  0  0  0  0  3  0  0  0  0  0  0
  -24.8910  -28.9670   20.1350 C   0  0  0  0  0  0  0  0  0  0  0  0
  -25.9440  -30.8370   21.4180 C   0  0  0  0  0  2  0  0  0  0  0  0
  -26.0360  -29.4680   20.7620 C   0  0  0  0  0  0  0  0  0  0  0  0
  -27.2350  -28.7110   20.7490 C   0  0  0  0  0  3  0  0  0  0  0  0
  -26.1120  -26.9530   19.5070 C   0  0  0  0  0  3  0  0  0  0  0  0
  -24.9210  -27.7100   19.5090 C   0  0  0  0  0  3  0  0  0  0  0  0
  -23.6540  -29.8400   20.1600 C   0  0  0  0  0  2  0  0  0  0  0  0
  -24.6620  -31.0840   22.1200 N   0  0  0  0  0  0  0  0  0  0  0  0
  -23.4780  -32.1550   23.7380 O   0  0  0  0  0  0  0  0  0  0  0  0
  -22.7390  -29.4580   22.4860 C   0  0  0  0  0  0  0  0  0  0  0  0
  -21.4170  -29.2810   22.3280 N   0  0  0  0  0  0  0  0  0  0  0  0
  -23.4070  -28.8290   23.3110 O   0  0  0  0  0  0  0  0  0  0  0  0
  -20.9520  -29.8340   21.6220 H   0  0  0  0  0  0  0  0  0  0  0  0
  -18.0240  -28.1080   22.7640 C   0  0  0  0  0  0  0  0  0  0  0  0
  -20.5810  -28.3430   23.0770 C   0  0  0  0  0  3  0  0  0  0  0  0
  -20.6850  -26.9210   22.4790 C   0  0  0  0  0  2  0  0  0  0  0  0
  -19.5880  -26.6200   21.4510 C   0  0  0  0  0  2  0  0  0  0  0  0
  -18.1990  -26.7670   22.0770 C   0  0  0  0  0  2  0  0  0  0  0  0
  -19.1410  -28.8560   23.2230 C   0  0  0  0  0  0  0  0  0  0  0  0
  -18.9190  -30.1150   23.8240 C   0  0  0  0  0  3  0  0  0  0  0  0
  -17.6140  -30.6150   23.9900 C   0  0  0  0  0  3  0  0  0  0  0  0
  -16.5120  -29.8590   23.5510 C   0  0  0  0  0  3  0  0  0  0  0  0
  -16.7190  -28.6120   22.9350 C   0  0  0  0  0  3  0  0  0  0  0  0
  -25.8400  -32.5150   23.8730 C   0  0  0  0  0  3  0  0  0  0  0  0
  -26.3200  -31.7500   25.1660 C   0  0  1  0  0  0  0  0  0  0  0  0
  -25.1980  -31.5210   26.2060 C   0  0  0  0  0  1  0  0  0  0  0  0
  -26.9100  -30.3700   24.7930 C   0  0  0  0  0  1  0  0  0  0  0  0
  -27.4490  -32.5500   25.8530 C   0  0  0  0  0  1  0  0  0  0  0  0
  -25.5290  -33.9190   24.1840 N   0  0  0  0  0  0  0  0  0  0  0  0
  -25.8760  -34.9610   23.4190 C   0  0  0  0  0  0  0  0  0  0  0  0
  -26.5690  -34.8500   22.4050 O   0  0  0  0  0  0  0  0  0  0  0  0
  -24.9340  -34.0810   24.9830 H   0  0  0  0  0  0  0  0  0  0  0  0
  -24.1740  -36.7630   22.9940 C   0  0  0  0  0  1  0  0  0  0  0  0
  -25.3800  -36.3530   23.8520 C   0  0  0  0  0  3  0  0  0  0  0  0
  -27.4870  -37.2400   24.7590 C   0  0  0  0  0  1  0  0  0  0  0  0
  -26.4200  -37.4000   23.7710 N   0  0  0  0  0  0  0  0  0  0  0  0
  -26.0080  -38.3200   23.8980 H   0  0  0  0  0  0  0  0  0  0  0  0
  1  6  1  0
  2  3  1  0
  3  5  2  0
  4  2  2  0
  4  6  1  0
  5 10  1  0
  6  7  2  0
  7  5  1  0
  7  8  1  0
  9 11  1  0
 10  9  1  0
 10 47  1  0
 11 17  1  0
 11 18  2  0
 12 17  1  0
 13 14  1  0
 13 12  1  0
 15 14  1  0
 15 22  1  0
 15 16  1  0
 17 16  1  0
 19 20  2  0
 20 21  1  0
 20 39  1  0
 21 24  1  0
 22 19  1  0
 22 23  1  0
 23 21  2  0
 24 25  1  0
 25 26  2  0
 27 30  1  0
 27 26  1  0
 28 27  2  0
 29 28  1  0
 29 24  2  0
 30 31  1  0
 31 32  1  0
 32 33  2  0
 34 33  1  0
 34 38  1  0
 35 34  2  0
 36 31  2  0
 36 35  1  0
 37 36  1  0
 39 40  1  0
 40 43  1  0
 40 42  1  0
 41 39  2  0
 44 45  1  0
 44 19  1  0
 46 44  1  0
 48 47  1  0
 49  1  1  0
 49 50  1  0
 50 51  1  0
 51 52  1  0
 52 53  1  0
 53 54  1  0
 54 55  1  0
 55 57  1  0
 56 67  2  0
 57 62  1  0
 58 66  1  0
 58 68  1  0
 59 65  1  0
 59 61  1  0
 60 66  1  0
 61 60  1  0
 62 61  2  0
 63 64  1  0
 63 57  2  0
 64 59  2  0
 65 58  1  0
 66 56  1  0
 68 70  2  0
 69 68  1  0
 71 69  1  0
 72 81  2  0
 72 77  1  0
 73 69  1  0
 73 77  1  0
 74 73  1  0
 75 76  1  0
 75 74  1  0
 76 72  1  0
 77 78  2  0
 78 79  1  0
 80 79  2  0
 81 80  1  0
 82 56  1  0
 82 87  1  0
 82 83  1  0
 83 86  1  1
 83 84  1  0
 85 83  1  0
 87 90  1  0
 88 92  1  0
 88 87  1  0
 89 88  2  0
 92 91  1  0
 94 92  1  0
 94 95  1  0
 94 93  1  0
M  ISO  4   9 100  11 100  54 101  55 101
M  END
>  <TORSDO>  (45) 
F 25

>  <SCORE>  (45) 
-11.634

>  <name>  (45) 
44

>  <ligand_id>  (45) 
44

>  <original_smiles>  (45) 
[H]OC(=C([H])C(=O)N1C([H])([H])C([H])([H])C([H])([H])C([H])(n2nc(-c3c([H])c([H])c(Oc4c([H])c([H])c(F)c([H])c4F)c([H])c3[H])c(C(=O)N([H])[H])c2N([H])[H])C1([H])[H])c1c([H])c([H])c([H])c(C([H])([H])C([H])([H])C([H])([H])C([H])([H])C([H])([H])C([H])([H])C([H])([H])Oc2c([H])c([H])c3c(c2[H])C([H])([H])N(C(=O)C([H])(N([H])C(=O)C([H])(N([H])C([H])([H])[H])C([H])([H])[H])C(C([H])([H])[H])(C([H])([H])[H])C([H])([H])[H])C([H])(C(=O)N([H])C2([H])c4c([H])c([H])c([H])c([H])c4C([H])([H])C([H])([H])C2([H])[H])C3([H])[H])c1F

>  <smiles>  (45) 
[H]OC(=C([H])C(=O)N1C([H])([H])C([H])([H])C([H])([H])C([H])(n2nc(-c3c([H])c([H])c(Oc4c([H])c([H])c(F)c([H])c4F)c([H])c3[H])c(C(=O)N([H])[H])c2N([H])[H])C1([H])[H])c1c([H])c([H])c([H])c(C([H])([H])C([H])([H])C([H])([H])C([H])([H])C([H])([H])C([H])([H])C([H])([H])Oc2c([H])c([H])c3c(c2[H])C([H])([H])N(C(=O)C([H])(N([H])C(=O)C([H])(N([H])C([H])([H])[H])C([H])([H])[H])C(C([H])([H])[H])(C([H])([H])[H])C([H])([H])[H])C([H])(C(=O)N([H])C2([H])c4c([H])c([H])c([H])c([H])c4C([H])([H])C([H])([H])C2([H])[H])C3([H])[H])c1F

$$$$
45:0:0
     RDKit          3D

 97106  0  0  1  0  0  0  0  0999 V2000
  -30.4600  -23.4080   19.4320 C   0  0  0  0  0  3  0  0  0  0  0  0
  -30.3930  -22.1330   18.8390 C   0  0  0  0  0  3  0  0  0  0  0  0
  -28.2210  -21.7790   19.8740 C   0  0  0  0  0  3  0  0  0  0  0  0
  -29.4320  -23.8690   20.2820 C   0  0  0  0  0  0  0  0  0  0  0  0
  -29.2930  -21.2880   19.0940 C   0  0  0  0  0  0  0  0  0  0  0  0
  -28.2820  -23.0590   20.4730 C   0  0  0  0  0  0  0  0  0  0  0  0
  -27.1390  -23.5010   21.3720 C   0  0  0  0  0  1  0  0  0  0  0  0
  -30.8520  -25.3640   21.6250 C   0  0  0  0  0  2  0  0  0  0  0  0
  -29.6710  -25.1120   21.0520 C   0  0  0  0  0  3  0  0  0  0  0  0
  -30.9280  -26.6980   22.3060 C   0  0  0  0  0  2  0  0  0  0  0  0
  -29.6280  -27.3920   21.8690 C   0  0  0  0  0  2  0  0  0  0  0  0
  -28.7430  -26.3090   21.2040 C   0  0  0  0  0  3  0  0  0  0  0  0
  -28.2280  -26.7400   19.9460 O   0  0  0  0  0  0  0  0  0  0  0  0
  -24.5040  -31.9290   23.1300 C   0  0  0  0  0  0  0  0  0  0  0  0
  -27.0810  -27.4960   20.0120 C   0  0  0  0  0  0  0  0  0  0  0  0
  -23.2610  -30.5340   21.5080 C   0  0  0  0  0  3  0  0  0  0  0  0
  -24.6840  -28.9860   20.0600 C   0  0  0  0  0  0  0  0  0  0  0  0
  -25.7790  -30.8860   21.2640 C   0  0  0  0  0  2  0  0  0  0  0  0
  -25.8480  -29.5130   20.6330 C   0  0  0  0  0  0  0  0  0  0  0  0
  -27.0460  -28.7740   20.6130 C   0  0  0  0  0  3  0  0  0  0  0  0
  -25.9090  -26.9780   19.4280 C   0  0  0  0  0  3  0  0  0  0  0  0
  -24.7080  -27.7120   19.4630 C   0  0  0  0  0  3  0  0  0  0  0  0
  -23.4430  -29.8450   20.1260 C   0  0  0  0  0  2  0  0  0  0  0  0
  -24.5330  -31.1300   22.0270 N   0  0  0  0  0  0  0  0  0  0  0  0
  -23.4350  -32.2090   23.6910 O   0  0  0  0  0  0  0  0  0  0  0  0
  -22.6210  -29.5180   22.4820 C   0  0  0  0  0  0  0  0  0  0  0  0
  -21.2930  -29.3510   22.3820 N   0  0  0  0  0  0  0  0  0  0  0  0
  -23.3150  -28.8810   23.2800 O   0  0  0  0  0  0  0  0  0  0  0  0
  -20.7960  -29.9160   21.7070 H   0  0  0  0  0  0  0  0  0  0  0  0
  -17.9140  -28.1970   22.9360 C   0  0  0  0  0  0  0  0  0  0  0  0
  -20.4790  -28.4220   23.1660 C   0  0  0  0  0  3  0  0  0  0  0  0
  -20.5520  -26.9920   22.5860 C   0  0  0  0  0  2  0  0  0  0  0  0
  -19.4300  -26.6840   21.5880 C   0  0  0  0  0  2  0  0  0  0  0  0
  -18.0610  -26.8470   22.2550 C   0  0  0  0  0  2  0  0  0  0  0  0
  -19.0490  -28.9450   23.3460 C   0  0  0  0  0  0  0  0  0  0  0  0
  -18.8580  -30.2100   23.9410 C   0  0  0  0  0  3  0  0  0  0  0  0
  -17.5630  -30.7280   24.1310 C   0  0  0  0  0  3  0  0  0  0  0  0
  -16.4410  -29.9780   23.7370 C   0  0  0  0  0  3  0  0  0  0  0  0
  -16.6180  -28.7140   23.1450 C   0  0  0  0  0  3  0  0  0  0  0  0
  -25.8060  -32.5490   23.7240 C   0  0  0  0  0  3  0  0  0  0  0  0
  -25.5100  -33.9430   24.0770 N   0  0  0  0  0  0  0  0  0  0  0  0
  -25.8480  -35.0050   23.3350 C   0  0  0  0  0  0  0  0  0  0  0  0
  -26.5150  -34.9140   22.3000 O   0  0  0  0  0  0  0  0  0  0  0  0
  -24.9150  -34.0870   24.8800 H   0  0  0  0  0  0  0  0  0  0  0  0
  -24.1400  -36.8210   23.0020 C   0  0  0  0  0  1  0  0  0  0  0  0
  -25.3700  -36.3860   23.8160 C   0  0  0  0  0  3  0  0  0  0  0  0
  -27.5080  -37.2310   24.6810 C   0  0  0  0  0  1  0  0  0  0  0  0
  -26.4130  -37.4310   23.7360 N   0  0  0  0  0  0  0  0  0  0  0  0
  -26.0140  -38.3510   23.9000 H   0  0  0  0  0  0  0  0  0  0  0  0
  -26.3560  -31.7580   24.9750 C   0  0  1  0  0  0  0  0  0  0  0  0
  -25.2900  -31.5040   26.0670 C   0  0  0  0  0  1  0  0  0  0  0  0
  -26.9260  -30.3870   24.5410 C   0  0  0  0  0  1  0  0  0  0  0  0
  -27.5250  -32.5420   25.6180 C   0  0  0  0  0  1  0  0  0  0  0  0
  -29.7290  -19.6360   17.1700 C   0  0  0  0  0  1  0  0  0  0  0  0
  -29.3170  -19.8260   18.6460 C   0  0  0  0  0  3  0  0  0  0  0  0
  -30.2080  -19.0980   19.5820 N   0  0  0  0  0  4  0  0  0  0  0  0
  -31.1690  -19.3260   19.3840 H   0  0  0  0  0  0  0  0  0  0  0  0
  -29.9980  -19.4760   20.4890 H   0  0  0  0  0  0  0  0  0  0  0  0
  -30.0270  -17.6310   19.6730 C   0  0  0  0  0  2  0  0  0  0  0  0
  -30.6180  -17.0770   20.9950 C   0  0  0  0  0  2  0  0  0  0  0  0
  -30.1650  -15.6420   21.3710 C   0  0  0  0  0  2  0  0  0  0  0  0
  -30.7780  -14.5120   20.5220 C   0  0  0  0  0  0  0  0  0  0  0  0
  -30.4610  -12.4010   19.2810 C   0  0  0  0  0  2  0  0  0  0  0  0
  -29.5120  -12.6410   18.0910 C   0  0  0  0  0  2  0  0  0  0  0  0
  -28.0390  -12.5070   18.5210 C   0  0  0  0  0  2  0  0  0  0  0  0
  -27.7150  -13.3130   19.8070 C   0  0  0  0  0  3  0  0  0  0  0  0
  -28.7710  -13.0440   20.9040 C   0  0  0  0  0  2  0  0  0  0  0  0
  -30.0970  -13.3480   20.3430 N   0  0  0  0  0  0  0  0  0  0  0  0
  -31.8640  -14.7280   19.9750 O   0  0  0  0  0  0  0  0  0  0  0  0
  -25.3080  -13.9230   20.4860 C   0  0  0  0  0  0  0  0  0  0  0  0
  -24.2370  -13.1500   20.8510 C   0  0  0  0  0  0  0  0  0  0  0  0
  -24.7010  -11.8000   20.8360 C   0  0  0  0  0  0  0  0  0  0  0  0
  -26.3580  -13.0430   20.2760 N   0  0  0  0  0  0  0  0  0  0  0  0
  -25.9940  -11.7610   20.5380 N   0  0  0  0  0  0  0  0  0  0  0  0
  -23.9760  -10.5390   21.0320 C   0  0  0  0  0  0  0  0  0  0  0  0
  -24.4130   -9.5730   21.9650 C   0  0  0  0  0  3  0  0  0  0  0  0
  -23.6900   -8.3750   22.1480 C   0  0  0  0  0  3  0  0  0  0  0  0
  -22.5160   -8.1330   21.3960 C   0  0  0  0  0  0  0  0  0  0  0  0
  -22.0970   -9.0870   20.4500 C   0  0  0  0  0  3  0  0  0  0  0  0
  -22.8210  -10.2770   20.2670 C   0  0  0  0  0  3  0  0  0  0  0  0
  -21.7620   -6.9890   21.4900 O   0  0  0  0  0  0  0  0  0  0  0  0
  -21.7230   -6.2450   22.6420 C   0  0  0  0  0  0  0  0  0  0  0  0
  -21.3150   -6.8000   23.8750 C   0  0  0  0  0  3  0  0  0  0  0  0
  -21.2220   -5.9820   25.0180 C   0  0  0  0  0  3  0  0  0  0  0  0
  -21.5280   -4.6110   24.9300 C   0  0  0  0  0  0  0  0  0  0  0  0
  -21.9300   -4.0560   23.7030 C   0  0  0  0  0  3  0  0  0  0  0  0
  -22.0250   -4.8700   22.5610 C   0  0  0  0  0  0  0  0  0  0  0  0
  -22.3930   -4.3260   21.3760 F   0  0  0  0  0  0  0  0  0  0  0  0
  -21.4300   -3.8230   26.0270 F   0  0  0  0  0  0  0  0  0  0  0  0
  -22.8370  -13.6260   21.1100 C   0  0  0  0  0  0  0  0  0  0  0  0
  -22.1060  -12.9350   21.9770 N   0  0  0  0  0  0  0  0  0  0  0  0
  -22.3990  -14.6460   20.5790 O   0  0  0  0  0  0  0  0  0  0  0  0
  -22.4710  -12.1080   22.4270 H   0  0  0  0  0  0  0  0  0  0  0  0
  -21.1670  -13.2380   22.1950 H   0  0  0  0  0  0  0  0  0  0  0  0
  -25.4700  -15.2930   20.3010 N   0  0  0  0  0  0  0  0  0  0  0  0
  -24.6970  -15.9450   20.3860 H   0  0  0  0  0  0  0  0  0  0  0  0
  -26.3220  -15.7330   19.9810 H   0  0  0  0  0  0  0  0  0  0  0  0
  1  4  1  0
  2  5  1  0
  2  1  2  0
  3  6  1  0
  4  6  2  0
  5  3  2  0
  6  7  1  0
  8 10  1  0
  9  4  1  0
  9 12  1  0
  9  8  1  0
 11 10  1  0
 12 13  1  0
 12 11  1  0
 13 15  1  0
 14 25  2  0
 15 20  1  0
 16 24  1  0
 16 26  1  0
 17 23  1  0
 17 19  1  0
 18 24  1  0
 19 18  1  0
 20 19  2  0
 21 22  1  0
 21 15  2  0
 22 17  2  0
 23 16  1  0
 24 14  1  0
 26 28  2  0
 27 26  1  0
 29 27  1  0
 30 39  2  0
 30 35  1  0
 31 27  1  0
 31 35  1  0
 32 31  1  0
 33 34  1  0
 33 32  1  0
 34 30  1  0
 35 36  2  0
 36 37  1  0
 38 37  2  0
 39 38  1  0
 40 14  1  0
 40 41  1  0
 40 50  1  0
 41 44  1  0
 42 46  1  0
 42 41  1  0
 43 42  2  0
 46 45  1  0
 48 46  1  0
 48 49  1  0
 48 47  1  0
 50 53  1  1
 50 51  1  0
 52 50  1  0
 55 54  1  0
 55  5  1  0
 55 56  1  0
 56 59  1  0
 56 58  1  0
 57 56  1  0
 59 60  1  0
 60 61  1  0
 62 61  1  0
 63 68  1  0
 64 65  1  0
 64 63  1  0
 66 65  1  0
 66 73  1  0
 66 67  1  0
 68 62  1  0
 68 67  1  0
 69 62  2  0
 70 71  2  0
 71 90  1  0
 72 71  1  0
 72 75  1  0
 73 70  1  0
 73 74  1  0
 74 72  2  0
 75 76  1  0
 76 77  2  0
 78 81  1  0
 78 77  1  0
 79 78  2  0
 80 79  1  0
 80 75  2  0
 81 82  1  0
 82 83  1  0
 83 84  2  0
 85 84  1  0
 85 89  1  0
 86 85  2  0
 87 82  2  0
 87 86  1  0
 88 87  1  0
 90 91  1  0
 91 94  1  0
 91 93  1  0
 92 90  2  0
 95 96  1  0
 95 70  1  0
 97 95  1  0
M  ISO  4  12 101  13 101  61 100  62 100
M  END
>  <TORSDO>  (46) 
F 22

>  <SCORE>  (46) 
-13.239

>  <name>  (46) 
45

>  <ligand_id>  (46) 
45

>  <original_smiles>  (46) 
[H]C1=C(c2c([H])c([H])c(C([H])(C([H])([H])[H])[N+]([H])([H])C([H])([H])C([H])([H])C([H])([H])C(=O)N3C([H])([H])C([H])([H])C([H])([H])C([H])(n4nc(-c5c([H])c([H])c(Oc6c([H])c([H])c(F)c([H])c6F)c([H])c5[H])c(C(=O)N([H])[H])c4N([H])[H])C3([H])[H])c([H])c2C([H])([H])[H])C([H])(Oc2c([H])c([H])c3c(c2[H])C([H])([H])N(C(=O)C([H])(N([H])C(=O)C([H])(N([H])C([H])([H])[H])C([H])([H])[H])C(C([H])([H])[H])(C([H])([H])[H])C([H])([H])[H])C([H])(C(=O)N([H])C2([H])c4c([H])c([H])c([H])c([H])c4C([H])([H])C([H])([H])C2([H])[H])C3([H])[H])C([H])([H])C1([H])[H]

>  <smiles>  (46) 
[H]C1=C(c2c([H])c([H])c(C([H])(C([H])([H])[H])[N+]([H])([H])C([H])([H])C([H])([H])C([H])([H])C(=O)N3C([H])([H])C([H])([H])C([H])([H])C([H])(n4nc(-c5c([H])c([H])c(Oc6c([H])c([H])c(F)c([H])c6F)c([H])c5[H])c(C(=O)N([H])[H])c4N([H])[H])C3([H])[H])c([H])c2C([H])([H])[H])C([H])(Oc2c([H])c([H])c3c(c2[H])C([H])([H])N(C(=O)C([H])(N([H])C(=O)C([H])(N([H])C([H])([H])[H])C([H])([H])[H])C(C([H])([H])[H])(C([H])([H])[H])C([H])([H])[H])C([H])(C(=O)N([H])C2([H])c4c([H])c([H])c([H])c([H])c4C([H])([H])C([H])([H])C2([H])[H])C3([H])[H])C([H])([H])C1([H])[H]

$$$$
46:0:0
     RDKit          3D

 92100  0  0  1  0  0  0  0  0999 V2000
  -28.6580  -22.4130   18.3970 C   0  0  0  0  0  2  0  0  0  0  0  0
  -29.5300  -23.6330   18.5900 C   0  0  0  0  0  3  0  0  0  0  0  0
  -29.2190  -24.8620   18.1530 C   0  0  0  0  0  3  0  0  0  0  0  0
  -30.0510  -26.0980   18.4230 C   0  0  0  0  0  2  0  0  0  0  0  0
  -29.1760  -27.2650   18.8970 C   0  0  0  0  0  2  0  0  0  0  0  0
  -28.4060  -26.8680   20.0290 O   0  0  0  0  0  0  0  0  0  0  0  0
  -24.5890  -31.9410   23.2520 C   0  0  0  0  0  0  0  0  0  0  0  0
  -27.2280  -27.5590   20.1220 C   0  0  0  0  0  0  0  0  0  0  0  0
  -23.3720  -30.5460   21.6080 C   0  0  0  0  0  3  0  0  0  0  0  0
  -24.8190  -29.0130   20.1740 C   0  0  0  0  0  0  0  0  0  0  0  0
  -25.8900  -30.9190   21.3930 C   0  0  0  0  0  2  0  0  0  0  0  0
  -25.9750  -29.5510   20.7540 C   0  0  0  0  0  0  0  0  0  0  0  0
  -27.1850  -28.8270   20.7340 C   0  0  0  0  0  3  0  0  0  0  0  0
  -26.0580  -27.0110   19.5600 C   0  0  0  0  0  3  0  0  0  0  0  0
  -24.8510  -27.7380   19.5790 C   0  0  0  0  0  3  0  0  0  0  0  0
  -23.5710  -29.8670   20.2260 C   0  0  0  0  0  2  0  0  0  0  0  0
  -24.6350  -31.1490   22.1430 N   0  0  0  0  0  0  0  0  0  0  0  0
  -23.5120  -32.2100   23.8010 O   0  0  0  0  0  0  0  0  0  0  0  0
  -22.7280  -29.5210   22.5690 C   0  0  0  0  0  0  0  0  0  0  0  0
  -21.4030  -29.3420   22.4490 N   0  0  0  0  0  0  0  0  0  0  0  0
  -23.4170  -28.8890   23.3740 O   0  0  0  0  0  0  0  0  0  0  0  0
  -20.9100  -29.9040   21.7690 H   0  0  0  0  0  0  0  0  0  0  0  0
  -18.0310  -28.1510   22.9520 C   0  0  0  0  0  0  0  0  0  0  0  0
  -20.5890  -28.4030   23.2180 C   0  0  0  0  0  3  0  0  0  0  0  0
  -20.6890  -26.9740   22.6340 C   0  0  0  0  0  2  0  0  0  0  0  0
  -19.5830  -26.6580   21.6220 C   0  0  0  0  0  2  0  0  0  0  0  0
  -18.2030  -26.8030   22.2710 C   0  0  0  0  0  2  0  0  0  0  0  0
  -19.1520  -28.9090   23.3820 C   0  0  0  0  0  0  0  0  0  0  0  0
  -18.9380  -30.1710   23.9770 C   0  0  0  0  0  3  0  0  0  0  0  0
  -17.6360  -30.6750   24.1470 C   0  0  0  0  0  3  0  0  0  0  0  0
  -16.5290  -29.9140   23.7340 C   0  0  0  0  0  3  0  0  0  0  0  0
  -16.7280  -28.6540   23.1430 C   0  0  0  0  0  3  0  0  0  0  0  0
  -25.8810  -32.5660   23.8660 C   0  0  0  0  0  3  0  0  0  0  0  0
  -25.5790  -33.9620   24.2070 N   0  0  0  0  0  0  0  0  0  0  0  0
  -25.9150  -35.0170   23.4540 C   0  0  0  0  0  0  0  0  0  0  0  0
  -26.5850  -34.9180   22.4220 O   0  0  0  0  0  0  0  0  0  0  0  0
  -24.9850  -34.1130   25.0090 H   0  0  0  0  0  0  0  0  0  0  0  0
  -24.1930  -36.8170   23.1050 C   0  0  0  0  0  1  0  0  0  0  0  0
  -25.4310  -36.4040   23.9190 C   0  0  0  0  0  3  0  0  0  0  0  0
  -27.5670  -37.2710   24.7610 C   0  0  0  0  0  1  0  0  0  0  0  0
  -26.4670  -37.4530   23.8180 N   0  0  0  0  0  0  0  0  0  0  0  0
  -26.0650  -38.3740   23.9740 H   0  0  0  0  0  0  0  0  0  0  0  0
  -26.4110  -31.7820   25.1290 C   0  0  1  0  0  0  0  0  0  0  0  0
  -25.3290  -31.5350   26.2060 C   0  0  0  0  0  1  0  0  0  0  0  0
  -26.9900  -30.4090   24.7150 C   0  0  0  0  0  1  0  0  0  0  0  0
  -27.5700  -32.5700   25.7870 C   0  0  0  0  0  1  0  0  0  0  0  0
  -29.2690  -21.3730   17.4460 C   0  0  0  0  0  2  0  0  0  0  0  0
  -29.2450  -17.7870   18.5500 C   0  0  0  0  0  0  0  0  0  0  0  0
  -28.8350  -18.9810   16.5430 C   0  0  0  0  0  0  0  0  0  0  0  0
  -28.9330  -17.5690   17.0880 C   0  0  0  0  0  2  0  0  0  0  0  0
  -29.1170  -19.2570   18.9130 C   0  0  0  0  0  2  0  0  0  0  0  0
  -28.6160  -19.9910   17.6590 C   0  0  0  0  0  3  0  0  0  0  0  0
  -29.6030  -16.8360   19.3180 N   0  0  0  0  0  0  0  0  0  0  0  0
  -28.9070  -19.2660   15.3420 O   0  0  0  0  0  0  0  0  0  0  0  0
  -30.0890  -17.1250   20.6640 C   0  0  0  0  0  2  0  0  0  0  0  0
  -30.0630  -15.8610   21.5490 C   0  0  0  0  0  2  0  0  0  0  0  0
  -30.8570  -14.6710   20.9690 C   0  0  0  0  0  0  0  0  0  0  0  0
  -30.6900  -12.5190   19.7810 C   0  0  0  0  0  2  0  0  0  0  0  0
  -29.8120  -12.7270   18.5290 C   0  0  0  0  0  2  0  0  0  0  0  0
  -28.3150  -12.5680   18.8680 C   0  0  0  0  0  2  0  0  0  0  0  0
  -27.8980  -13.3960   20.1130 C   0  0  0  0  0  3  0  0  0  0  0  0
  -28.8850  -13.1390   21.2730 C   0  0  0  0  0  2  0  0  0  0  0  0
  -30.2360  -13.4740   20.8000 N   0  0  0  0  0  0  0  0  0  0  0  0
  -32.0070  -14.8800   20.5660 O   0  0  0  0  0  0  0  0  0  0  0  0
  -25.4510  -13.9930   20.6560 C   0  0  0  0  0  0  0  0  0  0  0  0
  -24.3680  -13.2130   20.9620 C   0  0  0  0  0  0  0  0  0  0  0  0
  -24.8420  -11.8660   20.9720 C   0  0  0  0  0  0  0  0  0  0  0  0
  -26.5170  -13.1190   20.5030 N   0  0  0  0  0  0  0  0  0  0  0  0
  -26.1490  -11.8350   20.7460 N   0  0  0  0  0  0  0  0  0  0  0  0
  -24.1190  -10.5970   21.1280 C   0  0  0  0  0  0  0  0  0  0  0  0
  -24.5240   -9.6280   22.0730 C   0  0  0  0  0  3  0  0  0  0  0  0
  -23.8030   -8.4230   22.2160 C   0  0  0  0  0  3  0  0  0  0  0  0
  -22.6640   -8.1780   21.4110 C   0  0  0  0  0  0  0  0  0  0  0  0
  -22.2810   -9.1360   20.4570 C   0  0  0  0  0  3  0  0  0  0  0  0
  -23.0020  -10.3320   20.3120 C   0  0  0  0  0  3  0  0  0  0  0  0
  -21.9180   -7.0250   21.4620 O   0  0  0  0  0  0  0  0  0  0  0  0
  -21.8420   -6.2660   22.6010 C   0  0  0  0  0  0  0  0  0  0  0  0
  -21.3940   -6.8060   23.8270 C   0  0  0  0  0  3  0  0  0  0  0  0
  -21.2660   -5.9730   24.9560 C   0  0  0  0  0  3  0  0  0  0  0  0
  -21.5760   -4.6040   24.8620 C   0  0  0  0  0  0  0  0  0  0  0  0
  -22.0170   -4.0630   23.6420 C   0  0  0  0  0  3  0  0  0  0  0  0
  -22.1470   -4.8920   22.5140 C   0  0  0  0  0  0  0  0  0  0  0  0
  -22.5520   -4.3620   21.3340 F   0  0  0  0  0  0  0  0  0  0  0  0
  -21.4460   -3.8030   25.9460 F   0  0  0  0  0  0  0  0  0  0  0  0
  -22.9500  -13.6770   21.1420 C   0  0  0  0  0  0  0  0  0  0  0  0
  -22.1790  -12.9830   21.9720 N   0  0  0  0  0  0  0  0  0  0  0  0
  -22.5320  -14.6900   20.5840 O   0  0  0  0  0  0  0  0  0  0  0  0
  -22.5270  -12.1650   22.4490 H   0  0  0  0  0  0  0  0  0  0  0  0
  -21.2260  -13.2750   22.1330 H   0  0  0  0  0  0  0  0  0  0  0  0
  -25.6160  -15.3630   20.4770 N   0  0  0  0  0  0  0  0  0  0  0  0
  -24.8450  -16.0190   20.5270 H   0  0  0  0  0  0  0  0  0  0  0  0
  -26.4920  -15.8000   20.2160 H   0  0  0  0  0  0  0  0  0  0  0  0
  1  2  1  0
  3  4  1  0
  3  2  2  0
  4  5  1  0
  5  6  1  0
  6  8  1  0
  7 18  2  0
  8 13  1  0
  9 17  1  0
  9 19  1  0
 10 16  1  0
 10 12  1  0
 11 17  1  0
 12 11  1  0
 13 12  2  0
 14 15  1  0
 14  8  2  0
 15 10  2  0
 16  9  1  0
 17  7  1  0
 19 21  2  0
 20 19  1  0
 22 20  1  0
 23 32  2  0
 23 28  1  0
 24 20  1  0
 24 28  1  0
 25 24  1  0
 26 27  1  0
 26 25  1  0
 27 23  1  0
 28 29  2  0
 29 30  1  0
 31 30  2  0
 32 31  1  0
 33  7  1  0
 33 34  1  0
 33 43  1  0
 34 37  1  0
 35 39  1  0
 35 34  1  0
 36 35  2  0
 39 38  1  0
 41 39  1  0
 41 42  1  0
 41 40  1  0
 43 46  1  1
 43 44  1  0
 45 43  1  0
 47  1  1  0
 48 51  1  0
 48 53  2  0
 49 50  1  0
 49 52  1  0
 50 48  1  0
 52 47  1  0
 52 51  1  0
 53 55  1  0
 54 49  2  0
 55 56  1  0
 57 56  1  0
 58 63  1  0
 59 60  1  0
 59 58  1  0
 61 60  1  0
 61 68  1  0
 61 62  1  0
 63 57  1  0
 63 62  1  0
 64 57  2  0
 65 66  2  0
 66 67  1  0
 66 85  1  0
 67 70  1  0
 68 65  1  0
 68 69  1  0
 69 67  2  0
 70 71  1  0
 71 72  2  0
 73 76  1  0
 73 72  1  0
 74 73  2  0
 75 74  1  0
 75 70  2  0
 76 77  1  0
 77 78  1  0
 78 79  2  0
 80 79  1  0
 80 84  1  0
 81 80  2  0
 82 77  2  0
 82 81  1  0
 83 82  1  0
 85 86  1  0
 86 89  1  0
 86 88  1  0
 87 85  2  0
 90 91  1  0
 90 65  1  0
 92 90  1  0
M  ISO  4   5 101   6 101  56 100  57 100
M  END
>  <TORSDO>  (47) 
F 23

>  <SCORE>  (47) 
-12.037

>  <name>  (47) 
46

>  <ligand_id>  (47) 
46

>  <original_smiles>  (47) 
[H]C(=C([H])C([H])([H])C([H])([H])C1([H])C(=O)C([H])([H])C(=NC([H])([H])C([H])([H])C(=O)N2C([H])([H])C([H])([H])C([H])([H])C([H])(n3nc(-c4c([H])c([H])c(Oc5c([H])c([H])c(F)c([H])c5F)c([H])c4[H])c(C(=O)N([H])[H])c3N([H])[H])C2([H])[H])C1([H])[H])C([H])([H])C([H])([H])Oc1c([H])c([H])c2c(c1[H])C([H])([H])N(C(=O)C([H])(N([H])C(=O)C([H])(N([H])C([H])([H])[H])C([H])([H])[H])C(C([H])([H])[H])(C([H])([H])[H])C([H])([H])[H])C([H])(C(=O)N([H])C1([H])c3c([H])c([H])c([H])c([H])c3C([H])([H])C([H])([H])C1([H])[H])C2([H])[H]

>  <smiles>  (47) 
[H]C(=C([H])C([H])([H])C([H])([H])C1([H])C(=O)C([H])([H])C(=NC([H])([H])C([H])([H])C(=O)N2C([H])([H])C([H])([H])C([H])([H])C([H])(n3nc(-c4c([H])c([H])c(Oc5c([H])c([H])c(F)c([H])c5F)c([H])c4[H])c(C(=O)N([H])[H])c3N([H])[H])C2([H])[H])C1([H])[H])C([H])([H])C([H])([H])Oc1c([H])c([H])c2c(c1[H])C([H])([H])N(C(=O)C([H])(N([H])C(=O)C([H])(N([H])C([H])([H])[H])C([H])([H])[H])C(C([H])([H])[H])(C([H])([H])[H])C([H])([H])[H])C([H])(C(=O)N([H])C1([H])c3c([H])c([H])c([H])c([H])c3C([H])([H])C([H])([H])C1([H])[H])C2([H])[H]

$$$$
47:0:0
     RDKit          3D

 96104  0  0  1  0  0  0  0  0999 V2000
  -30.4540  -24.9650   24.2980 C   0  0  0  0  0  3  0  0  0  0  0  0
  -30.3520  -23.5910   22.2950 C   0  0  0  0  0  3  0  0  0  0  0  0
  -30.5560  -23.8010   25.0880 C   0  0  0  0  0  3  0  0  0  0  0  0
  -30.4610  -22.4280   23.0800 C   0  0  0  0  0  3  0  0  0  0  0  0
  -30.3270  -24.8670   22.8950 C   0  0  0  0  0  0  0  0  0  0  0  0
  -30.5390  -22.5260   24.4840 C   0  0  0  0  0  0  0  0  0  0  0  0
  -30.1540  -26.0390   22.0240 C   0  0  0  0  0  3  0  0  0  0  0  0
  -30.9250  -27.1390   21.9740 C   0  0  0  0  0  3  0  0  0  0  0  0
  -30.6200  -28.3200   21.0780 C   0  0  0  0  0  2  0  0  0  0  0  0
  -31.2410  -29.4970   21.5850 O   0  0  0  0  0  0  0  0  0  0  0  0
  -37.6580  -27.6020   18.9910 C   0  0  0  0  0  0  0  0  0  0  0  0
  -32.5890  -29.7200   21.4130 C   0  0  0  0  0  0  0  0  0  0  0  0
  -37.6320  -29.4720   20.6140 C   0  0  0  0  0  3  0  0  0  0  0  0
  -35.3270  -30.3970   21.1940 C   0  0  0  0  0  0  0  0  0  0  0  0
  -35.5990  -28.9890   19.1450 C   0  0  0  0  0  2  0  0  0  0  0  0
  -34.7410  -29.5300   20.2650 C   0  0  0  0  0  0  0  0  0  0  0  0
  -33.3820  -29.1760   20.3740 C   0  0  0  0  0  3  0  0  0  0  0  0
  -33.1980  -30.5800   22.3500 C   0  0  0  0  0  3  0  0  0  0  0  0
  -34.5620  -30.9200   22.2510 C   0  0  0  0  0  3  0  0  0  0  0  0
  -36.7900  -30.7210   20.9950 C   0  0  0  0  0  2  0  0  0  0  0  0
  -36.9700  -28.6270   19.5690 N   0  0  0  0  0  0  0  0  0  0  0  0
  -38.8400  -27.3820   19.2830 O   0  0  0  0  0  0  0  0  0  0  0  0
  -37.9660  -28.6960   21.9070 C   0  0  0  0  0  0  0  0  0  0  0  0
  -39.1900  -28.8930   22.4210 N   0  0  0  0  0  0  0  0  0  0  0  0
  -37.1290  -27.9620   22.4390 O   0  0  0  0  0  0  0  0  0  0  0  0
  -39.8200  -29.5030   21.9180 H   0  0  0  0  0  0  0  0  0  0  0  0
  -42.2250  -28.1670   24.2380 C   0  0  0  0  0  0  0  0  0  0  0  0
  -39.7130  -28.3000   23.6510 C   0  0  0  0  0  3  0  0  0  0  0  0
  -39.5910  -29.2830   24.8370 C   0  0  0  0  0  2  0  0  0  0  0  0
  -40.8490  -30.1300   25.0520 C   0  0  0  0  0  2  0  0  0  0  0  0
  -42.0620  -29.2320   25.3100 C   0  0  0  0  0  2  0  0  0  0  0  0
  -41.1250  -27.7420   23.4480 C   0  0  0  0  0  0  0  0  0  0  0  0
  -41.3390  -26.7770   22.4400 C   0  0  0  0  0  3  0  0  0  0  0  0
  -42.6190  -26.2380   22.2170 C   0  0  0  0  0  3  0  0  0  0  0  0
  -43.7020  -26.6510   23.0140 C   0  0  0  0  0  3  0  0  0  0  0  0
  -43.5030  -27.6090   24.0240 C   0  0  0  0  0  3  0  0  0  0  0  0
  -36.9990  -26.6730   17.9220 C   0  0  0  0  0  3  0  0  0  0  0  0
  -36.5600  -25.2720   18.5010 C   0  0  1  0  0  0  0  0  0  0  0  0
  -37.6800  -24.5440   19.2790 C   0  0  0  0  0  1  0  0  0  0  0  0
  -35.3510  -25.4310   19.4530 C   0  0  0  0  0  1  0  0  0  0  0  0
  -36.1000  -24.3460   17.3490 C   0  0  0  0  0  1  0  0  0  0  0  0
  -37.9650  -26.5060   16.8290 N   0  0  0  0  0  0  0  0  0  0  0  0
  -37.9560  -27.2150   15.6920 C   0  0  0  0  0  0  0  0  0  0  0  0
  -37.0780  -28.0400   15.4230 O   0  0  0  0  0  0  0  0  0  0  0  0
  -38.7440  -25.8890   17.0050 H   0  0  0  0  0  0  0  0  0  0  0  0
  -40.1810  -28.0540   14.8780 C   0  0  0  0  0  1  0  0  0  0  0  0
  -39.1060  -26.9710   14.6970 C   0  0  0  0  0  3  0  0  0  0  0  0
  -37.8190  -25.7880   12.9730 C   0  0  0  0  0  1  0  0  0  0  0  0
  -38.6640  -26.9380   13.2860 N   0  0  0  0  0  0  0  0  0  0  0  0
  -39.4640  -26.9230   12.6590 H   0  0  0  0  0  0  0  0  0  0  0  0
  -30.5850  -21.2670   25.3380 C   0  0  0  0  0  2  0  0  0  0  0  0
  -28.7370  -19.7850   25.9800 C   0  0  0  0  0  1  0  0  0  0  0  0
  -29.6120  -20.2440   24.8740 N   0  0  2  0  0  4  0  0  0  0  0  0
  -29.0150  -20.7290   24.2210 H   0  0  0  0  0  0  0  0  0  0  0  0
  -30.2480  -19.1220   24.1290 C   0  0  0  0  0  2  0  0  0  0  0  0
  -29.4730  -18.7010   22.8640 C   0  0  0  0  0  2  0  0  0  0  0  0
  -29.6570  -17.2110   22.5370 C   0  0  0  0  0  2  0  0  0  0  0  0
  -29.3800  -16.8920   21.0620 C   0  0  0  0  0  2  0  0  0  0  0  0
  -28.9680  -15.4260   20.8480 C   0  0  0  0  0  2  0  0  0  0  0  0
  -29.2180  -14.9530   19.4030 C   0  0  0  0  0  2  0  0  0  0  0  0
  -28.6020  -13.5840   19.0670 C   0  0  0  0  0  0  0  0  0  0  0  0
  -28.4110  -11.6780   17.5000 C   0  0  0  0  0  2  0  0  0  0  0  0
  -29.4500  -10.5800   17.7890 C   0  0  0  0  0  2  0  0  0  0  0  0
  -30.7880  -10.8930   17.0920 C   0  0  0  0  0  2  0  0  0  0  0  0
  -31.2710  -12.3440   17.3540 C   0  0  0  0  0  3  0  0  0  0  0  0
  -30.1320  -13.3530   17.0890 C   0  0  0  0  0  2  0  0  0  0  0  0
  -28.9760  -12.9680   17.9160 N   0  0  0  0  0  0  0  0  0  0  0  0
  -27.7640  -13.0980   19.8350 O   0  0  0  0  0  0  0  0  0  0  0  0
  -33.5290  -13.4920   16.8770 C   0  0  0  0  0  0  0  0  0  0  0  0
  -34.4130  -13.3730   15.8370 C   0  0  0  0  0  0  0  0  0  0  0  0
  -33.8300  -12.4380   14.9290 C   0  0  0  0  0  0  0  0  0  0  0  0
  -32.4660  -12.6560   16.5700 N   0  0  0  0  0  0  0  0  0  0  0  0
  -32.6340  -12.0590   15.3620 N   0  0  0  0  0  0  0  0  0  0  0  0
  -34.3650  -11.8370   13.7010 C   0  0  0  0  0  0  0  0  0  0  0  0
  -33.6500  -11.8820   12.4840 C   0  0  0  0  0  3  0  0  0  0  0  0
  -34.1930  -11.3120   11.3130 C   0  0  0  0  0  3  0  0  0  0  0  0
  -35.4640  -10.6910   11.3490 C   0  0  0  0  0  0  0  0  0  0  0  0
  -36.1620  -10.6290   12.5680 C   0  0  0  0  0  3  0  0  0  0  0  0
  -35.6180  -11.1920   13.7340 C   0  0  0  0  0  3  0  0  0  0  0  0
  -36.0590  -10.0890   10.2670 O   0  0  0  0  0  0  0  0  0  0  0  0
  -35.8110  -10.5060    8.9830 C   0  0  0  0  0  0  0  0  0  0  0  0
  -35.7690  -11.8750    8.6400 C   0  0  0  0  0  3  0  0  0  0  0  0
  -35.5800  -12.2580    7.2970 C   0  0  0  0  0  3  0  0  0  0  0  0
  -35.4400  -11.2770    6.2970 C   0  0  0  0  0  0  0  0  0  0  0  0
  -35.4870   -9.9130    6.6360 C   0  0  0  0  0  3  0  0  0  0  0  0
  -35.6740   -9.5290    7.9760 C   0  0  0  0  0  0  0  0  0  0  0  0
  -35.7400   -8.2140    8.2960 F   0  0  0  0  0  0  0  0  0  0  0  0
  -35.2660  -11.6440    5.0060 F   0  0  0  0  0  0  0  0  0  0  0  0
  -35.7660  -14.0170   15.7340 C   0  0  0  0  0  0  0  0  0  0  0  0
  -36.2230  -14.2930   14.5170 N   0  0  0  0  0  0  0  0  0  0  0  0
  -36.4070  -14.3230   16.7380 O   0  0  0  0  0  0  0  0  0  0  0  0
  -35.6890  -14.0600   13.6920 H   0  0  0  0  0  0  0  0  0  0  0  0
  -37.1190  -14.7440   14.4090 H   0  0  0  0  0  0  0  0  0  0  0  0
  -33.5480  -14.2250   18.0610 N   0  0  0  0  0  0  0  0  0  0  0  0
  -34.3390  -14.8000   18.3300 H   0  0  0  0  0  0  0  0  0  0  0  0
  -32.8240  -14.1900   18.7670 H   0  0  0  0  0  0  0  0  0  0  0  0
  1  3  1  0
  2  5  1  0
  2  4  2  0
  4  6  1  0
  5  1  2  0
  6  3  2  0
  6 51  1  0
  7  5  1  0
  8  7  2  0
  9 10  1  0
  9  8  1  0
 11 22  2  0
 11 21  1  0
 12 10  1  0
 12 18  1  0
 13 20  1  0
 13 23  1  0
 14 19  1  0
 15 21  1  0
 15 16  1  0
 16 17  1  0
 16 14  2  0
 17 12  2  0
 19 18  2  0
 20 14  1  0
 21 13  1  0
 23 24  1  0
 23 25  2  0
 26 24  1  0
 27 31  1  0
 28 24  1  0
 28 29  1  0
 29 30  1  0
 30 31  1  0
 32 28  1  0
 32 27  2  0
 33 32  1  0
 34 33  2  0
 34 35  1  0
 35 36  2  0
 36 27  1  0
 37 38  1  0
 37 11  1  0
 38 39  1  1
 38 40  1  0
 41 38  1  0
 42 45  1  0
 42 37  1  0
 43 42  1  0
 44 43  2  0
 47 46  1  0
 47 43  1  0
 48 49  1  0
 49 47  1  0
 50 49  1  0
 53 51  1  0
 53 52  1  0
 53 54  1  6
 55 53  1  0
 56 55  1  0
 57 56  1  0
 58 57  1  0
 59 58  1  0
 60 59  1  0
 61 60  1  0
 61 68  2  0
 62 63  1  0
 62 67  1  0
 64 65  1  0
 64 63  1  0
 65 72  1  0
 66 65  1  0
 66 67  1  0
 67 61  1  0
 69 94  1  0
 70 69  2  0
 71 73  2  0
 71 70  1  0
 72 69  1  0
 73 72  1  0
 74 79  1  0
 74 71  1  0
 75 74  2  0
 76 77  2  0
 76 75  1  0
 77 78  1  0
 78 79  2  0
 80 77  1  0
 81 80  1  0
 82 81  1  0
 83 82  2  0
 84 85  2  0
 84 83  1  0
 85 86  1  0
 86 87  1  0
 86 81  2  0
 88 84  1  0
 89 70  1  0
 89 91  2  0
 90 89  1  0
 92 90  1  0
 93 90  1  0
 94 95  1  0
 94 96  1  0
M  ISO  4   9 101  10 101  60 100  61 100
M  END
>  <TORSDO>  (48) 
F 26

>  <SCORE>  (48) 
21.882

>  <name>  (48) 
47

>  <ligand_id>  (48) 
47

>  <original_smiles>  (48) 
[H]C(=C([H])C([H])([H])Oc1c([H])c([H])c2c(c1[H])C([H])([H])N(C(=O)C([H])(N([H])C(=O)C([H])(N([H])C([H])([H])[H])C([H])([H])[H])C(C([H])([H])[H])(C([H])([H])[H])C([H])([H])[H])C([H])(C(=O)N([H])C1([H])c3c([H])c([H])c([H])c([H])c3C([H])([H])C([H])([H])C1([H])[H])C2([H])[H])c1c([H])c([H])c(C([H])([H])[N+]([H])(C([H])([H])[H])C([H])([H])C([H])([H])C([H])([H])C([H])([H])C([H])([H])C([H])([H])C(=O)N2C([H])([H])C([H])([H])C([H])([H])C([H])(n3nc(-c4c([H])c([H])c(Oc5c([H])c([H])c(F)c([H])c5F)c([H])c4[H])c(C(=O)N([H])[H])c3N([H])[H])C2([H])[H])c([H])c1[H]

>  <smiles>  (48) 
[H]C(=C([H])C([H])([H])Oc1c([H])c([H])c2c(c1[H])C([H])([H])N(C(=O)C([H])(N([H])C(=O)C([H])(N([H])C([H])([H])[H])C([H])([H])[H])C(C([H])([H])[H])(C([H])([H])[H])C([H])([H])[H])C([H])(C(=O)N([H])C1([H])c3c([H])c([H])c([H])c([H])c3C([H])([H])C([H])([H])C1([H])[H])C2([H])[H])c1c([H])c([H])c(C([H])([H])[N+]([H])(C([H])([H])[H])C([H])([H])C([H])([H])C([H])([H])C([H])([H])C([H])([H])C([H])([H])C(=O)N2C([H])([H])C([H])([H])C([H])([H])C([H])(n3nc(-c4c([H])c([H])c(Oc5c([H])c([H])c(F)c([H])c5F)c([H])c4[H])c(C(=O)N([H])[H])c3N([H])[H])C2([H])[H])c([H])c1[H]

$$$$
48:0:0
     RDKit          3D

 91100  0  0  1  0  0  0  0  0999 V2000
  -29.6230  -22.2840   21.7410 C   0  0  0  0  0  3  0  0  0  0  0  0
  -30.0600  -21.0080   22.2170 C   0  0  0  0  0  3  0  0  0  0  0  0
  -29.2840  -21.3220   19.5410 C   0  0  0  0  0  3  0  0  0  0  0  0
  -29.2230  -22.5000   20.3900 C   0  0  0  0  0  0  0  0  0  0  0  0
  -30.0990  -19.8840   21.3550 C   0  0  0  0  0  0  0  0  0  0  0  0
  -29.7030  -20.0290   20.0350 C   0  0  0  0  0  0  0  0  0  0  0  0
  -30.5210  -18.4390   21.6900 C   0  0  0  0  0  2  0  0  0  0  0  0
  -29.7930  -18.6480   19.3290 C   0  0  0  0  0  2  0  0  0  0  0  0
  -30.4770  -17.6100   20.3430 C   0  0  0  0  0  3  0  0  0  0  0  0
  -30.6270  -14.9510   20.1470 C   0  0  0  0  0  0  0  0  0  0  0  0
  -30.4170  -12.7000   19.0270 C   0  0  0  0  0  2  0  0  0  0  0  0
  -29.3970  -12.7350   17.8650 C   0  0  0  0  0  2  0  0  0  0  0  0
  -27.9620  -12.4880   18.3770 C   0  0  0  0  0  2  0  0  0  0  0  0
  -27.6420  -13.3350   19.6330 C   0  0  0  0  0  3  0  0  0  0  0  0
  -28.7760  -13.2010   20.6790 C   0  0  0  0  0  2  0  0  0  0  0  0
  -29.9960  -13.7130   20.0340 N   0  0  0  0  0  0  0  0  0  0  0  0
  -31.8080  -15.0100   19.7830 O   0  0  0  0  0  0  0  0  0  0  0  0
  -28.5090  -16.2970   20.7620 C   0  0  0  0  0  1  0  0  0  0  0  0
  -29.9340  -16.1620   20.4270 N   0  0  0  0  0  0  0  0  0  0  0  0
  -25.2930  -13.9250   20.4960 C   0  0  0  0  0  0  0  0  0  0  0  0
  -24.2500  -13.1420   20.9030 C   0  0  0  0  0  0  0  0  0  0  0  0
  -24.7120  -11.7950   20.8100 C   0  0  0  0  0  0  0  0  0  0  0  0
  -26.3260  -13.0500   20.1870 N   0  0  0  0  0  0  0  0  0  0  0  0
  -25.9830  -11.7630   20.4360 N   0  0  0  0  0  0  0  0  0  0  0  0
  -23.9990  -10.5280   20.9960 C   0  0  0  0  0  0  0  0  0  0  0  0
  -24.4520   -9.5550   21.9130 C   0  0  0  0  0  3  0  0  0  0  0  0
  -23.7380   -8.3520   22.0880 C   0  0  0  0  0  3  0  0  0  0  0  0
  -22.5570   -8.1140   21.3450 C   0  0  0  0  0  0  0  0  0  0  0  0
  -22.1240   -9.0760   20.4170 C   0  0  0  0  0  3  0  0  0  0  0  0
  -22.8380  -10.2710   20.2400 C   0  0  0  0  0  3  0  0  0  0  0  0
  -21.8120   -6.9620   21.4320 O   0  0  0  0  0  0  0  0  0  0  0  0
  -21.7440   -6.2360   22.5930 C   0  0  0  0  0  0  0  0  0  0  0  0
  -21.2540   -6.7960   23.7940 C   0  0  0  0  0  3  0  0  0  0  0  0
  -21.1350   -5.9940   24.9460 C   0  0  0  0  0  3  0  0  0  0  0  0
  -21.4950   -4.6350   24.9000 C   0  0  0  0  0  0  0  0  0  0  0  0
  -21.9780   -4.0760   23.7040 C   0  0  0  0  0  3  0  0  0  0  0  0
  -22.0980   -4.8740   22.5530 C   0  0  0  0  0  0  0  0  0  0  0  0
  -22.5440   -4.3240   21.3980 F   0  0  0  0  0  0  0  0  0  0  0  0
  -21.3740   -3.8620   26.0050 F   0  0  0  0  0  0  0  0  0  0  0  0
  -22.8680  -13.6110   21.2590 C   0  0  0  0  0  0  0  0  0  0  0  0
  -22.1850  -12.8860   22.1380 N   0  0  0  0  0  0  0  0  0  0  0  0
  -22.4050  -14.6530   20.7960 O   0  0  0  0  0  0  0  0  0  0  0  0
  -22.5710  -12.0420   22.5310 H   0  0  0  0  0  0  0  0  0  0  0  0
  -21.2610  -13.1810   22.4190 H   0  0  0  0  0  0  0  0  0  0  0  0
  -25.4300  -15.3000   20.3400 N   0  0  0  0  0  0  0  0  0  0  0  0
  -24.6610  -15.9410   20.5050 H   0  0  0  0  0  0  0  0  0  0  0  0
  -26.2480  -15.7540   19.9580 H   0  0  0  0  0  0  0  0  0  0  0  0
  -28.8320  -23.9270   19.8490 C   0  0  0  0  0  0  0  0  0  0  0  0
  -28.8800  -24.1470   18.6330 O   0  0  0  0  0  0  0  0  0  0  0  0
  -28.3050  -25.1310   20.7690 C   0  0  0  0  0  2  0  0  0  0  0  0
  -28.4150  -26.5390   20.2420 O   0  0  0  0  0  0  0  0  0  0  0  0
  -24.6070  -31.9550   23.2470 C   0  0  0  0  0  0  0  0  0  0  0  0
  -27.2810  -27.3790   20.2420 C   0  0  0  0  0  0  0  0  0  0  0  0
  -23.4240  -30.5380   21.6060 C   0  0  0  0  0  3  0  0  0  0  0  0
  -24.8990  -28.9830   20.2000 C   0  0  0  0  0  0  0  0  0  0  0  0
  -25.9630  -30.8740   21.4340 C   0  0  0  0  0  2  0  0  0  0  0  0
  -26.0610  -29.4880   20.7980 C   0  0  0  0  0  0  0  0  0  0  0  0
  -27.2570  -28.7010   20.7990 C   0  0  0  0  0  3  0  0  0  0  0  0
  -26.0940  -26.9280   19.6280 C   0  0  0  0  0  3  0  0  0  0  0  0
  -24.9200  -27.7110   19.6050 C   0  0  0  0  0  3  0  0  0  0  0  0
  -23.6540  -29.8500   20.2330 C   0  0  0  0  0  2  0  0  0  0  0  0
  -24.6830  -31.1420   22.1530 N   0  0  0  0  0  0  0  0  0  0  0  0
  -23.5180  -32.2280   23.7760 O   0  0  0  0  0  0  0  0  0  0  0  0
  -22.7610  -29.5260   22.5710 C   0  0  0  0  0  0  0  0  0  0  0  0
  -21.4360  -29.3430   22.4420 N   0  0  0  0  0  0  0  0  0  0  0  0
  -23.4390  -28.9060   23.3930 O   0  0  0  0  0  0  0  0  0  0  0  0
  -20.9490  -29.8950   21.7500 H   0  0  0  0  0  0  0  0  0  0  0  0
  -18.0600  -28.1410   22.9490 C   0  0  0  0  0  0  0  0  0  0  0  0
  -20.6180  -28.4040   23.2130 C   0  0  0  0  0  3  0  0  0  0  0  0
  -20.7210  -26.9720   22.6350 C   0  0  0  0  0  2  0  0  0  0  0  0
  -19.6180  -26.6500   21.6220 C   0  0  0  0  0  2  0  0  0  0  0  0
  -18.2370  -26.7930   22.2680 C   0  0  0  0  0  2  0  0  0  0  0  0
  -19.1790  -28.9030   23.3780 C   0  0  0  0  0  0  0  0  0  0  0  0
  -18.9600  -30.1640   23.9740 C   0  0  0  0  0  3  0  0  0  0  0  0
  -17.6550  -30.6620   24.1460 C   0  0  0  0  0  3  0  0  0  0  0  0
  -16.5510  -29.8970   23.7330 C   0  0  0  0  0  3  0  0  0  0  0  0
  -16.7540  -28.6380   23.1410 C   0  0  0  0  0  3  0  0  0  0  0  0
  -25.8800  -32.6020   23.8750 C   0  0  0  0  0  3  0  0  0  0  0  0
  -25.5610  -34.0040   24.1870 N   0  0  0  0  0  0  0  0  0  0  0  0
  -25.9020  -35.0510   23.4250 C   0  0  0  0  0  0  0  0  0  0  0  0
  -26.5860  -34.9410   22.4050 O   0  0  0  0  0  0  0  0  0  0  0  0
  -24.9580  -34.1640   24.9800 H   0  0  0  0  0  0  0  0  0  0  0  0
  -24.1830  -36.8430   23.0230 C   0  0  0  0  0  1  0  0  0  0  0  0
  -25.4050  -36.4430   23.8640 C   0  0  0  0  0  3  0  0  0  0  0  0
  -27.5180  -37.3310   24.7420 C   0  0  0  0  0  1  0  0  0  0  0  0
  -26.4390  -37.4960   23.7720 N   0  0  0  0  0  0  0  0  0  0  0  0
  -26.0290  -38.4150   23.9080 H   0  0  0  0  0  0  0  0  0  0  0  0
  -26.3880  -31.8500   25.1660 C   0  0  1  0  0  0  0  0  0  0  0  0
  -25.2840  -31.6170   26.2240 C   0  0  0  0  0  1  0  0  0  0  0  0
  -26.9860  -30.4730   24.7980 C   0  0  0  0  0  1  0  0  0  0  0  0
  -27.5250  -32.6610   25.8320 C   0  0  0  0  0  1  0  0  0  0  0  0
  1  2  1  0
  3  6  2  0
  3  4  1  0
  4  1  2  0
  5  7  1  0
  5  2  2  0
  6  5  1  0
  8  6  1  0
  8  9  1  0
  9 19  1  0
  9  7  1  0
 10 19  1  0
 11 16  1  0
 12 13  1  0
 12 11  1  0
 14 13  1  0
 14 23  1  0
 14 15  1  0
 16 10  1  0
 16 15  1  0
 17 10  2  0
 19 18  1  0
 20 21  2  0
 21 40  1  0
 22 21  1  0
 22 25  1  0
 23 24  1  0
 23 20  1  0
 24 22  2  0
 25 26  1  0
 26 27  2  0
 28 31  1  0
 28 27  1  0
 29 28  2  0
 30 29  1  0
 30 25  2  0
 31 32  1  0
 32 33  1  0
 33 34  2  0
 35 34  1  0
 35 39  1  0
 36 35  2  0
 37 32  2  0
 37 36  1  0
 38 37  1  0
 40 41  1  0
 41 44  1  0
 41 43  1  0
 42 40  2  0
 45 20  1  0
 45 46  1  0
 47 45  1  0
 48  4  1  0
 48 50  1  0
 49 48  2  0
 51 50  1  0
 52 63  2  0
 53 51  1  0
 53 58  1  0
 54 62  1  0
 54 64  1  0
 55 61  1  0
 55 57  1  0
 56 62  1  0
 57 58  2  0
 57 56  1  0
 59 53  2  0
 60 59  1  0
 60 55  2  0
 61 54  1  0
 62 52  1  0
 64 66  2  0
 65 64  1  0
 67 65  1  0
 68 77  2  0
 68 73  1  0
 69 65  1  0
 69 73  1  0
 70 69  1  0
 71 72  1  0
 71 70  1  0
 72 68  1  0
 73 74  2  0
 74 75  1  0
 76 75  2  0
 77 76  1  0
 78 52  1  0
 78 79  1  0
 78 88  1  0
 79 82  1  0
 80 84  1  0
 80 79  1  0
 81 80  2  0
 84 83  1  0
 86 84  1  0
 86 87  1  0
 86 85  1  0
 88 91  1  1
 88 89  1  0
 90 88  1  0
M  ISO  4  10 100  19 100  50 101  51 101
M  END
>  <TORSDO>  (49) 
F 18

>  <SCORE>  (49) 
-14.525

>  <name>  (49) 
48

>  <ligand_id>  (49) 
48

>  <original_smiles>  (49) 
[H]c1c([H])c([H])c2c(c1[H])C([H])([H])C([H])([H])C([H])([H])C2([H])N([H])C(=O)C1([H])N(C(=O)C([H])(N([H])C(=O)C([H])(N([H])C([H])([H])[H])C([H])([H])[H])C(C([H])([H])[H])(C([H])([H])[H])C([H])([H])[H])C([H])([H])c2c([H])c(OC([H])([H])C(=O)c3c([H])c([H])c4c(c3[H])C([H])([H])C([H])(N(C(=O)N3C([H])([H])C([H])([H])C([H])([H])C([H])(n5nc(-c6c([H])c([H])c(Oc7c([H])c([H])c(F)c([H])c7F)c([H])c6[H])c(C(=O)N([H])[H])c5N([H])[H])C3([H])[H])C([H])([H])[H])C4([H])[H])c([H])c([H])c2C1([H])[H]

>  <smiles>  (49) 
[H]c1c([H])c([H])c2c(c1[H])C([H])([H])C([H])([H])C([H])([H])C2([H])N([H])C(=O)C1([H])N(C(=O)C([H])(N([H])C(=O)C([H])(N([H])C([H])([H])[H])C([H])([H])[H])C(C([H])([H])[H])(C([H])([H])[H])C([H])([H])[H])C([H])([H])c2c([H])c(OC([H])([H])C(=O)c3c([H])c([H])c4c(c3[H])C([H])([H])C([H])(N(C(=O)N3C([H])([H])C([H])([H])C([H])([H])C([H])(n5nc(-c6c([H])c([H])c(Oc7c([H])c([H])c(F)c([H])c7F)c([H])c6[H])c(C(=O)N([H])[H])c5N([H])[H])C3([H])[H])C([H])([H])[H])C4([H])[H])c([H])c([H])c2C1([H])[H]

$$$$
49:0:0
     RDKit          3D

 92100  0  0  1  0  0  0  0  0999 V2000
  -29.6330  -20.6670   20.1840 N   0  0  0  0  0  4  0  0  0  0  0  0
  -30.4070  -20.8210   20.8110 H   0  0  0  0  0  0  0  0  0  0  0  0
  -30.0090  -20.7390   19.2520 H   0  0  0  0  0  0  0  0  0  0  0  0
  -27.7300  -19.0470   19.8720 C   0  0  0  0  0  1  0  0  0  0  0  0
  -29.1840  -19.1670   20.3910 C   0  0  0  0  0  3  0  0  0  0  0  0
  -31.1720  -18.5820   18.0940 C   0  0  0  0  0  2  0  0  0  0  0  0
  -31.5700  -18.2920   19.5380 C   0  0  0  0  0  2  0  0  0  0  0  0
  -29.9930  -17.6410   18.3220 C   0  0  0  0  0  2  0  0  0  0  0  0
  -30.1150  -17.8510   19.8590 C   0  0  2  0  0  0  0  0  0  0  0  0
  -30.9720  -16.5660   21.9380 C   0  0  0  0  0  1  0  0  0  0  0  0
  -28.6420  -16.2270   21.3340 C   0  0  0  0  0  1  0  0  0  0  0  0
  -30.0420  -16.3780   20.7120 C   0  0  1  0  0  0  0  0  0  0  0  0
  -30.5820  -14.9210   20.0550 C   0  0  0  0  0  0  0  0  0  0  0  0
  -30.3490  -12.6470   18.9420 C   0  0  0  0  0  2  0  0  0  0  0  0
  -29.3320  -12.6950   17.7750 C   0  0  0  0  0  2  0  0  0  0  0  0
  -27.8930  -12.4720   18.2760 C   0  0  0  0  0  2  0  0  0  0  0  0
  -27.5810  -13.3120   19.5400 C   0  0  0  0  0  3  0  0  0  0  0  0
  -28.7110  -13.1670   20.5810 C   0  0  0  0  0  2  0  0  0  0  0  0
  -29.9510  -13.6700   19.9600 N   0  0  0  0  0  0  0  0  0  0  0  0
  -31.7120  -14.9560   19.5540 O   0  0  0  0  0  0  0  0  0  0  0  0
  -25.2310  -13.8740   20.4040 C   0  0  0  0  0  0  0  0  0  0  0  0
  -24.1950  -13.0890   20.8260 C   0  0  0  0  0  0  0  0  0  0  0  0
  -24.6630  -11.7420   20.7470 C   0  0  0  0  0  0  0  0  0  0  0  0
  -26.2680  -13.0070   20.0990 N   0  0  0  0  0  0  0  0  0  0  0  0
  -25.9350  -11.7170   20.3660 N   0  0  0  0  0  0  0  0  0  0  0  0
  -23.9530  -10.4740   20.9540 C   0  0  0  0  0  0  0  0  0  0  0  0
  -24.4110   -9.5140   21.8830 C   0  0  0  0  0  3  0  0  0  0  0  0
  -23.6970   -8.3120   22.0780 C   0  0  0  0  0  3  0  0  0  0  0  0
  -22.5130   -8.0610   21.3440 C   0  0  0  0  0  0  0  0  0  0  0  0
  -22.0760   -9.0110   20.4030 C   0  0  0  0  0  3  0  0  0  0  0  0
  -22.7880  -10.2050   20.2070 C   0  0  0  0  0  3  0  0  0  0  0  0
  -21.7710   -6.9100   21.4480 O   0  0  0  0  0  0  0  0  0  0  0  0
  -21.7140   -6.1940   22.6170 C   0  0  0  0  0  0  0  0  0  0  0  0
  -21.2740   -6.7770   23.8250 C   0  0  0  0  0  3  0  0  0  0  0  0
  -21.1630   -5.9880   24.9880 C   0  0  0  0  0  3  0  0  0  0  0  0
  -21.4840   -4.6180   24.9440 C   0  0  0  0  0  0  0  0  0  0  0  0
  -21.9190   -4.0360   23.7400 C   0  0  0  0  0  3  0  0  0  0  0  0
  -22.0320   -4.8210   22.5790 C   0  0  0  0  0  0  0  0  0  0  0  0
  -22.4300   -4.2510   21.4170 F   0  0  0  0  0  0  0  0  0  0  0  0
  -21.3710   -3.8580   26.0570 F   0  0  0  0  0  0  0  0  0  0  0  0
  -22.8140  -13.5560   21.1810 C   0  0  0  0  0  0  0  0  0  0  0  0
  -22.1380  -12.8430   22.0750 N   0  0  0  0  0  0  0  0  0  0  0  0
  -22.3430  -14.5870   20.7020 O   0  0  0  0  0  0  0  0  0  0  0  0
  -22.5320  -12.0090   22.4820 H   0  0  0  0  0  0  0  0  0  0  0  0
  -21.2140  -13.1370   22.3560 H   0  0  0  0  0  0  0  0  0  0  0  0
  -25.3620  -15.2480   20.2320 N   0  0  0  0  0  0  0  0  0  0  0  0
  -24.5880  -15.8820   20.3900 H   0  0  0  0  0  0  0  0  0  0  0  0
  -26.1710  -15.7010   19.8310 H   0  0  0  0  0  0  0  0  0  0  0  0
  -28.6470  -21.8850   20.3590 C   0  0  0  0  0  2  0  0  0  0  0  0
  -29.1120  -23.4880   20.3100 C   0  0  0  0  0  3  0  0  0  0  0  0
  -28.0180  -24.7400   20.2140 C   0  0  0  0  0  3  0  0  0  0  0  0
  -28.2970  -26.2550   20.2750 O   0  0  0  0  0  0  0  0  0  0  0  0
  -24.6200  -31.8810   23.2370 C   0  0  0  0  0  0  0  0  0  0  0  0
  -27.2190  -27.2020   20.2180 C   0  0  0  0  0  0  0  0  0  0  0  0
  -23.4220  -30.4780   21.6020 C   0  0  0  0  0  3  0  0  0  0  0  0
  -24.8760  -28.9080   20.1850 C   0  0  0  0  0  0  0  0  0  0  0  0
  -25.9740  -30.7600   21.4350 C   0  0  0  0  0  2  0  0  0  0  0  0
  -26.0530  -29.3690   20.7880 C   0  0  0  0  0  0  0  0  0  0  0  0
  -27.2270  -28.5320   20.7860 C   0  0  0  0  0  3  0  0  0  0  0  0
  -26.0110  -26.8310   19.5820 C   0  0  0  0  0  3  0  0  0  0  0  0
  -24.8660  -27.6500   19.5670 C   0  0  0  0  0  3  0  0  0  0  0  0
  -23.6440  -29.7960   20.2260 C   0  0  0  0  0  2  0  0  0  0  0  0
  -24.6920  -31.0600   22.1460 N   0  0  0  0  0  0  0  0  0  0  0  0
  -23.5330  -32.1640   23.7620 O   0  0  0  0  0  0  0  0  0  0  0  0
  -22.7470  -29.4710   22.5660 C   0  0  0  0  0  0  0  0  0  0  0  0
  -21.4190  -29.3030   22.4400 N   0  0  0  0  0  0  0  0  0  0  0  0
  -23.4190  -28.8440   23.3890 O   0  0  0  0  0  0  0  0  0  0  0  0
  -20.9340  -29.8590   21.7500 H   0  0  0  0  0  0  0  0  0  0  0  0
  -18.0330  -28.1210   22.9500 C   0  0  0  0  0  0  0  0  0  0  0  0
  -20.5930  -28.3700   23.2130 C   0  0  0  0  0  3  0  0  0  0  0  0
  -20.6880  -26.9380   22.6390 C   0  0  0  0  0  2  0  0  0  0  0  0
  -19.5810  -26.6180   21.6280 C   0  0  0  0  0  2  0  0  0  0  0  0
  -18.2020  -26.7700   22.2760 C   0  0  0  0  0  2  0  0  0  0  0  0
  -19.1560  -28.8790   23.3770 C   0  0  0  0  0  0  0  0  0  0  0  0
  -18.9430  -30.1420   23.9700 C   0  0  0  0  0  3  0  0  0  0  0  0
  -17.6400  -30.6470   24.1420 C   0  0  0  0  0  3  0  0  0  0  0  0
  -16.5320  -29.8860   23.7320 C   0  0  0  0  0  3  0  0  0  0  0  0
  -16.7290  -28.6250   23.1410 C   0  0  0  0  0  3  0  0  0  0  0  0
  -25.8980  -32.5170   23.8630 C   0  0  0  0  0  3  0  0  0  0  0  0
  -25.5840  -33.9160   24.1890 N   0  0  0  0  0  0  0  0  0  0  0  0
  -25.9170  -34.9700   23.4300 C   0  0  0  0  0  0  0  0  0  0  0  0
  -26.5850  -34.8650   22.3980 O   0  0  0  0  0  0  0  0  0  0  0  0
  -24.9910  -34.0730   24.9900 H   0  0  0  0  0  0  0  0  0  0  0  0
  -24.1860  -36.7640   23.0840 C   0  0  0  0  0  1  0  0  0  0  0  0
  -25.4320  -36.3590   23.8890 C   0  0  0  0  0  3  0  0  0  0  0  0
  -27.5710  -37.2480   24.7050 C   0  0  0  0  0  1  0  0  0  0  0  0
  -26.4640  -37.4130   23.7680 N   0  0  0  0  0  0  0  0  0  0  0  0
  -26.0580  -38.3340   23.9130 H   0  0  0  0  0  0  0  0  0  0  0  0
  -26.4060  -31.7530   25.1480 C   0  0  1  0  0  0  0  0  0  0  0  0
  -25.3080  -31.5220   26.2120 C   0  0  0  0  0  1  0  0  0  0  0  0
  -26.9900  -30.3700   24.7710 C   0  0  0  0  0  1  0  0  0  0  0  0
  -27.5540  -32.5490   25.8110 C   0  0  0  0  0  1  0  0  0  0  0  0
  1 49  1  0
  1  5  1  0
  1  2  1  0
  3  1  1  0
  5  4  1  0
  6  8  1  0
  6  7  1  0
  7  9  1  0
  8  9  1  0
  9  5  1  1
  9 12  1  0
 12 11  1  1
 12 10  1  0
 13 12  1  0
 14 19  1  0
 15 16  1  0
 15 14  1  0
 17 16  1  0
 17 24  1  0
 17 18  1  0
 19 13  1  0
 19 18  1  0
 20 13  2  0
 21 22  2  0
 22 41  1  0
 23 22  1  0
 23 26  1  0
 24 25  1  0
 24 21  1  0
 25 23  2  0
 26 27  1  0
 27 28  2  0
 29 32  1  0
 29 28  1  0
 30 29  2  0
 31 30  1  0
 31 26  2  0
 32 33  1  0
 33 34  1  0
 34 35  2  0
 36 35  1  0
 36 40  1  0
 37 36  2  0
 38 33  2  0
 38 37  1  0
 39 38  1  0
 41 42  1  0
 42 45  1  0
 42 44  1  0
 43 41  2  0
 46 47  1  0
 46 21  1  0
 48 46  1  0
 50 49  1  0
 51 52  1  0
 51 50  2  0
 53 64  2  0
 54 52  1  0
 54 59  1  0
 55 63  1  0
 55 65  1  0
 56 62  1  0
 56 58  1  0
 57 63  1  0
 58 57  1  0
 59 58  2  0
 60 54  2  0
 61 60  1  0
 61 56  2  0
 62 55  1  0
 63 53  1  0
 65 67  2  0
 66 65  1  0
 68 66  1  0
 69 78  2  0
 69 74  1  0
 70 66  1  0
 70 74  1  0
 71 70  1  0
 72 73  1  0
 72 71  1  0
 73 69  1  0
 74 75  2  0
 75 76  1  0
 77 76  2  0
 78 77  1  0
 79 53  1  0
 79 80  1  0
 79 89  1  0
 80 83  1  0
 81 85  1  0
 81 80  1  0
 82 81  2  0
 85 84  1  0
 87 85  1  0
 87 88  1  0
 87 86  1  0
 89 92  1  1
 89 90  1  0
 91 89  1  0
M  ISO  4  12 100  13 100  51 101  52 101
M  END
>  <TORSDO>  (50) 
F 22

>  <SCORE>  (50) 
-13.445

>  <name>  (50) 
49

>  <ligand_id>  (50) 
49

>  <original_smiles>  (50) 
[H]c1c([H])c([H])c2c(c1[H])C([H])([H])C([H])([H])C([H])([H])C2([H])N([H])C(=O)C1([H])N(C(=O)C([H])(N([H])C(=O)C([H])(N([H])C([H])([H])[H])C([H])([H])[H])C(C([H])([H])[H])(C([H])([H])[H])C([H])([H])[H])C([H])([H])c2c([H])c(OC([H])([H])C([H])([H])C([H])([H])[N+]([H])([H])C([H])(C([H])([H])[H])C3(C(C(=O)N4C([H])([H])C([H])([H])C([H])([H])C([H])(n5nc(-c6c([H])c([H])c(Oc7c([H])c([H])c(F)c([H])c7F)c([H])c6[H])c(C(=O)N([H])[H])c5N([H])[H])C4([H])[H])(C([H])([H])[H])C([H])([H])[H])C([H])([H])C([H])([H])C3([H])[H])c([H])c([H])c2C1([H])[H]

>  <smiles>  (50) 
[H]c1c([H])c([H])c2c(c1[H])C([H])([H])C([H])([H])C([H])([H])C2([H])N([H])C(=O)C1([H])N(C(=O)C([H])(N([H])C(=O)C([H])(N([H])C([H])([H])[H])C([H])([H])[H])C(C([H])([H])[H])(C([H])([H])[H])C([H])([H])[H])C([H])([H])c2c([H])c(OC([H])([H])C([H])([H])C([H])([H])[N+]([H])([H])C([H])(C([H])([H])[H])C3(C(C(=O)N4C([H])([H])C([H])([H])C([H])([H])C([H])(n5nc(-c6c([H])c([H])c(Oc7c([H])c([H])c(F)c([H])c7F)c([H])c6[H])c(C(=O)N([H])[H])c5N([H])[H])C4([H])[H])(C([H])([H])[H])C([H])([H])[H])C([H])([H])C([H])([H])C3([H])[H])c([H])c([H])c2C1([H])[H]

$$$$
50:0:0
     RDKit          3D

 87 94  0  0  1  0  0  0  0  0999 V2000
  -29.0070  -23.3770   20.2500 C   0  0  0  0  0  0  0  0  0  0  0  0
  -30.1600  -23.7190   20.5340 O   0  0  0  0  0  0  0  0  0  0  0  0
  -29.5600  -20.6610   20.1360 C   0  0  0  0  0  3  0  0  0  0  0  0
  -28.7000  -21.8010   20.1050 C   0  0  0  0  0  3  0  0  0  0  0  0
  -29.2200  -19.0910   20.0150 C   0  0  0  0  0  0  0  0  0  0  0  0
  -28.0310  -18.7800   19.9090 O   0  0  0  0  0  0  0  0  0  0  0  0
  -30.2800  -17.7960   19.9790 C   0  0  0  0  0  2  0  0  0  0  0  0
  -30.6220  -15.0620   19.9790 C   0  0  0  0  0  0  0  0  0  0  0  0
  -30.4580  -12.7360   18.9350 C   0  0  0  0  0  2  0  0  0  0  0  0
  -29.4390  -12.7040   17.7690 C   0  0  0  0  0  2  0  0  0  0  0  0
  -28.0080  -12.4640   18.2850 C   0  0  0  0  0  2  0  0  0  0  0  0
  -27.6810  -13.3320   19.5280 C   0  0  0  0  0  3  0  0  0  0  0  0
  -28.8130  -13.2620   20.5700 C   0  0  0  0  0  2  0  0  0  0  0  0
  -30.0250  -13.7870   19.9130 N   0  0  0  0  0  0  0  0  0  0  0  0
  -31.7660  -15.1340   19.5100 O   0  0  0  0  0  0  0  0  0  0  0  0
  -29.0960  -16.2470   21.5410 C   0  0  0  0  0  1  0  0  0  0  0  0
  -29.9160  -16.2750   20.3240 N   0  0  0  0  0  0  0  0  0  0  0  0
  -25.3540  -13.8760   20.4430 C   0  0  0  0  0  0  0  0  0  0  0  0
  -24.3190  -13.0850   20.8550 C   0  0  0  0  0  0  0  0  0  0  0  0
  -24.7800  -11.7370   20.7410 C   0  0  0  0  0  0  0  0  0  0  0  0
  -26.3800  -13.0110   20.1000 N   0  0  0  0  0  0  0  0  0  0  0  0
  -26.0470  -11.7160   20.3430 N   0  0  0  0  0  0  0  0  0  0  0  0
  -24.0690  -10.4670   20.9320 C   0  0  0  0  0  0  0  0  0  0  0  0
  -24.5190   -9.4990   21.8560 C   0  0  0  0  0  3  0  0  0  0  0  0
  -23.8050   -8.2940   22.0360 C   0  0  0  0  0  3  0  0  0  0  0  0
  -22.6260   -8.0500   21.2910 C   0  0  0  0  0  0  0  0  0  0  0  0
  -22.1950   -9.0070   20.3560 C   0  0  0  0  0  3  0  0  0  0  0  0
  -22.9100  -10.2030   20.1740 C   0  0  0  0  0  3  0  0  0  0  0  0
  -21.8820   -6.8980   21.3810 O   0  0  0  0  0  0  0  0  0  0  0  0
  -21.7900   -6.1910   22.5530 C   0  0  0  0  0  0  0  0  0  0  0  0
  -21.2970   -6.7770   23.7390 C   0  0  0  0  0  3  0  0  0  0  0  0
  -21.1530   -5.9950   24.9030 C   0  0  0  0  0  3  0  0  0  0  0  0
  -21.4900   -4.6280   24.8800 C   0  0  0  0  0  0  0  0  0  0  0  0
  -21.9740   -4.0410   23.6980 C   0  0  0  0  0  3  0  0  0  0  0  0
  -22.1200   -4.8200   22.5360 C   0  0  0  0  0  0  0  0  0  0  0  0
  -22.5670   -4.2460   21.3940 F   0  0  0  0  0  0  0  0  0  0  0  0
  -21.3430   -3.8750   25.9950 F   0  0  0  0  0  0  0  0  0  0  0  0
  -22.9430  -13.5470   21.2380 C   0  0  0  0  0  0  0  0  0  0  0  0
  -22.2820  -12.8260   22.1360 N   0  0  0  0  0  0  0  0  0  0  0  0
  -22.4660  -14.5840   20.7770 O   0  0  0  0  0  0  0  0  0  0  0  0
  -22.6810  -11.9880   22.5290 H   0  0  0  0  0  0  0  0  0  0  0  0
  -21.3610  -13.1180   22.4350 H   0  0  0  0  0  0  0  0  0  0  0  0
  -25.5010  -15.2530   20.3050 N   0  0  0  0  0  0  0  0  0  0  0  0
  -24.7440  -15.8990   20.5000 H   0  0  0  0  0  0  0  0  0  0  0  0
  -26.3280  -15.7130   19.9460 H   0  0  0  0  0  0  0  0  0  0  0  0
  -27.9210  -24.6290   20.0510 C   0  0  0  0  0  2  0  0  0  0  0  0
  -28.2480  -26.1510   20.2690 O   0  0  0  0  0  0  0  0  0  0  0  0
  -24.6440  -31.8750   23.2750 C   0  0  0  0  0  0  0  0  0  0  0  0
  -27.2050  -27.1560   20.2120 C   0  0  0  0  0  0  0  0  0  0  0  0
  -23.4380  -30.4920   21.6300 C   0  0  0  0  0  3  0  0  0  0  0  0
  -24.8810  -28.9220   20.1940 C   0  0  0  0  0  0  0  0  0  0  0  0
  -25.9950  -30.7470   21.4650 C   0  0  0  0  0  2  0  0  0  0  0  0
  -26.0640  -29.3570   20.8040 C   0  0  0  0  0  0  0  0  0  0  0  0
  -27.2270  -28.4920   20.7940 C   0  0  0  0  0  3  0  0  0  0  0  0
  -25.9920  -26.8300   19.5620 C   0  0  0  0  0  3  0  0  0  0  0  0
  -24.8600  -27.6720   19.5580 C   0  0  0  0  0  3  0  0  0  0  0  0
  -23.6570  -29.8230   20.2490 C   0  0  0  0  0  2  0  0  0  0  0  0
  -24.7120  -31.0600   22.1780 N   0  0  0  0  0  0  0  0  0  0  0  0
  -23.5590  -32.1610   23.8050 O   0  0  0  0  0  0  0  0  0  0  0  0
  -22.7570  -29.4820   22.5890 C   0  0  0  0  0  0  0  0  0  0  0  0
  -21.4300  -29.3080   22.4560 N   0  0  0  0  0  0  0  0  0  0  0  0
  -23.4270  -28.8570   23.4160 O   0  0  0  0  0  0  0  0  0  0  0  0
  -20.9460  -29.8630   21.7640 H   0  0  0  0  0  0  0  0  0  0  0  0
  -18.0500  -28.0980   22.9450 C   0  0  0  0  0  0  0  0  0  0  0  0
  -20.6070  -28.3680   23.2230 C   0  0  0  0  0  3  0  0  0  0  0  0
  -20.7150  -26.9370   22.6480 C   0  0  0  0  0  2  0  0  0  0  0  0
  -19.6190  -26.6110   21.6280 C   0  0  0  0  0  2  0  0  0  0  0  0
  -18.2340  -26.7500   22.2670 C   0  0  0  0  0  2  0  0  0  0  0  0
  -19.1640  -28.8640   23.3790 C   0  0  0  0  0  0  0  0  0  0  0  0
  -18.9370  -30.1240   23.9760 C   0  0  0  0  0  3  0  0  0  0  0  0
  -17.6300  -30.6170   24.1410 C   0  0  0  0  0  3  0  0  0  0  0  0
  -16.5300  -29.8480   23.7210 C   0  0  0  0  0  3  0  0  0  0  0  0
  -16.7410  -28.5900   23.1290 C   0  0  0  0  0  3  0  0  0  0  0  0
  -25.9230  -32.5060   23.9040 C   0  0  0  0  0  3  0  0  0  0  0  0
  -26.4230  -31.7390   25.1910 C   0  0  1  0  0  0  0  0  0  0  0  0
  -25.3200  -31.5180   26.2520 C   0  0  0  0  0  1  0  0  0  0  0  0
  -26.9990  -30.3530   24.8180 C   0  0  0  0  0  1  0  0  0  0  0  0
  -27.5750  -32.5280   25.8550 C   0  0  0  0  0  1  0  0  0  0  0  0
  -25.6190  -33.9080   24.2300 N   0  0  0  0  0  0  0  0  0  0  0  0
  -25.9400  -34.9590   23.4640 C   0  0  0  0  0  0  0  0  0  0  0  0
  -26.5890  -34.8500   22.4210 O   0  0  0  0  0  0  0  0  0  0  0  0
  -25.0390  -34.0660   25.0420 H   0  0  0  0  0  0  0  0  0  0  0  0
  -24.1960  -36.7490   23.1590 C   0  0  0  0  0  1  0  0  0  0  0  0
  -25.4670  -36.3520   23.9280 C   0  0  0  0  0  3  0  0  0  0  0  0
  -27.6270  -37.2520   24.6750 C   0  0  0  0  0  1  0  0  0  0  0  0
  -26.4930  -37.4060   23.7680 N   0  0  0  0  0  0  0  0  0  0  0  0
  -26.0890  -38.3270   23.9170 H   0  0  0  0  0  0  0  0  0  0  0  0
  1  2  2  0
  4  3  2  0
  4  1  1  0
  5  3  1  0
  6  5  2  0
  7  5  1  0
  7 17  1  0
  8 17  1  0
  9 14  1  0
 10 11  1  0
 10  9  1  0
 12 11  1  0
 12 21  1  0
 12 13  1  0
 14  8  1  0
 14 13  1  0
 15  8  2  0
 17 16  1  0
 18 19  2  0
 19 38  1  0
 20 19  1  0
 20 23  1  0
 21 22  1  0
 21 18  1  0
 22 20  2  0
 23 24  1  0
 24 25  2  0
 26 29  1  0
 26 25  1  0
 27 26  2  0
 28 27  1  0
 28 23  2  0
 29 30  1  0
 30 31  1  0
 31 32  2  0
 33 32  1  0
 33 37  1  0
 34 33  2  0
 35 30  2  0
 35 34  1  0
 36 35  1  0
 38 39  1  0
 39 42  1  0
 39 41  1  0
 40 38  2  0
 43 18  1  0
 43 44  1  0
 45 43  1  0
 46  1  1  0
 46 47  1  0
 48 59  2  0
 49 47  1  0
 49 54  1  0
 50 58  1  0
 50 60  1  0
 51 57  1  0
 51 53  1  0
 52 58  1  0
 53 52  1  0
 54 53  2  0
 55 49  2  0
 56 55  1  0
 56 51  2  0
 57 50  1  0
 58 48  1  0
 60 62  2  0
 61 60  1  0
 63 61  1  0
 64 73  2  0
 64 69  1  0
 65 61  1  0
 65 69  1  0
 66 65  1  0
 67 68  1  0
 67 66  1  0
 68 64  1  0
 69 70  2  0
 70 71  1  0
 72 71  2  0
 73 72  1  0
 74 48  1  0
 74 79  1  0
 74 75  1  0
 75 78  1  1
 75 76  1  0
 77 75  1  0
 79 82  1  0
 80 84  1  0
 80 79  1  0
 81 80  2  0
 84 83  1  0
 86 87  1  0
 86 84  1  0
 86 85  1  0
M  ISO  4   8 100  17 100  46 101  47 101
M  END
>  <TORSDO>  (51) 
F 20

>  <SCORE>  (51) 
-13.156

>  <name>  (51) 
50

>  <ligand_id>  (51) 
50

>  <original_smiles>  (51) 
[H]C(C(=O)C([H])([H])Oc1c([H])c([H])c2c(c1[H])C([H])([H])N(C(=O)C([H])(N([H])C(=O)C([H])(N([H])C([H])([H])[H])C([H])([H])[H])C(C([H])([H])[H])(C([H])([H])[H])C([H])([H])[H])C([H])(C(=O)N([H])C1([H])c3c([H])c([H])c([H])c([H])c3C([H])([H])C([H])([H])C1([H])[H])C2([H])[H])=C([H])C(=O)C([H])([H])N(C(=O)N1C([H])([H])C([H])([H])C([H])([H])C([H])(n2nc(-c3c([H])c([H])c(Oc4c([H])c([H])c(F)c([H])c4F)c([H])c3[H])c(C(=O)N([H])[H])c2N([H])[H])C1([H])[H])C([H])([H])[H]

>  <smiles>  (51) 
[H]C(C(=O)C([H])([H])Oc1c([H])c([H])c2c(c1[H])C([H])([H])N(C(=O)C([H])(N([H])C(=O)C([H])(N([H])C([H])([H])[H])C([H])([H])[H])C(C([H])([H])[H])(C([H])([H])[H])C([H])([H])[H])C([H])(C(=O)N([H])C1([H])c3c([H])c([H])c([H])c([H])c3C([H])([H])C([H])([H])C1([H])[H])C2([H])[H])=C([H])C(=O)C([H])([H])N(C(=O)N1C([H])([H])C([H])([H])C([H])([H])C([H])(n2nc(-c3c([H])c([H])c(Oc4c([H])c([H])c(F)c([H])c4F)c([H])c3[H])c(C(=O)N([H])[H])c2N([H])[H])C1([H])[H])C([H])([H])[H]

$$$$
51:0:0
     RDKit          3D

 97106  0  0  1  0  0  0  0  0999 V2000
  -30.0740  -21.7400   20.6040 C   0  0  0  0  0  3  0  0  0  0  0  0
  -28.6860  -21.3730   20.7320 C   0  0  0  0  0  0  0  0  0  0  0  0
  -30.1560  -23.0000   21.0490 C   0  0  0  0  0  3  0  0  0  0  0  0
  -28.0110  -22.4640   21.1460 C   0  0  0  0  0  3  0  0  0  0  0  0
  -30.7800  -24.2250   20.4520 C   0  0  0  0  0  2  0  0  0  0  0  0
  -29.2980  -24.7150   20.4510 C   0  0  0  0  0  3  0  0  0  0  0  0
  -28.8900  -23.6550   21.5280 C   0  0  2  0  0  0  0  0  0  0  0  0
  -28.1030  -20.0770   20.3990 C   0  0  0  0  0  0  0  0  0  0  0  0
  -29.0120  -19.1220   20.1530 N   0  0  0  0  0  0  0  0  0  0  0  0
  -26.8900  -19.8570   20.3320 O   0  0  0  0  0  0  0  0  0  0  0  0
  -29.9850  -19.3670   20.2600 H   0  0  0  0  0  0  0  0  0  0  0  0
  -28.6830  -17.8040   19.6200 C   0  0  0  0  0  2  0  0  0  0  0  0
  -29.9120  -16.8870   19.4750 C   0  0  0  0  0  2  0  0  0  0  0  0
  -30.2450  -16.0280   20.7190 C   0  0  0  0  0  2  0  0  0  0  0  0
  -30.9900  -14.7480   20.2920 C   0  0  0  0  0  0  0  0  0  0  0  0
  -30.7220  -12.5260   19.2710 C   0  0  0  0  0  2  0  0  0  0  0  0
  -29.7810  -12.6660   18.0540 C   0  0  0  0  0  2  0  0  0  0  0  0
  -28.3010  -12.5660   18.4780 C   0  0  0  0  0  2  0  0  0  0  0  0
  -27.9620  -13.4700   19.6920 C   0  0  0  0  0  3  0  0  0  0  0  0
  -29.0100  -13.2770   20.8120 C   0  0  0  0  0  2  0  0  0  0  0  0
  -30.3390  -13.5560   20.2480 N   0  0  0  0  0  0  0  0  0  0  0  0
  -32.1240  -14.8990   19.8280 O   0  0  0  0  0  0  0  0  0  0  0  0
  -25.5840  -14.1420   20.4180 C   0  0  0  0  0  0  0  0  0  0  0  0
  -24.4970  -13.4000   20.7890 C   0  0  0  0  0  0  0  0  0  0  0  0
  -24.9160  -12.0350   20.7330 C   0  0  0  0  0  0  0  0  0  0  0  0
  -26.6030  -13.2330   20.1720 N   0  0  0  0  0  0  0  0  0  0  0  0
  -26.2010  -11.9600   20.4130 N   0  0  0  0  0  0  0  0  0  0  0  0
  -24.1520  -10.7940   20.9060 C   0  0  0  0  0  0  0  0  0  0  0  0
  -24.5460   -9.8110   21.8400 C   0  0  0  0  0  3  0  0  0  0  0  0
  -23.7850   -8.6320   22.0020 C   0  0  0  0  0  3  0  0  0  0  0  0
  -22.6160   -8.4300   21.2300 C   0  0  0  0  0  0  0  0  0  0  0  0
  -22.2430   -9.4020   20.2850 C   0  0  0  0  0  3  0  0  0  0  0  0
  -23.0030  -10.5710   20.1210 C   0  0  0  0  0  3  0  0  0  0  0  0
  -21.8300   -7.3060   21.3000 O   0  0  0  0  0  0  0  0  0  0  0  0
  -21.7260   -6.5730   22.4550 C   0  0  0  0  0  0  0  0  0  0  0  0
  -21.2690   -7.1450   23.6630 C   0  0  0  0  0  3  0  0  0  0  0  0
  -21.1120   -6.3400   24.8080 C   0  0  0  0  0  3  0  0  0  0  0  0
  -21.4020   -4.9650   24.7470 C   0  0  0  0  0  0  0  0  0  0  0  0
  -21.8540   -4.3910   23.5460 C   0  0  0  0  0  3  0  0  0  0  0  0
  -22.0130   -5.1940   22.4020 C   0  0  0  0  0  0  0  0  0  0  0  0
  -22.4280   -4.6320   21.2410 F   0  0  0  0  0  0  0  0  0  0  0  0
  -21.2430   -4.1890   25.8450 F   0  0  0  0  0  0  0  0  0  0  0  0
  -23.1170  -13.9170   21.0810 C   0  0  0  0  0  0  0  0  0  0  0  0
  -22.3770  -13.2360   21.9480 N   0  0  0  0  0  0  0  0  0  0  0  0
  -22.7040  -14.9600   20.5740 O   0  0  0  0  0  0  0  0  0  0  0  0
  -22.7230  -12.3910   22.3790 H   0  0  0  0  0  0  0  0  0  0  0  0
  -21.4550  -13.5680   22.1900 H   0  0  0  0  0  0  0  0  0  0  0  0
  -25.7890  -15.5090   20.2540 N   0  0  0  0  0  0  0  0  0  0  0  0
  -25.0400  -16.1850   20.3570 H   0  0  0  0  0  0  0  0  0  0  0  0
  -26.6350  -15.9090   19.8720 H   0  0  0  0  0  0  0  0  0  0  0  0
  -26.6950  -22.6130   21.3730 O   0  0  0  0  0  0  0  0  0  0  0  0
  -26.2750  -21.8000   21.1130 H   0  0  0  0  0  0  0  0  0  0  0  0
  -29.0290  -26.1930   20.7490 C   0  0  0  0  0  2  0  0  0  0  0  0
  -28.8390  -26.9510   19.5510 O   0  0  0  0  0  0  0  0  0  0  0  0
  -24.6290  -31.5770   22.9060 C   0  0  0  0  0  0  0  0  0  0  0  0
  -27.6440  -27.6190   19.5530 C   0  0  0  0  0  0  0  0  0  0  0  0
  -23.5490  -30.1970   21.1580 C   0  0  0  0  0  3  0  0  0  0  0  0
  -25.1320  -28.8920   19.6430 C   0  0  0  0  0  0  0  0  0  0  0  0
  -26.0320  -30.7880   21.0060 C   0  0  0  0  0  2  0  0  0  0  0  0
  -26.2390  -29.4780   20.2750 C   0  0  0  0  0  0  0  0  0  0  0  0
  -27.5010  -28.8490   20.2290 C   0  0  0  0  0  3  0  0  0  0  0  0
  -26.5290  -27.0380   18.9190 C   0  0  0  0  0  3  0  0  0  0  0  0
  -25.2720  -27.6670   18.9640 C   0  0  0  0  0  3  0  0  0  0  0  0
  -23.8160  -29.6300   19.7380 C   0  0  0  0  0  2  0  0  0  0  0  0
  -24.7540  -30.8650   21.7490 N   0  0  0  0  0  0  0  0  0  0  0  0
  -23.5260  -31.7210   23.4500 O   0  0  0  0  0  0  0  0  0  0  0  0
  -22.9840  -29.0630   22.0400 C   0  0  0  0  0  0  0  0  0  0  0  0
  -21.6740  -28.8010   21.9090 N   0  0  0  0  0  0  0  0  0  0  0  0
  -23.7210  -28.4250   22.7970 O   0  0  0  0  0  0  0  0  0  0  0  0
  -21.1400  -29.3740   21.2700 H   0  0  0  0  0  0  0  0  0  0  0  0
  -18.3840  -27.3770   22.3700 C   0  0  0  0  0  0  0  0  0  0  0  0
  -20.9300  -27.7540   22.6070 C   0  0  0  0  0  3  0  0  0  0  0  0
  -21.0950  -26.3890   21.8980 C   0  0  0  0  0  2  0  0  0  0  0  0
  -19.9850  -26.0960   20.8840 C   0  0  0  0  0  2  0  0  0  0  0  0
  -18.6160  -26.1060   21.5690 C   0  0  0  0  0  2  0  0  0  0  0  0
  -19.4710  -28.1590   22.8430 C   0  0  0  0  0  0  0  0  0  0  0  0
  -19.2010  -29.3490   23.5530 C   0  0  0  0  0  3  0  0  0  0  0  0
  -17.8770  -29.7610   23.7900 C   0  0  0  0  0  3  0  0  0  0  0  0
  -16.8050  -28.9740   23.3340 C   0  0  0  0  0  3  0  0  0  0  0  0
  -17.0590  -27.7830   22.6310 C   0  0  0  0  0  3  0  0  0  0  0  0
  -25.8570  -32.2680   23.5800 C   0  0  0  0  0  3  0  0  0  0  0  0
  -25.4360  -33.6140   23.9920 N   0  0  0  0  0  0  0  0  0  0  0  0
  -25.7040  -34.7360   23.3110 C   0  0  0  0  0  0  0  0  0  0  0  0
  -26.4020  -34.7540   22.2940 O   0  0  0  0  0  0  0  0  0  0  0  0
  -24.8130  -33.6690   24.7850 H   0  0  0  0  0  0  0  0  0  0  0  0
  -23.8530  -36.4130   23.0250 C   0  0  0  0  0  1  0  0  0  0  0  0
  -25.1030  -36.0500   23.8430 C   0  0  0  0  0  3  0  0  0  0  0  0
  -27.1450  -37.0320   24.7920 C   0  0  0  0  0  1  0  0  0  0  0  0
  -26.0580  -37.1810   23.8270 N   0  0  0  0  0  0  0  0  0  0  0  0
  -25.5810  -38.0570   24.0200 H   0  0  0  0  0  0  0  0  0  0  0  0
  -26.4290  -31.4600   24.8080 C   0  0  1  0  0  0  0  0  0  0  0  0
  -25.3550  -31.0700   25.8490 C   0  0  0  0  0  1  0  0  0  0  0  0
  -27.1190  -30.1610   24.3300 C   0  0  0  0  0  1  0  0  0  0  0  0
  -27.5130  -32.2980   25.5280 C   0  0  0  0  0  1  0  0  0  0  0  0
  -28.9210  -23.9550   23.0300 C   0  0  0  0  0  2  0  0  0  0  0  0
  -27.8060  -24.7580   23.3650 O   0  0  0  0  0  0  0  0  0  0  0  0
  -27.0500  -24.3500   22.9480 H   0  0  0  0  0  0  0  0  0  0  0  0
  1  2  2  0
  1  3  1  0
  2  4  1  0
  3  5  1  0
  3  7  1  0
  4 51  1  0
  4  7  1  0
  6  5  1  0
  6 53  1  0
  6  7  1  0
  7 95  1  1
  8  2  1  0
  9 11  1  0
  9  8  1  0
 10  8  2  0
 12  9  1  0
 13 12  1  0
 13 14  1  0
 15 14  1  0
 16 21  1  0
 17 18  1  0
 17 16  1  0
 19 18  1  0
 19 26  1  0
 19 20  1  0
 21 15  1  0
 21 20  1  0
 22 15  2  0
 23 24  2  0
 24 43  1  0
 25 24  1  0
 25 28  1  0
 26 27  1  0
 26 23  1  0
 27 25  2  0
 28 29  1  0
 29 30  2  0
 31 34  1  0
 31 30  1  0
 32 31  2  0
 33 32  1  0
 33 28  2  0
 34 35  1  0
 35 36  1  0
 36 37  2  0
 38 37  1  0
 38 42  1  0
 39 38  2  0
 40 35  2  0
 40 39  1  0
 41 40  1  0
 43 44  1  0
 44 47  1  0
 44 46  1  0
 45 43  2  0
 48 49  1  0
 48 23  1  0
 50 48  1  0
 52 51  1  0
 54 56  1  0
 54 53  1  0
 55 66  2  0
 56 61  1  0
 57 65  1  0
 57 67  1  0
 58 64  1  0
 58 60  1  0
 59 65  1  0
 60 59  1  0
 61 60  2  0
 62 63  1  0
 62 56  2  0
 63 58  2  0
 64 57  1  0
 65 55  1  0
 67 69  2  0
 68 67  1  0
 70 68  1  0
 71 80  2  0
 71 76  1  0
 72 68  1  0
 72 76  1  0
 73 72  1  0
 74 75  1  0
 74 73  1  0
 75 71  1  0
 76 77  2  0
 77 78  1  0
 79 78  2  0
 80 79  1  0
 81 55  1  0
 81 82  1  0
 81 91  1  0
 82 85  1  0
 83 87  1  0
 83 82  1  0
 84 83  2  0
 87 86  1  0
 89 87  1  0
 89 90  1  0
 89 88  1  0
 91 94  1  1
 91 92  1  0
 93 91  1  0
 95 96  1  0
 97 96  1  0
M  ISO  4  14 100  15 100  53 101  54 101
M  END
>  <TORSDO>  (52) 
F 24

>  <SCORE>  (52) 
-11.056

>  <name>  (52) 
51

>  <ligand_id>  (52) 
51

>  <original_smiles>  (52) 
[H]OC1=C(C(=O)N([H])C([H])([H])C([H])([H])C([H])([H])C(=O)N2C([H])([H])C([H])([H])C([H])([H])C([H])(n3nc(-c4c([H])c([H])c(Oc5c([H])c([H])c(F)c([H])c5F)c([H])c4[H])c(C(=O)N([H])[H])c3N([H])[H])C2([H])[H])C([H])=C2C([H])([H])C([H])(C([H])([H])Oc3c([H])c([H])c4c(c3[H])C([H])([H])N(C(=O)C([H])(N([H])C(=O)C([H])(N([H])C([H])([H])[H])C([H])([H])[H])C(C([H])([H])[H])(C([H])([H])[H])C([H])([H])[H])C([H])(C(=O)N([H])C3([H])c5c([H])c([H])c([H])c([H])c5C([H])([H])C([H])([H])C3([H])[H])C4([H])[H])C12C([H])([H])O[H]

>  <smiles>  (52) 
[H]OC1=C(C(=O)N([H])C([H])([H])C([H])([H])C([H])([H])C(=O)N2C([H])([H])C([H])([H])C([H])([H])C([H])(n3nc(-c4c([H])c([H])c(Oc5c([H])c([H])c(F)c([H])c5F)c([H])c4[H])c(C(=O)N([H])[H])c3N([H])[H])C2([H])[H])C([H])=C2C([H])([H])C([H])(C([H])([H])Oc3c([H])c([H])c4c(c3[H])C([H])([H])N(C(=O)C([H])(N([H])C(=O)C([H])(N([H])C([H])([H])[H])C([H])([H])[H])C(C([H])([H])[H])(C([H])([H])[H])C([H])([H])[H])C([H])(C(=O)N([H])C3([H])c5c([H])c([H])c([H])c([H])c5C([H])([H])C([H])([H])C3([H])[H])C4([H])[H])C12C([H])([H])O[H]

$$$$
52:0:0
     RDKit          3D

 94101  0  0  1  0  0  0  0  0999 V2000
  -21.6620  -30.2560   23.9480 C   0  0  0  0  0  0  0  0  0  0  0  0
  -21.0000  -30.4440   22.5790 N   0  0  0  0  0  0  0  0  0  0  0  0
  -21.3440  -31.1150   24.7730 O   0  0  0  0  0  0  0  0  0  0  0  0
  -20.3760  -31.2350   22.6560 H   0  0  0  0  0  0  0  0  0  0  0  0
  -20.9710  -29.8770   20.9080 C   0  0  0  0  0  3  0  0  0  0  0  0
  -21.9950  -28.6290   19.8270 C   0  0  0  0  0  3  0  0  0  0  0  0
  -23.4270  -27.3840   19.9100 C   0  0  0  0  0  2  0  0  0  0  0  0
  -25.1200  -27.1700   20.0510 O   0  0  0  0  0  0  0  0  0  0  0  0
  -25.0060  -31.9030   23.0490 C   0  0  0  0  0  0  0  0  0  0  0  0
  -26.1890  -27.6120   19.2880 C   0  0  0  0  0  3  0  0  0  0  0  0
  -23.6840  -30.6740   21.3740 C   0  0  0  0  0  3  0  0  0  0  0  0
  -24.8060  -29.8380   19.2960 C   0  0  0  0  0  3  0  0  0  0  0  0
  -26.1590  -30.9180   21.0870 C   0  0  0  0  0  2  0  0  0  0  0  0
  -25.9560  -29.8070   20.0820 C   0  0  0  0  0  3  0  0  0  0  0  0
  -26.7970  -28.6960   19.9630 C   0  0  0  0  0  2  0  0  0  0  0  0
  -25.5370  -27.8560   18.1070 C   0  0  0  0  0  2  0  0  0  0  0  0
  -24.6670  -28.9590   18.1900 C   0  0  0  0  0  2  0  0  0  0  0  0
  -23.7830  -30.7820   19.8040 C   0  0  0  0  0  2  0  0  0  0  0  0
  -24.9570  -31.1940   21.8950 N   0  0  0  0  0  0  0  0  0  0  0  0
  -24.0000  -32.2850   23.6420 O   0  0  0  0  0  0  0  0  0  0  0  0
  -23.3720  -29.2020   22.1150 C   0  0  0  0  0  0  0  0  0  0  0  0
  -22.1620  -28.3610   22.3330 N   0  0  0  0  0  0  0  0  0  0  0  0
  -24.3090  -28.7940   22.7300 O   0  0  0  0  0  0  0  0  0  0  0  0
  -22.5940  -27.5450   22.7480 H   0  0  0  0  0  0  0  0  0  0  0  0
  -17.8990  -28.6550   22.4890 C   0  0  0  0  0  0  0  0  0  0  0  0
  -20.5520  -28.1530   22.6940 C   0  0  0  0  0  3  0  0  0  0  0  0
  -20.2170  -26.9250   21.8970 C   0  0  0  0  0  2  0  0  0  0  0  0
  -19.0850  -27.1120   20.9110 C   0  0  0  0  0  2  0  0  0  0  0  0
  -17.8020  -27.4090   21.6530 C   0  0  0  0  0  2  0  0  0  0  0  0
  -19.1550  -29.0570   23.0370 C   0  0  0  0  0  0  0  0  0  0  0  0
  -18.9220  -30.1090   24.0130 C   0  0  0  0  0  3  0  0  0  0  0  0
  -17.7590  -30.8910   24.1640 C   0  0  0  0  0  3  0  0  0  0  0  0
  -16.5970  -30.4800   23.5250 C   0  0  0  0  0  3  0  0  0  0  0  0
  -16.6670  -29.3200   22.7450 C   0  0  0  0  0  3  0  0  0  0  0  0
  -26.3620  -32.3010   23.6630 C   0  0  0  0  0  3  0  0  0  0  0  0
  -26.2150  -33.6730   24.1640 N   0  0  0  0  0  0  0  0  0  0  0  0
  -26.5570  -34.7650   23.4730 C   0  0  0  0  0  0  0  0  0  0  0  0
  -27.1150  -34.7090   22.3740 O   0  0  0  0  0  0  0  0  0  0  0  0
  -25.7110  -33.7880   25.0300 H   0  0  0  0  0  0  0  0  0  0  0  0
  -25.0080  -36.7490   23.4580 C   0  0  0  0  0  1  0  0  0  0  0  0
  -26.2550  -36.1320   24.1130 C   0  0  0  0  0  3  0  0  0  0  0  0
  -28.5390  -36.6720   24.8300 C   0  0  0  0  0  1  0  0  0  0  0  0
  -27.3870  -37.0790   24.0280 N   0  0  0  0  0  0  0  0  0  0  0  0
  -27.1040  -38.0080   24.3280 H   0  0  0  0  0  0  0  0  0  0  0  0
  -26.8080  -31.3300   24.8180 C   0  0  1  0  0  0  0  0  0  0  0  0
  -25.7280  -31.1080   25.8990 C   0  0  0  0  0  1  0  0  0  0  0  0
  -27.2140  -29.9420   24.2710 C   0  0  0  0  0  1  0  0  0  0  0  0
  -28.0680  -31.9040   25.4950 C   0  0  0  0  0  1  0  0  0  0  0  0
  -22.6810  -28.9530   24.6980 C   0  0  0  0  0  3  0  0  0  0  0  0
  -24.1390  -27.8070   24.4200 C   0  0  0  0  0  3  0  0  0  0  0  0
  -25.2350  -27.1680   23.1220 C   0  0  0  0  0  3  0  0  0  0  0  0
  -26.7340  -26.2130   23.0660 C   0  0  0  0  0  3  0  0  0  0  0  0
  -27.9590  -25.9880   21.7890 C   0  0  0  0  0  3  0  0  0  0  0  0
  -29.4990  -25.0910   21.6990 C   0  0  0  0  0  3  0  0  0  0  0  0
  -30.8380  -25.0720   20.5190 C   0  0  0  0  0  3  0  0  0  0  0  0
  -32.3530  -24.1340   20.3970 C   0  0  0  0  0  3  0  0  0  0  0  0
  -33.8080  -24.2440   19.3620 C   0  0  0  0  0  3  0  0  0  0  0  0
  -35.2460  -23.1980   19.2300 C   0  0  0  0  0  3  0  0  0  0  0  0
  -36.8350  -23.2420   18.4800 C   0  0  0  0  0  0  0  0  0  0  0  0
  -38.5920  -22.4120   16.7210 C   0  0  0  0  0  2  0  0  0  0  0  0
  -38.1970  -22.7670   15.2590 C   0  0  0  0  0  2  0  0  0  0  0  0
  -37.1270  -21.8040   14.7070 C   0  0  0  0  0  2  0  0  0  0  0  0
  -36.0230  -21.5410   15.7610 C   0  0  0  0  0  3  0  0  0  0  0  0
  -36.6260  -21.1290   17.1100 C   0  0  0  0  0  2  0  0  0  0  0  0
  -37.3560  -22.2930   17.5810 N   0  0  0  0  0  0  0  0  0  0  0  0
  -37.6810  -24.1170   18.7680 O   0  0  0  0  0  0  0  0  0  0  0  0
  -33.6650  -20.6460   15.4200 C   0  0  0  0  0  0  0  0  0  0  0  0
  -33.1960  -19.4990   14.8460 C   0  0  0  0  0  0  0  0  0  0  0  0
  -34.3500  -18.7590   14.4410 C   0  0  0  0  0  0  0  0  0  0  0  0
  -35.0430  -20.5670   15.3320 N   0  0  0  0  0  0  0  0  0  0  0  0
  -35.4580  -19.3930   14.7980 N   0  0  0  0  0  0  0  0  0  0  0  0
  -34.4650  -17.5110   13.6800 C   0  0  0  0  0  0  0  0  0  0  0  0
  -35.2780  -16.4450   14.1250 C   0  0  0  0  0  3  0  0  0  0  0  0
  -35.3550  -15.2480   13.3800 C   0  0  0  0  0  3  0  0  0  0  0  0
  -34.6130  -15.1090   12.1830 C   0  0  0  0  0  0  0  0  0  0  0  0
  -33.8250  -16.1830   11.7350 C   0  0  0  0  0  3  0  0  0  0  0  0
  -33.7530  -17.3750   12.4730 C   0  0  0  0  0  3  0  0  0  0  0  0
  -34.6460  -13.9940   11.3810 O   0  0  0  0  0  0  0  0  0  0  0  0
  -34.9860  -12.7630   11.8780 C   0  0  0  0  0  0  0  0  0  0  0  0
  -34.3070  -12.1870   12.9750 C   0  0  0  0  0  3  0  0  0  0  0  0
  -34.6420  -10.8880   13.4060 C   0  0  0  0  0  3  0  0  0  0  0  0
  -35.6470  -10.1610   12.7400 C   0  0  0  0  0  0  0  0  0  0  0  0
  -36.3200  -10.7300   11.6440 C   0  0  0  0  0  3  0  0  0  0  0  0
  -35.9870  -12.0270   11.2130 C   0  0  0  0  0  0  0  0  0  0  0  0
  -36.6230  -12.5630   10.1440 F   0  0  0  0  0  0  0  0  0  0  0  0
  -35.9640   -8.9110   13.1490 F   0  0  0  0  0  0  0  0  0  0  0  0
  -31.7580  -19.1540   14.5990 C   0  0  0  0  0  0  0  0  0  0  0  0
  -31.4260  -17.8680   14.6050 N   0  0  0  0  0  0  0  0  0  0  0  0
  -30.9090  -20.0320   14.4450 O   0  0  0  0  0  0  0  0  0  0  0  0
  -32.1200  -17.1510   14.7530 H   0  0  0  0  0  0  0  0  0  0  0  0
  -30.4630  -17.5990   14.4630 H   0  0  0  0  0  0  0  0  0  0  0  0
  -33.0410  -21.7540   15.9870 N   0  0  0  0  0  0  0  0  0  0  0  0
  -32.0310  -21.8480   16.0160 H   0  0  0  0  0  0  0  0  0  0  0  0
  -33.5250  -22.5620   16.3550 H   0  0  0  0  0  0  0  0  0  0  0  0
  1 49  1  0
  1  3  2  0
  2  4  1  0
  2  1  1  0
  5  2  1  0
  6  7  1  0
  6  5  2  0
  7  8  1  0
  9 20  2  0
 10 15  1  0
 10  8  1  0
 11 19  1  0
 11 21  1  0
 12 17  1  0
 12 18  1  0
 12 14  1  0
 13 19  1  0
 14 15  1  0
 14 13  1  0
 16 17  1  0
 16 10  1  0
 18 11  1  0
 19  9  1  0
 21 22  1  0
 21 23  2  0
 22 24  1  0
 25 34  2  0
 25 30  1  0
 26 22  1  0
 26 30  1  0
 27 26  1  0
 28 29  1  0
 28 27  1  0
 29 25  1  0
 30 31  2  0
 31 32  1  0
 33 32  2  0
 34 33  1  0
 35  9  1  0
 35 36  1  0
 35 45  1  0
 36 39  1  0
 37 41  1  0
 37 36  1  0
 38 37  2  0
 41 40  1  0
 43 41  1  0
 43 44  1  0
 43 42  1  0
 45 48  1  1
 45 46  1  0
 47 45  1  0
 50 49  2  0
 51 50  1  0
 52 51  2  0
 53 52  1  0
 54 53  2  0
 55 54  1  0
 56 55  2  0
 57 56  1  0
 58 57  2  0
 59 66  2  0
 59 58  1  0
 60 65  1  0
 61 60  1  0
 62 61  1  0
 63 62  1  0
 63 64  1  0
 64 65  1  0
 65 59  1  0
 67 92  1  0
 68 67  2  0
 69 71  2  0
 69 68  1  0
 70 67  1  0
 70 63  1  0
 71 70  1  0
 72 73  1  0
 72 69  1  0
 74 73  2  0
 75 74  1  0
 76 75  2  0
 76 77  1  0
 77 72  2  0
 78 79  1  0
 78 75  1  0
 79 80  1  0
 80 81  2  0
 82 86  1  0
 82 81  1  0
 83 82  2  0
 84 83  1  0
 84 79  2  0
 85 84  1  0
 87 88  1  0
 87 68  1  0
 88 90  1  0
 89 87  2  0
 91 88  1  0
 92 93  1  0
 92 94  1  0
M  ISO  4   7 101   8 101  58 100  59 100
M  END
>  <TORSDO>  (53) 
F 29

>  <SCORE>  (53) 
-1.495

>  <name>  (53) 
52

>  <ligand_id>  (53) 
52

>  <original_smiles>  (53) 
[H]c1c([H])c([H])c2c(c1[H])C([H])([H])C([H])([H])C([H])([H])C2([H])N([H])C(=O)C1([H])N(C(=O)C([H])(N([H])C(=O)C([H])(N([H])C([H])([H])[H])C([H])([H])[H])C(C([H])([H])[H])(C([H])([H])[H])C([H])([H])[H])C([H])([H])c2c([H])c(OC([H])([H])C([H])([H])C([H])([H])N([H])C(=O)C([H])([H])C([H])([H])C([H])([H])C([H])([H])C([H])([H])C([H])([H])C([H])([H])C([H])([H])C([H])([H])C([H])([H])C(=O)N3C([H])([H])C([H])([H])C([H])([H])C([H])(n4nc(-c5c([H])c([H])c(Oc6c([H])c([H])c(F)c([H])c6F)c([H])c5[H])c(C(=O)N([H])[H])c4N([H])[H])C3([H])[H])c([H])c([H])c2C1([H])[H]

>  <smiles>  (53) 
[H]c1c([H])c([H])c2c(c1[H])C([H])([H])C([H])([H])C([H])([H])C2([H])N([H])C(=O)C1([H])N(C(=O)C([H])(N([H])C(=O)C([H])(N([H])C([H])([H])[H])C([H])([H])[H])C(C([H])([H])[H])(C([H])([H])[H])C([H])([H])[H])C([H])([H])c2c([H])c(OC([H])([H])C([H])([H])C([H])([H])N([H])C(=O)C([H])([H])C([H])([H])C([H])([H])C([H])([H])C([H])([H])C([H])([H])C([H])([H])C([H])([H])C([H])([H])C([H])([H])C(=O)N3C([H])([H])C([H])([H])C([H])([H])C([H])(n4nc(-c5c([H])c([H])c(Oc6c([H])c([H])c(F)c([H])c6F)c([H])c5[H])c(C(=O)N([H])[H])c4N([H])[H])C3([H])[H])c([H])c([H])c2C1([H])[H]

$$$$
53:0:0
     RDKit          3D

101110  0  0  1  0  0  0  0  0999 V2000
  -23.6550  -21.5880   18.9990 C   0  0  0  0  0  0  0  0  0  0  0  0
  -23.6600  -22.9290   18.9390 N   0  0  0  0  0  0  0  0  0  0  0  0
  -22.9380  -21.0340   19.8340 O   0  0  0  0  0  0  0  0  0  0  0  0
  -22.9830  -23.3890   19.5300 H   0  0  0  0  0  0  0  0  0  0  0  0
  -25.6310  -19.9980   18.7120 C   0  0  0  0  0  2  0  0  0  0  0  0
  -25.4180  -21.2600   16.9670 C   0  0  0  0  0  2  0  0  0  0  0  0
  -24.4500  -20.6730   18.0410 C   0  0  0  0  0  3  0  0  0  0  0  0
  -26.2270  -19.9600   17.3210 C   0  0  0  0  0  3  0  0  0  0  0  0
  -27.7180  -20.0510   17.2960 N   0  0  0  0  0  4  0  0  0  0  0  0
  -28.0040  -20.5310   18.1350 H   0  0  0  0  0  0  0  0  0  0  0  0
  -28.0170  -20.6030   16.5090 H   0  0  0  0  0  0  0  0  0  0  0  0
  -28.3860  -18.7310   17.2470 C   0  0  0  0  0  2  0  0  0  0  0  0
  -29.7380  -18.6120   18.0370 C   0  0  0  0  0  2  0  0  0  0  0  0
  -30.1840  -17.1900   18.5570 C   0  0  0  0  0  2  0  0  0  0  0  0
  -30.3950  -16.9680   20.0900 C   0  0  0  0  0  2  0  0  0  0  0  0
  -31.3560  -15.7800   20.3390 C   0  0  0  0  0  0  0  0  0  0  0  0
  -31.6050  -13.3370   20.4670 C   0  0  0  0  0  2  0  0  0  0  0  0
  -30.9030  -12.6890   19.2470 C   0  0  0  0  0  2  0  0  0  0  0  0
  -29.4070  -12.4430   19.5420 C   0  0  0  0  0  2  0  0  0  0  0  0
  -28.7160  -13.6880   20.1540 C   0  0  0  0  0  3  0  0  0  0  0  0
  -29.5490  -14.3010   21.3010 C   0  0  0  0  0  2  0  0  0  0  0  0
  -30.8990  -14.5820   20.7930 N   0  0  0  0  0  0  0  0  0  0  0  0
  -32.5190  -15.9350   19.9530 O   0  0  0  0  0  0  0  0  0  0  0  0
  -26.3130  -14.2530   20.8810 C   0  0  0  0  0  0  0  0  0  0  0  0
  -25.2200  -13.4740   21.1470 C   0  0  0  0  0  0  0  0  0  0  0  0
  -25.6610  -12.1300   20.9750 C   0  0  0  0  0  0  0  0  0  0  0  0
  -27.3480  -13.3870   20.5750 N   0  0  0  0  0  0  0  0  0  0  0  0
  -26.9560  -12.0950   20.6840 N   0  0  0  0  0  0  0  0  0  0  0  0
  -24.9080  -10.8780   21.0060 C   0  0  0  0  0  0  0  0  0  0  0  0
  -25.1280   -9.9170   22.0130 C   0  0  0  0  0  3  0  0  0  0  0  0
  -24.3780   -8.7220   22.0350 C   0  0  0  0  0  3  0  0  0  0  0  0
  -23.3920   -8.4860   21.0470 C   0  0  0  0  0  0  0  0  0  0  0  0
  -23.1910   -9.4400   20.0340 C   0  0  0  0  0  3  0  0  0  0  0  0
  -23.9430  -10.6280   20.0100 C   0  0  0  0  0  3  0  0  0  0  0  0
  -22.6330   -7.3440   20.9730 O   0  0  0  0  0  0  0  0  0  0  0  0
  -22.1220   -6.7510   22.0980 C   0  0  0  0  0  0  0  0  0  0  0  0
  -21.2210   -7.4210   22.9510 C   0  0  0  0  0  3  0  0  0  0  0  0
  -20.6660   -6.7490   24.0600 C   0  0  0  0  0  3  0  0  0  0  0  0
  -21.0050   -5.4050   24.3090 C   0  0  0  0  0  0  0  0  0  0  0  0
  -21.9010   -4.7350   23.4560 C   0  0  0  0  0  3  0  0  0  0  0  0
  -22.4560   -5.4060   22.3550 C   0  0  0  0  0  0  0  0  0  0  0  0
  -23.3020   -4.7480   21.5240 F   0  0  0  0  0  0  0  0  0  0  0  0
  -20.4670   -4.7550   25.3690 F   0  0  0  0  0  0  0  0  0  0  0  0
  -23.8350  -13.9670   21.4480 C   0  0  0  0  0  0  0  0  0  0  0  0
  -23.0780  -13.2020   22.2270 N   0  0  0  0  0  0  0  0  0  0  0  0
  -23.4360  -15.0520   21.0320 O   0  0  0  0  0  0  0  0  0  0  0  0
  -23.4200  -12.3280   22.5920 H   0  0  0  0  0  0  0  0  0  0  0  0
  -22.1450  -13.5080   22.4640 H   0  0  0  0  0  0  0  0  0  0  0  0
  -26.4810  -15.6210   20.8410 N   0  0  0  0  0  0  0  0  0  0  0  0
  -25.6520  -16.2030   20.8510 H   0  0  0  0  0  0  0  0  0  0  0  0
  -27.2470  -16.0040   20.3030 H   0  0  0  0  0  0  0  0  0  0  0  0
  -24.6470  -23.8280   18.3600 C   0  0  0  0  0  2  0  0  0  0  0  0
  -27.1870  -24.0990   21.1970 C   0  0  0  0  0  3  0  0  0  0  0  0
  -28.4140  -23.9940   19.0790 C   0  0  0  0  0  3  0  0  0  0  0  0
  -25.9780  -23.9380   20.5090 C   0  0  0  0  0  3  0  0  0  0  0  0
  -27.1950  -23.8160   18.3980 C   0  0  0  0  0  3  0  0  0  0  0  0
  -28.3940  -24.2250   20.4740 C   0  0  0  0  0  0  0  0  0  0  0  0
  -25.9730  -23.8390   19.1040 C   0  0  0  0  0  0  0  0  0  0  0  0
  -29.3370  -25.1470   21.0920 C   0  0  0  0  0  2  0  0  0  0  0  0
  -30.0210  -26.0270   20.3420 C   0  0  0  0  0  2  0  0  0  0  0  0
  -30.3290  -27.2630   20.8320 O   0  0  0  0  0  0  0  0  0  0  0  0
  -26.6170  -31.5210   25.1480 C   0  0  0  0  0  0  0  0  0  0  0  0
  -29.2100  -28.0780   20.9760 C   0  0  0  0  0  0  0  0  0  0  0  0
  -25.4390  -30.7990   23.0980 C   0  0  0  0  0  3  0  0  0  0  0  0
  -26.8940  -29.6560   21.3480 C   0  0  0  0  0  0  0  0  0  0  0  0
  -27.9910  -31.0010   23.1420 C   0  0  0  0  0  2  0  0  0  0  0  0
  -28.0380  -29.8860   22.1200 C   0  0  0  0  0  0  0  0  0  0  0  0
  -29.1940  -29.0930   21.9500 C   0  0  0  0  0  3  0  0  0  0  0  0
  -28.0480  -27.8950   20.1760 C   0  0  0  0  0  3  0  0  0  0  0  0
  -26.8860  -28.6500   20.3750 C   0  0  0  0  0  3  0  0  0  0  0  0
  -25.6990  -30.5420   21.5890 C   0  0  0  0  0  2  0  0  0  0  0  0
  -26.6970  -31.1080   23.8520 N   0  0  0  0  0  0  0  0  0  0  0  0
  -25.5200  -31.6960   25.7000 O   0  0  0  0  0  0  0  0  0  0  0  0
  -24.6620  -29.5970   23.6730 C   0  0  0  0  0  0  0  0  0  0  0  0
  -23.4030  -29.4210   23.2320 N   0  0  0  0  0  0  0  0  0  0  0  0
  -25.1920  -28.8290   24.4830 O   0  0  0  0  0  0  0  0  0  0  0  0
  -23.0670  -30.0580   22.5220 H   0  0  0  0  0  0  0  0  0  0  0  0
  -20.1330  -27.9830   22.6570 C   0  0  0  0  0  0  0  0  0  0  0  0
  -22.5000  -28.3360   23.6300 C   0  0  0  0  0  3  0  0  0  0  0  0
  -22.8750  -27.0380   22.8780 C   0  0  0  0  0  2  0  0  0  0  0  0
  -22.1010  -26.8870   21.5590 C   0  0  0  0  0  2  0  0  0  0  0  0
  -20.6150  -26.7630   21.8970 C   0  0  0  0  0  2  0  0  0  0  0  0
  -21.0210  -28.7270   23.4760 C   0  0  0  0  0  0  0  0  0  0  0  0
  -20.5480  -29.8760   24.1400 C   0  0  0  0  0  3  0  0  0  0  0  0
  -19.2080  -30.2850   23.9890 C   0  0  0  0  0  3  0  0  0  0  0  0
  -18.3210  -29.5340   23.1950 C   0  0  0  0  0  3  0  0  0  0  0  0
  -18.7860  -28.3840   22.5370 C   0  0  0  0  0  3  0  0  0  0  0  0
  -27.8970  -31.8270   25.9850 C   0  0  0  0  0  3  0  0  0  0  0  0
  -28.0530  -30.9060   27.2550 C   0  0  1  0  0  0  0  0  0  0  0  0
  -26.7760  -30.8360   28.1230 C   0  0  0  0  0  1  0  0  0  0  0  0
  -28.4210  -29.4600   26.8440 C   0  0  0  0  0  1  0  0  0  0  0  0
  -29.2080  -31.4250   28.1450 C   0  0  0  0  0  1  0  0  0  0  0  0
  -27.8490  -33.2430   26.3670 N   0  0  0  0  0  0  0  0  0  0  0  0
  -28.5040  -34.2260   25.7320 C   0  0  0  0  0  0  0  0  0  0  0  0
  -29.2780  -34.0200   24.7910 O   0  0  0  0  0  0  0  0  0  0  0  0
  -27.1880  -33.4920   27.0890 H   0  0  0  0  0  0  0  0  0  0  0  0
  -27.2700  -36.3690   25.2620 C   0  0  0  0  0  1  0  0  0  0  0  0
  -28.2540  -35.6670   26.2110 C   0  0  0  0  0  3  0  0  0  0  0  0
  -30.3570  -36.0400   27.4240 C   0  0  0  0  0  1  0  0  0  0  0  0
  -29.4920  -36.4670   26.3300 N   0  0  0  0  0  0  0  0  0  0  0  0
  -29.2700  -37.4490   26.4680 H   0  0  0  0  0  0  0  0  0  0  0  0
  1  3  2  0
  2  1  1  0
  2  4  1  0
  6  8  1  0
  6  7  1  0
  7  5  1  0
  7  1  1  0
  8  9  1  0
  8  5  1  0
  9 10  1  0
 11  9  1  0
 12  9  1  0
 12 13  1  0
 13 14  1  0
 14 15  1  0
 15 16  1  0
 16 22  1  0
 17 22  1  0
 18 19  1  0
 18 17  1  0
 20 19  1  0
 20 27  1  0
 20 21  1  0
 22 21  1  0
 23 16  2  0
 24 25  2  0
 25 44  1  0
 26 29  1  0
 26 25  1  0
 27 28  1  0
 27 24  1  0
 28 26  2  0
 29 30  1  0
 30 31  2  0
 32 31  1  0
 33 32  2  0
 34 33  1  0
 34 29  2  0
 35 32  1  0
 35 36  1  0
 36 41  2  0
 36 37  1  0
 37 38  2  0
 38 39  1  0
 39 43  1  0
 40 39  2  0
 41 40  1  0
 42 41  1  0
 44 45  1  0
 45 48  1  0
 45 47  1  0
 46 44  2  0
 49 50  1  0
 49 24  1  0
 51 49  1  0
 52  2  1  0
 52 58  1  0
 54 57  1  0
 55 53  1  0
 56 54  2  0
 56 58  1  0
 57 59  1  0
 57 53  2  0
 58 55  2  0
 60 61  1  0
 60 59  1  0
 61 63  1  0
 62 73  2  0
 63 68  1  0
 64 74  1  0
 64 72  1  0
 65 71  1  0
 65 67  1  0
 66 72  1  0
 67 66  1  0
 68 67  2  0
 69 70  1  0
 69 63  2  0
 70 65  2  0
 71 64  1  0
 72 62  1  0
 74 76  2  0
 75 74  1  0
 77 75  1  0
 78 83  1  0
 79 75  1  0
 80 79  1  0
 81 82  1  0
 81 80  1  0
 82 78  1  0
 83 79  1  0
 83 84  2  0
 85 84  1  0
 86 85  2  0
 87 78  2  0
 87 86  1  0
 88 62  1  0
 88 93  1  0
 88 89  1  0
 89 90  1  1
 89 92  1  0
 91 89  1  0
 93 96  1  0
 94 98  1  0
 94 93  1  0
 95 94  2  0
 98 97  1  0
 98100  1  0
100101  1  0
100 99  1  0
M  ISO  4  15 100  16 100  60 101  61 101
M  END
>  <TORSDO>  (54) 
F 25

>  <SCORE>  (54) 
-4.414

>  <name>  (54) 
53

>  <ligand_id>  (54) 
53

>  <original_smiles>  (54) 
[H]C(Oc1c([H])c([H])c2c(c1[H])C([H])([H])N(C(=O)C([H])(N([H])C(=O)C([H])(N([H])C([H])([H])[H])C([H])([H])[H])C(C([H])([H])[H])(C([H])([H])[H])C([H])([H])[H])C([H])(C(=O)N([H])C1([H])c3c([H])c([H])c([H])c([H])c3C([H])([H])C([H])([H])C1([H])[H])C2([H])[H])=C([H])c1c([H])c([H])c(C([H])([H])N([H])C(=O)C2([H])C([H])([H])C([H])([N+]([H])([H])C([H])([H])C([H])([H])C([H])([H])C([H])([H])C(=O)N3C([H])([H])C([H])([H])C([H])([H])C([H])(n4nc(-c5c([H])c([H])c(Oc6c([H])c([H])c(F)c([H])c6F)c([H])c5[H])c(C(=O)N([H])[H])c4N([H])[H])C3([H])[H])C2([H])[H])c([H])c1[H]

>  <smiles>  (54) 
[H]C(Oc1c([H])c([H])c2c(c1[H])C([H])([H])N(C(=O)C([H])(N([H])C(=O)C([H])(N([H])C([H])([H])[H])C([H])([H])[H])C(C([H])([H])[H])(C([H])([H])[H])C([H])([H])[H])C([H])(C(=O)N([H])C1([H])c3c([H])c([H])c([H])c([H])c3C([H])([H])C([H])([H])C1([H])[H])C2([H])[H])=C([H])c1c([H])c([H])c(C([H])([H])N([H])C(=O)C2([H])C([H])([H])C([H])([N+]([H])([H])C([H])([H])C([H])([H])C([H])([H])C([H])([H])C(=O)N3C([H])([H])C([H])([H])C([H])([H])C([H])(n4nc(-c5c([H])c([H])c(Oc6c([H])c([H])c(F)c([H])c6F)c([H])c5[H])c(C(=O)N([H])[H])c4N([H])[H])C3([H])[H])C2([H])[H])c([H])c1[H]

$$$$
54:0:0
     RDKit          3D

 96105  0  0  1  0  0  0  0  0999 V2000
  -28.8540  -25.0850   17.4170 C   0  0  0  0  0  2  0  0  0  0  0  0
  -31.3500  -25.3810   17.8620 C   0  0  0  0  0  2  0  0  0  0  0  0
  -28.7680  -26.5940   17.1190 C   0  0  0  0  0  2  0  0  0  0  0  0
  -31.2090  -26.8790   17.5180 C   0  0  0  0  0  2  0  0  0  0  0  0
  -30.2720  -24.5250   17.1730 C   0  0  0  0  0  3  0  0  0  0  0  0
  -29.8180  -27.4440   17.8880 C   0  0  1  0  0  0  0  0  0  0  0  0
  -29.7260  -28.8950   17.3700 C   0  0  0  0  0  1  0  0  0  0  0  0
  -29.8410  -21.0770   18.8690 C   0  0  0  0  0  3  0  0  0  0  0  0
  -31.4150  -20.8660   17.0220 C   0  0  0  0  0  3  0  0  0  0  0  0
  -29.7200  -22.4550   18.6050 C   0  0  0  0  0  3  0  0  0  0  0  0
  -31.2840  -22.2390   16.7520 C   0  0  0  0  0  3  0  0  0  0  0  0
  -30.6880  -20.2660   18.0780 C   0  0  0  0  0  0  0  0  0  0  0  0
  -30.4210  -23.0440   17.5270 C   0  0  0  0  0  0  0  0  0  0  0  0
  -30.8410  -18.8000   18.3060 C   0  0  0  0  0  0  0  0  0  0  0  0
  -31.5350  -18.0940   17.5600 O   0  0  0  0  0  0  0  0  0  0  0  0
  -30.1150  -18.1530   19.5070 C   0  0  0  0  0  2  0  0  0  0  0  0
  -30.7030  -16.7620   19.8160 C   0  0  0  0  0  2  0  0  0  0  0  0
  -30.0550  -15.8500   20.8990 C   0  0  0  0  0  2  0  0  0  0  0  0
  -30.7490  -14.4730   20.7920 C   0  0  0  0  0  0  0  0  0  0  0  0
  -30.4560  -12.3030   19.7140 C   0  0  0  0  0  2  0  0  0  0  0  0
  -29.6010  -12.5020   18.4470 C   0  0  0  0  0  2  0  0  0  0  0  0
  -28.1020  -12.3830   18.7800 C   0  0  0  0  0  2  0  0  0  0  0  0
  -27.6890  -13.2440   20.0040 C   0  0  0  0  0  3  0  0  0  0  0  0
  -28.6780  -13.0900   21.1810 C   0  0  0  0  0  2  0  0  0  0  0  0
  -30.0400  -13.3220   20.6880 N   0  0  0  0  0  0  0  0  0  0  0  0
  -31.9560  -14.5040   20.5450 O   0  0  0  0  0  0  0  0  0  0  0  0
  -25.2550  -13.8520   20.5630 C   0  0  0  0  0  0  0  0  0  0  0  0
  -24.1710  -13.0810   20.8860 C   0  0  0  0  0  0  0  0  0  0  0  0
  -24.6390  -11.7320   20.9110 C   0  0  0  0  0  0  0  0  0  0  0  0
  -26.3140  -12.9720   20.4140 N   0  0  0  0  0  0  0  0  0  0  0  0
  -25.9450  -11.6930   20.6820 N   0  0  0  0  0  0  0  0  0  0  0  0
  -23.9100  -10.4700   21.0870 C   0  0  0  0  0  0  0  0  0  0  0  0
  -24.3010   -9.5200   22.0540 C   0  0  0  0  0  3  0  0  0  0  0  0
  -23.5760   -8.3190   22.2130 C   0  0  0  0  0  3  0  0  0  0  0  0
  -22.4440   -8.0610   21.4040 C   0  0  0  0  0  0  0  0  0  0  0  0
  -22.0720   -9.0010   20.4250 C   0  0  0  0  0  3  0  0  0  0  0  0
  -22.7980  -10.1930   20.2650 C   0  0  0  0  0  3  0  0  0  0  0  0
  -21.6940   -6.9100   21.4690 O   0  0  0  0  0  0  0  0  0  0  0  0
  -21.6000   -6.1770   22.6240 C   0  0  0  0  0  0  0  0  0  0  0  0
  -21.1200   -6.7380   23.8270 C   0  0  0  0  0  3  0  0  0  0  0  0
  -20.9750   -5.9290   24.9720 C   0  0  0  0  0  3  0  0  0  0  0  0
  -21.2980   -4.5600   24.9160 C   0  0  0  0  0  0  0  0  0  0  0  0
  -21.7700   -3.9980   23.7170 C   0  0  0  0  0  3  0  0  0  0  0  0
  -21.9180   -4.8050   22.5730 C   0  0  0  0  0  0  0  0  0  0  0  0
  -22.3530   -4.2520   21.4160 F   0  0  0  0  0  0  0  0  0  0  0  0
  -21.1520   -3.7830   26.0140 F   0  0  0  0  0  0  0  0  0  0  0  0
  -22.7580  -13.5550   21.0680 C   0  0  0  0  0  0  0  0  0  0  0  0
  -21.9810  -12.8690   21.8970 N   0  0  0  0  0  0  0  0  0  0  0  0
  -22.3480  -14.5690   20.5030 O   0  0  0  0  0  0  0  0  0  0  0  0
  -22.3200  -12.0490   22.3780 H   0  0  0  0  0  0  0  0  0  0  0  0
  -21.0310  -13.1710   22.0530 H   0  0  0  0  0  0  0  0  0  0  0  0
  -25.4280  -15.2190   20.3650 N   0  0  0  0  0  0  0  0  0  0  0  0
  -24.6610  -15.8830   20.4090 H   0  0  0  0  0  0  0  0  0  0  0  0
  -26.3050  -15.6550   20.1090 H   0  0  0  0  0  0  0  0  0  0  0  0
  -29.6470  -27.4620   19.4460 C   0  0  0  0  0  2  0  0  0  0  0  0
  -28.4880  -26.7800   19.9330 O   0  0  0  0  0  0  0  0  0  0  0  0
  -24.6460  -31.8480   23.1620 C   0  0  0  0  0  0  0  0  0  0  0  0
  -27.3250  -27.5010   20.0190 C   0  0  0  0  0  0  0  0  0  0  0  0
  -23.4420  -30.4510   21.5110 C   0  0  0  0  0  3  0  0  0  0  0  0
  -24.9010  -28.9340   20.0750 C   0  0  0  0  0  0  0  0  0  0  0  0
  -25.9570  -30.8430   21.2980 C   0  0  0  0  0  2  0  0  0  0  0  0
  -26.0510  -29.4770   20.6590 C   0  0  0  0  0  0  0  0  0  0  0  0
  -27.2630  -28.7660   20.6420 C   0  0  0  0  0  3  0  0  0  0  0  0
  -26.1540  -26.9410   19.4710 C   0  0  0  0  0  3  0  0  0  0  0  0
  -24.9410  -27.6560   19.4880 C   0  0  0  0  0  3  0  0  0  0  0  0
  -23.6480  -29.7760   20.1290 C   0  0  0  0  0  2  0  0  0  0  0  0
  -24.7000  -31.0590   22.0510 N   0  0  0  0  0  0  0  0  0  0  0  0
  -23.5660  -32.1100   23.7080 O   0  0  0  0  0  0  0  0  0  0  0  0
  -22.8020  -29.4190   22.4660 C   0  0  0  0  0  0  0  0  0  0  0  0
  -21.4740  -29.2470   22.3560 N   0  0  0  0  0  0  0  0  0  0  0  0
  -23.4960  -28.7750   23.2570 O   0  0  0  0  0  0  0  0  0  0  0  0
  -20.9760  -29.8170   21.6870 H   0  0  0  0  0  0  0  0  0  0  0  0
  -18.0990  -28.0930   22.8970 C   0  0  0  0  0  0  0  0  0  0  0  0
  -20.6630  -28.3040   23.1230 C   0  0  0  0  0  3  0  0  0  0  0  0
  -20.7340  -26.8860   22.5100 C   0  0  0  0  0  2  0  0  0  0  0  0
  -19.6050  -26.6060   21.5130 C   0  0  0  0  0  2  0  0  0  0  0  0
  -18.2410  -26.7570   22.1890 C   0  0  0  0  0  2  0  0  0  0  0  0
  -19.2370  -28.8270   23.3230 C   0  0  0  0  0  0  0  0  0  0  0  0
  -19.0500  -30.0810   23.9440 C   0  0  0  0  0  3  0  0  0  0  0  0
  -17.7570  -30.6010   24.1420 C   0  0  0  0  0  3  0  0  0  0  0  0
  -16.6320  -29.8620   23.7330 C   0  0  0  0  0  3  0  0  0  0  0  0
  -16.8050  -28.6090   23.1160 C   0  0  0  0  0  3  0  0  0  0  0  0
  -25.9340  -32.4770   23.7820 C   0  0  0  0  0  3  0  0  0  0  0  0
  -25.6120  -33.8620   24.1510 N   0  0  0  0  0  0  0  0  0  0  0  0
  -25.9280  -34.9360   23.4150 C   0  0  0  0  0  0  0  0  0  0  0  0
  -26.5910  -34.8650   22.3760 O   0  0  0  0  0  0  0  0  0  0  0  0
  -25.0150  -33.9900   24.9550 H   0  0  0  0  0  0  0  0  0  0  0  0
  -24.1790  -36.7170   23.1150 C   0  0  0  0  0  1  0  0  0  0  0  0
  -25.4300  -36.3070   23.9080 C   0  0  0  0  0  3  0  0  0  0  0  0
  -27.5630  -37.1910   24.7470 C   0  0  0  0  0  1  0  0  0  0  0  0
  -26.4530  -37.3710   23.8140 N   0  0  0  0  0  0  0  0  0  0  0  0
  -26.0400  -38.2840   23.9860 H   0  0  0  0  0  0  0  0  0  0  0  0
  -26.4800  -31.6750   25.0260 C   0  0  1  0  0  0  0  0  0  0  0  0
  -25.4050  -31.3900   26.1010 C   0  0  0  0  0  1  0  0  0  0  0  0
  -27.0690  -30.3160   24.5790 C   0  0  0  0  0  1  0  0  0  0  0  0
  -27.6360  -32.4580   25.6900 C   0  0  0  0  0  1  0  0  0  0  0  0
  3  1  1  0
  3  6  1  0
  4  2  1  0
  4  6  1  0
  5  1  1  0
  5 13  1  0
  5  2  1  0
  6  7  1  6
  6 55  1  0
  9 12  1  0
 10  8  1  0
 11  9  2  0
 11 13  1  0
 12 14  1  0
 12  8  2  0
 13 10  2  0
 14 16  1  0
 15 14  2  0
 16 17  1  0
 17 18  1  0
 19 18  1  0
 20 25  1  0
 21 22  1  0
 21 20  1  0
 23 22  1  0
 23 30  1  0
 23 24  1  0
 25 19  1  0
 25 24  1  0
 26 19  2  0
 27 28  2  0
 28 29  1  0
 28 47  1  0
 29 32  1  0
 30 27  1  0
 30 31  1  0
 31 29  2  0
 32 33  1  0
 33 34  2  0
 35 38  1  0
 35 34  1  0
 36 35  2  0
 37 36  1  0
 37 32  2  0
 38 39  1  0
 39 40  1  0
 40 41  2  0
 42 41  1  0
 42 46  1  0
 43 42  2  0
 44 39  2  0
 44 43  1  0
 45 44  1  0
 47 48  1  0
 48 51  1  0
 48 50  1  0
 49 47  2  0
 52 53  1  0
 52 27  1  0
 54 52  1  0
 55 56  1  0
 56 58  1  0
 57 68  2  0
 58 63  1  0
 59 67  1  0
 59 69  1  0
 60 66  1  0
 60 62  1  0
 61 67  1  0
 62 61  1  0
 63 62  2  0
 64 65  1  0
 64 58  2  0
 65 60  2  0
 66 59  1  0
 67 57  1  0
 69 71  2  0
 70 69  1  0
 72 70  1  0
 73 82  2  0
 73 78  1  0
 74 70  1  0
 74 78  1  0
 75 74  1  0
 76 77  1  0
 76 75  1  0
 77 73  1  0
 78 79  2  0
 79 80  1  0
 81 80  2  0
 82 81  1  0
 83 57  1  0
 83 84  1  0
 83 93  1  0
 84 87  1  0
 85 89  1  0
 85 84  1  0
 86 85  2  0
 89 88  1  0
 91 89  1  0
 91 92  1  0
 91 90  1  0
 93 96  1  1
 93 94  1  0
 95 93  1  0
M  ISO  4  18 100  19 100  55 101  56 101
M  END
>  <TORSDO>  (55) 
F 22

>  <SCORE>  (55) 
-12.346

>  <name>  (55) 
54

>  <ligand_id>  (55) 
54

>  <original_smiles>  (55) 
[H]c1c([H])c([H])c2c(c1[H])C([H])([H])C([H])([H])C([H])([H])C2([H])N([H])C(=O)C1([H])N(C(=O)C([H])(N([H])C(=O)C([H])(N([H])C([H])([H])[H])C([H])([H])[H])C(C([H])([H])[H])(C([H])([H])[H])C([H])([H])[H])C([H])([H])c2c([H])c(OC([H])([H])C3(C([H])([H])[H])C([H])([H])C([H])([H])C([H])(c4c([H])c([H])c(C(=O)C([H])([H])C([H])([H])C([H])([H])C(=O)N5C([H])([H])C([H])([H])C([H])([H])C([H])(n6nc(-c7c([H])c([H])c(Oc8c([H])c([H])c(F)c([H])c8F)c([H])c7[H])c(C(=O)N([H])[H])c6N([H])[H])C5([H])[H])c([H])c4[H])C([H])([H])C3([H])[H])c([H])c([H])c2C1([H])[H]

>  <smiles>  (55) 
[H]c1c([H])c([H])c2c(c1[H])C([H])([H])C([H])([H])C([H])([H])C2([H])N([H])C(=O)C1([H])N(C(=O)C([H])(N([H])C(=O)C([H])(N([H])C([H])([H])[H])C([H])([H])[H])C(C([H])([H])[H])(C([H])([H])[H])C([H])([H])[H])C([H])([H])c2c([H])c(OC([H])([H])C3(C([H])([H])[H])C([H])([H])C([H])([H])C([H])(c4c([H])c([H])c(C(=O)C([H])([H])C([H])([H])C([H])([H])C(=O)N5C([H])([H])C([H])([H])C([H])([H])C([H])(n6nc(-c7c([H])c([H])c(Oc8c([H])c([H])c(F)c([H])c8F)c([H])c7[H])c(C(=O)N([H])[H])c6N([H])[H])C5([H])[H])c([H])c4[H])C([H])([H])C3([H])[H])c([H])c([H])c2C1([H])[H]

$$$$
55:0:0
     RDKit          3D

 88 95  0  0  1  0  0  0  0  0999 V2000
  -29.1290  -24.2090   19.8980 C   0  0  0  0  0  3  0  0  0  0  0  0
  -29.2140  -22.9510   19.4020 C   0  0  0  0  0  0  0  0  0  0  0  0
  -28.3350  -22.5050   18.2820 C   0  0  0  0  0  3  0  0  0  0  0  0
  -28.4450  -21.4230   17.6970 O   0  0  0  0  0  0  0  0  0  0  0  0
  -28.1330  -25.2720   19.4540 C   0  0  0  0  0  2  0  0  0  0  0  0
  -28.3050  -26.5870   20.0380 O   0  0  0  0  0  0  0  0  0  0  0  0
  -24.6240  -31.8700   23.2380 C   0  0  0  0  0  0  0  0  0  0  0  0
  -27.1710  -27.3920   20.0550 C   0  0  0  0  0  0  0  0  0  0  0  0
  -23.3920  -30.4880   21.6120 C   0  0  0  0  0  3  0  0  0  0  0  0
  -24.8110  -28.9680   20.1560 C   0  0  0  0  0  0  0  0  0  0  0  0
  -25.9300  -30.8080   21.3980 C   0  0  0  0  0  2  0  0  0  0  0  0
  -25.9920  -29.4430   20.7370 C   0  0  0  0  0  0  0  0  0  0  0  0
  -27.1780  -28.6630   20.6920 C   0  0  0  0  0  3  0  0  0  0  0  0
  -25.9630  -26.9720   19.4390 C   0  0  0  0  0  3  0  0  0  0  0  0
  -24.7950  -27.7330   19.5040 C   0  0  0  0  0  3  0  0  0  0  0  0
  -23.5810  -29.8430   20.2210 C   0  0  0  0  0  2  0  0  0  0  0  0
  -24.6670  -31.0710   22.1370 N   0  0  0  0  0  0  0  0  0  0  0  0
  -23.5520  -32.1480   23.7900 O   0  0  0  0  0  0  0  0  0  0  0  0
  -22.7520  -29.4520   22.5700 C   0  0  0  0  0  0  0  0  0  0  0  0
  -21.4260  -29.2700   22.4580 N   0  0  0  0  0  0  0  0  0  0  0  0
  -23.4480  -28.8210   23.3700 O   0  0  0  0  0  0  0  0  0  0  0  0
  -20.9270  -29.8320   21.7820 H   0  0  0  0  0  0  0  0  0  0  0  0
  -18.0590  -28.0550   22.9750 C   0  0  0  0  0  0  0  0  0  0  0  0
  -20.6150  -28.3250   23.2320 C   0  0  0  0  0  3  0  0  0  0  0  0
  -20.7220  -26.8920   22.6610 C   0  0  0  0  0  2  0  0  0  0  0  0
  -19.6180  -26.5610   21.6530 C   0  0  0  0  0  2  0  0  0  0  0  0
  -18.2410  -26.7040   22.3060 C   0  0  0  0  0  2  0  0  0  0  0  0
  -19.1750  -28.8250   23.3980 C   0  0  0  0  0  0  0  0  0  0  0  0
  -18.9560  -30.0910   23.9820 C   0  0  0  0  0  3  0  0  0  0  0  0
  -17.6510  -30.5870   24.1490 C   0  0  0  0  0  3  0  0  0  0  0  0
  -16.5480  -29.8160   23.7450 C   0  0  0  0  0  3  0  0  0  0  0  0
  -16.7520  -28.5520   23.1630 C   0  0  0  0  0  3  0  0  0  0  0  0
  -25.9190  -32.4960   23.8400 C   0  0  0  0  0  3  0  0  0  0  0  0
  -25.6150  -33.8890   24.1860 N   0  0  0  0  0  0  0  0  0  0  0  0
  -25.9170  -34.9500   23.4240 C   0  0  0  0  0  0  0  0  0  0  0  0
  -26.5660  -34.8560   22.3770 O   0  0  0  0  0  0  0  0  0  0  0  0
  -25.0490  -34.0360   25.0100 H   0  0  0  0  0  0  0  0  0  0  0  0
  -24.1720  -36.7330   23.1160 C   0  0  0  0  0  1  0  0  0  0  0  0
  -25.4320  -36.3330   23.9000 C   0  0  0  0  0  3  0  0  0  0  0  0
  -27.5830  -37.2220   24.6880 C   0  0  0  0  0  1  0  0  0  0  0  0
  -26.4580  -37.3920   23.7710 N   0  0  0  0  0  0  0  0  0  0  0  0
  -26.0500  -38.3090   23.9340 H   0  0  0  0  0  0  0  0  0  0  0  0
  -26.4630  -31.7150   25.1000 C   0  0  1  0  0  0  0  0  0  0  0  0
  -25.3940  -31.4610   26.1880 C   0  0  0  0  0  1  0  0  0  0  0  0
  -27.0390  -30.3420   24.6860 C   0  0  0  0  0  1  0  0  0  0  0  0
  -27.6250  -32.5040   25.7480 C   0  0  0  0  0  1  0  0  0  0  0  0
  -30.2170  -21.9250   19.9240 C   0  0  0  0  0  2  0  0  0  0  0  0
  -29.6130  -20.6990   20.6590 C   0  0  0  0  0  2  0  0  0  0  0  0
  -30.6300  -19.5450   20.7210 C   0  0  0  0  0  2  0  0  0  0  0  0
  -30.0860  -18.2520   21.3470 C   0  0  0  0  0  2  0  0  0  0  0  0
  -30.8410  -16.9920   20.8630 C   0  0  0  0  0  2  0  0  0  0  0  0
  -30.0530  -15.6830   21.1100 C   0  0  0  0  0  2  0  0  0  0  0  0
  -30.7210  -14.4430   20.4910 C   0  0  0  0  0  0  0  0  0  0  0  0
  -30.3690  -12.3040   19.3330 C   0  0  0  0  0  2  0  0  0  0  0  0
  -29.4450  -12.5630   18.1270 C   0  0  0  0  0  2  0  0  0  0  0  0
  -27.9630  -12.4550   18.5420 C   0  0  0  0  0  2  0  0  0  0  0  0
  -27.6330  -13.2720   19.8210 C   0  0  0  0  0  3  0  0  0  0  0  0
  -28.6870  -13.0320   20.9290 C   0  0  0  0  0  2  0  0  0  0  0  0
  -30.0210  -13.2860   20.3650 N   0  0  0  0  0  0  0  0  0  0  0  0
  -31.8480  -14.5820   20.0080 O   0  0  0  0  0  0  0  0  0  0  0  0
  -25.2300  -13.8910   20.4970 C   0  0  0  0  0  0  0  0  0  0  0  0
  -24.1530  -13.1280   20.8620 C   0  0  0  0  0  0  0  0  0  0  0  0
  -24.6110  -11.7730   20.8570 C   0  0  0  0  0  0  0  0  0  0  0  0
  -26.2750  -13.0030   20.2920 N   0  0  0  0  0  0  0  0  0  0  0  0
  -25.9040  -11.7260   20.5620 N   0  0  0  0  0  0  0  0  0  0  0  0
  -23.8770  -10.5170   21.0530 C   0  0  0  0  0  0  0  0  0  0  0  0
  -24.3080   -9.5460   21.9830 C   0  0  0  0  0  3  0  0  0  0  0  0
  -23.5720   -8.3560   22.1690 C   0  0  0  0  0  3  0  0  0  0  0  0
  -22.3910   -8.1280   21.4250 C   0  0  0  0  0  0  0  0  0  0  0  0
  -21.9780   -9.0870   20.4820 C   0  0  0  0  0  3  0  0  0  0  0  0
  -22.7140  -10.2690   20.2940 C   0  0  0  0  0  3  0  0  0  0  0  0
  -21.6290   -6.9890   21.5170 O   0  0  0  0  0  0  0  0  0  0  0  0
  -21.6000   -6.2350   22.6610 C   0  0  0  0  0  0  0  0  0  0  0  0
  -21.2250   -6.7850   23.9070 C   0  0  0  0  0  3  0  0  0  0  0  0
  -21.1400   -5.9580   25.0450 C   0  0  0  0  0  3  0  0  0  0  0  0
  -21.4210   -4.5840   24.9400 C   0  0  0  0  0  0  0  0  0  0  0  0
  -21.7910   -4.0330   23.6990 C   0  0  0  0  0  3  0  0  0  0  0  0
  -21.8770   -4.8560   22.5630 C   0  0  0  0  0  0  0  0  0  0  0  0
  -22.2110   -4.3160   21.3660 F   0  0  0  0  0  0  0  0  0  0  0  0
  -21.3350   -3.7860   26.0310 F   0  0  0  0  0  0  0  0  0  0  0  0
  -22.7550  -13.6180   21.1110 C   0  0  0  0  0  0  0  0  0  0  0  0
  -22.0130  -12.9370   21.9800 N   0  0  0  0  0  0  0  0  0  0  0  0
  -22.3260  -14.6360   20.5710 O   0  0  0  0  0  0  0  0  0  0  0  0
  -22.3720  -12.1130   22.4380 H   0  0  0  0  0  0  0  0  0  0  0  0
  -21.0770  -13.2520   22.1920 H   0  0  0  0  0  0  0  0  0  0  0  0
  -25.4030  -15.2580   20.3050 N   0  0  0  0  0  0  0  0  0  0  0  0
  -24.6430  -15.9230   20.4050 H   0  0  0  0  0  0  0  0  0  0  0  0
  -26.2710  -15.6890   20.0070 H   0  0  0  0  0  0  0  0  0  0  0  0
  2  1  2  0
  2 47  1  0
  3  2  1  0
  4  3  2  0
  5  1  1  0
  5  6  1  0
  6  8  1  0
  7 18  2  0
  8 13  1  0
  9 17  1  0
  9 19  1  0
 10 16  1  0
 10 12  1  0
 11 17  1  0
 12 11  1  0
 13 12  2  0
 14 15  1  0
 14  8  2  0
 15 10  2  0
 16  9  1  0
 17  7  1  0
 19 21  2  0
 20 19  1  0
 22 20  1  0
 23 32  2  0
 23 28  1  0
 24 20  1  0
 24 28  1  0
 25 24  1  0
 26 27  1  0
 26 25  1  0
 27 23  1  0
 28 29  2  0
 29 30  1  0
 31 30  2  0
 32 31  1  0
 33  7  1  0
 33 34  1  0
 33 43  1  0
 34 37  1  0
 35 39  1  0
 35 34  1  0
 36 35  2  0
 39 38  1  0
 41 39  1  0
 41 42  1  0
 41 40  1  0
 43 46  1  1
 43 44  1  0
 45 43  1  0
 47 48  1  0
 48 49  1  0
 49 50  1  0
 51 52  1  0
 51 50  1  0
 53 52  1  0
 54 59  1  0
 55 56  1  0
 55 54  1  0
 57 56  1  0
 57 64  1  0
 57 58  1  0
 59 53  1  0
 59 58  1  0
 60 53  2  0
 61 62  2  0
 62 81  1  0
 63 62  1  0
 63 66  1  0
 64 61  1  0
 64 65  1  0
 65 63  2  0
 66 67  1  0
 67 68  2  0
 69 72  1  0
 69 68  1  0
 70 69  2  0
 71 70  1  0
 71 66  2  0
 72 73  1  0
 73 74  1  0
 74 75  2  0
 76 75  1  0
 76 80  1  0
 77 76  2  0
 78 73  2  0
 78 77  1  0
 79 78  1  0
 81 82  1  0
 82 85  1  0
 82 84  1  0
 83 81  2  0
 86 87  1  0
 86 61  1  0
 88 86  1  0
M  ISO  4   5 101   6 101  52 100  53 100
M  END
>  <TORSDO>  (56) 
F 24

>  <SCORE>  (56) 
-12.327

>  <name>  (56) 
55

>  <ligand_id>  (56) 
55

>  <original_smiles>  (56) 
[H]C(=O)C(=C([H])C([H])([H])Oc1c([H])c([H])c2c(c1[H])C([H])([H])N(C(=O)C([H])(N([H])C(=O)C([H])(N([H])C([H])([H])[H])C([H])([H])[H])C(C([H])([H])[H])(C([H])([H])[H])C([H])([H])[H])C([H])(C(=O)N([H])C1([H])c3c([H])c([H])c([H])c([H])c3C([H])([H])C([H])([H])C1([H])[H])C2([H])[H])C([H])([H])C([H])([H])C([H])([H])C([H])([H])C([H])([H])C([H])([H])C(=O)N1C([H])([H])C([H])([H])C([H])([H])C([H])(n2nc(-c3c([H])c([H])c(Oc4c([H])c([H])c(F)c([H])c4F)c([H])c3[H])c(C(=O)N([H])[H])c2N([H])[H])C1([H])[H]

>  <smiles>  (56) 
[H]C(=O)C(=C([H])C([H])([H])Oc1c([H])c([H])c2c(c1[H])C([H])([H])N(C(=O)C([H])(N([H])C(=O)C([H])(N([H])C([H])([H])[H])C([H])([H])[H])C(C([H])([H])[H])(C([H])([H])[H])C([H])([H])[H])C([H])(C(=O)N([H])C1([H])c3c([H])c([H])c([H])c([H])c3C([H])([H])C([H])([H])C1([H])[H])C2([H])[H])C([H])([H])C([H])([H])C([H])([H])C([H])([H])C([H])([H])C([H])([H])C(=O)N1C([H])([H])C([H])([H])C([H])([H])C([H])(n2nc(-c3c([H])c([H])c(Oc4c([H])c([H])c(F)c([H])c4F)c([H])c3[H])c(C(=O)N([H])[H])c2N([H])[H])C1([H])[H]

$$$$
56:0:0
     RDKit          3D

 94102  0  0  1  0  0  0  0  0999 V2000
  -28.9120  -20.7220   17.0920 C   0  0  0  0  0  3  0  0  0  0  0  0
  -28.6840  -21.8600   17.8930 C   0  0  0  0  0  3  0  0  0  0  0  0
  -29.1350  -19.4640   17.6870 C   0  0  0  0  0  3  0  0  0  0  0  0
  -28.9020  -20.4820   19.8880 C   0  0  0  0  0  3  0  0  0  0  0  0
  -28.6800  -21.7450   19.3010 C   0  0  0  0  0  0  0  0  0  0  0  0
  -29.1290  -19.3420   19.0920 C   0  0  0  0  0  0  0  0  0  0  0  0
  -28.4300  -22.9250   20.2330 C   0  0  0  0  0  2  0  0  0  0  0  0
  -28.4820  -24.3340   19.6110 C   0  0  0  0  0  2  0  0  0  0  0  0
  -28.2980  -25.4080   20.6970 C   0  0  0  0  0  2  0  0  0  0  0  0
  -28.3790  -26.7330   20.1750 O   0  0  0  0  0  0  0  0  0  0  0  0
  -24.5340  -31.8540   23.2550 C   0  0  0  0  0  0  0  0  0  0  0  0
  -27.2010  -27.4390   20.1810 C   0  0  0  0  0  0  0  0  0  0  0  0
  -23.3390  -30.4590   21.5970 C   0  0  0  0  0  3  0  0  0  0  0  0
  -24.8020  -28.9230   20.1840 C   0  0  0  0  0  0  0  0  0  0  0  0
  -25.8640  -30.8220   21.4190 C   0  0  0  0  0  2  0  0  0  0  0  0
  -25.9550  -29.4540   20.7780 C   0  0  0  0  0  0  0  0  0  0  0  0
  -27.1590  -28.7200   20.7690 C   0  0  0  0  0  3  0  0  0  0  0  0
  -26.0330  -26.9110   19.5900 C   0  0  0  0  0  3  0  0  0  0  0  0
  -24.8340  -27.6500   19.5880 C   0  0  0  0  0  3  0  0  0  0  0  0
  -23.5580  -29.7800   20.2180 C   0  0  0  0  0  2  0  0  0  0  0  0
  -24.5960  -31.0590   22.1500 N   0  0  0  0  0  0  0  0  0  0  0  0
  -23.4490  -32.1300   23.7860 O   0  0  0  0  0  0  0  0  0  0  0  0
  -22.6750  -29.4380   22.5480 C   0  0  0  0  0  0  0  0  0  0  0  0
  -21.3500  -29.2700   22.4130 N   0  0  0  0  0  0  0  0  0  0  0  0
  -23.3490  -28.7980   23.3600 O   0  0  0  0  0  0  0  0  0  0  0  0
  -20.8690  -29.8380   21.7300 H   0  0  0  0  0  0  0  0  0  0  0  0
  -17.9580  -28.1250   22.8990 C   0  0  0  0  0  0  0  0  0  0  0  0
  -20.5200  -28.3370   23.1730 C   0  0  0  0  0  3  0  0  0  0  0  0
  -20.5990  -26.9110   22.5780 C   0  0  0  0  0  2  0  0  0  0  0  0
  -19.4920  -26.6200   21.5600 C   0  0  0  0  0  2  0  0  0  0  0  0
  -18.1120  -26.7810   22.2060 C   0  0  0  0  0  2  0  0  0  0  0  0
  -19.0900  -28.8620   23.3370 C   0  0  0  0  0  0  0  0  0  0  0  0
  -18.8930  -30.1240   23.9410 C   0  0  0  0  0  3  0  0  0  0  0  0
  -17.5970  -30.6440   24.1130 C   0  0  0  0  0  3  0  0  0  0  0  0
  -16.4790  -29.9030   23.6920 C   0  0  0  0  0  3  0  0  0  0  0  0
  -16.6610  -28.6440   23.0900 C   0  0  0  0  0  3  0  0  0  0  0  0
  -25.8170  -32.4780   23.8880 C   0  0  0  0  0  3  0  0  0  0  0  0
  -26.3110  -31.7110   25.1770 C   0  0  1  0  0  0  0  0  0  0  0  0
  -25.2000  -31.4880   26.2300 C   0  0  0  0  0  1  0  0  0  0  0  0
  -26.8890  -30.3270   24.7990 C   0  0  0  0  0  1  0  0  0  0  0  0
  -27.4580  -32.5010   25.8490 C   0  0  0  0  0  1  0  0  0  0  0  0
  -25.5190  -33.8810   24.2000 N   0  0  0  0  0  0  0  0  0  0  0  0
  -25.8730  -34.9210   23.4330 C   0  0  0  0  0  0  0  0  0  0  0  0
  -26.5550  -34.7990   22.4130 O   0  0  0  0  0  0  0  0  0  0  0  0
  -24.9140  -34.0510   24.9900 H   0  0  0  0  0  0  0  0  0  0  0  0
  -24.1690  -36.7280   23.0310 C   0  0  0  0  0  1  0  0  0  0  0  0
  -25.3910  -36.3190   23.8670 C   0  0  0  0  0  3  0  0  0  0  0  0
  -27.5180  -37.1920   24.7300 C   0  0  0  0  0  1  0  0  0  0  0  0
  -26.4360  -37.3600   23.7620 N   0  0  0  0  0  0  0  0  0  0  0  0
  -26.0350  -38.2860   23.8920 H   0  0  0  0  0  0  0  0  0  0  0  0
  -29.3720  -18.0010   19.7610 C   0  0  0  0  0  2  0  0  0  0  0  0
  -30.8750  -17.6830   19.8990 C   0  0  0  0  0  2  0  0  0  0  0  0
  -31.2850  -16.9720   21.2210 C   0  0  0  0  0  3  0  0  0  0  0  0
  -31.0290  -17.8410   22.4820 C   0  0  0  0  0  2  0  0  0  0  0  0
  -31.6130  -19.2550   22.4090 C   0  0  0  0  0  0  0  0  0  0  0  0
  -30.6920  -20.4210   22.7430 C   0  0  0  0  0  1  0  0  0  0  0  0
  -32.7880  -19.4510   22.0920 O   0  0  0  0  0  0  0  0  0  0  0  0
  -30.6430  -15.5660   21.3930 C   0  0  0  0  0  2  0  0  0  0  0  0
  -31.1970  -14.4550   20.4770 C   0  0  0  0  0  0  0  0  0  0  0  0
  -30.8410  -12.3040   19.3140 C   0  0  0  0  0  2  0  0  0  0  0  0
  -29.9170  -12.5000   18.0970 C   0  0  0  0  0  2  0  0  0  0  0  0
  -28.4360  -12.4140   18.5120 C   0  0  0  0  0  2  0  0  0  0  0  0
  -28.1080  -13.3010   19.7430 C   0  0  0  0  0  3  0  0  0  0  0  0
  -29.1390  -13.0680   20.8710 C   0  0  0  0  0  2  0  0  0  0  0  0
  -30.4800  -13.3120   20.3180 N   0  0  0  0  0  0  0  0  0  0  0  0
  -32.2700  -14.6420   19.8950 O   0  0  0  0  0  0  0  0  0  0  0  0
  -25.7230  -14.0050   20.4180 C   0  0  0  0  0  0  0  0  0  0  0  0
  -24.6220  -13.2760   20.7780 C   0  0  0  0  0  0  0  0  0  0  0  0
  -25.0310  -11.9070   20.7560 C   0  0  0  0  0  0  0  0  0  0  0  0
  -26.7380  -13.0840   20.2050 N   0  0  0  0  0  0  0  0  0  0  0  0
  -26.3220  -11.8170   20.4620 N   0  0  0  0  0  0  0  0  0  0  0  0
  -24.2550  -10.6740   20.9430 C   0  0  0  0  0  0  0  0  0  0  0  0
  -24.6250   -9.7080   21.9050 C   0  0  0  0  0  3  0  0  0  0  0  0
  -23.8540   -8.5390   22.0790 C   0  0  0  0  0  3  0  0  0  0  0  0
  -22.6970   -8.3280   21.2900 C   0  0  0  0  0  0  0  0  0  0  0  0
  -22.3470   -9.2820   20.3190 C   0  0  0  0  0  3  0  0  0  0  0  0
  -23.1190  -10.4420   20.1430 C   0  0  0  0  0  3  0  0  0  0  0  0
  -21.9010   -7.2110   21.3710 O   0  0  0  0  0  0  0  0  0  0  0  0
  -21.7520   -6.5180   22.5450 C   0  0  0  0  0  0  0  0  0  0  0  0
  -21.2520   -7.1310   23.7140 C   0  0  0  0  0  3  0  0  0  0  0  0
  -21.0490   -6.3650   24.8800 C   0  0  0  0  0  3  0  0  0  0  0  0
  -21.3360   -4.9870   24.8760 C   0  0  0  0  0  0  0  0  0  0  0  0
  -21.8290   -4.3730   23.7110 C   0  0  0  0  0  3  0  0  0  0  0  0
  -22.0330   -5.1370   22.5480 C   0  0  0  0  0  0  0  0  0  0  0  0
  -22.4890   -4.5350   21.4220 F   0  0  0  0  0  0  0  0  0  0  0  0
  -21.1330   -4.2490   25.9920 F   0  0  0  0  0  0  0  0  0  0  0  0
  -23.2410  -13.8060   21.0360 C   0  0  0  0  0  0  0  0  0  0  0  0
  -22.4840  -13.1500   21.9080 N   0  0  0  0  0  0  0  0  0  0  0  0
  -22.8420  -14.8400   20.4980 O   0  0  0  0  0  0  0  0  0  0  0  0
  -22.8180  -12.3140   22.3640 H   0  0  0  0  0  0  0  0  0  0  0  0
  -21.5560  -13.4880   22.1220 H   0  0  0  0  0  0  0  0  0  0  0  0
  -25.9420  -15.3680   20.2370 N   0  0  0  0  0  0  0  0  0  0  0  0
  -25.2010  -16.0520   20.3360 H   0  0  0  0  0  0  0  0  0  0  0  0
  -26.8150  -15.7710   19.9230 H   0  0  0  0  0  0  0  0  0  0  0  0
  1  3  2  0
  1  2  1  0
  2  5  2  0
  3  6  1  0
  5  4  1  0
  5  7  1  0
  6 51  1  0
  6  4  2  0
  8  7  1  0
  8  9  1  0
 10 12  1  0
 10  9  1  0
 11 22  2  0
 12 17  1  0
 13 21  1  0
 13 23  1  0
 14 20  1  0
 14 16  1  0
 15 21  1  0
 16 15  1  0
 17 16  2  0
 18 12  2  0
 19 18  1  0
 19 14  2  0
 20 13  1  0
 21 11  1  0
 23 25  2  0
 24 23  1  0
 26 24  1  0
 27 36  2  0
 27 32  1  0
 28 24  1  0
 28 32  1  0
 29 28  1  0
 30 31  1  0
 30 29  1  0
 31 27  1  0
 32 33  2  0
 33 34  1  0
 35 34  2  0
 36 35  1  0
 37 11  1  0
 37 42  1  0
 37 38  1  0
 38 41  1  1
 38 39  1  0
 40 38  1  0
 42 45  1  0
 43 47  1  0
 43 42  1  0
 44 43  2  0
 47 46  1  0
 49 47  1  0
 49 50  1  0
 49 48  1  0
 51 52  1  0
 53 52  1  0
 53 58  1  0
 53 54  1  0
 55 54  1  0
 55 56  1  0
 57 55  2  0
 59 58  1  0
 60 65  1  0
 61 62  1  0
 61 60  1  0
 63 62  1  0
 63 70  1  0
 63 64  1  0
 65 59  1  0
 65 64  1  0
 66 59  2  0
 67 68  2  0
 68 87  1  0
 69 68  1  0
 69 72  1  0
 70 67  1  0
 70 71  1  0
 71 69  2  0
 72 73  1  0
 73 74  2  0
 75 78  1  0
 75 74  1  0
 76 75  2  0
 77 76  1  0
 77 72  2  0
 78 79  1  0
 79 84  2  0
 79 80  1  0
 80 81  2  0
 82 81  1  0
 82 86  1  0
 83 82  2  0
 84 83  1  0
 85 84  1  0
 87 88  1  0
 88 91  1  0
 88 90  1  0
 89 87  2  0
 92 93  1  0
 92 67  1  0
 94 92  1  0
M  ISO  4   9 101  10 101  58 100  59 100
M  END
>  <TORSDO>  (57) 
F 25

>  <SCORE>  (57) 
-12.184

>  <name>  (57) 
56

>  <ligand_id>  (57) 
56

>  <original_smiles>  (57) 
[H]c1c([H])c([H])c2c(c1[H])C([H])([H])C([H])([H])C([H])([H])C2([H])N([H])C(=O)C1([H])N(C(=O)C([H])(N([H])C(=O)C([H])(N([H])C([H])([H])[H])C([H])([H])[H])C(C([H])([H])[H])(C([H])([H])[H])C([H])([H])[H])C([H])([H])c2c([H])c(OC([H])([H])C([H])([H])C([H])([H])c3c([H])c([H])c([H])c(C([H])([H])C([H])([H])C([H])(C([H])([H])C(=O)N4C([H])([H])C([H])([H])C([H])([H])C([H])(n5nc(-c6c([H])c([H])c(Oc7c([H])c([H])c(F)c([H])c7F)c([H])c6[H])c(C(=O)N([H])[H])c5N([H])[H])C4([H])[H])C([H])([H])C(=O)C([H])([H])[H])c3[H])c([H])c([H])c2C1([H])[H]

>  <smiles>  (57) 
[H]c1c([H])c([H])c2c(c1[H])C([H])([H])C([H])([H])C([H])([H])C2([H])N([H])C(=O)C1([H])N(C(=O)C([H])(N([H])C(=O)C([H])(N([H])C([H])([H])[H])C([H])([H])[H])C(C([H])([H])[H])(C([H])([H])[H])C([H])([H])[H])C([H])([H])c2c([H])c(OC([H])([H])C([H])([H])C([H])([H])c3c([H])c([H])c([H])c(C([H])([H])C([H])([H])C([H])(C([H])([H])C(=O)N4C([H])([H])C([H])([H])C([H])([H])C([H])(n5nc(-c6c([H])c([H])c(Oc7c([H])c([H])c(F)c([H])c7F)c([H])c6[H])c(C(=O)N([H])[H])c5N([H])[H])C4([H])[H])C([H])([H])C(=O)C([H])([H])[H])c3[H])c([H])c([H])c2C1([H])[H]

$$$$
57:0:0
     RDKit          3D

 87 94  0  0  1  0  0  0  0  0999 V2000
  -28.8550  -22.3400   20.1050 C   0  0  0  0  0  2  0  0  0  0  0  0
  -29.3090  -21.1300   21.0500 C   0  0  0  0  0  2  0  0  0  0  0  0
  -29.5370  -18.4710   20.8760 C   0  0  0  0  0  3  0  0  0  0  0  0
  -29.7630  -19.7580   20.4250 C   0  0  0  0  0  3  0  0  0  0  0  0
  -29.9200  -15.9250   20.8180 C   0  0  0  0  0  3  0  0  0  0  0  0
  -30.1310  -17.2070   20.3220 C   0  0  0  0  0  0  0  0  0  0  0  0
  -30.6360  -14.6790   20.3590 C   0  0  0  0  0  0  0  0  0  0  0  0
  -30.3670  -12.4320   19.3270 C   0  0  0  0  0  2  0  0  0  0  0  0
  -29.4390  -12.5550   18.0990 C   0  0  0  0  0  2  0  0  0  0  0  0
  -27.9650  -12.4020   18.5190 C   0  0  0  0  0  2  0  0  0  0  0  0
  -27.6040  -13.2720   19.7530 C   0  0  0  0  0  3  0  0  0  0  0  0
  -28.6570  -13.1460   20.8740 C   0  0  0  0  0  2  0  0  0  0  0  0
  -29.9680  -13.4760   20.3000 N   0  0  0  0  0  0  0  0  0  0  0  0
  -31.8020  -14.7220   19.9550 O   0  0  0  0  0  0  0  0  0  0  0  0
  -25.2120  -13.8620   20.4640 C   0  0  0  0  0  0  0  0  0  0  0  0
  -24.1460  -13.0890   20.8360 C   0  0  0  0  0  0  0  0  0  0  0  0
  -24.6120  -11.7390   20.8180 C   0  0  0  0  0  0  0  0  0  0  0  0
  -26.2580  -12.9840   20.2380 N   0  0  0  0  0  0  0  0  0  0  0  0
  -25.9040  -11.7020   20.5130 N   0  0  0  0  0  0  0  0  0  0  0  0
  -23.8870  -10.4760   21.0180 C   0  0  0  0  0  0  0  0  0  0  0  0
  -24.3290   -9.5090   21.9470 C   0  0  0  0  0  3  0  0  0  0  0  0
  -23.6060   -8.3120   22.1340 C   0  0  0  0  0  3  0  0  0  0  0  0
  -22.4250   -8.0730   21.3910 C   0  0  0  0  0  0  0  0  0  0  0  0
  -22.0010   -9.0300   20.4510 C   0  0  0  0  0  3  0  0  0  0  0  0
  -22.7260  -10.2180   20.2620 C   0  0  0  0  0  3  0  0  0  0  0  0
  -21.6700   -6.9290   21.4870 O   0  0  0  0  0  0  0  0  0  0  0  0
  -21.6450   -6.1770   22.6350 C   0  0  0  0  0  0  0  0  0  0  0  0
  -21.2570   -6.7270   23.8760 C   0  0  0  0  0  3  0  0  0  0  0  0
  -21.1770   -5.9030   25.0170 C   0  0  0  0  0  3  0  0  0  0  0  0
  -21.4760   -4.5310   24.9170 C   0  0  0  0  0  0  0  0  0  0  0  0
  -21.8580   -3.9810   23.6800 C   0  0  0  0  0  3  0  0  0  0  0  0
  -21.9390   -4.8020   22.5420 C   0  0  0  0  0  0  0  0  0  0  0  0
  -22.2870   -4.2630   21.3490 F   0  0  0  0  0  0  0  0  0  0  0  0
  -21.3920   -3.7370   26.0110 F   0  0  0  0  0  0  0  0  0  0  0  0
  -22.7470  -13.5660   21.0990 C   0  0  0  0  0  0  0  0  0  0  0  0
  -22.0180  -12.8790   21.9710 N   0  0  0  0  0  0  0  0  0  0  0  0
  -22.3090  -14.5850   20.5680 O   0  0  0  0  0  0  0  0  0  0  0  0
  -22.3870  -12.0570   22.4260 H   0  0  0  0  0  0  0  0  0  0  0  0
  -21.0810  -13.1820   22.1890 H   0  0  0  0  0  0  0  0  0  0  0  0
  -25.3740  -15.2320   20.2790 N   0  0  0  0  0  0  0  0  0  0  0  0
  -24.6080  -15.8890   20.3870 H   0  0  0  0  0  0  0  0  0  0  0  0
  -26.2310  -15.6720   19.9660 H   0  0  0  0  0  0  0  0  0  0  0  0
  -30.9500  -17.3680   19.2700 O   0  0  0  0  0  0  0  0  0  0  0  0
  -30.9780  -18.2940   19.0700 H   0  0  0  0  0  0  0  0  0  0  0  0
  -28.9440  -23.8460   20.6600 C   0  0  0  0  0  3  0  0  0  0  0  0
  -28.1030  -24.9840   19.9180 C   0  0  0  0  0  3  0  0  0  0  0  0
  -28.2830  -26.4290   20.2480 O   0  0  0  0  0  0  0  0  0  0  0  0
  -24.6140  -31.8910   23.2300 C   0  0  0  0  0  0  0  0  0  0  0  0
  -27.1830  -27.3040   20.1630 C   0  0  0  0  0  0  0  0  0  0  0  0
  -23.3980  -30.4970   21.5990 C   0  0  0  0  0  3  0  0  0  0  0  0
  -24.8320  -28.9450   20.1590 C   0  0  0  0  0  0  0  0  0  0  0  0
  -25.9380  -30.7980   21.4050 C   0  0  0  0  0  2  0  0  0  0  0  0
  -26.0050  -29.4190   20.7580 C   0  0  0  0  0  0  0  0  0  0  0  0
  -27.1810  -28.6070   20.7570 C   0  0  0  0  0  3  0  0  0  0  0  0
  -25.9930  -26.9070   19.5080 C   0  0  0  0  0  3  0  0  0  0  0  0
  -24.8290  -27.6960   19.5230 C   0  0  0  0  0  3  0  0  0  0  0  0
  -23.6010  -29.8260   20.2150 C   0  0  0  0  0  2  0  0  0  0  0  0
  -24.6700  -31.0790   22.1340 N   0  0  0  0  0  0  0  0  0  0  0  0
  -23.5350  -32.1730   23.7700 O   0  0  0  0  0  0  0  0  0  0  0  0
  -22.7360  -29.4820   22.5610 C   0  0  0  0  0  0  0  0  0  0  0  0
  -21.4090  -29.3070   22.4380 N   0  0  0  0  0  0  0  0  0  0  0  0
  -23.4150  -28.8550   23.3780 O   0  0  0  0  0  0  0  0  0  0  0  0
  -20.9200  -29.8650   21.7530 H   0  0  0  0  0  0  0  0  0  0  0  0
  -18.0320  -28.1130   22.9430 C   0  0  0  0  0  0  0  0  0  0  0  0
  -20.5900  -28.3740   23.2130 C   0  0  0  0  0  3  0  0  0  0  0  0
  -20.6910  -26.9390   22.6460 C   0  0  0  0  0  2  0  0  0  0  0  0
  -19.5890  -26.6100   21.6330 C   0  0  0  0  0  2  0  0  0  0  0  0
  -18.2080  -26.7600   22.2750 C   0  0  0  0  0  2  0  0  0  0  0  0
  -19.1500  -28.8770   23.3690 C   0  0  0  0  0  0  0  0  0  0  0  0
  -18.9310  -30.1430   23.9550 C   0  0  0  0  0  3  0  0  0  0  0  0
  -17.6270  -30.6460   24.1180 C   0  0  0  0  0  3  0  0  0  0  0  0
  -16.5220  -29.8790   23.7080 C   0  0  0  0  0  3  0  0  0  0  0  0
  -16.7250  -28.6140   23.1270 C   0  0  0  0  0  3  0  0  0  0  0  0
  -25.9030  -32.5190   23.8440 C   0  0  0  0  0  3  0  0  0  0  0  0
  -26.4260  -31.7420   25.1160 C   0  0  1  0  0  0  0  0  0  0  0  0
  -25.3410  -31.5070   26.1920 C   0  0  0  0  0  1  0  0  0  0  0  0
  -27.0010  -30.3630   24.7180 C   0  0  0  0  0  1  0  0  0  0  0  0
  -27.5840  -32.5320   25.7700 C   0  0  0  0  0  1  0  0  0  0  0  0
  -25.5980  -33.9170   24.1810 N   0  0  0  0  0  0  0  0  0  0  0  0
  -25.9220  -34.9720   23.4220 C   0  0  0  0  0  0  0  0  0  0  0  0
  -26.5810  -34.8710   22.3840 O   0  0  0  0  0  0  0  0  0  0  0  0
  -25.0120  -34.0680   24.9890 H   0  0  0  0  0  0  0  0  0  0  0  0
  -24.1900  -36.7660   23.0930 C   0  0  0  0  0  1  0  0  0  0  0  0
  -25.4400  -36.3600   23.8890 C   0  0  0  0  0  3  0  0  0  0  0  0
  -27.5910  -37.2370   24.6870 C   0  0  0  0  0  1  0  0  0  0  0  0
  -26.4700  -37.4150   23.7680 N   0  0  0  0  0  0  0  0  0  0  0  0
  -26.0660  -38.3320   23.9360 H   0  0  0  0  0  0  0  0  0  0  0  0
  1 45  1  0
  1  2  1  0
  4  3  2  0
  4  2  1  0
  6  5  2  0
  6  3  1  0
  7  5  1  0
  8 13  1  0
  9 10  1  0
  9  8  1  0
 11 10  1  0
 11 18  1  0
 11 12  1  0
 13  7  1  0
 13 12  1  0
 14  7  2  0
 15 16  2  0
 16 35  1  0
 17 16  1  0
 17 20  1  0
 18 15  1  0
 18 19  1  0
 19 17  2  0
 20 21  1  0
 21 22  2  0
 23 26  1  0
 23 22  1  0
 24 23  2  0
 25 24  1  0
 25 20  2  0
 26 27  1  0
 27 28  1  0
 28 29  2  0
 30 29  1  0
 30 34  1  0
 31 30  2  0
 32 27  2  0
 32 31  1  0
 33 32  1  0
 35 36  1  0
 36 39  1  0
 36 38  1  0
 37 35  2  0
 40 41  1  0
 40 15  1  0
 42 40  1  0
 43  6  1  0
 44 43  1  0
 46 47  1  0
 46 45  2  0
 48 59  2  0
 49 47  1  0
 49 54  1  0
 50 58  1  0
 50 60  1  0
 51 57  1  0
 51 53  1  0
 52 58  1  0
 53 52  1  0
 54 53  2  0
 55 56  1  0
 55 49  2  0
 56 51  2  0
 57 50  1  0
 58 48  1  0
 60 62  2  0
 61 60  1  0
 63 61  1  0
 64 73  2  0
 64 69  1  0
 65 61  1  0
 65 69  1  0
 66 65  1  0
 67 68  1  0
 67 66  1  0
 68 64  1  0
 69 70  2  0
 70 71  1  0
 72 71  2  0
 73 72  1  0
 74 48  1  0
 74 79  1  0
 74 75  1  0
 75 78  1  1
 75 76  1  0
 77 75  1  0
 79 82  1  0
 80 84  1  0
 80 79  1  0
 81 80  2  0
 84 83  1  0
 86 84  1  0
 86 87  1  0
 86 85  1  0
M  ISO  4   5 100   7 100  46 101  47 101
M  END
>  <TORSDO>  (58) 
F 22

>  <SCORE>  (58) 
-13.123

>  <name>  (58) 
57

>  <ligand_id>  (58) 
57

>  <original_smiles>  (58) 
[H]OC(=C([H])C(=O)N1C([H])([H])C([H])([H])C([H])([H])C([H])(n2nc(-c3c([H])c([H])c(Oc4c([H])c([H])c(F)c([H])c4F)c([H])c3[H])c(C(=O)N([H])[H])c2N([H])[H])C1([H])[H])C([H])=C([H])C([H])([H])C([H])([H])C([H])([H])C([H])([H])Oc1c([H])c([H])c2c(c1[H])C([H])([H])N(C(=O)C([H])(N([H])C(=O)C([H])(N([H])C([H])([H])[H])C([H])([H])[H])C(C([H])([H])[H])(C([H])([H])[H])C([H])([H])[H])C([H])(C(=O)N([H])C1([H])c3c([H])c([H])c([H])c([H])c3C([H])([H])C([H])([H])C1([H])[H])C2([H])[H]

>  <smiles>  (58) 
[H]OC(=C([H])C(=O)N1C([H])([H])C([H])([H])C([H])([H])C([H])(n2nc(-c3c([H])c([H])c(Oc4c([H])c([H])c(F)c([H])c4F)c([H])c3[H])c(C(=O)N([H])[H])c2N([H])[H])C1([H])[H])C([H])=C([H])C([H])([H])C([H])([H])C([H])([H])C([H])([H])Oc1c([H])c([H])c2c(c1[H])C([H])([H])N(C(=O)C([H])(N([H])C(=O)C([H])(N([H])C([H])([H])[H])C([H])([H])[H])C(C([H])([H])[H])(C([H])([H])[H])C([H])([H])[H])C([H])(C(=O)N([H])C1([H])c3c([H])c([H])c([H])c([H])c3C([H])([H])C([H])([H])C1([H])[H])C2([H])[H]

$$$$
58:0:0
     RDKit          3D

 95103  0  0  1  0  0  0  0  0999 V2000
  -31.2300  -19.9530   16.8860 C   0  0  0  0  0  1  0  0  0  0  0  0
  -31.0540  -20.7950   18.0670 N   0  0  0  0  0  0  0  0  0  0  0  0
  -29.7480  -19.1440   21.1310 C   0  0  0  0  0  3  0  0  0  0  0  0
  -32.0170  -18.3550   20.7100 C   0  0  0  0  0  3  0  0  0  0  0  0
  -29.8630  -20.0190   20.0310 C   0  0  0  0  0  3  0  0  0  0  0  0
  -32.1400  -19.2480   19.6340 C   0  0  0  0  0  3  0  0  0  0  0  0
  -30.8110  -18.2670   21.4430 C   0  0  0  0  0  0  0  0  0  0  0  0
  -31.0390  -20.0470   19.2550 C   0  0  0  0  0  0  0  0  0  0  0  0
  -30.6510  -17.1770   22.4460 C   0  0  0  0  0  0  0  0  0  0  0  0
  -30.1850  -17.3510   23.5730 O   0  0  0  0  0  0  0  0  0  0  0  0
  -31.0730  -15.8620   21.9480 C   0  0  0  0  0  3  0  0  0  0  0  0
  -30.4950  -15.3520   20.8420 C   0  0  0  0  0  3  0  0  0  0  0  0
  -31.1050  -14.2330   20.1570 C   0  0  0  0  0  0  0  0  0  0  0  0
  -30.5330  -12.2770   18.7820 C   0  0  0  0  0  2  0  0  0  0  0  0
  -29.5670  -12.7260   17.6680 C   0  0  0  0  0  2  0  0  0  0  0  0
  -28.1020  -12.6950   18.1670 C   0  0  0  0  0  2  0  0  0  0  0  0
  -27.9120  -13.3630   19.5580 C   0  0  0  0  0  3  0  0  0  0  0  0
  -28.9990  -12.9100   20.5530 C   0  0  0  0  0  2  0  0  0  0  0  0
  -30.3070  -13.1560   19.9340 N   0  0  0  0  0  0  0  0  0  0  0  0
  -32.2190  -14.3560   19.6460 O   0  0  0  0  0  0  0  0  0  0  0  0
  -25.5690  -14.0480   20.3770 C   0  0  0  0  0  0  0  0  0  0  0  0
  -24.4900  -13.3120   20.7890 C   0  0  0  0  0  0  0  0  0  0  0  0
  -24.8910  -11.9420   20.7080 C   0  0  0  0  0  0  0  0  0  0  0  0
  -26.5680  -13.1310   20.0860 N   0  0  0  0  0  0  0  0  0  0  0  0
  -26.1630  -11.8580   20.3400 N   0  0  0  0  0  0  0  0  0  0  0  0
  -24.1220  -10.7060   20.9100 C   0  0  0  0  0  0  0  0  0  0  0  0
  -24.5660   -9.6960   21.7930 C   0  0  0  0  0  3  0  0  0  0  0  0
  -23.8030   -8.5240   21.9830 C   0  0  0  0  0  3  0  0  0  0  0  0
  -22.5810   -8.3530   21.2910 C   0  0  0  0  0  0  0  0  0  0  0  0
  -22.1520   -9.3490   20.3980 C   0  0  0  0  0  3  0  0  0  0  0  0
  -22.9160  -10.5140   20.2060 C   0  0  0  0  0  3  0  0  0  0  0  0
  -21.7880   -7.2350   21.3930 O   0  0  0  0  0  0  0  0  0  0  0  0
  -21.7760   -6.4630   22.5240 C   0  0  0  0  0  0  0  0  0  0  0  0
  -21.4860   -7.0020   23.7980 C   0  0  0  0  0  3  0  0  0  0  0  0
  -21.4130   -6.1550   24.9230 C   0  0  0  0  0  3  0  0  0  0  0  0
  -21.6270   -4.7700   24.7750 C   0  0  0  0  0  0  0  0  0  0  0  0
  -21.9110   -4.2330   23.5070 C   0  0  0  0  0  3  0  0  0  0  0  0
  -21.9820   -5.0760   22.3850 C   0  0  0  0  0  0  0  0  0  0  0  0
  -22.2340   -4.5510   21.1630 F   0  0  0  0  0  0  0  0  0  0  0  0
  -21.5500   -3.9510   25.8510 F   0  0  0  0  0  0  0  0  0  0  0  0
  -23.1290  -13.8390   21.1290 C   0  0  0  0  0  0  0  0  0  0  0  0
  -22.4220  -13.1830   22.0420 N   0  0  0  0  0  0  0  0  0  0  0  0
  -22.7020  -14.8740   20.6140 O   0  0  0  0  0  0  0  0  0  0  0  0
  -22.7720  -12.3440   22.4770 H   0  0  0  0  0  0  0  0  0  0  0  0
  -21.5080  -13.5250   22.3040 H   0  0  0  0  0  0  0  0  0  0  0  0
  -25.7690  -15.4140   20.1990 N   0  0  0  0  0  0  0  0  0  0  0  0
  -24.9950  -16.0620   20.2890 H   0  0  0  0  0  0  0  0  0  0  0  0
  -26.5730  -15.8200   19.7380 H   0  0  0  0  0  0  0  0  0  0  0  0
  -31.8250  -22.0330   18.1200 C   0  0  0  0  0  2  0  0  0  0  0  0
  -31.1070  -23.1510   18.8920 C   0  0  0  0  0  2  0  0  0  0  0  0
  -31.8080  -24.5000   18.6600 C   0  0  0  0  0  2  0  0  0  0  0  0
  -30.9740  -25.7270   19.0450 C   0  0  0  0  0  2  0  0  0  0  0  0
  -30.6050  -25.8170   20.5350 C   0  0  0  0  0  2  0  0  0  0  0  0
  -29.5840  -26.9350   20.7870 C   0  0  0  0  0  2  0  0  0  0  0  0
  -28.4060  -26.5220   20.1030 O   0  0  0  0  0  0  0  0  0  0  0  0
  -24.5300  -31.7090   23.1410 C   0  0  0  0  0  0  0  0  0  0  0  0
  -27.2770  -27.3050   20.1400 C   0  0  0  0  0  0  0  0  0  0  0  0
  -23.3630  -30.2940   21.4760 C   0  0  0  0  0  3  0  0  0  0  0  0
  -24.8580  -28.7600   20.0930 C   0  0  0  0  0  0  0  0  0  0  0  0
  -25.8870  -30.6730   21.3340 C   0  0  0  0  0  2  0  0  0  0  0  0
  -25.9940  -29.3030   20.7070 C   0  0  0  0  0  0  0  0  0  0  0  0
  -27.2060  -28.5830   20.7400 C   0  0  0  0  0  3  0  0  0  0  0  0
  -26.1300  -26.7690   19.5220 C   0  0  0  0  0  3  0  0  0  0  0  0
  -24.9200  -27.4870   19.4960 C   0  0  0  0  0  3  0  0  0  0  0  0
  -23.6050  -29.6050   20.1040 C   0  0  0  0  0  2  0  0  0  0  0  0
  -24.6080  -30.9080   22.0410 N   0  0  0  0  0  0  0  0  0  0  0  0
  -23.4380  -31.9790   23.6600 O   0  0  0  0  0  0  0  0  0  0  0  0
  -22.6970  -29.2750   22.4280 C   0  0  0  0  0  0  0  0  0  0  0  0
  -21.3750  -29.0940   22.2810 N   0  0  0  0  0  0  0  0  0  0  0  0
  -23.3700  -28.6470   23.2510 O   0  0  0  0  0  0  0  0  0  0  0  0
  -20.8940  -29.6510   21.5890 H   0  0  0  0  0  0  0  0  0  0  0  0
  -17.9920  -27.9130   22.7330 C   0  0  0  0  0  0  0  0  0  0  0  0
  -20.5460  -28.1600   23.0410 C   0  0  0  0  0  3  0  0  0  0  0  0
  -20.6520  -26.7290   22.4700 C   0  0  0  0  0  2  0  0  0  0  0  0
  -19.5630  -26.4100   21.4380 C   0  0  0  0  0  2  0  0  0  0  0  0
  -18.1710  -26.5620   22.0610 C   0  0  0  0  0  2  0  0  0  0  0  0
  -19.1080  -28.6700   23.1790 C   0  0  0  0  0  0  0  0  0  0  0  0
  -18.8860  -29.9340   23.7650 C   0  0  0  0  0  3  0  0  0  0  0  0
  -17.5820  -30.4440   23.9080 C   0  0  0  0  0  3  0  0  0  0  0  0
  -16.4790  -29.6840   23.4790 C   0  0  0  0  0  3  0  0  0  0  0  0
  -16.6860  -28.4200   22.8980 C   0  0  0  0  0  3  0  0  0  0  0  0
  -25.8040  -32.3430   23.7830 C   0  0  0  0  0  3  0  0  0  0  0  0
  -26.3220  -31.5580   25.0490 C   0  0  1  0  0  0  0  0  0  0  0  0
  -25.2250  -31.3010   26.1100 C   0  0  0  0  0  1  0  0  0  0  0  0
  -26.9170  -30.1890   24.6420 C   0  0  0  0  0  1  0  0  0  0  0  0
  -27.4640  -32.3500   25.7270 C   0  0  0  0  0  1  0  0  0  0  0  0
  -25.4790  -33.7320   24.1290 N   0  0  0  0  0  0  0  0  0  0  0  0
  -25.8050  -34.7960   23.3840 C   0  0  0  0  0  0  0  0  0  0  0  0
  -26.4830  -34.7140   22.3570 O   0  0  0  0  0  0  0  0  0  0  0  0
  -24.8770  -33.8700   24.9270 H   0  0  0  0  0  0  0  0  0  0  0  0
  -24.0540  -36.5660   23.0410 C   0  0  0  0  0  1  0  0  0  0  0  0
  -25.2980  -36.1730   23.8540 C   0  0  0  0  0  3  0  0  0  0  0  0
  -27.4220  -37.0720   24.6960 C   0  0  0  0  0  1  0  0  0  0  0  0
  -26.3170  -37.2410   23.7550 N   0  0  0  0  0  0  0  0  0  0  0  0
  -25.9000  -38.1530   23.9150 H   0  0  0  0  0  0  0  0  0  0  0  0
  1  2  1  0
  2 49  1  0
  2  8  1  0
  3  7  1  0
  4  7  2  0
  5  3  2  0
  6  4  1  0
  7  9  1  0
  8  6  2  0
  8  5  1  0
  9 10  2  0
 11  9  1  0
 12 11  2  0
 13 12  1  0
 14 19  1  0
 15 16  1  0
 15 14  1  0
 17 16  1  0
 17 24  1  0
 17 18  1  0
 19 13  1  0
 19 18  1  0
 20 13  2  0
 21 22  2  0
 22 41  1  0
 23 22  1  0
 23 26  1  0
 24 25  1  0
 24 21  1  0
 25 23  2  0
 26 27  1  0
 27 28  2  0
 29 32  1  0
 29 28  1  0
 30 29  2  0
 31 30  1  0
 31 26  2  0
 32 33  1  0
 33 34  1  0
 34 35  2  0
 36 35  1  0
 36 40  1  0
 37 36  2  0
 38 33  2  0
 38 37  1  0
 39 38  1  0
 41 42  1  0
 42 45  1  0
 42 44  1  0
 43 41  2  0
 46 47  1  0
 46 21  1  0
 48 46  1  0
 49 50  1  0
 51 50  1  0
 51 52  1  0
 52 53  1  0
 53 54  1  0
 55 57  1  0
 55 54  1  0
 56 67  2  0
 57 62  1  0
 58 66  1  0
 58 68  1  0
 59 65  1  0
 59 61  1  0
 60 66  1  0
 61 62  2  0
 61 60  1  0
 63 57  2  0
 64 63  1  0
 64 59  2  0
 65 58  1  0
 66 56  1  0
 68 70  2  0
 69 68  1  0
 71 69  1  0
 72 81  2  0
 72 77  1  0
 73 69  1  0
 73 77  1  0
 74 73  1  0
 75 76  1  0
 75 74  1  0
 76 72  1  0
 77 78  2  0
 78 79  1  0
 80 79  2  0
 81 80  1  0
 82 56  1  0
 82 87  1  0
 82 83  1  0
 83 86  1  1
 83 84  1  0
 85 83  1  0
 87 90  1  0
 88 92  1  0
 88 87  1  0
 89 88  2  0
 92 91  1  0
 94 92  1  0
 94 95  1  0
 94 93  1  0
M  ISO  4  12 100  13 100  54 101  55 101
M  END
>  <TORSDO>  (59) 
F 25

>  <SCORE>  (59) 
-11.514

>  <name>  (59) 
58

>  <ligand_id>  (59) 
58

>  <original_smiles>  (59) 
[H]C(C(=O)c1c([H])c([H])c(N(C([H])([H])[H])C([H])([H])C([H])([H])C([H])([H])C([H])([H])C([H])([H])C([H])([H])Oc2c([H])c([H])c3c(c2[H])C([H])([H])N(C(=O)C([H])(N([H])C(=O)C([H])(N([H])C([H])([H])[H])C([H])([H])[H])C(C([H])([H])[H])(C([H])([H])[H])C([H])([H])[H])C([H])(C(=O)N([H])C2([H])c4c([H])c([H])c([H])c([H])c4C([H])([H])C([H])([H])C2([H])[H])C3([H])[H])c([H])c1[H])=C([H])C(=O)N1C([H])([H])C([H])([H])C([H])([H])C([H])(n2nc(-c3c([H])c([H])c(Oc4c([H])c([H])c(F)c([H])c4F)c([H])c3[H])c(C(=O)N([H])[H])c2N([H])[H])C1([H])[H]

>  <smiles>  (59) 
[H]C(C(=O)c1c([H])c([H])c(N(C([H])([H])[H])C([H])([H])C([H])([H])C([H])([H])C([H])([H])C([H])([H])C([H])([H])Oc2c([H])c([H])c3c(c2[H])C([H])([H])N(C(=O)C([H])(N([H])C(=O)C([H])(N([H])C([H])([H])[H])C([H])([H])[H])C(C([H])([H])[H])(C([H])([H])[H])C([H])([H])[H])C([H])(C(=O)N([H])C2([H])c4c([H])c([H])c([H])c([H])c4C([H])([H])C([H])([H])C2([H])[H])C3([H])[H])c([H])c1[H])=C([H])C(=O)N1C([H])([H])C([H])([H])C([H])([H])C([H])(n2nc(-c3c([H])c([H])c(Oc4c([H])c([H])c(F)c([H])c4F)c([H])c3[H])c(C(=O)N([H])[H])c2N([H])[H])C1([H])[H]

$$$$
59:0:0
     RDKit          3D

 90 97  0  0  1  0  0  0  0  0999 V2000
  -28.8560  -21.1860   19.9940 C   0  0  0  0  0  3  0  0  0  0  0  0
  -29.6890  -21.2860   18.7120 C   0  0  0  0  0  0  0  0  0  0  0  0
  -29.6880  -21.6840   16.2680 C   0  0  0  0  0  1  0  0  0  0  0  0
  -29.0480  -21.5790   17.5740 N   0  0  0  0  0  0  0  0  0  0  0  0
  -30.9080  -21.1030   18.7550 O   0  0  0  0  0  0  0  0  0  0  0  0
  -28.0450  -21.7080   17.6100 H   0  0  0  0  0  0  0  0  0  0  0  0
  -29.2800  -19.7810   20.7530 N   0  0  0  0  0  4  0  0  0  0  0  0
  -30.0900  -20.0220   21.2990 H   0  0  0  0  0  0  0  0  0  0  0  0
  -28.5400  -19.6120   21.4140 H   0  0  0  0  0  0  0  0  0  0  0  0
  -29.6460  -18.3050   20.0960 C   0  0  0  0  0  2  0  0  0  0  0  0
  -29.7010  -16.7000   20.8560 C   0  0  0  0  0  2  0  0  0  0  0  0
  -30.4770  -15.2010   20.4530 C   0  0  0  0  0  0  0  0  0  0  0  0
  -30.4870  -12.7680   19.5720 C   0  0  0  0  0  2  0  0  0  0  0  0
  -29.6020  -12.6220   18.3060 C   0  0  0  0  0  2  0  0  0  0  0  0
  -28.1340  -12.3640   18.6900 C   0  0  0  0  0  2  0  0  0  0  0  0
  -27.6610  -13.3060   19.8260 C   0  0  0  0  0  3  0  0  0  0  0  0
  -28.6750  -13.4060   20.9860 C   0  0  0  0  0  2  0  0  0  0  0  0
  -29.9420  -13.8870   20.4180 N   0  0  0  0  0  0  0  0  0  0  0  0
  -31.6750  -15.2330   20.1380 O   0  0  0  0  0  0  0  0  0  0  0  0
  -25.2590  -13.8510   20.4940 C   0  0  0  0  0  0  0  0  0  0  0  0
  -24.1930  -13.0670   20.8360 C   0  0  0  0  0  0  0  0  0  0  0  0
  -24.6740  -11.7210   20.8320 C   0  0  0  0  0  0  0  0  0  0  0  0
  -26.3180  -12.9830   20.2900 N   0  0  0  0  0  0  0  0  0  0  0  0
  -25.9740  -11.6970   20.5620 N   0  0  0  0  0  0  0  0  0  0  0  0
  -23.9530  -10.4520   21.0080 C   0  0  0  0  0  0  0  0  0  0  0  0
  -24.3590   -9.4980   21.9680 C   0  0  0  0  0  3  0  0  0  0  0  0
  -23.6360   -8.2970   22.1340 C   0  0  0  0  0  3  0  0  0  0  0  0
  -22.4930   -8.0410   21.3400 C   0  0  0  0  0  0  0  0  0  0  0  0
  -22.1070   -8.9830   20.3690 C   0  0  0  0  0  3  0  0  0  0  0  0
  -22.8310  -10.1750   20.2010 C   0  0  0  0  0  3  0  0  0  0  0  0
  -21.7450   -6.8910   21.4140 O   0  0  0  0  0  0  0  0  0  0  0  0
  -21.6560   -6.1620   22.5720 C   0  0  0  0  0  0  0  0  0  0  0  0
  -21.1680   -6.7260   23.7710 C   0  0  0  0  0  3  0  0  0  0  0  0
  -21.0280   -5.9240   24.9210 C   0  0  0  0  0  3  0  0  0  0  0  0
  -21.3650   -4.5580   24.8730 C   0  0  0  0  0  0  0  0  0  0  0  0
  -21.8460   -3.9930   23.6780 C   0  0  0  0  0  3  0  0  0  0  0  0
  -21.9880   -4.7930   22.5300 C   0  0  0  0  0  0  0  0  0  0  0  0
  -22.4310   -4.2390   21.3760 F   0  0  0  0  0  0  0  0  0  0  0  0
  -21.2250   -3.7840   25.9740 F   0  0  0  0  0  0  0  0  0  0  0  0
  -22.7820  -13.5310   21.0540 C   0  0  0  0  0  0  0  0  0  0  0  0
  -22.0310  -12.8330   21.8970 N   0  0  0  0  0  0  0  0  0  0  0  0
  -22.3550  -14.5490   20.5110 O   0  0  0  0  0  0  0  0  0  0  0  0
  -22.3900  -12.0100   22.3570 H   0  0  0  0  0  0  0  0  0  0  0  0
  -21.0820  -13.1260   22.0850 H   0  0  0  0  0  0  0  0  0  0  0  0
  -25.4140  -15.2210   20.3110 N   0  0  0  0  0  0  0  0  0  0  0  0
  -24.6370  -15.8700   20.3870 H   0  0  0  0  0  0  0  0  0  0  0  0
  -26.2670  -15.6630   19.9920 H   0  0  0  0  0  0  0  0  0  0  0  0
  -28.7770  -22.8400   20.6520 C   0  0  0  0  0  3  0  0  0  0  0  0
  -28.0430  -24.3460   20.0410 C   0  0  0  0  0  3  0  0  0  0  0  0
  -28.2090  -25.9300   20.3850 O   0  0  0  0  0  0  0  0  0  0  0  0
  -24.5940  -31.8490   23.2240 C   0  0  0  0  0  0  0  0  0  0  0  0
  -27.1910  -26.9970   20.2700 C   0  0  0  0  0  0  0  0  0  0  0  0
  -23.4170  -30.4390   21.5850 C   0  0  0  0  0  3  0  0  0  0  0  0
  -24.8830  -28.8380   20.1830 C   0  0  0  0  0  0  0  0  0  0  0  0
  -25.9820  -30.6690   21.4570 C   0  0  0  0  0  2  0  0  0  0  0  0
  -26.0600  -29.2600   20.8120 C   0  0  0  0  0  0  0  0  0  0  0  0
  -27.2100  -28.3600   20.8320 C   0  0  0  0  0  3  0  0  0  0  0  0
  -25.9870  -26.7160   19.5860 C   0  0  0  0  0  3  0  0  0  0  0  0
  -24.8690  -27.5860   19.5500 C   0  0  0  0  0  3  0  0  0  0  0  0
  -23.6580  -29.7480   20.2150 C   0  0  0  0  0  2  0  0  0  0  0  0
  -24.6850  -31.0130   22.1410 N   0  0  0  0  0  0  0  0  0  0  0  0
  -23.5000  -32.1390   23.7340 O   0  0  0  0  0  0  0  0  0  0  0  0
  -22.7200  -29.4450   22.5510 C   0  0  0  0  0  0  0  0  0  0  0  0
  -21.3900  -29.2830   22.4200 N   0  0  0  0  0  0  0  0  0  0  0  0
  -23.3820  -28.8210   23.3830 O   0  0  0  0  0  0  0  0  0  0  0  0
  -20.9100  -29.8400   21.7250 H   0  0  0  0  0  0  0  0  0  0  0  0
  -17.9980  -28.1060   22.9280 C   0  0  0  0  0  0  0  0  0  0  0  0
  -20.5590  -28.3530   23.1920 C   0  0  0  0  0  3  0  0  0  0  0  0
  -20.6510  -26.9200   22.6180 C   0  0  0  0  0  2  0  0  0  0  0  0
  -19.5460  -26.6060   21.6030 C   0  0  0  0  0  2  0  0  0  0  0  0
  -18.1660  -26.7580   22.2480 C   0  0  0  0  0  2  0  0  0  0  0  0
  -19.1210  -28.8620   23.3560 C   0  0  0  0  0  0  0  0  0  0  0  0
  -18.9080  -30.1240   23.9530 C   0  0  0  0  0  3  0  0  0  0  0  0
  -17.6050  -30.6290   24.1270 C   0  0  0  0  0  3  0  0  0  0  0  0
  -16.4970  -29.8690   23.7130 C   0  0  0  0  0  3  0  0  0  0  0  0
  -16.6950  -28.6090   23.1200 C   0  0  0  0  0  3  0  0  0  0  0  0
  -25.8600  -32.4980   23.8630 C   0  0  0  0  0  3  0  0  0  0  0  0
  -25.5400  -33.9010   24.1740 N   0  0  0  0  0  0  0  0  0  0  0  0
  -25.8960  -34.9540   23.4250 C   0  0  0  0  0  0  0  0  0  0  0  0
  -26.5890  -34.8450   22.4110 O   0  0  0  0  0  0  0  0  0  0  0  0
  -24.9250  -34.0590   24.9580 H   0  0  0  0  0  0  0  0  0  0  0  0
  -24.1920  -36.7650   23.0250 C   0  0  0  0  0  1  0  0  0  0  0  0
  -25.4070  -36.3470   23.8690 C   0  0  0  0  0  3  0  0  0  0  0  0
  -27.5190  -37.2230   24.7660 C   0  0  0  0  0  1  0  0  0  0  0  0
  -26.4490  -37.3940   23.7860 N   0  0  0  0  0  0  0  0  0  0  0  0
  -26.0450  -38.3170   23.9170 H   0  0  0  0  0  0  0  0  0  0  0  0
  -26.3480  -31.7500   25.1650 C   0  0  1  0  0  0  0  0  0  0  0  0
  -25.2330  -31.5380   26.2160 C   0  0  0  0  0  1  0  0  0  0  0  0
  -26.9340  -30.3620   24.8200 C   0  0  0  0  0  1  0  0  0  0  0  0
  -27.4880  -32.5530   25.8350 C   0  0  0  0  0  1  0  0  0  0  0  0
  1 48  1  0
  1  7  1  0
  2  5  2  0
  2  1  1  0
  3  4  1  0
  4  6  1  0
  4  2  1  0
  7  8  1  0
  7  9  1  0
 10  7  1  0
 10 11  1  0
 12 11  1  0
 13 18  1  0
 14 15  1  0
 14 13  1  0
 16 15  1  0
 16 23  1  0
 16 17  1  0
 18 12  1  0
 18 17  1  0
 19 12  2  0
 20 21  2  0
 21 40  1  0
 22 21  1  0
 22 25  1  0
 23 20  1  0
 23 24  1  0
 24 22  2  0
 25 26  1  0
 26 27  2  0
 28 31  1  0
 28 27  1  0
 29 28  2  0
 30 29  1  0
 30 25  2  0
 31 32  1  0
 32 33  1  0
 33 34  2  0
 35 34  1  0
 35 39  1  0
 36 35  2  0
 37 32  2  0
 37 36  1  0
 38 37  1  0
 40 41  1  0
 41 44  1  0
 41 43  1  0
 42 40  2  0
 45 46  1  0
 45 20  1  0
 47 45  1  0
 49 50  1  0
 49 48  2  0
 51 62  2  0
 52 50  1  0
 52 57  1  0
 53 61  1  0
 53 63  1  0
 54 60  1  0
 54 56  1  0
 55 61  1  0
 56 57  2  0
 56 55  1  0
 58 52  2  0
 59 58  1  0
 59 54  2  0
 60 53  1  0
 61 51  1  0
 63 65  2  0
 64 63  1  0
 66 64  1  0
 67 76  2  0
 67 72  1  0
 68 64  1  0
 68 72  1  0
 69 68  1  0
 70 71  1  0
 70 69  1  0
 71 67  1  0
 72 73  2  0
 73 74  1  0
 75 74  2  0
 76 75  1  0
 77 51  1  0
 77 78  1  0
 77 87  1  0
 78 81  1  0
 79 83  1  0
 79 78  1  0
 80 79  2  0
 83 82  1  0
 85 83  1  0
 85 86  1  0
 85 84  1  0
 87 90  1  1
 87 88  1  0
 89 87  1  0
M  ISO  4  11 100  12 100  49 101  50 101
M  END
>  <TORSDO>  (60) 
F 22

>  <SCORE>  (60) 
-14.835

>  <name>  (60) 
59

>  <ligand_id>  (60) 
59

>  <original_smiles>  (60) 
[H]c1c([H])c([H])c2c(c1[H])C([H])([H])C([H])([H])C([H])([H])C2([H])N([H])C(=O)C1([H])N(C(=O)C([H])(N([H])C(=O)C([H])(N([H])C([H])([H])[H])C([H])([H])[H])C(C([H])([H])[H])(C([H])([H])[H])C([H])([H])[H])C([H])([H])c2c([H])c(OC([H])([H])C([H])([H])C([H])(C(=O)N([H])C([H])([H])[H])[N+]([H])([H])C([H])([H])C([H])([H])C(=O)N3C([H])([H])C([H])([H])C([H])([H])C([H])(n4nc(-c5c([H])c([H])c(Oc6c([H])c([H])c(F)c([H])c6F)c([H])c5[H])c(C(=O)N([H])[H])c4N([H])[H])C3([H])[H])c([H])c([H])c2C1([H])[H]

>  <smiles>  (60) 
[H]c1c([H])c([H])c2c(c1[H])C([H])([H])C([H])([H])C([H])([H])C2([H])N([H])C(=O)C1([H])N(C(=O)C([H])(N([H])C(=O)C([H])(N([H])C([H])([H])[H])C([H])([H])[H])C(C([H])([H])[H])(C([H])([H])[H])C([H])([H])[H])C([H])([H])c2c([H])c(OC([H])([H])C([H])([H])C([H])(C(=O)N([H])C([H])([H])[H])[N+]([H])([H])C([H])([H])C([H])([H])C(=O)N3C([H])([H])C([H])([H])C([H])([H])C([H])(n4nc(-c5c([H])c([H])c(Oc6c([H])c([H])c(F)c([H])c6F)c([H])c5[H])c(C(=O)N([H])[H])c4N([H])[H])C3([H])[H])c([H])c([H])c2C1([H])[H]

$$$$
60:0:0
     RDKit          3D

 97105  0  0  1  0  0  0  0  0999 V2000
  -32.0010  -18.4680   18.6860 C   0  0  0  0  0  3  0  0  0  0  0  0
  -31.0540  -17.4830   19.0100 C   0  0  0  0  0  3  0  0  0  0  0  0
  -30.6520  -18.5900   21.1360 C   0  0  0  0  0  3  0  0  0  0  0  0
  -32.3210  -19.5020   19.5930 C   0  0  0  0  0  0  0  0  0  0  0  0
  -30.4140  -17.5070   20.2620 C   0  0  0  0  0  0  0  0  0  0  0  0
  -31.5770  -19.6110   20.8100 C   0  0  0  0  0  0  0  0  0  0  0  0
  -33.4630  -20.4110   19.2250 C   0  0  0  0  0  0  0  0  0  0  0  0
  -34.3890  -20.5900   20.1560 N   0  0  0  0  0  0  0  0  0  0  0  0
  -33.5840  -20.8770   18.0930 O   0  0  0  0  0  0  0  0  0  0  0  0
  -34.2840  -20.1390   21.0540 H   0  0  0  0  0  0  0  0  0  0  0  0
  -35.2080  -21.1470   19.9660 H   0  0  0  0  0  0  0  0  0  0  0  0
  -31.7570  -20.7520   21.8210 C   0  0  0  0  0  2  0  0  0  0  0  0
  -31.5190  -22.1950   21.3090 C   0  0  0  0  0  2  0  0  0  0  0  0
  -30.1340  -22.4890   20.6990 C   0  0  0  0  0  2  0  0  0  0  0  0
  -29.9760  -23.9870   20.3570 C   0  0  0  0  0  2  0  0  0  0  0  0
  -28.6970  -24.3340   19.5710 C   0  0  0  0  0  2  0  0  0  0  0  0
  -28.6680  -25.8000   19.0890 C   0  0  0  0  0  2  0  0  0  0  0  0
  -28.3880  -26.7090   20.1600 O   0  0  0  0  0  0  0  0  0  0  0  0
  -24.5610  -31.8550   23.2450 C   0  0  0  0  0  0  0  0  0  0  0  0
  -27.1870  -27.3890   20.1710 C   0  0  0  0  0  0  0  0  0  0  0  0
  -23.3440  -30.4520   21.6090 C   0  0  0  0  0  3  0  0  0  0  0  0
  -24.7870  -28.8920   20.1980 C   0  0  0  0  0  0  0  0  0  0  0  0
  -25.8720  -30.7910   21.4120 C   0  0  0  0  0  2  0  0  0  0  0  0
  -25.9460  -29.4140   20.7850 C   0  0  0  0  0  0  0  0  0  0  0  0
  -27.1420  -28.6640   20.7770 C   0  0  0  0  0  3  0  0  0  0  0  0
  -26.0010  -26.8660   19.6050 C   0  0  0  0  0  3  0  0  0  0  0  0
  -24.8080  -27.6140   19.6120 C   0  0  0  0  0  3  0  0  0  0  0  0
  -23.5500  -29.7600   20.2340 C   0  0  0  0  0  2  0  0  0  0  0  0
  -24.6100  -31.0480   22.1480 N   0  0  0  0  0  0  0  0  0  0  0  0
  -23.4810  -32.1390   23.7820 O   0  0  0  0  0  0  0  0  0  0  0  0
  -22.6850  -29.4420   22.5750 C   0  0  0  0  0  0  0  0  0  0  0  0
  -21.3610  -29.2640   22.4390 N   0  0  0  0  0  0  0  0  0  0  0  0
  -23.3600  -28.8220   23.4000 O   0  0  0  0  0  0  0  0  0  0  0  0
  -20.8780  -29.8160   21.7450 H   0  0  0  0  0  0  0  0  0  0  0  0
  -17.9820  -28.0750   22.9050 C   0  0  0  0  0  0  0  0  0  0  0  0
  -20.5340  -28.3370   23.2120 C   0  0  0  0  0  3  0  0  0  0  0  0
  -20.6460  -26.8980   22.6570 C   0  0  0  0  0  2  0  0  0  0  0  0
  -19.5600  -26.5600   21.6320 C   0  0  0  0  0  2  0  0  0  0  0  0
  -18.1690  -26.7150   22.2540 C   0  0  0  0  0  2  0  0  0  0  0  0
  -19.0930  -28.8430   23.3410 C   0  0  0  0  0  0  0  0  0  0  0  0
  -18.8660  -30.1150   23.9080 C   0  0  0  0  0  3  0  0  0  0  0  0
  -17.5590  -30.6190   24.0460 C   0  0  0  0  0  3  0  0  0  0  0  0
  -16.4610  -29.8480   23.6260 C   0  0  0  0  0  3  0  0  0  0  0  0
  -16.6730  -28.5780   23.0630 C   0  0  0  0  0  3  0  0  0  0  0  0
  -25.8530  -32.4760   23.8630 C   0  0  0  0  0  3  0  0  0  0  0  0
  -25.5550  -33.8760   24.1920 N   0  0  0  0  0  0  0  0  0  0  0  0
  -25.8960  -34.9260   23.4320 C   0  0  0  0  0  0  0  0  0  0  0  0
  -26.5660  -34.8160   22.4010 O   0  0  0  0  0  0  0  0  0  0  0  0
  -24.9590  -34.0360   24.9910 H   0  0  0  0  0  0  0  0  0  0  0  0
  -24.1750  -36.7240   23.0750 C   0  0  0  0  0  1  0  0  0  0  0  0
  -25.4160  -36.3170   23.8860 C   0  0  0  0  0  3  0  0  0  0  0  0
  -27.5610  -37.1840   24.7060 C   0  0  0  0  0  1  0  0  0  0  0  0
  -26.4520  -37.3650   23.7730 N   0  0  0  0  0  0  0  0  0  0  0  0
  -26.0510  -38.2860   23.9330 H   0  0  0  0  0  0  0  0  0  0  0  0
  -26.3700  -31.7010   25.1360 C   0  0  1  0  0  0  0  0  0  0  0  0
  -25.2780  -31.4700   26.2070 C   0  0  0  0  0  1  0  0  0  0  0  0
  -26.9410  -30.3200   24.7370 C   0  0  0  0  0  1  0  0  0  0  0  0
  -27.5280  -32.4860   25.7940 C   0  0  0  0  0  1  0  0  0  0  0  0
  -29.4820  -16.3680   20.6600 C   0  0  0  0  0  2  0  0  0  0  0  0
  -30.6720  -14.2700   20.2200 C   0  0  0  0  0  0  0  0  0  0  0  0
  -30.2130  -12.2350   18.8920 C   0  0  0  0  0  2  0  0  0  0  0  0
  -29.1910  -12.5200   17.7720 C   0  0  0  0  0  2  0  0  0  0  0  0
  -27.7450  -12.4050   18.2910 C   0  0  0  0  0  2  0  0  0  0  0  0
  -27.5180  -13.1760   19.6190 C   0  0  0  0  0  3  0  0  0  0  0  0
  -28.6320  -12.8470   20.6380 C   0  0  0  0  0  2  0  0  0  0  0  0
  -29.9310  -13.1490   20.0100 N   0  0  0  0  0  0  0  0  0  0  0  0
  -31.7200  -14.5020   19.6050 O   0  0  0  0  0  0  0  0  0  0  0  0
  -30.7770  -15.2290   22.4450 C   0  0  0  0  0  1  0  0  0  0  0  0
  -30.1670  -15.1440   21.1150 N   0  0  0  0  0  0  0  0  0  0  0  0
  -25.1710  -13.8150   20.4660 C   0  0  0  0  0  0  0  0  0  0  0  0
  -24.1120  -13.0560   20.8860 C   0  0  0  0  0  0  0  0  0  0  0  0
  -24.5510  -11.6980   20.8100 C   0  0  0  0  0  0  0  0  0  0  0  0
  -26.1880  -12.9210   20.1660 N   0  0  0  0  0  0  0  0  0  0  0  0
  -25.8200  -11.6420   20.4270 N   0  0  0  0  0  0  0  0  0  0  0  0
  -23.8190  -10.4450   21.0270 C   0  0  0  0  0  0  0  0  0  0  0  0
  -24.2960   -9.4540   21.9130 C   0  0  0  0  0  3  0  0  0  0  0  0
  -23.5670   -8.2630   22.1140 C   0  0  0  0  0  3  0  0  0  0  0  0
  -22.3440   -8.0550   21.4330 C   0  0  0  0  0  0  0  0  0  0  0  0
  -21.8850   -9.0330   20.5340 C   0  0  0  0  0  3  0  0  0  0  0  0
  -22.6160  -10.2160   20.3300 C   0  0  0  0  0  3  0  0  0  0  0  0
  -21.5800   -6.9190   21.5490 O   0  0  0  0  0  0  0  0  0  0  0  0
  -21.6050   -6.1490   22.6830 C   0  0  0  0  0  0  0  0  0  0  0  0
  -21.2990   -6.6820   23.9540 C   0  0  0  0  0  3  0  0  0  0  0  0
  -21.2660   -5.8370   25.0830 C   0  0  0  0  0  3  0  0  0  0  0  0
  -21.5340   -4.4620   24.9410 C   0  0  0  0  0  0  0  0  0  0  0  0
  -21.8380   -3.9300   23.6750 C   0  0  0  0  0  3  0  0  0  0  0  0
  -21.8700   -4.7700   22.5500 C   0  0  0  0  0  0  0  0  0  0  0  0
  -22.1400   -4.2500   21.3290 F   0  0  0  0  0  0  0  0  0  0  0  0
  -21.5000   -3.6480   26.0230 F   0  0  0  0  0  0  0  0  0  0  0  0
  -22.7380  -13.5470   21.2430 C   0  0  0  0  0  0  0  0  0  0  0  0
  -22.0500  -12.8510   22.1400 N   0  0  0  0  0  0  0  0  0  0  0  0
  -22.2850  -14.5850   20.7620 O   0  0  0  0  0  0  0  0  0  0  0  0
  -22.4210  -12.0070   22.5510 H   0  0  0  0  0  0  0  0  0  0  0  0
  -21.1310  -13.1660   22.4170 H   0  0  0  0  0  0  0  0  0  0  0  0
  -25.3480  -15.1850   20.2940 N   0  0  0  0  0  0  0  0  0  0  0  0
  -24.6040  -15.8540   20.4640 H   0  0  0  0  0  0  0  0  0  0  0  0
  -26.1810  -15.6130   19.9140 H   0  0  0  0  0  0  0  0  0  0  0  0
  1  2  2  0
  1  4  1  0
  2  5  1  0
  4  6  2  0
  5 59  1  0
  5  3  2  0
  6  3  1  0
  6 12  1  0
  7  4  1  0
  7  8  1  0
  8 10  1  0
  9  7  2  0
 11  8  1  0
 13 12  1  0
 14 13  1  0
 15 14  1  0
 16 15  1  0
 17 16  1  0
 17 18  1  0
 18 20  1  0
 19 30  2  0
 20 25  1  0
 21 29  1  0
 21 31  1  0
 22 28  1  0
 22 24  1  0
 23 29  1  0
 24 23  1  0
 25 24  2  0
 26 27  1  0
 26 20  2  0
 27 22  2  0
 28 21  1  0
 29 19  1  0
 31 33  2  0
 32 31  1  0
 34 32  1  0
 35 44  2  0
 35 40  1  0
 36 32  1  0
 36 40  1  0
 37 36  1  0
 38 39  1  0
 38 37  1  0
 39 35  1  0
 40 41  2  0
 41 42  1  0
 43 42  2  0
 44 43  1  0
 45 19  1  0
 45 46  1  0
 45 55  1  0
 46 49  1  0
 47 51  1  0
 47 46  1  0
 48 47  2  0
 51 50  1  0
 53 51  1  0
 53 54  1  0
 53 52  1  0
 55 58  1  1
 55 56  1  0
 57 55  1  0
 59 69  1  0
 60 69  1  0
 61 66  1  0
 62 63  1  0
 62 61  1  0
 64 63  1  0
 64 73  1  0
 64 65  1  0
 66 60  1  0
 66 65  1  0
 67 60  2  0
 69 68  1  0
 70 71  2  0
 71 90  1  0
 72 71  1  0
 72 75  1  0
 73 74  1  0
 73 70  1  0
 74 72  2  0
 75 76  1  0
 76 77  2  0
 78 81  1  0
 78 77  1  0
 79 78  2  0
 80 79  1  0
 80 75  2  0
 81 82  1  0
 82 83  1  0
 83 84  2  0
 85 84  1  0
 85 89  1  0
 86 85  2  0
 87 82  2  0
 87 86  1  0
 88 87  1  0
 90 91  1  0
 91 94  1  0
 91 93  1  0
 92 90  2  0
 95 96  1  0
 95 70  1  0
 97 95  1  0
M  ISO  4  17 101  18 101  60 100  69 100
M  END
>  <TORSDO>  (61) 
F 24

>  <SCORE>  (61) 
-11.836

>  <name>  (61) 
60

>  <ligand_id>  (61) 
60

>  <original_smiles>  (61) 
[H]c1c([H])c([H])c2c(c1[H])C([H])([H])C([H])([H])C([H])([H])C2([H])N([H])C(=O)C1([H])N(C(=O)C([H])(N([H])C(=O)C([H])(N([H])C([H])([H])[H])C([H])([H])[H])C(C([H])([H])[H])(C([H])([H])[H])C([H])([H])[H])C([H])([H])c2c([H])c(OC([H])([H])C([H])([H])C([H])([H])C([H])([H])C([H])([H])C([H])([H])c3c([H])c(C([H])([H])N(C(=O)N4C([H])([H])C([H])([H])C([H])([H])C([H])(n5nc(-c6c([H])c([H])c(Oc7c([H])c([H])c(F)c([H])c7F)c([H])c6[H])c(C(=O)N([H])[H])c5N([H])[H])C4([H])[H])C([H])([H])[H])c([H])c([H])c3C(=O)N([H])[H])c([H])c([H])c2C1([H])[H]

>  <smiles>  (61) 
[H]c1c([H])c([H])c2c(c1[H])C([H])([H])C([H])([H])C([H])([H])C2([H])N([H])C(=O)C1([H])N(C(=O)C([H])(N([H])C(=O)C([H])(N([H])C([H])([H])[H])C([H])([H])[H])C(C([H])([H])[H])(C([H])([H])[H])C([H])([H])[H])C([H])([H])c2c([H])c(OC([H])([H])C([H])([H])C([H])([H])C([H])([H])C([H])([H])C([H])([H])c3c([H])c(C([H])([H])N(C(=O)N4C([H])([H])C([H])([H])C([H])([H])C([H])(n5nc(-c6c([H])c([H])c(Oc7c([H])c([H])c(F)c([H])c7F)c([H])c6[H])c(C(=O)N([H])[H])c5N([H])[H])C4([H])[H])C([H])([H])[H])c([H])c([H])c3C(=O)N([H])[H])c([H])c([H])c2C1([H])[H]

$$$$
61:0:0
     RDKit          3D

 95103  0  0  1  0  0  0  0  0999 V2000
  -32.9900  -20.0920   21.2380 C   0  0  0  0  0  2  0  0  0  0  0  0
  -34.2640  -19.3610   20.8110 C   0  0  0  0  0  0  0  0  0  0  0  0
  -35.3770  -19.8780   20.9360 O   0  0  0  0  0  0  0  0  0  0  0  0
  -34.7500  -15.9230   19.2060 C   0  0  0  0  0  3  0  0  0  0  0  0
  -35.0150  -17.2430   19.6320 C   0  0  0  0  0  3  0  0  0  0  0  0
  -33.4840  -15.3440   19.4200 C   0  0  0  0  0  3  0  0  0  0  0  0
  -32.7340  -17.3970   20.4590 C   0  0  0  0  0  3  0  0  0  0  0  0
  -34.0080  -17.9870   20.2850 C   0  0  0  0  0  0  0  0  0  0  0  0
  -32.4600  -16.0860   20.0450 C   0  0  0  0  0  0  0  0  0  0  0  0
  -31.0700  -15.5350   20.3520 C   0  0  0  0  0  2  0  0  0  0  0  0
  -30.6880  -13.5890   18.8810 C   0  0  0  0  0  0  0  0  0  0  0  0
  -30.0700  -11.4370   17.8500 C   0  0  0  0  0  2  0  0  0  0  0  0
  -28.8530  -11.4300   16.9160 C   0  0  0  0  0  2  0  0  0  0  0  0
  -27.5440  -11.2810   17.7100 C   0  0  0  0  0  2  0  0  0  0  0  0
  -27.4360  -12.3370   18.8330 C   0  0  0  0  0  3  0  0  0  0  0  0
  -28.7020  -12.3020   19.7030 C   0  0  0  0  0  2  0  0  0  0  0  0
  -29.9030  -12.4860   18.8610 N   0  0  0  0  0  0  0  0  0  0  0  0
  -31.2540  -14.0270   17.8660 O   0  0  0  0  0  0  0  0  0  0  0  0
  -31.2510  -13.2520   21.2760 C   0  0  0  0  0  1  0  0  0  0  0  0
  -30.8880  -14.1020   20.1250 N   0  0  0  0  0  0  0  0  0  0  0  0
  -25.3900  -13.0820   20.2140 C   0  0  0  0  0  0  0  0  0  0  0  0
  -24.3800  -12.3700   20.8060 C   0  0  0  0  0  0  0  0  0  0  0  0
  -24.6660  -10.9920   20.5520 C   0  0  0  0  0  0  0  0  0  0  0  0
  -26.2310  -12.1410   19.6400 N   0  0  0  0  0  0  0  0  0  0  0  0
  -25.8130  -10.8750   19.8980 N   0  0  0  0  0  0  0  0  0  0  0  0
  -23.8850   -9.7840   20.8420 C   0  0  0  0  0  0  0  0  0  0  0  0
  -24.3480   -8.8080   21.7520 C   0  0  0  0  0  3  0  0  0  0  0  0
  -23.5720   -7.6600   22.0270 C   0  0  0  0  0  3  0  0  0  0  0  0
  -22.3180   -7.4840   21.3930 C   0  0  0  0  0  0  0  0  0  0  0  0
  -21.8760   -8.4460   20.4680 C   0  0  0  0  0  3  0  0  0  0  0  0
  -22.6530   -9.5830   20.1930 C   0  0  0  0  0  3  0  0  0  0  0  0
  -21.5080   -6.3910   21.5800 O   0  0  0  0  0  0  0  0  0  0  0  0
  -21.3810   -5.7930   22.8070 C   0  0  0  0  0  0  0  0  0  0  0  0
  -20.9850   -6.5160   23.9540 C   0  0  0  0  0  3  0  0  0  0  0  0
  -20.7990   -5.8450   25.1800 C   0  0  0  0  0  3  0  0  0  0  0  0
  -21.0010   -4.4540   25.2590 C   0  0  0  0  0  0  0  0  0  0  0  0
  -21.3900   -3.7320   24.1170 C   0  0  0  0  0  3  0  0  0  0  0  0
  -21.5750   -4.3990   22.8930 C   0  0  0  0  0  0  0  0  0  0  0  0
  -21.9290   -3.6960   21.7910 F   0  0  0  0  0  0  0  0  0  0  0  0
  -20.8140   -3.8070   26.4330 F   0  0  0  0  0  0  0  0  0  0  0  0
  -23.1620  -12.9310   21.4840 C   0  0  0  0  0  0  0  0  0  0  0  0
  -22.6460  -12.2370   22.4930 N   0  0  0  0  0  0  0  0  0  0  0  0
  -22.6870  -14.0120   21.1470 O   0  0  0  0  0  0  0  0  0  0  0  0
  -23.0550  -11.3610   22.7880 H   0  0  0  0  0  0  0  0  0  0  0  0
  -21.8260  -12.5800   22.9720 H   0  0  0  0  0  0  0  0  0  0  0  0
  -25.6500  -14.4430   20.0950 N   0  0  0  0  0  0  0  0  0  0  0  0
  -25.0230  -15.1520   20.4550 H   0  0  0  0  0  0  0  0  0  0  0  0
  -26.4390  -14.8270   19.5890 H   0  0  0  0  0  0  0  0  0  0  0  0
  -33.0310  -21.5720   21.6110 C   0  0  0  0  0  2  0  0  0  0  0  0
  -31.6050  -22.0740   21.3390 C   0  0  0  0  0  2  0  0  0  0  0  0
  -31.4350  -23.5400   20.9660 C   0  0  0  0  0  2  0  0  0  0  0  0
  -29.9990  -23.7460   20.4580 C   0  0  0  0  0  2  0  0  0  0  0  0
  -29.7280  -25.1850   20.0480 C   0  0  0  0  0  2  0  0  0  0  0  0
  -28.2740  -25.4390   19.6490 C   0  0  0  0  0  2  0  0  0  0  0  0
  -28.2350  -26.8390   19.4900 O   0  0  0  0  0  0  0  0  0  0  0  0
  -24.7220  -31.7190   23.2000 C   0  0  0  0  0  0  0  0  0  0  0  0
  -27.0420  -27.4820   19.6590 C   0  0  0  0  0  0  0  0  0  0  0  0
  -23.3700  -30.4670   21.5470 C   0  0  0  0  0  3  0  0  0  0  0  0
  -24.6820  -28.9910   19.9380 C   0  0  0  0  0  0  0  0  0  0  0  0
  -25.8790  -30.7910   21.2020 C   0  0  0  0  0  2  0  0  0  0  0  0
  -25.8850  -29.4640   20.4760 C   0  0  0  0  0  0  0  0  0  0  0  0
  -27.0670  -28.7180   20.3300 C   0  0  0  0  0  3  0  0  0  0  0  0
  -25.8230  -26.9940   19.1360 C   0  0  0  0  0  3  0  0  0  0  0  0
  -24.6430  -27.7510   19.2700 C   0  0  0  0  0  3  0  0  0  0  0  0
  -23.4680  -29.8730   20.1160 C   0  0  0  0  0  2  0  0  0  0  0  0
  -24.6800  -30.9990   22.0440 N   0  0  0  0  0  0  0  0  0  0  0  0
  -23.6850  -31.9810   23.8260 O   0  0  0  0  0  0  0  0  0  0  0  0
  -22.7510  -29.3980   22.4740 C   0  0  0  0  0  0  0  0  0  0  0  0
  -21.4300  -29.1950   22.3470 N   0  0  0  0  0  0  0  0  0  0  0  0
  -23.4550  -28.7560   23.2580 O   0  0  0  0  0  0  0  0  0  0  0  0
  -20.9250  -29.7690   21.6880 H   0  0  0  0  0  0  0  0  0  0  0  0
  -18.0920  -27.8900   22.7680 C   0  0  0  0  0  0  0  0  0  0  0  0
  -20.6350  -28.2150   23.0860 C   0  0  0  0  0  3  0  0  0  0  0  0
  -20.7900  -26.8020   22.4780 C   0  0  0  0  0  2  0  0  0  0  0  0
  -19.7120  -26.4710   21.4410 C   0  0  0  0  0  2  0  0  0  0  0  0
  -18.3190  -26.5590   22.0690 C   0  0  0  0  0  2  0  0  0  0  0  0
  -19.1800  -28.6750   23.2310 C   0  0  0  0  0  0  0  0  0  0  0  0
  -18.9170  -29.9200   23.8430 C   0  0  0  0  0  3  0  0  0  0  0  0
  -17.5950  -30.3790   23.9980 C   0  0  0  0  0  3  0  0  0  0  0  0
  -16.5200  -29.5920   23.5500 C   0  0  0  0  0  3  0  0  0  0  0  0
  -16.7700  -28.3480   22.9420 C   0  0  0  0  0  3  0  0  0  0  0  0
  -26.0650  -32.2650   23.7800 C   0  0  0  0  0  3  0  0  0  0  0  0
  -26.6230  -31.4030   24.9780 C   0  0  1  0  0  0  0  0  0  0  0  0
  -25.5680  -31.1080   26.0700 C   0  0  0  0  0  1  0  0  0  0  0  0
  -27.1700  -30.0510   24.4650 C   0  0  0  0  0  1  0  0  0  0  0  0
  -27.8100  -32.1370   25.6450 C   0  0  0  0  0  1  0  0  0  0  0  0
  -25.8290  -33.6510   24.2010 N   0  0  0  0  0  0  0  0  0  0  0  0
  -26.2020  -34.7320   23.5020 C   0  0  0  0  0  0  0  0  0  0  0  0
  -26.8530  -34.6610   22.4560 O   0  0  0  0  0  0  0  0  0  0  0  0
  -25.2480  -33.7850   25.0160 H   0  0  0  0  0  0  0  0  0  0  0  0
  -24.5570  -36.6210   23.2870 C   0  0  0  0  0  1  0  0  0  0  0  0
  -25.7880  -36.1100   24.0520 C   0  0  0  0  0  3  0  0  0  0  0  0
  -27.9760  -36.8340   24.8990 C   0  0  0  0  0  1  0  0  0  0  0  0
  -26.8690  -37.1170   23.9880 N   0  0  0  0  0  0  0  0  0  0  0  0
  -26.5100  -38.0430   24.2040 H   0  0  0  0  0  0  0  0  0  0  0  0
  1 49  1  0
  2  3  2  0
  2  1  1  0
  4  6  2  0
  4  5  1  0
  5  8  2  0
  6  9  1  0
  8  7  1  0
  8  2  1  0
  9 10  1  0
  9  7  2  0
 11 20  1  0
 12 17  1  0
 13 14  1  0
 13 12  1  0
 15 14  1  0
 15 24  1  0
 15 16  1  0
 17 11  1  0
 17 16  1  0
 18 11  2  0
 20 10  1  0
 20 19  1  0
 21 22  2  0
 22 41  1  0
 23 22  1  0
 23 26  1  0
 24 25  1  0
 24 21  1  0
 25 23  2  0
 26 27  1  0
 27 28  2  0
 29 32  1  0
 29 28  1  0
 30 29  2  0
 31 30  1  0
 31 26  2  0
 32 33  1  0
 33 38  2  0
 33 34  1  0
 34 35  2  0
 35 36  1  0
 36 40  1  0
 37 36  2  0
 38 37  1  0
 39 38  1  0
 41 42  1  0
 42 44  1  0
 42 45  1  0
 43 41  2  0
 46 21  1  0
 46 47  1  0
 48 46  1  0
 50 49  1  0
 51 50  1  0
 52 51  1  0
 53 52  1  0
 54 53  1  0
 55 54  1  0
 55 57  1  0
 56 67  2  0
 57 62  1  0
 58 66  1  0
 58 68  1  0
 59 65  1  0
 59 61  1  0
 60 66  1  0
 61 60  1  0
 62 61  2  0
 63 64  1  0
 63 57  2  0
 64 59  2  0
 65 58  1  0
 66 56  1  0
 68 70  2  0
 69 68  1  0
 71 69  1  0
 72 81  2  0
 72 77  1  0
 73 69  1  0
 73 77  1  0
 74 73  1  0
 75 76  1  0
 75 74  1  0
 76 72  1  0
 77 78  2  0
 78 79  1  0
 80 79  2  0
 81 80  1  0
 82 56  1  0
 82 87  1  0
 82 83  1  0
 83 86  1  1
 83 84  1  0
 85 83  1  0
 87 90  1  0
 88 92  1  0
 88 87  1  0
 89 88  2  0
 92 91  1  0
 94 92  1  0
 94 95  1  0
 94 93  1  0
M  ISO  4  11 100  20 100  54 101  55 101
M  END
>  <TORSDO>  (62) 
F 25

>  <SCORE>  (62) 
-6.726

>  <name>  (62) 
61

>  <ligand_id>  (62) 
61

>  <original_smiles>  (62) 
[H]c1c([H])c(C(=O)C([H])([H])C([H])([H])C([H])([H])C([H])([H])C([H])([H])C([H])([H])C([H])([H])Oc2c([H])c([H])c3c(c2[H])C([H])([H])N(C(=O)C([H])(N([H])C(=O)C([H])(N([H])C([H])([H])[H])C([H])([H])[H])C(C([H])([H])[H])(C([H])([H])[H])C([H])([H])[H])C([H])(C(=O)N([H])C2([H])c4c([H])c([H])c([H])c([H])c4C([H])([H])C([H])([H])C2([H])[H])C3([H])[H])c([H])c(C([H])([H])N(C(=O)N2C([H])([H])C([H])([H])C([H])([H])C([H])(n3nc(-c4c([H])c([H])c(Oc5c([H])c([H])c(F)c([H])c5F)c([H])c4[H])c(C(=O)N([H])[H])c3N([H])[H])C2([H])[H])C([H])([H])[H])c1[H]

>  <smiles>  (62) 
[H]c1c([H])c(C(=O)C([H])([H])C([H])([H])C([H])([H])C([H])([H])C([H])([H])C([H])([H])C([H])([H])Oc2c([H])c([H])c3c(c2[H])C([H])([H])N(C(=O)C([H])(N([H])C(=O)C([H])(N([H])C([H])([H])[H])C([H])([H])[H])C(C([H])([H])[H])(C([H])([H])[H])C([H])([H])[H])C([H])(C(=O)N([H])C2([H])c4c([H])c([H])c([H])c([H])c4C([H])([H])C([H])([H])C2([H])[H])C3([H])[H])c([H])c(C([H])([H])N(C(=O)N2C([H])([H])C([H])([H])C([H])([H])C([H])(n3nc(-c4c([H])c([H])c(Oc5c([H])c([H])c(F)c([H])c5F)c([H])c4[H])c(C(=O)N([H])[H])c3N([H])[H])C2([H])[H])C([H])([H])[H])c1[H]

$$$$
62:0:0
     RDKit          3D

 96104  0  0  1  0  0  0  0  0999 V2000
  -30.5720  -21.9490   20.4750 C   0  0  0  0  0  3  0  0  0  0  0  0
  -30.3670  -21.9960   19.1410 C   0  0  0  0  0  3  0  0  0  0  0  0
  -30.5430  -19.4450   23.3540 C   0  0  0  0  0  3  0  0  0  0  0  0
  -30.4070  -20.6600   22.6440 C   0  0  0  0  0  3  0  0  0  0  0  0
  -30.9290  -18.2620   22.6870 C   0  0  0  0  0  3  0  0  0  0  0  0
  -31.0110  -19.4960   20.6040 C   0  0  0  0  0  3  0  0  0  0  0  0
  -30.6560  -20.6950   21.2580 C   0  0  0  0  0  0  0  0  0  0  0  0
  -31.1770  -18.2660   21.2920 C   0  0  0  0  0  0  0  0  0  0  0  0
  -31.6120  -15.7720   20.9950 C   0  0  0  0  0  3  0  0  0  0  0  0
  -31.6350  -17.0570   20.5430 C   0  0  0  0  0  0  0  0  0  0  0  0
  -32.1460  -14.6590   20.1990 C   0  0  0  0  0  0  0  0  0  0  0  0
  -31.5620  -12.6490   18.9020 C   0  0  0  0  0  2  0  0  0  0  0  0
  -30.6120  -13.0540   17.7600 C   0  0  0  0  0  2  0  0  0  0  0  0
  -29.1450  -13.0240   18.2410 C   0  0  0  0  0  2  0  0  0  0  0  0
  -28.9380  -13.7750   19.5870 C   0  0  0  0  0  3  0  0  0  0  0  0
  -30.0060  -13.3540   20.6190 C   0  0  0  0  0  2  0  0  0  0  0  0
  -31.3330  -13.5790   20.0230 N   0  0  0  0  0  0  0  0  0  0  0  0
  -33.2480  -14.7150   19.6430 O   0  0  0  0  0  0  0  0  0  0  0  0
  -26.6460  -14.5410   20.4800 C   0  0  0  0  0  0  0  0  0  0  0  0
  -25.5270  -13.8420   20.8500 C   0  0  0  0  0  0  0  0  0  0  0  0
  -25.8530  -12.4610   20.6860 C   0  0  0  0  0  0  0  0  0  0  0  0
  -27.5870  -13.5890   20.1130 N   0  0  0  0  0  0  0  0  0  0  0  0
  -27.1160  -12.3290   20.2940 N   0  0  0  0  0  0  0  0  0  0  0  0
  -25.0200  -11.2600   20.8190 C   0  0  0  0  0  0  0  0  0  0  0  0
  -25.3270  -10.2450   21.7510 C   0  0  0  0  0  3  0  0  0  0  0  0
  -24.5010   -9.1080   21.8720 C   0  0  0  0  0  3  0  0  0  0  0  0
  -23.3490   -8.9800   21.0610 C   0  0  0  0  0  0  0  0  0  0  0  0
  -23.0620   -9.9810   20.1160 C   0  0  0  0  0  3  0  0  0  0  0  0
  -23.8910  -11.1100   19.9930 C   0  0  0  0  0  3  0  0  0  0  0  0
  -22.4990   -7.9030   21.0900 O   0  0  0  0  0  0  0  0  0  0  0  0
  -22.2240   -7.2330   22.2570 C   0  0  0  0  0  0  0  0  0  0  0  0
  -21.6740   -7.8860   23.3810 C   0  0  0  0  0  3  0  0  0  0  0  0
  -21.3420   -7.1440   24.5330 C   0  0  0  0  0  3  0  0  0  0  0  0
  -21.5550   -5.7530   24.5620 C   0  0  0  0  0  0  0  0  0  0  0  0
  -22.0980   -5.1020   23.4400 C   0  0  0  0  0  3  0  0  0  0  0  0
  -22.4290   -5.8400   22.2900 C   0  0  0  0  0  0  0  0  0  0  0  0
  -22.9310   -5.2000   21.2060 F   0  0  0  0  0  0  0  0  0  0  0  0
  -21.2340   -5.0400   25.6660 F   0  0  0  0  0  0  0  0  0  0  0  0
  -24.1970  -14.4230   21.2400 C   0  0  0  0  0  0  0  0  0  0  0  0
  -23.4620  -13.7510   22.1190 N   0  0  0  0  0  0  0  0  0  0  0  0
  -23.8190  -15.5050   20.7940 O   0  0  0  0  0  0  0  0  0  0  0  0
  -23.7830  -12.8800   22.5170 H   0  0  0  0  0  0  0  0  0  0  0  0
  -22.5600  -14.1120   22.3990 H   0  0  0  0  0  0  0  0  0  0  0  0
  -26.9350  -15.9020   20.4060 N   0  0  0  0  0  0  0  0  0  0  0  0
  -26.2520  -16.6170   20.6330 H   0  0  0  0  0  0  0  0  0  0  0  0
  -27.8260  -16.2770   20.1070 H   0  0  0  0  0  0  0  0  0  0  0  0
  -32.1060  -17.3410   19.3180 O   0  0  0  0  0  0  0  0  0  0  0  0
  -32.1290  -18.2850   19.2360 H   0  0  0  0  0  0  0  0  0  0  0  0
  -30.4350  -22.8080   16.7530 C   0  0  0  0  0  1  0  0  0  0  0  0
  -30.4570  -23.2290   18.2440 C   0  0  0  0  0  3  0  0  0  0  0  0
  -29.3840  -24.1950   18.5550 N   0  0  0  0  0  4  0  0  0  0  0  0
  -28.5070  -23.8640   18.1780 H   0  0  0  0  0  0  0  0  0  0  0  0
  -29.2740  -24.2260   19.5580 H   0  0  0  0  0  0  0  0  0  0  0  0
  -29.6680  -25.5850   18.1070 C   0  0  0  0  0  2  0  0  0  0  0  0
  -28.3940  -26.4230   18.0680 C   0  0  0  0  0  2  0  0  0  0  0  0
  -27.7740  -26.2870   19.3390 O   0  0  0  0  0  0  0  0  0  0  0  0
  -24.7170  -31.3730   23.2030 C   0  0  0  0  0  0  0  0  0  0  0  0
  -26.6840  -27.0910   19.5070 C   0  0  0  0  0  0  0  0  0  0  0  0
  -23.2540  -30.2640   21.5380 C   0  0  0  0  0  3  0  0  0  0  0  0
  -24.4440  -28.7510   19.8630 C   0  0  0  0  0  0  0  0  0  0  0  0
  -25.7770  -30.4210   21.1650 C   0  0  0  0  0  2  0  0  0  0  0  0
  -25.6820  -29.1190   20.4030 C   0  0  0  0  0  0  0  0  0  0  0  0
  -26.8060  -28.2880   20.2380 C   0  0  0  0  0  3  0  0  0  0  0  0
  -25.4350  -26.7180   18.9690 C   0  0  0  0  0  3  0  0  0  0  0  0
  -24.3120  -27.5460   19.1480 C   0  0  0  0  0  3  0  0  0  0  0  0
  -23.2950  -29.7070   20.0870 C   0  0  0  0  0  2  0  0  0  0  0  0
  -24.6050  -30.6910   22.0270 N   0  0  0  0  0  0  0  0  0  0  0  0
  -23.7130  -31.6850   23.8580 O   0  0  0  0  0  0  0  0  0  0  0  0
  -22.5770  -29.2150   22.4500 C   0  0  0  0  0  0  0  0  0  0  0  0
  -21.2460  -29.0900   22.3310 N   0  0  0  0  0  0  0  0  0  0  0  0
  -23.2490  -28.5180   23.2140 O   0  0  0  0  0  0  0  0  0  0  0  0
  -20.7650  -29.7050   21.6910 H   0  0  0  0  0  0  0  0  0  0  0  0
  -17.8580  -27.8880   22.6830 C   0  0  0  0  0  0  0  0  0  0  0  0
  -20.4030  -28.1390   23.0590 C   0  0  0  0  0  3  0  0  0  0  0  0
  -20.5290  -26.7170   22.4640 C   0  0  0  0  0  2  0  0  0  0  0  0
  -19.4680  -26.4090   21.4040 C   0  0  0  0  0  2  0  0  0  0  0  0
  -18.0620  -26.5480   21.9960 C   0  0  0  0  0  2  0  0  0  0  0  0
  -18.9600  -28.6430   23.1670 C   0  0  0  0  0  0  0  0  0  0  0  0
  -18.7200  -29.9000   23.7630 C   0  0  0  0  0  3  0  0  0  0  0  0
  -17.4110  -30.4010   23.8840 C   0  0  0  0  0  3  0  0  0  0  0  0
  -16.3230  -29.6420   23.4220 C   0  0  0  0  0  3  0  0  0  0  0  0
  -16.5460  -28.3880   22.8250 C   0  0  0  0  0  3  0  0  0  0  0  0
  -26.1040  -31.8110   23.7690 C   0  0  0  0  0  3  0  0  0  0  0  0
  -25.9800  -33.2020   24.2190 N   0  0  0  0  0  0  0  0  0  0  0  0
  -26.4060  -34.2660   23.5230 C   0  0  0  0  0  0  0  0  0  0  0  0
  -27.0180  -34.1680   22.4560 O   0  0  0  0  0  0  0  0  0  0  0  0
  -25.4420  -33.3610   25.0590 H   0  0  0  0  0  0  0  0  0  0  0  0
  -24.8850  -36.2650   23.3880 C   0  0  0  0  0  1  0  0  0  0  0  0
  -26.1030  -35.6590   24.1050 C   0  0  0  0  0  3  0  0  0  0  0  0
  -28.3610  -36.2270   24.8850 C   0  0  0  0  0  1  0  0  0  0  0  0
  -27.2450  -36.5960   24.0180 N   0  0  0  0  0  0  0  0  0  0  0  0
  -26.9550  -37.5410   24.2610 H   0  0  0  0  0  0  0  0  0  0  0  0
  -26.6200  -30.8880   24.9420 C   0  0  1  0  0  0  0  0  0  0  0  0
  -25.5810  -30.6760   26.0660 C   0  0  0  0  0  1  0  0  0  0  0  0
  -27.0270  -29.4960   24.4010 C   0  0  0  0  0  1  0  0  0  0  0  0
  -27.8910  -31.5030   25.5760 C   0  0  0  0  0  1  0  0  0  0  0  0
  1  7  1  0
  2  1  2  0
  4  3  2  0
  5  3  1  0
  6  7  2  0
  6  8  1  0
  7  4  1  0
  8  5  2  0
 10  9  2  0
 10  8  1  0
 11  9  1  0
 12 17  1  0
 13 14  1  0
 13 12  1  0
 15 14  1  0
 15 22  1  0
 15 16  1  0
 17 11  1  0
 17 16  1  0
 18 11  2  0
 19 20  2  0
 20 39  1  0
 21 24  1  0
 21 20  1  0
 22 23  1  0
 22 19  1  0
 23 21  2  0
 24 25  1  0
 25 26  2  0
 27 30  1  0
 27 26  1  0
 28 27  2  0
 29 28  1  0
 29 24  2  0
 30 31  1  0
 31 36  2  0
 31 32  1  0
 32 33  2  0
 33 34  1  0
 34 38  1  0
 35 34  2  0
 36 35  1  0
 37 36  1  0
 39 40  1  0
 40 43  1  0
 40 42  1  0
 41 39  2  0
 44 19  1  0
 44 45  1  0
 46 44  1  0
 47 10  1  0
 48 47  1  0
 50 49  1  0
 50 51  1  0
 50  2  1  0
 51 53  1  0
 52 51  1  0
 54 51  1  0
 55 54  1  0
 55 56  1  0
 56 58  1  0
 57 68  2  0
 58 63  1  0
 59 67  1  0
 59 69  1  0
 60 66  1  0
 60 62  1  0
 61 67  1  0
 62 61  1  0
 63 62  2  0
 64 65  1  0
 64 58  2  0
 65 60  2  0
 66 59  1  0
 67 57  1  0
 69 71  2  0
 70 69  1  0
 72 70  1  0
 73 82  2  0
 73 78  1  0
 74 70  1  0
 74 78  1  0
 75 74  1  0
 76 77  1  0
 76 75  1  0
 77 73  1  0
 78 79  2  0
 79 80  1  0
 81 80  2  0
 82 81  1  0
 83 57  1  0
 83 84  1  0
 83 93  1  0
 84 87  1  0
 85 89  1  0
 85 84  1  0
 86 85  2  0
 89 88  1  0
 91 89  1  0
 91 92  1  0
 91 90  1  0
 93 96  1  1
 93 94  1  0
 95 93  1  0
M  ISO  4   9 100  11 100  55 101  56 101
M  END
>  <TORSDO>  (63) 
F 23

>  <SCORE>  (63) 
-9.526

>  <name>  (63) 
62

>  <ligand_id>  (63) 
62

>  <original_smiles>  (63) 
[H]OC(=C([H])C(=O)N1C([H])([H])C([H])([H])C([H])([H])C([H])(n2nc(-c3c([H])c([H])c(Oc4c([H])c([H])c(F)c([H])c4F)c([H])c3[H])c(C(=O)N([H])[H])c2N([H])[H])C1([H])[H])c1c([H])c([H])c([H])c(C([H])=C([H])C([H])(C([H])([H])[H])[N+]([H])([H])C([H])([H])C([H])([H])Oc2c([H])c([H])c3c(c2[H])C([H])([H])N(C(=O)C([H])(N([H])C(=O)C([H])(N([H])C([H])([H])[H])C([H])([H])[H])C(C([H])([H])[H])(C([H])([H])[H])C([H])([H])[H])C([H])(C(=O)N([H])C2([H])c4c([H])c([H])c([H])c([H])c4C([H])([H])C([H])([H])C2([H])[H])C3([H])[H])c1[H]

>  <smiles>  (63) 
[H]OC(=C([H])C(=O)N1C([H])([H])C([H])([H])C([H])([H])C([H])(n2nc(-c3c([H])c([H])c(Oc4c([H])c([H])c(F)c([H])c4F)c([H])c3[H])c(C(=O)N([H])[H])c2N([H])[H])C1([H])[H])c1c([H])c([H])c([H])c(C([H])=C([H])C([H])(C([H])([H])[H])[N+]([H])([H])C([H])([H])C([H])([H])Oc2c([H])c([H])c3c(c2[H])C([H])([H])N(C(=O)C([H])(N([H])C(=O)C([H])(N([H])C([H])([H])[H])C([H])([H])[H])C(C([H])([H])[H])(C([H])([H])[H])C([H])([H])[H])C([H])(C(=O)N([H])C2([H])c4c([H])c([H])c([H])c([H])c4C([H])([H])C([H])([H])C2([H])[H])C3([H])[H])c1[H]

$$$$
63:0:0
     RDKit          3D

 92 99  0  0  1  0  0  0  0  0999 V2000
  -28.7670  -21.0850   21.1320 C   0  0  0  0  0  2  0  0  0  0  0  0
  -28.1820  -22.4820   21.3650 C   0  0  0  0  0  2  0  0  0  0  0  0
  -27.8810  -23.2250   20.0550 C   0  0  0  0  0  2  0  0  0  0  0  0
  -27.5740  -24.7080   20.2920 C   0  0  0  0  0  2  0  0  0  0  0  0
  -27.7660  -25.5650   19.0300 C   0  0  0  0  0  2  0  0  0  0  0  0
  -27.7990  -26.9490   19.3650 O   0  0  0  0  0  0  0  0  0  0  0  0
  -24.4020  -31.8330   23.2120 C   0  0  0  0  0  0  0  0  0  0  0  0
  -26.6200  -27.6430   19.5220 C   0  0  0  0  0  0  0  0  0  0  0  0
  -23.0130  -30.6380   21.5490 C   0  0  0  0  0  3  0  0  0  0  0  0
  -24.2850  -29.1950   19.8780 C   0  0  0  0  0  0  0  0  0  0  0  0
  -25.5260  -30.9340   21.1790 C   0  0  0  0  0  2  0  0  0  0  0  0
  -25.5030  -29.6300   20.4110 C   0  0  0  0  0  0  0  0  0  0  0  0
  -26.6710  -28.8620   20.2280 C   0  0  0  0  0  3  0  0  0  0  0  0
  -25.3780  -27.2070   18.9990 C   0  0  0  0  0  3  0  0  0  0  0  0
  -24.2150  -27.9810   19.1730 C   0  0  0  0  0  3  0  0  0  0  0  0
  -23.0830  -30.0830   20.1020 C   0  0  0  0  0  2  0  0  0  0  0  0
  -24.3370  -31.1430   22.0380 N   0  0  0  0  0  0  0  0  0  0  0  0
  -23.3790  -32.0890   23.8610 O   0  0  0  0  0  0  0  0  0  0  0  0
  -22.3970  -29.5530   22.4600 C   0  0  0  0  0  0  0  0  0  0  0  0
  -21.0630  -29.4120   22.3990 N   0  0  0  0  0  0  0  0  0  0  0  0
  -23.1110  -28.8460   23.1750 O   0  0  0  0  0  0  0  0  0  0  0  0
  -20.5490  -30.0350   21.7930 H   0  0  0  0  0  0  0  0  0  0  0  0
  -17.6910  -28.2710   23.0120 C   0  0  0  0  0  0  0  0  0  0  0  0
  -20.2670  -28.4300   23.1350 C   0  0  0  0  0  3  0  0  0  0  0  0
  -20.2850  -27.0560   22.4290 C   0  0  0  0  0  2  0  0  0  0  0  0
  -19.1110  -26.8570   21.4660 C   0  0  0  0  0  2  0  0  0  0  0  0
  -17.7790  -26.9840   22.2100 C   0  0  0  0  0  2  0  0  0  0  0  0
  -18.8590  -28.9600   23.4330 C   0  0  0  0  0  0  0  0  0  0  0  0
  -18.7230  -30.1720   24.1430 C   0  0  0  0  0  3  0  0  0  0  0  0
  -17.4490  -30.6930   24.4380 C   0  0  0  0  0  3  0  0  0  0  0  0
  -16.2950  -29.9990   24.0350 C   0  0  0  0  0  3  0  0  0  0  0  0
  -16.4180  -28.7900   23.3270 C   0  0  0  0  0  3  0  0  0  0  0  0
  -25.7590  -32.3540   23.7820 C   0  0  0  0  0  3  0  0  0  0  0  0
  -26.3450  -31.4410   24.9280 C   0  0  1  0  0  0  0  0  0  0  0  0
  -25.3260  -31.1120   26.0450 C   0  0  0  0  0  1  0  0  0  0  0  0
  -26.8580  -30.1030   24.3470 C   0  0  0  0  0  1  0  0  0  0  0  0
  -27.5640  -32.1350   25.5800 C   0  0  0  0  0  1  0  0  0  0  0  0
  -25.5380  -33.7220   24.2690 N   0  0  0  0  0  0  0  0  0  0  0  0
  -25.8430  -34.8320   23.5850 C   0  0  0  0  0  0  0  0  0  0  0  0
  -26.4160  -34.8090   22.4920 O   0  0  0  0  0  0  0  0  0  0  0  0
  -25.0250  -33.8160   25.1350 H   0  0  0  0  0  0  0  0  0  0  0  0
  -24.1510  -36.6920   23.5690 C   0  0  0  0  0  1  0  0  0  0  0  0
  -25.4520  -36.1850   24.2120 C   0  0  0  0  0  3  0  0  0  0  0  0
  -27.6890  -36.9300   24.8950 C   0  0  0  0  0  1  0  0  0  0  0  0
  -26.5050  -37.2160   24.0890 N   0  0  0  0  0  0  0  0  0  0  0  0
  -26.1490  -38.1290   24.3610 H   0  0  0  0  0  0  0  0  0  0  0  0
  -29.7580  -20.6870   22.2370 C   0  0  0  0  0  2  0  0  0  0  0  0
  -31.1750  -19.1710   20.8430 C   0  0  0  0  0  0  0  0  0  0  0  0
  -30.4330  -19.4350   21.9260 N   0  0  0  0  0  0  0  0  0  0  0  0
  -31.3560  -20.0050   19.9530 O   0  0  0  0  0  0  0  0  0  0  0  0
  -30.3470  -18.6860   22.6010 H   0  0  0  0  0  0  0  0  0  0  0  0
  -31.3130  -16.8430   21.8940 C   0  0  0  0  0  1  0  0  0  0  0  0
  -33.3320  -17.8660   20.8750 C   0  0  0  0  0  1  0  0  0  0  0  0
  -31.7940  -17.7520   20.7330 C   0  0  2  0  0  0  0  0  0  0  0  0
  -31.3420  -17.1050   19.3820 C   0  0  0  0  0  2  0  0  0  0  0  0
  -32.4490  -16.4980   18.4590 C   0  0  0  0  0  2  0  0  0  0  0  0
  -32.8550  -15.0150   18.1980 C   0  0  0  0  0  0  0  0  0  0  0  0
  -32.4450  -12.5690   18.2390 C   0  0  0  0  0  2  0  0  0  0  0  0
  -31.2850  -12.2040   17.2910 C   0  0  0  0  0  2  0  0  0  0  0  0
  -29.9190  -12.3640   17.9900 C   0  0  0  0  0  2  0  0  0  0  0  0
  -29.7840  -13.7200   18.7340 C   0  0  0  0  0  3  0  0  0  0  0  0
  -31.0330  -13.9530   19.6170 C   0  0  0  0  0  2  0  0  0  0  0  0
  -32.2100  -13.9340   18.7370 N   0  0  0  0  0  0  0  0  0  0  0  0
  -33.8100  -14.8570   17.4260 O   0  0  0  0  0  0  0  0  0  0  0  0
  -27.9650  -14.8710   20.1520 C   0  0  0  0  0  0  0  0  0  0  0  0
  -26.7830  -14.4120   20.6650 C   0  0  0  0  0  0  0  0  0  0  0  0
  -26.6940  -13.0380   20.2830 C   0  0  0  0  0  0  0  0  0  0  0  0
  -28.5470  -13.7880   19.5070 N   0  0  0  0  0  0  0  0  0  0  0  0
  -27.7910  -12.6680   19.6350 N   0  0  0  0  0  0  0  0  0  0  0  0
  -25.6060  -12.0680   20.4490 C   0  0  0  0  0  0  0  0  0  0  0  0
  -25.8520  -10.7520   20.9000 C   0  0  0  0  0  3  0  0  0  0  0  0
  -24.7860   -9.8430   21.0690 C   0  0  0  0  0  3  0  0  0  0  0  0
  -23.4580  -10.2440   20.7870 C   0  0  0  0  0  0  0  0  0  0  0  0
  -23.2210  -11.5480   20.3170 C   0  0  0  0  0  3  0  0  0  0  0  0
  -24.2840  -12.4510   20.1450 C   0  0  0  0  0  3  0  0  0  0  0  0
  -22.3650   -9.4180   20.8950 O   0  0  0  0  0  0  0  0  0  0  0  0
  -22.3050   -8.4220   21.8370 C   0  0  0  0  0  0  0  0  0  0  0  0
  -22.4880   -8.6860   23.2120 C   0  0  0  0  0  3  0  0  0  0  0  0
  -22.3480   -7.6450   24.1520 C   0  0  0  0  0  3  0  0  0  0  0  0
  -22.0190   -6.3460   23.7230 C   0  0  0  0  0  0  0  0  0  0  0  0
  -21.8310   -6.0830   22.3530 C   0  0  0  0  0  3  0  0  0  0  0  0
  -21.9700   -7.1190   21.4150 C   0  0  0  0  0  0  0  0  0  0  0  0
  -21.7660   -6.8670   20.0990 F   0  0  0  0  0  0  0  0  0  0  0  0
  -21.8770   -5.3490   24.6260 F   0  0  0  0  0  0  0  0  0  0  0  0
  -25.7440  -15.2210   21.3870 C   0  0  0  0  0  0  0  0  0  0  0  0
  -24.9650  -14.5880   22.2560 N   0  0  0  0  0  0  0  0  0  0  0  0
  -25.6500  -16.4370   21.2190 O   0  0  0  0  0  0  0  0  0  0  0  0
  -25.0550  -13.5950   22.4140 H   0  0  0  0  0  0  0  0  0  0  0  0
  -24.2680  -15.1050   22.7750 H   0  0  0  0  0  0  0  0  0  0  0  0
  -28.5830  -16.1180   20.1610 N   0  0  0  0  0  0  0  0  0  0  0  0
  -28.1490  -16.9310   20.5840 H   0  0  0  0  0  0  0  0  0  0  0  0
  -29.4490  -16.3320   19.6860 H   0  0  0  0  0  0  0  0  0  0  0  0
  1  2  1  0
  1 47  1  0
  3  4  1  0
  3  2  1  0
  5  6  1  0
  5  4  1  0
  6  8  1  0
  7 18  2  0
  8 13  1  0
  9 17  1  0
  9 19  1  0
 10 16  1  0
 10 12  1  0
 11 17  1  0
 12 11  1  0
 13 12  2  0
 14 15  1  0
 14  8  2  0
 15 10  2  0
 16  9  1  0
 17  7  1  0
 19 21  2  0
 20 19  1  0
 22 20  1  0
 23 32  2  0
 23 28  1  0
 24 20  1  0
 24 28  1  0
 25 24  1  0
 26 27  1  0
 26 25  1  0
 27 23  1  0
 28 29  2  0
 29 30  1  0
 31 30  2  0
 32 31  1  0
 33  7  1  0
 33 38  1  0
 33 34  1  0
 34 37  1  1
 34 35  1  0
 36 34  1  0
 38 41  1  0
 39 43  1  0
 39 38  1  0
 40 39  2  0
 43 42  1  0
 45 43  1  0
 45 46  1  0
 45 44  1  0
 48 49  1  0
 49 47  1  0
 49 51  1  0
 50 48  2  0
 54 48  1  0
 54 53  1  6
 54 52  1  0
 55 54  1  0
 56 55  1  0
 57 56  1  0
 57 63  1  0
 58 63  1  0
 59 60  1  0
 59 58  1  0
 61 60  1  0
 61 68  1  0
 61 62  1  0
 63 62  1  0
 64 57  2  0
 65 90  1  0
 65 66  2  0
 66 85  1  0
 67 70  1  0
 67 66  1  0
 68 69  1  0
 68 65  1  0
 69 67  2  0
 70 71  1  0
 71 72  2  0
 73 76  1  0
 73 72  1  0
 74 73  2  0
 75 74  1  0
 75 70  2  0
 76 77  1  0
 77 78  1  0
 78 79  2  0
 80 79  1  0
 80 84  1  0
 81 80  2  0
 82 77  2  0
 82 81  1  0
 83 82  1  0
 85 86  1  0
 86 88  1  0
 86 89  1  0
 87 85  2  0
 90 91  1  0
 92 90  1  0
M  ISO  4   5 101   6 101  56 100  57 100
M  END
>  <TORSDO>  (64) 
F 25

>  <SCORE>  (64) 
-7.478

>  <name>  (64) 
63

>  <ligand_id>  (64) 
63

>  <original_smiles>  (64) 
[H]c1c([H])c([H])c2c(c1[H])C([H])([H])C([H])([H])C([H])([H])C2([H])N([H])C(=O)C1([H])N(C(=O)C([H])(N([H])C(=O)C([H])(N([H])C([H])([H])[H])C([H])([H])[H])C(C([H])([H])[H])(C([H])([H])[H])C([H])([H])[H])C([H])([H])c2c([H])c(OC([H])([H])C([H])([H])C([H])([H])C([H])([H])C([H])([H])C([H])([H])N([H])C(=O)C(C([H])([H])[H])(C([H])([H])[H])C([H])([H])C([H])([H])C(=O)N3C([H])([H])C([H])([H])C([H])([H])C([H])(n4nc(-c5c([H])c([H])c(Oc6c([H])c([H])c(F)c([H])c6F)c([H])c5[H])c(C(=O)N([H])[H])c4N([H])[H])C3([H])[H])c([H])c([H])c2C1([H])[H]

>  <smiles>  (64) 
[H]c1c([H])c([H])c2c(c1[H])C([H])([H])C([H])([H])C([H])([H])C2([H])N([H])C(=O)C1([H])N(C(=O)C([H])(N([H])C(=O)C([H])(N([H])C([H])([H])[H])C([H])([H])[H])C(C([H])([H])[H])(C([H])([H])[H])C([H])([H])[H])C([H])([H])c2c([H])c(OC([H])([H])C([H])([H])C([H])([H])C([H])([H])C([H])([H])C([H])([H])N([H])C(=O)C(C([H])([H])[H])(C([H])([H])[H])C([H])([H])C([H])([H])C(=O)N3C([H])([H])C([H])([H])C([H])([H])C([H])(n4nc(-c5c([H])c([H])c(Oc6c([H])c([H])c(F)c([H])c6F)c([H])c5[H])c(C(=O)N([H])[H])c4N([H])[H])C3([H])[H])c([H])c([H])c2C1([H])[H]

$$$$
64:0:0
     RDKit          3D

 91 98  0  0  1  0  0  0  0  0999 V2000
  -27.5470  -24.5020   20.6020 C   0  0  0  0  0  3  0  0  0  0  0  0
  -27.4700  -23.1420   20.7320 C   0  0  0  0  0  0  0  0  0  0  0  0
  -25.3310  -23.4540   22.2250 C   0  0  0  0  0  1  0  0  0  0  0  0
  -26.4030  -22.5160   21.6430 C   0  0  0  0  0  2  0  0  0  0  0  0
  -28.4190  -25.4010   19.7130 C   0  0  0  0  0  2  0  0  0  0  0  0
  -28.3770  -26.8190   20.0630 O   0  0  0  0  0  0  0  0  0  0  0  0
  -24.4810  -31.9660   23.1230 C   0  0  0  0  0  0  0  0  0  0  0  0
  -27.1850  -27.5360   20.0260 C   0  0  0  0  0  0  0  0  0  0  0  0
  -23.2820  -30.5060   21.5290 C   0  0  0  0  0  3  0  0  0  0  0  0
  -24.7490  -29.0000   20.0790 C   0  0  0  0  0  0  0  0  0  0  0  0
  -25.7930  -30.9350   21.2660 C   0  0  0  0  0  2  0  0  0  0  0  0
  -25.9060  -29.5580   20.6330 C   0  0  0  0  0  0  0  0  0  0  0  0
  -27.1260  -28.8340   20.6010 C   0  0  0  0  0  3  0  0  0  0  0  0
  -26.0050  -27.0110   19.4520 C   0  0  0  0  0  3  0  0  0  0  0  0
  -24.7950  -27.7310   19.4820 C   0  0  0  0  0  3  0  0  0  0  0  0
  -23.4800  -29.8220   20.1500 C   0  0  0  0  0  2  0  0  0  0  0  0
  -24.5370  -31.1530   22.0290 N   0  0  0  0  0  0  0  0  0  0  0  0
  -23.4040  -32.2080   23.6870 O   0  0  0  0  0  0  0  0  0  0  0  0
  -22.6910  -29.4750   22.5180 C   0  0  0  0  0  0  0  0  0  0  0  0
  -21.3730  -29.2340   22.4170 N   0  0  0  0  0  0  0  0  0  0  0  0
  -23.4130  -28.8950   23.3330 O   0  0  0  0  0  0  0  0  0  0  0  0
  -20.8490  -29.7570   21.7290 H   0  0  0  0  0  0  0  0  0  0  0  0
  -18.0620  -27.8970   22.9820 C   0  0  0  0  0  0  0  0  0  0  0  0
  -20.6090  -28.2760   23.2150 C   0  0  0  0  0  3  0  0  0  0  0  0
  -20.7710  -26.8420   22.6630 C   0  0  0  0  0  2  0  0  0  0  0  0
  -19.6720  -26.4500   21.6710 C   0  0  0  0  0  2  0  0  0  0  0  0
  -18.2940  -26.5430   22.3300 C   0  0  0  0  0  2  0  0  0  0  0  0
  -19.1500  -28.7170   23.3830 C   0  0  0  0  0  0  0  0  0  0  0  0
  -18.8820  -29.9800   23.9540 C   0  0  0  0  0  3  0  0  0  0  0  0
  -17.5590  -30.4250   24.1300 C   0  0  0  0  0  3  0  0  0  0  0  0
  -16.4850  -29.6040   23.7450 C   0  0  0  0  0  3  0  0  0  0  0  0
  -16.7380  -28.3420   23.1780 C   0  0  0  0  0  3  0  0  0  0  0  0
  -25.7590  -32.6480   23.7020 C   0  0  0  0  0  3  0  0  0  0  0  0
  -25.4130  -34.0400   24.0200 N   0  0  0  0  0  0  0  0  0  0  0  0
  -25.6830  -35.0910   23.2340 C   0  0  0  0  0  0  0  0  0  0  0  0
  -26.3230  -34.9940   22.1830 O   0  0  0  0  0  0  0  0  0  0  0  0
  -24.8400  -34.1880   24.8380 H   0  0  0  0  0  0  0  0  0  0  0  0
  -23.8780  -36.8130   22.9100 C   0  0  0  0  0  1  0  0  0  0  0  0
  -25.1610  -36.4690   23.6840 C   0  0  0  0  0  3  0  0  0  0  0  0
  -27.2890  -37.4460   24.4240 C   0  0  0  0  0  1  0  0  0  0  0  0
  -26.1490  -37.5570   23.5170 N   0  0  0  0  0  0  0  0  0  0  0  0
  -25.7130  -38.4640   23.6650 H   0  0  0  0  0  0  0  0  0  0  0  0
  -26.3330  -31.9130   24.9750 C   0  0  1  0  0  0  0  0  0  0  0  0
  -25.2770  -31.6540   26.0730 C   0  0  0  0  0  1  0  0  0  0  0  0
  -26.9540  -30.5510   24.5880 C   0  0  0  0  0  1  0  0  0  0  0  0
  -27.4680  -32.7570   25.6000 C   0  0  0  0  0  1  0  0  0  0  0  0
  -28.3390  -22.0890   19.9860 C   0  0  0  0  0  3  0  0  0  0  0  0
  -28.6070  -20.7230   20.7380 C   0  0  0  0  0  3  0  0  0  0  0  0
  -29.1420  -19.5140   19.8960 C   0  0  0  0  0  3  0  0  0  0  0  0
  -29.3900  -18.1840   20.7100 C   0  0  0  0  0  3  0  0  0  0  0  0
  -30.5620  -14.6680   19.7690 C   0  0  0  0  0  0  0  0  0  0  0  0
  -30.1250  -12.5240   18.6050 C   0  0  0  0  0  2  0  0  0  0  0  0
  -29.0700  -12.7310   17.4990 C   0  0  0  0  0  2  0  0  0  0  0  0
  -27.6490  -12.5600   18.0690 C   0  0  0  0  0  2  0  0  0  0  0  0
  -27.4330  -13.3830   19.3660 C   0  0  0  0  0  3  0  0  0  0  0  0
  -28.5900  -13.1740   20.3620 C   0  0  0  0  0  2  0  0  0  0  0  0
  -29.8540  -13.4990   19.6800 N   0  0  0  0  0  0  0  0  0  0  0  0
  -31.6020  -14.8290   19.1210 O   0  0  0  0  0  0  0  0  0  0  0  0
  -29.6670  -16.8840   19.8810 C   0  0  0  0  0  0  0  0  0  0  0  0
  -30.0240  -15.7000   20.4950 N   0  0  0  0  0  0  0  0  0  0  0  0
  -29.5190  -16.9700   18.6550 O   0  0  0  0  0  0  0  0  0  0  0  0
  -25.1560  -13.9720   20.4070 C   0  0  0  0  0  0  0  0  0  0  0  0
  -24.1250  -13.1910   20.8550 C   0  0  0  0  0  0  0  0  0  0  0  0
  -24.5530  -11.8390   20.6840 C   0  0  0  0  0  0  0  0  0  0  0  0
  -26.1430  -13.0940   19.9870 N   0  0  0  0  0  0  0  0  0  0  0  0
  -25.7930  -11.8020   20.2140 N   0  0  0  0  0  0  0  0  0  0  0  0
  -23.8300  -10.5760   20.8850 C   0  0  0  0  0  0  0  0  0  0  0  0
  -24.3210   -9.5730   21.7470 C   0  0  0  0  0  3  0  0  0  0  0  0
  -23.6000   -8.3720   21.9350 C   0  0  0  0  0  3  0  0  0  0  0  0
  -22.3720   -8.1710   21.2610 C   0  0  0  0  0  0  0  0  0  0  0  0
  -21.8980   -9.1640   20.3870 C   0  0  0  0  0  3  0  0  0  0  0  0
  -22.6200  -10.3550   20.1970 C   0  0  0  0  0  3  0  0  0  0  0  0
  -21.6150   -7.0290   21.3650 O   0  0  0  0  0  0  0  0  0  0  0  0
  -21.6200   -6.2600   22.5020 C   0  0  0  0  0  0  0  0  0  0  0  0
  -21.2710   -6.7920   23.7630 C   0  0  0  0  0  3  0  0  0  0  0  0
  -21.2220   -5.9510   24.8920 C   0  0  0  0  0  3  0  0  0  0  0  0
  -21.5110   -4.5790   24.7620 C   0  0  0  0  0  0  0  0  0  0  0  0
  -21.8540   -4.0470   23.5060 C   0  0  0  0  0  3  0  0  0  0  0  0
  -21.9040   -4.8850   22.3800 C   0  0  0  0  0  0  0  0  0  0  0  0
  -22.2140   -4.3640   21.1670 F   0  0  0  0  0  0  0  0  0  0  0  0
  -21.4570   -3.7690   25.8450 F   0  0  0  0  0  0  0  0  0  0  0  0
  -22.7800  -13.6680   21.3220 C   0  0  0  0  0  0  0  0  0  0  0  0
  -22.1510  -12.9370   22.2360 N   0  0  0  0  0  0  0  0  0  0  0  0
  -22.2990  -14.7220   20.9090 O   0  0  0  0  0  0  0  0  0  0  0  0
  -22.5560  -12.0850   22.5940 H   0  0  0  0  0  0  0  0  0  0  0  0
  -21.2510  -13.2360   22.5840 H   0  0  0  0  0  0  0  0  0  0  0  0
  -25.3320  -15.3490   20.3000 N   0  0  0  0  0  0  0  0  0  0  0  0
  -24.6000  -16.0070   20.5450 H   0  0  0  0  0  0  0  0  0  0  0  0
  -26.1450  -15.7930   19.8930 H   0  0  0  0  0  0  0  0  0  0  0  0
  -31.6380  -15.9780   22.4230 C   0  0  0  0  0  1  0  0  0  0  0  0
  -30.2110  -15.6230   21.9650 C   0  0  0  0  0  2  0  0  0  0  0  0
  1  2  2  0
  2  4  1  0
  4  3  1  0
  5  6  1  0
  5  1  1  0
  7 18  2  0
  8  6  1  0
  8 13  1  0
  9 17  1  0
  9 19  1  0
 10 16  1  0
 10 12  1  0
 11 17  1  0
 12 11  1  0
 13 12  2  0
 14 15  1  0
 14  8  2  0
 15 10  2  0
 16  9  1  0
 17  7  1  0
 19 21  2  0
 20 19  1  0
 22 20  1  0
 23 32  2  0
 23 28  1  0
 24 20  1  0
 24 28  1  0
 25 24  1  0
 26 27  1  0
 26 25  1  0
 27 23  1  0
 28 29  2  0
 29 30  1  0
 31 30  2  0
 32 31  1  0
 33  7  1  0
 33 34  1  0
 33 43  1  0
 34 37  1  0
 35 39  1  0
 35 34  1  0
 36 35  2  0
 39 38  1  0
 41 42  1  0
 41 39  1  0
 41 40  1  0
 43 46  1  1
 43 44  1  0
 45 43  1  0
 47  2  1  0
 47 48  2  0
 49 50  2  0
 49 48  1  0
 51 60  1  0
 52 57  1  0
 53 54  1  0
 53 52  1  0
 55 54  1  0
 55 65  1  0
 55 56  1  0
 57 51  1  0
 57 56  1  0
 58 51  2  0
 59 60  1  0
 59 50  1  0
 60 91  1  0
 61 59  2  0
 62 63  2  0
 63 82  1  0
 64 63  1  0
 64 67  1  0
 65 66  1  0
 65 62  1  0
 66 64  2  0
 67 68  1  0
 68 69  2  0
 70 73  1  0
 70 69  1  0
 71 70  2  0
 72 71  1  0
 72 67  2  0
 73 74  1  0
 74 75  1  0
 75 76  2  0
 77 76  1  0
 77 81  1  0
 78 77  2  0
 79 74  2  0
 79 78  1  0
 80 79  1  0
 82 83  1  0
 83 86  1  0
 83 85  1  0
 84 82  2  0
 87 62  1  0
 87 88  1  0
 89 87  1  0
 91 90  1  0
M  ISO  4   5 101   6 101  51 100  60 100
M  END
>  <TORSDO>  (65) 
F 23

>  <SCORE>  (65) 
-10.162

>  <name>  (65) 
64

>  <ligand_id>  (65) 
64

>  <original_smiles>  (65) 
[H]C(=C(C([H])([H])C([H])([H])[H])C([H])([H])C([H])([H])C([H])([H])C([H])([H])C(=O)N(C(=O)N1C([H])([H])C([H])([H])C([H])([H])C([H])(n2nc(-c3c([H])c([H])c(Oc4c([H])c([H])c(F)c([H])c4F)c([H])c3[H])c(C(=O)N([H])[H])c2N([H])[H])C1([H])[H])C([H])([H])C([H])([H])[H])C([H])([H])Oc1c([H])c([H])c2c(c1[H])C([H])([H])N(C(=O)C([H])(N([H])C(=O)C([H])(N([H])C([H])([H])[H])C([H])([H])[H])C(C([H])([H])[H])(C([H])([H])[H])C([H])([H])[H])C([H])(C(=O)N([H])C1([H])c3c([H])c([H])c([H])c([H])c3C([H])([H])C([H])([H])C1([H])[H])C2([H])[H]

>  <smiles>  (65) 
[H]C(=C(C([H])([H])C([H])([H])[H])C([H])([H])C([H])([H])C([H])([H])C([H])([H])C(=O)N(C(=O)N1C([H])([H])C([H])([H])C([H])([H])C([H])(n2nc(-c3c([H])c([H])c(Oc4c([H])c([H])c(F)c([H])c4F)c([H])c3[H])c(C(=O)N([H])[H])c2N([H])[H])C1([H])[H])C([H])([H])C([H])([H])[H])C([H])([H])Oc1c([H])c([H])c2c(c1[H])C([H])([H])N(C(=O)C([H])(N([H])C(=O)C([H])(N([H])C([H])([H])[H])C([H])([H])[H])C(C([H])([H])[H])(C([H])([H])[H])C([H])([H])[H])C([H])(C(=O)N([H])C1([H])c3c([H])c([H])c([H])c([H])c3C([H])([H])C([H])([H])C1([H])[H])C2([H])[H]

$$$$
65:0:0
     RDKit          3D

 94102  0  0  1  0  0  0  0  0999 V2000
  -33.2110  -21.5840   17.2940 C   0  0  0  0  0  3  0  0  0  0  0  0
  -33.1160  -22.9770   17.4080 C   0  0  0  0  0  3  0  0  0  0  0  0
  -32.4410  -20.7600   18.1330 C   0  0  0  0  0  3  0  0  0  0  0  0
  -32.2690  -23.5390   18.3750 C   0  0  0  0  0  3  0  0  0  0  0  0
  -31.5790  -21.3050   19.1170 C   0  0  0  0  0  0  0  0  0  0  0  0
  -31.5040  -22.7280   19.2500 C   0  0  0  0  0  0  0  0  0  0  0  0
  -30.7110  -20.3580   19.8990 C   0  0  0  0  0  0  0  0  0  0  0  0
  -29.5570  -20.6370   20.2360 O   0  0  0  0  0  0  0  0  0  0  0  0
  -31.3020  -18.9850   20.2900 C   0  0  0  0  0  2  0  0  0  0  0  0
  -30.3030  -18.0380   21.0000 C   0  0  0  0  0  2  0  0  0  0  0  0
  -30.9620  -16.8010   21.6630 C   0  0  0  0  0  2  0  0  0  0  0  0
  -30.1540  -15.4760   21.5340 C   0  0  0  0  0  2  0  0  0  0  0  0
  -30.7000  -14.4310   20.5270 C   0  0  0  0  0  0  0  0  0  0  0  0
  -30.3590  -12.3470   19.2360 C   0  0  0  0  0  2  0  0  0  0  0  0
  -29.4120  -12.6000   18.0500 C   0  0  0  0  0  2  0  0  0  0  0  0
  -27.9400  -12.4620   18.4830 C   0  0  0  0  0  2  0  0  0  0  0  0
  -27.6180  -13.2550   19.7790 C   0  0  0  0  0  3  0  0  0  0  0  0
  -28.6760  -12.9820   20.8710 C   0  0  0  0  0  2  0  0  0  0  0  0
  -30.0010  -13.2860   20.3100 N   0  0  0  0  0  0  0  0  0  0  0  0
  -31.7520  -14.6720   19.9290 O   0  0  0  0  0  0  0  0  0  0  0  0
  -25.2120  -13.8550   20.4780 C   0  0  0  0  0  0  0  0  0  0  0  0
  -24.1450  -13.0790   20.8490 C   0  0  0  0  0  0  0  0  0  0  0  0
  -24.6110  -11.7300   20.8250 C   0  0  0  0  0  0  0  0  0  0  0  0
  -26.2610  -12.9770   20.2550 N   0  0  0  0  0  0  0  0  0  0  0  0
  -25.9020  -11.6940   20.5190 N   0  0  0  0  0  0  0  0  0  0  0  0
  -23.8910  -10.4650   21.0210 C   0  0  0  0  0  0  0  0  0  0  0  0
  -24.3300   -9.5030   21.9560 C   0  0  0  0  0  3  0  0  0  0  0  0
  -23.6100   -8.3030   22.1440 C   0  0  0  0  0  3  0  0  0  0  0  0
  -22.4360   -8.0570   21.3940 C   0  0  0  0  0  0  0  0  0  0  0  0
  -22.0140   -9.0090   20.4490 C   0  0  0  0  0  3  0  0  0  0  0  0
  -22.7350  -10.2010   20.2610 C   0  0  0  0  0  3  0  0  0  0  0  0
  -21.6850   -6.9110   21.4890 O   0  0  0  0  0  0  0  0  0  0  0  0
  -21.6520   -6.1640   22.6390 C   0  0  0  0  0  0  0  0  0  0  0  0
  -21.2400   -6.7140   23.8720 C   0  0  0  0  0  3  0  0  0  0  0  0
  -21.1540   -5.8950   25.0150 C   0  0  0  0  0  3  0  0  0  0  0  0
  -21.4700   -4.5250   24.9270 C   0  0  0  0  0  0  0  0  0  0  0  0
  -21.8740   -3.9740   23.6980 C   0  0  0  0  0  3  0  0  0  0  0  0
  -21.9620   -4.7910   22.5580 C   0  0  0  0  0  0  0  0  0  0  0  0
  -22.3320   -4.2500   21.3720 F   0  0  0  0  0  0  0  0  0  0  0  0
  -21.3810   -3.7360   26.0230 F   0  0  0  0  0  0  0  0  0  0  0  0
  -22.7450  -13.5540   21.1180 C   0  0  0  0  0  0  0  0  0  0  0  0
  -22.0200  -12.8620   21.9900 N   0  0  0  0  0  0  0  0  0  0  0  0
  -22.3020  -14.5720   20.5890 O   0  0  0  0  0  0  0  0  0  0  0  0
  -22.3920  -12.0410   22.4460 H   0  0  0  0  0  0  0  0  0  0  0  0
  -21.0800  -13.1600   22.2080 H   0  0  0  0  0  0  0  0  0  0  0  0
  -25.3720  -15.2250   20.2930 N   0  0  0  0  0  0  0  0  0  0  0  0
  -24.6060  -15.8830   20.4040 H   0  0  0  0  0  0  0  0  0  0  0  0
  -26.2290  -15.6630   19.9780 H   0  0  0  0  0  0  0  0  0  0  0  0
  -30.6140  -23.4030   20.3060 C   0  0  0  0  0  2  0  0  0  0  0  0
  -30.9520  -24.8800   20.6210 C   0  0  0  0  0  2  0  0  0  0  0  0
  -29.9630  -25.5270   21.5860 C   0  0  0  0  0  0  0  0  0  0  0  0
  -29.6330  -24.9740   22.6400 O   0  0  0  0  0  0  0  0  0  0  0  0
  -29.3890  -26.8850   21.1810 C   0  0  0  0  0  2  0  0  0  0  0  0
  -28.4450  -26.6960   20.1260 O   0  0  0  0  0  0  0  0  0  0  0  0
  -24.6400  -31.8690   23.2320 C   0  0  0  0  0  0  0  0  0  0  0  0
  -27.3050  -27.4640   20.1610 C   0  0  0  0  0  0  0  0  0  0  0  0
  -23.4320  -30.4590   21.5920 C   0  0  0  0  0  3  0  0  0  0  0  0
  -24.8880  -28.9270   20.1650 C   0  0  0  0  0  0  0  0  0  0  0  0
  -25.9450  -30.8430   21.3760 C   0  0  0  0  0  2  0  0  0  0  0  0
  -26.0400  -29.4710   20.7490 C   0  0  0  0  0  0  0  0  0  0  0  0
  -27.2490  -28.7510   20.7460 C   0  0  0  0  0  3  0  0  0  0  0  0
  -26.1440  -26.9340   19.5630 C   0  0  0  0  0  3  0  0  0  0  0  0
  -24.9330  -27.6540   19.5680 C   0  0  0  0  0  3  0  0  0  0  0  0
  -23.6380  -29.7730   20.2140 C   0  0  0  0  0  2  0  0  0  0  0  0
  -24.6900  -31.0710   22.1270 N   0  0  0  0  0  0  0  0  0  0  0  0
  -23.5600  -32.1370   23.7770 O   0  0  0  0  0  0  0  0  0  0  0  0
  -22.7850  -29.4390   22.5580 C   0  0  0  0  0  0  0  0  0  0  0  0
  -21.4600  -29.2580   22.4320 N   0  0  0  0  0  0  0  0  0  0  0  0
  -23.4720  -28.8130   23.3700 O   0  0  0  0  0  0  0  0  0  0  0  0
  -20.9710  -29.8150   21.7460 H   0  0  0  0  0  0  0  0  0  0  0  0
  -18.0850  -28.0780   22.9360 C   0  0  0  0  0  0  0  0  0  0  0  0
  -20.6440  -28.3210   23.2040 C   0  0  0  0  0  3  0  0  0  0  0  0
  -20.7380  -26.8940   22.6190 C   0  0  0  0  0  2  0  0  0  0  0  0
  -19.6310  -26.5800   21.6100 C   0  0  0  0  0  2  0  0  0  0  0  0
  -18.2530  -26.7300   22.2580 C   0  0  0  0  0  2  0  0  0  0  0  0
  -19.2080  -28.8330   23.3660 C   0  0  0  0  0  0  0  0  0  0  0  0
  -18.9980  -30.0980   23.9600 C   0  0  0  0  0  3  0  0  0  0  0  0
  -17.6960  -30.6030   24.1310 C   0  0  0  0  0  3  0  0  0  0  0  0
  -16.5870  -29.8440   23.7190 C   0  0  0  0  0  3  0  0  0  0  0  0
  -16.7820  -28.5840   23.1260 C   0  0  0  0  0  3  0  0  0  0  0  0
  -25.9300  -32.4970   23.8490 C   0  0  0  0  0  3  0  0  0  0  0  0
  -26.4570  -31.7180   25.1160 C   0  0  1  0  0  0  0  0  0  0  0  0
  -25.3720  -31.4720   26.1900 C   0  0  0  0  0  1  0  0  0  0  0  0
  -27.0350  -30.3430   24.7050 C   0  0  0  0  0  1  0  0  0  0  0  0
  -27.6120  -32.5080   25.7750 C   0  0  0  0  0  1  0  0  0  0  0  0
  -25.6260  -33.8930   24.1820 N   0  0  0  0  0  0  0  0  0  0  0  0
  -25.9590  -34.9440   23.4210 C   0  0  0  0  0  0  0  0  0  0  0  0
  -26.6260  -34.8400   22.3870 O   0  0  0  0  0  0  0  0  0  0  0  0
  -25.0370  -34.0490   24.9860 H   0  0  0  0  0  0  0  0  0  0  0  0
  -24.2330  -36.7370   23.0620 C   0  0  0  0  0  1  0  0  0  0  0  0
  -25.4720  -36.3330   23.8780 C   0  0  0  0  0  3  0  0  0  0  0  0
  -27.6040  -37.2130   24.7160 C   0  0  0  0  0  1  0  0  0  0  0  0
  -26.5050  -37.3850   23.7700 N   0  0  0  0  0  0  0  0  0  0  0  0
  -26.1000  -38.3040   23.9190 H   0  0  0  0  0  0  0  0  0  0  0  0
  1  2  2  0
  1  3  1  0
  2  4  1  0
  3  5  2  0
  4  6  2  0
  5  6  1  0
  5  7  1  0
  6 49  1  0
  7  8  2  0
  7  9  1  0
  9 10  1  0
 10 11  1  0
 12 11  1  0
 13 12  1  0
 14 19  1  0
 15 16  1  0
 15 14  1  0
 17 16  1  0
 17 24  1  0
 17 18  1  0
 19 13  1  0
 19 18  1  0
 20 13  2  0
 21 22  2  0
 22 41  1  0
 23 22  1  0
 23 26  1  0
 24 21  1  0
 24 25  1  0
 25 23  2  0
 26 27  1  0
 27 28  2  0
 29 32  1  0
 29 28  1  0
 30 29  2  0
 31 30  1  0
 31 26  2  0
 32 33  1  0
 33 34  1  0
 34 35  2  0
 36 35  1  0
 36 40  1  0
 37 36  2  0
 38 33  2  0
 38 37  1  0
 39 38  1  0
 41 42  1  0
 42 45  1  0
 42 44  1  0
 43 41  2  0
 46 47  1  0
 46 21  1  0
 48 46  1  0
 49 50  1  0
 50 51  1  0
 51 52  2  0
 53 51  1  0
 54 56  1  0
 54 53  1  0
 55 66  2  0
 56 61  1  0
 57 65  1  0
 57 67  1  0
 58 64  1  0
 58 60  1  0
 59 65  1  0
 60 59  1  0
 61 60  2  0
 62 63  1  0
 62 56  2  0
 63 58  2  0
 64 57  1  0
 65 55  1  0
 67 69  2  0
 68 67  1  0
 70 68  1  0
 71 80  2  0
 71 76  1  0
 72 68  1  0
 72 76  1  0
 73 72  1  0
 74 75  1  0
 74 73  1  0
 75 71  1  0
 76 77  2  0
 77 78  1  0
 79 78  2  0
 80 79  1  0
 81 55  1  0
 81 86  1  0
 81 82  1  0
 82 85  1  1
 82 83  1  0
 84 82  1  0
 86 89  1  0
 87 91  1  0
 87 86  1  0
 88 87  2  0
 91 90  1  0
 93 91  1  0
 93 94  1  0
 93 92  1  0
M  ISO  4  12 100  13 100  53 101  54 101
M  END
>  <TORSDO>  (66) 
F 25

>  <SCORE>  (66) 
-12.271

>  <name>  (66) 
65

>  <ligand_id>  (66) 
65

>  <original_smiles>  (66) 
[H]c1c([H])c([H])c(C([H])([H])C([H])([H])C(=O)C([H])([H])Oc2c([H])c([H])c3c(c2[H])C([H])([H])N(C(=O)C([H])(N([H])C(=O)C([H])(N([H])C([H])([H])[H])C([H])([H])[H])C(C([H])([H])[H])(C([H])([H])[H])C([H])([H])[H])C([H])(C(=O)N([H])C2([H])c4c([H])c([H])c([H])c([H])c4C([H])([H])C([H])([H])C2([H])[H])C3([H])[H])c(C(=O)C([H])([H])C([H])([H])C([H])([H])C([H])([H])C(=O)N2C([H])([H])C([H])([H])C([H])([H])C([H])(n3nc(-c4c([H])c([H])c(Oc5c([H])c([H])c(F)c([H])c5F)c([H])c4[H])c(C(=O)N([H])[H])c3N([H])[H])C2([H])[H])c1[H]

>  <smiles>  (66) 
[H]c1c([H])c([H])c(C([H])([H])C([H])([H])C(=O)C([H])([H])Oc2c([H])c([H])c3c(c2[H])C([H])([H])N(C(=O)C([H])(N([H])C(=O)C([H])(N([H])C([H])([H])[H])C([H])([H])[H])C(C([H])([H])[H])(C([H])([H])[H])C([H])([H])[H])C([H])(C(=O)N([H])C2([H])c4c([H])c([H])c([H])c([H])c4C([H])([H])C([H])([H])C2([H])[H])C3([H])[H])c(C(=O)C([H])([H])C([H])([H])C([H])([H])C([H])([H])C(=O)N2C([H])([H])C([H])([H])C([H])([H])C([H])(n3nc(-c4c([H])c([H])c(Oc5c([H])c([H])c(F)c([H])c5F)c([H])c4[H])c(C(=O)N([H])[H])c3N([H])[H])C2([H])[H])c1[H]

$$$$
66:0:0
     RDKit          3D

 91 98  0  0  1  0  0  0  0  0999 V2000
  -29.4970  -20.7320   19.8740 N   0  0  0  0  0  4  0  0  0  0  0  0
  -30.3870  -21.0190   19.5030 H   0  0  0  0  0  0  0  0  0  0  0  0
  -28.9460  -20.4580   19.0770 H   0  0  0  0  0  0  0  0  0  0  0  0
  -29.7540  -19.4200   20.7190 C   0  0  0  0  0  3  0  0  0  0  0  0
  -30.1440  -17.9620   19.9850 C   0  0  0  0  0  3  0  0  0  0  0  0
  -30.0600  -16.4730   20.7470 C   0  0  0  0  0  3  0  0  0  0  0  0
  -30.8320  -15.0970   20.2820 C   0  0  0  0  0  0  0  0  0  0  0  0
  -30.7040  -12.7540   19.3280 C   0  0  0  0  0  2  0  0  0  0  0  0
  -29.7610  -12.7420   18.1010 C   0  0  0  0  0  2  0  0  0  0  0  0
  -28.2970  -12.5450   18.5380 C   0  0  0  0  0  2  0  0  0  0  0  0
  -27.9060  -13.4690   19.7220 C   0  0  0  0  0  3  0  0  0  0  0  0
  -28.9660  -13.4470   20.8450 C   0  0  0  0  0  2  0  0  0  0  0  0
  -30.2520  -13.8340   20.2480 N   0  0  0  0  0  0  0  0  0  0  0  0
  -31.9960  -15.1900   19.8750 O   0  0  0  0  0  0  0  0  0  0  0  0
  -25.5440  -14.0630   20.5160 C   0  0  0  0  0  0  0  0  0  0  0  0
  -24.4690  -13.2920   20.8700 C   0  0  0  0  0  0  0  0  0  0  0  0
  -24.9070  -11.9360   20.7740 C   0  0  0  0  0  0  0  0  0  0  0  0
  -26.5670  -13.1780   20.2230 N   0  0  0  0  0  0  0  0  0  0  0  0
  -26.1930  -11.8900   20.4420 N   0  0  0  0  0  0  0  0  0  0  0  0
  -24.1600  -10.6810   20.9220 C   0  0  0  0  0  0  0  0  0  0  0  0
  -24.5790   -9.6700   21.8150 C   0  0  0  0  0  3  0  0  0  0  0  0
  -23.8310   -8.4810   21.9540 C   0  0  0  0  0  3  0  0  0  0  0  0
  -22.6480   -8.2940   21.2000 C   0  0  0  0  0  0  0  0  0  0  0  0
  -22.2470   -9.2940   20.2950 C   0  0  0  0  0  3  0  0  0  0  0  0
  -22.9960  -10.4730   20.1540 C   0  0  0  0  0  3  0  0  0  0  0  0
  -21.8720   -7.1620   21.2510 O   0  0  0  0  0  0  0  0  0  0  0  0
  -21.8030   -6.3870   22.3810 C   0  0  0  0  0  0  0  0  0  0  0  0
  -21.3740   -6.9130   23.6190 C   0  0  0  0  0  3  0  0  0  0  0  0
  -21.2500   -6.0670   24.7380 C   0  0  0  0  0  3  0  0  0  0  0  0
  -21.5440   -4.6950   24.6210 C   0  0  0  0  0  0  0  0  0  0  0  0
  -21.9640   -4.1670   23.3860 C   0  0  0  0  0  3  0  0  0  0  0  0
  -22.0890   -5.0110   22.2690 C   0  0  0  0  0  0  0  0  0  0  0  0
  -22.4750   -4.4940   21.0770 F   0  0  0  0  0  0  0  0  0  0  0  0
  -21.4170   -3.8790   25.6940 F   0  0  0  0  0  0  0  0  0  0  0  0
  -23.0860  -13.7840   21.1840 C   0  0  0  0  0  0  0  0  0  0  0  0
  -22.3650  -13.0760   22.0450 N   0  0  0  0  0  0  0  0  0  0  0  0
  -22.6560  -14.8310   20.7010 O   0  0  0  0  0  0  0  0  0  0  0  0
  -22.7240  -12.2260   22.4550 H   0  0  0  0  0  0  0  0  0  0  0  0
  -21.4370  -13.3890   22.2980 H   0  0  0  0  0  0  0  0  0  0  0  0
  -25.7290  -15.4370   20.3940 N   0  0  0  0  0  0  0  0  0  0  0  0
  -24.9770  -16.1000   20.5500 H   0  0  0  0  0  0  0  0  0  0  0  0
  -26.5820  -15.8760   20.0710 H   0  0  0  0  0  0  0  0  0  0  0  0
  -30.8630  -19.7020   21.7670 C   0  0  0  0  0  2  0  0  0  0  0  0
  -30.4000  -20.4060   23.0590 C   0  0  0  0  0  2  0  0  0  0  0  0
  -31.5660  -20.6920   24.0120 C   0  0  0  0  0  0  0  0  0  0  0  0
  -31.6040  -22.0460   24.7050 C   0  0  0  0  0  1  0  0  0  0  0  0
  -32.4480  -19.8560   24.2230 O   0  0  0  0  0  0  0  0  0  0  0  0
  -28.7940  -22.0210   20.4580 C   0  0  0  0  0  2  0  0  0  0  0  0
  -28.8740  -23.5350   19.7430 C   0  0  0  0  0  3  0  0  0  0  0  0
  -27.9940  -24.8580   20.2630 C   0  0  0  0  0  3  0  0  0  0  0  0
  -28.2190  -26.3470   19.9120 O   0  0  0  0  0  0  0  0  0  0  0  0
  -24.5470  -31.8270   23.1580 C   0  0  0  0  0  0  0  0  0  0  0  0
  -27.1380  -27.2880   19.9320 C   0  0  0  0  0  0  0  0  0  0  0  0
  -23.3390  -30.4860   21.4780 C   0  0  0  0  0  3  0  0  0  0  0  0
  -24.7890  -28.9850   19.9810 C   0  0  0  0  0  0  0  0  0  0  0  0
  -25.8870  -30.7910   21.2980 C   0  0  0  0  0  2  0  0  0  0  0  0
  -25.9690  -29.4280   20.5930 C   0  0  0  0  0  0  0  0  0  0  0  0
  -27.1470  -28.5990   20.5490 C   0  0  0  0  0  3  0  0  0  0  0  0
  -25.9340  -26.9410   19.2790 C   0  0  0  0  0  3  0  0  0  0  0  0
  -24.7840  -27.7560   19.3060 C   0  0  0  0  0  3  0  0  0  0  0  0
  -23.5520  -29.8630   20.0720 C   0  0  0  0  0  2  0  0  0  0  0  0
  -24.6110  -31.0530   22.0330 N   0  0  0  0  0  0  0  0  0  0  0  0
  -23.4650  -32.0810   23.7080 O   0  0  0  0  0  0  0  0  0  0  0  0
  -22.6810  -29.4370   22.4050 C   0  0  0  0  0  0  0  0  0  0  0  0
  -21.3550  -29.2500   22.2730 N   0  0  0  0  0  0  0  0  0  0  0  0
  -23.3640  -28.7910   23.2050 O   0  0  0  0  0  0  0  0  0  0  0  0
  -20.8610  -29.8220   21.6020 H   0  0  0  0  0  0  0  0  0  0  0  0
  -17.9950  -27.9710   22.7210 C   0  0  0  0  0  0  0  0  0  0  0  0
  -20.5470  -28.2770   23.0120 C   0  0  0  0  0  3  0  0  0  0  0  0
  -20.6810  -26.8620   22.4010 C   0  0  0  0  0  2  0  0  0  0  0  0
  -19.5940  -26.5450   21.3700 C   0  0  0  0  0  2  0  0  0  0  0  0
  -18.2040  -26.6440   22.0070 C   0  0  0  0  0  2  0  0  0  0  0  0
  -19.0960  -28.7440   23.1770 C   0  0  0  0  0  0  0  0  0  0  0  0
  -18.8470  -29.9840   23.8040 C   0  0  0  0  0  3  0  0  0  0  0  0
  -17.5320  -30.4550   23.9730 C   0  0  0  0  0  3  0  0  0  0  0  0
  -16.4460  -29.6790   23.5320 C   0  0  0  0  0  3  0  0  0  0  0  0
  -16.6780  -28.4380   22.9120 C   0  0  0  0  0  3  0  0  0  0  0  0
  -25.8280  -32.4460   23.7960 C   0  0  0  0  0  3  0  0  0  0  0  0
  -26.3480  -31.6380   25.0490 C   0  0  1  0  0  0  0  0  0  0  0  0
  -25.2590  -31.3710   26.1140 C   0  0  0  0  0  1  0  0  0  0  0  0
  -26.9270  -30.2700   24.6200 C   0  0  0  0  0  1  0  0  0  0  0  0
  -27.5040  -32.4120   25.7260 C   0  0  0  0  0  1  0  0  0  0  0  0
  -25.5130  -33.8330   24.1740 N   0  0  0  0  0  0  0  0  0  0  0  0
  -25.8500  -34.9140   23.4590 C   0  0  0  0  0  0  0  0  0  0  0  0
  -26.5240  -34.8480   22.4270 O   0  0  0  0  0  0  0  0  0  0  0  0
  -24.9080  -33.9550   24.9740 H   0  0  0  0  0  0  0  0  0  0  0  0
  -24.1240  -36.7230   23.1690 C   0  0  0  0  0  1  0  0  0  0  0  0
  -25.3640  -36.2860   23.9670 C   0  0  0  0  0  3  0  0  0  0  0  0
  -27.4960  -37.1400   24.8350 C   0  0  0  0  0  1  0  0  0  0  0  0
  -26.3980  -37.3410   23.8930 N   0  0  0  0  0  0  0  0  0  0  0  0
  -25.9930  -38.2560   24.0710 H   0  0  0  0  0  0  0  0  0  0  0  0
  1 48  1  0
  1  4  1  0
  2  1  1  0
  3  1  1  0
  4  5  1  0
  4 43  1  0
  5  6  2  0
  7  6  1  0
  8 13  1  0
  9 10  1  0
  9  8  1  0
 11 10  1  0
 11 18  1  0
 11 12  1  0
 13  7  1  0
 13 12  1  0
 14  7  2  0
 15 16  2  0
 16 35  1  0
 17 16  1  0
 17 20  1  0
 18 19  1  0
 18 15  1  0
 19 17  2  0
 20 21  1  0
 21 22  2  0
 23 26  1  0
 23 22  1  0
 24 23  2  0
 25 24  1  0
 25 20  2  0
 26 27  1  0
 27 28  1  0
 28 29  2  0
 30 29  1  0
 30 34  1  0
 31 30  2  0
 32 27  2  0
 32 31  1  0
 33 32  1  0
 35 36  1  0
 36 39  1  0
 36 38  1  0
 37 35  2  0
 40 15  1  0
 40 41  1  0
 42 40  1  0
 43 44  1  0
 44 45  1  0
 45 47  2  0
 45 46  1  0
 49 50  2  0
 49 48  1  0
 51 53  1  0
 51 50  1  0
 52 63  2  0
 53 58  1  0
 54 62  1  0
 54 64  1  0
 55 61  1  0
 55 57  1  0
 56 62  1  0
 57 56  1  0
 58 57  2  0
 59 60  1  0
 59 53  2  0
 60 55  2  0
 61 54  1  0
 62 52  1  0
 64 66  2  0
 65 64  1  0
 67 65  1  0
 68 77  2  0
 68 73  1  0
 69 65  1  0
 69 73  1  0
 70 69  1  0
 71 72  1  0
 71 70  1  0
 72 68  1  0
 73 74  2  0
 74 75  1  0
 76 75  2  0
 77 76  1  0
 78 52  1  0
 78 83  1  0
 78 79  1  0
 79 82  1  1
 79 80  1  0
 81 79  1  0
 83 86  1  0
 84 88  1  0
 84 83  1  0
 85 84  2  0
 88 87  1  0
 90 88  1  0
 90 91  1  0
 90 89  1  0
M  ISO  4   6 100   7 100  50 101  51 101
M  END
>  <TORSDO>  (67) 
F 25

>  <SCORE>  (67) 
-11.064

>  <name>  (67) 
66

>  <ligand_id>  (67) 
66

>  <original_smiles>  (67) 
[H]c1c([H])c([H])c2c(c1[H])C([H])([H])C([H])([H])C([H])([H])C2([H])N([H])C(=O)C1([H])N(C(=O)C([H])(N([H])C(=O)C([H])(N([H])C([H])([H])[H])C([H])([H])[H])C(C([H])([H])[H])(C([H])([H])[H])C([H])([H])[H])C([H])([H])c2c([H])c(OC([H])([H])C([H])([H])C([H])([H])[N+]([H])([H])C([H])(C([H])([H])C([H])([H])C(=O)N3C([H])([H])C([H])([H])C([H])([H])C([H])(n4nc(-c5c([H])c([H])c(Oc6c([H])c([H])c(F)c([H])c6F)c([H])c5[H])c(C(=O)N([H])[H])c4N([H])[H])C3([H])[H])C([H])([H])C([H])([H])C(=O)C([H])([H])[H])c([H])c([H])c2C1([H])[H]

>  <smiles>  (67) 
[H]c1c([H])c([H])c2c(c1[H])C([H])([H])C([H])([H])C([H])([H])C2([H])N([H])C(=O)C1([H])N(C(=O)C([H])(N([H])C(=O)C([H])(N([H])C([H])([H])[H])C([H])([H])[H])C(C([H])([H])[H])(C([H])([H])[H])C([H])([H])[H])C([H])([H])c2c([H])c(OC([H])([H])C([H])([H])C([H])([H])[N+]([H])([H])C([H])(C([H])([H])C([H])([H])C(=O)N3C([H])([H])C([H])([H])C([H])([H])C([H])(n4nc(-c5c([H])c([H])c(Oc6c([H])c([H])c(F)c([H])c6F)c([H])c5[H])c(C(=O)N([H])[H])c4N([H])[H])C3([H])[H])C([H])([H])C([H])([H])C(=O)C([H])([H])[H])c([H])c([H])c2C1([H])[H]

$$$$
67:0:0
     RDKit          3D

 91 99  0  0  1  0  0  0  0  0999 V2000
  -29.6790  -21.7690   24.4720 C   0  0  0  0  0  3  0  0  0  0  0  0
  -29.6340  -23.0170   23.8250 C   0  0  0  0  0  3  0  0  0  0  0  0
  -30.1670  -20.6400   23.7910 C   0  0  0  0  0  3  0  0  0  0  0  0
  -30.5520  -22.0090   21.8080 C   0  0  0  0  0  3  0  0  0  0  0  0
  -30.0610  -23.1560   22.4840 C   0  0  0  0  0  0  0  0  0  0  0  0
  -30.6050  -20.7480   22.4530 C   0  0  0  0  0  0  0  0  0  0  0  0
  -30.0430  -24.5270   21.8760 C   0  0  0  0  0  0  0  0  0  0  0  0
  -30.0610  -25.5490   22.5690 O   0  0  0  0  0  0  0  0  0  0  0  0
  -29.9680  -24.6750   20.3490 C   0  0  0  0  0  2  0  0  0  0  0  0
  -28.6720  -25.3600   19.8710 C   0  0  0  0  0  2  0  0  0  0  0  0
  -28.6770  -26.7740   20.0990 O   0  0  0  0  0  0  0  0  0  0  0  0
  -24.5860  -31.7030   23.1750 C   0  0  0  0  0  0  0  0  0  0  0  0
  -27.4610  -27.4290   20.0680 C   0  0  0  0  0  0  0  0  0  0  0  0
  -23.4620  -30.2750   21.4970 C   0  0  0  0  0  3  0  0  0  0  0  0
  -24.9980  -28.8240   20.0710 C   0  0  0  0  0  0  0  0  0  0  0  0
  -25.9710  -30.7470   21.3370 C   0  0  0  0  0  2  0  0  0  0  0  0
  -26.1240  -29.3910   20.6800 C   0  0  0  0  0  0  0  0  0  0  0  0
  -27.3570  -28.7010   20.6750 C   0  0  0  0  0  3  0  0  0  0  0  0
  -26.3130  -26.8760   19.4500 C   0  0  0  0  0  3  0  0  0  0  0  0
  -25.0870  -27.5650   19.4540 C   0  0  0  0  0  3  0  0  0  0  0  0
  -23.7180  -29.6260   20.1110 C   0  0  0  0  0  2  0  0  0  0  0  0
  -24.6900  -30.9230   22.0620 N   0  0  0  0  0  0  0  0  0  0  0  0
  -23.4870  -31.9210   23.7030 O   0  0  0  0  0  0  0  0  0  0  0  0
  -22.8440  -29.2130   22.4340 C   0  0  0  0  0  0  0  0  0  0  0  0
  -21.5290  -28.9810   22.2900 N   0  0  0  0  0  0  0  0  0  0  0  0
  -23.5450  -28.5990   23.2430 O   0  0  0  0  0  0  0  0  0  0  0  0
  -21.0230  -29.5310   21.6090 H   0  0  0  0  0  0  0  0  0  0  0  0
  -18.1970  -27.6610   22.7410 C   0  0  0  0  0  0  0  0  0  0  0  0
  -20.7420  -28.0010   23.0370 C   0  0  0  0  0  3  0  0  0  0  0  0
  -20.8980  -26.5860   22.4330 C   0  0  0  0  0  2  0  0  0  0  0  0
  -19.8150  -26.2460   21.4050 C   0  0  0  0  0  2  0  0  0  0  0  0
  -18.4250  -26.3310   22.0410 C   0  0  0  0  0  2  0  0  0  0  0  0
  -19.2860  -28.4520   23.1940 C   0  0  0  0  0  0  0  0  0  0  0  0
  -19.0200  -29.6960   23.8070 C   0  0  0  0  0  3  0  0  0  0  0  0
  -17.6970  -30.1500   23.9700 C   0  0  0  0  0  3  0  0  0  0  0  0
  -16.6230  -29.3550   23.5360 C   0  0  0  0  0  3  0  0  0  0  0  0
  -16.8740  -28.1130   22.9260 C   0  0  0  0  0  3  0  0  0  0  0  0
  -25.8360  -32.3790   23.8200 C   0  0  0  0  0  3  0  0  0  0  0  0
  -25.4680  -33.7620   24.1520 N   0  0  0  0  0  0  0  0  0  0  0  0
  -25.7760  -34.8300   23.4050 C   0  0  0  0  0  0  0  0  0  0  0  0
  -26.4710  -34.7590   22.3870 O   0  0  0  0  0  0  0  0  0  0  0  0
  -24.8510  -33.8880   24.9400 H   0  0  0  0  0  0  0  0  0  0  0  0
  -23.9880  -36.5570   23.0220 C   0  0  0  0  0  1  0  0  0  0  0  0
  -25.2250  -36.1960   23.8590 C   0  0  0  0  0  3  0  0  0  0  0  0
  -27.3060  -37.1550   24.7420 C   0  0  0  0  0  1  0  0  0  0  0  0
  -26.2200  -37.2880   23.7750 N   0  0  0  0  0  0  0  0  0  0  0  0
  -25.7750  -38.1910   23.9190 H   0  0  0  0  0  0  0  0  0  0  0  0
  -26.3650  -31.6180   25.0980 C   0  0  1  0  0  0  0  0  0  0  0  0
  -25.2660  -31.3280   26.1470 C   0  0  0  0  0  1  0  0  0  0  0  0
  -27.0070  -30.2680   24.7010 C   0  0  0  0  0  1  0  0  0  0  0  0
  -27.4730  -32.4510   25.7830 C   0  0  0  0  0  1  0  0  0  0  0  0
  -31.1990  -19.5400   21.7320 C   0  0  0  0  0  2  0  0  0  0  0  0
  -30.4260  -18.2110   21.9090 C   0  0  0  0  0  2  0  0  0  0  0  0
  -31.0940  -17.0440   21.1550 C   0  0  0  0  0  2  0  0  0  0  0  0
  -30.3920  -15.6750   21.3420 C   0  0  0  0  0  2  0  0  0  0  0  0
  -30.9990  -14.5510   20.4730 C   0  0  0  0  0  0  0  0  0  0  0  0
  -30.6540  -12.4700   19.1860 C   0  0  0  0  0  2  0  0  0  0  0  0
  -29.7150  -12.7480   17.9970 C   0  0  0  0  0  2  0  0  0  0  0  0
  -28.2400  -12.6140   18.4220 C   0  0  0  0  0  2  0  0  0  0  0  0
  -27.9190  -13.4030   19.7200 C   0  0  0  0  0  3  0  0  0  0  0  0
  -28.9700  -13.1110   20.8160 C   0  0  0  0  0  2  0  0  0  0  0  0
  -30.2990  -13.4050   20.2640 N   0  0  0  0  0  0  0  0  0  0  0  0
  -32.0890  -14.7580   19.9280 O   0  0  0  0  0  0  0  0  0  0  0  0
  -25.5080  -14.0150   20.3910 C   0  0  0  0  0  0  0  0  0  0  0  0
  -24.4370  -13.2450   20.7560 C   0  0  0  0  0  0  0  0  0  0  0  0
  -24.9010  -11.8940   20.7460 C   0  0  0  0  0  0  0  0  0  0  0  0
  -26.5590  -13.1330   20.1850 N   0  0  0  0  0  0  0  0  0  0  0  0
  -26.1950  -11.8530   20.4530 N   0  0  0  0  0  0  0  0  0  0  0  0
  -24.1750  -10.6320   20.9420 C   0  0  0  0  0  0  0  0  0  0  0  0
  -24.5830   -9.6890   21.9110 C   0  0  0  0  0  3  0  0  0  0  0  0
  -23.8590   -8.4920   22.0930 C   0  0  0  0  0  3  0  0  0  0  0  0
  -22.7130   -8.2280   21.3070 C   0  0  0  0  0  0  0  0  0  0  0  0
  -22.3250   -9.1590   20.3280 C   0  0  0  0  0  3  0  0  0  0  0  0
  -23.0500  -10.3490   20.1440 C   0  0  0  0  0  3  0  0  0  0  0  0
  -21.9630   -7.0800   21.3970 O   0  0  0  0  0  0  0  0  0  0  0  0
  -21.8500   -6.3850   22.5740 C   0  0  0  0  0  0  0  0  0  0  0  0
  -21.3550   -6.9860   23.7510 C   0  0  0  0  0  3  0  0  0  0  0  0
  -21.1910   -6.2160   24.9200 C   0  0  0  0  0  3  0  0  0  0  0  0
  -21.5110   -4.8460   24.9120 C   0  0  0  0  0  0  0  0  0  0  0  0
  -21.9980   -4.2430   23.7380 C   0  0  0  0  0  3  0  0  0  0  0  0
  -22.1640   -5.0100   22.5720 C   0  0  0  0  0  0  0  0  0  0  0  0
  -22.6140   -4.4200   21.4380 F   0  0  0  0  0  0  0  0  0  0  0  0
  -21.3450   -4.1030   26.0310 F   0  0  0  0  0  0  0  0  0  0  0  0
  -23.0350  -13.7210   21.0090 C   0  0  0  0  0  0  0  0  0  0  0  0
  -22.3030  -13.0360   21.8800 N   0  0  0  0  0  0  0  0  0  0  0  0
  -22.5980  -14.7370   20.4690 O   0  0  0  0  0  0  0  0  0  0  0  0
  -22.6680  -12.2140   22.3380 H   0  0  0  0  0  0  0  0  0  0  0  0
  -21.3620  -13.3380   22.0920 H   0  0  0  0  0  0  0  0  0  0  0  0
  -25.6730  -15.3840   20.1990 N   0  0  0  0  0  0  0  0  0  0  0  0
  -24.9070  -16.0410   20.2930 H   0  0  0  0  0  0  0  0  0  0  0  0
  -26.5330  -15.8210   19.8920 H   0  0  0  0  0  0  0  0  0  0  0  0
  2  1  1  0
  3  1  2  0
  4  6  2  0
  4  5  1  0
  5  2  2  0
  6  3  1  0
  7  5  1  0
  7  8  2  0
  9  7  1  0
 10 11  1  0
 10  9  1  0
 12 23  2  0
 13 11  1  0
 13 18  1  0
 14 22  1  0
 14 24  1  0
 15 21  1  0
 15 17  1  0
 16 22  1  0
 17 16  1  0
 18 17  2  0
 19 20  1  0
 19 13  2  0
 20 15  2  0
 21 14  1  0
 22 12  1  0
 24 26  2  0
 25 24  1  0
 27 25  1  0
 28 37  2  0
 28 33  1  0
 29 25  1  0
 29 33  1  0
 30 29  1  0
 31 32  1  0
 31 30  1  0
 32 28  1  0
 33 34  2  0
 34 35  1  0
 36 35  2  0
 37 36  1  0
 38 12  1  0
 38 39  1  0
 38 48  1  0
 39 42  1  0
 40 44  1  0
 40 39  1  0
 41 40  2  0
 44 43  1  0
 46 44  1  0
 46 47  1  0
 46 45  1  0
 48 51  1  1
 48 49  1  0
 50 48  1  0
 52 53  1  0
 52  6  1  0
 54 55  1  0
 54 53  1  0
 56 55  1  0
 57 62  1  0
 58 59  1  0
 58 57  1  0
 60 59  1  0
 60 67  1  0
 60 61  1  0
 62 56  1  0
 62 61  1  0
 63 56  2  0
 64 65  2  0
 65 84  1  0
 66 65  1  0
 66 69  1  0
 67 64  1  0
 67 68  1  0
 68 66  2  0
 69 70  1  0
 70 71  2  0
 72 75  1  0
 72 71  1  0
 73 72  2  0
 74 73  1  0
 74 69  2  0
 75 76  1  0
 76 77  1  0
 77 78  2  0
 79 78  1  0
 79 83  1  0
 80 79  2  0
 81 76  2  0
 81 80  1  0
 82 81  1  0
 84 85  1  0
 85 88  1  0
 85 87  1  0
 86 84  2  0
 89 90  1  0
 89 64  1  0
 91 89  1  0
M  ISO  4  10 101  11 101  55 100  56 100
M  END
>  <TORSDO>  (68) 
F 23

>  <SCORE>  (68) 
-12.153

>  <name>  (68) 
67

>  <ligand_id>  (68) 
67

>  <original_smiles>  (68) 
[H]c1c([H])c(C(=O)C([H])([H])C([H])([H])Oc2c([H])c([H])c3c(c2[H])C([H])([H])N(C(=O)C([H])(N([H])C(=O)C([H])(N([H])C([H])([H])[H])C([H])([H])[H])C(C([H])([H])[H])(C([H])([H])[H])C([H])([H])[H])C([H])(C(=O)N([H])C2([H])c4c([H])c([H])c([H])c([H])c4C([H])([H])C([H])([H])C2([H])[H])C3([H])[H])c([H])c(C([H])([H])C([H])([H])C([H])([H])C([H])([H])C(=O)N2C([H])([H])C([H])([H])C([H])([H])C([H])(n3nc(-c4c([H])c([H])c(Oc5c([H])c([H])c(F)c([H])c5F)c([H])c4[H])c(C(=O)N([H])[H])c3N([H])[H])C2([H])[H])c1[H]

>  <smiles>  (68) 
[H]c1c([H])c(C(=O)C([H])([H])C([H])([H])Oc2c([H])c([H])c3c(c2[H])C([H])([H])N(C(=O)C([H])(N([H])C(=O)C([H])(N([H])C([H])([H])[H])C([H])([H])[H])C(C([H])([H])[H])(C([H])([H])[H])C([H])([H])[H])C([H])(C(=O)N([H])C2([H])c4c([H])c([H])c([H])c([H])c4C([H])([H])C([H])([H])C2([H])[H])C3([H])[H])c([H])c(C([H])([H])C([H])([H])C([H])([H])C([H])([H])C(=O)N2C([H])([H])C([H])([H])C([H])([H])C([H])(n3nc(-c4c([H])c([H])c(Oc5c([H])c([H])c(F)c([H])c5F)c([H])c4[H])c(C(=O)N([H])[H])c3N([H])[H])C2([H])[H])c1[H]

$$$$
68:0:0
     RDKit          3D

 95 95  0  0  1  0  0  0  0  0999 V2000
  -27.5600  -20.3780   20.5170 C   0  0  0  0  0  3  0  0  0  0  0  0
  -27.6300  -21.8040   20.5910 C   0  0  0  0  0  3  0  0  0  0  0  0
  -28.6440  -21.8480   18.4050 C   0  0  0  0  0  3  0  0  0  0  0  0
  -28.0020  -19.6580   19.3680 C   0  0  0  0  0  0  0  0  0  0  0  0
  -28.1530  -22.5680   19.5170 C   0  0  0  0  0  0  0  0  0  0  0  0
  -28.5700  -20.4410   18.3250 C   0  0  0  0  0  0  0  0  0  0  0  0
  -29.0380  -19.8670   17.1900 F   0  0  0  0  0  0  0  0  0  0  0  0
  -27.8680  -18.1420   19.1750 C   0  0  0  0  0  0  0  0  0  0  0  0
  -28.0420  -17.6030   18.0790 O   0  0  0  0  0  0  0  0  0  0  0  0
  -27.4920  -17.1630   20.3310 C   0  0  0  0  0  2  0  0  0  0  0  0
  -31.1350  -12.4370   20.0460 C   0  0  0  0  0  0  0  0  0  0  0  0
  -31.5900  -11.0780   19.3810 C   0  0  0  0  0  1  0  0  0  0  0  0
  -30.8910  -11.7960   17.7890 C   0  0  0  0  0  1  0  0  0  0  0  0
  -30.1800  -13.4320   17.9450 C   0  0  0  0  0  2  0  0  0  0  0  0
  -29.4810  -13.9880   19.6710 C   0  0  0  0  0  1  0  0  0  0  0  0
  -30.8680  -13.6500   20.9510 C   0  0  0  0  0  1  0  0  0  0  0  0
  -31.5580  -12.0530   20.8460 N   0  0  0  0  0  1  0  0  0  0  0  0
  -32.2130  -13.1820   19.3580 O   0  0  0  0  0  1  0  0  0  0  0  0
  -28.5210  -14.6000   21.8190 C   0  0  0  0  0 15  0  0  0  0  0  0
  -27.6610  -14.3570   18.3470 C   0  0  0  0  0 15  0  0  0  0  0  0
  -28.9790  -12.5650   21.7890 C   0  0  0  0  0  1  0  0  0  0  0  0
  -28.3020  -12.2100   18.5990 C   0  0  0  0  0 15  0  0  0  0  0  0
  -27.9790  -15.6370   20.1480 C   0  0  0  0  0  1  0  0  0  0  0  0
  -29.5070  -11.8310   20.1490 N   0  0  0  0  0  1  0  0  0  0  0  0
  -26.0040  -13.9170   20.5310 C   0  0  0  0  0  0  0  0  0  0  0  0
  -25.0260  -13.1240   20.9850 C   0  0  0  0  0  0  0  0  0  0  0  0
  -25.4720  -11.8190   20.8280 C   0  0  0  0  0  0  0  0  0  0  0  0
  -27.2860  -13.2750   20.3450 N   0  0  0  0  0  2  0  0  0  0  0  0
  -26.7500  -11.9070   20.5310 N   0  0  0  0  0  0  0  0  0  0  0  0
  -24.6980  -10.5670   20.9000 C   0  0  0  0  0  0  0  0  0  0  0  0
  -24.9770   -9.5390   21.8260 C   0  0  0  0  0  3  0  0  0  0  0  0
  -24.1090   -8.4260   21.9420 C   0  0  0  0  0  3  0  0  0  0  0  0
  -22.9510   -8.3330   21.1300 C   0  0  0  0  0  0  0  0  0  0  0  0
  -22.7020   -9.3400   20.1820 C   0  0  0  0  0  3  0  0  0  0  0  0
  -23.5700  -10.4360   20.0620 C   0  0  0  0  0  3  0  0  0  0  0  0
  -22.0590   -7.2880   21.1590 O   0  0  0  0  0  0  0  0  0  0  0  0
  -21.7420   -6.6410   22.3260 C   0  0  0  0  0  0  0  0  0  0  0  0
  -21.1820   -7.3210   23.4280 C   0  0  0  0  0  3  0  0  0  0  0  0
  -20.8090   -6.6050   24.5840 C   0  0  0  0  0  3  0  0  0  0  0  0
  -20.9870   -5.2090   24.6370 C   0  0  0  0  0  0  0  0  0  0  0  0
  -21.5410   -4.5290   23.5370 C   0  0  0  0  0  3  0  0  0  0  0  0
  -21.9120   -5.2420   22.3840 C   0  0  0  0  0  0  0  0  0  0  0  0
  -22.4210   -4.5780   21.3190 F   0  0  0  0  0  0  0  0  0  0  0  0
  -20.6260   -4.5200   25.7440 F   0  0  0  0  0  0  0  0  0  0  0  0
  -23.6600  -13.6150   21.3470 C   0  0  0  0  0  0  0  0  0  0  0  0
  -23.0260  -12.9470   22.2860 N   0  0  0  0  0  0  0  0  0  0  0  0
  -23.1820  -14.6540   20.8790 O   0  0  0  0  0  0  0  0  0  0  0  0
  -23.4330  -12.1220   22.7040 H   0  0  0  0  0  0  0  0  0  0  0  0
  -22.1230  -13.2730   22.6000 H   0  0  0  0  0  0  0  0  0  0  0  0
  -25.6280  -15.2030   20.2030 N   0  0  0  0  0  0  0  0  0  0  0  0
  -24.6520  -15.4870   20.2650 H   0  0  0  0  0  0  0  0  0  0  0  0
  -26.2230  -15.8150   19.6590 H   0  0  0  0  0  0  0  0  0  0  0  0
  -28.0250  -24.1120   19.3800 C   0  0  0  0  0  3  0  0  0  0  0  0
  -28.7300  -25.1490   20.3300 C   0  0  0  0  0  3  0  0  0  0  0  0
  -28.7660  -26.5860   19.9730 O   0  0  0  0  0  0  0  0  0  0  0  0
  -24.6850  -31.6130   23.1390 C   0  0  0  0  0  0  0  0  0  0  0  0
  -27.6020  -27.3490   19.9810 C   0  0  0  0  0  0  0  0  0  0  0  0
  -23.6010  -30.2080   21.4240 C   0  0  0  0  0  3  0  0  0  0  0  0
  -25.1660  -28.8150   19.9830 C   0  0  0  0  0  0  0  0  0  0  0  0
  -26.1230  -30.6800   21.3220 C   0  0  0  0  0  2  0  0  0  0  0  0
  -26.2900  -29.3350   20.6370 C   0  0  0  0  0  0  0  0  0  0  0  0
  -27.5140  -28.6090   20.6410 C   0  0  0  0  0  3  0  0  0  0  0  0
  -26.4730  -26.9200   19.2560 C   0  0  0  0  0  3  0  0  0  0  0  0
  -25.2540  -27.6060   19.2880 C   0  0  0  0  0  3  0  0  0  0  0  0
  -23.8840  -29.6110   20.0250 C   0  0  0  0  0  2  0  0  0  0  0  0
  -24.8200  -30.8500   22.0180 N   0  0  0  0  0  0  0  0  0  0  0  0
  -23.5750  -31.8070   23.6550 O   0  0  0  0  0  0  0  0  0  0  0  0
  -22.9870  -29.1110   22.3240 C   0  0  0  0  0  0  0  0  0  0  0  0
  -21.6810  -28.8500   22.1520 N   0  0  0  0  0  0  0  0  0  0  0  0
  -23.6840  -28.5020   23.1410 O   0  0  0  0  0  0  0  0  0  0  0  0
  -21.1750  -29.4020   21.4730 H   0  0  0  0  0  0  0  0  0  0  0  0
  -18.3700  -27.4450   22.5280 C   0  0  0  0  0  0  0  0  0  0  0  0
  -20.9020  -27.8380   22.8690 C   0  0  0  0  0  3  0  0  0  0  0  0
  -21.0990  -26.4360   22.2450 C   0  0  0  0  0  2  0  0  0  0  0  0
  -20.0400  -26.0890   21.1950 C   0  0  0  0  0  2  0  0  0  0  0  0
  -18.6390  -26.1320   21.8110 C   0  0  0  0  0  2  0  0  0  0  0  0
  -19.4340  -28.2520   23.0110 C   0  0  0  0  0  0  0  0  0  0  0  0
  -19.1310  -29.4770   23.6430 C   0  0  0  0  0  3  0  0  0  0  0  0
  -17.7960  -29.9000   23.7930 C   0  0  0  0  0  3  0  0  0  0  0  0
  -16.7470  -29.0890   23.3240 C   0  0  0  0  0  3  0  0  0  0  0  0
  -17.0340  -27.8620   22.6990 C   0  0  0  0  0  3  0  0  0  0  0  0
  -25.9140  -32.2970   23.8090 C   0  0  0  0  0  3  0  0  0  0  0  0
  -26.4230  -31.5320   25.0910 C   0  0  1  0  0  0  0  0  0  0  0  0
  -25.3090  -31.2200   26.1160 C   0  0  0  0  0  1  0  0  0  0  0  0
  -27.0900  -30.1920   24.7010 C   0  0  0  0  0  1  0  0  0  0  0  0
  -27.5080  -32.3740   25.8040 C   0  0  0  0  0  1  0  0  0  0  0  0
  -25.5230  -33.6730   24.1430 N   0  0  0  0  0  0  0  0  0  0  0  0
  -25.8640  -34.7560   23.4320 C   0  0  0  0  0  0  0  0  0  0  0  0
  -26.6120  -34.7040   22.4510 O   0  0  0  0  0  0  0  0  0  0  0  0
  -24.8670  -33.7830   24.9030 H   0  0  0  0  0  0  0  0  0  0  0  0
  -24.1090  -36.4970   22.9730 C   0  0  0  0  0  1  0  0  0  0  0  0
  -25.2870  -36.1130   23.8810 C   0  0  0  0  0  3  0  0  0  0  0  0
  -27.3010  -37.0520   24.9260 C   0  0  0  0  0  1  0  0  0  0  0  0
  -26.2860  -37.2030   23.8860 N   0  0  0  0  0  0  0  0  0  0  0  0
  -25.8360  -38.1050   24.0140 H   0  0  0  0  0  0  0  0  0  0  0  0
  1  2  1  0
  3  5  1  0
  4  1  2  0
  5  2  2  0
  6  3  2  0
  6  4  1  0
  7  6  1  0
  8  4  1  0
  8 10  1  0
  9  8  2  0
 11 17  1  0
 11 16  1  0
 12 11  1  0
 13 14  1  0
 14 15  1  0
 18 11  1  0
 23 10  1  0
 24 21  1  0
 25 26  2  0
 26 45  1  0
 27 30  1  0
 27 26  1  0
 28 25  1  0
 28 29  1  0
 29 27  2  0
 30 31  1  0
 31 32  2  0
 33 36  1  0
 33 32  1  0
 34 33  2  0
 35 34  1  0
 35 30  2  0
 36 37  1  0
 37 42  2  0
 37 38  1  0
 38 39  2  0
 39 40  1  0
 40 44  1  0
 41 40  2  0
 42 41  1  0
 43 42  1  0
 45 46  1  0
 46 49  1  0
 46 48  1  0
 47 45  2  0
 50 51  1  0
 50 25  1  0
 52 50  1  0
 53  5  1  0
 53 54  2  0
 55 57  1  0
 55 54  1  0
 56 67  2  0
 57 62  1  0
 58 66  1  0
 58 68  1  0
 59 65  1  0
 59 61  1  0
 60 66  1  0
 61 62  2  0
 61 60  1  0
 63 64  1  0
 63 57  2  0
 64 59  2  0
 65 58  1  0
 66 56  1  0
 68 70  2  0
 69 68  1  0
 71 69  1  0
 72 81  2  0
 72 77  1  0
 73 69  1  0
 73 77  1  0
 74 73  1  0
 75 76  1  0
 75 74  1  0
 76 72  1  0
 77 78  2  0
 78 79  1  0
 80 79  2  0
 81 80  1  0
 82 56  1  0
 82 87  1  0
 82 83  1  0
 83 86  1  1
 83 84  1  0
 85 83  1  0
 87 90  1  0
 88 92  1  0
 88 87  1  0
 89 88  2  0
 92 91  1  0
 92 94  1  0
 94 95  1  0
 94 93  1  0
M  ISO  4  11 100  24 100  54 101  55 101
M  END
>  <TORSDO>  (69) 
F 20

>  <SCORE>  (69) 
-11.111

>  <name>  (69) 
68

>  <ligand_id>  (69) 
68

>  <original_smiles>  (69) 
[H]c1c([H])c([H])c2c(c1[H])C([H])([H])C([H])([H])C([H])([H])C2([H])N([H])C(=O)C1([H])N(C(=O)C([H])(N([H])C(=O)C([H])(N([H])C([H])([H])[H])C([H])([H])[H])C(C([H])([H])[H])(C([H])([H])[H])C([H])([H])[H])C([H])([H])c2c([H])c(OC([H])([H])C([H])([H])c3c([H])c([H])c(C(=O)C([H])([H])C4([H])C([H])([H])C([H])([H])N(C(=O)N5C([H])([H])C([H])([H])C([H])([H])C([H])(n6nc(-c7c([H])c([H])c(Oc8c([H])c([H])c(F)c([H])c8F)c([H])c7[H])c(C(=O)N([H])[H])c6N([H])[H])C5([H])[H])C([H])([H])C4([H])[H])c(F)c3[H])c([H])c([H])c2C1([H])[H]

>  <smiles>  (69) 
[H]c1c([H])c([H])c2c(c1[H])C([H])([H])C([H])([H])C([H])([H])C2([H])N([H])C(=O)C1([H])N(C(=O)C([H])(N([H])C(=O)C([H])(N([H])C([H])([H])[H])C([H])([H])[H])C(C([H])([H])[H])(C([H])([H])[H])C([H])([H])[H])C([H])([H])c2c([H])c(OC([H])([H])C([H])([H])c3c([H])c([H])c(C(=O)C([H])([H])C4([H])C([H])([H])C([H])([H])N(C(=O)N5C([H])([H])C([H])([H])C([H])([H])C([H])(n6nc(-c7c([H])c([H])c(Oc8c([H])c([H])c(F)c([H])c8F)c([H])c7[H])c(C(=O)N([H])[H])c6N([H])[H])C5([H])[H])C([H])([H])C4([H])[H])c(F)c3[H])c([H])c([H])c2C1([H])[H]

$$$$
69:0:0
     RDKit          3D

 98106  0  0  1  0  0  0  0  0999 V2000
  -29.9070  -22.1930   21.8330 C   0  0  0  0  0  3  0  0  0  0  0  0
  -28.4860  -18.6980   20.9440 C   0  0  0  0  0  3  0  0  0  0  0  0
  -30.8780  -18.7490   20.4980 C   0  0  0  0  0  3  0  0  0  0  0  0
  -28.5580  -20.0370   21.4020 C   0  0  0  0  0  3  0  0  0  0  0  0
  -30.9510  -20.0690   20.9540 C   0  0  0  0  0  3  0  0  0  0  0  0
  -29.6510  -18.0550   20.4760 C   0  0  0  0  0  0  0  0  0  0  0  0
  -29.7920  -20.7330   21.3990 C   0  0  0  0  0  0  0  0  0  0  0  0
  -29.7780  -15.5560   20.6170 C   0  0  0  0  0  2  0  0  0  0  0  0
  -29.7210  -16.7080   19.9070 C   0  0  0  0  0  3  0  0  0  0  0  0
  -30.3480  -14.3820   19.9740 C   0  0  0  0  0  0  0  0  0  0  0  0
  -30.0130  -12.1680   18.9890 C   0  0  0  0  0  2  0  0  0  0  0  0
  -29.0150  -12.2860   17.8230 C   0  0  0  0  0  2  0  0  0  0  0  0
  -27.5810  -12.0830   18.3450 C   0  0  0  0  0  2  0  0  0  0  0  0
  -27.2640  -12.9610   19.5880 C   0  0  0  0  0  3  0  0  0  0  0  0
  -28.3950  -12.9150   20.6420 C   0  0  0  0  0  2  0  0  0  0  0  0
  -29.6690  -13.2050   19.9760 N   0  0  0  0  0  0  0  0  0  0  0  0
  -31.4110  -14.5130   19.3650 O   0  0  0  0  0  0  0  0  0  0  0  0
  -24.9200  -13.4300   20.5330 C   0  0  0  0  0  0  0  0  0  0  0  0
  -23.9170  -12.5980   20.9540 C   0  0  0  0  0  0  0  0  0  0  0  0
  -24.4240  -11.2680   20.8250 C   0  0  0  0  0  0  0  0  0  0  0  0
  -25.9730  -12.6060   20.1710 N   0  0  0  0  0  0  0  0  0  0  0  0
  -25.6830  -11.2970   20.4030 N   0  0  0  0  0  0  0  0  0  0  0  0
  -23.7650   -9.9700   21.0210 C   0  0  0  0  0  0  0  0  0  0  0  0
  -24.2610   -9.0210   21.9420 C   0  0  0  0  0  3  0  0  0  0  0  0
  -23.6000   -7.7880   22.1270 C   0  0  0  0  0  3  0  0  0  0  0  0
  -22.4280   -7.4940   21.3900 C   0  0  0  0  0  0  0  0  0  0  0  0
  -21.9510   -8.4320   20.4580 C   0  0  0  0  0  3  0  0  0  0  0  0
  -22.6130   -9.6560   20.2720 C   0  0  0  0  0  3  0  0  0  0  0  0
  -21.7330   -6.3110   21.4840 O   0  0  0  0  0  0  0  0  0  0  0  0
  -21.6550   -5.6140   22.6640 C   0  0  0  0  0  0  0  0  0  0  0  0
  -21.1020   -6.1830   23.8320 C   0  0  0  0  0  3  0  0  0  0  0  0
  -20.9790   -5.4080   25.0020 C   0  0  0  0  0  3  0  0  0  0  0  0
  -21.3980   -4.0630   25.0030 C   0  0  0  0  0  0  0  0  0  0  0  0
  -21.9410   -3.4940   23.8390 C   0  0  0  0  0  3  0  0  0  0  0  0
  -22.0680   -4.2670   22.6720 C   0  0  0  0  0  0  0  0  0  0  0  0
  -22.5740   -3.7060   21.5460 F   0  0  0  0  0  0  0  0  0  0  0  0
  -21.2710   -3.3160   26.1240 F   0  0  0  0  0  0  0  0  0  0  0  0
  -22.5320  -13.0080   21.3650 C   0  0  0  0  0  0  0  0  0  0  0  0
  -21.9140  -12.2590   22.2730 N   0  0  0  0  0  0  0  0  0  0  0  0
  -22.0050  -14.0240   20.9150 O   0  0  0  0  0  0  0  0  0  0  0  0
  -22.3530  -11.4360   22.6610 H   0  0  0  0  0  0  0  0  0  0  0  0
  -20.9880  -12.5150   22.5840 H   0  0  0  0  0  0  0  0  0  0  0  0
  -25.0170  -14.8120   20.4070 N   0  0  0  0  0  0  0  0  0  0  0  0
  -24.2380  -15.4300   20.6060 H   0  0  0  0  0  0  0  0  0  0  0  0
  -25.8290  -15.2990   20.0510 H   0  0  0  0  0  0  0  0  0  0  0  0
  -29.8180  -16.7440   18.5670 O   0  0  0  0  0  0  0  0  0  0  0  0
  -29.7840  -17.6580   18.3090 H   0  0  0  0  0  0  0  0  0  0  0  0
  -30.3080  -23.0280   20.5870 C   0  0  0  0  0  2  0  0  0  0  0  0
  -30.6430  -24.5150   20.7960 C   0  0  0  0  0  2  0  0  0  0  0  0
  -30.6240  -25.3040   19.4720 C   0  0  0  0  0  2  0  0  0  0  0  0
  -29.2290  -25.8250   19.1000 C   0  0  0  0  0  2  0  0  0  0  0  0
  -28.9270  -26.8400   20.0440 O   0  0  0  0  0  0  0  0  0  0  0  0
  -24.7920  -31.6200   23.2140 C   0  0  0  0  0  0  0  0  0  0  0  0
  -27.7040  -27.4620   20.0030 C   0  0  0  0  0  0  0  0  0  0  0  0
  -23.7010  -30.2890   21.4340 C   0  0  0  0  0  3  0  0  0  0  0  0
  -25.2580  -28.8730   19.9970 C   0  0  0  0  0  0  0  0  0  0  0  0
  -26.2170  -30.7240   21.3790 C   0  0  0  0  0  2  0  0  0  0  0  0
  -26.3670  -29.3980   20.6700 C   0  0  0  0  0  0  0  0  0  0  0  0
  -27.5850  -28.6920   20.6820 C   0  0  0  0  0  3  0  0  0  0  0  0
  -26.5770  -26.9370   19.3290 C   0  0  0  0  0  3  0  0  0  0  0  0
  -25.3550  -27.6380   19.3260 C   0  0  0  0  0  3  0  0  0  0  0  0
  -23.9910  -29.6950   20.0300 C   0  0  0  0  0  2  0  0  0  0  0  0
  -24.9180  -30.8890   22.0700 N   0  0  0  0  0  0  0  0  0  0  0  0
  -23.6800  -31.8350   23.7160 O   0  0  0  0  0  0  0  0  0  0  0  0
  -23.0340  -29.1990   22.3030 C   0  0  0  0  0  0  0  0  0  0  0  0
  -21.7150  -29.0210   22.1270 N   0  0  0  0  0  0  0  0  0  0  0  0
  -23.7000  -28.5190   23.0880 O   0  0  0  0  0  0  0  0  0  0  0  0
  -21.2390  -29.6230   21.4690 H   0  0  0  0  0  0  0  0  0  0  0  0
  -18.3290  -27.8150   22.4820 C   0  0  0  0  0  0  0  0  0  0  0  0
  -20.8850  -28.0260   22.8040 C   0  0  0  0  0  3  0  0  0  0  0  0
  -20.9840  -26.6500   22.1070 C   0  0  0  0  0  2  0  0  0  0  0  0
  -19.8930  -26.4250   21.0560 C   0  0  0  0  0  2  0  0  0  0  0  0
  -18.5040  -26.5270   21.6950 C   0  0  0  0  0  2  0  0  0  0  0  0
  -19.4480  -28.5260   22.9890 C   0  0  0  0  0  0  0  0  0  0  0  0
  -19.2340  -29.7360   23.6840 C   0  0  0  0  0  3  0  0  0  0  0  0
  -17.9330  -30.2360   23.8760 C   0  0  0  0  0  3  0  0  0  0  0  0
  -16.8270  -29.5190   23.3860 C   0  0  0  0  0  3  0  0  0  0  0  0
  -17.0250  -28.3100   22.6960 C   0  0  0  0  0  3  0  0  0  0  0  0
  -26.0320  -32.2410   23.9300 C   0  0  0  0  0  3  0  0  0  0  0  0
  -26.4870  -31.4270   25.2040 C   0  0  1  0  0  0  0  0  0  0  0  0
  -25.3390  -31.1390   26.1990 C   0  0  0  0  0  1  0  0  0  0  0  0
  -27.1080  -30.0720   24.7930 C   0  0  0  0  0  1  0  0  0  0  0  0
  -27.5880  -32.2070   25.9580 C   0  0  0  0  0  1  0  0  0  0  0  0
  -25.6870  -33.6220   24.2910 N   0  0  0  0  0  0  0  0  0  0  0  0
  -26.0430  -34.7030   23.5830 C   0  0  0  0  0  0  0  0  0  0  0  0
  -26.7670  -34.6410   22.5850 O   0  0  0  0  0  0  0  0  0  0  0  0
  -25.0490  -33.7430   25.0630 H   0  0  0  0  0  0  0  0  0  0  0  0
  -24.2990  -36.4750   23.2030 C   0  0  0  0  0  1  0  0  0  0  0  0
  -25.5120  -36.0700   24.0560 C   0  0  0  0  0  3  0  0  0  0  0  0
  -27.5880  -36.9720   25.0080 C   0  0  0  0  0  1  0  0  0  0  0  0
  -26.5290  -37.1430   24.0170 N   0  0  0  0  0  0  0  0  0  0  0  0
  -26.1000  -38.0520   24.1650 H   0  0  0  0  0  0  0  0  0  0  0  0
  -30.8860  -22.3240   23.0360 C   0  0  0  0  0  2  0  0  0  0  0  0
  -30.2250  -22.5910   24.4050 C   0  0  0  0  0  2  0  0  0  0  0  0
  -29.4180  -23.8230   24.4490 N   0  0  0  0  0  4  0  0  0  0  0  0
  -29.9800  -24.6320   24.2470 H   0  0  0  0  0  0  0  0  0  0  0  0
  -29.0430  -23.9380   25.3760 H   0  0  0  0  0  0  0  0  0  0  0  0
  -28.6450  -23.7820   23.8100 H   0  0  0  0  0  0  0  0  0  0  0  0
  1 48  1  0
  1 93  1  0
  2  4  1  0
  3  5  2  0
  5  7  1  0
  6  3  1  0
  6  2  2  0
  7  4  2  0
  7  1  1  0
  9  6  1  0
  9  8  1  0
 10 16  1  0
 10  8  1  0
 11 16  1  0
 12 13  1  0
 12 11  1  0
 14 13  1  0
 14 21  1  0
 14 15  1  0
 16 15  1  0
 17 10  2  0
 18 19  2  0
 19 38  1  0
 20 19  1  0
 20 23  1  0
 21 22  1  0
 21 18  1  0
 22 20  2  0
 23 24  1  0
 24 25  2  0
 26 29  1  0
 26 25  1  0
 27 26  2  0
 28 27  1  0
 28 23  2  0
 29 30  1  0
 30 35  2  0
 30 31  1  0
 31 32  2  0
 32 33  1  0
 33 37  1  0
 34 33  2  0
 35 34  1  0
 36 35  1  0
 38 39  1  0
 39 42  1  0
 39 41  1  0
 40 38  2  0
 43 18  1  0
 43 44  1  0
 45 43  1  0
 46  9  1  0
 47 46  1  0
 48 49  1  0
 50 49  1  0
 51 50  1  0
 51 52  1  0
 53 64  2  0
 54 52  1  0
 54 59  1  0
 55 63  1  0
 55 65  1  0
 56 62  1  0
 56 58  1  0
 57 63  1  0
 58 59  2  0
 58 57  1  0
 60 54  2  0
 61 60  1  0
 61 56  2  0
 62 55  1  0
 63 53  1  0
 65 67  2  0
 66 65  1  0
 68 66  1  0
 69 78  2  0
 69 74  1  0
 70 66  1  0
 70 74  1  0
 71 70  1  0
 72 73  1  0
 72 71  1  0
 73 69  1  0
 74 75  2  0
 75 76  1  0
 77 76  2  0
 78 77  1  0
 79 53  1  0
 79 84  1  0
 79 80  1  0
 80 83  1  1
 80 81  1  0
 82 80  1  0
 84 87  1  0
 85 89  1  0
 85 84  1  0
 86 85  2  0
 89 88  1  0
 91 89  1  0
 91 92  1  0
 91 90  1  0
 93 94  1  0
 94 95  1  0
 95 97  1  0
 96 95  1  0
 98 95  1  0
M  ISO  4   8 100  10 100  51 101  52 101
M  END
>  <TORSDO>  (70) 
F 26

>  <SCORE>  (70) 
-10.233

>  <name>  (70) 
69

>  <ligand_id>  (70) 
69

>  <original_smiles>  (70) 
[H]OC(=C([H])C(=O)N1C([H])([H])C([H])([H])C([H])([H])C([H])(n2nc(-c3c([H])c([H])c(Oc4c([H])c([H])c(F)c([H])c4F)c([H])c3[H])c(C(=O)N([H])[H])c2N([H])[H])C1([H])[H])c1c([H])c([H])c(C([H])(C([H])([H])C([H])([H])C([H])([H])C([H])([H])Oc2c([H])c([H])c3c(c2[H])C([H])([H])N(C(=O)C([H])(N([H])C(=O)C([H])(N([H])C([H])([H])[H])C([H])([H])[H])C(C([H])([H])[H])(C([H])([H])[H])C([H])([H])[H])C([H])(C(=O)N([H])C2([H])c4c([H])c([H])c([H])c([H])c4C([H])([H])C([H])([H])C2([H])[H])C3([H])[H])C([H])([H])C([H])([H])[N+]([H])([H])[H])c([H])c1[H]

>  <smiles>  (70) 
[H]OC(=C([H])C(=O)N1C([H])([H])C([H])([H])C([H])([H])C([H])(n2nc(-c3c([H])c([H])c(Oc4c([H])c([H])c(F)c([H])c4F)c([H])c3[H])c(C(=O)N([H])[H])c2N([H])[H])C1([H])[H])c1c([H])c([H])c(C([H])(C([H])([H])C([H])([H])C([H])([H])C([H])([H])Oc2c([H])c([H])c3c(c2[H])C([H])([H])N(C(=O)C([H])(N([H])C(=O)C([H])(N([H])C([H])([H])[H])C([H])([H])[H])C(C([H])([H])[H])(C([H])([H])[H])C([H])([H])[H])C([H])(C(=O)N([H])C2([H])c4c([H])c([H])c([H])c([H])c4C([H])([H])C([H])([H])C2([H])[H])C3([H])[H])C([H])([H])C([H])([H])[N+]([H])([H])[H])c([H])c1[H]

$$$$
70:0:0
     RDKit          3D

 92100  0  0  1  0  0  0  0  0999 V2000
  -30.1950  -22.2720   20.6810 C   0  0  0  0  0  3  0  0  0  0  0  0
  -30.1470  -22.0770   23.1030 C   0  0  0  0  0  3  0  0  0  0  0  0
  -30.4740  -20.8970   20.5750 C   0  0  0  0  0  3  0  0  0  0  0  0
  -30.4300  -20.7000   23.0000 C   0  0  0  0  0  3  0  0  0  0  0  0
  -29.9910  -22.8710   21.9460 C   0  0  0  0  0  0  0  0  0  0  0  0
  -30.5710  -20.0990   21.7330 C   0  0  0  0  0  0  0  0  0  0  0  0
  -29.5880  -24.2810   22.0910 C   0  0  0  0  0  3  0  0  0  0  0  0
  -29.7480  -25.2460   21.1660 C   0  0  0  0  0  3  0  0  0  0  0  0
  -29.2350  -26.6650   21.2930 C   0  0  0  0  0  2  0  0  0  0  0  0
  -28.6660  -27.0510   20.0460 O   0  0  0  0  0  0  0  0  0  0  0  0
  -24.6770  -31.9770   23.3000 C   0  0  0  0  0  0  0  0  0  0  0  0
  -27.4910  -27.7530   20.1130 C   0  0  0  0  0  0  0  0  0  0  0  0
  -23.5240  -30.5850   21.6080 C   0  0  0  0  0  3  0  0  0  0  0  0
  -25.0400  -29.1420   20.1500 C   0  0  0  0  0  0  0  0  0  0  0  0
  -26.0300  -31.0450   21.4340 C   0  0  0  0  0  2  0  0  0  0  0  0
  -26.1700  -29.6960   20.7650 C   0  0  0  0  0  0  0  0  0  0  0  0
  -27.3970  -29.0050   20.7560 C   0  0  0  0  0  3  0  0  0  0  0  0
  -26.3560  -27.2070   19.4840 C   0  0  0  0  0  3  0  0  0  0  0  0
  -25.1240  -27.8910   19.5090 C   0  0  0  0  0  3  0  0  0  0  0  0
  -23.7650  -29.9520   20.2100 C   0  0  0  0  0  2  0  0  0  0  0  0
  -24.7600  -31.2150   22.1740 N   0  0  0  0  0  0  0  0  0  0  0  0
  -23.5850  -32.1970   23.8440 O   0  0  0  0  0  0  0  0  0  0  0  0
  -22.9050  -29.5140   22.5340 C   0  0  0  0  0  0  0  0  0  0  0  0
  -21.5940  -29.2690   22.3710 N   0  0  0  0  0  0  0  0  0  0  0  0
  -23.5990  -28.9060   23.3520 O   0  0  0  0  0  0  0  0  0  0  0  0
  -21.0930  -29.8160   21.6840 H   0  0  0  0  0  0  0  0  0  0  0  0
  -18.2800  -27.8830   22.7370 C   0  0  0  0  0  0  0  0  0  0  0  0
  -20.8070  -28.2780   23.1020 C   0  0  0  0  0  3  0  0  0  0  0  0
  -21.0090  -26.8630   22.5140 C   0  0  0  0  0  2  0  0  0  0  0  0
  -19.9640  -26.4920   21.4590 C   0  0  0  0  0  2  0  0  0  0  0  0
  -18.5550  -26.5520   22.0550 C   0  0  0  0  0  2  0  0  0  0  0  0
  -19.3380  -28.7000   23.2140 C   0  0  0  0  0  0  0  0  0  0  0  0
  -19.0300  -29.9430   23.8070 C   0  0  0  0  0  3  0  0  0  0  0  0
  -17.6950  -30.3710   23.9310 C   0  0  0  0  0  3  0  0  0  0  0  0
  -16.6500  -29.5510   23.4720 C   0  0  0  0  0  3  0  0  0  0  0  0
  -16.9420  -28.3080   22.8820 C   0  0  0  0  0  3  0  0  0  0  0  0
  -25.9410  -32.6290   23.9440 C   0  0  0  0  0  3  0  0  0  0  0  0
  -25.6090  -34.0260   24.2550 N   0  0  0  0  0  0  0  0  0  0  0  0
  -25.9330  -35.0720   23.4850 C   0  0  0  0  0  0  0  0  0  0  0  0
  -26.6160  -34.9670   22.4620 O   0  0  0  0  0  0  0  0  0  0  0  0
  -25.0090  -34.1810   25.0510 H   0  0  0  0  0  0  0  0  0  0  0  0
  -24.1790  -36.8290   23.0850 C   0  0  0  0  0  1  0  0  0  0  0  0
  -25.4180  -36.4580   23.9170 C   0  0  0  0  0  3  0  0  0  0  0  0
  -27.5210  -37.3940   24.7710 C   0  0  0  0  0  1  0  0  0  0  0  0
  -26.4340  -37.5260   23.8030 N   0  0  0  0  0  0  0  0  0  0  0  0
  -26.0110  -38.4420   23.9290 H   0  0  0  0  0  0  0  0  0  0  0  0
  -26.4450  -31.8710   25.2340 C   0  0  1  0  0  0  0  0  0  0  0  0
  -25.3300  -31.6010   26.2680 C   0  0  0  0  0  1  0  0  0  0  0  0
  -27.0760  -30.5110   24.8540 C   0  0  0  0  0  1  0  0  0  0  0  0
  -27.5520  -32.6960   25.9300 C   0  0  0  0  0  1  0  0  0  0  0  0
  -30.7680  -18.5900   21.6070 C   0  0  0  0  0  2  0  0  0  0  0  0
  -33.2240  -19.1420   21.4700 C   0  0  0  0  0  1  0  0  0  0  0  0
  -32.1770  -18.0950   21.5940 N   0  0  2  0  0  4  0  0  0  0  0  0
  -32.3310  -17.6930   22.5060 H   0  0  0  0  0  0  0  0  0  0  0  0
  -32.3860  -17.0000   20.6090 C   0  0  0  0  0  2  0  0  0  0  0  0
  -31.4720  -15.7610   20.8140 C   0  0  0  0  0  2  0  0  0  0  0  0
  -31.8510  -14.6020   19.8770 C   0  0  0  0  0  0  0  0  0  0  0  0
  -31.3730  -12.3850   18.9020 C   0  0  0  0  0  2  0  0  0  0  0  0
  -30.3760  -12.4940   17.7340 C   0  0  0  0  0  2  0  0  0  0  0  0
  -28.9270  -12.4460   18.2510 C   0  0  0  0  0  2  0  0  0  0  0  0
  -28.6810  -13.4310   19.4240 C   0  0  0  0  0  3  0  0  0  0  0  0
  -29.7850  -13.3080   20.5000 C   0  0  0  0  0  2  0  0  0  0  0  0
  -31.0900  -13.4780   19.8430 N   0  0  0  0  0  0  0  0  0  0  0  0
  -32.8490  -14.7360   19.1620 O   0  0  0  0  0  0  0  0  0  0  0  0
  -26.4000  -14.2110   20.3290 C   0  0  0  0  0  0  0  0  0  0  0  0
  -25.2960  -13.5160   20.7470 C   0  0  0  0  0  0  0  0  0  0  0  0
  -25.6330  -12.1330   20.6290 C   0  0  0  0  0  0  0  0  0  0  0  0
  -27.3450  -13.2560   19.9910 N   0  0  0  0  0  0  0  0  0  0  0  0
  -26.8880  -11.9980   20.2230 N   0  0  0  0  0  0  0  0  0  0  0  0
  -24.8130  -10.9310   20.8250 C   0  0  0  0  0  0  0  0  0  0  0  0
  -25.1630   -9.9440   21.7730 C   0  0  0  0  0  3  0  0  0  0  0  0
  -24.3500   -8.8060   21.9560 C   0  0  0  0  0  3  0  0  0  0  0  0
  -23.1700   -8.6460   21.1900 C   0  0  0  0  0  0  0  0  0  0  0  0
  -22.8370   -9.6200   20.2320 C   0  0  0  0  0  3  0  0  0  0  0  0
  -23.6510  -10.7500   20.0470 C   0  0  0  0  0  3  0  0  0  0  0  0
  -22.3310   -7.5610   21.2820 O   0  0  0  0  0  0  0  0  0  0  0  0
  -22.1190   -6.9150   22.4740 C   0  0  0  0  0  0  0  0  0  0  0  0
  -21.5880   -7.5810   23.5990 C   0  0  0  0  0  3  0  0  0  0  0  0
  -21.3210   -6.8630   24.7820 C   0  0  0  0  0  3  0  0  0  0  0  0
  -21.5750   -5.4790   24.8380 C   0  0  0  0  0  0  0  0  0  0  0  0
  -22.0990   -4.8120   23.7170 C   0  0  0  0  0  3  0  0  0  0  0  0
  -22.3680   -5.5290   22.5370 C   0  0  0  0  0  0  0  0  0  0  0  0
  -22.8520   -4.8770   21.4520 F   0  0  0  0  0  0  0  0  0  0  0  0
  -21.3120   -4.7870   25.9710 F   0  0  0  0  0  0  0  0  0  0  0  0
  -23.9700  -14.0980   21.1440 C   0  0  0  0  0  0  0  0  0  0  0  0
  -23.2620  -13.4420   22.0570 N   0  0  0  0  0  0  0  0  0  0  0  0
  -23.5750  -15.1670   20.6800 O   0  0  0  0  0  0  0  0  0  0  0  0
  -23.5960  -12.5740   22.4520 H   0  0  0  0  0  0  0  0  0  0  0  0
  -22.3730  -13.8110   22.3660 H   0  0  0  0  0  0  0  0  0  0  0  0
  -26.6730  -15.5690   20.1890 N   0  0  0  0  0  0  0  0  0  0  0  0
  -25.9750  -16.2830   20.3700 H   0  0  0  0  0  0  0  0  0  0  0  0
  -27.5330  -15.9440   19.8090 H   0  0  0  0  0  0  0  0  0  0  0  0
  1  5  1  0
  3  1  2  0
  3  6  1  0
  4  2  1  0
  5  7  1  0
  5  2  2  0
  6  4  2  0
  8  9  1  0
  8  7  2  0
 10 12  1  0
 10  9  1  0
 11 22  2  0
 12 17  1  0
 13 21  1  0
 13 23  1  0
 14 20  1  0
 14 16  1  0
 15 21  1  0
 16 15  1  0
 17 16  2  0
 18 19  1  0
 18 12  2  0
 19 14  2  0
 20 13  1  0
 21 11  1  0
 23 25  2  0
 24 23  1  0
 26 24  1  0
 27 36  2  0
 27 32  1  0
 28 24  1  0
 28 32  1  0
 29 28  1  0
 30 31  1  0
 30 29  1  0
 31 27  1  0
 32 33  2  0
 33 34  1  0
 35 34  2  0
 36 35  1  0
 37 11  1  0
 37 38  1  0
 37 47  1  0
 38 41  1  0
 39 43  1  0
 39 38  1  0
 40 39  2  0
 43 42  1  0
 45 43  1  0
 45 46  1  0
 45 44  1  0
 47 50  1  1
 47 48  1  0
 49 47  1  0
 51  6  1  0
 52 53  1  0
 53 51  1  0
 53 54  1  1
 55 56  1  0
 55 53  1  0
 57 56  1  0
 58 63  1  0
 59 60  1  0
 59 58  1  0
 61 60  1  0
 61 68  1  0
 61 62  1  0
 63 57  1  0
 63 62  1  0
 64 57  2  0
 65 66  2  0
 66 85  1  0
 67 66  1  0
 67 70  1  0
 68 69  1  0
 68 65  1  0
 69 67  2  0
 70 71  1  0
 71 72  2  0
 73 76  1  0
 73 72  1  0
 74 73  2  0
 75 74  1  0
 75 70  2  0
 76 77  1  0
 77 82  2  0
 77 78  1  0
 78 79  2  0
 79 80  1  0
 80 84  1  0
 81 80  2  0
 82 81  1  0
 83 82  1  0
 85 86  1  0
 86 89  1  0
 86 88  1  0
 87 85  2  0
 90 65  1  0
 90 91  1  0
 92 90  1  0
M  ISO  4   9 101  10 101  56 100  57 100
M  END
>  <TORSDO>  (71) 
F 22

>  <SCORE>  (71) 
-11.640

>  <name>  (71) 
70

>  <ligand_id>  (71) 
70

>  <original_smiles>  (71) 
[H]C(=C([H])C([H])([H])Oc1c([H])c([H])c2c(c1[H])C([H])([H])N(C(=O)C([H])(N([H])C(=O)C([H])(N([H])C([H])([H])[H])C([H])([H])[H])C(C([H])([H])[H])(C([H])([H])[H])C([H])([H])[H])C([H])(C(=O)N([H])C1([H])c3c([H])c([H])c([H])c([H])c3C([H])([H])C([H])([H])C1([H])[H])C2([H])[H])c1c([H])c([H])c(C([H])([H])[N+]([H])(C([H])([H])[H])C([H])([H])C([H])([H])C(=O)N2C([H])([H])C([H])([H])C([H])([H])C([H])(n3nc(-c4c([H])c([H])c(Oc5c([H])c([H])c(F)c([H])c5F)c([H])c4[H])c(C(=O)N([H])[H])c3N([H])[H])C2([H])[H])c([H])c1[H]

>  <smiles>  (71) 
[H]C(=C([H])C([H])([H])Oc1c([H])c([H])c2c(c1[H])C([H])([H])N(C(=O)C([H])(N([H])C(=O)C([H])(N([H])C([H])([H])[H])C([H])([H])[H])C(C([H])([H])[H])(C([H])([H])[H])C([H])([H])[H])C([H])(C(=O)N([H])C1([H])c3c([H])c([H])c([H])c([H])c3C([H])([H])C([H])([H])C1([H])[H])C2([H])[H])c1c([H])c([H])c(C([H])([H])[N+]([H])(C([H])([H])[H])C([H])([H])C([H])([H])C(=O)N2C([H])([H])C([H])([H])C([H])([H])C([H])(n3nc(-c4c([H])c([H])c(Oc5c([H])c([H])c(F)c([H])c5F)c([H])c4[H])c(C(=O)N([H])[H])c3N([H])[H])C2([H])[H])c([H])c1[H]

$$$$
71:0:0
     RDKit          3D

 94103  0  0  1  0  0  0  0  0999 V2000
  -32.1490  -20.3250   21.7140 C   0  0  0  0  0  3  0  0  0  0  0  0
  -31.6210  -21.5790   22.1060 C   0  0  0  0  0  3  0  0  0  0  0  0
  -29.3380  -20.7420   21.8260 C   0  0  0  0  0  3  0  0  0  0  0  0
  -31.2520  -19.2920   21.3870 C   0  0  0  0  0  0  0  0  0  0  0  0
  -29.8840  -19.5010   21.4440 C   0  0  0  0  0  0  0  0  0  0  0  0
  -30.2200  -21.7960   22.1630 C   0  0  0  0  0  0  0  0  0  0  0  0
  -31.5760  -17.8970   20.8940 C   0  0  0  0  0  2  0  0  0  0  0  0
  -29.1300  -18.2830   20.9900 C   0  0  0  0  0  2  0  0  0  0  0  0
  -30.2100  -17.3170   20.3790 C   0  0  1  0  0  0  0  0  0  0  0  0
  -28.7170  -17.1390   18.2300 C   0  0  0  0  0  1  0  0  0  0  0  0
  -30.6600  -18.6910   18.1740 C   0  0  0  0  0  1  0  0  0  0  0  0
  -30.1300  -17.3820   18.8010 C   0  0  0  0  0  3  0  0  0  0  0  0
  -29.6610  -23.1400   22.6240 C   0  0  0  0  0  2  0  0  0  0  0  0
  -29.7270  -24.2630   21.5640 C   0  0  0  0  0  2  0  0  0  0  0  0
  -29.2940  -25.6360   22.1340 C   0  0  0  0  0  2  0  0  0  0  0  0
  -29.4920  -26.8260   21.1720 C   0  0  0  0  0  2  0  0  0  0  0  0
  -28.5290  -26.8040   20.1200 O   0  0  0  0  0  0  0  0  0  0  0  0
  -24.6220  -31.9390   23.2670 C   0  0  0  0  0  0  0  0  0  0  0  0
  -27.3780  -27.5590   20.2160 C   0  0  0  0  0  0  0  0  0  0  0  0
  -23.4480  -30.5140   21.6180 C   0  0  0  0  0  3  0  0  0  0  0  0
  -24.9400  -28.9990   20.2090 C   0  0  0  0  0  0  0  0  0  0  0  0
  -25.9650  -30.9230   21.4320 C   0  0  0  0  0  2  0  0  0  0  0  0
  -26.0800  -29.5510   20.8060 C   0  0  0  0  0  0  0  0  0  0  0  0
  -27.2990  -28.8400   20.8120 C   0  0  0  0  0  3  0  0  0  0  0  0
  -26.2230  -27.0210   19.6110 C   0  0  0  0  0  3  0  0  0  0  0  0
  -25.0050  -27.7300   19.6100 C   0  0  0  0  0  3  0  0  0  0  0  0
  -23.6790  -29.8320   20.2410 C   0  0  0  0  0  2  0  0  0  0  0  0
  -24.6950  -31.1410   22.1640 N   0  0  0  0  0  0  0  0  0  0  0  0
  -23.5330  -32.1930   23.8020 O   0  0  0  0  0  0  0  0  0  0  0  0
  -22.8110  -29.4840   22.5760 C   0  0  0  0  0  0  0  0  0  0  0  0
  -21.4900  -29.2850   22.4460 N   0  0  0  0  0  0  0  0  0  0  0  0
  -23.5020  -28.8660   23.3900 O   0  0  0  0  0  0  0  0  0  0  0  0
  -20.9950  -29.8360   21.7580 H   0  0  0  0  0  0  0  0  0  0  0  0
  -18.1280  -28.0530   22.9280 C   0  0  0  0  0  0  0  0  0  0  0  0
  -20.6820  -28.3340   23.2100 C   0  0  0  0  0  3  0  0  0  0  0  0
  -20.8020  -26.9070   22.6280 C   0  0  0  0  0  2  0  0  0  0  0  0
  -19.7060  -26.5770   21.6110 C   0  0  0  0  0  2  0  0  0  0  0  0
  -18.3210  -26.7070   22.2510 C   0  0  0  0  0  2  0  0  0  0  0  0
  -19.2380  -28.8230   23.3650 C   0  0  0  0  0  0  0  0  0  0  0  0
  -19.0080  -30.0830   23.9590 C   0  0  0  0  0  3  0  0  0  0  0  0
  -17.6970  -30.5720   24.1210 C   0  0  0  0  0  3  0  0  0  0  0  0
  -16.6020  -29.7980   23.7050 C   0  0  0  0  0  3  0  0  0  0  0  0
  -16.8180  -28.5400   23.1140 C   0  0  0  0  0  3  0  0  0  0  0  0
  -25.8960  -32.5900   23.8930 C   0  0  0  0  0  3  0  0  0  0  0  0
  -25.5700  -33.9870   24.2020 N   0  0  0  0  0  0  0  0  0  0  0  0
  -25.9030  -35.0330   23.4350 C   0  0  0  0  0  0  0  0  0  0  0  0
  -26.5870  -34.9230   22.4140 O   0  0  0  0  0  0  0  0  0  0  0  0
  -24.9660  -34.1460   24.9950 H   0  0  0  0  0  0  0  0  0  0  0  0
  -24.1670  -36.8060   23.0270 C   0  0  0  0  0  1  0  0  0  0  0  0
  -25.3940  -36.4200   23.8700 C   0  0  0  0  0  3  0  0  0  0  0  0
  -27.5000  -37.3340   24.7390 C   0  0  0  0  0  1  0  0  0  0  0  0
  -26.4180  -37.4820   23.7680 N   0  0  0  0  0  0  0  0  0  0  0  0
  -26.0010  -38.4010   23.8930 H   0  0  0  0  0  0  0  0  0  0  0  0
  -26.4110  -31.8350   25.1800 C   0  0  1  0  0  0  0  0  0  0  0  0
  -25.3170  -31.6190   26.2510 C   0  0  0  0  0  1  0  0  0  0  0  0
  -26.9890  -30.4510   24.8040 C   0  0  0  0  0  1  0  0  0  0  0  0
  -27.5620  -32.6370   25.8310 C   0  0  0  0  0  1  0  0  0  0  0  0
  -29.9670  -15.8630   20.9440 C   0  0  0  0  0  2  0  0  0  0  0  0
  -30.7240  -14.6620   20.3020 C   0  0  0  0  0  0  0  0  0  0  0  0
  -30.4630  -12.5090   19.1090 C   0  0  0  0  0  2  0  0  0  0  0  0
  -29.4880  -12.7130   17.9300 C   0  0  0  0  0  2  0  0  0  0  0  0
  -28.0230  -12.5440   18.3850 C   0  0  0  0  0  2  0  0  0  0  0  0
  -27.7040  -13.3590   19.6650 C   0  0  0  0  0  3  0  0  0  0  0  0
  -28.7830  -13.1210   20.7460 C   0  0  0  0  0  2  0  0  0  0  0  0
  -30.0900  -13.4640   20.1640 N   0  0  0  0  0  0  0  0  0  0  0  0
  -31.8530  -14.8520   19.8370 O   0  0  0  0  0  0  0  0  0  0  0  0
  -25.3160  -13.9840   20.3960 C   0  0  0  0  0  0  0  0  0  0  0  0
  -24.2520  -13.2130   20.7800 C   0  0  0  0  0  0  0  0  0  0  0  0
  -24.7150  -11.8620   20.7520 C   0  0  0  0  0  0  0  0  0  0  0  0
  -26.3580  -13.0990   20.1600 N   0  0  0  0  0  0  0  0  0  0  0  0
  -26.0000  -11.8200   20.4310 N   0  0  0  0  0  0  0  0  0  0  0  0
  -23.9960  -10.5990   20.9550 C   0  0  0  0  0  0  0  0  0  0  0  0
  -24.4360   -9.6470   21.9000 C   0  0  0  0  0  3  0  0  0  0  0  0
  -23.7200   -8.4450   22.0910 C   0  0  0  0  0  3  0  0  0  0  0  0
  -22.5510   -8.1900   21.3350 C   0  0  0  0  0  0  0  0  0  0  0  0
  -22.1300   -9.1330   20.3800 C   0  0  0  0  0  3  0  0  0  0  0  0
  -22.8470  -10.3250   20.1880 C   0  0  0  0  0  3  0  0  0  0  0  0
  -21.8060   -7.0400   21.4350 O   0  0  0  0  0  0  0  0  0  0  0  0
  -21.7540   -6.3160   22.5980 C   0  0  0  0  0  0  0  0  0  0  0  0
  -21.3050   -6.8830   23.8100 C   0  0  0  0  0  3  0  0  0  0  0  0
  -21.2010   -6.0840   24.9660 C   0  0  0  0  0  3  0  0  0  0  0  0
  -21.5370   -4.7170   24.9100 C   0  0  0  0  0  0  0  0  0  0  0  0
  -21.9800   -4.1500   23.7020 C   0  0  0  0  0  3  0  0  0  0  0  0
  -22.0850   -4.9470   22.5480 C   0  0  0  0  0  0  0  0  0  0  0  0
  -22.4920   -4.3910   21.3820 F   0  0  0  0  0  0  0  0  0  0  0  0
  -21.4310   -3.9470   26.0170 F   0  0  0  0  0  0  0  0  0  0  0  0
  -22.8560  -13.6890   21.0660 C   0  0  0  0  0  0  0  0  0  0  0  0
  -22.1420  -12.9950   21.9450 N   0  0  0  0  0  0  0  0  0  0  0  0
  -22.4090  -14.7100   20.5460 O   0  0  0  0  0  0  0  0  0  0  0  0
  -22.5170  -12.1690   22.3870 H   0  0  0  0  0  0  0  0  0  0  0  0
  -21.2050  -13.2960   22.1790 H   0  0  0  0  0  0  0  0  0  0  0  0
  -25.4770  -15.3540   20.2110 N   0  0  0  0  0  0  0  0  0  0  0  0
  -24.7080  -16.0060   20.3260 H   0  0  0  0  0  0  0  0  0  0  0  0
  -26.3230  -15.7930   19.8740 H   0  0  0  0  0  0  0  0  0  0  0  0
  1  2  1  0
  2  6  2  0
  3  6  1  0
  4  5  1  0
  4  1  2  0
  5  3  2  0
  6 13  1  0
  7  4  1  0
  8  5  1  0
  9  7  1  0
  9 58  1  1
  9  8  1  0
 10 12  1  0
 11 12  1  0
 12  9  1  0
 14 15  1  0
 14 13  1  0
 16 15  1  0
 17 19  1  0
 17 16  1  0
 18 29  2  0
 19 24  1  0
 20 28  1  0
 20 30  1  0
 21 27  1  0
 21 23  1  0
 22 28  1  0
 23 24  2  0
 23 22  1  0
 25 19  2  0
 26 25  1  0
 26 21  2  0
 27 20  1  0
 28 18  1  0
 30 32  2  0
 31 30  1  0
 33 31  1  0
 34 43  2  0
 34 39  1  0
 35 31  1  0
 35 39  1  0
 36 35  1  0
 37 38  1  0
 37 36  1  0
 38 34  1  0
 39 40  2  0
 40 41  1  0
 42 41  2  0
 43 42  1  0
 44 18  1  0
 44 45  1  0
 44 54  1  0
 45 48  1  0
 46 50  1  0
 46 45  1  0
 47 46  2  0
 50 49  1  0
 52 50  1  0
 52 53  1  0
 52 51  1  0
 54 57  1  1
 54 55  1  0
 56 54  1  0
 59 58  1  0
 60 65  1  0
 61 62  1  0
 61 60  1  0
 63 62  1  0
 63 70  1  0
 63 64  1  0
 65 59  1  0
 65 64  1  0
 66 59  2  0
 67 68  2  0
 68 87  1  0
 69 68  1  0
 69 72  1  0
 70 67  1  0
 70 71  1  0
 71 69  2  0
 72 73  1  0
 73 74  2  0
 75 78  1  0
 75 74  1  0
 76 75  2  0
 77 76  1  0
 77 72  2  0
 78 79  1  0
 79 80  1  0
 80 81  2  0
 82 81  1  0
 82 86  1  0
 83 82  2  0
 84 79  2  0
 84 83  1  0
 85 84  1  0
 87 88  1  0
 88 91  1  0
 88 90  1  0
 89 87  2  0
 92 93  1  0
 92 67  1  0
 94 92  1  0
M  ISO  4  16 101  17 101  58 100  59 100
M  END
>  <TORSDO>  (72) 
F 22

>  <SCORE>  (72) 
-13.010

>  <name>  (72) 
71

>  <ligand_id>  (72) 
71

>  <original_smiles>  (72) 
[H]c1c([H])c([H])c2c(c1[H])C([H])([H])C([H])([H])C([H])([H])C2([H])N([H])C(=O)C1([H])N(C(=O)C([H])(N([H])C(=O)C([H])(N([H])C([H])([H])[H])C([H])([H])[H])C(C([H])([H])[H])(C([H])([H])[H])C([H])([H])[H])C([H])([H])c2c([H])c(OC([H])([H])C([H])([H])C([H])([H])C([H])([H])c3c([H])c([H])c4c(c3[H])C([H])([H])C(C([H])([H])C(=O)N3C([H])([H])C([H])([H])C([H])([H])C([H])(n5nc(-c6c([H])c([H])c(Oc7c([H])c([H])c(F)c([H])c7F)c([H])c6[H])c(C(=O)N([H])[H])c5N([H])[H])C3([H])[H])(C([H])(C([H])([H])[H])C([H])([H])[H])C4([H])[H])c([H])c([H])c2C1([H])[H]

>  <smiles>  (72) 
[H]c1c([H])c([H])c2c(c1[H])C([H])([H])C([H])([H])C([H])([H])C2([H])N([H])C(=O)C1([H])N(C(=O)C([H])(N([H])C(=O)C([H])(N([H])C([H])([H])[H])C([H])([H])[H])C(C([H])([H])[H])(C([H])([H])[H])C([H])([H])[H])C([H])([H])c2c([H])c(OC([H])([H])C([H])([H])C([H])([H])C([H])([H])c3c([H])c([H])c4c(c3[H])C([H])([H])C(C([H])([H])C(=O)N3C([H])([H])C([H])([H])C([H])([H])C([H])(n5nc(-c6c([H])c([H])c(Oc7c([H])c([H])c(F)c([H])c7F)c([H])c6[H])c(C(=O)N([H])[H])c5N([H])[H])C3([H])[H])(C([H])(C([H])([H])[H])C([H])([H])[H])C4([H])[H])c([H])c([H])c2C1([H])[H]

$$$$
72:0:0
     RDKit          3D

 89 97  0  0  1  0  0  0  0  0999 V2000
  -27.8790  -21.5900   20.6320 C   0  0  0  0  0  2  0  0  0  0  0  0
  -29.2180  -21.5120   20.6370 C   0  0  0  0  0  0  0  0  0  0  0  0
  -27.4510  -22.9830   20.4180 C   0  0  0  0  0  0  0  0  0  0  0  0
  -29.8210  -22.9300   20.5390 C   0  0  0  0  0  2  0  0  0  0  0  0
  -28.6440  -23.9200   20.1260 C   0  0  1  0  0  0  0  0  0  0  0  0
  -28.7150  -24.1510   18.6020 C   0  0  0  0  0  1  0  0  0  0  0  0
  -26.2810  -23.3720   20.4000 O   0  0  0  0  0  0  0  0  0  0  0  0
  -30.1040  -20.2170   20.6640 C   0  0  0  0  0  3  0  0  0  0  0  0
  -29.4680  -18.7820   20.9470 C   0  0  0  0  0  3  0  0  0  0  0  0
  -30.3860  -17.4920   20.6670 C   0  0  0  0  0  3  0  0  0  0  0  0
  -29.8100  -16.0120   20.9150 C   0  0  0  0  0  2  0  0  0  0  0  0
  -30.5930  -14.7400   20.3400 C   0  0  0  0  0  0  0  0  0  0  0  0
  -30.3940  -12.5210   19.2040 C   0  0  0  0  0  2  0  0  0  0  0  0
  -29.4290  -12.6490   18.0030 C   0  0  0  0  0  2  0  0  0  0  0  0
  -27.9630  -12.4740   18.4440 C   0  0  0  0  0  2  0  0  0  0  0  0
  -27.6170  -13.3130   19.7010 C   0  0  0  0  0  3  0  0  0  0  0  0
  -28.6880  -13.1430   20.8020 C   0  0  0  0  0  2  0  0  0  0  0  0
  -29.9860  -13.5120   20.2230 N   0  0  0  0  0  0  0  0  0  0  0  0
  -31.7340  -14.8980   19.8890 O   0  0  0  0  0  0  0  0  0  0  0  0
  -25.2300  -13.9010   20.4470 C   0  0  0  0  0  0  0  0  0  0  0  0
  -24.1700  -13.1250   20.8280 C   0  0  0  0  0  0  0  0  0  0  0  0
  -24.6360  -11.7740   20.7930 C   0  0  0  0  0  0  0  0  0  0  0  0
  -26.2730  -13.0250   20.1970 N   0  0  0  0  0  0  0  0  0  0  0  0
  -25.9220  -11.7400   20.4640 N   0  0  0  0  0  0  0  0  0  0  0  0
  -23.9170  -10.5100   20.9940 C   0  0  0  0  0  0  0  0  0  0  0  0
  -24.3630   -9.5450   21.9240 C   0  0  0  0  0  3  0  0  0  0  0  0
  -23.6420   -8.3450   22.1110 C   0  0  0  0  0  3  0  0  0  0  0  0
  -22.4610   -8.1030   21.3730 C   0  0  0  0  0  0  0  0  0  0  0  0
  -22.0350   -9.0560   20.4310 C   0  0  0  0  0  3  0  0  0  0  0  0
  -22.7550  -10.2470   20.2400 C   0  0  0  0  0  3  0  0  0  0  0  0
  -21.7110   -6.9570   21.4700 O   0  0  0  0  0  0  0  0  0  0  0  0
  -21.6750   -6.2160   22.6240 C   0  0  0  0  0  0  0  0  0  0  0  0
  -21.2650   -6.7730   23.8540 C   0  0  0  0  0  3  0  0  0  0  0  0
  -21.1780   -5.9590   25.0020 C   0  0  0  0  0  3  0  0  0  0  0  0
  -21.4900   -4.5890   24.9200 C   0  0  0  0  0  0  0  0  0  0  0  0
  -21.8950   -4.0320   23.6940 C   0  0  0  0  0  3  0  0  0  0  0  0
  -21.9860   -4.8420   22.5490 C   0  0  0  0  0  0  0  0  0  0  0  0
  -22.3550   -4.2940   21.3670 F   0  0  0  0  0  0  0  0  0  0  0  0
  -21.4000   -3.8050   26.0200 F   0  0  0  0  0  0  0  0  0  0  0  0
  -22.7740  -13.5970   21.1190 C   0  0  0  0  0  0  0  0  0  0  0  0
  -22.0590  -12.8990   21.9940 N   0  0  0  0  0  0  0  0  0  0  0  0
  -22.3270  -14.6220   20.6030 O   0  0  0  0  0  0  0  0  0  0  0  0
  -22.4330  -12.0670   22.4310 H   0  0  0  0  0  0  0  0  0  0  0  0
  -21.1270  -13.1990   22.2380 H   0  0  0  0  0  0  0  0  0  0  0  0
  -25.3930  -15.2730   20.2740 N   0  0  0  0  0  0  0  0  0  0  0  0
  -24.6350  -15.9370   20.3930 H   0  0  0  0  0  0  0  0  0  0  0  0
  -26.2500  -15.7070   19.9560 H   0  0  0  0  0  0  0  0  0  0  0  0
  -28.5380  -25.3310   20.8850 C   0  0  0  0  0  2  0  0  0  0  0  0
  -28.4600  -26.6050   20.1460 O   0  0  0  0  0  0  0  0  0  0  0  0
  -24.6210  -31.8800   23.2300 C   0  0  0  0  0  0  0  0  0  0  0  0
  -27.2960  -27.3710   20.1970 C   0  0  0  0  0  0  0  0  0  0  0  0
  -23.4260  -30.4780   21.5770 C   0  0  0  0  0  3  0  0  0  0  0  0
  -24.8970  -28.9190   20.1790 C   0  0  0  0  0  0  0  0  0  0  0  0
  -25.9560  -30.8220   21.3970 C   0  0  0  0  0  2  0  0  0  0  0  0
  -26.0520  -29.4360   20.7750 C   0  0  0  0  0  0  0  0  0  0  0  0
  -27.2500  -28.6710   20.7820 C   0  0  0  0  0  3  0  0  0  0  0  0
  -26.1230  -26.8900   19.5810 C   0  0  0  0  0  3  0  0  0  0  0  0
  -24.9280  -27.6450   19.5810 C   0  0  0  0  0  3  0  0  0  0  0  0
  -23.6560  -29.7890   20.2030 C   0  0  0  0  0  2  0  0  0  0  0  0
  -24.6880  -31.0760   22.1300 N   0  0  0  0  0  0  0  0  0  0  0  0
  -23.5360  -32.1510   23.7660 O   0  0  0  0  0  0  0  0  0  0  0  0
  -22.7600  -29.4620   22.5360 C   0  0  0  0  0  0  0  0  0  0  0  0
  -21.4360  -29.2720   22.3930 N   0  0  0  0  0  0  0  0  0  0  0  0
  -23.4350  -28.8460   23.3660 O   0  0  0  0  0  0  0  0  0  0  0  0
  -20.9600  -29.8010   21.6740 H   0  0  0  0  0  0  0  0  0  0  0  0
  -18.0560  -28.0820   22.9170 C   0  0  0  0  0  0  0  0  0  0  0  0
  -20.6160  -28.3440   23.1780 C   0  0  0  0  0  3  0  0  0  0  0  0
  -20.7160  -26.9000   22.6210 C   0  0  0  0  0  2  0  0  0  0  0  0
  -19.6070  -26.5480   21.6200 C   0  0  0  0  0  2  0  0  0  0  0  0
  -18.2250  -26.7230   22.2560 C   0  0  0  0  0  2  0  0  0  0  0  0
  -19.1740  -28.8470   23.3420 C   0  0  0  0  0  0  0  0  0  0  0  0
  -18.9520  -30.1110   23.9300 C   0  0  0  0  0  3  0  0  0  0  0  0
  -17.6470  -30.6100   24.1030 C   0  0  0  0  0  3  0  0  0  0  0  0
  -16.5420  -29.8450   23.6840 C   0  0  0  0  0  3  0  0  0  0  0  0
  -16.7480  -28.5840   23.0980 C   0  0  0  0  0  3  0  0  0  0  0  0
  -25.8990  -32.5180   23.8580 C   0  0  0  0  0  3  0  0  0  0  0  0
  -25.5870  -33.9140   24.1910 N   0  0  0  0  0  0  0  0  0  0  0  0
  -25.9130  -34.9700   23.4310 C   0  0  0  0  0  0  0  0  0  0  0  0
  -26.5830  -34.8670   22.3990 O   0  0  0  0  0  0  0  0  0  0  0  0
  -24.9970  -34.0640   24.9950 H   0  0  0  0  0  0  0  0  0  0  0  0
  -24.1840  -36.7640   23.0790 C   0  0  0  0  0  1  0  0  0  0  0  0
  -25.4250  -36.3590   23.8900 C   0  0  0  0  0  3  0  0  0  0  0  0
  -27.5590  -37.2520   24.7130 C   0  0  0  0  0  1  0  0  0  0  0  0
  -26.4530  -37.4150   23.7730 N   0  0  0  0  0  0  0  0  0  0  0  0
  -26.0460  -38.3340   23.9200 H   0  0  0  0  0  0  0  0  0  0  0  0
  -26.4140  -31.7470   25.1360 C   0  0  1  0  0  0  0  0  0  0  0  0
  -25.3200  -31.5130   26.2040 C   0  0  0  0  0  1  0  0  0  0  0  0
  -27.0020  -30.3700   24.7460 C   0  0  0  0  0  1  0  0  0  0  0  0
  -27.5610  -32.5440   25.8020 C   0  0  0  0  0  1  0  0  0  0  0  0
  1  2  1  0
  2  8  2  0
  3  1  1  0
  4  2  1  0
  5  6  1  6
  5  3  1  0
  5  4  1  0
  5 48  1  0
  7  3  2  0
  8  9  1  0
 10 11  1  0
 10  9  2  0
 12 11  1  0
 13 18  1  0
 14 15  1  0
 14 13  1  0
 16 15  1  0
 16 23  1  0
 16 17  1  0
 18 12  1  0
 18 17  1  0
 19 12  2  0
 20 21  2  0
 21 40  1  0
 22 21  1  0
 22 25  1  0
 23 20  1  0
 23 24  1  0
 24 22  2  0
 25 26  1  0
 26 27  2  0
 28 31  1  0
 28 27  1  0
 29 28  2  0
 30 29  1  0
 30 25  2  0
 31 32  1  0
 32 33  1  0
 33 34  2  0
 35 34  1  0
 35 39  1  0
 36 35  2  0
 37 32  2  0
 37 36  1  0
 38 37  1  0
 40 41  1  0
 41 44  1  0
 41 43  1  0
 42 40  2  0
 45 46  1  0
 45 20  1  0
 47 45  1  0
 49 51  1  0
 49 48  1  0
 50 61  2  0
 51 56  1  0
 52 60  1  0
 52 62  1  0
 53 59  1  0
 53 55  1  0
 54 60  1  0
 55 56  2  0
 55 54  1  0
 57 51  2  0
 58 57  1  0
 58 53  2  0
 59 52  1  0
 60 50  1  0
 62 64  2  0
 63 62  1  0
 65 63  1  0
 66 75  2  0
 66 71  1  0
 67 63  1  0
 67 71  1  0
 68 67  1  0
 69 70  1  0
 69 68  1  0
 70 66  1  0
 71 72  2  0
 72 73  1  0
 74 73  2  0
 75 74  1  0
 76 50  1  0
 76 77  1  0
 76 86  1  0
 77 80  1  0
 78 82  1  0
 78 77  1  0
 79 78  2  0
 82 81  1  0
 84 82  1  0
 84 85  1  0
 84 83  1  0
 86 89  1  1
 86 87  1  0
 88 86  1  0
M  ISO  4  11 100  12 100  48 101  49 101
M  END
>  <TORSDO>  (73) 
F 21

>  <SCORE>  (73) 
-13.433

>  <name>  (73) 
72

>  <ligand_id>  (73) 
72

>  <original_smiles>  (73) 
[H]C1=C(C([H])([H])C([H])([H])C([H])([H])C([H])([H])C(=O)N2C([H])([H])C([H])([H])C([H])([H])C([H])(n3nc(-c4c([H])c([H])c(Oc5c([H])c([H])c(F)c([H])c5F)c([H])c4[H])c(C(=O)N([H])[H])c3N([H])[H])C2([H])[H])C([H])([H])C(C([H])([H])[H])(C([H])([H])Oc2c([H])c([H])c3c(c2[H])C([H])([H])N(C(=O)C([H])(N([H])C(=O)C([H])(N([H])C([H])([H])[H])C([H])([H])[H])C(C([H])([H])[H])(C([H])([H])[H])C([H])([H])[H])C([H])(C(=O)N([H])C2([H])c4c([H])c([H])c([H])c([H])c4C([H])([H])C([H])([H])C2([H])[H])C3([H])[H])C1=O

>  <smiles>  (73) 
[H]C1=C(C([H])([H])C([H])([H])C([H])([H])C([H])([H])C(=O)N2C([H])([H])C([H])([H])C([H])([H])C([H])(n3nc(-c4c([H])c([H])c(Oc5c([H])c([H])c(F)c([H])c5F)c([H])c4[H])c(C(=O)N([H])[H])c3N([H])[H])C2([H])[H])C([H])([H])C(C([H])([H])[H])(C([H])([H])Oc2c([H])c([H])c3c(c2[H])C([H])([H])N(C(=O)C([H])(N([H])C(=O)C([H])(N([H])C([H])([H])[H])C([H])([H])[H])C(C([H])([H])[H])(C([H])([H])[H])C([H])([H])[H])C([H])(C(=O)N([H])C2([H])c4c([H])c([H])c([H])c([H])c4C([H])([H])C([H])([H])C2([H])[H])C3([H])[H])C1=O

$$$$
73:0:0
     RDKit          3D

 95103  0  0  1  0  0  0  0  0999 V2000
  -31.9810  -19.8830   20.0030 C   0  0  0  0  0  3  0  0  0  0  0  0
  -32.3730  -21.2250   20.1740 C   0  0  0  0  0  3  0  0  0  0  0  0
  -31.1500  -19.8380   22.2880 C   0  0  0  0  0  3  0  0  0  0  0  0
  -31.3960  -19.1690   21.0700 C   0  0  0  0  0  0  0  0  0  0  0  0
  -31.5220  -21.1890   22.4600 C   0  0  0  0  0  0  0  0  0  0  0  0
  -32.1590  -21.8900   21.4080 C   0  0  0  0  0  0  0  0  0  0  0  0
  -30.9980  -17.7520   20.8790 C   0  0  0  0  0  0  0  0  0  0  0  0
  -30.4710  -17.3360   19.8420 O   0  0  0  0  0  0  0  0  0  0  0  0
  -31.3550  -16.7820   22.0130 C   0  0  0  0  0  2  0  0  0  0  0  0
  -30.5650  -15.4550   21.9860 C   0  0  0  0  0  2  0  0  0  0  0  0
  -31.1900  -14.3640   21.0990 C   0  0  0  0  0  0  0  0  0  0  0  0
  -30.9020  -12.2480   19.8530 C   0  0  0  0  0  2  0  0  0  0  0  0
  -30.0590  -12.4840   18.5860 C   0  0  0  0  0  2  0  0  0  0  0  0
  -28.5530  -12.3930   18.9030 C   0  0  0  0  0  2  0  0  0  0  0  0
  -28.1530  -13.2550   20.1280 C   0  0  0  0  0  3  0  0  0  0  0  0
  -29.1040  -12.9850   21.3140 C   0  0  0  0  0  2  0  0  0  0  0  0
  -30.4820  -13.2310   20.8600 N   0  0  0  0  0  0  0  0  0  0  0  0
  -32.3010  -14.5650   20.5940 O   0  0  0  0  0  0  0  0  0  0  0  0
  -25.7500  -13.9720   20.7230 C   0  0  0  0  0  0  0  0  0  0  0  0
  -24.6150  -13.2470   20.9690 C   0  0  0  0  0  0  0  0  0  0  0  0
  -24.9950  -11.8740   20.8730 C   0  0  0  0  0  0  0  0  0  0  0  0
  -26.7550  -13.0420   20.4980 N   0  0  0  0  0  0  0  0  0  0  0  0
  -26.2970  -11.7710   20.6420 N   0  0  0  0  0  0  0  0  0  0  0  0
  -24.1850  -10.6500   20.9300 C   0  0  0  0  0  0  0  0  0  0  0  0
  -24.5230   -9.5800   21.7880 C   0  0  0  0  0  3  0  0  0  0  0  0
  -23.7190   -8.4200   21.8370 C   0  0  0  0  0  3  0  0  0  0  0  0
  -22.5630   -8.3240   21.0260 C   0  0  0  0  0  0  0  0  0  0  0  0
  -22.2450   -9.3820   20.1560 C   0  0  0  0  0  3  0  0  0  0  0  0
  -23.0490  -10.5330   20.1050 C   0  0  0  0  0  3  0  0  0  0  0  0
  -21.7380   -7.2260   20.9870 O   0  0  0  0  0  0  0  0  0  0  0  0
  -21.6170   -6.3800   22.0600 C   0  0  0  0  0  0  0  0  0  0  0  0
  -21.1900   -6.8370   23.3250 C   0  0  0  0  0  3  0  0  0  0  0  0
  -21.0120   -5.9200   24.3820 C   0  0  0  0  0  3  0  0  0  0  0  0
  -21.2510   -4.5490   24.1720 C   0  0  0  0  0  0  0  0  0  0  0  0
  -21.6700   -4.0910   22.9120 C   0  0  0  0  0  3  0  0  0  0  0  0
  -21.8500   -5.0030   21.8570 C   0  0  0  0  0  0  0  0  0  0  0  0
  -22.2330   -4.5550   20.6380 F   0  0  0  0  0  0  0  0  0  0  0  0
  -21.0720   -3.6680   25.1850 F   0  0  0  0  0  0  0  0  0  0  0  0
  -23.2320  -13.7920   21.1890 C   0  0  0  0  0  0  0  0  0  0  0  0
  -22.4130  -13.0920   21.9670 N   0  0  0  0  0  0  0  0  0  0  0  0
  -22.8880  -14.8710   20.7080 O   0  0  0  0  0  0  0  0  0  0  0  0
  -22.7040  -12.2180   22.3790 H   0  0  0  0  0  0  0  0  0  0  0  0
  -21.4810  -13.4370   22.1530 H   0  0  0  0  0  0  0  0  0  0  0  0
  -26.0100  -15.3370   20.6520 N   0  0  0  0  0  0  0  0  0  0  0  0
  -25.2860  -16.0380   20.7610 H   0  0  0  0  0  0  0  0  0  0  0  0
  -26.9110  -15.7330   20.4110 H   0  0  0  0  0  0  0  0  0  0  0  0
  -33.0210  -23.9690   20.5570 C   0  0  0  0  0  1  0  0  0  0  0  0
  -32.5300  -23.1980   21.6440 O   0  0  0  0  0  0  0  0  0  0  0  0
  -31.2510  -21.8550   23.8020 C   0  0  0  0  0  2  0  0  0  0  0  0
  -29.8550  -22.5000   23.9260 C   0  0  0  0  0  2  0  0  0  0  0  0
  -29.7310  -23.9370   23.3790 C   0  0  0  0  0  2  0  0  0  0  0  0
  -29.3110  -24.0410   21.9040 C   0  0  0  0  0  2  0  0  0  0  0  0
  -29.0490  -25.5000   21.4830 C   0  0  0  0  0  2  0  0  0  0  0  0
  -28.8200  -25.6720   19.9730 C   0  0  0  0  0  2  0  0  0  0  0  0
  -28.7020  -27.0580   19.6480 O   0  0  0  0  0  0  0  0  0  0  0  0
  -24.6810  -31.7790   23.1150 C   0  0  0  0  0  0  0  0  0  0  0  0
  -27.4660  -27.6580   19.7470 C   0  0  0  0  0  0  0  0  0  0  0  0
  -23.5010  -30.4020   21.4320 C   0  0  0  0  0  3  0  0  0  0  0  0
  -24.9910  -29.0140   19.8990 C   0  0  0  0  0  0  0  0  0  0  0  0
  -25.9960  -30.9070   21.1880 C   0  0  0  0  0  2  0  0  0  0  0  0
  -26.1330  -29.5750   20.4800 C   0  0  0  0  0  0  0  0  0  0  0  0
  -27.3730  -28.9060   20.3990 C   0  0  0  0  0  3  0  0  0  0  0  0
  -26.3040  -27.1000   19.1670 C   0  0  0  0  0  3  0  0  0  0  0  0
  -25.0690  -27.7720   19.2430 C   0  0  0  0  0  3  0  0  0  0  0  0
  -23.7060  -29.8020   20.0150 C   0  0  0  0  0  2  0  0  0  0  0  0
  -24.7450  -31.0420   21.9710 N   0  0  0  0  0  0  0  0  0  0  0  0
  -23.6040  -31.9670   23.6980 O   0  0  0  0  0  0  0  0  0  0  0  0
  -22.9310  -29.3010   22.3540 C   0  0  0  0  0  0  0  0  0  0  0  0
  -21.6180  -29.0460   22.2370 N   0  0  0  0  0  0  0  0  0  0  0  0
  -23.6650  -28.6810   23.1290 O   0  0  0  0  0  0  0  0  0  0  0  0
  -21.0850  -29.6030   21.5840 H   0  0  0  0  0  0  0  0  0  0  0  0
  -18.3360  -27.6040   22.6870 C   0  0  0  0  0  0  0  0  0  0  0  0
  -20.8710  -28.0270   22.9720 C   0  0  0  0  0  3  0  0  0  0  0  0
  -21.0710  -26.6280   22.3430 C   0  0  0  0  0  2  0  0  0  0  0  0
  -19.9920  -26.2670   21.3180 C   0  0  0  0  0  2  0  0  0  0  0  0
  -18.6050  -26.2950   21.9660 C   0  0  0  0  0  2  0  0  0  0  0  0
  -19.4010  -28.4250   23.1460 C   0  0  0  0  0  0  0  0  0  0  0  0
  -19.0990  -29.6490   23.7820 C   0  0  0  0  0  3  0  0  0  0  0  0
  -17.7640  -30.0560   23.9620 C   0  0  0  0  0  3  0  0  0  0  0  0
  -16.7130  -29.2320   23.5210 C   0  0  0  0  0  3  0  0  0  0  0  0
  -17.0000  -28.0080   22.8910 C   0  0  0  0  0  3  0  0  0  0  0  0
  -25.9530  -32.4400   23.7350 C   0  0  0  0  0  3  0  0  0  0  0  0
  -26.5060  -31.6660   24.9930 C   0  0  1  0  0  0  0  0  0  0  0  0
  -25.4330  -31.3780   26.0680 C   0  0  0  0  0  1  0  0  0  0  0  0
  -27.1260  -30.3140   24.5680 C   0  0  0  0  0  1  0  0  0  0  0  0
  -27.6390  -32.4840   25.6570 C   0  0  0  0  0  1  0  0  0  0  0  0
  -25.6040  -33.8230   24.0880 N   0  0  0  0  0  0  0  0  0  0  0  0
  -25.9130  -34.8960   23.3480 C   0  0  0  0  0  0  0  0  0  0  0  0
  -26.5940  -34.8290   22.3200 O   0  0  0  0  0  0  0  0  0  0  0  0
  -24.9990  -33.9480   24.8870 H   0  0  0  0  0  0  0  0  0  0  0  0
  -24.1400  -36.6460   23.0050 C   0  0  0  0  0  1  0  0  0  0  0  0
  -25.3830  -36.2620   23.8240 C   0  0  0  0  0  3  0  0  0  0  0  0
  -27.4840  -37.1890   24.6920 C   0  0  0  0  0  1  0  0  0  0  0  0
  -26.3870  -37.3450   23.7400 N   0  0  0  0  0  0  0  0  0  0  0  0
  -25.9550  -38.2510   23.9000 H   0  0  0  0  0  0  0  0  0  0  0  0
  1  2  2  0
  1  4  1  0
  2  6  1  0
  3  5  1  0
  4  3  2  0
  5 49  1  0
  6 48  1  0
  6  5  2  0
  7  4  1  0
  7  9  1  0
  8  7  2  0
 10  9  1  0
 11 10  1  0
 12 17  1  0
 13 14  1  0
 13 12  1  0
 15 14  1  0
 15 22  1  0
 15 16  1  0
 17 11  1  0
 17 16  1  0
 18 11  2  0
 19 20  2  0
 20 39  1  0
 21 24  1  0
 21 20  1  0
 22 23  1  0
 22 19  1  0
 23 21  2  0
 24 25  1  0
 25 26  2  0
 27 26  1  0
 28 27  2  0
 29 28  1  0
 29 24  2  0
 30 27  1  0
 30 31  1  0
 31 32  1  0
 32 33  2  0
 34 33  1  0
 34 38  1  0
 35 34  2  0
 36 31  2  0
 36 35  1  0
 37 36  1  0
 39 40  1  0
 40 43  1  0
 40 42  1  0
 41 39  2  0
 44 19  1  0
 44 45  1  0
 46 44  1  0
 47 48  1  0
 49 50  1  0
 51 50  1  0
 52 51  1  0
 53 52  1  0
 54 53  1  0
 55 57  1  0
 55 54  1  0
 56 67  2  0
 57 62  1  0
 58 66  1  0
 58 68  1  0
 59 65  1  0
 59 61  1  0
 60 66  1  0
 61 60  1  0
 62 61  2  0
 63 64  1  0
 63 57  2  0
 64 59  2  0
 65 58  1  0
 66 56  1  0
 68 70  2  0
 69 68  1  0
 71 69  1  0
 72 81  2  0
 72 77  1  0
 73 69  1  0
 73 77  1  0
 74 73  1  0
 75 76  1  0
 75 74  1  0
 76 72  1  0
 77 78  2  0
 78 79  1  0
 80 79  2  0
 81 80  1  0
 82 56  1  0
 82 87  1  0
 82 83  1  0
 83 86  1  1
 83 84  1  0
 85 83  1  0
 87 90  1  0
 88 92  1  0
 88 87  1  0
 89 88  2  0
 92 91  1  0
 94 92  1  0
 94 95  1  0
 94 93  1  0
M  ISO  4  10 100  11 100  54 101  55 101
M  END
>  <TORSDO>  (74) 
F 26

>  <SCORE>  (74) 
-9.061

>  <name>  (74) 
73

>  <ligand_id>  (74) 
73

>  <original_smiles>  (74) 
[H]c1c([H])c([H])c2c(c1[H])C([H])([H])C([H])([H])C([H])([H])C2([H])N([H])C(=O)C1([H])N(C(=O)C([H])(N([H])C(=O)C([H])(N([H])C([H])([H])[H])C([H])([H])[H])C(C([H])([H])[H])(C([H])([H])[H])C([H])([H])[H])C([H])([H])c2c([H])c(OC([H])([H])C([H])([H])C([H])([H])C([H])([H])C([H])([H])C([H])([H])c3c([H])c(C(=O)C([H])([H])C([H])([H])C(=O)N4C([H])([H])C([H])([H])C([H])([H])C([H])(n5nc(-c6c([H])c([H])c(Oc7c([H])c([H])c(F)c([H])c7F)c([H])c6[H])c(C(=O)N([H])[H])c5N([H])[H])C4([H])[H])c([H])c([H])c3OC([H])([H])[H])c([H])c([H])c2C1([H])[H]

>  <smiles>  (74) 
[H]c1c([H])c([H])c2c(c1[H])C([H])([H])C([H])([H])C([H])([H])C2([H])N([H])C(=O)C1([H])N(C(=O)C([H])(N([H])C(=O)C([H])(N([H])C([H])([H])[H])C([H])([H])[H])C(C([H])([H])[H])(C([H])([H])[H])C([H])([H])[H])C([H])([H])c2c([H])c(OC([H])([H])C([H])([H])C([H])([H])C([H])([H])C([H])([H])C([H])([H])c3c([H])c(C(=O)C([H])([H])C([H])([H])C(=O)N4C([H])([H])C([H])([H])C([H])([H])C([H])(n5nc(-c6c([H])c([H])c(Oc7c([H])c([H])c(F)c([H])c7F)c([H])c6[H])c(C(=O)N([H])[H])c5N([H])[H])C4([H])[H])c([H])c([H])c3OC([H])([H])[H])c([H])c([H])c2C1([H])[H]

$$$$
74:0:0
     RDKit          3D

 96104  0  0  1  0  0  0  0  0999 V2000
  -24.9270  -19.5660   19.1450 C   0  0  0  0  0  2  0  0  0  0  0  0
  -27.2700  -19.0840   18.3020 C   0  0  0  0  0  3  0  0  0  0  0  0
  -26.5780  -18.1230   20.4240 C   0  0  0  0  0  3  0  0  0  0  0  0
  -28.5240  -18.4580   18.4360 C   0  0  0  0  0  3  0  0  0  0  0  0
  -27.8260  -17.4890   20.5500 C   0  0  0  0  0  3  0  0  0  0  0  0
  -26.2830  -18.9010   19.2890 C   0  0  0  0  0  0  0  0  0  0  0  0
  -28.8110  -17.6250   19.5470 C   0  0  0  0  0  0  0  0  0  0  0  0
  -30.1430  -16.8620   19.6810 C   0  0  0  0  0  3  0  0  0  0  0  0
  -30.6950  -14.4830   20.4040 C   0  0  0  0  0  0  0  0  0  0  0  0
  -30.4260  -12.2700   19.4230 C   0  0  0  0  0  2  0  0  0  0  0  0
  -29.4900  -12.4120   18.2040 C   0  0  0  0  0  2  0  0  0  0  0  0
  -28.0130  -12.3010   18.6280 C   0  0  0  0  0  2  0  0  0  0  0  0
  -27.6540  -13.1900   19.8500 C   0  0  0  0  0  3  0  0  0  0  0  0
  -28.7150  -13.0490   20.9760 C   0  0  0  0  0  2  0  0  0  0  0  0
  -30.0410  -13.2980   20.3930 N   0  0  0  0  0  0  0  0  0  0  0  0
  -31.9050  -14.5940   20.2200 O   0  0  0  0  0  0  0  0  0  0  0  0
  -29.8720  -15.5310   20.2550 N   0  0  0  0  0  0  0  0  0  0  0  0
  -28.8960  -15.3310   20.4000 H   0  0  0  0  0  0  0  0  0  0  0  0
  -25.2550  -13.8040   20.5610 C   0  0  0  0  0  0  0  0  0  0  0  0
  -24.1790  -13.0390   20.9150 C   0  0  0  0  0  0  0  0  0  0  0  0
  -24.6360  -11.6860   20.8800 C   0  0  0  0  0  0  0  0  0  0  0  0
  -26.3000  -12.9220   20.3310 N   0  0  0  0  0  0  0  0  0  0  0  0
  -25.9290  -11.6420   20.5850 N   0  0  0  0  0  0  0  0  0  0  0  0
  -23.9040  -10.4260   21.0450 C   0  0  0  0  0  0  0  0  0  0  0  0
  -24.3600   -9.4180   21.9220 C   0  0  0  0  0  3  0  0  0  0  0  0
  -23.6270   -8.2230   22.0820 C   0  0  0  0  0  3  0  0  0  0  0  0
  -22.4260   -8.0280   21.3590 C   0  0  0  0  0  0  0  0  0  0  0  0
  -21.9900   -9.0220   20.4660 C   0  0  0  0  0  3  0  0  0  0  0  0
  -22.7220  -10.2100   20.3080 C   0  0  0  0  0  3  0  0  0  0  0  0
  -21.6670   -6.8860   21.4250 O   0  0  0  0  0  0  0  0  0  0  0  0
  -21.6860   -6.0720   22.5280 C   0  0  0  0  0  0  0  0  0  0  0  0
  -21.3990   -6.5640   23.8200 C   0  0  0  0  0  3  0  0  0  0  0  0
  -21.3650   -5.6810   24.9170 C   0  0  0  0  0  3  0  0  0  0  0  0
  -21.6040   -4.3070   24.7230 C   0  0  0  0  0  0  0  0  0  0  0  0
  -21.8830   -3.8140   23.4360 C   0  0  0  0  0  3  0  0  0  0  0  0
  -21.9220   -4.6950   22.3410 C   0  0  0  0  0  0  0  0  0  0  0  0
  -22.1680   -4.2120   21.0990 F   0  0  0  0  0  0  0  0  0  0  0  0
  -21.5620   -3.4570   25.7760 F   0  0  0  0  0  0  0  0  0  0  0  0
  -22.7800  -13.5210   21.1780 C   0  0  0  0  0  0  0  0  0  0  0  0
  -22.0450  -12.8250   22.0380 N   0  0  0  0  0  0  0  0  0  0  0  0
  -22.3490  -14.5530   20.6630 O   0  0  0  0  0  0  0  0  0  0  0  0
  -22.4150  -12.0040   22.4930 H   0  0  0  0  0  0  0  0  0  0  0  0
  -21.1020  -13.1210   22.2450 H   0  0  0  0  0  0  0  0  0  0  0  0
  -25.4210  -15.1740   20.3910 N   0  0  0  0  0  0  0  0  0  0  0  0
  -24.6330  -15.8080   20.4550 H   0  0  0  0  0  0  0  0  0  0  0  0
  -26.2720  -15.6380   20.0970 H   0  0  0  0  0  0  0  0  0  0  0  0
  -30.2430  -16.0930   17.1760 C   0  0  0  0  0  1  0  0  0  0  0  0
  -30.9580  -16.7950   18.3480 C   0  0  0  0  0  2  0  0  0  0  0  0
  -25.0110  -21.0840   19.3560 C   0  0  0  0  0  2  0  0  0  0  0  0
  -25.4160  -21.5060   20.7830 C   0  0  0  0  0  2  0  0  0  0  0  0
  -25.7650  -22.9980   20.8520 C   0  0  0  0  0  2  0  0  0  0  0  0
  -26.3180  -23.4420   22.2190 C   0  0  0  0  0  2  0  0  0  0  0  0
  -26.9580  -24.8400   22.1690 C   0  0  0  0  0  2  0  0  0  0  0  0
  -28.3360  -24.8550   21.4740 C   0  0  0  0  0  2  0  0  0  0  0  0
  -28.9090  -26.2620   21.2310 C   0  0  0  0  0  2  0  0  0  0  0  0
  -28.4030  -26.7620   19.9980 O   0  0  0  0  0  0  0  0  0  0  0  0
  -24.6070  -31.8730   23.2140 C   0  0  0  0  0  0  0  0  0  0  0  0
  -27.2430  -27.4850   20.0750 C   0  0  0  0  0  0  0  0  0  0  0  0
  -23.3940  -30.4910   21.5540 C   0  0  0  0  0  3  0  0  0  0  0  0
  -24.8480  -28.9640   20.1120 C   0  0  0  0  0  0  0  0  0  0  0  0
  -25.9170  -30.8440   21.3680 C   0  0  0  0  0  2  0  0  0  0  0  0
  -25.9980  -29.4780   20.7260 C   0  0  0  0  0  0  0  0  0  0  0  0
  -27.1970  -28.7360   20.7230 C   0  0  0  0  0  3  0  0  0  0  0  0
  -26.0900  -26.9860   19.4380 C   0  0  0  0  0  3  0  0  0  0  0  0
  -24.8850  -27.7130   19.4700 C   0  0  0  0  0  3  0  0  0  0  0  0
  -23.6020  -29.8190   20.1690 C   0  0  0  0  0  2  0  0  0  0  0  0
  -24.6570  -31.0830   22.1030 N   0  0  0  0  0  0  0  0  0  0  0  0
  -23.5280  -32.1480   23.7560 O   0  0  0  0  0  0  0  0  0  0  0  0
  -22.7390  -29.4630   22.5050 C   0  0  0  0  0  0  0  0  0  0  0  0
  -21.4120  -29.3000   22.3760 N   0  0  0  0  0  0  0  0  0  0  0  0
  -23.4190  -28.8180   23.3080 O   0  0  0  0  0  0  0  0  0  0  0  0
  -20.9320  -29.8690   21.6930 H   0  0  0  0  0  0  0  0  0  0  0  0
  -18.0250  -28.1340   22.8520 C   0  0  0  0  0  0  0  0  0  0  0  0
  -20.5830  -28.3630   23.1310 C   0  0  0  0  0  3  0  0  0  0  0  0
  -20.6760  -26.9380   22.5380 C   0  0  0  0  0  2  0  0  0  0  0  0
  -19.5670  -26.6310   21.5250 C   0  0  0  0  0  2  0  0  0  0  0  0
  -18.1900  -26.7850   22.1760 C   0  0  0  0  0  2  0  0  0  0  0  0
  -19.1500  -28.8830   23.2900 C   0  0  0  0  0  0  0  0  0  0  0  0
  -18.9450  -30.1450   23.8880 C   0  0  0  0  0  3  0  0  0  0  0  0
  -17.6460  -30.6590   24.0560 C   0  0  0  0  0  3  0  0  0  0  0  0
  -16.5340  -29.9070   23.6340 C   0  0  0  0  0  3  0  0  0  0  0  0
  -16.7240  -28.6470   23.0380 C   0  0  0  0  0  3  0  0  0  0  0  0
  -25.8980  -32.4860   23.8410 C   0  0  0  0  0  3  0  0  0  0  0  0
  -26.4430  -31.6630   25.0720 C   0  0  1  0  0  0  0  0  0  0  0  0
  -25.3680  -31.3740   26.1470 C   0  0  0  0  0  1  0  0  0  0  0  0
  -27.0240  -30.3080   24.6070 C   0  0  0  0  0  1  0  0  0  0  0  0
  -27.6040  -32.4330   25.7470 C   0  0  0  0  0  1  0  0  0  0  0  0
  -25.5870  -33.8660   24.2360 N   0  0  0  0  0  0  0  0  0  0  0  0
  -25.9020  -34.9500   23.5150 C   0  0  0  0  0  0  0  0  0  0  0  0
  -26.5590  -34.8950   22.4720 O   0  0  0  0  0  0  0  0  0  0  0  0
  -25.0030  -33.9830   25.0510 H   0  0  0  0  0  0  0  0  0  0  0  0
  -24.1490  -36.7340   23.2640 C   0  0  0  0  0  1  0  0  0  0  0  0
  -25.4100  -36.3140   24.0350 C   0  0  0  0  0  3  0  0  0  0  0  0
  -27.5590  -37.1810   24.8460 C   0  0  0  0  0  1  0  0  0  0  0  0
  -26.4310  -37.3810   23.9410 N   0  0  0  0  0  0  0  0  0  0  0  0
  -26.0230  -38.2910   24.1380 H   0  0  0  0  0  0  0  0  0  0  0  0
  1  6  1  0
  1 49  1  0
  2  4  2  0
  2  6  1  0
  3  5  1  0
  4  7  1  0
  6  3  2  0
  7  8  1  0
  7  5  2  0
  8 48  1  0
  8 17  1  0
 10 15  1  0
 11 12  1  0
 11 10  1  0
 13 12  1  0
 13 22  1  0
 13 14  1  0
 15  9  1  0
 15 14  1  0
 16  9  2  0
 17 18  1  0
 17  9  1  0
 19 20  2  0
 20 39  1  0
 21 20  1  0
 21 24  1  0
 22 19  1  0
 22 23  1  0
 23 21  2  0
 24 25  1  0
 25 26  2  0
 27 30  1  0
 27 26  1  0
 28 27  2  0
 29 28  1  0
 29 24  2  0
 30 31  1  0
 31 32  1  0
 32 33  2  0
 34 33  1  0
 34 38  1  0
 35 34  2  0
 36 31  2  0
 36 35  1  0
 37 36  1  0
 39 40  1  0
 40 43  1  0
 40 42  1  0
 41 39  2  0
 44 45  1  0
 44 19  1  0
 46 44  1  0
 47 48  1  0
 49 50  1  0
 50 51  1  0
 51 52  1  0
 53 52  1  0
 54 53  1  0
 55 54  1  0
 56 58  1  0
 56 55  1  0
 57 68  2  0
 58 63  1  0
 59 67  1  0
 59 69  1  0
 60 66  1  0
 60 62  1  0
 61 67  1  0
 62 61  1  0
 63 62  2  0
 64 65  1  0
 64 58  2  0
 65 60  2  0
 66 59  1  0
 67 57  1  0
 69 71  2  0
 70 69  1  0
 72 70  1  0
 73 82  2  0
 73 78  1  0
 74 70  1  0
 74 78  1  0
 75 74  1  0
 76 77  1  0
 76 75  1  0
 77 73  1  0
 78 79  2  0
 79 80  1  0
 81 80  2  0
 82 81  1  0
 83 57  1  0
 83 88  1  0
 83 84  1  0
 84 87  1  1
 84 85  1  0
 86 84  1  0
 88 91  1  0
 89 93  1  0
 89 88  1  0
 90 89  2  0
 93 92  1  0
 95 93  1  0
 95 96  1  0
 95 94  1  0
M  ISO  4   9 100  17 100  55 101  56 101
M  END
>  <TORSDO>  (75) 
F 26

>  <SCORE>  (75) 
-5.378

>  <name>  (75) 
74

>  <ligand_id>  (75) 
74

>  <original_smiles>  (75) 
[H]c1c([H])c([H])c2c(c1[H])C([H])([H])C([H])([H])C([H])([H])C2([H])N([H])C(=O)C1([H])N(C(=O)C([H])(N([H])C(=O)C([H])(N([H])C([H])([H])[H])C([H])([H])[H])C(C([H])([H])[H])(C([H])([H])[H])C([H])([H])[H])C([H])([H])c2c([H])c(OC([H])([H])C([H])([H])C([H])([H])C([H])([H])C([H])([H])C([H])([H])C([H])([H])C([H])([H])c3c([H])c([H])c(C([H])(N([H])C(=O)N4C([H])([H])C([H])([H])C([H])([H])C([H])(n5nc(-c6c([H])c([H])c(Oc7c([H])c([H])c(F)c([H])c7F)c([H])c6[H])c(C(=O)N([H])[H])c5N([H])[H])C4([H])[H])C([H])([H])C([H])([H])[H])c([H])c3[H])c([H])c([H])c2C1([H])[H]

>  <smiles>  (75) 
[H]c1c([H])c([H])c2c(c1[H])C([H])([H])C([H])([H])C([H])([H])C2([H])N([H])C(=O)C1([H])N(C(=O)C([H])(N([H])C(=O)C([H])(N([H])C([H])([H])[H])C([H])([H])[H])C(C([H])([H])[H])(C([H])([H])[H])C([H])([H])[H])C([H])([H])c2c([H])c(OC([H])([H])C([H])([H])C([H])([H])C([H])([H])C([H])([H])C([H])([H])C([H])([H])C([H])([H])c3c([H])c([H])c(C([H])(N([H])C(=O)N4C([H])([H])C([H])([H])C([H])([H])C([H])(n5nc(-c6c([H])c([H])c(Oc7c([H])c([H])c(F)c([H])c7F)c([H])c6[H])c(C(=O)N([H])[H])c5N([H])[H])C4([H])[H])C([H])([H])C([H])([H])[H])c([H])c3[H])c([H])c([H])c2C1([H])[H]

$$$$
75:0:0
     RDKit          3D

 88 95  0  0  1  0  0  0  0  0999 V2000
  -28.8680  -22.9780   20.6000 C   0  0  0  0  0  3  0  0  0  0  0  0
  -30.3040  -23.3020   20.7030 N   0  0  0  0  0  4  0  0  0  0  0  0
  -30.7150  -23.3600   19.7880 H   0  0  0  0  0  0  0  0  0  0  0  0
  -30.7930  -22.5940   21.2220 H   0  0  0  0  0  0  0  0  0  0  0  0
  -30.4360  -24.1830   21.1660 H   0  0  0  0  0  0  0  0  0  0  0  0
  -28.8660  -21.3330   19.9590 C   0  0  0  0  0  0  0  0  0  0  0  0
  -28.5590  -21.2130   18.7720 O   0  0  0  0  0  0  0  0  0  0  0  0
  -29.2770  -19.8390   20.7050 C   0  0  0  0  0  2  0  0  0  0  0  0
  -29.7260  -18.2720   20.0270 C   0  0  0  0  0  3  0  0  0  0  0  0
  -29.6830  -16.6450   20.7060 C   0  0  0  0  0  3  0  0  0  0  0  0
  -30.4460  -15.1610   20.2760 C   0  0  0  0  0  0  0  0  0  0  0  0
  -30.3920  -12.7490   19.3670 C   0  0  0  0  0  2  0  0  0  0  0  0
  -29.4600  -12.6410   18.1330 C   0  0  0  0  0  2  0  0  0  0  0  0
  -28.0020  -12.4020   18.5660 C   0  0  0  0  0  2  0  0  0  0  0  0
  -27.5830  -13.3370   19.7280 C   0  0  0  0  0  3  0  0  0  0  0  0
  -28.6360  -13.4010   20.8530 C   0  0  0  0  0  2  0  0  0  0  0  0
  -29.8950  -13.8600   20.2480 N   0  0  0  0  0  0  0  0  0  0  0  0
  -31.6310  -15.1980   19.9150 O   0  0  0  0  0  0  0  0  0  0  0  0
  -25.2060  -13.9070   20.4730 C   0  0  0  0  0  0  0  0  0  0  0  0
  -24.1440  -13.1330   20.8490 C   0  0  0  0  0  0  0  0  0  0  0  0
  -24.6110  -11.7830   20.8270 C   0  0  0  0  0  0  0  0  0  0  0  0
  -26.2490  -13.0300   20.2340 N   0  0  0  0  0  0  0  0  0  0  0  0
  -25.9030  -11.7470   20.5140 N   0  0  0  0  0  0  0  0  0  0  0  0
  -23.8850  -10.5220   21.0280 C   0  0  0  0  0  0  0  0  0  0  0  0
  -24.3270   -9.5510   21.9540 C   0  0  0  0  0  3  0  0  0  0  0  0
  -23.5990   -8.3570   22.1430 C   0  0  0  0  0  3  0  0  0  0  0  0
  -22.4120   -8.1250   21.4070 C   0  0  0  0  0  0  0  0  0  0  0  0
  -21.9880   -9.0830   20.4700 C   0  0  0  0  0  3  0  0  0  0  0  0
  -22.7180  -10.2690   20.2790 C   0  0  0  0  0  3  0  0  0  0  0  0
  -21.6540   -6.9830   21.5060 O   0  0  0  0  0  0  0  0  0  0  0  0
  -21.6350   -6.2290   22.6520 C   0  0  0  0  0  0  0  0  0  0  0  0
  -21.2610   -6.7760   23.8990 C   0  0  0  0  0  3  0  0  0  0  0  0
  -21.1880   -5.9490   25.0370 C   0  0  0  0  0  3  0  0  0  0  0  0
  -21.4770   -4.5770   24.9310 C   0  0  0  0  0  0  0  0  0  0  0  0
  -21.8440   -4.0280   23.6890 C   0  0  0  0  0  3  0  0  0  0  0  0
  -21.9200   -4.8520   22.5530 C   0  0  0  0  0  0  0  0  0  0  0  0
  -22.2520   -4.3140   21.3550 F   0  0  0  0  0  0  0  0  0  0  0  0
  -21.4000   -3.7800   26.0230 F   0  0  0  0  0  0  0  0  0  0  0  0
  -22.7470  -13.6120   21.1160 C   0  0  0  0  0  0  0  0  0  0  0  0
  -22.0200  -12.9250   21.9890 N   0  0  0  0  0  0  0  0  0  0  0  0
  -22.3090  -14.6320   20.5860 O   0  0  0  0  0  0  0  0  0  0  0  0
  -22.3890  -12.0990   22.4400 H   0  0  0  0  0  0  0  0  0  0  0  0
  -21.0830  -13.2270   22.2110 H   0  0  0  0  0  0  0  0  0  0  0  0
  -25.3690  -15.2770   20.2880 N   0  0  0  0  0  0  0  0  0  0  0  0
  -24.6030  -15.9340   20.4000 H   0  0  0  0  0  0  0  0  0  0  0  0
  -26.2200  -15.7150   19.9580 H   0  0  0  0  0  0  0  0  0  0  0  0
  -28.0480  -24.4070   19.9830 C   0  0  0  0  0  2  0  0  0  0  0  0
  -28.2130  -25.9850   20.3140 O   0  0  0  0  0  0  0  0  0  0  0  0
  -24.6370  -31.8650   23.2170 C   0  0  0  0  0  0  0  0  0  0  0  0
  -27.1850  -27.0360   20.2100 C   0  0  0  0  0  0  0  0  0  0  0  0
  -23.4340  -30.4650   21.5870 C   0  0  0  0  0  3  0  0  0  0  0  0
  -24.8770  -28.8650   20.1630 C   0  0  0  0  0  0  0  0  0  0  0  0
  -25.9960  -30.6920   21.4270 C   0  0  0  0  0  2  0  0  0  0  0  0
  -26.0630  -29.2870   20.7770 C   0  0  0  0  0  0  0  0  0  0  0  0
  -27.2120  -28.3900   20.7820 C   0  0  0  0  0  3  0  0  0  0  0  0
  -25.9760  -26.7500   19.5390 C   0  0  0  0  0  3  0  0  0  0  0  0
  -24.8550  -27.6160   19.5240 C   0  0  0  0  0  3  0  0  0  0  0  0
  -23.6560  -29.7780   20.2110 C   0  0  0  0  0  2  0  0  0  0  0  0
  -24.7100  -31.0330   22.1310 N   0  0  0  0  0  0  0  0  0  0  0  0
  -23.5510  -32.1560   23.7420 O   0  0  0  0  0  0  0  0  0  0  0  0
  -22.7460  -29.4690   22.5570 C   0  0  0  0  0  0  0  0  0  0  0  0
  -21.4160  -29.3070   22.4380 N   0  0  0  0  0  0  0  0  0  0  0  0
  -23.4160  -28.8430   23.3830 O   0  0  0  0  0  0  0  0  0  0  0  0
  -20.9310  -29.8620   21.7470 H   0  0  0  0  0  0  0  0  0  0  0  0
  -18.0320  -28.1110   22.9560 C   0  0  0  0  0  0  0  0  0  0  0  0
  -20.5930  -28.3760   23.2160 C   0  0  0  0  0  3  0  0  0  0  0  0
  -20.6920  -26.9400   22.6510 C   0  0  0  0  0  2  0  0  0  0  0  0
  -19.5900  -26.6120   21.6390 C   0  0  0  0  0  2  0  0  0  0  0  0
  -18.2090  -26.7590   22.2840 C   0  0  0  0  0  2  0  0  0  0  0  0
  -19.1520  -28.8770   23.3790 C   0  0  0  0  0  0  0  0  0  0  0  0
  -18.9310  -30.1400   23.9700 C   0  0  0  0  0  3  0  0  0  0  0  0
  -17.6260  -30.6390   24.1390 C   0  0  0  0  0  3  0  0  0  0  0  0
  -16.5220  -29.8710   23.7310 C   0  0  0  0  0  3  0  0  0  0  0  0
  -16.7270  -28.6090   23.1450 C   0  0  0  0  0  3  0  0  0  0  0  0
  -25.9140  -32.5050   23.8430 C   0  0  0  0  0  3  0  0  0  0  0  0
  -26.4280  -31.7370   25.1230 C   0  0  1  0  0  0  0  0  0  0  0  0
  -25.3350  -31.5080   26.1930 C   0  0  0  0  0  1  0  0  0  0  0  0
  -27.0060  -30.3550   24.7430 C   0  0  0  0  0  1  0  0  0  0  0  0
  -27.5810  -32.5310   25.7820 C   0  0  0  0  0  1  0  0  0  0  0  0
  -25.5980  -33.9030   24.1810 N   0  0  0  0  0  0  0  0  0  0  0  0
  -25.9210  -34.9650   23.4300 C   0  0  0  0  0  0  0  0  0  0  0  0
  -26.5800  -34.8700   22.3910 O   0  0  0  0  0  0  0  0  0  0  0  0
  -25.0120  -34.0500   24.9890 H   0  0  0  0  0  0  0  0  0  0  0  0
  -24.1810  -36.7590   23.1220 C   0  0  0  0  0  1  0  0  0  0  0  0
  -25.4400  -36.3510   23.9050 C   0  0  0  0  0  3  0  0  0  0  0  0
  -27.5900  -37.2410   24.6950 C   0  0  0  0  0  1  0  0  0  0  0  0
  -26.4680  -37.4090   23.7760 N   0  0  0  0  0  0  0  0  0  0  0  0
  -26.0610  -38.3270   23.9350 H   0  0  0  0  0  0  0  0  0  0  0  0
  1 47  1  0
  1  2  1  0
  2  5  1  0
  2  4  1  0
  3  2  1  0
  6  1  1  0
  6  8  1  0
  7  6  2  0
  9  8  1  0
  9 10  2  0
 11 10  1  0
 12 17  1  0
 13 14  1  0
 13 12  1  0
 15 14  1  0
 15 22  1  0
 15 16  1  0
 17 11  1  0
 17 16  1  0
 18 11  2  0
 19 20  2  0
 20 39  1  0
 21 20  1  0
 21 24  1  0
 22 19  1  0
 22 23  1  0
 23 21  2  0
 24 25  1  0
 25 26  2  0
 27 30  1  0
 27 26  1  0
 28 27  2  0
 29 28  1  0
 29 24  2  0
 30 31  1  0
 31 32  1  0
 32 33  2  0
 34 33  1  0
 34 38  1  0
 35 34  2  0
 36 31  2  0
 36 35  1  0
 37 36  1  0
 39 40  1  0
 40 43  1  0
 40 42  1  0
 41 39  2  0
 44 45  1  0
 44 19  1  0
 46 44  1  0
 47 48  1  0
 49 60  2  0
 50 48  1  0
 50 55  1  0
 51 59  1  0
 51 61  1  0
 52 58  1  0
 52 54  1  0
 53 59  1  0
 54 55  2  0
 54 53  1  0
 56 50  2  0
 57 56  1  0
 57 52  2  0
 58 51  1  0
 59 49  1  0
 61 63  2  0
 62 61  1  0
 64 62  1  0
 65 74  2  0
 65 70  1  0
 66 62  1  0
 66 70  1  0
 67 66  1  0
 68 69  1  0
 68 67  1  0
 69 65  1  0
 70 71  2  0
 71 72  1  0
 73 72  2  0
 74 73  1  0
 75 49  1  0
 75 80  1  0
 75 76  1  0
 76 79  1  1
 76 77  1  0
 78 76  1  0
 80 83  1  0
 81 85  1  0
 81 80  1  0
 82 81  2  0
 85 84  1  0
 87 85  1  0
 87 88  1  0
 87 86  1  0
M  ISO  4  10 100  11 100  47 101  48 101
M  END
>  <TORSDO>  (76) 
F 22

>  <SCORE>  (76) 
-15.954

>  <name>  (76) 
75

>  <ligand_id>  (76) 
75

>  <original_smiles>  (76) 
[H]c1c([H])c([H])c2c(c1[H])C([H])([H])C([H])([H])C([H])([H])C2([H])N([H])C(=O)C1([H])N(C(=O)C([H])(N([H])C(=O)C([H])(N([H])C([H])([H])[H])C([H])([H])[H])C(C([H])([H])[H])(C([H])([H])[H])C([H])([H])[H])C([H])([H])c2c([H])c(OC([H])([H])C([H])(C(=O)C([H])([H])C([H])([H])C([H])([H])C(=O)N3C([H])([H])C([H])([H])C([H])([H])C([H])(n4nc(-c5c([H])c([H])c(Oc6c([H])c([H])c(F)c([H])c6F)c([H])c5[H])c(C(=O)N([H])[H])c4N([H])[H])C3([H])[H])[N+]([H])([H])[H])c([H])c([H])c2C1([H])[H]

>  <smiles>  (76) 
[H]c1c([H])c([H])c2c(c1[H])C([H])([H])C([H])([H])C([H])([H])C2([H])N([H])C(=O)C1([H])N(C(=O)C([H])(N([H])C(=O)C([H])(N([H])C([H])([H])[H])C([H])([H])[H])C(C([H])([H])[H])(C([H])([H])[H])C([H])([H])[H])C([H])([H])c2c([H])c(OC([H])([H])C([H])(C(=O)C([H])([H])C([H])([H])C([H])([H])C(=O)N3C([H])([H])C([H])([H])C([H])([H])C([H])(n4nc(-c5c([H])c([H])c(Oc6c([H])c([H])c(F)c([H])c6F)c([H])c5[H])c(C(=O)N([H])[H])c4N([H])[H])C3([H])[H])[N+]([H])([H])[H])c([H])c([H])c2C1([H])[H]

$$$$
76:0:0
     RDKit          3D

 94102  0  0  1  0  0  0  0  0999 V2000
  -33.6450  -19.2970   18.6330 C   0  0  0  0  0  3  0  0  0  0  0  0
  -32.8520  -19.9710   17.6860 C   0  0  0  0  0  3  0  0  0  0  0  0
  -33.1250  -19.0220   19.9110 C   0  0  0  0  0  3  0  0  0  0  0  0
  -31.5310  -20.3320   18.0110 C   0  0  0  0  0  3  0  0  0  0  0  0
  -31.8030  -19.3910   20.2490 C   0  0  0  0  0  0  0  0  0  0  0  0
  -30.9870  -20.0370   19.2810 C   0  0  0  0  0  0  0  0  0  0  0  0
  -31.2920  -19.0410   21.6450 C   0  0  0  0  0  2  0  0  0  0  0  0
  -30.4040  -17.7990   21.6390 C   0  0  0  0  0  0  0  0  0  0  0  0
  -29.2850  -17.7980   22.1580 O   0  0  0  0  0  0  0  0  0  0  0  0
  -30.9700  -16.5840   20.9270 C   0  0  0  0  0  2  0  0  0  0  0  0
  -30.2960  -15.2460   21.2600 C   0  0  0  0  0  2  0  0  0  0  0  0
  -30.8090  -14.1670   20.3020 C   0  0  0  0  0  0  0  0  0  0  0  0
  -30.3380  -12.1810   18.9240 C   0  0  0  0  0  2  0  0  0  0  0  0
  -29.3830  -12.5920   17.7900 C   0  0  0  0  0  2  0  0  0  0  0  0
  -27.9170  -12.5080   18.2570 C   0  0  0  0  0  2  0  0  0  0  0  0
  -27.6770  -13.2020   19.6280 C   0  0  0  0  0  3  0  0  0  0  0  0
  -28.7500  -12.7830   20.6580 C   0  0  0  0  0  2  0  0  0  0  0  0
  -30.0670  -13.0590   20.0690 N   0  0  0  0  0  0  0  0  0  0  0  0
  -31.8710  -14.3770   19.7060 O   0  0  0  0  0  0  0  0  0  0  0  0
  -25.2920  -13.8360   20.3650 C   0  0  0  0  0  0  0  0  0  0  0  0
  -24.2260  -13.0720   20.7600 C   0  0  0  0  0  0  0  0  0  0  0  0
  -24.6770  -11.7180   20.7270 C   0  0  0  0  0  0  0  0  0  0  0  0
  -26.3250  -12.9450   20.1210 N   0  0  0  0  0  0  0  0  0  0  0  0
  -25.9590  -11.6660   20.3890 N   0  0  0  0  0  0  0  0  0  0  0  0
  -23.9450  -10.4620   20.9400 C   0  0  0  0  0  0  0  0  0  0  0  0
  -24.3730   -9.5120   21.8910 C   0  0  0  0  0  3  0  0  0  0  0  0
  -23.6450   -8.3180   22.0850 C   0  0  0  0  0  3  0  0  0  0  0  0
  -22.4730   -8.0700   21.3310 C   0  0  0  0  0  0  0  0  0  0  0  0
  -22.0660   -9.0100   20.3680 C   0  0  0  0  0  3  0  0  0  0  0  0
  -22.7940  -10.1950   20.1710 C   0  0  0  0  0  3  0  0  0  0  0  0
  -21.7130   -6.9300   21.4370 O   0  0  0  0  0  0  0  0  0  0  0  0
  -21.6390   -6.2220   22.6090 C   0  0  0  0  0  0  0  0  0  0  0  0
  -21.1740   -6.8090   23.8080 C   0  0  0  0  0  3  0  0  0  0  0  0
  -21.0500   -6.0260   24.9720 C   0  0  0  0  0  3  0  0  0  0  0  0
  -21.3790   -4.6570   24.9390 C   0  0  0  0  0  0  0  0  0  0  0  0
  -21.8380   -4.0700   23.7470 C   0  0  0  0  0  3  0  0  0  0  0  0
  -21.9670   -4.8500   22.5860 C   0  0  0  0  0  0  0  0  0  0  0  0
  -22.3880   -4.2750   21.4330 F   0  0  0  0  0  0  0  0  0  0  0  0
  -21.2540   -3.9020   26.0560 F   0  0  0  0  0  0  0  0  0  0  0  0
  -22.8390  -13.5610   21.0640 C   0  0  0  0  0  0  0  0  0  0  0  0
  -22.1300  -12.8710   21.9530 N   0  0  0  0  0  0  0  0  0  0  0  0
  -22.3930  -14.5840   20.5490 O   0  0  0  0  0  0  0  0  0  0  0  0
  -22.5050  -12.0410   22.3860 H   0  0  0  0  0  0  0  0  0  0  0  0
  -21.1980  -13.1690   22.1980 H   0  0  0  0  0  0  0  0  0  0  0  0
  -25.4640  -15.2030   20.1810 N   0  0  0  0  0  0  0  0  0  0  0  0
  -24.7110  -15.8680   20.3110 H   0  0  0  0  0  0  0  0  0  0  0  0
  -26.3210  -15.6330   19.8570 H   0  0  0  0  0  0  0  0  0  0  0  0
  -29.5230  -20.4000   19.5400 C   0  0  0  0  0  2  0  0  0  0  0  0
  -29.2670  -21.9120   19.6080 C   0  0  0  0  0  2  0  0  0  0  0  0
  -29.8220  -22.5330   20.9010 C   0  0  0  0  0  2  0  0  0  0  0  0
  -30.7270  -23.7410   20.6500 C   0  0  0  0  0  2  0  0  0  0  0  0
  -30.0340  -25.0870   20.8440 C   0  0  0  0  0  2  0  0  0  0  0  0
  -28.7560  -25.3500   20.0330 C   0  0  0  0  0  2  0  0  0  0  0  0
  -28.5360  -26.7070   20.3510 O   0  0  0  0  0  0  0  0  0  0  0  0
  -24.5590  -31.7530   23.2410 C   0  0  0  0  0  0  0  0  0  0  0  0
  -27.2980  -27.2910   20.3130 C   0  0  0  0  0  0  0  0  0  0  0  0
  -23.3940  -30.3280   21.5830 C   0  0  0  0  0  3  0  0  0  0  0  0
  -24.8830  -28.7490   20.2400 C   0  0  0  0  0  0  0  0  0  0  0  0
  -25.9170  -30.6850   21.4490 C   0  0  0  0  0  2  0  0  0  0  0  0
  -26.0160  -29.2990   20.8500 C   0  0  0  0  0  0  0  0  0  0  0  0
  -27.2170  -28.5730   20.8880 C   0  0  0  0  0  3  0  0  0  0  0  0
  -26.1510  -26.7290   19.7090 C   0  0  0  0  0  3  0  0  0  0  0  0
  -24.9430  -27.4590   19.6700 C   0  0  0  0  0  3  0  0  0  0  0  0
  -23.6380  -29.6080   20.2270 C   0  0  0  0  0  2  0  0  0  0  0  0
  -24.6410  -30.9360   22.1520 N   0  0  0  0  0  0  0  0  0  0  0  0
  -23.4630  -32.0460   23.7430 O   0  0  0  0  0  0  0  0  0  0  0  0
  -22.7040  -29.3340   22.5410 C   0  0  0  0  0  0  0  0  0  0  0  0
  -21.3810  -29.1710   22.3740 N   0  0  0  0  0  0  0  0  0  0  0  0
  -23.3550  -28.7080   23.3830 O   0  0  0  0  0  0  0  0  0  0  0  0
  -20.9240  -29.7330   21.6680 H   0  0  0  0  0  0  0  0  0  0  0  0
  -17.9720  -28.0510   22.7900 C   0  0  0  0  0  0  0  0  0  0  0  0
  -20.5250  -28.2550   23.1270 C   0  0  0  0  0  3  0  0  0  0  0  0
  -20.6110  -26.8180   22.5620 C   0  0  0  0  0  2  0  0  0  0  0  0
  -19.5290  -26.5110   21.5210 C   0  0  0  0  0  2  0  0  0  0  0  0
  -18.1360  -26.6920   22.1290 C   0  0  0  0  0  2  0  0  0  0  0  0
  -19.0950  -28.7920   23.2430 C   0  0  0  0  0  0  0  0  0  0  0  0
  -18.8920  -30.0650   23.8150 C   0  0  0  0  0  3  0  0  0  0  0  0
  -17.5950  -30.5980   23.9410 C   0  0  0  0  0  3  0  0  0  0  0  0
  -16.4850  -29.8550   23.5050 C   0  0  0  0  0  3  0  0  0  0  0  0
  -16.6740  -28.5830   22.9360 C   0  0  0  0  0  3  0  0  0  0  0  0
  -25.8320  -32.3800   23.8930 C   0  0  0  0  0  3  0  0  0  0  0  0
  -26.2990  -31.6220   25.1950 C   0  0  1  0  0  0  0  0  0  0  0  0
  -25.1680  -31.4030   26.2280 C   0  0  0  0  0  1  0  0  0  0  0  0
  -26.8820  -30.2340   24.8360 C   0  0  0  0  0  1  0  0  0  0  0  0
  -27.4360  -32.4170   25.8800 C   0  0  0  0  0  1  0  0  0  0  0  0
  -25.5250  -33.7870   24.1840 N   0  0  0  0  0  0  0  0  0  0  0  0
  -25.8930  -34.8190   23.4120 C   0  0  0  0  0  0  0  0  0  0  0  0
  -26.5950  -34.6880   22.4060 O   0  0  0  0  0  0  0  0  0  0  0  0
  -24.8970  -33.9620   24.9550 H   0  0  0  0  0  0  0  0  0  0  0  0
  -24.1970  -36.6250   22.9630 C   0  0  0  0  0  1  0  0  0  0  0  0
  -25.4070  -36.2220   23.8230 C   0  0  0  0  0  3  0  0  0  0  0  0
  -27.5240  -37.1090   24.6990 C   0  0  0  0  0  1  0  0  0  0  0  0
  -26.4540  -37.2620   23.7170 N   0  0  0  0  0  0  0  0  0  0  0  0
  -26.0540  -38.1900   23.8230 H   0  0  0  0  0  0  0  0  0  0  0  0
  1  3  1  0
  2  4  1  0
  2  1  2  0
  3  5  2  0
  4  6  2  0
  5  7  1  0
  6 48  1  0
  6  5  1  0
  8  7  1  0
  8  9  2  0
 10 11  1  0
 10  8  1  0
 12 11  1  0
 13 18  1  0
 14 15  1  0
 14 13  1  0
 16 15  1  0
 16 23  1  0
 16 17  1  0
 18 12  1  0
 18 17  1  0
 19 12  2  0
 20 21  2  0
 21 40  1  0
 22 21  1  0
 22 25  1  0
 23 20  1  0
 23 24  1  0
 24 22  2  0
 25 26  1  0
 26 27  2  0
 28 31  1  0
 28 27  1  0
 29 28  2  0
 30 29  1  0
 30 25  2  0
 31 32  1  0
 32 33  1  0
 33 34  2  0
 35 34  1  0
 35 39  1  0
 36 35  2  0
 37 32  2  0
 37 36  1  0
 38 37  1  0
 40 41  1  0
 41 44  1  0
 41 43  1  0
 42 40  2  0
 45 46  1  0
 45 20  1  0
 47 45  1  0
 48 49  1  0
 49 50  1  0
 51 52  1  0
 51 50  1  0
 53 54  1  0
 53 52  1  0
 55 66  2  0
 56 54  1  0
 56 61  1  0
 57 65  1  0
 57 67  1  0
 58 60  1  0
 59 65  1  0
 60 61  2  0
 60 59  1  0
 62 56  2  0
 63 62  1  0
 63 58  2  0
 64 58  1  0
 64 57  1  0
 65 55  1  0
 67 69  2  0
 68 67  1  0
 70 68  1  0
 71 80  2  0
 71 76  1  0
 72 68  1  0
 72 76  1  0
 73 72  1  0
 74 75  1  0
 74 73  1  0
 75 71  1  0
 76 77  2  0
 77 78  1  0
 79 78  2  0
 80 79  1  0
 81 55  1  0
 81 86  1  0
 81 82  1  0
 82 85  1  1
 82 83  1  0
 84 82  1  0
 86 89  1  0
 87 91  1  0
 87 86  1  0
 88 87  2  0
 91 90  1  0
 93 94  1  0
 93 91  1  0
 93 92  1  0
M  ISO  4  11 100  12 100  53 101  54 101
M  END
>  <TORSDO>  (77) 
F 26

>  <SCORE>  (77) 
-11.351

>  <name>  (77) 
76

>  <ligand_id>  (77) 
76

>  <original_smiles>  (77) 
[H]c1c([H])c([H])c(C([H])([H])C([H])([H])C([H])([H])C([H])([H])C([H])([H])C([H])([H])Oc2c([H])c([H])c3c(c2[H])C([H])([H])N(C(=O)C([H])(N([H])C(=O)C([H])(N([H])C([H])([H])[H])C([H])([H])[H])C(C([H])([H])[H])(C([H])([H])[H])C([H])([H])[H])C([H])(C(=O)N([H])C2([H])c4c([H])c([H])c([H])c([H])c4C([H])([H])C([H])([H])C2([H])[H])C3([H])[H])c(C([H])([H])C(=O)C([H])([H])C([H])([H])C(=O)N2C([H])([H])C([H])([H])C([H])([H])C([H])(n3nc(-c4c([H])c([H])c(Oc5c([H])c([H])c(F)c([H])c5F)c([H])c4[H])c(C(=O)N([H])[H])c3N([H])[H])C2([H])[H])c1[H]

>  <smiles>  (77) 
[H]c1c([H])c([H])c(C([H])([H])C([H])([H])C([H])([H])C([H])([H])C([H])([H])C([H])([H])Oc2c([H])c([H])c3c(c2[H])C([H])([H])N(C(=O)C([H])(N([H])C(=O)C([H])(N([H])C([H])([H])[H])C([H])([H])[H])C(C([H])([H])[H])(C([H])([H])[H])C([H])([H])[H])C([H])(C(=O)N([H])C2([H])c4c([H])c([H])c([H])c([H])c4C([H])([H])C([H])([H])C2([H])[H])C3([H])[H])c(C([H])([H])C(=O)C([H])([H])C([H])([H])C(=O)N2C([H])([H])C([H])([H])C([H])([H])C([H])(n3nc(-c4c([H])c([H])c(Oc5c([H])c([H])c(F)c([H])c5F)c([H])c4[H])c(C(=O)N([H])[H])c3N([H])[H])C2([H])[H])c1[H]

$$$$
77:0:0
     RDKit          3D

 84 91  0  0  1  0  0  0  0  0999 V2000
  -28.7190  -22.1800   20.5330 C   0  0  0  0  0  0  0  0  0  0  0  0
  -28.9980  -22.2460   21.7330 O   0  0  0  0  0  1  0  0  0  0  0  0
  -29.0430  -20.5650   19.8020 C   0  0  0  0  0  0  0  0  0  0  0  0
  -29.3520  -19.0290   19.7720 C   0  0  0  0  0  0  0  0  0  0  0  0
  -29.5060  -18.5440   18.3310 C   0  0  0  0  0  1  0  0  0  0  0  0
  -29.6200  -17.3840   20.5830 C   0  0  0  0  0  2  0  0  0  0  0  0
  -30.3300  -15.6720   20.2380 C   0  0  0  0  0  0  0  0  0  0  0  0
  -30.4330  -13.1170   19.4370 C   0  0  0  0  0  2  0  0  0  0  0  0
  -29.5520  -12.7500   18.2070 C   0  0  0  0  0  2  0  0  0  0  0  0
  -28.1200  -12.4020   18.6400 C   0  0  0  0  0  2  0  0  0  0  0  0
  -27.6080  -13.3940   19.7070 C   0  0  0  0  0  3  0  0  0  0  0  0
  -28.6270  -13.6890   20.8340 C   0  0  0  0  0  2  0  0  0  0  0  0
  -29.8270  -14.2950   20.2130 N   0  0  0  0  0  0  0  0  0  0  0  0
  -31.5430  -15.5950   19.9590 O   0  0  0  0  0  0  0  0  0  0  0  0
  -25.2360  -13.9130   20.4480 C   0  0  0  0  0  0  0  0  0  0  0  0
  -24.1790  -13.1280   20.8100 C   0  0  0  0  0  0  0  0  0  0  0  0
  -24.6590  -11.7830   20.7930 C   0  0  0  0  0  0  0  0  0  0  0  0
  -26.2880  -13.0490   20.2170 N   0  0  0  0  0  0  0  0  0  0  0  0
  -25.9550  -11.7600   20.4930 N   0  0  0  0  0  0  0  0  0  0  0  0
  -23.9380  -10.5160   20.9860 C   0  0  0  0  0  0  0  0  0  0  0  0
  -24.3670   -9.5540   21.9270 C   0  0  0  0  0  3  0  0  0  0  0  0
  -23.6410   -8.3570   22.1100 C   0  0  0  0  0  3  0  0  0  0  0  0
  -22.4710   -8.1120   21.3520 C   0  0  0  0  0  0  0  0  0  0  0  0
  -22.0610   -9.0630   20.4010 C   0  0  0  0  0  3  0  0  0  0  0  0
  -22.7880  -10.2510   20.2160 C   0  0  0  0  0  3  0  0  0  0  0  0
  -21.7180   -6.9660   21.4420 O   0  0  0  0  0  0  0  0  0  0  0  0
  -21.6680   -6.2260   22.5970 C   0  0  0  0  0  0  0  0  0  0  0  0
  -21.2420   -6.7860   23.8210 C   0  0  0  0  0  3  0  0  0  0  0  0
  -21.1390   -5.9730   24.9680 C   0  0  0  0  0  3  0  0  0  0  0  0
  -21.4530   -4.6020   24.8910 C   0  0  0  0  0  0  0  0  0  0  0  0
  -21.8730   -4.0430   23.6710 C   0  0  0  0  0  3  0  0  0  0  0  0
  -21.9770   -4.8530   22.5270 C   0  0  0  0  0  0  0  0  0  0  0  0
  -22.3610   -4.3040   21.3490 F   0  0  0  0  0  0  0  0  0  0  0  0
  -21.3470   -3.8190   25.9900 F   0  0  0  0  0  0  0  0  0  0  0  0
  -22.7750  -13.5970   21.0580 C   0  0  0  0  0  0  0  0  0  0  0  0
  -22.0420  -12.9050   21.9220 N   0  0  0  0  0  0  0  0  0  0  0  0
  -22.3390  -14.6160   20.5230 O   0  0  0  0  0  0  0  0  0  0  0  0
  -22.4080  -12.0810   22.3760 H   0  0  0  0  0  0  0  0  0  0  0  0
  -21.1000  -13.2030   22.1310 H   0  0  0  0  0  0  0  0  0  0  0  0
  -25.3880  -15.2850   20.2630 N   0  0  0  0  0  0  0  0  0  0  0  0
  -24.6160  -15.9340   20.3700 H   0  0  0  0  0  0  0  0  0  0  0  0
  -26.2390  -15.7320   19.9480 H   0  0  0  0  0  0  0  0  0  0  0  0
  -28.0400  -23.8130   19.9110 C   0  0  0  0  0  2  0  0  0  0  0  0
  -28.1170  -25.5120   20.3710 O   0  0  0  0  0  0  0  0  0  0  0  0
  -24.5780  -31.8150   23.1720 C   0  0  0  0  0  0  0  0  0  0  0  0
  -27.1570  -26.7280   20.2420 C   0  0  0  0  0  0  0  0  0  0  0  0
  -23.4090  -30.3970   21.5380 C   0  0  0  0  0  3  0  0  0  0  0  0
  -24.8780  -28.7470   20.1460 C   0  0  0  0  0  0  0  0  0  0  0  0
  -25.9880  -30.5520   21.4370 C   0  0  0  0  0  2  0  0  0  0  0  0
  -26.0640  -29.1150   20.7920 C   0  0  0  0  0  0  0  0  0  0  0  0
  -27.1850  -28.1310   20.8120 C   0  0  0  0  0  3  0  0  0  0  0  0
  -25.9410  -26.5740   19.5280 C   0  0  0  0  0  3  0  0  0  0  0  0
  -24.8560  -27.5030   19.4910 C   0  0  0  0  0  3  0  0  0  0  0  0
  -23.6630  -29.6900   20.1740 C   0  0  0  0  0  2  0  0  0  0  0  0
  -24.6820  -30.9550   22.1010 N   0  0  0  0  0  0  0  0  0  0  0  0
  -23.4800  -32.1140   23.6720 O   0  0  0  0  0  0  0  0  0  0  0  0
  -22.6910  -29.4250   22.5130 C   0  0  0  0  0  0  0  0  0  0  0  0
  -21.3560  -29.2810   22.3950 N   0  0  0  0  0  0  0  0  0  0  0  0
  -23.3460  -28.7970   23.3480 O   0  0  0  0  0  0  0  0  0  0  0  0
  -20.8780  -29.8380   21.7010 H   0  0  0  0  0  0  0  0  0  0  0  0
  -17.9610  -28.1050   22.9350 C   0  0  0  0  0  0  0  0  0  0  0  0
  -20.5250  -28.3520   23.1720 C   0  0  0  0  0  3  0  0  0  0  0  0
  -20.6080  -26.9190   22.5960 C   0  0  0  0  0  2  0  0  0  0  0  0
  -19.4950  -26.6090   21.5900 C   0  0  0  0  0  2  0  0  0  0  0  0
  -18.1200  -26.7590   22.2470 C   0  0  0  0  0  2  0  0  0  0  0  0
  -19.0880  -28.8600   23.3540 C   0  0  0  0  0  0  0  0  0  0  0  0
  -18.8810  -30.1160   23.9640 C   0  0  0  0  0  3  0  0  0  0  0  0
  -17.5800  -30.6200   24.1520 C   0  0  0  0  0  3  0  0  0  0  0  0
  -16.4670  -29.8630   23.7450 C   0  0  0  0  0  3  0  0  0  0  0  0
  -16.6590  -28.6070   23.1420 C   0  0  0  0  0  3  0  0  0  0  0  0
  -25.8330  -32.4780   23.8180 C   0  0  0  0  0  3  0  0  0  0  0  0
  -26.3270  -31.7280   25.1180 C   0  0  1  0  0  0  0  0  0  0  0  0
  -25.2170  -31.5050   26.1710 C   0  0  0  0  0  1  0  0  0  0  0  0
  -26.9220  -30.3460   24.7690 C   0  0  0  0  0  1  0  0  0  0  0  0
  -27.4650  -32.5370   25.7860 C   0  0  0  0  0  1  0  0  0  0  0  0
  -25.4970  -33.8770   24.1460 N   0  0  0  0  0  0  0  0  0  0  0  0
  -25.8270  -34.9460   23.4080 C   0  0  0  0  0  0  0  0  0  0  0  0
  -26.5050  -34.8570   22.3810 O   0  0  0  0  0  0  0  0  0  0  0  0
  -24.8930  -34.0170   24.9440 H   0  0  0  0  0  0  0  0  0  0  0  0
  -24.0890  -36.7410   23.0770 C   0  0  0  0  0  1  0  0  0  0  0  0
  -25.3340  -36.3310   23.8810 C   0  0  0  0  0  3  0  0  0  0  0  0
  -27.4640  -37.2280   24.7170 C   0  0  0  0  0  1  0  0  0  0  0  0
  -26.3600  -37.3920   23.7750 N   0  0  0  0  0  0  0  0  0  0  0  0
  -25.9470  -38.3090   23.9270 H   0  0  0  0  0  0  0  0  0  0  0  0
  1  2  1  0
  3  1  2  0
  4  3  2  0
  4  6  1  0
  5  4  1  0
  7  6  1  0
  8 13  1  0
  9 10  1  0
  9  8  1  0
 11 10  1  0
 11 18  1  0
 11 12  1  0
 13  7  1  0
 13 12  1  0
 14  7  2  0
 15 16  2  0
 16 35  1  0
 17 16  1  0
 17 20  1  0
 18 15  1  0
 18 19  1  0
 19 17  2  0
 20 21  1  0
 21 22  2  0
 23 26  1  0
 23 22  1  0
 24 23  2  0
 25 24  1  0
 25 20  2  0
 26 27  1  0
 27 28  1  0
 28 29  2  0
 30 29  1  0
 30 34  1  0
 31 30  2  0
 32 27  2  0
 32 31  1  0
 33 32  1  0
 35 36  1  0
 36 39  1  0
 36 38  1  0
 37 35  2  0
 40 41  1  0
 40 15  1  0
 42 40  1  0
 43 44  1  0
 43  1  1  0
 45 56  2  0
 46 44  1  0
 46 51  1  0
 47 55  1  0
 47 57  1  0
 48 54  1  0
 48 50  1  0
 49 55  1  0
 50 51  2  0
 50 49  1  0
 52 46  2  0
 53 52  1  0
 53 48  2  0
 54 47  1  0
 55 45  1  0
 57 59  2  0
 58 57  1  0
 60 58  1  0
 61 70  2  0
 61 66  1  0
 62 58  1  0
 62 66  1  0
 63 62  1  0
 64 65  1  0
 64 63  1  0
 65 61  1  0
 66 67  2  0
 67 68  1  0
 69 68  2  0
 70 69  1  0
 71 45  1  0
 71 76  1  0
 71 72  1  0
 72 75  1  1
 72 73  1  0
 74 72  1  0
 76 79  1  0
 77 81  1  0
 77 76  1  0
 78 77  2  0
 81 80  1  0
 83 81  1  0
 83 84  1  0
 83 82  1  0
M  ISO  4   6 100   7 100  43 101  44 101
M  END
>  <TORSDO>  (78) 
F 19

>  <SCORE>  (78) 
-16.380

>  <name>  (78) 
77

>  <ligand_id>  (78) 
77

>  <original_smiles>  (78) 
[H]C(C(=O)C([H])([H])Oc1c([H])c([H])c2c(c1[H])C([H])([H])N(C(=O)C([H])(N([H])C(=O)C([H])(N([H])C([H])([H])[H])C([H])([H])[H])C(C([H])([H])[H])(C([H])([H])[H])C([H])([H])[H])C([H])(C(=O)N([H])C1([H])c3c([H])c([H])c([H])c([H])c3C([H])([H])C([H])([H])C1([H])[H])C2([H])[H])=C(C([H])([H])[H])C([H])([H])C(=O)N1C([H])([H])C([H])([H])C([H])([H])C([H])(n2nc(-c3c([H])c([H])c(Oc4c([H])c([H])c(F)c([H])c4F)c([H])c3[H])c(C(=O)N([H])[H])c2N([H])[H])C1([H])[H]

>  <smiles>  (78) 
[H]C(C(=O)C([H])([H])Oc1c([H])c([H])c2c(c1[H])C([H])([H])N(C(=O)C([H])(N([H])C(=O)C([H])(N([H])C([H])([H])[H])C([H])([H])[H])C(C([H])([H])[H])(C([H])([H])[H])C([H])([H])[H])C([H])(C(=O)N([H])C1([H])c3c([H])c([H])c([H])c([H])c3C([H])([H])C([H])([H])C1([H])[H])C2([H])[H])=C(C([H])([H])[H])C([H])([H])C(=O)N1C([H])([H])C([H])([H])C([H])([H])C([H])(n2nc(-c3c([H])c([H])c(Oc4c([H])c([H])c(F)c([H])c4F)c([H])c3[H])c(C(=O)N([H])[H])c2N([H])[H])C1([H])[H]

$$$$
78:0:0
     RDKit          3D

 86 93  0  0  1  0  0  0  0  0999 V2000
  -29.2450  -19.8630   20.0660 C   0  0  0  0  0  3  0  0  0  0  0  0
  -29.1350  -21.2320   20.6000 C   0  0  0  0  0  0  0  0  0  0  0  0
  -29.7910  -18.3690   20.6410 C   0  0  0  0  0  0  0  0  0  0  0  0
  -30.5560  -18.4240   21.6080 O   0  0  0  0  0  0  0  0  0  0  0  0
  -29.4770  -16.7310   20.1520 C   0  0  0  0  0  2  0  0  0  0  0  0
  -30.3780  -15.2340   20.2380 C   0  0  0  0  0  0  0  0  0  0  0  0
  -30.3730  -12.7910   19.3770 C   0  0  0  0  0  2  0  0  0  0  0  0
  -29.4370  -12.6300   18.1490 C   0  0  0  0  0  2  0  0  0  0  0  0
  -27.9840  -12.3730   18.5920 C   0  0  0  0  0  2  0  0  0  0  0  0
  -27.5500  -13.3230   19.7340 C   0  0  0  0  0  3  0  0  0  0  0  0
  -28.6070  -13.4320   20.8510 C   0  0  0  0  0  2  0  0  0  0  0  0
  -29.8510  -13.9140   20.2330 N   0  0  0  0  0  0  0  0  0  0  0  0
  -31.6020  -15.2480   20.0370 O   0  0  0  0  0  0  0  0  0  0  0  0
  -25.1880  -13.8820   20.5200 C   0  0  0  0  0  0  0  0  0  0  0  0
  -24.1280  -13.1050   20.8950 C   0  0  0  0  0  0  0  0  0  0  0  0
  -24.5920  -11.7550   20.8500 C   0  0  0  0  0  0  0  0  0  0  0  0
  -26.2260  -13.0070   20.2550 N   0  0  0  0  0  0  0  0  0  0  0  0
  -25.8800  -11.7200   20.5240 N   0  0  0  0  0  0  0  0  0  0  0  0
  -23.8640  -10.4920   21.0380 C   0  0  0  0  0  0  0  0  0  0  0  0
  -24.2950   -9.5190   21.9660 C   0  0  0  0  0  3  0  0  0  0  0  0
  -23.5650   -8.3250   22.1430 C   0  0  0  0  0  3  0  0  0  0  0  0
  -22.3880   -8.0940   21.3920 C   0  0  0  0  0  0  0  0  0  0  0  0
  -21.9760   -9.0540   20.4520 C   0  0  0  0  0  3  0  0  0  0  0  0
  -22.7060  -10.2410   20.2730 C   0  0  0  0  0  3  0  0  0  0  0  0
  -21.6290   -6.9510   21.4780 O   0  0  0  0  0  0  0  0  0  0  0  0
  -21.5750   -6.2080   22.6300 C   0  0  0  0  0  0  0  0  0  0  0  0
  -21.1400   -6.7620   23.8540 C   0  0  0  0  0  3  0  0  0  0  0  0
  -21.0320   -5.9460   24.9970 C   0  0  0  0  0  3  0  0  0  0  0  0
  -21.3490   -4.5780   24.9190 C   0  0  0  0  0  0  0  0  0  0  0  0
  -21.7770   -4.0230   23.7000 C   0  0  0  0  0  3  0  0  0  0  0  0
  -21.8860   -4.8360   22.5580 C   0  0  0  0  0  0  0  0  0  0  0  0
  -22.2790   -4.2910   21.3810 F   0  0  0  0  0  0  0  0  0  0  0  0
  -21.2390   -3.7910   26.0160 F   0  0  0  0  0  0  0  0  0  0  0  0
  -22.7340  -13.5840   21.1800 C   0  0  0  0  0  0  0  0  0  0  0  0
  -22.0090  -12.8820   22.0420 N   0  0  0  0  0  0  0  0  0  0  0  0
  -22.2980  -14.6160   20.6710 O   0  0  0  0  0  0  0  0  0  0  0  0
  -22.3760  -12.0470   22.4750 H   0  0  0  0  0  0  0  0  0  0  0  0
  -21.0740  -13.1850   22.2750 H   0  0  0  0  0  0  0  0  0  0  0  0
  -25.3520  -15.2550   20.3530 N   0  0  0  0  0  0  0  0  0  0  0  0
  -24.5860  -15.9080   20.4790 H   0  0  0  0  0  0  0  0  0  0  0  0
  -26.1930  -15.6950   20.0060 H   0  0  0  0  0  0  0  0  0  0  0  0
  -29.4210  -21.4250   21.8940 O   0  0  0  0  0  0  0  0  0  0  0  0
  -29.3800  -22.3560   22.0670 H   0  0  0  0  0  0  0  0  0  0  0  0
  -28.7810  -22.8070   19.9560 C   0  0  0  0  0  2  0  0  0  0  0  0
  -28.1230  -24.3300   20.6330 C   0  0  0  0  0  2  0  0  0  0  0  0
  -28.2800  -25.9270   20.3040 O   0  0  0  0  0  0  0  0  0  0  0  0
  -24.6420  -31.8610   23.2220 C   0  0  0  0  0  0  0  0  0  0  0  0
  -27.2340  -26.9780   20.2970 C   0  0  0  0  0  0  0  0  0  0  0  0
  -23.4580  -30.4370   21.6010 C   0  0  0  0  0  3  0  0  0  0  0  0
  -24.9190  -28.8190   20.2130 C   0  0  0  0  0  0  0  0  0  0  0  0
  -26.0220  -30.6670   21.4550 C   0  0  0  0  0  2  0  0  0  0  0  0
  -26.1020  -29.2500   20.8240 C   0  0  0  0  0  0  0  0  0  0  0  0
  -27.2590  -28.3530   20.8340 C   0  0  0  0  0  3  0  0  0  0  0  0
  -26.0160  -26.6820   19.6460 C   0  0  0  0  0  3  0  0  0  0  0  0
  -24.8970  -27.5530   19.6020 C   0  0  0  0  0  3  0  0  0  0  0  0
  -23.6950  -29.7330   20.2360 C   0  0  0  0  0  2  0  0  0  0  0  0
  -24.7290  -31.0160   22.1460 N   0  0  0  0  0  0  0  0  0  0  0  0
  -23.5500  -32.1530   23.7370 O   0  0  0  0  0  0  0  0  0  0  0  0
  -22.7680  -29.4510   22.5780 C   0  0  0  0  0  0  0  0  0  0  0  0
  -21.4390  -29.2780   22.4490 N   0  0  0  0  0  0  0  0  0  0  0  0
  -23.4330  -28.8410   23.4190 O   0  0  0  0  0  0  0  0  0  0  0  0
  -20.9550  -29.8210   21.7470 H   0  0  0  0  0  0  0  0  0  0  0  0
  -18.0610  -28.0570   22.9560 C   0  0  0  0  0  0  0  0  0  0  0  0
  -20.6170  -28.3490   23.2310 C   0  0  0  0  0  3  0  0  0  0  0  0
  -20.7330  -26.9070   22.6820 C   0  0  0  0  0  2  0  0  0  0  0  0
  -19.6390  -26.5590   21.6660 C   0  0  0  0  0  2  0  0  0  0  0  0
  -18.2530  -26.7010   22.3010 C   0  0  0  0  0  2  0  0  0  0  0  0
  -19.1700  -28.8380   23.3780 C   0  0  0  0  0  0  0  0  0  0  0  0
  -18.9340  -30.1050   23.9540 C   0  0  0  0  0  3  0  0  0  0  0  0
  -17.6230  -30.5940   24.1110 C   0  0  0  0  0  3  0  0  0  0  0  0
  -16.5290  -29.8110   23.7010 C   0  0  0  0  0  3  0  0  0  0  0  0
  -16.7480  -28.5450   23.1300 C   0  0  0  0  0  3  0  0  0  0  0  0
  -25.9090  -32.5170   23.8510 C   0  0  0  0  0  3  0  0  0  0  0  0
  -25.5830  -33.9180   24.1690 N   0  0  0  0  0  0  0  0  0  0  0  0
  -25.9150  -34.9740   23.4150 C   0  0  0  0  0  0  0  0  0  0  0  0
  -26.5910  -34.8710   22.3870 O   0  0  0  0  0  0  0  0  0  0  0  0
  -24.9820  -34.0700   24.9650 H   0  0  0  0  0  0  0  0  0  0  0  0
  -24.1870  -36.7700   23.0500 C   0  0  0  0  0  1  0  0  0  0  0  0
  -25.4230  -36.3640   23.8680 C   0  0  0  0  0  3  0  0  0  0  0  0
  -27.5490  -37.2570   24.7140 C   0  0  0  0  0  1  0  0  0  0  0  0
  -26.4550  -37.4200   23.7620 N   0  0  0  0  0  0  0  0  0  0  0  0
  -26.0450  -38.3390   23.9020 H   0  0  0  0  0  0  0  0  0  0  0  0
  -26.4150  -31.7700   25.1470 C   0  0  1  0  0  0  0  0  0  0  0  0
  -25.3130  -31.5460   26.2090 C   0  0  0  0  0  1  0  0  0  0  0  0
  -27.0070  -30.3870   24.7910 C   0  0  0  0  0  1  0  0  0  0  0  0
  -27.5560  -32.5800   25.8060 C   0  0  0  0  0  1  0  0  0  0  0  0
  1  2  2  0
  1  3  1  0
  2 42  1  0
  3  4  2  0
  5  6  1  0
  5  3  1  0
  7 12  1  0
  8  9  1  0
  8  7  1  0
 10  9  1  0
 10 17  1  0
 10 11  1  0
 12  6  1  0
 12 11  1  0
 13  6  2  0
 14 15  2  0
 15 34  1  0
 16 15  1  0
 16 19  1  0
 17 14  1  0
 17 18  1  0
 18 16  2  0
 19 20  1  0
 20 21  2  0
 22 25  1  0
 22 21  1  0
 23 22  2  0
 24 23  1  0
 24 19  2  0
 25 26  1  0
 26 27  1  0
 27 28  2  0
 29 28  1  0
 29 33  1  0
 30 29  2  0
 31 26  2  0
 31 30  1  0
 32 31  1  0
 34 35  1  0
 35 38  1  0
 35 37  1  0
 36 34  2  0
 39 40  1  0
 39 14  1  0
 41 39  1  0
 42 43  1  0
 44  2  1  0
 44 45  1  0
 46 45  1  0
 47 58  2  0
 48 46  1  0
 48 53  1  0
 49 57  1  0
 49 59  1  0
 50 56  1  0
 50 52  1  0
 51 57  1  0
 52 53  2  0
 52 51  1  0
 54 48  2  0
 55 54  1  0
 55 50  2  0
 56 49  1  0
 57 47  1  0
 59 61  2  0
 60 59  1  0
 62 60  1  0
 63 72  2  0
 63 68  1  0
 64 60  1  0
 64 68  1  0
 65 64  1  0
 66 67  1  0
 66 65  1  0
 67 63  1  0
 68 69  2  0
 69 70  1  0
 71 70  2  0
 72 71  1  0
 73 47  1  0
 73 74  1  0
 73 83  1  0
 74 77  1  0
 75 79  1  0
 75 74  1  0
 76 75  2  0
 79 78  1  0
 81 79  1  0
 81 82  1  0
 81 80  1  0
 83 86  1  1
 83 84  1  0
 85 83  1  0
M  ISO  4   5 100   6 100  45 101  46 101
M  END
>  <TORSDO>  (79) 
F 21

>  <SCORE>  (79) 
-15.342

>  <name>  (79) 
78

>  <ligand_id>  (79) 
78

>  <original_smiles>  (79) 
[H]OC(=C([H])C(=O)C([H])([H])C(=O)N1C([H])([H])C([H])([H])C([H])([H])C([H])(n2nc(-c3c([H])c([H])c(Oc4c([H])c([H])c(F)c([H])c4F)c([H])c3[H])c(C(=O)N([H])[H])c2N([H])[H])C1([H])[H])C([H])([H])C([H])([H])Oc1c([H])c([H])c2c(c1[H])C([H])([H])N(C(=O)C([H])(N([H])C(=O)C([H])(N([H])C([H])([H])[H])C([H])([H])[H])C(C([H])([H])[H])(C([H])([H])[H])C([H])([H])[H])C([H])(C(=O)N([H])C1([H])c3c([H])c([H])c([H])c([H])c3C([H])([H])C([H])([H])C1([H])[H])C2([H])[H]

>  <smiles>  (79) 
[H]OC(=C([H])C(=O)C([H])([H])C(=O)N1C([H])([H])C([H])([H])C([H])([H])C([H])(n2nc(-c3c([H])c([H])c(Oc4c([H])c([H])c(F)c([H])c4F)c([H])c3[H])c(C(=O)N([H])[H])c2N([H])[H])C1([H])[H])C([H])([H])C([H])([H])Oc1c([H])c([H])c2c(c1[H])C([H])([H])N(C(=O)C([H])(N([H])C(=O)C([H])(N([H])C([H])([H])[H])C([H])([H])[H])C(C([H])([H])[H])(C([H])([H])[H])C([H])([H])[H])C([H])(C(=O)N([H])C1([H])c3c([H])c([H])c([H])c([H])c3C([H])([H])C([H])([H])C1([H])[H])C2([H])[H]

$$$$
79:0:0
     RDKit          3D

 93101  0  0  1  0  0  0  0  0999 V2000
  -28.0920  -18.9320   19.8250 C   0  0  0  0  0  3  0  0  0  0  0  0
  -27.1900  -19.9470   19.4540 C   0  0  0  0  0  3  0  0  0  0  0  0
  -29.8780  -20.5820   19.8050 C   0  0  0  0  0  3  0  0  0  0  0  0
  -29.4600  -19.2300   19.9700 C   0  0  0  0  0  0  0  0  0  0  0  0
  -27.6150  -21.2800   19.2280 C   0  0  0  0  0  0  0  0  0  0  0  0
  -28.9780  -21.6440   19.4580 C   0  0  0  0  0  0  0  0  0  0  0  0
  -31.0420  -23.2100   19.3070 C   0  0  0  0  0  1  0  0  0  0  0  0
  -29.5030  -23.1010   19.2090 C   0  0  0  0  0  3  0  0  0  0  0  0
  -28.8610  -24.2470   20.0690 C   0  0  0  0  0  2  0  0  0  0  0  0
  -28.7940  -25.6380   19.3600 C   0  0  0  0  0  2  0  0  0  0  0  0
  -28.5050  -26.7630   20.2250 O   0  0  0  0  0  0  0  0  0  0  0  0
  -24.5730  -31.8990   23.2550 C   0  0  0  0  0  0  0  0  0  0  0  0
  -27.3040  -27.4580   20.1780 C   0  0  0  0  0  0  0  0  0  0  0  0
  -23.4040  -30.4960   21.5910 C   0  0  0  0  0  3  0  0  0  0  0  0
  -24.8910  -28.9670   20.1800 C   0  0  0  0  0  0  0  0  0  0  0  0
  -25.9330  -30.8540   21.4420 C   0  0  0  0  0  2  0  0  0  0  0  0
  -26.0350  -29.4830   20.7950 C   0  0  0  0  0  0  0  0  0  0  0  0
  -27.2370  -28.7340   20.7960 C   0  0  0  0  0  3  0  0  0  0  0  0
  -26.1310  -26.9520   19.5710 C   0  0  0  0  0  3  0  0  0  0  0  0
  -24.9350  -27.7010   19.5680 C   0  0  0  0  0  3  0  0  0  0  0  0
  -23.6420  -29.8210   20.2150 C   0  0  0  0  0  2  0  0  0  0  0  0
  -24.6540  -31.0980   22.1560 N   0  0  0  0  0  0  0  0  0  0  0  0
  -23.4800  -32.1690   23.7730 O   0  0  0  0  0  0  0  0  0  0  0  0
  -22.7400  -29.4710   22.5390 C   0  0  0  0  0  0  0  0  0  0  0  0
  -21.4170  -29.2840   22.3880 N   0  0  0  0  0  0  0  0  0  0  0  0
  -23.4110  -28.8490   23.3670 O   0  0  0  0  0  0  0  0  0  0  0  0
  -20.9370  -29.8400   21.6930 H   0  0  0  0  0  0  0  0  0  0  0  0
  -18.0380  -28.0790   22.8250 C   0  0  0  0  0  0  0  0  0  0  0  0
  -20.5910  -28.3400   23.1390 C   0  0  0  0  0  3  0  0  0  0  0  0
  -20.7060  -26.9140   22.5520 C   0  0  0  0  0  2  0  0  0  0  0  0
  -19.6190  -26.5970   21.5190 C   0  0  0  0  0  2  0  0  0  0  0  0
  -18.2280  -26.7330   22.1440 C   0  0  0  0  0  2  0  0  0  0  0  0
  -19.1490  -28.8380   23.2760 C   0  0  0  0  0  0  0  0  0  0  0  0
  -18.9220  -30.0980   23.8730 C   0  0  0  0  0  3  0  0  0  0  0  0
  -17.6150  -30.6000   24.0210 C   0  0  0  0  0  3  0  0  0  0  0  0
  -16.5180  -29.8380   23.5860 C   0  0  0  0  0  3  0  0  0  0  0  0
  -16.7290  -28.5780   22.9960 C   0  0  0  0  0  3  0  0  0  0  0  0
  -25.8420  -32.5360   23.9010 C   0  0  0  0  0  3  0  0  0  0  0  0
  -25.5310  -33.9410   24.2000 N   0  0  0  0  0  0  0  0  0  0  0  0
  -25.8980  -34.9790   23.4360 C   0  0  0  0  0  0  0  0  0  0  0  0
  -26.5990  -34.8570   22.4290 O   0  0  0  0  0  0  0  0  0  0  0  0
  -24.9040  -34.1120   24.9710 H   0  0  0  0  0  0  0  0  0  0  0  0
  -24.1940  -36.7770   23.0000 C   0  0  0  0  0  1  0  0  0  0  0  0
  -25.4070  -36.3770   23.8570 C   0  0  0  0  0  3  0  0  0  0  0  0
  -27.5160  -37.2580   24.7510 C   0  0  0  0  0  1  0  0  0  0  0  0
  -26.4500  -37.4220   23.7640 N   0  0  0  0  0  0  0  0  0  0  0  0
  -26.0490  -38.3480   23.8840 H   0  0  0  0  0  0  0  0  0  0  0  0
  -26.3240  -31.7780   25.1990 C   0  0  1  0  0  0  0  0  0  0  0  0
  -25.2020  -31.5510   26.2410 C   0  0  0  0  0  1  0  0  0  0  0  0
  -26.9140  -30.3940   24.8360 C   0  0  0  0  0  1  0  0  0  0  0  0
  -27.4610  -32.5770   25.8760 C   0  0  0  0  0  1  0  0  0  0  0  0
  -25.5110  -22.6930   19.6670 C   0  0  0  0  0  1  0  0  0  0  0  0
  -26.5750  -22.2430   18.6510 C   0  0  0  0  0  2  0  0  0  0  0  0
  -30.4600  -18.1090   20.0870 C   0  0  0  0  0  0  0  0  0  0  0  0
  -31.3070  -17.9190   19.2110 O   0  0  0  0  0  0  0  0  0  0  0  0
  -30.4850  -17.2070   21.3400 C   0  0  0  0  0  2  0  0  0  0  0  0
  -29.8290  -15.7910   21.2240 C   0  0  0  0  0  2  0  0  0  0  0  0
  -30.6330  -14.6350   20.5570 C   0  0  0  0  0  0  0  0  0  0  0  0
  -30.4100  -12.5040   19.3070 C   0  0  0  0  0  2  0  0  0  0  0  0
  -29.4700  -12.7460   18.1070 C   0  0  0  0  0  2  0  0  0  0  0  0
  -27.9990  -12.5410   18.5190 C   0  0  0  0  0  2  0  0  0  0  0  0
  -27.6370  -13.3390   19.8010 C   0  0  0  0  0  3  0  0  0  0  0  0
  -28.6850  -13.0910   20.9090 C   0  0  0  0  0  2  0  0  0  0  0  0
  -30.0100  -13.4370   20.3720 N   0  0  0  0  0  0  0  0  0  0  0  0
  -31.7620  -14.8580   20.1100 O   0  0  0  0  0  0  0  0  0  0  0  0
  -25.2290  -13.9130   20.5020 C   0  0  0  0  0  0  0  0  0  0  0  0
  -24.1690  -13.1210   20.8660 C   0  0  0  0  0  0  0  0  0  0  0  0
  -24.6570  -11.7790   20.8460 C   0  0  0  0  0  0  0  0  0  0  0  0
  -26.2850  -13.0460   20.2730 N   0  0  0  0  0  0  0  0  0  0  0  0
  -25.9490  -11.7590   20.5410 N   0  0  0  0  0  0  0  0  0  0  0  0
  -23.9510  -10.5050   21.0410 C   0  0  0  0  0  0  0  0  0  0  0  0
  -24.3780   -9.5620   22.0010 C   0  0  0  0  0  3  0  0  0  0  0  0
  -23.6690   -8.3550   22.1840 C   0  0  0  0  0  3  0  0  0  0  0  0
  -22.5230   -8.0810   21.3990 C   0  0  0  0  0  0  0  0  0  0  0  0
  -22.1130   -9.0150   20.4310 C   0  0  0  0  0  3  0  0  0  0  0  0
  -22.8230  -10.2140   20.2480 C   0  0  0  0  0  3  0  0  0  0  0  0
  -21.7870   -6.9230   21.4810 O   0  0  0  0  0  0  0  0  0  0  0  0
  -21.7140   -6.1990   22.6440 C   0  0  0  0  0  0  0  0  0  0  0  0
  -21.2230   -6.7660   23.8400 C   0  0  0  0  0  3  0  0  0  0  0  0
  -21.0970   -5.9710   24.9970 C   0  0  0  0  0  3  0  0  0  0  0  0
  -21.4530   -4.6100   24.9570 C   0  0  0  0  0  0  0  0  0  0  0  0
  -21.9360   -4.0400   23.7660 C   0  0  0  0  0  3  0  0  0  0  0  0
  -22.0650   -4.8340   22.6120 C   0  0  0  0  0  0  0  0  0  0  0  0
  -22.5140   -4.2770   21.4620 F   0  0  0  0  0  0  0  0  0  0  0  0
  -21.3240   -3.8440   26.0660 F   0  0  0  0  0  0  0  0  0  0  0  0
  -22.7610  -13.5800   21.1190 C   0  0  0  0  0  0  0  0  0  0  0  0
  -22.0360  -12.8790   21.9850 N   0  0  0  0  0  0  0  0  0  0  0  0
  -22.3120  -14.5960   20.5940 O   0  0  0  0  0  0  0  0  0  0  0  0
  -22.4090  -12.0520   22.4240 H   0  0  0  0  0  0  0  0  0  0  0  0
  -21.0950  -13.1720   22.2060 H   0  0  0  0  0  0  0  0  0  0  0  0
  -25.3690  -15.2850   20.3310 N   0  0  0  0  0  0  0  0  0  0  0  0
  -24.5810  -15.9140   20.4260 H   0  0  0  0  0  0  0  0  0  0  0  0
  -26.2120  -15.7490   20.0160 H   0  0  0  0  0  0  0  0  0  0  0  0
  1  4  1  0
  2  1  2  0
  3  4  2  0
  4 54  1  0
  5  2  1  0
  5  6  2  0
  6  3  1  0
  8  7  1  0
  8  6  1  0
  8  9  1  0
 10  9  1  0
 10 11  1  0
 12 23  2  0
 13 11  1  0
 13 18  1  0
 14 22  1  0
 14 24  1  0
 15 21  1  0
 15 17  1  0
 16 22  1  0
 17 18  2  0
 17 16  1  0
 19 13  2  0
 20 19  1  0
 20 15  2  0
 21 14  1  0
 22 12  1  0
 24 26  2  0
 25 24  1  0
 27 25  1  0
 28 37  2  0
 28 33  1  0
 29 25  1  0
 29 33  1  0
 30 29  1  0
 31 32  1  0
 31 30  1  0
 32 28  1  0
 33 34  2  0
 34 35  1  0
 36 35  2  0
 37 36  1  0
 38 12  1  0
 38 39  1  0
 38 48  1  0
 39 42  1  0
 40 44  1  0
 40 39  1  0
 41 40  2  0
 44 43  1  0
 46 44  1  0
 46 47  1  0
 46 45  1  0
 48 51  1  1
 48 49  1  0
 50 48  1  0
 53  5  1  0
 53 52  1  0
 54 56  1  0
 55 54  2  0
 57 56  1  0
 58 57  1  0
 59 64  1  0
 60 61  1  0
 60 59  1  0
 62 61  1  0
 62 69  1  0
 62 63  1  0
 64 58  1  0
 64 63  1  0
 65 58  2  0
 66 67  2  0
 67 86  1  0
 68 67  1  0
 68 71  1  0
 69 66  1  0
 69 70  1  0
 70 68  2  0
 71 72  1  0
 72 73  2  0
 74 77  1  0
 74 73  1  0
 75 74  2  0
 76 75  1  0
 76 71  2  0
 77 78  1  0
 78 79  1  0
 79 80  2  0
 81 80  1  0
 81 85  1  0
 82 81  2  0
 83 78  2  0
 83 82  1  0
 84 83  1  0
 86 87  1  0
 87 90  1  0
 87 89  1  0
 88 86  2  0
 91 92  1  0
 91 66  1  0
 93 91  1  0
M  ISO  4  10 101  11 101  57 100  58 100
M  END
>  <TORSDO>  (80) 
F 23

>  <SCORE>  (80) 
-12.916

>  <name>  (80) 
79

>  <ligand_id>  (80) 
79

>  <original_smiles>  (80) 
[H]c1c([H])c([H])c2c(c1[H])C([H])([H])C([H])([H])C([H])([H])C2([H])N([H])C(=O)C1([H])N(C(=O)C([H])(N([H])C(=O)C([H])(N([H])C([H])([H])[H])C([H])([H])[H])C(C([H])([H])[H])(C([H])([H])[H])C([H])([H])[H])C([H])([H])c2c([H])c(OC([H])([H])C([H])([H])C([H])(c3c([H])c(C(=O)C([H])([H])C([H])([H])C(=O)N4C([H])([H])C([H])([H])C([H])([H])C([H])(n5nc(-c6c([H])c([H])c(Oc7c([H])c([H])c(F)c([H])c7F)c([H])c6[H])c(C(=O)N([H])[H])c5N([H])[H])C4([H])[H])c([H])c([H])c3C([H])([H])C([H])([H])[H])C([H])([H])[H])c([H])c([H])c2C1([H])[H]

>  <smiles>  (80) 
[H]c1c([H])c([H])c2c(c1[H])C([H])([H])C([H])([H])C([H])([H])C2([H])N([H])C(=O)C1([H])N(C(=O)C([H])(N([H])C(=O)C([H])(N([H])C([H])([H])[H])C([H])([H])[H])C(C([H])([H])[H])(C([H])([H])[H])C([H])([H])[H])C([H])([H])c2c([H])c(OC([H])([H])C([H])([H])C([H])(c3c([H])c(C(=O)C([H])([H])C([H])([H])C(=O)N4C([H])([H])C([H])([H])C([H])([H])C([H])(n5nc(-c6c([H])c([H])c(Oc7c([H])c([H])c(F)c([H])c7F)c([H])c6[H])c(C(=O)N([H])[H])c5N([H])[H])C4([H])[H])c([H])c([H])c3C([H])([H])C([H])([H])[H])C([H])([H])[H])c([H])c([H])c2C1([H])[H]

$$$$
80:0:0
     RDKit          3D

 92100  0  0  1  0  0  0  0  0999 V2000
  -29.5850  -20.4600   23.1950 C   0  0  0  0  0  3  0  0  0  0  0  0
  -29.6860  -21.5780   22.3460 C   0  0  0  0  0  3  0  0  0  0  0  0
  -30.3070  -19.2900   22.9090 C   0  0  0  0  0  3  0  0  0  0  0  0
  -31.2000  -20.3410   20.9000 C   0  0  0  0  0  3  0  0  0  0  0  0
  -30.5070  -21.5420   21.1940 C   0  0  0  0  0  0  0  0  0  0  0  0
  -31.1230  -19.2170   21.7610 C   0  0  0  0  0  0  0  0  0  0  0  0
  -30.6480  -22.7270   20.3130 C   0  0  0  0  0  3  0  0  0  0  0  0
  -29.8160  -23.7930   20.2900 C   0  0  0  0  0  3  0  0  0  0  0  0
  -30.0260  -24.9750   19.4250 C   0  0  0  0  0  0  0  0  0  0  0  0
  -31.1410  -25.3580   19.0600 O   0  0  0  0  0  0  0  0  0  0  0  0
  -28.7660  -25.7230   18.9640 C   0  0  0  0  0  2  0  0  0  0  0  0
  -28.7630  -27.1060   19.3610 O   0  0  0  0  0  0  0  0  0  0  0  0
  -24.5770  -31.5240   23.0630 C   0  0  0  0  0  0  0  0  0  0  0  0
  -27.5200  -27.7110   19.4460 C   0  0  0  0  0  0  0  0  0  0  0  0
  -23.4490  -30.1720   21.3290 C   0  0  0  0  0  3  0  0  0  0  0  0
  -24.9850  -28.9540   19.7010 C   0  0  0  0  0  0  0  0  0  0  0  0
  -25.9150  -30.8150   21.0820 C   0  0  0  0  0  2  0  0  0  0  0  0
  -26.1110  -29.5320   20.3000 C   0  0  0  0  0  0  0  0  0  0  0  0
  -27.3800  -28.9180   20.1710 C   0  0  0  0  0  3  0  0  0  0  0  0
  -26.3660  -27.1560   18.8370 C   0  0  0  0  0  3  0  0  0  0  0  0
  -25.1080  -27.7650   18.9690 C   0  0  0  0  0  3  0  0  0  0  0  0
  -23.6640  -29.6640   19.8790 C   0  0  0  0  0  2  0  0  0  0  0  0
  -24.6670  -30.8480   21.8840 N   0  0  0  0  0  0  0  0  0  0  0  0
  -23.4990  -31.6220   23.6660 O   0  0  0  0  0  0  0  0  0  0  0  0
  -22.9520  -28.9930   22.1980 C   0  0  0  0  0  0  0  0  0  0  0  0
  -21.6780  -28.6100   22.0140 N   0  0  0  0  0  0  0  0  0  0  0  0
  -23.7100  -28.4320   22.9940 O   0  0  0  0  0  0  0  0  0  0  0  0
  -21.1200  -29.1280   21.3500 H   0  0  0  0  0  0  0  0  0  0  0  0
  -18.5560  -26.8070   22.2510 C   0  0  0  0  0  0  0  0  0  0  0  0
  -21.0060  -27.5030   22.6940 C   0  0  0  0  0  3  0  0  0  0  0  0
  -21.3980  -26.1440   22.0680 C   0  0  0  0  0  2  0  0  0  0  0  0
  -20.4290  -25.6820   20.9740 C   0  0  0  0  0  2  0  0  0  0  0  0
  -19.0110  -25.5470   21.5360 C   0  0  0  0  0  2  0  0  0  0  0  0
  -19.4920  -27.7340   22.7800 C   0  0  0  0  0  0  0  0  0  0  0  0
  -19.0160  -28.9090   23.4030 C   0  0  0  0  0  3  0  0  0  0  0  0
  -17.6350  -29.1590   23.5060 C   0  0  0  0  0  3  0  0  0  0  0  0
  -16.7120  -28.2310   22.9940 C   0  0  0  0  0  3  0  0  0  0  0  0
  -17.1730  -27.0570   22.3710 C   0  0  0  0  0  3  0  0  0  0  0  0
  -25.8180  -32.2240   23.7000 C   0  0  0  0  0  3  0  0  0  0  0  0
  -25.4340  -33.6060   24.0120 N   0  0  0  0  0  0  0  0  0  0  0  0
  -25.7410  -34.6690   23.2570 C   0  0  0  0  0  0  0  0  0  0  0  0
  -26.4490  -34.5930   22.2480 O   0  0  0  0  0  0  0  0  0  0  0  0
  -24.8060  -33.7380   24.7920 H   0  0  0  0  0  0  0  0  0  0  0  0
  -23.9410  -36.3720   22.8310 C   0  0  0  0  0  1  0  0  0  0  0  0
  -25.1720  -36.0340   23.6880 C   0  0  0  0  0  3  0  0  0  0  0  0
  -27.2270  -37.0290   24.5910 C   0  0  0  0  0  1  0  0  0  0  0  0
  -26.1550  -37.1360   23.6040 N   0  0  0  0  0  0  0  0  0  0  0  0
  -25.6990  -38.0360   23.7260 H   0  0  0  0  0  0  0  0  0  0  0  0
  -26.3520  -31.4890   24.9900 C   0  0  1  0  0  0  0  0  0  0  0  0
  -25.2510  -31.1820   26.0310 C   0  0  0  0  0  1  0  0  0  0  0  0
  -27.0320  -30.1520   24.6130 C   0  0  0  0  0  1  0  0  0  0  0  0
  -27.4300  -32.3580   25.6800 C   0  0  0  0  0  1  0  0  0  0  0  0
  -32.5500  -17.4340   22.6600 C   0  0  0  0  0  1  0  0  0  0  0  0
  -31.8850  -18.0580   21.5180 N   0  0  0  0  0  0  0  0  0  0  0  0
  -31.7000  -17.3020   20.2760 C   0  0  0  0  0  2  0  0  0  0  0  0
  -30.8700  -15.9990   20.4600 C   0  0  0  0  0  2  0  0  0  0  0  0
  -31.2860  -14.8540   19.5110 C   0  0  0  0  0  0  0  0  0  0  0  0
  -30.8570  -12.6400   18.4970 C   0  0  0  0  0  2  0  0  0  0  0  0
  -29.8020  -12.7500   17.3820 C   0  0  0  0  0  2  0  0  0  0  0  0
  -28.3800  -12.6340   17.9660 C   0  0  0  0  0  2  0  0  0  0  0  0
  -28.1580  -13.5620   19.1920 C   0  0  0  0  0  3  0  0  0  0  0  0
  -29.3210  -13.4390   20.2030 C   0  0  0  0  0  2  0  0  0  0  0  0
  -30.5820  -13.6900   19.4890 N   0  0  0  0  0  0  0  0  0  0  0  0
  -32.2580  -15.0350   18.7710 O   0  0  0  0  0  0  0  0  0  0  0  0
  -25.8720  -14.2130   20.1860 C   0  0  0  0  0  0  0  0  0  0  0  0
  -24.8340  -13.4600   20.6640 C   0  0  0  0  0  0  0  0  0  0  0  0
  -25.2500  -12.0980   20.5520 C   0  0  0  0  0  0  0  0  0  0  0  0
  -26.8610  -13.3120   19.8200 N   0  0  0  0  0  0  0  0  0  0  0  0
  -26.4930  -12.0330   20.0930 N   0  0  0  0  0  0  0  0  0  0  0  0
  -24.5150  -10.8500   20.8040 C   0  0  0  0  0  0  0  0  0  0  0  0
  -24.9290   -9.9370   21.7980 C   0  0  0  0  0  3  0  0  0  0  0  0
  -24.1950   -8.7550   22.0340 C   0  0  0  0  0  3  0  0  0  0  0  0
  -23.0340   -8.4770   21.2750 C   0  0  0  0  0  0  0  0  0  0  0  0
  -22.6400   -9.3780   20.2700 C   0  0  0  0  0  3  0  0  0  0  0  0
  -23.3740  -10.5510   20.0330 C   0  0  0  0  0  3  0  0  0  0  0  0
  -22.2750   -7.3400   21.4160 O   0  0  0  0  0  0  0  0  0  0  0  0
  -22.0630   -6.7630   22.6430 C   0  0  0  0  0  0  0  0  0  0  0  0
  -21.4330   -7.4610   23.6960 C   0  0  0  0  0  3  0  0  0  0  0  0
  -21.1720   -6.8080   24.9170 C   0  0  0  0  0  3  0  0  0  0  0  0
  -21.5310   -5.4580   25.0840 C   0  0  0  0  0  0  0  0  0  0  0  0
  -22.1540   -4.7590   24.0350 C   0  0  0  0  0  3  0  0  0  0  0  0
  -22.4160   -5.4100   22.8170 C   0  0  0  0  0  0  0  0  0  0  0  0
  -22.9970   -4.7260   21.8020 F   0  0  0  0  0  0  0  0  0  0  0  0
  -21.2740   -4.8270   26.2540 F   0  0  0  0  0  0  0  0  0  0  0  0
  -23.4920  -13.9660   21.1080 C   0  0  0  0  0  0  0  0  0  0  0  0
  -22.8550  -13.2740   22.0470 N   0  0  0  0  0  0  0  0  0  0  0  0
  -23.0200  -15.0090   20.6580 O   0  0  0  0  0  0  0  0  0  0  0  0
  -23.2520  -12.4310   22.4350 H   0  0  0  0  0  0  0  0  0  0  0  0
  -21.9560  -13.5920   22.3810 H   0  0  0  0  0  0  0  0  0  0  0  0
  -26.0530  -15.5820   20.0170 N   0  0  0  0  0  0  0  0  0  0  0  0
  -25.3260  -16.2550   20.2380 H   0  0  0  0  0  0  0  0  0  0  0  0
  -26.8770  -16.0090   19.6100 H   0  0  0  0  0  0  0  0  0  0  0  0
  2  1  2  0
  3  1  1  0
  4  5  2  0
  4  6  1  0
  5  2  1  0
  6  3  2  0
  7  5  1  0
  8  7  2  0
  9  8  1  0
 10  9  2  0
 11 12  1  0
 11  9  1  0
 12 14  1  0
 13 24  2  0
 14 19  1  0
 15 23  1  0
 15 25  1  0
 16 22  1  0
 16 18  1  0
 17 23  1  0
 18 17  1  0
 19 18  2  0
 20 21  1  0
 20 14  2  0
 21 16  2  0
 22 15  1  0
 23 13  1  0
 25 27  2  0
 26 25  1  0
 28 26  1  0
 29 38  2  0
 29 34  1  0
 30 26  1  0
 30 34  1  0
 31 30  1  0
 32 33  1  0
 32 31  1  0
 33 29  1  0
 34 35  2  0
 35 36  1  0
 37 36  2  0
 38 37  1  0
 39 13  1  0
 39 40  1  0
 39 49  1  0
 40 43  1  0
 41 45  1  0
 41 40  1  0
 42 41  2  0
 45 44  1  0
 47 45  1  0
 47 48  1  0
 47 46  1  0
 49 52  1  1
 49 50  1  0
 51 49  1  0
 54  6  1  0
 54 53  1  0
 55 56  1  0
 55 54  1  0
 57 56  1  0
 58 63  1  0
 59 60  1  0
 59 58  1  0
 61 60  1  0
 61 68  1  0
 61 62  1  0
 63 57  1  0
 63 62  1  0
 64 57  2  0
 65 66  2  0
 66 85  1  0
 67 66  1  0
 67 70  1  0
 68 69  1  0
 68 65  1  0
 69 67  2  0
 70 71  1  0
 71 72  2  0
 73 76  1  0
 73 72  1  0
 74 73  2  0
 75 74  1  0
 75 70  2  0
 76 77  1  0
 77 82  2  0
 77 78  1  0
 78 79  2  0
 79 80  1  0
 80 84  1  0
 81 80  2  0
 82 81  1  0
 83 82  1  0
 85 86  1  0
 86 89  1  0
 86 88  1  0
 87 85  2  0
 90 65  1  0
 90 91  1  0
 92 90  1  0
M  ISO  4  11 101  12 101  56 100  57 100
M  END
>  <TORSDO>  (81) 
F 22

>  <SCORE>  (81) 
-6.088

>  <name>  (81) 
80

>  <ligand_id>  (81) 
80

>  <original_smiles>  (81) 
[H]C(C(=O)C([H])([H])Oc1c([H])c([H])c2c(c1[H])C([H])([H])N(C(=O)C([H])(N([H])C(=O)C([H])(N([H])C([H])([H])[H])C([H])([H])[H])C(C([H])([H])[H])(C([H])([H])[H])C([H])([H])[H])C([H])(C(=O)N([H])C1([H])c3c([H])c([H])c([H])c([H])c3C([H])([H])C([H])([H])C1([H])[H])C2([H])[H])=C([H])c1c([H])c([H])c([H])c(N(C([H])([H])[H])C([H])([H])C([H])([H])C(=O)N2C([H])([H])C([H])([H])C([H])([H])C([H])(n3nc(-c4c([H])c([H])c(Oc5c([H])c([H])c(F)c([H])c5F)c([H])c4[H])c(C(=O)N([H])[H])c3N([H])[H])C2([H])[H])c1[H]

>  <smiles>  (81) 
[H]C(C(=O)C([H])([H])Oc1c([H])c([H])c2c(c1[H])C([H])([H])N(C(=O)C([H])(N([H])C(=O)C([H])(N([H])C([H])([H])[H])C([H])([H])[H])C(C([H])([H])[H])(C([H])([H])[H])C([H])([H])[H])C([H])(C(=O)N([H])C1([H])c3c([H])c([H])c([H])c([H])c3C([H])([H])C([H])([H])C1([H])[H])C2([H])[H])=C([H])c1c([H])c([H])c([H])c(N(C([H])([H])[H])C([H])([H])C([H])([H])C(=O)N2C([H])([H])C([H])([H])C([H])([H])C([H])(n3nc(-c4c([H])c([H])c(Oc5c([H])c([H])c(F)c([H])c5F)c([H])c4[H])c(C(=O)N([H])[H])c3N([H])[H])C2([H])[H])c1[H]

$$$$
81:0:0
     RDKit          3D

 98106  0  0  1  0  0  0  0  0999 V2000
  -24.8390  -22.1220   19.4070 C   0  0  0  0  0  3  0  0  0  0  0  0
  -24.3050  -23.0260   18.4710 C   0  0  0  0  0  3  0  0  0  0  0  0
  -26.1240  -21.5860   19.2110 C   0  0  0  0  0  3  0  0  0  0  0  0
  -26.3230  -22.8210   17.1180 C   0  0  0  0  0  3  0  0  0  0  0  0
  -25.0360  -23.3760   17.3160 C   0  0  0  0  0  0  0  0  0  0  0  0
  -26.8850  -21.9550   18.0820 C   0  0  0  0  0  0  0  0  0  0  0  0
  -24.3880  -24.3480   16.3350 C   0  0  0  0  0  2  0  0  0  0  0  0
  -25.1870  -24.7600   15.0810 C   0  0  0  0  0  2  0  0  0  0  0  0
  -26.6170  -25.2840   15.3190 C   0  0  0  0  0  2  0  0  0  0  0  0
  -26.7080  -26.5920   16.1270 C   0  0  0  0  0  2  0  0  0  0  0  0
  -27.1810  -26.3600   17.5700 C   0  0  0  0  0  2  0  0  0  0  0  0
  -27.4660  -27.6040   18.2040 O   0  0  0  0  0  0  0  0  0  0  0  0
  -25.1490  -31.2070   23.8330 C   0  0  0  0  0  0  0  0  0  0  0  0
  -26.4240  -28.3450   18.7160 C   0  0  0  0  0  0  0  0  0  0  0  0
  -23.4600  -30.7950   22.0680 C   0  0  0  0  0  3  0  0  0  0  0  0
  -24.3670  -29.9050   19.8600 C   0  0  0  0  0  0  0  0  0  0  0  0
  -25.9440  -30.9670   21.4860 C   0  0  0  0  0  2  0  0  0  0  0  0
  -25.6780  -30.0140   20.3400 C   0  0  0  0  0  0  0  0  0  0  0  0
  -26.7090  -29.2430   19.7660 C   0  0  0  0  0  3  0  0  0  0  0  0
  -25.0950  -28.2460   18.2420 C   0  0  0  0  0  3  0  0  0  0  0  0
  -24.0690  -29.0230   18.8090 C   0  0  0  0  0  3  0  0  0  0  0  0
  -23.3210  -30.7700   20.5220 C   0  0  0  0  0  2  0  0  0  0  0  0
  -24.8800  -30.9760   22.5160 N   0  0  0  0  0  0  0  0  0  0  0  0
  -24.2330  -31.3140   24.6610 O   0  0  0  0  0  0  0  0  0  0  0  0
  -22.7920  -29.5270   22.6410 C   0  0  0  0  0  0  0  0  0  0  0  0
  -21.4580  -29.4440   22.5010 N   0  0  0  0  0  0  0  0  0  0  0  0
  -23.4680  -28.6360   23.1630 O   0  0  0  0  0  0  0  0  0  0  0  0
  -20.9800  -30.2310   22.0810 H   0  0  0  0  0  0  0  0  0  0  0  0
  -18.1040  -28.1090   22.3810 C   0  0  0  0  0  0  0  0  0  0  0  0
  -20.6200  -28.3200   22.9230 C   0  0  0  0  0  3  0  0  0  0  0  0
  -20.8250  -27.0920   22.0060 C   0  0  0  0  0  2  0  0  0  0  0  0
  -19.8100  -27.0110   20.8590 C   0  0  0  0  0  2  0  0  0  0  0  0
  -18.3760  -26.9790   21.4020 C   0  0  0  0  0  2  0  0  0  0  0  0
  -19.1570  -28.7430   23.0860 C   0  0  0  0  0  0  0  0  0  0  0  0
  -18.8530  -29.8020   23.9680 C   0  0  0  0  0  3  0  0  0  0  0  0
  -17.5230  -30.2220   24.1550 C   0  0  0  0  0  3  0  0  0  0  0  0
  -16.4810  -29.5830   23.4610 C   0  0  0  0  0  3  0  0  0  0  0  0
  -16.7720  -28.5310   22.5760 C   0  0  0  0  0  3  0  0  0  0  0  0
  -26.6090  -31.3690   24.3560 C   0  0  0  0  0  3  0  0  0  0  0  0
  -27.0500  -30.2170   25.3400 C   0  0  1  0  0  0  0  0  0  0  0  0
  -26.0610  -29.9860   26.5060 C   0  0  0  0  0  1  0  0  0  0  0  0
  -27.2060  -28.8800   24.5790 C   0  0  0  0  0  1  0  0  0  0  0  0
  -28.4350  -30.5440   25.9470 C   0  0  0  0  0  1  0  0  0  0  0  0
  -26.7000  -32.6790   25.0150 N   0  0  0  0  0  0  0  0  0  0  0  0
  -27.2700  -33.7630   24.4730 C   0  0  0  0  0  0  0  0  0  0  0  0
  -27.8490  -33.7440   23.3830 O   0  0  0  0  0  0  0  0  0  0  0  0
  -26.2020  -32.7820   25.8850 H   0  0  0  0  0  0  0  0  0  0  0  0
  -26.1060  -35.9840   24.6560 C   0  0  0  0  0  1  0  0  0  0  0  0
  -27.1890  -35.0800   25.2680 C   0  0  0  0  0  3  0  0  0  0  0  0
  -29.4830  -35.1350   26.1380 C   0  0  0  0  0  1  0  0  0  0  0  0
  -28.4720  -35.8130   25.3300 N   0  0  0  0  0  0  0  0  0  0  0  0
  -28.3370  -36.7460   25.7080 H   0  0  0  0  0  0  0  0  0  0  0  0
  -28.3330  -21.4700   17.9620 C   0  0  0  0  0  3  0  0  0  0  0  0
  -29.1080  -22.6120   17.4340 N   0  0  0  0  0  4  0  0  0  0  0  0
  -28.7980  -22.8460   16.5110 H   0  0  0  0  0  0  0  0  0  0  0  0
  -30.0850  -22.3860   17.3950 H   0  0  0  0  0  0  0  0  0  0  0  0
  -28.9890  -23.4140   18.0290 H   0  0  0  0  0  0  0  0  0  0  0  0
  -28.5340  -20.1690   17.1010 C   0  0  0  0  0  2  0  0  0  0  0  0
  -28.9210  -18.7280   17.5620 C   0  0  0  0  0  2  0  0  0  0  0  0
  -30.4350  -18.3930   17.6040 C   0  0  0  0  0  2  0  0  0  0  0  0
  -31.5380  -16.3070   18.4800 C   0  0  0  0  0  0  0  0  0  0  0  0
  -31.6740  -13.8550   18.7010 C   0  0  0  0  0  2  0  0  0  0  0  0
  -30.7490  -13.2340   17.6340 C   0  0  0  0  0  2  0  0  0  0  0  0
  -29.3070  -13.1150   18.1650 C   0  0  0  0  0  2  0  0  0  0  0  0
  -28.7930  -14.4340   18.7990 C   0  0  0  0  0  3  0  0  0  0  0  0
  -29.8360  -15.0030   19.7910 C   0  0  0  0  0  2  0  0  0  0  0  0
  -31.1150  -15.1610   19.0730 N   0  0  0  0  0  0  0  0  0  0  0  0
  -32.5820  -16.4130   17.8310 O   0  0  0  0  0  0  0  0  0  0  0  0
  -30.6210  -17.2790   18.5240 N   0  0  0  0  0  0  0  0  0  0  0  0
  -29.8440  -17.0810   19.1360 H   0  0  0  0  0  0  0  0  0  0  0  0
  -26.5640  -15.2130   19.8280 C   0  0  0  0  0  0  0  0  0  0  0  0
  -25.4870  -14.5160   20.3040 C   0  0  0  0  0  0  0  0  0  0  0  0
  -25.8180  -13.1320   20.1620 C   0  0  0  0  0  0  0  0  0  0  0  0
  -27.4910  -14.2570   19.4330 N   0  0  0  0  0  0  0  0  0  0  0  0
  -27.0490  -13.0000   19.6890 N   0  0  0  0  0  0  0  0  0  0  0  0
  -25.0130  -11.9270   20.3940 C   0  0  0  0  0  0  0  0  0  0  0  0
  -25.3720  -10.9750   21.3740 C   0  0  0  0  0  3  0  0  0  0  0  0
  -24.5700   -9.8330   21.5900 C   0  0  0  0  0  3  0  0  0  0  0  0
  -23.3960   -9.6350   20.8250 C   0  0  0  0  0  0  0  0  0  0  0  0
  -23.0560  -10.5730   19.8350 C   0  0  0  0  0  3  0  0  0  0  0  0
  -23.8570  -11.7080   19.6180 C   0  0  0  0  0  3  0  0  0  0  0  0
  -22.5710   -8.5450   20.9510 O   0  0  0  0  0  0  0  0  0  0  0  0
  -22.2970   -7.9850   22.1730 C   0  0  0  0  0  0  0  0  0  0  0  0
  -21.6680   -8.7170   23.2030 C   0  0  0  0  0  3  0  0  0  0  0  0
  -21.3420   -8.0830   24.4180 C   0  0  0  0  0  3  0  0  0  0  0  0
  -21.6340   -6.7180   24.6020 C   0  0  0  0  0  0  0  0  0  0  0  0
  -22.2550   -5.9860   23.5740 C   0  0  0  0  0  3  0  0  0  0  0  0
  -22.5820   -6.6180   22.3620 C   0  0  0  0  0  0  0  0  0  0  0  0
  -23.1610   -5.9020   21.3670 F   0  0  0  0  0  0  0  0  0  0  0  0
  -21.3140   -6.1070   25.7670 F   0  0  0  0  0  0  0  0  0  0  0  0
  -24.1800  -15.0920   20.7730 C   0  0  0  0  0  0  0  0  0  0  0  0
  -23.5130  -14.4200   21.7040 N   0  0  0  0  0  0  0  0  0  0  0  0
  -23.7670  -16.1710   20.3480 O   0  0  0  0  0  0  0  0  0  0  0  0
  -23.8610  -13.5450   22.0680 H   0  0  0  0  0  0  0  0  0  0  0  0
  -22.6400  -14.7820   22.0580 H   0  0  0  0  0  0  0  0  0  0  0  0
  -26.8240  -16.5720   19.6800 N   0  0  0  0  0  0  0  0  0  0  0  0
  -26.1180  -17.2740   19.8730 H   0  0  0  0  0  0  0  0  0  0  0  0
  -27.6470  -16.9500   19.2300 H   0  0  0  0  0  0  0  0  0  0  0  0
  2  1  2  0
  3  1  1  0
  4  5  2  0
  4  6  1  0
  5  2  1  0
  6  3  2  0
  7  5  1  0
  8  9  1  0
  8  7  1  0
  9 10  1  0
 10 11  1  0
 11 12  1  0
 12 14  1  0
 13 24  2  0
 14 19  1  0
 15 23  1  0
 15 25  1  0
 16 18  1  0
 16 22  1  0
 17 23  1  0
 18 17  1  0
 19 18  2  0
 20 14  2  0
 20 21  1  0
 21 16  2  0
 22 15  1  0
 23 13  1  0
 25 27  2  0
 26 25  1  0
 28 26  1  0
 29 38  2  0
 29 34  1  0
 30 26  1  0
 30 34  1  0
 31 30  1  0
 32 33  1  0
 32 31  1  0
 33 29  1  0
 34 35  2  0
 35 36  1  0
 37 36  2  0
 38 37  1  0
 39 13  1  0
 39 44  1  0
 39 40  1  0
 40 43  1  1
 40 41  1  0
 42 40  1  0
 44 47  1  0
 45 44  1  0
 45 49  1  0
 46 45  2  0
 49 48  1  0
 49 51  1  0
 51 52  1  0
 51 50  1  0
 53 58  1  0
 53  6  1  0
 54 53  1  0
 54 57  1  0
 55 54  1  0
 56 54  1  0
 58 59  1  0
 59 60  1  0
 60 69  1  0
 61 69  1  0
 61 67  1  0
 62 67  1  0
 63 64  1  0
 63 62  1  0
 65 64  1  0
 65 74  1  0
 65 66  1  0
 67 66  1  0
 68 61  2  0
 69 70  1  0
 71 72  2  0
 72 91  1  0
 73 72  1  0
 73 76  1  0
 74 75  1  0
 74 71  1  0
 75 73  2  0
 76 77  1  0
 77 78  2  0
 79 82  1  0
 79 78  1  0
 80 79  2  0
 81 80  1  0
 81 76  2  0
 82 83  1  0
 83 88  2  0
 83 84  1  0
 84 85  2  0
 85 86  1  0
 86 90  1  0
 87 86  2  0
 88 87  1  0
 89 88  1  0
 91 92  1  0
 92 95  1  0
 92 94  1  0
 93 91  2  0
 96 71  1  0
 96 97  1  0
 98 96  1  0
M  ISO  4  11 101  12 101  61 100  69 100
M  END
>  <TORSDO>  (82) 
F 26

>  <SCORE>  (82) 
-6.124

>  <name>  (82) 
81

>  <ligand_id>  (82) 
81

>  <original_smiles>  (82) 
[H]c1c([H])c([H])c2c(c1[H])C([H])([H])C([H])([H])C([H])([H])C2([H])N([H])C(=O)C1([H])N(C(=O)C([H])(N([H])C(=O)C([H])(N([H])C([H])([H])[H])C([H])([H])[H])C(C([H])([H])[H])(C([H])([H])[H])C([H])([H])[H])C([H])([H])c2c([H])c(OC([H])([H])C([H])([H])C([H])([H])C([H])([H])C([H])([H])c3c([H])c([H])c([H])c(C([H])(C([H])([H])C([H])([H])C([H])([H])N([H])C(=O)N4C([H])([H])C([H])([H])C([H])([H])C([H])(n5nc(-c6c([H])c([H])c(Oc7c([H])c([H])c(F)c([H])c7F)c([H])c6[H])c(C(=O)N([H])[H])c5N([H])[H])C4([H])[H])[N+]([H])([H])[H])c3[H])c([H])c([H])c2C1([H])[H]

>  <smiles>  (82) 
[H]c1c([H])c([H])c2c(c1[H])C([H])([H])C([H])([H])C([H])([H])C2([H])N([H])C(=O)C1([H])N(C(=O)C([H])(N([H])C(=O)C([H])(N([H])C([H])([H])[H])C([H])([H])[H])C(C([H])([H])[H])(C([H])([H])[H])C([H])([H])[H])C([H])([H])c2c([H])c(OC([H])([H])C([H])([H])C([H])([H])C([H])([H])C([H])([H])c3c([H])c([H])c([H])c(C([H])(C([H])([H])C([H])([H])C([H])([H])N([H])C(=O)N4C([H])([H])C([H])([H])C([H])([H])C([H])(n5nc(-c6c([H])c([H])c(Oc7c([H])c([H])c(F)c([H])c7F)c([H])c6[H])c(C(=O)N([H])[H])c5N([H])[H])C4([H])[H])[N+]([H])([H])[H])c3[H])c([H])c([H])c2C1([H])[H]

$$$$
82:0:0
     RDKit          3D

 94 94  0  0  1  0  0  0  0  0999 V2000
  -19.4590  -24.6840   21.6560 C   0  0  0  0  0  2  0  0  0  0  0  0
  -18.3980  -25.3440   20.4400 C   0  0  0  0  0  3  0  0  0  0  0  0
  -20.9040  -27.3750   21.1260 C   0  0  0  0  0  2  0  0  0  0  0  0
  -20.9790  -25.3880   22.0430 C   0  0  0  0  0  1  0  0  0  0  0  0
  -18.6840  -26.8650   19.6260 C   0  0  0  0  0  0  0  0  0  0  0  0
  -20.0320  -27.8580   19.9630 C   0  0  0  0  0  3  0  0  0  0  0  0
  -16.7440  -28.1900   18.6810 C   0  0  0  0  0  1  0  0  0  0  0  0
  -17.3960  -25.9790   17.6160 C   0  0  0  0  0  1  0  0  0  0  0  0
  -17.8890  -27.2180   18.3760 C   0  0  0  0  0  3  0  0  0  0  0  0
  -22.8130  -23.8450   22.0070 C   0  0  0  0  0  2  0  0  0  0  0  0
  -22.8880  -23.4580   23.1750 O   0  0  0  0  0  0  0  0  0  0  0  0
  -24.5530  -22.5970   20.9940 C   0  0  0  0  0 15  0  0  0  0  0  0
  -26.5620  -21.0570   20.8080 C   0  0  0  0  0 15  0  0  0  0  0  0
  -28.0000  -19.0860   20.1160 C   0  0  0  0  0 15  0  0  0  0  0  0
  -29.7900  -17.5220   19.9120 C   0  0  0  0  0  2  0  0  0  0  0  0
  -31.2430  -14.9950   19.1090 C   0  0  0  0  0  2  0  0  0  0  0  0
  -30.7750  -13.9300   17.9960 C   0  0  0  0  0  2  0  0  0  0  0  0
  -29.4730  -13.2270   18.3890 C   0  0  0  0  0  2  0  0  0  0  0  0
  -28.7070  -14.2590   19.2150 C   0  0  0  0  0  3  0  0  0  0  0  0
  -29.4460  -14.8420   20.4180 C   0  0  0  0  0  2  0  0  0  0  0  0
  -30.1250  -15.9680   19.8140 N   0  0  0  0  0  0  0  0  0  0  0  0
  -31.0590  -17.7070   19.6630 O   0  0  0  0  0  1  0  0  0  0  0  0
  -26.4660  -14.8470   20.0050 C   0  0  0  0  0  0  0  0  0  0  0  0
  -25.4300  -14.1040   20.4530 C   0  0  0  0  0  0  0  0  0  0  0  0
  -25.8670  -12.7450   20.3900 C   0  0  0  0  0  0  0  0  0  0  0  0
  -27.4310  -13.9250   19.6820 N   0  0  0  0  0  0  0  0  0  0  0  0
  -27.1240  -12.6570   19.9930 N   0  0  0  0  0  0  0  0  0  0  0  0
  -25.1300  -11.5100   20.5980 C   0  0  0  0  0  0  0  0  0  0  0  0
  -25.4670  -10.6120   21.6300 C   0  0  0  0  0  3  0  0  0  0  0  0
  -24.7170   -9.4320   21.8060 C   0  0  0  0  0  3  0  0  0  0  0  0
  -23.6260   -9.1550   20.9470 C   0  0  0  0  0  0  0  0  0  0  0  0
  -23.3200  -10.0440   19.9030 C   0  0  0  0  0  3  0  0  0  0  0  0
  -24.0700  -11.2130   19.7250 C   0  0  0  0  0  3  0  0  0  0  0  0
  -22.8510   -8.0280   21.0310 O   0  0  0  0  0  0  0  0  0  0  0  0
  -22.4580   -7.5210   22.2410 C   0  0  0  0  0  0  0  0  0  0  0  0
  -21.7890   -8.3130   23.2010 C   0  0  0  0  0  3  0  0  0  0  0  0
  -21.3400   -7.7300   24.4020 C   0  0  0  0  0  3  0  0  0  0  0  0
  -21.5520   -6.3590   24.6420 C   0  0  0  0  0  0  0  0  0  0  0  0
  -22.2150   -5.5700   23.6860 C   0  0  0  0  0  3  0  0  0  0  0  0
  -22.6650   -6.1500   22.4880 C   0  0  0  0  0  0  0  0  0  0  0  0
  -23.2870   -5.3830   21.5590 F   0  0  0  0  0  0  0  0  0  0  0  0
  -21.1120   -5.7970   25.7910 F   0  0  0  0  0  0  0  0  0  0  0  0
  -24.0780  -14.6380   20.7910 C   0  0  0  0  0  0  0  0  0  0  0  0
  -23.4100  -14.0250   21.7580 N   0  0  0  0  0  0  0  0  0  0  0  0
  -23.6360  -15.6410   20.2320 O   0  0  0  0  0  0  0  0  0  0  0  0
  -23.7930  -13.2210   22.2320 H   0  0  0  0  0  0  0  0  0  0  0  0
  -22.5000  -14.3690   22.0310 H   0  0  0  0  0  0  0  0  0  0  0  0
  -26.6600  -16.2120   19.8200 N   0  0  0  0  0  0  0  0  0  0  0  0
  -25.8710  -16.8420   19.9120 H   0  0  0  0  0  0  0  0  0  0  0  0
  -27.3940  -16.5830   19.2330 H   0  0  0  0  0  0  0  0  0  0  0  0
  -21.4010  -28.3600   19.0300 C   0  0  0  0  0  2  0  0  0  0  0  0
  -23.2390  -28.3140   19.3160 C   0  0  0  0  0  2  0  0  0  0  0  0
  -24.7260  -27.3630   19.9660 C   0  0  0  0  0  2  0  0  0  0  0  0
  -26.2590  -27.5280   20.6720 O   0  0  0  0  0  0  0  0  0  0  0  0
  -28.5910  -30.8920   25.3760 C   0  0  0  0  0  0  0  0  0  0  0  0
  -27.4170  -28.1020   20.1820 C   0  0  0  0  0  3  0  0  0  0  0  0
  -26.5480  -30.9880   24.0570 C   0  0  0  0  0  3  0  0  0  0  0  0
  -26.7540  -30.3110   21.5710 C   0  0  0  0  0  3  0  0  0  0  0  0
  -28.7770  -30.3880   22.9550 C   0  0  0  0  0  2  0  0  0  0  0  0
  -27.9530  -29.6960   21.9010 C   0  0  0  0  0  0  0  0  0  0  0  0
  -28.3490  -28.5580   21.1610 C   0  0  0  0  0  3  0  0  0  0  0  0
  -26.8150  -29.0790   19.4550 C   0  0  0  0  0  2  0  0  0  0  0  0
  -26.3460  -30.1520   20.2290 C   0  0  0  0  0  2  0  0  0  0  0  0
  -26.1600  -31.2830   22.5870 C   0  0  0  0  0  2  0  0  0  0  0  0
  -28.0130  -30.7900   24.1570 N   0  0  0  0  0  0  0  0  0  0  0  0
  -27.9340  -31.2130   26.3770 O   0  0  0  0  0  0  0  0  0  0  0  0
  -25.8570  -29.7400   24.6680 C   0  0  0  0  0  0  0  0  0  0  0  0
  -24.5470  -29.6230   24.7390 N   0  0  0  0  0  0  0  0  0  0  0  0
  -26.5250  -28.8390   25.1590 O   0  0  0  0  0  0  0  0  0  0  0  0
  -23.9380  -30.3600   24.4100 H   0  0  0  0  0  0  0  0  0  0  0  0
  -21.9930  -27.6580   22.9860 C   0  0  0  0  0  3  0  0  0  0  0  0
  -23.9350  -28.2930   25.0780 C   0  0  0  0  0  2  0  0  0  0  0  0
  -25.3890  -26.8880   24.7160 C   0  0  0  0  0 15  0  0  0  0  0  0
  -25.5970  -25.7650   22.8420 C   0  0  0  0  0  1  0  0  0  0  0  0
  -23.9980  -25.7010   21.6950 C   0  0  0  0  0  1  0  0  0  0  0  0
  -22.4100  -28.5590   24.2130 C   0  0  0  0  0  0  0  0  0  0  0  0
  -21.7660  -29.8660   24.4900 C   0  0  0  0  0  3  0  0  0  0  0  0
  -20.6690  -30.4480   23.8080 C   0  0  0  0  0  3  0  0  0  0  0  0
  -20.1460  -29.6720   22.7740 C   0  0  0  0  0  3  0  0  0  0  0  0
  -20.7700  -28.4020   22.4190 C   0  0  0  0  0  0  0  0  0  0  0  0
  -30.1070  -30.6270   25.5470 C   0  0  0  0  0  3  0  0  0  0  0  0
  -30.5510  -31.4810   26.6530 N   0  0  0  0  0  0  0  0  0  0  0  0
  -31.1750  -32.6530   26.4950 C   0  0  0  0  0  0  0  0  0  0  0  0
  -31.5190  -33.0870   25.3930 O   0  0  0  0  0  0  0  0  0  0  0  0
  -30.2520  -31.2150   27.5800 H   0  0  0  0  0  0  0  0  0  0  0  0
  -30.4500  -34.6110   27.8970 C   0  0  0  0  0  1  0  0  0  0  0  0
  -31.4690  -33.4700   27.7660 C   0  0  0  0  0  3  0  0  0  0  0  0
  -33.8680  -32.9890   27.9650 C   0  0  0  0  0  1  0  0  0  0  0  0
  -32.8420  -34.0160   27.8060 N   0  0  0  0  0  0  0  0  0  0  0  0
  -32.9410  -34.6850   28.5640 H   0  0  0  0  0  0  0  0  0  0  0  0
  -30.4390  -29.1110   25.8320 C   0  0  1  0  0  0  0  0  0  0  0  0
  -29.5870  -28.4900   26.9630 C   0  0  0  0  0  1  0  0  0  0  0  0
  -30.2420  -28.2370   24.5700 C   0  0  0  0  0  1  0  0  0  0  0  0
  -31.9290  -28.9840   26.2190 C   0  0  0  0  0  1  0  0  0  0  0  0
  1  4  1  0
  2  1  1  0
  3 80  1  0
  5  2  2  0
  6  5  1  0
  6  3  1  0
  8  9  1  0
  9  7  1  0
  9  5  1  0
 10 11  2  0
 16 21  1  0
 17 18  1  0
 17 16  1  0
 19 18  1  0
 19 26  1  0
 19 20  1  0
 21 15  1  0
 21 20  1  0
 22 15  1  0
 23 24  2  0
 24 43  1  0
 25 24  1  0
 25 28  1  0
 26 27  1  0
 26 23  1  0
 27 25  2  0
 28 29  1  0
 29 30  2  0
 31 34  1  0
 31 30  1  0
 32 31  2  0
 33 32  1  0
 33 28  2  0
 34 35  1  0
 35 40  2  0
 35 36  1  0
 36 37  2  0
 37 38  1  0
 38 42  1  0
 39 38  2  0
 40 39  1  0
 41 40  1  0
 43 44  1  0
 44 47  1  0
 44 46  1  0
 45 43  2  0
 48 49  1  0
 48 23  1  0
 50 48  1  0
 51 52  1  0
 51  6  1  0
 52 53  1  0
 53 54  1  0
 55 66  2  0
 56 62  1  0
 56 54  1  0
 56 61  1  0
 57 64  1  0
 57 65  1  0
 57 67  1  0
 58 63  1  0
 58 60  1  0
 58 64  1  0
 59 65  1  0
 60 59  1  0
 61 60  2  0
 62 63  1  0
 65 55  1  0
 67 68  1  0
 67 69  2  0
 68 72  1  0
 70 68  1  0
 71 76  1  0
 75 74  1  0
 76 77  2  0
 76 72  1  0
 78 77  1  0
 79 78  2  0
 80 79  1  0
 80 71  2  0
 81 55  1  0
 81 91  1  0
 81 82  1  0
 82 85  1  0
 83 82  1  0
 83 87  1  0
 84 83  2  0
 87 89  1  0
 87 86  1  0
 89 88  1  0
 89 90  1  0
 91 94  1  1
 91 92  1  0
 93 91  1  0
M  ISO  4  14 100  15 100  53 101  54 101
M  END
>  <TORSDO>  (83) 
F 24

>  <SCORE>  (83) 
0.733

>  <name>  (83) 
82

>  <ligand_id>  (83) 
82

>  <original_smiles>  (83) 
[H]c1c([H])c([H])c2c(c1[H])C([H])([H])C([H])([H])C([H])([H])C2([H])N([H])C(=O)C1([H])N(C(=O)C([H])(N([H])C(=O)C([H])(N([H])C([H])([H])[H])C([H])([H])[H])C(C([H])([H])[H])(C([H])([H])[H])C([H])([H])[H])C([H])([H])c2c([H])c(OC([H])([H])C([H])([H])C([H])([H])c3c([H])c(C(=O)C([H])([H])C([H])([H])C([H])([H])C(=O)N4C([H])([H])C([H])([H])C([H])([H])C([H])(n5nc(-c6c([H])c([H])c(Oc7c([H])c([H])c(F)c([H])c7F)c([H])c6[H])c(C(=O)N([H])[H])c5N([H])[H])C4([H])[H])c([H])c([H])c3C([H])(C([H])([H])[H])C([H])([H])[H])c([H])c([H])c2C1([H])[H]

>  <smiles>  (83) 
[H]c1c([H])c([H])c2c(c1[H])C([H])([H])C([H])([H])C([H])([H])C2([H])N([H])C(=O)C1([H])N(C(=O)C([H])(N([H])C(=O)C([H])(N([H])C([H])([H])[H])C([H])([H])[H])C(C([H])([H])[H])(C([H])([H])[H])C([H])([H])[H])C([H])([H])c2c([H])c(OC([H])([H])C([H])([H])C([H])([H])c3c([H])c(C(=O)C([H])([H])C([H])([H])C([H])([H])C(=O)N4C([H])([H])C([H])([H])C([H])([H])C([H])(n5nc(-c6c([H])c([H])c(Oc7c([H])c([H])c(F)c([H])c7F)c([H])c6[H])c(C(=O)N([H])[H])c5N([H])[H])C4([H])[H])c([H])c([H])c3C([H])(C([H])([H])[H])C([H])([H])[H])c([H])c([H])c2C1([H])[H]

$$$$
83:0:0
     RDKit          3D

 94103  0  0  1  0  0  0  0  0999 V2000
  -29.9820  -21.3130   17.3290 C   0  0  0  0  0  3  0  0  0  0  0  0
  -30.1000  -20.0560   17.9510 C   0  0  0  0  0  3  0  0  0  0  0  0
  -29.4800  -22.4120   18.0520 C   0  0  0  0  0  3  0  0  0  0  0  0
  -29.1940  -20.9980   20.0140 C   0  0  0  0  0  3  0  0  0  0  0  0
  -29.7180  -19.9000   19.3010 C   0  0  0  0  0  0  0  0  0  0  0  0
  -29.0650  -22.2580   19.3940 C   0  0  0  0  0  0  0  0  0  0  0  0
  -29.8910  -18.6090   19.9790 C   0  0  0  0  0  3  0  0  0  0  0  0
  -29.4640  -18.0810   21.3260 C   0  0  0  0  0  2  0  0  0  0  0  0
  -30.3070  -16.8710   20.8960 C   0  0  1  0  0  0  0  0  0  0  0  0
  -30.5220  -17.6040   19.5750 N   0  0  0  0  0  2  0  0  0  0  0  0
  -32.6000  -17.8590   21.6490 C   0  0  0  0  0  1  0  0  0  0  0  0
  -31.4650  -16.1350   23.0680 C   0  0  0  0  0  1  0  0  0  0  0  0
  -31.6660  -16.6280   21.6230 C   0  0  0  0  0  3  0  0  0  0  0  0
  -29.5070  -15.5620   20.6440 C   0  0  0  0  0  2  0  0  0  0  0  0
  -30.0580  -14.5360   19.6260 C   0  0  0  0  0  0  0  0  0  0  0  0
  -29.7040  -12.4170   18.4010 C   0  0  0  0  0  2  0  0  0  0  0  0
  -28.5590  -12.5790   17.3830 C   0  0  0  0  0  2  0  0  0  0  0  0
  -27.1920  -12.3150   18.0470 C   0  0  0  0  0  2  0  0  0  0  0  0
  -27.0130  -13.0980   19.3730 C   0  0  0  0  0  3  0  0  0  0  0  0
  -28.2490  -12.9180   20.2810 C   0  0  0  0  0  2  0  0  0  0  0  0
  -29.4410  -13.3300   19.5220 N   0  0  0  0  0  0  0  0  0  0  0  0
  -30.9970  -14.8490   18.8840 O   0  0  0  0  0  0  0  0  0  0  0  0
  -24.7420  -13.5150   20.5180 C   0  0  0  0  0  0  0  0  0  0  0  0
  -23.8000  -12.6550   21.0150 C   0  0  0  0  0  0  0  0  0  0  0  0
  -24.3210  -11.3410   20.8190 C   0  0  0  0  0  0  0  0  0  0  0  0
  -25.7780  -12.7160   20.0570 N   0  0  0  0  0  0  0  0  0  0  0  0
  -25.5370  -11.4000   20.2920 N   0  0  0  0  0  0  0  0  0  0  0  0
  -23.7110  -10.0250   21.0520 C   0  0  0  0  0  0  0  0  0  0  0  0
  -24.2510   -9.1160   21.9880 C   0  0  0  0  0  3  0  0  0  0  0  0
  -23.6360   -7.8630   22.2060 C   0  0  0  0  0  3  0  0  0  0  0  0
  -22.4690   -7.5120   21.4880 C   0  0  0  0  0  0  0  0  0  0  0  0
  -21.9490   -8.4110   20.5410 C   0  0  0  0  0  3  0  0  0  0  0  0
  -22.5650   -9.6540   20.3200 C   0  0  0  0  0  3  0  0  0  0  0  0
  -21.8200   -6.3080   21.6150 O   0  0  0  0  0  0  0  0  0  0  0  0
  -21.7530   -5.6490   22.8170 C   0  0  0  0  0  0  0  0  0  0  0  0
  -21.1320   -6.2240   23.9470 C   0  0  0  0  0  3  0  0  0  0  0  0
  -21.0240   -5.4840   25.1420 C   0  0  0  0  0  3  0  0  0  0  0  0
  -21.5260   -4.1700   25.2060 C   0  0  0  0  0  0  0  0  0  0  0  0
  -22.1400   -3.5950   24.0810 C   0  0  0  0  0  3  0  0  0  0  0  0
  -22.2500   -4.3320   22.8880 C   0  0  0  0  0  0  0  0  0  0  0  0
  -22.8230   -3.7650   21.7990 F   0  0  0  0  0  0  0  0  0  0  0  0
  -21.4150   -3.4580   26.3520 F   0  0  0  0  0  0  0  0  0  0  0  0
  -22.4480  -13.0240   21.5560 C   0  0  0  0  0  0  0  0  0  0  0  0
  -21.9230  -12.2350   22.4870 N   0  0  0  0  0  0  0  0  0  0  0  0
  -21.8690  -14.0470   21.1900 O   0  0  0  0  0  0  0  0  0  0  0  0
  -22.4080  -11.4080   22.8040 H   0  0  0  0  0  0  0  0  0  0  0  0
  -21.0250  -12.4620   22.8900 H   0  0  0  0  0  0  0  0  0  0  0  0
  -24.7980  -14.9000   20.4020 N   0  0  0  0  0  0  0  0  0  0  0  0
  -24.0290  -15.4980   20.6830 H   0  0  0  0  0  0  0  0  0  0  0  0
  -25.5580  -15.4100   19.9690 H   0  0  0  0  0  0  0  0  0  0  0  0
  -28.5710  -23.3970   20.1780 C   0  0  0  0  0  3  0  0  0  0  0  0
  -28.9280  -24.6760   19.9720 C   0  0  0  0  0  3  0  0  0  0  0  0
  -28.3900  -25.8540   20.7510 C   0  0  0  0  0  2  0  0  0  0  0  0
  -28.2730  -26.9800   19.8950 O   0  0  0  0  0  0  0  0  0  0  0  0
  -24.5000  -31.9750   23.2500 C   0  0  0  0  0  0  0  0  0  0  0  0
  -27.0910  -27.6620   19.9940 C   0  0  0  0  0  0  0  0  0  0  0  0
  -23.2600  -30.6190   21.5920 C   0  0  0  0  0  3  0  0  0  0  0  0
  -24.6870  -29.1220   20.1010 C   0  0  0  0  0  0  0  0  0  0  0  0
  -25.7750  -30.9980   21.3490 C   0  0  0  0  0  2  0  0  0  0  0  0
  -25.8520  -29.6460   20.6760 C   0  0  0  0  0  0  0  0  0  0  0  0
  -27.0590  -28.9230   20.6210 C   0  0  0  0  0  3  0  0  0  0  0  0
  -25.9150  -27.1330   19.4250 C   0  0  0  0  0  3  0  0  0  0  0  0
  -24.7110  -27.8600   19.4760 C   0  0  0  0  0  3  0  0  0  0  0  0
  -23.4410  -29.9730   20.1910 C   0  0  0  0  0  2  0  0  0  0  0  0
  -24.5310  -31.2100   22.1230 N   0  0  0  0  0  0  0  0  0  0  0  0
  -23.4310  -32.2310   23.8210 O   0  0  0  0  0  0  0  0  0  0  0  0
  -22.6300  -29.5710   22.5370 C   0  0  0  0  0  0  0  0  0  0  0  0
  -21.3150  -29.3490   22.3890 N   0  0  0  0  0  0  0  0  0  0  0  0
  -23.3230  -28.9610   23.3560 O   0  0  0  0  0  0  0  0  0  0  0  0
  -20.8180  -29.8940   21.6990 H   0  0  0  0  0  0  0  0  0  0  0  0
  -17.9800  -28.0220   22.7940 C   0  0  0  0  0  0  0  0  0  0  0  0
  -20.5170  -28.3800   23.1390 C   0  0  0  0  0  3  0  0  0  0  0  0
  -20.6930  -26.9530   22.5690 C   0  0  0  0  0  2  0  0  0  0  0  0
  -19.6340  -26.5860   21.5260 C   0  0  0  0  0  2  0  0  0  0  0  0
  -18.2290  -26.6790   22.1300 C   0  0  0  0  0  2  0  0  0  0  0  0
  -19.0550  -28.8280   23.2540 C   0  0  0  0  0  0  0  0  0  0  0  0
  -18.7710  -30.0840   23.8320 C   0  0  0  0  0  3  0  0  0  0  0  0
  -17.4440  -30.5350   23.9580 C   0  0  0  0  0  3  0  0  0  0  0  0
  -16.3830  -29.7260   23.5170 C   0  0  0  0  0  3  0  0  0  0  0  0
  -16.6520  -28.4710   22.9410 C   0  0  0  0  0  3  0  0  0  0  0  0
  -25.8000  -32.5870   23.8610 C   0  0  0  0  0  3  0  0  0  0  0  0
  -25.5220  -33.9940   24.1750 N   0  0  0  0  0  0  0  0  0  0  0  0
  -25.8860  -35.0300   23.4070 C   0  0  0  0  0  0  0  0  0  0  0  0
  -26.5650  -34.9010   22.3850 O   0  0  0  0  0  0  0  0  0  0  0  0
  -24.9240  -34.1710   24.9690 H   0  0  0  0  0  0  0  0  0  0  0  0
  -24.2050  -36.8570   23.0100 C   0  0  0  0  0  1  0  0  0  0  0  0
  -25.4240  -36.4340   23.8450 C   0  0  0  0  0  3  0  0  0  0  0  0
  -27.5630  -37.2810   24.7030 C   0  0  0  0  0  1  0  0  0  0  0  0
  -26.4830  -37.4610   23.7360 N   0  0  0  0  0  0  0  0  0  0  0  0
  -26.0950  -38.3920   23.8630 H   0  0  0  0  0  0  0  0  0  0  0  0
  -26.3090  -31.8180   25.1420 C   0  0  1  0  0  0  0  0  0  0  0  0
  -25.2100  -31.5920   26.2070 C   0  0  0  0  0  1  0  0  0  0  0  0
  -26.8830  -30.4350   24.7540 C   0  0  0  0  0  1  0  0  0  0  0  0
  -27.4620  -32.6070   25.8040 C   0  0  0  0  0  1  0  0  0  0  0  0
  1  2  2  0
  1  3  1  0
  2  5  1  0
  3  6  2  0
  5  4  2  0
  6  4  1  0
  6 51  1  0
  7  5  1  0
  7  8  1  0
  9 14  1  6
  9  8  1  0
  9 13  1  0
 10  7  1  0
 10  9  1  0
 13 11  1  0
 13 12  1  0
 15 14  1  0
 16 21  1  0
 17 18  1  0
 17 16  1  0
 19 18  1  0
 19 26  1  0
 19 20  1  0
 21 15  1  0
 21 20  1  0
 22 15  2  0
 23 24  2  0
 24 43  1  0
 25 24  1  0
 25 28  1  0
 26 27  1  0
 26 23  1  0
 27 25  2  0
 28 29  1  0
 29 30  2  0
 31 34  1  0
 31 30  1  0
 32 31  2  0
 33 32  1  0
 33 28  2  0
 34 35  1  0
 35 40  2  0
 35 36  1  0
 36 37  2  0
 37 38  1  0
 38 42  1  0
 39 38  2  0
 40 39  1  0
 41 40  1  0
 43 44  1  0
 44 46  1  0
 44 47  1  0
 45 43  2  0
 48 23  1  0
 48 49  1  0
 50 48  1  0
 52 51  2  0
 52 53  1  0
 54 56  1  0
 54 53  1  0
 55 66  2  0
 56 61  1  0
 57 65  1  0
 57 67  1  0
 58 64  1  0
 58 60  1  0
 59 65  1  0
 60 59  1  0
 61 60  2  0
 62 63  1  0
 62 56  2  0
 63 58  2  0
 64 57  1  0
 65 55  1  0
 67 69  2  0
 68 67  1  0
 70 68  1  0
 71 80  2  0
 71 76  1  0
 72 68  1  0
 72 76  1  0
 73 72  1  0
 74 75  1  0
 74 73  1  0
 75 71  1  0
 76 77  2  0
 77 78  1  0
 79 78  2  0
 80 79  1  0
 81 55  1  0
 81 82  1  0
 81 91  1  0
 82 85  1  0
 83 87  1  0
 83 82  1  0
 84 83  2  0
 87 86  1  0
 89 87  1  0
 89 90  1  0
 89 88  1  0
 91 94  1  1
 91 92  1  0
 93 91  1  0
M  ISO  4  14 100  15 100  53 101  54 101
M  END
>  <TORSDO>  (84) 
F 21

>  <SCORE>  (84) 
-9.394

>  <name>  (84) 
83

>  <ligand_id>  (84) 
83

>  <original_smiles>  (84) 
[H]C(=C([H])C([H])([H])Oc1c([H])c([H])c2c(c1[H])C([H])([H])N(C(=O)C([H])(N([H])C(=O)C([H])(N([H])C([H])([H])[H])C([H])([H])[H])C(C([H])([H])[H])(C([H])([H])[H])C([H])([H])[H])C([H])(C(=O)N([H])C1([H])c3c([H])c([H])c([H])c([H])c3C([H])([H])C([H])([H])C1([H])[H])C2([H])[H])c1c([H])c([H])c([H])c(C2=NC(C([H])([H])C(=O)N3C([H])([H])C([H])([H])C([H])([H])C([H])(n4nc(-c5c([H])c([H])c(Oc6c([H])c([H])c(F)c([H])c6F)c([H])c5[H])c(C(=O)N([H])[H])c4N([H])[H])C3([H])[H])(C([H])(C([H])([H])[H])C([H])([H])[H])C2([H])[H])c1[H]

>  <smiles>  (84) 
[H]C(=C([H])C([H])([H])Oc1c([H])c([H])c2c(c1[H])C([H])([H])N(C(=O)C([H])(N([H])C(=O)C([H])(N([H])C([H])([H])[H])C([H])([H])[H])C(C([H])([H])[H])(C([H])([H])[H])C([H])([H])[H])C([H])(C(=O)N([H])C1([H])c3c([H])c([H])c([H])c([H])c3C([H])([H])C([H])([H])C1([H])[H])C2([H])[H])c1c([H])c([H])c([H])c(C2=NC(C([H])([H])C(=O)N3C([H])([H])C([H])([H])C([H])([H])C([H])(n4nc(-c5c([H])c([H])c(Oc6c([H])c([H])c(F)c([H])c6F)c([H])c5[H])c(C(=O)N([H])[H])c4N([H])[H])C3([H])[H])(C([H])(C([H])([H])[H])C([H])([H])[H])C2([H])[H])c1[H]

$$$$
84:0:0
     RDKit          3D

 83 90  0  0  1  0  0  0  0  0999 V2000
  -27.9370  -23.9500   20.2030 C   0  0  0  0  0  2  0  0  0  0  0  0
  -29.7540  -22.5360   21.6240 C   0  0  0  0  0  1  0  0  0  0  0  0
  -28.9440  -22.3370   20.3380 C   0  0  0  0  0  3  0  0  0  0  0  0
  -28.6670  -20.4520   20.2800 C   0  0  0  0  0  3  0  0  0  0  0  0
  -29.6600  -18.8220   20.2950 C   0  0  0  0  0  3  0  0  0  0  0  0
  -29.4080  -17.1150   20.3580 O   0  0  0  0  0  0  0  0  0  0  0  0
  -30.3490  -15.5950   20.1830 C   0  0  0  0  0  0  0  0  0  0  0  0
  -30.3640  -13.0590   19.3520 C   0  0  0  0  0  2  0  0  0  0  0  0
  -29.4490  -12.7590   18.1330 C   0  0  0  0  0  2  0  0  0  0  0  0
  -28.0200  -12.4270   18.5930 C   0  0  0  0  0  2  0  0  0  0  0  0
  -27.5350  -13.4010   19.6930 C   0  0  0  0  0  3  0  0  0  0  0  0
  -28.5710  -13.6650   20.8040 C   0  0  0  0  0  2  0  0  0  0  0  0
  -29.7770  -14.2050   20.1600 N   0  0  0  0  0  0  0  0  0  0  0  0
  -31.5660  -15.5880   19.9370 O   0  0  0  0  0  0  0  0  0  0  0  0
  -25.1870  -13.9020   20.5160 C   0  0  0  0  0  0  0  0  0  0  0  0
  -24.1450  -13.1060   20.8950 C   0  0  0  0  0  0  0  0  0  0  0  0
  -24.6290  -11.7630   20.8390 C   0  0  0  0  0  0  0  0  0  0  0  0
  -26.2330  -13.0460   20.2330 N   0  0  0  0  0  0  0  0  0  0  0  0
  -25.9150  -11.7500   20.5000 N   0  0  0  0  0  0  0  0  0  0  0  0
  -23.9200  -10.4900   21.0290 C   0  0  0  0  0  0  0  0  0  0  0  0
  -24.3690   -9.5220   21.9530 C   0  0  0  0  0  3  0  0  0  0  0  0
  -23.6550   -8.3170   22.1330 C   0  0  0  0  0  3  0  0  0  0  0  0
  -22.4770   -8.0710   21.3870 C   0  0  0  0  0  0  0  0  0  0  0  0
  -22.0470   -9.0280   20.4510 C   0  0  0  0  0  3  0  0  0  0  0  0
  -22.7610  -10.2240   20.2700 C   0  0  0  0  0  3  0  0  0  0  0  0
  -21.7340   -6.9190   21.4760 O   0  0  0  0  0  0  0  0  0  0  0  0
  -21.6910   -6.1760   22.6290 C   0  0  0  0  0  0  0  0  0  0  0  0
  -21.2390   -6.7230   23.8500 C   0  0  0  0  0  3  0  0  0  0  0  0
  -21.1450   -5.9060   24.9940 C   0  0  0  0  0  3  0  0  0  0  0  0
  -21.4920   -4.5440   24.9190 C   0  0  0  0  0  0  0  0  0  0  0  0
  -21.9360   -3.9970   23.7020 C   0  0  0  0  0  3  0  0  0  0  0  0
  -22.0310   -4.8110   22.5600 C   0  0  0  0  0  0  0  0  0  0  0  0
  -22.4400   -4.2740   21.3850 F   0  0  0  0  0  0  0  0  0  0  0  0
  -21.3940   -3.7580   26.0160 F   0  0  0  0  0  0  0  0  0  0  0  0
  -22.7470  -13.5650   21.1910 C   0  0  0  0  0  0  0  0  0  0  0  0
  -22.0440  -12.8570   22.0680 N   0  0  0  0  0  0  0  0  0  0  0  0
  -22.2900  -14.5860   20.6810 O   0  0  0  0  0  0  0  0  0  0  0  0
  -22.4300  -12.0310   22.5010 H   0  0  0  0  0  0  0  0  0  0  0  0
  -21.1070  -13.1460   22.3100 H   0  0  0  0  0  0  0  0  0  0  0  0
  -25.3330  -15.2780   20.3570 N   0  0  0  0  0  0  0  0  0  0  0  0
  -24.5670  -15.9270   20.5040 H   0  0  0  0  0  0  0  0  0  0  0  0
  -26.1830  -15.7320   20.0460 H   0  0  0  0  0  0  0  0  0  0  0  0
  -28.1500  -25.6650   20.2930 O   0  0  0  0  0  0  0  0  0  0  0  0
  -24.6590  -31.8890   23.1970 C   0  0  0  0  0  0  0  0  0  0  0  0
  -27.1680  -26.8440   20.2320 C   0  0  0  0  0  0  0  0  0  0  0  0
  -23.4610  -30.4880   21.5690 C   0  0  0  0  0  3  0  0  0  0  0  0
  -24.9000  -28.8380   20.1630 C   0  0  0  0  0  0  0  0  0  0  0  0
  -26.0370  -30.6390   21.4360 C   0  0  0  0  0  2  0  0  0  0  0  0
  -26.0950  -29.2090   20.7890 C   0  0  0  0  0  0  0  0  0  0  0  0
  -27.2190  -28.2380   20.7910 C   0  0  0  0  0  3  0  0  0  0  0  0
  -25.9390  -26.6610   19.5530 C   0  0  0  0  0  3  0  0  0  0  0  0
  -24.8560  -27.5880   19.5210 C   0  0  0  0  0  3  0  0  0  0  0  0
  -23.6940  -29.7860   20.2010 C   0  0  0  0  0  2  0  0  0  0  0  0
  -24.7430  -31.0370   22.1200 N   0  0  0  0  0  0  0  0  0  0  0  0
  -23.5680  -32.1950   23.7090 O   0  0  0  0  0  0  0  0  0  0  0  0
  -22.7490  -29.5140   22.5450 C   0  0  0  0  0  0  0  0  0  0  0  0
  -21.4150  -29.3640   22.4250 N   0  0  0  0  0  0  0  0  0  0  0  0
  -23.4050  -28.8910   23.3830 O   0  0  0  0  0  0  0  0  0  0  0  0
  -20.9360  -29.9180   21.7300 H   0  0  0  0  0  0  0  0  0  0  0  0
  -18.0240  -28.1750   22.9510 C   0  0  0  0  0  0  0  0  0  0  0  0
  -20.5860  -28.4370   23.2050 C   0  0  0  0  0  3  0  0  0  0  0  0
  -20.6800  -27.0000   22.6410 C   0  0  0  0  0  2  0  0  0  0  0  0
  -19.5760  -26.6740   21.6310 C   0  0  0  0  0  2  0  0  0  0  0  0
  -18.1960  -26.8240   22.2780 C   0  0  0  0  0  2  0  0  0  0  0  0
  -19.1450  -28.9390   23.3720 C   0  0  0  0  0  0  0  0  0  0  0  0
  -18.9280  -30.2010   23.9660 C   0  0  0  0  0  3  0  0  0  0  0  0
  -17.6230  -30.7000   24.1410 C   0  0  0  0  0  3  0  0  0  0  0  0
  -16.5170  -29.9340   23.7330 C   0  0  0  0  0  3  0  0  0  0  0  0
  -16.7190  -28.6730   23.1440 C   0  0  0  0  0  3  0  0  0  0  0  0
  -25.9280  -32.5370   23.8310 C   0  0  0  0  0  3  0  0  0  0  0  0
  -26.4290  -31.7770   25.1210 C   0  0  1  0  0  0  0  0  0  0  0  0
  -25.3270  -31.5550   26.1840 C   0  0  0  0  0  1  0  0  0  0  0  0
  -27.0090  -30.3910   24.7590 C   0  0  0  0  0  1  0  0  0  0  0  0
  -27.5790  -32.5730   25.7840 C   0  0  0  0  0  1  0  0  0  0  0  0
  -25.6090  -33.9370   24.1670 N   0  0  0  0  0  0  0  0  0  0  0  0
  -25.9180  -35.0010   23.4130 C   0  0  0  0  0  0  0  0  0  0  0  0
  -26.5590  -34.9080   22.3640 O   0  0  0  0  0  0  0  0  0  0  0  0
  -25.0320  -34.0820   24.9820 H   0  0  0  0  0  0  0  0  0  0  0  0
  -24.1640  -36.7930   23.1450 C   0  0  0  0  0  1  0  0  0  0  0  0
  -25.4430  -36.3890   23.8960 C   0  0  0  0  0  3  0  0  0  0  0  0
  -27.6040  -37.2960   24.6360 C   0  0  0  0  0  1  0  0  0  0  0  0
  -26.4630  -37.4500   23.7390 N   0  0  0  0  0  0  0  0  0  0  0  0
  -26.0550  -38.3670   23.8990 H   0  0  0  0  0  0  0  0  0  0  0  0
  1 43  1  0
  1  3  1  0
  3  2  1  0
  4  5  2  0
  4  3  1  0
  5  6  1  0
  7  6  1  0
  8 13  1  0
  9 10  1  0
  9  8  1  0
 11 10  1  0
 11 18  1  0
 11 12  1  0
 13  7  1  0
 13 12  1  0
 14  7  2  0
 15 16  2  0
 16 35  1  0
 17 16  1  0
 17 20  1  0
 18 19  1  0
 18 15  1  0
 19 17  2  0
 20 21  1  0
 21 22  2  0
 23 26  1  0
 23 22  1  0
 24 23  2  0
 25 24  1  0
 25 20  2  0
 26 27  1  0
 27 28  1  0
 28 29  2  0
 30 29  1  0
 30 34  1  0
 31 30  2  0
 32 27  2  0
 32 31  1  0
 33 32  1  0
 35 36  1  0
 36 39  1  0
 36 38  1  0
 37 35  2  0
 40 41  1  0
 40 15  1  0
 42 40  1  0
 44 55  2  0
 45 43  1  0
 45 50  1  0
 46 54  1  0
 46 56  1  0
 47 53  1  0
 47 49  1  0
 48 54  1  0
 49 50  2  0
 49 48  1  0
 51 45  2  0
 52 51  1  0
 52 47  2  0
 53 46  1  0
 54 44  1  0
 56 58  2  0
 57 56  1  0
 59 57  1  0
 60 69  2  0
 60 65  1  0
 61 57  1  0
 61 65  1  0
 62 61  1  0
 63 64  1  0
 63 62  1  0
 64 60  1  0
 65 66  2  0
 66 67  1  0
 68 67  2  0
 69 68  1  0
 70 44  1  0
 70 75  1  0
 70 71  1  0
 71 74  1  1
 71 72  1  0
 73 71  1  0
 75 78  1  0
 76 80  1  0
 76 75  1  0
 77 76  2  0
 80 79  1  0
 82 80  1  0
 82 83  1  0
 82 81  1  0
M  ISO  4   1 101   6 100   7 100  43 101
M  END
>  <TORSDO>  (85) 
F 20

>  <SCORE>  (85) 
-16.429

>  <name>  (85) 
84

>  <ligand_id>  (85) 
84

>  <original_smiles>  (85) 
[H]c1c([H])c([H])c2c(c1[H])C([H])([H])C([H])([H])C([H])([H])C2([H])N([H])C(=O)C1([H])N(C(=O)C([H])(N([H])C(=O)C([H])(N([H])C([H])([H])[H])C([H])([H])[H])C(C([H])([H])[H])(C([H])([H])[H])C([H])([H])[H])C([H])([H])c2c([H])c(OC([H])([H])C([H])(C([H])([H])[H])C([H])([H])C([H])([H])OC(=O)N3C([H])([H])C([H])([H])C([H])([H])C([H])(n4nc(-c5c([H])c([H])c(Oc6c([H])c([H])c(F)c([H])c6F)c([H])c5[H])c(C(=O)N([H])[H])c4N([H])[H])C3([H])[H])c([H])c([H])c2C1([H])[H]

>  <smiles>  (85) 
[H]c1c([H])c([H])c2c(c1[H])C([H])([H])C([H])([H])C([H])([H])C2([H])N([H])C(=O)C1([H])N(C(=O)C([H])(N([H])C(=O)C([H])(N([H])C([H])([H])[H])C([H])([H])[H])C(C([H])([H])[H])(C([H])([H])[H])C([H])([H])[H])C([H])([H])c2c([H])c(OC([H])([H])C([H])(C([H])([H])[H])C([H])([H])C([H])([H])OC(=O)N3C([H])([H])C([H])([H])C([H])([H])C([H])(n4nc(-c5c([H])c([H])c(Oc6c([H])c([H])c(F)c([H])c6F)c([H])c5[H])c(C(=O)N([H])[H])c4N([H])[H])C3([H])[H])c([H])c([H])c2C1([H])[H]

$$$$
85:0:0
     RDKit          3D

 87 94  0  0  1  0  0  0  0  0999 V2000
  -29.2020  -24.4950   20.5280 C   0  0  0  0  0  0  0  0  0  0  0  0
  -30.0000  -24.6150   19.5900 O   0  0  0  0  0  0  0  0  0  0  0  0
  -29.0000  -23.1620   21.2550 C   0  0  0  0  0  2  0  0  0  0  0  0
  -29.8240  -21.9920   20.6850 C   0  0  0  0  0  2  0  0  0  0  0  0
  -29.4760  -20.6540   21.3590 C   0  0  0  0  0  2  0  0  0  0  0  0
  -30.2830  -19.4790   20.7870 C   0  0  0  0  0  2  0  0  0  0  0  0
  -29.8610  -18.1230   21.3730 C   0  0  0  0  0  2  0  0  0  0  0  0
  -30.5990  -16.9540   20.7020 C   0  0  0  0  0  2  0  0  0  0  0  0
  -30.0900  -15.5620   21.1350 C   0  0  0  0  0  2  0  0  0  0  0  0
  -30.6850  -14.4250   20.2820 C   0  0  0  0  0  0  0  0  0  0  0  0
  -30.3060  -12.3430   19.0150 C   0  0  0  0  0  2  0  0  0  0  0  0
  -29.3250  -12.6220   17.8600 C   0  0  0  0  0  2  0  0  0  0  0  0
  -27.8640  -12.4900   18.3360 C   0  0  0  0  0  2  0  0  0  0  0  0
  -27.5890  -13.2720   19.6490 C   0  0  0  0  0  3  0  0  0  0  0  0
  -28.6790  -12.9720   20.7030 C   0  0  0  0  0  2  0  0  0  0  0  0
  -29.9870  -13.2750   20.1040 N   0  0  0  0  0  0  0  0  0  0  0  0
  -31.7600  -14.6350   19.7080 O   0  0  0  0  0  0  0  0  0  0  0  0
  -25.2060  -13.8800   20.4140 C   0  0  0  0  0  0  0  0  0  0  0  0
  -24.1490  -13.1060   20.8100 C   0  0  0  0  0  0  0  0  0  0  0  0
  -24.6100  -11.7550   20.7650 C   0  0  0  0  0  0  0  0  0  0  0  0
  -26.2480  -13.0000   20.1590 N   0  0  0  0  0  0  0  0  0  0  0  0
  -25.8900  -11.7160   20.4230 N   0  0  0  0  0  0  0  0  0  0  0  0
  -23.8900  -10.4910   20.9740 C   0  0  0  0  0  0  0  0  0  0  0  0
  -24.3600   -9.5160   21.8810 C   0  0  0  0  0  3  0  0  0  0  0  0
  -23.6410   -8.3170   22.0790 C   0  0  0  0  0  3  0  0  0  0  0  0
  -22.4390   -8.0850   21.3680 C   0  0  0  0  0  0  0  0  0  0  0  0
  -21.9880   -9.0500   20.4490 C   0  0  0  0  0  3  0  0  0  0  0  0
  -22.7070  -10.2400   20.2510 C   0  0  0  0  0  3  0  0  0  0  0  0
  -21.6890   -6.9400   21.4760 O   0  0  0  0  0  0  0  0  0  0  0  0
  -21.6960   -6.1780   22.6180 C   0  0  0  0  0  0  0  0  0  0  0  0
  -21.3510   -6.7190   23.8750 C   0  0  0  0  0  3  0  0  0  0  0  0
  -21.3050   -5.8860   25.0110 C   0  0  0  0  0  3  0  0  0  0  0  0
  -21.5950   -4.5130   24.8900 C   0  0  0  0  0  0  0  0  0  0  0  0
  -21.9330   -3.9720   23.6370 C   0  0  0  0  0  3  0  0  0  0  0  0
  -21.9810   -4.8030   22.5040 C   0  0  0  0  0  0  0  0  0  0  0  0
  -22.2880   -4.2720   21.2950 F   0  0  0  0  0  0  0  0  0  0  0  0
  -21.5430   -3.7100   25.9780 F   0  0  0  0  0  0  0  0  0  0  0  0
  -22.7580  -13.5810   21.1220 C   0  0  0  0  0  0  0  0  0  0  0  0
  -22.0570  -12.8830   22.0090 N   0  0  0  0  0  0  0  0  0  0  0  0
  -22.3030  -14.6050   20.6140 O   0  0  0  0  0  0  0  0  0  0  0  0
  -22.4390  -12.0550   22.4400 H   0  0  0  0  0  0  0  0  0  0  0  0
  -21.1250  -13.1820   22.2600 H   0  0  0  0  0  0  0  0  0  0  0  0
  -25.3650  -15.2510   20.2340 N   0  0  0  0  0  0  0  0  0  0  0  0
  -24.6020  -15.9070   20.3640 H   0  0  0  0  0  0  0  0  0  0  0  0
  -26.2110  -15.6920   19.8950 H   0  0  0  0  0  0  0  0  0  0  0  0
  -28.3590  -25.6690   21.0310 C   0  0  0  0  0  2  0  0  0  0  0  0
  -28.4020  -26.7630   20.1140 O   0  0  0  0  0  0  0  0  0  0  0  0
  -24.6030  -31.8900   23.2290 C   0  0  0  0  0  0  0  0  0  0  0  0
  -27.2420  -27.4890   20.1240 C   0  0  0  0  0  0  0  0  0  0  0  0
  -23.3870  -30.4840   21.5960 C   0  0  0  0  0  3  0  0  0  0  0  0
  -24.8360  -28.9540   20.1590 C   0  0  0  0  0  0  0  0  0  0  0  0
  -25.9060  -30.8640   21.3730 C   0  0  0  0  0  2  0  0  0  0  0  0
  -25.9940  -29.4950   20.7340 C   0  0  0  0  0  0  0  0  0  0  0  0
  -27.2030  -28.7690   20.7140 C   0  0  0  0  0  3  0  0  0  0  0  0
  -26.0720  -26.9520   19.5470 C   0  0  0  0  0  3  0  0  0  0  0  0
  -24.8670  -27.6800   19.5630 C   0  0  0  0  0  3  0  0  0  0  0  0
  -23.5870  -29.8040   20.2140 C   0  0  0  0  0  2  0  0  0  0  0  0
  -24.6510  -31.0930   22.1250 N   0  0  0  0  0  0  0  0  0  0  0  0
  -23.5260  -32.1570   23.7810 O   0  0  0  0  0  0  0  0  0  0  0  0
  -22.7480  -29.4610   22.5610 C   0  0  0  0  0  0  0  0  0  0  0  0
  -21.4230  -29.2760   22.4440 N   0  0  0  0  0  0  0  0  0  0  0  0
  -23.4410  -28.8370   23.3690 O   0  0  0  0  0  0  0  0  0  0  0  0
  -20.9260  -29.8320   21.7620 H   0  0  0  0  0  0  0  0  0  0  0  0
  -18.0590  -28.0640   22.9500 C   0  0  0  0  0  0  0  0  0  0  0  0
  -20.6150  -28.3370   23.2200 C   0  0  0  0  0  3  0  0  0  0  0  0
  -20.7250  -26.9040   22.6500 C   0  0  0  0  0  2  0  0  0  0  0  0
  -19.6260  -26.5710   21.6370 C   0  0  0  0  0  2  0  0  0  0  0  0
  -18.2420  -26.7130   22.2790 C   0  0  0  0  0  2  0  0  0  0  0  0
  -19.1730  -28.8340   23.3760 C   0  0  0  0  0  0  0  0  0  0  0  0
  -18.9480  -30.1000   23.9610 C   0  0  0  0  0  3  0  0  0  0  0  0
  -17.6420  -30.5950   24.1240 C   0  0  0  0  0  3  0  0  0  0  0  0
  -16.5410  -29.8220   23.7140 C   0  0  0  0  0  3  0  0  0  0  0  0
  -16.7510  -28.5580   23.1340 C   0  0  0  0  0  3  0  0  0  0  0  0
  -25.8940  -32.5230   23.8380 C   0  0  0  0  0  3  0  0  0  0  0  0
  -25.5890  -33.9210   24.1690 N   0  0  0  0  0  0  0  0  0  0  0  0
  -25.9160  -34.9720   23.4060 C   0  0  0  0  0  0  0  0  0  0  0  0
  -26.5800  -34.8680   22.3700 O   0  0  0  0  0  0  0  0  0  0  0  0
  -25.0010  -34.0760   24.9750 H   0  0  0  0  0  0  0  0  0  0  0  0
  -24.1820  -36.7580   23.0590 C   0  0  0  0  0  1  0  0  0  0  0  0
  -25.4290  -36.3590   23.8640 C   0  0  0  0  0  3  0  0  0  0  0  0
  -27.5700  -37.2450   24.6760 C   0  0  0  0  0  1  0  0  0  0  0  0
  -26.4590  -37.4150   23.7450 N   0  0  0  0  0  0  0  0  0  0  0  0
  -26.0520  -38.3330   23.9010 H   0  0  0  0  0  0  0  0  0  0  0  0
  -26.4280  -31.7510   25.1060 C   0  0  1  0  0  0  0  0  0  0  0  0
  -25.3480  -31.5090   26.1850 C   0  0  0  0  0  1  0  0  0  0  0  0
  -27.0070  -30.3750   24.7020 C   0  0  0  0  0  1  0  0  0  0  0  0
  -27.5840  -32.5460   25.7570 C   0  0  0  0  0  1  0  0  0  0  0  0
  1 46  1  0
  1  3  1  0
  2  1  2  0
  4  3  1  0
  4  5  1  0
  6  5  1  0
  6  7  1  0
  8  9  1  0
  8  7  1  0
 10  9  1  0
 11 16  1  0
 12 13  1  0
 12 11  1  0
 14 13  1  0
 14 21  1  0
 14 15  1  0
 16 10  1  0
 16 15  1  0
 17 10  2  0
 18 19  2  0
 19 38  1  0
 20 19  1  0
 20 23  1  0
 21 18  1  0
 21 22  1  0
 22 20  2  0
 23 24  1  0
 24 25  2  0
 26 29  1  0
 26 25  1  0
 27 26  2  0
 28 27  1  0
 28 23  2  0
 29 30  1  0
 30 31  1  0
 31 32  2  0
 33 32  1  0
 33 37  1  0
 34 33  2  0
 35 30  2  0
 35 34  1  0
 36 35  1  0
 38 39  1  0
 39 42  1  0
 39 41  1  0
 40 38  2  0
 43 44  1  0
 43 18  1  0
 45 43  1  0
 47 49  1  0
 47 46  1  0
 48 59  2  0
 49 54  1  0
 50 58  1  0
 50 60  1  0
 51 57  1  0
 51 53  1  0
 52 58  1  0
 53 52  1  0
 54 53  2  0
 55 56  1  0
 55 49  2  0
 56 51  2  0
 57 50  1  0
 58 48  1  0
 60 62  2  0
 61 60  1  0
 63 61  1  0
 64 73  2  0
 64 69  1  0
 65 61  1  0
 65 69  1  0
 66 65  1  0
 67 68  1  0
 67 66  1  0
 68 64  1  0
 69 70  2  0
 70 71  1  0
 72 71  2  0
 73 72  1  0
 74 48  1  0
 74 75  1  0
 74 84  1  0
 75 78  1  0
 76 80  1  0
 76 75  1  0
 77 76  2  0
 80 79  1  0
 82 80  1  0
 82 83  1  0
 82 81  1  0
 84 87  1  1
 84 85  1  0
 86 84  1  0
M  ISO  4   9 100  10 100  46 101  47 101
M  END
>  <TORSDO>  (86) 
F 24

>  <SCORE>  (86) 
-12.123

>  <name>  (86) 
85

>  <ligand_id>  (86) 
85

>  <original_smiles>  (86) 
[H]c1c([H])c([H])c2c(c1[H])C([H])([H])C([H])([H])C([H])([H])C2([H])N([H])C(=O)C1([H])N(C(=O)C([H])(N([H])C(=O)C([H])(N([H])C([H])([H])[H])C([H])([H])[H])C(C([H])([H])[H])(C([H])([H])[H])C([H])([H])[H])C([H])([H])c2c([H])c(OC([H])([H])C(=O)C([H])([H])C([H])([H])C([H])([H])C([H])([H])C([H])([H])C([H])([H])C([H])([H])C(=O)N3C([H])([H])C([H])([H])C([H])([H])C([H])(n4nc(-c5c([H])c([H])c(Oc6c([H])c([H])c(F)c([H])c6F)c([H])c5[H])c(C(=O)N([H])[H])c4N([H])[H])C3([H])[H])c([H])c([H])c2C1([H])[H]

>  <smiles>  (86) 
[H]c1c([H])c([H])c2c(c1[H])C([H])([H])C([H])([H])C([H])([H])C2([H])N([H])C(=O)C1([H])N(C(=O)C([H])(N([H])C(=O)C([H])(N([H])C([H])([H])[H])C([H])([H])[H])C(C([H])([H])[H])(C([H])([H])[H])C([H])([H])[H])C([H])([H])c2c([H])c(OC([H])([H])C(=O)C([H])([H])C([H])([H])C([H])([H])C([H])([H])C([H])([H])C([H])([H])C([H])([H])C(=O)N3C([H])([H])C([H])([H])C([H])([H])C([H])(n4nc(-c5c([H])c([H])c(Oc6c([H])c([H])c(F)c([H])c6F)c([H])c5[H])c(C(=O)N([H])[H])c4N([H])[H])C3([H])[H])c([H])c([H])c2C1([H])[H]

$$$$
86:0:0
     RDKit          3D

 91 99  0  0  1  0  0  0  0  0999 V2000
  -28.8960  -22.6260   18.0190 C   0  0  0  0  0  3  0  0  0  0  0  0
  -29.2450  -21.4350   18.6940 C   0  0  0  0  0  3  0  0  0  0  0  0
  -28.6360  -23.8190   18.7250 C   0  0  0  0  0  3  0  0  0  0  0  0
  -29.3420  -21.3990   20.1030 C   0  0  0  0  0  0  0  0  0  0  0  0
  -28.7170  -23.8520   20.1310 C   0  0  0  0  0  0  0  0  0  0  0  0
  -29.0670  -22.6270   20.8060 C   0  0  0  0  0  0  0  0  0  0  0  0
  -29.1510  -22.6320   22.1580 F   0  0  0  0  0  0  0  0  0  0  0  0
  -29.8240  -20.0970   20.8430 C   0  0  0  0  0  2  0  0  0  0  0  0
  -29.6130  -18.6400   20.2070 C   0  0  0  0  0  2  0  0  0  0  0  0
  -30.5660  -17.4160   22.2470 C   0  0  0  0  0  1  0  0  0  0  0  0
  -31.9440  -17.6500   20.1710 C   0  0  0  0  0  1  0  0  0  0  0  0
  -30.5160  -17.4070   20.7070 C   0  0  2  0  0  0  0  0  0  0  0  0
  -29.9490  -15.9680   20.2420 C   0  0  0  0  0  2  0  0  0  0  0  0
  -30.7980  -14.6130   20.2260 C   0  0  0  0  0  0  0  0  0  0  0  0
  -30.5490  -12.3480   19.2520 C   0  0  0  0  0  2  0  0  0  0  0  0
  -29.6020  -12.4800   18.0370 C   0  0  0  0  0  2  0  0  0  0  0  0
  -28.1290  -12.3490   18.4760 C   0  0  0  0  0  2  0  0  0  0  0  0
  -27.7920  -13.2380   19.7030 C   0  0  0  0  0  3  0  0  0  0  0  0
  -28.8580  -13.0990   20.8110 C   0  0  0  0  0  2  0  0  0  0  0  0
  -30.1690  -13.3940   20.2230 N   0  0  0  0  0  0  0  0  0  0  0  0
  -31.9900  -14.6760   19.9190 O   0  0  0  0  0  0  0  0  0  0  0  0
  -25.4230  -13.8780   20.4610 C   0  0  0  0  0  0  0  0  0  0  0  0
  -24.3470  -13.1230   20.8450 C   0  0  0  0  0  0  0  0  0  0  0  0
  -24.7850  -11.7640   20.8080 C   0  0  0  0  0  0  0  0  0  0  0  0
  -26.4470  -12.9790   20.2100 N   0  0  0  0  0  0  0  0  0  0  0  0
  -26.0710  -11.7030   20.4810 N   0  0  0  0  0  0  0  0  0  0  0  0
  -24.0390  -10.5150   21.0080 C   0  0  0  0  0  0  0  0  0  0  0  0
  -24.4710   -9.5380   21.9320 C   0  0  0  0  0  3  0  0  0  0  0  0
  -23.7270   -8.3530   22.1190 C   0  0  0  0  0  3  0  0  0  0  0  0
  -22.5370   -8.1380   21.3830 C   0  0  0  0  0  0  0  0  0  0  0  0
  -22.1250   -9.1040   20.4490 C   0  0  0  0  0  3  0  0  0  0  0  0
  -22.8690  -10.2800   20.2590 C   0  0  0  0  0  3  0  0  0  0  0  0
  -21.7650   -7.0060   21.4810 O   0  0  0  0  0  0  0  0  0  0  0  0
  -21.7180   -6.2620   22.6330 C   0  0  0  0  0  0  0  0  0  0  0  0
  -21.3250   -6.8240   23.8660 C   0  0  0  0  0  3  0  0  0  0  0  0
  -21.2250   -6.0080   25.0120 C   0  0  0  0  0  3  0  0  0  0  0  0
  -21.5070   -4.6320   24.9230 C   0  0  0  0  0  0  0  0  0  0  0  0
  -21.8950   -4.0700   23.6940 C   0  0  0  0  0  3  0  0  0  0  0  0
  -21.9970   -4.8830   22.5520 C   0  0  0  0  0  0  0  0  0  0  0  0
  -22.3490   -4.3320   21.3650 F   0  0  0  0  0  0  0  0  0  0  0  0
  -21.4040   -3.8460   26.0200 F   0  0  0  0  0  0  0  0  0  0  0  0
  -22.9620  -13.6260   21.1360 C   0  0  0  0  0  0  0  0  0  0  0  0
  -22.2350  -12.9430   22.0130 N   0  0  0  0  0  0  0  0  0  0  0  0
  -22.5350  -14.6580   20.6210 O   0  0  0  0  0  0  0  0  0  0  0  0
  -22.5930  -12.1070   22.4510 H   0  0  0  0  0  0  0  0  0  0  0  0
  -21.3060  -13.2620   22.2500 H   0  0  0  0  0  0  0  0  0  0  0  0
  -25.6100  -15.2460   20.2840 N   0  0  0  0  0  0  0  0  0  0  0  0
  -24.8580  -15.9150   20.4090 H   0  0  0  0  0  0  0  0  0  0  0  0
  -26.4680  -15.6700   19.9550 H   0  0  0  0  0  0  0  0  0  0  0  0
  -28.3620  -25.1660   20.9040 C   0  0  0  0  0  2  0  0  0  0  0  0
  -28.5240  -26.4730   20.2400 O   0  0  0  0  0  0  0  0  0  0  0  0
  -24.6620  -31.8030   23.1790 C   0  0  0  0  0  0  0  0  0  0  0  0
  -27.3980  -27.2950   20.2020 C   0  0  0  0  0  0  0  0  0  0  0  0
  -23.5110  -30.3890   21.5100 C   0  0  0  0  0  3  0  0  0  0  0  0
  -25.0140  -28.8510   20.1260 C   0  0  0  0  0  0  0  0  0  0  0  0
  -26.0470  -30.7450   21.3840 C   0  0  0  0  0  2  0  0  0  0  0  0
  -26.1590  -29.3670   20.7470 C   0  0  0  0  0  0  0  0  0  0  0  0
  -27.3590  -28.6000   20.7730 C   0  0  0  0  0  3  0  0  0  0  0  0
  -26.2360  -26.8180   19.5640 C   0  0  0  0  0  3  0  0  0  0  0  0
  -25.0520  -27.5810   19.5260 C   0  0  0  0  0  3  0  0  0  0  0  0
  -23.7660  -29.7090   20.1390 C   0  0  0  0  0  2  0  0  0  0  0  0
  -24.7570  -30.9960   22.0830 N   0  0  0  0  0  0  0  0  0  0  0  0
  -23.5620  -32.0690   23.6880 O   0  0  0  0  0  0  0  0  0  0  0  0
  -22.8380  -29.3670   22.4570 C   0  0  0  0  0  0  0  0  0  0  0  0
  -21.5150  -29.1860   22.3050 N   0  0  0  0  0  0  0  0  0  0  0  0
  -23.5040  -28.7420   23.2860 O   0  0  0  0  0  0  0  0  0  0  0  0
  -21.0380  -29.7430   21.6100 H   0  0  0  0  0  0  0  0  0  0  0  0
  -18.1330  -27.9820   22.7380 C   0  0  0  0  0  0  0  0  0  0  0  0
  -20.6850  -28.2440   23.0570 C   0  0  0  0  0  3  0  0  0  0  0  0
  -20.7990  -26.8140   22.4780 C   0  0  0  0  0  2  0  0  0  0  0  0
  -19.7170  -26.4940   21.4420 C   0  0  0  0  0  2  0  0  0  0  0  0
  -18.3230  -26.6350   22.0620 C   0  0  0  0  0  2  0  0  0  0  0  0
  -19.2420  -28.7450   23.1920 C   0  0  0  0  0  0  0  0  0  0  0  0
  -19.0090  -30.0050   23.7830 C   0  0  0  0  0  3  0  0  0  0  0  0
  -17.7010  -30.5040   23.9260 C   0  0  0  0  0  3  0  0  0  0  0  0
  -16.6060  -29.7380   23.4900 C   0  0  0  0  0  3  0  0  0  0  0  0
  -16.8220  -28.4790   22.9010 C   0  0  0  0  0  3  0  0  0  0  0  0
  -25.9230  -32.4460   23.8320 C   0  0  0  0  0  3  0  0  0  0  0  0
  -25.5890  -33.8380   24.1650 N   0  0  0  0  0  0  0  0  0  0  0  0
  -25.9220  -34.9010   23.4190 C   0  0  0  0  0  0  0  0  0  0  0  0
  -26.6130  -34.8120   22.4000 O   0  0  0  0  0  0  0  0  0  0  0  0
  -24.9760  -33.9790   24.9540 H   0  0  0  0  0  0  0  0  0  0  0  0
  -24.1760  -36.6720   23.0460 C   0  0  0  0  0  1  0  0  0  0  0  0
  -25.4090  -36.2800   23.8760 C   0  0  0  0  0  3  0  0  0  0  0  0
  -27.5170  -37.1900   24.7460 C   0  0  0  0  0  1  0  0  0  0  0  0
  -26.4300  -37.3470   23.7840 N   0  0  0  0  0  0  0  0  0  0  0  0
  -26.0090  -38.2610   23.9280 H   0  0  0  0  0  0  0  0  0  0  0  0
  -26.4220  -31.6730   25.1140 C   0  0  1  0  0  0  0  0  0  0  0  0
  -25.3100  -31.4180   26.1590 C   0  0  0  0  0  1  0  0  0  0  0  0
  -27.0270  -30.3050   24.7260 C   0  0  0  0  0  1  0  0  0  0  0  0
  -27.5510  -32.4750   25.8040 C   0  0  0  0  0  1  0  0  0  0  0  0
  1  2  2  0
  1  3  1  0
  2  4  1  0
  3  5  2  0
  4  6  2  0
  4  8  1  0
  5  6  1  0
  5 50  1  0
  6  7  1  0
  9 12  1  0
  9  8  1  0
 12 11  1  6
 12 10  1  0
 13 12  1  0
 14 13  1  0
 15 20  1  0
 16 17  1  0
 16 15  1  0
 18 17  1  0
 18 25  1  0
 18 19  1  0
 20 14  1  0
 20 19  1  0
 21 14  2  0
 22 23  2  0
 23 42  1  0
 24 23  1  0
 24 27  1  0
 25 22  1  0
 25 26  1  0
 26 24  2  0
 27 28  1  0
 28 29  2  0
 30 33  1  0
 30 29  1  0
 31 30  2  0
 32 31  1  0
 32 27  2  0
 33 34  1  0
 34 35  1  0
 35 36  2  0
 37 36  1  0
 37 41  1  0
 38 37  2  0
 39 34  2  0
 39 38  1  0
 40 39  1  0
 42 43  1  0
 43 46  1  0
 43 45  1  0
 44 42  2  0
 47 48  1  0
 47 22  1  0
 49 47  1  0
 51 50  1  0
 52 63  2  0
 53 51  1  0
 53 58  1  0
 54 62  1  0
 54 64  1  0
 55 61  1  0
 55 57  1  0
 56 62  1  0
 57 58  2  0
 57 56  1  0
 59 53  2  0
 60 59  1  0
 60 55  2  0
 61 54  1  0
 62 52  1  0
 64 66  2  0
 65 64  1  0
 67 65  1  0
 68 77  2  0
 68 73  1  0
 69 65  1  0
 69 73  1  0
 70 69  1  0
 71 72  1  0
 71 70  1  0
 72 68  1  0
 73 74  2  0
 74 75  1  0
 76 75  2  0
 77 76  1  0
 78 52  1  0
 78 79  1  0
 78 88  1  0
 79 82  1  0
 80 84  1  0
 80 79  1  0
 81 80  2  0
 84 83  1  0
 86 84  1  0
 86 87  1  0
 86 85  1  0
 88 91  1  1
 88 89  1  0
 90 88  1  0
M  ISO  4  13 100  14 100  50 101  51 101
M  END
>  <TORSDO>  (87) 
F 21

>  <SCORE>  (87) 
-13.597

>  <name>  (87) 
86

>  <ligand_id>  (87) 
86

>  <original_smiles>  (87) 
[H]c1c([H])c([H])c2c(c1[H])C([H])([H])C([H])([H])C([H])([H])C2([H])N([H])C(=O)C1([H])N(C(=O)C([H])(N([H])C(=O)C([H])(N([H])C([H])([H])[H])C([H])([H])[H])C(C([H])([H])[H])(C([H])([H])[H])C([H])([H])[H])C([H])([H])c2c([H])c(OC([H])([H])c3c([H])c([H])c([H])c(C([H])([H])C([H])([H])C(C([H])([H])[H])(C([H])([H])[H])C([H])([H])C(=O)N4C([H])([H])C([H])([H])C([H])([H])C([H])(n5nc(-c6c([H])c([H])c(Oc7c([H])c([H])c(F)c([H])c7F)c([H])c6[H])c(C(=O)N([H])[H])c5N([H])[H])C4([H])[H])c3F)c([H])c([H])c2C1([H])[H]

>  <smiles>  (87) 
[H]c1c([H])c([H])c2c(c1[H])C([H])([H])C([H])([H])C([H])([H])C2([H])N([H])C(=O)C1([H])N(C(=O)C([H])(N([H])C(=O)C([H])(N([H])C([H])([H])[H])C([H])([H])[H])C(C([H])([H])[H])(C([H])([H])[H])C([H])([H])[H])C([H])([H])c2c([H])c(OC([H])([H])c3c([H])c([H])c([H])c(C([H])([H])C([H])([H])C(C([H])([H])[H])(C([H])([H])[H])C([H])([H])C(=O)N4C([H])([H])C([H])([H])C([H])([H])C([H])(n5nc(-c6c([H])c([H])c(Oc7c([H])c([H])c(F)c([H])c7F)c([H])c6[H])c(C(=O)N([H])[H])c5N([H])[H])C4([H])[H])c3F)c([H])c([H])c2C1([H])[H]

$$$$
88:0:0
     RDKit          3D

 98107  0  0  1  0  0  0  0  0999 V2000
  -27.7220  -22.0650   21.1030 C   0  0  0  0  0  3  0  0  0  0  0  0
  -28.1330  -20.7610   21.4280 C   0  0  0  0  0  3  0  0  0  0  0  0
  -27.5380  -21.3840   18.7960 C   0  0  0  0  0  3  0  0  0  0  0  0
  -27.5850  -22.4170   19.7500 C   0  0  0  0  0  0  0  0  0  0  0  0
  -28.4540  -19.8020   20.4250 C   0  0  0  0  0  0  0  0  0  0  0  0
  -27.9680  -20.0780   19.1080 C   0  0  0  0  0  0  0  0  0  0  0  0
  -27.8320  -19.0180   18.0330 C   0  0  0  0  0  1  0  0  0  0  0  0
  -30.8490  -16.9020   19.7770 C   0  0  0  0  0  0  0  0  0  0  0  0
  -32.0330  -17.3360   20.5370 C   0  0  0  0  0  0  0  0  0  0  0  0
  -30.6990  -15.6510   19.2630 C   0  0  0  0  0  3  0  0  0  0  0  0
  -31.7280  -18.0110   21.8550 C   0  0  0  0  0  2  0  0  0  0  0  0
  -30.5740  -19.0100   21.6540 C   0  0  0  0  0  2  0  0  0  0  0  0
  -29.3600  -18.5670   20.7810 C   0  0  0  0  0  3  0  0  0  0  0  0
  -33.2080  -17.2570   20.1650 O   0  0  0  0  0  0  0  0  0  0  0  0
  -29.8420  -17.8540   19.6030 O   0  0  0  0  0  0  0  0  0  0  0  0
  -31.6210  -14.5000   19.2970 C   0  0  0  0  0  0  0  0  0  0  0  0
  -31.2860  -12.1310   18.5820 C   0  0  0  0  0  2  0  0  0  0  0  0
  -30.2020  -12.0900   17.4740 C   0  0  0  0  0  2  0  0  0  0  0  0
  -28.7910  -12.0250   18.1000 C   0  0  0  0  0  2  0  0  0  0  0  0
  -28.5600  -13.1450   19.1360 C   0  0  0  0  0  3  0  0  0  0  0  0
  -29.7170  -13.0870   20.1570 C   0  0  0  0  0  2  0  0  0  0  0  0
  -30.9990  -13.2910   19.4510 N   0  0  0  0  0  0  0  0  0  0  0  0
  -32.7920  -14.5720   18.8980 O   0  0  0  0  0  0  0  0  0  0  0  0
  -26.4330  -14.0360   20.2460 C   0  0  0  0  0  0  0  0  0  0  0  0
  -25.3050  -13.3940   20.7220 C   0  0  0  0  0  0  0  0  0  0  0  0
  -25.5540  -11.9980   20.5540 C   0  0  0  0  0  0  0  0  0  0  0  0
  -27.2720  -13.0250   19.8030 N   0  0  0  0  0  0  0  0  0  0  0  0
  -26.7620  -11.7930   20.0550 N   0  0  0  0  0  0  0  0  0  0  0  0
  -24.7050  -10.8230   20.7710 C   0  0  0  0  0  0  0  0  0  0  0  0
  -25.0620   -9.7880   21.6720 C   0  0  0  0  0  3  0  0  0  0  0  0
  -24.2080   -8.6770   21.8580 C   0  0  0  0  0  3  0  0  0  0  0  0
  -22.9980   -8.5880   21.1350 C   0  0  0  0  0  0  0  0  0  0  0  0
  -22.6680   -9.6010   20.2190 C   0  0  0  0  0  3  0  0  0  0  0  0
  -23.5170  -10.7050   20.0260 C   0  0  0  0  0  3  0  0  0  0  0  0
  -22.1140   -7.5430   21.2490 O   0  0  0  0  0  0  0  0  0  0  0  0
  -21.9000   -6.9000   22.4440 C   0  0  0  0  0  0  0  0  0  0  0  0
  -21.4670   -7.5970   23.5930 C   0  0  0  0  0  3  0  0  0  0  0  0
  -21.1970   -6.8960   24.7850 C   0  0  0  0  0  3  0  0  0  0  0  0
  -21.3420   -5.4980   24.8290 C   0  0  0  0  0  0  0  0  0  0  0  0
  -21.7700   -4.8000   23.6860 C   0  0  0  0  0  3  0  0  0  0  0  0
  -22.0430   -5.4970   22.4960 C   0  0  0  0  0  0  0  0  0  0  0  0
  -22.4350   -4.8160   21.3920 F   0  0  0  0  0  0  0  0  0  0  0  0
  -21.0780   -4.8250   25.9730 F   0  0  0  0  0  0  0  0  0  0  0  0
  -24.0380  -14.0300   21.2150 C   0  0  0  0  0  0  0  0  0  0  0  0
  -23.3410  -13.3840   22.1560 N   0  0  0  0  0  0  0  0  0  0  0  0
  -23.6580  -15.1110   20.7810 O   0  0  0  0  0  0  0  0  0  0  0  0
  -23.6240  -12.4780   22.5070 H   0  0  0  0  0  0  0  0  0  0  0  0
  -22.4880  -13.7970   22.5090 H   0  0  0  0  0  0  0  0  0  0  0  0
  -26.8150  -15.3620   20.1050 N   0  0  0  0  0  0  0  0  0  0  0  0
  -26.2190  -16.1340   20.3540 H   0  0  0  0  0  0  0  0  0  0  0  0
  -27.6480  -15.7180   19.6460 H   0  0  0  0  0  0  0  0  0  0  0  0
  -27.7310  -23.8440   19.3170 C   0  0  0  0  0  0  0  0  0  0  0  0
  -28.9260  -24.3620   19.6680 N   0  0  0  0  0  0  0  0  0  0  0  0
  -26.9260  -24.3700   18.5420 O   0  0  0  0  0  0  0  0  0  0  0  0
  -29.4460  -23.7960   20.3330 H   0  0  0  0  0  0  0  0  0  0  0  0
  -29.7260  -25.3130   18.9050 C   0  0  0  0  0  2  0  0  0  0  0  0
  -30.3680  -26.4000   19.8020 C   0  0  0  0  0  2  0  0  0  0  0  0
  -29.6010  -27.1670   20.7450 O   0  0  0  0  0  0  0  0  0  0  0  0
  -24.7730  -31.6520   23.4260 C   0  0  0  0  0  0  0  0  0  0  0  0
  -28.3760  -27.7560   20.5050 C   0  0  0  0  0  0  0  0  0  0  0  0
  -24.1380  -29.9440   21.7480 C   0  0  0  0  0  3  0  0  0  0  0  0
  -25.8130  -28.9600   20.2150 C   0  0  0  0  0  0  0  0  0  0  0  0
  -26.4420  -30.9470   21.6470 C   0  0  0  0  0  2  0  0  0  0  0  0
  -26.8210  -29.6320   20.9340 C   0  0  0  0  0  0  0  0  0  0  0  0
  -28.0990  -29.0250   21.0760 C   0  0  0  0  0  3  0  0  0  0  0  0
  -27.3220  -27.1060   19.8130 C   0  0  0  0  0  3  0  0  0  0  0  0
  -26.0570  -27.6880   19.6840 C   0  0  0  0  0  3  0  0  0  0  0  0
  -24.4150  -29.5510   20.2800 C   0  0  0  0  0  2  0  0  0  0  0  0
  -25.0720  -30.9620   22.2760 N   0  0  0  0  0  0  0  0  0  0  0  0
  -23.6130  -31.6940   23.8710 O   0  0  0  0  0  0  0  0  0  0  0  0
  -23.3130  -28.9710   22.6350 C   0  0  0  0  0  0  0  0  0  0  0  0
  -22.1470  -28.5030   22.1810 N   0  0  0  0  0  0  0  0  0  0  0  0
  -23.7850  -28.5620   23.7130 O   0  0  0  0  0  0  0  0  0  0  0  0
  -21.7600  -28.8440   21.3020 H   0  0  0  0  0  0  0  0  0  0  0  0
  -19.1520  -26.5040   22.1350 C   0  0  0  0  0  0  0  0  0  0  0  0
  -21.4340  -27.4190   22.8600 C   0  0  0  0  0  3  0  0  0  0  0  0
  -22.0080  -26.0340   22.4480 C   0  0  0  0  0  2  0  0  0  0  0  0
  -21.2680  -25.4400   21.2550 C   0  0  0  0  0  2  0  0  0  0  0  0
  -19.8010  -25.2230   21.6230 C   0  0  0  0  0  2  0  0  0  0  0  0
  -19.9320  -27.5520   22.6970 C   0  0  0  0  0  0  0  0  0  0  0  0
  -19.3020  -28.7430   23.1180 C   0  0  0  0  0  3  0  0  0  0  0  0
  -17.9070  -28.8780   23.0190 C   0  0  0  0  0  3  0  0  0  0  0  0
  -17.1360  -27.8450   22.4640 C   0  0  0  0  0  3  0  0  0  0  0  0
  -17.7570  -26.6700   22.0140 C   0  0  0  0  0  3  0  0  0  0  0  0
  -25.8730  -32.4490   24.1930 C   0  0  0  0  0  3  0  0  0  0  0  0
  -26.2540  -31.8060   25.5850 C   0  0  1  0  0  0  0  0  0  0  0  0
  -25.0380  -31.4430   26.4650 C   0  0  0  0  0  1  0  0  0  0  0  0
  -27.0670  -30.5110   25.3670 C   0  0  0  0  0  1  0  0  0  0  0  0
  -27.1550  -32.7690   26.3820 C   0  0  0  0  0  1  0  0  0  0  0  0
  -25.3700  -33.8220   24.3710 N   0  0  0  0  0  0  0  0  0  0  0  0
  -25.7030  -34.8520   23.5750 C   0  0  0  0  0  0  0  0  0  0  0  0
  -26.5260  -34.7550   22.6660 O   0  0  0  0  0  0  0  0  0  0  0  0
  -24.6200  -33.9550   25.0350 H   0  0  0  0  0  0  0  0  0  0  0  0
  -23.8700  -36.4140   22.8660 C   0  0  0  0  0  1  0  0  0  0  0  0
  -25.0240  -36.2030   23.8570 C   0  0  0  0  0  3  0  0  0  0  0  0
  -26.9470  -37.3510   24.8650 C   0  0  0  0  0  1  0  0  0  0  0  0
  -25.9580  -37.3500   23.7920 N   0  0  0  0  0  0  0  0  0  0  0  0
  -25.4510  -38.2310   23.8170 H   0  0  0  0  0  0  0  0  0  0  0  0
  1  2  1  0
  3  6  2  0
  3  4  1  0
  4  1  2  0
  5  2  2  0
  6  5  1  0
  7  6  1  0
  8  9  1  0
  9 11  1  0
 10 16  1  0
 10  8  2  0
 12 11  1  0
 13  5  1  0
 13 12  1  0
 14  9  2  0
 15  8  1  0
 15 13  1  0
 16 22  1  0
 17 22  1  0
 18 19  1  0
 18 17  1  0
 20 19  1  0
 20 27  1  0
 20 21  1  0
 22 21  1  0
 23 16  2  0
 24 25  2  0
 25 44  1  0
 26 25  1  0
 26 29  1  0
 27 28  1  0
 27 24  1  0
 28 26  2  0
 29 30  1  0
 30 31  2  0
 32 35  1  0
 32 31  1  0
 33 32  2  0
 34 33  1  0
 34 29  2  0
 35 36  1  0
 36 41  2  0
 36 37  1  0
 37 38  2  0
 38 39  1  0
 39 43  1  0
 40 39  2  0
 41 40  1  0
 42 41  1  0
 44 45  1  0
 45 47  1  0
 45 48  1  0
 46 44  2  0
 49 24  1  0
 49 50  1  0
 51 49  1  0
 52 53  1  0
 52  4  1  0
 53 55  1  0
 54 52  2  0
 56 53  1  0
 56 57  1  0
 57 58  1  0
 59 70  2  0
 60 58  1  0
 60 65  1  0
 61 69  1  0
 61 71  1  0
 62 68  1  0
 62 64  1  0
 63 69  1  0
 64 65  2  0
 64 63  1  0
 66 60  2  0
 67 66  1  0
 67 62  2  0
 68 61  1  0
 69 59  1  0
 71 73  2  0
 72 71  1  0
 74 72  1  0
 75 80  1  0
 76 72  1  0
 77 76  1  0
 78 79  1  0
 78 77  1  0
 79 75  1  0
 80 76  1  0
 80 81  2  0
 82 81  1  0
 83 82  2  0
 84 75  2  0
 84 83  1  0
 85 59  1  0
 85 90  1  0
 85 86  1  0
 86 89  1  1
 86 87  1  0
 88 86  1  0
 90 93  1  0
 91 95  1  0
 91 90  1  0
 92 91  2  0
 95 94  1  0
 97 98  1  0
 97 95  1  0
 97 96  1  0
M  ISO  4  10 100  16 100  57 101  58 101
M  END
>  <TORSDO>  (88) 
F 20

>  <SCORE>  (88) 
-10.865

>  <name>  (88) 
88

>  <ligand_id>  (88) 
88

>  <original_smiles>  (88) 
[H]C(C(=O)N1C([H])([H])C([H])([H])C([H])([H])C([H])(n2nc(-c3c([H])c([H])c(Oc4c([H])c([H])c(F)c([H])c4F)c([H])c3[H])c(C(=O)N([H])[H])c2N([H])[H])C1([H])[H])=C1OC([H])(c2c([H])c([H])c(C(=O)N([H])C([H])([H])C([H])([H])Oc3c([H])c([H])c4c(c3[H])C([H])([H])N(C(=O)C([H])(N([H])C(=O)C([H])(N([H])C([H])([H])[H])C([H])([H])[H])C(C([H])([H])[H])(C([H])([H])[H])C([H])([H])[H])C([H])(C(=O)N([H])C3([H])c5c([H])c([H])c([H])c([H])c5C([H])([H])C([H])([H])C3([H])[H])C4([H])[H])c([H])c2C([H])([H])[H])C([H])([H])C([H])([H])C1=O

>  <smiles>  (88) 
[H]C(C(=O)N1C([H])([H])C([H])([H])C([H])([H])C([H])(n2nc(-c3c([H])c([H])c(Oc4c([H])c([H])c(F)c([H])c4F)c([H])c3[H])c(C(=O)N([H])[H])c2N([H])[H])C1([H])[H])=C1OC([H])(c2c([H])c([H])c(C(=O)N([H])C([H])([H])C([H])([H])Oc3c([H])c([H])c4c(c3[H])C([H])([H])N(C(=O)C([H])(N([H])C(=O)C([H])(N([H])C([H])([H])[H])C([H])([H])[H])C(C([H])([H])[H])(C([H])([H])[H])C([H])([H])[H])C([H])(C(=O)N([H])C3([H])c5c([H])c([H])c([H])c([H])c5C([H])([H])C([H])([H])C3([H])[H])C4([H])[H])c([H])c2C([H])([H])[H])C([H])([H])C([H])([H])C1=O

$$$$
89:0:0
     RDKit          3D

 93101  0  0  1  0  0  0  0  0999 V2000
  -26.3140  -19.9570   19.4250 C   0  0  0  0  0  3  0  0  0  0  0  0
  -26.4120  -18.6010   19.8340 C   0  0  0  0  0  3  0  0  0  0  0  0
  -27.5220  -20.5380   19.6850 C   0  0  0  0  0  0  0  0  0  0  0  0
  -27.6970  -18.4230   20.2570 C   0  0  0  0  0  0  0  0  0  0  0  0
  -28.3740  -19.6130   20.2150 O   0  0  0  0  0  0  0  0  0  0  0  0
  -27.9880  -21.8600   19.4000 C   0  0  0  0  0  3  0  0  0  0  0  0
  -28.2610  -22.8590   20.2640 C   0  0  0  0  0  3  0  0  0  0  0  0
  -28.7060  -24.1950   19.8010 C   0  0  0  0  0  0  0  0  0  0  0  0
  -29.2030  -24.3950   18.6900 O   0  0  0  0  0  0  0  0  0  0  0  0
  -28.5420  -25.3850   20.7610 C   0  0  0  0  0  2  0  0  0  0  0  0
  -28.6030  -26.6310   20.0530 O   0  0  0  0  0  0  0  0  0  0  0  0
  -24.6780  -31.6250   23.1610 C   0  0  0  0  0  0  0  0  0  0  0  0
  -27.4160  -27.3180   20.0400 C   0  0  0  0  0  0  0  0  0  0  0  0
  -23.5060  -30.2510   21.4700 C   0  0  0  0  0  3  0  0  0  0  0  0
  -24.9960  -28.7670   20.0250 C   0  0  0  0  0  0  0  0  0  0  0  0
  -26.0220  -30.6520   21.3070 C   0  0  0  0  0  2  0  0  0  0  0  0
  -26.1320  -29.3010   20.6430 C   0  0  0  0  0  0  0  0  0  0  0  0
  -27.3460  -28.5860   20.6470 C   0  0  0  0  0  3  0  0  0  0  0  0
  -26.2660  -26.7810   19.4160 C   0  0  0  0  0  3  0  0  0  0  0  0
  -25.0570  -27.5030   19.4050 C   0  0  0  0  0  3  0  0  0  0  0  0
  -23.7380  -29.6060   20.0770 C   0  0  0  0  0  2  0  0  0  0  0  0
  -24.7510  -30.8570   22.0380 N   0  0  0  0  0  0  0  0  0  0  0  0
  -23.5860  -31.8760   23.6900 O   0  0  0  0  0  0  0  0  0  0  0  0
  -22.8630  -29.2000   22.3980 C   0  0  0  0  0  0  0  0  0  0  0  0
  -21.5430  -29.0170   22.2520 N   0  0  0  0  0  0  0  0  0  0  0  0
  -23.5430  -28.5600   23.2030 O   0  0  0  0  0  0  0  0  0  0  0  0
  -21.0570  -29.5910   21.5790 H   0  0  0  0  0  0  0  0  0  0  0  0
  -18.1630  -27.8160   22.6790 C   0  0  0  0  0  0  0  0  0  0  0  0
  -20.7210  -28.0500   22.9730 C   0  0  0  0  0  3  0  0  0  0  0  0
  -20.8260  -26.6500   22.3370 C   0  0  0  0  0  2  0  0  0  0  0  0
  -19.7260  -26.3490   21.3210 C   0  0  0  0  0  2  0  0  0  0  0  0
  -18.3370  -26.4930   21.9540 C   0  0  0  0  0  2  0  0  0  0  0  0
  -19.2850  -28.5540   23.1410 C   0  0  0  0  0  0  0  0  0  0  0  0
  -19.0710  -29.8030   23.7620 C   0  0  0  0  0  3  0  0  0  0  0  0
  -17.7710  -30.3140   23.9280 C   0  0  0  0  0  3  0  0  0  0  0  0
  -16.6660  -29.5620   23.5010 C   0  0  0  0  0  3  0  0  0  0  0  0
  -16.8590  -28.3140   22.8800 C   0  0  0  0  0  3  0  0  0  0  0  0
  -25.9470  -32.2500   23.8170 C   0  0  0  0  0  3  0  0  0  0  0  0
  -25.6370  -33.6520   24.1330 N   0  0  0  0  0  0  0  0  0  0  0  0
  -26.0150  -34.6990   23.3910 C   0  0  0  0  0  0  0  0  0  0  0  0
  -26.7300  -34.5870   22.3910 O   0  0  0  0  0  0  0  0  0  0  0  0
  -25.0040  -33.8110   24.9020 H   0  0  0  0  0  0  0  0  0  0  0  0
  -24.3220  -36.5040   22.9470 C   0  0  0  0  0  1  0  0  0  0  0  0
  -25.5170  -36.0920   23.8230 C   0  0  0  0  0  3  0  0  0  0  0  0
  -27.6180  -36.9520   24.7610 C   0  0  0  0  0  1  0  0  0  0  0  0
  -26.5650  -37.1340   23.7640 N   0  0  0  0  0  0  0  0  0  0  0  0
  -26.1650  -38.0600   23.8830 H   0  0  0  0  0  0  0  0  0  0  0  0
  -26.4210  -31.4790   25.1100 C   0  0  1  0  0  0  0  0  0  0  0  0
  -25.2940  -31.2510   26.1450 C   0  0  0  0  0  1  0  0  0  0  0  0
  -27.0040  -30.0970   24.7320 C   0  0  0  0  0  1  0  0  0  0  0  0
  -27.5620  -32.2610   25.8020 C   0  0  0  0  0  1  0  0  0  0  0  0
  -28.4390  -17.2310   20.7640 C   0  0  0  0  0  2  0  0  0  0  0  0
  -29.7990  -16.9640   20.0900 C   0  0  0  0  0  2  0  0  0  0  0  0
  -31.3810  -15.0720   20.9640 C   0  0  0  0  0  3  0  0  0  0  0  0
  -30.7480  -16.2500   21.0680 C   0  0  0  0  0  0  0  0  0  0  0  0
  -31.4340  -14.2560   19.7710 C   0  0  0  0  0  0  0  0  0  0  0  0
  -30.8780  -12.0470   18.7930 C   0  0  0  0  0  2  0  0  0  0  0  0
  -29.9070  -12.2190   17.6180 C   0  0  0  0  0  2  0  0  0  0  0  0
  -28.4650  -12.1520   18.1510 C   0  0  0  0  0  2  0  0  0  0  0  0
  -28.2330  -13.1190   19.3420 C   0  0  0  0  0  3  0  0  0  0  0  0
  -29.3420  -13.0320   20.4280 C   0  0  0  0  0  2  0  0  0  0  0  0
  -30.6520  -13.1450   19.7570 N   0  0  0  0  0  0  0  0  0  0  0  0
  -32.2990  -14.4720   18.9220 O   0  0  0  0  0  0  0  0  0  0  0  0
  -25.9160  -13.8510   20.2040 C   0  0  0  0  0  0  0  0  0  0  0  0
  -24.8400  -13.1400   20.6530 C   0  0  0  0  0  0  0  0  0  0  0  0
  -25.2230  -11.7620   20.5840 C   0  0  0  0  0  0  0  0  0  0  0  0
  -26.8990  -12.9200   19.9090 N   0  0  0  0  0  0  0  0  0  0  0  0
  -26.4870  -11.6560   20.1950 N   0  0  0  0  0  0  0  0  0  0  0  0
  -24.4420  -10.5380   20.8100 C   0  0  0  0  0  0  0  0  0  0  0  0
  -24.8080   -9.5990   21.8010 C   0  0  0  0  0  3  0  0  0  0  0  0
  -24.0260   -8.4460   22.0180 C   0  0  0  0  0  3  0  0  0  0  0  0
  -22.8640   -8.2210   21.2410 C   0  0  0  0  0  0  0  0  0  0  0  0
  -22.5190   -9.1430   20.2350 C   0  0  0  0  0  3  0  0  0  0  0  0
  -23.3030  -10.2880   20.0180 C   0  0  0  0  0  3  0  0  0  0  0  0
  -22.0640   -7.1100   21.3570 O   0  0  0  0  0  0  0  0  0  0  0  0
  -21.8510   -6.5010   22.5680 C   0  0  0  0  0  0  0  0  0  0  0  0
  -21.3040   -7.2010   23.6650 C   0  0  0  0  0  3  0  0  0  0  0  0
  -21.0390   -6.5220   24.8700 C   0  0  0  0  0  3  0  0  0  0  0  0
  -21.3130   -5.1450   24.9790 C   0  0  0  0  0  0  0  0  0  0  0  0
  -21.8580   -4.4470   23.8860 C   0  0  0  0  0  3  0  0  0  0  0  0
  -22.1240   -5.1230   22.6830 C   0  0  0  0  0  0  0  0  0  0  0  0
  -22.6280   -4.4430   21.6250 F   0  0  0  0  0  0  0  0  0  0  0  0
  -21.0520   -4.4890   26.1330 F   0  0  0  0  0  0  0  0  0  0  0  0
  -23.4910  -13.6850   21.0290 C   0  0  0  0  0  0  0  0  0  0  0  0
  -22.7970  -13.0310   21.9490 N   0  0  0  0  0  0  0  0  0  0  0  0
  -23.0650  -14.7300   20.5300 O   0  0  0  0  0  0  0  0  0  0  0  0
  -23.1530  -12.1820   22.3640 H   0  0  0  0  0  0  0  0  0  0  0  0
  -21.8980  -13.3810   22.2460 H   0  0  0  0  0  0  0  0  0  0  0  0
  -26.1410  -15.2120   20.0030 N   0  0  0  0  0  0  0  0  0  0  0  0
  -25.4050  -15.8940   20.1420 H   0  0  0  0  0  0  0  0  0  0  0  0
  -26.9720  -15.5980   19.5760 H   0  0  0  0  0  0  0  0  0  0  0  0
  -30.9310  -16.9790   22.1800 O   0  0  0  0  0  0  0  0  0  0  0  0
  -30.2720  -17.6650   22.1890 H   0  0  0  0  0  0  0  0  0  0  0  0
  1  3  2  0
  1  2  1  0
  2  4  2  0
  3  5  1  0
  4 52  1  0
  5  4  1  0
  6  3  1  0
  6  7  2  0
  8  7  1  0
  8 10  1  0
  9  8  2  0
 11 10  1  0
 12 23  2  0
 13 11  1  0
 13 18  1  0
 14 22  1  0
 14 24  1  0
 15 21  1  0
 15 17  1  0
 16 22  1  0
 17 18  2  0
 17 16  1  0
 19 13  2  0
 20 19  1  0
 20 15  2  0
 21 14  1  0
 22 12  1  0
 24 26  2  0
 25 24  1  0
 27 25  1  0
 28 37  2  0
 28 33  1  0
 29 25  1  0
 29 33  1  0
 30 29  1  0
 31 32  1  0
 31 30  1  0
 32 28  1  0
 33 34  2  0
 34 35  1  0
 36 35  2  0
 37 36  1  0
 38 12  1  0
 38 39  1  0
 38 48  1  0
 39 42  1  0
 40 44  1  0
 40 39  1  0
 41 40  2  0
 44 43  1  0
 46 44  1  0
 46 47  1  0
 46 45  1  0
 48 51  1  1
 48 49  1  0
 50 48  1  0
 53 52  1  0
 53 55  1  0
 54 55  2  0
 55 92  1  0
 56 54  1  0
 57 62  1  0
 58 59  1  0
 58 57  1  0
 60 59  1  0
 60 67  1  0
 60 61  1  0
 62 56  1  0
 62 61  1  0
 63 56  2  0
 64 65  2  0
 65 84  1  0
 66 65  1  0
 66 69  1  0
 67 68  1  0
 67 64  1  0
 68 66  2  0
 69 70  1  0
 70 71  2  0
 72 75  1  0
 72 71  1  0
 73 72  2  0
 74 73  1  0
 74 69  2  0
 75 76  1  0
 76 81  2  0
 76 77  1  0
 77 78  2  0
 78 79  1  0
 79 83  1  0
 80 79  2  0
 81 80  1  0
 82 81  1  0
 84 85  1  0
 85 88  1  0
 85 87  1  0
 86 84  2  0
 89 90  1  0
 89 64  1  0
 91 89  1  0
 92 93  1  0
M  ISO  4  10 101  11 101  54 100  56 100
M  END
>  <TORSDO>  (89) 
F 23

>  <SCORE>  (89) 
-11.138

>  <name>  (89) 
89

>  <ligand_id>  (89) 
89

>  <original_smiles>  (89) 
[H]OC(=C([H])C(=O)N1C([H])([H])C([H])([H])C([H])([H])C([H])(n2nc(-c3c([H])c([H])c(Oc4c([H])c([H])c(F)c([H])c4F)c([H])c3[H])c(C(=O)N([H])[H])c2N([H])[H])C1([H])[H])C([H])([H])C([H])([H])c1oc(C([H])=C([H])C(=O)C([H])([H])Oc2c([H])c([H])c3c(c2[H])C([H])([H])N(C(=O)C([H])(N([H])C(=O)C([H])(N([H])C([H])([H])[H])C([H])([H])[H])C(C([H])([H])[H])(C([H])([H])[H])C([H])([H])[H])C([H])(C(=O)N([H])C2([H])c4c([H])c([H])c([H])c([H])c4C([H])([H])C([H])([H])C2([H])[H])C3([H])[H])c([H])c1[H]

>  <smiles>  (89) 
[H]OC(=C([H])C(=O)N1C([H])([H])C([H])([H])C([H])([H])C([H])(n2nc(-c3c([H])c([H])c(Oc4c([H])c([H])c(F)c([H])c4F)c([H])c3[H])c(C(=O)N([H])[H])c2N([H])[H])C1([H])[H])C([H])([H])C([H])([H])c1oc(C([H])=C([H])C(=O)C([H])([H])Oc2c([H])c([H])c3c(c2[H])C([H])([H])N(C(=O)C([H])(N([H])C(=O)C([H])(N([H])C([H])([H])[H])C([H])([H])[H])C(C([H])([H])[H])(C([H])([H])[H])C([H])([H])[H])C([H])(C(=O)N([H])C2([H])c4c([H])c([H])c([H])c([H])c4C([H])([H])C([H])([H])C2([H])[H])C3([H])[H])c([H])c1[H]

$$$$
90:0:0
     RDKit          3D

 83 90  0  0  1  0  0  0  0  0999 V2000
  -27.8800  -23.8320   20.1910 C   0  0  0  0  0  2  0  0  0  0  0  0
  -28.9470  -22.3010   20.2780 C   0  0  0  0  0  0  0  0  0  0  0  0
  -30.1340  -22.6280   20.3700 O   0  0  0  0  0  0  0  0  0  0  0  0
  -28.7350  -20.5030   20.2630 C   0  0  0  0  0  3  0  0  0  0  0  0
  -29.5440  -19.1880   20.2660 C   0  0  0  0  0  3  0  0  0  0  0  0
  -29.3460  -17.3340   20.3140 C   0  0  0  0  0  2  0  0  0  0  0  0
  -30.2340  -15.6910   20.1300 C   0  0  0  0  0  0  0  0  0  0  0  0
  -30.3710  -13.1520   19.2860 C   0  0  0  0  0  2  0  0  0  0  0  0
  -29.4570  -12.8000   18.0740 C   0  0  0  0  0  2  0  0  0  0  0  0
  -28.0350  -12.4380   18.5350 C   0  0  0  0  0  2  0  0  0  0  0  0
  -27.5430  -13.4080   19.6330 C   0  0  0  0  0  3  0  0  0  0  0  0
  -28.5890  -13.6790   20.7370 C   0  0  0  0  0  2  0  0  0  0  0  0
  -29.7680  -14.3040   20.0950 N   0  0  0  0  0  0  0  0  0  0  0  0
  -31.4570  -15.6660   19.8870 O   0  0  0  0  0  0  0  0  0  0  0  0
  -25.1840  -13.9020   20.4360 C   0  0  0  0  0  0  0  0  0  0  0  0
  -24.1420  -13.1040   20.8160 C   0  0  0  0  0  0  0  0  0  0  0  0
  -24.6320  -11.7630   20.7730 C   0  0  0  0  0  0  0  0  0  0  0  0
  -26.2370  -13.0470   20.1700 N   0  0  0  0  0  0  0  0  0  0  0  0
  -25.9210  -11.7530   20.4400 N   0  0  0  0  0  0  0  0  0  0  0  0
  -23.9260  -10.4880   20.9680 C   0  0  0  0  0  0  0  0  0  0  0  0
  -24.3670   -9.5340   21.9110 C   0  0  0  0  0  3  0  0  0  0  0  0
  -23.6560   -8.3280   22.0970 C   0  0  0  0  0  3  0  0  0  0  0  0
  -22.4900   -8.0670   21.3390 C   0  0  0  0  0  0  0  0  0  0  0  0
  -22.0680   -9.0110   20.3840 C   0  0  0  0  0  3  0  0  0  0  0  0
  -22.7800  -10.2080   20.1980 C   0  0  0  0  0  3  0  0  0  0  0  0
  -21.7500   -6.9120   21.4320 O   0  0  0  0  0  0  0  0  0  0  0  0
  -21.6860   -6.1910   22.5970 C   0  0  0  0  0  0  0  0  0  0  0  0
  -21.1990   -6.7540   23.7960 C   0  0  0  0  0  3  0  0  0  0  0  0
  -21.0840   -5.9580   24.9530 C   0  0  0  0  0  3  0  0  0  0  0  0
  -21.4460   -4.5990   24.9110 C   0  0  0  0  0  0  0  0  0  0  0  0
  -21.9260   -4.0340   23.7160 C   0  0  0  0  0  3  0  0  0  0  0  0
  -22.0410   -4.8280   22.5620 C   0  0  0  0  0  0  0  0  0  0  0  0
  -22.4840   -4.2730   21.4080 F   0  0  0  0  0  0  0  0  0  0  0  0
  -21.3300   -3.8310   26.0200 F   0  0  0  0  0  0  0  0  0  0  0  0
  -22.7410  -13.5580   21.1010 C   0  0  0  0  0  0  0  0  0  0  0  0
  -22.0350  -12.8540   21.9800 N   0  0  0  0  0  0  0  0  0  0  0  0
  -22.2810  -14.5740   20.5820 O   0  0  0  0  0  0  0  0  0  0  0  0
  -22.4220  -12.0340   22.4220 H   0  0  0  0  0  0  0  0  0  0  0  0
  -21.0960  -13.1420   22.2140 H   0  0  0  0  0  0  0  0  0  0  0  0
  -25.3200  -15.2760   20.2650 N   0  0  0  0  0  0  0  0  0  0  0  0
  -24.5460  -15.9180   20.3990 H   0  0  0  0  0  0  0  0  0  0  0  0
  -26.1620  -15.7340   19.9360 H   0  0  0  0  0  0  0  0  0  0  0  0
  -28.1440  -25.5690   20.2910 O   0  0  0  0  0  0  0  0  0  0  0  0
  -24.6620  -31.8700   23.2150 C   0  0  0  0  0  0  0  0  0  0  0  0
  -27.1780  -26.7850   20.2380 C   0  0  0  0  0  0  0  0  0  0  0  0
  -23.4720  -30.4750   21.5780 C   0  0  0  0  0  3  0  0  0  0  0  0
  -24.9160  -28.8210   20.1710 C   0  0  0  0  0  0  0  0  0  0  0  0
  -26.0510  -30.6090   21.4600 C   0  0  0  0  0  2  0  0  0  0  0  0
  -26.1120  -29.1760   20.8060 C   0  0  0  0  0  0  0  0  0  0  0  0
  -27.2280  -28.1880   20.8060 C   0  0  0  0  0  3  0  0  0  0  0  0
  -25.9480  -26.6370   19.5480 C   0  0  0  0  0  3  0  0  0  0  0  0
  -24.8720  -27.5760   19.5180 C   0  0  0  0  0  3  0  0  0  0  0  0
  -23.7120  -29.7750   20.2080 C   0  0  0  0  0  2  0  0  0  0  0  0
  -24.7520  -31.0180   22.1370 N   0  0  0  0  0  0  0  0  0  0  0  0
  -23.5690  -32.1750   23.7220 O   0  0  0  0  0  0  0  0  0  0  0  0
  -22.7500  -29.5010   22.5480 C   0  0  0  0  0  0  0  0  0  0  0  0
  -21.4160  -29.3540   22.4210 N   0  0  0  0  0  0  0  0  0  0  0  0
  -23.4000  -28.8770   23.3890 O   0  0  0  0  0  0  0  0  0  0  0  0
  -20.9410  -29.9070   21.7220 H   0  0  0  0  0  0  0  0  0  0  0  0
  -18.0220  -28.1570   22.9270 C   0  0  0  0  0  0  0  0  0  0  0  0
  -20.5840  -28.4230   23.1930 C   0  0  0  0  0  3  0  0  0  0  0  0
  -20.6810  -26.9870   22.6250 C   0  0  0  0  0  2  0  0  0  0  0  0
  -19.5820  -26.6640   21.6100 C   0  0  0  0  0  2  0  0  0  0  0  0
  -18.1990  -26.8090   22.2500 C   0  0  0  0  0  2  0  0  0  0  0  0
  -19.1400  -28.9220   23.3560 C   0  0  0  0  0  0  0  0  0  0  0  0
  -18.9180  -30.1810   23.9550 C   0  0  0  0  0  3  0  0  0  0  0  0
  -17.6110  -30.6760   24.1270 C   0  0  0  0  0  3  0  0  0  0  0  0
  -16.5090  -29.9100   23.7110 C   0  0  0  0  0  3  0  0  0  0  0  0
  -16.7150  -28.6530   23.1180 C   0  0  0  0  0  3  0  0  0  0  0  0
  -25.9270  -32.5160   23.8570 C   0  0  0  0  0  3  0  0  0  0  0  0
  -26.4220  -31.7520   25.1490 C   0  0  1  0  0  0  0  0  0  0  0  0
  -25.3130  -31.5300   26.2060 C   0  0  0  0  0  1  0  0  0  0  0  0
  -27.0020  -30.3670   24.7870 C   0  0  0  0  0  1  0  0  0  0  0  0
  -27.5680  -32.5450   25.8190 C   0  0  0  0  0  1  0  0  0  0  0  0
  -25.6060  -33.9160   24.1980 N   0  0  0  0  0  0  0  0  0  0  0  0
  -25.9170  -34.9830   23.4500 C   0  0  0  0  0  0  0  0  0  0  0  0
  -26.5610  -34.8930   22.4020 O   0  0  0  0  0  0  0  0  0  0  0  0
  -25.0280  -34.0580   25.0130 H   0  0  0  0  0  0  0  0  0  0  0  0
  -24.1650  -36.7760   23.1880 C   0  0  0  0  0  1  0  0  0  0  0  0
  -25.4440  -36.3700   23.9380 C   0  0  0  0  0  3  0  0  0  0  0  0
  -27.6040  -37.2740   24.6820 C   0  0  0  0  0  1  0  0  0  0  0  0
  -26.4630  -37.4320   23.7840 N   0  0  0  0  0  0  0  0  0  0  0  0
  -26.0550  -38.3480   23.9480 H   0  0  0  0  0  0  0  0  0  0  0  0
  1  2  1  0
  1 43  1  0
  2  3  2  0
  4  5  2  0
  4  2  1  0
  5  6  1  0
  7  6  1  0
  8 13  1  0
  9 10  1  0
  9  8  1  0
 11 10  1  0
 11 18  1  0
 11 12  1  0
 13  7  1  0
 13 12  1  0
 14  7  2  0
 15 16  2  0
 16 35  1  0
 17 16  1  0
 17 20  1  0
 18 15  1  0
 18 19  1  0
 19 17  2  0
 20 21  1  0
 21 22  2  0
 23 26  1  0
 23 22  1  0
 24 23  2  0
 25 24  1  0
 25 20  2  0
 26 27  1  0
 27 28  1  0
 28 29  2  0
 30 29  1  0
 30 34  1  0
 31 30  2  0
 32 27  2  0
 32 31  1  0
 33 32  1  0
 35 36  1  0
 36 39  1  0
 36 38  1  0
 37 35  2  0
 40 41  1  0
 40 15  1  0
 42 40  1  0
 44 55  2  0
 45 43  1  0
 45 50  1  0
 46 54  1  0
 46 56  1  0
 47 53  1  0
 47 49  1  0
 48 54  1  0
 49 48  1  0
 50 49  2  0
 51 45  2  0
 52 51  1  0
 52 47  2  0
 53 46  1  0
 54 44  1  0
 56 58  2  0
 57 56  1  0
 59 57  1  0
 60 69  2  0
 60 65  1  0
 61 57  1  0
 61 65  1  0
 62 61  1  0
 63 64  1  0
 63 62  1  0
 64 60  1  0
 65 66  2  0
 66 67  1  0
 68 67  2  0
 69 68  1  0
 70 44  1  0
 70 75  1  0
 70 71  1  0
 71 74  1  1
 71 72  1  0
 73 71  1  0
 75 78  1  0
 76 80  1  0
 76 75  1  0
 77 76  2  0
 80 79  1  0
 82 80  1  0
 82 83  1  0
 82 81  1  0
M  ISO  4   1 101   6 100   7 100  43 101
M  END
>  <TORSDO>  (90) 
F 19

>  <SCORE>  (90) 
-16.380

>  <name>  (90) 
90

>  <ligand_id>  (90) 
90

>  <original_smiles>  (90) 
[H]C(C(=O)C([H])([H])Oc1c([H])c([H])c2c(c1[H])C([H])([H])N(C(=O)C([H])(N([H])C(=O)C([H])(N([H])C([H])([H])[H])C([H])([H])[H])C(C([H])([H])[H])(C([H])([H])[H])C([H])([H])[H])C([H])(C(=O)N([H])C1([H])c3c([H])c([H])c([H])c([H])c3C([H])([H])C([H])([H])C1([H])[H])C2([H])[H])=C([H])C([H])([H])C(=O)N1C([H])([H])C([H])([H])C([H])([H])C([H])(n2nc(-c3c([H])c([H])c(Oc4c([H])c([H])c(F)c([H])c4F)c([H])c3[H])c(C(=O)N([H])[H])c2N([H])[H])C1([H])[H]

>  <smiles>  (90) 
[H]C(C(=O)C([H])([H])Oc1c([H])c([H])c2c(c1[H])C([H])([H])N(C(=O)C([H])(N([H])C(=O)C([H])(N([H])C([H])([H])[H])C([H])([H])[H])C(C([H])([H])[H])(C([H])([H])[H])C([H])([H])[H])C([H])(C(=O)N([H])C1([H])c3c([H])c([H])c([H])c([H])c3C([H])([H])C([H])([H])C1([H])[H])C2([H])[H])=C([H])C([H])([H])C(=O)N1C([H])([H])C([H])([H])C([H])([H])C([H])(n2nc(-c3c([H])c([H])c(Oc4c([H])c([H])c(F)c([H])c4F)c([H])c3[H])c(C(=O)N([H])[H])c2N([H])[H])C1([H])[H]

$$$$
91:0:0
     RDKit          3D

 89 96  0  0  1  0  0  0  0  0999 V2000
  -29.6410  -23.7740   19.6250 C   0  0  0  0  0  2  0  0  0  0  0  0
  -30.0340  -22.3230   19.2470 C   0  0  0  0  0  2  0  0  0  0  0  0
  -28.8860  -21.3320   19.5410 C   0  0  0  0  0  2  0  0  0  0  0  0
  -29.1670  -19.8220   19.3480 C   0  0  0  0  0  2  0  0  0  0  0  0
  -30.1440  -19.1590   20.3470 C   0  0  0  0  0  2  0  0  0  0  0  0
  -30.0960  -17.6050   20.2620 C   0  0  0  0  0  2  0  0  0  0  0  0
  -30.8200  -17.4660   22.7240 C   0  0  0  0  0  1  0  0  0  0  0  0
  -30.9050  -16.8040   21.3280 C   0  0  0  0  0  3  0  0  0  0  0  0
  -30.4300  -15.3200   21.4310 C   0  0  0  0  0  2  0  0  0  0  0  0
  -30.8330  -14.3560   20.2870 C   0  0  0  0  0  0  0  0  0  0  0  0
  -30.4050  -12.2960   18.9670 C   0  0  0  0  0  2  0  0  0  0  0  0
  -29.4110  -12.5580   17.8170 C   0  0  0  0  0  2  0  0  0  0  0  0
  -27.9530  -12.4530   18.3060 C   0  0  0  0  0  2  0  0  0  0  0  0
  -27.7060  -13.2500   19.6130 C   0  0  0  0  0  3  0  0  0  0  0  0
  -28.7910  -12.9170   20.6630 C   0  0  0  0  0  2  0  0  0  0  0  0
  -30.1010  -13.2290   20.0640 N   0  0  0  0  0  0  0  0  0  0  0  0
  -31.8380  -14.6210   19.6180 O   0  0  0  0  0  0  0  0  0  0  0  0
  -25.3400  -13.9200   20.3740 C   0  0  0  0  0  0  0  0  0  0  0  0
  -24.2620  -13.1750   20.7730 C   0  0  0  0  0  0  0  0  0  0  0  0
  -24.6900  -11.8120   20.7360 C   0  0  0  0  0  0  0  0  0  0  0  0
  -26.3580  -13.0140   20.1250 N   0  0  0  0  0  0  0  0  0  0  0  0
  -25.9700  -11.7400   20.3890 N   0  0  0  0  0  0  0  0  0  0  0  0
  -23.9420  -10.5660   20.9500 C   0  0  0  0  0  0  0  0  0  0  0  0
  -24.3850   -9.5860   21.8670 C   0  0  0  0  0  3  0  0  0  0  0  0
  -23.6370   -8.4050   22.0670 C   0  0  0  0  0  3  0  0  0  0  0  0
  -22.4340   -8.1970   21.3520 C   0  0  0  0  0  0  0  0  0  0  0  0
  -22.0160   -9.1610   20.4170 C   0  0  0  0  0  3  0  0  0  0  0  0
  -22.7630  -10.3340   20.2150 C   0  0  0  0  0  3  0  0  0  0  0  0
  -21.6550   -7.0710   21.4690 O   0  0  0  0  0  0  0  0  0  0  0  0
  -21.6230   -6.3310   22.6230 C   0  0  0  0  0  0  0  0  0  0  0  0
  -21.2730   -6.9000   23.8670 C   0  0  0  0  0  3  0  0  0  0  0  0
  -21.1890   -6.0880   25.0150 C   0  0  0  0  0  3  0  0  0  0  0  0
  -21.4410   -4.7070   24.9200 C   0  0  0  0  0  0  0  0  0  0  0  0
  -21.7870   -4.1360   23.6820 C   0  0  0  0  0  3  0  0  0  0  0  0
  -21.8760   -4.9450   22.5350 C   0  0  0  0  0  0  0  0  0  0  0  0
  -22.1860   -4.3870   21.3420 F   0  0  0  0  0  0  0  0  0  0  0  0
  -21.3530   -3.9240   26.0200 F   0  0  0  0  0  0  0  0  0  0  0  0
  -22.8860  -13.6830   21.0910 C   0  0  0  0  0  0  0  0  0  0  0  0
  -22.1780  -12.9970   21.9830 N   0  0  0  0  0  0  0  0  0  0  0  0
  -22.4490  -14.7170   20.5870 O   0  0  0  0  0  0  0  0  0  0  0  0
  -22.5620  -12.1700   22.4150 H   0  0  0  0  0  0  0  0  0  0  0  0
  -21.2480  -13.2940   22.2370 H   0  0  0  0  0  0  0  0  0  0  0  0
  -25.5440  -15.2830   20.1860 N   0  0  0  0  0  0  0  0  0  0  0  0
  -24.8180  -15.9810   20.2950 H   0  0  0  0  0  0  0  0  0  0  0  0
  -26.4150  -15.6710   19.8450 H   0  0  0  0  0  0  0  0  0  0  0  0
  -30.7370  -24.8300   19.3600 C   0  0  0  0  0  2  0  0  0  0  0  0
  -30.7100  -26.0510   20.3170 C   0  0  0  0  0  2  0  0  0  0  0  0
  -29.6460  -27.1560   20.1030 C   0  0  0  0  0  2  0  0  0  0  0  0
  -28.3320  -26.6170   20.1150 O   0  0  0  0  0  0  0  0  0  0  0  0
  -24.5870  -31.8950   23.2360 C   0  0  0  0  0  0  0  0  0  0  0  0
  -27.2300  -27.4500   20.1540 C   0  0  0  0  0  0  0  0  0  0  0  0
  -23.3760  -30.4900   21.6030 C   0  0  0  0  0  3  0  0  0  0  0  0
  -24.8250  -28.9460   20.1810 C   0  0  0  0  0  0  0  0  0  0  0  0
  -25.9000  -30.8480   21.3950 C   0  0  0  0  0  2  0  0  0  0  0  0
  -25.9850  -29.4760   20.7580 C   0  0  0  0  0  0  0  0  0  0  0  0
  -27.1940  -28.7400   20.7380 C   0  0  0  0  0  3  0  0  0  0  0  0
  -26.0450  -26.9260   19.6000 C   0  0  0  0  0  3  0  0  0  0  0  0
  -24.8470  -27.6660   19.5990 C   0  0  0  0  0  3  0  0  0  0  0  0
  -23.5820  -29.8060   20.2260 C   0  0  0  0  0  2  0  0  0  0  0  0
  -24.6400  -31.0910   22.1380 N   0  0  0  0  0  0  0  0  0  0  0  0
  -23.5070  -32.1720   23.7760 O   0  0  0  0  0  0  0  0  0  0  0  0
  -22.7210  -29.4740   22.5670 C   0  0  0  0  0  0  0  0  0  0  0  0
  -21.3940  -29.3010   22.4460 N   0  0  0  0  0  0  0  0  0  0  0  0
  -23.4020  -28.8450   23.3800 O   0  0  0  0  0  0  0  0  0  0  0  0
  -20.9050  -29.8620   21.7640 H   0  0  0  0  0  0  0  0  0  0  0  0
  -18.0120  -28.1340   22.9550 C   0  0  0  0  0  0  0  0  0  0  0  0
  -20.5720  -28.3720   23.2220 C   0  0  0  0  0  3  0  0  0  0  0  0
  -20.6620  -26.9390   22.6500 C   0  0  0  0  0  2  0  0  0  0  0  0
  -19.5560  -26.6220   21.6390 C   0  0  0  0  0  2  0  0  0  0  0  0
  -18.1760  -26.7800   22.2840 C   0  0  0  0  0  2  0  0  0  0  0  0
  -19.1390  -28.8880   23.3820 C   0  0  0  0  0  0  0  0  0  0  0  0
  -18.9310  -30.1560   23.9690 C   0  0  0  0  0  3  0  0  0  0  0  0
  -17.6300  -30.6680   24.1340 C   0  0  0  0  0  3  0  0  0  0  0  0
  -16.5200  -29.9120   23.7250 C   0  0  0  0  0  3  0  0  0  0  0  0
  -16.7120  -28.6450   23.1420 C   0  0  0  0  0  3  0  0  0  0  0  0
  -25.8750  -32.5240   23.8530 C   0  0  0  0  0  3  0  0  0  0  0  0
  -26.4000  -31.7480   25.1210 C   0  0  1  0  0  0  0  0  0  0  0  0
  -25.3130  -31.5110   26.1960 C   0  0  0  0  0  1  0  0  0  0  0  0
  -26.9770  -30.3720   24.7200 C   0  0  0  0  0  1  0  0  0  0  0  0
  -27.5560  -32.5410   25.7760 C   0  0  0  0  0  1  0  0  0  0  0  0
  -25.5700  -33.9210   24.1830 N   0  0  0  0  0  0  0  0  0  0  0  0
  -25.9080  -34.9730   23.4240 C   0  0  0  0  0  0  0  0  0  0  0  0
  -26.5780  -34.8680   22.3930 O   0  0  0  0  0  0  0  0  0  0  0  0
  -24.9720  -34.0770   24.9810 H   0  0  0  0  0  0  0  0  0  0  0  0
  -24.1830  -36.7680   23.0730 C   0  0  0  0  0  1  0  0  0  0  0  0
  -25.4230  -36.3620   23.8830 C   0  0  0  0  0  3  0  0  0  0  0  0
  -27.5630  -37.2370   24.7090 C   0  0  0  0  0  1  0  0  0  0  0  0
  -26.4590  -37.4120   23.7700 N   0  0  0  0  0  0  0  0  0  0  0  0
  -26.0570  -38.3330   23.9230 H   0  0  0  0  0  0  0  0  0  0  0  0
  2  3  1  0
  2  1  1  0
  4  3  1  0
  4  5  1  0
  6  5  1  0
  6  8  1  0
  8  9  1  0
  8  7  1  0
 10  9  1  0
 11 16  1  0
 12 13  1  0
 12 11  1  0
 14 13  1  0
 14 21  1  0
 14 15  1  0
 16 10  1  0
 16 15  1  0
 17 10  2  0
 18 19  2  0
 19 38  1  0
 20 19  1  0
 20 23  1  0
 21 18  1  0
 21 22  1  0
 22 20  2  0
 23 24  1  0
 24 25  2  0
 26 29  1  0
 26 25  1  0
 27 26  2  0
 28 27  1  0
 28 23  2  0
 29 30  1  0
 30 31  1  0
 31 32  2  0
 33 32  1  0
 33 37  1  0
 34 33  2  0
 35 30  2  0
 35 34  1  0
 36 35  1  0
 38 39  1  0
 39 42  1  0
 39 41  1  0
 40 38  2  0
 43 44  1  0
 43 18  1  0
 45 43  1  0
 46  1  1  0
 46 47  1  0
 48 49  1  0
 48 47  1  0
 49 51  1  0
 50 61  2  0
 51 56  1  0
 52 60  1  0
 52 62  1  0
 53 59  1  0
 53 55  1  0
 54 60  1  0
 55 54  1  0
 56 55  2  0
 57 51  2  0
 58 57  1  0
 58 53  2  0
 59 52  1  0
 60 50  1  0
 62 64  2  0
 63 62  1  0
 65 63  1  0
 66 75  2  0
 66 71  1  0
 67 63  1  0
 67 71  1  0
 68 67  1  0
 69 70  1  0
 69 68  1  0
 70 66  1  0
 71 72  2  0
 72 73  1  0
 74 73  2  0
 75 74  1  0
 76 50  1  0
 76 81  1  0
 76 77  1  0
 77 80  1  1
 77 78  1  0
 79 77  1  0
 81 84  1  0
 82 86  1  0
 82 81  1  0
 83 82  2  0
 86 85  1  0
 88 86  1  0
 88 89  1  0
 88 87  1  0
M  ISO  4   9 100  10 100  48 101  49 101
M  END
>  <TORSDO>  (91) 
F 26

>  <SCORE>  (91) 
-11.691

>  <name>  (91) 
91

>  <ligand_id>  (91) 
91

>  <original_smiles>  (91) 
[H]c1c([H])c([H])c2c(c1[H])C([H])([H])C([H])([H])C([H])([H])C2([H])N([H])C(=O)C1([H])N(C(=O)C([H])(N([H])C(=O)C([H])(N([H])C([H])([H])[H])C([H])([H])[H])C(C([H])([H])[H])(C([H])([H])[H])C([H])([H])[H])C([H])([H])c2c([H])c(OC([H])([H])C([H])([H])C([H])([H])C([H])([H])C([H])([H])C([H])([H])C([H])([H])C([H])([H])C([H])([H])C([H])(C([H])([H])[H])C([H])([H])C(=O)N3C([H])([H])C([H])([H])C([H])([H])C([H])(n4nc(-c5c([H])c([H])c(Oc6c([H])c([H])c(F)c([H])c6F)c([H])c5[H])c(C(=O)N([H])[H])c4N([H])[H])C3([H])[H])c([H])c([H])c2C1([H])[H]

>  <smiles>  (91) 
[H]c1c([H])c([H])c2c(c1[H])C([H])([H])C([H])([H])C([H])([H])C2([H])N([H])C(=O)C1([H])N(C(=O)C([H])(N([H])C(=O)C([H])(N([H])C([H])([H])[H])C([H])([H])[H])C(C([H])([H])[H])(C([H])([H])[H])C([H])([H])[H])C([H])([H])c2c([H])c(OC([H])([H])C([H])([H])C([H])([H])C([H])([H])C([H])([H])C([H])([H])C([H])([H])C([H])([H])C([H])([H])C([H])(C([H])([H])[H])C([H])([H])C(=O)N3C([H])([H])C([H])([H])C([H])([H])C([H])(n4nc(-c5c([H])c([H])c(Oc6c([H])c([H])c(F)c([H])c6F)c([H])c5[H])c(C(=O)N([H])[H])c4N([H])[H])C3([H])[H])c([H])c([H])c2C1([H])[H]

$$$$
92:0:0
     RDKit          3D

 86 93  0  0  1  0  0  0  0  0999 V2000
  -29.7480  -21.2280   20.4200 C   0  0  0  0  0  3  0  0  0  0  0  0
  -29.4670  -22.5290   20.8230 C   0  0  0  0  0  3  0  0  0  0  0  0
  -30.1660  -20.1640   21.3960 C   0  0  0  0  0  3  0  0  0  0  0  0
  -30.5760  -18.8300   21.4270 C   0  0  0  0  0  0  0  0  0  0  0  0
  -30.9870  -18.3280   22.8110 C   0  0  0  0  0  1  0  0  0  0  0  0
  -30.7680  -17.6800   20.3430 C   0  0  0  0  0  2  0  0  0  0  0  0
  -30.4500  -16.1280   20.7740 C   0  0  0  0  0  2  0  0  0  0  0  0
  -31.0710  -14.8510   20.0220 C   0  0  0  0  0  0  0  0  0  0  0  0
  -30.7320  -12.6410   18.8740 C   0  0  0  0  0  2  0  0  0  0  0  0
  -29.7140  -12.7870   17.7220 C   0  0  0  0  0  2  0  0  0  0  0  0
  -28.2700  -12.6350   18.2410 C   0  0  0  0  0  2  0  0  0  0  0  0
  -28.0080  -13.4910   19.5040 C   0  0  0  0  0  3  0  0  0  0  0  0
  -29.1280  -13.3080   20.5510 C   0  0  0  0  0  2  0  0  0  0  0  0
  -30.4040  -13.6490   19.9100 N   0  0  0  0  0  0  0  0  0  0  0  0
  -32.1790  -14.9720   19.4880 O   0  0  0  0  0  0  0  0  0  0  0  0
  -25.6940  -14.1490   20.3980 C   0  0  0  0  0  0  0  0  0  0  0  0
  -24.6220  -13.4010   20.8090 C   0  0  0  0  0  0  0  0  0  0  0  0
  -25.0280  -12.0370   20.7050 C   0  0  0  0  0  0  0  0  0  0  0  0
  -26.6840  -13.2400   20.0670 N   0  0  0  0  0  0  0  0  0  0  0  0
  -26.2940  -11.9600   20.3100 N   0  0  0  0  0  0  0  0  0  0  0  0
  -24.2660  -10.7960   20.8990 C   0  0  0  0  0  0  0  0  0  0  0  0
  -24.6810   -9.8140   21.8230 C   0  0  0  0  0  3  0  0  0  0  0  0
  -23.9240   -8.6360   22.0060 C   0  0  0  0  0  3  0  0  0  0  0  0
  -22.7370   -8.4350   21.2640 C   0  0  0  0  0  0  0  0  0  0  0  0
  -22.3410   -9.4060   20.3270 C   0  0  0  0  0  3  0  0  0  0  0  0
  -23.0980  -10.5750   20.1430 C   0  0  0  0  0  3  0  0  0  0  0  0
  -21.9490   -7.3140   21.3560 O   0  0  0  0  0  0  0  0  0  0  0  0
  -21.8420   -6.6030   22.5250 C   0  0  0  0  0  0  0  0  0  0  0  0
  -21.3530   -7.1890   23.7130 C   0  0  0  0  0  3  0  0  0  0  0  0
  -21.1950   -6.4050   24.8730 C   0  0  0  0  0  3  0  0  0  0  0  0
  -21.5150   -5.0340   24.8450 C   0  0  0  0  0  0  0  0  0  0  0  0
  -21.9940   -4.4460   23.6610 C   0  0  0  0  0  3  0  0  0  0  0  0
  -22.1560   -5.2300   22.5050 C   0  0  0  0  0  0  0  0  0  0  0  0
  -22.6000   -4.6530   21.3620 F   0  0  0  0  0  0  0  0  0  0  0  0
  -21.3550   -4.2780   25.9570 F   0  0  0  0  0  0  0  0  0  0  0  0
  -23.2640  -13.9210   21.1850 C   0  0  0  0  0  0  0  0  0  0  0  0
  -22.5700  -13.2280   22.0800 N   0  0  0  0  0  0  0  0  0  0  0  0
  -22.8310  -14.9760   20.7240 O   0  0  0  0  0  0  0  0  0  0  0  0
  -22.9330  -12.3750   22.4790 H   0  0  0  0  0  0  0  0  0  0  0  0
  -21.6580  -13.5550   22.3700 H   0  0  0  0  0  0  0  0  0  0  0  0
  -25.9010  -15.5190   20.2600 N   0  0  0  0  0  0  0  0  0  0  0  0
  -25.1740  -16.2010   20.4520 H   0  0  0  0  0  0  0  0  0  0  0  0
  -26.7570  -15.9400   19.9190 H   0  0  0  0  0  0  0  0  0  0  0  0
  -29.1010  -23.8480   20.0210 C   0  0  0  0  0  2  0  0  0  0  0  0
  -28.3440  -25.0490   20.7860 C   0  0  0  0  0  2  0  0  0  0  0  0
  -28.5140  -26.4710   20.3570 O   0  0  0  0  0  0  0  0  0  0  0  0
  -24.5850  -31.8210   23.2600 C   0  0  0  0  0  0  0  0  0  0  0  0
  -27.3790  -27.3020   20.3090 C   0  0  0  0  0  0  0  0  0  0  0  0
  -23.4580  -30.3940   21.5900 C   0  0  0  0  0  3  0  0  0  0  0  0
  -24.9810  -28.8670   20.2120 C   0  0  0  0  0  0  0  0  0  0  0  0
  -25.9910  -30.7690   21.4690 C   0  0  0  0  0  2  0  0  0  0  0  0
  -26.1210  -29.3850   20.8390 C   0  0  0  0  0  0  0  0  0  0  0  0
  -27.3240  -28.6150   20.8750 C   0  0  0  0  0  3  0  0  0  0  0  0
  -26.2170  -26.8390   19.6540 C   0  0  0  0  0  3  0  0  0  0  0  0
  -25.0300  -27.5990   19.6110 C   0  0  0  0  0  3  0  0  0  0  0  0
  -23.7230  -29.7170   20.2190 C   0  0  0  0  0  2  0  0  0  0  0  0
  -24.6980  -31.0110   22.1660 N   0  0  0  0  0  0  0  0  0  0  0  0
  -23.4810  -32.0760   23.7640 O   0  0  0  0  0  0  0  0  0  0  0  0
  -22.7900  -29.3670   22.5350 C   0  0  0  0  0  0  0  0  0  0  0  0
  -21.4750  -29.1520   22.3630 N   0  0  0  0  0  0  0  0  0  0  0  0
  -23.4570  -28.7650   23.3820 O   0  0  0  0  0  0  0  0  0  0  0  0
  -20.9970  -29.6850   21.6500 H   0  0  0  0  0  0  0  0  0  0  0  0
  -18.1250  -27.8370   22.7230 C   0  0  0  0  0  0  0  0  0  0  0  0
  -20.6550  -28.1960   23.1100 C   0  0  0  0  0  3  0  0  0  0  0  0
  -20.8400  -26.7620   22.5640 C   0  0  0  0  0  2  0  0  0  0  0  0
  -19.8010  -26.3810   21.5060 C   0  0  0  0  0  2  0  0  0  0  0  0
  -18.3850  -26.4840   22.0790 C   0  0  0  0  0  2  0  0  0  0  0  0
  -19.1910  -28.6470   23.1930 C   0  0  0  0  0  0  0  0  0  0  0  0
  -18.8980  -29.9090   23.7520 C   0  0  0  0  0  3  0  0  0  0  0  0
  -17.5690  -30.3640   23.8440 C   0  0  0  0  0  3  0  0  0  0  0  0
  -16.5160  -29.5520   23.3900 C   0  0  0  0  0  3  0  0  0  0  0  0
  -16.7930  -28.2900   22.8370 C   0  0  0  0  0  3  0  0  0  0  0  0
  -25.8360  -32.4820   23.9170 C   0  0  0  0  0  3  0  0  0  0  0  0
  -25.4980  -33.8830   24.2070 N   0  0  0  0  0  0  0  0  0  0  0  0
  -25.8460  -34.9240   23.4380 C   0  0  0  0  0  0  0  0  0  0  0  0
  -26.5510  -34.8070   22.4320 O   0  0  0  0  0  0  0  0  0  0  0  0
  -24.8700  -34.0460   24.9780 H   0  0  0  0  0  0  0  0  0  0  0  0
  -24.1090  -36.6880   22.9910 C   0  0  0  0  0  1  0  0  0  0  0  0
  -25.3290  -36.3160   23.8500 C   0  0  0  0  0  3  0  0  0  0  0  0
  -27.4220  -37.2480   24.7310 C   0  0  0  0  0  1  0  0  0  0  0  0
  -26.3520  -37.3800   23.7450 N   0  0  0  0  0  0  0  0  0  0  0  0
  -25.9320  -38.2990   23.8550 H   0  0  0  0  0  0  0  0  0  0  0  0
  -26.3090  -31.7420   25.2280 C   0  0  1  0  0  0  0  0  0  0  0  0
  -25.1740  -31.5090   26.2520 C   0  0  0  0  0  1  0  0  0  0  0  0
  -26.9240  -30.3660   24.8830 C   0  0  0  0  0  1  0  0  0  0  0  0
  -27.4220  -32.5610   25.9210 C   0  0  0  0  0  1  0  0  0  0  0  0
  1  2  2  0
  1  3  1  0
  3  4  2  0
  4  5  1  0
  6  7  1  0
  6  4  1  0
  8  7  1  0
  9 14  1  0
 10 11  1  0
 10  9  1  0
 12 11  1  0
 12 19  1  0
 12 13  1  0
 14  8  1  0
 14 13  1  0
 15  8  2  0
 16 17  2  0
 17 36  1  0
 18 17  1  0
 18 21  1  0
 19 20  1  0
 19 16  1  0
 20 18  2  0
 21 22  1  0
 22 23  2  0
 24 27  1  0
 24 23  1  0
 25 24  2  0
 26 25  1  0
 26 21  2  0
 27 28  1  0
 28 29  1  0
 29 30  2  0
 31 30  1  0
 31 35  1  0
 32 31  2  0
 33 28  2  0
 33 32  1  0
 34 33  1  0
 36 37  1  0
 37 40  1  0
 37 39  1  0
 38 36  2  0
 41 16  1  0
 41 42  1  0
 43 41  1  0
 44 45  1  0
 44  2  1  0
 46 45  1  0
 47 58  2  0
 48 46  1  0
 48 53  1  0
 49 57  1  0
 49 59  1  0
 50 56  1  0
 50 52  1  0
 51 57  1  0
 52 53  2  0
 52 51  1  0
 54 48  2  0
 55 54  1  0
 55 50  2  0
 56 49  1  0
 57 47  1  0
 59 61  2  0
 60 59  1  0
 62 60  1  0
 63 72  2  0
 63 68  1  0
 64 60  1  0
 64 68  1  0
 65 64  1  0
 66 67  1  0
 66 65  1  0
 67 63  1  0
 68 69  2  0
 69 70  1  0
 71 70  2  0
 72 71  1  0
 73 47  1  0
 73 74  1  0
 73 83  1  0
 74 77  1  0
 75 79  1  0
 75 74  1  0
 76 75  2  0
 79 78  1  0
 81 79  1  0
 81 82  1  0
 81 80  1  0
 83 86  1  1
 83 84  1  0
 85 83  1  0
M  ISO  4   7 100   8 100  45 101  46 101
M  END
>  <TORSDO>  (92) 
F 21

>  <SCORE>  (92) 
-12.505

>  <name>  (92) 
92

>  <ligand_id>  (92) 
92

>  <original_smiles>  (92) 
[H]C(C([H])=C(C([H])([H])[H])C([H])([H])C([H])([H])C(=O)N1C([H])([H])C([H])([H])C([H])([H])C([H])(n2nc(-c3c([H])c([H])c(Oc4c([H])c([H])c(F)c([H])c4F)c([H])c3[H])c(C(=O)N([H])[H])c2N([H])[H])C1([H])[H])=C([H])C([H])([H])C([H])([H])Oc1c([H])c([H])c2c(c1[H])C([H])([H])N(C(=O)C([H])(N([H])C(=O)C([H])(N([H])C([H])([H])[H])C([H])([H])[H])C(C([H])([H])[H])(C([H])([H])[H])C([H])([H])[H])C([H])(C(=O)N([H])C1([H])c3c([H])c([H])c([H])c([H])c3C([H])([H])C([H])([H])C1([H])[H])C2([H])[H]

>  <smiles>  (92) 
[H]C(C([H])=C(C([H])([H])[H])C([H])([H])C([H])([H])C(=O)N1C([H])([H])C([H])([H])C([H])([H])C([H])(n2nc(-c3c([H])c([H])c(Oc4c([H])c([H])c(F)c([H])c4F)c([H])c3[H])c(C(=O)N([H])[H])c2N([H])[H])C1([H])[H])=C([H])C([H])([H])C([H])([H])Oc1c([H])c([H])c2c(c1[H])C([H])([H])N(C(=O)C([H])(N([H])C(=O)C([H])(N([H])C([H])([H])[H])C([H])([H])[H])C(C([H])([H])[H])(C([H])([H])[H])C([H])([H])[H])C([H])(C(=O)N([H])C1([H])c3c([H])c([H])c([H])c([H])c3C([H])([H])C([H])([H])C1([H])[H])C2([H])[H]

$$$$
93:0:0
     RDKit          3D

 87 94  0  0  1  0  0  0  0  0999 V2000
  -29.1360  -22.5560   19.7280 C   0  0  0  0  0  2  0  0  0  0  0  0
  -29.5840  -20.1280   19.9980 C   0  0  0  0  0  0  0  0  0  0  0  0
  -29.0250  -21.2310   20.4440 N   0  0  0  0  0  0  0  0  0  0  0  0
  -31.9400  -20.4140   19.0520 C   0  0  0  0  0  1  0  0  0  0  0  0
  -30.4650  -20.1130   18.7440 C   0  0  0  0  0  2  0  0  0  0  0  0
  -29.3920  -18.7080   20.6980 C   0  0  0  0  0  2  0  0  0  0  0  0
  -30.1600  -17.3860   20.1880 C   0  0  0  0  0  3  0  0  0  0  0  0
  -29.8470  -15.9800   20.8990 C   0  0  0  0  0  3  0  0  0  0  0  0
  -30.6130  -14.6720   20.4150 C   0  0  0  0  0  0  0  0  0  0  0  0
  -30.4160  -12.4210   19.3580 C   0  0  0  0  0  2  0  0  0  0  0  0
  -29.4770  -12.5410   18.1380 C   0  0  0  0  0  2  0  0  0  0  0  0
  -28.0040  -12.3710   18.5600 C   0  0  0  0  0  2  0  0  0  0  0  0
  -27.6370  -13.2390   19.7930 C   0  0  0  0  0  3  0  0  0  0  0  0
  -28.6920  -13.1040   20.9130 C   0  0  0  0  0  2  0  0  0  0  0  0
  -30.0000  -13.4450   20.3410 N   0  0  0  0  0  0  0  0  0  0  0  0
  -31.7680  -14.8040   20.0000 O   0  0  0  0  0  0  0  0  0  0  0  0
  -25.2380  -13.8340   20.4920 C   0  0  0  0  0  0  0  0  0  0  0  0
  -24.1720  -13.0590   20.8600 C   0  0  0  0  0  0  0  0  0  0  0  0
  -24.6390  -11.7090   20.8450 C   0  0  0  0  0  0  0  0  0  0  0  0
  -26.2870  -12.9540   20.2730 N   0  0  0  0  0  0  0  0  0  0  0  0
  -25.9330  -11.6730   20.5450 N   0  0  0  0  0  0  0  0  0  0  0  0
  -23.9170  -10.4460   21.0400 C   0  0  0  0  0  0  0  0  0  0  0  0
  -24.3590   -9.4780   21.9690 C   0  0  0  0  0  3  0  0  0  0  0  0
  -23.6390   -8.2790   22.1530 C   0  0  0  0  0  3  0  0  0  0  0  0
  -22.4590   -8.0380   21.4080 C   0  0  0  0  0  0  0  0  0  0  0  0
  -22.0350   -8.9940   20.4680 C   0  0  0  0  0  3  0  0  0  0  0  0
  -22.7570  -10.1860   20.2830 C   0  0  0  0  0  3  0  0  0  0  0  0
  -21.7080   -6.8910   21.5020 O   0  0  0  0  0  0  0  0  0  0  0  0
  -21.6860   -6.1370   22.6460 C   0  0  0  0  0  0  0  0  0  0  0  0
  -21.2970   -6.6810   23.8900 C   0  0  0  0  0  3  0  0  0  0  0  0
  -21.2210   -5.8540   25.0290 C   0  0  0  0  0  3  0  0  0  0  0  0
  -21.5260   -4.4830   24.9240 C   0  0  0  0  0  0  0  0  0  0  0  0
  -21.9080   -3.9390   23.6860 C   0  0  0  0  0  3  0  0  0  0  0  0
  -21.9860   -4.7630   22.5500 C   0  0  0  0  0  0  0  0  0  0  0  0
  -22.3350   -4.2290   21.3550 F   0  0  0  0  0  0  0  0  0  0  0  0
  -21.4450   -3.6860   26.0160 F   0  0  0  0  0  0  0  0  0  0  0  0
  -22.7700  -13.5320   21.1190 C   0  0  0  0  0  0  0  0  0  0  0  0
  -22.0410  -12.8410   21.9860 N   0  0  0  0  0  0  0  0  0  0  0  0
  -22.3310  -14.5510   20.5860 O   0  0  0  0  0  0  0  0  0  0  0  0
  -22.4100  -12.0170   22.4380 H   0  0  0  0  0  0  0  0  0  0  0  0
  -21.1000  -13.1380   22.2040 H   0  0  0  0  0  0  0  0  0  0  0  0
  -25.4000  -15.2030   20.3040 N   0  0  0  0  0  0  0  0  0  0  0  0
  -24.6370  -15.8620   20.4100 H   0  0  0  0  0  0  0  0  0  0  0  0
  -26.2590  -15.6390   19.9910 H   0  0  0  0  0  0  0  0  0  0  0  0
  -28.5280  -23.8530   20.4420 C   0  0  0  0  0  3  0  0  0  0  0  0
  -28.5340  -25.2030   19.5840 C   0  0  0  0  0  3  0  0  0  0  0  0
  -28.3780  -26.5310   20.2220 O   0  0  0  0  0  0  0  0  0  0  0  0
  -24.5970  -31.8610   23.2250 C   0  0  0  0  0  0  0  0  0  0  0  0
  -27.2180  -27.3170   20.1550 C   0  0  0  0  0  0  0  0  0  0  0  0
  -23.3890  -30.4610   21.5870 C   0  0  0  0  0  3  0  0  0  0  0  0
  -24.8360  -28.9090   20.1560 C   0  0  0  0  0  0  0  0  0  0  0  0
  -25.9230  -30.7880   21.3910 C   0  0  0  0  0  2  0  0  0  0  0  0
  -26.0030  -29.4080   20.7460 C   0  0  0  0  0  0  0  0  0  0  0  0
  -27.1900  -28.6210   20.7380 C   0  0  0  0  0  3  0  0  0  0  0  0
  -26.0220  -26.8580   19.5560 C   0  0  0  0  0  3  0  0  0  0  0  0
  -24.8480  -27.6390   19.5540 C   0  0  0  0  0  3  0  0  0  0  0  0
  -23.5960  -29.7790   20.2080 C   0  0  0  0  0  2  0  0  0  0  0  0
  -24.6560  -31.0540   22.1260 N   0  0  0  0  0  0  0  0  0  0  0  0
  -23.5160  -32.1380   23.7640 O   0  0  0  0  0  0  0  0  0  0  0  0
  -22.7310  -29.4450   22.5530 C   0  0  0  0  0  0  0  0  0  0  0  0
  -21.4040  -29.2680   22.4310 N   0  0  0  0  0  0  0  0  0  0  0  0
  -23.4120  -28.8190   23.3680 O   0  0  0  0  0  0  0  0  0  0  0  0
  -20.9120  -29.8240   21.7460 H   0  0  0  0  0  0  0  0  0  0  0  0
  -18.0290  -28.0750   22.9420 C   0  0  0  0  0  0  0  0  0  0  0  0
  -20.5880  -28.3310   23.2050 C   0  0  0  0  0  3  0  0  0  0  0  0
  -20.6870  -26.9000   22.6270 C   0  0  0  0  0  2  0  0  0  0  0  0
  -19.5810  -26.5790   21.6170 C   0  0  0  0  0  2  0  0  0  0  0  0
  -18.2020  -26.7250   22.2670 C   0  0  0  0  0  2  0  0  0  0  0  0
  -19.1490  -28.8350   23.3690 C   0  0  0  0  0  0  0  0  0  0  0  0
  -18.9340  -30.0990   23.9610 C   0  0  0  0  0  3  0  0  0  0  0  0
  -17.6300  -30.6020   24.1310 C   0  0  0  0  0  3  0  0  0  0  0  0
  -16.5240  -29.8380   23.7210 C   0  0  0  0  0  3  0  0  0  0  0  0
  -16.7240  -28.5770   23.1320 C   0  0  0  0  0  3  0  0  0  0  0  0
  -25.8820  -32.4950   23.8410 C   0  0  0  0  0  3  0  0  0  0  0  0
  -25.5720  -33.8910   24.1780 N   0  0  0  0  0  0  0  0  0  0  0  0
  -25.9000  -34.9480   23.4220 C   0  0  0  0  0  0  0  0  0  0  0  0
  -26.5650  -34.8490   22.3880 O   0  0  0  0  0  0  0  0  0  0  0  0
  -24.9770  -34.0420   24.9790 H   0  0  0  0  0  0  0  0  0  0  0  0
  -24.1630  -36.7380   23.0890 C   0  0  0  0  0  1  0  0  0  0  0  0
  -25.4130  -36.3340   23.8880 C   0  0  0  0  0  3  0  0  0  0  0  0
  -27.5540  -37.2210   24.7010 C   0  0  0  0  0  1  0  0  0  0  0  0
  -26.4420  -37.3890   23.7700 N   0  0  0  0  0  0  0  0  0  0  0  0
  -26.0350  -38.3090   23.9260 H   0  0  0  0  0  0  0  0  0  0  0  0
  -26.4050  -31.7200   25.1140 C   0  0  1  0  0  0  0  0  0  0  0  0
  -25.3170  -31.4820   26.1880 C   0  0  0  0  0  1  0  0  0  0  0  0
  -26.9840  -30.3430   24.7180 C   0  0  0  0  0  1  0  0  0  0  0  0
  -27.5590  -32.5120   25.7730 C   0  0  0  0  0  1  0  0  0  0  0  0
  1 45  1  0
  1  3  1  0
  2  3  2  0
  2  6  1  0
  5  4  1  0
  5  2  1  0
  7  6  1  0
  7  8  2  0
  9  8  1  0
 10 15  1  0
 11 12  1  0
 11 10  1  0
 13 12  1  0
 13 20  1  0
 13 14  1  0
 15  9  1  0
 15 14  1  0
 16  9  2  0
 17 18  2  0
 18 37  1  0
 19 18  1  0
 19 22  1  0
 20 17  1  0
 20 21  1  0
 21 19  2  0
 22 23  1  0
 23 24  2  0
 25 28  1  0
 25 24  1  0
 26 25  2  0
 27 26  1  0
 27 22  2  0
 28 29  1  0
 29 30  1  0
 30 31  2  0
 32 31  1  0
 32 36  1  0
 33 32  2  0
 34 29  2  0
 34 33  1  0
 35 34  1  0
 37 38  1  0
 38 41  1  0
 38 40  1  0
 39 37  2  0
 42 43  1  0
 42 17  1  0
 44 42  1  0
 46 47  1  0
 46 45  2  0
 48 59  2  0
 49 47  1  0
 49 54  1  0
 50 58  1  0
 50 60  1  0
 51 57  1  0
 51 53  1  0
 52 58  1  0
 53 52  1  0
 54 53  2  0
 55 49  2  0
 56 55  1  0
 56 51  2  0
 57 50  1  0
 58 48  1  0
 60 62  2  0
 61 60  1  0
 63 61  1  0
 64 73  2  0
 64 69  1  0
 65 61  1  0
 65 69  1  0
 66 65  1  0
 67 68  1  0
 67 66  1  0
 68 64  1  0
 69 70  2  0
 70 71  1  0
 72 71  2  0
 73 72  1  0
 74 48  1  0
 74 75  1  0
 74 84  1  0
 75 78  1  0
 76 80  1  0
 76 75  1  0
 77 76  2  0
 80 79  1  0
 82 80  1  0
 82 83  1  0
 82 81  1  0
 84 87  1  1
 84 85  1  0
 86 84  1  0
M  ISO  4   8 100   9 100  46 101  47 101
M  END
>  <TORSDO>  (93) 
F 23

>  <SCORE>  (93) 
-12.584

>  <name>  (93) 
93

>  <ligand_id>  (93) 
93

>  <original_smiles>  (93) 
[H]c1c([H])c([H])c2c(c1[H])C([H])([H])C([H])([H])C([H])([H])C2([H])N([H])C(=O)C1([H])N(C(=O)C([H])(N([H])C(=O)C([H])(N([H])C([H])([H])[H])C([H])([H])[H])C(C([H])([H])[H])(C([H])([H])[H])C([H])([H])[H])C([H])([H])c2c([H])c(OC([H])([H])C([H])([H])C([H])([H])N=C(C([H])([H])C([H])([H])[H])C([H])([H])C([H])([H])C([H])([H])C(=O)N3C([H])([H])C([H])([H])C([H])([H])C([H])(n4nc(-c5c([H])c([H])c(Oc6c([H])c([H])c(F)c([H])c6F)c([H])c5[H])c(C(=O)N([H])[H])c4N([H])[H])C3([H])[H])c([H])c([H])c2C1([H])[H]

>  <smiles>  (93) 
[H]c1c([H])c([H])c2c(c1[H])C([H])([H])C([H])([H])C([H])([H])C2([H])N([H])C(=O)C1([H])N(C(=O)C([H])(N([H])C(=O)C([H])(N([H])C([H])([H])[H])C([H])([H])[H])C(C([H])([H])[H])(C([H])([H])[H])C([H])([H])[H])C([H])([H])c2c([H])c(OC([H])([H])C([H])([H])C([H])([H])N=C(C([H])([H])C([H])([H])[H])C([H])([H])C([H])([H])C([H])([H])C(=O)N3C([H])([H])C([H])([H])C([H])([H])C([H])(n4nc(-c5c([H])c([H])c(Oc6c([H])c([H])c(F)c([H])c6F)c([H])c5[H])c(C(=O)N([H])[H])c4N([H])[H])C3([H])[H])c([H])c([H])c2C1([H])[H]

$$$$
94:0:0
     RDKit          3D

 95104  0  0  1  0  0  0  0  0999 V2000
  -31.9550  -22.5030   21.0550 C   0  0  0  0  0  3  0  0  0  0  0  0
  -32.0520  -21.1460   21.4740 C   0  0  0  0  0  3  0  0  0  0  0  0
  -29.6870  -21.0450   22.2710 C   0  0  0  0  0  3  0  0  0  0  0  0
  -30.7040  -23.0810   21.2660 C   0  0  0  0  0  0  0  0  0  0  0  0
  -29.6130  -22.3750   21.8470 C   0  0  0  0  0  0  0  0  0  0  0  0
  -30.9590  -20.4270   22.0720 C   0  0  0  0  0  0  0  0  0  0  0  0
  -28.6850  -23.5570   21.7460 C   0  0  0  0  0  2  0  0  0  0  0  0
  -29.9260  -24.3710   21.1100 C   0  0  0  0  0  3  0  0  0  0  0  0
  -30.9530  -18.8190   24.0380 C   0  0  0  0  0  1  0  0  0  0  0  0
  -31.1890  -18.9850   22.5260 C   0  0  0  0  0  3  0  0  0  0  0  0
  -30.3660  -18.0370   21.7420 N   0  0  0  0  0  4  0  0  0  0  0  0
  -29.5000  -17.8900   22.2330 H   0  0  0  0  0  0  0  0  0  0  0  0
  -30.1510  -18.4850   20.8650 H   0  0  0  0  0  0  0  0  0  0  0  0
  -31.0250  -16.7400   21.4480 C   0  0  0  0  0  2  0  0  0  0  0  0
  -30.0220  -15.5920   21.1410 C   0  0  0  0  0  2  0  0  0  0  0  0
  -30.5560  -14.5090   20.1780 C   0  0  0  0  0  0  0  0  0  0  0  0
  -30.2030  -12.3920   18.9480 C   0  0  0  0  0  2  0  0  0  0  0  0
  -29.1890  -12.5910   17.8050 C   0  0  0  0  0  2  0  0  0  0  0  0
  -27.7480  -12.4100   18.3160 C   0  0  0  0  0  2  0  0  0  0  0  0
  -27.4640  -13.2270   19.6040 C   0  0  0  0  0  3  0  0  0  0  0  0
  -28.5820  -13.0160   20.6480 C   0  0  0  0  0  2  0  0  0  0  0  0
  -29.8730  -13.3450   20.0190 N   0  0  0  0  0  0  0  0  0  0  0  0
  -31.5740  -14.7560   19.5240 O   0  0  0  0  0  0  0  0  0  0  0  0
  -25.0990  -13.7720   20.4680 C   0  0  0  0  0  0  0  0  0  0  0  0
  -24.0680  -12.9680   20.8790 C   0  0  0  0  0  0  0  0  0  0  0  0
  -24.5510  -11.6280   20.7830 C   0  0  0  0  0  0  0  0  0  0  0  0
  -26.1450  -12.9170   20.1530 N   0  0  0  0  0  0  0  0  0  0  0  0
  -25.8200  -11.6220   20.3970 N   0  0  0  0  0  0  0  0  0  0  0  0
  -23.8600  -10.3470   20.9820 C   0  0  0  0  0  0  0  0  0  0  0  0
  -24.3370   -9.3840   21.8990 C   0  0  0  0  0  3  0  0  0  0  0  0
  -23.6450   -8.1690   22.0850 C   0  0  0  0  0  3  0  0  0  0  0  0
  -22.4620   -7.9060   21.3550 C   0  0  0  0  0  0  0  0  0  0  0  0
  -22.0040   -8.8570   20.4260 C   0  0  0  0  0  3  0  0  0  0  0  0
  -22.6970  -10.0650   20.2370 C   0  0  0  0  0  3  0  0  0  0  0  0
  -21.7380   -6.7420   21.4510 O   0  0  0  0  0  0  0  0  0  0  0  0
  -21.7050   -6.0100   22.6100 C   0  0  0  0  0  0  0  0  0  0  0  0
  -21.2510   -6.5610   23.8290 C   0  0  0  0  0  3  0  0  0  0  0  0
  -21.1680   -5.7530   24.9800 C   0  0  0  0  0  3  0  0  0  0  0  0
  -21.5270   -4.3940   24.9140 C   0  0  0  0  0  0  0  0  0  0  0  0
  -21.9750   -3.8410   23.7010 C   0  0  0  0  0  3  0  0  0  0  0  0
  -22.0600   -4.6470   22.5520 C   0  0  0  0  0  0  0  0  0  0  0  0
  -22.4710   -4.1040   21.3810 F   0  0  0  0  0  0  0  0  0  0  0  0
  -21.4400   -3.6150   26.0180 F   0  0  0  0  0  0  0  0  0  0  0  0
  -22.6810  -13.4110   21.2480 C   0  0  0  0  0  0  0  0  0  0  0  0
  -22.0220  -12.6800   22.1400 N   0  0  0  0  0  0  0  0  0  0  0  0
  -22.1930  -14.4400   20.7810 O   0  0  0  0  0  0  0  0  0  0  0  0
  -22.4310  -11.8480   22.5380 H   0  0  0  0  0  0  0  0  0  0  0  0
  -21.0940  -12.9570   22.4280 H   0  0  0  0  0  0  0  0  0  0  0  0
  -25.2280  -15.1500   20.3180 N   0  0  0  0  0  0  0  0  0  0  0  0
  -24.4570  -15.7860   20.4900 H   0  0  0  0  0  0  0  0  0  0  0  0
  -26.0500  -15.6120   19.9490 H   0  0  0  0  0  0  0  0  0  0  0  0
  -31.1320  -25.7430   19.3250 C   0  0  0  0  0  1  0  0  0  0  0  0
  -29.8860  -24.9100   19.6710 C   0  0  0  0  0  3  0  0  0  0  0  0
  -28.5890  -25.6810   19.3550 C   0  0  0  0  0  2  0  0  0  0  0  0
  -28.5250  -26.9340   20.0410 O   0  0  0  0  0  0  0  0  0  0  0  0
  -24.6210  -31.9460   23.2340 C   0  0  0  0  0  0  0  0  0  0  0  0
  -27.3240  -27.6160   20.0410 C   0  0  0  0  0  0  0  0  0  0  0  0
  -23.4320  -30.5690   21.5600 C   0  0  0  0  0  3  0  0  0  0  0  0
  -24.9030  -29.0860   20.1000 C   0  0  0  0  0  0  0  0  0  0  0  0
  -25.9540  -30.9620   21.3730 C   0  0  0  0  0  2  0  0  0  0  0  0
  -26.0540  -29.6080   20.7020 C   0  0  0  0  0  0  0  0  0  0  0  0
  -27.2620  -28.8770   20.6760 C   0  0  0  0  0  3  0  0  0  0  0  0
  -26.1480  -27.1110   19.4310 C   0  0  0  0  0  3  0  0  0  0  0  0
  -24.9440  -27.8350   19.4660 C   0  0  0  0  0  3  0  0  0  0  0  0
  -23.6490  -29.9260   20.1640 C   0  0  0  0  0  2  0  0  0  0  0  0
  -24.6870  -31.1730   22.1140 N   0  0  0  0  0  0  0  0  0  0  0  0
  -23.5370  -32.1930   23.7790 O   0  0  0  0  0  0  0  0  0  0  0  0
  -22.7960  -29.5160   22.4950 C   0  0  0  0  0  0  0  0  0  0  0  0
  -21.4710  -29.3300   22.3720 N   0  0  0  0  0  0  0  0  0  0  0  0
  -23.4890  -28.8700   23.2860 O   0  0  0  0  0  0  0  0  0  0  0  0
  -20.9730  -29.9040   21.7050 H   0  0  0  0  0  0  0  0  0  0  0  0
  -18.1040  -28.1200   22.8680 C   0  0  0  0  0  0  0  0  0  0  0  0
  -20.6640  -28.3680   23.1200 C   0  0  0  0  0  3  0  0  0  0  0  0
  -20.7600  -26.9570   22.4970 C   0  0  0  0  0  2  0  0  0  0  0  0
  -19.6470  -26.6670   21.4850 C   0  0  0  0  0  2  0  0  0  0  0  0
  -18.2730  -26.7920   22.1490 C   0  0  0  0  0  2  0  0  0  0  0  0
  -19.2270  -28.8670   23.3110 C   0  0  0  0  0  0  0  0  0  0  0  0
  -19.0170  -30.1110   23.9420 C   0  0  0  0  0  3  0  0  0  0  0  0
  -17.7150  -30.6090   24.1380 C   0  0  0  0  0  3  0  0  0  0  0  0
  -16.6050  -29.8580   23.7120 C   0  0  0  0  0  3  0  0  0  0  0  0
  -16.8010  -28.6150   23.0840 C   0  0  0  0  0  3  0  0  0  0  0  0
  -25.9010  -32.5780   23.8670 C   0  0  0  0  0  3  0  0  0  0  0  0
  -25.5850  -33.9730   24.2010 N   0  0  0  0  0  0  0  0  0  0  0  0
  -25.9220  -35.0280   23.4470 C   0  0  0  0  0  0  0  0  0  0  0  0
  -26.6020  -34.9300   22.4220 O   0  0  0  0  0  0  0  0  0  0  0  0
  -24.9820  -34.1240   24.9950 H   0  0  0  0  0  0  0  0  0  0  0  0
  -24.1910  -36.8150   23.0770 C   0  0  0  0  0  1  0  0  0  0  0  0
  -25.4240  -36.4130   23.9020 C   0  0  0  0  0  3  0  0  0  0  0  0
  -27.5450  -37.3020   24.7610 C   0  0  0  0  0  1  0  0  0  0  0  0
  -26.4560  -37.4700   23.8040 N   0  0  0  0  0  0  0  0  0  0  0  0
  -26.0450  -38.3890   23.9470 H   0  0  0  0  0  0  0  0  0  0  0  0
  -26.4110  -31.8000   25.1420 C   0  0  1  0  0  0  0  0  0  0  0  0
  -25.3110  -31.5500   26.2000 C   0  0  0  0  0  1  0  0  0  0  0  0
  -27.0030  -30.4290   24.7450 C   0  0  0  0  0  1  0  0  0  0  0  0
  -27.5520  -32.5960   25.8180 C   0  0  0  0  0  1  0  0  0  0  0  0
  1  4  2  0
  1  2  1  0
  2  6  2  0
  4  5  1  0
  5  3  2  0
  6  3  1  0
  6 10  1  0
  7  5  1  0
  8 53  1  0
  8  4  1  0
  8  7  1  0
 10  9  1  0
 11 12  1  0
 11 10  1  0
 13 11  1  0
 14 11  1  0
 15 14  1  0
 16 15  1  0
 17 22  1  0
 18 19  1  0
 18 17  1  0
 20 19  1  0
 20 27  1  0
 20 21  1  0
 22 16  1  0
 22 21  1  0
 23 16  2  0
 24 25  2  0
 25 44  1  0
 26 25  1  0
 26 29  1  0
 27 28  1  0
 27 24  1  0
 28 26  2  0
 29 30  1  0
 30 31  2  0
 32 35  1  0
 32 31  1  0
 33 32  2  0
 34 33  1  0
 34 29  2  0
 35 36  1  0
 36 37  1  0
 37 38  2  0
 39 38  1  0
 39 43  1  0
 40 39  2  0
 41 36  2  0
 41 40  1  0
 42 41  1  0
 44 45  1  0
 45 48  1  0
 45 47  1  0
 46 44  2  0
 49 24  1  0
 49 50  1  0
 51 49  1  0
 53 52  1  0
 54 53  1  0
 54 55  1  0
 55 57  1  0
 56 67  2  0
 57 62  1  0
 58 66  1  0
 58 68  1  0
 59 65  1  0
 59 61  1  0
 60 66  1  0
 61 60  1  0
 62 61  2  0
 63 64  1  0
 63 57  2  0
 64 59  2  0
 65 58  1  0
 66 56  1  0
 68 70  2  0
 69 68  1  0
 71 69  1  0
 72 81  2  0
 72 77  1  0
 73 69  1  0
 73 77  1  0
 74 73  1  0
 75 76  1  0
 75 74  1  0
 76 72  1  0
 77 78  2  0
 78 79  1  0
 80 79  2  0
 81 80  1  0
 82 56  1  0
 82 83  1  0
 82 92  1  0
 83 86  1  0
 84 88  1  0
 84 83  1  0
 85 84  2  0
 88 87  1  0
 90 88  1  0
 90 91  1  0
 90 89  1  0
 92 95  1  1
 92 93  1  0
 94 92  1  0
M  ISO  4  15 100  16 100  54 101  55 101
M  END
>  <TORSDO>  (94) 
F 22

>  <SCORE>  (94) 
-12.667

>  <name>  (94) 
94

>  <ligand_id>  (94) 
94

>  <original_smiles>  (94) 
[H]c1c([H])c([H])c2c(c1[H])C([H])([H])C([H])([H])C([H])([H])C2([H])N([H])C(=O)C1([H])N(C(=O)C([H])(N([H])C(=O)C([H])(N([H])C([H])([H])[H])C([H])([H])[H])C(C([H])([H])[H])(C([H])([H])[H])C([H])([H])[H])C([H])([H])c2c([H])c(OC([H])([H])C([H])(C([H])([H])[H])C3([H])c4c([H])c([H])c(C([H])(C([H])([H])[H])[N+]([H])([H])C([H])([H])C([H])([H])C(=O)N5C([H])([H])C([H])([H])C([H])([H])C([H])(n6nc(-c7c([H])c([H])c(Oc8c([H])c([H])c(F)c([H])c8F)c([H])c7[H])c(C(=O)N([H])[H])c6N([H])[H])C5([H])[H])c([H])c4C3([H])[H])c([H])c([H])c2C1([H])[H]

>  <smiles>  (94) 
[H]c1c([H])c([H])c2c(c1[H])C([H])([H])C([H])([H])C([H])([H])C2([H])N([H])C(=O)C1([H])N(C(=O)C([H])(N([H])C(=O)C([H])(N([H])C([H])([H])[H])C([H])([H])[H])C(C([H])([H])[H])(C([H])([H])[H])C([H])([H])[H])C([H])([H])c2c([H])c(OC([H])([H])C([H])(C([H])([H])[H])C3([H])c4c([H])c([H])c(C([H])(C([H])([H])[H])[N+]([H])([H])C([H])([H])C([H])([H])C(=O)N5C([H])([H])C([H])([H])C([H])([H])C([H])(n6nc(-c7c([H])c([H])c(Oc8c([H])c([H])c(F)c([H])c8F)c([H])c7[H])c(C(=O)N([H])[H])c6N([H])[H])C5([H])[H])c([H])c4C3([H])[H])c([H])c([H])c2C1([H])[H]

$$$$
95:0:0
     RDKit          3D

 88 95  0  0  1  0  0  0  0  0999 V2000
  -29.7410  -21.9700   20.6820 C   0  0  0  0  0  3  0  0  0  0  0  0
  -29.7440  -20.7910   21.3420 C   0  0  0  0  0  3  0  0  0  0  0  0
  -29.0010  -23.1440   21.1310 C   0  0  0  0  0  3  0  0  0  0  0  0
  -29.1210  -24.3750   20.5880 C   0  0  0  0  0  3  0  0  0  0  0  0
  -28.3660  -25.6060   21.0830 C   0  0  0  0  0  2  0  0  0  0  0  0
  -28.3870  -26.6960   20.1500 O   0  0  0  0  0  0  0  0  0  0  0  0
  -24.6040  -31.8880   23.2470 C   0  0  0  0  0  0  0  0  0  0  0  0
  -27.2380  -27.4520   20.1620 C   0  0  0  0  0  0  0  0  0  0  0  0
  -23.3910  -30.4820   21.6140 C   0  0  0  0  0  3  0  0  0  0  0  0
  -24.8400  -28.9460   20.1810 C   0  0  0  0  0  0  0  0  0  0  0  0
  -25.9140  -30.8490   21.3980 C   0  0  0  0  0  2  0  0  0  0  0  0
  -26.0000  -29.4770   20.7610 C   0  0  0  0  0  0  0  0  0  0  0  0
  -27.2050  -28.7380   20.7460 C   0  0  0  0  0  3  0  0  0  0  0  0
  -26.0650  -26.9330   19.5760 C   0  0  0  0  0  3  0  0  0  0  0  0
  -24.8670  -27.6720   19.5870 C   0  0  0  0  0  3  0  0  0  0  0  0
  -23.5930  -29.8000   20.2340 C   0  0  0  0  0  2  0  0  0  0  0  0
  -24.6540  -31.0880   22.1440 N   0  0  0  0  0  0  0  0  0  0  0  0
  -23.5270  -32.1590   23.7950 O   0  0  0  0  0  0  0  0  0  0  0  0
  -22.7480  -29.4620   22.5800 C   0  0  0  0  0  0  0  0  0  0  0  0
  -21.4230  -29.2760   22.4600 N   0  0  0  0  0  0  0  0  0  0  0  0
  -23.4380  -28.8390   23.3920 O   0  0  0  0  0  0  0  0  0  0  0  0
  -20.9280  -29.8310   21.7750 H   0  0  0  0  0  0  0  0  0  0  0  0
  -18.0550  -28.0690   22.9660 C   0  0  0  0  0  0  0  0  0  0  0  0
  -20.6120  -28.3380   23.2350 C   0  0  0  0  0  3  0  0  0  0  0  0
  -20.7200  -26.9050   22.6640 C   0  0  0  0  0  2  0  0  0  0  0  0
  -19.6180  -26.5730   21.6520 C   0  0  0  0  0  2  0  0  0  0  0  0
  -18.2370  -26.7160   22.2970 C   0  0  0  0  0  2  0  0  0  0  0  0
  -19.1710  -28.8370   23.3920 C   0  0  0  0  0  0  0  0  0  0  0  0
  -18.9480  -30.1020   23.9770 C   0  0  0  0  0  3  0  0  0  0  0  0
  -17.6420  -30.5990   24.1410 C   0  0  0  0  0  3  0  0  0  0  0  0
  -16.5400  -29.8290   23.7330 C   0  0  0  0  0  3  0  0  0  0  0  0
  -16.7480  -28.5650   23.1510 C   0  0  0  0  0  3  0  0  0  0  0  0
  -25.8950  -32.5210   23.8580 C   0  0  0  0  0  3  0  0  0  0  0  0
  -26.4260  -31.7480   25.1260 C   0  0  1  0  0  0  0  0  0  0  0  0
  -25.3450  -31.5050   26.2050 C   0  0  0  0  0  1  0  0  0  0  0  0
  -27.0060  -30.3720   24.7230 C   0  0  0  0  0  1  0  0  0  0  0  0
  -27.5830  -32.5420   25.7780 C   0  0  0  0  0  1  0  0  0  0  0  0
  -25.5860  -33.9180   24.1920 N   0  0  0  0  0  0  0  0  0  0  0  0
  -25.9110  -34.9720   23.4310 C   0  0  0  0  0  0  0  0  0  0  0  0
  -26.5760  -34.8700   22.3950 O   0  0  0  0  0  0  0  0  0  0  0  0
  -24.9970  -34.0700   24.9970 H   0  0  0  0  0  0  0  0  0  0  0  0
  -24.1770  -36.7590   23.0880 C   0  0  0  0  0  1  0  0  0  0  0  0
  -25.4240  -36.3580   23.8920 C   0  0  0  0  0  3  0  0  0  0  0  0
  -27.5630  -37.2450   24.7060 C   0  0  0  0  0  1  0  0  0  0  0  0
  -26.4520  -37.4140   23.7730 N   0  0  0  0  0  0  0  0  0  0  0  0
  -26.0450  -38.3330   23.9280 H   0  0  0  0  0  0  0  0  0  0  0  0
  -30.5480  -19.5560   20.9260 C   0  0  0  0  0  2  0  0  0  0  0  0
  -29.8440  -18.2680   21.1700 N   0  0  0  0  0  4  0  0  0  0  0  0
  -28.9710  -18.2780   20.6670 H   0  0  0  0  0  0  0  0  0  0  0  0
  -29.6350  -18.2030   22.1540 H   0  0  0  0  0  0  0  0  0  0  0  0
  -30.6330  -17.0670   20.7670 C   0  0  0  0  0  2  0  0  0  0  0  0
  -29.9840  -15.6980   21.1380 C   0  0  0  0  0  2  0  0  0  0  0  0
  -30.6650  -14.4880   20.4470 C   0  0  0  0  0  0  0  0  0  0  0  0
  -30.3570  -12.3430   19.2590 C   0  0  0  0  0  2  0  0  0  0  0  0
  -29.4060  -12.5650   18.0630 C   0  0  0  0  0  2  0  0  0  0  0  0
  -27.9350  -12.4200   18.5030 C   0  0  0  0  0  2  0  0  0  0  0  0
  -27.6080  -13.2440   19.7750 C   0  0  0  0  0  3  0  0  0  0  0  0
  -28.6720  -13.0170   20.8740 C   0  0  0  0  0  2  0  0  0  0  0  0
  -29.9920  -13.3140   20.3010 N   0  0  0  0  0  0  0  0  0  0  0  0
  -31.7790  -14.6630   19.9430 O   0  0  0  0  0  0  0  0  0  0  0  0
  -25.2100  -13.8460   20.4940 C   0  0  0  0  0  0  0  0  0  0  0  0
  -24.1470  -13.0720   20.8720 C   0  0  0  0  0  0  0  0  0  0  0  0
  -24.6140  -11.7210   20.8470 C   0  0  0  0  0  0  0  0  0  0  0  0
  -26.2580  -12.9680   20.2620 N   0  0  0  0  0  0  0  0  0  0  0  0
  -25.9030  -11.6850   20.5320 N   0  0  0  0  0  0  0  0  0  0  0  0
  -23.8940  -10.4570   21.0460 C   0  0  0  0  0  0  0  0  0  0  0  0
  -24.3470   -9.4870   21.9660 C   0  0  0  0  0  3  0  0  0  0  0  0
  -23.6290   -8.2860   22.1530 C   0  0  0  0  0  3  0  0  0  0  0  0
  -22.4420   -8.0480   21.4200 C   0  0  0  0  0  0  0  0  0  0  0  0
  -22.0080   -9.0070   20.4890 C   0  0  0  0  0  3  0  0  0  0  0  0
  -22.7270  -10.1990   20.2990 C   0  0  0  0  0  3  0  0  0  0  0  0
  -21.6930   -6.9010   21.5180 O   0  0  0  0  0  0  0  0  0  0  0  0
  -21.6820   -6.1430   22.6610 C   0  0  0  0  0  0  0  0  0  0  0  0
  -21.3110   -6.6840   23.9110 C   0  0  0  0  0  3  0  0  0  0  0  0
  -21.2480   -5.8520   25.0480 C   0  0  0  0  0  3  0  0  0  0  0  0
  -21.5450   -4.4810   24.9350 C   0  0  0  0  0  0  0  0  0  0  0  0
  -21.9110   -3.9400   23.6900 C   0  0  0  0  0  3  0  0  0  0  0  0
  -21.9760   -4.7680   22.5550 C   0  0  0  0  0  0  0  0  0  0  0  0
  -22.3080   -4.2370   21.3540 F   0  0  0  0  0  0  0  0  0  0  0  0
  -21.4780   -3.6800   26.0240 F   0  0  0  0  0  0  0  0  0  0  0  0
  -22.7490  -13.5440   21.1480 C   0  0  0  0  0  0  0  0  0  0  0  0
  -22.0280  -12.8490   22.0220 N   0  0  0  0  0  0  0  0  0  0  0  0
  -22.3030  -14.5640   20.6250 O   0  0  0  0  0  0  0  0  0  0  0  0
  -22.4000  -12.0240   22.4670 H   0  0  0  0  0  0  0  0  0  0  0  0
  -21.0900  -13.1480   22.2490 H   0  0  0  0  0  0  0  0  0  0  0  0
  -25.3690  -15.2160   20.3080 N   0  0  0  0  0  0  0  0  0  0  0  0
  -24.5980  -15.8670   20.4100 H   0  0  0  0  0  0  0  0  0  0  0  0
  -26.2120  -15.6520   19.9560 H   0  0  0  0  0  0  0  0  0  0  0  0
  1  3  1  0
  1  2  2  0
  4  5  1  0
  4  3  2  0
  6  8  1  0
  6  5  1  0
  7 18  2  0
  8 13  1  0
  9 17  1  0
  9 19  1  0
 10 16  1  0
 10 12  1  0
 11 17  1  0
 12 11  1  0
 13 12  2  0
 14 15  1  0
 14  8  2  0
 15 10  2  0
 16  9  1  0
 17  7  1  0
 19 21  2  0
 20 19  1  0
 22 20  1  0
 23 32  2  0
 23 28  1  0
 24 20  1  0
 24 28  1  0
 25 24  1  0
 26 27  1  0
 26 25  1  0
 27 23  1  0
 28 29  2  0
 29 30  1  0
 31 30  2  0
 32 31  1  0
 33  7  1  0
 33 38  1  0
 33 34  1  0
 34 37  1  1
 34 35  1  0
 36 34  1  0
 38 41  1  0
 39 43  1  0
 39 38  1  0
 40 39  2  0
 43 42  1  0
 45 43  1  0
 45 46  1  0
 45 44  1  0
 47 48  1  0
 47  2  1  0
 48 50  1  0
 49 48  1  0
 51 52  1  0
 51 48  1  0
 53 52  1  0
 54 59  1  0
 55 56  1  0
 55 54  1  0
 57 56  1  0
 57 64  1  0
 57 58  1  0
 59 53  1  0
 59 58  1  0
 60 53  2  0
 61 62  2  0
 62 81  1  0
 63 62  1  0
 63 66  1  0
 64 61  1  0
 64 65  1  0
 65 63  2  0
 66 67  1  0
 67 68  2  0
 69 72  1  0
 69 68  1  0
 70 69  2  0
 71 70  1  0
 71 66  2  0
 72 73  1  0
 73 74  1  0
 74 75  2  0
 76 75  1  0
 76 80  1  0
 77 76  2  0
 78 73  2  0
 78 77  1  0
 79 78  1  0
 81 82  1  0
 82 85  1  0
 82 84  1  0
 83 81  2  0
 86 87  1  0
 86 61  1  0
 88 86  1  0
M  ISO  4   5 101   6 101  52 100  53 100
M  END
>  <TORSDO>  (95) 
F 22

>  <SCORE>  (95) 
-13.076

>  <name>  (95) 
95

>  <ligand_id>  (95) 
95

>  <original_smiles>  (95) 
[H]C(C([H])=C([H])C([H])([H])[N+]([H])([H])C([H])([H])C([H])([H])C(=O)N1C([H])([H])C([H])([H])C([H])([H])C([H])(n2nc(-c3c([H])c([H])c(Oc4c([H])c([H])c(F)c([H])c4F)c([H])c3[H])c(C(=O)N([H])[H])c2N([H])[H])C1([H])[H])=C([H])C([H])([H])Oc1c([H])c([H])c2c(c1[H])C([H])([H])N(C(=O)C([H])(N([H])C(=O)C([H])(N([H])C([H])([H])[H])C([H])([H])[H])C(C([H])([H])[H])(C([H])([H])[H])C([H])([H])[H])C([H])(C(=O)N([H])C1([H])c3c([H])c([H])c([H])c([H])c3C([H])([H])C([H])([H])C1([H])[H])C2([H])[H]

>  <smiles>  (95) 
[H]C(C([H])=C([H])C([H])([H])[N+]([H])([H])C([H])([H])C([H])([H])C(=O)N1C([H])([H])C([H])([H])C([H])([H])C([H])(n2nc(-c3c([H])c([H])c(Oc4c([H])c([H])c(F)c([H])c4F)c([H])c3[H])c(C(=O)N([H])[H])c2N([H])[H])C1([H])[H])=C([H])C([H])([H])Oc1c([H])c([H])c2c(c1[H])C([H])([H])N(C(=O)C([H])(N([H])C(=O)C([H])(N([H])C([H])([H])[H])C([H])([H])[H])C(C([H])([H])[H])(C([H])([H])[H])C([H])([H])[H])C([H])(C(=O)N([H])C1([H])c3c([H])c([H])c([H])c([H])c3C([H])([H])C([H])([H])C1([H])[H])C2([H])[H]

$$$$
96:0:0
     RDKit          3D

 98107  0  0  1  0  0  0  0  0999 V2000
  -29.8100  -24.9630   22.0400 C   0  0  0  0  0  0  0  0  0  0  0  0
  -30.3260  -23.6110   22.5470 C   0  0  0  0  0  2  0  0  0  0  0  0
  -31.4440  -23.2260   20.3570 C   0  0  0  0  0  2  0  0  0  0  0  0
  -30.8250  -24.5120   19.7850 C   0  0  0  0  0  2  0  0  0  0  0  0
  -30.5080  -22.6050   21.3970 C   0  0  0  0  0  3  0  0  0  0  0  0
  -30.0450  -25.3120   20.7490 N   0  0  0  0  0  0  0  0  0  0  0  0
  -29.1720  -25.6810   22.8160 O   0  0  0  0  0  0  0  0  0  0  0  0
  -31.9630  -19.8980   23.6860 C   0  0  0  0  0  3  0  0  0  0  0  0
  -31.8640  -18.7420   22.8990 C   0  0  0  0  0  3  0  0  0  0  0  0
  -31.5170  -21.1290   23.1760 C   0  0  0  0  0  3  0  0  0  0  0  0
  -31.3290  -18.8080   21.5950 C   0  0  0  0  0  0  0  0  0  0  0  0
  -30.9790  -21.2260   21.8740 C   0  0  0  0  0  0  0  0  0  0  0  0
  -30.8910  -20.0550   21.0600 C   0  0  0  0  0  0  0  0  0  0  0  0
  -31.1880  -17.5260   20.8590 C   0  0  0  0  0  0  0  0  0  0  0  0
  -30.0950  -17.0080   20.6120 O   0  0  0  0  0  0  0  0  0  0  0  0
  -32.4890  -16.8800   20.3810 C   0  0  0  0  0  2  0  0  0  0  0  0
  -32.6060  -16.8550   18.8420 C   0  0  0  0  0  2  0  0  0  0  0  0
  -33.8320  -16.0990   18.3200 C   0  0  0  0  0  0  0  0  0  0  0  0
  -35.6320  -15.9080   16.6310 C   0  0  0  0  0  2  0  0  0  0  0  0
  -36.9060  -16.6620   17.0480 C   0  0  0  0  0  2  0  0  0  0  0  0
  -36.8230  -18.1460   16.6410 C   0  0  0  0  0  2  0  0  0  0  0  0
  -35.4940  -18.8090   17.0860 C   0  0  0  0  0  3  0  0  0  0  0  0
  -34.2870  -17.9380   16.6720 C   0  0  0  0  0  2  0  0  0  0  0  0
  -34.4770  -16.5890   17.2320 N   0  0  0  0  0  0  0  0  0  0  0  0
  -34.1800  -15.0550   18.8840 O   0  0  0  0  0  0  0  0  0  0  0  0
  -35.2290  -21.3670   17.2600 C   0  0  0  0  0  0  0  0  0  0  0  0
  -35.2450  -22.3530   16.3100 C   0  0  0  0  0  0  0  0  0  0  0  0
  -35.4190  -21.6910   15.0570 C   0  0  0  0  0  0  0  0  0  0  0  0
  -35.3800  -20.1730   16.5710 N   0  0  0  0  0  0  0  0  0  0  0  0
  -35.4440  -20.3760   15.2300 N   0  0  0  0  0  0  0  0  0  0  0  0
  -35.6210  -22.2360   13.7080 C   0  0  0  0  0  0  0  0  0  0  0  0
  -34.7280  -21.9440   12.6540 C   0  0  0  0  0  3  0  0  0  0  0  0
  -34.9340  -22.4930   11.3700 C   0  0  0  0  0  3  0  0  0  0  0  0
  -36.0380  -23.3450   11.1300 C   0  0  0  0  0  0  0  0  0  0  0  0
  -36.9360  -23.6140   12.1780 C   0  0  0  0  0  3  0  0  0  0  0  0
  -36.7330  -23.0620   13.4540 C   0  0  0  0  0  3  0  0  0  0  0  0
  -36.3310  -23.9030    9.9090 O   0  0  0  0  0  0  0  0  0  0  0  0
  -35.3430  -24.3020    9.0440 C   0  0  0  0  0  0  0  0  0  0  0  0
  -34.3730  -25.2590    9.4130 C   0  0  0  0  0  3  0  0  0  0  0  0
  -33.4180  -25.6920    8.4700 C   0  0  0  0  0  3  0  0  0  0  0  0
  -33.4380  -25.1780    7.1590 C   0  0  0  0  0  0  0  0  0  0  0  0
  -34.4070  -24.2300    6.7900 C   0  0  0  0  0  3  0  0  0  0  0  0
  -35.3590  -23.7950    7.7290 C   0  0  0  0  0  0  0  0  0  0  0  0
  -36.3040  -22.8970    7.3620 F   0  0  0  0  0  0  0  0  0  0  0  0
  -32.5270  -25.6000    6.2520 F   0  0  0  0  0  0  0  0  0  0  0  0
  -35.1980  -23.8350   16.5560 C   0  0  0  0  0  0  0  0  0  0  0  0
  -34.6340  -24.5930   15.6230 N   0  0  0  0  0  0  0  0  0  0  0  0
  -35.6200  -24.3230   17.6030 O   0  0  0  0  0  0  0  0  0  0  0  0
  -34.2690  -24.1900   14.7720 H   0  0  0  0  0  0  0  0  0  0  0  0
  -34.5660  -25.5910   15.7610 H   0  0  0  0  0  0  0  0  0  0  0  0
  -35.1150  -21.3850   18.6470 N   0  0  0  0  0  0  0  0  0  0  0  0
  -35.0560  -22.2480   19.1760 H   0  0  0  0  0  0  0  0  0  0  0  0
  -35.1510  -20.5620   19.2360 H   0  0  0  0  0  0  0  0  0  0  0  0
  -28.8680  -20.5260   19.5720 C   0  0  0  0  0  1  0  0  0  0  0  0
  -30.3510  -20.1330   19.6240 C   0  0  0  0  0  2  0  0  0  0  0  0
  -29.3850  -26.4760   20.1460 C   0  0  0  0  0  2  0  0  0  0  0  0
  -27.8930  -26.1920   19.8880 C   0  0  0  0  0  2  0  0  0  0  0  0
  -27.4550  -26.9510   18.7710 O   0  0  0  0  0  0  0  0  0  0  0  0
  -23.7720  -31.5430   22.7660 C   0  0  0  0  0  0  0  0  0  0  0  0
  -26.2960  -27.6470   18.9720 C   0  0  0  0  0  0  0  0  0  0  0  0
  -22.5090  -30.4230   20.9550 C   0  0  0  0  0  3  0  0  0  0  0  0
  -23.9130  -29.1110   19.2780 C   0  0  0  0  0  0  0  0  0  0  0  0
  -25.0280  -30.7960   20.7540 C   0  0  0  0  0  2  0  0  0  0  0  0
  -25.0850  -29.5380   19.9150 C   0  0  0  0  0  0  0  0  0  0  0  0
  -26.2810  -28.8090   19.7690 C   0  0  0  0  0  3  0  0  0  0  0  0
  -25.1160  -27.2190   18.3340 C   0  0  0  0  0  3  0  0  0  0  0  0
  -23.9180  -27.9460   18.4890 C   0  0  0  0  0  3  0  0  0  0  0  0
  -22.6780  -29.9590   19.4840 C   0  0  0  0  0  2  0  0  0  0  0  0
  -23.7890  -30.9260   21.5510 N   0  0  0  0  0  0  0  0  0  0  0  0
  -22.7080  -31.7380   23.3700 O   0  0  0  0  0  0  0  0  0  0  0  0
  -21.8690  -29.2710   21.7620 C   0  0  0  0  0  0  0  0  0  0  0  0
  -20.5280  -29.2250   21.7750 N   0  0  0  0  0  0  0  0  0  0  0  0
  -22.5710  -28.4310   22.3320 O   0  0  0  0  0  0  0  0  0  0  0  0
  -20.0260  -29.9560   21.2900 H   0  0  0  0  0  0  0  0  0  0  0  0
  -17.1310  -28.3260   22.6140 C   0  0  0  0  0  0  0  0  0  0  0  0
  -19.7080  -28.2110   22.4350 C   0  0  0  0  0  3  0  0  0  0  0  0
  -19.4870  -26.9880   21.5140 C   0  0  0  0  0  2  0  0  0  0  0  0
  -18.2000  -27.0790   20.6880 C   0  0  0  0  0  2  0  0  0  0  0  0
  -16.9800  -27.1980   21.6060 C   0  0  0  0  0  2  0  0  0  0  0  0
  -18.4120  -28.8120   22.9910 C   0  0  0  0  0  0  0  0  0  0  0  0
  -18.4960  -29.8850   23.9040 C   0  0  0  0  0  3  0  0  0  0  0  0
  -17.3320  -30.4680   24.4390 C   0  0  0  0  0  3  0  0  0  0  0  0
  -16.0680  -29.9720   24.0760 C   0  0  0  0  0  3  0  0  0  0  0  0
  -15.9700  -28.9010   23.1690 C   0  0  0  0  0  3  0  0  0  0  0  0
  -25.0830  -32.0550   23.4420 C   0  0  0  0  0  3  0  0  0  0  0  0
  -24.9200  -33.4940   23.6870 N   0  0  0  0  0  0  0  0  0  0  0  0
  -25.2640  -34.4560   22.8190 C   0  0  0  0  0  0  0  0  0  0  0  0
  -25.8250  -34.2220   21.7450 O   0  0  0  0  0  0  0  0  0  0  0  0
  -24.4180  -33.7570   24.5230 H   0  0  0  0  0  0  0  0  0  0  0  0
  -23.5010  -36.2470   22.7560 C   0  0  0  0  0  1  0  0  0  0  0  0
  -24.9310  -35.9090   23.2060 C   0  0  0  0  0  3  0  0  0  0  0  0
  -27.2580  -36.6780   23.0640 C   0  0  0  0  0  1  0  0  0  0  0  0
  -25.8780  -36.8980   22.6440 N   0  0  0  0  0  0  0  0  0  0  0  0
  -25.6110  -37.8420   22.9100 H   0  0  0  0  0  0  0  0  0  0  0  0
  -25.4310  -31.2950   24.7810 C   0  0  1  0  0  0  0  0  0  0  0  0
  -24.2460  -31.2020   25.7680 C   0  0  0  0  0  1  0  0  0  0  0  0
  -25.9110  -29.8550   24.4810 C   0  0  0  0  0  1  0  0  0  0  0  0
  -26.5980  -32.0110   25.5020 C   0  0  0  0  0  1  0  0  0  0  0  0
  1  2  1  0
  1  7  2  0
  3  5  1  0
  4  3  1  0
  4  6  1  0
  5 12  1  0
  5  2  1  0
  6  1  1  0
  9  8  2  0
 10  8  1  0
 11  9  1  0
 12 10  2  0
 13 11  2  0
 13 12  1  0
 14 11  1  0
 15 14  2  0
 16 14  1  0
 17 16  1  0
 18 17  1  0
 18 25  2  0
 19 20  1  0
 19 24  1  0
 21 20  1  0
 21 22  1  0
 22 29  1  0
 23 22  1  0
 23 24  1  0
 24 18  1  0
 26 51  1  0
 27 46  1  0
 27 26  2  0
 28 30  2  0
 28 27  1  0
 29 26  1  0
 30 29  1  0
 31 28  1  0
 32 31  2  0
 33 32  1  0
 34 33  2  0
 34 35  1  0
 35 36  2  0
 36 31  1  0
 37 34  1  0
 38 39  1  0
 38 37  1  0
 40 39  2  0
 41 40  1  0
 42 41  2  0
 42 43  1  0
 43 38  2  0
 44 43  1  0
 45 41  1  0
 46 48  2  0
 47 50  1  0
 47 46  1  0
 49 47  1  0
 51 52  1  0
 51 53  1  0
 54 55  1  0
 55 13  1  0
 56  6  1  0
 57 56  1  0
 58 60  1  0
 58 57  1  0
 59 70  2  0
 60 65  1  0
 61 69  1  0
 61 71  1  0
 62 68  1  0
 62 64  1  0
 63 69  1  0
 64 63  1  0
 65 64  2  0
 66 67  1  0
 66 60  2  0
 67 62  2  0
 68 61  1  0
 69 59  1  0
 71 72  1  0
 71 73  2  0
 74 72  1  0
 75 80  2  0
 75 84  1  0
 76 72  1  0
 76 80  1  0
 77 76  1  0
 78 77  1  0
 78 79  1  0
 79 75  1  0
 80 81  1  0
 81 82  2  0
 83 82  1  0
 84 83  2  0
 85 59  1  0
 85 86  1  0
 85 95  1  0
 86 89  1  0
 87 91  1  0
 87 86  1  0
 88 87  2  0
 91 90  1  0
 93 94  1  0
 93 92  1  0
 93 91  1  0
 95 98  1  1
 95 96  1  0
 97 95  1  0
M  ISO  4  17 100  18 100  57 101  58 101
M  END
>  <TORSDO>  (96) 
F 23

>  <SCORE>  (96) 
-2.025

>  <name>  (96) 
96

>  <ligand_id>  (96) 
96

>  <original_smiles>  (96) 
[H]c1c([H])c([H])c2c(c1[H])C([H])([H])C([H])([H])C([H])([H])C2([H])N([H])C(=O)C1([H])N(C(=O)C([H])(N([H])C(=O)C([H])(N([H])C([H])([H])[H])C([H])([H])[H])C(C([H])([H])[H])(C([H])([H])[H])C([H])([H])[H])C([H])([H])c2c([H])c(OC([H])([H])C([H])([H])N3C(=O)C([H])([H])C([H])(c4c([H])c([H])c([H])c(C(=O)C([H])([H])C([H])([H])C(=O)N5C([H])([H])C([H])([H])C([H])([H])C([H])(n6nc(-c7c([H])c([H])c(Oc8c([H])c([H])c(F)c([H])c8F)c([H])c7[H])c(C(=O)N([H])[H])c6N([H])[H])C5([H])[H])c4C([H])([H])C([H])([H])[H])C([H])([H])C3([H])[H])c([H])c([H])c2C1([H])[H]

>  <smiles>  (96) 
[H]c1c([H])c([H])c2c(c1[H])C([H])([H])C([H])([H])C([H])([H])C2([H])N([H])C(=O)C1([H])N(C(=O)C([H])(N([H])C(=O)C([H])(N([H])C([H])([H])[H])C([H])([H])[H])C(C([H])([H])[H])(C([H])([H])[H])C([H])([H])[H])C([H])([H])c2c([H])c(OC([H])([H])C([H])([H])N3C(=O)C([H])([H])C([H])(c4c([H])c([H])c([H])c(C(=O)C([H])([H])C([H])([H])C(=O)N5C([H])([H])C([H])([H])C([H])([H])C([H])(n6nc(-c7c([H])c([H])c(Oc8c([H])c([H])c(F)c([H])c8F)c([H])c7[H])c(C(=O)N([H])[H])c6N([H])[H])C5([H])[H])c4C([H])([H])C([H])([H])[H])C([H])([H])C3([H])[H])c([H])c([H])c2C1([H])[H]

$$$$
97:0:0
     RDKit          3D

 93101  0  0  1  0  0  0  0  0999 V2000
  -27.5320  -19.9870   20.4820 C   0  0  0  0  0  3  0  0  0  0  0  0
  -28.0330  -18.7010   20.7460 C   0  0  0  0  0  3  0  0  0  0  0  0
  -29.7460  -20.9220   20.8450 C   0  0  0  0  0  3  0  0  0  0  0  0
  -28.3800  -21.1140   20.5290 C   0  0  0  0  0  0  0  0  0  0  0  0
  -29.3910  -18.5070   21.0750 C   0  0  0  0  0  0  0  0  0  0  0  0
  -30.2530  -19.6340   21.1350 C   0  0  0  0  0  0  0  0  0  0  0  0
  -31.7200  -19.5100   21.5140 C   0  0  0  0  0  1  0  0  0  0  0  0
  -27.8040  -22.4640   20.2510 C   0  0  0  0  0  0  0  0  0  0  0  0
  -26.5870  -22.6070   20.0830 O   0  0  0  0  0  0  0  0  0  0  0  0
  -28.7260  -23.6120   20.1370 C   0  0  0  0  0  3  0  0  0  0  0  0
  -28.2770  -24.8740   20.2720 C   0  0  0  0  0  3  0  0  0  0  0  0
  -29.1160  -26.1280   20.1170 C   0  0  0  0  0  2  0  0  0  0  0  0
  -28.7040  -26.8830   18.9800 O   0  0  0  0  0  0  0  0  0  0  0  0
  -24.6660  -31.1960   22.9370 C   0  0  0  0  0  0  0  0  0  0  0  0
  -27.5020  -27.5220   19.1390 C   0  0  0  0  0  0  0  0  0  0  0  0
  -23.5070  -30.0100   21.0980 C   0  0  0  0  0  3  0  0  0  0  0  0
  -25.0180  -28.8200   19.4250 C   0  0  0  0  0  0  0  0  0  0  0  0
  -25.9990  -30.5580   20.9350 C   0  0  0  0  0  2  0  0  0  0  0  0
  -26.1500  -29.3190   20.0810 C   0  0  0  0  0  0  0  0  0  0  0  0
  -27.3960  -28.6740   19.9440 C   0  0  0  0  0  3  0  0  0  0  0  0
  -26.3610  -27.0310   18.4720 C   0  0  0  0  0  3  0  0  0  0  0  0
  -25.1150  -27.6690   18.6200 C   0  0  0  0  0  3  0  0  0  0  0  0
  -23.7240  -29.5760   19.6240 C   0  0  0  0  0  2  0  0  0  0  0  0
  -24.7410  -30.5950   21.7160 N   0  0  0  0  0  0  0  0  0  0  0  0
  -23.5850  -31.3080   23.5300 O   0  0  0  0  0  0  0  0  0  0  0  0
  -22.9400  -28.8080   21.8870 C   0  0  0  0  0  0  0  0  0  0  0  0
  -21.6220  -28.5810   21.7630 N   0  0  0  0  0  0  0  0  0  0  0  0
  -23.6800  -28.0910   22.5640 O   0  0  0  0  0  0  0  0  0  0  0  0
  -21.0830  -29.2190   21.1950 H   0  0  0  0  0  0  0  0  0  0  0  0
  -18.3290  -27.1410   22.1210 C   0  0  0  0  0  0  0  0  0  0  0  0
  -20.8770  -27.4850   22.3830 C   0  0  0  0  0  3  0  0  0  0  0  0
  -21.0340  -26.1780   21.5730 C   0  0  0  0  0  2  0  0  0  0  0  0
  -19.9220  -25.9710   20.5410 C   0  0  0  0  0  2  0  0  0  0  0  0
  -18.5530  -25.9340   21.2270 C   0  0  0  0  0  2  0  0  0  0  0  0
  -19.4200  -27.8790   22.6510 C   0  0  0  0  0  0  0  0  0  0  0  0
  -19.1570  -29.0150   23.4470 C   0  0  0  0  0  3  0  0  0  0  0  0
  -17.8340  -29.4120   23.7210 C   0  0  0  0  0  3  0  0  0  0  0  0
  -16.7570  -28.6680   23.2060 C   0  0  0  0  0  3  0  0  0  0  0  0
  -17.0060  -27.5340   22.4120 C   0  0  0  0  0  3  0  0  0  0  0  0
  -25.9300  -31.7920   23.6340 C   0  0  0  0  0  3  0  0  0  0  0  0
  -25.5890  -33.1500   24.0770 N   0  0  0  0  0  0  0  0  0  0  0  0
  -25.9710  -34.2730   23.4540 C   0  0  0  0  0  0  0  0  0  0  0  0
  -26.7180  -34.2720   22.4720 O   0  0  0  0  0  0  0  0  0  0  0  0
  -24.9350  -33.2250   24.8430 H   0  0  0  0  0  0  0  0  0  0  0  0
  -24.3000  -36.1200   23.1130 C   0  0  0  0  0  1  0  0  0  0  0  0
  -25.4400  -35.6070   24.0090 C   0  0  0  0  0  3  0  0  0  0  0  0
  -27.4660  -36.3580   25.1720 C   0  0  0  0  0  1  0  0  0  0  0  0
  -26.4820  -36.6490   24.1340 N   0  0  0  0  0  0  0  0  0  0  0  0
  -26.0630  -37.5540   24.3370 H   0  0  0  0  0  0  0  0  0  0  0  0
  -26.4420  -30.9210   24.8460 C   0  0  1  0  0  0  0  0  0  0  0  0
  -25.3380  -30.5790   25.8730 C   0  0  0  0  0  1  0  0  0  0  0  0
  -27.0490  -29.5900   24.3440 C   0  0  0  0  0  1  0  0  0  0  0  0
  -27.5720  -31.6700   25.5890 C   0  0  0  0  0  1  0  0  0  0  0  0
  -29.8610  -17.0890   21.3790 C   0  0  0  0  0  2  0  0  0  0  0  0
  -30.8620  -16.5310   20.3490 C   0  0  0  0  0  2  0  0  0  0  0  0
  -31.1990  -14.3030   19.4170 C   0  0  0  0  0  0  0  0  0  0  0  0
  -30.6160  -12.1620   18.3310 C   0  0  0  0  0  2  0  0  0  0  0  0
  -29.5130  -12.3310   17.2710 C   0  0  0  0  0  2  0  0  0  0  0  0
  -28.1200  -12.2410   17.9180 C   0  0  0  0  0  2  0  0  0  0  0  0
  -27.9820  -13.1610   19.1580 C   0  0  0  0  0  3  0  0  0  0  0  0
  -29.1750  -12.9740   20.1210 C   0  0  0  0  0  2  0  0  0  0  0  0
  -30.4300  -13.1820   19.3730 N   0  0  0  0  0  0  0  0  0  0  0  0
  -32.0280  -14.5930   18.5460 O   0  0  0  0  0  0  0  0  0  0  0  0
  -31.7380  -14.6840   21.7260 C   0  0  0  0  0  1  0  0  0  0  0  0
  -31.0290  -15.0800   20.5070 N   0  0  0  0  0  0  0  0  0  0  0  0
  -25.7900  -13.8770   20.3070 C   0  0  0  0  0  0  0  0  0  0  0  0
  -24.7370  -13.1530   20.7980 C   0  0  0  0  0  0  0  0  0  0  0  0
  -25.0690  -11.7800   20.5870 C   0  0  0  0  0  0  0  0  0  0  0  0
  -26.7050  -12.9470   19.8370 N   0  0  0  0  0  0  0  0  0  0  0  0
  -26.2800  -11.6760   20.0560 N   0  0  0  0  0  0  0  0  0  0  0  0
  -24.2800  -10.5610   20.8070 C   0  0  0  0  0  0  0  0  0  0  0  0
  -24.7010   -9.5600   21.7090 C   0  0  0  0  0  3  0  0  0  0  0  0
  -23.9160   -8.4050   21.9170 C   0  0  0  0  0  3  0  0  0  0  0  0
  -22.6940   -8.2430   21.2200 C   0  0  0  0  0  0  0  0  0  0  0  0
  -22.2920   -9.2320   20.3060 C   0  0  0  0  0  3  0  0  0  0  0  0
  -23.0770  -10.3780   20.0960 C   0  0  0  0  0  3  0  0  0  0  0  0
  -21.8800   -7.1430   21.3390 O   0  0  0  0  0  0  0  0  0  0  0  0
  -21.7510   -6.4680   22.5260 C   0  0  0  0  0  0  0  0  0  0  0  0
  -21.2950   -7.1050   23.7010 C   0  0  0  0  0  3  0  0  0  0  0  0
  -21.1100   -6.3570   24.8810 C   0  0  0  0  0  3  0  0  0  0  0  0
  -21.3720   -4.9740   24.8870 C   0  0  0  0  0  0  0  0  0  0  0  0
  -21.8230   -4.3370   23.7170 C   0  0  0  0  0  3  0  0  0  0  0  0
  -22.0080   -5.0820   22.5390 C   0  0  0  0  0  0  0  0  0  0  0  0
  -22.4220   -4.4590   21.4090 F   0  0  0  0  0  0  0  0  0  0  0  0
  -21.1880   -4.2530   26.0180 F   0  0  0  0  0  0  0  0  0  0  0  0
  -23.4510  -13.7030   21.3470 C   0  0  0  0  0  0  0  0  0  0  0  0
  -22.8410  -13.0000   22.2960 N   0  0  0  0  0  0  0  0  0  0  0  0
  -23.0060  -14.7850   20.9700 O   0  0  0  0  0  0  0  0  0  0  0  0
  -23.2180  -12.1210   22.6170 H   0  0  0  0  0  0  0  0  0  0  0  0
  -21.9850  -13.3460   22.7060 H   0  0  0  0  0  0  0  0  0  0  0  0
  -26.0400  -15.2420   20.2010 N   0  0  0  0  0  0  0  0  0  0  0  0
  -25.3560  -15.9390   20.4740 H   0  0  0  0  0  0  0  0  0  0  0  0
  -26.8420  -15.6340   19.7280 H   0  0  0  0  0  0  0  0  0  0  0  0
  1  4  2  0
  1  2  1  0
  2  5  2  0
  3  6  2  0
  4  3  1  0
  5  6  1  0
  5 54  1  0
  6  7  1  0
  8  4  1  0
  9  8  2  0
 10  8  1  0
 10 11  2  0
 12 11  1  0
 13 15  1  0
 13 12  1  0
 14 25  2  0
 15 20  1  0
 16 24  1  0
 16 26  1  0
 17 23  1  0
 17 19  1  0
 18 24  1  0
 19 18  1  0
 20 19  2  0
 21 22  1  0
 21 15  2  0
 22 17  2  0
 23 16  1  0
 24 14  1  0
 26 28  2  0
 27 26  1  0
 29 27  1  0
 30 39  2  0
 30 35  1  0
 31 27  1  0
 31 35  1  0
 32 31  1  0
 33 34  1  0
 33 32  1  0
 34 30  1  0
 35 36  2  0
 36 37  1  0
 38 37  2  0
 39 38  1  0
 40 14  1  0
 40 41  1  0
 40 50  1  0
 41 44  1  0
 42 46  1  0
 42 41  1  0
 43 42  2  0
 46 45  1  0
 46 48  1  0
 48 49  1  0
 48 47  1  0
 50 53  1  1
 50 51  1  0
 52 50  1  0
 55 65  1  0
 55 54  1  0
 56 65  1  0
 57 62  1  0
 58 59  1  0
 58 57  1  0
 60 59  1  0
 60 69  1  0
 60 61  1  0
 62 56  1  0
 62 61  1  0
 63 56  2  0
 65 64  1  0
 66 67  2  0
 67 86  1  0
 68 67  1  0
 68 71  1  0
 69 70  1  0
 69 66  1  0
 70 68  2  0
 71 72  1  0
 72 73  2  0
 74 77  1  0
 74 73  1  0
 75 74  2  0
 76 75  1  0
 76 71  2  0
 77 78  1  0
 78 83  2  0
 78 79  1  0
 79 80  2  0
 80 81  1  0
 81 85  1  0
 82 81  2  0
 83 82  1  0
 84 83  1  0
 86 87  1  0
 87 89  1  0
 87 90  1  0
 88 86  2  0
 91 66  1  0
 91 92  1  0
 93 91  1  0
M  ISO  4  12 101  13 101  56 100  65 100
M  END
>  <TORSDO>  (97) 
F 21

>  <SCORE>  (97) 
-9.827

>  <name>  (97) 
97

>  <ligand_id>  (97) 
97

>  <original_smiles>  (97) 
[H]C(C(=O)c1c([H])c([H])c(C([H])([H])C([H])([H])N(C(=O)N2C([H])([H])C([H])([H])C([H])([H])C([H])(n3nc(-c4c([H])c([H])c(Oc5c([H])c([H])c(F)c([H])c5F)c([H])c4[H])c(C(=O)N([H])[H])c3N([H])[H])C2([H])[H])C([H])([H])[H])c(C([H])([H])[H])c1[H])=C([H])C([H])([H])Oc1c([H])c([H])c2c(c1[H])C([H])([H])N(C(=O)C([H])(N([H])C(=O)C([H])(N([H])C([H])([H])[H])C([H])([H])[H])C(C([H])([H])[H])(C([H])([H])[H])C([H])([H])[H])C([H])(C(=O)N([H])C1([H])c3c([H])c([H])c([H])c([H])c3C([H])([H])C([H])([H])C1([H])[H])C2([H])[H]

>  <smiles>  (97) 
[H]C(C(=O)c1c([H])c([H])c(C([H])([H])C([H])([H])N(C(=O)N2C([H])([H])C([H])([H])C([H])([H])C([H])(n3nc(-c4c([H])c([H])c(Oc5c([H])c([H])c(F)c([H])c5F)c([H])c4[H])c(C(=O)N([H])[H])c3N([H])[H])C2([H])[H])C([H])([H])[H])c(C([H])([H])[H])c1[H])=C([H])C([H])([H])Oc1c([H])c([H])c2c(c1[H])C([H])([H])N(C(=O)C([H])(N([H])C(=O)C([H])(N([H])C([H])([H])[H])C([H])([H])[H])C(C([H])([H])[H])(C([H])([H])[H])C([H])([H])[H])C([H])(C(=O)N([H])C1([H])c3c([H])c([H])c([H])c([H])c3C([H])([H])C([H])([H])C1([H])[H])C2([H])[H]

$$$$
