0:0:0
     RDKit          3D

 95104  0  0  1  0  0  0  0  0999 V2000
  -29.8600  -19.3220   21.7690 C   0  0  0  0  0  3  0  0  0  0  0  0
  -29.7650  -20.4570   22.6030 C   0  0  0  0  0  3  0  0  0  0  0  0
  -29.6480  -20.7910   19.8400 C   0  0  0  0  0  3  0  0  0  0  0  0
  -29.8180  -19.4830   20.3720 C   0  0  0  0  0  0  0  0  0  0  0  0
  -29.5830  -21.9460   20.6580 C   0  0  0  0  0  0  0  0  0  0  0  0
  -29.6470  -21.7580   22.0610 C   0  0  0  0  0  0  0  0  0  0  0  0
  -29.5220  -16.6800   17.7400 C   0  0  0  0  0  2  0  0  0  0  0  0
  -28.8680  -17.7680   18.6190 C   0  0  0  0  0  2  0  0  0  0  0  0
  -30.9860  -16.5620   18.2250 C   0  0  0  0  0  2  0  0  0  0  0  0
  -30.0580  -18.3310   19.3890 C   0  0  0  0  0  3  0  0  0  0  0  0
  -30.9770  -17.1040   19.6740 C   0  0  0  0  0  3  0  0  0  0  0  0
  -31.2080  -14.8780   20.7370 C   0  0  0  0  0  0  0  0  0  0  0  0
  -30.9330  -12.6700   19.7110 C   0  0  0  0  0  2  0  0  0  0  0  0
  -30.0720  -12.8170   18.4360 C   0  0  0  0  0  2  0  0  0  0  0  0
  -28.5720  -12.7550   18.7740 C   0  0  0  0  0  2  0  0  0  0  0  0
  -28.1670  -13.6200   19.9990 C   0  0  0  0  0  3  0  0  0  0  0  0
  -29.1600  -13.4630   21.1730 C   0  0  0  0  0  2  0  0  0  0  0  0
  -30.5110  -13.7140   20.6560 N   0  0  0  0  0  0  0  0  0  0  0  0
  -32.4280  -14.9250   20.5770 O   0  0  0  0  0  0  0  0  0  0  0  0
  -30.4830  -16.0080   20.5590 N   0  0  0  0  0  0  0  0  0  0  0  0
  -29.4860  -15.9300   20.6810 H   0  0  0  0  0  0  0  0  0  0  0  0
  -25.7340  -14.2340   20.5540 C   0  0  0  0  0  0  0  0  0  0  0  0
  -24.6420  -13.4670   20.8570 C   0  0  0  0  0  0  0  0  0  0  0  0
  -25.1020  -12.1140   20.8740 C   0  0  0  0  0  0  0  0  0  0  0  0
  -26.7900  -13.3500   20.4030 N   0  0  0  0  0  0  0  0  0  0  0  0
  -26.4100  -12.0710   20.6580 N   0  0  0  0  0  0  0  0  0  0  0  0
  -24.3610  -10.8560   21.0280 C   0  0  0  0  0  0  0  0  0  0  0  0
  -24.7130   -9.9090   22.0140 C   0  0  0  0  0  3  0  0  0  0  0  0
  -23.9770   -8.7140   22.1540 C   0  0  0  0  0  3  0  0  0  0  0  0
  -22.8720   -8.4560   21.3070 C   0  0  0  0  0  0  0  0  0  0  0  0
  -22.5390   -9.3930   20.3120 C   0  0  0  0  0  3  0  0  0  0  0  0
  -23.2780  -10.5800   20.1700 C   0  0  0  0  0  3  0  0  0  0  0  0
  -22.1120   -7.3120   21.3560 O   0  0  0  0  0  0  0  0  0  0  0  0
  -21.9410   -6.6110   22.5230 C   0  0  0  0  0  0  0  0  0  0  0  0
  -21.3550   -7.1970   23.6660 C   0  0  0  0  0  3  0  0  0  0  0  0
  -21.1330   -6.4190   24.8210 C   0  0  0  0  0  3  0  0  0  0  0  0
  -21.4900   -5.0580   24.8320 C   0  0  0  0  0  0  0  0  0  0  0  0
  -22.0690   -4.4720   23.6930 C   0  0  0  0  0  3  0  0  0  0  0  0
  -22.2910   -5.2450   22.5410 C   0  0  0  0  0  0  0  0  0  0  0  0
  -22.8310   -4.6710   21.4400 F   0  0  0  0  0  0  0  0  0  0  0  0
  -21.2710   -4.3090   25.9380 F   0  0  0  0  0  0  0  0  0  0  0  0
  -23.2300  -13.9490   21.0240 C   0  0  0  0  0  0  0  0  0  0  0  0
  -22.4450  -13.2660   21.8510 N   0  0  0  0  0  0  0  0  0  0  0  0
  -22.8300  -14.9670   20.4590 O   0  0  0  0  0  0  0  0  0  0  0  0
  -22.7750  -12.4410   22.3270 H   0  0  0  0  0  0  0  0  0  0  0  0
  -21.4960  -13.5740   22.0100 H   0  0  0  0  0  0  0  0  0  0  0  0
  -25.9140  -15.6020   20.3730 N   0  0  0  0  0  0  0  0  0  0  0  0
  -25.1430  -16.2590   20.4320 H   0  0  0  0  0  0  0  0  0  0  0  0
  -26.7850  -16.0420   20.1090 H   0  0  0  0  0  0  0  0  0  0  0  0
  -29.6570  -22.8230   22.9130 O   0  0  0  0  0  0  0  0  0  0  0  0
  -29.7920  -22.5670   23.8200 H   0  0  0  0  0  0  0  0  0  0  0  0
  -29.6380  -23.3330   19.9720 C   0  0  0  0  0  2  0  0  0  0  0  0
  -28.6920  -24.4920   20.4170 C   0  0  0  0  0  2  0  0  0  0  0  0
  -28.9490  -25.7920   19.5920 C   0  0  0  0  0  2  0  0  0  0  0  0
  -28.7220  -27.0310   20.2870 O   0  0  0  0  0  0  0  0  0  0  0  0
  -24.6710  -32.0410   23.2990 C   0  0  0  0  0  0  0  0  0  0  0  0
  -27.5040  -27.6860   20.2400 C   0  0  0  0  0  0  0  0  0  0  0  0
  -23.5370  -30.6110   21.6300 C   0  0  0  0  0  3  0  0  0  0  0  0
  -25.0590  -29.1240   20.2210 C   0  0  0  0  0  0  0  0  0  0  0  0
  -26.0540  -31.0430   21.4810 C   0  0  0  0  0  2  0  0  0  0  0  0
  -26.1890  -29.6780   20.8330 C   0  0  0  0  0  0  0  0  0  0  0  0
  -27.4090  -28.9650   20.8410 C   0  0  0  0  0  3  0  0  0  0  0  0
  -26.3490  -27.1400   19.6360 C   0  0  0  0  0  3  0  0  0  0  0  0
  -25.1340  -27.8540   19.6230 C   0  0  0  0  0  3  0  0  0  0  0  0
  -23.7900  -29.9450   20.2510 C   0  0  0  0  0  2  0  0  0  0  0  0
  -24.7710  -31.2480   22.1940 N   0  0  0  0  0  0  0  0  0  0  0  0
  -23.5740  -32.2760   23.8230 O   0  0  0  0  0  0  0  0  0  0  0  0
  -22.9040  -29.5610   22.5730 C   0  0  0  0  0  0  0  0  0  0  0  0
  -21.5880  -29.3450   22.4270 N   0  0  0  0  0  0  0  0  0  0  0  0
  -23.5950  -28.9490   23.3910 O   0  0  0  0  0  0  0  0  0  0  0  0
  -21.0900  -29.8920   21.7390 H   0  0  0  0  0  0  0  0  0  0  0  0
  -18.2390  -28.0820   22.9030 C   0  0  0  0  0  0  0  0  0  0  0  0
  -20.7900  -28.3780   23.1790 C   0  0  0  0  0  3  0  0  0  0  0  0
  -20.9160  -26.9610   22.5720 C   0  0  0  0  0  2  0  0  0  0  0  0
  -19.8200  -26.6400   21.5530 C   0  0  0  0  0  2  0  0  0  0  0  0
  -18.4370  -26.7480   22.2020 C   0  0  0  0  0  2  0  0  0  0  0  0
  -19.3430  -28.8530   23.3490 C   0  0  0  0  0  0  0  0  0  0  0  0
  -19.1030  -30.1000   23.9650 C   0  0  0  0  0  3  0  0  0  0  0  0
  -17.7900  -30.5770   24.1400 C   0  0  0  0  0  3  0  0  0  0  0  0
  -16.6990  -29.8010   23.7110 C   0  0  0  0  0  3  0  0  0  0  0  0
  -16.9240  -28.5560   23.0980 C   0  0  0  0  0  3  0  0  0  0  0  0
  -25.9270  -32.7060   23.9450 C   0  0  0  0  0  3  0  0  0  0  0  0
  -25.5870  -34.1060   24.2350 N   0  0  0  0  0  0  0  0  0  0  0  0
  -25.9280  -35.1470   23.4660 C   0  0  0  0  0  0  0  0  0  0  0  0
  -26.6370  -35.0340   22.4620 O   0  0  0  0  0  0  0  0  0  0  0  0
  -24.9620  -34.2670   25.0130 H   0  0  0  0  0  0  0  0  0  0  0  0
  -24.1900  -36.9010   23.0060 C   0  0  0  0  0  1  0  0  0  0  0  0
  -25.4020  -36.5350   23.8770 C   0  0  0  0  0  3  0  0  0  0  0  0
  -27.4810  -37.4720   24.7840 C   0  0  0  0  0  1  0  0  0  0  0  0
  -26.4220  -37.6020   23.7870 N   0  0  0  0  0  0  0  0  0  0  0  0
  -25.9970  -38.5190   23.8950 H   0  0  0  0  0  0  0  0  0  0  0  0
  -26.4210  -31.9720   25.2520 C   0  0  1  0  0  0  0  0  0  0  0  0
  -25.2970  -31.7220   26.2850 C   0  0  0  0  0  1  0  0  0  0  0  0
  -27.0540  -30.6060   24.9040 C   0  0  0  0  0  1  0  0  0  0  0  0
  -27.5260  -32.8090   25.9390 C   0  0  0  0  0  1  0  0  0  0  0  0
  1  2  1  0
  3  4  1  0
  3  5  2  0
  4  1  2  0
  5  6  1  0
  6  2  2  0
  6 50  1  0
  7  9  1  0
  7  8  1  0
  8 10  1  0
  9 11  1  0
 10 11  1  0
 10  4  1  0
 11 20  1  0
 13 18  1  0
 14 15  1  0
 14 13  1  0
 16 15  1  0
 16 25  1  0
 16 17  1  0
 18 12  1  0
 18 17  1  0
 19 12  2  0
 20 21  1  0
 20 12  1  0
 22 23  2  0
 23 24  1  0
 23 42  1  0
 24 27  1  0
 25 22  1  0
 25 26  1  0
 26 24  2  0
 27 28  1  0
 28 29  2  0
 30 33  1  0
 30 29  1  0
 31 30  2  0
 32 31  1  0
 32 27  2  0
 33 34  1  0
 34 39  2  0
 34 35  1  0
 35 36  2  0
 36 37  1  0
 37 41  1  0
 38 37  2  0
 39 38  1  0
 40 39  1  0
 42 43  1  0
 43 46  1  0
 43 45  1  0
 44 42  2  0
 47 48  1  0
 47 22  1  0
 49 47  1  0
 50 51  1  0
 52 53  1  0
 52  5  1  0
 54 55  1  0
 54 53  1  0
 56 67  2  0
 57 55  1  0
 57 62  1  0
 58 66  1  0
 58 68  1  0
 59 65  1  0
 59 61  1  0
 60 66  1  0
 61 62  2  0
 61 60  1  0
 63 57  2  0
 64 63  1  0
 64 59  2  0
 65 58  1  0
 66 56  1  0
 68 70  2  0
 69 68  1  0
 71 69  1  0
 72 81  2  0
 72 77  1  0
 73 69  1  0
 73 77  1  0
 74 73  1  0
 75 76  1  0
 75 74  1  0
 76 72  1  0
 77 78  2  0
 78 79  1  0
 80 79  2  0
 81 80  1  0
 82 56  1  0
 82 83  1  0
 82 92  1  0
 83 86  1  0
 84 88  1  0
 84 83  1  0
 85 84  2  0
 88 87  1  0
 90 88  1  0
 90 91  1  0
 90 89  1  0
 92 95  1  1
 92 93  1  0
 94 92  1  0
M  ISO  4  12 100  20 100  54 101  55 101
M  END
>  <TORSDO>  (1) 
F 21

>  <SCORE>  (1) 
-11.451

>  <name>  (1) 
0

>  <ligand_id>  (1) 
0

>  <original_smiles>  (1) 
[H]Oc1c([H])c([H])c(C2([H])C([H])([H])C([H])([H])C([H])([H])C2([H])N([H])C(=O)N2C([H])([H])C([H])([H])C([H])([H])C([H])(n3nc(-c4c([H])c([H])c(Oc5c([H])c([H])c(F)c([H])c5F)c([H])c4[H])c(C(=O)N([H])[H])c3N([H])[H])C2([H])[H])c([H])c1C([H])([H])C([H])([H])C([H])([H])Oc1c([H])c([H])c2c(c1[H])C([H])([H])N(C(=O)C([H])(N([H])C(=O)C([H])(N([H])C([H])([H])[H])C([H])([H])[H])C(C([H])([H])[H])(C([H])([H])[H])C([H])([H])[H])C([H])(C(=O)N([H])C1([H])c3c([H])c([H])c([H])c([H])c3C([H])([H])C([H])([H])C1([H])[H])C2([H])[H]

>  <smiles>  (1) 
[H]Oc1c([H])c([H])c(C2([H])C([H])([H])C([H])([H])C([H])([H])C2([H])N([H])C(=O)N2C([H])([H])C([H])([H])C([H])([H])C([H])(n3nc(-c4c([H])c([H])c(Oc5c([H])c([H])c(F)c([H])c5F)c([H])c4[H])c(C(=O)N([H])[H])c3N([H])[H])C2([H])[H])c([H])c1C([H])([H])C([H])([H])C([H])([H])Oc1c([H])c([H])c2c(c1[H])C([H])([H])N(C(=O)C([H])(N([H])C(=O)C([H])(N([H])C([H])([H])[H])C([H])([H])[H])C(C([H])([H])[H])(C([H])([H])[H])C([H])([H])[H])C([H])(C(=O)N([H])C1([H])c3c([H])c([H])c([H])c([H])c3C([H])([H])C([H])([H])C1([H])[H])C2([H])[H]

$$$$
1:0:0
     RDKit          3D

 96105  0  0  1  0  0  0  0  0999 V2000
  -26.3750  -22.8820   17.1180 C   0  0  0  0  0  3  0  0  0  0  0  0
  -26.4100  -24.2270   16.7300 C   0  0  0  0  0  3  0  0  0  0  0  0
  -27.1820  -22.4410   18.1800 C   0  0  0  0  0  3  0  0  0  0  0  0
  -27.2210  -25.1280   17.4380 C   0  0  0  0  0  3  0  0  0  0  0  0
  -28.0350  -23.3220   18.8960 C   0  0  0  0  0  0  0  0  0  0  0  0
  -28.0020  -24.7190   18.5480 C   0  0  0  0  0  0  0  0  0  0  0  0
  -28.9670  -22.7210   19.8980 C   0  0  0  0  0  3  0  0  0  0  0  0
  -29.3480  -21.4090   19.9530 C   0  0  0  0  0  3  0  0  0  0  0  0
  -31.8320  -21.0460   22.8170 C   0  0  0  0  0  3  0  0  0  0  0  0
  -32.0460  -19.6640   22.8780 C   0  0  0  0  0  3  0  0  0  0  0  0
  -30.9560  -21.5760   21.8560 C   0  0  0  0  0  3  0  0  0  0  0  0
  -31.3860  -18.8180   21.9750 C   0  0  0  0  0  3  0  0  0  0  0  0
  -30.2750  -20.7500   20.9250 C   0  0  0  0  0  0  0  0  0  0  0  0
  -30.5080  -19.3260   20.9860 C   0  0  0  0  0  0  0  0  0  0  0  0
  -28.3360  -18.1590   20.4040 C   0  0  0  0  0  1  0  0  0  0  0  0
  -29.8290  -18.2880   20.0640 C   0  0  0  0  0  3  0  0  0  0  0  0
  -30.0840  -15.6840   20.3070 C   0  0  0  0  0  3  0  0  0  0  0  0
  -30.5470  -16.9190   19.9650 C   0  0  0  0  0  3  0  0  0  0  0  0
  -30.8840  -14.4670   20.0560 C   0  0  0  0  0  0  0  0  0  0  0  0
  -30.5490  -12.2100   19.1240 C   0  0  0  0  0  2  0  0  0  0  0  0
  -29.5850  -12.3490   17.9250 C   0  0  0  0  0  2  0  0  0  0  0  0
  -28.1150  -12.2670   18.3900 C   0  0  0  0  0  2  0  0  0  0  0  0
  -27.8210  -13.1880   19.6060 C   0  0  0  0  0  3  0  0  0  0  0  0
  -28.9010  -13.0200   20.6980 C   0  0  0  0  0  2  0  0  0  0  0  0
  -30.2110  -13.2780   20.0830 N   0  0  0  0  0  0  0  0  0  0  0  0
  -32.0480  -14.5280   19.6500 O   0  0  0  0  0  0  0  0  0  0  0  0
  -25.4870  -13.9030   20.4140 C   0  0  0  0  0  0  0  0  0  0  0  0
  -24.3960  -13.1800   20.8170 C   0  0  0  0  0  0  0  0  0  0  0  0
  -24.7890  -11.8080   20.7550 C   0  0  0  0  0  0  0  0  0  0  0  0
  -26.4770  -12.9730   20.1350 N   0  0  0  0  0  0  0  0  0  0  0  0
  -26.0630  -11.7070   20.3990 N   0  0  0  0  0  0  0  0  0  0  0  0
  -24.0090  -10.5810   20.9610 C   0  0  0  0  0  0  0  0  0  0  0  0
  -24.4210   -9.5880   21.8760 C   0  0  0  0  0  3  0  0  0  0  0  0
  -23.6460   -8.4250   22.0680 C   0  0  0  0  0  3  0  0  0  0  0  0
  -22.4420   -8.2480   21.3460 C   0  0  0  0  0  0  0  0  0  0  0  0
  -22.0460   -9.2290   20.4200 C   0  0  0  0  0  3  0  0  0  0  0  0
  -22.8220  -10.3840   20.2260 C   0  0  0  0  0  3  0  0  0  0  0  0
  -21.6370   -7.1400   21.4490 O   0  0  0  0  0  0  0  0  0  0  0  0
  -21.5750   -6.3990   22.6020 C   0  0  0  0  0  0  0  0  0  0  0  0
  -21.1940   -6.9710   23.8360 C   0  0  0  0  0  3  0  0  0  0  0  0
  -21.0770   -6.1590   24.9820 C   0  0  0  0  0  3  0  0  0  0  0  0
  -21.3320   -4.7770   24.8950 C   0  0  0  0  0  0  0  0  0  0  0  0
  -21.7060   -4.2050   23.6660 C   0  0  0  0  0  3  0  0  0  0  0  0
  -21.8240   -5.0140   22.5220 C   0  0  0  0  0  0  0  0  0  0  0  0
  -22.1650   -4.4550   21.3370 F   0  0  0  0  0  0  0  0  0  0  0  0
  -21.2110   -3.9950   25.9930 F   0  0  0  0  0  0  0  0  0  0  0  0
  -23.0360  -13.7230   21.1450 C   0  0  0  0  0  0  0  0  0  0  0  0
  -22.3100  -13.0630   22.0410 N   0  0  0  0  0  0  0  0  0  0  0  0
  -22.6260  -14.7680   20.6420 O   0  0  0  0  0  0  0  0  0  0  0  0
  -22.6530  -12.2180   22.4730 H   0  0  0  0  0  0  0  0  0  0  0  0
  -21.3980  -13.4100   22.3000 H   0  0  0  0  0  0  0  0  0  0  0  0
  -25.7130  -15.2660   20.2430 N   0  0  0  0  0  0  0  0  0  0  0  0
  -24.9850  -15.9540   20.3940 H   0  0  0  0  0  0  0  0  0  0  0  0
  -26.5710  -15.6670   19.8860 H   0  0  0  0  0  0  0  0  0  0  0  0
  -28.8330  -25.8370   19.2140 C   0  0  0  0  0  2  0  0  0  0  0  0
  -28.2890  -26.6080   20.3170 O   0  0  0  0  0  0  0  0  0  0  0  0
  -24.5680  -31.9330   23.2840 C   0  0  0  0  0  0  0  0  0  0  0  0
  -27.1490  -27.3940   20.2240 C   0  0  0  0  0  0  0  0  0  0  0  0
  -23.3430  -30.5290   21.6600 C   0  0  0  0  0  3  0  0  0  0  0  0
  -24.7740  -28.9610   20.2430 C   0  0  0  0  0  0  0  0  0  0  0  0
  -25.8790  -30.8430   21.4590 C   0  0  0  0  0  2  0  0  0  0  0  0
  -25.9450  -29.4660   20.8220 C   0  0  0  0  0  0  0  0  0  0  0  0
  -27.1310  -28.6880   20.8130 C   0  0  0  0  0  3  0  0  0  0  0  0
  -25.9410  -26.9040   19.6840 C   0  0  0  0  0  3  0  0  0  0  0  0
  -24.7670  -27.6790   19.6750 C   0  0  0  0  0  3  0  0  0  0  0  0
  -23.5420  -29.8390   20.2860 C   0  0  0  0  0  2  0  0  0  0  0  0
  -24.6150  -31.1170   22.1920 N   0  0  0  0  0  0  0  0  0  0  0  0
  -23.4890  -32.2250   23.8210 O   0  0  0  0  0  0  0  0  0  0  0  0
  -22.6790  -29.5250   22.6310 C   0  0  0  0  0  0  0  0  0  0  0  0
  -21.3550  -29.3450   22.4960 N   0  0  0  0  0  0  0  0  0  0  0  0
  -23.3530  -28.9140   23.4640 O   0  0  0  0  0  0  0  0  0  0  0  0
  -20.8720  -29.8920   21.7970 H   0  0  0  0  0  0  0  0  0  0  0  0
  -17.9780  -28.1450   22.9650 C   0  0  0  0  0  0  0  0  0  0  0  0
  -20.5280  -28.4230   23.2760 C   0  0  0  0  0  3  0  0  0  0  0  0
  -20.6480  -26.9770   22.7400 C   0  0  0  0  0  2  0  0  0  0  0  0
  -19.5660  -26.6230   21.7150 C   0  0  0  0  0  2  0  0  0  0  0  0
  -18.1720  -26.7780   22.3290 C   0  0  0  0  0  2  0  0  0  0  0  0
  -19.0850  -28.9230   23.3950 C   0  0  0  0  0  0  0  0  0  0  0  0
  -18.8490  -30.2000   23.9490 C   0  0  0  0  0  3  0  0  0  0  0  0
  -17.5400  -30.7000   24.0760 C   0  0  0  0  0  3  0  0  0  0  0  0
  -16.4470  -29.9190   23.6630 C   0  0  0  0  0  3  0  0  0  0  0  0
  -16.6670  -28.6430   23.1130 C   0  0  0  0  0  3  0  0  0  0  0  0
  -25.8610  -32.5570   23.8940 C   0  0  0  0  0  3  0  0  0  0  0  0
  -25.5670  -33.9610   24.2120 N   0  0  0  0  0  0  0  0  0  0  0  0
  -25.8950  -35.0030   23.4380 C   0  0  0  0  0  0  0  0  0  0  0  0
  -26.5500  -34.8830   22.3980 O   0  0  0  0  0  0  0  0  0  0  0  0
  -24.9840  -34.1280   25.0200 H   0  0  0  0  0  0  0  0  0  0  0  0
  -24.1720  -36.8010   23.0890 C   0  0  0  0  0  1  0  0  0  0  0  0
  -25.4230  -36.3990   23.8870 C   0  0  0  0  0  3  0  0  0  0  0  0
  -27.5750  -37.2810   24.6750 C   0  0  0  0  0  1  0  0  0  0  0  0
  -26.4600  -37.4450   23.7460 N   0  0  0  0  0  0  0  0  0  0  0  0
  -26.0620  -38.3680   23.8880 H   0  0  0  0  0  0  0  0  0  0  0  0
  -26.3760  -31.7920   25.1750 C   0  0  1  0  0  0  0  0  0  0  0  0
  -25.2860  -31.5740   26.2490 C   0  0  0  0  0  1  0  0  0  0  0  0
  -26.9440  -30.4060   24.7910 C   0  0  0  0  0  1  0  0  0  0  0  0
  -27.5360  -32.5810   25.8250 C   0  0  0  0  0  1  0  0  0  0  0  0
  1  3  1  0
  2  1  2  0
  2  4  1  0
  3  5  2  0
  4  6  2  0
  5  7  1  0
  6  5  1  0
  6 55  1  0
  7  8  2  0
  8 13  1  0
  9 10  1  0
 11  9  2  0
 12 10  2  0
 13 14  2  0
 13 11  1  0
 14 12  1  0
 16 15  1  0
 16 14  1  0
 18 16  1  0
 18 17  2  0
 19 25  1  0
 19 17  1  0
 20 25  1  0
 21 22  1  0
 21 20  1  0
 23 22  1  0
 23 30  1  0
 23 24  1  0
 25 24  1  0
 26 19  2  0
 27 28  2  0
 28 47  1  0
 29 28  1  0
 29 32  1  0
 30 31  1  0
 30 27  1  0
 31 29  2  0
 32 33  1  0
 33 34  2  0
 35 38  1  0
 35 34  1  0
 36 35  2  0
 37 36  1  0
 37 32  2  0
 38 39  1  0
 39 40  1  0
 40 41  2  0
 42 41  1  0
 42 46  1  0
 43 42  2  0
 44 39  2  0
 44 43  1  0
 45 44  1  0
 47 48  1  0
 48 51  1  0
 48 50  1  0
 49 47  2  0
 52 53  1  0
 52 27  1  0
 54 52  1  0
 55 56  1  0
 57 68  2  0
 58 56  1  0
 58 63  1  0
 59 67  1  0
 59 69  1  0
 60 66  1  0
 60 62  1  0
 61 67  1  0
 62 61  1  0
 63 62  2  0
 64 58  2  0
 65 64  1  0
 65 60  2  0
 66 59  1  0
 67 57  1  0
 69 71  2  0
 70 69  1  0
 72 70  1  0
 73 82  2  0
 73 78  1  0
 74 70  1  0
 74 78  1  0
 75 74  1  0
 76 77  1  0
 76 75  1  0
 77 73  1  0
 78 79  2  0
 79 80  1  0
 81 80  2  0
 82 81  1  0
 83 57  1  0
 83 84  1  0
 83 93  1  0
 84 87  1  0
 85 89  1  0
 85 84  1  0
 86 85  2  0
 89 88  1  0
 91 89  1  0
 91 92  1  0
 91 90  1  0
 93 96  1  1
 93 94  1  0
 95 93  1  0
M  ISO  4  17 100  19 100  55 101  56 101
M  END
>  <TORSDO>  (2) 
F 21

>  <SCORE>  (2) 
-13.062

>  <name>  (2) 
1

>  <ligand_id>  (2) 
1

>  <original_smiles>  (2) 
[H]C(C(=O)N1C([H])([H])C([H])([H])C([H])([H])C([H])(n2nc(-c3c([H])c([H])c(Oc4c([H])c([H])c(F)c([H])c4F)c([H])c3[H])c(C(=O)N([H])[H])c2N([H])[H])C1([H])[H])=C([H])C([H])(c1c([H])c([H])c([H])c([H])c1C([H])=C([H])c1c([H])c([H])c([H])c([H])c1C([H])([H])Oc1c([H])c([H])c2c(c1[H])C([H])([H])N(C(=O)C([H])(N([H])C(=O)C([H])(N([H])C([H])([H])[H])C([H])([H])[H])C(C([H])([H])[H])(C([H])([H])[H])C([H])([H])[H])C([H])(C(=O)N([H])C1([H])c3c([H])c([H])c([H])c([H])c3C([H])([H])C([H])([H])C1([H])[H])C2([H])[H])C([H])([H])[H]

>  <smiles>  (2) 
[H]C(C(=O)N1C([H])([H])C([H])([H])C([H])([H])C([H])(n2nc(-c3c([H])c([H])c(Oc4c([H])c([H])c(F)c([H])c4F)c([H])c3[H])c(C(=O)N([H])[H])c2N([H])[H])C1([H])[H])=C([H])C([H])(c1c([H])c([H])c([H])c([H])c1C([H])=C([H])c1c([H])c([H])c([H])c([H])c1C([H])([H])Oc1c([H])c([H])c2c(c1[H])C([H])([H])N(C(=O)C([H])(N([H])C(=O)C([H])(N([H])C([H])([H])[H])C([H])([H])[H])C(C([H])([H])[H])(C([H])([H])[H])C([H])([H])[H])C([H])(C(=O)N([H])C1([H])c3c([H])c([H])c([H])c([H])c3C([H])([H])C([H])([H])C1([H])[H])C2([H])[H])C([H])([H])[H]

$$$$
2:0:0
     RDKit          3D

 98 99  0  0  1  0  0  0  0  0999 V2000
  -26.9740  -24.8550   22.5730 C   0  0  0  0  0  3  0  0  0  0  0  0
  -28.3600  -23.9210   21.7070 C   0  0  0  0  0  2  0  0  0  0  0  0
  -28.4190  -25.6640   18.6800 C   0  0  0  0  0 15  0  0  0  0  0  0
  -25.8370  -28.4910   18.7130 C   0  0  0  0  0  2  0  0  0  0  0  0
  -25.8300  -26.1040   21.6580 C   0  0  0  0  0  3  0  0  0  0  0  0
  -26.8270  -27.0960   19.1950 C   0  0  0  0  0  1  0  0  0  0  0  0
  -28.9860  -24.0410   19.9460 C   0  0  0  0  0  1  0  0  0  0  0  0
  -24.3900  -29.0020   19.7290 C   0  0  0  0  0  3  0  0  0  0  0  0
  -24.7730  -26.7400   22.4610 C   0  0  2  0  0  0  0  0  0  0  0  0
  -23.8920  -27.6500   21.6500 C   0  0  0  0  0  2  0  0  0  0  0  0
  -24.6230  -26.3880   23.9560 C   0  0  0  0  0  1  0  0  0  0  0  0
  -24.6190  -30.9970   18.0390 C   0  0  0  0  0  1  0  0  0  0  0  0
  -23.7400  -30.2870   19.0850 C   0  0  0  0  0  2  0  0  0  0  0  0
  -29.9380  -22.1880   19.6560 C   0  0  0  0  0  2  0  0  0  0  0  0
  -30.4000  -22.2810   18.5150 O   0  0  0  0  0  0  0  0  0  0  0  0
  -30.6110  -20.0670   20.3270 C   0  0  0  0  0  2  0  0  0  0  0  0
  -31.3740  -20.3320   21.2610 O   0  0  0  0  0  1  0  0  0  0  0  0
  -30.5750  -18.3400   20.1400 N   0  0  0  0  0  2  0  0  0  0  0  0
  -31.1790  -16.7470   20.4840 C   0  0  0  0  0  0  0  0  0  0  0  0
  -31.4530  -13.9440   20.1060 C   0  0  0  0  0  2  0  0  0  0  0  0
  -30.7540  -13.1500   18.9400 C   0  0  0  0  0  2  0  0  0  0  0  0
  -29.3260  -12.7240   19.2980 C   0  0  0  0  0  2  0  0  0  0  0  0
  -28.6340  -13.8440   20.0890 C   0  0  0  0  0  3  0  0  0  0  0  0
  -29.5150  -14.5350   21.1810 C   0  0  0  0  0  2  0  0  0  0  0  0
  -30.6980  -15.2620   20.5470 N   0  0  0  0  0  0  0  0  0  0  0  0
  -32.3970  -16.4670   20.6600 O   0  0  0  0  0  0  0  0  0  0  0  0
  -26.2370  -14.4070   20.6700 C   0  0  0  0  0  0  0  0  0  0  0  0
  -25.1180  -13.6630   20.9120 C   0  0  0  0  0  0  0  0  0  0  0  0
  -25.5360  -12.2960   20.8980 C   0  0  0  0  0  0  0  0  0  0  0  0
  -27.2740  -13.5080   20.5150 N   0  0  0  0  0  0  0  0  0  0  0  0
  -26.8580  -12.2220   20.7120 N   0  0  0  0  0  0  0  0  0  0  0  0
  -24.7300  -11.0650   20.9900 C   0  0  0  0  0  0  0  0  0  0  0  0
  -24.9510  -10.1030   22.0000 C   0  0  0  0  0  3  0  0  0  0  0  0
  -24.1420   -8.9480   22.0830 C   0  0  0  0  0  3  0  0  0  0  0  0
  -23.0940   -8.7440   21.1540 C   0  0  0  0  0  0  0  0  0  0  0  0
  -22.8890   -9.6930   20.1370 C   0  0  0  0  0  3  0  0  0  0  0  0
  -23.6990  -10.8390   20.0520 C   0  0  0  0  0  3  0  0  0  0  0  0
  -22.2760   -7.6380   21.1420 O   0  0  0  0  0  0  0  0  0  0  0  0
  -21.8930   -7.0100   22.2990 C   0  0  0  0  0  0  0  0  0  0  0  0
  -21.1340   -7.6720   23.2890 C   0  0  0  0  0  3  0  0  0  0  0  0
  -20.7010   -6.9720   24.4330 C   0  0  0  0  0  3  0  0  0  0  0  0
  -21.0160   -5.6080   24.5850 C   0  0  0  0  0  0  0  0  0  0  0  0
  -21.7660   -4.9450   23.5990 C   0  0  0  0  0  3  0  0  0  0  0  0
  -22.2000   -5.6430   22.4580 C   0  0  0  0  0  0  0  0  0  0  0  0
  -22.9040   -4.9930   21.4990 F   0  0  0  0  0  0  0  0  0  0  0  0
  -20.5940   -4.9320   25.6800 F   0  0  0  0  0  0  0  0  0  0  0  0
  -23.7220  -14.1980   21.0390 C   0  0  0  0  0  0  0  0  0  0  0  0
  -22.8790  -13.5320   21.8190 N   0  0  0  0  0  0  0  0  0  0  0  0
  -23.3880  -15.2460   20.4860 O   0  0  0  0  0  0  0  0  0  0  0  0
  -23.1600  -12.6850   22.2900 H   0  0  0  0  0  0  0  0  0  0  0  0
  -21.9360  -13.8730   21.9470 H   0  0  0  0  0  0  0  0  0  0  0  0
  -26.4630  -15.7720   20.5290 N   0  0  0  0  0  0  0  0  0  0  0  0
  -25.7160  -16.4570   20.5830 H   0  0  0  0  0  0  0  0  0  0  0  0
  -27.3650  -16.1820   20.3180 H   0  0  0  0  0  0  0  0  0  0  0  0
  -23.2350  -25.9690   21.7460 C   0  0  0  0  0  3  0  0  0  0  0  0
  -22.5350  -24.8420   20.6190 C   0  0  0  0  0  2  0  0  0  0  0  0
  -22.3170  -24.7330   18.9310 C   0  0  0  0  0  1  0  0  0  0  0  0
  -23.2030  -25.9040   17.7680 O   0  0  0  0  0  0  0  0  0  0  0  0
  -24.8350  -31.1370   23.0420 C   0  0  0  0  0  0  0  0  0  0  0  0
  -24.7960  -26.5170   17.5120 C   0  0  0  0  0  2  0  0  0  0  0  0
  -22.4940  -30.7980   21.6980 C   0  0  0  0  0  2  0  0  0  0  0  0
  -22.5810  -28.6750   19.0060 C   0  0  0  0  0  1  0  0  0  0  0  0
  -25.5340  -30.1850   20.5520 C   0  0  0  0  0  2  0  0  0  0  0  0
  -24.9690  -28.9140   19.1340 C   0  0  0  0  0  2  0  0  0  0  0  0
  -25.8060  -27.7890   18.2740 C   0  0  0  0  0  3  0  0  0  0  0  0
  -22.7640  -26.5950   17.5240 C   0  0  0  0  0  2  0  0  0  0  0  0
  -21.8710  -27.7170   18.2100 C   0  0  0  0  0  2  0  0  0  0  0  0
  -21.5480  -29.9060   20.1910 C   0  0  0  0  0 15  0  0  0  0  0  0
  -24.3360  -30.9090   21.7770 N   0  0  0  0  0  0  0  0  0  0  0  0
  -24.1240  -31.4180   24.0230 O   0  0  0  0  0  0  0  0  0  0  0  0
  -21.9370  -29.9260   22.9280 C   0  0  0  0  0  0  0  0  0  0  0  0
  -20.6780  -29.4630   22.8930 N   0  0  0  0  0  0  0  0  0  0  0  0
  -22.7210  -29.3930   23.7260 O   0  0  0  0  0  0  0  0  0  0  0  0
  -20.0540  -29.8500   22.2000 H   0  0  0  0  0  0  0  0  0  0  0  0
  -17.9380  -27.1960   23.0390 C   0  0  0  0  0  0  0  0  0  0  0  0
  -20.1550  -28.3290   23.6900 C   0  0  0  0  0  3  0  0  0  0  0  0
  -20.7540  -26.9350   23.3410 C   0  0  0  0  0  2  0  0  0  0  0  0
  -20.1160  -26.3020   22.1110 C   0  0  0  0  0  2  0  0  0  0  0  0
  -18.6590  -25.9940   22.4490 C   0  0  0  0  0  2  0  0  0  0  0  0
  -18.6390  -28.2930   23.6090 C   0  0  0  0  0  0  0  0  0  0  0  0
  -17.9190  -29.3960   24.1080 C   0  0  0  0  0  3  0  0  0  0  0  0
  -16.5170  -29.4190   24.0430 C   0  0  0  0  0  3  0  0  0  0  0  0
  -15.8230  -28.3270   23.4950 C   0  0  0  0  0  3  0  0  0  0  0  0
  -16.5300  -27.2160   23.0040 C   0  0  0  0  0  3  0  0  0  0  0  0
  -26.3710  -31.1080   23.3000 C   0  0  0  0  0  3  0  0  0  0  0  0
  -26.6420  -32.1810   24.2650 N   0  0  0  0  0  0  0  0  0  0  0  0
  -27.1750  -33.3620   23.9470 C   0  0  0  0  0  0  0  0  0  0  0  0
  -27.5490  -33.6400   22.8050 O   0  0  0  0  0  0  0  0  0  0  0  0
  -26.3070  -32.0400   25.2070 H   0  0  0  0  0  0  0  0  0  0  0  0
  -26.2790  -35.5040   24.9240 C   0  0  0  0  0  1  0  0  0  0  0  0
  -27.3310  -34.3940   25.0800 C   0  0  0  0  0  3  0  0  0  0  0  0
  -29.7120  -34.0400   25.5610 C   0  0  0  0  0  1  0  0  0  0  0  0
  -28.6820  -34.9890   25.1460 N   0  0  0  0  0  0  0  0  0  0  0  0
  -28.6960  -35.7730   25.7910 H   0  0  0  0  0  0  0  0  0  0  0  0
  -26.9680  -29.7520   23.8600 C   0  0  1  0  0  0  0  0  0  0  0  0
  -26.1190  -29.1000   24.9700 C   0  0  0  0  0  1  0  0  0  0  0  0
  -27.1540  -28.6850   22.7810 C   0  0  0  0  0  1  0  0  0  0  0  0
  -28.3920  -30.0090   24.4000 C   0  0  0  0  0  1  0  0  0  0  0  0
  2  1  1  0
  4 64  1  0
  5  9  1  0
  5  1  2  0
  7  2  1  0
  8 13  1  0
  8 63  1  0
  9 11  1  6
 10 55  1  0
 10  9  1  0
 12 13  1  0
 15 14  2  0
 16 17  1  0
 18 16  1  0
 18 19  1  0
 19 25  1  0
 19 26  2  0
 20 25  1  0
 21 22  1  0
 21 20  1  0
 23 22  1  0
 23 30  1  0
 23 24  1  0
 25 24  1  0
 27 28  2  0
 28 47  1  0
 29 28  1  0
 29 32  1  0
 30 27  1  0
 30 31  1  0
 31 29  2  0
 32 33  1  0
 33 34  2  0
 35 34  1  0
 36 35  2  0
 37 36  1  0
 37 32  2  0
 38 35  1  0
 38 39  1  0
 39 44  2  0
 39 40  1  0
 40 41  2  0
 41 42  1  0
 42 46  1  0
 43 42  2  0
 44 43  1  0
 45 44  1  0
 47 48  1  0
 48 51  1  0
 48 50  1  0
 49 47  2  0
 52 53  1  0
 52 27  1  0
 54 52  1  0
 55 56  1  0
 55  9  1  0
 57 56  1  0
 59 70  2  0
 60 58  1  0
 60 65  1  0
 61 69  1  0
 61 71  1  0
 63 69  1  0
 64  8  1  0
 65  4  1  0
 65  6  1  0
 66 58  1  0
 66 67  1  0
 67 62  1  0
 69 59  1  0
 71 73  2  0
 72 71  1  0
 74 72  1  0
 75 80  1  0
 76 72  1  0
 77 76  1  0
 78 79  1  0
 78 77  1  0
 79 75  1  0
 80 76  1  0
 80 81  2  0
 82 81  1  0
 83 82  2  0
 84 75  2  0
 84 83  1  0
 85 59  1  0
 85 95  1  0
 85 86  1  0
 86 89  1  0
 87 86  1  0
 87 91  1  0
 88 87  2  0
 91 90  1  0
 91 93  1  0
 93 92  1  0
 93 94  1  0
 95 98  1  1
 95 96  1  0
 97 95  1  0
M  ISO  4  18 100  19 100  57 101  58 101
M  END
>  <TORSDO>  (3) 
F 23

>  <SCORE>  (3) 
-7.060

>  <name>  (3) 
2

>  <ligand_id>  (3) 
2

>  <original_smiles>  (3) 
[H]c1c([H])c([H])c2c(c1[H])C([H])([H])C([H])([H])C([H])([H])C2([H])N([H])C(=O)C1([H])N(C(=O)C([H])(N([H])C(=O)C([H])(N([H])C([H])([H])[H])C([H])([H])[H])C(C([H])([H])[H])(C([H])([H])[H])C([H])([H])[H])C([H])([H])c2c([H])c(OC([H])([H])C([H])([H])C([H])([H])c3c(C([H])([H])C([H])([H])[H])c([H])c4c([H])c(C(=O)C(=O)[N-]C(=O)N5C([H])([H])C([H])([H])C([H])([H])C([H])(n6nc(-c7c([H])c([H])c(Oc8c([H])c([H])c(F)c([H])c8F)c([H])c7[H])c(C(=O)N([H])[H])c6N([H])[H])C5([H])[H])c([H])c([H])c4c3C([H])([H])[H])c([H])c([H])c2C1([H])[H]

>  <smiles>  (3) 
[H]c1c([H])c([H])c2c(c1[H])C([H])([H])C([H])([H])C([H])([H])C2([H])N([H])C(=O)C1([H])N(C(=O)C([H])(N([H])C(=O)C([H])(N([H])C([H])([H])[H])C([H])([H])[H])C(C([H])([H])[H])(C([H])([H])[H])C([H])([H])[H])C([H])([H])c2c([H])c(OC([H])([H])C([H])([H])C([H])([H])c3c(C([H])([H])C([H])([H])[H])c([H])c4c([H])c(C(=O)C(=O)[N-]C(=O)N5C([H])([H])C([H])([H])C([H])([H])C([H])(n6nc(-c7c([H])c([H])c(Oc8c([H])c([H])c(F)c([H])c8F)c([H])c7[H])c(C(=O)N([H])[H])c6N([H])[H])C5([H])[H])c([H])c([H])c4c3C([H])([H])[H])c([H])c([H])c2C1([H])[H]

$$$$
3:0:0
     RDKit          3D

 89 97  0  0  1  0  0  0  0  0999 V2000
  -29.0960  -21.1370   21.0680 C   0  0  0  0  0  3  0  0  0  0  0  0
  -30.8490  -17.6710   21.6360 C   0  0  0  0  0  2  0  0  0  0  0  0
  -30.0670  -17.2900   20.6190 C   0  0  0  0  0  3  0  0  0  0  0  0
  -30.7550  -19.1390   21.8170 C   0  0  0  0  0  0  0  0  0  0  0  0
  -29.3110  -18.5390   20.0450 C   0  0  0  0  0  2  0  0  0  0  0  0
  -29.9660  -19.8270   20.6760 C   0  0  0  0  0  3  0  0  0  0  0  0
  -31.2530  -19.7680   22.7530 O   0  0  0  0  0  0  0  0  0  0  0  0
  -30.6310  -14.7980   20.3490 C   0  0  0  0  0  0  0  0  0  0  0  0
  -30.4840  -12.4660   19.4800 C   0  0  0  0  0  2  0  0  0  0  0  0
  -29.5580  -12.3880   18.2450 C   0  0  0  0  0  2  0  0  0  0  0  0
  -28.0650  -12.3110   18.6450 C   0  0  0  0  0  2  0  0  0  0  0  0
  -27.6600  -13.2330   19.8320 C   0  0  0  0  0  3  0  0  0  0  0  0
  -28.7180  -13.2340   20.9520 C   0  0  0  0  0  2  0  0  0  0  0  0
  -30.0080  -13.5700   20.3350 N   0  0  0  0  0  0  0  0  0  0  0  0
  -31.8620  -14.8620   20.2780 O   0  0  0  0  0  0  0  0  0  0  0  0
  -29.1850  -15.9950   18.7940 C   0  0  0  0  0  1  0  0  0  0  0  0
  -29.8580  -15.9430   20.1000 N   0  0  0  0  0  0  0  0  0  0  0  0
  -25.2780  -13.8590   20.5250 C   0  0  0  0  0  0  0  0  0  0  0  0
  -24.2010  -13.0950   20.8760 C   0  0  0  0  0  0  0  0  0  0  0  0
  -24.6600  -11.7410   20.8700 C   0  0  0  0  0  0  0  0  0  0  0  0
  -26.3180  -12.9650   20.3190 N   0  0  0  0  0  0  0  0  0  0  0  0
  -25.9550  -11.6900   20.5930 N   0  0  0  0  0  0  0  0  0  0  0  0
  -23.9320  -10.4840   21.0560 C   0  0  0  0  0  0  0  0  0  0  0  0
  -24.3580   -9.5200   21.9940 C   0  0  0  0  0  3  0  0  0  0  0  0
  -23.6320   -8.3230   22.1660 C   0  0  0  0  0  3  0  0  0  0  0  0
  -22.4660   -8.0860   21.3990 C   0  0  0  0  0  0  0  0  0  0  0  0
  -22.0610   -9.0390   20.4470 C   0  0  0  0  0  3  0  0  0  0  0  0
  -22.7890  -10.2260   20.2720 C   0  0  0  0  0  3  0  0  0  0  0  0
  -21.7090   -6.9430   21.4840 O   0  0  0  0  0  0  0  0  0  0  0  0
  -21.6560   -6.2000   22.6360 C   0  0  0  0  0  0  0  0  0  0  0  0
  -21.2280   -6.7530   23.8620 C   0  0  0  0  0  3  0  0  0  0  0  0
  -21.1240   -5.9360   25.0050 C   0  0  0  0  0  3  0  0  0  0  0  0
  -21.4370   -4.5650   24.9220 C   0  0  0  0  0  0  0  0  0  0  0  0
  -21.8580   -4.0110   23.7010 C   0  0  0  0  0  3  0  0  0  0  0  0
  -21.9650   -4.8270   22.5600 C   0  0  0  0  0  0  0  0  0  0  0  0
  -22.3530   -4.2840   21.3800 F   0  0  0  0  0  0  0  0  0  0  0  0
  -21.3290   -3.7770   26.0170 F   0  0  0  0  0  0  0  0  0  0  0  0
  -22.8000  -13.5790   21.1120 C   0  0  0  0  0  0  0  0  0  0  0  0
  -22.0490  -12.8870   21.9600 N   0  0  0  0  0  0  0  0  0  0  0  0
  -22.3790  -14.6060   20.5790 O   0  0  0  0  0  0  0  0  0  0  0  0
  -22.4040  -12.0560   22.4120 H   0  0  0  0  0  0  0  0  0  0  0  0
  -21.1070  -13.1890   22.1610 H   0  0  0  0  0  0  0  0  0  0  0  0
  -25.4530  -15.2280   20.3370 N   0  0  0  0  0  0  0  0  0  0  0  0
  -24.6920  -15.8920   20.4220 H   0  0  0  0  0  0  0  0  0  0  0  0
  -26.3290  -15.6580   20.0660 H   0  0  0  0  0  0  0  0  0  0  0  0
  -29.1000  -22.4580   20.1520 C   0  0  0  0  0  3  0  0  0  0  0  0
  -28.5890  -23.8700   20.7450 C   0  0  0  0  0  3  0  0  0  0  0  0
  -28.5320  -25.1520   19.7770 C   0  0  0  0  0  3  0  0  0  0  0  0
  -28.3920  -26.5340   20.3100 O   0  0  0  0  0  0  0  0  0  0  0  0
  -24.5930  -31.8910   23.2560 C   0  0  0  0  0  0  0  0  0  0  0  0
  -27.2340  -27.3290   20.2210 C   0  0  0  0  0  0  0  0  0  0  0  0
  -23.3940  -30.4820   21.6170 C   0  0  0  0  0  3  0  0  0  0  0  0
  -24.8530  -28.9300   20.1970 C   0  0  0  0  0  0  0  0  0  0  0  0
  -25.9290  -30.8140   21.4280 C   0  0  0  0  0  2  0  0  0  0  0  0
  -26.0150  -29.4310   20.7910 C   0  0  0  0  0  0  0  0  0  0  0  0
  -27.2040  -28.6410   20.7910 C   0  0  0  0  0  3  0  0  0  0  0  0
  -26.0410  -26.8750   19.6120 C   0  0  0  0  0  3  0  0  0  0  0  0
  -24.8690  -27.6590   19.5980 C   0  0  0  0  0  3  0  0  0  0  0  0
  -23.6130  -29.7990   20.2400 C   0  0  0  0  0  2  0  0  0  0  0  0
  -24.6580  -31.0810   22.1580 N   0  0  0  0  0  0  0  0  0  0  0  0
  -23.5090  -32.1690   23.7890 O   0  0  0  0  0  0  0  0  0  0  0  0
  -22.7340  -29.4700   22.5830 C   0  0  0  0  0  0  0  0  0  0  0  0
  -21.4100  -29.2880   22.4540 N   0  0  0  0  0  0  0  0  0  0  0  0
  -23.4140  -28.8510   23.4060 O   0  0  0  0  0  0  0  0  0  0  0  0
  -20.9220  -29.8380   21.7610 H   0  0  0  0  0  0  0  0  0  0  0  0
  -18.0370  -28.0760   22.9390 C   0  0  0  0  0  0  0  0  0  0  0  0
  -20.5920  -28.3500   23.2250 C   0  0  0  0  0  3  0  0  0  0  0  0
  -20.7050  -26.9180   22.6560 C   0  0  0  0  0  2  0  0  0  0  0  0
  -19.6120  -26.5850   21.6370 C   0  0  0  0  0  2  0  0  0  0  0  0
  -18.2250  -26.7260   22.2700 C   0  0  0  0  0  2  0  0  0  0  0  0
  -19.1470  -28.8470   23.3720 C   0  0  0  0  0  0  0  0  0  0  0  0
  -18.9200  -30.1110   23.9560 C   0  0  0  0  0  3  0  0  0  0  0  0
  -17.6110  -30.6060   24.1140 C   0  0  0  0  0  3  0  0  0  0  0  0
  -16.5130  -29.8330   23.6970 C   0  0  0  0  0  3  0  0  0  0  0  0
  -16.7260  -28.5710   23.1150 C   0  0  0  0  0  3  0  0  0  0  0  0
  -25.8760  -32.5270   23.8780 C   0  0  0  0  0  3  0  0  0  0  0  0
  -26.3920  -31.7610   25.1590 C   0  0  1  0  0  0  0  0  0  0  0  0
  -25.2980  -31.5310   26.2280 C   0  0  0  0  0  1  0  0  0  0  0  0
  -26.9720  -30.3810   24.7710 C   0  0  0  0  0  1  0  0  0  0  0  0
  -27.5430  -32.5580   25.8180 C   0  0  0  0  0  1  0  0  0  0  0  0
  -25.5670  -33.9270   24.2030 N   0  0  0  0  0  0  0  0  0  0  0  0
  -25.8970  -34.9780   23.4390 C   0  0  0  0  0  0  0  0  0  0  0  0
  -26.5630  -34.8700   22.4060 O   0  0  0  0  0  0  0  0  0  0  0  0
  -24.9810  -34.0890   25.0080 H   0  0  0  0  0  0  0  0  0  0  0  0
  -24.1650  -36.7650   23.0880 C   0  0  0  0  0  1  0  0  0  0  0  0
  -25.4100  -36.3660   23.8940 C   0  0  0  0  0  3  0  0  0  0  0  0
  -27.5480  -37.2560   24.7110 C   0  0  0  0  0  1  0  0  0  0  0  0
  -26.4390  -37.4210   23.7750 N   0  0  0  0  0  0  0  0  0  0  0  0
  -26.0310  -38.3390   23.9280 H   0  0  0  0  0  0  0  0  0  0  0  0
  2  4  1  0
  3 17  1  0
  3  2  1  0
  4  7  2  0
  5  3  1  0
  5  6  1  0
  6  1  1  0
  6  4  1  0
  9 14  1  0
 10 11  1  0
 10  9  1  0
 12 11  1  0
 12 21  1  0
 12 13  1  0
 14  8  1  0
 14 13  1  0
 15  8  2  0
 16 17  1  0
 17  8  1  0
 18 19  2  0
 19 38  1  0
 20 19  1  0
 20 23  1  0
 21 18  1  0
 21 22  1  0
 22 20  2  0
 23 24  1  0
 24 25  2  0
 26 29  1  0
 26 25  1  0
 27 26  2  0
 28 27  1  0
 28 23  2  0
 29 30  1  0
 30 31  1  0
 31 32  2  0
 33 32  1  0
 33 37  1  0
 34 33  2  0
 35 30  2  0
 35 34  1  0
 36 35  1  0
 38 39  1  0
 39 42  1  0
 39 41  1  0
 40 38  2  0
 43 44  1  0
 43 18  1  0
 45 43  1  0
 46 47  1  0
 46  1  2  0
 48 49  1  0
 48 47  2  0
 50 61  2  0
 51 49  1  0
 51 56  1  0
 52 60  1  0
 52 62  1  0
 53 59  1  0
 53 55  1  0
 54 60  1  0
 55 54  1  0
 56 55  2  0
 57 51  2  0
 58 57  1  0
 58 53  2  0
 59 52  1  0
 60 50  1  0
 62 64  2  0
 63 62  1  0
 65 63  1  0
 66 75  2  0
 66 71  1  0
 67 63  1  0
 67 71  1  0
 68 67  1  0
 69 70  1  0
 69 68  1  0
 70 66  1  0
 71 72  2  0
 72 73  1  0
 74 73  2  0
 75 74  1  0
 76 50  1  0
 76 81  1  0
 76 77  1  0
 77 80  1  1
 77 78  1  0
 79 77  1  0
 81 84  1  0
 82 86  1  0
 82 81  1  0
 83 82  2  0
 86 85  1  0
 88 86  1  0
 88 89  1  0
 88 87  1  0
M  ISO  4   8 100  17 100  48 101  49 101
M  END
>  <TORSDO>  (4) 
F 20

>  <SCORE>  (4) 
-13.737

>  <name>  (4) 
3

>  <ligand_id>  (4) 
3

>  <original_smiles>  (4) 
[H]C1=C(N(C(=O)N2C([H])([H])C([H])([H])C([H])([H])C([H])(n3nc(-c4c([H])c([H])c(Oc5c([H])c([H])c(F)c([H])c5F)c([H])c4[H])c(C(=O)N([H])[H])c3N([H])[H])C2([H])[H])C([H])([H])[H])C([H])([H])C([H])(C([H])([H])C([H])([H])C([H])([H])C([H])([H])Oc2c([H])c([H])c3c(c2[H])C([H])([H])N(C(=O)C([H])(N([H])C(=O)C([H])(N([H])C([H])([H])[H])C([H])([H])[H])C(C([H])([H])[H])(C([H])([H])[H])C([H])([H])[H])C([H])(C(=O)N([H])C2([H])c4c([H])c([H])c([H])c([H])c4C([H])([H])C([H])([H])C2([H])[H])C3([H])[H])C1=O

>  <smiles>  (4) 
[H]C1=C(N(C(=O)N2C([H])([H])C([H])([H])C([H])([H])C([H])(n3nc(-c4c([H])c([H])c(Oc5c([H])c([H])c(F)c([H])c5F)c([H])c4[H])c(C(=O)N([H])[H])c3N([H])[H])C2([H])[H])C([H])([H])[H])C([H])([H])C([H])(C([H])([H])C([H])([H])C([H])([H])C([H])([H])Oc2c([H])c([H])c3c(c2[H])C([H])([H])N(C(=O)C([H])(N([H])C(=O)C([H])(N([H])C([H])([H])[H])C([H])([H])[H])C(C([H])([H])[H])(C([H])([H])[H])C([H])([H])[H])C([H])(C(=O)N([H])C2([H])c4c([H])c([H])c([H])c([H])c4C([H])([H])C([H])([H])C2([H])[H])C3([H])[H])C1=O

$$$$
4:0:0
     RDKit          3D

 91 99  0  0  1  0  0  0  0  0999 V2000
  -29.8480  -22.3600   21.0380 C   0  0  0  0  0  3  0  0  0  0  0  0
  -29.7400  -20.9590   21.0370 C   0  0  0  0  0  3  0  0  0  0  0  0
  -28.2540  -22.4860   19.2080 C   0  0  0  0  0  3  0  0  0  0  0  0
  -29.0720  -23.1390   20.1600 C   0  0  0  0  0  0  0  0  0  0  0  0
  -28.8480  -20.3100   20.1610 C   0  0  0  0  0  0  0  0  0  0  0  0
  -28.1270  -21.0790   19.2100 C   0  0  0  0  0  0  0  0  0  0  0  0
  -27.1690  -20.4390   18.2210 C   0  0  0  0  0  1  0  0  0  0  0  0
  -29.0790  -24.5990   20.3420 C   0  0  0  0  0  3  0  0  0  0  0  0
  -28.3900  -25.4880   19.6100 C   0  0  0  0  0  3  0  0  0  0  0  0
  -28.3660  -26.8140   19.9360 O   0  0  0  0  0  0  0  0  0  0  0  0
  -24.5770  -31.8760   23.1880 C   0  0  0  0  0  0  0  0  0  0  0  0
  -27.1570  -27.4750   19.9980 C   0  0  0  0  0  0  0  0  0  0  0  0
  -23.3310  -30.4880   21.5630 C   0  0  0  0  0  3  0  0  0  0  0  0
  -24.7470  -28.9570   20.1050 C   0  0  0  0  0  0  0  0  0  0  0  0
  -25.8510  -30.8490   21.3090 C   0  0  0  0  0  2  0  0  0  0  0  0
  -25.9170  -29.4810   20.6670 C   0  0  0  0  0  0  0  0  0  0  0  0
  -27.1210  -28.7440   20.6160 C   0  0  0  0  0  3  0  0  0  0  0  0
  -25.9530  -26.9530   19.4620 C   0  0  0  0  0  3  0  0  0  0  0  0
  -24.7560  -27.6860   19.5080 C   0  0  0  0  0  3  0  0  0  0  0  0
  -23.5070  -29.8140   20.1760 C   0  0  0  0  0  2  0  0  0  0  0  0
  -24.6060  -31.0850   22.0780 N   0  0  0  0  0  0  0  0  0  0  0  0
  -23.5100  -32.1440   23.7560 O   0  0  0  0  0  0  0  0  0  0  0  0
  -22.7010  -29.4600   22.5330 C   0  0  0  0  0  0  0  0  0  0  0  0
  -21.3750  -29.2720   22.4250 N   0  0  0  0  0  0  0  0  0  0  0  0
  -23.4010  -28.8350   23.3340 O   0  0  0  0  0  0  0  0  0  0  0  0
  -20.8710  -29.8360   21.7550 H   0  0  0  0  0  0  0  0  0  0  0  0
  -18.0150  -28.0490   22.9480 C   0  0  0  0  0  0  0  0  0  0  0  0
  -20.5730  -28.3300   23.2030 C   0  0  0  0  0  3  0  0  0  0  0  0
  -20.6820  -26.8980   22.6290 C   0  0  0  0  0  2  0  0  0  0  0  0
  -19.5770  -26.5640   21.6230 C   0  0  0  0  0  2  0  0  0  0  0  0
  -18.1980  -26.6990   22.2760 C   0  0  0  0  0  2  0  0  0  0  0  0
  -19.1310  -28.8230   23.3680 C   0  0  0  0  0  0  0  0  0  0  0  0
  -18.9040  -30.0890   23.9530 C   0  0  0  0  0  3  0  0  0  0  0  0
  -17.5960  -30.5800   24.1210 C   0  0  0  0  0  3  0  0  0  0  0  0
  -16.4960  -29.8050   23.7160 C   0  0  0  0  0  3  0  0  0  0  0  0
  -16.7070  -28.5400   23.1370 C   0  0  0  0  0  3  0  0  0  0  0  0
  -25.8790  -32.4980   23.7860 C   0  0  0  0  0  3  0  0  0  0  0  0
  -26.4450  -31.6910   25.0180 C   0  0  1  0  0  0  0  0  0  0  0  0
  -25.3950  -31.4160   26.1190 C   0  0  0  0  0  1  0  0  0  0  0  0
  -27.0170  -30.3290   24.5590 C   0  0  0  0  0  1  0  0  0  0  0  0
  -27.6170  -32.4690   25.6600 C   0  0  0  0  0  1  0  0  0  0  0  0
  -25.5750  -33.8850   24.1610 N   0  0  0  0  0  0  0  0  0  0  0  0
  -25.8950  -34.9580   23.4260 C   0  0  0  0  0  0  0  0  0  0  0  0
  -26.5450  -34.8830   22.3780 O   0  0  0  0  0  0  0  0  0  0  0  0
  -24.9990  -34.0150   24.9810 H   0  0  0  0  0  0  0  0  0  0  0  0
  -24.1610  -36.7570   23.1420 C   0  0  0  0  0  1  0  0  0  0  0  0
  -25.4110  -36.3320   23.9290 C   0  0  0  0  0  3  0  0  0  0  0  0
  -27.5570  -37.1900   24.7600 C   0  0  0  0  0  1  0  0  0  0  0  0
  -26.4430  -37.3860   23.8340 N   0  0  0  0  0  0  0  0  0  0  0  0
  -26.0420  -38.3020   24.0070 H   0  0  0  0  0  0  0  0  0  0  0  0
  -28.6590  -18.8050   20.3290 C   0  0  0  0  0  2  0  0  0  0  0  0
  -29.8170  -17.9620   19.7600 C   0  0  0  0  0  2  0  0  0  0  0  0
  -29.7140  -15.3580   20.0260 C   0  0  0  0  0  2  0  0  0  0  0  0
  -29.3920  -16.5270   19.4100 C   0  0  0  0  0  3  0  0  0  0  0  0
  -28.4860  -16.4470   18.1820 C   0  0  0  0  0  1  0  0  0  0  0  0
  -30.5730  -14.5300   20.8820 C   0  0  0  0  0  0  0  0  0  0  0  0
  -30.4790  -12.2780   20.0210 C   0  0  0  0  0  2  0  0  0  0  0  0
  -29.6200  -12.4220   18.7450 C   0  0  0  0  0  2  0  0  0  0  0  0
  -28.1140  -12.2790   19.0680 C   0  0  0  0  0  2  0  0  0  0  0  0
  -27.6560  -13.1160   20.2950 C   0  0  0  0  0  3  0  0  0  0  0  0
  -28.6650  -13.0080   21.4680 C   0  0  0  0  0  2  0  0  0  0  0  0
  -30.0310  -13.2890   20.9830 N   0  0  0  0  0  0  0  0  0  0  0  0
  -31.7870  -14.7410   20.9700 O   0  0  0  0  0  0  0  0  0  0  0  0
  -25.2150  -13.6660   20.8800 C   0  0  0  0  0  0  0  0  0  0  0  0
  -24.1460  -12.8660   21.1690 C   0  0  0  0  0  0  0  0  0  0  0  0
  -24.6420  -11.5270   21.1580 C   0  0  0  0  0  0  0  0  0  0  0  0
  -26.2930  -12.8070   20.7050 N   0  0  0  0  0  0  0  0  0  0  0  0
  -25.9480  -11.5170   20.9310 N   0  0  0  0  0  0  0  0  0  0  0  0
  -23.9380  -10.2480   21.2860 C   0  0  0  0  0  0  0  0  0  0  0  0
  -24.3590   -9.2670   22.2100 C   0  0  0  0  0  3  0  0  0  0  0  0
  -23.6590   -8.0490   22.3280 C   0  0  0  0  0  3  0  0  0  0  0  0
  -22.5230   -7.8030   21.5180 C   0  0  0  0  0  0  0  0  0  0  0  0
  -22.1250   -8.7720   20.5810 C   0  0  0  0  0  3  0  0  0  0  0  0
  -22.8260   -9.9830   20.4630 C   0  0  0  0  0  3  0  0  0  0  0  0
  -21.7970   -6.6380   21.5450 O   0  0  0  0  0  0  0  0  0  0  0  0
  -21.7420   -5.8500   22.6670 C   0  0  0  0  0  0  0  0  0  0  0  0
  -21.2740   -6.3460   23.9040 C   0  0  0  0  0  3  0  0  0  0  0  0
  -21.1660   -5.4840   25.0130 C   0  0  0  0  0  3  0  0  0  0  0  0
  -21.5180   -4.1270   24.8870 C   0  0  0  0  0  0  0  0  0  0  0  0
  -21.9780   -3.6300   23.6540 C   0  0  0  0  0  3  0  0  0  0  0  0
  -22.0870   -4.4890   22.5480 C   0  0  0  0  0  0  0  0  0  0  0  0
  -22.5100   -3.9990   21.3580 F   0  0  0  0  0  0  0  0  0  0  0  0
  -21.4080   -3.2970   25.9500 F   0  0  0  0  0  0  0  0  0  0  0  0
  -22.7220  -13.3050   21.3570 C   0  0  0  0  0  0  0  0  0  0  0  0
  -21.9620  -12.5840   22.1720 N   0  0  0  0  0  0  0  0  0  0  0  0
  -22.2920  -14.3250   20.8180 O   0  0  0  0  0  0  0  0  0  0  0  0
  -22.3220  -11.7560   22.6240 H   0  0  0  0  0  0  0  0  0  0  0  0
  -21.0070  -12.8620   22.3470 H   0  0  0  0  0  0  0  0  0  0  0  0
  -25.3600  -15.0450   20.7300 N   0  0  0  0  0  0  0  0  0  0  0  0
  -24.5790  -15.6870   20.7950 H   0  0  0  0  0  0  0  0  0  0  0  0
  -26.2340  -15.5000   20.4960 H   0  0  0  0  0  0  0  0  0  0  0  0
  2  1  1  0
  3  6  2  0
  3  4  1  0
  4  8  1  0
  4  1  2  0
  5 51  1  0
  5  2  2  0
  6  5  1  0
  7  6  1  0
  9 10  1  0
  9  8  2  0
 10 12  1  0
 11 22  2  0
 12 17  1  0
 13 21  1  0
 13 23  1  0
 14 20  1  0
 14 16  1  0
 15 21  1  0
 16 15  1  0
 17 16  2  0
 18 19  1  0
 18 12  2  0
 19 14  2  0
 20 13  1  0
 21 11  1  0
 23 25  2  0
 24 23  1  0
 26 24  1  0
 27 36  2  0
 27 32  1  0
 28 24  1  0
 28 32  1  0
 29 28  1  0
 30 31  1  0
 30 29  1  0
 31 27  1  0
 32 33  2  0
 33 34  1  0
 35 34  2  0
 36 35  1  0
 37 11  1  0
 37 42  1  0
 37 38  1  0
 38 41  1  1
 38 39  1  0
 40 38  1  0
 42 45  1  0
 43 47  1  0
 43 42  1  0
 44 43  2  0
 47 46  1  0
 49 47  1  0
 49 50  1  0
 49 48  1  0
 52 51  1  0
 53 56  1  0
 54 55  1  0
 54 52  1  0
 54 53  1  0
 56 63  2  0
 56 62  1  0
 57 62  1  0
 58 59  1  0
 58 57  1  0
 60 59  1  0
 60 67  1  0
 60 61  1  0
 62 61  1  0
 64 65  2  0
 65 84  1  0
 66 65  1  0
 66 69  1  0
 67 64  1  0
 67 68  1  0
 68 66  2  0
 69 70  1  0
 70 71  2  0
 72 75  1  0
 72 71  1  0
 73 72  2  0
 74 73  1  0
 74 69  2  0
 75 76  1  0
 76 77  1  0
 77 78  2  0
 79 78  1  0
 79 83  1  0
 80 79  2  0
 81 76  2  0
 81 80  1  0
 82 81  1  0
 84 85  1  0
 85 88  1  0
 85 87  1  0
 86 84  2  0
 89 90  1  0
 89 64  1  0
 91 89  1  0
M  ISO  4   9 101  10 101  53 100  56 100
M  END
>  <TORSDO>  (5) 
F 20

>  <SCORE>  (5) 
-12.830

>  <name>  (5) 
4

>  <ligand_id>  (5) 
4

>  <original_smiles>  (5) 
[H]C(Oc1c([H])c([H])c2c(c1[H])C([H])([H])N(C(=O)C([H])(N([H])C(=O)C([H])(N([H])C([H])([H])[H])C([H])([H])[H])C(C([H])([H])[H])(C([H])([H])[H])C([H])([H])[H])C([H])(C(=O)N([H])C1([H])c3c([H])c([H])c([H])c([H])c3C([H])([H])C([H])([H])C1([H])[H])C2([H])[H])=C([H])c1c([H])c([H])c(C([H])([H])C([H])([H])C(=C([H])C(=O)N2C([H])([H])C([H])([H])C([H])([H])C([H])(n3nc(-c4c([H])c([H])c(Oc5c([H])c([H])c(F)c([H])c5F)c([H])c4[H])c(C(=O)N([H])[H])c3N([H])[H])C2([H])[H])C([H])([H])[H])c(C([H])([H])[H])c1[H]

>  <smiles>  (5) 
[H]C(Oc1c([H])c([H])c2c(c1[H])C([H])([H])N(C(=O)C([H])(N([H])C(=O)C([H])(N([H])C([H])([H])[H])C([H])([H])[H])C(C([H])([H])[H])(C([H])([H])[H])C([H])([H])[H])C([H])(C(=O)N([H])C1([H])c3c([H])c([H])c([H])c([H])c3C([H])([H])C([H])([H])C1([H])[H])C2([H])[H])=C([H])c1c([H])c([H])c(C([H])([H])C([H])([H])C(=C([H])C(=O)N2C([H])([H])C([H])([H])C([H])([H])C([H])(n3nc(-c4c([H])c([H])c(Oc5c([H])c([H])c(F)c([H])c5F)c([H])c4[H])c(C(=O)N([H])[H])c3N([H])[H])C2([H])[H])C([H])([H])[H])c(C([H])([H])[H])c1[H]

$$$$
5:0:0
     RDKit          3D

 96104  0  0  1  0  0  0  0  0999 V2000
  -26.7610  -23.6420   21.8350 C   0  0  0  0  0  3  0  0  0  0  0  0
  -27.5390  -24.1900   19.5880 C   0  0  0  0  0  3  0  0  0  0  0  0
  -27.7330  -24.5000   22.3810 C   0  0  0  0  0  3  0  0  0  0  0  0
  -28.5070  -25.0520   20.1360 C   0  0  0  0  0  3  0  0  0  0  0  0
  -26.6490  -23.4950   20.4350 C   0  0  0  0  0  0  0  0  0  0  0  0
  -28.5890  -25.2310   21.5300 C   0  0  0  0  0  0  0  0  0  0  0  0
  -25.5590  -22.6200   19.8400 C   0  0  0  0  0  2  0  0  0  0  0  0
  -25.8700  -21.1140   19.8610 C   0  0  0  0  0  2  0  0  0  0  0  0
  -27.3230  -20.8430   19.8560 N   0  0  0  0  0  4  0  0  0  0  0  0
  -27.8340  -21.7040   19.7680 H   0  0  0  0  0  0  0  0  0  0  0  0
  -27.5970  -20.4430   20.7410 H   0  0  0  0  0  0  0  0  0  0  0  0
  -27.8030  -19.8950   18.8310 C   0  0  0  0  0  2  0  0  0  0  0  0
  -29.0000  -19.1260   19.3840 C   0  0  0  0  0  0  0  0  0  0  0  0
  -29.8370  -18.5450   18.5140 N   0  0  0  0  0  0  0  0  0  0  0  0
  -29.1710  -19.0700   20.6050 O   0  0  0  0  0  0  0  0  0  0  0  0
  -29.6180  -18.6170   17.5280 H   0  0  0  0  0  0  0  0  0  0  0  0
  -31.0960  -17.8750   18.8780 C   0  0  0  0  0  2  0  0  0  0  0  0
  -32.1250  -18.9140   19.3820 C   0  0  0  0  0  2  0  0  0  0  0  0
  -33.6120  -18.6490   19.0730 C   0  0  0  0  0  0  0  0  0  0  0  0
  -35.5460  -19.5440   17.8290 C   0  0  0  0  0  2  0  0  0  0  0  0
  -35.5490  -21.0830   17.9570 C   0  0  0  0  0  2  0  0  0  0  0  0
  -34.6710  -21.7330   16.8670 C   0  0  0  0  0  2  0  0  0  0  0  0
  -33.2640  -21.0880   16.7900 C   0  0  0  0  0  3  0  0  0  0  0  0
  -33.3830  -19.5510   16.7370 C   0  0  0  0  0  2  0  0  0  0  0  0
  -34.1470  -19.1010   17.9080 N   0  0  0  0  0  0  0  0  0  0  0  0
  -34.3140  -18.2340   20.0020 O   0  0  0  0  0  0  0  0  0  0  0  0
  -31.2230  -22.1650   15.6520 C   0  0  0  0  0  0  0  0  0  0  0  0
  -30.9970  -22.5480   14.3580 C   0  0  0  0  0  0  0  0  0  0  0  0
  -32.1690  -22.1790   13.6270 C   0  0  0  0  0  0  0  0  0  0  0  0
  -32.4900  -21.6010   15.6650 N   0  0  0  0  0  0  0  0  0  0  0  0
  -33.0300  -21.5590   14.4220 N   0  0  0  0  0  0  0  0  0  0  0  0
  -32.5470  -22.4340   12.2330 C   0  0  0  0  0  0  0  0  0  0  0  0
  -32.9650  -21.3910   11.3760 C   0  0  0  0  0  3  0  0  0  0  0  0
  -33.3100  -21.6590   10.0350 C   0  0  0  0  0  3  0  0  0  0  0  0
  -33.2340  -22.9800    9.5330 C   0  0  0  0  0  0  0  0  0  0  0  0
  -32.8410  -24.0200   10.3960 C   0  0  0  0  0  3  0  0  0  0  0  0
  -32.5020  -23.7510   11.7330 C   0  0  0  0  0  3  0  0  0  0  0  0
  -33.5730  -23.3380    8.2510 O   0  0  0  0  0  0  0  0  0  0  0  0
  -33.4880  -22.4480    7.2110 C   0  0  0  0  0  0  0  0  0  0  0  0
  -32.2910  -21.7620    6.9130 C   0  0  0  0  0  3  0  0  0  0  0  0
  -32.2270  -20.9100    5.7930 C   0  0  0  0  0  3  0  0  0  0  0  0
  -33.3540  -20.7490    4.9660 C   0  0  0  0  0  0  0  0  0  0  0  0
  -34.5470  -21.4340    5.2580 C   0  0  0  0  0  3  0  0  0  0  0  0
  -34.6120  -22.2840    6.3770 C   0  0  0  0  0  0  0  0  0  0  0  0
  -35.7550  -22.9590    6.6430 F   0  0  0  0  0  0  0  0  0  0  0  0
  -33.2930  -19.9370    3.8840 F   0  0  0  0  0  0  0  0  0  0  0  0
  -29.8040  -23.2980   13.8410 C   0  0  0  0  0  0  0  0  0  0  0  0
  -29.4430  -23.0830   12.5810 N   0  0  0  0  0  0  0  0  0  0  0  0
  -29.1580  -24.0510   14.5700 O   0  0  0  0  0  0  0  0  0  0  0  0
  -29.9620  -22.4510   11.9910 H   0  0  0  0  0  0  0  0  0  0  0  0
  -28.6330  -23.5540   12.2040 H   0  0  0  0  0  0  0  0  0  0  0  0
  -30.4760  -22.2750   16.8220 N   0  0  0  0  0  0  0  0  0  0  0  0
  -29.6240  -22.8240   16.8460 H   0  0  0  0  0  0  0  0  0  0  0  0
  -30.8640  -22.1040   17.7410 H   0  0  0  0  0  0  0  0  0  0  0  0
  -29.5740  -26.2420   22.0970 C   0  0  0  0  0  2  0  0  0  0  0  0
  -29.2490  -26.7200   23.4020 O   0  0  0  0  0  0  0  0  0  0  0  0
  -24.1410  -28.1610   28.0910 C   0  0  0  0  0  0  0  0  0  0  0  0
  -28.0920  -27.4430   23.6170 C   0  0  0  0  0  0  0  0  0  0  0  0
  -23.7380  -29.0020   25.7980 C   0  0  0  0  0  3  0  0  0  0  0  0
  -25.7330  -28.8860   24.2160 C   0  0  0  0  0  0  0  0  0  0  0  0
  -26.1190  -28.6840   26.6770 C   0  0  0  0  0  2  0  0  0  0  0  0
  -26.5430  -28.4070   25.2520 C   0  0  0  0  0  0  0  0  0  0  0  0
  -27.7160  -27.6800   24.9570 C   0  0  0  0  0  3  0  0  0  0  0  0
  -27.2660  -27.9420   22.5800 C   0  0  0  0  0  3  0  0  0  0  0  0
  -26.0880  -28.6510   22.8770 C   0  0  0  0  0  3  0  0  0  0  0  0
  -24.4940  -29.6560   24.6100 C   0  0  0  0  0  2  0  0  0  0  0  0
  -24.6610  -28.5740   26.9020 N   0  0  0  0  0  0  0  0  0  0  0  0
  -22.9210  -28.1750   28.2960 O   0  0  0  0  0  0  0  0  0  0  0  0
  -22.8650  -27.8510   25.2540 C   0  0  0  0  0  0  0  0  0  0  0  0
  -21.9020  -28.1930   24.3840 N   0  0  0  0  0  0  0  0  0  0  0  0
  -23.0710  -26.6830   25.5950 O   0  0  0  0  0  0  0  0  0  0  0  0
  -21.7810  -29.1730   24.1730 H   0  0  0  0  0  0  0  0  0  0  0  0
  -19.4530  -27.9570   21.7380 C   0  0  0  0  0  0  0  0  0  0  0  0
  -20.9890  -27.2710   23.7060 C   0  0  0  0  0  3  0  0  0  0  0  0
  -21.7470  -26.3960   22.6790 C   0  0  0  0  0  2  0  0  0  0  0  0
  -21.7430  -26.9890   21.2660 C   0  0  0  0  0  2  0  0  0  0  0  0
  -20.3110  -27.1720   20.7550 C   0  0  0  0  0  2  0  0  0  0  0  0
  -19.7850  -28.0160   23.1200 C   0  0  0  0  0  0  0  0  0  0  0  0
  -18.9880  -28.7990   23.9830 C   0  0  0  0  0  3  0  0  0  0  0  0
  -17.8770  -29.5080   23.4920 C   0  0  0  0  0  3  0  0  0  0  0  0
  -17.5390  -29.4260   22.1300 C   0  0  0  0  0  3  0  0  0  0  0  0
  -18.3210  -28.6450   21.2570 C   0  0  0  0  0  3  0  0  0  0  0  0
  -25.0600  -27.6830   29.2580 C   0  0  0  0  0  3  0  0  0  0  0  0
  -24.4590  -28.1490   30.5130 N   0  0  0  0  0  0  0  0  0  0  0  0
  -24.8880  -29.2050   31.2180 C   0  0  0  0  0  0  0  0  0  0  0  0
  -25.8910  -29.8550   30.9060 O   0  0  0  0  0  0  0  0  0  0  0  0
  -23.6020  -27.7000   30.8020 H   0  0  0  0  0  0  0  0  0  0  0  0
  -23.1550  -30.7900   32.1150 C   0  0  0  0  0  1  0  0  0  0  0  0
  -24.0760  -29.6090   32.4630 C   0  0  0  0  0  3  0  0  0  0  0  0
  -25.6310  -28.8100   34.1840 C   0  0  0  0  0  1  0  0  0  0  0  0
  -24.9160  -29.9530   33.6290 N   0  0  0  0  0  0  0  0  0  0  0  0
  -24.3520  -30.3640   34.3680 H   0  0  0  0  0  0  0  0  0  0  0  0
  -25.2690  -26.1200   29.2830 C   0  0  1  0  0  0  0  0  0  0  0  0
  -23.9480  -25.3190   29.2420 C   0  0  0  0  0  1  0  0  0  0  0  0
  -26.1370  -25.6620   28.0860 C   0  0  0  0  0  1  0  0  0  0  0  0
  -26.0320  -25.7130   30.5640 C   0  0  0  0  0  1  0  0  0  0  0  0
  1  3  1  0
  2  4  2  0
  2  5  1  0
  4  6  1  0
  5  1  2  0
  6 55  1  0
  6  3  2  0
  7  8  1  0
  7  5  1  0
  9  8  1  0
  9 11  1  0
 10  9  1  0
 12 13  1  0
 12  9  1  0
 13 15  2  0
 14 17  1  0
 14 13  1  0
 16 14  1  0
 17 18  1  0
 19 18  1  0
 19 26  2  0
 20 25  1  0
 20 21  1  0
 22 21  1  0
 23 30  1  0
 23 22  1  0
 24 23  1  0
 24 25  1  0
 25 19  1  0
 27 30  1  0
 27 52  1  0
 28 27  2  0
 29 28  1  0
 29 31  2  0
 31 30  1  0
 32 29  1  0
 33 32  2  0
 34 33  1  0
 35 34  2  0
 35 36  1  0
 36 37  2  0
 37 32  1  0
 38 35  1  0
 39 38  1  0
 40 39  1  0
 41 40  2  0
 42 43  2  0
 42 41  1  0
 43 44  1  0
 44 45  1  0
 44 39  2  0
 46 42  1  0
 47 28  1  0
 47 49  2  0
 48 47  1  0
 50 48  1  0
 51 48  1  0
 52 53  1  0
 52 54  1  0
 55 56  1  0
 56 58  1  0
 57 68  2  0
 58 63  1  0
 59 69  1  0
 59 67  1  0
 60 66  1  0
 60 62  1  0
 61 67  1  0
 62 61  1  0
 63 62  2  0
 64 65  1  0
 64 58  2  0
 65 60  2  0
 66 59  1  0
 67 57  1  0
 69 71  2  0
 70 69  1  0
 72 70  1  0
 73 78  1  0
 74 70  1  0
 75 74  1  0
 76 75  1  0
 77 76  1  0
 77 73  1  0
 78 74  1  0
 78 79  2  0
 80 79  1  0
 81 80  2  0
 82 73  2  0
 82 81  1  0
 83 57  1  0
 83 93  1  0
 83 84  1  0
 84 87  1  0
 84 85  1  0
 85 89  1  0
 86 85  2  0
 89 88  1  0
 89 91  1  0
 91 90  1  0
 91 92  1  0
 93 96  1  1
 94 93  1  0
 95 93  1  0
M  ISO  4  18 100  19 100  55 101  56 101
M  END
>  <TORSDO>  (6) 
F 24

>  <SCORE>  (6) 
1.287

>  <name>  (6) 
5

>  <ligand_id>  (6) 
5

>  <original_smiles>  (6) 
[H]c1c([H])c([H])c2c(c1[H])C([H])([H])C([H])([H])C([H])([H])C2([H])N([H])C(=O)C1([H])N(C(=O)C([H])(N([H])C(=O)C([H])(N([H])C([H])([H])[H])C([H])([H])[H])C(C([H])([H])[H])(C([H])([H])[H])C([H])([H])[H])C([H])([H])c2c([H])c(OC([H])([H])c3c([H])c([H])c(C([H])([H])C([H])([H])[N+]([H])([H])C([H])([H])C(=O)N([H])C([H])([H])C([H])([H])C(=O)N4C([H])([H])C([H])([H])C([H])([H])C([H])(n5nc(-c6c([H])c([H])c(Oc7c([H])c([H])c(F)c([H])c7F)c([H])c6[H])c(C(=O)N([H])[H])c5N([H])[H])C4([H])[H])c([H])c3[H])c([H])c([H])c2C1([H])[H]

>  <smiles>  (6) 
[H]c1c([H])c([H])c2c(c1[H])C([H])([H])C([H])([H])C([H])([H])C2([H])N([H])C(=O)C1([H])N(C(=O)C([H])(N([H])C(=O)C([H])(N([H])C([H])([H])[H])C([H])([H])[H])C(C([H])([H])[H])(C([H])([H])[H])C([H])([H])[H])C([H])([H])c2c([H])c(OC([H])([H])c3c([H])c([H])c(C([H])([H])C([H])([H])[N+]([H])([H])C([H])([H])C(=O)N([H])C([H])([H])C([H])([H])C(=O)N4C([H])([H])C([H])([H])C([H])([H])C([H])(n5nc(-c6c([H])c([H])c(Oc7c([H])c([H])c(F)c([H])c7F)c([H])c6[H])c(C(=O)N([H])[H])c5N([H])[H])C4([H])[H])c([H])c3[H])c([H])c([H])c2C1([H])[H]

$$$$
6:0:0
     RDKit          3D

 90 97  0  0  1  0  0  0  0  0999 V2000
  -29.8200  -21.9670   20.4140 C   0  0  0  0  0  2  0  0  0  0  0  0
  -29.4870  -20.6540   21.1420 C   0  0  0  0  0  2  0  0  0  0  0  0
  -30.3510  -19.4740   20.6810 C   0  0  0  0  0  2  0  0  0  0  0  0
  -29.9560  -18.1400   21.3520 C   0  0  0  0  0  2  0  0  0  0  0  0
  -30.7210  -16.9310   20.7680 C   0  0  0  0  0  3  0  0  0  0  0  0
  -32.1610  -17.0050   21.1070 N   0  0  0  0  0  4  0  0  0  0  0  0
  -32.3180  -16.9560   22.0980 H   0  0  0  0  0  0  0  0  0  0  0  0
  -32.5660  -17.8570   20.7590 H   0  0  0  0  0  0  0  0  0  0  0  0
  -32.6420  -16.2380   20.6640 H   0  0  0  0  0  0  0  0  0  0  0  0
  -30.0870  -15.5560   21.1480 C   0  0  0  0  0  2  0  0  0  0  0  0
  -30.6250  -14.3900   20.2940 C   0  0  0  0  0  0  0  0  0  0  0  0
  -30.2430  -12.2730   19.0860 C   0  0  0  0  0  2  0  0  0  0  0  0
  -29.2650  -12.4960   17.9160 C   0  0  0  0  0  2  0  0  0  0  0  0
  -27.8070  -12.3590   18.3930 C   0  0  0  0  0  2  0  0  0  0  0  0
  -27.5110  -13.1910   19.6710 C   0  0  0  0  0  3  0  0  0  0  0  0
  -28.6020  -12.9580   20.7440 C   0  0  0  0  0  2  0  0  0  0  0  0
  -29.9120  -13.2430   20.1390 N   0  0  0  0  0  0  0  0  0  0  0  0
  -31.6970  -14.5710   19.7080 O   0  0  0  0  0  0  0  0  0  0  0  0
  -25.1270  -13.7890   20.4430 C   0  0  0  0  0  0  0  0  0  0  0  0
  -24.0730  -13.0100   20.8390 C   0  0  0  0  0  0  0  0  0  0  0  0
  -24.5390  -11.6610   20.7950 C   0  0  0  0  0  0  0  0  0  0  0  0
  -26.1700  -12.9130   20.1860 N   0  0  0  0  0  0  0  0  0  0  0  0
  -25.8210  -11.6280   20.4550 N   0  0  0  0  0  0  0  0  0  0  0  0
  -23.8240  -10.3950   21.0060 C   0  0  0  0  0  0  0  0  0  0  0  0
  -24.2930   -9.4250   21.9170 C   0  0  0  0  0  3  0  0  0  0  0  0
  -23.5790   -8.2230   22.1160 C   0  0  0  0  0  3  0  0  0  0  0  0
  -22.3800   -7.9840   21.4030 C   0  0  0  0  0  0  0  0  0  0  0  0
  -21.9300   -8.9430   20.4790 C   0  0  0  0  0  3  0  0  0  0  0  0
  -22.6440  -10.1370   20.2800 C   0  0  0  0  0  3  0  0  0  0  0  0
  -21.6330   -6.8370   21.5120 O   0  0  0  0  0  0  0  0  0  0  0  0
  -21.6430   -6.0780   22.6540 C   0  0  0  0  0  0  0  0  0  0  0  0
  -21.2940   -6.6180   23.9120 C   0  0  0  0  0  3  0  0  0  0  0  0
  -21.2510   -5.7850   25.0480 C   0  0  0  0  0  3  0  0  0  0  0  0
  -21.5470   -4.4140   24.9300 C   0  0  0  0  0  0  0  0  0  0  0  0
  -21.8900   -3.8730   23.6780 C   0  0  0  0  0  3  0  0  0  0  0  0
  -21.9360   -4.7030   22.5440 C   0  0  0  0  0  0  0  0  0  0  0  0
  -22.2450   -4.1730   21.3360 F   0  0  0  0  0  0  0  0  0  0  0  0
  -21.4990   -3.6130   26.0200 F   0  0  0  0  0  0  0  0  0  0  0  0
  -22.6810  -13.4800   21.1480 C   0  0  0  0  0  0  0  0  0  0  0  0
  -21.9800  -12.7810   22.0350 N   0  0  0  0  0  0  0  0  0  0  0  0
  -22.2210  -14.5010   20.6380 O   0  0  0  0  0  0  0  0  0  0  0  0
  -22.3620  -11.9530   22.4680 H   0  0  0  0  0  0  0  0  0  0  0  0
  -21.0450  -13.0760   22.2830 H   0  0  0  0  0  0  0  0  0  0  0  0
  -25.2820  -15.1590   20.2590 N   0  0  0  0  0  0  0  0  0  0  0  0
  -24.5150  -15.8110   20.3830 H   0  0  0  0  0  0  0  0  0  0  0  0
  -26.1210  -15.6000   19.9040 H   0  0  0  0  0  0  0  0  0  0  0  0
  -28.9620  -23.1200   20.9510 C   0  0  0  0  0  2  0  0  0  0  0  0
  -29.2000  -24.4750   20.2620 C   0  0  0  0  0  2  0  0  0  0  0  0
  -28.3630  -25.5760   20.9290 C   0  0  0  0  0  2  0  0  0  0  0  0
  -28.4220  -26.7860   20.1800 O   0  0  0  0  0  0  0  0  0  0  0  0
  -24.5860  -31.9190   23.2430 C   0  0  0  0  0  0  0  0  0  0  0  0
  -27.2480  -27.4980   20.1870 C   0  0  0  0  0  0  0  0  0  0  0  0
  -23.3800  -30.5010   21.6120 C   0  0  0  0  0  3  0  0  0  0  0  0
  -24.8390  -28.9630   20.1940 C   0  0  0  0  0  0  0  0  0  0  0  0
  -25.8980  -30.8840   21.3970 C   0  0  0  0  0  2  0  0  0  0  0  0
  -25.9930  -29.5090   20.7730 C   0  0  0  0  0  0  0  0  0  0  0  0
  -27.2040  -28.7830   20.7670 C   0  0  0  0  0  3  0  0  0  0  0  0
  -26.0820  -26.9590   19.6050 C   0  0  0  0  0  3  0  0  0  0  0  0
  -24.8770  -27.6850   19.6100 C   0  0  0  0  0  3  0  0  0  0  0  0
  -23.5890  -29.8110   20.2370 C   0  0  0  0  0  2  0  0  0  0  0  0
  -24.6400  -31.1140   22.1430 N   0  0  0  0  0  0  0  0  0  0  0  0
  -23.5070  -32.1890   23.7870 O   0  0  0  0  0  0  0  0  0  0  0  0
  -22.7360  -29.4820   22.5800 C   0  0  0  0  0  0  0  0  0  0  0  0
  -21.4110  -29.2990   22.4610 N   0  0  0  0  0  0  0  0  0  0  0  0
  -23.4240  -28.8590   23.3920 O   0  0  0  0  0  0  0  0  0  0  0  0
  -20.9160  -29.8610   21.7830 H   0  0  0  0  0  0  0  0  0  0  0  0
  -18.0410  -28.1000   22.9620 C   0  0  0  0  0  0  0  0  0  0  0  0
  -20.5980  -28.3640   23.2360 C   0  0  0  0  0  3  0  0  0  0  0  0
  -20.7040  -26.9290   22.6700 C   0  0  0  0  0  2  0  0  0  0  0  0
  -19.6050  -26.5980   21.6550 C   0  0  0  0  0  2  0  0  0  0  0  0
  -18.2210  -26.7450   22.2960 C   0  0  0  0  0  2  0  0  0  0  0  0
  -19.1580  -28.8670   23.3870 C   0  0  0  0  0  0  0  0  0  0  0  0
  -18.9370  -30.1350   23.9670 C   0  0  0  0  0  3  0  0  0  0  0  0
  -17.6320  -30.6390   24.1240 C   0  0  0  0  0  3  0  0  0  0  0  0
  -16.5300  -29.8690   23.7150 C   0  0  0  0  0  3  0  0  0  0  0  0
  -16.7350  -28.6010   23.1410 C   0  0  0  0  0  3  0  0  0  0  0  0
  -25.8730  -32.5570   23.8550 C   0  0  0  0  0  3  0  0  0  0  0  0
  -26.4000  -31.7920   25.1290 C   0  0  1  0  0  0  0  0  0  0  0  0
  -25.3100  -31.5550   26.2010 C   0  0  0  0  0  1  0  0  0  0  0  0
  -26.9850  -30.4170   24.7290 C   0  0  0  0  0  1  0  0  0  0  0  0
  -27.5510  -32.5880   25.7860 C   0  0  0  0  0  1  0  0  0  0  0  0
  -25.5650  -33.9550   24.1800 N   0  0  0  0  0  0  0  0  0  0  0  0
  -25.8960  -35.0040   23.4130 C   0  0  0  0  0  0  0  0  0  0  0  0
  -26.5640  -34.8950   22.3810 O   0  0  0  0  0  0  0  0  0  0  0  0
  -24.9760  -34.1150   24.9830 H   0  0  0  0  0  0  0  0  0  0  0  0
  -24.1600  -36.7840   23.0460 C   0  0  0  0  0  1  0  0  0  0  0  0
  -25.4050  -36.3930   23.8590 C   0  0  0  0  0  3  0  0  0  0  0  0
  -27.5400  -37.2850   24.6770 C   0  0  0  0  0  1  0  0  0  0  0  0
  -26.4330  -37.4480   23.7370 N   0  0  0  0  0  0  0  0  0  0  0  0
  -26.0260  -38.3670   23.8860 H   0  0  0  0  0  0  0  0  0  0  0  0
  1 47  1  0
  1  2  1  0
  3  2  1  0
  3  4  1  0
  5  6  1  0
  5 10  1  0
  5  4  1  0
  6  7  1  0
  8  6  1  0
  9  6  1  0
 11 10  1  0
 12 17  1  0
 13 14  1  0
 13 12  1  0
 15 14  1  0
 15 22  1  0
 15 16  1  0
 17 11  1  0
 17 16  1  0
 18 11  2  0
 19 20  2  0
 20 39  1  0
 21 20  1  0
 21 24  1  0
 22 19  1  0
 22 23  1  0
 23 21  2  0
 24 25  1  0
 25 26  2  0
 27 30  1  0
 27 26  1  0
 28 27  2  0
 29 28  1  0
 29 24  2  0
 30 31  1  0
 31 32  1  0
 32 33  2  0
 34 33  1  0
 34 38  1  0
 35 34  2  0
 36 31  2  0
 36 35  1  0
 37 36  1  0
 39 40  1  0
 40 43  1  0
 40 42  1  0
 41 39  2  0
 44 45  1  0
 44 19  1  0
 46 44  1  0
 48 49  1  0
 48 47  1  0
 50 52  1  0
 50 49  1  0
 51 62  2  0
 52 57  1  0
 53 61  1  0
 53 63  1  0
 54 60  1  0
 54 56  1  0
 55 61  1  0
 56 55  1  0
 57 56  2  0
 58 59  1  0
 58 52  2  0
 59 54  2  0
 60 53  1  0
 61 51  1  0
 63 65  2  0
 64 63  1  0
 66 64  1  0
 67 76  2  0
 67 72  1  0
 68 64  1  0
 68 72  1  0
 69 68  1  0
 70 71  1  0
 70 69  1  0
 71 67  1  0
 72 73  2  0
 73 74  1  0
 75 74  2  0
 76 75  1  0
 77 51  1  0
 77 82  1  0
 77 78  1  0
 78 81  1  1
 78 79  1  0
 80 78  1  0
 82 85  1  0
 83 87  1  0
 83 82  1  0
 84 83  2  0
 87 86  1  0
 89 87  1  0
 89 90  1  0
 89 88  1  0
M  ISO  4  10 100  11 100  49 101  50 101
M  END
>  <TORSDO>  (7) 
F 25

>  <SCORE>  (7) 
-11.829

>  <name>  (7) 
6

>  <ligand_id>  (7) 
6

>  <original_smiles>  (7) 
[H]c1c([H])c([H])c2c(c1[H])C([H])([H])C([H])([H])C([H])([H])C2([H])N([H])C(=O)C1([H])N(C(=O)C([H])(N([H])C(=O)C([H])(N([H])C([H])([H])[H])C([H])([H])[H])C(C([H])([H])[H])(C([H])([H])[H])C([H])([H])[H])C([H])([H])c2c([H])c(OC([H])([H])C([H])([H])C([H])([H])C([H])([H])C([H])([H])C([H])([H])C([H])([H])C([H])(C([H])([H])C(=O)N3C([H])([H])C([H])([H])C([H])([H])C([H])(n4nc(-c5c([H])c([H])c(Oc6c([H])c([H])c(F)c([H])c6F)c([H])c5[H])c(C(=O)N([H])[H])c4N([H])[H])C3([H])[H])[N+]([H])([H])[H])c([H])c([H])c2C1([H])[H]

>  <smiles>  (7) 
[H]c1c([H])c([H])c2c(c1[H])C([H])([H])C([H])([H])C([H])([H])C2([H])N([H])C(=O)C1([H])N(C(=O)C([H])(N([H])C(=O)C([H])(N([H])C([H])([H])[H])C([H])([H])[H])C(C([H])([H])[H])(C([H])([H])[H])C([H])([H])[H])C([H])([H])c2c([H])c(OC([H])([H])C([H])([H])C([H])([H])C([H])([H])C([H])([H])C([H])([H])C([H])([H])C([H])(C([H])([H])C(=O)N3C([H])([H])C([H])([H])C([H])([H])C([H])(n4nc(-c5c([H])c([H])c(Oc6c([H])c([H])c(F)c([H])c6F)c([H])c5[H])c(C(=O)N([H])[H])c4N([H])[H])C3([H])[H])[N+]([H])([H])[H])c([H])c([H])c2C1([H])[H]

$$$$
7:0:0
     RDKit          3D

 92 94  0  0  1  0  0  0  0  0999 V2000
  -27.4390  -24.3310   18.8560 C   0  0  0  0  0  2  0  0  0  0  0  0
  -25.9770  -23.1440   21.1030 C   0  0  0  0  0  2  0  0  0  0  0  0
  -26.6990  -26.1380   18.9280 C   0  0  0  0  0  2  0  0  0  0  0  0
  -24.9560  -24.5180   21.6670 C   0  0  0  0  0  3  0  0  0  0  0  0
  -27.1170  -22.7720   19.8220 C   0  0  0  0  0  2  0  0  0  0  0  0
  -25.0060  -26.2240   20.9230 C   0  0  0  0  0  3  0  0  0  0  0  0
  -28.9300  -21.0600   18.3520 C   0  0  0  0  0  2  0  0  0  0  0  0
  -30.0130  -21.4850   19.3240 C   0  0  0  0  0  2  0  0  0  0  0  0
  -28.1070  -20.7190   19.5910 C   0  0  0  0  0  2  0  0  0  0  0  0
  -29.2800  -20.9100   20.4350 O   0  0  0  0  0  0  0  0  0  0  0  0
  -28.3230  -18.2780   19.6850 C   0  0  0  0  0 15  0  0  0  0  0  0
  -29.2670  -16.2170   19.3080 C   0  0  0  0  0  2  0  0  0  0  0  0
  -29.7390  -13.4360   18.4420 C   0  0  0  0  0  2  0  0  0  0  0  0
  -28.8420  -12.5590   17.4650 C   0  0  0  0  0  2  0  0  0  0  0  0
  -27.6570  -11.9040   18.1770 C   0  0  0  0  0  2  0  0  0  0  0  0
  -27.1370  -12.8870   19.2310 C   0  0  0  0  0  3  0  0  0  0  0  0
  -28.2220  -13.6140   20.1050 C   0  0  0  0  0  2  0  0  0  0  0  0
  -29.0190  -14.6240   19.2720 N   0  0  0  0  0  0  0  0  0  0  0  0
  -30.4830  -16.0560   18.9430 O   0  0  0  0  0  1  0  0  0  0  0  0
  -24.9930  -13.2030   20.4920 C   0  0  0  0  0  0  0  0  0  0  0  0
  -24.0520  -12.3600   21.0010 C   0  0  0  0  0  0  0  0  0  0  0  0
  -24.5430  -11.0330   20.7830 C   0  0  0  0  0  0  0  0  0  0  0  0
  -25.9950  -12.4010   19.9920 N   0  0  0  0  0  0  0  0  0  0  0  0
  -25.7520  -11.0770   20.2160 N   0  0  0  0  0  0  0  0  0  0  0  0
  -23.8840   -9.7390   21.0280 C   0  0  0  0  0  0  0  0  0  0  0  0
  -24.4270   -8.7820   21.9140 C   0  0  0  0  0  3  0  0  0  0  0  0
  -23.7550   -7.5640   22.1570 C   0  0  0  0  0  3  0  0  0  0  0  0
  -22.5240   -7.2910   21.5140 C   0  0  0  0  0  0  0  0  0  0  0  0
  -21.9970   -8.2370   20.6170 C   0  0  0  0  0  3  0  0  0  0  0  0
  -22.6690   -9.4460   20.3740 C   0  0  0  0  0  3  0  0  0  0  0  0
  -21.8160   -6.1220   21.6680 O   0  0  0  0  0  0  0  0  0  0  0  0
  -21.7760   -5.4540   22.8650 C   0  0  0  0  0  0  0  0  0  0  0  0
  -21.2550   -6.0510   24.0330 C   0  0  0  0  0  3  0  0  0  0  0  0
  -21.1670   -5.3050   25.2270 C   0  0  0  0  0  3  0  0  0  0  0  0
  -21.5920   -3.9630   25.2520 C   0  0  0  0  0  0  0  0  0  0  0  0
  -22.1060   -3.3660   24.0880 C   0  0  0  0  0  3  0  0  0  0  0  0
  -22.1940   -4.1090   22.8980 C   0  0  0  0  0  0  0  0  0  0  0  0
  -22.6690   -3.5200   21.7730 F   0  0  0  0  0  0  0  0  0  0  0  0
  -21.5030   -3.2450   26.3960 F   0  0  0  0  0  0  0  0  0  0  0  0
  -22.7250  -12.7750   21.5580 C   0  0  0  0  0  0  0  0  0  0  0  0
  -22.1910  -12.0120   22.5040 N   0  0  0  0  0  0  0  0  0  0  0  0
  -22.1790  -13.8150   21.1910 O   0  0  0  0  0  0  0  0  0  0  0  0
  -22.6530  -11.1720   22.8180 H   0  0  0  0  0  0  0  0  0  0  0  0
  -21.3080  -12.2720   22.9210 H   0  0  0  0  0  0  0  0  0  0  0  0
  -25.0700  -14.5880   20.3720 N   0  0  0  0  0  0  0  0  0  0  0  0
  -24.3140  -15.1970   20.6680 H   0  0  0  0  0  0  0  0  0  0  0  0
  -25.8180  -15.0820   19.9040 H   0  0  0  0  0  0  0  0  0  0  0  0
  -23.4340  -29.1530   20.0220 C   0  0  0  0  0  3  0  0  0  0  0  0
  -24.2980  -27.5470   21.4120 N   0  0  0  0  0  2  0  0  0  0  0  0
  -25.4070  -27.4170   22.4990 C   0  0  0  0  0  2  0  0  0  0  0  0
  -27.0860  -27.6100   22.2930 C   0  0  0  0  0  2  0  0  0  0  0  0
  -27.9130  -27.4190   20.9850 O   0  0  0  0  0  0  0  0  0  0  0  0
  -24.9000  -32.1250   24.3560 C   0  0  0  0  0  0  0  0  0  0  0  0
  -27.3430  -27.6790   19.7900 C   0  0  0  0  0  3  0  0  0  0  0  0
  -23.2660  -31.2190   22.3970 C   0  0  0  0  0  2  0  0  0  0  0  0
  -24.6640  -30.1820   19.1980 C   0  0  0  0  0  2  0  0  0  0  0  0
  -26.6640  -31.3750   22.0080 C   0  0  0  0  0 15  0  0  0  0  0  0
  -26.5510  -30.5420   19.9930 C   0  0  0  0  0  1  0  0  0  0  0  0
  -27.6580  -29.3670   20.0950 C   0  0  0  0  0  2  0  0  0  0  0  0
  -25.0770  -27.2570   18.7840 C   0  0  0  0  0  1  0  0  0  0  0  0
  -24.1420  -28.7130   18.6310 C   0  0  0  0  0  3  0  0  0  0  0  0
  -23.0160  -30.5630   20.3860 C   0  0  0  0  0  1  0  0  0  0  0  0
  -25.0040  -31.5740   23.1030 N   0  0  0  0  0  2  0  0  0  0  0  0
  -23.8080  -32.3400   24.9180 O   0  0  0  0  0  0  0  0  0  0  0  0
  -22.5400  -30.2070   23.1990 C   0  0  0  0  0  0  0  0  0  0  0  0
  -21.2570  -30.0830   22.8850 N   0  0  0  0  0  0  0  0  0  0  0  0
  -23.1440  -29.4850   23.9870 O   0  0  0  0  0  0  0  0  0  0  0  0
  -20.8520  -30.7250   22.2190 H   0  0  0  0  0  0  0  0  0  0  0  0
  -18.0050  -28.6520   22.6000 C   0  0  0  0  0  0  0  0  0  0  0  0
  -20.4510  -28.9620   23.3000 C   0  0  0  0  0  3  0  0  0  0  0  0
  -20.7710  -27.7310   22.4230 C   0  0  0  0  0  2  0  0  0  0  0  0
  -19.8480  -27.6110   21.2100 C   0  0  0  0  0  2  0  0  0  0  0  0
  -18.3910  -27.5140   21.6690 C   0  0  0  0  0  2  0  0  0  0  0  0
  -18.9830  -29.3540   23.3460 C   0  0  0  0  0  0  0  0  0  0  0  0
  -18.5940  -30.4410   24.1590 C   0  0  0  0  0  3  0  0  0  0  0  0
  -17.2420  -30.8170   24.2470 C   0  0  0  0  0  3  0  0  0  0  0  0
  -16.2690  -30.0990   23.5310 C   0  0  0  0  0  3  0  0  0  0  0  0
  -16.6490  -29.0190   22.7120 C   0  0  0  0  0  3  0  0  0  0  0  0
  -26.1720  -32.4970   25.1450 C   0  0  0  0  0  3  0  0  0  0  0  0
  -26.1110  -33.9330   25.4980 N   0  0  0  0  0  0  0  0  0  0  0  0
  -26.7290  -34.9290   24.8500 C   0  0  0  0  0  0  0  0  0  0  0  0
  -27.4280  -34.7340   23.8540 O   0  0  0  0  0  0  0  0  0  0  0  0
  -25.5040  -34.1750   26.2680 H   0  0  0  0  0  0  0  0  0  0  0  0
  -25.4940  -37.1150   24.5760 C   0  0  0  0  0  1  0  0  0  0  0  0
  -26.5560  -36.3650   25.3960 C   0  0  0  0  0  3  0  0  0  0  0  0
  -28.7930  -36.6620   26.3710 C   0  0  0  0  0  1  0  0  0  0  0  0
  -27.8120  -37.1490   25.4070 N   0  0  0  0  0  0  0  0  0  0  0  0
  -27.6250  -38.1270   25.6120 H   0  0  0  0  0  0  0  0  0  0  0  0
  -26.3250  -31.6520   26.4720 C   0  0  1  0  0  0  0  0  0  0  0  0
  -25.0510  -31.6330   27.3490 C   0  0  0  0  0  1  0  0  0  0  0  0
  -26.7010  -30.1810   26.2380 C   0  0  0  0  0  1  0  0  0  0  0  0
  -27.4960  -32.2260   27.2970 C   0  0  0  0  0  1  0  0  0  0  0  0
  1  3  1  0
  1  5  1  0
  2  4  1  0
  3 54  1  0
  5  2  1  0
  6 49  1  0
  6  4  2  0
  7  8  1  0
  7  9  1  0
  8 10  1  0
  9 10  1  0
 13 18  1  0
 14 15  1  0
 14 13  1  0
 16 15  1  0
 16 23  1  0
 16 17  1  0
 18 12  1  0
 18 17  1  0
 19 12  1  0
 20 21  2  0
 21 40  1  0
 22 21  1  0
 22 25  1  0
 23 24  1  0
 23 20  1  0
 24 22  2  0
 25 26  1  0
 26 27  2  0
 28 31  1  0
 28 27  1  0
 29 28  2  0
 30 29  1  0
 30 25  2  0
 31 32  1  0
 32 37  2  0
 32 33  1  0
 33 34  2  0
 34 35  1  0
 35 39  1  0
 36 35  2  0
 37 36  1  0
 38 37  1  0
 40 41  1  0
 41 43  1  0
 41 44  1  0
 42 40  2  0
 45 20  1  0
 45 46  1  0
 47 45  1  0
 48 62  1  0
 49 50  1  0
 51 50  1  0
 52 51  1  0
 53 64  2  0
 54 59  1  0
 54 52  1  0
 55 63  1  0
 55 65  1  0
 56 48  1  0
 58 59  1  0
 61 60  1  0
 61 56  1  0
 61 48  1  0
 63 53  1  0
 65 67  2  0
 66 65  1  0
 68 66  1  0
 69 78  2  0
 69 74  1  0
 70 66  1  0
 70 74  1  0
 71 70  1  0
 72 73  1  0
 72 71  1  0
 73 69  1  0
 74 75  2  0
 75 76  1  0
 77 76  2  0
 78 77  1  0
 79 53  1  0
 79 80  1  0
 79 89  1  0
 80 83  1  0
 81 85  1  0
 81 80  1  0
 82 81  2  0
 85 84  1  0
 85 87  1  0
 87 88  1  0
 87 86  1  0
 89 92  1  1
 89 90  1  0
 91 89  1  0
M  ISO  4  11 100  12 100  51 101  52 101
M  END
>  <TORSDO>  (8) 
F 21

>  <SCORE>  (8) 
-6.266

>  <name>  (8) 
7

>  <ligand_id>  (8) 
7

>  <original_smiles>  (8) 
[H]c1c([H])c([H])c2c(c1[H])C([H])([H])C([H])([H])C([H])([H])C2([H])N([H])C(=O)C1([H])N(C(=O)C([H])(N([H])C(=O)C([H])(N([H])C([H])([H])[H])C([H])([H])[H])C(C([H])([H])[H])(C([H])([H])[H])C([H])([H])[H])C([H])([H])c2c([H])c(OC([H])([H])C([H])([H])N(c3c([H])c([H])c(C4(C([H])([H])C(=O)N5C([H])([H])C([H])([H])C([H])([H])C([H])(n6nc(-c7c([H])c([H])c(Oc8c([H])c([H])c(F)c([H])c8F)c([H])c7[H])c(C(=O)N([H])[H])c6N([H])[H])C5([H])[H])OC([H])([H])C4([H])[H])c([H])c3[H])C([H])([H])[H])c([H])c([H])c2C1([H])[H]

>  <smiles>  (8) 
[H]c1c([H])c([H])c2c(c1[H])C([H])([H])C([H])([H])C([H])([H])C2([H])N([H])C(=O)C1([H])N(C(=O)C([H])(N([H])C(=O)C([H])(N([H])C([H])([H])[H])C([H])([H])[H])C(C([H])([H])[H])(C([H])([H])[H])C([H])([H])[H])C([H])([H])c2c([H])c(OC([H])([H])C([H])([H])N(c3c([H])c([H])c(C4(C([H])([H])C(=O)N5C([H])([H])C([H])([H])C([H])([H])C([H])(n6nc(-c7c([H])c([H])c(Oc8c([H])c([H])c(F)c([H])c8F)c([H])c7[H])c(C(=O)N([H])[H])c6N([H])[H])C5([H])[H])OC([H])([H])C4([H])[H])c([H])c3[H])C([H])([H])[H])c([H])c([H])c2C1([H])[H]

$$$$
8:0:0
     RDKit          3D

 95104  0  0  1  0  0  0  0  0999 V2000
  -30.6790  -21.5580   16.3580 C   0  0  0  0  0  3  0  0  0  0  0  0
  -31.2000  -20.3700   15.8340 C   0  0  0  0  0  3  0  0  0  0  0  0
  -30.0750  -21.5580   17.6280 C   0  0  0  0  0  3  0  0  0  0  0  0
  -31.1060  -19.1860   16.5820 C   0  0  0  0  0  3  0  0  0  0  0  0
  -30.0030  -20.3870   18.4270 C   0  0  0  0  0  0  0  0  0  0  0  0
  -30.5150  -19.1670   17.8750 C   0  0  0  0  0  0  0  0  0  0  0  0
  -29.3860  -20.4170   19.7140 C   0  0  0  0  0  0  0  0  0  0  0  0
  -29.8790  -17.8140   19.8590 C   0  0  0  0  0  0  0  0  0  0  0  0
  -30.4100  -17.9180   18.5510 C   0  0  0  0  0  0  0  0  0  0  0  0
  -29.3770  -19.0990   20.4080 C   0  0  0  0  0  0  0  0  0  0  0  0
  -30.7520  -16.7750   17.8840 O   0  0  0  0  0  0  0  0  0  0  0  0
  -30.9480  -16.9340   16.9690 H   0  0  0  0  0  0  0  0  0  0  0  0
  -28.8050  -19.0400   21.6460 O   0  0  0  0  0  0  0  0  0  0  0  0
  -28.5990  -19.8970   22.0080 H   0  0  0  0  0  0  0  0  0  0  0  0
  -29.7200  -16.3240   20.5620 C   0  0  0  0  0  2  0  0  0  0  0  0
  -30.5380  -14.9170   20.2200 C   0  0  0  0  0  0  0  0  0  0  0  0
  -30.3970  -12.5770   19.2570 C   0  0  0  0  0  2  0  0  0  0  0  0
  -29.4480  -12.5820   18.0360 C   0  0  0  0  0  2  0  0  0  0  0  0
  -27.9860  -12.3820   18.4820 C   0  0  0  0  0  2  0  0  0  0  0  0
  -27.6000  -13.2990   19.6690 C   0  0  0  0  0  3  0  0  0  0  0  0
  -28.6640  -13.2750   20.7850 C   0  0  0  0  0  2  0  0  0  0  0  0
  -29.9480  -13.6560   20.1810 N   0  0  0  0  0  0  0  0  0  0  0  0
  -31.7360  -14.9650   19.9150 O   0  0  0  0  0  0  0  0  0  0  0  0
  -25.2280  -13.9010   20.4260 C   0  0  0  0  0  0  0  0  0  0  0  0
  -24.1620  -13.1350   20.8100 C   0  0  0  0  0  0  0  0  0  0  0  0
  -24.6190  -11.7800   20.7860 C   0  0  0  0  0  0  0  0  0  0  0  0
  -26.2640  -13.0150   20.1820 N   0  0  0  0  0  0  0  0  0  0  0  0
  -25.9080  -11.7340   20.4660 N   0  0  0  0  0  0  0  0  0  0  0  0
  -23.8890  -10.5230   20.9890 C   0  0  0  0  0  0  0  0  0  0  0  0
  -24.3230   -9.5560   21.9220 C   0  0  0  0  0  3  0  0  0  0  0  0
  -23.5910   -8.3660   22.1140 C   0  0  0  0  0  3  0  0  0  0  0  0
  -22.4100   -8.1320   21.3710 C   0  0  0  0  0  0  0  0  0  0  0  0
  -21.9940   -9.0870   20.4280 C   0  0  0  0  0  3  0  0  0  0  0  0
  -22.7280  -10.2690   20.2350 C   0  0  0  0  0  3  0  0  0  0  0  0
  -21.6480   -6.9920   21.4700 O   0  0  0  0  0  0  0  0  0  0  0  0
  -21.6080   -6.2520   22.6260 C   0  0  0  0  0  0  0  0  0  0  0  0
  -21.1880   -6.8100   23.8540 C   0  0  0  0  0  3  0  0  0  0  0  0
  -21.0940   -5.9960   25.0000 C   0  0  0  0  0  3  0  0  0  0  0  0
  -21.4080   -4.6260   24.9210 C   0  0  0  0  0  0  0  0  0  0  0  0
  -21.8170   -4.0680   23.6980 C   0  0  0  0  0  3  0  0  0  0  0  0
  -21.9160   -4.8780   22.5540 C   0  0  0  0  0  0  0  0  0  0  0  0
  -22.2900   -4.3300   21.3730 F   0  0  0  0  0  0  0  0  0  0  0  0
  -21.3110   -3.8430   26.0220 F   0  0  0  0  0  0  0  0  0  0  0  0
  -22.7670  -13.6180   21.0880 C   0  0  0  0  0  0  0  0  0  0  0  0
  -22.0450  -12.9340   21.9670 N   0  0  0  0  0  0  0  0  0  0  0  0
  -22.3290  -14.6390   20.5610 O   0  0  0  0  0  0  0  0  0  0  0  0
  -22.4130  -12.1110   22.4190 H   0  0  0  0  0  0  0  0  0  0  0  0
  -21.1110  -13.2430   22.1960 H   0  0  0  0  0  0  0  0  0  0  0  0
  -25.3990  -15.2700   20.2330 N   0  0  0  0  0  0  0  0  0  0  0  0
  -24.6470  -15.9410   20.3510 H   0  0  0  0  0  0  0  0  0  0  0  0
  -26.2530  -15.6970   19.8940 H   0  0  0  0  0  0  0  0  0  0  0  0
  -28.5500  -21.7760   20.1580 C   0  0  0  0  0  2  0  0  0  0  0  0
  -29.0470  -23.3820   20.2930 C   0  0  0  0  0  3  0  0  0  0  0  0
  -28.0340  -24.6850   19.9870 C   0  0  0  0  0  3  0  0  0  0  0  0
  -28.2910  -26.1980   20.2040 O   0  0  0  0  0  0  0  0  0  0  0  0
  -24.6220  -31.8200   23.2060 C   0  0  0  0  0  0  0  0  0  0  0  0
  -27.2190  -27.1590   20.1410 C   0  0  0  0  0  0  0  0  0  0  0  0
  -23.4260  -30.4370   21.5520 C   0  0  0  0  0  3  0  0  0  0  0  0
  -24.8790  -28.8810   20.1180 C   0  0  0  0  0  0  0  0  0  0  0  0
  -25.9780  -30.7140   21.3960 C   0  0  0  0  0  2  0  0  0  0  0  0
  -26.0550  -29.3300   20.7330 C   0  0  0  0  0  0  0  0  0  0  0  0
  -27.2230  -28.4830   20.7300 C   0  0  0  0  0  3  0  0  0  0  0  0
  -26.0150  -26.8050   19.4890 C   0  0  0  0  0  3  0  0  0  0  0  0
  -24.8710  -27.6310   19.4820 C   0  0  0  0  0  3  0  0  0  0  0  0
  -23.6480  -29.7710   20.1700 C   0  0  0  0  0  2  0  0  0  0  0  0
  -24.6940  -31.0120   22.1050 N   0  0  0  0  0  0  0  0  0  0  0  0
  -23.5350  -32.1010   23.7340 O   0  0  0  0  0  0  0  0  0  0  0  0
  -22.7450  -29.4220   22.5050 C   0  0  0  0  0  0  0  0  0  0  0  0
  -21.4170  -29.2520   22.3690 N   0  0  0  0  0  0  0  0  0  0  0  0
  -23.4130  -28.7910   23.3270 O   0  0  0  0  0  0  0  0  0  0  0  0
  -20.9340  -29.8140   21.6820 H   0  0  0  0  0  0  0  0  0  0  0  0
  -18.0360  -28.0450   22.8400 C   0  0  0  0  0  0  0  0  0  0  0  0
  -20.5920  -28.3100   23.1310 C   0  0  0  0  0  3  0  0  0  0  0  0
  -20.7020  -26.8810   22.5520 C   0  0  0  0  0  2  0  0  0  0  0  0
  -19.6100  -26.5600   21.5270 C   0  0  0  0  0  2  0  0  0  0  0  0
  -18.2220  -26.6990   22.1590 C   0  0  0  0  0  2  0  0  0  0  0  0
  -19.1490  -28.8080   23.2820 C   0  0  0  0  0  0  0  0  0  0  0  0
  -18.9210  -30.0670   23.8800 C   0  0  0  0  0  3  0  0  0  0  0  0
  -17.6140  -30.5610   24.0420 C   0  0  0  0  0  3  0  0  0  0  0  0
  -16.5160  -29.7950   23.6180 C   0  0  0  0  0  3  0  0  0  0  0  0
  -16.7260  -28.5390   23.0210 C   0  0  0  0  0  3  0  0  0  0  0  0
  -25.8990  -32.4490   23.8420 C   0  0  0  0  0  3  0  0  0  0  0  0
  -25.5900  -33.8500   24.1740 N   0  0  0  0  0  0  0  0  0  0  0  0
  -25.9220  -34.9050   23.4180 C   0  0  0  0  0  0  0  0  0  0  0  0
  -26.5870  -34.8020   22.3850 O   0  0  0  0  0  0  0  0  0  0  0  0
  -24.9970  -34.0040   24.9760 H   0  0  0  0  0  0  0  0  0  0  0  0
  -24.1950  -36.7070   23.0890 C   0  0  0  0  0  1  0  0  0  0  0  0
  -25.4420  -36.2930   23.8860 C   0  0  0  0  0  3  0  0  0  0  0  0
  -27.5840  -37.1760   24.7020 C   0  0  0  0  0  1  0  0  0  0  0  0
  -26.4750  -37.3450   23.7670 N   0  0  0  0  0  0  0  0  0  0  0  0
  -26.0700  -38.2650   23.9170 H   0  0  0  0  0  0  0  0  0  0  0  0
  -26.3980  -31.6760   25.1260 C   0  0  1  0  0  0  0  0  0  0  0  0
  -25.2930  -31.4530   26.1840 C   0  0  0  0  0  1  0  0  0  0  0  0
  -26.9750  -30.2910   24.7500 C   0  0  0  0  0  1  0  0  0  0  0  0
  -27.5470  -32.4640   25.7980 C   0  0  0  0  0  1  0  0  0  0  0  0
  1  3  1  0
  2  1  2  0
  2  4  1  0
  3  5  2  0
  4  6  2  0
  5  7  1  0
  6  5  1  0
  6  9  1  0
  7 52  1  0
  7 10  2  0
  8 10  1  0
  8 15  1  0
  9  8  2  0
 10 13  1  0
 11  9  1  0
 12 11  1  0
 13 14  1  0
 16 15  1  0
 17 22  1  0
 18 19  1  0
 18 17  1  0
 20 19  1  0
 20 27  1  0
 20 21  1  0
 22 16  1  0
 22 21  1  0
 23 16  2  0
 24 25  2  0
 25 44  1  0
 26 25  1  0
 26 29  1  0
 27 24  1  0
 27 28  1  0
 28 26  2  0
 29 30  1  0
 30 31  2  0
 32 35  1  0
 32 31  1  0
 33 32  2  0
 34 33  1  0
 34 29  2  0
 35 36  1  0
 36 37  1  0
 37 38  2  0
 39 38  1  0
 39 43  1  0
 40 39  2  0
 41 36  2  0
 41 40  1  0
 42 41  1  0
 44 45  1  0
 45 48  1  0
 45 47  1  0
 46 44  2  0
 49 50  1  0
 49 24  1  0
 51 49  1  0
 52 53  1  0
 54 55  1  0
 54 53  2  0
 56 67  2  0
 57 55  1  0
 57 62  1  0
 58 66  1  0
 58 68  1  0
 59 65  1  0
 59 61  1  0
 60 66  1  0
 61 60  1  0
 62 61  2  0
 63 57  2  0
 64 63  1  0
 64 59  2  0
 65 58  1  0
 66 56  1  0
 68 70  2  0
 69 68  1  0
 71 69  1  0
 72 81  2  0
 72 77  1  0
 73 69  1  0
 73 77  1  0
 74 73  1  0
 75 76  1  0
 75 74  1  0
 76 72  1  0
 77 78  2  0
 78 79  1  0
 80 79  2  0
 81 80  1  0
 82 56  1  0
 82 83  1  0
 82 92  1  0
 83 86  1  0
 84 88  1  0
 84 83  1  0
 85 84  2  0
 88 87  1  0
 90 88  1  0
 90 91  1  0
 90 89  1  0
 92 95  1  1
 92 93  1  0
 94 92  1  0
M  ISO  4  15 100  16 100  54 101  55 101
M  END
>  <TORSDO>  (9) 
F 22

>  <SCORE>  (9) 
-13.195

>  <name>  (9) 
8

>  <ligand_id>  (9) 
8

>  <original_smiles>  (9) 
[H]Oc1c(C([H])([H])C(=O)N2C([H])([H])C([H])([H])C([H])([H])C([H])(n3nc(-c4c([H])c([H])c(Oc5c([H])c([H])c(F)c([H])c5F)c([H])c4[H])c(C(=O)N([H])[H])c3N([H])[H])C2([H])[H])c(O[H])c2c([H])c([H])c([H])c([H])c2c1C([H])([H])C([H])([H])C([H])([H])Oc1c([H])c([H])c2c(c1[H])C([H])([H])N(C(=O)C([H])(N([H])C(=O)C([H])(N([H])C([H])([H])[H])C([H])([H])[H])C(C([H])([H])[H])(C([H])([H])[H])C([H])([H])[H])C([H])(C(=O)N([H])C1([H])c3c([H])c([H])c([H])c([H])c3C([H])([H])C([H])([H])C1([H])[H])C2([H])[H]

>  <smiles>  (9) 
[H]Oc1c(C([H])([H])C(=O)N2C([H])([H])C([H])([H])C([H])([H])C([H])(n3nc(-c4c([H])c([H])c(Oc5c([H])c([H])c(F)c([H])c5F)c([H])c4[H])c(C(=O)N([H])[H])c3N([H])[H])C2([H])[H])c(O[H])c2c([H])c([H])c([H])c([H])c2c1C([H])([H])C([H])([H])C([H])([H])Oc1c([H])c([H])c2c(c1[H])C([H])([H])N(C(=O)C([H])(N([H])C(=O)C([H])(N([H])C([H])([H])[H])C([H])([H])[H])C(C([H])([H])[H])(C([H])([H])[H])C([H])([H])[H])C([H])(C(=O)N([H])C1([H])c3c([H])c([H])c([H])c([H])c3C([H])([H])C([H])([H])C1([H])[H])C2([H])[H]

$$$$
9:0:0
     RDKit          3D

 92101  0  0  1  0  0  0  0  0999 V2000
  -29.2320  -22.0710   20.4970 C   0  0  0  0  0  3  0  0  0  0  0  0
  -27.7610  -20.1730   19.4720 C   0  0  0  0  0  3  0  0  0  0  0  0
  -28.8790  -20.5050   20.1440 C   0  0  0  0  0  0  0  0  0  0  0  0
  -27.6010  -18.7700   18.8740 C   0  0  0  0  0  2  0  0  0  0  0  0
  -29.8740  -19.2140   20.2870 C   0  0  0  0  0  3  0  0  0  0  0  0
  -29.2840  -17.6940   20.5650 C   0  0  0  0  0  3  0  0  0  0  0  0
  -28.8720  -17.9030   19.1120 C   0  0  0  0  0  3  0  0  0  0  0  0
  -30.0640  -18.7360   18.9270 O   0  0  0  0  0  0  0  0  0  0  0  0
  -29.9780  -16.2710   21.1230 C   0  0  0  0  0  2  0  0  0  0  0  0
  -30.5620  -14.9220   20.3830 C   0  0  0  0  0  0  0  0  0  0  0  0
  -30.4050  -12.5990   19.3760 C   0  0  0  0  0  2  0  0  0  0  0  0
  -29.4780  -12.6240   18.1390 C   0  0  0  0  0  2  0  0  0  0  0  0
  -28.0060  -12.4320   18.5490 C   0  0  0  0  0  2  0  0  0  0  0  0
  -27.6150  -13.3160   19.7630 C   0  0  0  0  0  3  0  0  0  0  0  0
  -28.6670  -13.2640   20.8920 C   0  0  0  0  0  2  0  0  0  0  0  0
  -29.9540  -13.6670   20.3150 N   0  0  0  0  0  0  0  0  0  0  0  0
  -31.6960  -15.0030   19.9010 O   0  0  0  0  0  0  0  0  0  0  0  0
  -25.2260  -13.8980   20.4780 C   0  0  0  0  0  0  0  0  0  0  0  0
  -24.1590  -13.1270   20.8460 C   0  0  0  0  0  0  0  0  0  0  0  0
  -24.6220  -11.7740   20.8270 C   0  0  0  0  0  0  0  0  0  0  0  0
  -26.2710  -13.0190   20.2490 N   0  0  0  0  0  0  0  0  0  0  0  0
  -25.9160  -11.7350   20.5240 N   0  0  0  0  0  0  0  0  0  0  0  0
  -23.8920  -10.5130   21.0200 C   0  0  0  0  0  0  0  0  0  0  0  0
  -24.3190   -9.5500   21.9590 C   0  0  0  0  0  3  0  0  0  0  0  0
  -23.5870   -8.3560   22.1410 C   0  0  0  0  0  3  0  0  0  0  0  0
  -22.4150   -8.1190   21.3870 C   0  0  0  0  0  0  0  0  0  0  0  0
  -22.0060   -9.0730   20.4380 C   0  0  0  0  0  3  0  0  0  0  0  0
  -22.7370  -10.2570   20.2530 C   0  0  0  0  0  3  0  0  0  0  0  0
  -21.6540   -6.9780   21.4790 O   0  0  0  0  0  0  0  0  0  0  0  0
  -21.6040   -6.2360   22.6340 C   0  0  0  0  0  0  0  0  0  0  0  0
  -21.1840   -6.7960   23.8610 C   0  0  0  0  0  3  0  0  0  0  0  0
  -21.0810   -5.9830   25.0060 C   0  0  0  0  0  3  0  0  0  0  0  0
  -21.3850   -4.6110   24.9270 C   0  0  0  0  0  0  0  0  0  0  0  0
  -21.7960   -4.0510   23.7060 C   0  0  0  0  0  3  0  0  0  0  0  0
  -21.9020   -4.8610   22.5620 C   0  0  0  0  0  0  0  0  0  0  0  0
  -22.2770   -4.3110   21.3820 F   0  0  0  0  0  0  0  0  0  0  0  0
  -21.2780   -3.8270   26.0260 F   0  0  0  0  0  0  0  0  0  0  0  0
  -22.7620  -13.6070   21.1070 C   0  0  0  0  0  0  0  0  0  0  0  0
  -22.0250  -12.9190   21.9730 N   0  0  0  0  0  0  0  0  0  0  0  0
  -22.3320  -14.6310   20.5790 O   0  0  0  0  0  0  0  0  0  0  0  0
  -22.3830  -12.0930   22.4300 H   0  0  0  0  0  0  0  0  0  0  0  0
  -21.0870  -13.2250   22.1830 H   0  0  0  0  0  0  0  0  0  0  0  0
  -25.3900  -15.2680   20.2980 N   0  0  0  0  0  0  0  0  0  0  0  0
  -24.6270  -15.9260   20.4080 H   0  0  0  0  0  0  0  0  0  0  0  0
  -26.2530  -15.7090   20.0070 H   0  0  0  0  0  0  0  0  0  0  0  0
  -29.7820  -22.0820   21.8660 N   0  0  0  0  0  4  0  0  0  0  0  0
  -29.0830  -21.7900   22.5250 H   0  0  0  0  0  0  0  0  0  0  0  0
  -30.0960  -23.0000   22.1220 H   0  0  0  0  0  0  0  0  0  0  0  0
  -30.5660  -21.4590   21.9440 H   0  0  0  0  0  0  0  0  0  0  0  0
  -28.1510  -23.3550   20.3590 C   0  0  0  0  0  2  0  0  0  0  0  0
  -28.4390  -24.8730   19.7160 C   0  0  0  0  0  2  0  0  0  0  0  0
  -28.3030  -26.2830   20.3220 O   0  0  0  0  0  0  0  0  0  0  0  0
  -24.6260  -31.8770   23.2330 C   0  0  0  0  0  0  0  0  0  0  0  0
  -27.2090  -27.1970   20.1980 C   0  0  0  0  0  0  0  0  0  0  0  0
  -23.4190  -30.4730   21.6000 C   0  0  0  0  0  3  0  0  0  0  0  0
  -24.8630  -28.8980   20.1700 C   0  0  0  0  0  0  0  0  0  0  0  0
  -25.9670  -30.7540   21.4190 C   0  0  0  0  0  2  0  0  0  0  0  0
  -26.0380  -29.3650   20.7700 C   0  0  0  0  0  0  0  0  0  0  0  0
  -27.2060  -28.5270   20.7720 C   0  0  0  0  0  3  0  0  0  0  0  0
  -26.0110  -26.8130   19.5580 C   0  0  0  0  0  3  0  0  0  0  0  0
  -24.8610  -27.6350   19.5500 C   0  0  0  0  0  3  0  0  0  0  0  0
  -23.6270  -29.7820   20.2240 C   0  0  0  0  0  2  0  0  0  0  0  0
  -24.6910  -31.0570   22.1380 N   0  0  0  0  0  0  0  0  0  0  0  0
  -23.5430  -32.1600   23.7660 O   0  0  0  0  0  0  0  0  0  0  0  0
  -22.7500  -29.4700   22.5720 C   0  0  0  0  0  0  0  0  0  0  0  0
  -21.4230  -29.2940   22.4470 N   0  0  0  0  0  0  0  0  0  0  0  0
  -23.4280  -28.8500   23.3940 O   0  0  0  0  0  0  0  0  0  0  0  0
  -20.9370  -29.8380   21.7490 H   0  0  0  0  0  0  0  0  0  0  0  0
  -18.0490  -28.0890   22.9630 C   0  0  0  0  0  0  0  0  0  0  0  0
  -20.6070  -28.3590   23.2250 C   0  0  0  0  0  3  0  0  0  0  0  0
  -20.7130  -26.9250   22.6560 C   0  0  0  0  0  2  0  0  0  0  0  0
  -19.6110  -26.5950   21.6470 C   0  0  0  0  0  2  0  0  0  0  0  0
  -18.2290  -26.7390   22.2900 C   0  0  0  0  0  2  0  0  0  0  0  0
  -19.1650  -28.8580   23.3860 C   0  0  0  0  0  0  0  0  0  0  0  0
  -18.9430  -30.1210   23.9760 C   0  0  0  0  0  3  0  0  0  0  0  0
  -17.6370  -30.6170   24.1460 C   0  0  0  0  0  3  0  0  0  0  0  0
  -16.5340  -29.8460   23.7370 C   0  0  0  0  0  3  0  0  0  0  0  0
  -16.7420  -28.5840   23.1500 C   0  0  0  0  0  3  0  0  0  0  0  0
  -25.9080  -32.5140   23.8550 C   0  0  0  0  0  3  0  0  0  0  0  0
  -25.5940  -33.9130   24.1890 N   0  0  0  0  0  0  0  0  0  0  0  0
  -25.9190  -34.9700   23.4320 C   0  0  0  0  0  0  0  0  0  0  0  0
  -26.5820  -34.8700   22.3960 O   0  0  0  0  0  0  0  0  0  0  0  0
  -25.0050  -34.0640   24.9950 H   0  0  0  0  0  0  0  0  0  0  0  0
  -24.1840  -36.7630   23.1000 C   0  0  0  0  0  1  0  0  0  0  0  0
  -25.4330  -36.3560   23.8990 C   0  0  0  0  0  3  0  0  0  0  0  0
  -27.5750  -37.2450   24.7110 C   0  0  0  0  0  1  0  0  0  0  0  0
  -26.4630  -37.4120   23.7790 N   0  0  0  0  0  0  0  0  0  0  0  0
  -26.0570  -38.3320   23.9330 H   0  0  0  0  0  0  0  0  0  0  0  0
  -26.4250  -31.7490   25.1350 C   0  0  1  0  0  0  0  0  0  0  0  0
  -25.3340  -31.5160   26.2060 C   0  0  0  0  0  1  0  0  0  0  0  0
  -27.0060  -30.3680   24.7530 C   0  0  0  0  0  1  0  0  0  0  0  0
  -27.5760  -32.5460   25.7940 C   0  0  0  0  0  1  0  0  0  0  0  0
  1 50  1  0
  1 46  1  0
  2  3  2  0
  3  5  1  0
  3  1  1  0
  4  2  1  0
  5  8  1  0
  5  6  1  0
  6  9  1  0
  7  4  1  0
  7  6  1  0
  8  7  1  0
 10  9  1  0
 11 16  1  0
 12 13  1  0
 12 11  1  0
 14 13  1  0
 14 21  1  0
 14 15  1  0
 16 10  1  0
 16 15  1  0
 17 10  2  0
 18 19  2  0
 19 38  1  0
 20 19  1  0
 20 23  1  0
 21 18  1  0
 21 22  1  0
 22 20  2  0
 23 24  1  0
 24 25  2  0
 26 29  1  0
 26 25  1  0
 27 26  2  0
 28 27  1  0
 28 23  2  0
 29 30  1  0
 30 31  1  0
 31 32  2  0
 33 32  1  0
 33 37  1  0
 34 33  2  0
 35 30  2  0
 35 34  1  0
 36 35  1  0
 38 39  1  0
 39 42  1  0
 39 41  1  0
 40 38  2  0
 43 44  1  0
 43 18  1  0
 45 43  1  0
 46 49  1  0
 46 48  1  0
 46 47  1  0
 51 52  1  0
 51 50  1  0
 53 64  2  0
 54 52  1  0
 54 59  1  0
 55 63  1  0
 55 65  1  0
 56 62  1  0
 56 58  1  0
 57 63  1  0
 58 59  2  0
 58 57  1  0
 60 54  2  0
 61 60  1  0
 61 56  2  0
 62 55  1  0
 63 53  1  0
 65 67  2  0
 66 65  1  0
 68 66  1  0
 69 78  2  0
 69 74  1  0
 70 66  1  0
 70 74  1  0
 71 70  1  0
 72 73  1  0
 72 71  1  0
 73 69  1  0
 74 75  2  0
 75 76  1  0
 77 76  2  0
 78 77  1  0
 79 53  1  0
 79 80  1  0
 79 89  1  0
 80 83  1  0
 81 85  1  0
 81 80  1  0
 82 81  2  0
 85 84  1  0
 87 85  1  0
 87 88  1  0
 87 86  1  0
 89 92  1  1
 89 90  1  0
 91 89  1  0
M  ISO  4   9 100  10 100  51 101  52 101
M  END
>  <TORSDO>  (10) 
F 21

>  <SCORE>  (10) 
-13.842

>  <name>  (10) 
9

>  <ligand_id>  (10) 
9

>  <original_smiles>  (10) 
[H]C1=C(C([H])(C([H])([H])C([H])([H])Oc2c([H])c([H])c3c(c2[H])C([H])([H])N(C(=O)C([H])(N([H])C(=O)C([H])(N([H])C([H])([H])[H])C([H])([H])[H])C(C([H])([H])[H])(C([H])([H])[H])C([H])([H])[H])C([H])(C(=O)N([H])C2([H])c4c([H])c([H])c([H])c([H])c4C([H])([H])C([H])([H])C2([H])[H])C3([H])[H])[N+]([H])([H])[H])C2([H])OC([H])(C1([H])[H])C2([H])C([H])([H])C(=O)N1C([H])([H])C([H])([H])C([H])([H])C([H])(n2nc(-c3c([H])c([H])c(Oc4c([H])c([H])c(F)c([H])c4F)c([H])c3[H])c(C(=O)N([H])[H])c2N([H])[H])C1([H])[H]

>  <smiles>  (10) 
[H]C1=C(C([H])(C([H])([H])C([H])([H])Oc2c([H])c([H])c3c(c2[H])C([H])([H])N(C(=O)C([H])(N([H])C(=O)C([H])(N([H])C([H])([H])[H])C([H])([H])[H])C(C([H])([H])[H])(C([H])([H])[H])C([H])([H])[H])C([H])(C(=O)N([H])C2([H])c4c([H])c([H])c([H])c([H])c4C([H])([H])C([H])([H])C2([H])[H])C3([H])[H])[N+]([H])([H])[H])C2([H])OC([H])(C1([H])[H])C2([H])C([H])([H])C(=O)N1C([H])([H])C([H])([H])C([H])([H])C([H])(n2nc(-c3c([H])c([H])c(Oc4c([H])c([H])c(F)c([H])c4F)c([H])c3[H])c(C(=O)N([H])[H])c2N([H])[H])C1([H])[H]

$$$$
10:0:0
     RDKit          3D

100108  0  0  1  0  0  0  0  0999 V2000
  -27.6700  -22.2230   22.8940 C   0  0  0  0  0  3  0  0  0  0  0  0
  -29.0980  -23.2000   21.1810 C   0  0  0  0  0  3  0  0  0  0  0  0
  -28.8080  -21.8540   23.6360 C   0  0  0  0  0  3  0  0  0  0  0  0
  -30.2380  -22.8330   21.9270 C   0  0  0  0  0  3  0  0  0  0  0  0
  -27.8020  -22.8900   21.6520 C   0  0  0  0  0  0  0  0  0  0  0  0
  -30.0990  -22.1510   23.1520 C   0  0  0  0  0  0  0  0  0  0  0  0
  -26.5670  -23.3030   20.8940 C   0  0  0  0  0  0  0  0  0  0  0  0
  -26.6680  -23.3780   19.5570 N   0  0  0  0  0  0  0  0  0  0  0  0
  -25.5060  -23.4970   21.4910 O   0  0  0  0  0  0  0  0  0  0  0  0
  -27.5560  -23.1340   19.1430 H   0  0  0  0  0  0  0  0  0  0  0  0
  -25.5320  -23.6470   18.6690 C   0  0  0  0  0  2  0  0  0  0  0  0
  -25.8930  -24.3990   17.3600 C   0  0  0  0  0  2  0  0  0  0  0  0
  -24.7940  -25.1070   16.7440 O   0  0  0  0  0  0  0  0  0  0  0  0
  -25.2310  -28.9020   22.7400 C   0  0  0  0  0  0  0  0  0  0  0  0
  -24.2450  -26.0930   17.5300 C   0  0  0  0  0  0  0  0  0  0  0  0
  -23.0350  -28.9170   21.6000 C   0  0  0  0  0  3  0  0  0  0  0  0
  -23.0180  -27.9830   19.2250 C   0  0  0  0  0  0  0  0  0  0  0  0
  -25.1980  -28.6140   20.2690 C   0  0  0  0  0  2  0  0  0  0  0  0
  -24.4060  -27.7870   19.2790 C   0  0  0  0  0  0  0  0  0  0  0  0
  -25.0310  -26.8440   18.4330 C   0  0  0  0  0  3  0  0  0  0  0  0
  -22.8620  -26.3440   17.4460 C   0  0  0  0  0  3  0  0  0  0  0  0
  -22.2380  -27.2640   18.3050 C   0  0  0  0  0  3  0  0  0  0  0  0
  -22.4260  -29.0000   20.1740 C   0  0  0  0  0  2  0  0  0  0  0  0
  -24.5290  -28.7860   21.5790 N   0  0  0  0  0  0  0  0  0  0  0  0
  -24.6590  -29.1510   23.8100 O   0  0  0  0  0  0  0  0  0  0  0  0
  -22.3390  -27.7750   22.3720 C   0  0  0  0  0  0  0  0  0  0  0  0
  -21.0210  -27.6190   22.1600 N   0  0  0  0  0  0  0  0  0  0  0  0
  -22.9820  -27.0340   23.1200 O   0  0  0  0  0  0  0  0  0  0  0  0
  -20.5610  -28.2800   21.5470 H   0  0  0  0  0  0  0  0  0  0  0  0
  -17.9160  -25.8190   21.7370 C   0  0  0  0  0  0  0  0  0  0  0  0
  -20.1700  -26.5860   22.7460 C   0  0  0  0  0  3  0  0  0  0  0  0
  -20.6970  -25.1720   22.4010 C   0  0  0  0  0  2  0  0  0  0  0  0
  -20.0440  -24.5700   21.1530 C   0  0  0  0  0  2  0  0  0  0  0  0
  -18.5240  -24.4870   21.3270 C   0  0  0  0  0  2  0  0  0  0  0  0
  -18.6940  -26.8080   22.3950 C   0  0  0  0  0  0  0  0  0  0  0  0
  -18.0900  -28.0390   22.7320 C   0  0  0  0  0  3  0  0  0  0  0  0
  -16.7390  -28.2880   22.4230 C   0  0  0  0  0  3  0  0  0  0  0  0
  -15.9730  -27.3010   21.7790 C   0  0  0  0  0  3  0  0  0  0  0  0
  -16.5600  -26.0680   21.4430 C   0  0  0  0  0  3  0  0  0  0  0  0
  -26.7860  -28.7550   22.7780 C   0  0  0  0  0  3  0  0  0  0  0  0
  -27.2650  -27.2530   22.8240 C   0  0  1  0  0  0  0  0  0  0  0  0
  -26.5160  -26.3940   23.8700 C   0  0  0  0  0  1  0  0  0  0  0  0
  -27.0870  -26.5810   21.4420 C   0  0  0  0  0  1  0  0  0  0  0  0
  -28.7760  -27.1970   23.1460 C   0  0  0  0  0  1  0  0  0  0  0  0
  -27.2730  -29.4960   23.9480 N   0  0  0  0  0  0  0  0  0  0  0  0
  -28.0630  -30.5730   23.8880 C   0  0  0  0  0  0  0  0  0  0  0  0
  -28.5220  -31.0110   22.8300 O   0  0  0  0  0  0  0  0  0  0  0  0
  -26.9030  -29.2210   24.8440 H   0  0  0  0  0  0  0  0  0  0  0  0
  -27.6470  -32.6180   25.2860 C   0  0  0  0  0  1  0  0  0  0  0  0
  -28.4000  -31.2810   25.2150 C   0  0  0  0  0  3  0  0  0  0  0  0
  -30.6060  -30.2780   25.5990 C   0  0  0  0  0  1  0  0  0  0  0  0
  -29.8460  -31.5120   25.4090 N   0  0  0  0  0  0  0  0  0  0  0  0
  -30.0110  -32.1100   26.2130 H   0  0  0  0  0  0  0  0  0  0  0  0
  -31.3200  -21.7750   23.9770 C   0  0  0  0  0  2  0  0  0  0  0  0
  -32.1200  -20.5910   23.3960 C   0  0  0  0  0  2  0  0  0  0  0  0
  -32.1470  -20.5650   21.8670 C   0  0  0  0  0  0  0  0  0  0  0  0
  -32.3660  -21.5920   21.2190 O   0  0  0  0  0  0  0  0  0  0  0  0
  -31.8840  -19.2260   21.1680 C   0  0  0  0  0  2  0  0  0  0  0  0
  -32.9470  -18.7800   20.1220 C   0  0  0  0  0  3  0  0  0  0  0  0
  -33.2990  -19.8600   19.1680 N   0  0  0  0  0  4  0  0  0  0  0  0
  -32.5050  -20.1550   18.6290 H   0  0  0  0  0  0  0  0  0  0  0  0
  -34.0200  -19.5690   18.5310 H   0  0  0  0  0  0  0  0  0  0  0  0
  -33.6420  -20.6550   19.6830 H   0  0  0  0  0  0  0  0  0  0  0  0
  -32.4510  -17.4980   19.3920 C   0  0  0  0  0  2  0  0  0  0  0  0
  -33.4030  -16.2800   19.3740 C   0  0  0  0  0  0  0  0  0  0  0  0
  -33.5510  -13.8140   19.3320 C   0  0  0  0  0  2  0  0  0  0  0  0
  -32.6540  -13.2580   18.2060 C   0  0  0  0  0  2  0  0  0  0  0  0
  -31.2020  -13.0810   18.6920 C   0  0  0  0  0  2  0  0  0  0  0  0
  -30.6500  -14.3460   19.3980 C   0  0  0  0  0  3  0  0  0  0  0  0
  -31.6560  -14.8390   20.4580 C   0  0  0  0  0  2  0  0  0  0  0  0
  -32.9480  -15.0720   19.7980 N   0  0  0  0  0  0  0  0  0  0  0  0
  -34.4990  -16.4180   18.8220 O   0  0  0  0  0  0  0  0  0  0  0  0
  -28.3860  -15.0200   20.4220 C   0  0  0  0  0  0  0  0  0  0  0  0
  -27.2960  -14.2800   20.7950 C   0  0  0  0  0  0  0  0  0  0  0  0
  -27.6410  -12.9170   20.5460 C   0  0  0  0  0  0  0  0  0  0  0  0
  -29.3280  -14.1080   19.9740 N   0  0  0  0  0  0  0  0  0  0  0  0
  -28.8910  -12.8310   20.1080 N   0  0  0  0  0  0  0  0  0  0  0  0
  -26.8400  -11.6920   20.6490 C   0  0  0  0  0  0  0  0  0  0  0  0
  -26.8110  -10.9270   21.8350 C   0  0  0  0  0  3  0  0  0  0  0  0
  -26.0170   -9.7630   21.9160 C   0  0  0  0  0  3  0  0  0  0  0  0
  -25.2390   -9.3550   20.8060 C   0  0  0  0  0  0  0  0  0  0  0  0
  -25.2910  -10.1080   19.6210 C   0  0  0  0  0  3  0  0  0  0  0  0
  -26.0860  -11.2620   19.5400 C   0  0  0  0  0  3  0  0  0  0  0  0
  -24.4620   -8.2220   20.7840 O   0  0  0  0  0  0  0  0  0  0  0  0
  -23.3400   -8.1060   21.5630 C   0  0  0  0  0  0  0  0  0  0  0  0
  -22.1830   -8.8790   21.3270 C   0  0  0  0  0  3  0  0  0  0  0  0
  -21.0260   -8.6750   22.1080 C   0  0  0  0  0  3  0  0  0  0  0  0
  -21.0230   -7.6970   23.1180 C   0  0  0  0  0  0  0  0  0  0  0  0
  -22.1720   -6.9200   23.3510 C   0  0  0  0  0  3  0  0  0  0  0  0
  -23.3260   -7.1230   22.5730 C   0  0  0  0  0  0  0  0  0  0  0  0
  -24.4220   -6.3560   22.7880 F   0  0  0  0  0  0  0  0  0  0  0  0
  -19.9110   -7.4960   23.8650 F   0  0  0  0  0  0  0  0  0  0  0  0
  -25.9720  -14.8070   21.2630 C   0  0  0  0  0  0  0  0  0  0  0  0
  -25.2310  -14.0120   22.0270 N   0  0  0  0  0  0  0  0  0  0  0  0
  -25.6090  -15.9510   20.9910 O   0  0  0  0  0  0  0  0  0  0  0  0
  -25.5420  -13.0850   22.2740 H   0  0  0  0  0  0  0  0  0  0  0  0
  -24.3400  -14.3350   22.3750 H   0  0  0  0  0  0  0  0  0  0  0  0
  -28.6440  -16.3870   20.4080 N   0  0  0  0  0  0  0  0  0  0  0  0
  -27.9370  -17.0670   20.6710 H   0  0  0  0  0  0  0  0  0  0  0  0
  -29.5020  -16.8120   20.0790 H   0  0  0  0  0  0  0  0  0  0  0  0
  1  3  1  0
  2  5  1  0
  2  4  2  0
  4  6  1  0
  5  1  2  0
  6  3  2  0
  6 54  1  0
  7  9  2  0
  7  5  1  0
  8  7  1  0
 10  8  1  0
 11  8  1  0
 12 11  1  0
 13 12  1  0
 13 15  1  0
 14 25  2  0
 15 20  1  0
 16 26  1  0
 17 19  1  0
 17 23  1  0
 18 24  1  0
 19 18  1  0
 20 19  2  0
 21 15  2  0
 21 22  1  0
 22 17  2  0
 23 16  1  0
 24 16  1  0
 24 14  1  0
 26 28  2  0
 27 26  1  0
 29 27  1  0
 30 35  1  0
 31 27  1  0
 32 31  1  0
 33 34  1  0
 33 32  1  0
 34 30  1  0
 35 36  2  0
 35 31  1  0
 37 36  1  0
 38 37  2  0
 39 30  2  0
 39 38  1  0
 40 14  1  0
 40 41  1  0
 40 45  1  0
 41 44  1  1
 41 42  1  0
 43 41  1  0
 45 48  1  0
 46 45  1  0
 46 50  1  0
 47 46  2  0
 50 49  1  0
 50 52  1  0
 52 51  1  0
 52 53  1  0
 55 54  1  0
 56 55  1  0
 57 56  2  0
 58 56  1  0
 59 64  1  0
 59 58  1  0
 60 63  1  0
 60 59  1  0
 61 60  1  0
 62 60  1  0
 65 64  1  0
 65 71  1  0
 66 71  1  0
 67 68  1  0
 67 66  1  0
 69 68  1  0
 69 76  1  0
 69 70  1  0
 71 70  1  0
 72 65  2  0
 73 74  2  0
 74 93  1  0
 75 78  1  0
 75 74  1  0
 76 77  1  0
 76 73  1  0
 77 75  2  0
 78 79  1  0
 79 80  2  0
 81 80  1  0
 82 81  2  0
 83 82  1  0
 83 78  2  0
 84 81  1  0
 84 85  1  0
 85 90  1  0
 86 85  2  0
 86 87  1  0
 87 88  2  0
 88 89  1  0
 88 92  1  0
 90 91  1  0
 90 89  2  0
 93 94  1  0
 94 96  1  0
 94 97  1  0
 95 93  2  0
 98 73  1  0
 98 99  1  0
100 98  1  0
M  ISO  4  12 101  13 101  64 100  65 100
M  END
>  <TORSDO>  (11) 
F 26

>  <SCORE>  (11) 
-0.949

>  <name>  (11) 
10

>  <ligand_id>  (11) 
10

>  <original_smiles>  (11) 
[H]c1c([H])c([H])c2c(c1[H])C([H])([H])C([H])([H])C([H])([H])C2([H])N([H])C(=O)C1([H])N(C(=O)C([H])(N([H])C(=O)C([H])(N([H])C([H])([H])[H])C([H])([H])[H])C(C([H])([H])[H])(C([H])([H])[H])C([H])([H])[H])C([H])([H])c2c([H])c(OC([H])([H])C([H])([H])N([H])C(=O)c3c([H])c([H])c(C([H])([H])C([H])([H])C(=O)C([H])([H])C([H])(C([H])([H])C(=O)N4C([H])([H])C([H])([H])C([H])([H])C([H])(n5nc(-c6c([H])c([H])c(Oc7c([H])c([H])c(F)c([H])c7F)c([H])c6[H])c(C(=O)N([H])[H])c5N([H])[H])C4([H])[H])[N+]([H])([H])[H])c([H])c3[H])c([H])c([H])c2C1([H])[H]

>  <smiles>  (11) 
[H]c1c([H])c([H])c2c(c1[H])C([H])([H])C([H])([H])C([H])([H])C2([H])N([H])C(=O)C1([H])N(C(=O)C([H])(N([H])C(=O)C([H])(N([H])C([H])([H])[H])C([H])([H])[H])C(C([H])([H])[H])(C([H])([H])[H])C([H])([H])[H])C([H])([H])c2c([H])c(OC([H])([H])C([H])([H])N([H])C(=O)c3c([H])c([H])c(C([H])([H])C([H])([H])C(=O)C([H])([H])C([H])(C([H])([H])C(=O)N4C([H])([H])C([H])([H])C([H])([H])C([H])(n5nc(-c6c([H])c([H])c(Oc7c([H])c([H])c(F)c([H])c7F)c([H])c6[H])c(C(=O)N([H])[H])c5N([H])[H])C4([H])[H])[N+]([H])([H])[H])c([H])c3[H])c([H])c([H])c2C1([H])[H]

$$$$
11:0:0
     RDKit          3D

 93101  0  0  1  0  0  0  0  0999 V2000
  -28.2820  -19.8290   20.4540 C   0  0  0  0  0  3  0  0  0  0  0  0
  -27.4510  -20.9640   20.4210 C   0  0  0  0  0  3  0  0  0  0  0  0
  -29.5700  -20.7530   18.6160 C   0  0  0  0  0  3  0  0  0  0  0  0
  -28.6920  -21.8860   18.5080 C   0  0  0  0  0  0  0  0  0  0  0  0
  -29.4070  -19.7390   19.6140 C   0  0  0  0  0  0  0  0  0  0  0  0
  -27.6810  -22.0220   19.5090 C   0  0  0  0  0  0  0  0  0  0  0  0
  -26.8870  -23.3060   19.7310 C   0  0  0  0  0  1  0  0  0  0  0  0
  -28.9680  -22.9430   17.4360 C   0  0  0  0  0  0  0  0  0  0  0  0
  -30.0060  -22.9070   16.7690 O   0  0  0  0  0  0  0  0  0  0  0  0
  -27.9280  -24.0760   17.1350 C   0  0  0  0  0  2  0  0  0  0  0  0
  -28.3480  -25.2060   16.1180 C   0  0  0  0  0  2  0  0  0  0  0  0
  -28.3020  -26.6000   16.5420 O   0  0  0  0  0  0  0  0  0  0  0  0
  -25.0760  -29.6030   22.1240 C   0  0  0  0  0  0  0  0  0  0  0  0
  -27.1340  -27.1940   17.0010 C   0  0  0  0  0  0  0  0  0  0  0  0
  -23.5910  -28.9450   20.2560 C   0  0  0  0  0  3  0  0  0  0  0  0
  -24.7660  -28.3530   18.0690 C   0  0  0  0  0  0  0  0  0  0  0  0
  -26.0210  -29.6240   19.8170 C   0  0  0  0  0  2  0  0  0  0  0  0
  -26.0110  -28.6830   18.6220 C   0  0  0  0  0  0  0  0  0  0  0  0
  -27.1940  -28.1220   18.0750 C   0  0  0  0  0  3  0  0  0  0  0  0
  -25.8660  -26.9010   16.4540 C   0  0  0  0  0  3  0  0  0  0  0  0
  -24.6930  -27.4750   16.9760 C   0  0  0  0  0  3  0  0  0  0  0  0
  -23.5410  -28.9690   18.7030 C   0  0  0  0  0  2  0  0  0  0  0  0
  -24.9260  -29.3780   20.7890 N   0  0  0  0  0  0  0  0  0  0  0  0
  -24.1210  -29.4910   22.9070 O   0  0  0  0  0  0  0  0  0  0  0  0
  -23.1580  -27.5470   20.7540 C   0  0  0  0  0  0  0  0  0  0  0  0
  -21.8400  -27.2750   20.7300 N   0  0  0  0  0  0  0  0  0  0  0  0
  -23.9980  -26.7230   21.1250 O   0  0  0  0  0  0  0  0  0  0  0  0
  -21.2110  -28.0070   20.4290 H   0  0  0  0  0  0  0  0  0  0  0  0
  -18.6760  -25.5580   21.0180 C   0  0  0  0  0  0  0  0  0  0  0  0
  -21.2190  -26.0090   21.1150 C   0  0  0  0  0  3  0  0  0  0  0  0
  -21.3460  -24.9590   19.9860 C   0  0  0  0  0  2  0  0  0  0  0  0
  -20.1390  -24.9390   19.0460 C   0  0  0  0  0  2  0  0  0  0  0  0
  -18.8560  -24.6330   19.8260 C   0  0  0  0  0  2  0  0  0  0  0  0
  -19.7840  -26.2120   21.6160 C   0  0  0  0  0  0  0  0  0  0  0  0
  -19.5580  -27.0880   22.7010 C   0  0  0  0  0  3  0  0  0  0  0  0
  -18.2560  -27.3090   23.1890 C   0  0  0  0  0  3  0  0  0  0  0  0
  -17.1650  -26.6450   22.6030 C   0  0  0  0  0  3  0  0  0  0  0  0
  -17.3760  -25.7700   21.5220 C   0  0  0  0  0  3  0  0  0  0  0  0
  -26.4500  -30.0320   22.7330 C   0  0  0  0  0  3  0  0  0  0  0  0
  -26.1910  -31.1120   23.6950 N   0  0  0  0  0  0  0  0  0  0  0  0
  -26.4410  -32.4080   23.4670 C   0  0  0  0  0  0  0  0  0  0  0  0
  -26.9830  -32.8140   22.4330 O   0  0  0  0  0  0  0  0  0  0  0  0
  -25.6940  -30.8610   24.5380 H   0  0  0  0  0  0  0  0  0  0  0  0
  -24.7260  -34.1220   24.1340 C   0  0  0  0  0  1  0  0  0  0  0  0
  -26.0230  -33.4110   24.5560 C   0  0  0  0  0  3  0  0  0  0  0  0
  -28.2280  -33.8550   25.5370 C   0  0  0  0  0  1  0  0  0  0  0  0
  -27.0610  -34.4170   24.8630 N   0  0  0  0  0  0  0  0  0  0  0  0
  -26.6840  -35.1520   25.4550 H   0  0  0  0  0  0  0  0  0  0  0  0
  -27.2270  -28.8430   23.4190 C   0  0  1  0  0  0  0  0  0  0  0  0
  -26.3570  -28.0220   24.3960 C   0  0  0  0  0  1  0  0  0  0  0  0
  -27.7920  -27.8690   22.3580 C   0  0  0  0  0  1  0  0  0  0  0  0
  -28.4440  -29.3900   24.2020 C   0  0  0  0  0  1  0  0  0  0  0  0
  -30.5210  -18.7240   20.0130 C   0  0  0  0  0  2  0  0  0  0  0  0
  -31.2080  -16.2180   19.9150 C   0  0  0  0  0  3  0  0  0  0  0  0
  -30.7830  -17.3690   19.3020 C   0  0  0  0  0  0  0  0  0  0  0  0
  -31.7200  -14.9920   19.2460 C   0  0  0  0  0  0  0  0  0  0  0  0
  -31.3880  -12.5790   18.7210 C   0  0  0  0  0  2  0  0  0  0  0  0
  -30.3670  -12.4430   17.5740 C   0  0  0  0  0  2  0  0  0  0  0  0
  -28.9280  -12.4130   18.1230 C   0  0  0  0  0  2  0  0  0  0  0  0
  -28.6670  -13.5560   19.1420 C   0  0  0  0  0  3  0  0  0  0  0  0
  -29.7940  -13.6510   20.1910 C   0  0  0  0  0  2  0  0  0  0  0  0
  -31.0660  -13.8100   19.4760 N   0  0  0  0  0  0  0  0  0  0  0  0
  -32.7320  -15.0150   18.5370 O   0  0  0  0  0  0  0  0  0  0  0  0
  -26.5000  -14.4170   20.2160 C   0  0  0  0  0  0  0  0  0  0  0  0
  -25.3860  -13.7680   20.6690 C   0  0  0  0  0  0  0  0  0  0  0  0
  -25.6270  -12.3720   20.4700 C   0  0  0  0  0  0  0  0  0  0  0  0
  -27.3600  -13.4220   19.7760 N   0  0  0  0  0  0  0  0  0  0  0  0
  -26.8470  -12.1820   19.9850 N   0  0  0  0  0  0  0  0  0  0  0  0
  -24.7450  -11.2140   20.6600 C   0  0  0  0  0  0  0  0  0  0  0  0
  -25.0870  -10.1600   21.5380 C   0  0  0  0  0  3  0  0  0  0  0  0
  -24.2090   -9.0690   21.7200 C   0  0  0  0  0  3  0  0  0  0  0  0
  -22.9780   -9.0240   21.0250 C   0  0  0  0  0  0  0  0  0  0  0  0
  -22.6520  -10.0640   20.1390 C   0  0  0  0  0  3  0  0  0  0  0  0
  -23.5270  -11.1470   19.9520 C   0  0  0  0  0  3  0  0  0  0  0  0
  -22.0740   -7.9950   21.1260 O   0  0  0  0  0  0  0  0  0  0  0  0
  -21.9040   -7.2950   22.2940 C   0  0  0  0  0  0  0  0  0  0  0  0
  -21.4880   -7.9270   23.4850 C   0  0  0  0  0  3  0  0  0  0  0  0
  -21.2590   -7.1600   24.6450 C   0  0  0  0  0  3  0  0  0  0  0  0
  -21.4320   -5.7640   24.6130 C   0  0  0  0  0  0  0  0  0  0  0  0
  -21.8390   -5.1320   23.4250 C   0  0  0  0  0  3  0  0  0  0  0  0
  -22.0710   -5.8960   22.2670 C   0  0  0  0  0  0  0  0  0  0  0  0
  -22.4440   -5.2810   21.1170 F   0  0  0  0  0  0  0  0  0  0  0  0
  -21.2010   -5.0230   25.7230 F   0  0  0  0  0  0  0  0  0  0  0  0
  -24.1220  -14.4070   21.1710 C   0  0  0  0  0  0  0  0  0  0  0  0
  -23.4300  -13.7540   22.1000 N   0  0  0  0  0  0  0  0  0  0  0  0
  -23.7680  -15.5170   20.7760 O   0  0  0  0  0  0  0  0  0  0  0  0
  -23.7330  -12.8540   22.4390 H   0  0  0  0  0  0  0  0  0  0  0  0
  -22.5870  -14.1600   22.4790 H   0  0  0  0  0  0  0  0  0  0  0  0
  -26.8520  -15.7640   20.1230 N   0  0  0  0  0  0  0  0  0  0  0  0
  -26.2240  -16.5160   20.3850 H   0  0  0  0  0  0  0  0  0  0  0  0
  -27.7340  -16.0980   19.7550 H   0  0  0  0  0  0  0  0  0  0  0  0
  -30.6000  -17.5040   17.9790 O   0  0  0  0  0  0  0  0  0  0  0  0
  -30.3740  -18.4160   17.8240 H   0  0  0  0  0  0  0  0  0  0  0  0
  2  1  1  0
  3  5  1  0
  4  3  2  0
  4  6  1  0
  5 53  1  0
  5  1  2  0
  6  7  1  0
  6  2  2  0
  8  4  1  0
  9  8  2  0
 10  8  1  0
 11 12  1  0
 11 10  1  0
 12 14  1  0
 13 24  2  0
 14 19  1  0
 15 25  1  0
 15 23  1  0
 16 18  1  0
 16 22  1  0
 17 23  1  0
 18 17  1  0
 19 18  2  0
 20 21  1  0
 20 14  2  0
 21 16  2  0
 22 15  1  0
 23 13  1  0
 25 27  2  0
 26 25  1  0
 28 26  1  0
 29 38  2  0
 29 34  1  0
 30 26  1  0
 30 34  1  0
 31 30  1  0
 32 33  1  0
 32 31  1  0
 33 29  1  0
 34 35  2  0
 35 36  1  0
 37 36  2  0
 38 37  1  0
 39 13  1  0
 39 49  1  0
 39 40  1  0
 40 43  1  0
 41 40  1  0
 41 45  1  0
 42 41  2  0
 45 44  1  0
 45 47  1  0
 47 48  1  0
 47 46  1  0
 49 52  1  1
 49 50  1  0
 51 49  1  0
 55 54  2  0
 55 53  1  0
 56 62  1  0
 56 54  1  0
 57 62  1  0
 58 59  1  0
 58 57  1  0
 60 59  1  0
 60 67  1  0
 60 61  1  0
 62 61  1  0
 63 56  2  0
 64 65  2  0
 65 84  1  0
 66 69  1  0
 66 65  1  0
 67 68  1  0
 67 64  1  0
 68 66  2  0
 69 70  1  0
 70 71  2  0
 72 75  1  0
 72 71  1  0
 73 72  2  0
 74 73  1  0
 74 69  2  0
 75 76  1  0
 76 77  1  0
 77 78  2  0
 79 78  1  0
 79 83  1  0
 80 79  2  0
 81 76  2  0
 81 80  1  0
 82 81  1  0
 84 85  1  0
 85 87  1  0
 85 88  1  0
 86 84  2  0
 89 64  1  0
 89 90  1  0
 91 89  1  0
 92 55  1  0
 93 92  1  0
M  ISO  4  11 101  12 101  54 100  56 100
M  END
>  <TORSDO>  (12) 
F 22

>  <SCORE>  (12) 
-7.698

>  <name>  (12) 
11

>  <ligand_id>  (12) 
11

>  <original_smiles>  (12) 
[H]OC(=C([H])C(=O)N1C([H])([H])C([H])([H])C([H])([H])C([H])(n2nc(-c3c([H])c([H])c(Oc4c([H])c([H])c(F)c([H])c4F)c([H])c3[H])c(C(=O)N([H])[H])c2N([H])[H])C1([H])[H])C([H])([H])c1c([H])c([H])c(C([H])([H])[H])c(C(=O)C([H])([H])C([H])([H])Oc2c([H])c([H])c3c(c2[H])C([H])([H])N(C(=O)C([H])(N([H])C(=O)C([H])(N([H])C([H])([H])[H])C([H])([H])[H])C(C([H])([H])[H])(C([H])([H])[H])C([H])([H])[H])C([H])(C(=O)N([H])C2([H])c4c([H])c([H])c([H])c([H])c4C([H])([H])C([H])([H])C2([H])[H])C3([H])[H])c1[H]

>  <smiles>  (12) 
[H]OC(=C([H])C(=O)N1C([H])([H])C([H])([H])C([H])([H])C([H])(n2nc(-c3c([H])c([H])c(Oc4c([H])c([H])c(F)c([H])c4F)c([H])c3[H])c(C(=O)N([H])[H])c2N([H])[H])C1([H])[H])C([H])([H])c1c([H])c([H])c(C([H])([H])[H])c(C(=O)C([H])([H])C([H])([H])Oc2c([H])c([H])c3c(c2[H])C([H])([H])N(C(=O)C([H])(N([H])C(=O)C([H])(N([H])C([H])([H])[H])C([H])([H])[H])C(C([H])([H])[H])(C([H])([H])[H])C([H])([H])[H])C([H])(C(=O)N([H])C2([H])c4c([H])c([H])c([H])c([H])c4C([H])([H])C([H])([H])C2([H])[H])C3([H])[H])c1[H]

$$$$
12:0:0
     RDKit          3D

 94102  0  0  1  0  0  0  0  0999 V2000
  -27.8910  -22.4550   20.0190 C   0  0  0  0  0  3  0  0  0  0  0  0
  -27.9100  -23.8450   20.2200 C   0  0  0  0  0  3  0  0  0  0  0  0
  -29.3860  -23.5460   22.1220 C   0  0  0  0  0  3  0  0  0  0  0  0
  -28.6220  -21.5900   20.8610 C   0  0  0  0  0  0  0  0  0  0  0  0
  -28.6550  -24.4050   21.2750 C   0  0  0  0  0  0  0  0  0  0  0  0
  -29.3720  -22.1350   21.9370 C   0  0  0  0  0  0  0  0  0  0  0  0
  -28.5300  -20.1210   20.5840 C   0  0  0  0  0  0  0  0  0  0  0  0
  -27.4460  -19.5710   20.3570 O   0  0  0  0  0  0  0  0  0  0  0  0
  -29.8420  -19.2790   20.5120 C   0  0  0  0  0  0  0  0  0  0  0  0
  -29.6620  -18.0170   20.9340 N   0  0  0  0  0  0  0  0  0  0  0  0
  -30.9160  -19.7150   20.0810 O   0  0  0  0  0  0  0  0  0  0  0  0
  -28.7190  -17.7900   21.2250 H   0  0  0  0  0  0  0  0  0  0  0  0
  -30.6910  -16.9740   20.9550 C   0  0  0  0  0  2  0  0  0  0  0  0
  -30.1030  -15.5590   21.2270 C   0  0  0  0  0  2  0  0  0  0  0  0
  -30.7210  -14.4120   20.3880 C   0  0  0  0  0  0  0  0  0  0  0  0
  -30.3570  -12.3140   19.1310 C   0  0  0  0  0  2  0  0  0  0  0  0
  -29.3870  -12.5730   17.9600 C   0  0  0  0  0  2  0  0  0  0  0  0
  -27.9230  -12.4300   18.4230 C   0  0  0  0  0  2  0  0  0  0  0  0
  -27.6280  -13.2300   19.7200 C   0  0  0  0  0  3  0  0  0  0  0  0
  -28.7090  -12.9590   20.7920 C   0  0  0  0  0  2  0  0  0  0  0  0
  -30.0230  -13.2590   20.2050 N   0  0  0  0  0  0  0  0  0  0  0  0
  -31.8090  -14.6060   19.8360 O   0  0  0  0  0  0  0  0  0  0  0  0
  -25.2420  -13.8390   20.4750 C   0  0  0  0  0  0  0  0  0  0  0  0
  -24.1800  -13.0670   20.8620 C   0  0  0  0  0  0  0  0  0  0  0  0
  -24.6380  -11.7140   20.8160 C   0  0  0  0  0  0  0  0  0  0  0  0
  -26.2830  -12.9570   20.2230 N   0  0  0  0  0  0  0  0  0  0  0  0
  -25.9230  -11.6740   20.4840 N   0  0  0  0  0  0  0  0  0  0  0  0
  -23.9130  -10.4520   21.0150 C   0  0  0  0  0  0  0  0  0  0  0  0
  -24.3610   -9.4810   21.9390 C   0  0  0  0  0  3  0  0  0  0  0  0
  -23.6380   -8.2850   22.1260 C   0  0  0  0  0  3  0  0  0  0  0  0
  -22.4530   -8.0490   21.3900 C   0  0  0  0  0  0  0  0  0  0  0  0
  -22.0230   -9.0070   20.4560 C   0  0  0  0  0  3  0  0  0  0  0  0
  -22.7470  -10.1970   20.2670 C   0  0  0  0  0  3  0  0  0  0  0  0
  -21.6980   -6.9050   21.4890 O   0  0  0  0  0  0  0  0  0  0  0  0
  -21.6740   -6.1550   22.6380 C   0  0  0  0  0  0  0  0  0  0  0  0
  -21.2520   -6.6960   23.8720 C   0  0  0  0  0  3  0  0  0  0  0  0
  -21.1760   -5.8720   25.0130 C   0  0  0  0  0  3  0  0  0  0  0  0
  -21.5110   -4.5080   24.9200 C   0  0  0  0  0  0  0  0  0  0  0  0
  -21.9250   -3.9660   23.6910 C   0  0  0  0  0  3  0  0  0  0  0  0
  -22.0030   -4.7870   22.5530 C   0  0  0  0  0  0  0  0  0  0  0  0
  -22.3830   -4.2560   21.3660 F   0  0  0  0  0  0  0  0  0  0  0  0
  -21.4300   -3.7140   26.0130 F   0  0  0  0  0  0  0  0  0  0  0  0
  -22.7880  -13.5440   21.1650 C   0  0  0  0  0  0  0  0  0  0  0  0
  -22.0790  -12.8450   22.0430 N   0  0  0  0  0  0  0  0  0  0  0  0
  -22.3400  -14.5690   20.6560 O   0  0  0  0  0  0  0  0  0  0  0  0
  -22.4560  -12.0160   22.4790 H   0  0  0  0  0  0  0  0  0  0  0  0
  -21.1430  -13.1400   22.2850 H   0  0  0  0  0  0  0  0  0  0  0  0
  -25.4010  -15.2090   20.2980 N   0  0  0  0  0  0  0  0  0  0  0  0
  -24.6320  -15.8580   20.4170 H   0  0  0  0  0  0  0  0  0  0  0  0
  -26.2440  -15.6540   19.9570 H   0  0  0  0  0  0  0  0  0  0  0  0
  -30.9130  -21.7950   23.7590 C   0  0  0  0  0  1  0  0  0  0  0  0
  -30.0230  -21.2640   22.7870 O   0  0  0  0  0  0  0  0  0  0  0  0
  -28.6320  -25.9080   21.5470 C   0  0  0  0  0  2  0  0  0  0  0  0
  -28.3940  -26.6910   20.3770 O   0  0  0  0  0  0  0  0  0  0  0  0
  -24.5430  -31.9210   23.3380 C   0  0  0  0  0  0  0  0  0  0  0  0
  -27.2380  -27.4330   20.3920 C   0  0  0  0  0  0  0  0  0  0  0  0
  -23.3710  -30.5020   21.6860 C   0  0  0  0  0  3  0  0  0  0  0  0
  -24.8520  -28.9360   20.3300 C   0  0  0  0  0  0  0  0  0  0  0  0
  -25.9000  -30.8490   21.5440 C   0  0  0  0  0  2  0  0  0  0  0  0
  -25.9940  -29.4630   20.9440 C   0  0  0  0  0  0  0  0  0  0  0  0
  -27.1900  -28.7140   20.9860 C   0  0  0  0  0  3  0  0  0  0  0  0
  -26.0870  -26.9260   19.7570 C   0  0  0  0  0  3  0  0  0  0  0  0
  -24.8910  -27.6620   19.7380 C   0  0  0  0  0  3  0  0  0  0  0  0
  -23.6100  -29.7960   20.3250 C   0  0  0  0  0  2  0  0  0  0  0  0
  -24.6220  -31.1070   22.2490 N   0  0  0  0  0  0  0  0  0  0  0  0
  -23.4490  -32.2070   23.8440 O   0  0  0  0  0  0  0  0  0  0  0  0
  -22.6880  -29.4990   22.6450 C   0  0  0  0  0  0  0  0  0  0  0  0
  -21.3640  -29.3330   22.4900 N   0  0  0  0  0  0  0  0  0  0  0  0
  -23.3460  -28.8750   23.4800 O   0  0  0  0  0  0  0  0  0  0  0  0
  -20.8960  -29.8910   21.7890 H   0  0  0  0  0  0  0  0  0  0  0  0
  -17.9580  -28.2230   22.9530 C   0  0  0  0  0  0  0  0  0  0  0  0
  -20.5180  -28.4150   23.2520 C   0  0  0  0  0  3  0  0  0  0  0  0
  -20.5900  -26.9830   22.6750 C   0  0  0  0  0  2  0  0  0  0  0  0
  -19.4890  -26.6880   21.6510 C   0  0  0  0  0  2  0  0  0  0  0  0
  -18.1050  -26.8680   22.2800 C   0  0  0  0  0  2  0  0  0  0  0  0
  -19.0910  -28.9540   23.3940 C   0  0  0  0  0  0  0  0  0  0  0  0
  -18.9000  -30.2240   23.9800 C   0  0  0  0  0  3  0  0  0  0  0  0
  -17.6070  -30.7610   24.1340 C   0  0  0  0  0  3  0  0  0  0  0  0
  -16.4870  -30.0240   23.7110 C   0  0  0  0  0  3  0  0  0  0  0  0
  -16.6630  -28.7580   23.1260 C   0  0  0  0  0  3  0  0  0  0  0  0
  -25.8170  -32.5500   23.9840 C   0  0  0  0  0  3  0  0  0  0  0  0
  -25.5210  -33.9610   24.2610 N   0  0  0  0  0  0  0  0  0  0  0  0
  -25.8850  -34.9850   23.4770 C   0  0  0  0  0  0  0  0  0  0  0  0
  -26.5800  -34.8390   22.4670 O   0  0  0  0  0  0  0  0  0  0  0  0
  -24.9100  -34.1500   25.0430 H   0  0  0  0  0  0  0  0  0  0  0  0
  -24.1830  -36.7790   23.0260 C   0  0  0  0  0  1  0  0  0  0  0  0
  -25.4030  -36.3910   23.8770 C   0  0  0  0  0  3  0  0  0  0  0  0
  -27.5270  -37.2810   24.7230 C   0  0  0  0  0  1  0  0  0  0  0  0
  -26.4480  -37.4310   23.7500 N   0  0  0  0  0  0  0  0  0  0  0  0
  -26.0480  -38.3590   23.8600 H   0  0  0  0  0  0  0  0  0  0  0  0
  -26.2820  -31.8080   25.2960 C   0  0  1  0  0  0  0  0  0  0  0  0
  -25.1500  -31.6110   26.3310 C   0  0  0  0  0  1  0  0  0  0  0  0
  -26.8620  -30.4170   24.9530 C   0  0  0  0  0  1  0  0  0  0  0  0
  -27.4170  -32.6080   25.9770 C   0  0  0  0  0  1  0  0  0  0  0  0
  1  2  2  0
  1  4  1  0
  2  5  1  0
  4  6  2  0
  5 53  1  0
  5  3  2  0
  6  3  1  0
  6 52  1  0
  7  4  1  0
  8  7  2  0
  9  7  1  0
  9 10  1  0
 10 13  1  0
 10 12  1  0
 11  9  2  0
 13 14  1  0
 15 14  1  0
 16 21  1  0
 17 18  1  0
 17 16  1  0
 19 18  1  0
 19 26  1  0
 19 20  1  0
 21 15  1  0
 21 20  1  0
 22 15  2  0
 23 24  2  0
 24 43  1  0
 25 24  1  0
 25 28  1  0
 26 23  1  0
 26 27  1  0
 27 25  2  0
 28 29  1  0
 29 30  2  0
 31 34  1  0
 31 30  1  0
 32 31  2  0
 33 32  1  0
 33 28  2  0
 34 35  1  0
 35 36  1  0
 36 37  2  0
 38 37  1  0
 38 42  1  0
 39 38  2  0
 40 35  2  0
 40 39  1  0
 41 40  1  0
 43 44  1  0
 44 47  1  0
 44 46  1  0
 45 43  2  0
 48 49  1  0
 48 23  1  0
 50 48  1  0
 52 51  1  0
 54 56  1  0
 54 53  1  0
 55 66  2  0
 56 61  1  0
 57 65  1  0
 57 67  1  0
 58 60  1  0
 59 65  1  0
 60 61  2  0
 60 59  1  0
 62 56  2  0
 63 62  1  0
 63 58  2  0
 64 58  1  0
 64 57  1  0
 65 55  1  0
 67 69  2  0
 68 67  1  0
 70 68  1  0
 71 80  2  0
 71 76  1  0
 72 68  1  0
 72 76  1  0
 73 72  1  0
 74 75  1  0
 74 73  1  0
 75 71  1  0
 76 77  2  0
 77 78  1  0
 79 78  2  0
 80 79  1  0
 81 55  1  0
 81 82  1  0
 81 91  1  0
 82 85  1  0
 83 87  1  0
 83 82  1  0
 84 83  2  0
 87 86  1  0
 89 90  1  0
 89 87  1  0
 89 88  1  0
 91 94  1  1
 91 92  1  0
 93 91  1  0
M  ISO  4  14 100  15 100  53 101  54 101
M  END
>  <TORSDO>  (13) 
F 22

>  <SCORE>  (13) 
-13.648

>  <name>  (13) 
12

>  <ligand_id>  (13) 
12

>  <original_smiles>  (13) 
[H]c1c([H])c([H])c2c(c1[H])C([H])([H])C([H])([H])C([H])([H])C2([H])N([H])C(=O)C1([H])N(C(=O)C([H])(N([H])C(=O)C([H])(N([H])C([H])([H])[H])C([H])([H])[H])C(C([H])([H])[H])(C([H])([H])[H])C([H])([H])[H])C([H])([H])c2c([H])c(OC([H])([H])c3c([H])c([H])c(C(=O)C(=O)N([H])C([H])([H])C([H])([H])C(=O)N4C([H])([H])C([H])([H])C([H])([H])C([H])(n5nc(-c6c([H])c([H])c(Oc7c([H])c([H])c(F)c([H])c7F)c([H])c6[H])c(C(=O)N([H])[H])c5N([H])[H])C4([H])[H])c(OC([H])([H])[H])c3[H])c([H])c([H])c2C1([H])[H]

>  <smiles>  (13) 
[H]c1c([H])c([H])c2c(c1[H])C([H])([H])C([H])([H])C([H])([H])C2([H])N([H])C(=O)C1([H])N(C(=O)C([H])(N([H])C(=O)C([H])(N([H])C([H])([H])[H])C([H])([H])[H])C(C([H])([H])[H])(C([H])([H])[H])C([H])([H])[H])C([H])([H])c2c([H])c(OC([H])([H])c3c([H])c([H])c(C(=O)C(=O)N([H])C([H])([H])C([H])([H])C(=O)N4C([H])([H])C([H])([H])C([H])([H])C([H])(n5nc(-c6c([H])c([H])c(Oc7c([H])c([H])c(F)c([H])c7F)c([H])c6[H])c(C(=O)N([H])[H])c5N([H])[H])C4([H])[H])c(OC([H])([H])[H])c3[H])c([H])c([H])c2C1([H])[H]

$$$$
13:0:0
     RDKit          3D

 99107  0  0  1  0  0  0  0  0999 V2000
  -28.6790  -18.7220   17.1720 C   0  0  0  0  0  3  0  0  0  0  0  0
  -29.0110  -20.0470   16.9070 C   0  0  0  0  0  3  0  0  0  0  0  0
  -28.9060  -18.2280   18.4570 C   0  0  0  0  0  3  0  0  0  0  0  0
  -29.3890  -20.9170   17.9470 C   0  0  0  0  0  0  0  0  0  0  0  0
  -29.2900  -19.0440   19.5490 C   0  0  0  0  0  0  0  0  0  0  0  0
  -29.2310  -20.5540   19.3320 C   0  0  0  0  0  0  0  0  0  0  0  0
  -30.0720  -22.1760   17.4980 C   0  0  0  0  0  0  0  0  0  0  0  0
  -31.2640  -22.3900   18.0400 N   0  0  0  0  0  0  0  0  0  0  0  0
  -29.5940  -22.9120   16.6360 O   0  0  0  0  0  0  0  0  0  0  0  0
  -31.6170  -21.7320   18.7310 H   0  0  0  0  0  0  0  0  0  0  0  0
  -31.8010  -23.2100   17.8010 H   0  0  0  0  0  0  0  0  0  0  0  0
  -28.9500  -21.8430   20.3450 C   0  0  0  0  0  3  0  0  0  0  0  0
  -28.6200  -23.4410   19.8160 C   0  0  0  0  0  3  0  0  0  0  0  0
  -27.9850  -24.7750   20.6110 C   0  0  0  0  0  2  0  0  0  0  0  0
  -28.1680  -26.2700   20.2140 O   0  0  0  0  0  0  0  0  0  0  0  0
  -24.5340  -31.9280   23.2460 C   0  0  0  0  0  0  0  0  0  0  0  0
  -27.0940  -27.2250   20.2110 C   0  0  0  0  0  0  0  0  0  0  0  0
  -23.3280  -30.5370   21.6040 C   0  0  0  0  0  3  0  0  0  0  0  0
  -24.7700  -28.9580   20.1770 C   0  0  0  0  0  0  0  0  0  0  0  0
  -25.8800  -30.8020   21.4350 C   0  0  0  0  0  2  0  0  0  0  0  0
  -25.9500  -29.4100   20.7840 C   0  0  0  0  0  0  0  0  0  0  0  0
  -27.1160  -28.5590   20.7780 C   0  0  0  0  0  3  0  0  0  0  0  0
  -25.8920  -26.8660   19.5680 C   0  0  0  0  0  3  0  0  0  0  0  0
  -24.7540  -27.7020   19.5520 C   0  0  0  0  0  3  0  0  0  0  0  0
  -23.5450  -29.8570   20.2260 C   0  0  0  0  0  2  0  0  0  0  0  0
  -24.6010  -31.1120   22.1490 N   0  0  0  0  0  0  0  0  0  0  0  0
  -23.4500  -32.2140   23.7750 O   0  0  0  0  0  0  0  0  0  0  0  0
  -22.6500  -29.5320   22.5670 C   0  0  0  0  0  0  0  0  0  0  0  0
  -21.3320  -29.3220   22.4020 N   0  0  0  0  0  0  0  0  0  0  0  0
  -23.3120  -28.9400   23.4240 O   0  0  0  0  0  0  0  0  0  0  0  0
  -20.8540  -29.8520   21.6870 H   0  0  0  0  0  0  0  0  0  0  0  0
  -17.9760  -28.0180   22.8000 C   0  0  0  0  0  0  0  0  0  0  0  0
  -20.5110  -28.3770   23.1640 C   0  0  0  0  0  3  0  0  0  0  0  0
  -20.6840  -26.9350   22.6320 C   0  0  0  0  0  2  0  0  0  0  0  0
  -19.6370  -26.5470   21.5840 C   0  0  0  0  0  2  0  0  0  0  0  0
  -18.2260  -26.6610   22.1670 C   0  0  0  0  0  2  0  0  0  0  0  0
  -19.0480  -28.8310   23.2530 C   0  0  0  0  0  0  0  0  0  0  0  0
  -18.7610  -30.0990   23.8030 C   0  0  0  0  0  3  0  0  0  0  0  0
  -17.4330  -30.5560   23.9060 C   0  0  0  0  0  3  0  0  0  0  0  0
  -16.3750  -29.7410   23.4700 C   0  0  0  0  0  3  0  0  0  0  0  0
  -16.6460  -28.4750   22.9220 C   0  0  0  0  0  3  0  0  0  0  0  0
  -25.8150  -32.5590   23.8750 C   0  0  0  0  0  3  0  0  0  0  0  0
  -25.5170  -33.9670   24.1840 N   0  0  0  0  0  0  0  0  0  0  0  0
  -25.8730  -35.0080   23.4200 C   0  0  0  0  0  0  0  0  0  0  0  0
  -26.5520  -34.8840   22.3980 O   0  0  0  0  0  0  0  0  0  0  0  0
  -24.9200  -34.1390   24.9790 H   0  0  0  0  0  0  0  0  0  0  0  0
  -24.1910  -36.8360   23.0140 C   0  0  0  0  0  1  0  0  0  0  0  0
  -25.4020  -36.4100   23.8580 C   0  0  0  0  0  3  0  0  0  0  0  0
  -27.5260  -37.2640   24.7490 C   0  0  0  0  0  1  0  0  0  0  0  0
  -26.4580  -37.4420   23.7690 N   0  0  0  0  0  0  0  0  0  0  0  0
  -26.0650  -38.3710   23.8910 H   0  0  0  0  0  0  0  0  0  0  0  0
  -26.3050  -31.8040   25.1720 C   0  0  1  0  0  0  0  0  0  0  0  0
  -25.1960  -31.5970   26.2300 C   0  0  0  0  0  1  0  0  0  0  0  0
  -26.8780  -30.4130   24.8150 C   0  0  0  0  0  1  0  0  0  0  0  0
  -27.4560  -32.5980   25.8360 C   0  0  0  0  0  1  0  0  0  0  0  0
  -29.9070  -18.0780   20.7170 C   0  0  0  0  0  3  0  0  0  0  0  0
  -29.6110  -16.3960   20.8170 C   0  0  0  0  0  2  0  0  0  0  0  0
  -30.5030  -15.0610   20.3750 C   0  0  0  0  0  0  0  0  0  0  0  0
  -30.4410  -12.7500   19.3220 C   0  0  0  0  0  2  0  0  0  0  0  0
  -29.4870  -12.7840   18.1040 C   0  0  0  0  0  2  0  0  0  0  0  0
  -28.0270  -12.5440   18.5400 C   0  0  0  0  0  2  0  0  0  0  0  0
  -27.6370  -13.3960   19.7750 C   0  0  0  0  0  3  0  0  0  0  0  0
  -28.7060  -13.3240   20.8830 C   0  0  0  0  0  2  0  0  0  0  0  0
  -29.9750  -13.7740   20.2970 N   0  0  0  0  0  0  0  0  0  0  0  0
  -31.6770  -15.1930   20.0040 O   0  0  0  0  0  0  0  0  0  0  0  0
  -25.2540  -13.9400   20.5460 C   0  0  0  0  0  0  0  0  0  0  0  0
  -24.2040  -13.1470   20.9150 C   0  0  0  0  0  0  0  0  0  0  0  0
  -24.6820  -11.8020   20.8530 C   0  0  0  0  0  0  0  0  0  0  0  0
  -26.3050  -13.0770   20.2770 N   0  0  0  0  0  0  0  0  0  0  0  0
  -25.9690  -11.7850   20.5260 N   0  0  0  0  0  0  0  0  0  0  0  0
  -23.9700  -10.5290   21.0310 C   0  0  0  0  0  0  0  0  0  0  0  0
  -24.3940   -9.5720   21.9800 C   0  0  0  0  0  3  0  0  0  0  0  0
  -23.6830   -8.3640   22.1460 C   0  0  0  0  0  3  0  0  0  0  0  0
  -22.5330   -8.1050   21.3610 C   0  0  0  0  0  0  0  0  0  0  0  0
  -22.1280   -9.0500   20.4030 C   0  0  0  0  0  3  0  0  0  0  0  0
  -22.8400  -10.2500   20.2370 C   0  0  0  0  0  3  0  0  0  0  0  0
  -21.7960   -6.9470   21.4340 O   0  0  0  0  0  0  0  0  0  0  0  0
  -21.6980   -6.2270   22.5960 C   0  0  0  0  0  0  0  0  0  0  0  0
  -21.1490   -6.7820   23.7720 C   0  0  0  0  0  3  0  0  0  0  0  0
  -21.0030   -5.9870   24.9250 C   0  0  0  0  0  3  0  0  0  0  0  0
  -21.3940   -4.6350   24.9040 C   0  0  0  0  0  0  0  0  0  0  0  0
  -21.9350   -4.0770   23.7320 C   0  0  0  0  0  3  0  0  0  0  0  0
  -22.0830   -4.8710   22.5810 C   0  0  0  0  0  0  0  0  0  0  0  0
  -22.5860   -4.3230   21.4500 F   0  0  0  0  0  0  0  0  0  0  0  0
  -21.2460   -3.8690   26.0100 F   0  0  0  0  0  0  0  0  0  0  0  0
  -22.8040  -13.6030   21.2080 C   0  0  0  0  0  0  0  0  0  0  0  0
  -22.0900  -12.8790   22.0600 N   0  0  0  0  0  0  0  0  0  0  0  0
  -22.3520  -14.6380   20.7180 O   0  0  0  0  0  0  0  0  0  0  0  0
  -22.4700  -12.0470   22.4850 H   0  0  0  0  0  0  0  0  0  0  0  0
  -21.1480  -13.1650   22.2930 H   0  0  0  0  0  0  0  0  0  0  0  0
  -25.4040  -15.3160   20.3940 N   0  0  0  0  0  0  0  0  0  0  0  0
  -24.6340  -15.9650   20.5230 H   0  0  0  0  0  0  0  0  0  0  0  0
  -26.2480  -15.7660   20.0620 H   0  0  0  0  0  0  0  0  0  0  0  0
  -31.4350  -18.3000   20.8670 C   0  0  0  0  0  2  0  0  0  0  0  0
  -31.8680  -19.7210   21.2490 C   0  0  0  0  0  0  0  0  0  0  0  0
  -31.8270  -20.0630   22.5310 N   0  0  0  0  0  0  0  0  0  0  0  0
  -32.2800  -20.5100   20.3980 O   0  0  0  0  0  0  0  0  0  0  0  0
  -31.5160  -19.4080   23.2350 H   0  0  0  0  0  0  0  0  0  0  0  0
  -32.1290  -20.9840   22.8220 H   0  0  0  0  0  0  0  0  0  0  0  0
  1  3  1  0
  2  1  2  0
  2  4  1  0
  3  5  2  0
  4  6  2  0
  5 56  1  0
  6  5  1  0
  6 12  1  0
  7  4  1  0
  7  8  1  0
  8 10  1  0
  9  7  2  0
 11  8  1  0
 13 12  2  0
 13 14  1  0
 15 14  1  0
 16 27  2  0
 17 15  1  0
 17 22  1  0
 18 26  1  0
 18 28  1  0
 19 25  1  0
 19 21  1  0
 20 26  1  0
 21 20  1  0
 22 21  2  0
 23 17  2  0
 24 23  1  0
 24 19  2  0
 25 18  1  0
 26 16  1  0
 28 30  2  0
 29 28  1  0
 31 29  1  0
 32 41  2  0
 32 37  1  0
 33 29  1  0
 33 37  1  0
 34 33  1  0
 35 36  1  0
 35 34  1  0
 36 32  1  0
 37 38  2  0
 38 39  1  0
 40 39  2  0
 41 40  1  0
 42 16  1  0
 42 43  1  0
 42 52  1  0
 43 46  1  0
 44 48  1  0
 44 43  1  0
 45 44  2  0
 48 47  1  0
 50 48  1  0
 50 51  1  0
 50 49  1  0
 52 55  1  1
 52 53  1  0
 54 52  1  0
 56 57  1  0
 56 94  1  0
 58 57  1  0
 59 64  1  0
 60 61  1  0
 60 59  1  0
 62 61  1  0
 62 69  1  0
 62 63  1  0
 64 58  1  0
 64 63  1  0
 65 58  2  0
 66 67  2  0
 67 86  1  0
 68 67  1  0
 68 71  1  0
 69 70  1  0
 69 66  1  0
 70 68  2  0
 71 72  1  0
 72 73  2  0
 74 77  1  0
 74 73  1  0
 75 74  2  0
 76 75  1  0
 76 71  2  0
 77 78  1  0
 78 79  1  0
 79 80  2  0
 81 80  1  0
 81 85  1  0
 82 81  2  0
 83 78  2  0
 83 82  1  0
 84 83  1  0
 86 87  1  0
 87 90  1  0
 87 89  1  0
 88 86  2  0
 91 92  1  0
 91 66  1  0
 93 91  1  0
 94 95  1  0
 95 96  1  0
 96 99  1  0
 96 98  1  0
 97 95  2  0
M  ISO  4  14 101  15 101  57 100  58 100
M  END
>  <TORSDO>  (14) 
F 24

>  <SCORE>  (14) 
-14.233

>  <name>  (14) 
13

>  <ligand_id>  (14) 
13

>  <original_smiles>  (14) 
[H]c1c([H])c([H])c2c(c1[H])C([H])([H])C([H])([H])C([H])([H])C2([H])N([H])C(=O)C1([H])N(C(=O)C([H])(N([H])C(=O)C([H])(N([H])C([H])([H])[H])C([H])([H])[H])C(C([H])([H])[H])(C([H])([H])[H])C([H])([H])[H])C([H])([H])c2c([H])c(OC([H])([H])C([H])([H])C([H])([H])c3c(C(=O)N([H])[H])c([H])c([H])c([H])c3C([H])(C([H])([H])C(=O)N([H])[H])C([H])([H])C(=O)N3C([H])([H])C([H])([H])C([H])([H])C([H])(n4nc(-c5c([H])c([H])c(Oc6c([H])c([H])c(F)c([H])c6F)c([H])c5[H])c(C(=O)N([H])[H])c4N([H])[H])C3([H])[H])c([H])c([H])c2C1([H])[H]

>  <smiles>  (14) 
[H]c1c([H])c([H])c2c(c1[H])C([H])([H])C([H])([H])C([H])([H])C2([H])N([H])C(=O)C1([H])N(C(=O)C([H])(N([H])C(=O)C([H])(N([H])C([H])([H])[H])C([H])([H])[H])C(C([H])([H])[H])(C([H])([H])[H])C([H])([H])[H])C([H])([H])c2c([H])c(OC([H])([H])C([H])([H])C([H])([H])c3c(C(=O)N([H])[H])c([H])c([H])c([H])c3C([H])(C([H])([H])C(=O)N([H])[H])C([H])([H])C(=O)N3C([H])([H])C([H])([H])C([H])([H])C([H])(n4nc(-c5c([H])c([H])c(Oc6c([H])c([H])c(F)c([H])c6F)c([H])c5[H])c(C(=O)N([H])[H])c4N([H])[H])C3([H])[H])c([H])c([H])c2C1([H])[H]

$$$$
14:0:0
     RDKit          3D

 96105  0  0  1  0  0  0  0  0999 V2000
  -31.2250  -22.8540   19.3570 C   0  0  0  0  0  3  0  0  0  0  0  0
  -30.8120  -21.5060   19.2180 C   0  0  0  0  0  3  0  0  0  0  0  0
  -30.2990  -23.9080   19.5420 C   0  0  0  0  0  3  0  0  0  0  0  0
  -28.5280  -22.2530   19.4820 C   0  0  0  0  0  3  0  0  0  0  0  0
  -29.4470  -21.1440   19.2820 C   0  0  0  0  0  0  0  0  0  0  0  0
  -28.9170  -23.6440   19.5990 C   0  0  0  0  0  0  0  0  0  0  0  0
  -26.9540  -19.5410   17.5960 C   0  0  0  0  0  2  0  0  0  0  0  0
  -28.4660  -19.6130   17.5330 C   0  0  0  0  0  2  0  0  0  0  0  0
  -26.7590  -18.8120   18.9060 C   0  0  0  0  0  2  0  0  0  0  0  0
  -28.9510  -19.6450   19.0140 C   0  0  2  0  0  0  0  0  0  0  0  0
  -27.7410  -19.4150   19.7440 O   0  0  0  0  0  0  0  0  0  0  0  0
  -29.9190  -18.3420   19.2760 C   0  0  0  0  0  2  0  0  0  0  0  0
  -29.7320  -17.3410   20.5400 C   0  0  0  0  0  3  0  0  0  0  0  0
  -30.4490  -14.7830   20.1170 C   0  0  0  0  0  0  0  0  0  0  0  0
  -30.3670  -12.4150   19.3300 C   0  0  0  0  0  2  0  0  0  0  0  0
  -29.4270  -12.3420   18.1060 C   0  0  0  0  0  2  0  0  0  0  0  0
  -27.9590  -12.1620   18.5460 C   0  0  0  0  0  2  0  0  0  0  0  0
  -27.5480  -13.1520   19.6670 C   0  0  0  0  0  3  0  0  0  0  0  0
  -28.6020  -13.1910   20.7940 C   0  0  0  0  0  2  0  0  0  0  0  0
  -29.8910  -13.5310   20.1720 N   0  0  0  0  0  0  0  0  0  0  0  0
  -31.6260  -14.9380   19.7770 O   0  0  0  0  0  0  0  0  0  0  0  0
  -29.5810  -15.8450   20.2530 N   0  0  0  0  0  0  0  0  0  0  0  0
  -28.6390  -15.5190   20.4070 H   0  0  0  0  0  0  0  0  0  0  0  0
  -25.1780  -13.7620   20.4510 C   0  0  0  0  0  0  0  0  0  0  0  0
  -24.1120  -12.9960   20.8360 C   0  0  0  0  0  0  0  0  0  0  0  0
  -24.5600  -11.6400   20.7760 C   0  0  0  0  0  0  0  0  0  0  0  0
  -26.2080  -12.8750   20.1790 N   0  0  0  0  0  0  0  0  0  0  0  0
  -25.8420  -11.5940   20.4350 N   0  0  0  0  0  0  0  0  0  0  0  0
  -23.8260  -10.3820   20.9600 C   0  0  0  0  0  0  0  0  0  0  0  0
  -24.2490   -9.4110   21.8950 C   0  0  0  0  0  3  0  0  0  0  0  0
  -23.5160   -8.2170   22.0680 C   0  0  0  0  0  3  0  0  0  0  0  0
  -22.3450   -7.9870   21.3080 C   0  0  0  0  0  0  0  0  0  0  0  0
  -21.9390   -8.9480   20.3640 C   0  0  0  0  0  3  0  0  0  0  0  0
  -22.6730  -10.1320   20.1890 C   0  0  0  0  0  3  0  0  0  0  0  0
  -21.5820   -6.8470   21.3920 O   0  0  0  0  0  0  0  0  0  0  0  0
  -21.5170   -6.1080   22.5450 C   0  0  0  0  0  0  0  0  0  0  0  0
  -21.0640   -6.6640   23.7620 C   0  0  0  0  0  3  0  0  0  0  0  0
  -20.9450   -5.8500   24.9060 C   0  0  0  0  0  3  0  0  0  0  0  0
  -21.2710   -4.4830   24.8360 C   0  0  0  0  0  0  0  0  0  0  0  0
  -21.7170   -3.9270   23.6240 C   0  0  0  0  0  3  0  0  0  0  0  0
  -21.8370   -4.7370   22.4830 C   0  0  0  0  0  0  0  0  0  0  0  0
  -22.2470   -4.1910   21.3120 F   0  0  0  0  0  0  0  0  0  0  0  0
  -21.1510   -3.7010   25.9340 F   0  0  0  0  0  0  0  0  0  0  0  0
  -22.7260  -13.4840   21.1450 C   0  0  0  0  0  0  0  0  0  0  0  0
  -22.0090  -12.7870   22.0200 N   0  0  0  0  0  0  0  0  0  0  0  0
  -22.2880  -14.5200   20.6450 O   0  0  0  0  0  0  0  0  0  0  0  0
  -22.3770  -11.9520   22.4500 H   0  0  0  0  0  0  0  0  0  0  0  0
  -21.0790  -13.0960   22.2650 H   0  0  0  0  0  0  0  0  0  0  0  0
  -25.3510  -15.1340   20.2810 N   0  0  0  0  0  0  0  0  0  0  0  0
  -24.5810  -15.7840   20.3810 H   0  0  0  0  0  0  0  0  0  0  0  0
  -26.1650  -15.5470   19.8480 H   0  0  0  0  0  0  0  0  0  0  0  0
  -30.7630  -17.5970   21.6730 C   0  0  0  0  0  0  0  0  0  0  0  0
  -31.6710  -18.8210   21.6220 C   0  0  0  0  0  1  0  0  0  0  0  0
  -30.8360  -16.8600   22.6600 O   0  0  0  0  0  0  0  0  0  0  0  0
  -27.8520  -24.8090   19.7560 C   0  0  0  0  0  2  0  0  0  0  0  0
  -28.1980  -26.2710   19.6820 O   0  0  0  0  0  0  0  0  0  0  0  0
  -24.6030  -31.6310   23.0510 C   0  0  0  0  0  0  0  0  0  0  0  0
  -27.1180  -27.1860   19.7140 C   0  0  0  0  0  0  0  0  0  0  0  0
  -23.3610  -30.3320   21.3620 C   0  0  0  0  0  3  0  0  0  0  0  0
  -24.7750  -28.8510   19.8280 C   0  0  0  0  0  0  0  0  0  0  0  0
  -25.9050  -30.6270   21.1570 C   0  0  0  0  0  2  0  0  0  0  0  0
  -25.9630  -29.2820   20.4350 C   0  0  0  0  0  0  0  0  0  0  0  0
  -27.1370  -28.4630   20.3720 C   0  0  0  0  0  3  0  0  0  0  0  0
  -25.9090  -26.8380   19.0660 C   0  0  0  0  0  3  0  0  0  0  0  0
  -24.7540  -27.6360   19.1330 C   0  0  0  0  0  3  0  0  0  0  0  0
  -23.5480  -29.7350   19.9440 C   0  0  0  0  0  2  0  0  0  0  0  0
  -24.6430  -30.8780   21.9120 N   0  0  0  0  0  0  0  0  0  0  0  0
  -23.5310  -31.8900   23.6180 O   0  0  0  0  0  0  0  0  0  0  0  0
  -22.7070  -29.2700   22.2790 C   0  0  0  0  0  0  0  0  0  0  0  0
  -21.3740  -29.1320   22.1920 N   0  0  0  0  0  0  0  0  0  0  0  0
  -23.3970  -28.5720   23.0280 O   0  0  0  0  0  0  0  0  0  0  0  0
  -20.8770  -29.7440   21.5610 H   0  0  0  0  0  0  0  0  0  0  0  0
  -17.9810  -28.0020   22.7600 C   0  0  0  0  0  0  0  0  0  0  0  0
  -20.5570  -28.1670   22.9320 C   0  0  0  0  0  3  0  0  0  0  0  0
  -20.5890  -26.7770   22.2560 C   0  0  0  0  0  2  0  0  0  0  0  0
  -19.4350  -26.5570   21.2730 C   0  0  0  0  0  2  0  0  0  0  0  0
  -18.0870  -26.6990   21.9860 C   0  0  0  0  0  2  0  0  0  0  0  0
  -19.1420  -28.7000   23.1900 C   0  0  0  0  0  0  0  0  0  0  0  0
  -18.9900  -29.9240   23.8750 C   0  0  0  0  0  3  0  0  0  0  0  0
  -17.7110  -30.4490   24.1350 C   0  0  0  0  0  3  0  0  0  0  0  0
  -16.5660  -29.7460   23.7230 C   0  0  0  0  0  3  0  0  0  0  0  0
  -16.7020  -28.5250   23.0390 C   0  0  0  0  0  3  0  0  0  0  0  0
  -25.9030  -32.2230   23.6770 C   0  0  0  0  0  3  0  0  0  0  0  0
  -25.6100  -33.6040   24.0850 N   0  0  0  0  0  0  0  0  0  0  0  0
  -25.9440  -34.6950   23.3830 C   0  0  0  0  0  0  0  0  0  0  0  0
  -26.6050  -34.6440   22.3420 O   0  0  0  0  0  0  0  0  0  0  0  0
  -25.0310  -33.7160   24.9040 H   0  0  0  0  0  0  0  0  0  0  0  0
  -24.2290  -36.5210   23.1460 C   0  0  0  0  0  1  0  0  0  0  0  0
  -25.4720  -36.0580   23.9230 C   0  0  0  0  0  3  0  0  0  0  0  0
  -27.6160  -36.8800   24.7910 C   0  0  0  0  0  1  0  0  0  0  0  0
  -26.5110  -37.1080   23.8640 N   0  0  0  0  0  0  0  0  0  0  0  0
  -26.1130  -38.0200   24.0660 H   0  0  0  0  0  0  0  0  0  0  0  0
  -26.4360  -31.3870   24.9050 C   0  0  1  0  0  0  0  0  0  0  0  0
  -25.3650  -31.1160   25.9860 C   0  0  0  0  0  1  0  0  0  0  0  0
  -26.9930  -30.0210   24.4410 C   0  0  0  0  0  1  0  0  0  0  0  0
  -27.6060  -32.1390   25.5840 C   0  0  0  0  0  1  0  0  0  0  0  0
  1  3  1  0
  2  5  1  0
  2  1  2  0
  3  6  2  0
  4  6  1  0
  5  4  2  0
  6 55  1  0
  7  9  1  0
  8  7  1  0
  8 10  1  0
  9 11  1  0
 10 12  1  6
 10  5  1  0
 10 11  1  0
 13 12  1  0
 13 52  1  0
 14 20  1  0
 14 22  1  0
 15 20  1  0
 16 17  1  0
 16 15  1  0
 18 17  1  0
 18 27  1  0
 18 19  1  0
 20 19  1  0
 21 14  2  0
 22 23  1  0
 22 13  1  0
 24 25  2  0
 25 44  1  0
 26 25  1  0
 26 29  1  0
 27 28  1  0
 27 24  1  0
 28 26  2  0
 29 30  1  0
 30 31  2  0
 32 35  1  0
 32 31  1  0
 33 32  2  0
 34 33  1  0
 34 29  2  0
 35 36  1  0
 36 37  1  0
 37 38  2  0
 39 38  1  0
 39 43  1  0
 40 39  2  0
 41 36  2  0
 41 40  1  0
 42 41  1  0
 44 45  1  0
 45 48  1  0
 45 47  1  0
 46 44  2  0
 49 50  1  0
 49 24  1  0
 51 49  1  0
 52 54  2  0
 53 52  1  0
 56 58  1  0
 56 55  1  0
 57 68  2  0
 58 63  1  0
 59 67  1  0
 59 69  1  0
 60 66  1  0
 60 62  1  0
 61 67  1  0
 62 61  1  0
 63 62  2  0
 64 65  1  0
 64 58  2  0
 65 60  2  0
 66 59  1  0
 67 57  1  0
 69 71  2  0
 70 69  1  0
 72 70  1  0
 73 82  2  0
 73 78  1  0
 74 70  1  0
 74 78  1  0
 75 74  1  0
 76 77  1  0
 76 75  1  0
 77 73  1  0
 78 79  2  0
 79 80  1  0
 81 80  2  0
 82 81  1  0
 83 57  1  0
 83 84  1  0
 83 93  1  0
 84 87  1  0
 85 89  1  0
 85 84  1  0
 86 85  2  0
 89 88  1  0
 91 89  1  0
 91 92  1  0
 91 90  1  0
 93 96  1  1
 93 94  1  0
 95 93  1  0
M  ISO  4  14 100  22 100  55 101  56 101
M  END
>  <TORSDO>  (15) 
F 21

>  <SCORE>  (15) 
-13.245

>  <name>  (15) 
14

>  <ligand_id>  (15) 
14

>  <original_smiles>  (15) 
[H]c1c([H])c([H])c2c(c1[H])C([H])([H])C([H])([H])C([H])([H])C2([H])N([H])C(=O)C1([H])N(C(=O)C([H])(N([H])C(=O)C([H])(N([H])C([H])([H])[H])C([H])([H])[H])C(C([H])([H])[H])(C([H])([H])[H])C([H])([H])[H])C([H])([H])c2c([H])c(OC([H])([H])c3c([H])c([H])c([H])c(C4(C([H])([H])C([H])(C(=O)C([H])([H])[H])N([H])C(=O)N5C([H])([H])C([H])([H])C([H])([H])C([H])(n6nc(-c7c([H])c([H])c(Oc8c([H])c([H])c(F)c([H])c8F)c([H])c7[H])c(C(=O)N([H])[H])c6N([H])[H])C5([H])[H])OC([H])([H])C([H])([H])C4([H])[H])c3[H])c([H])c([H])c2C1([H])[H]

>  <smiles>  (15) 
[H]c1c([H])c([H])c2c(c1[H])C([H])([H])C([H])([H])C([H])([H])C2([H])N([H])C(=O)C1([H])N(C(=O)C([H])(N([H])C(=O)C([H])(N([H])C([H])([H])[H])C([H])([H])[H])C(C([H])([H])[H])(C([H])([H])[H])C([H])([H])[H])C([H])([H])c2c([H])c(OC([H])([H])c3c([H])c([H])c([H])c(C4(C([H])([H])C([H])(C(=O)C([H])([H])[H])N([H])C(=O)N5C([H])([H])C([H])([H])C([H])([H])C([H])(n6nc(-c7c([H])c([H])c(Oc8c([H])c([H])c(F)c([H])c8F)c([H])c7[H])c(C(=O)N([H])[H])c6N([H])[H])C5([H])[H])OC([H])([H])C([H])([H])C4([H])[H])c3[H])c([H])c([H])c2C1([H])[H]

$$$$
15:0:0
     RDKit          3D

 94102  0  0  1  0  0  0  0  0999 V2000
  -29.3650  -20.1580   19.2490 C   0  0  0  0  0  0  0  0  0  0  0  0
  -30.3010  -21.3450   18.9130 C   0  0  0  0  0  0  0  0  0  0  0  0
  -29.8720  -18.6220   19.0740 C   0  0  0  0  0  0  0  0  0  0  0  0
  -28.2050  -21.5020   19.7210 C   0  0  0  0  0  2  0  0  0  0  0  0
  -29.8370  -22.9230   18.8920 C   0  0  0  0  0  2  0  0  0  0  0  0
  -28.5520  -23.3950   19.7220 C   0  0  0  0  0  2  0  0  0  0  0  0
  -31.4880  -21.1440   18.6390 O   0  0  0  0  0  0  0  0  0  0  0  0
  -29.2520  -15.1820   18.6750 C   0  0  0  0  0  2  0  0  0  0  0  0
  -31.7360  -16.3540   19.3330 C   0  0  0  0  0  3  0  0  0  0  0  0
  -30.2930  -13.1550   19.0630 C   0  0  0  0  0  2  0  0  0  0  0  0
  -32.5890  -14.9030   19.5330 C   0  0  0  0  0  3  0  0  0  0  0  0
  -30.1350  -16.6980   18.9880 C   0  0  0  0  0  0  0  0  0  0  0  0
  -31.9310  -13.3450   19.4910 C   0  0  0  0  0  3  0  0  0  0  0  0
  -33.2730  -11.3920   19.4210 C   0  0  0  0  0  1  0  0  0  0  0  0
  -32.5520  -12.3500   20.2500 N   0  0  0  0  0  0  0  0  0  0  0  0
  -31.5740  -11.8170   21.2280 C   0  0  0  0  0  2  0  0  0  0  0  0
  -30.8660  -12.8350   22.2070 C   0  0  0  0  0  2  0  0  0  0  0  0
  -30.3960  -14.2020   21.6320 C   0  0  0  0  0  0  0  0  0  0  0  0
  -29.3180  -14.1020   17.8090 C   0  0  0  0  0  3  0  0  0  0  0  0
  -27.9060  -12.9500   17.3210 C   0  0  0  0  0  3  0  0  0  0  0  0
  -26.7570  -12.2300   18.5550 C   0  0  0  0  0  3  0  0  0  0  0  0
  -26.7450  -12.5460   20.3420 C   0  0  0  0  0  3  0  0  0  0  0  0
  -28.0270  -13.3090   21.4240 C   0  0  0  0  0  2  0  0  0  0  0  0
  -29.3930  -14.2480   20.7330 N   0  0  0  0  0  2  0  0  0  0  0  0
  -31.2700  -15.0370   21.5420 O   0  0  0  0  0  0  0  0  0  0  0  0
  -24.4290  -12.9120   21.2790 C   0  0  0  0  0  0  0  0  0  0  0  0
  -23.4770  -12.0210   21.6160 C   0  0  0  0  0  0  0  0  0  0  0  0
  -24.0640  -10.7300   21.4540 C   0  0  0  0  0  0  0  0  0  0  0  0
  -25.5400  -12.1230   20.9520 N   0  0  0  0  0  0  0  0  0  0  0  0
  -25.3280  -10.8070   21.0690 N   0  0  0  0  0  0  0  0  0  0  0  0
  -23.4800   -9.4110   21.6080 C   0  0  0  0  0  0  0  0  0  0  0  0
  -24.0640   -8.4610   22.4700 C   0  0  0  0  0  3  0  0  0  0  0  0
  -23.4580   -7.2020   22.6400 C   0  0  0  0  0  3  0  0  0  0  0  0
  -22.2610   -6.8960   21.9490 C   0  0  0  0  0  0  0  0  0  0  0  0
  -21.7080   -7.8420   21.0680 C   0  0  0  0  0  3  0  0  0  0  0  0
  -22.3150   -9.0920   20.8940 C   0  0  0  0  0  3  0  0  0  0  0  0
  -21.6110   -5.6940   22.0390 O   0  0  0  0  0  0  0  0  0  0  0  0
  -21.7080   -4.9160   23.1630 C   0  0  0  0  0  0  0  0  0  0  0  0
  -21.2750   -5.3740   24.4270 C   0  0  0  0  0  3  0  0  0  0  0  0
  -21.3270   -4.5130   25.5410 C   0  0  0  0  0  3  0  0  0  0  0  0
  -21.8030   -3.1950   25.3900 C   0  0  0  0  0  0  0  0  0  0  0  0
  -22.2320   -2.7400   24.1310 C   0  0  0  0  0  3  0  0  0  0  0  0
  -22.1810   -3.5990   23.0200 C   0  0  0  0  0  0  0  0  0  0  0  0
  -22.5760   -3.1520   21.8030 F   0  0  0  0  0  0  0  0  0  0  0  0
  -21.8440   -2.3620   26.4560 F   0  0  0  0  0  0  0  0  0  0  0  0
  -22.0760  -12.3750   21.9910 C   0  0  0  0  0  0  0  0  0  0  0  0
  -21.4700  -11.5770   22.8570 N   0  0  0  0  0  0  0  0  0  0  0  0
  -21.5430  -13.4030   21.5710 O   0  0  0  0  0  0  0  0  0  0  0  0
  -21.9300  -10.7560   23.2230 H   0  0  0  0  0  0  0  0  0  0  0  0
  -20.5330  -11.7890   23.1640 H   0  0  0  0  0  0  0  0  0  0  0  0
  -24.4100  -14.3160   21.1970 N   0  0  0  0  0  0  0  0  0  0  0  0
  -23.5850  -14.8590   21.4230 H   0  0  0  0  0  0  0  0  0  0  0  0
  -25.2090  -14.8900   20.9570 H   0  0  0  0  0  0  0  0  0  0  0  0
  -28.1960  -25.2260   20.0620 O   0  0  0  0  0  1  0  0  0  0  0  0
  -24.5230  -31.7900   22.8810 C   0  0  0  0  0  0  0  0  0  0  0  0
  -27.2000  -26.4950   20.0080 C   0  0  0  0  0  0  0  0  0  0  0  0
  -23.4070  -30.3050   21.2830 C   0  0  0  0  0  3  0  0  0  0  0  0
  -24.9050  -28.6060   19.9470 C   0  0  0  0  0  0  0  0  0  0  0  0
  -25.9960  -30.4310   21.2220 C   0  0  0  0  0  2  0  0  0  0  0  0
  -26.0940  -28.9630   20.5890 C   0  0  0  0  0  0  0  0  0  0  0  0
  -27.2130  -27.9350   20.5870 C   0  0  0  0  0  3  0  0  0  0  0  0
  -25.9590  -26.4000   19.3280 C   0  0  0  0  0  3  0  0  0  0  0  0
  -24.8830  -27.3530   19.3050 C   0  0  0  0  0  3  0  0  0  0  0  0
  -23.6890  -29.5580   19.9470 C   0  0  0  0  0  2  0  0  0  0  0  0
  -24.6690  -30.8830   21.8460 N   0  0  0  0  0  0  0  0  0  0  0  0
  -23.4090  -32.0890   23.3490 O   0  0  0  0  0  0  0  0  0  0  0  0
  -22.6770  -29.3610   22.2790 C   0  0  0  0  0  0  0  0  0  0  0  0
  -21.3450  -29.2010   22.1540 N   0  0  0  0  0  0  0  0  0  0  0  0
  -23.3270  -28.7670   23.1430 O   0  0  0  0  0  0  0  0  0  0  0  0
  -20.8680  -29.7300   21.4360 H   0  0  0  0  0  0  0  0  0  0  0  0
  -17.9600  -27.9860   22.7010 C   0  0  0  0  0  0  0  0  0  0  0  0
  -20.5190  -28.2790   22.9470 C   0  0  0  0  0  3  0  0  0  0  0  0
  -20.6270  -26.8340   22.4030 C   0  0  0  0  0  2  0  0  0  0  0  0
  -19.5240  -26.4850   21.3980 C   0  0  0  0  0  2  0  0  0  0  0  0
  -18.1440  -26.6290   22.0440 C   0  0  0  0  0  2  0  0  0  0  0  0
  -19.0730  -28.7680   23.1090 C   0  0  0  0  0  0  0  0  0  0  0  0
  -18.8410  -30.0330   23.6930 C   0  0  0  0  0  3  0  0  0  0  0  0
  -17.5300  -30.5170   23.8670 C   0  0  0  0  0  3  0  0  0  0  0  0
  -16.4320  -29.7340   23.4690 C   0  0  0  0  0  3  0  0  0  0  0  0
  -16.6480  -28.4700   22.8920 C   0  0  0  0  0  3  0  0  0  0  0  0
  -25.7460  -32.5090   23.5300 C   0  0  0  0  0  3  0  0  0  0  0  0
  -26.2440  -31.8010   24.8520 C   0  0  1  0  0  0  0  0  0  0  0  0
  -25.1230  -31.5460   25.8880 C   0  0  0  0  0  1  0  0  0  0  0  0
  -26.9020  -30.4400   24.5380 C   0  0  0  0  0  1  0  0  0  0  0  0
  -27.3370  -32.6640   25.5290 C   0  0  0  0  0  1  0  0  0  0  0  0
  -25.3590  -33.9030   23.8400 N   0  0  0  0  0  0  0  0  0  0  0  0
  -25.6960  -34.9820   23.1180 C   0  0  0  0  0  0  0  0  0  0  0  0
  -26.4130  -34.9100   22.1190 O   0  0  0  0  0  0  0  0  0  0  0  0
  -24.7190  -34.0270   24.6110 H   0  0  0  0  0  0  0  0  0  0  0  0
  -23.9380  -36.7480   22.7180 C   0  0  0  0  0  1  0  0  0  0  0  0
  -25.1560  -36.3580   23.5720 C   0  0  0  0  0  3  0  0  0  0  0  0
  -27.2280  -37.2980   24.5020 C   0  0  0  0  0  1  0  0  0  0  0  0
  -26.1650  -37.4400   23.5110 N   0  0  0  0  0  0  0  0  0  0  0  0
  -25.7270  -38.3480   23.6450 H   0  0  0  0  0  0  0  0  0  0  0  0
  1  4  1  0
  2  1  1  0
  3  1  2  0
  4  6  1  0
  5  2  1  0
  5  6  1  0
  7  2  2  0
  8 12  1  0
  9 11  2  0
 12  3  2  0
 12  9  1  0
 13 10  1  0
 13 11  1  0
 13 15  1  0
 14 15  1  0
 15 16  1  0
 16 17  1  0
 18 17  1  0
 19 20  1  0
 19  8  1  0
 19 10  1  0
 20 21  2  0
 22 21  1  0
 22 29  1  0
 22 23  1  0
 24 23  1  0
 24 18  1  0
 25 18  2  0
 26 27  2  0
 27 46  1  0
 28 31  1  0
 28 27  1  0
 29 30  1  0
 29 26  1  0
 30 28  2  0
 31 32  1  0
 32 33  2  0
 34 37  1  0
 34 33  1  0
 35 34  2  0
 36 35  1  0
 36 31  2  0
 37 38  1  0
 38 39  1  0
 39 40  2  0
 41 40  1  0
 41 45  1  0
 42 41  2  0
 43 38  2  0
 43 42  1  0
 44 43  1  0
 46 47  1  0
 47 50  1  0
 47 49  1  0
 48 46  2  0
 51 26  1  0
 51 52  1  0
 53 51  1  0
 55 66  2  0
 56 54  1  0
 56 61  1  0
 57 65  1  0
 57 67  1  0
 58 64  1  0
 58 60  1  0
 59 65  1  0
 60 59  1  0
 61 60  2  0
 62 56  2  0
 63 62  1  0
 63 58  2  0
 64 57  1  0
 65 55  1  0
 67 69  2  0
 68 67  1  0
 70 68  1  0
 71 80  2  0
 71 76  1  0
 72 68  1  0
 72 76  1  0
 73 72  1  0
 74 75  1  0
 74 73  1  0
 75 71  1  0
 76 77  2  0
 77 78  1  0
 79 78  2  0
 80 79  1  0
 81 55  1  0
 81 86  1  0
 81 82  1  0
 82 85  1  1
 82 83  1  0
 84 82  1  0
 86 89  1  0
 87 91  1  0
 87 86  1  0
 88 87  2  0
 91 90  1  0
 93 91  1  0
 93 94  1  0
 93 92  1  0
M  ISO  4   6 101  17 100  18 100  54 101
M  END
>  <TORSDO>  (16) 
F 20

>  <SCORE>  (16) 
-7.658

>  <name>  (16) 
15

>  <ligand_id>  (16) 
15

>  <original_smiles>  (16) 
[H]C(=C1C(=O)C([H])([H])C([H])(Oc2c([H])c([H])c3c(c2[H])C([H])([H])N(C(=O)C([H])(N([H])C(=O)C([H])(N([H])C([H])([H])[H])C([H])([H])[H])C(C([H])([H])[H])(C([H])([H])[H])C([H])([H])[H])C([H])(C(=O)N([H])C2([H])c4c([H])c([H])c([H])c([H])c4C([H])([H])C([H])([H])C2([H])[H])C3([H])[H])C1([H])[H])c1c([H])c([H])c(N(C([H])([H])[H])C([H])([H])C([H])([H])C(=O)N2C([H])([H])C([H])([H])C([H])([H])C([H])(n3nc(-c4c([H])c([H])c(Oc5c([H])c([H])c(F)c([H])c5F)c([H])c4[H])c(C(=O)N([H])[H])c3N([H])[H])C2([H])[H])c([H])c1[H]

>  <smiles>  (16) 
[H]C(=C1C(=O)C([H])([H])C([H])(Oc2c([H])c([H])c3c(c2[H])C([H])([H])N(C(=O)C([H])(N([H])C(=O)C([H])(N([H])C([H])([H])[H])C([H])([H])[H])C(C([H])([H])[H])(C([H])([H])[H])C([H])([H])[H])C([H])(C(=O)N([H])C2([H])c4c([H])c([H])c([H])c([H])c4C([H])([H])C([H])([H])C2([H])[H])C3([H])[H])C1([H])[H])c1c([H])c([H])c(N(C([H])([H])[H])C([H])([H])C([H])([H])C(=O)N2C([H])([H])C([H])([H])C([H])([H])C([H])(n3nc(-c4c([H])c([H])c(Oc5c([H])c([H])c(F)c([H])c5F)c([H])c4[H])c(C(=O)N([H])[H])c3N([H])[H])C2([H])[H])c([H])c1[H]

$$$$
16:0:0
     RDKit          3D

 94102  0  0  1  0  0  0  0  0999 V2000
  -30.0960  -21.2030   20.2350 C   0  0  0  0  0  0  0  0  0  0  0  0
  -30.5560  -22.3250   20.8140 N   0  0  0  0  0  0  0  0  0  0  0  0
  -29.0350  -21.1760   19.6090 O   0  0  0  0  0  0  0  0  0  0  0  0
  -31.4610  -22.2590   21.2600 H   0  0  0  0  0  0  0  0  0  0  0  0
  -32.3600  -20.0690   19.9860 C   0  0  0  0  0  1  0  0  0  0  0  0
  -30.9020  -19.8970   20.4500 C   0  0  0  0  0  3  0  0  0  0  0  0
  -30.6860  -18.2600   24.5360 C   0  0  0  0  0  3  0  0  0  0  0  0
  -30.3490  -19.5950   24.2920 C   0  0  0  0  0  3  0  0  0  0  0  0
  -31.0820  -17.4390   23.4680 C   0  0  0  0  0  3  0  0  0  0  0  0
  -30.4210  -20.1000   22.9840 C   0  0  0  0  0  3  0  0  0  0  0  0
  -31.1210  -17.9190   22.1350 C   0  0  0  0  0  0  0  0  0  0  0  0
  -30.8020  -19.2910   21.8760 C   0  0  0  0  0  0  0  0  0  0  0  0
  -31.5410  -16.9250   21.0380 C   0  0  0  0  0  2  0  0  0  0  0  0
  -30.7860  -15.5730   21.1000 C   0  0  0  0  0  2  0  0  0  0  0  0
  -31.3050  -14.4850   20.1460 C   0  0  0  0  0  0  0  0  0  0  0  0
  -30.8540  -12.3760   18.9320 C   0  0  0  0  0  2  0  0  0  0  0  0
  -29.8680  -12.6280   17.7740 C   0  0  0  0  0  2  0  0  0  0  0  0
  -28.4070  -12.5670   18.2660 C   0  0  0  0  0  2  0  0  0  0  0  0
  -28.1680  -13.4190   19.5410 C   0  0  0  0  0  3  0  0  0  0  0  0
  -29.2520  -13.1170   20.6010 C   0  0  0  0  0  2  0  0  0  0  0  0
  -30.5670  -13.3560   19.9860 N   0  0  0  0  0  0  0  0  0  0  0  0
  -32.3580  -14.6810   19.5280 O   0  0  0  0  0  0  0  0  0  0  0  0
  -25.8550  -14.1670   20.3950 C   0  0  0  0  0  0  0  0  0  0  0  0
  -24.7480  -13.4570   20.7780 C   0  0  0  0  0  0  0  0  0  0  0  0
  -25.1030  -12.0780   20.6560 C   0  0  0  0  0  0  0  0  0  0  0  0
  -26.8200  -13.2250   20.0710 N   0  0  0  0  0  0  0  0  0  0  0  0
  -26.3710  -11.9600   20.2820 N   0  0  0  0  0  0  0  0  0  0  0  0
  -24.2940  -10.8650   20.8180 C   0  0  0  0  0  0  0  0  0  0  0  0
  -24.7190   -9.7970   21.6380 C   0  0  0  0  0  3  0  0  0  0  0  0
  -23.9140   -8.6480   21.7940 C   0  0  0  0  0  3  0  0  0  0  0  0
  -22.6680   -8.5590   21.1280 C   0  0  0  0  0  0  0  0  0  0  0  0
  -22.2590   -9.6160   20.2950 C   0  0  0  0  0  3  0  0  0  0  0  0
  -23.0650  -10.7560   20.1370 C   0  0  0  0  0  3  0  0  0  0  0  0
  -21.8330   -7.4710   21.1980 O   0  0  0  0  0  0  0  0  0  0  0  0
  -21.8330   -6.6330   22.2840 C   0  0  0  0  0  0  0  0  0  0  0  0
  -21.6040   -7.1100   23.5930 C   0  0  0  0  0  3  0  0  0  0  0  0
  -21.5430   -6.2040   24.6720 C   0  0  0  0  0  3  0  0  0  0  0  0
  -21.7010   -4.8240   24.4440 C   0  0  0  0  0  0  0  0  0  0  0  0
  -21.9230   -4.3480   23.1390 C   0  0  0  0  0  3  0  0  0  0  0  0
  -21.9860   -5.2500   22.0630 C   0  0  0  0  0  0  0  0  0  0  0  0
  -22.1790   -4.7830   20.8060 F   0  0  0  0  0  0  0  0  0  0  0  0
  -21.6340   -3.9530   25.4780 F   0  0  0  0  0  0  0  0  0  0  0  0
  -23.4050  -14.0190   21.1410 C   0  0  0  0  0  0  0  0  0  0  0  0
  -22.6750  -13.3460   22.0240 N   0  0  0  0  0  0  0  0  0  0  0  0
  -23.0130  -15.0910   20.6800 O   0  0  0  0  0  0  0  0  0  0  0  0
  -23.0030  -12.4780   22.4210 H   0  0  0  0  0  0  0  0  0  0  0  0
  -21.7750  -13.7070   22.3090 H   0  0  0  0  0  0  0  0  0  0  0  0
  -26.1140  -15.5300   20.2790 N   0  0  0  0  0  0  0  0  0  0  0  0
  -25.4080  -16.2330   20.4690 H   0  0  0  0  0  0  0  0  0  0  0  0
  -26.9890  -15.9240   19.9550 H   0  0  0  0  0  0  0  0  0  0  0  0
  -29.6770  -23.4060   21.2560 C   0  0  0  0  0  2  0  0  0  0  0  0
  -29.7770  -24.7020   20.4310 C   0  0  0  0  0  2  0  0  0  0  0  0
  -28.4250  -25.4350   20.4370 C   0  0  0  0  0  2  0  0  0  0  0  0
  -28.5470  -26.8550   20.4130 O   0  0  0  0  0  0  0  0  0  0  0  0
  -24.5910  -31.9980   23.3270 C   0  0  0  0  0  0  0  0  0  0  0  0
  -27.3500  -27.5420   20.3770 C   0  0  0  0  0  0  0  0  0  0  0  0
  -23.4300  -30.5450   21.6980 C   0  0  0  0  0  3  0  0  0  0  0  0
  -24.9260  -28.9980   20.3340 C   0  0  0  0  0  0  0  0  0  0  0  0
  -25.9550  -30.9340   21.5330 C   0  0  0  0  0  2  0  0  0  0  0  0
  -26.0690  -29.5530   20.9250 C   0  0  0  0  0  0  0  0  0  0  0  0
  -27.2830  -28.8310   20.9450 C   0  0  0  0  0  3  0  0  0  0  0  0
  -26.1850  -26.9990   19.7820 C   0  0  0  0  0  3  0  0  0  0  0  0
  -24.9790  -27.7180   19.7620 C   0  0  0  0  0  3  0  0  0  0  0  0
  -23.6690  -29.8350   20.3400 C   0  0  0  0  0  2  0  0  0  0  0  0
  -24.6760  -31.1730   22.2450 N   0  0  0  0  0  0  0  0  0  0  0  0
  -23.4960  -32.2680   23.8410 O   0  0  0  0  0  0  0  0  0  0  0  0
  -22.7740  -29.5370   22.6690 C   0  0  0  0  0  0  0  0  0  0  0  0
  -21.4640  -29.2990   22.4870 N   0  0  0  0  0  0  0  0  0  0  0  0
  -23.4410  -28.9660   23.5360 O   0  0  0  0  0  0  0  0  0  0  0  0
  -20.9880  -29.8100   21.7560 H   0  0  0  0  0  0  0  0  0  0  0  0
  -18.1300  -27.9560   22.8310 C   0  0  0  0  0  0  0  0  0  0  0  0
  -20.6470  -28.3620   23.2550 C   0  0  0  0  0  3  0  0  0  0  0  0
  -20.8590  -26.9090   22.7700 C   0  0  0  0  0  2  0  0  0  0  0  0
  -19.8450  -26.4740   21.7070 C   0  0  0  0  0  2  0  0  0  0  0  0
  -18.4170  -26.5810   22.2500 C   0  0  0  0  0  2  0  0  0  0  0  0
  -19.1780  -28.7970   23.2880 C   0  0  0  0  0  0  0  0  0  0  0  0
  -18.8600  -30.0790   23.7860 C   0  0  0  0  0  3  0  0  0  0  0  0
  -17.5240  -30.5220   23.8360 C   0  0  0  0  0  3  0  0  0  0  0  0
  -16.4890  -29.6780   23.3970 C   0  0  0  0  0  3  0  0  0  0  0  0
  -16.7920  -28.3970   22.9010 C   0  0  0  0  0  3  0  0  0  0  0  0
  -25.8570  -32.6560   23.9550 C   0  0  0  0  0  3  0  0  0  0  0  0
  -25.5300  -34.0590   24.2440 N   0  0  0  0  0  0  0  0  0  0  0  0
  -25.8830  -35.0960   23.4730 C   0  0  0  0  0  0  0  0  0  0  0  0
  -26.5910  -34.9740   22.4700 O   0  0  0  0  0  0  0  0  0  0  0  0
  -24.9080  -34.2250   25.0200 H   0  0  0  0  0  0  0  0  0  0  0  0
  -24.1540  -36.8630   23.0140 C   0  0  0  0  0  1  0  0  0  0  0  0
  -25.3670  -36.4900   23.8800 C   0  0  0  0  0  3  0  0  0  0  0  0
  -27.4660  -37.4050   24.7640 C   0  0  0  0  0  1  0  0  0  0  0  0
  -26.3960  -37.5490   23.7810 N   0  0  0  0  0  0  0  0  0  0  0  0
  -25.9790  -38.4700   23.8980 H   0  0  0  0  0  0  0  0  0  0  0  0
  -26.3590  -31.9210   25.2570 C   0  0  1  0  0  0  0  0  0  0  0  0
  -25.2450  -31.6900   26.3050 C   0  0  0  0  0  1  0  0  0  0  0  0
  -26.9710  -30.5450   24.9030 C   0  0  0  0  0  1  0  0  0  0  0  0
  -27.4820  -32.7480   25.9250 C   0  0  0  0  0  1  0  0  0  0  0  0
  1  6  1  0
  1  2  1  0
  2 51  1  0
  2  4  1  0
  3  1  2  0
  6  5  1  0
  6 12  1  0
  8  7  1  0
  9  7  2  0
 10  8  2  0
 11  9  1  0
 12 11  2  0
 12 10  1  0
 13 14  1  0
 13 11  1  0
 15 14  1  0
 16 21  1  0
 17 18  1  0
 17 16  1  0
 19 18  1  0
 19 26  1  0
 19 20  1  0
 21 15  1  0
 21 20  1  0
 22 15  2  0
 23 24  2  0
 24 43  1  0
 25 24  1  0
 25 28  1  0
 26 27  1  0
 26 23  1  0
 27 25  2  0
 28 29  1  0
 29 30  2  0
 31 34  1  0
 31 30  1  0
 32 31  2  0
 33 32  1  0
 33 28  2  0
 34 35  1  0
 35 36  1  0
 36 37  2  0
 38 37  1  0
 38 42  1  0
 39 38  2  0
 40 35  2  0
 40 39  1  0
 41 40  1  0
 43 44  1  0
 44 47  1  0
 44 46  1  0
 45 43  2  0
 48 23  1  0
 48 49  1  0
 50 48  1  0
 52 53  1  0
 52 51  1  0
 54 53  1  0
 55 66  2  0
 56 54  1  0
 56 61  1  0
 57 65  1  0
 57 67  1  0
 58 64  1  0
 58 60  1  0
 59 65  1  0
 60 61  2  0
 60 59  1  0
 62 56  2  0
 63 62  1  0
 63 58  2  0
 64 57  1  0
 65 55  1  0
 67 69  2  0
 68 67  1  0
 70 68  1  0
 71 80  2  0
 71 76  1  0
 72 68  1  0
 72 76  1  0
 73 72  1  0
 74 75  1  0
 74 73  1  0
 75 71  1  0
 76 77  2  0
 77 78  1  0
 79 78  2  0
 80 79  1  0
 81 55  1  0
 81 82  1  0
 81 91  1  0
 82 85  1  0
 83 87  1  0
 83 82  1  0
 84 83  2  0
 87 86  1  0
 89 87  1  0
 89 90  1  0
 89 88  1  0
 91 94  1  1
 91 92  1  0
 93 91  1  0
M  ISO  4  14 100  15 100  53 101  54 101
M  END
>  <TORSDO>  (17) 
F 23

>  <SCORE>  (17) 
-10.066

>  <name>  (17) 
16

>  <ligand_id>  (17) 
16

>  <original_smiles>  (17) 
[H]c1c([H])c([H])c(C([H])(C(=O)N([H])C([H])([H])C([H])([H])C([H])([H])Oc2c([H])c([H])c3c(c2[H])C([H])([H])N(C(=O)C([H])(N([H])C(=O)C([H])(N([H])C([H])([H])[H])C([H])([H])[H])C(C([H])([H])[H])(C([H])([H])[H])C([H])([H])[H])C([H])(C(=O)N([H])C2([H])c4c([H])c([H])c([H])c([H])c4C([H])([H])C([H])([H])C2([H])[H])C3([H])[H])C([H])([H])[H])c(C([H])([H])C([H])([H])C(=O)N2C([H])([H])C([H])([H])C([H])([H])C([H])(n3nc(-c4c([H])c([H])c(Oc5c([H])c([H])c(F)c([H])c5F)c([H])c4[H])c(C(=O)N([H])[H])c3N([H])[H])C2([H])[H])c1[H]

>  <smiles>  (17) 
[H]c1c([H])c([H])c(C([H])(C(=O)N([H])C([H])([H])C([H])([H])C([H])([H])Oc2c([H])c([H])c3c(c2[H])C([H])([H])N(C(=O)C([H])(N([H])C(=O)C([H])(N([H])C([H])([H])[H])C([H])([H])[H])C(C([H])([H])[H])(C([H])([H])[H])C([H])([H])[H])C([H])(C(=O)N([H])C2([H])c4c([H])c([H])c([H])c([H])c4C([H])([H])C([H])([H])C2([H])[H])C3([H])[H])C([H])([H])[H])c(C([H])([H])C([H])([H])C(=O)N2C([H])([H])C([H])([H])C([H])([H])C([H])(n3nc(-c4c([H])c([H])c(Oc5c([H])c([H])c(F)c([H])c5F)c([H])c4[H])c(C(=O)N([H])[H])c3N([H])[H])C2([H])[H])c1[H]

$$$$
17:0:0
     RDKit          3D

 91 99  0  0  1  0  0  0  0  0999 V2000
  -29.2080  -20.9110   22.3680 C   0  0  0  0  0  3  0  0  0  0  0  0
  -30.0400  -19.7810   22.2440 C   0  0  0  0  0  3  0  0  0  0  0  0
  -29.4780  -22.0730   21.6200 C   0  0  0  0  0  3  0  0  0  0  0  0
  -31.3890  -20.9600   20.5880 C   0  0  0  0  0  3  0  0  0  0  0  0
  -31.1320  -19.7950   21.3510 C   0  0  0  0  0  0  0  0  0  0  0  0
  -30.5710  -22.1090   20.7240 C   0  0  0  0  0  0  0  0  0  0  0  0
  -32.0510  -18.6270   21.3240 C   0  0  0  0  0  0  0  0  0  0  0  0
  -32.8100  -18.3600   22.2610 O   0  0  0  0  0  0  0  0  0  0  0  0
  -31.9770  -17.6830   20.1220 C   0  0  0  0  0  2  0  0  0  0  0  0
  -31.4020  -16.2970   20.5200 C   0  0  0  0  0  2  0  0  0  0  0  0
  -32.0160  -15.0900   19.7880 C   0  0  0  0  0  0  0  0  0  0  0  0
  -31.6710  -12.8240   18.8510 C   0  0  0  0  0  2  0  0  0  0  0  0
  -30.6870  -12.8900   17.6650 C   0  0  0  0  0  2  0  0  0  0  0  0
  -29.2260  -12.8230   18.1550 C   0  0  0  0  0  2  0  0  0  0  0  0
  -28.9370  -13.8120   19.3160 C   0  0  0  0  0  3  0  0  0  0  0  0
  -30.0220  -13.6930   20.4100 C   0  0  0  0  0  2  0  0  0  0  0  0
  -31.3330  -13.9150   19.7760 N   0  0  0  0  0  0  0  0  0  0  0  0
  -33.0810  -15.2380   19.1820 O   0  0  0  0  0  0  0  0  0  0  0  0
  -26.6190  -14.5660   20.1480 C   0  0  0  0  0  0  0  0  0  0  0  0
  -25.5220  -13.8600   20.5610 C   0  0  0  0  0  0  0  0  0  0  0  0
  -25.8920  -12.4810   20.4920 C   0  0  0  0  0  0  0  0  0  0  0  0
  -27.5920  -13.6220   19.8570 N   0  0  0  0  0  0  0  0  0  0  0  0
  -27.1580  -12.3630   20.1180 N   0  0  0  0  0  0  0  0  0  0  0  0
  -25.0950  -11.2660   20.7050 C   0  0  0  0  0  0  0  0  0  0  0  0
  -25.4050  -10.3510   21.7360 C   0  0  0  0  0  3  0  0  0  0  0  0
  -24.6140   -9.2000   21.9330 C   0  0  0  0  0  3  0  0  0  0  0  0
  -23.5000   -8.9530   21.0970 C   0  0  0  0  0  0  0  0  0  0  0  0
  -23.2080   -9.8540   20.0580 C   0  0  0  0  0  3  0  0  0  0  0  0
  -23.9980  -10.9980   19.8600 C   0  0  0  0  0  3  0  0  0  0  0  0
  -22.6920   -7.8450   21.1950 O   0  0  0  0  0  0  0  0  0  0  0  0
  -22.3550   -7.3070   22.4110 C   0  0  0  0  0  0  0  0  0  0  0  0
  -21.6670   -8.0530   23.3920 C   0  0  0  0  0  3  0  0  0  0  0  0
  -21.2790   -7.4400   24.6000 C   0  0  0  0  0  3  0  0  0  0  0  0
  -21.5700   -6.0820   24.8270 C   0  0  0  0  0  0  0  0  0  0  0  0
  -22.2520   -5.3360   23.8490 C   0  0  0  0  0  3  0  0  0  0  0  0
  -22.6400   -5.9460   22.6430 C   0  0  0  0  0  0  0  0  0  0  0  0
  -23.2780   -5.2170   21.6960 F   0  0  0  0  0  0  0  0  0  0  0  0
  -21.1930   -5.4900   25.9830 F   0  0  0  0  0  0  0  0  0  0  0  0
  -24.1750  -14.4220   20.9110 C   0  0  0  0  0  0  0  0  0  0  0  0
  -23.4590  -13.7740   21.8230 N   0  0  0  0  0  0  0  0  0  0  0  0
  -23.7690  -15.4700   20.4100 O   0  0  0  0  0  0  0  0  0  0  0  0
  -23.8020  -12.9260   22.2490 H   0  0  0  0  0  0  0  0  0  0  0  0
  -22.5560  -14.1330   22.1000 H   0  0  0  0  0  0  0  0  0  0  0  0
  -26.8640  -15.9260   19.9780 N   0  0  0  0  0  0  0  0  0  0  0  0
  -26.1500  -16.6280   20.1350 H   0  0  0  0  0  0  0  0  0  0  0  0
  -27.7270  -16.3120   19.6170 H   0  0  0  0  0  0  0  0  0  0  0  0
  -30.9170  -23.3800   19.9460 C   0  0  0  0  0  2  0  0  0  0  0  0
  -29.7130  -24.2690   19.5630 C   0  0  0  0  0  2  0  0  0  0  0  0
  -30.0790  -25.4150   18.5980 C   0  0  0  0  0  2  0  0  0  0  0  0
  -28.8750  -26.2970   18.2210 C   0  0  0  0  0  2  0  0  0  0  0  0
  -28.6040  -27.2410   19.2640 O   0  0  0  0  0  0  0  0  0  0  0  0
  -24.5030  -31.5810   23.1180 C   0  0  0  0  0  0  0  0  0  0  0  0
  -27.3530  -27.8160   19.3730 C   0  0  0  0  0  0  0  0  0  0  0  0
  -23.3310  -30.2640   21.3860 C   0  0  0  0  0  3  0  0  0  0  0  0
  -24.8270  -29.0600   19.7080 C   0  0  0  0  0  0  0  0  0  0  0  0
  -25.7960  -30.8940   21.0990 C   0  0  0  0  0  2  0  0  0  0  0  0
  -25.9660  -29.6190   20.3000 C   0  0  0  0  0  0  0  0  0  0  0  0
  -27.2250  -28.9970   20.1420 C   0  0  0  0  0  3  0  0  0  0  0  0
  -26.1860  -27.2690   18.7860 C   0  0  0  0  0  3  0  0  0  0  0  0
  -24.9330  -27.8810   18.9540 C   0  0  0  0  0  3  0  0  0  0  0  0
  -23.5130  -29.7740   19.9240 C   0  0  0  0  0  2  0  0  0  0  0  0
  -24.5650  -30.9220   21.9260 N   0  0  0  0  0  0  0  0  0  0  0  0
  -23.4370  -31.6800   23.7410 O   0  0  0  0  0  0  0  0  0  0  0  0
  -22.8430  -29.0770   22.2460 C   0  0  0  0  0  0  0  0  0  0  0  0
  -21.5560  -28.7250   22.1030 N   0  0  0  0  0  0  0  0  0  0  0  0
  -23.6190  -28.4790   22.9960 O   0  0  0  0  0  0  0  0  0  0  0  0
  -20.9830  -29.2720   21.4740 H   0  0  0  0  0  0  0  0  0  0  0  0
  -18.4020  -26.9930   22.4370 C   0  0  0  0  0  0  0  0  0  0  0  0
  -20.8870  -27.6150   22.7820 C   0  0  0  0  0  3  0  0  0  0  0  0
  -21.2150  -26.2660   22.1010 C   0  0  0  0  0  2  0  0  0  0  0  0
  -20.1850  -25.8600   21.0420 C   0  0  0  0  0  2  0  0  0  0  0  0
  -18.7910  -25.7430   21.6650 C   0  0  0  0  0  2  0  0  0  0  0  0
  -19.3870  -27.8790   22.9470 C   0  0  0  0  0  0  0  0  0  0  0  0
  -18.9730  -29.0470   23.6240 C   0  0  0  0  0  3  0  0  0  0  0  0
  -17.6050  -29.3310   23.7990 C   0  0  0  0  0  3  0  0  0  0  0  0
  -16.6350  -28.4420   23.3060 C   0  0  0  0  0  3  0  0  0  0  0  0
  -17.0340  -27.2740   22.6300 C   0  0  0  0  0  3  0  0  0  0  0  0
  -25.7610  -32.2620   23.7420 C   0  0  0  0  0  3  0  0  0  0  0  0
  -25.3840  -33.6330   24.1090 N   0  0  0  0  0  0  0  0  0  0  0  0
  -25.6690  -34.7200   23.3790 C   0  0  0  0  0  0  0  0  0  0  0  0
  -26.3490  -34.6760   22.3500 O   0  0  0  0  0  0  0  0  0  0  0  0
  -24.7770  -33.7370   24.9080 H   0  0  0  0  0  0  0  0  0  0  0  0
  -23.8630  -36.4390   23.0500 C   0  0  0  0  0  1  0  0  0  0  0  0
  -25.1120  -36.0710   23.8670 C   0  0  0  0  0  3  0  0  0  0  0  0
  -27.1890  -37.0340   24.7560 C   0  0  0  0  0  1  0  0  0  0  0  0
  -26.0970  -37.1730   23.7950 N   0  0  0  0  0  0  0  0  0  0  0  0
  -25.6470  -38.0700   23.9510 H   0  0  0  0  0  0  0  0  0  0  0  0
  -26.3300  -31.4840   24.9910 C   0  0  1  0  0  0  0  0  0  0  0  0
  -25.2610  -31.1540   26.0580 C   0  0  0  0  0  1  0  0  0  0  0  0
  -26.9890  -30.1550   24.5540 C   0  0  0  0  0  1  0  0  0  0  0  0
  -27.4400  -32.3240   25.6660 C   0  0  0  0  0  1  0  0  0  0  0  0
  2  1  1  0
  3  1  2  0
  4  6  2  0
  4  5  1  0
  5  2  2  0
  6  3  1  0
  7  5  1  0
  7  8  2  0
  9 10  1  0
  9  7  1  0
 11 10  1  0
 12 17  1  0
 13 14  1  0
 13 12  1  0
 15 14  1  0
 15 22  1  0
 15 16  1  0
 17 11  1  0
 17 16  1  0
 18 11  2  0
 19 20  2  0
 20 39  1  0
 21 20  1  0
 21 24  1  0
 22 23  1  0
 22 19  1  0
 23 21  2  0
 24 25  1  0
 25 26  2  0
 27 30  1  0
 27 26  1  0
 28 27  2  0
 29 28  1  0
 29 24  2  0
 30 31  1  0
 31 36  2  0
 31 32  1  0
 32 33  2  0
 33 34  1  0
 34 38  1  0
 35 34  2  0
 36 35  1  0
 37 36  1  0
 39 40  1  0
 40 43  1  0
 40 42  1  0
 41 39  2  0
 44 45  1  0
 44 19  1  0
 46 44  1  0
 47  6  1  0
 48 47  1  0
 49 48  1  0
 50 49  1  0
 50 51  1  0
 51 53  1  0
 52 63  2  0
 53 58  1  0
 54 62  1  0
 54 64  1  0
 55 61  1  0
 55 57  1  0
 56 62  1  0
 57 56  1  0
 58 57  2  0
 59 60  1  0
 59 53  2  0
 60 55  2  0
 61 54  1  0
 62 52  1  0
 64 66  2  0
 65 64  1  0
 67 65  1  0
 68 77  2  0
 68 73  1  0
 69 65  1  0
 69 73  1  0
 70 69  1  0
 71 72  1  0
 71 70  1  0
 72 68  1  0
 73 74  2  0
 74 75  1  0
 76 75  2  0
 77 76  1  0
 78 52  1  0
 78 79  1  0
 78 88  1  0
 79 82  1  0
 80 84  1  0
 80 79  1  0
 81 80  2  0
 84 83  1  0
 86 84  1  0
 86 87  1  0
 86 85  1  0
 88 91  1  1
 88 89  1  0
 90 88  1  0
M  ISO  4  10 100  11 100  50 101  51 101
M  END
>  <TORSDO>  (18) 
F 23

>  <SCORE>  (18) 
-8.405

>  <name>  (18) 
17

>  <ligand_id>  (18) 
17

>  <original_smiles>  (18) 
[H]c1c([H])c(C(=O)C([H])([H])C([H])([H])C(=O)N2C([H])([H])C([H])([H])C([H])([H])C([H])(n3nc(-c4c([H])c([H])c(Oc5c([H])c([H])c(F)c([H])c5F)c([H])c4[H])c(C(=O)N([H])[H])c3N([H])[H])C2([H])[H])c([H])c(C([H])([H])C([H])([H])C([H])([H])C([H])([H])Oc2c([H])c([H])c3c(c2[H])C([H])([H])N(C(=O)C([H])(N([H])C(=O)C([H])(N([H])C([H])([H])[H])C([H])([H])[H])C(C([H])([H])[H])(C([H])([H])[H])C([H])([H])[H])C([H])(C(=O)N([H])C2([H])c4c([H])c([H])c([H])c([H])c4C([H])([H])C([H])([H])C2([H])[H])C3([H])[H])c1[H]

>  <smiles>  (18) 
[H]c1c([H])c(C(=O)C([H])([H])C([H])([H])C(=O)N2C([H])([H])C([H])([H])C([H])([H])C([H])(n3nc(-c4c([H])c([H])c(Oc5c([H])c([H])c(F)c([H])c5F)c([H])c4[H])c(C(=O)N([H])[H])c3N([H])[H])C2([H])[H])c([H])c(C([H])([H])C([H])([H])C([H])([H])C([H])([H])Oc2c([H])c([H])c3c(c2[H])C([H])([H])N(C(=O)C([H])(N([H])C(=O)C([H])(N([H])C([H])([H])[H])C([H])([H])[H])C(C([H])([H])[H])(C([H])([H])[H])C([H])([H])[H])C([H])(C(=O)N([H])C2([H])c4c([H])c([H])c([H])c([H])c4C([H])([H])C([H])([H])C2([H])[H])C3([H])[H])c1[H]

$$$$
18:0:0
     RDKit          3D

 96105  0  0  1  0  0  0  0  0999 V2000
  -29.0880  -21.3170   20.7930 C   0  0  0  0  0  3  0  0  0  0  0  0
  -30.8420  -21.4810   22.4660 C   0  0  0  0  0  3  0  0  0  0  0  0
  -28.9040  -22.7230   20.8500 C   0  0  0  0  0  3  0  0  0  0  0  0
  -30.6660  -22.8790   22.5110 C   0  0  0  0  0  3  0  0  0  0  0  0
  -30.0730  -20.6810   21.5930 C   0  0  0  0  0  0  0  0  0  0  0  0
  -29.6950  -23.5180   21.7090 C   0  0  0  0  0  0  0  0  0  0  0  0
  -29.3920  -25.5990   23.2340 C   0  0  0  0  0  2  0  0  0  0  0  0
  -28.6010  -26.7610   22.6550 C   0  0  0  0  0  2  0  0  0  0  0  0
  -29.5470  -25.0430   21.8030 C   0  0  0  0  0  3  0  0  0  0  0  0
  -28.2770  -25.8750   21.4420 C   0  0  0  0  0  3  0  0  0  0  0  0
  -28.2490  -26.6600   20.2340 O   0  0  0  0  0  0  0  0  0  0  0  0
  -24.4970  -31.8950   23.2370 C   0  0  0  0  0  0  0  0  0  0  0  0
  -27.1190  -27.4490   20.1670 C   0  0  0  0  0  0  0  0  0  0  0  0
  -23.2750  -30.4900   21.6040 C   0  0  0  0  0  3  0  0  0  0  0  0
  -24.7180  -28.9470   20.1670 C   0  0  0  0  0  0  0  0  0  0  0  0
  -25.7980  -30.8500   21.3860 C   0  0  0  0  0  2  0  0  0  0  0  0
  -25.8780  -29.4820   20.7480 C   0  0  0  0  0  0  0  0  0  0  0  0
  -27.0780  -28.7390   20.7420 C   0  0  0  0  0  3  0  0  0  0  0  0
  -25.9530  -26.9330   19.5680 C   0  0  0  0  0  3  0  0  0  0  0  0
  -24.7540  -27.6740   19.5690 C   0  0  0  0  0  3  0  0  0  0  0  0
  -23.4690  -29.7980   20.2270 C   0  0  0  0  0  2  0  0  0  0  0  0
  -24.5400  -31.0990   22.1310 N   0  0  0  0  0  0  0  0  0  0  0  0
  -23.4200  -32.1680   23.7870 O   0  0  0  0  0  0  0  0  0  0  0  0
  -22.6280  -29.4780   22.5760 C   0  0  0  0  0  0  0  0  0  0  0  0
  -21.3010  -29.2940   22.4490 N   0  0  0  0  0  0  0  0  0  0  0  0
  -23.3120  -28.8600   23.3950 O   0  0  0  0  0  0  0  0  0  0  0  0
  -20.8110  -29.8440   21.7580 H   0  0  0  0  0  0  0  0  0  0  0  0
  -17.9330  -28.0890   22.9370 C   0  0  0  0  0  0  0  0  0  0  0  0
  -20.4870  -28.3580   23.2230 C   0  0  0  0  0  3  0  0  0  0  0  0
  -20.6000  -26.9230   22.6600 C   0  0  0  0  0  2  0  0  0  0  0  0
  -19.5040  -26.5860   21.6450 C   0  0  0  0  0  2  0  0  0  0  0  0
  -18.1180  -26.7340   22.2770 C   0  0  0  0  0  2  0  0  0  0  0  0
  -19.0460  -28.8590   23.3680 C   0  0  0  0  0  0  0  0  0  0  0  0
  -18.8210  -30.1280   23.9440 C   0  0  0  0  0  3  0  0  0  0  0  0
  -17.5140  -30.6270   24.1010 C   0  0  0  0  0  3  0  0  0  0  0  0
  -16.4130  -29.8520   23.6920 C   0  0  0  0  0  3  0  0  0  0  0  0
  -16.6240  -28.5860   23.1160 C   0  0  0  0  0  3  0  0  0  0  0  0
  -25.7890  -32.5230   23.8510 C   0  0  0  0  0  3  0  0  0  0  0  0
  -25.4940  -33.9280   24.1660 N   0  0  0  0  0  0  0  0  0  0  0  0
  -25.8530  -34.9690   23.4050 C   0  0  0  0  0  0  0  0  0  0  0  0
  -26.5420  -34.8480   22.3860 O   0  0  0  0  0  0  0  0  0  0  0  0
  -24.8950  -34.0990   24.9590 H   0  0  0  0  0  0  0  0  0  0  0  0
  -24.1670  -36.7910   22.9930 C   0  0  0  0  0  1  0  0  0  0  0  0
  -25.3740  -36.3660   23.8440 C   0  0  0  0  0  3  0  0  0  0  0  0
  -27.4930  -37.2170   24.7480 C   0  0  0  0  0  1  0  0  0  0  0  0
  -26.4270  -37.4030   23.7670 N   0  0  0  0  0  0  0  0  0  0  0  0
  -26.0310  -38.3310   23.8990 H   0  0  0  0  0  0  0  0  0  0  0  0
  -26.3070  -31.7590   25.1330 C   0  0  1  0  0  0  0  0  0  0  0  0
  -25.2160  -31.5380   26.2050 C   0  0  0  0  0  1  0  0  0  0  0  0
  -26.8850  -30.3760   24.7500 C   0  0  0  0  0  1  0  0  0  0  0  0
  -27.4640  -32.5560   25.7830 C   0  0  0  0  0  1  0  0  0  0  0  0
  -30.2950  -19.1950   21.5960 C   0  0  0  0  0  0  0  0  0  0  0  0
  -30.9170  -18.6230   22.4970 O   0  0  0  0  0  0  0  0  0  0  0  0
  -29.7730  -18.3620   20.4110 C   0  0  0  0  0  2  0  0  0  0  0  0
  -30.6530  -17.1230   20.0450 C   0  0  0  0  0  3  0  0  0  0  0  0
  -31.8860  -18.0040   18.0340 C   0  0  0  0  0  1  0  0  0  0  0  0
  -30.8940  -17.0510   18.5730 N   0  0  0  0  0  4  0  0  0  0  0  0
  -31.2960  -16.1330   18.4120 H   0  0  0  0  0  0  0  0  0  0  0  0
  -30.0340  -17.1080   18.0480 H   0  0  0  0  0  0  0  0  0  0  0  0
  -30.0970  -15.7760   20.6340 C   0  0  0  0  0  2  0  0  0  0  0  0
  -30.7700  -14.4930   20.0840 C   0  0  0  0  0  0  0  0  0  0  0  0
  -30.3460  -12.3760   18.9050 C   0  0  0  0  0  2  0  0  0  0  0  0
  -29.3470  -12.6630   17.7650 C   0  0  0  0  0  2  0  0  0  0  0  0
  -27.9000  -12.5150   18.2770 C   0  0  0  0  0  2  0  0  0  0  0  0
  -27.6490  -13.3200   19.5800 C   0  0  0  0  0  3  0  0  0  0  0  0
  -28.7680  -13.0750   20.6200 C   0  0  0  0  0  2  0  0  0  0  0  0
  -30.0670  -13.3360   19.9810 N   0  0  0  0  0  0  0  0  0  0  0  0
  -31.8810  -14.6220   19.5630 O   0  0  0  0  0  0  0  0  0  0  0  0
  -25.3090  -13.9330   20.4490 C   0  0  0  0  0  0  0  0  0  0  0  0
  -24.2570  -13.1620   20.8640 C   0  0  0  0  0  0  0  0  0  0  0  0
  -24.7010  -11.8070   20.7740 C   0  0  0  0  0  0  0  0  0  0  0  0
  -26.3270  -13.0470   20.1360 N   0  0  0  0  0  0  0  0  0  0  0  0
  -25.9690  -11.7620   20.3870 N   0  0  0  0  0  0  0  0  0  0  0  0
  -23.9750  -10.5480   20.9780 C   0  0  0  0  0  0  0  0  0  0  0  0
  -24.4380   -9.5690   21.8860 C   0  0  0  0  0  3  0  0  0  0  0  0
  -23.7160   -8.3730   22.0780 C   0  0  0  0  0  3  0  0  0  0  0  0
  -22.5150   -8.1450   21.3640 C   0  0  0  0  0  0  0  0  0  0  0  0
  -22.0700   -9.1130   20.4450 C   0  0  0  0  0  3  0  0  0  0  0  0
  -22.7920  -10.3010   20.2510 C   0  0  0  0  0  3  0  0  0  0  0  0
  -21.7600   -7.0030   21.4670 O   0  0  0  0  0  0  0  0  0  0  0  0
  -21.7320   -6.2630   22.6200 C   0  0  0  0  0  0  0  0  0  0  0  0
  -21.3070   -6.8120   23.8500 C   0  0  0  0  0  3  0  0  0  0  0  0
  -21.2290   -5.9960   24.9960 C   0  0  0  0  0  3  0  0  0  0  0  0
  -21.5660   -4.6310   24.9140 C   0  0  0  0  0  0  0  0  0  0  0  0
  -21.9850   -4.0810   23.6900 C   0  0  0  0  0  3  0  0  0  0  0  0
  -22.0650   -4.8940   22.5460 C   0  0  0  0  0  0  0  0  0  0  0  0
  -22.4510   -4.3560   21.3650 F   0  0  0  0  0  0  0  0  0  0  0  0
  -21.4830   -3.8450   26.0130 F   0  0  0  0  0  0  0  0  0  0  0  0
  -22.8830  -13.6440   21.2320 C   0  0  0  0  0  0  0  0  0  0  0  0
  -22.2020  -12.9310   22.1200 N   0  0  0  0  0  0  0  0  0  0  0  0
  -22.4250  -14.6880   20.7650 O   0  0  0  0  0  0  0  0  0  0  0  0
  -22.5880  -12.0860   22.5190 H   0  0  0  0  0  0  0  0  0  0  0  0
  -21.2820  -13.2310   22.4100 H   0  0  0  0  0  0  0  0  0  0  0  0
  -25.4790  -15.3050   20.2950 N   0  0  0  0  0  0  0  0  0  0  0  0
  -24.7290  -15.9650   20.4650 H   0  0  0  0  0  0  0  0  0  0  0  0
  -26.3100  -15.7380   19.9130 H   0  0  0  0  0  0  0  0  0  0  0  0
  1  3  2  0
  1  5  1  0
  2  4  1  0
  3  6  1  0
  5 52  1  0
  5  2  2  0
  6  4  2  0
  8  7  1  0
  9  6  1  0
  9  7  1  0
 10 11  1  0
 10  9  1  0
 10  8  1  0
 12 23  2  0
 13 11  1  0
 13 18  1  0
 14 22  1  0
 14 24  1  0
 15 21  1  0
 15 17  1  0
 16 22  1  0
 17 16  1  0
 18 17  2  0
 19 20  1  0
 19 13  2  0
 20 15  2  0
 21 14  1  0
 22 12  1  0
 24 26  2  0
 25 24  1  0
 27 25  1  0
 28 37  2  0
 28 33  1  0
 29 25  1  0
 29 33  1  0
 30 29  1  0
 31 32  1  0
 31 30  1  0
 32 28  1  0
 33 34  2  0
 34 35  1  0
 36 35  2  0
 37 36  1  0
 38 12  1  0
 38 39  1  0
 38 48  1  0
 39 42  1  0
 40 44  1  0
 40 39  1  0
 41 40  2  0
 44 43  1  0
 46 44  1  0
 46 47  1  0
 46 45  1  0
 48 51  1  1
 48 49  1  0
 50 48  1  0
 52 53  2  0
 54 52  1  0
 55 54  1  0
 55 60  1  0
 56 57  1  0
 57 55  1  0
 58 57  1  0
 59 57  1  0
 61 60  1  0
 62 67  1  0
 63 64  1  0
 63 62  1  0
 65 64  1  0
 65 72  1  0
 65 66  1  0
 67 61  1  0
 67 66  1  0
 68 61  2  0
 69 70  2  0
 70 89  1  0
 71 70  1  0
 71 74  1  0
 72 73  1  0
 72 69  1  0
 73 71  2  0
 74 75  1  0
 75 76  2  0
 77 80  1  0
 77 76  1  0
 78 77  2  0
 79 78  1  0
 79 74  2  0
 80 81  1  0
 81 82  1  0
 82 83  2  0
 84 83  1  0
 84 88  1  0
 85 84  2  0
 86 81  2  0
 86 85  1  0
 87 86  1  0
 89 90  1  0
 90 93  1  0
 90 92  1  0
 91 89  2  0
 94 69  1  0
 94 95  1  0
 96 94  1  0
M  ISO  4  10 101  11 101  60 100  61 100
M  END
>  <TORSDO>  (19) 
F 22

>  <SCORE>  (19) 
-13.192

>  <name>  (19) 
18

>  <ligand_id>  (19) 
18

>  <original_smiles>  (19) 
[H]c1c([H])c([H])c2c(c1[H])C([H])([H])C([H])([H])C([H])([H])C2([H])N([H])C(=O)C1([H])N(C(=O)C([H])(N([H])C(=O)C([H])(N([H])C([H])([H])[H])C([H])([H])[H])C(C([H])([H])[H])(C([H])([H])[H])C([H])([H])[H])C([H])([H])c2c([H])c(OC3([H])C([H])([H])C([H])([H])C3([H])c3c([H])c([H])c(C(=O)C([H])([H])C([H])(C([H])([H])C(=O)N4C([H])([H])C([H])([H])C([H])([H])C([H])(n5nc(-c6c([H])c([H])c(Oc7c([H])c([H])c(F)c([H])c7F)c([H])c6[H])c(C(=O)N([H])[H])c5N([H])[H])C4([H])[H])[N+]([H])([H])C([H])([H])[H])c([H])c3[H])c([H])c([H])c2C1([H])[H]

>  <smiles>  (19) 
[H]c1c([H])c([H])c2c(c1[H])C([H])([H])C([H])([H])C([H])([H])C2([H])N([H])C(=O)C1([H])N(C(=O)C([H])(N([H])C(=O)C([H])(N([H])C([H])([H])[H])C([H])([H])[H])C(C([H])([H])[H])(C([H])([H])[H])C([H])([H])[H])C([H])([H])c2c([H])c(OC3([H])C([H])([H])C([H])([H])C3([H])c3c([H])c([H])c(C(=O)C([H])([H])C([H])(C([H])([H])C(=O)N4C([H])([H])C([H])([H])C([H])([H])C([H])(n5nc(-c6c([H])c([H])c(Oc7c([H])c([H])c(F)c([H])c7F)c([H])c6[H])c(C(=O)N([H])[H])c5N([H])[H])C4([H])[H])[N+]([H])([H])C([H])([H])[H])c([H])c3[H])c([H])c([H])c2C1([H])[H]

$$$$
19:0:0
     RDKit          3D

 90 98  0  0  1  0  0  0  0  0999 V2000
  -30.3510  -20.4460   20.3900 C   0  0  0  0  0  3  0  0  0  0  0  0
  -27.9540  -20.5550   20.1730 C   0  0  0  0  0  3  0  0  0  0  0  0
  -30.3980  -21.8690   20.3970 C   0  0  0  0  0  3  0  0  0  0  0  0
  -28.0020  -21.9780   20.1760 C   0  0  0  0  0  3  0  0  0  0  0  0
  -29.1220  -19.7480   20.2840 C   0  0  0  0  0  0  0  0  0  0  0  0
  -29.2310  -22.6760   20.2870 C   0  0  0  0  0  0  0  0  0  0  0  0
  -29.0030  -18.2200   20.2560 C   0  0  0  0  0  0  0  0  0  0  0  0
  -27.9220  -17.6810   19.9920 O   0  0  0  0  0  0  0  0  0  0  0  0
  -30.2220  -17.2820   20.5450 C   0  0  0  0  0  2  0  0  0  0  0  0
  -29.8920  -15.8420   21.1330 C   0  0  0  0  0  2  0  0  0  0  0  0
  -30.6280  -14.5990   20.5140 C   0  0  0  0  0  0  0  0  0  0  0  0
  -30.3940  -12.4060   19.3680 C   0  0  0  0  0  2  0  0  0  0  0  0
  -29.4660  -12.6010   18.1490 C   0  0  0  0  0  2  0  0  0  0  0  0
  -27.9850  -12.4560   18.5520 C   0  0  0  0  0  2  0  0  0  0  0  0
  -27.6310  -13.2860   19.8160 C   0  0  0  0  0  3  0  0  0  0  0  0
  -28.6730  -13.0630   20.9360 C   0  0  0  0  0  2  0  0  0  0  0  0
  -29.9950  -13.3940   20.3870 N   0  0  0  0  0  0  0  0  0  0  0  0
  -31.7680  -14.7650   20.0660 O   0  0  0  0  0  0  0  0  0  0  0  0
  -25.2250  -13.9080   20.4720 C   0  0  0  0  0  0  0  0  0  0  0  0
  -24.1470  -13.1440   20.8280 C   0  0  0  0  0  0  0  0  0  0  0  0
  -24.6040  -11.7890   20.8250 C   0  0  0  0  0  0  0  0  0  0  0  0
  -26.2710  -13.0200   20.2740 N   0  0  0  0  0  0  0  0  0  0  0  0
  -25.8990  -11.7420   20.5440 N   0  0  0  0  0  0  0  0  0  0  0  0
  -23.8660  -10.5340   21.0190 C   0  0  0  0  0  0  0  0  0  0  0  0
  -24.2850   -9.5690   21.9630 C   0  0  0  0  0  3  0  0  0  0  0  0
  -23.5500   -8.3770   22.1450 C   0  0  0  0  0  3  0  0  0  0  0  0
  -22.3820   -8.1410   21.3810 C   0  0  0  0  0  0  0  0  0  0  0  0
  -21.9840   -9.0930   20.4260 C   0  0  0  0  0  3  0  0  0  0  0  0
  -22.7190  -10.2760   20.2430 C   0  0  0  0  0  3  0  0  0  0  0  0
  -21.6200   -7.0000   21.4710 O   0  0  0  0  0  0  0  0  0  0  0  0
  -21.5640   -6.2620   22.6250 C   0  0  0  0  0  0  0  0  0  0  0  0
  -21.1470   -6.8240   23.8500 C   0  0  0  0  0  3  0  0  0  0  0  0
  -21.0370   -6.0130   24.9970 C   0  0  0  0  0  3  0  0  0  0  0  0
  -21.3340   -4.6400   24.9190 C   0  0  0  0  0  0  0  0  0  0  0  0
  -21.7470   -4.0760   23.6990 C   0  0  0  0  0  3  0  0  0  0  0  0
  -21.8570   -4.8850   22.5540 C   0  0  0  0  0  0  0  0  0  0  0  0
  -22.2340   -4.3320   21.3760 F   0  0  0  0  0  0  0  0  0  0  0  0
  -21.2210   -3.8580   26.0180 F   0  0  0  0  0  0  0  0  0  0  0  0
  -22.7460  -13.6290   21.0680 C   0  0  0  0  0  0  0  0  0  0  0  0
  -22.0020  -12.9470   21.9320 N   0  0  0  0  0  0  0  0  0  0  0  0
  -22.3200  -14.6480   20.5250 O   0  0  0  0  0  0  0  0  0  0  0  0
  -22.3620  -12.1250   22.3920 H   0  0  0  0  0  0  0  0  0  0  0  0
  -21.0610  -13.2530   22.1360 H   0  0  0  0  0  0  0  0  0  0  0  0
  -25.3970  -15.2760   20.2800 N   0  0  0  0  0  0  0  0  0  0  0  0
  -24.6350  -15.9370   20.3800 H   0  0  0  0  0  0  0  0  0  0  0  0
  -26.2570  -15.7200   19.9770 H   0  0  0  0  0  0  0  0  0  0  0  0
  -29.3450  -24.2050   20.3260 C   0  0  0  0  0  0  0  0  0  0  0  0
  -30.4080  -24.7600   20.6280 O   0  0  0  0  0  0  0  0  0  0  0  0
  -28.1300  -25.1110   19.9490 C   0  0  0  0  0  2  0  0  0  0  0  0
  -28.3340  -26.5500   20.1790 O   0  0  0  0  0  0  0  0  0  0  0  0
  -24.6020  -31.8830   23.2340 C   0  0  0  0  0  0  0  0  0  0  0  0
  -27.1990  -27.3620   20.1440 C   0  0  0  0  0  0  0  0  0  0  0  0
  -23.3880  -30.4860   21.5980 C   0  0  0  0  0  3  0  0  0  0  0  0
  -24.8280  -28.9430   20.1610 C   0  0  0  0  0  0  0  0  0  0  0  0
  -25.9220  -30.8110   21.4010 C   0  0  0  0  0  2  0  0  0  0  0  0
  -25.9970  -29.4360   20.7530 C   0  0  0  0  0  0  0  0  0  0  0  0
  -27.1850  -28.6550   20.7400 C   0  0  0  0  0  3  0  0  0  0  0  0
  -26.0080  -26.9150   19.5240 C   0  0  0  0  0  3  0  0  0  0  0  0
  -24.8340  -27.6870   19.5370 C   0  0  0  0  0  3  0  0  0  0  0  0
  -23.5900  -29.8110   20.2170 C   0  0  0  0  0  2  0  0  0  0  0  0
  -24.6560  -31.0760   22.1360 N   0  0  0  0  0  0  0  0  0  0  0  0
  -23.5220  -32.1610   23.7750 O   0  0  0  0  0  0  0  0  0  0  0  0
  -22.7310  -29.4680   22.5600 C   0  0  0  0  0  0  0  0  0  0  0  0
  -21.4040  -29.2930   22.4370 N   0  0  0  0  0  0  0  0  0  0  0  0
  -23.4110  -28.8390   23.3740 O   0  0  0  0  0  0  0  0  0  0  0  0
  -20.9150  -29.8540   21.7530 H   0  0  0  0  0  0  0  0  0  0  0  0
  -18.0240  -28.1120   22.9500 C   0  0  0  0  0  0  0  0  0  0  0  0
  -20.5840  -28.3580   23.2090 C   0  0  0  0  0  3  0  0  0  0  0  0
  -20.6770  -26.9270   22.6320 C   0  0  0  0  0  2  0  0  0  0  0  0
  -19.5690  -26.6110   21.6210 C   0  0  0  0  0  2  0  0  0  0  0  0
  -18.1910  -26.7620   22.2720 C   0  0  0  0  0  2  0  0  0  0  0  0
  -19.1480  -28.8690   23.3740 C   0  0  0  0  0  0  0  0  0  0  0  0
  -18.9390  -30.1330   23.9670 C   0  0  0  0  0  3  0  0  0  0  0  0
  -17.6370  -30.6410   24.1390 C   0  0  0  0  0  3  0  0  0  0  0  0
  -16.5270  -29.8810   23.7300 C   0  0  0  0  0  3  0  0  0  0  0  0
  -16.7230  -28.6180   23.1420 C   0  0  0  0  0  3  0  0  0  0  0  0
  -25.8910  -32.5100   23.8510 C   0  0  0  0  0  3  0  0  0  0  0  0
  -25.5870  -33.9060   24.1920 N   0  0  0  0  0  0  0  0  0  0  0  0
  -25.9080  -34.9630   23.4310 C   0  0  0  0  0  0  0  0  0  0  0  0
  -26.5620  -34.8630   22.3900 O   0  0  0  0  0  0  0  0  0  0  0  0
  -25.0110  -34.0590   25.0070 H   0  0  0  0  0  0  0  0  0  0  0  0
  -24.1700  -36.7490   23.1070 C   0  0  0  0  0  1  0  0  0  0  0  0
  -25.4240  -36.3480   23.9010 C   0  0  0  0  0  3  0  0  0  0  0  0
  -27.5690  -37.2330   24.7020 C   0  0  0  0  0  1  0  0  0  0  0  0
  -26.4530  -37.4040   23.7740 N   0  0  0  0  0  0  0  0  0  0  0  0
  -26.0480  -38.3240   23.9310 H   0  0  0  0  0  0  0  0  0  0  0  0
  -26.4170  -31.7290   25.1180 C   0  0  1  0  0  0  0  0  0  0  0  0
  -25.3320  -31.4800   26.1910 C   0  0  0  0  0  1  0  0  0  0  0  0
  -26.9970  -30.3550   24.7080 C   0  0  0  0  0  1  0  0  0  0  0  0
  -27.5740  -32.5160   25.7760 C   0  0  0  0  0  1  0  0  0  0  0  0
  1  3  1  0
  2  4  2  0
  2  5  1  0
  4  6  1  0
  5  1  2  0
  6 47  1  0
  6  3  2  0
  7  5  1  0
  7  9  1  0
  8  7  2  0
  9 10  1  0
 11 10  1  0
 12 17  1  0
 13 14  1  0
 13 12  1  0
 15 14  1  0
 15 22  1  0
 15 16  1  0
 17 11  1  0
 17 16  1  0
 18 11  2  0
 19 20  2  0
 20 39  1  0
 21 20  1  0
 21 24  1  0
 22 19  1  0
 22 23  1  0
 23 21  2  0
 24 25  1  0
 25 26  2  0
 27 30  1  0
 27 26  1  0
 28 27  2  0
 29 28  1  0
 29 24  2  0
 30 31  1  0
 31 32  1  0
 32 33  2  0
 34 33  1  0
 34 38  1  0
 35 34  2  0
 36 31  2  0
 36 35  1  0
 37 36  1  0
 39 40  1  0
 40 43  1  0
 40 42  1  0
 41 39  2  0
 44 45  1  0
 44 19  1  0
 46 44  1  0
 47 48  2  0
 49 50  1  0
 49 47  1  0
 51 62  2  0
 52 50  1  0
 52 57  1  0
 53 61  1  0
 53 63  1  0
 54 60  1  0
 54 56  1  0
 55 61  1  0
 56 55  1  0
 57 56  2  0
 58 59  1  0
 58 52  2  0
 59 54  2  0
 60 53  1  0
 61 51  1  0
 63 65  2  0
 64 63  1  0
 66 64  1  0
 67 76  2  0
 67 72  1  0
 68 64  1  0
 68 72  1  0
 69 68  1  0
 70 71  1  0
 70 69  1  0
 71 67  1  0
 72 73  2  0
 73 74  1  0
 75 74  2  0
 76 75  1  0
 77 51  1  0
 77 78  1  0
 77 87  1  0
 78 81  1  0
 79 83  1  0
 79 78  1  0
 80 79  2  0
 83 82  1  0
 85 83  1  0
 85 86  1  0
 85 84  1  0
 87 90  1  1
 87 88  1  0
 89 87  1  0
M  ISO  4  10 100  11 100  49 101  50 101
M  END
>  <TORSDO>  (20) 
F 21

>  <SCORE>  (20) 
-13.617

>  <name>  (20) 
19

>  <ligand_id>  (20) 
19

>  <original_smiles>  (20) 
[H]c1c([H])c([H])c2c(c1[H])C([H])([H])C([H])([H])C([H])([H])C2([H])N([H])C(=O)C1([H])N(C(=O)C([H])(N([H])C(=O)C([H])(N([H])C([H])([H])[H])C([H])([H])[H])C(C([H])([H])[H])(C([H])([H])[H])C([H])([H])[H])C([H])([H])c2c([H])c(OC([H])([H])C(=O)c3c([H])c([H])c(C(=O)C([H])([H])C([H])([H])C(=O)N4C([H])([H])C([H])([H])C([H])([H])C([H])(n5nc(-c6c([H])c([H])c(Oc7c([H])c([H])c(F)c([H])c7F)c([H])c6[H])c(C(=O)N([H])[H])c5N([H])[H])C4([H])[H])c([H])c3[H])c([H])c([H])c2C1([H])[H]

>  <smiles>  (20) 
[H]c1c([H])c([H])c2c(c1[H])C([H])([H])C([H])([H])C([H])([H])C2([H])N([H])C(=O)C1([H])N(C(=O)C([H])(N([H])C(=O)C([H])(N([H])C([H])([H])[H])C([H])([H])[H])C(C([H])([H])[H])(C([H])([H])[H])C([H])([H])[H])C([H])([H])c2c([H])c(OC([H])([H])C(=O)c3c([H])c([H])c(C(=O)C([H])([H])C([H])([H])C(=O)N4C([H])([H])C([H])([H])C([H])([H])C([H])(n5nc(-c6c([H])c([H])c(Oc7c([H])c([H])c(F)c([H])c7F)c([H])c6[H])c(C(=O)N([H])[H])c5N([H])[H])C4([H])[H])c([H])c3[H])c([H])c([H])c2C1([H])[H]

$$$$
20:0:0
     RDKit          3D

 89 96  0  0  1  0  0  0  0  0999 V2000
  -28.9790  -21.1600   20.3310 C   0  0  0  0  0  3  0  0  0  0  0  0
  -28.6440  -22.5410   21.0710 C   0  0  0  0  0  3  0  0  0  0  0  0
  -28.5700  -23.8860   20.2150 C   0  0  0  0  0  3  0  0  0  0  0  0
  -28.1230  -25.2150   20.9570 C   0  0  0  0  0  3  0  0  0  0  0  0
  -28.3590  -26.5180   20.3060 O   0  0  0  0  0  0  0  0  0  0  0  0
  -24.5990  -31.8940   23.2390 C   0  0  0  0  0  0  0  0  0  0  0  0
  -27.2590  -27.3700   20.2410 C   0  0  0  0  0  0  0  0  0  0  0  0
  -23.4200  -30.4920   21.5790 C   0  0  0  0  0  3  0  0  0  0  0  0
  -24.8950  -28.9500   20.1730 C   0  0  0  0  0  0  0  0  0  0  0  0
  -25.9540  -30.8340   21.4240 C   0  0  0  0  0  2  0  0  0  0  0  0
  -26.0500  -29.4560   20.7850 C   0  0  0  0  0  0  0  0  0  0  0  0
  -27.2390  -28.6750   20.8150 C   0  0  0  0  0  3  0  0  0  0  0  0
  -26.0970  -26.9120   19.5940 C   0  0  0  0  0  3  0  0  0  0  0  0
  -24.9190  -27.6850   19.5670 C   0  0  0  0  0  3  0  0  0  0  0  0
  -23.6540  -29.8180   20.2030 C   0  0  0  0  0  2  0  0  0  0  0  0
  -24.6750  -31.0910   22.1370 N   0  0  0  0  0  0  0  0  0  0  0  0
  -23.5090  -32.1610   23.7630 O   0  0  0  0  0  0  0  0  0  0  0  0
  -22.7540  -29.4700   22.5320 C   0  0  0  0  0  0  0  0  0  0  0  0
  -21.4320  -29.2820   22.3880 N   0  0  0  0  0  0  0  0  0  0  0  0
  -23.4250  -28.8460   23.3580 O   0  0  0  0  0  0  0  0  0  0  0  0
  -20.9480  -29.8350   21.6950 H   0  0  0  0  0  0  0  0  0  0  0  0
  -18.0530  -28.0800   22.8550 C   0  0  0  0  0  0  0  0  0  0  0  0
  -20.6070  -28.3430   23.1510 C   0  0  0  0  0  3  0  0  0  0  0  0
  -20.7160  -26.9130   22.5740 C   0  0  0  0  0  2  0  0  0  0  0  0
  -19.6250  -26.5910   21.5460 C   0  0  0  0  0  2  0  0  0  0  0  0
  -18.2370  -26.7320   22.1780 C   0  0  0  0  0  2  0  0  0  0  0  0
  -19.1660  -28.8430   23.2970 C   0  0  0  0  0  0  0  0  0  0  0  0
  -18.9400  -30.1040   23.8910 C   0  0  0  0  0  3  0  0  0  0  0  0
  -17.6330  -30.6030   24.0440 C   0  0  0  0  0  3  0  0  0  0  0  0
  -16.5340  -29.8380   23.6180 C   0  0  0  0  0  3  0  0  0  0  0  0
  -16.7440  -28.5770   23.0310 C   0  0  0  0  0  3  0  0  0  0  0  0
  -25.8720  -32.5300   23.8750 C   0  0  0  0  0  3  0  0  0  0  0  0
  -26.3740  -31.7660   25.1620 C   0  0  1  0  0  0  0  0  0  0  0  0
  -25.2700  -31.5330   26.2200 C   0  0  0  0  0  1  0  0  0  0  0  0
  -26.9630  -30.3860   24.7860 C   0  0  0  0  0  1  0  0  0  0  0  0
  -27.5130  -32.5670   25.8360 C   0  0  0  0  0  1  0  0  0  0  0  0
  -25.5560  -33.9310   24.1930 N   0  0  0  0  0  0  0  0  0  0  0  0
  -25.8970  -34.9780   23.4320 C   0  0  0  0  0  0  0  0  0  0  0  0
  -26.5810  -34.8720   22.4100 O   0  0  0  0  0  0  0  0  0  0  0  0
  -24.9490  -34.0880   24.9820 H   0  0  0  0  0  0  0  0  0  0  0  0
  -24.1730  -36.7710   23.0390 C   0  0  0  0  0  1  0  0  0  0  0  0
  -25.4000  -36.3680   23.8740 C   0  0  0  0  0  3  0  0  0  0  0  0
  -27.5190  -37.2610   24.7400 C   0  0  0  0  0  1  0  0  0  0  0  0
  -26.4330  -37.4220   23.7750 N   0  0  0  0  0  0  0  0  0  0  0  0
  -26.0240  -38.3420   23.9080 H   0  0  0  0  0  0  0  0  0  0  0  0
  -29.5140  -19.9100   21.1870 C   0  0  0  0  0  3  0  0  0  0  0  0
  -29.5520  -18.5400   20.5000 N   0  0  0  0  0  4  0  0  0  0  0  0
  -29.9020  -18.6790   19.5670 H   0  0  0  0  0  0  0  0  0  0  0  0
  -28.5950  -18.2420   20.4050 H   0  0  0  0  0  0  0  0  0  0  0  0
  -30.3460  -17.3760   21.1130 C   0  0  0  0  0  2  0  0  0  0  0  0
  -29.7660  -15.8890   20.9850 C   0  0  0  0  0  2  0  0  0  0  0  0
  -30.6070  -14.6760   20.3790 C   0  0  0  0  0  0  0  0  0  0  0  0
  -30.4210  -12.4790   19.1980 C   0  0  0  0  0  2  0  0  0  0  0  0
  -29.4580  -12.6380   17.9970 C   0  0  0  0  0  2  0  0  0  0  0  0
  -27.9860  -12.4630   18.4320 C   0  0  0  0  0  2  0  0  0  0  0  0
  -27.6400  -13.3090   19.6840 C   0  0  0  0  0  3  0  0  0  0  0  0
  -28.6990  -13.0900   20.7860 C   0  0  0  0  0  2  0  0  0  0  0  0
  -30.0120  -13.4480   20.2340 N   0  0  0  0  0  0  0  0  0  0  0  0
  -31.7450  -14.8730   19.9380 O   0  0  0  0  0  0  0  0  0  0  0  0
  -25.2520  -13.9190   20.4230 C   0  0  0  0  0  0  0  0  0  0  0  0
  -24.1910  -13.1480   20.8080 C   0  0  0  0  0  0  0  0  0  0  0  0
  -24.6530  -11.7940   20.7760 C   0  0  0  0  0  0  0  0  0  0  0  0
  -26.2940  -13.0360   20.1770 N   0  0  0  0  0  0  0  0  0  0  0  0
  -25.9400  -11.7540   20.4540 N   0  0  0  0  0  0  0  0  0  0  0  0
  -23.9330  -10.5320   20.9750 C   0  0  0  0  0  0  0  0  0  0  0  0
  -24.3740   -9.5720   21.9110 C   0  0  0  0  0  3  0  0  0  0  0  0
  -23.6550   -8.3710   22.0970 C   0  0  0  0  0  3  0  0  0  0  0  0
  -22.4810   -8.1250   21.3500 C   0  0  0  0  0  0  0  0  0  0  0  0
  -22.0580   -9.0740   20.4040 C   0  0  0  0  0  3  0  0  0  0  0  0
  -22.7750  -10.2650   20.2150 C   0  0  0  0  0  3  0  0  0  0  0  0
  -21.7330   -6.9750   21.4470 O   0  0  0  0  0  0  0  0  0  0  0  0
  -21.6880   -6.2410   22.6030 C   0  0  0  0  0  0  0  0  0  0  0  0
  -21.2530   -6.7980   23.8260 C   0  0  0  0  0  3  0  0  0  0  0  0
  -21.1590   -5.9870   24.9760 C   0  0  0  0  0  3  0  0  0  0  0  0
  -21.4890   -4.6210   24.9020 C   0  0  0  0  0  0  0  0  0  0  0  0
  -21.9190   -4.0640   23.6860 C   0  0  0  0  0  3  0  0  0  0  0  0
  -22.0150   -4.8700   22.5390 C   0  0  0  0  0  0  0  0  0  0  0  0
  -22.4110   -4.3240   21.3630 F   0  0  0  0  0  0  0  0  0  0  0  0
  -21.3900   -3.8410   26.0050 F   0  0  0  0  0  0  0  0  0  0  0  0
  -22.7950  -13.6220   21.0910 C   0  0  0  0  0  0  0  0  0  0  0  0
  -22.0710  -12.9260   21.9610 N   0  0  0  0  0  0  0  0  0  0  0  0
  -22.3510  -14.6450   20.5720 O   0  0  0  0  0  0  0  0  0  0  0  0
  -22.4350  -12.0950   22.4050 H   0  0  0  0  0  0  0  0  0  0  0  0
  -21.1380  -13.2340   22.1970 H   0  0  0  0  0  0  0  0  0  0  0  0
  -25.4230  -15.2870   20.2360 N   0  0  0  0  0  0  0  0  0  0  0  0
  -24.6630  -15.9520   20.3390 H   0  0  0  0  0  0  0  0  0  0  0  0
  -26.2580  -15.7010   19.8450 H   0  0  0  0  0  0  0  0  0  0  0  0
  -30.9230  -20.2560   21.6890 C   0  0  0  0  0  3  0  0  0  0  0  0
  -31.2320  -20.3150   22.8830 O   0  0  0  0  0  0  0  0  0  0  0  0
  1  2  2  0
  3  4  2  0
  3  2  1  0
  5  4  1  0
  6 17  2  0
  7  5  1  0
  7 12  1  0
  8 16  1  0
  8 18  1  0
  9 15  1  0
  9 11  1  0
 10 16  1  0
 11 12  2  0
 11 10  1  0
 13  7  2  0
 14 13  1  0
 14  9  2  0
 15  8  1  0
 16  6  1  0
 18 20  2  0
 19 18  1  0
 21 19  1  0
 22 31  2  0
 22 27  1  0
 23 19  1  0
 23 27  1  0
 24 23  1  0
 25 26  1  0
 25 24  1  0
 26 22  1  0
 27 28  2  0
 28 29  1  0
 30 29  2  0
 31 30  1  0
 32  6  1  0
 32 37  1  0
 32 33  1  0
 33 36  1  1
 33 34  1  0
 35 33  1  0
 37 40  1  0
 38 42  1  0
 38 37  1  0
 39 38  2  0
 42 41  1  0
 44 42  1  0
 44 45  1  0
 44 43  1  0
 46  1  1  0
 46 88  1  0
 47 50  1  0
 47 46  1  0
 48 47  1  0
 49 47  1  0
 51 50  1  0
 52 51  1  0
 53 58  1  0
 54 55  1  0
 54 53  1  0
 56 55  1  0
 56 63  1  0
 56 57  1  0
 58 52  1  0
 58 57  1  0
 59 52  2  0
 60 61  2  0
 61 80  1  0
 62 61  1  0
 62 65  1  0
 63 60  1  0
 63 64  1  0
 64 62  2  0
 65 66  1  0
 66 67  2  0
 68 71  1  0
 68 67  1  0
 69 68  2  0
 70 69  1  0
 70 65  2  0
 71 72  1  0
 72 73  1  0
 73 74  2  0
 75 74  1  0
 75 79  1  0
 76 75  2  0
 77 72  2  0
 77 76  1  0
 78 77  1  0
 80 81  1  0
 81 84  1  0
 81 83  1  0
 82 80  2  0
 85 86  1  0
 85 60  1  0
 87 85  1  0
 88 89  2  0
M  ISO  4   4 101   5 101  51 100  52 100
M  END
>  <TORSDO>  (21) 
F 24

>  <SCORE>  (21) 
-12.531

>  <name>  (21) 
20

>  <ligand_id>  (21) 
20

>  <original_smiles>  (21) 
[H]C(=O)C([H])(C([H])([H])C([H])([H])C([H])([H])C([H])([H])Oc1c([H])c([H])c2c(c1[H])C([H])([H])N(C(=O)C([H])(N([H])C(=O)C([H])(N([H])C([H])([H])[H])C([H])([H])[H])C(C([H])([H])[H])(C([H])([H])[H])C([H])([H])[H])C([H])(C(=O)N([H])C1([H])c3c([H])c([H])c([H])c([H])c3C([H])([H])C([H])([H])C1([H])[H])C2([H])[H])[N+]([H])([H])C([H])([H])C([H])([H])C(=O)N1C([H])([H])C([H])([H])C([H])([H])C([H])(n2nc(-c3c([H])c([H])c(Oc4c([H])c([H])c(F)c([H])c4F)c([H])c3[H])c(C(=O)N([H])[H])c2N([H])[H])C1([H])[H]

>  <smiles>  (21) 
[H]C(=O)C([H])(C([H])([H])C([H])([H])C([H])([H])C([H])([H])Oc1c([H])c([H])c2c(c1[H])C([H])([H])N(C(=O)C([H])(N([H])C(=O)C([H])(N([H])C([H])([H])[H])C([H])([H])[H])C(C([H])([H])[H])(C([H])([H])[H])C([H])([H])[H])C([H])(C(=O)N([H])C1([H])c3c([H])c([H])c([H])c([H])c3C([H])([H])C([H])([H])C1([H])[H])C2([H])[H])[N+]([H])([H])C([H])([H])C([H])([H])C(=O)N1C([H])([H])C([H])([H])C([H])([H])C([H])(n2nc(-c3c([H])c([H])c(Oc4c([H])c([H])c(F)c([H])c4F)c([H])c3[H])c(C(=O)N([H])[H])c2N([H])[H])C1([H])[H]

$$$$
21:0:0
     RDKit          3D

 96104  0  0  1  0  0  0  0  0999 V2000
  -31.4880  -20.4930   20.0290 C   0  0  0  0  0  3  0  0  0  0  0  0
  -31.7740  -21.7740   19.5200 C   0  0  0  0  0  3  0  0  0  0  0  0
  -29.3040  -21.2760   20.7650 C   0  0  0  0  0  3  0  0  0  0  0  0
  -30.2590  -20.2370   20.6750 C   0  0  0  0  0  0  0  0  0  0  0  0
  -29.6080  -22.5770   20.3090 C   0  0  0  0  0  0  0  0  0  0  0  0
  -30.8560  -22.8230   19.6950 C   0  0  0  0  0  0  0  0  0  0  0  0
  -31.2010  -24.0830   19.3050 O   0  0  0  0  0  0  0  0  0  0  0  0
  -30.5910  -24.7300   19.6420 H   0  0  0  0  0  0  0  0  0  0  0  0
  -28.6320  -23.7210   20.5290 C   0  0  0  0  0  2  0  0  0  0  0  0
  -28.0470  -24.2730   19.2110 C   0  0  0  0  0  2  0  0  0  0  0  0
  -28.3200  -25.7760   18.9740 C   0  0  0  0  0  2  0  0  0  0  0  0
  -28.1130  -26.5870   20.1320 O   0  0  0  0  0  0  0  0  0  0  0  0
  -24.5120  -31.8680   23.2550 C   0  0  0  0  0  0  0  0  0  0  0  0
  -26.9410  -27.2990   20.1940 C   0  0  0  0  0  0  0  0  0  0  0  0
  -23.2290  -30.4710   21.6660 C   0  0  0  0  0  3  0  0  0  0  0  0
  -24.5970  -28.8610   20.2540 C   0  0  0  0  0  0  0  0  0  0  0  0
  -25.7570  -30.7360   21.4240 C   0  0  0  0  0  2  0  0  0  0  0  0
  -25.7790  -29.3520   20.8180 C   0  0  0  0  0  0  0  0  0  0  0  0
  -26.9510  -28.5670   20.8080 C   0  0  0  0  0  3  0  0  0  0  0  0
  -25.7340  -26.8070   19.6490 C   0  0  0  0  0  3  0  0  0  0  0  0
  -24.5630  -27.5790   19.6840 C   0  0  0  0  0  3  0  0  0  0  0  0
  -23.3860  -29.7590   20.3000 C   0  0  0  0  0  2  0  0  0  0  0  0
  -24.5180  -31.0410   22.1710 N   0  0  0  0  0  0  0  0  0  0  0  0
  -23.4530  -32.1890   23.8070 O   0  0  0  0  0  0  0  0  0  0  0  0
  -22.5660  -29.4890   22.6570 C   0  0  0  0  0  0  0  0  0  0  0  0
  -21.2430  -29.3040   22.5170 N   0  0  0  0  0  0  0  0  0  0  0  0
  -23.2370  -28.8940   23.5030 O   0  0  0  0  0  0  0  0  0  0  0  0
  -20.7640  -29.8270   21.7980 H   0  0  0  0  0  0  0  0  0  0  0  0
  -17.8710  -28.1090   22.9800 C   0  0  0  0  0  0  0  0  0  0  0  0
  -20.4160  -28.4020   23.3130 C   0  0  0  0  0  3  0  0  0  0  0  0
  -20.5490  -26.9450   22.8160 C   0  0  0  0  0  2  0  0  0  0  0  0
  -19.4810  -26.5590   21.7890 C   0  0  0  0  0  2  0  0  0  0  0  0
  -18.0790  -26.7270   22.3830 C   0  0  0  0  0  2  0  0  0  0  0  0
  -18.9710  -28.9020   23.4030 C   0  0  0  0  0  0  0  0  0  0  0  0
  -18.7280  -30.1970   23.9120 C   0  0  0  0  0  3  0  0  0  0  0  0
  -17.4170  -30.6970   24.0130 C   0  0  0  0  0  3  0  0  0  0  0  0
  -16.3300  -29.8990   23.6150 C   0  0  0  0  0  3  0  0  0  0  0  0
  -16.5570  -28.6110   23.1010 C   0  0  0  0  0  3  0  0  0  0  0  0
  -25.8330  -32.4650   23.8340 C   0  0  0  0  0  3  0  0  0  0  0  0
  -26.3670  -31.6830   25.0970 C   0  0  1  0  0  0  0  0  0  0  0  0
  -25.2960  -31.4730   26.1920 C   0  0  0  0  0  1  0  0  0  0  0  0
  -26.9100  -30.2900   24.6980 C   0  0  0  0  0  1  0  0  0  0  0  0
  -27.5490  -32.4560   25.7260 C   0  0  0  0  0  1  0  0  0  0  0  0
  -25.5740  -33.8720   24.1610 N   0  0  0  0  0  0  0  0  0  0  0  0
  -25.9070  -34.9060   23.3790 C   0  0  0  0  0  0  0  0  0  0  0  0
  -26.5410  -34.7800   22.3290 O   0  0  0  0  0  0  0  0  0  0  0  0
  -25.0140  -34.0510   24.9810 H   0  0  0  0  0  0  0  0  0  0  0  0
  -24.2090  -36.7340   23.0610 C   0  0  0  0  0  1  0  0  0  0  0  0
  -25.4630  -36.3080   23.8390 C   0  0  0  0  0  3  0  0  0  0  0  0
  -27.6390  -37.1530   24.6000 C   0  0  0  0  0  1  0  0  0  0  0  0
  -26.5130  -37.3370   23.6880 N   0  0  0  0  0  0  0  0  0  0  0  0
  -26.1310  -38.2660   23.8390 H   0  0  0  0  0  0  0  0  0  0  0  0
  -30.0060  -18.9020   21.3820 C   0  0  0  0  0  3  0  0  0  0  0  0
  -30.0770  -17.7590   20.4360 N   0  0  0  0  0  4  0  0  0  0  0  0
  -29.5730  -18.0470   19.6140 H   0  0  0  0  0  0  0  0  0  0  0  0
  -31.0290  -17.6080   20.1500 H   0  0  0  0  0  0  0  0  0  0  0  0
  -29.4720  -16.4870   20.9070 C   0  0  0  0  0  2  0  0  0  0  0  0
  -30.4790  -15.4810   21.5290 C   0  0  0  0  0  2  0  0  0  0  0  0
  -31.0010  -14.4460   20.5090 C   0  0  0  0  0  0  0  0  0  0  0  0
  -30.6090  -12.4740   19.0680 C   0  0  0  0  0  2  0  0  0  0  0  0
  -29.6590  -12.8460   17.9090 C   0  0  0  0  0  2  0  0  0  0  0  0
  -28.1840  -12.7080   18.3320 C   0  0  0  0  0  2  0  0  0  0  0  0
  -27.8920  -13.4070   19.6830 C   0  0  0  0  0  3  0  0  0  0  0  0
  -28.9420  -13.0140   20.7410 C   0  0  0  0  0  2  0  0  0  0  0  0
  -30.2790  -13.3330   20.2150 N   0  0  0  0  0  0  0  0  0  0  0  0
  -32.0650  -14.7110   19.9400 O   0  0  0  0  0  0  0  0  0  0  0  0
  -25.4950  -14.0350   20.3700 C   0  0  0  0  0  0  0  0  0  0  0  0
  -24.4220  -13.2720   20.7420 C   0  0  0  0  0  0  0  0  0  0  0  0
  -24.8760  -11.9180   20.7230 C   0  0  0  0  0  0  0  0  0  0  0  0
  -26.5350  -13.1460   20.1530 N   0  0  0  0  0  0  0  0  0  0  0  0
  -26.1660  -11.8670   20.4180 N   0  0  0  0  0  0  0  0  0  0  0  0
  -24.1460  -10.6600   20.9140 C   0  0  0  0  0  0  0  0  0  0  0  0
  -24.5350   -9.7270   21.9000 C   0  0  0  0  0  3  0  0  0  0  0  0
  -23.8030   -8.5320   22.0800 C   0  0  0  0  0  3  0  0  0  0  0  0
  -22.6710   -8.2660   21.2760 C   0  0  0  0  0  0  0  0  0  0  0  0
  -22.3020   -9.1920   20.2830 C   0  0  0  0  0  3  0  0  0  0  0  0
  -23.0320  -10.3760   20.1020 C   0  0  0  0  0  3  0  0  0  0  0  0
  -21.9160   -7.1220   21.3590 O   0  0  0  0  0  0  0  0  0  0  0  0
  -21.7720   -6.4420   22.5430 C   0  0  0  0  0  0  0  0  0  0  0  0
  -21.2380   -7.0570   23.6960 C   0  0  0  0  0  3  0  0  0  0  0  0
  -21.0410   -6.3010   24.8680 C   0  0  0  0  0  3  0  0  0  0  0  0
  -21.3700   -4.9320   24.8890 C   0  0  0  0  0  0  0  0  0  0  0  0
  -21.8960   -4.3190   23.7390 C   0  0  0  0  0  3  0  0  0  0  0  0
  -22.0940   -5.0700   22.5680 C   0  0  0  0  0  0  0  0  0  0  0  0
  -22.5810   -4.4680   21.4580 F   0  0  0  0  0  0  0  0  0  0  0  0
  -21.1730   -4.2050   26.0130 F   0  0  0  0  0  0  0  0  0  0  0  0
  -23.0240  -13.7560   21.0000 C   0  0  0  0  0  0  0  0  0  0  0  0
  -22.2970  -13.0780   21.8810 N   0  0  0  0  0  0  0  0  0  0  0  0
  -22.5860  -14.7700   20.4560 O   0  0  0  0  0  0  0  0  0  0  0  0
  -22.6640  -12.2640   22.3500 H   0  0  0  0  0  0  0  0  0  0  0  0
  -21.3570  -13.3810   22.0850 H   0  0  0  0  0  0  0  0  0  0  0  0
  -25.6580  -15.4030   20.1730 N   0  0  0  0  0  0  0  0  0  0  0  0
  -24.8620  -16.0290   20.2390 H   0  0  0  0  0  0  0  0  0  0  0  0
  -26.4490  -15.8300   19.7130 H   0  0  0  0  0  0  0  0  0  0  0  0
  -31.3150  -20.0250   23.3310 C   0  0  0  0  0  1  0  0  0  0  0  0
  -30.9420  -18.7160   22.6060 C   0  0  0  0  0  2  0  0  0  0  0  0
  1  4  1  0
  2  6  1  0
  2  1  2  0
  4  3  2  0
  4 53  1  0
  5  9  1  0
  5  3  1  0
  6  5  2  0
  7  8  1  0
  7  6  1  0
 10  9  1  0
 11 10  1  0
 11 12  1  0
 12 14  1  0
 13 24  2  0
 14 19  1  0
 15 23  1  0
 15 25  1  0
 16 22  1  0
 16 18  1  0
 17 23  1  0
 18 17  1  0
 19 18  2  0
 20 21  1  0
 20 14  2  0
 21 16  2  0
 22 15  1  0
 23 13  1  0
 25 27  2  0
 26 25  1  0
 28 26  1  0
 29 38  2  0
 29 34  1  0
 30 26  1  0
 30 34  1  0
 31 30  1  0
 32 33  1  0
 32 31  1  0
 33 29  1  0
 34 35  2  0
 35 36  1  0
 37 36  2  0
 38 37  1  0
 39 13  1  0
 39 44  1  0
 39 40  1  0
 40 43  1  1
 40 41  1  0
 42 40  1  0
 44 47  1  0
 45 49  1  0
 45 44  1  0
 46 45  2  0
 49 48  1  0
 51 52  1  0
 51 49  1  0
 51 50  1  0
 53 96  1  0
 54 57  1  0
 54 53  1  0
 55 54  1  0
 56 54  1  0
 57 58  1  0
 59 58  1  0
 60 65  1  0
 61 62  1  0
 61 60  1  0
 63 62  1  0
 63 70  1  0
 63 64  1  0
 65 59  1  0
 65 64  1  0
 66 59  2  0
 67 68  2  0
 68 87  1  0
 69 68  1  0
 69 72  1  0
 70 67  1  0
 70 71  1  0
 71 69  2  0
 72 73  1  0
 73 74  2  0
 75 78  1  0
 75 74  1  0
 76 75  2  0
 77 76  1  0
 77 72  2  0
 78 79  1  0
 79 84  2  0
 79 80  1  0
 80 81  2  0
 81 82  1  0
 82 86  1  0
 83 82  2  0
 84 83  1  0
 85 84  1  0
 87 88  1  0
 88 91  1  0
 88 90  1  0
 89 87  2  0
 92 93  1  0
 92 67  1  0
 94 92  1  0
 96 95  1  0
M  ISO  4  11 101  12 101  58 100  59 100
M  END
>  <TORSDO>  (22) 
F 25

>  <SCORE>  (22) 
-12.085

>  <name>  (22) 
21

>  <ligand_id>  (22) 
21

>  <original_smiles>  (22) 
[H]Oc1c([H])c([H])c(C([H])(C([H])([H])C([H])([H])[H])[N+]([H])([H])C([H])([H])C([H])([H])C(=O)N2C([H])([H])C([H])([H])C([H])([H])C([H])(n3nc(-c4c([H])c([H])c(Oc5c([H])c([H])c(F)c([H])c5F)c([H])c4[H])c(C(=O)N([H])[H])c3N([H])[H])C2([H])[H])c([H])c1C([H])([H])C([H])([H])C([H])([H])Oc1c([H])c([H])c2c(c1[H])C([H])([H])N(C(=O)C([H])(N([H])C(=O)C([H])(N([H])C([H])([H])[H])C([H])([H])[H])C(C([H])([H])[H])(C([H])([H])[H])C([H])([H])[H])C([H])(C(=O)N([H])C1([H])c3c([H])c([H])c([H])c([H])c3C([H])([H])C([H])([H])C1([H])[H])C2([H])[H]

>  <smiles>  (22) 
[H]Oc1c([H])c([H])c(C([H])(C([H])([H])C([H])([H])[H])[N+]([H])([H])C([H])([H])C([H])([H])C(=O)N2C([H])([H])C([H])([H])C([H])([H])C([H])(n3nc(-c4c([H])c([H])c(Oc5c([H])c([H])c(F)c([H])c5F)c([H])c4[H])c(C(=O)N([H])[H])c3N([H])[H])C2([H])[H])c([H])c1C([H])([H])C([H])([H])C([H])([H])Oc1c([H])c([H])c2c(c1[H])C([H])([H])N(C(=O)C([H])(N([H])C(=O)C([H])(N([H])C([H])([H])[H])C([H])([H])[H])C(C([H])([H])[H])(C([H])([H])[H])C([H])([H])[H])C([H])(C(=O)N([H])C1([H])c3c([H])c([H])c([H])c([H])c3C([H])([H])C([H])([H])C1([H])[H])C2([H])[H]

$$$$
22:0:0
     RDKit          3D

 93102  0  0  1  0  0  0  0  0999 V2000
  -29.3750  -20.8380   22.2630 C   0  0  0  0  0  3  0  0  0  0  0  0
  -29.7020  -20.7740   19.8590 C   0  0  0  0  0  3  0  0  0  0  0  0
  -29.5450  -22.2380   22.2470 C   0  0  0  0  0  3  0  0  0  0  0  0
  -29.8740  -22.1730   19.8420 C   0  0  0  0  0  3  0  0  0  0  0  0
  -29.4610  -20.0850   21.0720 C   0  0  0  0  0  0  0  0  0  0  0  0
  -29.8100  -22.9200   21.0370 C   0  0  0  0  0  0  0  0  0  0  0  0
  -30.7900  -14.6590   20.0160 C   0  0  0  0  0  0  0  0  0  0  0  0
  -30.4670  -12.4640   18.9340 C   0  0  0  0  0  2  0  0  0  0  0  0
  -29.4500  -12.5830   17.7820 C   0  0  0  0  0  2  0  0  0  0  0  0
  -28.0170  -12.3710   18.3060 C   0  0  0  0  0  2  0  0  0  0  0  0
  -27.7070  -13.2310   19.5580 C   0  0  0  0  0  3  0  0  0  0  0  0
  -28.8410  -13.1450   20.6080 C   0  0  0  0  0  2  0  0  0  0  0  0
  -30.1140  -13.4760   19.9440 N   0  0  0  0  0  0  0  0  0  0  0  0
  -31.8970  -14.8130   19.4920 O   0  0  0  0  0  0  0  0  0  0  0  0
  -29.1920  -17.8640   19.7640 C   0  0  0  0  0  2  0  0  0  0  0  0
  -30.2710  -17.8310   22.0550 C   0  0  0  0  0  2  0  0  0  0  0  0
  -29.0480  -16.3430   19.9260 C   0  0  0  0  0  2  0  0  0  0  0  0
  -31.0300  -16.6480   21.3960 C   0  0  0  0  0  2  0  0  0  0  0  0
  -29.2640  -18.5600   21.1310 C   0  0  0  0  0  3  0  0  0  0  0  0
  -30.1800  -15.7070   20.6320 N   0  0  0  0  0  0  0  0  0  0  0  0
  -25.3490  -13.7540   20.4370 C   0  0  0  0  0  0  0  0  0  0  0  0
  -24.3370  -12.9420   20.8720 C   0  0  0  0  0  0  0  0  0  0  0  0
  -24.8460  -11.6100   20.8050 C   0  0  0  0  0  0  0  0  0  0  0  0
  -26.4050  -12.9100   20.1320 N   0  0  0  0  0  0  0  0  0  0  0  0
  -26.1130  -11.6160   20.4130 N   0  0  0  0  0  0  0  0  0  0  0  0
  -24.1840  -10.3210   21.0350 C   0  0  0  0  0  0  0  0  0  0  0  0
  -24.6300   -9.4310   22.0370 C   0  0  0  0  0  3  0  0  0  0  0  0
  -23.9670   -8.2050   22.2510 C   0  0  0  0  0  3  0  0  0  0  0  0
  -22.8420   -7.8600   21.4640 C   0  0  0  0  0  0  0  0  0  0  0  0
  -22.4150   -8.7400   20.4530 C   0  0  0  0  0  3  0  0  0  0  0  0
  -23.0800   -9.9580   20.2370 C   0  0  0  0  0  3  0  0  0  0  0  0
  -22.1510   -6.6800   21.5840 O   0  0  0  0  0  0  0  0  0  0  0  0
  -21.9680   -6.0740   22.8010 C   0  0  0  0  0  0  0  0  0  0  0  0
  -21.2860   -6.7160   23.8580 C   0  0  0  0  0  3  0  0  0  0  0  0
  -21.0600   -6.0300   25.0680 C   0  0  0  0  0  3  0  0  0  0  0  0
  -21.5050   -4.7030   25.2210 C   0  0  0  0  0  0  0  0  0  0  0  0
  -22.1790   -4.0600   24.1670 C   0  0  0  0  0  3  0  0  0  0  0  0
  -22.4070   -4.7440   22.9590 C   0  0  0  0  0  0  0  0  0  0  0  0
  -23.0380   -4.1130   21.9400 F   0  0  0  0  0  0  0  0  0  0  0  0
  -21.2820   -4.0410   26.3800 F   0  0  0  0  0  0  0  0  0  0  0  0
  -22.9440  -13.3670   21.2380 C   0  0  0  0  0  0  0  0  0  0  0  0
  -22.3030  -12.6470   22.1510 N   0  0  0  0  0  0  0  0  0  0  0  0
  -22.4330  -14.3730   20.7470 O   0  0  0  0  0  0  0  0  0  0  0  0
  -22.7300  -11.8320   22.5680 H   0  0  0  0  0  0  0  0  0  0  0  0
  -21.3730  -12.9160   22.4400 H   0  0  0  0  0  0  0  0  0  0  0  0
  -25.4490  -15.1300   20.2530 N   0  0  0  0  0  0  0  0  0  0  0  0
  -24.6700  -15.7560   20.4250 H   0  0  0  0  0  0  0  0  0  0  0  0
  -26.2580  -15.6000   19.8680 H   0  0  0  0  0  0  0  0  0  0  0  0
  -31.1330  -24.8070   22.0730 C   0  0  0  0  0  1  0  0  0  0  0  0
  -30.0780  -24.4270   21.0200 C   0  0  0  0  0  3  0  0  0  0  0  0
  -28.7970  -25.2820   21.1700 C   0  0  0  0  0  2  0  0  0  0  0  0
  -27.9910  -25.4890   19.8670 C   0  0  0  0  0  2  0  0  0  0  0  0
  -28.0020  -26.8790   19.5090 O   0  0  0  0  0  0  0  0  0  0  0  0
  -24.4630  -31.8540   23.1430 C   0  0  0  0  0  0  0  0  0  0  0  0
  -26.8270  -27.5850   19.6420 C   0  0  0  0  0  0  0  0  0  0  0  0
  -23.1250  -30.5700   21.5040 C   0  0  0  0  0  3  0  0  0  0  0  0
  -24.4550  -29.1020   19.8970 C   0  0  0  0  0  0  0  0  0  0  0  0
  -25.6330  -30.9160   21.1530 C   0  0  0  0  0  2  0  0  0  0  0  0
  -25.6560  -29.5840   20.4330 C   0  0  0  0  0  0  0  0  0  0  0  0
  -26.8440  -28.8340   20.3000 C   0  0  0  0  0  3  0  0  0  0  0  0
  -25.6120  -27.1160   19.0950 C   0  0  0  0  0  3  0  0  0  0  0  0
  -24.4270  -27.8670   19.2240 C   0  0  0  0  0  3  0  0  0  0  0  0
  -23.2300  -29.9700   20.0750 C   0  0  0  0  0  2  0  0  0  0  0  0
  -24.4300  -31.1250   21.9920 N   0  0  0  0  0  0  0  0  0  0  0  0
  -23.4260  -32.1050   23.7720 O   0  0  0  0  0  0  0  0  0  0  0  0
  -22.5240  -29.5010   22.4440 C   0  0  0  0  0  0  0  0  0  0  0  0
  -21.2000  -29.2980   22.3490 N   0  0  0  0  0  0  0  0  0  0  0  0
  -23.2440  -28.8600   23.2130 O   0  0  0  0  0  0  0  0  0  0  0  0
  -20.6780  -29.8720   21.7020 H   0  0  0  0  0  0  0  0  0  0  0  0
  -17.8730  -27.9850   22.8600 C   0  0  0  0  0  0  0  0  0  0  0  0
  -20.4250  -28.3140   23.1060 C   0  0  0  0  0  3  0  0  0  0  0  0
  -20.5640  -26.9030   22.4900 C   0  0  0  0  0  2  0  0  0  0  0  0
  -19.4590  -26.5740   21.4820 C   0  0  0  0  0  2  0  0  0  0  0  0
  -18.0820  -26.6590   22.1480 C   0  0  0  0  0  2  0  0  0  0  0  0
  -18.9730  -28.7700   23.2960 C   0  0  0  0  0  0  0  0  0  0  0  0
  -18.7250  -30.0100   23.9220 C   0  0  0  0  0  3  0  0  0  0  0  0
  -17.4070  -30.4680   24.1150 C   0  0  0  0  0  3  0  0  0  0  0  0
  -16.3220  -29.6800   23.6950 C   0  0  0  0  0  3  0  0  0  0  0  0
  -16.5560  -28.4400   23.0740 C   0  0  0  0  0  3  0  0  0  0  0  0
  -25.7990  -32.4280   23.7110 C   0  0  0  0  0  3  0  0  0  0  0  0
  -26.3780  -31.5850   24.9120 C   0  0  1  0  0  0  0  0  0  0  0  0
  -25.3480  -31.3100   26.0330 C   0  0  0  0  0  1  0  0  0  0  0  0
  -26.9080  -30.2210   24.4130 C   0  0  0  0  0  1  0  0  0  0  0  0
  -27.5810  -32.3260   25.5430 C   0  0  0  0  0  1  0  0  0  0  0  0
  -25.5450  -33.8150   24.1230 N   0  0  0  0  0  0  0  0  0  0  0  0
  -25.8760  -34.8940   23.4020 C   0  0  0  0  0  0  0  0  0  0  0  0
  -26.4990  -34.8250   22.3390 O   0  0  0  0  0  0  0  0  0  0  0  0
  -24.9930  -33.9440   24.9580 H   0  0  0  0  0  0  0  0  0  0  0  0
  -24.1910  -36.7500   23.2000 C   0  0  0  0  0  1  0  0  0  0  0  0
  -25.4480  -36.2700   23.9460 C   0  0  0  0  0  3  0  0  0  0  0  0
  -27.6310  -37.0530   24.7510 C   0  0  0  0  0  1  0  0  0  0  0  0
  -26.5060  -37.2970   23.8510 N   0  0  0  0  0  0  0  0  0  0  0  0
  -26.1320  -38.2200   24.0540 H   0  0  0  0  0  0  0  0  0  0  0  0
  2  5  1  0
  3  1  1  0
  4  2  2  0
  4  6  1  0
  5  1  2  0
  6  3  2  0
  7 20  1  0
  8 13  1  0
  9 10  1  0
  9  8  1  0
 11 10  1  0
 11 24  1  0
 11 12  1  0
 13  7  1  0
 13 12  1  0
 14  7  2  0
 15 17  1  0
 15 19  1  0
 17 20  1  0
 18 16  1  0
 19  5  1  0
 19 16  1  0
 20 18  1  0
 21 22  2  0
 22 41  1  0
 23 22  1  0
 23 26  1  0
 24 25  1  0
 24 21  1  0
 25 23  2  0
 26 27  1  0
 27 28  2  0
 29 32  1  0
 29 28  1  0
 30 29  2  0
 31 30  1  0
 31 26  2  0
 32 33  1  0
 33 38  2  0
 33 34  1  0
 34 35  2  0
 35 36  1  0
 36 40  1  0
 37 36  2  0
 38 37  1  0
 39 38  1  0
 41 42  1  0
 42 45  1  0
 42 44  1  0
 43 41  2  0
 46 47  1  0
 46 21  1  0
 48 46  1  0
 50  6  1  0
 50 51  1  0
 50 49  1  0
 52 51  1  0
 53 55  1  0
 53 52  1  0
 54 65  2  0
 55 60  1  0
 56 64  1  0
 56 66  1  0
 57 63  1  0
 57 59  1  0
 58 64  1  0
 59 58  1  0
 60 59  2  0
 61 62  1  0
 61 55  2  0
 62 57  2  0
 63 56  1  0
 64 54  1  0
 66 68  2  0
 67 66  1  0
 69 67  1  0
 70 79  2  0
 70 75  1  0
 71 67  1  0
 71 75  1  0
 72 71  1  0
 73 74  1  0
 73 72  1  0
 74 70  1  0
 75 76  2  0
 76 77  1  0
 78 77  2  0
 79 78  1  0
 80 54  1  0
 80 85  1  0
 80 81  1  0
 81 84  1  1
 81 82  1  0
 83 81  1  0
 85 88  1  0
 86 90  1  0
 86 85  1  0
 87 86  2  0
 90 89  1  0
 92 90  1  0
 92 93  1  0
 92 91  1  0
M  ISO  4   7 100  20 100  52 101  53 101
M  END
>  <TORSDO>  (23) 
F 19

>  <SCORE>  (23) 
-11.980

>  <name>  (23) 
22

>  <ligand_id>  (23) 
22

>  <original_smiles>  (23) 
[H]c1c([H])c([H])c2c(c1[H])C([H])([H])C([H])([H])C([H])([H])C2([H])N([H])C(=O)C1([H])N(C(=O)C([H])(N([H])C(=O)C([H])(N([H])C([H])([H])[H])C([H])([H])[H])C(C([H])([H])[H])(C([H])([H])[H])C([H])([H])[H])C([H])([H])c2c([H])c(OC([H])([H])C([H])([H])C([H])(c3c([H])c([H])c(C4([H])C([H])([H])C([H])([H])N(C(=O)N5C([H])([H])C([H])([H])C([H])([H])C([H])(n6nc(-c7c([H])c([H])c(Oc8c([H])c([H])c(F)c([H])c8F)c([H])c7[H])c(C(=O)N([H])[H])c6N([H])[H])C5([H])[H])C([H])([H])C4([H])[H])c([H])c3[H])C([H])([H])[H])c([H])c([H])c2C1([H])[H]

>  <smiles>  (23) 
[H]c1c([H])c([H])c2c(c1[H])C([H])([H])C([H])([H])C([H])([H])C2([H])N([H])C(=O)C1([H])N(C(=O)C([H])(N([H])C(=O)C([H])(N([H])C([H])([H])[H])C([H])([H])[H])C(C([H])([H])[H])(C([H])([H])[H])C([H])([H])[H])C([H])([H])c2c([H])c(OC([H])([H])C([H])([H])C([H])(c3c([H])c([H])c(C4([H])C([H])([H])C([H])([H])N(C(=O)N5C([H])([H])C([H])([H])C([H])([H])C([H])(n6nc(-c7c([H])c([H])c(Oc8c([H])c([H])c(F)c([H])c8F)c([H])c7[H])c(C(=O)N([H])[H])c6N([H])[H])C5([H])[H])C([H])([H])C4([H])[H])c([H])c3[H])C([H])([H])[H])c([H])c([H])c2C1([H])[H]

$$$$
23:0:0
     RDKit          3D

 92100  0  0  1  0  0  0  0  0999 V2000
  -29.8140  -20.1430   22.4410 C   0  0  0  0  0  3  0  0  0  0  0  0
  -30.1540  -18.9390   21.7990 C   0  0  0  0  0  3  0  0  0  0  0  0
  -29.5670  -21.3130   21.6990 C   0  0  0  0  0  3  0  0  0  0  0  0
  -30.2420  -18.8460   20.3940 C   0  0  0  0  0  0  0  0  0  0  0  0
  -29.6070  -21.3130   20.2860 C   0  0  0  0  0  0  0  0  0  0  0  0
  -29.9120  -20.0490   19.6340 C   0  0  0  0  0  0  0  0  0  0  0  0
  -29.7980  -19.9910   18.1120 C   0  0  0  0  0  1  0  0  0  0  0  0
  -30.4590  -16.2260   20.2940 C   0  0  0  0  0  3  0  0  0  0  0  0
  -30.7730  -17.5080   19.8650 C   0  0  0  0  0  0  0  0  0  0  0  0
  -31.1650  -14.9620   19.8780 C   0  0  0  0  0  0  0  0  0  0  0  0
  -30.8310  -12.6780   18.9600 C   0  0  0  0  0  2  0  0  0  0  0  0
  -29.8490  -12.8030   17.7780 C   0  0  0  0  0  2  0  0  0  0  0  0
  -28.3990  -12.6530   18.2750 C   0  0  0  0  0  2  0  0  0  0  0  0
  -28.1010  -13.5590   19.4990 C   0  0  0  0  0  3  0  0  0  0  0  0
  -29.2140  -13.4570   20.5690 C   0  0  0  0  0  2  0  0  0  0  0  0
  -30.4950  -13.7590   19.9150 N   0  0  0  0  0  0  0  0  0  0  0  0
  -32.3110  -14.9820   19.4230 O   0  0  0  0  0  0  0  0  0  0  0  0
  -25.7880  -14.2030   20.4140 C   0  0  0  0  0  0  0  0  0  0  0  0
  -24.7180  -13.4510   20.8180 C   0  0  0  0  0  0  0  0  0  0  0  0
  -25.1230  -12.0870   20.6940 C   0  0  0  0  0  0  0  0  0  0  0  0
  -26.7780  -13.2990   20.0600 N   0  0  0  0  0  0  0  0  0  0  0  0
  -26.3840  -12.0170   20.2810 N   0  0  0  0  0  0  0  0  0  0  0  0
  -24.3580  -10.8460   20.8710 C   0  0  0  0  0  0  0  0  0  0  0  0
  -24.7340   -9.8750   21.8300 C   0  0  0  0  0  3  0  0  0  0  0  0
  -23.9740   -8.6990   21.9980 C   0  0  0  0  0  3  0  0  0  0  0  0
  -22.8200   -8.4810   21.2080 C   0  0  0  0  0  0  0  0  0  0  0  0
  -22.4590   -9.4350   20.2390 C   0  0  0  0  0  3  0  0  0  0  0  0
  -23.2230  -10.6040   20.0670 C   0  0  0  0  0  3  0  0  0  0  0  0
  -22.0370   -7.3530   21.2840 O   0  0  0  0  0  0  0  0  0  0  0  0
  -21.8310   -6.6990   22.4720 C   0  0  0  0  0  0  0  0  0  0  0  0
  -21.1990   -7.3270   23.5670 C   0  0  0  0  0  3  0  0  0  0  0  0
  -20.9400   -6.5960   24.7450 C   0  0  0  0  0  3  0  0  0  0  0  0
  -21.3030   -5.2390   24.8230 C   0  0  0  0  0  0  0  0  0  0  0  0
  -21.9300   -4.6120   23.7330 C   0  0  0  0  0  3  0  0  0  0  0  0
  -22.1890   -5.3400   22.5590 C   0  0  0  0  0  0  0  0  0  0  0  0
  -22.7720   -4.7240   21.5020 F   0  0  0  0  0  0  0  0  0  0  0  0
  -21.0470   -4.5350   25.9480 F   0  0  0  0  0  0  0  0  0  0  0  0
  -23.3640  -13.9680   21.2110 C   0  0  0  0  0  0  0  0  0  0  0  0
  -22.6670  -13.2670   22.0980 N   0  0  0  0  0  0  0  0  0  0  0  0
  -22.9380  -15.0340   20.7720 O   0  0  0  0  0  0  0  0  0  0  0  0
  -23.0190  -12.4060   22.4830 H   0  0  0  0  0  0  0  0  0  0  0  0
  -21.7610  -13.6080   22.3960 H   0  0  0  0  0  0  0  0  0  0  0  0
  -26.0000  -15.5730   20.3020 N   0  0  0  0  0  0  0  0  0  0  0  0
  -25.2700  -16.2480   20.5030 H   0  0  0  0  0  0  0  0  0  0  0  0
  -26.8450  -16.0040   19.9490 H   0  0  0  0  0  0  0  0  0  0  0  0
  -31.7510  -17.7100   18.9680 O   0  0  0  0  0  0  0  0  0  0  0  0
  -31.8920  -18.6480   18.9200 H   0  0  0  0  0  0  0  0  0  0  0  0
  -29.1060  -22.6310   19.5540 C   0  0  0  0  0  2  0  0  0  0  0  0
  -30.6270  -24.2490   21.0210 C   0  0  0  0  0  1  0  0  0  0  0  0
  -29.6230  -24.1320   19.8560 C   0  0  0  0  0  3  0  0  0  0  0  0
  -28.4290  -25.2060   19.9590 C   0  0  0  0  0  2  0  0  0  0  0  0
  -28.6260  -26.6870   19.9210 O   0  0  0  0  0  0  0  0  0  0  0  0
  -24.5530  -31.6910   23.2280 C   0  0  0  0  0  0  0  0  0  0  0  0
  -27.4660  -27.4930   19.9130 C   0  0  0  0  0  0  0  0  0  0  0  0
  -23.4450  -30.3110   21.5120 C   0  0  0  0  0  3  0  0  0  0  0  0
  -24.9940  -28.9560   19.9950 C   0  0  0  0  0  0  0  0  0  0  0  0
  -25.9590  -30.8090   21.3480 C   0  0  0  0  0  2  0  0  0  0  0  0
  -26.1330  -29.4780   20.6250 C   0  0  0  0  0  0  0  0  0  0  0  0
  -27.3670  -28.7600   20.5760 C   0  0  0  0  0  3  0  0  0  0  0  0
  -26.3010  -27.0470   19.2420 C   0  0  0  0  0  3  0  0  0  0  0  0
  -25.0840  -27.7470   19.2930 C   0  0  0  0  0  3  0  0  0  0  0  0
  -23.6980  -29.7350   20.0950 C   0  0  0  0  0  2  0  0  0  0  0  0
  -24.6710  -30.9550   22.0850 N   0  0  0  0  0  0  0  0  0  0  0  0
  -23.4540  -31.8630   23.7750 O   0  0  0  0  0  0  0  0  0  0  0  0
  -22.8590  -29.1950   22.4090 C   0  0  0  0  0  0  0  0  0  0  0  0
  -21.5650  -28.8860   22.2170 N   0  0  0  0  0  0  0  0  0  0  0  0
  -23.5670  -28.6130   23.2350 O   0  0  0  0  0  0  0  0  0  0  0  0
  -21.0450  -29.4180   21.5310 H   0  0  0  0  0  0  0  0  0  0  0  0
  -18.3170  -27.3160   22.5260 C   0  0  0  0  0  0  0  0  0  0  0  0
  -20.8190  -27.8390   22.9210 C   0  0  0  0  0  3  0  0  0  0  0  0
  -21.0990  -26.4460   22.3090 C   0  0  0  0  0  2  0  0  0  0  0  0
  -20.0820  -26.0410   21.2360 C   0  0  0  0  0  2  0  0  0  0  0  0
  -18.6650  -26.0180   21.8170 C   0  0  0  0  0  2  0  0  0  0  0  0
  -19.3280  -28.1800   23.0290 C   0  0  0  0  0  0  0  0  0  0  0  0
  -18.9500  -29.3940   23.6440 C   0  0  0  0  0  3  0  0  0  0  0  0
  -17.5910  -29.7440   23.7660 C   0  0  0  0  0  3  0  0  0  0  0  0
  -16.5940  -28.8790   23.2820 C   0  0  0  0  0  3  0  0  0  0  0  0
  -16.9600  -27.6670   22.6680 C   0  0  0  0  0  3  0  0  0  0  0  0
  -25.7900  -32.3740   23.8890 C   0  0  0  0  0  3  0  0  0  0  0  0
  -25.4220  -33.7660   24.1850 N   0  0  0  0  0  0  0  0  0  0  0  0
  -25.7260  -34.8160   23.4110 C   0  0  0  0  0  0  0  0  0  0  0  0
  -26.4190  -34.7190   22.3960 O   0  0  0  0  0  0  0  0  0  0  0  0
  -24.8130  -33.9140   24.9760 H   0  0  0  0  0  0  0  0  0  0  0  0
  -23.9360  -36.5330   22.9930 C   0  0  0  0  0  1  0  0  0  0  0  0
  -25.1780  -36.1930   23.8320 C   0  0  0  0  0  3  0  0  0  0  0  0
  -27.2540  -37.1860   24.6880 C   0  0  0  0  0  1  0  0  0  0  0  0
  -26.1700  -37.2850   23.7150 N   0  0  0  0  0  0  0  0  0  0  0  0
  -25.7200  -38.1890   23.8300 H   0  0  0  0  0  0  0  0  0  0  0  0
  -26.2790  -31.6390   25.1970 C   0  0  1  0  0  0  0  0  0  0  0  0
  -25.1470  -31.3570   26.2130 C   0  0  0  0  0  1  0  0  0  0  0  0
  -26.9470  -30.2880   24.8470 C   0  0  0  0  0  1  0  0  0  0  0  0
  -27.3550  -32.4940   25.9050 C   0  0  0  0  0  1  0  0  0  0  0  0
  2  1  1  0
  3  1  2  0
  4  2  2  0
  5  3  1  0
  6  5  2  0
  6  4  1  0
  7  6  1  0
  9  8  2  0
  9  4  1  0
 10 16  1  0
 10  8  1  0
 11 16  1  0
 12 13  1  0
 12 11  1  0
 14 13  1  0
 14 21  1  0
 14 15  1  0
 16 15  1  0
 17 10  2  0
 18 19  2  0
 19 38  1  0
 20 19  1  0
 20 23  1  0
 21 22  1  0
 21 18  1  0
 22 20  2  0
 23 24  1  0
 24 25  2  0
 26 29  1  0
 26 25  1  0
 27 26  2  0
 28 27  1  0
 28 23  2  0
 29 30  1  0
 30 35  2  0
 30 31  1  0
 31 32  2  0
 32 33  1  0
 33 37  1  0
 34 33  2  0
 35 34  1  0
 36 35  1  0
 38 39  1  0
 39 42  1  0
 39 41  1  0
 40 38  2  0
 43 18  1  0
 43 44  1  0
 45 43  1  0
 46  9  1  0
 47 46  1  0
 48 50  1  0
 48  5  1  0
 50 51  1  0
 50 49  1  0
 52 51  1  0
 53 64  2  0
 54 52  1  0
 54 59  1  0
 55 63  1  0
 55 65  1  0
 56 62  1  0
 56 58  1  0
 57 63  1  0
 58 57  1  0
 59 58  2  0
 60 61  1  0
 60 54  2  0
 61 56  2  0
 62 55  1  0
 63 53  1  0
 65 67  2  0
 66 65  1  0
 68 66  1  0
 69 78  2  0
 69 74  1  0
 70 66  1  0
 70 74  1  0
 71 70  1  0
 72 73  1  0
 72 71  1  0
 73 69  1  0
 74 75  2  0
 75 76  1  0
 77 76  2  0
 78 77  1  0
 79 53  1  0
 79 80  1  0
 79 89  1  0
 80 83  1  0
 81 85  1  0
 81 80  1  0
 82 81  2  0
 85 84  1  0
 87 88  1  0
 87 85  1  0
 87 86  1  0
 89 92  1  1
 89 90  1  0
 91 89  1  0
M  ISO  4   8 100  10 100  51 101  52 101
M  END
>  <TORSDO>  (24) 
F 21

>  <SCORE>  (24) 
-11.843

>  <name>  (24) 
23

>  <ligand_id>  (24) 
23

>  <original_smiles>  (24) 
[H]OC(=C([H])C(=O)N1C([H])([H])C([H])([H])C([H])([H])C([H])(n2nc(-c3c([H])c([H])c(Oc4c([H])c([H])c(F)c([H])c4F)c([H])c3[H])c(C(=O)N([H])[H])c2N([H])[H])C1([H])[H])c1c([H])c([H])c([H])c(C([H])([H])C([H])(C([H])([H])[H])C([H])([H])Oc2c([H])c([H])c3c(c2[H])C([H])([H])N(C(=O)C([H])(N([H])C(=O)C([H])(N([H])C([H])([H])[H])C([H])([H])[H])C(C([H])([H])[H])(C([H])([H])[H])C([H])([H])[H])C([H])(C(=O)N([H])C2([H])c4c([H])c([H])c([H])c([H])c4C([H])([H])C([H])([H])C2([H])[H])C3([H])[H])c1C([H])([H])[H]

>  <smiles>  (24) 
[H]OC(=C([H])C(=O)N1C([H])([H])C([H])([H])C([H])([H])C([H])(n2nc(-c3c([H])c([H])c(Oc4c([H])c([H])c(F)c([H])c4F)c([H])c3[H])c(C(=O)N([H])[H])c2N([H])[H])C1([H])[H])c1c([H])c([H])c([H])c(C([H])([H])C([H])(C([H])([H])[H])C([H])([H])Oc2c([H])c([H])c3c(c2[H])C([H])([H])N(C(=O)C([H])(N([H])C(=O)C([H])(N([H])C([H])([H])[H])C([H])([H])[H])C(C([H])([H])[H])(C([H])([H])[H])C([H])([H])[H])C([H])(C(=O)N([H])C2([H])c4c([H])c([H])c([H])c([H])c4C([H])([H])C([H])([H])C2([H])[H])C3([H])[H])c1C([H])([H])[H]

$$$$
24:0:0
     RDKit          3D

 99107  0  0  1  0  0  0  0  0999 V2000
  -29.1160  -22.6760   23.1530 C   0  0  0  0  0  3  0  0  0  0  0  0
  -29.1350  -23.9540   23.7380 C   0  0  0  0  0  3  0  0  0  0  0  0
  -28.4680  -24.9290   21.6150 C   0  0  0  0  0  3  0  0  0  0  0  0
  -28.8850  -22.5150   21.7650 C   0  0  0  0  0  0  0  0  0  0  0  0
  -28.8940  -25.0950   22.9490 C   0  0  0  0  0  0  0  0  0  0  0  0
  -28.4890  -23.6530   21.0110 C   0  0  0  0  0  0  0  0  0  0  0  0
  -28.1790  -23.5670   19.5270 C   0  0  0  0  0  1  0  0  0  0  0  0
  -29.2010  -21.2250   21.1040 C   0  0  0  0  0  3  0  0  0  0  0  0
  -29.8630  -20.1850   21.6590 C   0  0  0  0  0  3  0  0  0  0  0  0
  -30.2960  -19.0560   20.8550 C   0  0  0  0  0  0  0  0  0  0  0  0
  -30.8540  -18.0960   21.6060 N   0  0  0  0  0  0  0  0  0  0  0  0
  -30.2460  -18.9880   19.6250 O   0  0  0  0  0  0  0  0  0  0  0  0
  -30.8530  -18.2430   22.6070 H   0  0  0  0  0  0  0  0  0  0  0  0
  -31.6440  -16.9600   21.1130 C   0  0  0  0  0  2  0  0  0  0  0  0
  -30.8790  -15.6220   21.1830 C   0  0  0  0  0  2  0  0  0  0  0  0
  -31.4960  -14.4580   20.3770 C   0  0  0  0  0  0  0  0  0  0  0  0
  -31.2850  -12.1080   19.6160 C   0  0  0  0  0  2  0  0  0  0  0  0
  -30.2910  -11.9880   18.4440 C   0  0  0  0  0  2  0  0  0  0  0  0
  -28.8380  -11.8880   18.9470 C   0  0  0  0  0  2  0  0  0  0  0  0
  -28.4970  -12.9910   19.9840 C   0  0  0  0  0  3  0  0  0  0  0  0
  -29.5760  -13.0130   21.0890 C   0  0  0  0  0  2  0  0  0  0  0  0
  -30.8770  -13.2520   20.4410 N   0  0  0  0  0  0  0  0  0  0  0  0
  -32.5120  -14.6470   19.6950 O   0  0  0  0  0  0  0  0  0  0  0  0
  -26.2480  -13.7620   20.9790 C   0  0  0  0  0  0  0  0  0  0  0  0
  -25.1200  -13.0660   21.3290 C   0  0  0  0  0  0  0  0  0  0  0  0
  -25.4060  -11.6920   21.0630 C   0  0  0  0  0  0  0  0  0  0  0  0
  -27.1560  -12.8110   20.5340 N   0  0  0  0  0  0  0  0  0  0  0  0
  -26.6540  -11.5550   20.6350 N   0  0  0  0  0  0  0  0  0  0  0  0
  -24.5460  -10.5040   21.1360 C   0  0  0  0  0  0  0  0  0  0  0  0
  -24.9150   -9.3720   21.8950 C   0  0  0  0  0  3  0  0  0  0  0  0
  -24.0640   -8.2490   21.9640 C   0  0  0  0  0  3  0  0  0  0  0  0
  -22.8280   -8.2510   21.2730 C   0  0  0  0  0  0  0  0  0  0  0  0
  -22.4770   -9.3730   20.5000 C   0  0  0  0  0  3  0  0  0  0  0  0
  -23.3280  -10.4880   20.4300 C   0  0  0  0  0  3  0  0  0  0  0  0
  -21.9510   -7.1950   21.2610 O   0  0  0  0  0  0  0  0  0  0  0  0
  -21.7160   -6.4420   22.3840 C   0  0  0  0  0  0  0  0  0  0  0  0
  -21.2400   -7.0180   23.5820 C   0  0  0  0  0  3  0  0  0  0  0  0
  -20.9460   -6.1960   24.6900 C   0  0  0  0  0  3  0  0  0  0  0  0
  -21.1190   -4.8020   24.5980 C   0  0  0  0  0  0  0  0  0  0  0  0
  -21.5900   -4.2280   23.4060 C   0  0  0  0  0  3  0  0  0  0  0  0
  -21.8850   -5.0450   22.3000 C   0  0  0  0  0  0  0  0  0  0  0  0
  -22.3170   -4.4840   21.1460 F   0  0  0  0  0  0  0  0  0  0  0  0
  -20.8310   -4.0130   25.6600 F   0  0  0  0  0  0  0  0  0  0  0  0
  -23.8180  -13.6500   21.7980 C   0  0  0  0  0  0  0  0  0  0  0  0
  -23.1050  -12.9420   22.6670 N   0  0  0  0  0  0  0  0  0  0  0  0
  -23.4460  -14.7620   21.4280 O   0  0  0  0  0  0  0  0  0  0  0  0
  -23.4150  -12.0370   22.9850 H   0  0  0  0  0  0  0  0  0  0  0  0
  -22.2340  -13.3120   23.0190 H   0  0  0  0  0  0  0  0  0  0  0  0
  -26.5690  -15.1140   20.9840 N   0  0  0  0  0  0  0  0  0  0  0  0
  -25.9040  -15.8280   21.2610 H   0  0  0  0  0  0  0  0  0  0  0  0
  -27.4610  -15.4980   20.6960 H   0  0  0  0  0  0  0  0  0  0  0  0
  -29.2720  -26.6440   24.9780 C   0  0  0  0  0  1  0  0  0  0  0  0
  -29.2840  -26.4910   23.4400 C   0  0  0  0  0  3  0  0  0  0  0  0
  -30.5990  -26.8690   22.8440 N   0  0  0  0  0  4  0  0  0  0  0  0
  -30.6200  -27.8740   22.7850 H   0  0  0  0  0  0  0  0  0  0  0  0
  -31.3360  -26.5790   23.4690 H   0  0  0  0  0  0  0  0  0  0  0  0
  -30.8520  -26.3090   21.4830 C   0  0  0  0  0  2  0  0  0  0  0  0
  -31.7060  -27.2140   20.5570 C   0  0  0  0  0  2  0  0  0  0  0  0
  -30.9540  -27.6560   19.4130 O   0  0  0  0  0  0  0  0  0  0  0  0
  -26.3420  -29.7500   24.3720 C   0  0  0  0  0  0  0  0  0  0  0  0
  -29.6670  -28.0510   19.6900 C   0  0  0  0  0  0  0  0  0  0  0  0
  -25.3510  -28.9510   22.2450 C   0  0  0  0  0  3  0  0  0  0  0  0
  -26.9830  -28.6590   20.3100 C   0  0  0  0  0  0  0  0  0  0  0  0
  -27.6630  -30.0370   22.2890 C   0  0  0  0  0  2  0  0  0  0  0  0
  -28.0190  -29.1730   21.1000 C   0  0  0  0  0  0  0  0  0  0  0  0
  -29.3590  -28.8760   20.7940 C   0  0  0  0  0  3  0  0  0  0  0  0
  -28.6190  -27.5550   18.8880 C   0  0  0  0  0  3  0  0  0  0  0  0
  -27.2740  -27.8440   19.2000 C   0  0  0  0  0  3  0  0  0  0  0  0
  -25.5760  -29.0460   20.7130 C   0  0  0  0  0  2  0  0  0  0  0  0
  -26.4710  -29.5670   23.0280 N   0  0  0  0  0  0  0  0  0  0  0  0
  -25.2910  -29.4550   24.9580 O   0  0  0  0  0  0  0  0  0  0  0  0
  -25.0840  -27.4790   22.6240 C   0  0  0  0  0  0  0  0  0  0  0  0
  -24.0100  -26.9030   22.0600 N   0  0  0  0  0  0  0  0  0  0  0  0
  -25.8430  -26.8730   23.3880 O   0  0  0  0  0  0  0  0  0  0  0  0
  -23.4420  -27.4690   21.4470 H   0  0  0  0  0  0  0  0  0  0  0  0
  -21.8190  -24.3440   20.7640 C   0  0  0  0  0  0  0  0  0  0  0  0
  -23.5770  -25.5200   22.2480 C   0  0  0  0  0  3  0  0  0  0  0  0
  -24.6000  -24.5330   21.6430 C   0  0  0  0  0  2  0  0  0  0  0  0
  -24.2740  -24.1410   20.1980 C   0  0  0  0  0  2  0  0  0  0  0  0
  -22.8920  -23.4860   20.1160 C   0  0  0  0  0  2  0  0  0  0  0  0
  -22.1420  -25.3070   21.7560 C   0  0  0  0  0  0  0  0  0  0  0  0
  -21.1070  -26.0960   22.3050 C   0  0  0  0  0  3  0  0  0  0  0  0
  -19.7750  -25.9320   21.8820 C   0  0  0  0  0  3  0  0  0  0  0  0
  -19.4590  -24.9690   20.9110 C   0  0  0  0  0  3  0  0  0  0  0  0
  -20.4790  -24.1750   20.3560 C   0  0  0  0  0  3  0  0  0  0  0  0
  -27.4920  -30.3640   25.2330 C   0  0  0  0  0  3  0  0  0  0  0  0
  -27.2110  -31.7970   25.3820 N   0  0  0  0  0  0  0  0  0  0  0  0
  -27.8210  -32.7660   24.6870 C   0  0  0  0  0  0  0  0  0  0  0  0
  -28.7400  -32.5420   23.8940 O   0  0  0  0  0  0  0  0  0  0  0  0
  -26.4310  -32.0450   25.9740 H   0  0  0  0  0  0  0  0  0  0  0  0
  -26.3680  -34.6060   23.7840 C   0  0  0  0  0  1  0  0  0  0  0  0
  -27.3380  -34.2110   24.9080 C   0  0  0  0  0  3  0  0  0  0  0  0
  -29.3240  -34.9860   26.1250 C   0  0  0  0  0  1  0  0  0  0  0  0
  -28.4380  -35.1990   24.9840 N   0  0  0  0  0  0  0  0  0  0  0  0
  -28.0690  -36.1440   25.0430 H   0  0  0  0  0  0  0  0  0  0  0  0
  -27.6560  -29.6700   26.6430 C   0  0  1  0  0  0  0  0  0  0  0  0
  -26.3470  -29.6130   27.4650 C   0  0  0  0  0  1  0  0  0  0  0  0
  -28.1730  -28.2200   26.4810 C   0  0  0  0  0  1  0  0  0  0  0  0
  -28.7170  -30.4270   27.4800 C   0  0  0  0  0  1  0  0  0  0  0  0
  1  2  1  0
  3  5  1  0
  4  1  2  0
  5 53  1  0
  5  2  2  0
  6  3  2  0
  6  4  1  0
  7  6  1  0
  8  9  2  0
  8  4  1  0
 10 11  1  0
 10  9  1  0
 11 13  1  0
 12 10  2  0
 14 15  1  0
 14 11  1  0
 16 22  1  0
 16 15  1  0
 17 22  1  0
 18 19  1  0
 18 17  1  0
 20 19  1  0
 20 27  1  0
 20 21  1  0
 22 21  1  0
 23 16  2  0
 24 49  1  0
 24 25  2  0
 25 44  1  0
 26 29  1  0
 26 25  1  0
 27 28  1  0
 27 24  1  0
 28 26  2  0
 29 30  1  0
 30 31  2  0
 32 31  1  0
 33 32  2  0
 34 33  1  0
 34 29  2  0
 35 32  1  0
 35 36  1  0
 36 37  1  0
 37 38  2  0
 39 38  1  0
 39 43  1  0
 40 39  2  0
 41 36  2  0
 41 40  1  0
 42 41  1  0
 44 45  1  0
 45 47  1  0
 45 48  1  0
 46 44  2  0
 49 50  1  0
 51 49  1  0
 53 52  1  0
 54 53  1  0
 54 56  1  0
 55 54  1  0
 57 54  1  0
 58 57  1  0
 59 61  1  0
 59 58  1  0
 60 71  2  0
 61 66  1  0
 62 72  1  0
 62 70  1  0
 63 69  1  0
 63 65  1  0
 64 70  1  0
 65 64  1  0
 66 65  2  0
 67 68  1  0
 67 61  2  0
 68 63  2  0
 69 62  1  0
 70 60  1  0
 72 74  2  0
 73 72  1  0
 75 73  1  0
 76 81  1  0
 77 73  1  0
 78 77  1  0
 79 78  1  0
 80 79  1  0
 80 76  1  0
 81 77  1  0
 81 82  2  0
 83 82  1  0
 84 83  2  0
 85 76  2  0
 85 84  1  0
 86 60  1  0
 86 87  1  0
 86 96  1  0
 87 90  1  0
 88 92  1  0
 88 87  1  0
 89 88  2  0
 92 91  1  0
 92 94  1  0
 94 95  1  0
 94 93  1  0
 96 97  1  1
 96 99  1  0
 98 96  1  0
M  ISO  4  15 100  16 100  58 101  59 101
M  END
>  <TORSDO>  (25) 
F 24

>  <SCORE>  (25) 
-7.050

>  <name>  (25) 
24

>  <ligand_id>  (25) 
24

>  <original_smiles>  (25) 
[H]C(C(=O)N([H])C([H])([H])C([H])([H])C(=O)N1C([H])([H])C([H])([H])C([H])([H])C([H])(n2nc(-c3c([H])c([H])c(Oc4c([H])c([H])c(F)c([H])c4F)c([H])c3[H])c(C(=O)N([H])[H])c2N([H])[H])C1([H])[H])=C([H])c1c([H])c([H])c(C([H])(C([H])([H])[H])[N+]([H])([H])C([H])([H])C([H])([H])Oc2c([H])c([H])c3c(c2[H])C([H])([H])N(C(=O)C([H])(N([H])C(=O)C([H])(N([H])C([H])([H])[H])C([H])([H])[H])C(C([H])([H])[H])(C([H])([H])[H])C([H])([H])[H])C([H])(C(=O)N([H])C2([H])c4c([H])c([H])c([H])c([H])c4C([H])([H])C([H])([H])C2([H])[H])C3([H])[H])c([H])c1C([H])([H])[H]

>  <smiles>  (25) 
[H]C(C(=O)N([H])C([H])([H])C([H])([H])C(=O)N1C([H])([H])C([H])([H])C([H])([H])C([H])(n2nc(-c3c([H])c([H])c(Oc4c([H])c([H])c(F)c([H])c4F)c([H])c3[H])c(C(=O)N([H])[H])c2N([H])[H])C1([H])[H])=C([H])c1c([H])c([H])c(C([H])(C([H])([H])[H])[N+]([H])([H])C([H])([H])C([H])([H])Oc2c([H])c([H])c3c(c2[H])C([H])([H])N(C(=O)C([H])(N([H])C(=O)C([H])(N([H])C([H])([H])[H])C([H])([H])[H])C(C([H])([H])[H])(C([H])([H])[H])C([H])([H])[H])C([H])(C(=O)N([H])C2([H])c4c([H])c([H])c([H])c([H])c4C([H])([H])C([H])([H])C2([H])[H])C3([H])[H])c([H])c1C([H])([H])[H]

$$$$
25:0:0
     RDKit          3D

 94103  0  0  1  0  0  0  0  0999 V2000
  -28.1650  -20.9380   19.5680 C   0  0  0  0  0  3  0  0  0  0  0  0
  -28.6690  -19.6680   19.9310 C   0  0  0  0  0  3  0  0  0  0  0  0
  -30.6900  -20.7240   20.7540 C   0  0  0  0  0  3  0  0  0  0  0  0
  -28.9250  -22.1150   19.7670 C   0  0  0  0  0  0  0  0  0  0  0  0
  -29.9460  -19.5380   20.5280 C   0  0  0  0  0  0  0  0  0  0  0  0
  -30.1980  -22.0000   20.3810 C   0  0  0  0  0  0  0  0  0  0  0  0
  -28.3800  -23.4470   19.3350 C   0  0  0  0  0  0  0  0  0  0  0  0
  -31.0730  -23.2260   20.6210 C   0  0  0  0  0  2  0  0  0  0  0  0
  -30.3580  -24.5780   20.3910 C   0  0  0  0  0  2  0  0  0  0  0  0
  -29.4110  -24.5960   19.1660 C   0  0  1  0  0  0  0  0  0  0  0  0
  -30.2220  -24.3080   17.8760 C   0  0  0  0  0  1  0  0  0  0  0  0
  -27.1910  -23.6230   19.0540 O   0  0  0  0  0  0  0  0  0  0  0  0
  -30.5340  -18.2060   20.9300 C   0  0  0  0  0  0  0  0  0  0  0  0
  -31.6290  -18.1260   21.4960 O   0  0  0  0  0  0  0  0  0  0  0  0
  -29.7650  -16.9050   20.6000 C   0  0  0  0  0  2  0  0  0  0  0  0
  -30.1780  -15.6340   21.4110 C   0  0  0  0  0  2  0  0  0  0  0  0
  -30.7240  -14.4860   20.5290 C   0  0  0  0  0  0  0  0  0  0  0  0
  -30.4040  -12.3750   19.2790 C   0  0  0  0  0  2  0  0  0  0  0  0
  -29.4560  -12.6170   18.0860 C   0  0  0  0  0  2  0  0  0  0  0  0
  -27.9810  -12.4810   18.5150 C   0  0  0  0  0  2  0  0  0  0  0  0
  -27.6590  -13.2780   19.8080 C   0  0  0  0  0  3  0  0  0  0  0  0
  -28.7150  -12.9890   20.8980 C   0  0  0  0  0  2  0  0  0  0  0  0
  -30.0380  -13.3220   20.3470 N   0  0  0  0  0  0  0  0  0  0  0  0
  -31.7980  -14.6980   19.9590 O   0  0  0  0  0  0  0  0  0  0  0  0
  -25.2570  -13.8910   20.4990 C   0  0  0  0  0  0  0  0  0  0  0  0
  -24.1860  -13.1210   20.8670 C   0  0  0  0  0  0  0  0  0  0  0  0
  -24.6450  -11.7690   20.8430 C   0  0  0  0  0  0  0  0  0  0  0  0
  -26.3020  -13.0080   20.2790 N   0  0  0  0  0  0  0  0  0  0  0  0
  -25.9370  -11.7260   20.5400 N   0  0  0  0  0  0  0  0  0  0  0  0
  -23.9170  -10.5080   21.0370 C   0  0  0  0  0  0  0  0  0  0  0  0
  -24.3520   -9.5400   21.9690 C   0  0  0  0  0  3  0  0  0  0  0  0
  -23.6250   -8.3440   22.1510 C   0  0  0  0  0  3  0  0  0  0  0  0
  -22.4480   -8.1070   21.4000 C   0  0  0  0  0  0  0  0  0  0  0  0
  -22.0330   -9.0640   20.4580 C   0  0  0  0  0  3  0  0  0  0  0  0
  -22.7600  -10.2520   20.2740 C   0  0  0  0  0  3  0  0  0  0  0  0
  -21.6930   -6.9630   21.4900 O   0  0  0  0  0  0  0  0  0  0  0  0
  -21.6520   -6.2170   22.6400 C   0  0  0  0  0  0  0  0  0  0  0  0
  -21.2440   -6.7710   23.8740 C   0  0  0  0  0  3  0  0  0  0  0  0
  -21.1490   -5.9520   25.0160 C   0  0  0  0  0  3  0  0  0  0  0  0
  -21.4530   -4.5800   24.9270 C   0  0  0  0  0  0  0  0  0  0  0  0
  -21.8540   -4.0260   23.6990 C   0  0  0  0  0  3  0  0  0  0  0  0
  -21.9500   -4.8420   22.5590 C   0  0  0  0  0  0  0  0  0  0  0  0
  -22.3180   -4.2980   21.3730 F   0  0  0  0  0  0  0  0  0  0  0  0
  -21.3530   -3.7920   26.0230 F   0  0  0  0  0  0  0  0  0  0  0  0
  -22.7890  -13.6010   21.1340 C   0  0  0  0  0  0  0  0  0  0  0  0
  -22.0570  -12.9100   22.0010 N   0  0  0  0  0  0  0  0  0  0  0  0
  -22.3530  -14.6250   20.6090 O   0  0  0  0  0  0  0  0  0  0  0  0
  -22.4220  -12.0810   22.4470 H   0  0  0  0  0  0  0  0  0  0  0  0
  -21.1210  -13.2150   22.2230 H   0  0  0  0  0  0  0  0  0  0  0  0
  -25.4220  -15.2600   20.3160 N   0  0  0  0  0  0  0  0  0  0  0  0
  -24.6560  -15.9160   20.4190 H   0  0  0  0  0  0  0  0  0  0  0  0
  -26.2780  -15.6970   19.9940 H   0  0  0  0  0  0  0  0  0  0  0  0
  -28.7620  -26.0120   18.9670 C   0  0  0  0  0  2  0  0  0  0  0  0
  -28.3680  -26.7080   20.1630 O   0  0  0  0  0  0  0  0  0  0  0  0
  -24.5790  -31.9010   23.2490 C   0  0  0  0  0  0  0  0  0  0  0  0
  -27.2000  -27.4460   20.1420 C   0  0  0  0  0  0  0  0  0  0  0  0
  -23.3620  -30.5020   21.6130 C   0  0  0  0  0  3  0  0  0  0  0  0
  -24.8040  -28.9580   20.1820 C   0  0  0  0  0  0  0  0  0  0  0  0
  -25.8890  -30.8490   21.4070 C   0  0  0  0  0  2  0  0  0  0  0  0
  -25.9660  -29.4760   20.7680 C   0  0  0  0  0  0  0  0  0  0  0  0
  -27.1630  -28.7210   20.7550 C   0  0  0  0  0  3  0  0  0  0  0  0
  -26.0100  -26.9350   19.5750 C   0  0  0  0  0  3  0  0  0  0  0  0
  -24.8200  -27.6850   19.5900 C   0  0  0  0  0  3  0  0  0  0  0  0
  -23.5630  -29.8220   20.2330 C   0  0  0  0  0  2  0  0  0  0  0  0
  -24.6280  -31.1000   22.1470 N   0  0  0  0  0  0  0  0  0  0  0  0
  -23.5000  -32.1790   23.7920 O   0  0  0  0  0  0  0  0  0  0  0  0
  -22.7100  -29.4840   22.5770 C   0  0  0  0  0  0  0  0  0  0  0  0
  -21.3850  -29.3050   22.4520 N   0  0  0  0  0  0  0  0  0  0  0  0
  -23.3940  -28.8590   23.3910 O   0  0  0  0  0  0  0  0  0  0  0  0
  -20.8950  -29.8610   21.7660 H   0  0  0  0  0  0  0  0  0  0  0  0
  -18.0100  -28.1140   22.9530 C   0  0  0  0  0  0  0  0  0  0  0  0
  -20.5680  -28.3700   23.2250 C   0  0  0  0  0  3  0  0  0  0  0  0
  -20.6690  -26.9380   22.6530 C   0  0  0  0  0  2  0  0  0  0  0  0
  -19.5680  -26.6120   21.6400 C   0  0  0  0  0  2  0  0  0  0  0  0
  -18.1860  -26.7620   22.2830 C   0  0  0  0  0  2  0  0  0  0  0  0
  -19.1300  -28.8760   23.3810 C   0  0  0  0  0  0  0  0  0  0  0  0
  -18.9130  -30.1430   23.9670 C   0  0  0  0  0  3  0  0  0  0  0  0
  -17.6080  -30.6470   24.1280 C   0  0  0  0  0  3  0  0  0  0  0  0
  -16.5030  -29.8810   23.7180 C   0  0  0  0  0  3  0  0  0  0  0  0
  -16.7050  -28.6160   23.1360 C   0  0  0  0  0  3  0  0  0  0  0  0
  -25.8690  -32.5290   23.8630 C   0  0  0  0  0  3  0  0  0  0  0  0
  -26.3900  -31.7570   25.1370 C   0  0  1  0  0  0  0  0  0  0  0  0
  -25.3030  -31.5230   26.2100 C   0  0  0  0  0  1  0  0  0  0  0  0
  -26.9670  -30.3770   24.7410 C   0  0  0  0  0  1  0  0  0  0  0  0
  -27.5480  -32.5480   25.7910 C   0  0  0  0  0  1  0  0  0  0  0  0
  -25.5680  -33.9290   24.1900 N   0  0  0  0  0  0  0  0  0  0  0  0
  -25.9040  -34.9770   23.4270 C   0  0  0  0  0  0  0  0  0  0  0  0
  -26.5730  -34.8680   22.3960 O   0  0  0  0  0  0  0  0  0  0  0  0
  -24.9760  -34.0880   24.9920 H   0  0  0  0  0  0  0  0  0  0  0  0
  -24.1850  -36.7770   23.0670 C   0  0  0  0  0  1  0  0  0  0  0  0
  -25.4220  -36.3690   23.8820 C   0  0  0  0  0  3  0  0  0  0  0  0
  -27.5600  -37.2430   24.7140 C   0  0  0  0  0  1  0  0  0  0  0  0
  -26.4600  -37.4160   23.7690 N   0  0  0  0  0  0  0  0  0  0  0  0
  -26.0580  -38.3380   23.9150 H   0  0  0  0  0  0  0  0  0  0  0  0
  1  4  2  0
  1  2  1  0
  2  5  2  0
  4  6  1  0
  5  3  1  0
  5 13  1  0
  6  8  1  0
  6  3  2  0
  7  4  1  0
  9  8  1  0
 10 11  1  6
 10  7  1  0
 10  9  1  0
 12  7  2  0
 13 14  2  0
 15 13  1  0
 15 16  1  0
 17 16  1  0
 18 23  1  0
 19 20  1  0
 19 18  1  0
 21 20  1  0
 21 28  1  0
 21 22  1  0
 23 17  1  0
 23 22  1  0
 24 17  2  0
 25 26  2  0
 26 45  1  0
 27 26  1  0
 27 30  1  0
 28 25  1  0
 28 29  1  0
 29 27  2  0
 30 31  1  0
 31 32  2  0
 33 36  1  0
 33 32  1  0
 34 33  2  0
 35 34  1  0
 35 30  2  0
 36 37  1  0
 37 38  1  0
 38 39  2  0
 40 39  1  0
 40 44  1  0
 41 40  2  0
 42 37  2  0
 42 41  1  0
 43 42  1  0
 45 46  1  0
 46 49  1  0
 46 48  1  0
 47 45  2  0
 50 51  1  0
 50 25  1  0
 52 50  1  0
 53 10  1  0
 53 54  1  0
 55 66  2  0
 56 54  1  0
 56 61  1  0
 57 65  1  0
 57 67  1  0
 58 64  1  0
 58 60  1  0
 59 65  1  0
 60 59  1  0
 61 60  2  0
 62 63  1  0
 62 56  2  0
 63 58  2  0
 64 57  1  0
 65 55  1  0
 67 69  2  0
 68 67  1  0
 70 68  1  0
 71 80  2  0
 71 76  1  0
 72 68  1  0
 72 76  1  0
 73 72  1  0
 74 75  1  0
 74 73  1  0
 75 71  1  0
 76 77  2  0
 77 78  1  0
 79 78  2  0
 80 79  1  0
 81 55  1  0
 81 86  1  0
 81 82  1  0
 82 85  1  1
 82 83  1  0
 84 82  1  0
 86 89  1  0
 87 91  1  0
 87 86  1  0
 88 87  2  0
 91 90  1  0
 93 91  1  0
 93 94  1  0
 93 92  1  0
M  ISO  4  16 100  17 100  53 101  54 101
M  END
>  <TORSDO>  (26) 
F 20

>  <SCORE>  (26) 
-14.246

>  <name>  (26) 
25

>  <ligand_id>  (26) 
25

>  <original_smiles>  (26) 
[H]c1c([H])c([H])c2c(c1[H])C([H])([H])C([H])([H])C([H])([H])C2([H])N([H])C(=O)C1([H])N(C(=O)C([H])(N([H])C(=O)C([H])(N([H])C([H])([H])[H])C([H])([H])[H])C(C([H])([H])[H])(C([H])([H])[H])C([H])([H])[H])C([H])([H])c2c([H])c(OC([H])([H])C3(C([H])([H])[H])C(=O)c4c([H])c([H])c(C(=O)C([H])([H])C([H])([H])C(=O)N5C([H])([H])C([H])([H])C([H])([H])C([H])(n6nc(-c7c([H])c([H])c(Oc8c([H])c([H])c(F)c([H])c8F)c([H])c7[H])c(C(=O)N([H])[H])c6N([H])[H])C5([H])[H])c([H])c4C([H])([H])C3([H])[H])c([H])c([H])c2C1([H])[H]

>  <smiles>  (26) 
[H]c1c([H])c([H])c2c(c1[H])C([H])([H])C([H])([H])C([H])([H])C2([H])N([H])C(=O)C1([H])N(C(=O)C([H])(N([H])C(=O)C([H])(N([H])C([H])([H])[H])C([H])([H])[H])C(C([H])([H])[H])(C([H])([H])[H])C([H])([H])[H])C([H])([H])c2c([H])c(OC([H])([H])C3(C([H])([H])[H])C(=O)c4c([H])c([H])c(C(=O)C([H])([H])C([H])([H])C(=O)N5C([H])([H])C([H])([H])C([H])([H])C([H])(n6nc(-c7c([H])c([H])c(Oc8c([H])c([H])c(F)c([H])c8F)c([H])c7[H])c(C(=O)N([H])[H])c6N([H])[H])C5([H])[H])c([H])c4C([H])([H])C3([H])[H])c([H])c([H])c2C1([H])[H]

$$$$
26:0:0
     RDKit          3D

 94100  0  0  1  0  0  0  0  0999 V2000
  -32.4210  -20.5160    9.1500 C   0  0  0  0  0  3  0  0  0  0  0  0
  -32.3250  -19.0770   11.0650 C   0  0  0  0  0  3  0  0  0  0  0  0
  -32.5210  -19.3610    8.3130 C   0  0  0  0  0  3  0  0  0  0  0  0
  -32.4220  -17.9220   10.2280 C   0  0  0  0  0  3  0  0  0  0  0  0
  -32.3010  -20.4120   10.5600 C   0  0  0  0  0  0  0  0  0  0  0  0
  -32.5150  -18.0300    8.8170 C   0  0  0  0  0  0  0  0  0  0  0  0
  -32.1180  -21.6170   11.5180 C   0  0  0  0  0  0  0  0  0  0  0  0
  -33.0840  -22.3240   11.8270 O   0  0  0  0  0  0  0  0  0  0  0  0
  -30.7120  -22.0120   12.1160 C   0  0  0  0  0  2  0  0  0  0  0  0
  -30.4940  -21.7080   13.5620 O   0  0  0  0  0  0  0  0  0  0  0  0
  -35.5770  -17.4310   16.2570 C   0  0  0  0  0  0  0  0  0  0  0  0
  -30.8050  -20.4410   14.0650 C   0  0  0  0  0  0  0  0  0  0  0  0
  -33.6020  -16.3200   15.2780 C   0  0  0  0  0  3  0  0  0  0  0  0
  -31.5750  -17.8140   14.8610 C   0  0  0  0  0  0  0  0  0  0  0  0
  -33.3890  -18.6370   16.3590 C   0  0  0  0  0  2  0  0  0  0  0  0
  -32.2420  -18.9210   15.3990 C   0  0  0  0  0  0  0  0  0  0  0  0
  -31.8530  -20.2370   15.0130 C   0  0  0  0  0  3  0  0  0  0  0  0
  -30.1060  -19.2950   13.6180 C   0  0  0  0  0  3  0  0  0  0  0  0
  -30.4960  -18.0000   13.9880 C   0  0  0  0  0  3  0  0  0  0  0  0
  -32.0560  -16.4350   15.2600 C   0  0  0  0  0  2  0  0  0  0  0  0
  -34.2450  -17.4850   15.9670 N   0  0  0  0  0  0  0  0  0  0  0  0
  -36.2530  -16.4260   15.9900 O   0  0  0  0  0  0  0  0  0  0  0  0
  -34.1090  -16.1110   13.8320 C   0  0  0  0  0  0  0  0  0  0  0  0
  -34.1200  -14.8480   13.3750 N   0  0  0  0  0  0  0  0  0  0  0  0
  -34.4580  -17.0700   13.1380 O   0  0  0  0  0  0  0  0  0  0  0  0
  -33.8200  -14.1160   14.0040 H   0  0  0  0  0  0  0  0  0  0  0  0
  -34.2680  -12.0020   11.1470 C   0  0  0  0  0  0  0  0  0  0  0  0
  -34.5260  -14.4160   12.0360 C   0  0  0  0  0  3  0  0  0  0  0  0
  -33.4650  -14.8100   10.9820 C   0  0  0  0  0  2  0  0  0  0  0  0
  -32.4440  -13.7010   10.7120 C   0  0  0  0  0  2  0  0  0  0  0  0
  -33.1430  -12.4310   10.2210 C   0  0  0  0  0  2  0  0  0  0  0  0
  -34.9060  -12.9310   12.0110 C   0  0  0  0  0  0  0  0  0  0  0  0
  -35.9240  -12.4740   12.8760 C   0  0  0  0  0  3  0  0  0  0  0  0
  -36.3090  -11.1200   12.8840 C   0  0  0  0  0  3  0  0  0  0  0  0
  -35.6860  -10.2080   12.0140 C   0  0  0  0  0  3  0  0  0  0  0  0
  -34.6710  -10.6500   11.1470 C   0  0  0  0  0  3  0  0  0  0  0  0
  -36.3060  -18.6160   16.9610 C   0  0  0  0  0  3  0  0  0  0  0  0
  -37.1830  -18.0460   17.9940 N   0  0  0  0  0  0  0  0  0  0  0  0
  -36.7870  -17.7100   19.2280 C   0  0  0  0  0  0  0  0  0  0  0  0
  -35.6430  -17.9170   19.6420 O   0  0  0  0  0  0  0  0  0  0  0  0
  -38.1200  -17.8010   17.7060 H   0  0  0  0  0  0  0  0  0  0  0  0
  -37.7270  -15.5120   20.0080 C   0  0  0  0  0  1  0  0  0  0  0  0
  -37.8240  -17.0390   20.1500 C   0  0  0  0  0  3  0  0  0  0  0  0
  -38.3100  -18.6970   21.8950 C   0  0  0  0  0  1  0  0  0  0  0  0
  -37.6810  -17.4190   21.5730 N   0  0  0  0  0  0  0  0  0  0  0  0
  -38.0820  -16.7070   22.1780 H   0  0  0  0  0  0  0  0  0  0  0  0
  -37.1360  -19.5140   15.9630 C   0  0  1  0  0  0  0  0  0  0  0  0
  -38.5730  -18.9970   15.7120 C   0  0  0  0  0  1  0  0  0  0  0  0
  -36.4270  -19.6140   14.5920 C   0  0  0  0  0  1  0  0  0  0  0  0
  -37.2330  -20.9560   16.5110 C   0  0  0  0  0  1  0  0  0  0  0  0
  -33.7380  -16.5720    7.1290 C   0  0  0  0  0  1  0  0  0  0  0  0
  -32.3820  -16.8090    7.8180 C   0  0  0  0  0  3  0  0  0  0  0  0
  -31.2330  -16.6920    6.7270 C   0  0  0  0  0  0  0  0  0  0  0  0
  -30.9120  -17.8370    6.0490 N   0  0  0  0  0  0  0  0  0  0  0  0
  -30.6420  -15.6300    6.5340 O   0  0  0  0  0  0  0  0  0  0  0  0
  -31.5830  -18.5820    6.2240 H   0  0  0  0  0  0  0  0  0  0  0  0
  -29.9330  -18.2100    4.9460 C   0  0  0  0  0  2  0  0  0  0  0  0
  -28.3850  -17.7560    5.2050 C   0  0  0  0  0  1  0  0  0  0  0  0
  -27.8680  -17.1680    3.3210 C   0  0  0  0  0  2  0  0  0  0  0  0
  -25.4700  -16.7710    2.2340 C   0  0  0  0  0  3  0  0  0  0  0  0
  -24.4450  -17.9370    2.6680 C   0  0  0  0  0  3  0  0  0  0  0  0
  -24.5320  -18.5260    4.1110 C   0  0  0  0  0  2  0  0  0  0  0  0
  -25.9390  -18.4000    4.3290 C   0  0  0  0  0  3  0  0  0  0  0  0
  -26.1300  -16.7700    4.3170 C   0  0  0  0  0  2  0  0  0  0  0  0
  -26.6550  -16.5810    3.1330 N   0  0  0  0  0  0  0  0  0  0  0  0
  -28.2050  -17.4200    2.1040 O   0  0  0  0  0  1  0  0  0  0  0  0
  -26.0270  -19.0490    7.3160 C   0  0  0  0  0  2  0  0  0  0  0  0
  -26.3710  -20.6580    7.7600 C   0  0  0  0  0  3  0  0  0  0  0  0
  -27.0200  -21.5660    6.3760 C   0  0  0  0  0  3  0  0  0  0  0  0
  -26.5100  -18.8910    5.4430 N   0  0  0  0  0  2  0  0  0  0  0  0
  -27.0580  -20.5950    5.0140 N   0  0  0  0  0  2  0  0  0  0  0  0
  -28.4350  -22.2460    6.3740 C   0  0  0  0  0  0  0  0  0  0  0  0
  -28.4940  -23.6350    6.1500 C   0  0  0  0  0  3  0  0  0  0  0  0
  -29.7020  -24.3760    6.1410 C   0  0  0  0  0  3  0  0  0  0  0  0
  -30.9550  -23.7610    6.3400 C   0  0  0  0  0  0  0  0  0  0  0  0
  -30.9600  -22.3510    6.4490 C   0  0  0  0  0  3  0  0  0  0  0  0
  -29.7350  -21.6110    6.4410 C   0  0  0  0  0  3  0  0  0  0  0  0
  -32.1440  -24.4800    6.3880 O   0  0  0  0  0  0  0  0  0  0  0  0
  -32.5580  -25.1160    7.5480 C   0  0  0  0  0  0  0  0  0  0  0  0
  -33.2450  -24.4190    8.5680 C   0  0  0  0  0  3  0  0  0  0  0  0
  -33.6830  -25.0930    9.7270 C   0  0  0  0  0  3  0  0  0  0  0  0
  -33.4520  -26.4750    9.8720 C   0  0  0  0  0  0  0  0  0  0  0  0
  -32.7840  -27.1800    8.8550 C   0  0  0  0  0  3  0  0  0  0  0  0
  -32.3450  -26.5060    7.6980 C   0  0  0  0  0  0  0  0  0  0  0  0
  -31.7220  -27.2100    6.7230 F   0  0  0  0  0  0  0  0  0  0  0  0
  -33.8700  -27.1230   10.9860 F   0  0  0  0  0  0  0  0  0  0  0  0
  -27.0700  -20.8590    9.1060 C   0  0  0  0  0  0  0  0  0  0  0  0
  -26.6980  -21.8660    9.8980 N   0  0  0  0  0  0  0  0  0  0  0  0
  -28.0030  -20.1380    9.4540 O   0  0  0  0  0  0  0  0  0  0  0  0
  -25.9440  -22.4860    9.6450 H   0  0  0  0  0  0  0  0  0  0  0  0
  -27.1660  -22.0030   10.7820 H   0  0  0  0  0  0  0  0  0  0  0  0
  -25.3190  -18.1230    8.0170 N   0  0  0  0  0  0  0  0  0  0  0  0
  -25.4580  -18.1080    9.0220 H   0  0  0  0  0  0  0  0  0  0  0  0
  -25.2790  -17.1830    7.6370 H   0  0  0  0  0  0  0  0  0  0  0  0
  1  5  1  0
  3  6  1  0
  3  1  2  0
  4  2  1  0
  5  2  2  0
  5  7  1  0
  6  4  2  0
  7  8  2  0
  7  9  1  0
  9 10  1  0
 10 12  1  0
 12 17  1  0
 13 23  1  0
 13 21  1  0
 14 20  1  0
 14 16  1  0
 16 15  1  0
 17 16  2  0
 18 19  1  0
 18 12  2  0
 19 14  2  0
 20 13  1  0
 21 11  1  0
 21 15  1  0
 22 11  2  0
 24 23  1  0
 24 26  1  0
 25 23  2  0
 27 36  2  0
 27 32  1  0
 28 24  1  0
 29 28  1  0
 30 29  1  0
 31 30  1  0
 31 27  1  0
 32 28  1  0
 32 33  2  0
 33 34  1  0
 35 34  2  0
 36 35  1  0
 37 11  1  0
 37 38  1  0
 38 39  1  0
 39 40  2  0
 39 43  1  0
 41 38  1  0
 43 42  1  0
 43 45  1  0
 45 44  1  0
 45 46  1  0
 47 50  1  1
 47 37  1  0
 48 47  1  0
 49 47  1  0
 52 51  1  0
 52  6  1  0
 53 52  1  0
 54 56  1  0
 54 53  1  0
 55 53  2  0
 57 58  1  0
 57 54  1  0
 60 61  2  0
 60 65  1  0
 61 62  1  0
 62 63  1  0
 63 70  1  0
 64 63  1  0
 65 59  1  0
 65 64  1  0
 66 59  1  0
 67 92  1  0
 68 67  1  0
 68 87  1  0
 69 71  1  0
 69 68  1  0
 71 70  1  0
 72 69  1  0
 72 77  1  0
 73 72  2  0
 74 73  1  0
 74 75  2  0
 75 78  1  0
 75 76  1  0
 77 76  2  0
 78 79  1  0
 79 84  2  0
 79 80  1  0
 80 81  2  0
 81 82  1  0
 82 86  1  0
 83 82  2  0
 84 83  1  0
 85 84  1  0
 87 89  2  0
 87 88  1  0
 88 91  1  0
 90 88  1  0
 92 93  1  0
 94 92  1  0
M  ISO  4   9 101  10 101  58 100  59 100
M  END
>  <TORSDO>  (27) 
F 22

>  <SCORE>  (27) 
-2.585

>  <name>  (27) 
26

>  <ligand_id>  (27) 
26

>  <original_smiles>  (27) 
[H]c1c([H])c([H])c2c(c1[H])C([H])([H])C([H])([H])C([H])([H])C2([H])N([H])C(=O)C1([H])N(C(=O)C([H])(N([H])C(=O)C([H])(N([H])C([H])([H])[H])C([H])([H])[H])C(C([H])([H])[H])(C([H])([H])[H])C([H])([H])[H])C([H])([H])c2c([H])c(OC([H])([H])C(=O)c3c([H])c([H])c(C([H])(C(=O)N([H])C([H])([H])C([H])([H])C(=O)N4C([H])([H])C([H])([H])C([H])([H])C([H])(n5nc(-c6c([H])c([H])c(Oc7c([H])c([H])c(F)c([H])c7F)c([H])c6[H])c(C(=O)N([H])[H])c5N([H])[H])C4([H])[H])C([H])([H])[H])c([H])c3[H])c([H])c([H])c2C1([H])[H]

>  <smiles>  (27) 
[H]c1c([H])c([H])c2c(c1[H])C([H])([H])C([H])([H])C([H])([H])C2([H])N([H])C(=O)C1([H])N(C(=O)C([H])(N([H])C(=O)C([H])(N([H])C([H])([H])[H])C([H])([H])[H])C(C([H])([H])[H])(C([H])([H])[H])C([H])([H])[H])C([H])([H])c2c([H])c(OC([H])([H])C(=O)c3c([H])c([H])c(C([H])(C(=O)N([H])C([H])([H])C([H])([H])C(=O)N4C([H])([H])C([H])([H])C([H])([H])C([H])(n5nc(-c6c([H])c([H])c(Oc7c([H])c([H])c(F)c([H])c7F)c([H])c6[H])c(C(=O)N([H])[H])c5N([H])[H])C4([H])[H])C([H])([H])[H])c([H])c3[H])c([H])c([H])c2C1([H])[H]

$$$$
27:0:0
     RDKit          3D

 92100  0  0  1  0  0  0  0  0999 V2000
  -28.0230  -19.6310   20.1640 C   0  0  0  0  0  3  0  0  0  0  0  0
  -27.1180  -20.6670   19.8760 C   0  0  0  0  0  3  0  0  0  0  0  0
  -29.7540  -21.3050   20.4960 C   0  0  0  0  0  3  0  0  0  0  0  0
  -29.3740  -19.9060   20.4500 C   0  0  0  0  0  0  0  0  0  0  0  0
  -28.8460  -22.3980   20.2010 C   0  0  0  0  0  0  0  0  0  0  0  0
  -27.5190  -22.0180   19.8600 C   0  0  0  0  0  0  0  0  0  0  0  0
  -26.5670  -22.9470   19.4500 N   0  0  0  0  0  0  0  0  0  0  0  0
  -26.8770  -23.8670   19.1640 H   0  0  0  0  0  0  0  0  0  0  0  0
  -25.7610  -22.6180   18.9250 H   0  0  0  0  0  0  0  0  0  0  0  0
  -30.3110  -18.7200   20.7600 C   0  0  0  0  0  0  0  0  0  0  0  0
  -31.2870  -18.8630   21.5010 O   0  0  0  0  0  0  0  0  0  0  0  0
  -30.1110  -17.3000   20.0860 C   0  0  0  0  0  2  0  0  0  0  0  0
  -30.2500  -15.9650   20.9560 C   0  0  0  0  0  2  0  0  0  0  0  0
  -30.8760  -14.6810   20.2670 C   0  0  0  0  0  0  0  0  0  0  0  0
  -30.5790  -12.4970   19.0950 C   0  0  0  0  0  2  0  0  0  0  0  0
  -29.6060  -12.6950   17.9140 C   0  0  0  0  0  2  0  0  0  0  0  0
  -28.1420  -12.5400   18.3750 C   0  0  0  0  0  2  0  0  0  0  0  0
  -27.8370  -13.3440   19.6660 C   0  0  0  0  0  3  0  0  0  0  0  0
  -28.9250  -13.1220   20.7380 C   0  0  0  0  0  2  0  0  0  0  0  0
  -30.2200  -13.4780   20.1430 N   0  0  0  0  0  0  0  0  0  0  0  0
  -31.9960  -14.8180   19.7650 O   0  0  0  0  0  0  0  0  0  0  0  0
  -25.4600  -13.9330   20.4430 C   0  0  0  0  0  0  0  0  0  0  0  0
  -24.3970  -13.1580   20.8220 C   0  0  0  0  0  0  0  0  0  0  0  0
  -24.8540  -11.8050   20.7610 C   0  0  0  0  0  0  0  0  0  0  0  0
  -26.4970  -13.0540   20.1740 N   0  0  0  0  0  0  0  0  0  0  0  0
  -26.1390  -11.7680   20.4240 N   0  0  0  0  0  0  0  0  0  0  0  0
  -24.1270  -10.5430   20.9500 C   0  0  0  0  0  0  0  0  0  0  0  0
  -24.5360   -9.5910   21.9100 C   0  0  0  0  0  3  0  0  0  0  0  0
  -23.8090   -8.3940   22.0850 C   0  0  0  0  0  3  0  0  0  0  0  0
  -22.6580   -8.1400   21.3010 C   0  0  0  0  0  0  0  0  0  0  0  0
  -22.2690   -9.0810   20.3300 C   0  0  0  0  0  3  0  0  0  0  0  0
  -22.9960  -10.2710   20.1540 C   0  0  0  0  0  3  0  0  0  0  0  0
  -21.9050   -6.9940   21.3820 O   0  0  0  0  0  0  0  0  0  0  0  0
  -21.7810   -6.2970   22.5570 C   0  0  0  0  0  0  0  0  0  0  0  0
  -21.2000   -6.8760   23.7070 C   0  0  0  0  0  3  0  0  0  0  0  0
  -21.0290   -6.1030   24.8730 C   0  0  0  0  0  3  0  0  0  0  0  0
  -21.4280   -4.7520   24.8880 C   0  0  0  0  0  0  0  0  0  0  0  0
  -22.0010   -4.1740   23.7420 C   0  0  0  0  0  3  0  0  0  0  0  0
  -22.1740   -4.9440   22.5780 C   0  0  0  0  0  0  0  0  0  0  0  0
  -22.7070   -4.3780   21.4680 F   0  0  0  0  0  0  0  0  0  0  0  0
  -21.2580   -4.0060   26.0050 F   0  0  0  0  0  0  0  0  0  0  0  0
  -23.0080  -13.6380   21.1340 C   0  0  0  0  0  0  0  0  0  0  0  0
  -22.2970  -12.9310   22.0050 N   0  0  0  0  0  0  0  0  0  0  0  0
  -22.5640  -14.6720   20.6390 O   0  0  0  0  0  0  0  0  0  0  0  0
  -22.6690  -12.0930   22.4270 H   0  0  0  0  0  0  0  0  0  0  0  0
  -21.3650  -13.2300   22.2540 H   0  0  0  0  0  0  0  0  0  0  0  0
  -25.6260  -15.3040   20.2850 N   0  0  0  0  0  0  0  0  0  0  0  0
  -24.8660  -15.9600   20.4290 H   0  0  0  0  0  0  0  0  0  0  0  0
  -26.4700  -15.7420   19.9440 H   0  0  0  0  0  0  0  0  0  0  0  0
  -29.3050  -23.9190   20.0980 C   0  0  0  0  0  3  0  0  0  0  0  0
  -28.5250  -25.1010   20.8570 C   0  0  0  0  0  3  0  0  0  0  0  0
  -28.7240  -26.5260   20.4580 O   0  0  0  0  0  0  0  0  0  0  0  0
  -24.6820  -31.8080   23.2930 C   0  0  0  0  0  0  0  0  0  0  0  0
  -27.5920  -27.3510   20.3680 C   0  0  0  0  0  0  0  0  0  0  0  0
  -23.6170  -30.4040   21.5620 C   0  0  0  0  0  3  0  0  0  0  0  0
  -25.1920  -28.9020   20.2190 C   0  0  0  0  0  0  0  0  0  0  0  0
  -26.1540  -30.7840   21.5450 C   0  0  0  0  0  2  0  0  0  0  0  0
  -26.3080  -29.4150   20.8930 C   0  0  0  0  0  0  0  0  0  0  0  0
  -27.5140  -28.6520   20.9550 C   0  0  0  0  0  3  0  0  0  0  0  0
  -26.4600  -26.8960   19.6590 C   0  0  0  0  0  3  0  0  0  0  0  0
  -25.2700  -27.6480   19.5930 C   0  0  0  0  0  3  0  0  0  0  0  0
  -23.9340  -29.7460   20.1940 C   0  0  0  0  0  2  0  0  0  0  0  0
  -24.8320  -31.0160   22.1910 N   0  0  0  0  0  0  0  0  0  0  0  0
  -23.5610  -32.0520   23.7620 O   0  0  0  0  0  0  0  0  0  0  0  0
  -22.9160  -29.3630   22.4690 C   0  0  0  0  0  0  0  0  0  0  0  0
  -21.6000  -29.1740   22.2700 N   0  0  0  0  0  0  0  0  0  0  0  0
  -23.5590  -28.7300   23.3110 O   0  0  0  0  0  0  0  0  0  0  0  0
  -21.1460  -29.7270   21.5580 H   0  0  0  0  0  0  0  0  0  0  0  0
  -18.2030  -27.9870   22.6410 C   0  0  0  0  0  0  0  0  0  0  0  0
  -20.7560  -28.2130   22.9820 C   0  0  0  0  0  3  0  0  0  0  0  0
  -20.8630  -26.8050   22.3510 C   0  0  0  0  0  2  0  0  0  0  0  0
  -19.7820  -26.5270   21.3020 C   0  0  0  0  0  2  0  0  0  0  0  0
  -18.3850  -26.6630   21.9150 C   0  0  0  0  0  2  0  0  0  0  0  0
  -19.3170  -28.7200   23.1280 C   0  0  0  0  0  0  0  0  0  0  0  0
  -19.0950  -29.9570   23.7690 C   0  0  0  0  0  3  0  0  0  0  0  0
  -17.7910  -30.4630   23.9240 C   0  0  0  0  0  3  0  0  0  0  0  0
  -16.6900  -29.7280   23.4490 C   0  0  0  0  0  3  0  0  0  0  0  0
  -16.8970  -28.4910   22.8140 C   0  0  0  0  0  3  0  0  0  0  0  0
  -25.9080  -32.4610   24.0020 C   0  0  0  0  0  3  0  0  0  0  0  0
  -25.5770  -33.8710   24.2500 N   0  0  0  0  0  0  0  0  0  0  0  0
  -25.9770  -34.8940   23.4830 C   0  0  0  0  0  0  0  0  0  0  0  0
  -26.7300  -34.7510   22.5170 O   0  0  0  0  0  0  0  0  0  0  0  0
  -24.9160  -34.0570   24.9890 H   0  0  0  0  0  0  0  0  0  0  0  0
  -24.3060  -36.6850   22.9060 C   0  0  0  0  0  1  0  0  0  0  0  0
  -25.4600  -36.3000   23.8450 C   0  0  0  0  0  3  0  0  0  0  0  0
  -27.4980  -37.2170   24.8610 C   0  0  0  0  0  1  0  0  0  0  0  0
  -26.5060  -37.3440   23.7970 N   0  0  0  0  0  0  0  0  0  0  0  0
  -26.0940  -38.2710   23.8590 H   0  0  0  0  0  0  0  0  0  0  0  0
  -26.3050  -31.7390   25.3470 C   0  0  1  0  0  0  0  0  0  0  0  0
  -25.1190  -31.5390   26.3190 C   0  0  0  0  0  1  0  0  0  0  0  0
  -26.9210  -30.3490   25.0620 C   0  0  0  0  0  1  0  0  0  0  0  0
  -27.3890  -32.5610   26.0830 C   0  0  0  0  0  1  0  0  0  0  0  0
  1  4  1  0
  2  1  2  0
  4  3  2  0
  4 10  1  0
  5  3  1  0
  6  2  1  0
  6  5  2  0
  7  6  1  0
  8  7  1  0
  9  7  1  0
 10 11  2  0
 12 10  1  0
 12 13  1  0
 14 13  1  0
 15 20  1  0
 16 17  1  0
 16 15  1  0
 18 17  1  0
 18 25  1  0
 18 19  1  0
 20 14  1  0
 20 19  1  0
 21 14  2  0
 22 23  2  0
 23 42  1  0
 24 23  1  0
 24 27  1  0
 25 26  1  0
 25 22  1  0
 26 24  2  0
 27 28  1  0
 28 29  2  0
 30 33  1  0
 30 29  1  0
 31 30  2  0
 32 31  1  0
 32 27  2  0
 33 34  1  0
 34 39  2  0
 34 35  1  0
 35 36  2  0
 36 37  1  0
 37 41  1  0
 38 37  2  0
 39 38  1  0
 40 39  1  0
 42 43  1  0
 43 46  1  0
 43 45  1  0
 44 42  2  0
 47 48  1  0
 47 22  1  0
 49 47  1  0
 50  5  1  0
 50 51  2  0
 52 51  1  0
 53 64  2  0
 54 52  1  0
 54 59  1  0
 55 63  1  0
 55 65  1  0
 56 58  1  0
 57 63  1  0
 58 59  2  0
 58 57  1  0
 60 54  2  0
 61 60  1  0
 61 56  2  0
 62 56  1  0
 62 55  1  0
 63 53  1  0
 65 67  2  0
 66 65  1  0
 68 66  1  0
 69 78  2  0
 69 74  1  0
 70 66  1  0
 70 74  1  0
 71 70  1  0
 72 73  1  0
 72 71  1  0
 73 69  1  0
 74 75  2  0
 75 76  1  0
 77 76  2  0
 78 77  1  0
 79 53  1  0
 79 80  1  0
 79 89  1  0
 80 83  1  0
 81 85  1  0
 81 80  1  0
 82 81  2  0
 85 84  1  0
 87 85  1  0
 87 88  1  0
 87 86  1  0
 89 92  1  1
 89 90  1  0
 91 89  1  0
M  ISO  4  13 100  14 100  51 101  52 101
M  END
>  <TORSDO>  (28) 
F 22

>  <SCORE>  (28) 
-12.801

>  <name>  (28) 
27

>  <ligand_id>  (28) 
27

>  <original_smiles>  (28) 
[H]c1c([H])c([H])c2c(c1[H])C([H])([H])C([H])([H])C([H])([H])C2([H])N([H])C(=O)C1([H])N(C(=O)C([H])(N([H])C(=O)C([H])(N([H])C([H])([H])[H])C([H])([H])[H])C(C([H])([H])[H])(C([H])([H])[H])C([H])([H])[H])C([H])([H])c2c([H])c(OC([H])([H])C([H])([H])c3c([H])c(C(=O)C([H])([H])C([H])([H])C(=O)N4C([H])([H])C([H])([H])C([H])([H])C([H])(n5nc(-c6c([H])c([H])c(Oc7c([H])c([H])c(F)c([H])c7F)c([H])c6[H])c(C(=O)N([H])[H])c5N([H])[H])C4([H])[H])c([H])c([H])c3N([H])[H])c([H])c([H])c2C1([H])[H]

>  <smiles>  (28) 
[H]c1c([H])c([H])c2c(c1[H])C([H])([H])C([H])([H])C([H])([H])C2([H])N([H])C(=O)C1([H])N(C(=O)C([H])(N([H])C(=O)C([H])(N([H])C([H])([H])[H])C([H])([H])[H])C(C([H])([H])[H])(C([H])([H])[H])C([H])([H])[H])C([H])([H])c2c([H])c(OC([H])([H])C([H])([H])c3c([H])c(C(=O)C([H])([H])C([H])([H])C(=O)N4C([H])([H])C([H])([H])C([H])([H])C([H])(n5nc(-c6c([H])c([H])c(Oc7c([H])c([H])c(F)c([H])c7F)c([H])c6[H])c(C(=O)N([H])[H])c5N([H])[H])C4([H])[H])c([H])c([H])c3N([H])[H])c([H])c([H])c2C1([H])[H]

$$$$
28:0:0
     RDKit          3D

 98107  0  0  1  0  0  0  0  0999 V2000
  -33.0250  -21.1630   21.7230 C   0  0  0  0  0  3  0  0  0  0  0  0
  -33.0670  -22.4650   21.2080 C   0  0  0  0  0  3  0  0  0  0  0  0
  -31.9660  -24.4180   20.3150 C   0  0  0  0  0  3  0  0  0  0  0  0
  -31.8070  -20.4690   21.7600 C   0  0  0  0  0  3  0  0  0  0  0  0
  -30.8090  -25.1120   19.9320 C   0  0  0  0  0  3  0  0  0  0  0  0
  -29.4830  -23.1060   20.3610 C   0  0  0  0  0  3  0  0  0  0  0  0
  -31.8830  -23.0840   20.7610 C   0  0  0  0  0  0  0  0  0  0  0  0
  -30.6390  -22.3880   20.7790 C   0  0  0  0  0  0  0  0  0  0  0  0
  -29.5590  -24.4740   19.9820 C   0  0  0  0  0  0  0  0  0  0  0  0
  -30.6150  -21.0320   21.2490 C   0  0  0  0  0  0  0  0  0  0  0  0
  -29.3660  -20.1370   21.2940 C   0  0  0  0  0  2  0  0  0  0  0  0
  -29.2770  -19.0850   20.1500 C   0  0  0  0  0  2  0  0  0  0  0  0
  -30.1840  -17.8110   20.2640 C   0  0  0  0  0  3  0  0  0  0  0  0
  -30.7040  -17.3850   18.9400 N   0  0  0  0  0  4  0  0  0  0  0  0
  -31.1610  -16.4880   19.0820 H   0  0  0  0  0  0  0  0  0  0  0  0
  -29.9550  -17.2370   18.2830 H   0  0  0  0  0  0  0  0  0  0  0  0
  -31.2320  -19.0230   17.1100 C   0  0  0  0  0  1  0  0  0  0  0  0
  -31.7430  -18.2520   18.3380 C   0  0  0  0  0  2  0  0  0  0  0  0
  -29.4600  -16.6280   20.9700 C   0  0  0  0  0  2  0  0  0  0  0  0
  -30.3480  -15.4380   21.4470 C   0  0  0  0  0  2  0  0  0  0  0  0
  -30.7420  -14.4180   20.3570 C   0  0  0  0  0  0  0  0  0  0  0  0
  -30.3600  -12.3310   19.0750 C   0  0  0  0  0  2  0  0  0  0  0  0
  -29.3920  -12.5690   17.8980 C   0  0  0  0  0  2  0  0  0  0  0  0
  -27.9240  -12.4470   18.3540 C   0  0  0  0  0  2  0  0  0  0  0  0
  -27.6340  -13.2640   19.6390 C   0  0  0  0  0  3  0  0  0  0  0  0
  -28.7010  -12.9850   20.7200 C   0  0  0  0  0  2  0  0  0  0  0  0
  -30.0280  -13.2780   20.1520 N   0  0  0  0  0  0  0  0  0  0  0  0
  -31.7300  -14.7050   19.6730 O   0  0  0  0  0  0  0  0  0  0  0  0
  -25.2570  -13.9180   20.3800 C   0  0  0  0  0  0  0  0  0  0  0  0
  -24.1830  -13.1670   20.7720 C   0  0  0  0  0  0  0  0  0  0  0  0
  -24.6200  -11.8080   20.7410 C   0  0  0  0  0  0  0  0  0  0  0  0
  -26.2820  -13.0180   20.1360 N   0  0  0  0  0  0  0  0  0  0  0  0
  -25.9020  -11.7440   20.4070 N   0  0  0  0  0  0  0  0  0  0  0  0
  -23.8770  -10.5600   20.9540 C   0  0  0  0  0  0  0  0  0  0  0  0
  -24.3060   -9.5930   21.8910 C   0  0  0  0  0  3  0  0  0  0  0  0
  -23.5650   -8.4080   22.0870 C   0  0  0  0  0  3  0  0  0  0  0  0
  -22.3800   -8.1820   21.3490 C   0  0  0  0  0  0  0  0  0  0  0  0
  -21.9690   -9.1370   20.4010 C   0  0  0  0  0  3  0  0  0  0  0  0
  -22.7110  -10.3130   20.2030 C   0  0  0  0  0  3  0  0  0  0  0  0
  -21.6060   -7.0510   21.4570 O   0  0  0  0  0  0  0  0  0  0  0  0
  -21.5560   -6.3250   22.6190 C   0  0  0  0  0  0  0  0  0  0  0  0
  -21.1590   -6.9040   23.8440 C   0  0  0  0  0  3  0  0  0  0  0  0
  -21.0520   -6.1030   24.9990 C   0  0  0  0  0  3  0  0  0  0  0  0
  -21.3310   -4.7250   24.9300 C   0  0  0  0  0  0  0  0  0  0  0  0
  -21.7220   -4.1450   23.7100 C   0  0  0  0  0  3  0  0  0  0  0  0
  -21.8300   -4.9430   22.5570 C   0  0  0  0  0  0  0  0  0  0  0  0
  -22.1870   -4.3750   21.3800 F   0  0  0  0  0  0  0  0  0  0  0  0
  -21.2220   -3.9550   26.0390 F   0  0  0  0  0  0  0  0  0  0  0  0
  -22.7990  -13.6700   21.0690 C   0  0  0  0  0  0  0  0  0  0  0  0
  -22.0770  -12.9910   21.9550 N   0  0  0  0  0  0  0  0  0  0  0  0
  -22.3680  -14.6980   20.5510 O   0  0  0  0  0  0  0  0  0  0  0  0
  -22.4430  -12.1590   22.3930 H   0  0  0  0  0  0  0  0  0  0  0  0
  -21.1480  -13.3070   22.1980 H   0  0  0  0  0  0  0  0  0  0  0  0
  -25.4430  -15.2850   20.1910 N   0  0  0  0  0  0  0  0  0  0  0  0
  -24.6870  -15.9530   20.3030 H   0  0  0  0  0  0  0  0  0  0  0  0
  -26.2950  -15.7040   19.8470 H   0  0  0  0  0  0  0  0  0  0  0  0
  -28.3080  -25.2650   19.6150 C   0  0  0  0  0  2  0  0  0  0  0  0
  -28.3950  -26.6640   19.9510 O   0  0  0  0  0  0  0  0  0  0  0  0
  -24.6210  -31.8140   23.1260 C   0  0  0  0  0  0  0  0  0  0  0  0
  -27.2220  -27.3970   19.9540 C   0  0  0  0  0  0  0  0  0  0  0  0
  -23.3970  -30.4350   21.4810 C   0  0  0  0  0  3  0  0  0  0  0  0
  -24.8320  -28.9170   20.0220 C   0  0  0  0  0  0  0  0  0  0  0  0
  -25.9240  -30.7880   21.2640 C   0  0  0  0  0  2  0  0  0  0  0  0
  -25.9990  -29.4260   20.6020 C   0  0  0  0  0  0  0  0  0  0  0  0
  -27.1970  -28.6740   20.5630 C   0  0  0  0  0  3  0  0  0  0  0  0
  -26.0300  -26.9080   19.3670 C   0  0  0  0  0  3  0  0  0  0  0  0
  -24.8410  -27.6560   19.4050 C   0  0  0  0  0  3  0  0  0  0  0  0
  -23.5920  -29.7770   20.0900 C   0  0  0  0  0  2  0  0  0  0  0  0
  -24.6660  -31.0250   22.0160 N   0  0  0  0  0  0  0  0  0  0  0  0
  -23.5440  -32.0810   23.6790 O   0  0  0  0  0  0  0  0  0  0  0  0
  -22.7550  -29.3990   22.4330 C   0  0  0  0  0  0  0  0  0  0  0  0
  -21.4260  -29.2340   22.3310 N   0  0  0  0  0  0  0  0  0  0  0  0
  -23.4490  -28.7500   23.2200 O   0  0  0  0  0  0  0  0  0  0  0  0
  -20.9280  -29.8120   21.6670 H   0  0  0  0  0  0  0  0  0  0  0  0
  -18.0480  -28.0780   22.8820 C   0  0  0  0  0  0  0  0  0  0  0  0
  -20.6140  -28.2910   23.0980 C   0  0  0  0  0  3  0  0  0  0  0  0
  -20.6820  -26.8720   22.4860 C   0  0  0  0  0  2  0  0  0  0  0  0
  -19.5510  -26.5900   21.4910 C   0  0  0  0  0  2  0  0  0  0  0  0
  -18.1890  -26.7420   22.1720 C   0  0  0  0  0  2  0  0  0  0  0  0
  -19.1880  -28.8130   23.3020 C   0  0  0  0  0  0  0  0  0  0  0  0
  -19.0040  -30.0660   23.9250 C   0  0  0  0  0  3  0  0  0  0  0  0
  -17.7120  -30.5850   24.1310 C   0  0  0  0  0  3  0  0  0  0  0  0
  -16.5860  -29.8460   23.7270 C   0  0  0  0  0  3  0  0  0  0  0  0
  -16.7560  -28.5950   23.1080 C   0  0  0  0  0  3  0  0  0  0  0  0
  -25.9120  -32.4370   23.7400 C   0  0  0  0  0  3  0  0  0  0  0  0
  -25.6000  -33.8240   24.1110 N   0  0  0  0  0  0  0  0  0  0  0  0
  -25.9120  -34.8970   23.3730 C   0  0  0  0  0  0  0  0  0  0  0  0
  -26.5660  -34.8250   22.3280 O   0  0  0  0  0  0  0  0  0  0  0  0
  -25.0160  -33.9530   24.9230 H   0  0  0  0  0  0  0  0  0  0  0  0
  -24.1640  -36.6840   23.0940 C   0  0  0  0  0  1  0  0  0  0  0  0
  -25.4220  -36.2690   23.8730 C   0  0  0  0  0  3  0  0  0  0  0  0
  -27.5640  -37.1490   24.6890 C   0  0  0  0  0  1  0  0  0  0  0  0
  -26.4440  -37.3330   23.7710 N   0  0  0  0  0  0  0  0  0  0  0  0
  -26.0330  -38.2450   23.9520 H   0  0  0  0  0  0  0  0  0  0  0  0
  -26.4580  -31.6350   24.9860 C   0  0  1  0  0  0  0  0  0  0  0  0
  -25.3860  -31.3650   26.0680 C   0  0  0  0  0  1  0  0  0  0  0  0
  -27.0400  -30.2720   24.5460 C   0  0  0  0  0  1  0  0  0  0  0  0
  -27.6150  -32.4200   25.6490 C   0  0  0  0  0  1  0  0  0  0  0  0
  1  4  1  0
  2  1  2  0
  3  7  1  0
  5  9  1  0
  5  3  2  0
  6  8  1  0
  7  8  2  0
  7  2  1  0
  8 10  1  0
  9  6  2  0
 10 11  1  0
 10  4  2  0
 12 11  1  0
 13 12  1  0
 13 19  1  0
 14 15  1  0
 14 13  1  0
 16 14  1  0
 17 18  1  0
 18 14  1  0
 19 20  1  0
 21 20  1  0
 22 27  1  0
 23 24  1  0
 23 22  1  0
 25 24  1  0
 25 32  1  0
 25 26  1  0
 27 21  1  0
 27 26  1  0
 28 21  2  0
 29 30  2  0
 30 49  1  0
 31 30  1  0
 31 34  1  0
 32 29  1  0
 32 33  1  0
 33 31  2  0
 34 35  1  0
 35 36  2  0
 37 40  1  0
 37 36  1  0
 38 37  2  0
 39 38  1  0
 39 34  2  0
 40 41  1  0
 41 42  1  0
 42 43  2  0
 44 43  1  0
 44 48  1  0
 45 44  2  0
 46 41  2  0
 46 45  1  0
 47 46  1  0
 49 50  1  0
 50 53  1  0
 50 52  1  0
 51 49  2  0
 54 55  1  0
 54 29  1  0
 56 54  1  0
 57 58  1  0
 57  9  1  0
 58 60  1  0
 59 70  2  0
 60 65  1  0
 61 69  1  0
 61 71  1  0
 62 68  1  0
 62 64  1  0
 63 69  1  0
 64 63  1  0
 65 64  2  0
 66 67  1  0
 66 60  2  0
 67 62  2  0
 68 61  1  0
 69 59  1  0
 71 73  2  0
 72 71  1  0
 74 72  1  0
 75 84  2  0
 75 80  1  0
 76 72  1  0
 76 80  1  0
 77 76  1  0
 78 79  1  0
 78 77  1  0
 79 75  1  0
 80 81  2  0
 81 82  1  0
 83 82  2  0
 84 83  1  0
 85 59  1  0
 85 86  1  0
 85 95  1  0
 86 89  1  0
 87 91  1  0
 87 86  1  0
 88 87  2  0
 91 90  1  0
 93 91  1  0
 93 94  1  0
 93 92  1  0
 95 98  1  1
 95 96  1  0
 97 95  1  0
M  ISO  4  20 100  21 100  57 101  58 101
M  END
>  <TORSDO>  (29) 
F 24

>  <SCORE>  (29) 
-11.839

>  <name>  (29) 
28

>  <ligand_id>  (29) 
28

>  <original_smiles>  (29) 
[H]c1c([H])c([H])c2c(c1[H])C([H])([H])C([H])([H])C([H])([H])C2([H])N([H])C(=O)C1([H])N(C(=O)C([H])(N([H])C(=O)C([H])(N([H])C([H])([H])[H])C([H])([H])[H])C(C([H])([H])[H])(C([H])([H])[H])C([H])([H])[H])C([H])([H])c2c([H])c(OC([H])([H])c3c([H])c([H])c4c([H])c([H])c([H])c(C([H])([H])C([H])([H])C([H])(C([H])([H])C([H])([H])C(=O)N5C([H])([H])C([H])([H])C([H])([H])C([H])(n6nc(-c7c([H])c([H])c(Oc8c([H])c([H])c(F)c([H])c8F)c([H])c7[H])c(C(=O)N([H])[H])c6N([H])[H])C5([H])[H])[N+]([H])([H])C([H])([H])C([H])([H])[H])c4c3[H])c([H])c([H])c2C1([H])[H]

>  <smiles>  (29) 
[H]c1c([H])c([H])c2c(c1[H])C([H])([H])C([H])([H])C([H])([H])C2([H])N([H])C(=O)C1([H])N(C(=O)C([H])(N([H])C(=O)C([H])(N([H])C([H])([H])[H])C([H])([H])[H])C(C([H])([H])[H])(C([H])([H])[H])C([H])([H])[H])C([H])([H])c2c([H])c(OC([H])([H])c3c([H])c([H])c4c([H])c([H])c([H])c(C([H])([H])C([H])([H])C([H])(C([H])([H])C([H])([H])C(=O)N5C([H])([H])C([H])([H])C([H])([H])C([H])(n6nc(-c7c([H])c([H])c(Oc8c([H])c([H])c(F)c([H])c8F)c([H])c7[H])c(C(=O)N([H])[H])c6N([H])[H])C5([H])[H])[N+]([H])([H])C([H])([H])C([H])([H])[H])c4c3[H])c([H])c([H])c2C1([H])[H]

$$$$
29:0:0
     RDKit          3D

 91 99  0  0  1  0  0  0  0  0999 V2000
  -29.2080  -20.9110   22.3680 C   0  0  0  0  0  3  0  0  0  0  0  0
  -30.0400  -19.7810   22.2440 C   0  0  0  0  0  3  0  0  0  0  0  0
  -29.4780  -22.0730   21.6200 C   0  0  0  0  0  3  0  0  0  0  0  0
  -31.3890  -20.9600   20.5880 C   0  0  0  0  0  3  0  0  0  0  0  0
  -31.1320  -19.7950   21.3510 C   0  0  0  0  0  0  0  0  0  0  0  0
  -30.5710  -22.1090   20.7240 C   0  0  0  0  0  0  0  0  0  0  0  0
  -32.0510  -18.6270   21.3240 C   0  0  0  0  0  0  0  0  0  0  0  0
  -32.8100  -18.3600   22.2610 O   0  0  0  0  0  0  0  0  0  0  0  0
  -31.9770  -17.6830   20.1220 C   0  0  0  0  0  2  0  0  0  0  0  0
  -31.4020  -16.2970   20.5200 C   0  0  0  0  0  2  0  0  0  0  0  0
  -32.0160  -15.0900   19.7880 C   0  0  0  0  0  0  0  0  0  0  0  0
  -31.6710  -12.8240   18.8510 C   0  0  0  0  0  2  0  0  0  0  0  0
  -30.6870  -12.8900   17.6650 C   0  0  0  0  0  2  0  0  0  0  0  0
  -29.2260  -12.8230   18.1550 C   0  0  0  0  0  2  0  0  0  0  0  0
  -28.9370  -13.8120   19.3160 C   0  0  0  0  0  3  0  0  0  0  0  0
  -30.0220  -13.6930   20.4100 C   0  0  0  0  0  2  0  0  0  0  0  0
  -31.3330  -13.9150   19.7760 N   0  0  0  0  0  0  0  0  0  0  0  0
  -33.0810  -15.2380   19.1820 O   0  0  0  0  0  0  0  0  0  0  0  0
  -26.6190  -14.5660   20.1480 C   0  0  0  0  0  0  0  0  0  0  0  0
  -25.5220  -13.8600   20.5610 C   0  0  0  0  0  0  0  0  0  0  0  0
  -25.8920  -12.4810   20.4920 C   0  0  0  0  0  0  0  0  0  0  0  0
  -27.5920  -13.6220   19.8570 N   0  0  0  0  0  0  0  0  0  0  0  0
  -27.1580  -12.3630   20.1180 N   0  0  0  0  0  0  0  0  0  0  0  0
  -25.0950  -11.2660   20.7050 C   0  0  0  0  0  0  0  0  0  0  0  0
  -25.4050  -10.3510   21.7360 C   0  0  0  0  0  3  0  0  0  0  0  0
  -24.6140   -9.2000   21.9330 C   0  0  0  0  0  3  0  0  0  0  0  0
  -23.5000   -8.9530   21.0970 C   0  0  0  0  0  0  0  0  0  0  0  0
  -23.2080   -9.8540   20.0580 C   0  0  0  0  0  3  0  0  0  0  0  0
  -23.9980  -10.9980   19.8600 C   0  0  0  0  0  3  0  0  0  0  0  0
  -22.6920   -7.8450   21.1950 O   0  0  0  0  0  0  0  0  0  0  0  0
  -22.3550   -7.3070   22.4110 C   0  0  0  0  0  0  0  0  0  0  0  0
  -21.6670   -8.0530   23.3920 C   0  0  0  0  0  3  0  0  0  0  0  0
  -21.2790   -7.4400   24.6000 C   0  0  0  0  0  3  0  0  0  0  0  0
  -21.5700   -6.0820   24.8270 C   0  0  0  0  0  0  0  0  0  0  0  0
  -22.2520   -5.3360   23.8490 C   0  0  0  0  0  3  0  0  0  0  0  0
  -22.6400   -5.9460   22.6430 C   0  0  0  0  0  0  0  0  0  0  0  0
  -23.2780   -5.2170   21.6960 F   0  0  0  0  0  0  0  0  0  0  0  0
  -21.1930   -5.4900   25.9830 F   0  0  0  0  0  0  0  0  0  0  0  0
  -24.1750  -14.4220   20.9110 C   0  0  0  0  0  0  0  0  0  0  0  0
  -23.4590  -13.7740   21.8230 N   0  0  0  0  0  0  0  0  0  0  0  0
  -23.7690  -15.4700   20.4100 O   0  0  0  0  0  0  0  0  0  0  0  0
  -23.8020  -12.9260   22.2490 H   0  0  0  0  0  0  0  0  0  0  0  0
  -22.5560  -14.1330   22.1000 H   0  0  0  0  0  0  0  0  0  0  0  0
  -26.8640  -15.9260   19.9780 N   0  0  0  0  0  0  0  0  0  0  0  0
  -26.1500  -16.6280   20.1350 H   0  0  0  0  0  0  0  0  0  0  0  0
  -27.7270  -16.3120   19.6170 H   0  0  0  0  0  0  0  0  0  0  0  0
  -30.9170  -23.3800   19.9460 C   0  0  0  0  0  2  0  0  0  0  0  0
  -29.7130  -24.2690   19.5630 C   0  0  0  0  0  2  0  0  0  0  0  0
  -30.0790  -25.4150   18.5980 C   0  0  0  0  0  2  0  0  0  0  0  0
  -28.8750  -26.2970   18.2210 C   0  0  0  0  0  2  0  0  0  0  0  0
  -28.6040  -27.2410   19.2640 O   0  0  0  0  0  0  0  0  0  0  0  0
  -24.5030  -31.5810   23.1180 C   0  0  0  0  0  0  0  0  0  0  0  0
  -27.3530  -27.8160   19.3730 C   0  0  0  0  0  0  0  0  0  0  0  0
  -23.3310  -30.2640   21.3860 C   0  0  0  0  0  3  0  0  0  0  0  0
  -24.8270  -29.0600   19.7080 C   0  0  0  0  0  0  0  0  0  0  0  0
  -25.7960  -30.8940   21.0990 C   0  0  0  0  0  2  0  0  0  0  0  0
  -25.9660  -29.6190   20.3000 C   0  0  0  0  0  0  0  0  0  0  0  0
  -27.2250  -28.9970   20.1420 C   0  0  0  0  0  3  0  0  0  0  0  0
  -26.1860  -27.2690   18.7860 C   0  0  0  0  0  3  0  0  0  0  0  0
  -24.9330  -27.8810   18.9540 C   0  0  0  0  0  3  0  0  0  0  0  0
  -23.5130  -29.7740   19.9240 C   0  0  0  0  0  2  0  0  0  0  0  0
  -24.5650  -30.9220   21.9260 N   0  0  0  0  0  0  0  0  0  0  0  0
  -23.4370  -31.6800   23.7410 O   0  0  0  0  0  0  0  0  0  0  0  0
  -22.8430  -29.0770   22.2460 C   0  0  0  0  0  0  0  0  0  0  0  0
  -21.5560  -28.7250   22.1030 N   0  0  0  0  0  0  0  0  0  0  0  0
  -23.6190  -28.4790   22.9960 O   0  0  0  0  0  0  0  0  0  0  0  0
  -20.9830  -29.2720   21.4740 H   0  0  0  0  0  0  0  0  0  0  0  0
  -18.4020  -26.9930   22.4370 C   0  0  0  0  0  0  0  0  0  0  0  0
  -20.8870  -27.6150   22.7820 C   0  0  0  0  0  3  0  0  0  0  0  0
  -21.2150  -26.2660   22.1010 C   0  0  0  0  0  2  0  0  0  0  0  0
  -20.1850  -25.8600   21.0420 C   0  0  0  0  0  2  0  0  0  0  0  0
  -18.7910  -25.7430   21.6650 C   0  0  0  0  0  2  0  0  0  0  0  0
  -19.3870  -27.8790   22.9470 C   0  0  0  0  0  0  0  0  0  0  0  0
  -18.9730  -29.0470   23.6240 C   0  0  0  0  0  3  0  0  0  0  0  0
  -17.6050  -29.3310   23.7990 C   0  0  0  0  0  3  0  0  0  0  0  0
  -16.6350  -28.4420   23.3060 C   0  0  0  0  0  3  0  0  0  0  0  0
  -17.0340  -27.2740   22.6300 C   0  0  0  0  0  3  0  0  0  0  0  0
  -25.7610  -32.2620   23.7420 C   0  0  0  0  0  3  0  0  0  0  0  0
  -25.3840  -33.6330   24.1090 N   0  0  0  0  0  0  0  0  0  0  0  0
  -25.6690  -34.7200   23.3790 C   0  0  0  0  0  0  0  0  0  0  0  0
  -26.3490  -34.6760   22.3500 O   0  0  0  0  0  0  0  0  0  0  0  0
  -24.7770  -33.7370   24.9080 H   0  0  0  0  0  0  0  0  0  0  0  0
  -23.8630  -36.4390   23.0500 C   0  0  0  0  0  1  0  0  0  0  0  0
  -25.1120  -36.0710   23.8670 C   0  0  0  0  0  3  0  0  0  0  0  0
  -27.1890  -37.0340   24.7560 C   0  0  0  0  0  1  0  0  0  0  0  0
  -26.0970  -37.1730   23.7950 N   0  0  0  0  0  0  0  0  0  0  0  0
  -25.6470  -38.0700   23.9510 H   0  0  0  0  0  0  0  0  0  0  0  0
  -26.3300  -31.4840   24.9910 C   0  0  1  0  0  0  0  0  0  0  0  0
  -25.2610  -31.1540   26.0580 C   0  0  0  0  0  1  0  0  0  0  0  0
  -26.9890  -30.1550   24.5540 C   0  0  0  0  0  1  0  0  0  0  0  0
  -27.4400  -32.3240   25.6660 C   0  0  0  0  0  1  0  0  0  0  0  0
  2  1  1  0
  3  1  2  0
  4  6  2  0
  4  5  1  0
  5  2  2  0
  6  3  1  0
  7  5  1  0
  7  8  2  0
  9 10  1  0
  9  7  1  0
 11 10  1  0
 12 17  1  0
 13 14  1  0
 13 12  1  0
 15 14  1  0
 15 22  1  0
 15 16  1  0
 17 11  1  0
 17 16  1  0
 18 11  2  0
 19 20  2  0
 20 39  1  0
 21 20  1  0
 21 24  1  0
 22 23  1  0
 22 19  1  0
 23 21  2  0
 24 25  1  0
 25 26  2  0
 27 30  1  0
 27 26  1  0
 28 27  2  0
 29 28  1  0
 29 24  2  0
 30 31  1  0
 31 36  2  0
 31 32  1  0
 32 33  2  0
 33 34  1  0
 34 38  1  0
 35 34  2  0
 36 35  1  0
 37 36  1  0
 39 40  1  0
 40 43  1  0
 40 42  1  0
 41 39  2  0
 44 45  1  0
 44 19  1  0
 46 44  1  0
 47  6  1  0
 48 47  1  0
 49 48  1  0
 50 49  1  0
 50 51  1  0
 51 53  1  0
 52 63  2  0
 53 58  1  0
 54 62  1  0
 54 64  1  0
 55 61  1  0
 55 57  1  0
 56 62  1  0
 57 56  1  0
 58 57  2  0
 59 60  1  0
 59 53  2  0
 60 55  2  0
 61 54  1  0
 62 52  1  0
 64 66  2  0
 65 64  1  0
 67 65  1  0
 68 77  2  0
 68 73  1  0
 69 65  1  0
 69 73  1  0
 70 69  1  0
 71 72  1  0
 71 70  1  0
 72 68  1  0
 73 74  2  0
 74 75  1  0
 76 75  2  0
 77 76  1  0
 78 52  1  0
 78 79  1  0
 78 88  1  0
 79 82  1  0
 80 84  1  0
 80 79  1  0
 81 80  2  0
 84 83  1  0
 86 84  1  0
 86 87  1  0
 86 85  1  0
 88 91  1  1
 88 89  1  0
 90 88  1  0
M  ISO  4  10 100  11 100  50 101  51 101
M  END
>  <TORSDO>  (30) 
F 23

>  <SCORE>  (30) 
-8.405

>  <name>  (30) 
29

>  <ligand_id>  (30) 
29

>  <original_smiles>  (30) 
[H]c1c([H])c(C(=O)C([H])([H])C([H])([H])C(=O)N2C([H])([H])C([H])([H])C([H])([H])C([H])(n3nc(-c4c([H])c([H])c(Oc5c([H])c([H])c(F)c([H])c5F)c([H])c4[H])c(C(=O)N([H])[H])c3N([H])[H])C2([H])[H])c([H])c(C([H])([H])C([H])([H])C([H])([H])C([H])([H])Oc2c([H])c([H])c3c(c2[H])C([H])([H])N(C(=O)C([H])(N([H])C(=O)C([H])(N([H])C([H])([H])[H])C([H])([H])[H])C(C([H])([H])[H])(C([H])([H])[H])C([H])([H])[H])C([H])(C(=O)N([H])C2([H])c4c([H])c([H])c([H])c([H])c4C([H])([H])C([H])([H])C2([H])[H])C3([H])[H])c1[H]

>  <smiles>  (30) 
[H]c1c([H])c(C(=O)C([H])([H])C([H])([H])C(=O)N2C([H])([H])C([H])([H])C([H])([H])C([H])(n3nc(-c4c([H])c([H])c(Oc5c([H])c([H])c(F)c([H])c5F)c([H])c4[H])c(C(=O)N([H])[H])c3N([H])[H])C2([H])[H])c([H])c(C([H])([H])C([H])([H])C([H])([H])C([H])([H])Oc2c([H])c([H])c3c(c2[H])C([H])([H])N(C(=O)C([H])(N([H])C(=O)C([H])(N([H])C([H])([H])[H])C([H])([H])[H])C(C([H])([H])[H])(C([H])([H])[H])C([H])([H])[H])C([H])(C(=O)N([H])C2([H])c4c([H])c([H])c([H])c([H])c4C([H])([H])C([H])([H])C2([H])[H])C3([H])[H])c1[H]

$$$$
30:0:0
     RDKit          3D

 94102  0  0  1  0  0  0  0  0999 V2000
  -30.9240  -23.3580   18.4220 C   0  0  0  0  0  3  0  0  0  0  0  0
  -30.9690  -21.9770   18.6910 C   0  0  0  0  0  3  0  0  0  0  0  0
  -29.1090  -23.6180   20.0020 C   0  0  0  0  0  3  0  0  0  0  0  0
  -29.9810  -24.1980   19.0520 C   0  0  0  0  0  0  0  0  0  0  0  0
  -30.0740  -21.3820   19.6040 C   0  0  0  0  0  0  0  0  0  0  0  0
  -29.1390  -22.2230   20.2730 C   0  0  0  0  0  0  0  0  0  0  0  0
  -28.1390  -21.6530   21.2650 C   0  0  0  0  0  1  0  0  0  0  0  0
  -29.9650  -25.6280   18.6440 C   0  0  0  0  0  3  0  0  0  0  0  0
  -29.2830  -26.6940   19.1180 C   0  0  0  0  0  3  0  0  0  0  0  0
  -28.4490  -26.6920   20.1990 O   0  0  0  0  0  0  0  0  0  0  0  0
  -24.6280  -31.8760   23.2500 C   0  0  0  0  0  0  0  0  0  0  0  0
  -27.3190  -27.4750   20.1460 C   0  0  0  0  0  0  0  0  0  0  0  0
  -23.4390  -30.4790   21.5910 C   0  0  0  0  0  3  0  0  0  0  0  0
  -24.9110  -28.9570   20.1580 C   0  0  0  0  0  0  0  0  0  0  0  0
  -25.9620  -30.8510   21.4110 C   0  0  0  0  0  2  0  0  0  0  0  0
  -26.0610  -29.4860   20.7610 C   0  0  0  0  0  0  0  0  0  0  0  0
  -27.2670  -28.7450   20.7630 C   0  0  0  0  0  3  0  0  0  0  0  0
  -26.1560  -26.9570   19.5400 C   0  0  0  0  0  3  0  0  0  0  0  0
  -24.9520  -27.6900   19.5490 C   0  0  0  0  0  3  0  0  0  0  0  0
  -23.6580  -29.8060   20.2080 C   0  0  0  0  0  2  0  0  0  0  0  0
  -24.6950  -31.0840   22.1420 N   0  0  0  0  0  0  0  0  0  0  0  0
  -23.5420  -32.1380   23.7870 O   0  0  0  0  0  0  0  0  0  0  0  0
  -22.7850  -29.4500   22.5410 C   0  0  0  0  0  0  0  0  0  0  0  0
  -21.4620  -29.2650   22.4030 N   0  0  0  0  0  0  0  0  0  0  0  0
  -23.4650  -28.8200   23.3550 O   0  0  0  0  0  0  0  0  0  0  0  0
  -20.9760  -29.8200   21.7140 H   0  0  0  0  0  0  0  0  0  0  0  0
  -18.0890  -28.0650   22.8880 C   0  0  0  0  0  0  0  0  0  0  0  0
  -20.6460  -28.3180   23.1630 C   0  0  0  0  0  3  0  0  0  0  0  0
  -20.7490  -26.8940   22.5690 C   0  0  0  0  0  2  0  0  0  0  0  0
  -19.6470  -26.5850   21.5510 C   0  0  0  0  0  2  0  0  0  0  0  0
  -18.2650  -26.7240   22.1950 C   0  0  0  0  0  2  0  0  0  0  0  0
  -19.2070  -28.8210   23.3270 C   0  0  0  0  0  0  0  0  0  0  0  0
  -18.9900  -30.0760   23.9330 C   0  0  0  0  0  3  0  0  0  0  0  0
  -17.6850  -30.5770   24.1040 C   0  0  0  0  0  3  0  0  0  0  0  0
  -16.5810  -29.8190   23.6790 C   0  0  0  0  0  3  0  0  0  0  0  0
  -16.7830  -28.5640   23.0790 C   0  0  0  0  0  3  0  0  0  0  0  0
  -25.9070  -32.5070   23.8830 C   0  0  0  0  0  3  0  0  0  0  0  0
  -25.5960  -33.9050   24.2100 N   0  0  0  0  0  0  0  0  0  0  0  0
  -25.9410  -34.9570   23.4560 C   0  0  0  0  0  0  0  0  0  0  0  0
  -26.6260  -34.8540   22.4350 O   0  0  0  0  0  0  0  0  0  0  0  0
  -24.9900  -34.0580   25.0020 H   0  0  0  0  0  0  0  0  0  0  0  0
  -24.2240  -36.7530   23.0680 C   0  0  0  0  0  1  0  0  0  0  0  0
  -25.4470  -36.3460   23.9050 C   0  0  0  0  0  3  0  0  0  0  0  0
  -27.5660  -37.2230   24.7820 C   0  0  0  0  0  1  0  0  0  0  0  0
  -26.4850  -37.3960   23.8150 N   0  0  0  0  0  0  0  0  0  0  0  0
  -26.0800  -38.3180   23.9540 H   0  0  0  0  0  0  0  0  0  0  0  0
  -26.4150  -31.7350   25.1610 C   0  0  1  0  0  0  0  0  0  0  0  0
  -25.3150  -31.4930   26.2210 C   0  0  0  0  0  1  0  0  0  0  0  0
  -27.0040  -30.3610   24.7690 C   0  0  0  0  0  1  0  0  0  0  0  0
  -27.5610  -32.5290   25.8320 C   0  0  0  0  0  1  0  0  0  0  0  0
  -30.1210  -19.8500   19.7750 C   0  0  0  0  0  2  0  0  0  0  0  0
  -32.2610  -20.0530   21.2170 C   0  0  0  0  0  1  0  0  0  0  0  0
  -30.9320  -19.3030   20.9900 C   0  0  0  0  0  3  0  0  0  0  0  0
  -31.1810  -17.8270   20.9310 N   0  0  0  0  0  4  0  0  0  0  0  0
  -31.7360  -17.6020   20.1190 H   0  0  0  0  0  0  0  0  0  0  0  0
  -31.7420  -17.6050   21.7380 H   0  0  0  0  0  0  0  0  0  0  0  0
  -29.9870  -16.9370   20.9740 C   0  0  0  0  0  2  0  0  0  0  0  0
  -30.2730  -15.4740   21.4380 C   0  0  0  0  0  2  0  0  0  0  0  0
  -30.6610  -14.4640   20.3270 C   0  0  0  0  0  0  0  0  0  0  0  0
  -30.2670  -12.4250   18.9730 C   0  0  0  0  0  2  0  0  0  0  0  0
  -29.2580  -12.6990   17.8400 C   0  0  0  0  0  2  0  0  0  0  0  0
  -27.8040  -12.5470   18.3290 C   0  0  0  0  0  2  0  0  0  0  0  0
  -27.5470  -13.2900   19.6660 C   0  0  0  0  0  3  0  0  0  0  0  0
  -28.6520  -12.9550   20.6930 C   0  0  0  0  0  2  0  0  0  0  0  0
  -29.9510  -13.3190   20.1010 N   0  0  0  0  0  0  0  0  0  0  0  0
  -31.6620  -14.7450   19.6600 O   0  0  0  0  0  0  0  0  0  0  0  0
  -25.1710  -13.8780   20.4670 C   0  0  0  0  0  0  0  0  0  0  0  0
  -24.1210  -13.0940   20.8710 C   0  0  0  0  0  0  0  0  0  0  0  0
  -24.5890  -11.7470   20.8080 C   0  0  0  0  0  0  0  0  0  0  0  0
  -26.2120  -13.0050   20.1900 N   0  0  0  0  0  0  0  0  0  0  0  0
  -25.8660  -11.7180   20.4480 N   0  0  0  0  0  0  0  0  0  0  0  0
  -23.8770  -10.4780   21.0150 C   0  0  0  0  0  0  0  0  0  0  0  0
  -24.3460   -9.5070   21.9260 C   0  0  0  0  0  3  0  0  0  0  0  0
  -23.6340   -8.3040   22.1180 C   0  0  0  0  0  3  0  0  0  0  0  0
  -22.4390   -8.0630   21.4010 C   0  0  0  0  0  0  0  0  0  0  0  0
  -21.9870   -9.0240   20.4780 C   0  0  0  0  0  3  0  0  0  0  0  0
  -22.7000  -10.2190   20.2840 C   0  0  0  0  0  3  0  0  0  0  0  0
  -21.6920   -6.9130   21.5060 O   0  0  0  0  0  0  0  0  0  0  0  0
  -21.6850   -6.1640   22.6550 C   0  0  0  0  0  0  0  0  0  0  0  0
  -21.2880   -6.7060   23.8960 C   0  0  0  0  0  3  0  0  0  0  0  0
  -21.2280   -5.8810   25.0370 C   0  0  0  0  0  3  0  0  0  0  0  0
  -21.5560   -4.5160   24.9400 C   0  0  0  0  0  0  0  0  0  0  0  0
  -21.9480   -3.9730   23.7030 C   0  0  0  0  0  3  0  0  0  0  0  0
  -22.0090   -4.7950   22.5640 C   0  0  0  0  0  0  0  0  0  0  0  0
  -22.3660   -4.2620   21.3710 F   0  0  0  0  0  0  0  0  0  0  0  0
  -21.4910   -3.7210   26.0340 F   0  0  0  0  0  0  0  0  0  0  0  0
  -22.7350  -13.5600   21.2050 C   0  0  0  0  0  0  0  0  0  0  0  0
  -22.0430  -12.8510   22.0910 N   0  0  0  0  0  0  0  0  0  0  0  0
  -22.2710  -14.5910   20.7160 O   0  0  0  0  0  0  0  0  0  0  0  0
  -22.4310  -12.0180   22.5070 H   0  0  0  0  0  0  0  0  0  0  0  0
  -21.1140  -13.1460   22.3540 H   0  0  0  0  0  0  0  0  0  0  0  0
  -25.3170  -15.2510   20.2980 N   0  0  0  0  0  0  0  0  0  0  0  0
  -24.5470  -15.8960   20.4420 H   0  0  0  0  0  0  0  0  0  0  0  0
  -26.1480  -15.7010   19.9350 H   0  0  0  0  0  0  0  0  0  0  0  0
  1  2  2  0
  1  4  1  0
  2  5  1  0
  3  6  1  0
  4  3  2  0
  5 51  1  0
  5  6  2  0
  6  7  1  0
  8  4  1  0
  8  9  2  0
  9 10  1  0
 11 22  2  0
 12 10  1  0
 12 17  1  0
 13 21  1  0
 13 23  1  0
 14 20  1  0
 14 16  1  0
 15 21  1  0
 16 17  2  0
 16 15  1  0
 18 19  1  0
 18 12  2  0
 19 14  2  0
 20 13  1  0
 21 11  1  0
 23 25  2  0
 24 23  1  0
 26 24  1  0
 27 36  2  0
 27 32  1  0
 28 24  1  0
 28 32  1  0
 29 28  1  0
 30 31  1  0
 30 29  1  0
 31 27  1  0
 32 33  2  0
 33 34  1  0
 35 34  2  0
 36 35  1  0
 37 11  1  0
 37 38  1  0
 37 47  1  0
 38 41  1  0
 39 43  1  0
 39 38  1  0
 40 39  2  0
 43 42  1  0
 45 43  1  0
 45 46  1  0
 45 44  1  0
 47 50  1  1
 47 48  1  0
 49 47  1  0
 51 53  1  0
 53 52  1  0
 54 57  1  0
 54 53  1  0
 54 56  1  0
 55 54  1  0
 57 58  1  0
 59 58  1  0
 60 65  1  0
 61 62  1  0
 61 60  1  0
 63 62  1  0
 63 70  1  0
 63 64  1  0
 65 59  1  0
 65 64  1  0
 66 59  2  0
 67 68  2  0
 68 87  1  0
 69 68  1  0
 69 72  1  0
 70 71  1  0
 70 67  1  0
 71 69  2  0
 72 73  1  0
 73 74  2  0
 75 78  1  0
 75 74  1  0
 76 75  2  0
 77 76  1  0
 77 72  2  0
 78 79  1  0
 79 80  1  0
 80 81  2  0
 82 81  1  0
 82 86  1  0
 83 82  2  0
 84 79  2  0
 84 83  1  0
 85 84  1  0
 87 88  1  0
 88 91  1  0
 88 90  1  0
 89 87  2  0
 92 93  1  0
 92 67  1  0
 94 92  1  0
M  ISO  4   9 101  10 101  58 100  59 100
M  END
>  <TORSDO>  (31) 
F 22

>  <SCORE>  (31) 
-13.183

>  <name>  (31) 
30

>  <ligand_id>  (31) 
30

>  <original_smiles>  (31) 
[H]C(Oc1c([H])c([H])c2c(c1[H])C([H])([H])N(C(=O)C([H])(N([H])C(=O)C([H])(N([H])C([H])([H])[H])C([H])([H])[H])C(C([H])([H])[H])(C([H])([H])[H])C([H])([H])[H])C([H])(C(=O)N([H])C1([H])c3c([H])c([H])c([H])c([H])c3C([H])([H])C([H])([H])C1([H])[H])C2([H])[H])=C([H])c1c([H])c([H])c(C([H])([H])C([H])(C([H])([H])[H])[N+]([H])([H])C([H])([H])C([H])([H])C(=O)N2C([H])([H])C([H])([H])C([H])([H])C([H])(n3nc(-c4c([H])c([H])c(Oc5c([H])c([H])c(F)c([H])c5F)c([H])c4[H])c(C(=O)N([H])[H])c3N([H])[H])C2([H])[H])c(C([H])([H])[H])c1[H]

>  <smiles>  (31) 
[H]C(Oc1c([H])c([H])c2c(c1[H])C([H])([H])N(C(=O)C([H])(N([H])C(=O)C([H])(N([H])C([H])([H])[H])C([H])([H])[H])C(C([H])([H])[H])(C([H])([H])[H])C([H])([H])[H])C([H])(C(=O)N([H])C1([H])c3c([H])c([H])c([H])c([H])c3C([H])([H])C([H])([H])C1([H])[H])C2([H])[H])=C([H])c1c([H])c([H])c(C([H])([H])C([H])(C([H])([H])[H])[N+]([H])([H])C([H])([H])C([H])([H])C(=O)N2C([H])([H])C([H])([H])C([H])([H])C([H])(n3nc(-c4c([H])c([H])c(Oc5c([H])c([H])c(F)c([H])c5F)c([H])c4[H])c(C(=O)N([H])[H])c3N([H])[H])C2([H])[H])c(C([H])([H])[H])c1[H]

$$$$
31:0:0
     RDKit          3D

 97106  0  0  1  0  0  0  0  0999 V2000
  -29.7410  -20.8360   20.2000 C   0  0  0  0  0  0  0  0  0  0  0  0
  -29.8780  -19.5760   19.6950 N   0  0  0  0  0  0  0  0  0  0  0  0
  -30.1920  -21.1390   21.3040 O   0  0  0  0  0  0  0  0  0  0  0  0
  -29.4970  -19.4260   18.7710 H   0  0  0  0  0  0  0  0  0  0  0  0
  -27.4850  -22.4860   17.5430 C   0  0  0  0  0  3  0  0  0  0  0  0
  -28.1820  -21.5190   18.2950 C   0  0  0  0  0  3  0  0  0  0  0  0
  -27.6090  -23.8560   17.8430 C   0  0  0  0  0  3  0  0  0  0  0  0
  -29.1510  -23.3040   19.6440 C   0  0  0  0  0  3  0  0  0  0  0  0
  -29.0150  -21.8980   19.3700 C   0  0  0  0  0  0  0  0  0  0  0  0
  -28.4680  -24.2960   18.8740 C   0  0  0  0  0  0  0  0  0  0  0  0
  -28.7970  -25.8130   18.9290 C   0  0  0  0  0  2  0  0  0  0  0  0
  -28.4050  -26.6230   20.0590 O   0  0  0  0  0  0  0  0  0  0  0  0
  -24.6490  -31.8590   23.1770 C   0  0  0  0  0  0  0  0  0  0  0  0
  -27.2370  -27.3740   20.0280 C   0  0  0  0  0  0  0  0  0  0  0  0
  -23.4020  -30.4140   21.6030 C   0  0  0  0  0  3  0  0  0  0  0  0
  -24.8230  -28.8740   20.1300 C   0  0  0  0  0  0  0  0  0  0  0  0
  -25.9150  -30.7870   21.3120 C   0  0  0  0  0  2  0  0  0  0  0  0
  -25.9930  -29.4040   20.6860 C   0  0  0  0  0  0  0  0  0  0  0  0
  -27.1950  -28.6530   20.6490 C   0  0  0  0  0  3  0  0  0  0  0  0
  -26.0510  -26.8790   19.4440 C   0  0  0  0  0  3  0  0  0  0  0  0
  -24.8500  -27.6130   19.5050 C   0  0  0  0  0  3  0  0  0  0  0  0
  -23.5670  -29.7130   20.2270 C   0  0  0  0  0  2  0  0  0  0  0  0
  -24.6740  -31.0400   22.0860 N   0  0  0  0  0  0  0  0  0  0  0  0
  -23.5860  -32.1250   23.7560 O   0  0  0  0  0  0  0  0  0  0  0  0
  -22.7970  -29.4050   22.6060 C   0  0  0  0  0  0  0  0  0  0  0  0
  -21.4930  -29.1210   22.4630 N   0  0  0  0  0  0  0  0  0  0  0  0
  -23.5010  -28.8760   23.4710 O   0  0  0  0  0  0  0  0  0  0  0  0
  -20.9790  -29.6050   21.7380 H   0  0  0  0  0  0  0  0  0  0  0  0
  -18.2410  -27.6000   22.8550 C   0  0  0  0  0  0  0  0  0  0  0  0
  -20.7300  -28.1610   23.2600 C   0  0  0  0  0  3  0  0  0  0  0  0
  -21.0260  -26.7090   22.8130 C   0  0  0  0  0  2  0  0  0  0  0  0
  -20.0370  -26.1890   21.7670 C   0  0  0  0  0  2  0  0  0  0  0  0
  -18.6060  -26.2290   22.3080 C   0  0  0  0  0  2  0  0  0  0  0  0
  -19.2400  -28.5150   23.2860 C   0  0  0  0  0  0  0  0  0  0  0  0
  -18.8480  -29.7890   23.7500 C   0  0  0  0  0  3  0  0  0  0  0  0
  -17.4890  -30.1560   23.7880 C   0  0  0  0  0  3  0  0  0  0  0  0
  -16.5050  -29.2400   23.3780 C   0  0  0  0  0  3  0  0  0  0  0  0
  -16.8790  -27.9660   22.9180 C   0  0  0  0  0  3  0  0  0  0  0  0
  -25.9480  -32.5180   23.7360 C   0  0  0  0  0  3  0  0  0  0  0  0
  -26.5460  -31.7500   24.9790 C   0  0  1  0  0  0  0  0  0  0  0  0
  -25.5040  -31.4420   26.0810 C   0  0  0  0  0  1  0  0  0  0  0  0
  -27.1800  -30.4080   24.5410 C   0  0  0  0  0  1  0  0  0  0  0  0
  -27.6790  -32.5870   25.6180 C   0  0  0  0  0  1  0  0  0  0  0  0
  -25.6210  -33.9050   24.0930 N   0  0  0  0  0  0  0  0  0  0  0  0
  -25.8920  -34.9700   23.3280 C   0  0  0  0  0  0  0  0  0  0  0  0
  -26.5100  -34.8910   22.2630 O   0  0  0  0  0  0  0  0  0  0  0  0
  -25.0530  -34.0360   24.9160 H   0  0  0  0  0  0  0  0  0  0  0  0
  -24.1010  -36.7240   23.0870 C   0  0  0  0  0  1  0  0  0  0  0  0
  -25.3970  -36.3450   23.8230 C   0  0  0  0  0  3  0  0  0  0  0  0
  -27.5520  -37.2830   24.5360 C   0  0  0  0  0  1  0  0  0  0  0  0
  -26.3950  -37.4250   23.6560 N   0  0  0  0  0  0  0  0  0  0  0  0
  -25.9740  -38.3340   23.8260 H   0  0  0  0  0  0  0  0  0  0  0  0
  -30.9000  -17.2290   19.4320 C   0  0  0  0  0  2  0  0  0  0  0  0
  -29.5670  -17.7010   21.3770 C   0  0  0  0  0  2  0  0  0  0  0  0
  -31.0090  -15.9540   20.3310 C   0  0  0  0  0  3  0  0  0  0  0  0
  -30.5020  -18.4010   20.3670 C   0  0  0  0  0  3  0  0  0  0  0  0
  -29.8450  -16.1630   21.3360 C   0  0  0  0  0  3  0  0  0  0  0  0
  -31.2760  -14.6210   19.5150 C   0  0  0  0  0  0  0  0  0  0  0  0
  -30.7080  -12.4910   18.3710 C   0  0  0  0  0  2  0  0  0  0  0  0
  -29.6440  -12.7720   17.2890 C   0  0  0  0  0  2  0  0  0  0  0  0
  -28.2260  -12.6610   17.8860 C   0  0  0  0  0  2  0  0  0  0  0  0
  -28.0820  -13.4490   19.2150 C   0  0  0  0  0  3  0  0  0  0  0  0
  -29.2650  -13.1560   20.1670 C   0  0  0  0  0  2  0  0  0  0  0  0
  -30.5120  -13.4790   19.4580 N   0  0  0  0  0  0  0  0  0  0  0  0
  -32.2970  -14.6770   18.8270 O   0  0  0  0  0  0  0  0  0  0  0  0
  -25.8480  -14.1110   20.3020 C   0  0  0  0  0  0  0  0  0  0  0  0
  -24.8000  -13.3640   20.7680 C   0  0  0  0  0  0  0  0  0  0  0  0
  -25.1720  -11.9990   20.5780 C   0  0  0  0  0  0  0  0  0  0  0  0
  -26.7940  -13.2030   19.8590 N   0  0  0  0  0  0  0  0  0  0  0  0
  -26.4000  -11.9220   20.0810 N   0  0  0  0  0  0  0  0  0  0  0  0
  -24.4030  -10.7640   20.7830 C   0  0  0  0  0  0  0  0  0  0  0  0
  -24.8320   -9.7650   21.6850 C   0  0  0  0  0  3  0  0  0  0  0  0
  -24.0650   -8.5960   21.8730 C   0  0  0  0  0  3  0  0  0  0  0  0
  -22.8550   -8.4180   21.1620 C   0  0  0  0  0  0  0  0  0  0  0  0
  -22.4470   -9.4040   20.2480 C   0  0  0  0  0  3  0  0  0  0  0  0
  -23.2120  -10.5640   20.0550 C   0  0  0  0  0  3  0  0  0  0  0  0
  -22.0550   -7.3040   21.2620 O   0  0  0  0  0  0  0  0  0  0  0  0
  -21.9170   -6.6260   22.4460 C   0  0  0  0  0  0  0  0  0  0  0  0
  -21.4400   -7.2560   23.6140 C   0  0  0  0  0  3  0  0  0  0  0  0
  -21.2500   -6.5070   24.7920 C   0  0  0  0  0  3  0  0  0  0  0  0
  -21.5220   -5.1240   24.8010 C   0  0  0  0  0  0  0  0  0  0  0  0
  -21.9900   -4.4920   23.6350 C   0  0  0  0  0  3  0  0  0  0  0  0
  -22.1840   -5.2410   22.4610 C   0  0  0  0  0  0  0  0  0  0  0  0
  -22.6160   -4.6230   21.3330 F   0  0  0  0  0  0  0  0  0  0  0  0
  -21.3320   -4.4010   25.9290 F   0  0  0  0  0  0  0  0  0  0  0  0
  -23.4840  -13.8870   21.2730 C   0  0  0  0  0  0  0  0  0  0  0  0
  -22.8670  -13.1830   22.2170 N   0  0  0  0  0  0  0  0  0  0  0  0
  -23.0230  -14.9520   20.8680 O   0  0  0  0  0  0  0  0  0  0  0  0
  -23.2560  -12.3170   22.5580 H   0  0  0  0  0  0  0  0  0  0  0  0
  -21.9930  -13.5150   22.6050 H   0  0  0  0  0  0  0  0  0  0  0  0
  -26.0660  -15.4810   20.1930 N   0  0  0  0  0  0  0  0  0  0  0  0
  -25.3290  -16.1390   20.4270 H   0  0  0  0  0  0  0  0  0  0  0  0
  -26.7740  -15.8840   19.5930 H   0  0  0  0  0  0  0  0  0  0  0  0
  -30.1280  -15.6280   22.6900 N   0  0  0  0  0  4  0  0  0  0  0  0
  -29.3800  -15.8540   23.3270 H   0  0  0  0  0  0  0  0  0  0  0  0
  -30.2100  -14.6270   22.6740 H   0  0  0  0  0  0  0  0  0  0  0  0
  -30.9810  -16.0050   23.0660 H   0  0  0  0  0  0  0  0  0  0  0  0
  1  3  2  0
  2  1  1  0
  4  2  1  0
  5  7  2  0
  5  6  1  0
  6  9  2  0
  7 10  1  0
  9  8  1  0
  9  1  1  0
 10 11  1  0
 10  8  2  0
 11 12  1  0
 13 24  2  0
 14 12  1  0
 14 19  1  0
 15 23  1  0
 15 25  1  0
 16 22  1  0
 16 18  1  0
 17 23  1  0
 18 17  1  0
 19 18  2  0
 20 21  1  0
 20 14  2  0
 21 16  2  0
 22 15  1  0
 23 13  1  0
 25 27  2  0
 26 25  1  0
 28 26  1  0
 29 38  2  0
 29 34  1  0
 30 26  1  0
 30 34  1  0
 31 30  1  0
 32 33  1  0
 32 31  1  0
 33 29  1  0
 34 35  2  0
 35 36  1  0
 37 36  2  0
 38 37  1  0
 39 13  1  0
 39 44  1  0
 39 40  1  0
 40 43  1  1
 40 41  1  0
 42 40  1  0
 44 47  1  0
 45 49  1  0
 45 44  1  0
 46 45  2  0
 49 48  1  0
 51 49  1  0
 51 52  1  0
 51 50  1  0
 53 55  1  0
 53 56  1  0
 55 58  1  0
 55 57  1  0
 56  2  1  0
 56 54  1  0
 57 54  1  0
 57 94  1  0
 59 64  1  0
 60 61  1  0
 60 59  1  0
 62 61  1  0
 62 69  1  0
 62 63  1  0
 64 58  1  0
 64 63  1  0
 65 58  2  0
 66 67  2  0
 67 86  1  0
 68 67  1  0
 68 71  1  0
 69 70  1  0
 69 66  1  0
 70 68  2  0
 71 72  1  0
 72 73  2  0
 74 77  1  0
 74 73  1  0
 75 74  2  0
 76 75  1  0
 76 71  2  0
 77 78  1  0
 78 83  2  0
 78 79  1  0
 79 80  2  0
 80 81  1  0
 81 85  1  0
 82 81  2  0
 83 82  1  0
 84 83  1  0
 86 87  1  0
 87 89  1  0
 87 90  1  0
 88 86  2  0
 91 66  1  0
 91 92  1  0
 93 91  1  0
 94 97  1  0
 94 95  1  0
 96 94  1  0
M  ISO  4  11 101  12 101  55 100  58 100
M  END
>  <TORSDO>  (32) 
F 20

>  <SCORE>  (32) 
-11.027

>  <name>  (32) 
31

>  <ligand_id>  (32) 
31

>  <original_smiles>  (32) 
[H]c1c([H])c(C(=O)N([H])C2([H])C([H])([H])C([H])(C(=O)N3C([H])([H])C([H])([H])C([H])([H])C([H])(n4nc(-c5c([H])c([H])c(Oc6c([H])c([H])c(F)c([H])c6F)c([H])c5[H])c(C(=O)N([H])[H])c4N([H])[H])C3([H])[H])C([H])([N+]([H])([H])[H])C2([H])[H])c([H])c(C([H])([H])Oc2c([H])c([H])c3c(c2[H])C([H])([H])N(C(=O)C([H])(N([H])C(=O)C([H])(N([H])C([H])([H])[H])C([H])([H])[H])C(C([H])([H])[H])(C([H])([H])[H])C([H])([H])[H])C([H])(C(=O)N([H])C2([H])c4c([H])c([H])c([H])c([H])c4C([H])([H])C([H])([H])C2([H])[H])C3([H])[H])c1[H]

>  <smiles>  (32) 
[H]c1c([H])c(C(=O)N([H])C2([H])C([H])([H])C([H])(C(=O)N3C([H])([H])C([H])([H])C([H])([H])C([H])(n4nc(-c5c([H])c([H])c(Oc6c([H])c([H])c(F)c([H])c6F)c([H])c5[H])c(C(=O)N([H])[H])c4N([H])[H])C3([H])[H])C([H])([N+]([H])([H])[H])C2([H])[H])c([H])c(C([H])([H])Oc2c([H])c([H])c3c(c2[H])C([H])([H])N(C(=O)C([H])(N([H])C(=O)C([H])(N([H])C([H])([H])[H])C([H])([H])[H])C(C([H])([H])[H])(C([H])([H])[H])C([H])([H])[H])C([H])(C(=O)N([H])C2([H])c4c([H])c([H])c([H])c([H])c4C([H])([H])C([H])([H])C2([H])[H])C3([H])[H])c1[H]

$$$$
32:0:0
     RDKit          3D

 92 99  0  0  1  0  0  0  0  0999 V2000
  -30.0700  -19.9580   20.3010 C   0  0  0  0  0  3  0  0  0  0  0  0
  -30.4500  -19.9860   18.8050 C   0  0  0  0  0  0  0  0  0  0  0  0
  -31.6210  -20.5170   18.4670 N   0  0  0  0  0  0  0  0  0  0  0  0
  -29.6910  -19.5270   17.9520 O   0  0  0  0  0  0  0  0  0  0  0  0
  -32.2420  -20.8790   19.1780 H   0  0  0  0  0  0  0  0  0  0  0  0
  -31.9170  -20.5390   17.5010 H   0  0  0  0  0  0  0  0  0  0  0  0
  -30.4710  -17.4370   20.7480 C   0  0  0  0  0  0  0  0  0  0  0  0
  -29.6520  -18.5400   20.6410 N   0  0  0  0  0  0  0  0  0  0  0  0
  -31.6910  -17.6000   20.6740 O   0  0  0  0  0  0  0  0  0  0  0  0
  -28.6550  -18.3770   20.6830 H   0  0  0  0  0  0  0  0  0  0  0  0
  -29.8680  -15.9920   21.0610 C   0  0  0  0  0  2  0  0  0  0  0  0
  -30.6550  -14.7080   20.5080 C   0  0  0  0  0  0  0  0  0  0  0  0
  -30.4190  -12.4890   19.3800 C   0  0  0  0  0  2  0  0  0  0  0  0
  -29.4900  -12.6700   18.1600 C   0  0  0  0  0  2  0  0  0  0  0  0
  -28.0110  -12.5050   18.5640 C   0  0  0  0  0  2  0  0  0  0  0  0
  -27.6510  -13.3300   19.8290 C   0  0  0  0  0  3  0  0  0  0  0  0
  -28.7040  -13.1540   20.9450 C   0  0  0  0  0  2  0  0  0  0  0  0
  -30.0210  -13.4940   20.3920 N   0  0  0  0  0  0  0  0  0  0  0  0
  -31.8120  -14.8140   20.0890 O   0  0  0  0  0  0  0  0  0  0  0  0
  -25.2560  -13.9210   20.5410 C   0  0  0  0  0  0  0  0  0  0  0  0
  -24.1890  -13.1450   20.9030 C   0  0  0  0  0  0  0  0  0  0  0  0
  -24.6510  -11.7940   20.8620 C   0  0  0  0  0  0  0  0  0  0  0  0
  -26.3010  -13.0410   20.3040 N   0  0  0  0  0  0  0  0  0  0  0  0
  -25.9430  -11.7560   20.5590 N   0  0  0  0  0  0  0  0  0  0  0  0
  -23.9230  -10.5310   21.0430 C   0  0  0  0  0  0  0  0  0  0  0  0
  -24.3390   -9.5720   21.9930 C   0  0  0  0  0  3  0  0  0  0  0  0
  -23.6140   -8.3730   22.1640 C   0  0  0  0  0  3  0  0  0  0  0  0
  -22.4590   -8.1240   21.3840 C   0  0  0  0  0  0  0  0  0  0  0  0
  -22.0610   -9.0720   20.4260 C   0  0  0  0  0  3  0  0  0  0  0  0
  -22.7870  -10.2640   20.2520 C   0  0  0  0  0  3  0  0  0  0  0  0
  -21.7080   -6.9760   21.4610 O   0  0  0  0  0  0  0  0  0  0  0  0
  -21.6200   -6.2470   22.6200 C   0  0  0  0  0  0  0  0  0  0  0  0
  -21.1280   -6.8090   23.8180 C   0  0  0  0  0  3  0  0  0  0  0  0
  -20.9910   -6.0060   24.9680 C   0  0  0  0  0  3  0  0  0  0  0  0
  -21.3350   -4.6420   24.9200 C   0  0  0  0  0  0  0  0  0  0  0  0
  -21.8210   -4.0800   23.7260 C   0  0  0  0  0  3  0  0  0  0  0  0
  -21.9610   -4.8800   22.5790 C   0  0  0  0  0  0  0  0  0  0  0  0
  -22.4080   -4.3300   21.4250 F   0  0  0  0  0  0  0  0  0  0  0  0
  -21.1970   -3.8670   26.0210 F   0  0  0  0  0  0  0  0  0  0  0  0
  -22.7910  -13.6190   21.1740 C   0  0  0  0  0  0  0  0  0  0  0  0
  -22.0570  -12.9100   22.0230 N   0  0  0  0  0  0  0  0  0  0  0  0
  -22.3570  -14.6500   20.6640 O   0  0  0  0  0  0  0  0  0  0  0  0
  -22.4230  -12.0770   22.4610 H   0  0  0  0  0  0  0  0  0  0  0  0
  -21.1140  -13.2010   22.2400 H   0  0  0  0  0  0  0  0  0  0  0  0
  -25.4210  -15.2930   20.3760 N   0  0  0  0  0  0  0  0  0  0  0  0
  -24.6520  -15.9450   20.4850 H   0  0  0  0  0  0  0  0  0  0  0  0
  -26.2730  -15.7360   20.0590 H   0  0  0  0  0  0  0  0  0  0  0  0
  -28.9880  -21.1130   20.5990 C   0  0  0  0  0  2  0  0  0  0  0  0
  -29.2640  -22.6050   20.0630 C   0  0  0  0  0  3  0  0  0  0  0  0
  -28.4320  -23.8700   20.5880 C   0  0  0  0  0  3  0  0  0  0  0  0
  -28.5460  -25.2150   19.7320 C   0  0  0  0  0  2  0  0  0  0  0  0
  -28.3620  -26.5550   20.3290 O   0  0  0  0  0  0  0  0  0  0  0  0
  -24.5370  -31.8900   23.2250 C   0  0  0  0  0  0  0  0  0  0  0  0
  -27.1990  -27.3330   20.2250 C   0  0  0  0  0  0  0  0  0  0  0  0
  -23.3490  -30.4740   21.5840 C   0  0  0  0  0  3  0  0  0  0  0  0
  -24.8160  -28.9170   20.1760 C   0  0  0  0  0  0  0  0  0  0  0  0
  -25.8820  -30.8100   21.4110 C   0  0  0  0  0  2  0  0  0  0  0  0
  -25.9720  -29.4260   20.7770 C   0  0  0  0  0  0  0  0  0  0  0  0
  -27.1600  -28.6430   20.7930 C   0  0  0  0  0  3  0  0  0  0  0  0
  -26.0170  -26.8630   19.6100 C   0  0  0  0  0  3  0  0  0  0  0  0
  -24.8400  -27.6400   19.5870 C   0  0  0  0  0  3  0  0  0  0  0  0
  -23.5730  -29.7860   20.2090 C   0  0  0  0  0  2  0  0  0  0  0  0
  -24.6070  -31.0770   22.1310 N   0  0  0  0  0  0  0  0  0  0  0  0
  -23.4490  -32.1670   23.7510 O   0  0  0  0  0  0  0  0  0  0  0  0
  -22.6840  -29.4640   22.5510 C   0  0  0  0  0  0  0  0  0  0  0  0
  -21.3610  -29.2760   22.4130 N   0  0  0  0  0  0  0  0  0  0  0  0
  -23.3610  -28.8490   23.3810 O   0  0  0  0  0  0  0  0  0  0  0  0
  -20.8730  -29.8330   21.7250 H   0  0  0  0  0  0  0  0  0  0  0  0
  -17.9840  -28.0710   22.8910 C   0  0  0  0  0  0  0  0  0  0  0  0
  -20.5400  -28.3400   23.1820 C   0  0  0  0  0  3  0  0  0  0  0  0
  -20.6500  -26.9060   22.6170 C   0  0  0  0  0  2  0  0  0  0  0  0
  -19.5580  -26.5730   21.5950 C   0  0  0  0  0  2  0  0  0  0  0  0
  -18.1710  -26.7180   22.2280 C   0  0  0  0  0  2  0  0  0  0  0  0
  -19.0960  -28.8400   23.3250 C   0  0  0  0  0  0  0  0  0  0  0  0
  -18.8680  -30.1070   23.9060 C   0  0  0  0  0  3  0  0  0  0  0  0
  -17.5600  -30.6040   24.0540 C   0  0  0  0  0  3  0  0  0  0  0  0
  -16.4620  -29.8320   23.6370 C   0  0  0  0  0  3  0  0  0  0  0  0
  -16.6760  -28.5670   23.0620 C   0  0  0  0  0  3  0  0  0  0  0  0
  -25.8130  -32.5320   23.8520 C   0  0  0  0  0  3  0  0  0  0  0  0
  -25.4970  -33.9310   24.1680 N   0  0  0  0  0  0  0  0  0  0  0  0
  -25.8420  -34.9820   23.4120 C   0  0  0  0  0  0  0  0  0  0  0  0
  -26.5280  -34.8750   22.3920 O   0  0  0  0  0  0  0  0  0  0  0  0
  -24.8830  -34.0870   24.9540 H   0  0  0  0  0  0  0  0  0  0  0  0
  -24.1330  -36.7870   23.0100 C   0  0  0  0  0  1  0  0  0  0  0  0
  -25.3480  -36.3730   23.8560 C   0  0  0  0  0  3  0  0  0  0  0  0
  -27.4590  -37.2530   24.7530 C   0  0  0  0  0  1  0  0  0  0  0  0
  -26.3880  -37.4220   23.7750 N   0  0  0  0  0  0  0  0  0  0  0  0
  -25.9810  -38.3430   23.9070 H   0  0  0  0  0  0  0  0  0  0  0  0
  -26.3230  -31.7710   25.1390 C   0  0  1  0  0  0  0  0  0  0  0  0
  -25.2260  -31.5360   26.2040 C   0  0  0  0  0  1  0  0  0  0  0  0
  -26.9160  -30.3940   24.7630 C   0  0  0  0  0  1  0  0  0  0  0  0
  -27.4630  -32.5780   25.8070 C   0  0  0  0  0  1  0  0  0  0  0  0
  1 48  1  0
  1  8  1  0
  2  1  1  0
  3  2  1  0
  3  5  1  0
  4  2  2  0
  6  3  1  0
  7 11  1  0
  8 10  1  0
  8  7  1  0
  9  7  2  0
 12 11  1  0
 13 18  1  0
 14 15  1  0
 14 13  1  0
 16 15  1  0
 16 23  1  0
 16 17  1  0
 18 12  1  0
 18 17  1  0
 19 12  2  0
 20 21  2  0
 21 40  1  0
 22 21  1  0
 22 25  1  0
 23 20  1  0
 23 24  1  0
 24 22  2  0
 25 26  1  0
 26 27  2  0
 28 31  1  0
 28 27  1  0
 29 28  2  0
 30 29  1  0
 30 25  2  0
 31 32  1  0
 32 33  1  0
 33 34  2  0
 35 34  1  0
 35 39  1  0
 36 35  2  0
 37 32  2  0
 37 36  1  0
 38 37  1  0
 40 41  1  0
 41 44  1  0
 41 43  1  0
 42 40  2  0
 45 46  1  0
 45 20  1  0
 47 45  1  0
 49 50  2  0
 49 48  1  0
 51 52  1  0
 51 50  1  0
 53 64  2  0
 54 52  1  0
 54 59  1  0
 55 63  1  0
 55 65  1  0
 56 62  1  0
 56 58  1  0
 57 63  1  0
 58 59  2  0
 58 57  1  0
 60 54  2  0
 61 60  1  0
 61 56  2  0
 62 55  1  0
 63 53  1  0
 65 67  2  0
 66 65  1  0
 68 66  1  0
 69 78  2  0
 69 74  1  0
 70 66  1  0
 70 74  1  0
 71 70  1  0
 72 73  1  0
 72 71  1  0
 73 69  1  0
 74 75  2  0
 75 76  1  0
 77 76  2  0
 78 77  1  0
 79 53  1  0
 79 80  1  0
 79 89  1  0
 80 83  1  0
 81 85  1  0
 81 80  1  0
 82 81  2  0
 85 84  1  0
 87 85  1  0
 87 88  1  0
 87 86  1  0
 89 92  1  1
 89 90  1  0
 91 89  1  0
M  ISO  4  11 100  12 100  51 101  52 101
M  END
>  <TORSDO>  (33) 
F 23

>  <SCORE>  (33) 
-12.946

>  <name>  (33) 
32

>  <ligand_id>  (33) 
32

>  <original_smiles>  (33) 
[H]c1c([H])c([H])c2c(c1[H])C([H])([H])C([H])([H])C([H])([H])C2([H])N([H])C(=O)C1([H])N(C(=O)C([H])(N([H])C(=O)C([H])(N([H])C([H])([H])[H])C([H])([H])[H])C(C([H])([H])[H])(C([H])([H])[H])C([H])([H])[H])C([H])([H])c2c([H])c(OC([H])([H])C([H])([H])C([H])([H])C([H])([H])C([H])(C(=O)N([H])[H])N([H])C(=O)C([H])([H])C(=O)N3C([H])([H])C([H])([H])C([H])([H])C([H])(n4nc(-c5c([H])c([H])c(Oc6c([H])c([H])c(F)c([H])c6F)c([H])c5[H])c(C(=O)N([H])[H])c4N([H])[H])C3([H])[H])c([H])c([H])c2C1([H])[H]

>  <smiles>  (33) 
[H]c1c([H])c([H])c2c(c1[H])C([H])([H])C([H])([H])C([H])([H])C2([H])N([H])C(=O)C1([H])N(C(=O)C([H])(N([H])C(=O)C([H])(N([H])C([H])([H])[H])C([H])([H])[H])C(C([H])([H])[H])(C([H])([H])[H])C([H])([H])[H])C([H])([H])c2c([H])c(OC([H])([H])C([H])([H])C([H])([H])C([H])([H])C([H])(C(=O)N([H])[H])N([H])C(=O)C([H])([H])C(=O)N3C([H])([H])C([H])([H])C([H])([H])C([H])(n4nc(-c5c([H])c([H])c(Oc6c([H])c([H])c(F)c([H])c6F)c([H])c5[H])c(C(=O)N([H])[H])c4N([H])[H])C3([H])[H])c([H])c([H])c2C1([H])[H]

$$$$
33:0:0
     RDKit          3D

 98107  0  0  1  0  0  0  0  0999 V2000
  -32.3150  -21.7690   20.8470 C   0  0  0  0  0  3  0  0  0  0  0  0
  -30.4940  -21.9920   22.4470 C   0  0  0  0  0  3  0  0  0  0  0  0
  -32.6350  -20.5130   21.3890 C   0  0  0  0  0  3  0  0  0  0  0  0
  -30.8100  -20.7330   22.9880 C   0  0  0  0  0  3  0  0  0  0  0  0
  -31.2400  -22.5160   21.3700 C   0  0  0  0  0  0  0  0  0  0  0  0
  -31.8790  -19.9830   22.4570 C   0  0  0  0  0  0  0  0  0  0  0  0
  -30.8460  -24.9630   21.8640 C   0  0  0  0  0  2  0  0  0  0  0  0
  -29.5990  -23.8410   19.9550 C   0  0  0  0  0  2  0  0  0  0  0  0
  -30.5220  -26.3360   21.2590 C   0  0  0  0  0  2  0  0  0  0  0  0
  -29.2970  -25.2190   19.3480 C   0  0  0  0  0  2  0  0  0  0  0  0
  -30.9030  -23.8740   20.7770 C   0  0  0  0  0  3  0  0  0  0  0  0
  -29.2140  -26.2920   20.4490 C   0  0  0  0  0  3  0  0  0  0  0  0
  -29.0520  -27.5710   19.8560 O   0  0  0  0  0  0  0  0  0  0  0  0
  -24.7970  -31.8540   23.5800 C   0  0  0  0  0  0  0  0  0  0  0  0
  -27.8060  -28.1260   19.9750 C   0  0  0  0  0  0  0  0  0  0  0  0
  -23.7060  -30.5750   21.7640 C   0  0  0  0  0  3  0  0  0  0  0  0
  -25.2810  -29.3620   20.1700 C   0  0  0  0  0  0  0  0  0  0  0  0
  -26.1840  -31.1860   21.6240 C   0  0  0  0  0  2  0  0  0  0  0  0
  -26.3880  -29.9200   20.8220 C   0  0  0  0  0  0  0  0  0  0  0  0
  -27.6530  -29.3110   20.7220 C   0  0  0  0  0  3  0  0  0  0  0  0
  -26.6860  -27.5600   19.3300 C   0  0  0  0  0  3  0  0  0  0  0  0
  -25.4230  -28.1770   19.4240 C   0  0  0  0  0  3  0  0  0  0  0  0
  -23.9670  -30.0930   20.3120 C   0  0  0  0  0  2  0  0  0  0  0  0
  -24.9140  -31.2120   22.3850 N   0  0  0  0  0  0  0  0  0  0  0  0
  -23.7000  -31.9640   24.1440 O   0  0  0  0  0  0  0  0  0  0  0  0
  -23.1490  -29.3900   22.5830 C   0  0  0  0  0  0  0  0  0  0  0  0
  -21.8650  -29.0650   22.3640 N   0  0  0  0  0  0  0  0  0  0  0  0
  -23.8700  -28.7680   23.3670 O   0  0  0  0  0  0  0  0  0  0  0  0
  -21.3400  -29.6300   21.7110 H   0  0  0  0  0  0  0  0  0  0  0  0
  -18.6890  -27.3470   22.4320 C   0  0  0  0  0  0  0  0  0  0  0  0
  -21.1360  -27.9620   22.9870 C   0  0  0  0  0  3  0  0  0  0  0  0
  -21.5160  -26.6090   22.3410 C   0  0  0  0  0  2  0  0  0  0  0  0
  -20.5800  -26.2020   21.1990 C   0  0  0  0  0  2  0  0  0  0  0  0
  -19.1370  -26.0910   21.7020 C   0  0  0  0  0  2  0  0  0  0  0  0
  -19.6290  -28.2330   23.0200 C   0  0  0  0  0  0  0  0  0  0  0  0
  -19.1620  -29.4040   23.6550 C   0  0  0  0  0  3  0  0  0  0  0  0
  -17.7870  -29.6940   23.7110 C   0  0  0  0  0  3  0  0  0  0  0  0
  -16.8580  -28.8060   23.1410 C   0  0  0  0  0  3  0  0  0  0  0  0
  -17.3090  -27.6330   22.5060 C   0  0  0  0  0  3  0  0  0  0  0  0
  -26.0300  -32.5040   24.2840 C   0  0  0  0  0  3  0  0  0  0  0  0
  -26.4790  -31.7340   25.5870 C   0  0  1  0  0  0  0  0  0  0  0  0
  -25.3170  -31.4250   26.5590 C   0  0  0  0  0  1  0  0  0  0  0  0
  -27.1560  -30.3940   25.2140 C   0  0  0  0  0  1  0  0  0  0  0  0
  -27.5350  -32.5670   26.3510 C   0  0  0  0  0  1  0  0  0  0  0  0
  -25.6780  -33.8950   24.5970 N   0  0  0  0  0  0  0  0  0  0  0  0
  -26.0910  -34.9600   23.8960 C   0  0  0  0  0  0  0  0  0  0  0  0
  -26.8790  -34.8730   22.9490 O   0  0  0  0  0  0  0  0  0  0  0  0
  -24.9930  -34.0370   25.3260 H   0  0  0  0  0  0  0  0  0  0  0  0
  -24.4150  -36.7520   23.3550 C   0  0  0  0  0  1  0  0  0  0  0  0
  -25.5440  -36.3370   24.3110 C   0  0  0  0  0  3  0  0  0  0  0  0
  -27.5610  -37.2010   25.4130 C   0  0  0  0  0  1  0  0  0  0  0  0
  -26.5780  -37.3940   24.3490 N   0  0  0  0  0  0  0  0  0  0  0  0
  -26.1530  -38.3080   24.4740 H   0  0  0  0  0  0  0  0  0  0  0  0
  -32.2110  -18.6070   23.0080 C   0  0  0  0  0  2  0  0  0  0  0  0
  -30.1660  -17.1830   22.6420 C   0  0  0  0  0  3  0  0  0  0  0  0
  -31.4470  -17.4840   22.3090 C   0  0  0  0  0  0  0  0  0  0  0  0
  -31.9720  -14.7350   19.9240 C   0  0  0  0  0  0  0  0  0  0  0  0
  -31.5320  -12.5450   18.8770 C   0  0  0  0  0  2  0  0  0  0  0  0
  -30.5040  -12.6630   17.7370 C   0  0  0  0  0  2  0  0  0  0  0  0
  -29.0720  -12.5360   18.2880 C   0  0  0  0  0  2  0  0  0  0  0  0
  -28.8260  -13.4840   19.4900 C   0  0  0  0  0  3  0  0  0  0  0  0
  -29.9500  -13.3450   20.5380 C   0  0  0  0  0  2  0  0  0  0  0  0
  -31.2440  -13.5890   19.8710 N   0  0  0  0  0  0  0  0  0  0  0  0
  -32.9110  -14.9480   19.1470 O   0  0  0  0  0  0  0  0  0  0  0  0
  -32.1670  -16.7510   21.2540 C   0  0  0  0  0  0  0  0  0  0  0  0
  -31.6070  -15.5760   20.9060 N   0  0  0  0  0  0  0  0  0  0  0  0
  -33.2080  -17.1780   20.7390 O   0  0  0  0  0  0  0  0  0  0  0  0
  -30.8080  -15.2940   21.4460 H   0  0  0  0  0  0  0  0  0  0  0  0
  -26.5570  -14.1800   20.4870 C   0  0  0  0  0  0  0  0  0  0  0  0
  -25.4750  -13.4460   20.8920 C   0  0  0  0  0  0  0  0  0  0  0  0
  -25.8300  -12.0760   20.6960 C   0  0  0  0  0  0  0  0  0  0  0  0
  -27.5080  -13.2570   20.0780 N   0  0  0  0  0  0  0  0  0  0  0  0
  -27.0780  -11.9810   20.2560 N   0  0  0  0  0  0  0  0  0  0  0  0
  -25.0360  -10.8510   20.8530 C   0  0  0  0  0  0  0  0  0  0  0  0
  -25.3850   -9.8650   21.8010 C   0  0  0  0  0  3  0  0  0  0  0  0
  -24.5980   -8.7030   21.9460 C   0  0  0  0  0  3  0  0  0  0  0  0
  -23.4470   -8.5200   21.1420 C   0  0  0  0  0  0  0  0  0  0  0  0
  -23.1170   -9.4940   20.1830 C   0  0  0  0  0  3  0  0  0  0  0  0
  -23.9050  -10.6490   20.0370 C   0  0  0  0  0  3  0  0  0  0  0  0
  -22.6380   -7.4110   21.1940 O   0  0  0  0  0  0  0  0  0  0  0  0
  -22.3040   -6.8190   22.3850 C   0  0  0  0  0  0  0  0  0  0  0  0
  -21.6320   -7.5250   23.4070 C   0  0  0  0  0  3  0  0  0  0  0  0
  -21.2480   -6.8590   24.5880 C   0  0  0  0  0  3  0  0  0  0  0  0
  -21.5240   -5.4880   24.7440 C   0  0  0  0  0  0  0  0  0  0  0  0
  -22.1880   -4.7810   23.7260 C   0  0  0  0  0  3  0  0  0  0  0  0
  -22.5750   -5.4460   22.5480 C   0  0  0  0  0  0  0  0  0  0  0  0
  -23.1970   -4.7570   21.5600 F   0  0  0  0  0  0  0  0  0  0  0  0
  -21.1470   -4.8450   25.8730 F   0  0  0  0  0  0  0  0  0  0  0  0
  -24.1500  -13.9830   21.3500 C   0  0  0  0  0  0  0  0  0  0  0  0
  -23.4800  -13.2720   22.2490 N   0  0  0  0  0  0  0  0  0  0  0  0
  -23.7230  -15.0640   20.9480 O   0  0  0  0  0  0  0  0  0  0  0  0
  -23.8440  -12.3960   22.5950 H   0  0  0  0  0  0  0  0  0  0  0  0
  -22.5940  -13.6090   22.5960 H   0  0  0  0  0  0  0  0  0  0  0  0
  -26.8060  -15.5480   20.4110 N   0  0  0  0  0  0  0  0  0  0  0  0
  -26.0920  -16.2340   20.6320 H   0  0  0  0  0  0  0  0  0  0  0  0
  -27.6510  -15.9620   20.0390 H   0  0  0  0  0  0  0  0  0  0  0  0
  -29.4590  -17.8150   23.5930 O   0  0  0  0  0  0  0  0  0  0  0  0
  -30.0240  -18.4600   24.0000 H   0  0  0  0  0  0  0  0  0  0  0  0
  1  5  2  0
  1  3  1  0
  2  4  2  0
  3  6  2  0
  5  2  1  0
  6  4  1  0
  6 54  1  0
  8 11  1  0
  9  7  1  0
 10  8  1  0
 10 12  1  0
 11  5  1  0
 11  7  1  0
 12 13  1  0
 12  9  1  0
 13 15  1  0
 14 25  2  0
 15 20  1  0
 16 24  1  0
 16 26  1  0
 17 23  1  0
 17 19  1  0
 18 24  1  0
 19 18  1  0
 20 19  2  0
 21 22  1  0
 21 15  2  0
 22 17  2  0
 23 16  1  0
 24 14  1  0
 26 28  2  0
 27 26  1  0
 29 27  1  0
 30 39  2  0
 30 35  1  0
 31 27  1  0
 31 35  1  0
 32 31  1  0
 33 34  1  0
 33 32  1  0
 34 30  1  0
 35 36  2  0
 36 37  1  0
 38 37  2  0
 39 38  1  0
 40 14  1  0
 40 45  1  0
 40 41  1  0
 41 44  1  1
 41 42  1  0
 43 41  1  0
 45 48  1  0
 46 50  1  0
 46 45  1  0
 47 46  2  0
 50 49  1  0
 50 52  1  0
 52 53  1  0
 52 51  1  0
 55 97  1  0
 56 55  2  0
 56 54  1  0
 57 66  1  0
 58 63  1  0
 59 60  1  0
 59 58  1  0
 61 60  1  0
 61 72  1  0
 61 62  1  0
 63 57  1  0
 63 62  1  0
 64 57  2  0
 65 56  1  0
 66 65  1  0
 66 68  1  0
 67 65  2  0
 69 70  2  0
 70 89  1  0
 71 74  1  0
 71 70  1  0
 72 73  1  0
 72 69  1  0
 73 71  2  0
 74 75  1  0
 75 76  2  0
 77 80  1  0
 77 76  1  0
 78 77  2  0
 79 78  1  0
 79 74  2  0
 80 81  1  0
 81 86  2  0
 81 82  1  0
 82 83  2  0
 83 84  1  0
 84 88  1  0
 85 84  2  0
 86 85  1  0
 87 86  1  0
 89 90  1  0
 90 92  1  0
 90 93  1  0
 91 89  2  0
 94 69  1  0
 94 95  1  0
 96 94  1  0
 97 98  1  0
M  ISO  4  12 101  13 101  57 100  66 100
M  END
>  <TORSDO>  (34) 
F 20

>  <SCORE>  (34) 
-7.294

>  <name>  (34) 
33

>  <ligand_id>  (34) 
33

>  <original_smiles>  (34) 
[H]OC([H])=C(C(=O)N([H])C(=O)N1C([H])([H])C([H])([H])C([H])([H])C([H])(n2nc(-c3c([H])c([H])c(Oc4c([H])c([H])c(F)c([H])c4F)c([H])c3[H])c(C(=O)N([H])[H])c2N([H])[H])C1([H])[H])C([H])([H])c1c([H])c([H])c(C2([H])C([H])([H])C([H])([H])C([H])(Oc3c([H])c([H])c4c(c3[H])C([H])([H])N(C(=O)C([H])(N([H])C(=O)C([H])(N([H])C([H])([H])[H])C([H])([H])[H])C(C([H])([H])[H])(C([H])([H])[H])C([H])([H])[H])C([H])(C(=O)N([H])C3([H])c5c([H])c([H])c([H])c([H])c5C([H])([H])C([H])([H])C3([H])[H])C4([H])[H])C([H])([H])C2([H])[H])c([H])c1[H]

>  <smiles>  (34) 
[H]OC([H])=C(C(=O)N([H])C(=O)N1C([H])([H])C([H])([H])C([H])([H])C([H])(n2nc(-c3c([H])c([H])c(Oc4c([H])c([H])c(F)c([H])c4F)c([H])c3[H])c(C(=O)N([H])[H])c2N([H])[H])C1([H])[H])C([H])([H])c1c([H])c([H])c(C2([H])C([H])([H])C([H])([H])C([H])(Oc3c([H])c([H])c4c(c3[H])C([H])([H])N(C(=O)C([H])(N([H])C(=O)C([H])(N([H])C([H])([H])[H])C([H])([H])[H])C(C([H])([H])[H])(C([H])([H])[H])C([H])([H])[H])C([H])(C(=O)N([H])C3([H])c5c([H])c([H])c([H])c([H])c5C([H])([H])C([H])([H])C3([H])[H])C4([H])[H])C([H])([H])C2([H])[H])c([H])c1[H]

$$$$
34:0:0
     RDKit          3D

 93101  0  0  1  0  0  0  0  0999 V2000
  -29.3400  -18.8680   20.2110 C   0  0  0  0  0  3  0  0  0  0  0  0
  -29.9610  -16.1730   20.4960 C   0  0  0  0  0  3  0  0  0  0  0  0
  -30.2950  -17.5520   20.4420 C   0  0  0  0  0  0  0  0  0  0  0  0
  -30.8560  -14.9170   20.6210 C   0  0  0  0  0  0  0  0  0  0  0  0
  -30.8640  -12.4450   20.1090 C   0  0  0  0  0  2  0  0  0  0  0  0
  -30.0780  -12.1900   18.8010 C   0  0  0  0  0  2  0  0  0  0  0  0
  -28.5760  -12.0100   19.0970 C   0  0  0  0  0  2  0  0  0  0  0  0
  -28.0280  -13.1030   20.0500 C   0  0  0  0  0  3  0  0  0  0  0  0
  -28.9490  -13.3210   21.2690 C   0  0  0  0  0  2  0  0  0  0  0  0
  -30.2870  -13.6530   20.7610 N   0  0  0  0  0  0  0  0  0  0  0  0
  -32.0770  -14.9620   20.4330 O   0  0  0  0  0  0  0  0  0  0  0  0
  -25.6090  -13.7530   20.5780 C   0  0  0  0  0  0  0  0  0  0  0  0
  -24.5020  -13.0110   20.8880 C   0  0  0  0  0  0  0  0  0  0  0  0
  -24.9380  -11.6510   20.9370 C   0  0  0  0  0  0  0  0  0  0  0  0
  -26.6490  -12.8480   20.4480 N   0  0  0  0  0  0  0  0  0  0  0  0
  -26.2490  -11.5810   20.7300 N   0  0  0  0  0  0  0  0  0  0  0  0
  -24.1720  -10.4090   21.1070 C   0  0  0  0  0  0  0  0  0  0  0  0
  -24.5350   -9.4440   22.0710 C   0  0  0  0  0  3  0  0  0  0  0  0
  -23.7710   -8.2680   22.2290 C   0  0  0  0  0  3  0  0  0  0  0  0
  -22.6270   -8.0500   21.4230 C   0  0  0  0  0  0  0  0  0  0  0  0
  -22.2840   -9.0040   20.4490 C   0  0  0  0  0  3  0  0  0  0  0  0
  -23.0490  -10.1710   20.2890 C   0  0  0  0  0  3  0  0  0  0  0  0
  -21.8390   -6.9280   21.4890 O   0  0  0  0  0  0  0  0  0  0  0  0
  -21.7420   -6.1840   22.6380 C   0  0  0  0  0  0  0  0  0  0  0  0
  -21.3300   -6.7530   23.8630 C   0  0  0  0  0  3  0  0  0  0  0  0
  -21.1770   -5.9370   25.0010 C   0  0  0  0  0  3  0  0  0  0  0  0
  -21.4240   -4.5540   24.9170 C   0  0  0  0  0  0  0  0  0  0  0  0
  -21.8290   -3.9850   23.6960 C   0  0  0  0  0  3  0  0  0  0  0  0
  -21.9840   -4.7960   22.5600 C   0  0  0  0  0  0  0  0  0  0  0  0
  -22.3520   -4.2390   21.3810 F   0  0  0  0  0  0  0  0  0  0  0  0
  -21.2690   -3.7690   26.0090 F   0  0  0  0  0  0  0  0  0  0  0  0
  -23.0980  -13.5240   21.0300 C   0  0  0  0  0  0  0  0  0  0  0  0
  -22.3050  -12.9050   21.9000 N   0  0  0  0  0  0  0  0  0  0  0  0
  -22.7090  -14.5090   20.4050 O   0  0  0  0  0  0  0  0  0  0  0  0
  -22.6290  -12.1100   22.4300 H   0  0  0  0  0  0  0  0  0  0  0  0
  -21.3600  -13.2330   22.0380 H   0  0  0  0  0  0  0  0  0  0  0  0
  -25.8150  -15.1130   20.3720 N   0  0  0  0  0  0  0  0  0  0  0  0
  -25.0610  -15.7910   20.4060 H   0  0  0  0  0  0  0  0  0  0  0  0
  -26.6960  -15.5230   20.0890 H   0  0  0  0  0  0  0  0  0  0  0  0
  -31.5650  -17.9670   20.5590 O   0  0  0  0  0  0  0  0  0  0  0  0
  -32.1100  -17.1960   20.6780 H   0  0  0  0  0  0  0  0  0  0  0  0
  -28.7670  -18.7750   18.7720 C   0  0  0  0  0  2  0  0  0  0  0  0
  -25.6360  -21.6250   17.7680 C   0  0  0  0  0  3  0  0  0  0  0  0
  -25.4470  -20.7290   18.8370 C   0  0  0  0  0  3  0  0  0  0  0  0
  -26.8280  -21.5820   17.0180 C   0  0  0  0  0  3  0  0  0  0  0  0
  -26.4510  -19.7970   19.1630 C   0  0  0  0  0  3  0  0  0  0  0  0
  -27.8320  -20.6520   17.3450 C   0  0  0  0  0  3  0  0  0  0  0  0
  -27.6580  -19.7640   18.4300 C   0  0  0  0  0  0  0  0  0  0  0  0
  -29.7820  -20.4560   20.5400 C   0  0  0  0  0  3  0  0  0  0  0  0
  -28.7790  -21.7910   20.3660 C   0  0  0  0  0  3  0  0  0  0  0  0
  -29.1460  -23.3900   20.6970 C   0  0  0  0  0  3  0  0  0  0  0  0
  -28.1260  -24.6700   20.3660 C   0  0  0  0  0  3  0  0  0  0  0  0
  -28.3950  -26.1790   20.5560 O   0  0  0  0  0  0  0  0  0  0  0  0
  -24.6470  -31.8690   23.2960 C   0  0  0  0  0  0  0  0  0  0  0  0
  -27.3310  -27.1390   20.4340 C   0  0  0  0  0  0  0  0  0  0  0  0
  -23.5030  -30.4490   21.6350 C   0  0  0  0  0  3  0  0  0  0  0  0
  -25.0010  -28.8600   20.2870 C   0  0  0  0  0  0  0  0  0  0  0  0
  -26.0590  -30.7220   21.5540 C   0  0  0  0  0  2  0  0  0  0  0  0
  -26.1560  -29.3230   20.9290 C   0  0  0  0  0  0  0  0  0  0  0  0
  -27.3240  -28.4790   20.9840 C   0  0  0  0  0  3  0  0  0  0  0  0
  -26.1500  -26.7680   19.7530 C   0  0  0  0  0  3  0  0  0  0  0  0
  -25.0100  -27.5950   19.6830 C   0  0  0  0  0  3  0  0  0  0  0  0
  -23.7720  -29.7520   20.2750 C   0  0  0  0  0  2  0  0  0  0  0  0
  -24.7550  -31.0350   22.2180 N   0  0  0  0  0  0  0  0  0  0  0  0
  -23.5430  -32.1620   23.7790 O   0  0  0  0  0  0  0  0  0  0  0  0
  -22.7910  -29.4550   22.5860 C   0  0  0  0  0  0  0  0  0  0  0  0
  -21.4650  -29.2960   22.4230 N   0  0  0  0  0  0  0  0  0  0  0  0
  -23.4330  -28.8310   23.4340 O   0  0  0  0  0  0  0  0  0  0  0  0
  -21.0060  -29.8540   21.7160 H   0  0  0  0  0  0  0  0  0  0  0  0
  -18.0630  -28.1190   22.8190 C   0  0  0  0  0  0  0  0  0  0  0  0
  -20.6110  -28.3750   23.1780 C   0  0  0  0  0  3  0  0  0  0  0  0
  -20.7270  -26.9320   22.6320 C   0  0  0  0  0  2  0  0  0  0  0  0
  -19.6620  -26.5950   21.5840 C   0  0  0  0  0  2  0  0  0  0  0  0
  -18.2580  -26.7580   22.1720 C   0  0  0  0  0  2  0  0  0  0  0  0
  -19.1680  -28.8840   23.2770 C   0  0  0  0  0  0  0  0  0  0  0  0
  -18.9320  -30.1560   23.8410 C   0  0  0  0  0  3  0  0  0  0  0  0
  -17.6240  -30.6640   23.9510 C   0  0  0  0  0  3  0  0  0  0  0  0
  -16.5340  -29.8970   23.5080 C   0  0  0  0  0  3  0  0  0  0  0  0
  -16.7530  -28.6260   22.9490 C   0  0  0  0  0  3  0  0  0  0  0  0
  -25.9030  -32.5110   23.9590 C   0  0  0  0  0  3  0  0  0  0  0  0
  -25.5730  -33.9080   24.2820 N   0  0  0  0  0  0  0  0  0  0  0  0
  -25.9540  -34.9700   23.5590 C   0  0  0  0  0  0  0  0  0  0  0  0
  -26.6850  -34.8760   22.5700 O   0  0  0  0  0  0  0  0  0  0  0  0
  -24.9320  -34.0550   25.0480 H   0  0  0  0  0  0  0  0  0  0  0  0
  -24.2670  -36.7830   23.1080 C   0  0  0  0  0  1  0  0  0  0  0  0
  -25.4440  -36.3560   24.0020 C   0  0  0  0  0  3  0  0  0  0  0  0
  -27.5140  -37.2180   25.0000 C   0  0  0  0  0  1  0  0  0  0  0  0
  -26.4880  -37.4020   23.9780 N   0  0  0  0  0  0  0  0  0  0  0  0
  -26.0790  -38.3250   24.1030 H   0  0  0  0  0  0  0  0  0  0  0  0
  -26.3790  -31.7450   25.2550 C   0  0  1  0  0  0  0  0  0  0  0  0
  -25.2530  -31.5160   26.2900 C   0  0  0  0  0  1  0  0  0  0  0  0
  -26.9710  -30.3640   24.8890 C   0  0  0  0  0  1  0  0  0  0  0  0
  -27.5100  -32.5400   25.9470 C   0  0  0  0  0  1  0  0  0  0  0  0
  1 42  1  0
  1  3  1  0
  1 49  1  0
  2  4  1  0
  3  2  2  0
  3 40  1  0
  4 10  1  0
  5 10  1  0
  6  7  1  0
  6  5  1  0
  8  7  1  0
  8 15  1  0
  8  9  1  0
 10  9  1  0
 11  4  2  0
 12 13  2  0
 13 14  1  0
 13 32  1  0
 14 17  1  0
 15 12  1  0
 15 16  1  0
 16 14  2  0
 17 18  1  0
 18 19  2  0
 20 23  1  0
 20 19  1  0
 21 20  2  0
 22 21  1  0
 22 17  2  0
 23 24  1  0
 24 25  1  0
 25 26  2  0
 27 26  1  0
 27 31  1  0
 28 27  2  0
 29 24  2  0
 29 28  1  0
 30 29  1  0
 32 33  1  0
 33 36  1  0
 33 35  1  0
 34 32  2  0
 37 38  1  0
 37 12  1  0
 39 37  1  0
 40 41  1  0
 43 44  1  0
 44 46  2  0
 45 47  1  0
 45 43  2  0
 47 48  2  0
 48 42  1  0
 48 46  1  0
 50 49  2  0
 50 51  1  0
 52 53  1  0
 52 51  2  0
 54 65  2  0
 55 53  1  0
 55 60  1  0
 56 64  1  0
 56 66  1  0
 57 59  1  0
 58 64  1  0
 59 60  2  0
 59 58  1  0
 61 55  2  0
 62 61  1  0
 62 57  2  0
 63 57  1  0
 63 56  1  0
 64 54  1  0
 66 68  2  0
 67 66  1  0
 69 67  1  0
 70 79  2  0
 70 75  1  0
 71 67  1  0
 71 75  1  0
 72 71  1  0
 73 74  1  0
 73 72  1  0
 74 70  1  0
 75 76  2  0
 76 77  1  0
 78 77  2  0
 79 78  1  0
 80 54  1  0
 80 81  1  0
 80 90  1  0
 81 84  1  0
 82 86  1  0
 82 81  1  0
 83 82  2  0
 86 85  1  0
 88 86  1  0
 88 89  1  0
 88 87  1  0
 90 93  1  1
 90 91  1  0
 92 90  1  0
M  ISO  4   2 100   4 100  52 101  53 101
M  END
>  <TORSDO>  (35) 
F 24

>  <SCORE>  (35) 
-11.286

>  <name>  (35) 
34

>  <ligand_id>  (35) 
34

>  <original_smiles>  (35) 
[H]OC(=C([H])C(=O)N1C([H])([H])C([H])([H])C([H])([H])C([H])(n2nc(-c3c([H])c([H])c(Oc4c([H])c([H])c(F)c([H])c4F)c([H])c3[H])c(C(=O)N([H])[H])c2N([H])[H])C1([H])[H])C([H])(C([H])([H])c1c([H])c([H])c([H])c([H])c1[H])C([H])([H])C([H])([H])C([H])([H])C([H])([H])Oc1c([H])c([H])c2c(c1[H])C([H])([H])N(C(=O)C([H])(N([H])C(=O)C([H])(N([H])C([H])([H])[H])C([H])([H])[H])C(C([H])([H])[H])(C([H])([H])[H])C([H])([H])[H])C([H])(C(=O)N([H])C1([H])c3c([H])c([H])c([H])c([H])c3C([H])([H])C([H])([H])C1([H])[H])C2([H])[H]

>  <smiles>  (35) 
[H]OC(=C([H])C(=O)N1C([H])([H])C([H])([H])C([H])([H])C([H])(n2nc(-c3c([H])c([H])c(Oc4c([H])c([H])c(F)c([H])c4F)c([H])c3[H])c(C(=O)N([H])[H])c2N([H])[H])C1([H])[H])C([H])(C([H])([H])c1c([H])c([H])c([H])c([H])c1[H])C([H])([H])C([H])([H])C([H])([H])C([H])([H])Oc1c([H])c([H])c2c(c1[H])C([H])([H])N(C(=O)C([H])(N([H])C(=O)C([H])(N([H])C([H])([H])[H])C([H])([H])[H])C(C([H])([H])[H])(C([H])([H])[H])C([H])([H])[H])C([H])(C(=O)N([H])C1([H])c3c([H])c([H])c([H])c([H])c3C([H])([H])C([H])([H])C1([H])[H])C2([H])[H]

$$$$
35:0:0
     RDKit          3D

 92100  0  0  1  0  0  0  0  0999 V2000
  -30.3340  -20.8820   19.8960 C   0  0  0  0  0  3  0  0  0  0  0  0
  -30.1190  -19.5190   20.1890 C   0  0  0  0  0  3  0  0  0  0  0  0
  -27.9900  -21.1630   19.3810 C   0  0  0  0  0  3  0  0  0  0  0  0
  -29.2820  -21.7300   19.4710 C   0  0  0  0  0  0  0  0  0  0  0  0
  -28.8350  -18.9430   20.0790 C   0  0  0  0  0  0  0  0  0  0  0  0
  -27.7590  -19.7920   19.6850 C   0  0  0  0  0  0  0  0  0  0  0  0
  -26.3310  -19.2620   19.6060 C   0  0  0  0  0  1  0  0  0  0  0  0
  -29.6030  -23.1550   19.1660 C   0  0  0  0  0  3  0  0  0  0  0  0
  -28.7900  -24.2340   19.0460 C   0  0  0  0  0  3  0  0  0  0  0  0
  -29.3110  -25.6350   18.6810 C   0  0  0  0  0  2  0  0  0  0  0  0
  -29.0200  -26.6720   19.6440 O   0  0  0  0  0  0  0  0  0  0  0  0
  -24.6940  -31.3440   22.8930 C   0  0  0  0  0  0  0  0  0  0  0  0
  -27.7910  -27.3120   19.6260 C   0  0  0  0  0  0  0  0  0  0  0  0
  -23.6730  -29.9790   21.1060 C   0  0  0  0  0  3  0  0  0  0  0  0
  -25.2940  -28.6600   19.6480 C   0  0  0  0  0  0  0  0  0  0  0  0
  -26.1780  -30.5210   21.0640 C   0  0  0  0  0  2  0  0  0  0  0  0
  -26.3890  -29.2150   20.3230 C   0  0  0  0  0  0  0  0  0  0  0  0
  -27.6380  -28.5470   20.3100 C   0  0  0  0  0  3  0  0  0  0  0  0
  -26.6630  -26.7720   18.9650 C   0  0  0  0  0  3  0  0  0  0  0  0
  -25.4270  -27.4390   18.9700 C   0  0  0  0  0  3  0  0  0  0  0  0
  -23.9930  -29.4250   19.6940 C   0  0  0  0  0  2  0  0  0  0  0  0
  -24.8620  -30.6290   21.7440 N   0  0  0  0  0  0  0  0  0  0  0  0
  -23.5710  -31.4930   23.3970 O   0  0  0  0  0  0  0  0  0  0  0  0
  -23.0640  -28.8400   21.9570 C   0  0  0  0  0  0  0  0  0  0  0  0
  -21.7500  -28.6100   21.8020 N   0  0  0  0  0  0  0  0  0  0  0  0
  -23.7700  -28.1720   22.7180 O   0  0  0  0  0  0  0  0  0  0  0  0
  -21.2370  -29.2070   21.1670 H   0  0  0  0  0  0  0  0  0  0  0  0
  -18.4160  -27.2840   22.2350 C   0  0  0  0  0  0  0  0  0  0  0  0
  -20.9740  -27.5700   22.4760 C   0  0  0  0  0  3  0  0  0  0  0  0
  -21.0900  -26.2180   21.7350 C   0  0  0  0  0  2  0  0  0  0  0  0
  -19.9720  -25.9900   20.7130 C   0  0  0  0  0  2  0  0  0  0  0  0
  -18.6050  -26.0270   21.4010 C   0  0  0  0  0  2  0  0  0  0  0  0
  -19.5290  -28.0170   22.7270 C   0  0  0  0  0  0  0  0  0  0  0  0
  -19.2980  -29.1970   23.4670 C   0  0  0  0  0  3  0  0  0  0  0  0
  -17.9860  -29.6440   23.7210 C   0  0  0  0  0  3  0  0  0  0  0  0
  -16.8890  -28.9070   23.2430 C   0  0  0  0  0  3  0  0  0  0  0  0
  -17.1050  -27.7270   22.5080 C   0  0  0  0  0  3  0  0  0  0  0  0
  -25.8960  -32.0250   23.6160 C   0  0  0  0  0  3  0  0  0  0  0  0
  -25.4740  -33.3810   23.9910 N   0  0  0  0  0  0  0  0  0  0  0  0
  -25.7710  -34.4900   23.2990 C   0  0  0  0  0  0  0  0  0  0  0  0
  -26.4990  -34.4810   22.3030 O   0  0  0  0  0  0  0  0  0  0  0  0
  -24.8290  -33.4560   24.7640 H   0  0  0  0  0  0  0  0  0  0  0  0
  -23.9380  -36.1730   22.9400 C   0  0  0  0  0  1  0  0  0  0  0  0
  -25.1650  -35.8170   23.7940 C   0  0  0  0  0  3  0  0  0  0  0  0
  -27.1910  -36.8060   24.7640 C   0  0  0  0  0  1  0  0  0  0  0  0
  -26.1230  -36.9430   23.7780 N   0  0  0  0  0  0  0  0  0  0  0  0
  -25.6460  -37.8240   23.9490 H   0  0  0  0  0  0  0  0  0  0  0  0
  -26.3950  -31.2300   24.8840 C   0  0  1  0  0  0  0  0  0  0  0  0
  -25.2650  -30.8730   25.8780 C   0  0  0  0  0  1  0  0  0  0  0  0
  -27.0910  -29.9150   24.4690 C   0  0  0  0  0  1  0  0  0  0  0  0
  -27.4530  -32.0660   25.6420 C   0  0  0  0  0  1  0  0  0  0  0  0
  -28.5990  -17.4480   20.4000 C   0  0  0  0  0  2  0  0  0  0  0  0
  -29.8550  -15.4250   19.4210 C   0  0  0  0  0  3  0  0  0  0  0  0
  -29.7600  -16.4250   20.3330 C   0  0  0  0  0  0  0  0  0  0  0  0
  -30.8590  -14.3410   19.3390 C   0  0  0  0  0  0  0  0  0  0  0  0
  -30.7840  -11.9020   18.8740 C   0  0  0  0  0  2  0  0  0  0  0  0
  -29.7570  -11.6440   17.7470 C   0  0  0  0  0  2  0  0  0  0  0  0
  -28.3230  -11.5150   18.3110 C   0  0  0  0  0  2  0  0  0  0  0  0
  -27.9700  -12.6580   19.2980 C   0  0  0  0  0  3  0  0  0  0  0  0
  -29.0980  -12.8540   20.3340 C   0  0  0  0  0  2  0  0  0  0  0  0
  -30.3480  -13.1060   19.6010 N   0  0  0  0  0  0  0  0  0  0  0  0
  -31.9850  -14.4900   18.8490 O   0  0  0  0  0  0  0  0  0  0  0  0
  -25.7290  -13.4000   20.3110 C   0  0  0  0  0  0  0  0  0  0  0  0
  -24.6700  -12.6840   20.8000 C   0  0  0  0  0  0  0  0  0  0  0  0
  -25.0450  -11.3110   20.6990 C   0  0  0  0  0  0  0  0  0  0  0  0
  -26.6800  -12.4610   19.9390 N   0  0  0  0  0  0  0  0  0  0  0  0
  -26.2840  -11.1990   20.2370 N   0  0  0  0  0  0  0  0  0  0  0  0
  -24.2770  -10.0880   20.9620 C   0  0  0  0  0  0  0  0  0  0  0  0
  -24.7020   -9.1480   21.9260 C   0  0  0  0  0  3  0  0  0  0  0  0
  -23.9400   -7.9850   22.1730 C   0  0  0  0  0  3  0  0  0  0  0  0
  -22.7390   -7.7590   21.4590 C   0  0  0  0  0  0  0  0  0  0  0  0
  -22.3340   -8.6890   20.4850 C   0  0  0  0  0  3  0  0  0  0  0  0
  -23.0960   -9.8420   20.2340 C   0  0  0  0  0  3  0  0  0  0  0  0
  -21.9500   -6.6450   21.6140 O   0  0  0  0  0  0  0  0  0  0  0  0
  -21.8050   -6.0300   22.8300 C   0  0  0  0  0  0  0  0  0  0  0  0
  -21.3080   -6.7170   23.9600 C   0  0  0  0  0  3  0  0  0  0  0  0
  -21.1060   -6.0280   25.1710 C   0  0  0  0  0  3  0  0  0  0  0  0
  -21.3940   -4.6520   25.2580 C   0  0  0  0  0  0  0  0  0  0  0  0
  -21.8840   -3.9650   24.1330 C   0  0  0  0  0  3  0  0  0  0  0  0
  -22.0860   -4.6510   22.9240 C   0  0  0  0  0  0  0  0  0  0  0  0
  -22.5390   -3.9790   21.8360 F   0  0  0  0  0  0  0  0  0  0  0  0
  -21.1930   -3.9890   26.4200 F   0  0  0  0  0  0  0  0  0  0  0  0
  -23.3460  -13.2350   21.2420 C   0  0  0  0  0  0  0  0  0  0  0  0
  -22.6940  -12.5730   22.1900 N   0  0  0  0  0  0  0  0  0  0  0  0
  -22.9030  -14.2870   20.7820 O   0  0  0  0  0  0  0  0  0  0  0  0
  -23.0640  -11.7210   22.5850 H   0  0  0  0  0  0  0  0  0  0  0  0
  -21.8100  -12.9270   22.5310 H   0  0  0  0  0  0  0  0  0  0  0  0
  -25.9470  -14.7630   20.1300 N   0  0  0  0  0  0  0  0  0  0  0  0
  -25.2300  -15.4510   20.3300 H   0  0  0  0  0  0  0  0  0  0  0  0
  -26.7590  -15.1660   19.6830 H   0  0  0  0  0  0  0  0  0  0  0  0
  -30.6110  -16.6190   21.3550 O   0  0  0  0  0  0  0  0  0  0  0  0
  -31.2770  -15.9460   21.3220 H   0  0  0  0  0  0  0  0  0  0  0  0
  1  2  1  0
  3  4  1  0
  3  6  2  0
  4  1  2  0
  5  2  2  0
  5 52  1  0
  6  5  1  0
  7  6  1  0
  8  4  1  0
  9  8  2  0
 10  9  1  0
 10 11  1  0
 12 23  2  0
 13 11  1  0
 13 18  1  0
 14 22  1  0
 14 24  1  0
 15 21  1  0
 15 17  1  0
 16 22  1  0
 17 16  1  0
 18 17  2  0
 19 20  1  0
 19 13  2  0
 20 15  2  0
 21 14  1  0
 22 12  1  0
 24 26  2  0
 25 24  1  0
 27 25  1  0
 28 37  2  0
 28 33  1  0
 29 25  1  0
 29 33  1  0
 30 29  1  0
 31 32  1  0
 31 30  1  0
 32 28  1  0
 33 34  2  0
 34 35  1  0
 36 35  2  0
 37 36  1  0
 38 12  1  0
 38 39  1  0
 38 48  1  0
 39 42  1  0
 40 44  1  0
 40 39  1  0
 41 40  2  0
 44 43  1  0
 46 44  1  0
 46 47  1  0
 46 45  1  0
 48 51  1  1
 48 49  1  0
 50 48  1  0
 53 54  2  0
 54 52  1  0
 54 91  1  0
 55 53  1  0
 55 61  1  0
 56 61  1  0
 57 58  1  0
 57 56  1  0
 59 58  1  0
 59 66  1  0
 59 60  1  0
 61 60  1  0
 62 55  2  0
 63 64  2  0
 64 83  1  0
 65 64  1  0
 65 68  1  0
 66 67  1  0
 66 63  1  0
 67 65  2  0
 68 69  1  0
 69 70  2  0
 71 74  1  0
 71 70  1  0
 72 71  2  0
 73 72  1  0
 73 68  2  0
 74 75  1  0
 75 80  2  0
 75 76  1  0
 76 77  2  0
 77 78  1  0
 78 82  1  0
 79 78  2  0
 80 79  1  0
 81 80  1  0
 83 84  1  0
 84 87  1  0
 84 86  1  0
 85 83  2  0
 88 63  1  0
 88 89  1  0
 90 88  1  0
 92 91  1  0
M  ISO  4  10 101  11 101  53 100  55 100
M  END
>  <TORSDO>  (36) 
F 21

>  <SCORE>  (36) 
-10.815

>  <name>  (36) 
35

>  <ligand_id>  (36) 
35

>  <original_smiles>  (36) 
[H]OC(=C([H])C(=O)N1C([H])([H])C([H])([H])C([H])([H])C([H])(n2nc(-c3c([H])c([H])c(Oc4c([H])c([H])c(F)c([H])c4F)c([H])c3[H])c(C(=O)N([H])[H])c2N([H])[H])C1([H])[H])C([H])([H])c1c([H])c([H])c(C([H])=C([H])C([H])([H])Oc2c([H])c([H])c3c(c2[H])C([H])([H])N(C(=O)C([H])(N([H])C(=O)C([H])(N([H])C([H])([H])[H])C([H])([H])[H])C(C([H])([H])[H])(C([H])([H])[H])C([H])([H])[H])C([H])(C(=O)N([H])C2([H])c4c([H])c([H])c([H])c([H])c4C([H])([H])C([H])([H])C2([H])[H])C3([H])[H])c([H])c1C([H])([H])[H]

>  <smiles>  (36) 
[H]OC(=C([H])C(=O)N1C([H])([H])C([H])([H])C([H])([H])C([H])(n2nc(-c3c([H])c([H])c(Oc4c([H])c([H])c(F)c([H])c4F)c([H])c3[H])c(C(=O)N([H])[H])c2N([H])[H])C1([H])[H])C([H])([H])c1c([H])c([H])c(C([H])=C([H])C([H])([H])Oc2c([H])c([H])c3c(c2[H])C([H])([H])N(C(=O)C([H])(N([H])C(=O)C([H])(N([H])C([H])([H])[H])C([H])([H])[H])C(C([H])([H])[H])(C([H])([H])[H])C([H])([H])[H])C([H])(C(=O)N([H])C2([H])c4c([H])c([H])c([H])c([H])c4C([H])([H])C([H])([H])C2([H])[H])C3([H])[H])c([H])c1C([H])([H])[H]

$$$$
36:0:0
     RDKit          3D

 95103  0  0  1  0  0  0  0  0999 V2000
  -29.7140  -20.4420   21.0460 C   0  0  0  0  0  3  0  0  0  0  0  0
  -29.8230  -19.1560   21.6020 C   0  0  0  0  0  3  0  0  0  0  0  0
  -29.2660  -20.6320   19.7180 C   0  0  0  0  0  0  0  0  0  0  0  0
  -28.9320  -19.4930   18.9320 C   0  0  0  0  0  0  0  0  0  0  0  0
  -29.4530  -18.0370   20.8370 C   0  0  0  0  0  0  0  0  0  0  0  0
  -29.0090  -18.2000   19.5090 C   0  0  0  0  0  0  0  0  0  0  0  0
  -28.4700  -19.6590   17.4870 C   0  0  0  0  0  1  0  0  0  0  0  0
  -29.5350  -16.7380   21.3410 N   0  0  0  0  0  0  0  0  0  0  0  0
  -29.1350  -16.1260   20.6340 H   0  0  0  0  0  0  0  0  0  0  0  0
  -30.8800  -16.3710   21.7750 C   0  0  0  0  0  2  0  0  0  0  0  0
  -31.1470  -14.8570   21.7310 C   0  0  0  0  0  2  0  0  0  0  0  0
  -31.1870  -14.2430   20.3170 C   0  0  0  0  0  0  0  0  0  0  0  0
  -30.6630  -12.2700   18.9320 C   0  0  0  0  0  2  0  0  0  0  0  0
  -29.7010  -12.5380   17.7660 C   0  0  0  0  0  2  0  0  0  0  0  0
  -28.2390  -12.4190   18.2300 C   0  0  0  0  0  2  0  0  0  0  0  0
  -27.9640  -13.2510   19.5090 C   0  0  0  0  0  3  0  0  0  0  0  0
  -29.0260  -12.9810   20.5960 C   0  0  0  0  0  2  0  0  0  0  0  0
  -30.3640  -13.2070   20.0210 N   0  0  0  0  0  0  0  0  0  0  0  0
  -32.0880  -14.6120   19.5530 O   0  0  0  0  0  0  0  0  0  0  0  0
  -25.5920  -13.9330   20.2460 C   0  0  0  0  0  0  0  0  0  0  0  0
  -24.5100  -13.1930   20.6420 C   0  0  0  0  0  0  0  0  0  0  0  0
  -24.9360  -11.8280   20.6180 C   0  0  0  0  0  0  0  0  0  0  0  0
  -26.6100  -13.0210   20.0100 N   0  0  0  0  0  0  0  0  0  0  0  0
  -26.2180  -11.7520   20.2880 N   0  0  0  0  0  0  0  0  0  0  0  0
  -24.1810  -10.5870   20.8350 C   0  0  0  0  0  0  0  0  0  0  0  0
  -24.5770   -9.6460   21.8100 C   0  0  0  0  0  3  0  0  0  0  0  0
  -23.8250   -8.4690   22.0150 C   0  0  0  0  0  3  0  0  0  0  0  0
  -22.6630   -8.2260   21.2440 C   0  0  0  0  0  0  0  0  0  0  0  0
  -22.2880   -9.1550   20.2580 C   0  0  0  0  0  3  0  0  0  0  0  0
  -23.0390  -10.3240   20.0530 C   0  0  0  0  0  3  0  0  0  0  0  0
  -21.8850   -7.1000   21.3540 O   0  0  0  0  0  0  0  0  0  0  0  0
  -21.7510   -6.4300   22.5440 C   0  0  0  0  0  0  0  0  0  0  0  0
  -21.2650   -7.0670   23.7060 C   0  0  0  0  0  3  0  0  0  0  0  0
  -21.0780   -6.3230   24.8890 C   0  0  0  0  0  3  0  0  0  0  0  0
  -21.3680   -4.9450   24.9080 C   0  0  0  0  0  0  0  0  0  0  0  0
  -21.8470   -4.3110   23.7490 C   0  0  0  0  0  3  0  0  0  0  0  0
  -22.0360   -5.0510   22.5700 C   0  0  0  0  0  0  0  0  0  0  0  0
  -22.4770   -4.4300   21.4500 F   0  0  0  0  0  0  0  0  0  0  0  0
  -21.1830   -4.2290   26.0420 F   0  0  0  0  0  0  0  0  0  0  0  0
  -23.1300  -13.7080   20.9340 C   0  0  0  0  0  0  0  0  0  0  0  0
  -22.4060  -13.0440   21.8290 N   0  0  0  0  0  0  0  0  0  0  0  0
  -22.7010  -14.7300   20.4010 O   0  0  0  0  0  0  0  0  0  0  0  0
  -22.7640  -12.2140   22.2820 H   0  0  0  0  0  0  0  0  0  0  0  0
  -21.4810  -13.3700   22.0690 H   0  0  0  0  0  0  0  0  0  0  0  0
  -25.7860  -15.2980   20.0490 N   0  0  0  0  0  0  0  0  0  0  0  0
  -25.0430  -15.9750   20.1820 H   0  0  0  0  0  0  0  0  0  0  0  0
  -26.6520  -15.7180   19.7270 H   0  0  0  0  0  0  0  0  0  0  0  0
  -29.0590  -22.0080   19.2180 C   0  0  0  0  0  3  0  0  0  0  0  0
  -28.8290  -23.0620   20.0250 C   0  0  0  0  0  3  0  0  0  0  0  0
  -28.6400  -24.4350   19.5460 C   0  0  0  0  0  0  0  0  0  0  0  0
  -28.6720  -24.7590   18.3510 O   0  0  0  0  0  0  0  0  0  0  0  0
  -28.3840  -25.4760   20.6430 C   0  0  0  0  0  2  0  0  0  0  0  0
  -28.4360  -26.8080   20.1440 O   0  0  0  0  0  0  0  0  0  0  0  0
  -24.6050  -31.9140   23.2580 C   0  0  0  0  0  0  0  0  0  0  0  0
  -27.2450  -27.4870   20.1840 C   0  0  0  0  0  0  0  0  0  0  0  0
  -23.3890  -30.5050   21.6260 C   0  0  0  0  0  3  0  0  0  0  0  0
  -24.8370  -28.9530   20.2130 C   0  0  0  0  0  0  0  0  0  0  0  0
  -25.9100  -30.8700   21.4130 C   0  0  0  0  0  2  0  0  0  0  0  0
  -25.9950  -29.4950   20.7840 C   0  0  0  0  0  0  0  0  0  0  0  0
  -27.2030  -28.7710   20.7640 C   0  0  0  0  0  3  0  0  0  0  0  0
  -26.0720  -26.9420   19.6210 C   0  0  0  0  0  3  0  0  0  0  0  0
  -24.8670  -27.6710   19.6330 C   0  0  0  0  0  3  0  0  0  0  0  0
  -23.5930  -29.8080   20.2530 C   0  0  0  0  0  2  0  0  0  0  0  0
  -24.6530  -31.1110   22.1580 N   0  0  0  0  0  0  0  0  0  0  0  0
  -23.5270  -32.1910   23.8010 O   0  0  0  0  0  0  0  0  0  0  0  0
  -22.7390  -29.4920   22.5960 C   0  0  0  0  0  0  0  0  0  0  0  0
  -21.4150  -29.3080   22.4660 N   0  0  0  0  0  0  0  0  0  0  0  0
  -23.4230  -28.8740   23.4160 O   0  0  0  0  0  0  0  0  0  0  0  0
  -20.9260  -29.8590   21.7750 H   0  0  0  0  0  0  0  0  0  0  0  0
  -18.0430  -28.1130   22.9560 C   0  0  0  0  0  0  0  0  0  0  0  0
  -20.5980  -28.3750   23.2400 C   0  0  0  0  0  3  0  0  0  0  0  0
  -20.7060  -26.9390   22.6770 C   0  0  0  0  0  2  0  0  0  0  0  0
  -19.6100  -26.6060   21.6600 C   0  0  0  0  0  2  0  0  0  0  0  0
  -18.2240  -26.7570   22.2960 C   0  0  0  0  0  2  0  0  0  0  0  0
  -19.1590  -28.8790   23.3860 C   0  0  0  0  0  0  0  0  0  0  0  0
  -18.9360  -30.1490   23.9620 C   0  0  0  0  0  3  0  0  0  0  0  0
  -17.6300  -30.6510   24.1140 C   0  0  0  0  0  3  0  0  0  0  0  0
  -16.5290  -29.8820   23.7020 C   0  0  0  0  0  3  0  0  0  0  0  0
  -16.7360  -28.6130   23.1290 C   0  0  0  0  0  3  0  0  0  0  0  0
  -25.8960  -32.5440   23.8720 C   0  0  0  0  0  3  0  0  0  0  0  0
  -25.5910  -33.9400   24.2050 N   0  0  0  0  0  0  0  0  0  0  0  0
  -25.9150  -34.9930   23.4420 C   0  0  0  0  0  0  0  0  0  0  0  0
  -26.5770  -34.8890   22.4060 O   0  0  0  0  0  0  0  0  0  0  0  0
  -25.0050  -34.0950   25.0130 H   0  0  0  0  0  0  0  0  0  0  0  0
  -24.1800  -36.7800   23.1040 C   0  0  0  0  0  1  0  0  0  0  0  0
  -25.4310  -36.3810   23.9020 C   0  0  0  0  0  3  0  0  0  0  0  0
  -27.5730  -37.2710   24.7060 C   0  0  0  0  0  1  0  0  0  0  0  0
  -26.4600  -37.4350   23.7770 N   0  0  0  0  0  0  0  0  0  0  0  0
  -26.0530  -38.3540   23.9270 H   0  0  0  0  0  0  0  0  0  0  0  0
  -26.4250  -31.7670   25.1400 C   0  0  1  0  0  0  0  0  0  0  0  0
  -25.3390  -31.5140   26.2110 C   0  0  0  0  0  1  0  0  0  0  0  0
  -27.0140  -30.3970   24.7340 C   0  0  0  0  0  1  0  0  0  0  0  0
  -27.5720  -32.5640   25.8040 C   0  0  0  0  0  1  0  0  0  0  0  0
  -28.6580  -17.0760   18.8090 O   0  0  0  0  0  0  0  0  0  0  0  0
  -28.4070  -17.2830   17.9170 H   0  0  0  0  0  0  0  0  0  0  0  0
  1  2  1  0
  3  1  2  0
  4  6  2  0
  4  3  1  0
  5  8  1  0
  5  2  2  0
  6  5  1  0
  7  4  1  0
  8 10  1  0
  9  8  1  0
 11 10  1  0
 12 11  1  0
 13 18  1  0
 14 15  1  0
 14 13  1  0
 16 15  1  0
 16 23  1  0
 16 17  1  0
 18 12  1  0
 18 17  1  0
 19 12  2  0
 20 21  2  0
 21 40  1  0
 22 21  1  0
 22 25  1  0
 23 20  1  0
 23 24  1  0
 24 22  2  0
 25 26  1  0
 26 27  2  0
 28 31  1  0
 28 27  1  0
 29 28  2  0
 30 29  1  0
 30 25  2  0
 31 32  1  0
 32 37  2  0
 32 33  1  0
 33 34  2  0
 34 35  1  0
 35 39  1  0
 36 35  2  0
 37 36  1  0
 38 37  1  0
 40 41  1  0
 41 44  1  0
 41 43  1  0
 42 40  2  0
 45 46  1  0
 45 20  1  0
 47 45  1  0
 48  3  1  0
 48 49  2  0
 50 49  1  0
 50 52  1  0
 51 50  2  0
 53 55  1  0
 53 52  1  0
 54 65  2  0
 55 60  1  0
 56 64  1  0
 56 66  1  0
 57 63  1  0
 57 59  1  0
 58 64  1  0
 59 58  1  0
 60 59  2  0
 61 62  1  0
 61 55  2  0
 62 57  2  0
 63 56  1  0
 64 54  1  0
 66 68  2  0
 67 66  1  0
 69 67  1  0
 70 79  2  0
 70 75  1  0
 71 67  1  0
 71 75  1  0
 72 71  1  0
 73 74  1  0
 73 72  1  0
 74 70  1  0
 75 76  2  0
 76 77  1  0
 78 77  2  0
 79 78  1  0
 80 54  1  0
 80 81  1  0
 80 90  1  0
 81 84  1  0
 82 86  1  0
 82 81  1  0
 83 82  2  0
 86 85  1  0
 88 86  1  0
 88 89  1  0
 88 87  1  0
 90 93  1  1
 90 91  1  0
 92 90  1  0
 94  6  1  0
 95 94  1  0
M  ISO  4  11 100  12 100  52 101  53 101
M  END
>  <TORSDO>  (37) 
F 23

>  <SCORE>  (37) 
-12.822

>  <name>  (37) 
36

>  <ligand_id>  (37) 
36

>  <original_smiles>  (37) 
[H]Oc1c(N([H])C([H])([H])C([H])([H])C(=O)N2C([H])([H])C([H])([H])C([H])([H])C([H])(n3nc(-c4c([H])c([H])c(Oc5c([H])c([H])c(F)c([H])c5F)c([H])c4[H])c(C(=O)N([H])[H])c3N([H])[H])C2([H])[H])c([H])c([H])c(C([H])=C([H])C(=O)C([H])([H])Oc2c([H])c([H])c3c(c2[H])C([H])([H])N(C(=O)C([H])(N([H])C(=O)C([H])(N([H])C([H])([H])[H])C([H])([H])[H])C(C([H])([H])[H])(C([H])([H])[H])C([H])([H])[H])C([H])(C(=O)N([H])C2([H])c4c([H])c([H])c([H])c([H])c4C([H])([H])C([H])([H])C2([H])[H])C3([H])[H])c1C([H])([H])[H]

>  <smiles>  (37) 
[H]Oc1c(N([H])C([H])([H])C([H])([H])C(=O)N2C([H])([H])C([H])([H])C([H])([H])C([H])(n3nc(-c4c([H])c([H])c(Oc5c([H])c([H])c(F)c([H])c5F)c([H])c4[H])c(C(=O)N([H])[H])c3N([H])[H])C2([H])[H])c([H])c([H])c(C([H])=C([H])C(=O)C([H])([H])Oc2c([H])c([H])c3c(c2[H])C([H])([H])N(C(=O)C([H])(N([H])C(=O)C([H])(N([H])C([H])([H])[H])C([H])([H])[H])C(C([H])([H])[H])(C([H])([H])[H])C([H])([H])[H])C([H])(C(=O)N([H])C2([H])c4c([H])c([H])c([H])c([H])c4C([H])([H])C([H])([H])C2([H])[H])C3([H])[H])c1C([H])([H])[H]

$$$$
37:0:0
     RDKit          3D

 94102  0  0  1  0  0  0  0  0999 V2000
  -27.1170  -18.4320   15.6790 C   0  0  0  0  0  3  0  0  0  0  0  0
  -26.9240  -17.3880   16.5990 C   0  0  0  0  0  3  0  0  0  0  0  0
  -28.0410  -19.4530   15.9640 C   0  0  0  0  0  3  0  0  0  0  0  0
  -27.6570  -17.3710   17.8010 C   0  0  0  0  0  3  0  0  0  0  0  0
  -28.7810  -19.4440   17.1690 C   0  0  0  0  0  0  0  0  0  0  0  0
  -28.5840  -18.3930   18.1050 C   0  0  0  0  0  0  0  0  0  0  0  0
  -29.7330  -20.6030   17.4180 C   0  0  0  0  0  2  0  0  0  0  0  0
  -29.1640  -21.5820   18.4550 C   0  0  0  0  0  2  0  0  0  0  0  0
  -29.8170  -22.9710   18.4210 C   0  0  0  0  0  2  0  0  0  0  0  0
  -29.3820  -23.8020   19.6350 C   0  0  0  0  0  2  0  0  0  0  0  0
  -29.7080  -25.2960   19.5220 C   0  0  0  0  0  2  0  0  0  0  0  0
  -29.3720  -26.0230   20.8300 C   0  0  0  0  0  2  0  0  0  0  0  0
  -29.3130  -27.4310   20.6300 O   0  0  0  0  0  0  0  0  0  0  0  0
  -24.8500  -32.0560   23.6100 C   0  0  0  0  0  0  0  0  0  0  0  0
  -28.0600  -27.9950   20.5750 C   0  0  0  0  0  0  0  0  0  0  0  0
  -23.8630  -30.5830   21.8830 C   0  0  0  0  0  3  0  0  0  0  0  0
  -25.5240  -29.2290   20.5030 C   0  0  0  0  0  0  0  0  0  0  0  0
  -26.3440  -31.1980   21.8120 C   0  0  0  0  0  2  0  0  0  0  0  0
  -26.5930  -29.8610   21.1500 C   0  0  0  0  0  0  0  0  0  0  0  0
  -27.8640  -29.2520   21.1780 C   0  0  0  0  0  3  0  0  0  0  0  0
  -26.9740  -27.3650   19.9240 C   0  0  0  0  0  3  0  0  0  0  0  0
  -25.7080  -27.9790   19.8870 C   0  0  0  0  0  3  0  0  0  0  0  0
  -24.1990  -29.9570   20.5030 C   0  0  0  0  0  2  0  0  0  0  0  0
  -25.0330  -31.2940   22.4950 N   0  0  0  0  0  0  0  0  0  0  0  0
  -23.7240  -32.2090   24.1040 O   0  0  0  0  0  0  0  0  0  0  0  0
  -23.2730  -29.4810   22.7920 C   0  0  0  0  0  0  0  0  0  0  0  0
  -21.9950  -29.1380   22.5600 N   0  0  0  0  0  0  0  0  0  0  0  0
  -23.9630  -28.9370   23.6560 O   0  0  0  0  0  0  0  0  0  0  0  0
  -21.4960  -29.6380   21.8370 H   0  0  0  0  0  0  0  0  0  0  0  0
  -18.7810  -27.5000   22.7440 C   0  0  0  0  0  0  0  0  0  0  0  0
  -21.2410  -28.1010   23.2630 C   0  0  0  0  0  3  0  0  0  0  0  0
  -21.5910  -26.6960   22.7240 C   0  0  0  0  0  2  0  0  0  0  0  0
  -20.6490  -26.2230   21.6120 C   0  0  0  0  0  2  0  0  0  0  0  0
  -19.2040  -26.1830   22.1140 C   0  0  0  0  0  2  0  0  0  0  0  0
  -19.7390  -28.4070   23.2690 C   0  0  0  0  0  0  0  0  0  0  0  0
  -19.2960  -29.6340   23.8090 C   0  0  0  0  0  3  0  0  0  0  0  0
  -17.9260  -29.9550   23.8370 C   0  0  0  0  0  3  0  0  0  0  0  0
  -16.9810  -29.0460   23.3320 C   0  0  0  0  0  3  0  0  0  0  0  0
  -17.4090  -27.8200   22.7910 C   0  0  0  0  0  3  0  0  0  0  0  0
  -26.0410  -32.7900   24.3040 C   0  0  0  0  0  3  0  0  0  0  0  0
  -26.4320  -32.1630   25.6990 C   0  0  1  0  0  0  0  0  0  0  0  0
  -25.2280  -31.9610   26.6480 C   0  0  0  0  0  1  0  0  0  0  0  0
  -27.1180  -30.7910   25.5050 C   0  0  0  0  0  1  0  0  0  0  0  0
  -27.4580  -33.0740   26.4130 C   0  0  0  0  0  1  0  0  0  0  0  0
  -25.6620  -34.2010   24.4560 N   0  0  0  0  0  0  0  0  0  0  0  0
  -26.0590  -35.1840   23.6380 C   0  0  0  0  0  0  0  0  0  0  0  0
  -26.8530  -35.0080   22.7100 O   0  0  0  0  0  0  0  0  0  0  0  0
  -24.9740  -34.4100   25.1630 H   0  0  0  0  0  0  0  0  0  0  0  0
  -24.3500  -36.8700   22.8930 C   0  0  0  0  0  1  0  0  0  0  0  0
  -25.4850  -36.5920   23.8910 C   0  0  0  0  0  3  0  0  0  0  0  0
  -27.4780  -37.6230   24.8870 C   0  0  0  0  0  1  0  0  0  0  0  0
  -26.4990  -37.6650   23.8060 N   0  0  0  0  0  0  0  0  0  0  0  0
  -26.0550  -38.5800   23.8150 H   0  0  0  0  0  0  0  0  0  0  0  0
  -29.3300  -18.3130   19.4360 C   0  0  0  0  0  2  0  0  0  0  0  0
  -30.3370  -17.1480   19.4540 C   0  0  0  0  0  2  0  0  0  0  0  0
  -31.9490  -17.6870   21.3010 C   0  0  0  0  0  1  0  0  0  0  0  0
  -29.8110  -16.6760   21.9680 C   0  0  0  0  0  1  0  0  0  0  0  0
  -30.8730  -16.6640   20.8410 C   0  0  1  0  0  0  0  0  0  0  0  0
  -31.5570  -15.2720   20.5920 C   0  0  0  0  0  0  0  0  0  0  0  0
  -31.2690  -13.1430   19.4030 C   0  0  0  0  0  2  0  0  0  0  0  0
  -30.3730  -13.4020   18.1710 C   0  0  0  0  0  2  0  0  0  0  0  0
  -28.8770  -13.2820   18.5320 C   0  0  0  0  0  2  0  0  0  0  0  0
  -28.5020  -14.0510   19.8280 C   0  0  0  0  0  3  0  0  0  0  0  0
  -29.5260  -13.7460   20.9440 C   0  0  0  0  0  2  0  0  0  0  0  0
  -30.8660  -14.0990   20.4500 N   0  0  0  0  0  0  0  0  0  0  0  0
  -32.7450  -15.3300   20.2690 O   0  0  0  0  0  0  0  0  0  0  0  0
  -26.0890  -14.6660   20.4770 C   0  0  0  0  0  0  0  0  0  0  0  0
  -24.9980  -13.8940   20.7670 C   0  0  0  0  0  0  0  0  0  0  0  0
  -25.4440  -12.5400   20.6900 C   0  0  0  0  0  0  0  0  0  0  0  0
  -27.1310  -13.7800   20.2460 N   0  0  0  0  0  0  0  0  0  0  0  0
  -26.7430  -12.4930   20.4290 N   0  0  0  0  0  0  0  0  0  0  0  0
  -24.6980  -11.2820   20.7930 C   0  0  0  0  0  0  0  0  0  0  0  0
  -25.0350  -10.3010   21.7520 C   0  0  0  0  0  3  0  0  0  0  0  0
  -24.2910   -9.1060   21.8430 C   0  0  0  0  0  3  0  0  0  0  0  0
  -23.1970   -8.8830   20.9750 C   0  0  0  0  0  0  0  0  0  0  0  0
  -22.8790   -9.8520   20.0070 C   0  0  0  0  0  3  0  0  0  0  0  0
  -23.6240  -11.0400   19.9130 C   0  0  0  0  0  3  0  0  0  0  0  0
  -22.4330   -7.7420   20.9760 O   0  0  0  0  0  0  0  0  0  0  0  0
  -22.1010   -7.1010   22.1420 C   0  0  0  0  0  0  0  0  0  0  0  0
  -21.4140   -7.7600   23.1860 C   0  0  0  0  0  3  0  0  0  0  0  0
  -21.0300   -7.0440   24.3370 C   0  0  0  0  0  3  0  0  0  0  0  0
  -21.3230   -5.6720   24.4440 C   0  0  0  0  0  0  0  0  0  0  0  0
  -22.0030   -5.0130   23.4040 C   0  0  0  0  0  3  0  0  0  0  0  0
  -22.3870   -5.7260   22.2540 C   0  0  0  0  0  0  0  0  0  0  0  0
  -23.0220   -5.0820   21.2450 F   0  0  0  0  0  0  0  0  0  0  0  0
  -20.9490   -4.9820   25.5460 F   0  0  0  0  0  0  0  0  0  0  0  0
  -23.5990  -14.3790   21.0120 C   0  0  0  0  0  0  0  0  0  0  0  0
  -22.8400  -13.6650   21.8340 N   0  0  0  0  0  0  0  0  0  0  0  0
  -23.1870  -15.4250   20.5120 O   0  0  0  0  0  0  0  0  0  0  0  0
  -23.1850  -12.8160   22.2590 H   0  0  0  0  0  0  0  0  0  0  0  0
  -21.9000  -13.9700   22.0440 H   0  0  0  0  0  0  0  0  0  0  0  0
  -26.2710  -16.0410   20.3790 N   0  0  0  0  0  0  0  0  0  0  0  0
  -25.5050  -16.6920   20.5150 H   0  0  0  0  0  0  0  0  0  0  0  0
  -27.1480  -16.4950   20.1670 H   0  0  0  0  0  0  0  0  0  0  0  0
  1  3  2  0
  1  2  1  0
  2  4  2  0
  3  5  1  0
  4  6  1  0
  5  7  1  0
  5  6  2  0
  6 54  1  0
  7  8  1  0
  9  8  1  0
  9 10  1  0
 11 10  1  0
 11 12  1  0
 13 12  1  0
 14 25  2  0
 15 13  1  0
 15 20  1  0
 16 24  1  0
 16 26  1  0
 17 19  1  0
 18 24  1  0
 19 20  2  0
 19 18  1  0
 21 15  2  0
 22 21  1  0
 22 17  2  0
 23 17  1  0
 23 16  1  0
 24 14  1  0
 26 28  2  0
 27 26  1  0
 29 27  1  0
 30 39  2  0
 30 35  1  0
 31 27  1  0
 31 35  1  0
 32 31  1  0
 33 34  1  0
 33 32  1  0
 34 30  1  0
 35 36  2  0
 36 37  1  0
 38 37  2  0
 39 38  1  0
 40 14  1  0
 40 45  1  0
 40 41  1  0
 41 44  1  1
 41 42  1  0
 43 41  1  0
 45 48  1  0
 46 50  1  0
 46 45  1  0
 47 46  2  0
 50 49  1  0
 52 53  1  0
 52 50  1  0
 52 51  1  0
 54 55  1  0
 55 58  1  0
 58 56  1  1
 58 57  1  0
 59 58  1  0
 60 65  1  0
 61 62  1  0
 61 60  1  0
 63 62  1  0
 63 70  1  0
 63 64  1  0
 65 59  1  0
 65 64  1  0
 66 59  2  0
 67 68  2  0
 68 87  1  0
 69 68  1  0
 69 72  1  0
 70 71  1  0
 70 67  1  0
 71 69  2  0
 72 73  1  0
 73 74  2  0
 75 78  1  0
 75 74  1  0
 76 75  2  0
 77 76  1  0
 77 72  2  0
 78 79  1  0
 79 84  2  0
 79 80  1  0
 80 81  2  0
 81 82  1  0
 82 86  1  0
 83 82  2  0
 84 83  1  0
 85 84  1  0
 87 88  1  0
 88 91  1  0
 88 90  1  0
 89 87  2  0
 92 67  1  0
 92 93  1  0
 94 92  1  0
M  ISO  4  12 101  13 101  58 100  59 100
M  END
>  <TORSDO>  (38) 
F 25

>  <SCORE>  (38) 
-5.056

>  <name>  (38) 
37

>  <ligand_id>  (38) 
37

>  <original_smiles>  (38) 
[H]c1c([H])c([H])c2c(c1[H])C([H])([H])C([H])([H])C([H])([H])C2([H])N([H])C(=O)C1([H])N(C(=O)C([H])(N([H])C(=O)C([H])(N([H])C([H])([H])[H])C([H])([H])[H])C(C([H])([H])[H])(C([H])([H])[H])C([H])([H])[H])C([H])([H])c2c([H])c(OC([H])([H])C([H])([H])C([H])([H])C([H])([H])C([H])([H])C([H])([H])c3c([H])c([H])c([H])c([H])c3C([H])([H])C([H])([H])C(C(=O)N3C([H])([H])C([H])([H])C([H])([H])C([H])(n4nc(-c5c([H])c([H])c(Oc6c([H])c([H])c(F)c([H])c6F)c([H])c5[H])c(C(=O)N([H])[H])c4N([H])[H])C3([H])[H])(C([H])([H])[H])C([H])([H])[H])c([H])c([H])c2C1([H])[H]

>  <smiles>  (38) 
[H]c1c([H])c([H])c2c(c1[H])C([H])([H])C([H])([H])C([H])([H])C2([H])N([H])C(=O)C1([H])N(C(=O)C([H])(N([H])C(=O)C([H])(N([H])C([H])([H])[H])C([H])([H])[H])C(C([H])([H])[H])(C([H])([H])[H])C([H])([H])[H])C([H])([H])c2c([H])c(OC([H])([H])C([H])([H])C([H])([H])C([H])([H])C([H])([H])C([H])([H])c3c([H])c([H])c([H])c([H])c3C([H])([H])C([H])([H])C(C(=O)N3C([H])([H])C([H])([H])C([H])([H])C([H])(n4nc(-c5c([H])c([H])c(Oc6c([H])c([H])c(F)c([H])c6F)c([H])c5[H])c(C(=O)N([H])[H])c4N([H])[H])C3([H])[H])(C([H])([H])[H])C([H])([H])[H])c([H])c([H])c2C1([H])[H]

$$$$
38:0:0
     RDKit          3D

 95105  0  0  1  0  0  0  0  0999 V2000
  -31.7080  -20.8570   19.1760 C   0  0  0  0  0  3  0  0  0  0  0  0
  -30.6010  -21.8830   21.0860 C   0  0  0  0  0  3  0  0  0  0  0  0
  -31.5370  -19.5870   19.7580 C   0  0  0  0  0  3  0  0  0  0  0  0
  -30.4390  -20.6140   21.6740 C   0  0  0  0  0  3  0  0  0  0  0  0
  -31.2280  -22.0120   19.8270 C   0  0  0  0  0  0  0  0  0  0  0  0
  -30.8900  -19.4550   21.0070 C   0  0  0  0  0  0  0  0  0  0  0  0
  -30.6600  -14.4010   20.2430 C   0  0  0  0  0  0  0  0  0  0  0  0
  -30.2150  -12.3680   18.9120 C   0  0  0  0  0  2  0  0  0  0  0  0
  -29.2230  -12.6590   17.7700 C   0  0  0  0  0  2  0  0  0  0  0  0
  -27.7720  -12.4910   18.2570 C   0  0  0  0  0  2  0  0  0  0  0  0
  -27.5060  -13.2610   19.5750 C   0  0  0  0  0  3  0  0  0  0  0  0
  -28.6050  -12.9540   20.6220 C   0  0  0  0  0  2  0  0  0  0  0  0
  -29.9130  -13.2800   20.0280 N   0  0  0  0  0  0  0  0  0  0  0  0
  -31.6770  -14.6410   19.5820 O   0  0  0  0  0  0  0  0  0  0  0  0
  -29.4350  -17.4040   20.8560 C   0  0  0  0  0  2  0  0  0  0  0  0
  -31.8290  -17.1470   21.6500 C   0  0  0  0  0  2  0  0  0  0  0  0
  -29.1550  -15.9970   21.4110 C   0  0  0  0  0  2  0  0  0  0  0  0
  -31.4400  -15.7360   22.1530 C   0  0  0  0  0  2  0  0  0  0  0  0
  -30.6010  -18.0800   21.5980 C   0  0  0  0  0  3  0  0  0  0  0  0
  -30.3620  -15.1550   21.3330 N   0  0  0  0  0  0  0  0  0  0  0  0
  -25.1290  -13.8660   20.3610 C   0  0  0  0  0  0  0  0  0  0  0  0
  -24.0780  -13.0890   20.7690 C   0  0  0  0  0  0  0  0  0  0  0  0
  -24.5470  -11.7400   20.7290 C   0  0  0  0  0  0  0  0  0  0  0  0
  -26.1710  -12.9890   20.0990 N   0  0  0  0  0  0  0  0  0  0  0  0
  -25.8250  -11.7060   20.3760 N   0  0  0  0  0  0  0  0  0  0  0  0
  -23.8380  -10.4750   20.9490 C   0  0  0  0  0  0  0  0  0  0  0  0
  -24.3050   -9.5190   21.8770 C   0  0  0  0  0  3  0  0  0  0  0  0
  -23.5970   -8.3150   22.0830 C   0  0  0  0  0  3  0  0  0  0  0  0
  -22.4070   -8.0610   21.3610 C   0  0  0  0  0  0  0  0  0  0  0  0
  -21.9590   -9.0060   20.4220 C   0  0  0  0  0  3  0  0  0  0  0  0
  -22.6680  -10.2000   20.2140 C   0  0  0  0  0  3  0  0  0  0  0  0
  -21.6660   -6.9100   21.4780 O   0  0  0  0  0  0  0  0  0  0  0  0
  -21.6580   -6.1730   22.6360 C   0  0  0  0  0  0  0  0  0  0  0  0
  -21.2770   -6.7340   23.8740 C   0  0  0  0  0  3  0  0  0  0  0  0
  -21.2160   -5.9230   25.0250 C   0  0  0  0  0  3  0  0  0  0  0  0
  -21.5260   -4.5540   24.9390 C   0  0  0  0  0  0  0  0  0  0  0  0
  -21.9020   -3.9920   23.7060 C   0  0  0  0  0  3  0  0  0  0  0  0
  -21.9640   -4.7990   22.5570 C   0  0  0  0  0  0  0  0  0  0  0  0
  -22.3060   -4.2480   21.3670 F   0  0  0  0  0  0  0  0  0  0  0  0
  -21.4600   -3.7720   26.0430 F   0  0  0  0  0  0  0  0  0  0  0  0
  -22.6880  -13.5580   21.0880 C   0  0  0  0  0  0  0  0  0  0  0  0
  -21.9960  -12.8610   21.9830 N   0  0  0  0  0  0  0  0  0  0  0  0
  -22.2250  -14.5780   20.5800 O   0  0  0  0  0  0  0  0  0  0  0  0
  -22.3820  -12.0340   22.4140 H   0  0  0  0  0  0  0  0  0  0  0  0
  -21.0650  -13.1570   22.2410 H   0  0  0  0  0  0  0  0  0  0  0  0
  -25.2790  -15.2370   20.1720 N   0  0  0  0  0  0  0  0  0  0  0  0
  -24.5150  -15.8890   20.3100 H   0  0  0  0  0  0  0  0  0  0  0  0
  -26.1170  -15.6820   19.8180 H   0  0  0  0  0  0  0  0  0  0  0  0
  -29.9910  -23.9530   18.7840 C   0  0  0  0  0  2  0  0  0  0  0  0
  -29.8930  -25.2430   19.1030 C   0  0  0  0  0  3  0  0  0  0  0  0
  -31.1460  -25.7630   19.7580 C   0  0  0  0  0  2  0  0  0  0  0  0
  -32.0000  -24.4920   19.9760 C   0  0  0  0  0  2  0  0  0  0  0  0
  -31.3310  -23.3690   19.1430 C   0  0  0  0  0  3  0  0  0  0  0  0
  -28.6920  -26.1350   18.8730 C   0  0  0  0  0  2  0  0  0  0  0  0
  -28.3110  -26.7650   20.0910 O   0  0  0  0  0  0  0  0  0  0  0  0
  -24.5490  -31.9070   23.2100 C   0  0  0  0  0  0  0  0  0  0  0  0
  -27.1260  -27.4610   20.0960 C   0  0  0  0  0  0  0  0  0  0  0  0
  -23.3090  -30.5100   21.5880 C   0  0  0  0  0  3  0  0  0  0  0  0
  -24.7310  -28.9560   20.1520 C   0  0  0  0  0  0  0  0  0  0  0  0
  -25.8310  -30.8520   21.3550 C   0  0  0  0  0  2  0  0  0  0  0  0
  -25.8970  -29.4780   20.7260 C   0  0  0  0  0  0  0  0  0  0  0  0
  -27.0930  -28.7290   20.7100 C   0  0  0  0  0  3  0  0  0  0  0  0
  -25.9370  -26.9360   19.5390 C   0  0  0  0  0  3  0  0  0  0  0  0
  -24.7440  -27.6800   19.5640 C   0  0  0  0  0  3  0  0  0  0  0  0
  -23.4940  -29.8210   20.2090 C   0  0  0  0  0  2  0  0  0  0  0  0
  -24.5830  -31.1040   22.1090 N   0  0  0  0  0  0  0  0  0  0  0  0
  -23.4770  -32.1900   23.7630 O   0  0  0  0  0  0  0  0  0  0  0  0
  -22.6640  -29.4970   22.5600 C   0  0  0  0  0  0  0  0  0  0  0  0
  -21.3370  -29.3230   22.4460 N   0  0  0  0  0  0  0  0  0  0  0  0
  -23.3520  -28.8700   23.3700 O   0  0  0  0  0  0  0  0  0  0  0  0
  -20.8450  -29.8810   21.7620 H   0  0  0  0  0  0  0  0  0  0  0  0
  -17.9580  -28.1590   22.9720 C   0  0  0  0  0  0  0  0  0  0  0  0
  -20.5190  -28.3950   23.2260 C   0  0  0  0  0  3  0  0  0  0  0  0
  -20.6060  -26.9610   22.6560 C   0  0  0  0  0  2  0  0  0  0  0  0
  -19.4940  -26.6420   21.6520 C   0  0  0  0  0  2  0  0  0  0  0  0
  -18.1180  -26.8020   22.3060 C   0  0  0  0  0  2  0  0  0  0  0  0
  -19.0860  -28.9130   23.3910 C   0  0  0  0  0  0  0  0  0  0  0  0
  -18.8830  -30.1830   23.9730 C   0  0  0  0  0  3  0  0  0  0  0  0
  -17.5840  -30.6990   24.1420 C   0  0  0  0  0  3  0  0  0  0  0  0
  -16.4700  -29.9400   23.7410 C   0  0  0  0  0  3  0  0  0  0  0  0
  -16.6580  -28.6720   23.1620 C   0  0  0  0  0  3  0  0  0  0  0  0
  -25.8490  -32.5270   23.8120 C   0  0  0  0  0  3  0  0  0  0  0  0
  -25.5550  -33.9240   24.1540 N   0  0  0  0  0  0  0  0  0  0  0  0
  -25.8930  -34.9780   23.3980 C   0  0  0  0  0  0  0  0  0  0  0  0
  -26.5560  -34.8750   22.3630 O   0  0  0  0  0  0  0  0  0  0  0  0
  -24.9640  -34.0790   24.9570 H   0  0  0  0  0  0  0  0  0  0  0  0
  -24.1840  -36.7910   23.0520 C   0  0  0  0  0  1  0  0  0  0  0  0
  -25.4180  -36.3670   23.8640 C   0  0  0  0  0  3  0  0  0  0  0  0
  -27.5610  -37.2240   24.7050 C   0  0  0  0  0  1  0  0  0  0  0  0
  -26.4610  -37.4110   23.7620 N   0  0  0  0  0  0  0  0  0  0  0  0
  -26.0630  -38.3340   23.9130 H   0  0  0  0  0  0  0  0  0  0  0  0
  -26.3850  -31.7420   25.0710 C   0  0  1  0  0  0  0  0  0  0  0  0
  -25.3120  -31.5010   26.1580 C   0  0  0  0  0  1  0  0  0  0  0  0
  -26.9510  -30.3640   24.6520 C   0  0  0  0  0  1  0  0  0  0  0  0
  -27.5530  -32.5240   25.7170 C   0  0  0  0  0  1  0  0  0  0  0  0
  1  3  2  0
  1  5  1  0
  2  4  1  0
  3  6  1  0
  5  2  2  0
  6  4  2  0
  7 20  1  0
  8 13  1  0
  9 10  1  0
  9  8  1  0
 11 10  1  0
 11 24  1  0
 11 12  1  0
 13  7  1  0
 13 12  1  0
 14  7  2  0
 15 17  1  0
 15 19  1  0
 16 18  1  0
 19  6  1  0
 19 16  1  0
 20 17  1  0
 20 18  1  0
 21 22  2  0
 22 41  1  0
 23 22  1  0
 23 26  1  0
 24 21  1  0
 24 25  1  0
 25 23  2  0
 26 27  1  0
 27 28  2  0
 29 32  1  0
 29 28  1  0
 30 29  2  0
 31 30  1  0
 31 26  2  0
 32 33  1  0
 33 34  1  0
 34 35  2  0
 36 35  1  0
 36 40  1  0
 37 36  2  0
 38 33  2  0
 38 37  1  0
 39 38  1  0
 41 42  1  0
 42 45  1  0
 42 44  1  0
 43 41  2  0
 46 47  1  0
 46 21  1  0
 48 46  1  0
 49 50  1  0
 49 53  1  0
 50 54  1  0
 50 51  1  0
 51 52  1  0
 53  5  1  0
 53 52  1  0
 54 55  1  0
 55 57  1  0
 56 67  2  0
 57 62  1  0
 58 66  1  0
 58 68  1  0
 59 65  1  0
 59 61  1  0
 60 66  1  0
 61 60  1  0
 62 61  2  0
 63 64  1  0
 63 57  2  0
 64 59  2  0
 65 58  1  0
 66 56  1  0
 68 70  2  0
 69 68  1  0
 71 69  1  0
 72 81  2  0
 72 77  1  0
 73 69  1  0
 73 77  1  0
 74 73  1  0
 75 76  1  0
 75 74  1  0
 76 72  1  0
 77 78  2  0
 78 79  1  0
 80 79  2  0
 81 80  1  0
 82 56  1  0
 82 83  1  0
 82 92  1  0
 83 86  1  0
 84 88  1  0
 84 83  1  0
 85 84  2  0
 88 87  1  0
 90 88  1  0
 90 91  1  0
 90 89  1  0
 92 95  1  1
 92 93  1  0
 94 92  1  0
M  ISO  4   7 100  20 100  54 101  55 101
M  END
>  <TORSDO>  (39) 
F 18

>  <SCORE>  (39) 
-13.536

>  <name>  (39) 
38

>  <ligand_id>  (39) 
38

>  <original_smiles>  (39) 
[H]C1=C(C([H])([H])Oc2c([H])c([H])c3c(c2[H])C([H])([H])N(C(=O)C([H])(N([H])C(=O)C([H])(N([H])C([H])([H])[H])C([H])([H])[H])C(C([H])([H])[H])(C([H])([H])[H])C([H])([H])[H])C([H])(C(=O)N([H])C2([H])c4c([H])c([H])c([H])c([H])c4C([H])([H])C([H])([H])C2([H])[H])C3([H])[H])C([H])([H])C([H])([H])C1([H])c1c([H])c([H])c(C2([H])C([H])([H])C([H])([H])N(C(=O)N3C([H])([H])C([H])([H])C([H])([H])C([H])(n4nc(-c5c([H])c([H])c(Oc6c([H])c([H])c(F)c([H])c6F)c([H])c5[H])c(C(=O)N([H])[H])c4N([H])[H])C3([H])[H])C([H])([H])C2([H])[H])c([H])c1[H]

>  <smiles>  (39) 
[H]C1=C(C([H])([H])Oc2c([H])c([H])c3c(c2[H])C([H])([H])N(C(=O)C([H])(N([H])C(=O)C([H])(N([H])C([H])([H])[H])C([H])([H])[H])C(C([H])([H])[H])(C([H])([H])[H])C([H])([H])[H])C([H])(C(=O)N([H])C2([H])c4c([H])c([H])c([H])c([H])c4C([H])([H])C([H])([H])C2([H])[H])C3([H])[H])C([H])([H])C([H])([H])C1([H])c1c([H])c([H])c(C2([H])C([H])([H])C([H])([H])N(C(=O)N3C([H])([H])C([H])([H])C([H])([H])C([H])(n4nc(-c5c([H])c([H])c(Oc6c([H])c([H])c(F)c([H])c6F)c([H])c5[H])c(C(=O)N([H])[H])c4N([H])[H])C3([H])[H])C([H])([H])C2([H])[H])c([H])c1[H]

$$$$
39:0:0
     RDKit          3D

 95103  0  0  1  0  0  0  0  0999 V2000
  -29.1740  -20.3420   19.5180 C   0  0  0  0  0  3  0  0  0  0  0  0
  -29.1020  -19.3990   15.8830 C   0  0  0  0  0  3  0  0  0  0  0  0
  -29.8350  -19.6440   17.0790 C   0  0  0  0  0  3  0  0  0  0  0  0
  -27.7810  -19.5310   16.1790 C   0  0  0  0  0  3  0  0  0  0  0  0
  -28.9380  -19.9280   18.0790 C   0  0  0  0  0  0  0  0  0  0  0  0
  -26.3950  -20.0800   18.1820 C   0  0  0  0  0  1  0  0  0  0  0  0
  -27.6650  -19.8490   17.5170 N   0  0  0  0  0  0  0  0  0  0  0  0
  -30.0750  -19.4110   20.2480 N   0  0  0  0  0  4  0  0  0  0  0  0
  -30.9410  -19.3080   19.7440 H   0  0  0  0  0  0  0  0  0  0  0  0
  -30.2860  -19.8290   21.1420 H   0  0  0  0  0  0  0  0  0  0  0  0
  -29.5250  -18.0620   20.5460 C   0  0  0  0  0  2  0  0  0  0  0  0
  -30.6530  -17.0130   20.7270 C   0  0  0  0  0  2  0  0  0  0  0  0
  -30.9090  -14.5640   20.9480 C   0  0  0  0  0  0  0  0  0  0  0  0
  -30.6130  -12.4570   19.7380 C   0  0  0  0  0  2  0  0  0  0  0  0
  -29.7700  -12.7930   18.4900 C   0  0  0  0  0  2  0  0  0  0  0  0
  -28.2690  -12.6670   18.8110 C   0  0  0  0  0  2  0  0  0  0  0  0
  -27.8690  -13.4300   20.1030 C   0  0  0  0  0  3  0  0  0  0  0  0
  -28.8500  -13.1300   21.2600 C   0  0  0  0  0  2  0  0  0  0  0  0
  -30.2140  -13.4100   20.7830 N   0  0  0  0  0  0  0  0  0  0  0  0
  -32.1080  -14.6840   20.7000 O   0  0  0  0  0  0  0  0  0  0  0  0
  -30.1540  -15.6700   21.0760 N   0  0  0  0  0  0  0  0  0  0  0  0
  -29.1640  -15.5390   21.1850 H   0  0  0  0  0  0  0  0  0  0  0  0
  -25.4170  -14.0250   20.6050 C   0  0  0  0  0  0  0  0  0  0  0  0
  -24.3300  -13.2490   20.8950 C   0  0  0  0  0  0  0  0  0  0  0  0
  -24.8070  -11.9010   20.9360 C   0  0  0  0  0  0  0  0  0  0  0  0
  -26.4880  -13.1530   20.4800 N   0  0  0  0  0  0  0  0  0  0  0  0
  -26.1180  -11.8730   20.7430 N   0  0  0  0  0  0  0  0  0  0  0  0
  -24.0820  -10.6330   21.0950 C   0  0  0  0  0  0  0  0  0  0  0  0
  -24.4350   -9.7040   22.0970 C   0  0  0  0  0  3  0  0  0  0  0  0
  -23.7080   -8.5030   22.2460 C   0  0  0  0  0  3  0  0  0  0  0  0
  -22.6140   -8.2250   21.3950 C   0  0  0  0  0  0  0  0  0  0  0  0
  -22.2810   -9.1440   20.3850 C   0  0  0  0  0  3  0  0  0  0  0  0
  -23.0090  -10.3360   20.2310 C   0  0  0  0  0  3  0  0  0  0  0  0
  -21.8690   -7.0740   21.4500 O   0  0  0  0  0  0  0  0  0  0  0  0
  -21.7130   -6.3720   22.6170 C   0  0  0  0  0  0  0  0  0  0  0  0
  -21.0830   -6.9370   23.7510 C   0  0  0  0  0  3  0  0  0  0  0  0
  -20.8770   -6.1540   24.9030 C   0  0  0  0  0  3  0  0  0  0  0  0
  -21.2950   -4.8100   24.9260 C   0  0  0  0  0  0  0  0  0  0  0  0
  -21.9160   -4.2460   23.7980 C   0  0  0  0  0  3  0  0  0  0  0  0
  -22.1210   -5.0240   22.6460 C   0  0  0  0  0  0  0  0  0  0  0  0
  -22.7020   -4.4690   21.5540 F   0  0  0  0  0  0  0  0  0  0  0  0
  -21.0940   -4.0560   26.0320 F   0  0  0  0  0  0  0  0  0  0  0  0
  -22.9090  -13.7120   21.0370 C   0  0  0  0  0  0  0  0  0  0  0  0
  -22.1270  -13.0380   21.8680 N   0  0  0  0  0  0  0  0  0  0  0  0
  -22.4980  -14.7060   20.4380 O   0  0  0  0  0  0  0  0  0  0  0  0
  -22.4760  -12.2370   22.3740 H   0  0  0  0  0  0  0  0  0  0  0  0
  -21.1650  -13.3200   21.9970 H   0  0  0  0  0  0  0  0  0  0  0  0
  -25.5920  -15.3930   20.4220 N   0  0  0  0  0  0  0  0  0  0  0  0
  -24.8250  -16.0470   20.5180 H   0  0  0  0  0  0  0  0  0  0  0  0
  -26.4750  -15.8480   20.2280 H   0  0  0  0  0  0  0  0  0  0  0  0
  -29.6540  -21.8140   19.5990 C   0  0  0  0  0  2  0  0  0  0  0  0
  -28.4970  -22.8320   19.4430 C   0  0  0  0  0  2  0  0  0  0  0  0
  -28.9180  -24.3220   19.4450 C   0  0  0  0  0  2  0  0  0  0  0  0
  -28.0450  -25.1990   20.3650 C   0  0  0  0  0  2  0  0  0  0  0  0
  -28.3010  -26.6020   20.1740 O   0  0  0  0  0  0  0  0  0  0  0  0
  -24.6470  -31.8010   23.3800 C   0  0  0  0  0  0  0  0  0  0  0  0
  -27.1830  -27.4070   20.1480 C   0  0  0  0  0  0  0  0  0  0  0  0
  -23.4270  -30.5250   21.6440 C   0  0  0  0  0  3  0  0  0  0  0  0
  -24.8560  -29.0070   20.1760 C   0  0  0  0  0  0  0  0  0  0  0  0
  -25.9730  -30.7850   21.5330 C   0  0  0  0  0  2  0  0  0  0  0  0
  -26.0180  -29.4490   20.8220 C   0  0  0  0  0  0  0  0  0  0  0  0
  -27.1870  -28.6560   20.8090 C   0  0  0  0  0  3  0  0  0  0  0  0
  -26.0140  -26.9940   19.4720 C   0  0  0  0  0  3  0  0  0  0  0  0
  -24.8520  -27.7790   19.5000 C   0  0  0  0  0  3  0  0  0  0  0  0
  -23.6430  -29.9060   20.2390 C   0  0  0  0  0  2  0  0  0  0  0  0
  -24.6970  -31.0530   22.2410 N   0  0  0  0  0  0  0  0  0  0  0  0
  -23.5650  -32.0890   23.9080 O   0  0  0  0  0  0  0  0  0  0  0  0
  -22.7150  -29.4880   22.5400 C   0  0  0  0  0  0  0  0  0  0  0  0
  -21.3850  -29.3760   22.3880 N   0  0  0  0  0  0  0  0  0  0  0  0
  -23.3570  -28.7870   23.3290 O   0  0  0  0  0  0  0  0  0  0  0  0
  -20.9300  -29.9870   21.7260 H   0  0  0  0  0  0  0  0  0  0  0  0
  -17.9470  -28.3530   22.8230 C   0  0  0  0  0  0  0  0  0  0  0  0
  -20.5170  -28.4390   23.1010 C   0  0  0  0  0  3  0  0  0  0  0  0
  -20.5330  -27.0460   22.4300 C   0  0  0  0  0  2  0  0  0  0  0  0
  -19.4110  -26.8570   21.4030 C   0  0  0  0  0  2  0  0  0  0  0  0
  -18.0420  -27.0430   22.0620 C   0  0  0  0  0  2  0  0  0  0  0  0
  -19.1100  -29.0150   23.3000 C   0  0  0  0  0  0  0  0  0  0  0  0
  -18.9690  -30.2470   23.9750 C   0  0  0  0  0  3  0  0  0  0  0  0
  -17.6950  -30.8120   24.1800 C   0  0  0  0  0  3  0  0  0  0  0  0
  -16.5460  -30.1440   23.7210 C   0  0  0  0  0  3  0  0  0  0  0  0
  -16.6750  -28.9160   23.0470 C   0  0  0  0  0  3  0  0  0  0  0  0
  -25.9440  -32.3490   24.0540 C   0  0  0  0  0  3  0  0  0  0  0  0
  -25.6990  -33.7550   24.4000 N   0  0  0  0  0  0  0  0  0  0  0  0
  -26.1240  -34.8000   23.6760 C   0  0  0  0  0  0  0  0  0  0  0  0
  -26.8340  -34.6750   22.6760 O   0  0  0  0  0  0  0  0  0  0  0  0
  -25.0760  -33.9310   25.1740 H   0  0  0  0  0  0  0  0  0  0  0  0
  -24.5430  -36.7070   23.2490 C   0  0  0  0  0  1  0  0  0  0  0  0
  -25.6930  -36.2050   24.1370 C   0  0  0  0  0  3  0  0  0  0  0  0
  -27.8010  -36.9420   25.1560 C   0  0  0  0  0  1  0  0  0  0  0  0
  -26.7950  -37.1910   24.1270 N   0  0  0  0  0  0  0  0  0  0  0  0
  -26.4350  -38.1340   24.2550 H   0  0  0  0  0  0  0  0  0  0  0  0
  -26.3710  -31.5300   25.3340 C   0  0  1  0  0  0  0  0  0  0  0  0
  -25.2210  -31.3210   26.3470 C   0  0  0  0  0  1  0  0  0  0  0  0
  -26.9110  -30.1350   24.9420 C   0  0  0  0  0  1  0  0  0  0  0  0
  -27.5270  -32.2580   26.0570 C   0  0  0  0  0  1  0  0  0  0  0  0
  1 51  1  0
  1  8  1  0
  2  4  2  0
  2  3  1  0
  3  5  2  0
  4  7  1  0
  5  1  1  0
  7  5  1  0
  7  6  1  0
  8 11  1  0
  8 10  1  0
  9  8  1  0
 11 12  1  0
 12 21  1  0
 13 21  1  0
 14 19  1  0
 15 16  1  0
 15 14  1  0
 17 16  1  0
 17 26  1  0
 17 18  1  0
 19 13  1  0
 19 18  1  0
 20 13  2  0
 21 22  1  0
 23 24  2  0
 24 25  1  0
 24 43  1  0
 25 28  1  0
 26 23  1  0
 26 27  1  0
 27 25  2  0
 28 29  1  0
 29 30  2  0
 31 34  1  0
 31 30  1  0
 32 31  2  0
 33 32  1  0
 33 28  2  0
 34 35  1  0
 35 40  2  0
 35 36  1  0
 36 37  2  0
 37 38  1  0
 38 42  1  0
 39 38  2  0
 40 39  1  0
 41 40  1  0
 43 44  1  0
 44 47  1  0
 44 46  1  0
 45 43  2  0
 48 49  1  0
 48 23  1  0
 50 48  1  0
 52 53  1  0
 52 51  1  0
 53 54  1  0
 55 54  1  0
 56 67  2  0
 57 55  1  0
 57 62  1  0
 58 66  1  0
 58 68  1  0
 59 65  1  0
 59 61  1  0
 60 66  1  0
 61 60  1  0
 62 61  2  0
 63 64  1  0
 63 57  2  0
 64 59  2  0
 65 58  1  0
 66 56  1  0
 68 70  2  0
 69 68  1  0
 71 69  1  0
 72 81  2  0
 72 77  1  0
 73 69  1  0
 73 77  1  0
 74 73  1  0
 75 76  1  0
 75 74  1  0
 76 72  1  0
 77 78  2  0
 78 79  1  0
 80 79  2  0
 81 80  1  0
 82 56  1  0
 82 83  1  0
 82 92  1  0
 83 86  1  0
 84 88  1  0
 84 83  1  0
 85 84  2  0
 88 87  1  0
 90 88  1  0
 90 91  1  0
 90 89  1  0
 92 95  1  1
 92 93  1  0
 94 92  1  0
M  ISO  4  13 100  21 100  54 101  55 101
M  END
>  <TORSDO>  (40) 
F 24

>  <SCORE>  (40) 
-12.129

>  <name>  (40) 
39

>  <ligand_id>  (40) 
39

>  <original_smiles>  (40) 
[H]c1c([H])c([H])c2c(c1[H])C([H])([H])C([H])([H])C([H])([H])C2([H])N([H])C(=O)C1([H])N(C(=O)C([H])(N([H])C(=O)C([H])(N([H])C([H])([H])[H])C([H])([H])[H])C(C([H])([H])[H])(C([H])([H])[H])C([H])([H])[H])C([H])([H])c2c([H])c(OC([H])([H])C([H])([H])C([H])([H])C([H])([H])C([H])(c3c([H])c([H])c([H])n3C([H])([H])[H])[N+]([H])([H])C([H])([H])C([H])([H])N([H])C(=O)N3C([H])([H])C([H])([H])C([H])([H])C([H])(n4nc(-c5c([H])c([H])c(Oc6c([H])c([H])c(F)c([H])c6F)c([H])c5[H])c(C(=O)N([H])[H])c4N([H])[H])C3([H])[H])c([H])c([H])c2C1([H])[H]

>  <smiles>  (40) 
[H]c1c([H])c([H])c2c(c1[H])C([H])([H])C([H])([H])C([H])([H])C2([H])N([H])C(=O)C1([H])N(C(=O)C([H])(N([H])C(=O)C([H])(N([H])C([H])([H])[H])C([H])([H])[H])C(C([H])([H])[H])(C([H])([H])[H])C([H])([H])[H])C([H])([H])c2c([H])c(OC([H])([H])C([H])([H])C([H])([H])C([H])([H])C([H])(c3c([H])c([H])c([H])n3C([H])([H])[H])[N+]([H])([H])C([H])([H])C([H])([H])N([H])C(=O)N3C([H])([H])C([H])([H])C([H])([H])C([H])(n4nc(-c5c([H])c([H])c(Oc6c([H])c([H])c(F)c([H])c6F)c([H])c5[H])c(C(=O)N([H])[H])c4N([H])[H])C3([H])[H])c([H])c([H])c2C1([H])[H]

$$$$
40:0:0
     RDKit          3D

 96103  0  0  1  0  0  0  0  0999 V2000
  -20.1340  -26.3050   23.2790 C   0  0  0  0  0  1  0  0  0  0  0  0
  -20.3990  -27.3910   21.4840 C   0  0  0  0  0  1  0  0  0  0  0  0
  -21.5560  -25.6650   23.8440 C   0  0  0  0  0  2  0  0  0  0  0  0
  -22.0010  -27.3610   21.0280 C   0  0  0  0  0  3  0  0  0  0  0  0
  -22.9460  -25.6500   23.0440 C   0  0  0  0  0  3  0  0  0  0  0  0
  -23.1780  -26.5580   21.8070 C   0  0  0  0  0  0  0  0  0  0  0  0
  -24.1090  -24.4580   22.9290 C   0  0  0  0  0  2  0  0  0  0  0  0
  -24.2860  -23.0390   22.7460 C   0  0  0  0  0  2  0  0  0  0  0  0
  -25.5930  -22.2290   22.1500 C   0  0  0  0  0  0  0  0  0  0  0  0
  -26.2260  -22.8750   21.3050 O   0  0  0  0  0  0  0  0  0  0  0  0
  -26.6780  -18.9800   24.0950 C   0  0  0  0  0  3  0  0  0  0  0  0
  -27.4510  -18.1560   23.2340 C   0  0  0  0  0  3  0  0  0  0  0  0
  -26.0620  -20.1900   23.6930 C   0  0  0  0  0  3  0  0  0  0  0  0
  -27.0470  -19.7850   21.5110 C   0  0  0  0  0  3  0  0  0  0  0  0
  -27.7020  -18.4640   21.8750 C   0  0  0  0  0  0  0  0  0  0  0  0
  -26.2130  -20.7050   22.3920 C   0  0  0  0  0  0  0  0  0  0  0  0
  -28.6260  -17.3630   21.0390 C   0  0  0  0  0  3  0  0  0  0  0  0
  -29.3030  -16.1290   21.3810 C   0  0  0  0  0  3  0  0  0  0  0  0
  -30.2290  -15.0480   20.6440 C   0  0  0  0  0  0  0  0  0  0  0  0
  -30.4070  -12.6910   19.5900 C   0  0  0  0  0  2  0  0  0  0  0  0
  -29.5240  -12.5900   18.3140 C   0  0  0  0  0  2  0  0  0  0  0  0
  -28.0620  -12.3050   18.6990 C   0  0  0  0  0  2  0  0  0  0  0  0
  -27.5970  -13.2230   19.8550 C   0  0  0  0  0  3  0  0  0  0  0  0
  -28.5730  -13.2020   21.0380 C   0  0  0  0  0  2  0  0  0  0  0  0
  -29.8260  -13.7160   20.5260 N   0  0  0  0  0  0  0  0  0  0  0  0
  -31.3670  -15.2580   20.1820 O   0  0  0  0  0  0  0  0  0  0  0  0
  -25.2320  -13.8130   20.5680 C   0  0  0  0  0  0  0  0  0  0  0  0
  -24.1640  -13.0400   20.9200 C   0  0  0  0  0  0  0  0  0  0  0  0
  -24.6240  -11.6870   20.8750 C   0  0  0  0  0  0  0  0  0  0  0  0
  -26.2590  -12.9280   20.3090 N   0  0  0  0  0  0  0  0  0  0  0  0
  -25.9120  -11.6440   20.5650 N   0  0  0  0  0  0  0  0  0  0  0  0
  -23.8970  -10.4270   21.0430 C   0  0  0  0  0  0  0  0  0  0  0  0
  -24.3560   -9.4210   21.9220 C   0  0  0  0  0  3  0  0  0  0  0  0
  -23.6270   -8.2230   22.0780 C   0  0  0  0  0  3  0  0  0  0  0  0
  -22.4270   -8.0250   21.3540 C   0  0  0  0  0  0  0  0  0  0  0  0
  -21.9860   -9.0220   20.4650 C   0  0  0  0  0  3  0  0  0  0  0  0
  -22.7160  -10.2110   20.3070 C   0  0  0  0  0  3  0  0  0  0  0  0
  -21.6640   -6.8850   21.4240 O   0  0  0  0  0  0  0  0  0  0  0  0
  -21.6850   -6.0730   22.5280 C   0  0  0  0  0  0  0  0  0  0  0  0
  -21.4020   -6.5640   23.8210 C   0  0  0  0  0  3  0  0  0  0  0  0
  -21.3660   -5.6790   24.9170 C   0  0  0  0  0  3  0  0  0  0  0  0
  -21.6040   -4.3060   24.7220 C   0  0  0  0  0  0  0  0  0  0  0  0
  -21.8820   -3.8140   23.4350 C   0  0  0  0  0  3  0  0  0  0  0  0
  -21.9200   -4.6960   22.3400 C   0  0  0  0  0  0  0  0  0  0  0  0
  -22.1670   -4.2140   21.0980 F   0  0  0  0  0  0  0  0  0  0  0  0
  -21.5620   -3.4540   25.7740 F   0  0  0  0  0  0  0  0  0  0  0  0
  -22.7710  -13.5230   21.1880 C   0  0  0  0  0  0  0  0  0  0  0  0
  -22.0360  -12.8240   22.0430 N   0  0  0  0  0  0  0  0  0  0  0  0
  -22.3430  -14.5550   20.6730 O   0  0  0  0  0  0  0  0  0  0  0  0
  -22.4010  -11.9890   22.4760 H   0  0  0  0  0  0  0  0  0  0  0  0
  -21.0980  -13.1240   22.2650 H   0  0  0  0  0  0  0  0  0  0  0  0
  -25.4120  -15.1870   20.4270 N   0  0  0  0  0  0  0  0  0  0  0  0
  -24.6560  -15.8440   20.5810 H   0  0  0  0  0  0  0  0  0  0  0  0
  -26.2900  -15.6340   20.1910 H   0  0  0  0  0  0  0  0  0  0  0  0
  -24.6200  -26.3200   20.9800 C   0  0  0  0  0  2  0  0  0  0  0  0
  -26.2420  -26.4740   21.0920 O   0  0  0  0  0  0  0  0  0  0  0  0
  -24.6790  -31.9570   23.2180 C   0  0  0  0  0  0  0  0  0  0  0  0
  -26.8390  -27.3730   20.2250 C   0  0  0  0  0  3  0  0  0  0  0  0
  -23.5040  -30.6360   21.5430 C   0  0  0  0  0  3  0  0  0  0  0  0
  -24.9200  -29.2700   19.8630 C   0  0  0  0  0  0  0  0  0  0  0  0
  -26.0200  -30.9030   21.4020 C   0  0  0  0  0  2  0  0  0  0  0  0
  -26.0270  -29.5830   20.6610 C   0  0  0  0  0  0  0  0  0  0  0  0
  -27.0650  -28.6390   20.8040 C   0  0  0  0  0  3  0  0  0  0  0  0
  -26.1140  -27.3110   19.0390 C   0  0  0  0  0  2  0  0  0  0  0  0
  -25.0060  -28.1860   18.9560 C   0  0  0  0  0  3  0  0  0  0  0  0
  -23.6800  -30.1120   20.0770 C   0  0  0  0  0  2  0  0  0  0  0  0
  -24.7500  -31.2200   22.0780 N   0  0  0  0  0  0  0  0  0  0  0  0
  -23.5920  -32.2170   23.7610 O   0  0  0  0  0  0  0  0  0  0  0  0
  -23.0580  -29.5880   22.5700 C   0  0  0  0  0  0  0  0  0  0  0  0
  -21.7860  -29.3730   22.6960 N   0  0  0  0  0  0  0  0  0  0  0  0
  -23.8500  -28.9560   23.2670 O   0  0  0  0  0  0  0  0  0  0  0  0
  -21.1050  -29.9020   22.1690 H   0  0  0  0  0  0  0  0  0  0  0  0
  -18.2610  -28.0340   22.8370 C   0  0  0  0  0  0  0  0  0  0  0  0
  -21.3740  -28.0960   23.2960 C   0  0  0  0  0  2  0  0  0  0  0  0
  -20.9930  -25.2970   21.5470 C   0  0  0  0  0  1  0  0  0  0  0  0
  -19.1720  -25.3540   21.2140 C   0  0  0  0  0  3  0  0  0  0  0  0
  -18.0210  -26.5700   21.9180 C   0  0  0  0  0  3  0  0  0  0  0  0
  -19.5590  -28.7230   23.4320 C   0  0  0  0  0  0  0  0  0  0  0  0
  -19.2410  -30.0050   23.9960 C   0  0  0  0  0  3  0  0  0  0  0  0
  -17.9360  -30.5640   24.0880 C   0  0  0  0  0  3  0  0  0  0  0  0
  -16.7970  -29.8810   23.6310 C   0  0  0  0  0  3  0  0  0  0  0  0
  -16.9790  -28.6340   23.0230 C   0  0  0  0  0  3  0  0  0  0  0  0
  -25.9620  -32.5210   23.8700 C   0  0  0  0  0  3  0  0  0  0  0  0
  -25.6450  -33.8940   24.2700 N   0  0  0  0  0  0  0  0  0  0  0  0
  -25.9150  -34.9680   23.5210 C   0  0  0  0  0  0  0  0  0  0  0  0
  -26.5450  -34.9030   22.4610 O   0  0  0  0  0  0  0  0  0  0  0  0
  -25.0890  -34.0140   25.1040 H   0  0  0  0  0  0  0  0  0  0  0  0
  -24.1520  -36.7390   23.2580 C   0  0  0  0  0  1  0  0  0  0  0  0
  -25.4130  -36.3280   24.0340 C   0  0  0  0  0  3  0  0  0  0  0  0
  -27.5620  -37.1900   24.8460 C   0  0  0  0  0  1  0  0  0  0  0  0
  -26.4300  -37.3970   23.9450 N   0  0  0  0  0  0  0  0  0  0  0  0
  -26.0200  -38.3020   24.1550 H   0  0  0  0  0  0  0  0  0  0  0  0
  -26.4650  -31.6690   25.0970 C   0  0  1  0  0  0  0  0  0  0  0  0
  -25.3710  -31.3760   26.1490 C   0  0  0  0  0  1  0  0  0  0  0  0
  -27.0410  -30.3100   24.6310 C   0  0  0  0  0  1  0  0  0  0  0  0
  -27.6220  -32.4210   25.7920 C   0  0  0  0  0  1  0  0  0  0  0  0
  1  3  1  0
  4  2  1  0
  4  6  2  0
  5  7  1  0
  5  3  1  0
  6  5  1  0
  8  7  1  0
  9 16  1  0
  9  8  1  0
 10  9  2  0
 12 11  2  0
 13 11  1  0
 14 15  2  0
 14 16  1  0
 15 12  1  0
 16 13  2  0
 17 18  2  0
 17 15  1  0
 19 18  1  0
 20 25  1  0
 21 22  1  0
 21 20  1  0
 23 22  1  0
 23 30  1  0
 23 24  1  0
 25 19  1  0
 25 24  1  0
 26 19  2  0
 27 28  2  0
 28 47  1  0
 29 28  1  0
 29 32  1  0
 30 31  1  0
 30 27  1  0
 31 29  2  0
 32 33  1  0
 33 34  2  0
 35 38  1  0
 35 34  1  0
 36 35  2  0
 37 36  1  0
 37 32  2  0
 38 39  1  0
 39 40  1  0
 40 41  2  0
 42 41  1  0
 42 46  1  0
 43 42  2  0
 44 39  2  0
 44 43  1  0
 45 44  1  0
 47 48  1  0
 48 51  1  0
 48 50  1  0
 49 47  2  0
 52 27  1  0
 52 53  1  0
 54 52  1  0
 55 56  1  0
 55  6  1  0
 57 68  2  0
 58 63  1  0
 58 56  1  0
 59 67  1  0
 59 69  1  0
 60 66  1  0
 60 62  1  0
 61 67  1  0
 62 63  2  0
 62 61  1  0
 64 58  1  0
 65 64  1  0
 65 60  2  0
 66 59  1  0
 67 57  1  0
 69 70  1  0
 69 71  2  0
 70 74  1  0
 72 70  1  0
 73 82  2  0
 73 78  1  0
 74 78  1  0
 76 75  1  0
 76 77  2  0
 77 73  1  0
 78 79  2  0
 79 80  1  0
 81 80  2  0
 82 81  1  0
 83 57  1  0
 83 84  1  0
 83 93  1  0
 84 87  1  0
 85 89  1  0
 85 84  1  0
 86 85  2  0
 89 88  1  0
 91 89  1  0
 91 92  1  0
 91 90  1  0
 93 96  1  1
 93 94  1  0
 95 93  1  0
M  ISO  4  18 100  19 100  55 101  56 101
M  END
>  <TORSDO>  (41) 
F 21

>  <SCORE>  (41) 
40.881

>  <name>  (41) 
40

>  <ligand_id>  (41) 
40

>  <original_smiles>  (41) 
[H]C(C(=O)N1C([H])([H])C([H])([H])C([H])([H])C([H])(n2nc(-c3c([H])c([H])c(Oc4c([H])c([H])c(F)c([H])c4F)c([H])c3[H])c(C(=O)N([H])[H])c2N([H])[H])C1([H])[H])=C([H])c1c([H])c([H])c([H])c(C(=O)C([H])=C([H])c2c([H])c([H])c([H])c([H])c2C([H])([H])Oc2c([H])c([H])c3c(c2[H])C([H])([H])N(C(=O)C([H])(N([H])C(=O)C([H])(N([H])C([H])([H])[H])C([H])([H])[H])C(C([H])([H])[H])(C([H])([H])[H])C([H])([H])[H])C([H])(C(=O)N([H])C2([H])c4c([H])c([H])c([H])c([H])c4C([H])([H])C([H])([H])C2([H])[H])C3([H])[H])c1[H]

>  <smiles>  (41) 
[H]C(C(=O)N1C([H])([H])C([H])([H])C([H])([H])C([H])(n2nc(-c3c([H])c([H])c(Oc4c([H])c([H])c(F)c([H])c4F)c([H])c3[H])c(C(=O)N([H])[H])c2N([H])[H])C1([H])[H])=C([H])c1c([H])c([H])c([H])c(C(=O)C([H])=C([H])c2c([H])c([H])c([H])c([H])c2C([H])([H])Oc2c([H])c([H])c3c(c2[H])C([H])([H])N(C(=O)C([H])(N([H])C(=O)C([H])(N([H])C([H])([H])[H])C([H])([H])[H])C(C([H])([H])[H])(C([H])([H])[H])C([H])([H])[H])C([H])(C(=O)N([H])C2([H])c4c([H])c([H])c([H])c([H])c4C([H])([H])C([H])([H])C2([H])[H])C3([H])[H])c1[H]

$$$$
41:0:0
     RDKit          3D

 94103  0  0  1  0  0  0  0  0999 V2000
  -26.7150  -21.4190   20.8610 C   0  0  0  0  0  3  0  0  0  0  0  0
  -27.5880  -20.3860   20.4660 C   0  0  0  0  0  3  0  0  0  0  0  0
  -26.7030  -22.6320   20.1440 C   0  0  0  0  0  3  0  0  0  0  0  0
  -28.4370  -21.7960   18.6630 C   0  0  0  0  0  3  0  0  0  0  0  0
  -28.4400  -20.5680   19.3550 C   0  0  0  0  0  0  0  0  0  0  0  0
  -27.5570  -22.8390   19.0400 C   0  0  0  0  0  0  0  0  0  0  0  0
  -29.2610  -19.4100   18.8190 C   0  0  0  0  0  3  0  0  0  0  0  0
  -30.3810  -18.8860   19.7490 C   0  0  0  0  0  3  0  0  0  0  0  0
  -31.4870  -17.5470   17.0920 C   0  0  0  0  0  2  0  0  0  0  0  0
  -32.1250  -18.2400   18.0440 C   0  0  0  0  0  2  0  0  0  0  0  0
  -30.6190  -16.8020   18.0820 C   0  0  0  0  0  2  0  0  0  0  0  0
  -31.2410  -17.7210   19.1780 C   0  0  2  0  0  0  0  0  0  0  0  0
  -32.0640  -17.0830   20.3410 C   0  0  0  0  0  2  0  0  0  0  0  0
  -32.8300  -15.7580   20.0490 C   0  0  0  0  0  0  0  0  0  0  0  0
  -32.7470  -13.3170   19.6630 C   0  0  0  0  0  2  0  0  0  0  0  0
  -31.8760  -13.0170   18.4250 C   0  0  0  0  0  2  0  0  0  0  0  0
  -30.3830  -12.9290   18.7970 C   0  0  0  0  0  2  0  0  0  0  0  0
  -29.9190  -14.1160   19.6840 C   0  0  0  0  0  3  0  0  0  0  0  0
  -30.9020  -14.3270   20.8510 C   0  0  0  0  0  2  0  0  0  0  0  0
  -32.2380  -14.5490   20.2820 N   0  0  0  0  0  0  0  0  0  0  0  0
  -33.9570  -15.8410   19.5490 O   0  0  0  0  0  0  0  0  0  0  0  0
  -27.5770  -14.8970   20.3960 C   0  0  0  0  0  0  0  0  0  0  0  0
  -26.4500  -14.2040   20.7420 C   0  0  0  0  0  0  0  0  0  0  0  0
  -26.8030  -12.8210   20.6800 C   0  0  0  0  0  0  0  0  0  0  0  0
  -28.5500  -13.9400   20.1490 N   0  0  0  0  0  0  0  0  0  0  0  0
  -28.0860  -12.6870   20.3710 N   0  0  0  0  0  0  0  0  0  0  0  0
  -25.9830  -11.6150   20.8420 C   0  0  0  0  0  0  0  0  0  0  0  0
  -26.1130  -10.7790   21.9700 C   0  0  0  0  0  3  0  0  0  0  0  0
  -25.3020   -9.6330   22.1090 C   0  0  0  0  0  3  0  0  0  0  0  0
  -24.3450   -9.3160   21.1150 C   0  0  0  0  0  0  0  0  0  0  0  0
  -24.2380  -10.1400   19.9800 C   0  0  0  0  0  3  0  0  0  0  0  0
  -25.0500  -11.2770   19.8420 C   0  0  0  0  0  3  0  0  0  0  0  0
  -23.5310   -8.2100   21.1530 O   0  0  0  0  0  0  0  0  0  0  0  0
  -22.8610   -7.8510   22.2950 C   0  0  0  0  0  0  0  0  0  0  0  0
  -21.9080   -8.7010   22.8980 C   0  0  0  0  0  3  0  0  0  0  0  0
  -21.1920   -8.2640   24.0300 C   0  0  0  0  0  3  0  0  0  0  0  0
  -21.4190   -6.9780   24.5550 C   0  0  0  0  0  0  0  0  0  0  0  0
  -22.3630   -6.1280   23.9500 C   0  0  0  0  0  3  0  0  0  0  0  0
  -23.0800   -6.5640   22.8230 C   0  0  0  0  0  0  0  0  0  0  0  0
  -23.9740   -5.7350   22.2330 F   0  0  0  0  0  0  0  0  0  0  0  0
  -20.7260   -6.5530   25.6360 F   0  0  0  0  0  0  0  0  0  0  0  0
  -25.0950  -14.7840   21.0280 C   0  0  0  0  0  0  0  0  0  0  0  0
  -24.3230  -14.1330   21.8910 N   0  0  0  0  0  0  0  0  0  0  0  0
  -24.7310  -15.8450   20.5210 O   0  0  0  0  0  0  0  0  0  0  0  0
  -24.6290  -13.2750   22.3230 H   0  0  0  0  0  0  0  0  0  0  0  0
  -23.4130  -14.5020   22.1250 H   0  0  0  0  0  0  0  0  0  0  0  0
  -27.8520  -16.2560   20.2530 N   0  0  0  0  0  0  0  0  0  0  0  0
  -27.1430  -16.9700   20.3820 H   0  0  0  0  0  0  0  0  0  0  0  0
  -28.7470  -16.6270   19.9620 H   0  0  0  0  0  0  0  0  0  0  0  0
  -27.4080  -24.1510   18.2630 C   0  0  0  0  0  2  0  0  0  0  0  0
  -28.4450  -24.5020   17.1630 C   0  0  0  0  0  2  0  0  0  0  0  0
  -28.3510  -25.9570   16.6540 C   0  0  0  0  0  2  0  0  0  0  0  0
  -27.2490  -26.1440   15.5930 C   0  0  0  0  0  2  0  0  0  0  0  0
  -26.8670  -27.5150   15.4900 O   0  0  0  0  0  0  0  0  0  0  0  0
  -25.9450  -28.1660   22.4780 C   0  0  0  0  0  0  0  0  0  0  0  0
  -26.0600  -27.9890   16.4910 C   0  0  0  0  0  0  0  0  0  0  0  0
  -23.9880  -28.7590   21.0820 C   0  0  0  0  0  3  0  0  0  0  0  0
  -24.4450  -28.9680   18.5840 C   0  0  0  0  0  0  0  0  0  0  0  0
  -26.3700  -29.0110   20.1780 C   0  0  0  0  0  2  0  0  0  0  0  0
  -25.8070  -28.7360   18.7990 C   0  0  0  0  0  0  0  0  0  0  0  0
  -26.6230  -28.2600   17.7550 C   0  0  0  0  0  3  0  0  0  0  0  0
  -24.6870  -28.2330   16.2780 C   0  0  0  0  0  3  0  0  0  0  0  0
  -23.8740  -28.7130   17.3210 C   0  0  0  0  0  3  0  0  0  0  0  0
  -23.6410  -29.4850   19.7560 C   0  0  0  0  0  2  0  0  0  0  0  0
  -25.4670  -28.6060   21.2810 N   0  0  0  0  0  0  0  0  0  0  0  0
  -25.1820  -27.9320   23.4240 O   0  0  0  0  0  0  0  0  0  0  0  0
  -23.2110  -27.4220   21.1360 C   0  0  0  0  0  0  0  0  0  0  0  0
  -21.8690  -27.5040   21.1800 N   0  0  0  0  0  0  0  0  0  0  0  0
  -23.8110  -26.3450   21.1120 O   0  0  0  0  0  0  0  0  0  0  0  0
  -21.4430  -28.4190   21.1960 H   0  0  0  0  0  0  0  0  0  0  0  0
  -18.3970  -26.6020   20.8390 C   0  0  0  0  0  0  0  0  0  0  0  0
  -20.9470  -26.3710   21.1810 C   0  0  0  0  0  3  0  0  0  0  0  0
  -20.9650  -25.6530   19.8130 C   0  0  0  0  0  2  0  0  0  0  0  0
  -19.8960  -26.1700   18.8480 C   0  0  0  0  0  2  0  0  0  0  0  0
  -18.5000  -25.9820   19.4520 C   0  0  0  0  0  2  0  0  0  0  0  0
  -19.5480  -26.7950   21.6440 C   0  0  0  0  0  0  0  0  0  0  0  0
  -19.4030  -27.3980   22.9130 C   0  0  0  0  0  3  0  0  0  0  0  0
  -18.1360  -27.8080   23.3700 C   0  0  0  0  0  3  0  0  0  0  0  0
  -16.9950  -27.6080   22.5730 C   0  0  0  0  0  3  0  0  0  0  0  0
  -17.1300  -26.9990   21.3140 C   0  0  0  0  0  3  0  0  0  0  0  0
  -27.4740  -27.9560   22.7280 C   0  0  0  0  0  3  0  0  0  0  0  0
  -27.7810  -28.4890   24.0600 N   0  0  0  0  0  0  0  0  0  0  0  0
  -28.4550  -29.6260   24.2850 C   0  0  0  0  0  0  0  0  0  0  0  0
  -28.9480  -30.3040   23.3810 O   0  0  0  0  0  0  0  0  0  0  0  0
  -27.3620  -28.0110   24.8430 H   0  0  0  0  0  0  0  0  0  0  0  0
  -27.6150  -31.2330   26.0280 C   0  0  0  0  0  1  0  0  0  0  0  0
  -28.6010  -30.0860   25.7470 C   0  0  0  0  0  3  0  0  0  0  0  0
  -30.9340  -29.4140   26.1120 C   0  0  0  0  0  1  0  0  0  0  0  0
  -29.9740  -30.5140   26.0940 N   0  0  0  0  0  0  0  0  0  0  0  0
  -29.9930  -30.9630   27.0050 H   0  0  0  0  0  0  0  0  0  0  0  0
  -27.9170  -26.4460   22.6150 C   0  0  1  0  0  0  0  0  0  0  0  0
  -27.0680  -25.4790   23.4720 C   0  0  0  0  0  1  0  0  0  0  0  0
  -27.8440  -25.9680   21.1460 C   0  0  0  0  0  1  0  0  0  0  0  0
  -29.3940  -26.3050   23.0520 C   0  0  0  0  0  1  0  0  0  0  0  0
  2  1  1  0
  3  1  2  0
  4  6  2  0
  4  5  1  0
  5  2  2  0
  6  3  1  0
  7  5  1  0
  7  8  2  0
  9 10  1  0
  9 11  1  0
 10 12  1  0
 11 12  1  0
 12  8  1  0
 12 13  1  1
 14 20  1  0
 14 13  1  0
 15 20  1  0
 16 17  1  0
 16 15  1  0
 18 17  1  0
 18 25  1  0
 18 19  1  0
 20 19  1  0
 21 14  2  0
 22 23  2  0
 23 42  1  0
 24 23  1  0
 24 27  1  0
 25 26  1  0
 25 22  1  0
 26 24  2  0
 27 28  1  0
 28 29  2  0
 30 33  1  0
 30 29  1  0
 31 30  2  0
 32 31  1  0
 32 27  2  0
 33 34  1  0
 34 39  2  0
 34 35  1  0
 35 36  2  0
 36 37  1  0
 37 41  1  0
 38 37  2  0
 39 38  1  0
 40 39  1  0
 42 43  1  0
 43 46  1  0
 43 45  1  0
 44 42  2  0
 47 48  1  0
 47 22  1  0
 49 47  1  0
 50  6  1  0
 51 50  1  0
 52 51  1  0
 53 52  1  0
 54 53  1  0
 54 56  1  0
 55 66  2  0
 56 61  1  0
 57 67  1  0
 57 65  1  0
 58 60  1  0
 58 64  1  0
 59 65  1  0
 60 59  1  0
 61 60  2  0
 62 56  2  0
 62 63  1  0
 63 58  2  0
 64 57  1  0
 65 55  1  0
 67 68  1  0
 68 70  1  0
 69 67  2  0
 71 80  2  0
 71 76  1  0
 72 68  1  0
 72 76  1  0
 73 72  1  0
 74 75  1  0
 74 73  1  0
 75 71  1  0
 76 77  2  0
 77 78  1  0
 79 78  2  0
 80 79  1  0
 81 55  1  0
 81 82  1  0
 82 83  1  0
 82 85  1  0
 83 87  1  0
 84 83  2  0
 87 86  1  0
 87 89  1  0
 89 88  1  0
 89 90  1  0
 91 81  1  0
 91 94  1  1
 91 92  1  0
 93 91  1  0
M  ISO  4  13 100  14 100  53 101  54 101
M  END
>  <TORSDO>  (42) 
F 24

>  <SCORE>  (42) 
-4.972

>  <name>  (42) 
41

>  <ligand_id>  (42) 
41

>  <original_smiles>  (42) 
[H]C1=C([H])C(C([H])([H])C(=O)N2C([H])([H])C([H])([H])C([H])([H])C([H])(n3nc(-c4c([H])c([H])c(Oc5c([H])c([H])c(F)c([H])c5F)c([H])c4[H])c(C(=O)N([H])[H])c3N([H])[H])C2([H])[H])(C([H])([H])C([H])([H])c2c([H])c([H])c([H])c(C([H])([H])C([H])([H])C([H])([H])C([H])([H])Oc3c([H])c([H])c4c(c3[H])C([H])([H])N(C(=O)C([H])(N([H])C(=O)C([H])(N([H])C([H])([H])[H])C([H])([H])[H])C(C([H])([H])[H])(C([H])([H])[H])C([H])([H])[H])C([H])(C(=O)N([H])C3([H])c5c([H])c([H])c([H])c([H])c5C([H])([H])C([H])([H])C3([H])[H])C4([H])[H])c2[H])C1([H])[H]

>  <smiles>  (42) 
[H]C1=C([H])C(C([H])([H])C(=O)N2C([H])([H])C([H])([H])C([H])([H])C([H])(n3nc(-c4c([H])c([H])c(Oc5c([H])c([H])c(F)c([H])c5F)c([H])c4[H])c(C(=O)N([H])[H])c3N([H])[H])C2([H])[H])(C([H])([H])C([H])([H])c2c([H])c([H])c([H])c(C([H])([H])C([H])([H])C([H])([H])C([H])([H])Oc3c([H])c([H])c4c(c3[H])C([H])([H])N(C(=O)C([H])(N([H])C(=O)C([H])(N([H])C([H])([H])[H])C([H])([H])[H])C(C([H])([H])[H])(C([H])([H])[H])C([H])([H])[H])C([H])(C(=O)N([H])C3([H])c5c([H])c([H])c([H])c([H])c5C([H])([H])C([H])([H])C3([H])[H])C4([H])[H])c2[H])C1([H])[H]

$$$$
42:0:0
     RDKit          3D

 96105  0  0  1  0  0  0  0  0999 V2000
  -27.0850  -22.4110   18.7200 C   0  0  0  0  0  3  0  0  0  0  0  0
  -28.1080  -21.7550   19.4310 C   0  0  0  0  0  3  0  0  0  0  0  0
  -27.1830  -23.7890   18.4510 C   0  0  0  0  0  3  0  0  0  0  0  0
  -29.2930  -23.8730   19.6650 C   0  0  0  0  0  3  0  0  0  0  0  0
  -29.2270  -22.4810   19.8940 C   0  0  0  0  0  0  0  0  0  0  0  0
  -28.2820  -24.5330   18.9350 C   0  0  0  0  0  0  0  0  0  0  0  0
  -30.4150  -21.7710   20.5220 C   0  0  0  0  0  2  0  0  0  0  0  0
  -30.7490  -20.9600   23.0250 C   0  0  0  0  0  2  0  0  0  0  0  0
  -30.8540  -19.4120   21.5930 C   0  0  0  0  0  3  0  0  0  0  0  0
  -30.9570  -19.4440   23.1240 C   0  0  0  0  0  3  0  0  0  0  0  0
  -30.1070  -20.7620   21.6400 C   0  0  0  0  0  3  0  0  0  0  0  0
  -32.2090  -18.8810   23.7870 C   0  0  0  0  0  1  0  0  0  0  0  0
  -30.1750  -18.2020   20.9760 C   0  0  0  0  0  0  0  0  0  0  0  0
  -28.9760  -18.1800   20.6860 O   0  0  0  0  0  0  0  0  0  0  0  0
  -30.4750  -15.7720   20.6410 C   0  0  0  0  0  3  0  0  0  0  0  0
  -31.0300  -17.0090   20.7270 C   0  0  0  0  0  0  0  0  0  0  0  0
  -31.2110  -14.5610   20.2560 C   0  0  0  0  0  0  0  0  0  0  0  0
  -30.8310  -12.3260   19.2970 C   0  0  0  0  0  2  0  0  0  0  0  0
  -29.8830  -12.4730   18.0870 C   0  0  0  0  0  2  0  0  0  0  0  0
  -28.4100  -12.4110   18.5390 C   0  0  0  0  0  2  0  0  0  0  0  0
  -28.1100  -13.3400   19.7440 C   0  0  0  0  0  3  0  0  0  0  0  0
  -29.1760  -13.1660   20.8510 C   0  0  0  0  0  2  0  0  0  0  0  0
  -30.4970  -13.3990   20.2480 N   0  0  0  0  0  0  0  0  0  0  0  0
  -32.3490  -14.6040   19.7800 O   0  0  0  0  0  0  0  0  0  0  0  0
  -25.7740  -14.0730   20.5410 C   0  0  0  0  0  0  0  0  0  0  0  0
  -24.6720  -13.3550   20.9220 C   0  0  0  0  0  0  0  0  0  0  0  0
  -25.0480  -11.9790   20.8420 C   0  0  0  0  0  0  0  0  0  0  0  0
  -26.7570  -13.1360   20.2550 N   0  0  0  0  0  0  0  0  0  0  0  0
  -26.3230  -11.8700   20.4910 N   0  0  0  0  0  0  0  0  0  0  0  0
  -24.2530  -10.7570   21.0230 C   0  0  0  0  0  0  0  0  0  0  0  0
  -24.6430   -9.7510   21.9350 C   0  0  0  0  0  3  0  0  0  0  0  0
  -23.8520   -8.5930   22.1010 C   0  0  0  0  0  3  0  0  0  0  0  0
  -22.6600   -8.4320   21.3560 C   0  0  0  0  0  0  0  0  0  0  0  0
  -22.2910   -9.4270   20.4330 C   0  0  0  0  0  3  0  0  0  0  0  0
  -23.0800  -10.5760   20.2630 C   0  0  0  0  0  3  0  0  0  0  0  0
  -21.8450   -7.3300   21.4320 O   0  0  0  0  0  0  0  0  0  0  0  0
  -21.7330   -6.5980   22.5870 C   0  0  0  0  0  0  0  0  0  0  0  0
  -21.3180   -7.1840   23.8030 C   0  0  0  0  0  3  0  0  0  0  0  0
  -21.1460   -6.3820   24.9490 C   0  0  0  0  0  3  0  0  0  0  0  0
  -21.3780   -4.9960   24.8820 C   0  0  0  0  0  0  0  0  0  0  0  0
  -21.7890   -4.4100   23.6710 C   0  0  0  0  0  3  0  0  0  0  0  0
  -21.9610   -5.2090   22.5260 C   0  0  0  0  0  0  0  0  0  0  0  0
  -22.3350   -4.6340   21.3580 F   0  0  0  0  0  0  0  0  0  0  0  0
  -21.2080   -4.2260   25.9820 F   0  0  0  0  0  0  0  0  0  0  0  0
  -23.3140  -13.9070   21.2520 C   0  0  0  0  0  0  0  0  0  0  0  0
  -22.5790  -13.2430   22.1370 N   0  0  0  0  0  0  0  0  0  0  0  0
  -22.9180  -14.9630   20.7620 O   0  0  0  0  0  0  0  0  0  0  0  0
  -22.9110  -12.3880   22.5580 H   0  0  0  0  0  0  0  0  0  0  0  0
  -21.6700  -13.5950   22.3990 H   0  0  0  0  0  0  0  0  0  0  0  0
  -26.0160  -15.4360   20.4010 N   0  0  0  0  0  0  0  0  0  0  0  0
  -25.2960  -16.1320   20.5680 H   0  0  0  0  0  0  0  0  0  0  0  0
  -26.8910  -15.8390   20.0880 H   0  0  0  0  0  0  0  0  0  0  0  0
  -32.3430  -17.2490   20.5540 O   0  0  0  0  0  0  0  0  0  0  0  0
  -32.4700  -18.1880   20.5750 H   0  0  0  0  0  0  0  0  0  0  0  0
  -28.4380  -26.0090   18.5900 C   0  0  0  0  0  2  0  0  0  0  0  0
  -28.2390  -26.8940   19.6950 O   0  0  0  0  0  0  0  0  0  0  0  0
  -24.5200  -31.8820   23.1390 C   0  0  0  0  0  0  0  0  0  0  0  0
  -27.0420  -27.5740   19.7820 C   0  0  0  0  0  0  0  0  0  0  0  0
  -23.2530  -30.5590   21.4770 C   0  0  0  0  0  3  0  0  0  0  0  0
  -24.6490  -29.0730   19.9500 C   0  0  0  0  0  0  0  0  0  0  0  0
  -25.7720  -30.9110   21.2190 C   0  0  0  0  0  2  0  0  0  0  0  0
  -25.8260  -29.5650   20.5280 C   0  0  0  0  0  0  0  0  0  0  0  0
  -27.0200  -28.8140   20.4570 C   0  0  0  0  0  3  0  0  0  0  0  0
  -25.8400  -27.0860   19.2220 C   0  0  0  0  0  3  0  0  0  0  0  0
  -24.6480  -27.8270   19.3030 C   0  0  0  0  0  3  0  0  0  0  0  0
  -23.4150  -29.9370   20.0640 C   0  0  0  0  0  2  0  0  0  0  0  0
  -24.5350  -31.1290   22.0040 N   0  0  0  0  0  0  0  0  0  0  0  0
  -23.4570  -32.1390   23.7220 O   0  0  0  0  0  0  0  0  0  0  0  0
  -22.6250  -29.5000   22.4110 C   0  0  0  0  0  0  0  0  0  0  0  0
  -21.2980  -29.3280   22.3110 N   0  0  0  0  0  0  0  0  0  0  0  0
  -23.3280  -28.8400   23.1810 O   0  0  0  0  0  0  0  0  0  0  0  0
  -20.7930  -29.9140   21.6620 H   0  0  0  0  0  0  0  0  0  0  0  0
  -17.9360  -28.1070   22.8200 C   0  0  0  0  0  0  0  0  0  0  0  0
  -20.4960  -28.3640   23.0640 C   0  0  0  0  0  3  0  0  0  0  0  0
  -20.5960  -26.9510   22.4440 C   0  0  0  0  0  2  0  0  0  0  0  0
  -19.4810  -26.6550   21.4360 C   0  0  0  0  0  2  0  0  0  0  0  0
  -18.1080  -26.7770   22.1030 C   0  0  0  0  0  2  0  0  0  0  0  0
  -19.0590  -28.8580   23.2560 C   0  0  0  0  0  0  0  0  0  0  0  0
  -18.8460  -30.1040   23.8870 C   0  0  0  0  0  3  0  0  0  0  0  0
  -17.5430  -30.5980   24.0840 C   0  0  0  0  0  3  0  0  0  0  0  0
  -16.4340  -29.8420   23.6630 C   0  0  0  0  0  3  0  0  0  0  0  0
  -16.6330  -28.5980   23.0370 C   0  0  0  0  0  3  0  0  0  0  0  0
  -25.8300  -32.4770   23.7430 C   0  0  0  0  0  3  0  0  0  0  0  0
  -25.5480  -33.8670   24.1240 N   0  0  0  0  0  0  0  0  0  0  0  0
  -25.8790  -34.9390   23.3930 C   0  0  0  0  0  0  0  0  0  0  0  0
  -26.5290  -34.8600   22.3450 O   0  0  0  0  0  0  0  0  0  0  0  0
  -24.9720  -34.0050   24.9430 H   0  0  0  0  0  0  0  0  0  0  0  0
  -24.1730  -36.7650   23.1210 C   0  0  0  0  0  1  0  0  0  0  0  0
  -25.4190  -36.3170   23.9020 C   0  0  0  0  0  3  0  0  0  0  0  0
  -27.5770  -37.1400   24.7340 C   0  0  0  0  0  1  0  0  0  0  0  0
  -26.4660  -37.3580   23.8110 N   0  0  0  0  0  0  0  0  0  0  0  0
  -26.0760  -38.2780   23.9960 H   0  0  0  0  0  0  0  0  0  0  0  0
  -26.3750  -31.6580   24.9750 C   0  0  1  0  0  0  0  0  0  0  0  0
  -25.3120  -31.4020   26.0700 C   0  0  0  0  0  1  0  0  0  0  0  0
  -26.9220  -30.2860   24.5190 C   0  0  0  0  0  1  0  0  0  0  0  0
  -27.5580  -32.4110   25.6250 C   0  0  0  0  0  1  0  0  0  0  0  0
  1  2  1  0
  2  5  2  0
  3  1  2  0
  3  6  1  0
  4  5  1  0
  5  7  1  0
  6  4  2  0
  8 10  1  0
  9 13  1  0
  9 11  1  0
  9 10  1  0
 10 12  1  0
 11  7  1  0
 11  8  1  0
 14 13  2  0
 15 16  2  0
 16 13  1  0
 17 15  1  0
 18 23  1  0
 19 20  1  0
 19 18  1  0
 21 20  1  0
 21 28  1  0
 21 22  1  0
 23 17  1  0
 23 22  1  0
 24 17  2  0
 25 26  2  0
 26 45  1  0
 27 26  1  0
 27 30  1  0
 28 29  1  0
 28 25  1  0
 29 27  2  0
 30 31  1  0
 31 32  2  0
 33 36  1  0
 33 32  1  0
 34 33  2  0
 35 34  1  0
 35 30  2  0
 36 37  1  0
 37 38  1  0
 38 39  2  0
 40 39  1  0
 40 44  1  0
 41 40  2  0
 42 37  2  0
 42 41  1  0
 43 42  1  0
 45 46  1  0
 46 49  1  0
 46 48  1  0
 47 45  2  0
 50 25  1  0
 50 51  1  0
 52 50  1  0
 53 54  1  0
 53 16  1  0
 55  6  1  0
 55 56  1  0
 56 58  1  0
 57 68  2  0
 58 63  1  0
 59 67  1  0
 59 69  1  0
 60 66  1  0
 60 62  1  0
 61 67  1  0
 62 61  1  0
 63 62  2  0
 64 65  1  0
 64 58  2  0
 65 60  2  0
 66 59  1  0
 67 57  1  0
 69 71  2  0
 70 69  1  0
 72 70  1  0
 73 82  2  0
 73 78  1  0
 74 70  1  0
 74 78  1  0
 75 74  1  0
 76 77  1  0
 76 75  1  0
 77 73  1  0
 78 79  2  0
 79 80  1  0
 81 80  2  0
 82 81  1  0
 83 57  1  0
 83 84  1  0
 83 93  1  0
 84 87  1  0
 85 89  1  0
 85 84  1  0
 86 85  2  0
 89 88  1  0
 91 89  1  0
 91 92  1  0
 91 90  1  0
 93 96  1  1
 93 94  1  0
 95 93  1  0
M  ISO  4  15 100  17 100  55 101  56 101
M  END
>  <TORSDO>  (43) 
F 22

>  <SCORE>  (43) 
-11.616

>  <name>  (43) 
42

>  <ligand_id>  (43) 
42

>  <original_smiles>  (43) 
[H]OC(C(=O)C1([H])C([H])(C([H])([H])[H])C([H])([H])C1([H])C([H])([H])c1c([H])c([H])c([H])c(C([H])([H])Oc2c([H])c([H])c3c(c2[H])C([H])([H])N(C(=O)C([H])(N([H])C(=O)C([H])(N([H])C([H])([H])[H])C([H])([H])[H])C(C([H])([H])[H])(C([H])([H])[H])C([H])([H])[H])C([H])(C(=O)N([H])C2([H])c4c([H])c([H])c([H])c([H])c4C([H])([H])C([H])([H])C2([H])[H])C3([H])[H])c1[H])=C([H])C(=O)N1C([H])([H])C([H])([H])C([H])([H])C([H])(n2nc(-c3c([H])c([H])c(Oc4c([H])c([H])c(F)c([H])c4F)c([H])c3[H])c(C(=O)N([H])[H])c2N([H])[H])C1([H])[H]

>  <smiles>  (43) 
[H]OC(C(=O)C1([H])C([H])(C([H])([H])[H])C([H])([H])C1([H])C([H])([H])c1c([H])c([H])c([H])c(C([H])([H])Oc2c([H])c([H])c3c(c2[H])C([H])([H])N(C(=O)C([H])(N([H])C(=O)C([H])(N([H])C([H])([H])[H])C([H])([H])[H])C(C([H])([H])[H])(C([H])([H])[H])C([H])([H])[H])C([H])(C(=O)N([H])C2([H])c4c([H])c([H])c([H])c([H])c4C([H])([H])C([H])([H])C2([H])[H])C3([H])[H])c1[H])=C([H])C(=O)N1C([H])([H])C([H])([H])C([H])([H])C([H])(n2nc(-c3c([H])c([H])c(Oc4c([H])c([H])c(F)c([H])c4F)c([H])c3[H])c(C(=O)N([H])[H])c2N([H])[H])C1([H])[H]

$$$$
43:0:0
     RDKit          3D

 96105  0  0  1  0  0  0  0  0999 V2000
  -28.5160  -22.1380   19.0840 C   0  0  0  0  0  3  0  0  0  0  0  0
  -28.2540  -23.4910   18.7960 C   0  0  0  0  0  3  0  0  0  0  0  0
  -30.2370  -22.8160   20.6680 C   0  0  0  0  0  3  0  0  0  0  0  0
  -29.5210  -21.7960   20.0100 C   0  0  0  0  0  0  0  0  0  0  0  0
  -28.9900  -24.5170   19.4290 C   0  0  0  0  0  0  0  0  0  0  0  0
  -29.9830  -24.1740   20.3840 C   0  0  0  0  0  0  0  0  0  0  0  0
  -30.8050  -25.2340   21.1000 C   0  0  0  0  0  1  0  0  0  0  0  0
  -29.8770  -20.3410   20.2680 C   0  0  0  0  0  2  0  0  0  0  0  0
  -32.0350  -18.8590   17.4460 C   0  0  0  0  0  2  0  0  0  0  0  0
  -30.8920  -19.7590   17.9400 C   0  0  0  0  0  2  0  0  0  0  0  0
  -32.7980  -18.4040   18.7030 C   0  0  0  0  0  2  0  0  0  0  0  0
  -31.1150  -19.9160   19.4500 C   0  0  0  0  0  3  0  0  0  0  0  0
  -31.8420  -18.6300   19.8830 C   0  0  0  0  0  3  0  0  0  0  0  0
  -30.9400  -17.4610   20.0220 N   0  0  0  0  0  4  0  0  0  0  0  0
  -31.3120  -16.7420   19.4190 H   0  0  0  0  0  0  0  0  0  0  0  0
  -30.0190  -17.6960   19.6900 H   0  0  0  0  0  0  0  0  0  0  0  0
  -30.8720  -16.8670   21.3800 C   0  0  0  0  0  2  0  0  0  0  0  0
  -30.1130  -15.5160   21.4260 C   0  0  0  0  0  2  0  0  0  0  0  0
  -30.7040  -14.4170   20.5200 C   0  0  0  0  0  0  0  0  0  0  0  0
  -30.3610  -12.3350   19.2350 C   0  0  0  0  0  2  0  0  0  0  0  0
  -29.4070  -12.5930   18.0530 C   0  0  0  0  0  2  0  0  0  0  0  0
  -27.9360  -12.4550   18.4930 C   0  0  0  0  0  2  0  0  0  0  0  0
  -27.6230  -13.2580   19.7820 C   0  0  0  0  0  3  0  0  0  0  0  0
  -28.6800  -12.9760   20.8740 C   0  0  0  0  0  2  0  0  0  0  0  0
  -30.0080  -13.2700   20.3130 N   0  0  0  0  0  0  0  0  0  0  0  0
  -31.7650  -14.6590   19.9330 O   0  0  0  0  0  0  0  0  0  0  0  0
  -25.2220  -13.8800   20.4790 C   0  0  0  0  0  0  0  0  0  0  0  0
  -24.1520  -13.1120   20.8520 C   0  0  0  0  0  0  0  0  0  0  0  0
  -24.6090  -11.7590   20.8290 C   0  0  0  0  0  0  0  0  0  0  0  0
  -26.2660  -12.9940   20.2580 N   0  0  0  0  0  0  0  0  0  0  0  0
  -25.8990  -11.7150   20.5240 N   0  0  0  0  0  0  0  0  0  0  0  0
  -23.8810  -10.5000   21.0270 C   0  0  0  0  0  0  0  0  0  0  0  0
  -24.3190   -9.5330   21.9570 C   0  0  0  0  0  3  0  0  0  0  0  0
  -23.5930   -8.3360   22.1430 C   0  0  0  0  0  3  0  0  0  0  0  0
  -22.4140   -8.1000   21.3980 C   0  0  0  0  0  0  0  0  0  0  0  0
  -21.9930   -9.0560   20.4560 C   0  0  0  0  0  3  0  0  0  0  0  0
  -22.7210  -10.2440   20.2690 C   0  0  0  0  0  3  0  0  0  0  0  0
  -21.6590   -6.9560   21.4920 O   0  0  0  0  0  0  0  0  0  0  0  0
  -21.6260   -6.2080   22.6410 C   0  0  0  0  0  0  0  0  0  0  0  0
  -21.2310   -6.7600   23.8800 C   0  0  0  0  0  3  0  0  0  0  0  0
  -21.1460   -5.9390   25.0210 C   0  0  0  0  0  3  0  0  0  0  0  0
  -21.4440   -4.5660   24.9260 C   0  0  0  0  0  0  0  0  0  0  0  0
  -21.8320   -4.0140   23.6930 C   0  0  0  0  0  3  0  0  0  0  0  0
  -21.9190   -4.8320   22.5530 C   0  0  0  0  0  0  0  0  0  0  0  0
  -22.2740   -4.2910   21.3640 F   0  0  0  0  0  0  0  0  0  0  0  0
  -21.3540   -3.7760   26.0210 F   0  0  0  0  0  0  0  0  0  0  0  0
  -22.7540  -13.5950   21.1230 C   0  0  0  0  0  0  0  0  0  0  0  0
  -22.0260  -12.9030   21.9920 N   0  0  0  0  0  0  0  0  0  0  0  0
  -22.3170  -14.6180   20.5980 O   0  0  0  0  0  0  0  0  0  0  0  0
  -22.3920  -12.0750   22.4370 H   0  0  0  0  0  0  0  0  0  0  0  0
  -21.0890  -13.2080   22.2170 H   0  0  0  0  0  0  0  0  0  0  0  0
  -25.3910  -15.2480   20.2920 N   0  0  0  0  0  0  0  0  0  0  0  0
  -24.6240  -15.9070   20.3890 H   0  0  0  0  0  0  0  0  0  0  0  0
  -26.2420  -15.6820   19.9600 H   0  0  0  0  0  0  0  0  0  0  0  0
  -28.7500  -25.9620   19.0150 C   0  0  0  0  0  2  0  0  0  0  0  0
  -28.4230  -26.8060   20.1160 O   0  0  0  0  0  0  0  0  0  0  0  0
  -24.5690  -31.8780   23.2230 C   0  0  0  0  0  0  0  0  0  0  0  0
  -27.2150  -27.4640   20.1210 C   0  0  0  0  0  0  0  0  0  0  0  0
  -23.3550  -30.4720   21.5870 C   0  0  0  0  0  3  0  0  0  0  0  0
  -24.8020  -28.9320   20.1610 C   0  0  0  0  0  0  0  0  0  0  0  0
  -25.8740  -30.8420   21.3730 C   0  0  0  0  0  2  0  0  0  0  0  0
  -25.9580  -29.4680   20.7430 C   0  0  0  0  0  0  0  0  0  0  0  0
  -27.1610  -28.7340   20.7320 C   0  0  0  0  0  3  0  0  0  0  0  0
  -26.0350  -26.9220   19.5600 C   0  0  0  0  0  3  0  0  0  0  0  0
  -24.8330  -27.6550   19.5750 C   0  0  0  0  0  3  0  0  0  0  0  0
  -23.5560  -29.7870   20.2090 C   0  0  0  0  0  2  0  0  0  0  0  0
  -24.6170  -31.0780   22.1200 N   0  0  0  0  0  0  0  0  0  0  0  0
  -23.4910  -32.1500   23.7670 O   0  0  0  0  0  0  0  0  0  0  0  0
  -22.7110  -29.4520   22.5530 C   0  0  0  0  0  0  0  0  0  0  0  0
  -21.3860  -29.2700   22.4330 N   0  0  0  0  0  0  0  0  0  0  0  0
  -23.3990  -28.8270   23.3650 O   0  0  0  0  0  0  0  0  0  0  0  0
  -20.8930  -29.8280   21.7500 H   0  0  0  0  0  0  0  0  0  0  0  0
  -18.0140  -28.0830   22.9430 C   0  0  0  0  0  0  0  0  0  0  0  0
  -20.5720  -28.3330   23.2060 C   0  0  0  0  0  3  0  0  0  0  0  0
  -20.6710  -26.9020   22.6290 C   0  0  0  0  0  2  0  0  0  0  0  0
  -19.5640  -26.5830   21.6200 C   0  0  0  0  0  2  0  0  0  0  0  0
  -18.1840  -26.7320   22.2690 C   0  0  0  0  0  2  0  0  0  0  0  0
  -19.1360  -28.8410   23.3690 C   0  0  0  0  0  0  0  0  0  0  0  0
  -18.9230  -30.1070   23.9580 C   0  0  0  0  0  3  0  0  0  0  0  0
  -17.6210  -30.6130   24.1260 C   0  0  0  0  0  3  0  0  0  0  0  0
  -16.5130  -29.8510   23.7180 C   0  0  0  0  0  3  0  0  0  0  0  0
  -16.7100  -28.5870   23.1320 C   0  0  0  0  0  3  0  0  0  0  0  0
  -25.8590  -32.5100   23.8350 C   0  0  0  0  0  3  0  0  0  0  0  0
  -25.5520  -33.9070   24.1670 N   0  0  0  0  0  0  0  0  0  0  0  0
  -25.8850  -34.9590   23.4080 C   0  0  0  0  0  0  0  0  0  0  0  0
  -26.5560  -34.8550   22.3770 O   0  0  0  0  0  0  0  0  0  0  0  0
  -24.9580  -34.0630   24.9680 H   0  0  0  0  0  0  0  0  0  0  0  0
  -24.1590  -36.7510   23.0480 C   0  0  0  0  0  1  0  0  0  0  0  0
  -25.3980  -36.3460   23.8650 C   0  0  0  0  0  3  0  0  0  0  0  0
  -27.5310  -37.2260   24.7030 C   0  0  0  0  0  1  0  0  0  0  0  0
  -26.4310  -37.3990   23.7580 N   0  0  0  0  0  0  0  0  0  0  0  0
  -26.0250  -38.3190   23.9080 H   0  0  0  0  0  0  0  0  0  0  0  0
  -26.3880  -31.7360   25.1040 C   0  0  1  0  0  0  0  0  0  0  0  0
  -25.3050  -31.4920   26.1800 C   0  0  0  0  0  1  0  0  0  0  0  0
  -26.9700  -30.3610   24.7000 C   0  0  0  0  0  1  0  0  0  0  0  0
  -27.5430  -32.5290   25.7590 C   0  0  0  0  0  1  0  0  0  0  0  0
  1  4  1  0
  2  1  2  0
  2  5  1  0
  4  8  1  0
  4  3  2  0
  5  6  2  0
  6  3  1  0
  6  7  1  0
  9 10  1  0
  9 11  1  0
 10 12  1  0
 11 13  1  0
 12 13  1  0
 12  8  1  0
 13 14  1  0
 14 17  1  0
 15 14  1  0
 16 14  1  0
 17 18  1  0
 19 18  1  0
 20 25  1  0
 21 22  1  0
 21 20  1  0
 23 22  1  0
 23 30  1  0
 23 24  1  0
 25 19  1  0
 25 24  1  0
 26 19  2  0
 27 28  2  0
 28 47  1  0
 29 28  1  0
 29 32  1  0
 30 27  1  0
 30 31  1  0
 31 29  2  0
 32 33  1  0
 33 34  2  0
 35 38  1  0
 35 34  1  0
 36 35  2  0
 37 36  1  0
 37 32  2  0
 38 39  1  0
 39 40  1  0
 40 41  2  0
 42 41  1  0
 42 46  1  0
 43 42  2  0
 44 39  2  0
 44 43  1  0
 45 44  1  0
 47 48  1  0
 48 51  1  0
 48 50  1  0
 49 47  2  0
 52 53  1  0
 52 27  1  0
 54 52  1  0
 55  5  1  0
 55 56  1  0
 56 58  1  0
 57 68  2  0
 58 63  1  0
 59 67  1  0
 59 69  1  0
 60 66  1  0
 60 62  1  0
 61 67  1  0
 62 61  1  0
 63 62  2  0
 64 65  1  0
 64 58  2  0
 65 60  2  0
 66 59  1  0
 67 57  1  0
 69 71  2  0
 70 69  1  0
 72 70  1  0
 73 82  2  0
 73 78  1  0
 74 70  1  0
 74 78  1  0
 75 74  1  0
 76 77  1  0
 76 75  1  0
 77 73  1  0
 78 79  2  0
 79 80  1  0
 81 80  2  0
 82 81  1  0
 83 57  1  0
 83 84  1  0
 83 93  1  0
 84 87  1  0
 85 89  1  0
 85 84  1  0
 86 85  2  0
 89 88  1  0
 91 89  1  0
 91 92  1  0
 91 90  1  0
 93 96  1  1
 93 94  1  0
 95 93  1  0
M  ISO  4  18 100  19 100  55 101  56 101
M  END
>  <TORSDO>  (44) 
F 22

>  <SCORE>  (44) 
-13.316

>  <name>  (44) 
43

>  <ligand_id>  (44) 
43

>  <original_smiles>  (44) 
[H]c1c([H])c([H])c2c(c1[H])C([H])([H])C([H])([H])C([H])([H])C2([H])N([H])C(=O)C1([H])N(C(=O)C([H])(N([H])C(=O)C([H])(N([H])C([H])([H])[H])C([H])([H])[H])C(C([H])([H])[H])(C([H])([H])[H])C([H])([H])[H])C([H])([H])c2c([H])c(OC([H])([H])c3c([H])c([H])c(C([H])([H])C4([H])C([H])([H])C([H])([H])C([H])([H])C4([H])[N+]([H])([H])C([H])([H])C([H])([H])C(=O)N4C([H])([H])C([H])([H])C([H])([H])C([H])(n5nc(-c6c([H])c([H])c(Oc7c([H])c([H])c(F)c([H])c7F)c([H])c6[H])c(C(=O)N([H])[H])c5N([H])[H])C4([H])[H])c([H])c3C([H])([H])[H])c([H])c([H])c2C1([H])[H]

>  <smiles>  (44) 
[H]c1c([H])c([H])c2c(c1[H])C([H])([H])C([H])([H])C([H])([H])C2([H])N([H])C(=O)C1([H])N(C(=O)C([H])(N([H])C(=O)C([H])(N([H])C([H])([H])[H])C([H])([H])[H])C(C([H])([H])[H])(C([H])([H])[H])C([H])([H])[H])C([H])([H])c2c([H])c(OC([H])([H])c3c([H])c([H])c(C([H])([H])C4([H])C([H])([H])C([H])([H])C([H])([H])C4([H])[N+]([H])([H])C([H])([H])C([H])([H])C(=O)N4C([H])([H])C([H])([H])C([H])([H])C([H])(n5nc(-c6c([H])c([H])c(Oc7c([H])c([H])c(F)c([H])c7F)c([H])c6[H])c(C(=O)N([H])[H])c5N([H])[H])C4([H])[H])c([H])c3C([H])([H])[H])c([H])c([H])c2C1([H])[H]

$$$$
44:0:0
     RDKit          3D

 90 97  0  0  1  0  0  0  0  0999 V2000
  -29.8640  -21.4100   20.7980 C   0  0  0  0  0  3  0  0  0  0  0  0
  -28.9340  -22.5450   20.2020 C   0  0  0  0  0  3  0  0  0  0  0  0
  -29.1540  -24.0580   20.6320 C   0  0  0  0  0  3  0  0  0  0  0  0
  -28.1200  -25.0810   20.0240 C   0  0  0  0  0  3  0  0  0  0  0  0
  -28.3110  -26.5240   20.2570 O   0  0  0  0  0  0  0  0  0  0  0  0
  -24.5960  -31.8880   23.2620 C   0  0  0  0  0  0  0  0  0  0  0  0
  -27.1860  -27.3560   20.1820 C   0  0  0  0  0  0  0  0  0  0  0  0
  -23.3800  -30.4940   21.6260 C   0  0  0  0  0  3  0  0  0  0  0  0
  -24.8170  -28.9500   20.1850 C   0  0  0  0  0  0  0  0  0  0  0  0
  -25.9130  -30.8180   21.4300 C   0  0  0  0  0  2  0  0  0  0  0  0
  -25.9860  -29.4400   20.7820 C   0  0  0  0  0  0  0  0  0  0  0  0
  -27.1720  -28.6510   20.7780 C   0  0  0  0  0  3  0  0  0  0  0  0
  -25.9970  -26.9240   19.5420 C   0  0  0  0  0  3  0  0  0  0  0  0
  -24.8200  -27.6950   19.5560 C   0  0  0  0  0  3  0  0  0  0  0  0
  -23.5850  -29.8260   20.2410 C   0  0  0  0  0  2  0  0  0  0  0  0
  -24.6480  -31.0840   22.1620 N   0  0  0  0  0  0  0  0  0  0  0  0
  -23.5160  -32.1680   23.8040 O   0  0  0  0  0  0  0  0  0  0  0  0
  -22.7230  -29.4730   22.5860 C   0  0  0  0  0  0  0  0  0  0  0  0
  -21.3980  -29.2900   22.4590 N   0  0  0  0  0  0  0  0  0  0  0  0
  -23.4040  -28.8490   23.4050 O   0  0  0  0  0  0  0  0  0  0  0  0
  -20.9090  -29.8470   21.7720 H   0  0  0  0  0  0  0  0  0  0  0  0
  -18.0250  -28.0810   22.9510 C   0  0  0  0  0  0  0  0  0  0  0  0
  -20.5820  -28.3530   23.2310 C   0  0  0  0  0  3  0  0  0  0  0  0
  -20.6930  -26.9190   22.6650 C   0  0  0  0  0  2  0  0  0  0  0  0
  -19.5980  -26.5880   21.6450 C   0  0  0  0  0  2  0  0  0  0  0  0
  -18.2120  -26.7300   22.2820 C   0  0  0  0  0  2  0  0  0  0  0  0
  -19.1390  -28.8500   23.3840 C   0  0  0  0  0  0  0  0  0  0  0  0
  -18.9160  -30.1170   23.9650 C   0  0  0  0  0  3  0  0  0  0  0  0
  -17.6070  -30.6150   24.1200 C   0  0  0  0  0  3  0  0  0  0  0  0
  -16.5080  -29.8410   23.7080 C   0  0  0  0  0  3  0  0  0  0  0  0
  -16.7170  -28.5770   23.1290 C   0  0  0  0  0  3  0  0  0  0  0  0
  -25.8850  -32.5170   23.8750 C   0  0  0  0  0  3  0  0  0  0  0  0
  -26.4020  -31.7490   25.1540 C   0  0  1  0  0  0  0  0  0  0  0  0
  -25.3130  -31.5180   26.2260 C   0  0  0  0  0  1  0  0  0  0  0  0
  -26.9770  -30.3660   24.7660 C   0  0  0  0  0  1  0  0  0  0  0  0
  -27.5590  -32.5420   25.8100 C   0  0  0  0  0  1  0  0  0  0  0  0
  -25.5830  -33.9170   24.2000 N   0  0  0  0  0  0  0  0  0  0  0  0
  -25.9130  -34.9640   23.4300 C   0  0  0  0  0  0  0  0  0  0  0  0
  -26.5760  -34.8510   22.3950 O   0  0  0  0  0  0  0  0  0  0  0  0
  -24.9980  -34.0780   25.0070 H   0  0  0  0  0  0  0  0  0  0  0  0
  -24.1920  -36.7630   23.0800 C   0  0  0  0  0  1  0  0  0  0  0  0
  -25.4350  -36.3550   23.8840 C   0  0  0  0  0  3  0  0  0  0  0  0
  -27.5790  -37.2360   24.6980 C   0  0  0  0  0  1  0  0  0  0  0  0
  -26.4710  -37.4030   23.7620 N   0  0  0  0  0  0  0  0  0  0  0  0
  -26.0680  -38.3240   23.9110 H   0  0  0  0  0  0  0  0  0  0  0  0
  -29.6480  -19.9540   20.2120 C   0  0  0  0  0  2  0  0  0  0  0  0
  -30.4090  -18.7450   20.9080 C   0  0  0  0  0  2  0  0  0  0  0  0
  -30.0510  -17.3440   18.7370 C   0  0  0  0  0  1  0  0  0  0  0  0
  -30.7190  -17.3650   20.1350 C   0  0  1  0  0  0  0  0  0  0  0  0
  -32.1900  -17.3530   19.9170 N   0  0  0  0  0  4  0  0  0  0  0  0
  -32.4620  -16.4490   19.5560 H   0  0  0  0  0  0  0  0  0  0  0  0
  -32.6930  -17.4880   20.7800 H   0  0  0  0  0  0  0  0  0  0  0  0
  -32.4860  -18.0630   19.2720 H   0  0  0  0  0  0  0  0  0  0  0  0
  -30.2590  -16.0190   20.9080 C   0  0  0  0  0  2  0  0  0  0  0  0
  -30.7770  -14.6210   20.3740 C   0  0  0  0  0  0  0  0  0  0  0  0
  -30.3840  -12.4150   19.3070 C   0  0  0  0  0  2  0  0  0  0  0  0
  -29.4460  -12.5740   18.0920 C   0  0  0  0  0  2  0  0  0  0  0  0
  -27.9770  -12.4440   18.5340 C   0  0  0  0  0  2  0  0  0  0  0  0
  -27.6410  -13.3270   19.7660 C   0  0  0  0  0  3  0  0  0  0  0  0
  -28.7150  -13.2040   20.8760 C   0  0  0  0  0  2  0  0  0  0  0  0
  -30.0330  -13.4690   20.2850 N   0  0  0  0  0  0  0  0  0  0  0  0
  -31.9210  -14.6360   19.9170 O   0  0  0  0  0  0  0  0  0  0  0  0
  -25.2510  -13.9280   20.4970 C   0  0  0  0  0  0  0  0  0  0  0  0
  -24.1840  -13.1600   20.8680 C   0  0  0  0  0  0  0  0  0  0  0  0
  -24.6430  -11.8070   20.8460 C   0  0  0  0  0  0  0  0  0  0  0  0
  -26.2970  -13.0470   20.2690 N   0  0  0  0  0  0  0  0  0  0  0  0
  -25.9350  -11.7660   20.5410 N   0  0  0  0  0  0  0  0  0  0  0  0
  -23.9120  -10.5470   21.0400 C   0  0  0  0  0  0  0  0  0  0  0  0
  -24.3480   -9.5730   21.9660 C   0  0  0  0  0  3  0  0  0  0  0  0
  -23.6180   -8.3790   22.1500 C   0  0  0  0  0  3  0  0  0  0  0  0
  -22.4350   -8.1470   21.4060 C   0  0  0  0  0  0  0  0  0  0  0  0
  -22.0200   -9.1070   20.4660 C   0  0  0  0  0  3  0  0  0  0  0  0
  -22.7520  -10.2930   20.2810 C   0  0  0  0  0  3  0  0  0  0  0  0
  -21.6780   -7.0040   21.4990 O   0  0  0  0  0  0  0  0  0  0  0  0
  -21.6450   -6.2530   22.6460 C   0  0  0  0  0  0  0  0  0  0  0  0
  -21.2520   -6.8050   23.8870 C   0  0  0  0  0  3  0  0  0  0  0  0
  -21.1630   -5.9810   25.0270 C   0  0  0  0  0  3  0  0  0  0  0  0
  -21.4580   -4.6080   24.9290 C   0  0  0  0  0  0  0  0  0  0  0  0
  -21.8460   -4.0560   23.6960 C   0  0  0  0  0  3  0  0  0  0  0  0
  -21.9360   -4.8770   22.5570 C   0  0  0  0  0  0  0  0  0  0  0  0
  -22.2880   -4.3370   21.3650 F   0  0  0  0  0  0  0  0  0  0  0  0
  -21.3670   -3.8150   26.0230 F   0  0  0  0  0  0  0  0  0  0  0  0
  -22.7860  -13.6380   21.1360 C   0  0  0  0  0  0  0  0  0  0  0  0
  -22.0550  -12.9460   22.0000 N   0  0  0  0  0  0  0  0  0  0  0  0
  -22.3500  -14.6630   20.6100 O   0  0  0  0  0  0  0  0  0  0  0  0
  -22.4180  -12.1150   22.4430 H   0  0  0  0  0  0  0  0  0  0  0  0
  -21.1170  -13.2490   22.2200 H   0  0  0  0  0  0  0  0  0  0  0  0
  -25.4150  -15.2980   20.3120 N   0  0  0  0  0  0  0  0  0  0  0  0
  -24.6510  -15.9550   20.4230 H   0  0  0  0  0  0  0  0  0  0  0  0
  -26.2690  -15.7370   19.9910 H   0  0  0  0  0  0  0  0  0  0  0  0
  2  3  1  0
  2  1  2  0
  4  5  1  0
  4  3  2  0
  6 17  2  0
  7  5  1  0
  7 12  1  0
  8 16  1  0
  8 18  1  0
  9 15  1  0
  9 11  1  0
 10 16  1  0
 11 10  1  0
 12 11  2  0
 13 14  1  0
 13  7  2  0
 14  9  2  0
 15  8  1  0
 16  6  1  0
 18 20  2  0
 19 18  1  0
 21 19  1  0
 22 31  2  0
 22 27  1  0
 23 19  1  0
 23 27  1  0
 24 23  1  0
 25 26  1  0
 25 24  1  0
 26 22  1  0
 27 28  2  0
 28 29  1  0
 30 29  2  0
 31 30  1  0
 32  6  1  0
 32 37  1  0
 32 33  1  0
 33 36  1  1
 33 34  1  0
 35 33  1  0
 37 40  1  0
 38 42  1  0
 38 37  1  0
 39 38  2  0
 42 41  1  0
 44 42  1  0
 44 45  1  0
 44 43  1  0
 46  1  1  0
 46 47  1  0
 49 48  1  6
 49 54  1  0
 49 47  1  0
 50 49  1  0
 50 52  1  0
 51 50  1  0
 53 50  1  0
 55 54  1  0
 56 61  1  0
 57 58  1  0
 57 56  1  0
 59 58  1  0
 59 66  1  0
 59 60  1  0
 61 55  1  0
 61 60  1  0
 62 55  2  0
 63 64  2  0
 64 83  1  0
 65 64  1  0
 65 68  1  0
 66 63  1  0
 66 67  1  0
 67 65  2  0
 68 69  1  0
 69 70  2  0
 71 74  1  0
 71 70  1  0
 72 71  2  0
 73 72  1  0
 73 68  2  0
 74 75  1  0
 75 76  1  0
 76 77  2  0
 78 77  1  0
 78 82  1  0
 79 78  2  0
 80 75  2  0
 80 79  1  0
 81 80  1  0
 83 84  1  0
 84 87  1  0
 84 86  1  0
 85 83  2  0
 88 89  1  0
 88 63  1  0
 90 88  1  0
M  ISO  4   4 101   5 101  54 100  55 100
M  END
>  <TORSDO>  (45) 
F 24

>  <SCORE>  (45) 
-12.542

>  <name>  (45) 
44

>  <ligand_id>  (45) 
44

>  <original_smiles>  (45) 
[H]c1c([H])c([H])c2c(c1[H])C([H])([H])C([H])([H])C([H])([H])C2([H])N([H])C(=O)C1([H])N(C(=O)C([H])(N([H])C(=O)C([H])(N([H])C([H])([H])[H])C([H])([H])[H])C(C([H])([H])[H])(C([H])([H])[H])C([H])([H])[H])C([H])([H])c2c([H])c(OC([H])([H])C([H])([H])C([H])([H])C([H])([H])C([H])([H])C([H])([H])C(C([H])([H])[H])(C([H])([H])C(=O)N3C([H])([H])C([H])([H])C([H])([H])C([H])(n4nc(-c5c([H])c([H])c(Oc6c([H])c([H])c(F)c([H])c6F)c([H])c5[H])c(C(=O)N([H])[H])c4N([H])[H])C3([H])[H])[N+]([H])([H])[H])c([H])c([H])c2C1([H])[H]

>  <smiles>  (45) 
[H]c1c([H])c([H])c2c(c1[H])C([H])([H])C([H])([H])C([H])([H])C2([H])N([H])C(=O)C1([H])N(C(=O)C([H])(N([H])C(=O)C([H])(N([H])C([H])([H])[H])C([H])([H])[H])C(C([H])([H])[H])(C([H])([H])[H])C([H])([H])[H])C([H])([H])c2c([H])c(OC([H])([H])C([H])([H])C([H])([H])C([H])([H])C([H])([H])C([H])([H])C(C([H])([H])[H])(C([H])([H])C(=O)N3C([H])([H])C([H])([H])C([H])([H])C([H])(n4nc(-c5c([H])c([H])c(Oc6c([H])c([H])c(F)c([H])c6F)c([H])c5[H])c(C(=O)N([H])[H])c4N([H])[H])C3([H])[H])[N+]([H])([H])[H])c([H])c([H])c2C1([H])[H]

$$$$
45:0:0
     RDKit          3D

 93 93  0  0  1  0  0  0  0  0999 V2000
  -31.6880  -13.6130   21.3930 C   0  0  0  0  0  2  0  0  0  0  0  0
  -30.9440  -14.6230   22.3970 C   0  0  0  0  0  3  0  0  0  0  0  0
  -29.7350  -13.5590   19.3890 C   0  0  0  0  0  1  0  0  0  0  0  0
  -31.1840  -13.0910   19.9670 C   0  0  0  0  0  3  0  0  0  0  0  0
  -29.5020  -15.3080   22.3270 C   0  0  0  0  0  0  0  0  0  0  0  0
  -28.5040  -15.1830   21.0300 C   0  0  0  0  0  1  0  0  0  0  0  0
  -28.7030  -15.0890   24.7460 C   0  0  0  0  0  1  0  0  0  0  0  0
  -29.0710  -16.0520   23.5880 C   0  0  0  0  0  2  0  0  0  0  0  0
  -32.2020  -12.6730   18.9940 C   0  0  0  0  0  0  0  0  0  0  0  0
  -32.7900  -11.5870   19.0290 O   0  0  0  0  0  0  0  0  0  0  0  0
  -32.5620  -13.7500   17.9420 C   0  0  0  0  0  2  0  0  0  0  0  0
  -31.9460  -15.2020   18.0890 C   0  0  0  0  0  2  0  0  0  0  0  0
  -31.6170  -15.6620   19.5450 C   0  0  0  0  0  0  0  0  0  0  0  0
  -29.3130  -13.0890   21.4250 C   0  0  0  0  0  1  0  0  0  0  0  0
  -28.5810  -11.7690   20.2960 C   0  0  0  0  0  2  0  0  0  0  0  0
  -27.7830  -12.2670   18.8540 C   0  0  0  0  0  2  0  0  0  0  0  0
  -27.3580  -13.8850   19.0210 C   0  0  0  0  0  2  0  0  0  0  0  0
  -28.7590  -15.4780   18.8050 C   0  0  0  0  0 15  0  0  0  0  0  0
  -30.4010  -15.4390   20.0670 N   0  0  0  0  0  1  0  0  0  0  0  0
  -32.5920  -15.7270   20.2360 O   0  0  0  0  0  0  0  0  0  0  0  0
  -25.1550  -14.0910   20.5520 C   0  0  0  0  0  0  0  0  0  0  0  0
  -24.1580  -13.2190   20.9640 C   0  0  0  0  0  0  0  0  0  0  0  0
  -24.6450  -11.8920   20.8750 C   0  0  0  0  0  0  0  0  0  0  0  0
  -26.2520  -13.4050   20.1190 N   0  0  0  0  0  0  0  0  0  0  0  0
  -25.8910  -12.0470   20.4590 N   0  0  0  0  0  0  0  0  0  0  0  0
  -23.9580  -10.5470   21.0320 C   0  0  0  0  0  0  0  0  0  0  0  0
  -24.4040   -9.5160   21.9030 C   0  0  0  0  0  3  0  0  0  0  0  0
  -23.6770   -8.3000   22.0640 C   0  0  0  0  0  3  0  0  0  0  0  0
  -22.4720   -8.0760   21.3530 C   0  0  0  0  0  0  0  0  0  0  0  0
  -22.0440   -9.0750   20.4610 C   0  0  0  0  0  3  0  0  0  0  0  0
  -22.7720  -10.2800   20.3030 C   0  0  0  0  0  3  0  0  0  0  0  0
  -21.7130   -6.9250   21.4210 O   0  0  0  0  0  0  0  0  0  0  0  0
  -21.7150   -6.0950   22.5250 C   0  0  0  0  0  0  0  0  0  0  0  0
  -21.4240   -6.5780   23.8170 C   0  0  0  0  0  3  0  0  0  0  0  0
  -21.3740   -5.6910   24.9100 C   0  0  0  0  0  3  0  0  0  0  0  0
  -21.6030   -4.3120   24.7180 C   0  0  0  0  0  0  0  0  0  0  0  0
  -21.8760   -3.8270   23.4250 C   0  0  0  0  0  3  0  0  0  0  0  0
  -21.9280   -4.7140   22.3340 C   0  0  0  0  0  0  0  0  0  0  0  0
  -22.1670   -4.2270   21.0930 F   0  0  0  0  0  0  0  0  0  0  0  0
  -21.5610   -3.4590   25.7650 F   0  0  0  0  0  0  0  0  0  0  0  0
  -22.7390  -13.5930   21.2280 C   0  0  0  0  0  0  0  0  0  0  0  0
  -22.0360  -12.8330   22.0620 N   0  0  0  0  0  0  0  0  0  0  0  0
  -22.2580  -14.5970   20.7090 O   0  0  0  0  0  0  0  0  0  0  0  0
  -22.4390  -12.0130   22.4920 H   0  0  0  0  0  0  0  0  0  0  0  0
  -21.0830  -13.0840   22.2870 H   0  0  0  0  0  0  0  0  0  0  0  0
  -25.1990  -15.4540   20.3860 N   0  0  0  0  0  0  0  0  0  0  0  0
  -24.3890  -16.0480   20.5260 H   0  0  0  0  0  0  0  0  0  0  0  0
  -25.9660  -15.9150   19.9190 H   0  0  0  0  0  0  0  0  0  0  0  0
  -27.9210  -17.4130   20.8140 C   0  0  0  0  0 15  0  0  0  0  0  0
  -27.3110  -20.0580   22.2810 C   0  0  0  0  0  1  0  0  0  0  0  0
  -28.1020  -19.8380   20.9840 C   0  0  0  0  0  1  0  0  0  0  0  0
  -27.7970  -22.1670   20.3870 C   0  0  0  0  0 15  0  0  0  0  0  0
  -27.8000  -24.3220   20.5890 O   0  0  0  0  0  1  0  0  0  0  0  0
  -24.7410  -31.7240   23.1070 C   0  0  0  0  0  0  0  0  0  0  0  0
  -27.0620  -25.9180   20.3920 C   0  0  0  0  0  0  0  0  0  0  0  0
  -23.5880  -30.3060   21.4710 C   0  0  0  0  0  3  0  0  0  0  0  0
  -25.0280  -28.4940   20.1390 C   0  0  0  0  0  0  0  0  0  0  0  0
  -26.1780  -30.1980   21.4910 C   0  0  0  0  0  2  0  0  0  0  0  0
  -26.2070  -28.6750   20.8670 C   0  0  0  0  0  0  0  0  0  0  0  0
  -27.1780  -27.4400   20.9470 C   0  0  0  0  0  3  0  0  0  0  0  0
  -25.9180  -26.1550   19.5340 C   0  0  0  0  0  3  0  0  0  0  0  0
  -24.9790  -27.2710   19.4340 C   0  0  0  0  0  3  0  0  0  0  0  0
  -23.8810  -29.5600   20.1250 C   0  0  0  0  0  2  0  0  0  0  0  0
  -24.8680  -30.7930   22.0750 N   0  0  0  0  0  0  0  0  0  0  0  0
  -23.6310  -32.0650   23.5580 O   0  0  0  0  0  0  0  0  0  0  0  0
  -22.7970  -29.3930   22.4480 C   0  0  0  0  0  0  0  0  0  0  0  0
  -21.4560  -29.2980   22.3240 N   0  0  0  0  0  0  0  0  0  0  0  0
  -23.4130  -28.7580   23.3090 O   0  0  0  0  0  0  0  0  0  0  0  0
  -20.9970  -29.8630   21.6220 H   0  0  0  0  0  0  0  0  0  0  0  0
  -18.0350  -28.1470   22.8400 C   0  0  0  0  0  0  0  0  0  0  0  0
  -20.6010  -28.3860   23.1000 C   0  0  0  0  0  3  0  0  0  0  0  0
  -20.6790  -26.9450   22.5400 C   0  0  0  0  0  2  0  0  0  0  0  0
  -19.5790  -26.6340   21.5200 C   0  0  0  0  0  2  0  0  0  0  0  0
  -18.1970  -26.7980   22.1580 C   0  0  0  0  0  2  0  0  0  0  0  0
  -19.1630  -28.8990   23.2670 C   0  0  0  0  0  0  0  0  0  0  0  0
  -18.9540  -30.1550   23.8760 C   0  0  0  0  0  3  0  0  0  0  0  0
  -17.6540  -30.6630   24.0540 C   0  0  0  0  0  3  0  0  0  0  0  0
  -16.5410  -29.9120   23.6370 C   0  0  0  0  0  3  0  0  0  0  0  0
  -16.7330  -28.6540   23.0370 C   0  0  0  0  0  3  0  0  0  0  0  0
  -25.9690  -32.4120   23.7840 C   0  0  0  0  0  3  0  0  0  0  0  0
  -25.5980  -33.8000   24.1600 N   0  0  0  0  0  0  0  0  0  0  0  0
  -25.9170  -34.9120   23.4810 C   0  0  0  0  0  0  0  0  0  0  0  0
  -26.5910  -34.8800   22.4480 O   0  0  0  0  0  0  0  0  0  0  0  0
  -24.9980  -33.9020   24.9660 H   0  0  0  0  0  0  0  0  0  0  0  0
  -24.1450  -36.7020   23.2650 C   0  0  0  0  0  1  0  0  0  0  0  0
  -25.4140  -36.2730   24.0220 C   0  0  0  0  0  3  0  0  0  0  0  0
  -27.5530  -37.1670   24.8450 C   0  0  0  0  0  1  0  0  0  0  0  0
  -26.4210  -37.3570   23.9430 N   0  0  0  0  0  0  0  0  0  0  0  0
  -25.9970  -38.2570   24.1540 H   0  0  0  0  0  0  0  0  0  0  0  0
  -26.4680  -31.6510   25.0760 C   0  0  1  0  0  0  0  0  0  0  0  0
  -25.3590  -31.4070   26.1260 C   0  0  0  0  0  1  0  0  0  0  0  0
  -27.0760  -30.2800   24.7180 C   0  0  0  0  0  1  0  0  0  0  0  0
  -27.5960  -32.4580   25.7600 C   0  0  0  0  0  1  0  0  0  0  0  0
  1  2  1  0
  4  3  1  0
  4  1  1  0
  5  2  2  0
  5  8  1  0
  6  5  1  0
  8  7  1  0
  9 10  2  0
  9  4  1  0
 11 12  1  0
 11  9  1  0
 12 13  1  0
 13 19  1  0
 13 20  2  0
 15 14  1  0
 16 17  1  0
 16 15  1  0
 17 24  1  0
 21 22  2  0
 22 41  1  0
 23 22  1  0
 23 26  1  0
 24 25  1  0
 24 21  1  0
 25 23  2  0
 26 27  1  0
 27 28  2  0
 29 32  1  0
 29 28  1  0
 30 29  2  0
 31 30  1  0
 31 26  2  0
 32 33  1  0
 33 34  1  0
 34 35  2  0
 36 35  1  0
 36 40  1  0
 37 36  2  0
 38 33  2  0
 38 37  1  0
 39 38  1  0
 41 42  1  0
 42 45  1  0
 42 44  1  0
 43 41  2  0
 46 47  1  0
 46 21  1  0
 48 46  1  0
 51 50  1  0
 54 65  2  0
 55 53  1  0
 55 60  1  0
 56 64  1  0
 56 66  1  0
 57 59  1  0
 58 64  1  0
 59 60  2  0
 59 58  1  0
 61 55  2  0
 62 61  1  0
 62 57  2  0
 63 57  1  0
 63 56  1  0
 64 54  1  0
 66 68  2  0
 67 66  1  0
 69 67  1  0
 70 79  2  0
 70 75  1  0
 71 67  1  0
 71 75  1  0
 72 71  1  0
 73 74  1  0
 73 72  1  0
 74 70  1  0
 75 76  2  0
 76 77  1  0
 78 77  2  0
 79 78  1  0
 80 54  1  0
 80 81  1  0
 80 90  1  0
 81 84  1  0
 82 86  1  0
 82 81  1  0
 83 82  2  0
 86 85  1  0
 88 86  1  0
 88 89  1  0
 88 87  1  0
 90 93  1  1
 90 91  1  0
 92 90  1  0
M  ISO  4  12 100  13 100  52 101  53 101
M  END
>  <TORSDO>  (46) 
F 23

>  <SCORE>  (46) 
14.901

>  <name>  (46) 
45

>  <ligand_id>  (46) 
45

>  <original_smiles>  (46) 
[H]c1c([H])c([H])c2c(c1[H])C([H])([H])C([H])([H])C([H])([H])C2([H])N([H])C(=O)C1([H])N(C(=O)C([H])(N([H])C(=O)C([H])(N([H])C([H])([H])[H])C([H])([H])[H])C(C([H])([H])[H])(C([H])([H])[H])C([H])([H])[H])C([H])([H])c2c([H])c(OC([H])([H])C([H])(C([H])([H])[H])C([H])([H])c3c([H])c(C(=O)C([H])([H])C([H])([H])C(=O)N4C([H])([H])C([H])([H])C([H])([H])C([H])(n5nc(-c6c([H])c([H])c(Oc7c([H])c([H])c(F)c([H])c7F)c([H])c6[H])c(C(=O)N([H])[H])c5N([H])[H])C4([H])[H])c([H])c([H])c3C([H])([H])C([H])([H])[H])c([H])c([H])c2C1([H])[H]

>  <smiles>  (46) 
[H]c1c([H])c([H])c2c(c1[H])C([H])([H])C([H])([H])C([H])([H])C2([H])N([H])C(=O)C1([H])N(C(=O)C([H])(N([H])C(=O)C([H])(N([H])C([H])([H])[H])C([H])([H])[H])C(C([H])([H])[H])(C([H])([H])[H])C([H])([H])[H])C([H])([H])c2c([H])c(OC([H])([H])C([H])(C([H])([H])[H])C([H])([H])c3c([H])c(C(=O)C([H])([H])C([H])([H])C(=O)N4C([H])([H])C([H])([H])C([H])([H])C([H])(n5nc(-c6c([H])c([H])c(Oc7c([H])c([H])c(F)c([H])c7F)c([H])c6[H])c(C(=O)N([H])[H])c5N([H])[H])C4([H])[H])c([H])c([H])c3C([H])([H])C([H])([H])[H])c([H])c([H])c2C1([H])[H]

$$$$
46:0:0
     RDKit          3D

 94 99  0  0  1  0  0  0  0  0999 V2000
  -29.1560  -19.1180   22.2700 C   0  0  0  0  0  1  0  0  0  0  0  0
  -28.5580  -18.9410   20.8720 C   0  0  0  0  0  3  0  0  0  0  0  0
  -28.8960  -20.3570   19.9820 N   0  0  0  0  0  4  0  0  0  0  0  0
  -29.8060  -20.1840   19.5900 H   0  0  0  0  0  0  0  0  0  0  0  0
  -28.2680  -20.3030   19.1910 H   0  0  0  0  0  0  0  0  0  0  0  0
  -28.9410  -22.0080   20.4190 C   0  0  0  0  0  3  0  0  0  0  0  0
  -28.5990  -23.5870   19.5010 C   0  0  0  0  0  3  0  0  0  0  0  0
  -28.8680  -25.2520   19.6870 O   0  0  0  0  0  0  0  0  0  0  0  0
  -25.0320  -30.9510   22.6690 C   0  0  0  0  0  0  0  0  0  0  0  0
  -27.9270  -26.4020   19.5000 C   0  0  0  0  0  0  0  0  0  0  0  0
  -24.0020  -29.5710   20.9150 C   0  0  0  0  0  3  0  0  0  0  0  0
  -25.5920  -28.2100   19.4010 C   0  0  0  0  0  0  0  0  0  0  0  0
  -26.5430  -29.9930   20.8410 C   0  0  0  0  0  2  0  0  0  0  0  0
  -26.7260  -28.6310   20.1090 C   0  0  0  0  0  0  0  0  0  0  0  0
  -27.9020  -27.7500   20.1220 C   0  0  0  0  0  3  0  0  0  0  0  0
  -26.8090  -26.1930   18.6680 C   0  0  0  0  0  3  0  0  0  0  0  0
  -25.6740  -27.0400   18.6330 C   0  0  0  0  0  3  0  0  0  0  0  0
  -24.3070  -29.0290   19.4900 C   0  0  0  0  0  2  0  0  0  0  0  0
  -25.2150  -30.2020   21.5290 N   0  0  0  0  0  0  0  0  0  0  0  0
  -23.9120  -31.0960   23.1810 O   0  0  0  0  0  0  0  0  0  0  0  0
  -23.3960  -28.4420   21.7940 C   0  0  0  0  0  0  0  0  0  0  0  0
  -22.0810  -28.1910   21.6650 N   0  0  0  0  0  0  0  0  0  0  0  0
  -24.1170  -27.8000   22.5630 O   0  0  0  0  0  0  0  0  0  0  0  0
  -21.5520  -28.7680   21.0260 H   0  0  0  0  0  0  0  0  0  0  0  0
  -18.7910  -26.7220   22.1330 C   0  0  0  0  0  0  0  0  0  0  0  0
  -21.3380  -27.1300   22.3560 C   0  0  0  0  0  3  0  0  0  0  0  0
  -21.5080  -25.7710   21.6370 C   0  0  0  0  0  2  0  0  0  0  0  0
  -20.3970  -25.4780   20.6240 C   0  0  0  0  0  2  0  0  0  0  0  0
  -19.0310  -25.4640   21.3150 C   0  0  0  0  0  2  0  0  0  0  0  0
  -19.8730  -27.5130   22.6080 C   0  0  0  0  0  0  0  0  0  0  0  0
  -19.5890  -28.6870   23.3410 C   0  0  0  0  0  3  0  0  0  0  0  0
  -18.2600  -29.0730   23.5980 C   0  0  0  0  0  3  0  0  0  0  0  0
  -17.1950  -28.2820   23.1350 C   0  0  0  0  0  3  0  0  0  0  0  0
  -17.4620  -27.1080   22.4080 C   0  0  0  0  0  3  0  0  0  0  0  0
  -26.2200  -31.6700   23.3740 C   0  0  0  0  0  3  0  0  0  0  0  0
  -25.7250  -32.9580   23.8940 N   0  0  0  0  0  0  0  0  0  0  0  0
  -25.9000  -34.1480   23.3030 C   0  0  0  0  0  0  0  0  0  0  0  0
  -26.5560  -34.2840   22.2700 O   0  0  0  0  0  0  0  0  0  0  0  0
  -25.1310  -32.9110   24.7080 H   0  0  0  0  0  0  0  0  0  0  0  0
  -23.9510  -35.7500   23.2180 C   0  0  0  0  0  1  0  0  0  0  0  0
  -25.2470  -35.3850   23.9600 C   0  0  0  0  0  3  0  0  0  0  0  0
  -27.2650  -36.4140   24.9200 C   0  0  0  0  0  1  0  0  0  0  0  0
  -26.1380  -36.5680   24.0040 N   0  0  0  0  0  0  0  0  0  0  0  0
  -25.6200  -37.4000   24.2750 H   0  0  0  0  0  0  0  0  0  0  0  0
  -26.8440  -30.8230   24.5510 C   0  0  1  0  0  0  0  0  0  0  0  0
  -25.8070  -30.3010   25.5740 C   0  0  0  0  0  1  0  0  0  0  0  0
  -27.6070  -29.6000   23.9960 C   0  0  0  0  0  1  0  0  0  0  0  0
  -27.8800  -31.6780   25.3190 C   0  0  0  0  0  1  0  0  0  0  0  0
  -28.6890  -15.8370   21.1540 C   0  0  0  0  0  3  0  0  0  0  0  0
  -28.6930  -17.1990   20.4710 C   0  0  0  0  0  3  0  0  0  0  0  0
  -28.9940  -11.3370   22.1820 C   0  0  0  0  0  3  0  0  0  0  0  0
  -28.4570  -12.3780   22.9200 C   0  0  0  0  0  3  0  0  0  0  0  0
  -29.4140  -11.5190   20.8600 C   0  0  0  0  0  3  0  0  0  0  0  0
  -28.4310  -13.6530   22.3660 C   0  0  0  0  0  3  0  0  0  0  0  0
  -29.4150  -12.7330   20.0430 C   0  0  0  0  0  3  0  0  0  0  0  0
  -28.9090  -14.0100   21.0750 C   0  0  0  0  0  0  0  0  0  0  0  0
  -30.1690  -13.0200   17.5470 C   0  0  0  0  0  1  0  0  0  0  0  0
  -31.3070  -13.6970   17.1730 C   0  0  0  0  0  2  0  0  0  0  0  0
  -32.0170  -14.1720   18.3340 C   0  0  0  0  0  0  0  0  0  0  0  0
  -31.4360  -12.0300   19.1880 C   0  0  0  0  0  3  0  0  0  0  0  0
  -30.0330  -10.9350   18.3940 C   0  0  0  0  0  3  0  0  0  0  0  0
  -28.3310  -11.6570   18.0100 C   0  0  0  0  0  2  0  0  0  0  0  0
  -27.9240  -13.5290   18.3200 C   0  0  0  0  0  2  0  0  0  0  0  0
  -29.5900  -14.8360   18.8130 C   0  0  0  0  0 15  0  0  0  0  0  0
  -31.2420  -13.8930   19.2780 N   0  0  0  0  0  2  0  0  0  0  0  0
  -33.1750  -14.4780   18.4810 O   0  0  0  0  0  0  0  0  0  0  0  0
  -25.9700  -14.0540   19.9240 C   0  0  0  0  0  0  0  0  0  0  0  0
  -24.9400  -13.3280   20.4510 C   0  0  0  0  0  0  0  0  0  0  0  0
  -25.2310  -11.9430   20.2590 C   0  0  0  0  0  0  0  0  0  0  0  0
  -26.8000  -13.1980   19.3110 N   0  0  0  0  0  0  0  0  0  0  0  0
  -26.3970  -11.9040   19.6660 N   0  0  0  0  0  0  0  0  0  0  0  0
  -24.4180  -10.7160   20.4570 C   0  0  0  0  0  0  0  0  0  0  0  0
  -24.8050   -9.6500   21.3050 C   0  0  0  0  0  3  0  0  0  0  0  0
  -23.9550   -8.5300   21.5070 C   0  0  0  0  0  3  0  0  0  0  0  0
  -22.6960   -8.4630   20.8560 C   0  0  0  0  0  0  0  0  0  0  0  0
  -22.3320   -9.5060   19.9820 C   0  0  0  0  0  3  0  0  0  0  0  0
  -23.1810  -10.6100   19.7880 C   0  0  0  0  0  3  0  0  0  0  0  0
  -21.8060   -7.4190   20.9760 O   0  0  0  0  0  0  0  0  0  0  0  0
  -21.6050   -6.7560   22.1620 C   0  0  0  0  0  0  0  0  0  0  0  0
  -21.3150   -7.4400   23.3680 C   0  0  0  0  0  3  0  0  0  0  0  0
  -21.0420   -6.7090   24.5430 C   0  0  0  0  0  3  0  0  0  0  0  0
  -21.0530   -5.3030   24.5180 C   0  0  0  0  0  0  0  0  0  0  0  0
  -21.3310   -4.6200   23.3240 C   0  0  0  0  0  3  0  0  0  0  0  0
  -21.5980   -5.3430   22.1480 C   0  0  0  0  0  0  0  0  0  0  0  0
  -21.8340   -4.6800   20.9930 F   0  0  0  0  0  0  0  0  0  0  0  0
  -20.8040   -4.6020   25.6510 F   0  0  0  0  0  0  0  0  0  0  0  0
  -23.6630  -13.8940   20.9480 C   0  0  0  0  0  0  0  0  0  0  0  0
  -23.0170  -13.2240   21.8840 N   0  0  0  0  0  0  0  0  0  0  0  0
  -23.2700  -14.9740   20.5080 O   0  0  0  0  0  0  0  0  0  0  0  0
  -23.3680  -12.3380   22.2370 H   0  0  0  0  0  0  0  0  0  0  0  0
  -22.1460  -13.5700   22.2610 H   0  0  0  0  0  0  0  0  0  0  0  0
  -26.2750  -15.3990   19.8060 N   0  0  0  0  0  0  0  0  0  0  0  0
  -25.6690  -16.1430   20.1340 H   0  0  0  0  0  0  0  0  0  0  0  0
  -27.0980  -15.7220   19.3230 H   0  0  0  0  0  0  0  0  0  0  0  0
  2  1  1  0
  3  6  1  0
  3  2  1  0
  4  3  1  0
  5  3  1  0
  7  8  1  0
  7  6  2  0
  9 20  2  0
 10  8  1  0
 10 15  1  0
 11 19  1  0
 11 21  1  0
 12 18  1  0
 12 14  1  0
 13 19  1  0
 14 15  2  0
 14 13  1  0
 16 10  2  0
 17 16  1  0
 17 12  2  0
 18 11  1  0
 19  9  1  0
 21 23  2  0
 22 21  1  0
 24 22  1  0
 25 34  2  0
 25 30  1  0
 26 22  1  0
 26 30  1  0
 27 26  1  0
 28 29  1  0
 28 27  1  0
 29 25  1  0
 30 31  2  0
 31 32  1  0
 33 32  2  0
 34 33  1  0
 35  9  1  0
 35 36  1  0
 35 45  1  0
 36 39  1  0
 37 36  1  0
 37 41  1  0
 38 37  2  0
 41 40  1  0
 41 43  1  0
 43 44  1  0
 43 42  1  0
 45 48  1  1
 45 46  1  0
 47 45  1  0
 50  2  1  0
 50 49  2  0
 51 52  1  0
 53 51  2  0
 54 52  2  0
 55 53  1  0
 55 56  2  0
 56 49  1  0
 56 54  1  0
 58 57  1  0
 58 59  1  0
 59 66  2  0
 59 65  1  0
 60 65  1  0
 61 60  2  0
 62 63  1  0
 62 61  1  0
 63 70  1  0
 67 68  2  0
 68 87  1  0
 69 68  1  0
 69 72  1  0
 70 71  1  0
 70 67  1  0
 71 69  2  0
 72 73  1  0
 73 74  2  0
 75 78  1  0
 75 74  1  0
 76 75  2  0
 77 76  1  0
 77 72  2  0
 78 79  1  0
 79 80  1  0
 80 81  2  0
 82 81  1  0
 82 86  1  0
 83 82  2  0
 84 79  2  0
 84 83  1  0
 85 84  1  0
 87 88  1  0
 88 90  1  0
 88 91  1  0
 89 87  2  0
 92 67  1  0
 92 93  1  0
 94 92  1  0
M  ISO  4   7 101   8 101  58 100  59 100
M  END
>  <TORSDO>  (47) 
F 22

>  <SCORE>  (47) 
-6.369

>  <name>  (47) 
46

>  <ligand_id>  (47) 
46

>  <original_smiles>  (47) 
[H]C(C(=O)N1C([H])([H])C([H])([H])C([H])([H])C([H])(n2nc(-c3c([H])c([H])c(Oc4c([H])c([H])c(F)c([H])c4F)c([H])c3[H])c(C(=O)N([H])[H])c2N([H])[H])C1([H])[H])=C([H])c1c([H])c([H])c([H])c([H])c1C([H])=C([H])C([H])(C([H])([H])[H])[N+]([H])([H])C([H])([H])C([H])([H])Oc1c([H])c([H])c2c(c1[H])C([H])([H])N(C(=O)C([H])(N([H])C(=O)C([H])(N([H])C([H])([H])[H])C([H])([H])[H])C(C([H])([H])[H])(C([H])([H])[H])C([H])([H])[H])C([H])(C(=O)N([H])C1([H])c3c([H])c([H])c([H])c([H])c3C([H])([H])C([H])([H])C1([H])[H])C2([H])[H]

>  <smiles>  (47) 
[H]C(C(=O)N1C([H])([H])C([H])([H])C([H])([H])C([H])(n2nc(-c3c([H])c([H])c(Oc4c([H])c([H])c(F)c([H])c4F)c([H])c3[H])c(C(=O)N([H])[H])c2N([H])[H])C1([H])[H])=C([H])c1c([H])c([H])c([H])c([H])c1C([H])=C([H])C([H])(C([H])([H])[H])[N+]([H])([H])C([H])([H])C([H])([H])Oc1c([H])c([H])c2c(c1[H])C([H])([H])N(C(=O)C([H])(N([H])C(=O)C([H])(N([H])C([H])([H])[H])C([H])([H])[H])C(C([H])([H])[H])(C([H])([H])[H])C([H])([H])[H])C([H])(C(=O)N([H])C1([H])c3c([H])c([H])c([H])c([H])c3C([H])([H])C([H])([H])C1([H])[H])C2([H])[H]

$$$$
47:0:0
     RDKit          3D

 93101  0  0  1  0  0  0  0  0999 V2000
  -28.7250  -17.9780   18.3070 C   0  0  0  0  0  3  0  0  0  0  0  0
  -28.0410  -19.0590   17.7150 C   0  0  0  0  0  3  0  0  0  0  0  0
  -29.4450  -19.4310   20.1100 C   0  0  0  0  0  3  0  0  0  0  0  0
  -29.4540  -18.1430   19.5080 C   0  0  0  0  0  0  0  0  0  0  0  0
  -28.7830  -20.5440   19.5150 C   0  0  0  0  0  0  0  0  0  0  0  0
  -28.0620  -20.3420   18.3030 C   0  0  0  0  0  0  0  0  0  0  0  0
  -27.2750  -21.4450   17.6020 C   0  0  0  0  0  1  0  0  0  0  0  0
  -29.8680  -15.6890   19.9430 C   0  0  0  0  0  3  0  0  0  0  0  0
  -30.2330  -16.9940   20.0770 C   0  0  0  0  0  0  0  0  0  0  0  0
  -30.6710  -14.4910   20.2610 C   0  0  0  0  0  0  0  0  0  0  0  0
  -30.3300  -12.2760   19.2750 C   0  0  0  0  0  2  0  0  0  0  0  0
  -29.4040  -12.4800   18.0600 C   0  0  0  0  0  2  0  0  0  0  0  0
  -27.9300  -12.3390   18.4940 C   0  0  0  0  0  2  0  0  0  0  0  0
  -27.5780  -13.1800   19.7500 C   0  0  0  0  0  3  0  0  0  0  0  0
  -28.6620  -13.0660   20.8490 C   0  0  0  0  0  2  0  0  0  0  0  0
  -29.9810  -13.3130   20.2540 N   0  0  0  0  0  0  0  0  0  0  0  0
  -31.8950  -14.5090   20.1260 O   0  0  0  0  0  0  0  0  0  0  0  0
  -25.2040  -13.7960   20.5050 C   0  0  0  0  0  0  0  0  0  0  0  0
  -24.1380  -13.0300   20.8830 C   0  0  0  0  0  0  0  0  0  0  0  0
  -24.5960  -11.6780   20.8560 C   0  0  0  0  0  0  0  0  0  0  0  0
  -26.2410  -12.9060   20.2600 N   0  0  0  0  0  0  0  0  0  0  0  0
  -25.8840  -11.6290   20.5390 N   0  0  0  0  0  0  0  0  0  0  0  0
  -23.8680  -10.4210   21.0510 C   0  0  0  0  0  0  0  0  0  0  0  0
  -24.3140   -9.4490   21.9730 C   0  0  0  0  0  3  0  0  0  0  0  0
  -23.5890   -8.2530   22.1520 C   0  0  0  0  0  3  0  0  0  0  0  0
  -22.4020   -8.0230   21.4180 C   0  0  0  0  0  0  0  0  0  0  0  0
  -21.9750   -8.9850   20.4850 C   0  0  0  0  0  3  0  0  0  0  0  0
  -22.7010  -10.1730   20.3020 C   0  0  0  0  0  3  0  0  0  0  0  0
  -21.6440   -6.8810   21.5130 O   0  0  0  0  0  0  0  0  0  0  0  0
  -21.6220   -6.1250   22.6580 C   0  0  0  0  0  0  0  0  0  0  0  0
  -21.2460   -6.6690   23.9050 C   0  0  0  0  0  3  0  0  0  0  0  0
  -21.1780   -5.8390   25.0420 C   0  0  0  0  0  3  0  0  0  0  0  0
  -21.4690   -4.4660   24.9300 C   0  0  0  0  0  0  0  0  0  0  0  0
  -21.8330   -3.9220   23.6850 C   0  0  0  0  0  3  0  0  0  0  0  0
  -21.9100   -4.7500   22.5530 C   0  0  0  0  0  0  0  0  0  0  0  0
  -22.2450   -4.2150   21.3520 F   0  0  0  0  0  0  0  0  0  0  0  0
  -21.3920   -3.6660   26.0200 F   0  0  0  0  0  0  0  0  0  0  0  0
  -22.7440  -13.5150   21.1570 C   0  0  0  0  0  0  0  0  0  0  0  0
  -22.0120  -12.8300   22.0250 N   0  0  0  0  0  0  0  0  0  0  0  0
  -22.3100  -14.5410   20.6300 O   0  0  0  0  0  0  0  0  0  0  0  0
  -22.3690  -12.0070   22.4900 H   0  0  0  0  0  0  0  0  0  0  0  0
  -21.0750  -13.1400   22.2410 H   0  0  0  0  0  0  0  0  0  0  0  0
  -25.3690  -15.1680   20.3250 N   0  0  0  0  0  0  0  0  0  0  0  0
  -24.5980  -15.8150   20.4480 H   0  0  0  0  0  0  0  0  0  0  0  0
  -26.2180  -15.6200   20.0090 H   0  0  0  0  0  0  0  0  0  0  0  0
  -31.3880  -17.3720   20.6470 O   0  0  0  0  0  0  0  0  0  0  0  0
  -31.4870  -18.3030   20.4860 H   0  0  0  0  0  0  0  0  0  0  0  0
  -28.8100  -21.8700   20.2210 C   0  0  0  0  0  0  0  0  0  0  0  0
  -28.1560  -22.0990   21.2400 O   0  0  0  0  0  0  0  0  0  0  0  0
  -29.7640  -22.9330   19.6430 C   0  0  0  0  0  2  0  0  0  0  0  0
  -29.6500  -24.4290   20.1060 C   0  0  0  0  0  2  0  0  0  0  0  0
  -28.3160  -25.1920   19.8820 C   0  0  0  0  0  2  0  0  0  0  0  0
  -28.4050  -26.5880   20.2690 O   0  0  0  0  0  0  0  0  0  0  0  0
  -24.6010  -31.8780   23.2580 C   0  0  0  0  0  0  0  0  0  0  0  0
  -27.2390  -27.3450   20.2480 C   0  0  0  0  0  0  0  0  0  0  0  0
  -23.4040  -30.4670   21.6210 C   0  0  0  0  0  3  0  0  0  0  0  0
  -24.8590  -28.8960   20.2350 C   0  0  0  0  0  0  0  0  0  0  0  0
  -25.9440  -30.7860   21.4580 C   0  0  0  0  0  2  0  0  0  0  0  0
  -26.0200  -29.4080   20.8280 C   0  0  0  0  0  0  0  0  0  0  0  0
  -27.2130  -28.6420   20.8260 C   0  0  0  0  0  3  0  0  0  0  0  0
  -26.0460  -26.8540   19.6650 C   0  0  0  0  0  3  0  0  0  0  0  0
  -24.8680  -27.6200   19.6530 C   0  0  0  0  0  3  0  0  0  0  0  0
  -23.6240  -29.7680   20.2540 C   0  0  0  0  0  2  0  0  0  0  0  0
  -24.6670  -31.0630   22.1670 N   0  0  0  0  0  0  0  0  0  0  0  0
  -23.5130  -32.1640   23.7810 O   0  0  0  0  0  0  0  0  0  0  0  0
  -22.7350  -29.4580   22.5870 C   0  0  0  0  0  0  0  0  0  0  0  0
  -21.4100  -29.2830   22.4500 N   0  0  0  0  0  0  0  0  0  0  0  0
  -23.4070  -28.8360   23.4150 O   0  0  0  0  0  0  0  0  0  0  0  0
  -20.9330  -29.8410   21.7560 H   0  0  0  0  0  0  0  0  0  0  0  0
  -18.0220  -28.1170   22.9360 C   0  0  0  0  0  0  0  0  0  0  0  0
  -20.5800  -28.3580   23.2220 C   0  0  0  0  0  3  0  0  0  0  0  0
  -20.6750  -26.9190   22.6660 C   0  0  0  0  0  2  0  0  0  0  0  0
  -19.5780  -26.5940   21.6470 C   0  0  0  0  0  2  0  0  0  0  0  0
  -18.1930  -26.7570   22.2780 C   0  0  0  0  0  2  0  0  0  0  0  0
  -19.1440  -28.8740   23.3660 C   0  0  0  0  0  0  0  0  0  0  0  0
  -18.9320  -30.1450   23.9420 C   0  0  0  0  0  3  0  0  0  0  0  0
  -17.6310  -30.6600   24.0900 C   0  0  0  0  0  3  0  0  0  0  0  0
  -16.5230  -29.9010   23.6720 C   0  0  0  0  0  3  0  0  0  0  0  0
  -16.7200  -28.6300   23.1050 C   0  0  0  0  0  3  0  0  0  0  0  0
  -25.8820  -32.5090   23.8880 C   0  0  0  0  0  3  0  0  0  0  0  0
  -25.5710  -33.9090   24.2080 N   0  0  0  0  0  0  0  0  0  0  0  0
  -25.9120  -34.9560   23.4440 C   0  0  0  0  0  0  0  0  0  0  0  0
  -26.5890  -34.8420   22.4190 O   0  0  0  0  0  0  0  0  0  0  0  0
  -24.9670  -34.0710   25.0010 H   0  0  0  0  0  0  0  0  0  0  0  0
  -24.1830  -36.7440   23.0690 C   0  0  0  0  0  1  0  0  0  0  0  0
  -25.4230  -36.3490   23.8870 C   0  0  0  0  0  3  0  0  0  0  0  0
  -27.5590  -37.2350   24.7100 C   0  0  0  0  0  1  0  0  0  0  0  0
  -26.4570  -37.4010   23.7680 N   0  0  0  0  0  0  0  0  0  0  0  0
  -26.0530  -38.3230   23.9070 H   0  0  0  0  0  0  0  0  0  0  0  0
  -26.3870  -31.7440   25.1730 C   0  0  1  0  0  0  0  0  0  0  0  0
  -25.2880  -31.5180   26.2380 C   0  0  0  0  0  1  0  0  0  0  0  0
  -26.9710  -30.3630   24.7970 C   0  0  0  0  0  1  0  0  0  0  0  0
  -27.5370  -32.5400   25.8340 C   0  0  0  0  0  1  0  0  0  0  0  0
  1  4  1  0
  2  6  1  0
  2  1  2  0
  4  9  1  0
  4  3  2  0
  5  3  1  0
  5 48  1  0
  6  5  2  0
  7  6  1  0
  8  9  2  0
  8 10  1  0
  9 46  1  0
 11 16  1  0
 12 13  1  0
 12 11  1  0
 14 13  1  0
 14 21  1  0
 14 15  1  0
 16 10  1  0
 16 15  1  0
 17 10  2  0
 18 19  2  0
 19 38  1  0
 20 19  1  0
 20 23  1  0
 21 18  1  0
 21 22  1  0
 22 20  2  0
 23 24  1  0
 24 25  2  0
 26 29  1  0
 26 25  1  0
 27 26  2  0
 28 27  1  0
 28 23  2  0
 29 30  1  0
 30 31  1  0
 31 32  2  0
 33 32  1  0
 33 37  1  0
 34 33  2  0
 35 30  2  0
 35 34  1  0
 36 35  1  0
 38 39  1  0
 39 42  1  0
 39 41  1  0
 40 38  2  0
 43 44  1  0
 43 18  1  0
 45 43  1  0
 47 46  1  0
 48 49  2  0
 50 51  1  0
 50 48  1  0
 52 51  1  0
 52 53  1  0
 54 65  2  0
 55 53  1  0
 55 60  1  0
 56 64  1  0
 56 66  1  0
 57 63  1  0
 57 59  1  0
 58 64  1  0
 59 58  1  0
 60 59  2  0
 61 55  2  0
 62 61  1  0
 62 57  2  0
 63 56  1  0
 64 54  1  0
 66 68  2  0
 67 66  1  0
 69 67  1  0
 70 79  2  0
 70 75  1  0
 71 67  1  0
 71 75  1  0
 72 71  1  0
 73 74  1  0
 73 72  1  0
 74 70  1  0
 75 76  2  0
 76 77  1  0
 78 77  2  0
 79 78  1  0
 80 54  1  0
 80 81  1  0
 80 90  1  0
 81 84  1  0
 82 86  1  0
 82 81  1  0
 83 82  2  0
 86 85  1  0
 88 86  1  0
 88 89  1  0
 88 87  1  0
 90 93  1  1
 90 91  1  0
 92 90  1  0
M  ISO  4   8 100  10 100  52 101  53 101
M  END
>  <TORSDO>  (48) 
F 22

>  <SCORE>  (48) 
-13.527

>  <name>  (48) 
47

>  <ligand_id>  (48) 
47

>  <original_smiles>  (48) 
[H]OC(=C([H])C(=O)N1C([H])([H])C([H])([H])C([H])([H])C([H])(n2nc(-c3c([H])c([H])c(Oc4c([H])c([H])c(F)c([H])c4F)c([H])c3[H])c(C(=O)N([H])[H])c2N([H])[H])C1([H])[H])c1c([H])c([H])c(C([H])([H])[H])c(C(=O)C([H])([H])C([H])([H])C([H])([H])Oc2c([H])c([H])c3c(c2[H])C([H])([H])N(C(=O)C([H])(N([H])C(=O)C([H])(N([H])C([H])([H])[H])C([H])([H])[H])C(C([H])([H])[H])(C([H])([H])[H])C([H])([H])[H])C([H])(C(=O)N([H])C2([H])c4c([H])c([H])c([H])c([H])c4C([H])([H])C([H])([H])C2([H])[H])C3([H])[H])c1[H]

>  <smiles>  (48) 
[H]OC(=C([H])C(=O)N1C([H])([H])C([H])([H])C([H])([H])C([H])(n2nc(-c3c([H])c([H])c(Oc4c([H])c([H])c(F)c([H])c4F)c([H])c3[H])c(C(=O)N([H])[H])c2N([H])[H])C1([H])[H])c1c([H])c([H])c(C([H])([H])[H])c(C(=O)C([H])([H])C([H])([H])C([H])([H])Oc2c([H])c([H])c3c(c2[H])C([H])([H])N(C(=O)C([H])(N([H])C(=O)C([H])(N([H])C([H])([H])[H])C([H])([H])[H])C(C([H])([H])[H])(C([H])([H])[H])C([H])([H])[H])C([H])(C(=O)N([H])C2([H])c4c([H])c([H])c([H])c([H])c4C([H])([H])C([H])([H])C2([H])[H])C3([H])[H])c1[H]

$$$$
48:0:0
     RDKit          3D

 97106  0  0  1  0  0  0  0  0999 V2000
  -33.1670  -21.3060   17.3900 C   0  0  0  0  0  3  0  0  0  0  0  0
  -32.9770  -22.5490   16.7700 C   0  0  0  0  0  3  0  0  0  0  0  0
  -32.1650  -20.7800   18.2220 C   0  0  0  0  0  3  0  0  0  0  0  0
  -31.8080  -23.2820   17.0310 C   0  0  0  0  0  3  0  0  0  0  0  0
  -30.9600  -21.4870   18.4670 C   0  0  0  0  0  0  0  0  0  0  0  0
  -30.8150  -22.7960   17.9150 C   0  0  0  0  0  0  0  0  0  0  0  0
  -29.8280  -20.8110   19.2590 C   0  0  0  0  0  2  0  0  0  0  0  0
  -30.0360  -19.2940   19.5320 C   0  0  0  0  0  2  0  0  0  0  0  0
  -26.3410  -18.1970   19.6300 C   0  0  0  0  0  3  0  0  0  0  0  0
  -26.4580  -16.8000   19.6940 C   0  0  0  0  0  3  0  0  0  0  0  0
  -27.4970  -18.9970   19.5930 C   0  0  0  0  0  3  0  0  0  0  0  0
  -27.7310  -16.2020   19.7470 C   0  0  0  0  0  3  0  0  0  0  0  0
  -28.7840  -18.4110   19.6280 C   0  0  0  0  0  0  0  0  0  0  0  0
  -28.9060  -16.9920   19.7450 C   0  0  0  0  0  0  0  0  0  0  0  0
  -30.2930  -16.3340   19.8640 C   0  0  0  0  0  2  0  0  0  0  0  0
  -30.8430  -13.9660   19.7870 C   0  0  0  0  0  0  0  0  0  0  0  0
  -30.5150  -11.6270   19.0620 C   0  0  0  0  0  2  0  0  0  0  0  0
  -29.5160  -11.5430   17.8910 C   0  0  0  0  0  2  0  0  0  0  0  0
  -28.0720  -11.4510   18.4210 C   0  0  0  0  0  2  0  0  0  0  0  0
  -27.7580  -12.5420   19.4770 C   0  0  0  0  0  3  0  0  0  0  0  0
  -28.8600  -12.5990   20.5570 C   0  0  0  0  0  2  0  0  0  0  0  0
  -30.1610  -12.7920   19.8920 N   0  0  0  0  0  0  0  0  0  0  0  0
  -31.7990  -14.1100   19.0150 O   0  0  0  0  0  0  0  0  0  0  0  0
  -30.7950  -15.0560   21.9330 C   0  0  0  0  0  1  0  0  0  0  0  0
  -30.3830  -15.0090   20.5200 N   0  0  0  0  0  0  0  0  0  0  0  0
  -25.4690  -13.2880   20.3930 C   0  0  0  0  0  0  0  0  0  0  0  0
  -24.3980  -12.5800   20.8640 C   0  0  0  0  0  0  0  0  0  0  0  0
  -24.7730  -11.2040   20.7980 C   0  0  0  0  0  0  0  0  0  0  0  0
  -26.4360  -12.3480   20.0720 N   0  0  0  0  0  0  0  0  0  0  0  0
  -26.0230  -11.0880   20.3720 N   0  0  0  0  0  0  0  0  0  0  0  0
  -23.9950   -9.9860   21.0620 C   0  0  0  0  0  0  0  0  0  0  0  0
  -24.4440   -9.0060   21.9740 C   0  0  0  0  0  3  0  0  0  0  0  0
  -23.6710   -7.8520   22.2250 C   0  0  0  0  0  3  0  0  0  0  0  0
  -22.4330   -7.6710   21.5650 C   0  0  0  0  0  0  0  0  0  0  0  0
  -21.9990   -8.6390   20.6410 C   0  0  0  0  0  3  0  0  0  0  0  0
  -22.7730   -9.7840   20.3890 C   0  0  0  0  0  3  0  0  0  0  0  0
  -21.6260   -6.5700   21.7280 O   0  0  0  0  0  0  0  0  0  0  0  0
  -21.6220   -5.8440   22.8900 C   0  0  0  0  0  0  0  0  0  0  0  0
  -21.3170   -6.4350   24.1370 C   0  0  0  0  0  3  0  0  0  0  0  0
  -21.2600   -5.6370   25.2980 C   0  0  0  0  0  3  0  0  0  0  0  0
  -21.4930   -4.2520   25.2140 C   0  0  0  0  0  0  0  0  0  0  0  0
  -21.7900   -3.6610   23.9730 C   0  0  0  0  0  3  0  0  0  0  0  0
  -21.8520   -4.4550   22.8150 C   0  0  0  0  0  0  0  0  0  0  0  0
  -22.1190   -3.8790   21.6180 F   0  0  0  0  0  0  0  0  0  0  0  0
  -21.4290   -3.4840   26.3270 F   0  0  0  0  0  0  0  0  0  0  0  0
  -23.0620  -13.1390   21.2630 C   0  0  0  0  0  0  0  0  0  0  0  0
  -22.3790  -12.4890   22.1990 N   0  0  0  0  0  0  0  0  0  0  0  0
  -22.6370  -14.1870   20.7790 O   0  0  0  0  0  0  0  0  0  0  0  0
  -22.7340  -11.6420   22.6140 H   0  0  0  0  0  0  0  0  0  0  0  0
  -21.4800  -12.8420   22.4990 H   0  0  0  0  0  0  0  0  0  0  0  0
  -25.6980  -14.6470   20.1970 N   0  0  0  0  0  0  0  0  0  0  0  0
  -24.9930  -15.3490   20.3950 H   0  0  0  0  0  0  0  0  0  0  0  0
  -26.5620  -15.0430   19.8470 H   0  0  0  0  0  0  0  0  0  0  0  0
  -29.6300  -23.7240   18.2180 C   0  0  0  0  0  2  0  0  0  0  0  0
  -30.0840  -25.1460   18.6480 C   0  0  0  0  0  2  0  0  0  0  0  0
  -29.0010  -26.2370   18.5590 C   0  0  0  0  0  2  0  0  0  0  0  0
  -28.4740  -26.5330   19.8470 O   0  0  0  0  0  0  0  0  0  0  0  0
  -24.7620  -31.6000   23.1740 C   0  0  0  0  0  0  0  0  0  0  0  0
  -27.3200  -27.2800   19.8660 C   0  0  0  0  0  0  0  0  0  0  0  0
  -23.5270  -30.3060   21.4650 C   0  0  0  0  0  3  0  0  0  0  0  0
  -24.9490  -28.8120   19.9650 C   0  0  0  0  0  0  0  0  0  0  0  0
  -26.0580  -30.6240   21.2830 C   0  0  0  0  0  2  0  0  0  0  0  0
  -26.1150  -29.2840   20.5830 C   0  0  0  0  0  0  0  0  0  0  0  0
  -27.2990  -28.5160   20.5470 C   0  0  0  0  0  3  0  0  0  0  0  0
  -26.1360  -26.8100   19.2580 C   0  0  0  0  0  3  0  0  0  0  0  0
  -24.9530  -27.5690   19.3060 C   0  0  0  0  0  3  0  0  0  0  0  0
  -23.7220  -29.6900   20.0530 C   0  0  0  0  0  2  0  0  0  0  0  0
  -24.8010  -30.8560   22.0340 N   0  0  0  0  0  0  0  0  0  0  0  0
  -23.6870  -31.8700   23.7280 O   0  0  0  0  0  0  0  0  0  0  0  0
  -22.8560  -29.2530   22.3740 C   0  0  0  0  0  0  0  0  0  0  0  0
  -21.5260  -29.1140   22.2470 N   0  0  0  0  0  0  0  0  0  0  0  0
  -23.5270  -28.5660   23.1500 O   0  0  0  0  0  0  0  0  0  0  0  0
  -21.0470  -29.7210   21.5970 H   0  0  0  0  0  0  0  0  0  0  0  0
  -18.1200  -28.0040   22.7170 C   0  0  0  0  0  0  0  0  0  0  0  0
  -20.6880  -28.1580   22.9710 C   0  0  0  0  0  3  0  0  0  0  0  0
  -20.7350  -26.7620   22.3080 C   0  0  0  0  0  2  0  0  0  0  0  0
  -19.6130  -26.5390   21.2910 C   0  0  0  0  0  2  0  0  0  0  0  0
  -18.2440  -26.6920   21.9610 C   0  0  0  0  0  2  0  0  0  0  0  0
  -19.2690  -28.7010   23.1780 C   0  0  0  0  0  0  0  0  0  0  0  0
  -19.1010  -29.9330   23.8430 C   0  0  0  0  0  3  0  0  0  0  0  0
  -17.8180  -30.4690   24.0540 C   0  0  0  0  0  3  0  0  0  0  0  0
  -16.6830  -29.7680   23.6110 C   0  0  0  0  0  3  0  0  0  0  0  0
  -16.8360  -28.5370   22.9490 C   0  0  0  0  0  3  0  0  0  0  0  0
  -26.0630  -32.1710   23.8240 C   0  0  0  0  0  3  0  0  0  0  0  0
  -25.7830  -33.5550   24.2290 N   0  0  0  0  0  0  0  0  0  0  0  0
  -26.1420  -34.6390   23.5270 C   0  0  0  0  0  0  0  0  0  0  0  0
  -26.8140  -34.5760   22.4940 O   0  0  0  0  0  0  0  0  0  0  0  0
  -25.1890  -33.6800   25.0350 H   0  0  0  0  0  0  0  0  0  0  0  0
  -24.4450  -36.4770   23.2700 C   0  0  0  0  0  1  0  0  0  0  0  0
  -25.6810  -36.0110   24.0560 C   0  0  0  0  0  3  0  0  0  0  0  0
  -27.8350  -36.8100   24.9210 C   0  0  0  0  0  1  0  0  0  0  0  0
  -26.7320  -37.0490   23.9940 N   0  0  0  0  0  0  0  0  0  0  0  0
  -26.3450  -37.9680   24.1900 H   0  0  0  0  0  0  0  0  0  0  0  0
  -26.5700  -31.3210   25.0520 C   0  0  1  0  0  0  0  0  0  0  0  0
  -25.4790  -31.0520   26.1150 C   0  0  0  0  0  1  0  0  0  0  0  0
  -27.1180  -29.9530   24.5800 C   0  0  0  0  0  1  0  0  0  0  0  0
  -27.7440  -32.0500   25.7470 C   0  0  0  0  0  1  0  0  0  0  0  0
  1  3  1  0
  2  4  1  0
  2  1  2  0
  3  5  2  0
  4  6  2  0
  5  7  1  0
  6 54  1  0
  6  5  1  0
  7  8  1  0
  8 13  1  0
  9 10  1  0
 10 12  2  0
 11 13  1  0
 11  9  2  0
 13 14  2  0
 14 12  1  0
 14 15  1  0
 15 25  1  0
 16 22  1  0
 16 25  1  0
 17 22  1  0
 18 19  1  0
 18 17  1  0
 20 19  1  0
 20 29  1  0
 20 21  1  0
 22 21  1  0
 23 16  2  0
 25 24  1  0
 26 27  2  0
 27 46  1  0
 28 27  1  0
 28 31  1  0
 29 30  1  0
 29 26  1  0
 30 28  2  0
 31 32  1  0
 32 33  2  0
 34 37  1  0
 34 33  1  0
 35 34  2  0
 36 35  1  0
 36 31  2  0
 37 38  1  0
 38 39  1  0
 39 40  2  0
 41 40  1  0
 41 45  1  0
 42 41  2  0
 43 38  2  0
 43 42  1  0
 44 43  1  0
 46 47  1  0
 47 50  1  0
 47 49  1  0
 48 46  2  0
 51 26  1  0
 51 52  1  0
 53 51  1  0
 54 55  1  0
 56 55  1  0
 56 57  1  0
 57 59  1  0
 58 69  2  0
 59 64  1  0
 60 68  1  0
 60 70  1  0
 61 67  1  0
 61 63  1  0
 62 68  1  0
 63 62  1  0
 64 63  2  0
 65 66  1  0
 65 59  2  0
 66 61  2  0
 67 60  1  0
 68 58  1  0
 70 72  2  0
 71 70  1  0
 73 71  1  0
 74 83  2  0
 74 79  1  0
 75 71  1  0
 75 79  1  0
 76 75  1  0
 77 78  1  0
 77 76  1  0
 78 74  1  0
 79 80  2  0
 80 81  1  0
 82 81  2  0
 83 82  1  0
 84 58  1  0
 84 85  1  0
 84 94  1  0
 85 88  1  0
 86 90  1  0
 86 85  1  0
 87 86  2  0
 90 89  1  0
 92 90  1  0
 92 93  1  0
 92 91  1  0
 94 97  1  1
 94 95  1  0
 96 94  1  0
M  ISO  4  16 100  25 100  56 101  57 101
M  END
>  <TORSDO>  (49) 
F 23

>  <SCORE>  (49) 
-11.682

>  <name>  (49) 
48

>  <ligand_id>  (49) 
48

>  <original_smiles>  (49) 
[H]c1c([H])c([H])c(C([H])([H])C([H])([H])c2c([H])c([H])c([H])c([H])c2C([H])([H])C([H])([H])C([H])([H])Oc2c([H])c([H])c3c(c2[H])C([H])([H])N(C(=O)C([H])(N([H])C(=O)C([H])(N([H])C([H])([H])[H])C([H])([H])[H])C(C([H])([H])[H])(C([H])([H])[H])C([H])([H])[H])C([H])(C(=O)N([H])C2([H])c4c([H])c([H])c([H])c([H])c4C([H])([H])C([H])([H])C2([H])[H])C3([H])[H])c(C([H])([H])N(C(=O)N2C([H])([H])C([H])([H])C([H])([H])C([H])(n3nc(-c4c([H])c([H])c(Oc5c([H])c([H])c(F)c([H])c5F)c([H])c4[H])c(C(=O)N([H])[H])c3N([H])[H])C2([H])[H])C([H])([H])[H])c1[H]

>  <smiles>  (49) 
[H]c1c([H])c([H])c(C([H])([H])C([H])([H])c2c([H])c([H])c([H])c([H])c2C([H])([H])C([H])([H])C([H])([H])Oc2c([H])c([H])c3c(c2[H])C([H])([H])N(C(=O)C([H])(N([H])C(=O)C([H])(N([H])C([H])([H])[H])C([H])([H])[H])C(C([H])([H])[H])(C([H])([H])[H])C([H])([H])[H])C([H])(C(=O)N([H])C2([H])c4c([H])c([H])c([H])c([H])c4C([H])([H])C([H])([H])C2([H])[H])C3([H])[H])c(C([H])([H])N(C(=O)N2C([H])([H])C([H])([H])C([H])([H])C([H])(n3nc(-c4c([H])c([H])c(Oc5c([H])c([H])c(F)c([H])c5F)c([H])c4[H])c(C(=O)N([H])[H])c3N([H])[H])C2([H])[H])C([H])([H])[H])c1[H]

$$$$
49:0:0
     RDKit          3D

 98107  0  0  1  0  0  0  0  0999 V2000
  -30.5770  -21.5680   18.1250 C   0  0  0  0  0  2  0  0  0  0  0  0
  -32.1350  -24.6940   19.7230 C   0  0  0  0  0  3  0  0  0  0  0  0
  -32.0190  -23.4730   19.0300 C   0  0  0  0  0  3  0  0  0  0  0  0
  -30.9800  -25.3580   20.1840 C   0  0  0  0  0  3  0  0  0  0  0  0
  -29.5930  -23.5960   19.2340 C   0  0  0  0  0  3  0  0  0  0  0  0
  -30.7440  -22.9170   18.7950 C   0  0  0  0  0  0  0  0  0  0  0  0
  -29.7050  -24.8080   19.9380 C   0  0  0  0  0  0  0  0  0  0  0  0
  -28.4530  -25.4960   20.4350 C   0  0  0  0  0  2  0  0  0  0  0  0
  -28.4500  -26.8600   20.0460 O   0  0  0  0  0  0  0  0  0  0  0  0
  -24.6010  -31.9020   23.2120 C   0  0  0  0  0  0  0  0  0  0  0  0
  -27.2460  -27.5130   20.0990 C   0  0  0  0  0  0  0  0  0  0  0  0
  -23.3870  -30.5020   21.5720 C   0  0  0  0  0  3  0  0  0  0  0  0
  -24.8360  -28.9750   20.1390 C   0  0  0  0  0  0  0  0  0  0  0  0
  -25.9050  -30.8800   21.3560 C   0  0  0  0  0  2  0  0  0  0  0  0
  -25.9920  -29.5130   20.7180 C   0  0  0  0  0  0  0  0  0  0  0  0
  -27.2010  -28.7890   20.6940 C   0  0  0  0  0  3  0  0  0  0  0  0
  -26.0750  -26.9790   19.5160 C   0  0  0  0  0  3  0  0  0  0  0  0
  -24.8700  -27.7040   19.5390 C   0  0  0  0  0  3  0  0  0  0  0  0
  -23.5890  -29.8260   20.1890 C   0  0  0  0  0  2  0  0  0  0  0  0
  -24.6490  -31.1080   22.1050 N   0  0  0  0  0  0  0  0  0  0  0  0
  -23.5240  -32.1690   23.7610 O   0  0  0  0  0  0  0  0  0  0  0  0
  -22.7480  -29.4750   22.5310 C   0  0  0  0  0  0  0  0  0  0  0  0
  -21.4260  -29.2800   22.4020 N   0  0  0  0  0  0  0  0  0  0  0  0
  -23.4370  -28.8540   23.3460 O   0  0  0  0  0  0  0  0  0  0  0  0
  -20.9310  -29.8330   21.7150 H   0  0  0  0  0  0  0  0  0  0  0  0
  -18.0640  -28.0500   22.8760 C   0  0  0  0  0  0  0  0  0  0  0  0
  -20.6150  -28.3370   23.1700 C   0  0  0  0  0  3  0  0  0  0  0  0
  -20.7390  -26.9050   22.6020 C   0  0  0  0  0  2  0  0  0  0  0  0
  -19.6490  -26.5650   21.5800 C   0  0  0  0  0  2  0  0  0  0  0  0
  -18.2610  -26.6990   22.2110 C   0  0  0  0  0  2  0  0  0  0  0  0
  -19.1700  -28.8270   23.3120 C   0  0  0  0  0  0  0  0  0  0  0  0
  -18.9330  -30.0920   23.8910 C   0  0  0  0  0  3  0  0  0  0  0  0
  -17.6230  -30.5810   24.0410 C   0  0  0  0  0  3  0  0  0  0  0  0
  -16.5300  -29.8020   23.6220 C   0  0  0  0  0  3  0  0  0  0  0  0
  -16.7510  -28.5380   23.0450 C   0  0  0  0  0  3  0  0  0  0  0  0
  -25.8920  -32.5310   23.8260 C   0  0  0  0  0  3  0  0  0  0  0  0
  -25.5830  -33.9240   24.1680 N   0  0  0  0  0  0  0  0  0  0  0  0
  -25.9140  -34.9830   23.4160 C   0  0  0  0  0  0  0  0  0  0  0  0
  -26.5840  -34.8880   22.3830 O   0  0  0  0  0  0  0  0  0  0  0  0
  -24.9880  -34.0720   24.9710 H   0  0  0  0  0  0  0  0  0  0  0  0
  -24.1840  -36.7740   23.0680 C   0  0  0  0  0  1  0  0  0  0  0  0
  -25.4220  -36.3660   23.8820 C   0  0  0  0  0  3  0  0  0  0  0  0
  -27.5560  -37.2420   24.7250 C   0  0  0  0  0  1  0  0  0  0  0  0
  -26.4540  -37.4220   23.7820 N   0  0  0  0  0  0  0  0  0  0  0  0
  -26.0470  -38.3390   23.9430 H   0  0  0  0  0  0  0  0  0  0  0  0
  -26.4250  -31.7490   25.0890 C   0  0  1  0  0  0  0  0  0  0  0  0
  -25.3440  -31.4980   26.1670 C   0  0  0  0  0  1  0  0  0  0  0  0
  -27.0070  -30.3770   24.6750 C   0  0  0  0  0  1  0  0  0  0  0  0
  -27.5820  -32.5400   25.7460 C   0  0  0  0  0  1  0  0  0  0  0  0
  -30.0060  -20.5010   19.0800 C   0  0  0  0  0  2  0  0  0  0  0  0
  -32.2130  -20.4960   22.2280 C   0  0  0  0  0  3  0  0  0  0  0  0
  -32.8610  -19.2520   22.1330 C   0  0  0  0  0  3  0  0  0  0  0  0
  -31.2850  -20.8790   21.2410 C   0  0  0  0  0  3  0  0  0  0  0  0
  -32.5600  -18.3870   21.0670 C   0  0  0  0  0  3  0  0  0  0  0  0
  -30.9960  -20.0310   20.1480 C   0  0  0  0  0  0  0  0  0  0  0  0
  -31.6190  -18.7590   20.0800 C   0  0  0  0  0  0  0  0  0  0  0  0
  -31.2570  -17.7430   19.0050 C   0  0  0  0  0  2  0  0  0  0  0  0
  -29.9050  -17.0330   19.2670 C   0  0  0  0  0  2  0  0  0  0  0  0
  -30.1430  -15.3830   21.2380 C   0  0  0  0  0  3  0  0  0  0  0  0
  -29.7310  -16.5530   20.7080 C   0  0  0  0  0  0  0  0  0  0  0  0
  -30.8230  -14.3900   20.4260 C   0  0  0  0  0  0  0  0  0  0  0  0
  -30.4630  -12.3030   19.1720 C   0  0  0  0  0  2  0  0  0  0  0  0
  -29.5160  -12.5730   17.9850 C   0  0  0  0  0  2  0  0  0  0  0  0
  -28.0400  -12.4560   18.4200 C   0  0  0  0  0  2  0  0  0  0  0  0
  -27.7290  -13.2670   19.7050 C   0  0  0  0  0  3  0  0  0  0  0  0
  -28.7780  -12.9580   20.7950 C   0  0  0  0  0  2  0  0  0  0  0  0
  -30.1160  -13.2450   20.2430 N   0  0  0  0  0  0  0  0  0  0  0  0
  -31.9100  -14.5980   19.8790 O   0  0  0  0  0  0  0  0  0  0  0  0
  -25.3310  -13.9100   20.3950 C   0  0  0  0  0  0  0  0  0  0  0  0
  -24.2550  -13.1510   20.7740 C   0  0  0  0  0  0  0  0  0  0  0  0
  -24.7070  -11.7960   20.7650 C   0  0  0  0  0  0  0  0  0  0  0  0
  -26.3700  -13.0170   20.1810 N   0  0  0  0  0  0  0  0  0  0  0  0
  -25.9950  -11.7420   20.4570 N   0  0  0  0  0  0  0  0  0  0  0  0
  -23.9730  -10.5410   20.9760 C   0  0  0  0  0  0  0  0  0  0  0  0
  -24.4150   -9.5760   21.9080 C   0  0  0  0  0  3  0  0  0  0  0  0
  -23.6830   -8.3850   22.1050 C   0  0  0  0  0  3  0  0  0  0  0  0
  -22.4960   -8.1510   21.3710 C   0  0  0  0  0  0  0  0  0  0  0  0
  -22.0740   -9.1050   20.4290 C   0  0  0  0  0  3  0  0  0  0  0  0
  -22.8050  -10.2870   20.2280 C   0  0  0  0  0  3  0  0  0  0  0  0
  -21.7350   -7.0120   21.4780 O   0  0  0  0  0  0  0  0  0  0  0  0
  -21.7140   -6.2670   22.6290 C   0  0  0  0  0  0  0  0  0  0  0  0
  -21.3420   -6.8270   23.8720 C   0  0  0  0  0  3  0  0  0  0  0  0
  -21.2650   -6.0080   25.0160 C   0  0  0  0  0  3  0  0  0  0  0  0
  -21.5460   -4.6330   24.9210 C   0  0  0  0  0  0  0  0  0  0  0  0
  -21.9120   -4.0730   23.6840 C   0  0  0  0  0  3  0  0  0  0  0  0
  -21.9920   -4.8880   22.5410 C   0  0  0  0  0  0  0  0  0  0  0  0
  -22.3220   -4.3400   21.3470 F   0  0  0  0  0  0  0  0  0  0  0  0
  -21.4650   -3.8450   26.0190 F   0  0  0  0  0  0  0  0  0  0  0  0
  -22.8610  -13.6400   21.0400 C   0  0  0  0  0  0  0  0  0  0  0  0
  -22.1300  -12.9640   21.9210 N   0  0  0  0  0  0  0  0  0  0  0  0
  -22.4260  -14.6570   20.5000 O   0  0  0  0  0  0  0  0  0  0  0  0
  -22.4950  -12.1410   22.3780 H   0  0  0  0  0  0  0  0  0  0  0  0
  -21.1940  -13.2740   22.1390 H   0  0  0  0  0  0  0  0  0  0  0  0
  -25.5060  -15.2760   20.1980 N   0  0  0  0  0  0  0  0  0  0  0  0
  -24.7500  -15.9430   20.3050 H   0  0  0  0  0  0  0  0  0  0  0  0
  -26.3750  -15.7060   19.9050 H   0  0  0  0  0  0  0  0  0  0  0  0
  -29.0520  -17.4620   21.4270 O   0  0  0  0  0  0  0  0  0  0  0  0
  -28.9610  -17.1320   22.3120 H   0  0  0  0  0  0  0  0  0  0  0  0
  1  6  1  0
  1 50  1  0
  2  4  1  0
  3  2  2  0
  5  7  1  0
  6  3  1  0
  6  5  2  0
  7  4  2  0
  7  8  1  0
  9 11  1  0
  9  8  1  0
 10 21  2  0
 11 16  1  0
 12 20  1  0
 12 22  1  0
 13 19  1  0
 13 15  1  0
 14 20  1  0
 15 14  1  0
 16 15  2  0
 17 18  1  0
 17 11  2  0
 18 13  2  0
 19 12  1  0
 20 10  1  0
 22 24  2  0
 23 22  1  0
 25 23  1  0
 26 35  2  0
 26 31  1  0
 27 23  1  0
 27 31  1  0
 28 27  1  0
 29 30  1  0
 29 28  1  0
 30 26  1  0
 31 32  2  0
 32 33  1  0
 34 33  2  0
 35 34  1  0
 36 10  1  0
 36 37  1  0
 36 46  1  0
 37 40  1  0
 38 42  1  0
 38 37  1  0
 39 38  2  0
 42 41  1  0
 44 42  1  0
 44 45  1  0
 44 43  1  0
 46 49  1  1
 46 47  1  0
 48 46  1  0
 50 55  1  0
 52 51  1  0
 53 51  2  0
 54 52  2  0
 55 53  1  0
 56 55  2  0
 56 54  1  0
 57 58  1  0
 57 56  1  0
 58 60  1  0
 60 59  2  0
 60 97  1  0
 61 59  1  0
 62 67  1  0
 63 64  1  0
 63 62  1  0
 65 64  1  0
 65 72  1  0
 65 66  1  0
 67 61  1  0
 67 66  1  0
 68 61  2  0
 69 70  2  0
 70 89  1  0
 71 70  1  0
 71 74  1  0
 72 69  1  0
 72 73  1  0
 73 71  2  0
 74 75  1  0
 75 76  2  0
 77 80  1  0
 77 76  1  0
 78 77  2  0
 79 78  1  0
 79 74  2  0
 80 81  1  0
 81 82  1  0
 82 83  2  0
 84 83  1  0
 84 88  1  0
 85 84  2  0
 86 81  2  0
 86 85  1  0
 87 86  1  0
 89 90  1  0
 90 93  1  0
 90 92  1  0
 91 89  2  0
 94 95  1  0
 94 69  1  0
 96 94  1  0
 97 98  1  0
M  ISO  4   8 101   9 101  59 100  61 100
M  END
>  <TORSDO>  (50) 
F 24

>  <SCORE>  (50) 
-12.969

>  <name>  (50) 
49

>  <ligand_id>  (50) 
49

>  <original_smiles>  (50) 
[H]OC(=C([H])C(=O)N1C([H])([H])C([H])([H])C([H])([H])C([H])(n2nc(-c3c([H])c([H])c(Oc4c([H])c([H])c(F)c([H])c4F)c([H])c3[H])c(C(=O)N([H])[H])c2N([H])[H])C1([H])[H])C([H])([H])C([H])([H])c1c([H])c([H])c([H])c([H])c1C([H])([H])C([H])([H])c1c([H])c([H])c([H])c(C([H])([H])Oc2c([H])c([H])c3c(c2[H])C([H])([H])N(C(=O)C([H])(N([H])C(=O)C([H])(N([H])C([H])([H])[H])C([H])([H])[H])C(C([H])([H])[H])(C([H])([H])[H])C([H])([H])[H])C([H])(C(=O)N([H])C2([H])c4c([H])c([H])c([H])c([H])c4C([H])([H])C([H])([H])C2([H])[H])C3([H])[H])c1[H]

>  <smiles>  (50) 
[H]OC(=C([H])C(=O)N1C([H])([H])C([H])([H])C([H])([H])C([H])(n2nc(-c3c([H])c([H])c(Oc4c([H])c([H])c(F)c([H])c4F)c([H])c3[H])c(C(=O)N([H])[H])c2N([H])[H])C1([H])[H])C([H])([H])C([H])([H])c1c([H])c([H])c([H])c([H])c1C([H])([H])C([H])([H])c1c([H])c([H])c([H])c(C([H])([H])Oc2c([H])c([H])c3c(c2[H])C([H])([H])N(C(=O)C([H])(N([H])C(=O)C([H])(N([H])C([H])([H])[H])C([H])([H])[H])C(C([H])([H])[H])(C([H])([H])[H])C([H])([H])[H])C([H])(C(=O)N([H])C2([H])c4c([H])c([H])c([H])c([H])c4C([H])([H])C([H])([H])C2([H])[H])C3([H])[H])c1[H]

$$$$
50:0:0
     RDKit          3D

 97106  0  0  1  0  0  0  0  0999 V2000
  -29.8240  -21.2460   21.6560 C   0  0  0  0  0  2  0  0  0  0  0  0
  -27.9260  -20.4000   20.1960 C   0  0  0  0  0  2  0  0  0  0  0  0
  -28.8730  -22.4800   21.7040 C   0  0  0  0  0  2  0  0  0  0  0  0
  -27.7670  -21.8230   19.5890 C   0  0  0  0  0  2  0  0  0  0  0  0
  -29.3310  -20.0680   20.7540 C   0  0  0  0  0  3  0  0  0  0  0  0
  -28.4860  -22.9080   20.3300 N   0  0  1  0  0  4  0  0  0  0  0  0
  -29.3590  -23.0290   19.8380 H   0  0  0  0  0  0  0  0  0  0  0  0
  -31.5070  -18.0790   18.2000 C   0  0  0  0  0  3  0  0  0  0  0  0
  -31.9900  -19.1240   17.4000 C   0  0  0  0  0  3  0  0  0  0  0  0
  -30.8060  -20.7030   18.8020 C   0  0  0  0  0  3  0  0  0  0  0  0
  -30.7010  -18.3050   19.3450 C   0  0  0  0  0  0  0  0  0  0  0  0
  -30.3020  -19.6610   19.6260 C   0  0  0  0  0  0  0  0  0  0  0  0
  -31.6670  -20.4510   17.7170 C   0  0  0  0  0  0  0  0  0  0  0  0
  -32.2510  -21.5880   16.8940 C   0  0  0  0  0  1  0  0  0  0  0  0
  -30.2340  -15.8440   19.7630 C   0  0  0  0  0  2  0  0  0  0  0  0
  -30.5900  -17.0850   20.2120 C   0  0  0  0  0  3  0  0  0  0  0  0
  -30.8340  -14.5980   20.2780 C   0  0  0  0  0  0  0  0  0  0  0  0
  -30.4610  -12.4050   19.2530 C   0  0  0  0  0  2  0  0  0  0  0  0
  -29.5370  -12.5840   18.0320 C   0  0  0  0  0  2  0  0  0  0  0  0
  -28.0610  -12.4640   18.4590 C   0  0  0  0  0  2  0  0  0  0  0  0
  -27.7140  -13.3350   19.6970 C   0  0  0  0  0  3  0  0  0  0  0  0
  -28.7770  -13.2110   20.8070 C   0  0  0  0  0  2  0  0  0  0  0  0
  -30.0940  -13.4560   20.2110 N   0  0  0  0  0  0  0  0  0  0  0  0
  -32.0610  -14.5440   20.2300 O   0  0  0  0  0  0  0  0  0  0  0  0
  -25.3250  -13.9380   20.4120 C   0  0  0  0  0  0  0  0  0  0  0  0
  -24.2550  -13.1710   20.7820 C   0  0  0  0  0  0  0  0  0  0  0  0
  -24.7160  -11.8190   20.7750 C   0  0  0  0  0  0  0  0  0  0  0  0
  -26.3690  -13.0550   20.1940 N   0  0  0  0  0  0  0  0  0  0  0  0
  -26.0100  -11.7750   20.4780 N   0  0  0  0  0  0  0  0  0  0  0  0
  -23.9860  -10.5590   20.9770 C   0  0  0  0  0  0  0  0  0  0  0  0
  -24.4130   -9.6000   21.9220 C   0  0  0  0  0  3  0  0  0  0  0  0
  -23.6830   -8.4070   22.1110 C   0  0  0  0  0  3  0  0  0  0  0  0
  -22.5130   -8.1630   21.3540 C   0  0  0  0  0  0  0  0  0  0  0  0
  -22.1050   -9.1110   20.3990 C   0  0  0  0  0  3  0  0  0  0  0  0
  -22.8350  -10.2960   20.2080 C   0  0  0  0  0  3  0  0  0  0  0  0
  -21.7550   -7.0220   21.4510 O   0  0  0  0  0  0  0  0  0  0  0  0
  -21.7080   -6.2860   22.6090 C   0  0  0  0  0  0  0  0  0  0  0  0
  -21.2960   -6.8510   23.8350 C   0  0  0  0  0  3  0  0  0  0  0  0
  -21.1960   -6.0430   24.9850 C   0  0  0  0  0  3  0  0  0  0  0  0
  -21.4940   -4.6680   24.9080 C   0  0  0  0  0  0  0  0  0  0  0  0
  -21.8980   -4.1030   23.6880 C   0  0  0  0  0  3  0  0  0  0  0  0
  -22.0010   -4.9090   22.5400 C   0  0  0  0  0  0  0  0  0  0  0  0
  -22.3710   -4.3540   21.3600 F   0  0  0  0  0  0  0  0  0  0  0  0
  -21.3910   -3.8900   26.0110 F   0  0  0  0  0  0  0  0  0  0  0  0
  -22.8550  -13.6540   21.0320 C   0  0  0  0  0  0  0  0  0  0  0  0
  -22.1140  -12.9720   21.8970 N   0  0  0  0  0  0  0  0  0  0  0  0
  -22.4270  -14.6760   20.4960 O   0  0  0  0  0  0  0  0  0  0  0  0
  -22.4710  -12.1470   22.3560 H   0  0  0  0  0  0  0  0  0  0  0  0
  -21.1760  -13.2830   22.1060 H   0  0  0  0  0  0  0  0  0  0  0  0
  -25.4910  -15.3060   20.2170 N   0  0  0  0  0  0  0  0  0  0  0  0
  -24.7270  -15.9650   20.3160 H   0  0  0  0  0  0  0  0  0  0  0  0
  -26.3560  -15.7410   19.9190 H   0  0  0  0  0  0  0  0  0  0  0  0
  -31.1420  -17.2770   21.4180 O   0  0  0  0  0  0  0  0  0  0  0  0
  -31.4270  -18.1820   21.4480 H   0  0  0  0  0  0  0  0  0  0  0  0
  -27.7990  -24.2420   20.2040 C   0  0  0  0  0  2  0  0  0  0  0  0
  -28.5840  -25.4720   20.7530 C   0  0  0  0  0  2  0  0  0  0  0  0
  -28.4190  -26.7340   20.0620 O   0  0  0  0  0  0  0  0  0  0  0  0
  -24.5930  -31.8870   23.2320 C   0  0  0  0  0  0  0  0  0  0  0  0
  -27.2310  -27.4280   20.1600 C   0  0  0  0  0  0  0  0  0  0  0  0
  -23.3860  -30.4890   21.5910 C   0  0  0  0  0  3  0  0  0  0  0  0
  -24.8360  -28.9450   20.1700 C   0  0  0  0  0  0  0  0  0  0  0  0
  -25.9140  -30.8440   21.3880 C   0  0  0  0  0  2  0  0  0  0  0  0
  -25.9970  -29.4690   20.7510 C   0  0  0  0  0  0  0  0  0  0  0  0
  -27.1980  -28.7220   20.7360 C   0  0  0  0  0  3  0  0  0  0  0  0
  -26.0510  -26.9210   19.5750 C   0  0  0  0  0  3  0  0  0  0  0  0
  -24.8590  -27.6680   19.5840 C   0  0  0  0  0  3  0  0  0  0  0  0
  -23.5930  -29.8060   20.2140 C   0  0  0  0  0  2  0  0  0  0  0  0
  -24.6500  -31.0890   22.1290 N   0  0  0  0  0  0  0  0  0  0  0  0
  -23.5120  -32.1550   23.7770 O   0  0  0  0  0  0  0  0  0  0  0  0
  -22.7360  -29.4640   22.5530 C   0  0  0  0  0  0  0  0  0  0  0  0
  -21.4090  -29.2860   22.4300 N   0  0  0  0  0  0  0  0  0  0  0  0
  -23.4210  -28.8330   23.3600 O   0  0  0  0  0  0  0  0  0  0  0  0
  -20.9160  -29.8520   21.7540 H   0  0  0  0  0  0  0  0  0  0  0  0
  -18.0330  -28.0930   22.9220 C   0  0  0  0  0  0  0  0  0  0  0  0
  -20.5900  -28.3440   23.1950 C   0  0  0  0  0  3  0  0  0  0  0  0
  -20.6910  -26.9150   22.6140 C   0  0  0  0  0  2  0  0  0  0  0  0
  -19.5860  -26.5960   21.6000 C   0  0  0  0  0  2  0  0  0  0  0  0
  -18.2050  -26.7430   22.2420 C   0  0  0  0  0  2  0  0  0  0  0  0
  -19.1520  -28.8490   23.3540 C   0  0  0  0  0  0  0  0  0  0  0  0
  -18.9360  -30.1120   23.9480 C   0  0  0  0  0  3  0  0  0  0  0  0
  -17.6340  -30.6170   24.1140 C   0  0  0  0  0  3  0  0  0  0  0  0
  -16.5270  -29.8530   23.7040 C   0  0  0  0  0  3  0  0  0  0  0  0
  -16.7270  -28.5930   23.1140 C   0  0  0  0  0  3  0  0  0  0  0  0
  -25.8780  -32.5170   23.8530 C   0  0  0  0  0  3  0  0  0  0  0  0
  -25.5720  -33.9160   24.1850 N   0  0  0  0  0  0  0  0  0  0  0  0
  -25.9040  -34.9680   23.4250 C   0  0  0  0  0  0  0  0  0  0  0  0
  -26.5740  -34.8640   22.3940 O   0  0  0  0  0  0  0  0  0  0  0  0
  -24.9830  -34.0730   24.9890 H   0  0  0  0  0  0  0  0  0  0  0  0
  -24.1780  -36.7640   23.0670 C   0  0  0  0  0  1  0  0  0  0  0  0
  -25.4160  -36.3570   23.8810 C   0  0  0  0  0  3  0  0  0  0  0  0
  -27.5510  -37.2370   24.7140 C   0  0  0  0  0  1  0  0  0  0  0  0
  -26.4500  -37.4080   23.7710 N   0  0  0  0  0  0  0  0  0  0  0  0
  -26.0440  -38.3290   23.9190 H   0  0  0  0  0  0  0  0  0  0  0  0
  -26.3980  -31.7430   25.1260 C   0  0  1  0  0  0  0  0  0  0  0  0
  -25.3080  -31.4990   26.1960 C   0  0  0  0  0  1  0  0  0  0  0  0
  -26.9830  -30.3670   24.7300 C   0  0  0  0  0  1  0  0  0  0  0  0
  -27.5530  -32.5350   25.7850 C   0  0  0  0  0  1  0  0  0  0  0  0
  1  3  1  0
  2  5  1  0
  4  2  1  0
  4  6  1  0
  5 12  1  0
  5  1  1  0
  6  3  1  0
  6  7  1  6
  8 11  1  0
  9 13  1  0
  9  8  2  0
 10 12  1  0
 11 12  2  0
 11 16  1  0
 13 10  2  0
 14 13  1  0
 15 17  1  0
 16 15  1  0
 16 53  1  0
 18 23  1  0
 19 20  1  0
 19 18  1  0
 21 20  1  0
 21 28  1  0
 21 22  1  0
 23 17  1  0
 23 22  1  0
 24 17  2  0
 25 26  2  0
 26 45  1  0
 27 26  1  0
 27 30  1  0
 28 25  1  0
 28 29  1  0
 29 27  2  0
 30 31  1  0
 31 32  2  0
 33 36  1  0
 33 32  1  0
 34 33  2  0
 35 34  1  0
 35 30  2  0
 36 37  1  0
 37 38  1  0
 38 39  2  0
 40 39  1  0
 40 44  1  0
 41 40  2  0
 42 37  2  0
 42 41  1  0
 43 42  1  0
 45 46  1  0
 46 49  1  0
 46 48  1  0
 47 45  2  0
 50 51  1  0
 50 25  1  0
 52 50  1  0
 53 54  1  0
 55  6  1  0
 55 56  1  0
 57 59  1  0
 57 56  1  0
 58 69  2  0
 59 64  1  0
 60 68  1  0
 60 70  1  0
 61 67  1  0
 61 63  1  0
 62 68  1  0
 63 62  1  0
 64 63  2  0
 65 66  1  0
 65 59  2  0
 66 61  2  0
 67 60  1  0
 68 58  1  0
 70 72  2  0
 71 70  1  0
 73 71  1  0
 74 83  2  0
 74 79  1  0
 75 71  1  0
 75 79  1  0
 76 75  1  0
 77 78  1  0
 77 76  1  0
 78 74  1  0
 79 80  2  0
 80 81  1  0
 82 81  2  0
 83 82  1  0
 84 58  1  0
 84 85  1  0
 84 94  1  0
 85 88  1  0
 86 90  1  0
 86 85  1  0
 87 86  2  0
 90 89  1  0
 92 90  1  0
 92 93  1  0
 92 91  1  0
 94 97  1  1
 94 95  1  0
 96 94  1  0
M  ISO  4  15 100  17 100  56 101  57 101
M  END
>  <TORSDO>  (51) 
F 21

>  <SCORE>  (51) 
-14.006

>  <name>  (51) 
50

>  <ligand_id>  (51) 
50

>  <original_smiles>  (51) 
[H]OC(=C([H])C(=O)N1C([H])([H])C([H])([H])C([H])([H])C([H])(n2nc(-c3c([H])c([H])c(Oc4c([H])c([H])c(F)c([H])c4F)c([H])c3[H])c(C(=O)N([H])[H])c2N([H])[H])C1([H])[H])c1c([H])c([H])c(C([H])([H])[H])c([H])c1C1([H])C([H])([H])C([H])([H])[N+]([H])(C([H])([H])C([H])([H])Oc2c([H])c([H])c3c(c2[H])C([H])([H])N(C(=O)C([H])(N([H])C(=O)C([H])(N([H])C([H])([H])[H])C([H])([H])[H])C(C([H])([H])[H])(C([H])([H])[H])C([H])([H])[H])C([H])(C(=O)N([H])C2([H])c4c([H])c([H])c([H])c([H])c4C([H])([H])C([H])([H])C2([H])[H])C3([H])[H])C([H])([H])C1([H])[H]

>  <smiles>  (51) 
[H]OC(=C([H])C(=O)N1C([H])([H])C([H])([H])C([H])([H])C([H])(n2nc(-c3c([H])c([H])c(Oc4c([H])c([H])c(F)c([H])c4F)c([H])c3[H])c(C(=O)N([H])[H])c2N([H])[H])C1([H])[H])c1c([H])c([H])c(C([H])([H])[H])c([H])c1C1([H])C([H])([H])C([H])([H])[N+]([H])(C([H])([H])C([H])([H])Oc2c([H])c([H])c3c(c2[H])C([H])([H])N(C(=O)C([H])(N([H])C(=O)C([H])(N([H])C([H])([H])[H])C([H])([H])[H])C(C([H])([H])[H])(C([H])([H])[H])C([H])([H])[H])C([H])(C(=O)N([H])C2([H])c4c([H])c([H])c([H])c([H])c4C([H])([H])C([H])([H])C2([H])[H])C3([H])[H])C([H])([H])C1([H])[H]

$$$$
51:0:0
     RDKit          3D

 93101  0  0  1  0  0  0  0  0999 V2000
  -29.5430  -21.7330   23.8510 C   0  0  0  0  0  1  0  0  0  0  0  0
  -29.9310  -21.8570   22.3720 C   0  0  0  0  0  3  0  0  0  0  0  0
  -27.9370  -19.3420   20.2670 C   0  0  0  0  0  3  0  0  0  0  0  0
  -28.8310  -18.2580   20.2080 C   0  0  0  0  0  3  0  0  0  0  0  0
  -28.2910  -20.5100   20.9630 C   0  0  0  0  0  3  0  0  0  0  0  0
  -30.4380  -19.5030   21.5370 C   0  0  0  0  0  3  0  0  0  0  0  0
  -30.0970  -18.3230   20.8340 C   0  0  0  0  0  0  0  0  0  0  0  0
  -29.5460  -20.5980   21.6040 C   0  0  0  0  0  0  0  0  0  0  0  0
  -30.7070  -15.9180   21.0910 C   0  0  0  0  0  3  0  0  0  0  0  0
  -31.0360  -17.1830   20.7260 C   0  0  0  0  0  0  0  0  0  0  0  0
  -31.5490  -14.7350   20.8740 C   0  0  0  0  0  0  0  0  0  0  0  0
  -31.4160  -12.3370   20.3150 C   0  0  0  0  0  2  0  0  0  0  0  0
  -30.6430  -12.1920   18.9840 C   0  0  0  0  0  2  0  0  0  0  0  0
  -29.1190  -12.1450   19.2190 C   0  0  0  0  0  2  0  0  0  0  0  0
  -28.6270  -13.2740   20.1670 C   0  0  0  0  0  3  0  0  0  0  0  0
  -29.5120  -13.3180   21.4320 C   0  0  0  0  0  2  0  0  0  0  0  0
  -30.9060  -13.5370   20.9970 N   0  0  0  0  0  0  0  0  0  0  0  0
  -32.7270  -14.7940   20.5020 O   0  0  0  0  0  0  0  0  0  0  0  0
  -26.2220  -14.0770   20.6180 C   0  0  0  0  0  0  0  0  0  0  0  0
  -25.0660  -13.3930   20.8850 C   0  0  0  0  0  0  0  0  0  0  0  0
  -25.4200  -12.0100   20.8890 C   0  0  0  0  0  0  0  0  0  0  0  0
  -27.2130  -13.1150   20.4970 N   0  0  0  0  0  0  0  0  0  0  0  0
  -26.7260  -11.8660   20.7100 N   0  0  0  0  0  0  0  0  0  0  0  0
  -24.5810  -10.8110   21.0010 C   0  0  0  0  0  0  0  0  0  0  0  0
  -24.8700   -9.7930   21.9350 C   0  0  0  0  0  3  0  0  0  0  0  0
  -24.0380   -8.6580   22.0380 C   0  0  0  0  0  3  0  0  0  0  0  0
  -22.9010   -8.5340   21.2050 C   0  0  0  0  0  0  0  0  0  0  0  0
  -22.6320   -9.5390   20.2570 C   0  0  0  0  0  3  0  0  0  0  0  0
  -23.4660  -10.6650   20.1520 C   0  0  0  0  0  3  0  0  0  0  0  0
  -22.0520   -7.4540   21.2140 O   0  0  0  0  0  0  0  0  0  0  0  0
  -21.8420   -6.7140   22.3490 C   0  0  0  0  0  0  0  0  0  0  0  0
  -21.4060   -7.3050   23.5550 C   0  0  0  0  0  3  0  0  0  0  0  0
  -21.1330   -6.4990   24.6780 C   0  0  0  0  0  3  0  0  0  0  0  0
  -21.2910   -5.1010   24.5950 C   0  0  0  0  0  0  0  0  0  0  0  0
  -21.7230   -4.5100   23.3950 C   0  0  0  0  0  3  0  0  0  0  0  0
  -21.9940   -5.3150   22.2740 C   0  0  0  0  0  0  0  0  0  0  0  0
  -22.3880   -4.7390   21.1140 F   0  0  0  0  0  0  0  0  0  0  0  0
  -21.0230   -4.3240   25.6710 F   0  0  0  0  0  0  0  0  0  0  0  0
  -23.6910  -13.9800   21.0270 C   0  0  0  0  0  0  0  0  0  0  0  0
  -22.8380  -13.3530   21.8310 N   0  0  0  0  0  0  0  0  0  0  0  0
  -23.3820  -15.0270   20.4620 O   0  0  0  0  0  0  0  0  0  0  0  0
  -23.1000  -12.5060   22.3150 H   0  0  0  0  0  0  0  0  0  0  0  0
  -21.9070  -13.7240   21.9600 H   0  0  0  0  0  0  0  0  0  0  0  0
  -26.5010  -15.4290   20.4480 N   0  0  0  0  0  0  0  0  0  0  0  0
  -25.7730  -16.1340   20.4920 H   0  0  0  0  0  0  0  0  0  0  0  0
  -27.3950  -15.8030   20.1550 H   0  0  0  0  0  0  0  0  0  0  0  0
  -32.2060  -17.5050   20.1530 O   0  0  0  0  0  0  0  0  0  0  0  0
  -32.1660  -18.4240   19.9210 H   0  0  0  0  0  0  0  0  0  0  0  0
  -29.9850  -24.0600   21.0970 C   0  0  0  0  0  3  0  0  0  0  0  0
  -29.3160  -23.1070   21.7690 C   0  0  0  0  0  3  0  0  0  0  0  0
  -29.3050  -25.2780   20.4960 C   0  0  0  0  0  2  0  0  0  0  0  0
  -30.2480  -26.4720   20.2340 C   0  0  0  0  0  2  0  0  0  0  0  0
  -29.8050  -27.6730   20.8630 O   0  0  0  0  0  0  0  0  0  0  0  0
  -24.7370  -31.8990   23.4330 C   0  0  0  0  0  0  0  0  0  0  0  0
  -28.5160  -28.1230   20.6750 C   0  0  0  0  0  0  0  0  0  0  0  0
  -24.0240  -30.3840   21.6110 C   0  0  0  0  0  3  0  0  0  0  0  0
  -25.9050  -29.1720   20.3870 C   0  0  0  0  0  0  0  0  0  0  0  0
  -26.4510  -31.1750   21.7800 C   0  0  0  0  0  2  0  0  0  0  0  0
  -26.8590  -29.8670   21.1390 C   0  0  0  0  0  0  0  0  0  0  0  0
  -28.1630  -29.3470   21.2830 C   0  0  0  0  0  3  0  0  0  0  0  0
  -27.5410  -27.4350   19.9150 C   0  0  0  0  0  3  0  0  0  0  0  0
  -26.2400  -27.9520   19.7750 C   0  0  0  0  0  3  0  0  0  0  0  0
  -24.5370  -29.8030   20.2660 C   0  0  0  0  0  2  0  0  0  0  0  0
  -25.0770  -31.1660   22.3350 N   0  0  0  0  0  0  0  0  0  0  0  0
  -23.5630  -31.9620   23.8180 O   0  0  0  0  0  0  0  0  0  0  0  0
  -23.4330  -29.2300   22.4550 C   0  0  0  0  0  0  0  0  0  0  0  0
  -22.1800  -28.8520   22.1560 N   0  0  0  0  0  0  0  0  0  0  0  0
  -24.1040  -28.6790   23.3320 O   0  0  0  0  0  0  0  0  0  0  0  0
  -21.6890  -29.3560   21.4320 H   0  0  0  0  0  0  0  0  0  0  0  0
  -19.0010  -27.1470   22.2020 C   0  0  0  0  0  0  0  0  0  0  0  0
  -21.4410  -27.7590   22.7860 C   0  0  0  0  0  3  0  0  0  0  0  0
  -21.8230  -26.3990   22.1580 C   0  0  0  0  0  2  0  0  0  0  0  0
  -20.9010  -25.9890   21.0040 C   0  0  0  0  0  2  0  0  0  0  0  0
  -19.4520  -25.8840   21.4890 C   0  0  0  0  0  2  0  0  0  0  0  0
  -19.9350  -28.0360   22.7940 C   0  0  0  0  0  0  0  0  0  0  0  0
  -19.4660  -29.2190   23.4040 C   0  0  0  0  0  3  0  0  0  0  0  0
  -18.0920  -29.5160   23.4360 C   0  0  0  0  0  3  0  0  0  0  0  0
  -17.1680  -28.6240   22.8610 C   0  0  0  0  0  3  0  0  0  0  0  0
  -17.6220  -27.4420   22.2510 C   0  0  0  0  0  3  0  0  0  0  0  0
  -25.8020  -32.7090   24.2400 C   0  0  0  0  0  3  0  0  0  0  0  0
  -25.2790  -34.0700   24.4090 N   0  0  0  0  0  0  0  0  0  0  0  0
  -25.6240  -35.1150   23.6450 C   0  0  0  0  0  0  0  0  0  0  0  0
  -26.4800  -35.0410   22.7580 O   0  0  0  0  0  0  0  0  0  0  0  0
  -24.5320  -34.1910   25.0760 H   0  0  0  0  0  0  0  0  0  0  0  0
  -23.7960  -36.6560   22.8620 C   0  0  0  0  0  1  0  0  0  0  0  0
  -24.9070  -36.4530   23.9050 C   0  0  0  0  0  3  0  0  0  0  0  0
  -26.7550  -37.6290   25.0150 C   0  0  0  0  0  1  0  0  0  0  0  0
  -25.8160  -37.6200   23.8950 N   0  0  0  0  0  0  0  0  0  0  0  0
  -25.2880  -38.4890   23.9150 H   0  0  0  0  0  0  0  0  0  0  0  0
  -26.1440  -32.0620   25.6390 C   0  0  1  0  0  0  0  0  0  0  0  0
  -24.8980  -31.7130   26.4850 C   0  0  0  0  0  1  0  0  0  0  0  0
  -26.9670  -30.7650   25.4530 C   0  0  0  0  0  1  0  0  0  0  0  0
  -27.0210  -33.0300   26.4660 C   0  0  0  0  0  1  0  0  0  0  0  0
  2  1  1  0
  3  5  1  0
  4  3  2  0
  4  7  1  0
  5  8  2  0
  6  8  1  0
  7  6  2  0
  8  2  1  0
 10  7  1  0
 10  9  2  0
 11 17  1  0
 11  9  1  0
 12 17  1  0
 13 14  1  0
 13 12  1  0
 15 14  1  0
 15 22  1  0
 15 16  1  0
 17 16  1  0
 18 11  2  0
 19 20  2  0
 20 21  1  0
 20 39  1  0
 21 24  1  0
 22 19  1  0
 22 23  1  0
 23 21  2  0
 24 25  1  0
 25 26  2  0
 27 30  1  0
 27 26  1  0
 28 27  2  0
 29 28  1  0
 29 24  2  0
 30 31  1  0
 31 32  1  0
 32 33  2  0
 34 33  1  0
 34 38  1  0
 35 34  2  0
 36 31  2  0
 36 35  1  0
 37 36  1  0
 39 40  1  0
 40 43  1  0
 40 42  1  0
 41 39  2  0
 44 45  1  0
 44 19  1  0
 46 44  1  0
 47 10  1  0
 48 47  1  0
 49 50  2  0
 50  2  1  0
 51 49  1  0
 52 51  1  0
 52 53  1  0
 54 65  2  0
 55 53  1  0
 55 60  1  0
 56 64  1  0
 56 66  1  0
 57 59  1  0
 58 64  1  0
 59 60  2  0
 59 58  1  0
 61 55  2  0
 62 61  1  0
 62 57  2  0
 63 57  1  0
 63 56  1  0
 64 54  1  0
 66 68  2  0
 67 66  1  0
 69 67  1  0
 70 79  2  0
 70 75  1  0
 71 67  1  0
 71 75  1  0
 72 71  1  0
 73 74  1  0
 73 72  1  0
 74 70  1  0
 75 76  2  0
 76 77  1  0
 78 77  2  0
 79 78  1  0
 80 54  1  0
 80 81  1  0
 80 90  1  0
 81 84  1  0
 82 86  1  0
 82 81  1  0
 83 82  2  0
 86 85  1  0
 88 86  1  0
 88 89  1  0
 88 87  1  0
 90 93  1  1
 90 91  1  0
 92 90  1  0
M  ISO  4   9 100  11 100  52 101  53 101
M  END
>  <TORSDO>  (52) 
F 22

>  <SCORE>  (52) 
-10.572

>  <name>  (52) 
51

>  <ligand_id>  (52) 
51

>  <original_smiles>  (52) 
[H]OC(=C([H])C(=O)N1C([H])([H])C([H])([H])C([H])([H])C([H])(n2nc(-c3c([H])c([H])c(Oc4c([H])c([H])c(F)c([H])c4F)c([H])c3[H])c(C(=O)N([H])[H])c2N([H])[H])C1([H])[H])c1c([H])c([H])c([H])c(C([H])(C([H])=C([H])C([H])([H])C([H])([H])Oc2c([H])c([H])c3c(c2[H])C([H])([H])N(C(=O)C([H])(N([H])C(=O)C([H])(N([H])C([H])([H])[H])C([H])([H])[H])C(C([H])([H])[H])(C([H])([H])[H])C([H])([H])[H])C([H])(C(=O)N([H])C2([H])c4c([H])c([H])c([H])c([H])c4C([H])([H])C([H])([H])C2([H])[H])C3([H])[H])C([H])([H])[H])c1[H]

>  <smiles>  (52) 
[H]OC(=C([H])C(=O)N1C([H])([H])C([H])([H])C([H])([H])C([H])(n2nc(-c3c([H])c([H])c(Oc4c([H])c([H])c(F)c([H])c4F)c([H])c3[H])c(C(=O)N([H])[H])c2N([H])[H])C1([H])[H])c1c([H])c([H])c([H])c(C([H])(C([H])=C([H])C([H])([H])C([H])([H])Oc2c([H])c([H])c3c(c2[H])C([H])([H])N(C(=O)C([H])(N([H])C(=O)C([H])(N([H])C([H])([H])[H])C([H])([H])[H])C(C([H])([H])[H])(C([H])([H])[H])C([H])([H])[H])C([H])(C(=O)N([H])C2([H])c4c([H])c([H])c([H])c([H])c4C([H])([H])C([H])([H])C2([H])[H])C3([H])[H])C([H])([H])[H])c1[H]

$$$$
52:0:0
     RDKit          3D

100109  0  0  1  0  0  0  0  0999 V2000
  -31.7110  -19.8750   20.1910 C   0  0  0  0  0  3  0  0  0  0  0  0
  -32.1500  -20.9410   19.3830 C   0  0  0  0  0  3  0  0  0  0  0  0
  -29.4730  -20.1190   19.2710 C   0  0  0  0  0  3  0  0  0  0  0  0
  -30.3670  -19.4470   20.1310 C   0  0  0  0  0  0  0  0  0  0  0  0
  -31.2610  -21.5920   18.5020 C   0  0  0  0  0  0  0  0  0  0  0  0
  -29.9010  -21.1910   18.4530 C   0  0  0  0  0  0  0  0  0  0  0  0
  -31.8080  -22.6940   17.6080 C   0  0  0  0  0  1  0  0  0  0  0  0
  -28.8970  -21.8480   17.5010 C   0  0  0  0  0  2  0  0  0  0  0  0
  -25.2220  -21.5270   18.5180 C   0  0  0  0  0  3  0  0  0  0  0  0
  -25.0080  -22.7010   19.2570 C   0  0  0  0  0  3  0  0  0  0  0  0
  -26.4860  -21.2780   17.9590 C   0  0  0  0  0  3  0  0  0  0  0  0
  -26.0580  -23.6200   19.4350 C   0  0  0  0  0  3  0  0  0  0  0  0
  -27.5540  -22.1840   18.1480 C   0  0  0  0  0  0  0  0  0  0  0  0
  -27.3460  -23.3770   18.8970 C   0  0  0  0  0  0  0  0  0  0  0  0
  -28.4820  -24.4010   19.0540 C   0  0  0  0  0  2  0  0  0  0  0  0
  -28.4530  -25.3420   20.2830 C   0  0  0  0  0  2  0  0  0  0  0  0
  -28.5300  -26.7210   19.9120 O   0  0  0  0  0  0  0  0  0  0  0  0
  -24.5620  -31.6720   23.0900 C   0  0  0  0  0  0  0  0  0  0  0  0
  -27.3380  -27.4050   19.9080 C   0  0  0  0  0  0  0  0  0  0  0  0
  -23.4060  -30.3080   21.3790 C   0  0  0  0  0  3  0  0  0  0  0  0
  -24.9100  -28.8460   19.9320 C   0  0  0  0  0  0  0  0  0  0  0  0
  -25.9250  -30.7240   21.2340 C   0  0  0  0  0  2  0  0  0  0  0  0
  -26.0470  -29.3780   20.5520 C   0  0  0  0  0  0  0  0  0  0  0  0
  -27.2650  -28.6670   20.5350 C   0  0  0  0  0  3  0  0  0  0  0  0
  -26.1870  -26.8850   19.2770 C   0  0  0  0  0  3  0  0  0  0  0  0
  -24.9730  -27.5960   19.2930 C   0  0  0  0  0  3  0  0  0  0  0  0
  -23.6490  -29.6780   19.9820 C   0  0  0  0  0  2  0  0  0  0  0  0
  -24.6480  -30.9140   21.9610 N   0  0  0  0  0  0  0  0  0  0  0  0
  -23.4690  -31.9050   23.6220 O   0  0  0  0  0  0  0  0  0  0  0  0
  -22.7600  -29.2420   22.2930 C   0  0  0  0  0  0  0  0  0  0  0  0
  -21.4340  -29.0720   22.1650 N   0  0  0  0  0  0  0  0  0  0  0  0
  -23.4460  -28.5740   23.0710 O   0  0  0  0  0  0  0  0  0  0  0  0
  -20.9410  -29.6630   21.5100 H   0  0  0  0  0  0  0  0  0  0  0  0
  -18.0520  -27.9050   22.6600 C   0  0  0  0  0  0  0  0  0  0  0  0
  -20.6180  -28.1010   22.8940 C   0  0  0  0  0  3  0  0  0  0  0  0
  -20.6840  -26.7070   22.2280 C   0  0  0  0  0  2  0  0  0  0  0  0
  -19.5550  -26.4670   21.2200 C   0  0  0  0  0  2  0  0  0  0  0  0
  -18.1900  -26.5950   21.9000 C   0  0  0  0  0  2  0  0  0  0  0  0
  -19.1920  -28.6190   23.1130 C   0  0  0  0  0  0  0  0  0  0  0  0
  -19.0090  -29.8480   23.7840 C   0  0  0  0  0  3  0  0  0  0  0  0
  -17.7190  -30.3620   24.0060 C   0  0  0  0  0  3  0  0  0  0  0  0
  -16.5920  -29.6420   23.5700 C   0  0  0  0  0  3  0  0  0  0  0  0
  -16.7590  -28.4160   22.9020 C   0  0  0  0  0  3  0  0  0  0  0  0
  -25.8280  -32.3010   23.7520 C   0  0  0  0  0  3  0  0  0  0  0  0
  -26.3310  -31.5030   25.0160 C   0  0  1  0  0  0  0  0  0  0  0  0
  -25.2220  -31.2280   26.0600 C   0  0  0  0  0  1  0  0  0  0  0  0
  -26.9330  -30.1410   24.5980 C   0  0  0  0  0  1  0  0  0  0  0  0
  -27.4630  -32.2890   25.7180 C   0  0  0  0  0  1  0  0  0  0  0  0
  -25.4970  -33.6870   24.1090 N   0  0  0  0  0  0  0  0  0  0  0  0
  -25.8230  -34.7590   23.3740 C   0  0  0  0  0  0  0  0  0  0  0  0
  -26.5060  -34.6860   22.3490 O   0  0  0  0  0  0  0  0  0  0  0  0
  -24.8910  -33.8170   24.9050 H   0  0  0  0  0  0  0  0  0  0  0  0
  -24.0630  -36.5250   23.0440 C   0  0  0  0  0  1  0  0  0  0  0  0
  -25.3090  -36.1300   23.8530 C   0  0  0  0  0  3  0  0  0  0  0  0
  -27.4260  -37.0380   24.7020 C   0  0  0  0  0  1  0  0  0  0  0  0
  -26.3220  -37.2030   23.7590 N   0  0  0  0  0  0  0  0  0  0  0  0
  -25.9000  -38.1140   23.9220 H   0  0  0  0  0  0  0  0  0  0  0  0
  -29.8920  -18.2420   20.9430 C   0  0  0  0  0  3  0  0  0  0  0  0
  -29.9360  -18.5450   22.3810 N   0  0  0  0  0  4  0  0  0  0  0  0
  -30.8770  -18.7060   22.6890 H   0  0  0  0  0  0  0  0  0  0  0  0
  -29.5410  -17.7950   22.9190 H   0  0  0  0  0  0  0  0  0  0  0  0
  -29.4000  -19.3750   22.5630 H   0  0  0  0  0  0  0  0  0  0  0  0
  -30.6980  -16.9750   20.5790 C   0  0  0  0  0  2  0  0  0  0  0  0
  -30.0610  -15.6270   21.0050 C   0  0  0  0  0  2  0  0  0  0  0  0
  -30.6370  -14.4470   20.1970 C   0  0  0  0  0  0  0  0  0  0  0  0
  -30.2520  -12.3170   19.0170 C   0  0  0  0  0  2  0  0  0  0  0  0
  -29.2530  -12.5390   17.8640 C   0  0  0  0  0  2  0  0  0  0  0  0
  -27.8030  -12.3990   18.3660 C   0  0  0  0  0  2  0  0  0  0  0  0
  -27.5310  -13.2290   19.6500 C   0  0  0  0  0  3  0  0  0  0  0  0
  -28.6410  -13.0010   20.7030 C   0  0  0  0  0  2  0  0  0  0  0  0
  -29.9380  -13.2900   20.0730 N   0  0  0  0  0  0  0  0  0  0  0  0
  -31.7030  -14.6310   19.6030 O   0  0  0  0  0  0  0  0  0  0  0  0
  -25.1770  -13.8320   20.5040 C   0  0  0  0  0  0  0  0  0  0  0  0
  -24.1250  -13.0550   20.9080 C   0  0  0  0  0  0  0  0  0  0  0  0
  -24.5720  -11.7030   20.8120 C   0  0  0  0  0  0  0  0  0  0  0  0
  -26.2020  -12.9510   20.1930 N   0  0  0  0  0  0  0  0  0  0  0  0
  -25.8430  -11.6640   20.4330 N   0  0  0  0  0  0  0  0  0  0  0  0
  -23.8470  -10.4400   21.0040 C   0  0  0  0  0  0  0  0  0  0  0  0
  -24.3270   -9.4400   21.8790 C   0  0  0  0  0  3  0  0  0  0  0  0
  -23.6040   -8.2420   22.0610 C   0  0  0  0  0  3  0  0  0  0  0  0
  -22.3860   -8.0360   21.3690 C   0  0  0  0  0  0  0  0  0  0  0  0
  -21.9250   -9.0240   20.4830 C   0  0  0  0  0  3  0  0  0  0  0  0
  -22.6480  -10.2140   20.2980 C   0  0  0  0  0  3  0  0  0  0  0  0
  -21.6290   -6.8920   21.4650 O   0  0  0  0  0  0  0  0  0  0  0  0
  -21.6500   -6.1070   22.5900 C   0  0  0  0  0  0  0  0  0  0  0  0
  -21.3220   -6.6210   23.8650 C   0  0  0  0  0  3  0  0  0  0  0  0
  -21.2890   -5.7640   24.9810 C   0  0  0  0  0  3  0  0  0  0  0  0
  -21.5710   -4.3940   24.8270 C   0  0  0  0  0  0  0  0  0  0  0  0
  -21.8900   -3.8780   23.5580 C   0  0  0  0  0  3  0  0  0  0  0  0
  -21.9260   -4.7330   22.4430 C   0  0  0  0  0  0  0  0  0  0  0  0
  -22.2140   -4.2280   21.2190 F   0  0  0  0  0  0  0  0  0  0  0  0
  -21.5300   -3.5680   25.8980 F   0  0  0  0  0  0  0  0  0  0  0  0
  -22.7480  -13.5330   21.2700 C   0  0  0  0  0  0  0  0  0  0  0  0
  -22.0660  -12.8210   22.1610 N   0  0  0  0  0  0  0  0  0  0  0  0
  -22.2860  -14.5710   20.7990 O   0  0  0  0  0  0  0  0  0  0  0  0
  -22.4530  -11.9800   22.5650 H   0  0  0  0  0  0  0  0  0  0  0  0
  -21.1440  -13.1220   22.4440 H   0  0  0  0  0  0  0  0  0  0  0  0
  -25.3440  -15.2060   20.3540 N   0  0  0  0  0  0  0  0  0  0  0  0
  -24.5860  -15.8610   20.5140 H   0  0  0  0  0  0  0  0  0  0  0  0
  -26.1760  -15.6450   19.9820 H   0  0  0  0  0  0  0  0  0  0  0  0
  2  1  2  0
  3  4  2  0
  4  1  1  0
  4 58  1  0
  5  2  1  0
  6  5  2  0
  6  3  1  0
  7  5  1  0
  8 13  1  0
  8  6  1  0
  9 10  1  0
 10 12  2  0
 11 13  1  0
 11  9  2  0
 13 14  2  0
 14 15  1  0
 14 12  1  0
 15 16  1  0
 17 16  1  0
 18 29  2  0
 19 17  1  0
 19 24  1  0
 20 28  1  0
 20 30  1  0
 21 27  1  0
 21 23  1  0
 22 28  1  0
 23 22  1  0
 24 23  2  0
 25 26  1  0
 25 19  2  0
 26 21  2  0
 27 20  1  0
 28 18  1  0
 30 32  2  0
 31 30  1  0
 33 31  1  0
 34 43  2  0
 34 39  1  0
 35 31  1  0
 35 39  1  0
 36 35  1  0
 37 38  1  0
 37 36  1  0
 38 34  1  0
 39 40  2  0
 40 41  1  0
 42 41  2  0
 43 42  1  0
 44 18  1  0
 44 49  1  0
 44 45  1  0
 45 48  1  1
 45 46  1  0
 47 45  1  0
 49 52  1  0
 50 54  1  0
 50 49  1  0
 51 50  2  0
 54 53  1  0
 56 54  1  0
 56 57  1  0
 56 55  1  0
 58 63  1  0
 58 59  1  0
 59 62  1  0
 59 60  1  0
 59 61  1  0
 63 64  1  0
 65 64  1  0
 66 71  1  0
 67 68  1  0
 67 66  1  0
 69 68  1  0
 69 76  1  0
 69 70  1  0
 71 65  1  0
 71 70  1  0
 72 65  2  0
 73 74  2  0
 74 93  1  0
 75 74  1  0
 75 78  1  0
 76 77  1  0
 76 73  1  0
 77 75  2  0
 78 79  1  0
 79 80  2  0
 81 84  1  0
 81 80  1  0
 82 81  2  0
 83 82  1  0
 83 78  2  0
 84 85  1  0
 85 86  1  0
 86 87  2  0
 88 87  1  0
 88 92  1  0
 89 88  2  0
 90 85  2  0
 90 89  1  0
 91 90  1  0
 93 94  1  0
 94 97  1  0
 94 96  1  0
 95 93  2  0
 98 73  1  0
 98 99  1  0
100 98  1  0
M  ISO  4  16 101  17 101  64 100  65 100
M  END
>  <TORSDO>  (53) 
F 24

>  <SCORE>  (53) 
-12.280

>  <name>  (53) 
52

>  <ligand_id>  (53) 
52

>  <original_smiles>  (53) 
[H]c1c([H])c([H])c(C([H])([H])C([H])([H])Oc2c([H])c([H])c3c(c2[H])C([H])([H])N(C(=O)C([H])(N([H])C(=O)C([H])(N([H])C([H])([H])[H])C([H])([H])[H])C(C([H])([H])[H])(C([H])([H])[H])C([H])([H])[H])C([H])(C(=O)N([H])C2([H])c4c([H])c([H])c([H])c([H])c4C([H])([H])C([H])([H])C2([H])[H])C3([H])[H])c(C([H])([H])c2c([H])c(C([H])(C([H])([H])C([H])([H])C(=O)N3C([H])([H])C([H])([H])C([H])([H])C([H])(n4nc(-c5c([H])c([H])c(Oc6c([H])c([H])c(F)c([H])c6F)c([H])c5[H])c(C(=O)N([H])[H])c4N([H])[H])C3([H])[H])[N+]([H])([H])[H])c([H])c([H])c2C([H])([H])[H])c1[H]

>  <smiles>  (53) 
[H]c1c([H])c([H])c(C([H])([H])C([H])([H])Oc2c([H])c([H])c3c(c2[H])C([H])([H])N(C(=O)C([H])(N([H])C(=O)C([H])(N([H])C([H])([H])[H])C([H])([H])[H])C(C([H])([H])[H])(C([H])([H])[H])C([H])([H])[H])C([H])(C(=O)N([H])C2([H])c4c([H])c([H])c([H])c([H])c4C([H])([H])C([H])([H])C2([H])[H])C3([H])[H])c(C([H])([H])c2c([H])c(C([H])(C([H])([H])C([H])([H])C(=O)N3C([H])([H])C([H])([H])C([H])([H])C([H])(n4nc(-c5c([H])c([H])c(Oc6c([H])c([H])c(F)c([H])c6F)c([H])c5[H])c(C(=O)N([H])[H])c4N([H])[H])C3([H])[H])[N+]([H])([H])[H])c([H])c([H])c2C([H])([H])[H])c1[H]

$$$$
53:0:0
     RDKit          3D

 91 99  0  0  1  0  0  0  0  0999 V2000
  -26.2760  -19.7840   18.6110 C   0  0  0  0  0  3  0  0  0  0  0  0
  -26.1520  -21.1680   18.6880 C   0  0  0  0  0  3  0  0  0  0  0  0
  -27.4180  -19.1640   19.1270 C   0  0  0  0  0  3  0  0  0  0  0  0
  -27.1870  -21.9210   19.2580 C   0  0  0  0  0  3  0  0  0  0  0  0
  -28.4860  -19.8580   19.7700 C   0  0  0  0  0  0  0  0  0  0  0  0
  -28.3610  -21.3450   19.8150 C   0  0  0  0  0  0  0  0  0  0  0  0
  -29.5960  -18.8890   20.3130 C   0  0  0  0  0  0  0  0  0  0  0  0
  -30.5850  -19.3050   20.9210 O   0  0  0  0  0  0  0  0  0  0  0  0
  -29.5230  -17.2980   20.0480 C   0  0  0  0  0  2  0  0  0  0  0  0
  -30.1060  -16.1770   21.0420 C   0  0  0  0  0  2  0  0  0  0  0  0
  -30.7550  -14.8430   20.4390 C   0  0  0  0  0  0  0  0  0  0  0  0
  -30.5590  -12.5780   19.3880 C   0  0  0  0  0  2  0  0  0  0  0  0
  -29.6420  -12.6670   18.1470 C   0  0  0  0  0  2  0  0  0  0  0  0
  -28.1630  -12.5010   18.5460 C   0  0  0  0  0  2  0  0  0  0  0  0
  -27.7810  -13.3660   19.7810 C   0  0  0  0  0  3  0  0  0  0  0  0
  -28.8230  -13.2340   20.9170 C   0  0  0  0  0  2  0  0  0  0  0  0
  -30.1260  -13.6150   20.3580 N   0  0  0  0  0  0  0  0  0  0  0  0
  -31.8950  -14.9550   19.9820 O   0  0  0  0  0  0  0  0  0  0  0  0
  -25.3760  -13.9460   20.4450 C   0  0  0  0  0  0  0  0  0  0  0  0
  -24.3200  -13.1630   20.8260 C   0  0  0  0  0  0  0  0  0  0  0  0
  -24.7950  -11.8140   20.8240 C   0  0  0  0  0  0  0  0  0  0  0  0
  -26.4320  -13.0700   20.2460 N   0  0  0  0  0  0  0  0  0  0  0  0
  -26.0900  -11.7900   20.5340 N   0  0  0  0  0  0  0  0  0  0  0  0
  -24.0760  -10.5450   21.0070 C   0  0  0  0  0  0  0  0  0  0  0  0
  -24.5070   -9.5800   21.9460 C   0  0  0  0  0  3  0  0  0  0  0  0
  -23.7850   -8.3790   22.1260 C   0  0  0  0  0  3  0  0  0  0  0  0
  -22.6230   -8.1310   21.3550 C   0  0  0  0  0  0  0  0  0  0  0  0
  -22.2210   -9.0770   20.3930 C   0  0  0  0  0  3  0  0  0  0  0  0
  -22.9440  -10.2670   20.2140 C   0  0  0  0  0  3  0  0  0  0  0  0
  -21.8650   -6.9860   21.4490 O   0  0  0  0  0  0  0  0  0  0  0  0
  -21.7940   -6.2600   22.6080 C   0  0  0  0  0  0  0  0  0  0  0  0
  -21.3150   -6.8230   23.8110 C   0  0  0  0  0  3  0  0  0  0  0  0
  -21.2010   -6.0230   24.9670 C   0  0  0  0  0  3  0  0  0  0  0  0
  -21.5420   -4.6590   24.9170 C   0  0  0  0  0  0  0  0  0  0  0  0
  -22.0080   -4.0940   23.7170 C   0  0  0  0  0  3  0  0  0  0  0  0
  -22.1370   -4.8930   22.5670 C   0  0  0  0  0  0  0  0  0  0  0  0
  -22.5690   -4.3370   21.4090 F   0  0  0  0  0  0  0  0  0  0  0  0
  -21.4210   -3.8890   26.0230 F   0  0  0  0  0  0  0  0  0  0  0  0
  -22.9130  -13.6220   21.0870 C   0  0  0  0  0  0  0  0  0  0  0  0
  -22.1840  -12.9170   21.9460 N   0  0  0  0  0  0  0  0  0  0  0  0
  -22.4690  -14.6440   20.5590 O   0  0  0  0  0  0  0  0  0  0  0  0
  -22.5600  -12.0920   22.3860 H   0  0  0  0  0  0  0  0  0  0  0  0
  -21.2440  -13.2100   22.1640 H   0  0  0  0  0  0  0  0  0  0  0  0
  -25.5360  -15.3150   20.2230 N   0  0  0  0  0  0  0  0  0  0  0  0
  -24.7790  -15.9890   20.2790 H   0  0  0  0  0  0  0  0  0  0  0  0
  -26.3630  -15.7100   19.7910 H   0  0  0  0  0  0  0  0  0  0  0  0
  -29.3740  -22.4330   20.2550 C   0  0  0  0  0  0  0  0  0  0  0  0
  -30.5780  -22.1570   20.2790 O   0  0  0  0  0  0  0  0  0  0  0  0
  -29.0090  -23.9300   20.7680 C   0  0  0  0  0  2  0  0  0  0  0  0
  -28.1960  -25.0650   19.9560 C   0  0  0  0  0  2  0  0  0  0  0  0
  -28.3380  -26.5270   20.2540 O   0  0  0  0  0  0  0  0  0  0  0  0
  -24.5710  -31.9180   23.2330 C   0  0  0  0  0  0  0  0  0  0  0  0
  -27.2230  -27.3910   20.1610 C   0  0  0  0  0  0  0  0  0  0  0  0
  -23.3720  -30.5250   21.5790 C   0  0  0  0  0  3  0  0  0  0  0  0
  -24.8400  -28.9950   20.1420 C   0  0  0  0  0  0  0  0  0  0  0  0
  -25.9060  -30.8650   21.4000 C   0  0  0  0  0  2  0  0  0  0  0  0
  -26.0010  -29.4870   20.7510 C   0  0  0  0  0  0  0  0  0  0  0  0
  -27.1910  -28.6930   20.7610 C   0  0  0  0  0  3  0  0  0  0  0  0
  -26.0460  -26.9790   19.4950 C   0  0  0  0  0  3  0  0  0  0  0  0
  -24.8670  -27.7460   19.5050 C   0  0  0  0  0  3  0  0  0  0  0  0
  -23.5900  -29.8510   20.1980 C   0  0  0  0  0  2  0  0  0  0  0  0
  -24.6330  -31.1220   22.1260 N   0  0  0  0  0  0  0  0  0  0  0  0
  -23.4880  -32.1820   23.7750 O   0  0  0  0  0  0  0  0  0  0  0  0
  -22.7160  -29.5000   22.5360 C   0  0  0  0  0  0  0  0  0  0  0  0
  -21.3920  -29.3090   22.4040 N   0  0  0  0  0  0  0  0  0  0  0  0
  -23.3990  -28.8780   23.3560 O   0  0  0  0  0  0  0  0  0  0  0  0
  -20.9000  -29.8620   21.7140 H   0  0  0  0  0  0  0  0  0  0  0  0
  -18.0280  -28.0720   22.9010 C   0  0  0  0  0  0  0  0  0  0  0  0
  -20.5830  -28.3640   23.1750 C   0  0  0  0  0  3  0  0  0  0  0  0
  -20.7030  -26.9340   22.6040 C   0  0  0  0  0  2  0  0  0  0  0  0
  -19.6090  -26.5940   21.5860 C   0  0  0  0  0  2  0  0  0  0  0  0
  -18.2230  -26.7250   22.2270 C   0  0  0  0  0  2  0  0  0  0  0  0
  -19.1370  -28.8480   23.3340 C   0  0  0  0  0  0  0  0  0  0  0  0
  -18.9040  -30.1060   23.9290 C   0  0  0  0  0  3  0  0  0  0  0  0
  -17.5950  -30.5920   24.0950 C   0  0  0  0  0  3  0  0  0  0  0  0
  -16.4990  -29.8160   23.6750 C   0  0  0  0  0  3  0  0  0  0  0  0
  -16.7170  -28.5580   23.0850 C   0  0  0  0  0  3  0  0  0  0  0  0
  -25.8540  -32.5530   23.8570 C   0  0  0  0  0  3  0  0  0  0  0  0
  -25.5440  -33.9530   24.1790 N   0  0  0  0  0  0  0  0  0  0  0  0
  -25.8840  -34.9990   23.4150 C   0  0  0  0  0  0  0  0  0  0  0  0
  -26.5610  -34.8890   22.3890 O   0  0  0  0  0  0  0  0  0  0  0  0
  -24.9500  -34.1140   24.9790 H   0  0  0  0  0  0  0  0  0  0  0  0
  -24.1760  -36.8030   23.0270 C   0  0  0  0  0  1  0  0  0  0  0  0
  -25.3980  -36.3930   23.8620 C   0  0  0  0  0  3  0  0  0  0  0  0
  -27.5220  -37.2640   24.7350 C   0  0  0  0  0  1  0  0  0  0  0  0
  -26.4430  -37.4380   23.7650 N   0  0  0  0  0  0  0  0  0  0  0  0
  -26.0390  -38.3620   23.9020 H   0  0  0  0  0  0  0  0  0  0  0  0
  -26.3680  -31.7860   25.1360 C   0  0  1  0  0  0  0  0  0  0  0  0
  -25.2690  -31.5570   26.2010 C   0  0  0  0  0  1  0  0  0  0  0  0
  -26.9540  -30.4040   24.7600 C   0  0  0  0  0  1  0  0  0  0  0  0
  -27.5190  -32.5850   25.7930 C   0  0  0  0  0  1  0  0  0  0  0  0
  1  2  2  0
  1  3  1  0
  2  4  1  0
  3  5  2  0
  4  6  2  0
  5  6  1  0
  5  7  1  0
  6 47  1  0
  7  8  2  0
  9  7  1  0
  9 10  1  0
 11 10  1  0
 12 17  1  0
 13 14  1  0
 13 12  1  0
 15 14  1  0
 15 22  1  0
 15 16  1  0
 17 11  1  0
 17 16  1  0
 18 11  2  0
 19 20  2  0
 20 39  1  0
 21 20  1  0
 21 24  1  0
 22 19  1  0
 22 23  1  0
 23 21  2  0
 24 25  1  0
 25 26  2  0
 27 30  1  0
 27 26  1  0
 28 27  2  0
 29 28  1  0
 29 24  2  0
 30 31  1  0
 31 32  1  0
 32 33  2  0
 34 33  1  0
 34 38  1  0
 35 34  2  0
 36 31  2  0
 36 35  1  0
 37 36  1  0
 39 40  1  0
 40 43  1  0
 40 42  1  0
 41 39  2  0
 44 45  1  0
 44 19  1  0
 46 44  1  0
 47 48  2  0
 47 49  1  0
 50 51  1  0
 50 49  1  0
 52 63  2  0
 53 51  1  0
 53 58  1  0
 54 62  1  0
 54 64  1  0
 55 61  1  0
 55 57  1  0
 56 62  1  0
 57 58  2  0
 57 56  1  0
 59 60  1  0
 59 53  2  0
 60 55  2  0
 61 54  1  0
 62 52  1  0
 64 66  2  0
 65 64  1  0
 67 65  1  0
 68 77  2  0
 68 73  1  0
 69 65  1  0
 69 73  1  0
 70 69  1  0
 71 72  1  0
 71 70  1  0
 72 68  1  0
 73 74  2  0
 74 75  1  0
 76 75  2  0
 77 76  1  0
 78 52  1  0
 78 79  1  0
 78 88  1  0
 79 82  1  0
 80 84  1  0
 80 79  1  0
 81 80  2  0
 84 83  1  0
 86 84  1  0
 86 87  1  0
 86 85  1  0
 88 91  1  1
 88 89  1  0
 90 88  1  0
M  ISO  4  10 100  11 100  50 101  51 101
M  END
>  <TORSDO>  (54) 
F 22

>  <SCORE>  (54) 
-13.087

>  <name>  (54) 
53

>  <ligand_id>  (54) 
53

>  <original_smiles>  (54) 
[H]c1c([H])c([H])c(C(=O)C([H])([H])C([H])([H])C(=O)N2C([H])([H])C([H])([H])C([H])([H])C([H])(n3nc(-c4c([H])c([H])c(Oc5c([H])c([H])c(F)c([H])c5F)c([H])c4[H])c(C(=O)N([H])[H])c3N([H])[H])C2([H])[H])c(C(=O)C([H])([H])C([H])([H])Oc2c([H])c([H])c3c(c2[H])C([H])([H])N(C(=O)C([H])(N([H])C(=O)C([H])(N([H])C([H])([H])[H])C([H])([H])[H])C(C([H])([H])[H])(C([H])([H])[H])C([H])([H])[H])C([H])(C(=O)N([H])C2([H])c4c([H])c([H])c([H])c([H])c4C([H])([H])C([H])([H])C2([H])[H])C3([H])[H])c1[H]

>  <smiles>  (54) 
[H]c1c([H])c([H])c(C(=O)C([H])([H])C([H])([H])C(=O)N2C([H])([H])C([H])([H])C([H])([H])C([H])(n3nc(-c4c([H])c([H])c(Oc5c([H])c([H])c(F)c([H])c5F)c([H])c4[H])c(C(=O)N([H])[H])c3N([H])[H])C2([H])[H])c(C(=O)C([H])([H])C([H])([H])Oc2c([H])c([H])c3c(c2[H])C([H])([H])N(C(=O)C([H])(N([H])C(=O)C([H])(N([H])C([H])([H])[H])C([H])([H])[H])C(C([H])([H])[H])(C([H])([H])[H])C([H])([H])[H])C([H])(C(=O)N([H])C2([H])c4c([H])c([H])c([H])c([H])c4C([H])([H])C([H])([H])C2([H])[H])C3([H])[H])c1[H]

$$$$
54:0:0
     RDKit          3D

 93101  0  0  1  0  0  0  0  0999 V2000
  -28.6870  -23.6860   19.8210 C   0  0  0  0  0  3  0  0  0  0  0  0
  -27.4780  -22.9780   19.3520 N   0  0  0  0  0  4  0  0  0  0  0  0
  -26.9920  -22.5260   20.1080 H   0  0  0  0  0  0  0  0  0  0  0  0
  -27.7330  -22.2960   18.6560 H   0  0  0  0  0  0  0  0  0  0  0  0
  -26.8360  -23.6190   18.9150 H   0  0  0  0  0  0  0  0  0  0  0  0
  -30.0180  -21.2790   20.5140 C   0  0  0  0  0  3  0  0  0  0  0  0
  -29.7680  -22.6530   20.3820 C   0  0  0  0  0  3  0  0  0  0  0  0
  -27.4570  -18.3790   20.2880 C   0  0  0  0  0  3  0  0  0  0  0  0
  -28.0140  -19.6770   20.3070 C   0  0  0  0  0  3  0  0  0  0  0  0
  -28.2740  -17.2250   20.2700 C   0  0  0  0  0  3  0  0  0  0  0  0
  -30.2190  -18.6490   20.2560 C   0  0  0  0  0  3  0  0  0  0  0  0
  -29.4100  -19.8690   20.3410 C   0  0  0  0  0  0  0  0  0  0  0  0
  -29.6770  -17.2950   20.2110 C   0  0  0  0  0  0  0  0  0  0  0  0
  -30.8670  -14.9240   20.4700 C   0  0  0  0  0  0  0  0  0  0  0  0
  -30.6630  -12.6030   19.5840 C   0  0  0  0  0  2  0  0  0  0  0  0
  -29.7800  -12.5350   18.3220 C   0  0  0  0  0  2  0  0  0  0  0  0
  -28.3120  -12.3220   18.7340 C   0  0  0  0  0  2  0  0  0  0  0  0
  -27.8370  -13.2950   19.8450 C   0  0  0  0  0  3  0  0  0  0  0  0
  -28.8630  -13.4090   21.0010 C   0  0  0  0  0  2  0  0  0  0  0  0
  -30.1560  -13.7420   20.3840 N   0  0  0  0  0  0  0  0  0  0  0  0
  -32.0960  -14.8410   20.5560 O   0  0  0  0  0  0  0  0  0  0  0  0
  -31.1620  -16.3140   18.5380 C   0  0  0  0  0  1  0  0  0  0  0  0
  -30.4040  -16.0630   19.7800 N   0  0  0  0  0  0  0  0  0  0  0  0
  -25.4090  -13.8510   20.4870 C   0  0  0  0  0  0  0  0  0  0  0  0
  -24.3410  -13.0670   20.8170 C   0  0  0  0  0  0  0  0  0  0  0  0
  -24.8270  -11.7220   20.8310 C   0  0  0  0  0  0  0  0  0  0  0  0
  -26.4840  -12.9880   20.3120 N   0  0  0  0  0  0  0  0  0  0  0  0
  -26.1330  -11.7050   20.5890 N   0  0  0  0  0  0  0  0  0  0  0  0
  -24.1100  -10.4520   21.0120 C   0  0  0  0  0  0  0  0  0  0  0  0
  -24.5150   -9.5060   21.9790 C   0  0  0  0  0  3  0  0  0  0  0  0
  -23.7910   -8.3050   22.1450 C   0  0  0  0  0  3  0  0  0  0  0  0
  -22.6540   -8.0410   21.3450 C   0  0  0  0  0  0  0  0  0  0  0  0
  -22.2720   -8.9760   20.3700 C   0  0  0  0  0  3  0  0  0  0  0  0
  -22.9940  -10.1690   20.1990 C   0  0  0  0  0  3  0  0  0  0  0  0
  -21.9020   -6.8940   21.4220 O   0  0  0  0  0  0  0  0  0  0  0  0
  -21.8130   -6.1700   22.5820 C   0  0  0  0  0  0  0  0  0  0  0  0
  -21.3210   -6.7370   23.7780 C   0  0  0  0  0  3  0  0  0  0  0  0
  -21.1880   -5.9380   24.9300 C   0  0  0  0  0  3  0  0  0  0  0  0
  -21.5250   -4.5740   24.8870 C   0  0  0  0  0  0  0  0  0  0  0  0
  -22.0060   -4.0060   23.6940 C   0  0  0  0  0  3  0  0  0  0  0  0
  -22.1460   -4.8020   22.5440 C   0  0  0  0  0  0  0  0  0  0  0  0
  -22.5940   -4.2420   21.3930 F   0  0  0  0  0  0  0  0  0  0  0  0
  -21.3800   -3.8050   25.9940 F   0  0  0  0  0  0  0  0  0  0  0  0
  -22.9250  -13.5290   21.0000 C   0  0  0  0  0  0  0  0  0  0  0  0
  -22.1620  -12.8510   21.8490 N   0  0  0  0  0  0  0  0  0  0  0  0
  -22.4990  -14.5290   20.4220 O   0  0  0  0  0  0  0  0  0  0  0  0
  -22.5090  -12.0420   22.3460 H   0  0  0  0  0  0  0  0  0  0  0  0
  -21.2090  -13.1450   22.0090 H   0  0  0  0  0  0  0  0  0  0  0  0
  -25.5290  -15.2200   20.2970 N   0  0  0  0  0  0  0  0  0  0  0  0
  -24.7390  -15.8460   20.4040 H   0  0  0  0  0  0  0  0  0  0  0  0
  -26.3800  -15.7020   20.0530 H   0  0  0  0  0  0  0  0  0  0  0  0
  -28.3240  -25.0390   20.6720 C   0  0  0  0  0  2  0  0  0  0  0  0
  -28.3970  -26.4520   20.1390 O   0  0  0  0  0  0  0  0  0  0  0  0
  -24.6260  -31.8850   23.2120 C   0  0  0  0  0  0  0  0  0  0  0  0
  -27.2650  -27.3060   20.1700 C   0  0  0  0  0  0  0  0  0  0  0  0
  -23.4290  -30.4820   21.5710 C   0  0  0  0  0  3  0  0  0  0  0  0
  -24.8890  -28.9210   20.1540 C   0  0  0  0  0  0  0  0  0  0  0  0
  -25.9680  -30.8030   21.3900 C   0  0  0  0  0  2  0  0  0  0  0  0
  -26.0580  -29.4200   20.7460 C   0  0  0  0  0  0  0  0  0  0  0  0
  -27.2490  -28.6250   20.7400 C   0  0  0  0  0  3  0  0  0  0  0  0
  -26.0740  -26.8660   19.5620 C   0  0  0  0  0  3  0  0  0  0  0  0
  -24.9000  -27.6500   19.5540 C   0  0  0  0  0  3  0  0  0  0  0  0
  -23.6500  -29.7960   20.1940 C   0  0  0  0  0  2  0  0  0  0  0  0
  -24.6930  -31.0740   22.1150 N   0  0  0  0  0  0  0  0  0  0  0  0
  -23.5430  -32.1580   23.7490 O   0  0  0  0  0  0  0  0  0  0  0  0
  -22.7690  -29.4660   22.5360 C   0  0  0  0  0  0  0  0  0  0  0  0
  -21.4410  -29.2850   22.4120 N   0  0  0  0  0  0  0  0  0  0  0  0
  -23.4500  -28.8460   23.3570 O   0  0  0  0  0  0  0  0  0  0  0  0
  -20.9450  -29.8390   21.7270 H   0  0  0  0  0  0  0  0  0  0  0  0
  -18.0770  -28.0620   22.9160 C   0  0  0  0  0  0  0  0  0  0  0  0
  -20.6300  -28.3430   23.1850 C   0  0  0  0  0  3  0  0  0  0  0  0
  -20.7450  -26.9110   22.6130 C   0  0  0  0  0  2  0  0  0  0  0  0
  -19.6450  -26.5770   21.5990 C   0  0  0  0  0  2  0  0  0  0  0  0
  -18.2620  -26.7110   22.2410 C   0  0  0  0  0  2  0  0  0  0  0  0
  -19.1890  -28.8340   23.3450 C   0  0  0  0  0  0  0  0  0  0  0  0
  -18.9610  -30.0960   23.9370 C   0  0  0  0  0  3  0  0  0  0  0  0
  -17.6530  -30.5880   24.1020 C   0  0  0  0  0  3  0  0  0  0  0  0
  -16.5560  -29.8150   23.6880 C   0  0  0  0  0  3  0  0  0  0  0  0
  -16.7680  -28.5520   23.1050 C   0  0  0  0  0  3  0  0  0  0  0  0
  -25.9050  -32.5260   23.8320 C   0  0  0  0  0  3  0  0  0  0  0  0
  -26.4270  -31.7610   25.1100 C   0  0  1  0  0  0  0  0  0  0  0  0
  -25.3440  -31.5230   26.1870 C   0  0  0  0  0  1  0  0  0  0  0  0
  -27.0130  -30.3840   24.7220 C   0  0  0  0  0  1  0  0  0  0  0  0
  -27.5740  -32.5660   25.7690 C   0  0  0  0  0  1  0  0  0  0  0  0
  -25.5920  -33.9240   24.1620 N   0  0  0  0  0  0  0  0  0  0  0  0
  -25.9250  -34.9800   23.4070 C   0  0  0  0  0  0  0  0  0  0  0  0
  -26.5960  -34.8790   22.3760 O   0  0  0  0  0  0  0  0  0  0  0  0
  -25.0070  -34.0780   24.9690 H   0  0  0  0  0  0  0  0  0  0  0  0
  -24.1990  -36.7720   23.0510 C   0  0  0  0  0  1  0  0  0  0  0  0
  -25.4360  -36.3670   23.8680 C   0  0  0  0  0  3  0  0  0  0  0  0
  -27.5640  -37.2510   24.7120 C   0  0  0  0  0  1  0  0  0  0  0  0
  -26.4660  -37.4220   23.7630 N   0  0  0  0  0  0  0  0  0  0  0  0
  -26.0560  -38.3400   23.9170 H   0  0  0  0  0  0  0  0  0  0  0  0
  1  7  1  0
  1 52  1  0
  2  1  1  0
  2  3  1  0
  4  2  1  0
  5  2  1  0
  7  6  2  0
  8  9  1  0
  9 12  2  0
 10  8  2  0
 11 12  1  0
 12  6  1  0
 13 11  2  0
 13 10  1  0
 14 21  2  0
 15 20  1  0
 16 17  1  0
 16 15  1  0
 18 17  1  0
 18 27  1  0
 18 19  1  0
 20 14  1  0
 20 19  1  0
 22 23  1  0
 23 13  1  0
 23 14  1  0
 24 25  2  0
 25 26  1  0
 25 44  1  0
 26 29  1  0
 27 24  1  0
 27 28  1  0
 28 26  2  0
 29 30  1  0
 30 31  2  0
 32 35  1  0
 32 31  1  0
 33 32  2  0
 34 33  1  0
 34 29  2  0
 35 36  1  0
 36 37  1  0
 37 38  2  0
 39 38  1  0
 39 43  1  0
 40 39  2  0
 41 36  2  0
 41 40  1  0
 42 41  1  0
 44 45  1  0
 45 48  1  0
 45 47  1  0
 46 44  2  0
 49 50  1  0
 49 24  1  0
 51 49  1  0
 53 55  1  0
 53 52  1  0
 54 65  2  0
 55 60  1  0
 56 64  1  0
 56 66  1  0
 57 63  1  0
 57 59  1  0
 58 64  1  0
 59 58  1  0
 60 59  2  0
 61 55  2  0
 62 61  1  0
 62 57  2  0
 63 56  1  0
 64 54  1  0
 66 68  2  0
 67 66  1  0
 69 67  1  0
 70 79  2  0
 70 75  1  0
 71 67  1  0
 71 75  1  0
 72 71  1  0
 73 74  1  0
 73 72  1  0
 74 70  1  0
 75 76  2  0
 76 77  1  0
 78 77  2  0
 79 78  1  0
 80 54  1  0
 80 85  1  0
 80 81  1  0
 81 84  1  1
 81 82  1  0
 83 81  1  0
 85 88  1  0
 86 90  1  0
 86 85  1  0
 87 86  2  0
 90 89  1  0
 92 90  1  0
 92 93  1  0
 92 91  1  0
M  ISO  4  14 100  23 100  52 101  53 101
M  END
>  <TORSDO>  (55) 
F 20

>  <SCORE>  (55) 
-13.960

>  <name>  (55) 
54

>  <ligand_id>  (55) 
54

>  <original_smiles>  (55) 
[H]C(=C([H])C([H])(C([H])([H])Oc1c([H])c([H])c2c(c1[H])C([H])([H])N(C(=O)C([H])(N([H])C(=O)C([H])(N([H])C([H])([H])[H])C([H])([H])[H])C(C([H])([H])[H])(C([H])([H])[H])C([H])([H])[H])C([H])(C(=O)N([H])C1([H])c3c([H])c([H])c([H])c([H])c3C([H])([H])C([H])([H])C1([H])[H])C2([H])[H])[N+]([H])([H])[H])c1c([H])c([H])c([H])c(N(C(=O)N2C([H])([H])C([H])([H])C([H])([H])C([H])(n3nc(-c4c([H])c([H])c(Oc5c([H])c([H])c(F)c([H])c5F)c([H])c4[H])c(C(=O)N([H])[H])c3N([H])[H])C2([H])[H])C([H])([H])[H])c1[H]

>  <smiles>  (55) 
[H]C(=C([H])C([H])(C([H])([H])Oc1c([H])c([H])c2c(c1[H])C([H])([H])N(C(=O)C([H])(N([H])C(=O)C([H])(N([H])C([H])([H])[H])C([H])([H])[H])C(C([H])([H])[H])(C([H])([H])[H])C([H])([H])[H])C([H])(C(=O)N([H])C1([H])c3c([H])c([H])c([H])c([H])c3C([H])([H])C([H])([H])C1([H])[H])C2([H])[H])[N+]([H])([H])[H])c1c([H])c([H])c([H])c(N(C(=O)N2C([H])([H])C([H])([H])C([H])([H])C([H])(n3nc(-c4c([H])c([H])c(Oc5c([H])c([H])c(F)c([H])c5F)c([H])c4[H])c(C(=O)N([H])[H])c3N([H])[H])C2([H])[H])C([H])([H])[H])c1[H]

$$$$
55:0:0
     RDKit          3D

 84 91  0  0  1  0  0  0  0  0999 V2000
  -28.7190  -22.1800   20.5330 C   0  0  0  0  0  0  0  0  0  0  0  0
  -28.9980  -22.2460   21.7330 O   0  0  0  0  0  1  0  0  0  0  0  0
  -29.0430  -20.5650   19.8020 C   0  0  0  0  0  0  0  0  0  0  0  0
  -29.3520  -19.0290   19.7720 C   0  0  0  0  0  0  0  0  0  0  0  0
  -29.5060  -18.5440   18.3310 C   0  0  0  0  0  1  0  0  0  0  0  0
  -29.6200  -17.3840   20.5830 C   0  0  0  0  0  2  0  0  0  0  0  0
  -30.3300  -15.6720   20.2380 C   0  0  0  0  0  0  0  0  0  0  0  0
  -30.4330  -13.1170   19.4370 C   0  0  0  0  0  2  0  0  0  0  0  0
  -29.5520  -12.7500   18.2070 C   0  0  0  0  0  2  0  0  0  0  0  0
  -28.1200  -12.4020   18.6400 C   0  0  0  0  0  2  0  0  0  0  0  0
  -27.6080  -13.3940   19.7070 C   0  0  0  0  0  3  0  0  0  0  0  0
  -28.6270  -13.6890   20.8340 C   0  0  0  0  0  2  0  0  0  0  0  0
  -29.8270  -14.2950   20.2130 N   0  0  0  0  0  0  0  0  0  0  0  0
  -31.5430  -15.5950   19.9590 O   0  0  0  0  0  0  0  0  0  0  0  0
  -25.2360  -13.9130   20.4480 C   0  0  0  0  0  0  0  0  0  0  0  0
  -24.1790  -13.1280   20.8100 C   0  0  0  0  0  0  0  0  0  0  0  0
  -24.6590  -11.7830   20.7930 C   0  0  0  0  0  0  0  0  0  0  0  0
  -26.2880  -13.0490   20.2170 N   0  0  0  0  0  0  0  0  0  0  0  0
  -25.9550  -11.7600   20.4930 N   0  0  0  0  0  0  0  0  0  0  0  0
  -23.9380  -10.5160   20.9860 C   0  0  0  0  0  0  0  0  0  0  0  0
  -24.3670   -9.5540   21.9270 C   0  0  0  0  0  3  0  0  0  0  0  0
  -23.6410   -8.3570   22.1100 C   0  0  0  0  0  3  0  0  0  0  0  0
  -22.4710   -8.1120   21.3520 C   0  0  0  0  0  0  0  0  0  0  0  0
  -22.0610   -9.0630   20.4010 C   0  0  0  0  0  3  0  0  0  0  0  0
  -22.7880  -10.2510   20.2160 C   0  0  0  0  0  3  0  0  0  0  0  0
  -21.7180   -6.9660   21.4420 O   0  0  0  0  0  0  0  0  0  0  0  0
  -21.6680   -6.2260   22.5970 C   0  0  0  0  0  0  0  0  0  0  0  0
  -21.2420   -6.7860   23.8210 C   0  0  0  0  0  3  0  0  0  0  0  0
  -21.1390   -5.9730   24.9680 C   0  0  0  0  0  3  0  0  0  0  0  0
  -21.4530   -4.6020   24.8910 C   0  0  0  0  0  0  0  0  0  0  0  0
  -21.8730   -4.0430   23.6710 C   0  0  0  0  0  3  0  0  0  0  0  0
  -21.9770   -4.8530   22.5270 C   0  0  0  0  0  0  0  0  0  0  0  0
  -22.3610   -4.3040   21.3490 F   0  0  0  0  0  0  0  0  0  0  0  0
  -21.3470   -3.8190   25.9900 F   0  0  0  0  0  0  0  0  0  0  0  0
  -22.7750  -13.5970   21.0580 C   0  0  0  0  0  0  0  0  0  0  0  0
  -22.0420  -12.9050   21.9220 N   0  0  0  0  0  0  0  0  0  0  0  0
  -22.3390  -14.6160   20.5230 O   0  0  0  0  0  0  0  0  0  0  0  0
  -22.4080  -12.0810   22.3760 H   0  0  0  0  0  0  0  0  0  0  0  0
  -21.1000  -13.2030   22.1310 H   0  0  0  0  0  0  0  0  0  0  0  0
  -25.3880  -15.2850   20.2630 N   0  0  0  0  0  0  0  0  0  0  0  0
  -24.6160  -15.9340   20.3700 H   0  0  0  0  0  0  0  0  0  0  0  0
  -26.2390  -15.7320   19.9480 H   0  0  0  0  0  0  0  0  0  0  0  0
  -28.0400  -23.8130   19.9110 C   0  0  0  0  0  2  0  0  0  0  0  0
  -28.1170  -25.5120   20.3710 O   0  0  0  0  0  0  0  0  0  0  0  0
  -24.5780  -31.8150   23.1720 C   0  0  0  0  0  0  0  0  0  0  0  0
  -27.1570  -26.7280   20.2420 C   0  0  0  0  0  0  0  0  0  0  0  0
  -23.4090  -30.3970   21.5380 C   0  0  0  0  0  3  0  0  0  0  0  0
  -24.8780  -28.7470   20.1460 C   0  0  0  0  0  0  0  0  0  0  0  0
  -25.9880  -30.5520   21.4370 C   0  0  0  0  0  2  0  0  0  0  0  0
  -26.0640  -29.1150   20.7920 C   0  0  0  0  0  0  0  0  0  0  0  0
  -27.1850  -28.1310   20.8120 C   0  0  0  0  0  3  0  0  0  0  0  0
  -25.9410  -26.5740   19.5280 C   0  0  0  0  0  3  0  0  0  0  0  0
  -24.8560  -27.5030   19.4910 C   0  0  0  0  0  3  0  0  0  0  0  0
  -23.6630  -29.6900   20.1740 C   0  0  0  0  0  2  0  0  0  0  0  0
  -24.6820  -30.9550   22.1010 N   0  0  0  0  0  0  0  0  0  0  0  0
  -23.4800  -32.1140   23.6720 O   0  0  0  0  0  0  0  0  0  0  0  0
  -22.6910  -29.4250   22.5130 C   0  0  0  0  0  0  0  0  0  0  0  0
  -21.3560  -29.2810   22.3950 N   0  0  0  0  0  0  0  0  0  0  0  0
  -23.3460  -28.7970   23.3480 O   0  0  0  0  0  0  0  0  0  0  0  0
  -20.8780  -29.8380   21.7010 H   0  0  0  0  0  0  0  0  0  0  0  0
  -17.9610  -28.1050   22.9350 C   0  0  0  0  0  0  0  0  0  0  0  0
  -20.5250  -28.3520   23.1720 C   0  0  0  0  0  3  0  0  0  0  0  0
  -20.6080  -26.9190   22.5960 C   0  0  0  0  0  2  0  0  0  0  0  0
  -19.4950  -26.6090   21.5900 C   0  0  0  0  0  2  0  0  0  0  0  0
  -18.1200  -26.7590   22.2470 C   0  0  0  0  0  2  0  0  0  0  0  0
  -19.0880  -28.8600   23.3540 C   0  0  0  0  0  0  0  0  0  0  0  0
  -18.8810  -30.1160   23.9640 C   0  0  0  0  0  3  0  0  0  0  0  0
  -17.5800  -30.6200   24.1520 C   0  0  0  0  0  3  0  0  0  0  0  0
  -16.4670  -29.8630   23.7450 C   0  0  0  0  0  3  0  0  0  0  0  0
  -16.6590  -28.6070   23.1420 C   0  0  0  0  0  3  0  0  0  0  0  0
  -25.8330  -32.4780   23.8180 C   0  0  0  0  0  3  0  0  0  0  0  0
  -26.3270  -31.7280   25.1180 C   0  0  1  0  0  0  0  0  0  0  0  0
  -25.2170  -31.5050   26.1710 C   0  0  0  0  0  1  0  0  0  0  0  0
  -26.9220  -30.3460   24.7690 C   0  0  0  0  0  1  0  0  0  0  0  0
  -27.4650  -32.5370   25.7860 C   0  0  0  0  0  1  0  0  0  0  0  0
  -25.4970  -33.8770   24.1460 N   0  0  0  0  0  0  0  0  0  0  0  0
  -25.8270  -34.9460   23.4080 C   0  0  0  0  0  0  0  0  0  0  0  0
  -26.5050  -34.8570   22.3810 O   0  0  0  0  0  0  0  0  0  0  0  0
  -24.8930  -34.0170   24.9440 H   0  0  0  0  0  0  0  0  0  0  0  0
  -24.0890  -36.7410   23.0770 C   0  0  0  0  0  1  0  0  0  0  0  0
  -25.3340  -36.3310   23.8810 C   0  0  0  0  0  3  0  0  0  0  0  0
  -27.4640  -37.2280   24.7170 C   0  0  0  0  0  1  0  0  0  0  0  0
  -26.3600  -37.3920   23.7750 N   0  0  0  0  0  0  0  0  0  0  0  0
  -25.9470  -38.3090   23.9270 H   0  0  0  0  0  0  0  0  0  0  0  0
  1  2  1  0
  3  1  2  0
  4  3  2  0
  4  6  1  0
  5  4  1  0
  7  6  1  0
  8 13  1  0
  9 10  1  0
  9  8  1  0
 11 10  1  0
 11 18  1  0
 11 12  1  0
 13  7  1  0
 13 12  1  0
 14  7  2  0
 15 16  2  0
 16 35  1  0
 17 16  1  0
 17 20  1  0
 18 15  1  0
 18 19  1  0
 19 17  2  0
 20 21  1  0
 21 22  2  0
 23 26  1  0
 23 22  1  0
 24 23  2  0
 25 24  1  0
 25 20  2  0
 26 27  1  0
 27 28  1  0
 28 29  2  0
 30 29  1  0
 30 34  1  0
 31 30  2  0
 32 27  2  0
 32 31  1  0
 33 32  1  0
 35 36  1  0
 36 39  1  0
 36 38  1  0
 37 35  2  0
 40 41  1  0
 40 15  1  0
 42 40  1  0
 43 44  1  0
 43  1  1  0
 45 56  2  0
 46 44  1  0
 46 51  1  0
 47 55  1  0
 47 57  1  0
 48 54  1  0
 48 50  1  0
 49 55  1  0
 50 51  2  0
 50 49  1  0
 52 46  2  0
 53 52  1  0
 53 48  2  0
 54 47  1  0
 55 45  1  0
 57 59  2  0
 58 57  1  0
 60 58  1  0
 61 70  2  0
 61 66  1  0
 62 58  1  0
 62 66  1  0
 63 62  1  0
 64 65  1  0
 64 63  1  0
 65 61  1  0
 66 67  2  0
 67 68  1  0
 69 68  2  0
 70 69  1  0
 71 45  1  0
 71 76  1  0
 71 72  1  0
 72 75  1  1
 72 73  1  0
 74 72  1  0
 76 79  1  0
 77 81  1  0
 77 76  1  0
 78 77  2  0
 81 80  1  0
 83 81  1  0
 83 84  1  0
 83 82  1  0
M  ISO  4   6 100   7 100  43 101  44 101
M  END
>  <TORSDO>  (56) 
F 19

>  <SCORE>  (56) 
-16.380

>  <name>  (56) 
55

>  <ligand_id>  (56) 
55

>  <original_smiles>  (56) 
[H]C(C(=O)C([H])([H])Oc1c([H])c([H])c2c(c1[H])C([H])([H])N(C(=O)C([H])(N([H])C(=O)C([H])(N([H])C([H])([H])[H])C([H])([H])[H])C(C([H])([H])[H])(C([H])([H])[H])C([H])([H])[H])C([H])(C(=O)N([H])C1([H])c3c([H])c([H])c([H])c([H])c3C([H])([H])C([H])([H])C1([H])[H])C2([H])[H])=C(C([H])([H])[H])C([H])([H])C(=O)N1C([H])([H])C([H])([H])C([H])([H])C([H])(n2nc(-c3c([H])c([H])c(Oc4c([H])c([H])c(F)c([H])c4F)c([H])c3[H])c(C(=O)N([H])[H])c2N([H])[H])C1([H])[H]

>  <smiles>  (56) 
[H]C(C(=O)C([H])([H])Oc1c([H])c([H])c2c(c1[H])C([H])([H])N(C(=O)C([H])(N([H])C(=O)C([H])(N([H])C([H])([H])[H])C([H])([H])[H])C(C([H])([H])[H])(C([H])([H])[H])C([H])([H])[H])C([H])(C(=O)N([H])C1([H])c3c([H])c([H])c([H])c([H])c3C([H])([H])C([H])([H])C1([H])[H])C2([H])[H])=C(C([H])([H])[H])C([H])([H])C(=O)N1C([H])([H])C([H])([H])C([H])([H])C([H])(n2nc(-c3c([H])c([H])c(Oc4c([H])c([H])c(F)c([H])c4F)c([H])c3[H])c(C(=O)N([H])[H])c2N([H])[H])C1([H])[H]

$$$$
56:0:0
     RDKit          3D

 93102  0  0  1  0  0  0  0  0999 V2000
  -30.4230  -20.3790   20.2340 C   0  0  0  0  0  3  0  0  0  0  0  0
  -29.6190  -20.0990   22.5010 C   0  0  0  0  0  3  0  0  0  0  0  0
  -30.6440  -18.9880   20.1480 C   0  0  0  0  0  3  0  0  0  0  0  0
  -29.8180  -18.7050   22.4080 C   0  0  0  0  0  3  0  0  0  0  0  0
  -29.9430  -20.9570   21.4280 C   0  0  0  0  0  0  0  0  0  0  0  0
  -30.3540  -18.1260   21.2340 C   0  0  0  0  0  0  0  0  0  0  0  0
  -32.0880  -16.2160   22.7400 C   0  0  0  0  0  2  0  0  0  0  0  0
  -32.2450  -16.4310   21.2330 C   0  0  0  0  0  2  0  0  0  0  0  0
  -30.6690  -15.7550   22.4140 C   0  0  0  0  0  2  0  0  0  0  0  0
  -30.7010  -16.6190   21.1230 C   0  0  1  0  0  0  0  0  0  0  0  0
  -29.8900  -16.0240   19.9290 C   0  0  0  0  0  2  0  0  0  0  0  0
  -30.4460  -14.7640   19.2190 C   0  0  0  0  0  0  0  0  0  0  0  0
  -29.9260  -12.6560   18.0550 C   0  0  0  0  0  2  0  0  0  0  0  0
  -28.7890  -12.9010   17.0410 C   0  0  0  0  0  2  0  0  0  0  0  0
  -27.4100  -12.7550   17.7140 C   0  0  0  0  0  2  0  0  0  0  0  0
  -27.3050  -13.5320   19.0570 C   0  0  0  0  0  3  0  0  0  0  0  0
  -28.5410  -13.2700   19.9490 C   0  0  0  0  0  2  0  0  0  0  0  0
  -29.7450  -13.5970   19.1730 N   0  0  0  0  0  0  0  0  0  0  0  0
  -31.4570  -14.9280   18.5330 O   0  0  0  0  0  0  0  0  0  0  0  0
  -25.0630  -14.0860   20.1970 C   0  0  0  0  0  0  0  0  0  0  0  0
  -24.0740  -13.2870   20.7070 C   0  0  0  0  0  0  0  0  0  0  0  0
  -24.5230  -11.9430   20.5320 C   0  0  0  0  0  0  0  0  0  0  0  0
  -26.0540  -13.2260   19.7500 N   0  0  0  0  0  0  0  0  0  0  0  0
  -25.7410  -11.9290   20.0060 N   0  0  0  0  0  0  0  0  0  0  0  0
  -23.8400  -10.6670   20.7800 C   0  0  0  0  0  0  0  0  0  0  0  0
  -24.3620   -9.7150   21.6840 C   0  0  0  0  0  3  0  0  0  0  0  0
  -23.6750   -8.5030   21.9240 C   0  0  0  0  0  3  0  0  0  0  0  0
  -22.4550   -8.2360   21.2590 C   0  0  0  0  0  0  0  0  0  0  0  0
  -21.9520   -9.1780   20.3440 C   0  0  0  0  0  3  0  0  0  0  0  0
  -22.6380  -10.3800   20.1040 C   0  0  0  0  0  3  0  0  0  0  0  0
  -21.7340   -7.0750   21.4080 O   0  0  0  0  0  0  0  0  0  0  0  0
  -21.7090   -6.3900   22.5960 C   0  0  0  0  0  0  0  0  0  0  0  0
  -21.2550   -6.9890   23.7920 C   0  0  0  0  0  3  0  0  0  0  0  0
  -21.1800   -6.2300   24.9760 C   0  0  0  0  0  3  0  0  0  0  0  0
  -21.5500   -4.8720   24.9680 C   0  0  0  0  0  0  0  0  0  0  0  0
  -21.9960   -4.2710   23.7760 C   0  0  0  0  0  3  0  0  0  0  0  0
  -22.0730   -5.0280   22.5950 C   0  0  0  0  0  0  0  0  0  0  0  0
  -22.4840   -4.4390   21.4460 F   0  0  0  0  0  0  0  0  0  0  0  0
  -21.4710   -4.1400   26.1030 F   0  0  0  0  0  0  0  0  0  0  0  0
  -22.7430  -13.7390   21.2350 C   0  0  0  0  0  0  0  0  0  0  0  0
  -22.1850  -13.0090   22.1950 N   0  0  0  0  0  0  0  0  0  0  0  0
  -22.2150  -14.7740   20.8360 O   0  0  0  0  0  0  0  0  0  0  0  0
  -22.6280  -12.1700   22.5410 H   0  0  0  0  0  0  0  0  0  0  0  0
  -21.2990  -13.2940   22.5880 H   0  0  0  0  0  0  0  0  0  0  0  0
  -25.1950  -15.4650   20.0580 N   0  0  0  0  0  0  0  0  0  0  0  0
  -24.4640  -16.1080   20.3410 H   0  0  0  0  0  0  0  0  0  0  0  0
  -25.9740  -15.9300   19.6110 H   0  0  0  0  0  0  0  0  0  0  0  0
  -29.7700  -22.4180   21.5860 C   0  0  0  0  0  3  0  0  0  0  0  0
  -29.5890  -23.3280   20.6020 C   0  0  0  0  0  3  0  0  0  0  0  0
  -29.5090  -24.7780   20.8970 C   0  0  0  0  0  0  0  0  0  0  0  0
  -29.9380  -25.2640   21.9500 O   0  0  0  0  0  0  0  0  0  0  0  0
  -28.8560  -25.6960   19.8470 C   0  0  0  0  0  2  0  0  0  0  0  0
  -28.7750  -27.0580   20.3180 O   0  0  0  0  0  0  0  0  0  0  0  0
  -24.6830  -32.0150   23.3690 C   0  0  0  0  0  0  0  0  0  0  0  0
  -27.5570  -27.7090   20.2860 C   0  0  0  0  0  0  0  0  0  0  0  0
  -23.5560  -30.5610   21.7170 C   0  0  0  0  0  3  0  0  0  0  0  0
  -25.0890  -29.1050   20.2930 C   0  0  0  0  0  0  0  0  0  0  0  0
  -26.0630  -31.0380   21.5380 C   0  0  0  0  0  2  0  0  0  0  0  0
  -26.2170  -29.6760   20.8940 C   0  0  0  0  0  0  0  0  0  0  0  0
  -27.4510  -28.9840   20.8920 C   0  0  0  0  0  3  0  0  0  0  0  0
  -26.4090  -27.1660   19.6580 C   0  0  0  0  0  3  0  0  0  0  0  0
  -25.1810  -27.8480   19.6730 C   0  0  0  0  0  3  0  0  0  0  0  0
  -23.8060  -29.9030   20.3340 C   0  0  0  0  0  2  0  0  0  0  0  0
  -24.7830  -31.2210   22.2660 N   0  0  0  0  0  0  0  0  0  0  0  0
  -23.5870  -32.2320   23.9030 O   0  0  0  0  0  0  0  0  0  0  0  0
  -22.9550  -29.5020   22.6680 C   0  0  0  0  0  0  0  0  0  0  0  0
  -21.6580  -29.2010   22.4880 N   0  0  0  0  0  0  0  0  0  0  0  0
  -23.6520  -28.9530   23.5270 O   0  0  0  0  0  0  0  0  0  0  0  0
  -21.1520  -29.7060   21.7730 H   0  0  0  0  0  0  0  0  0  0  0  0
  -18.3980  -27.6810   22.8220 C   0  0  0  0  0  0  0  0  0  0  0  0
  -20.8920  -28.2100   23.2430 C   0  0  0  0  0  3  0  0  0  0  0  0
  -21.1770  -26.7790   22.7310 C   0  0  0  0  0  2  0  0  0  0  0  0
  -20.1820  -26.3090   21.6660 C   0  0  0  0  0  2  0  0  0  0  0  0
  -18.7520  -26.3340   22.2140 C   0  0  0  0  0  2  0  0  0  0  0  0
  -19.4030  -28.5670   23.2910 C   0  0  0  0  0  0  0  0  0  0  0  0
  -19.0200  -29.8210   23.8160 C   0  0  0  0  0  3  0  0  0  0  0  0
  -17.6650  -30.1910   23.8780 C   0  0  0  0  0  3  0  0  0  0  0  0
  -16.6720  -29.3040   23.4260 C   0  0  0  0  0  3  0  0  0  0  0  0
  -17.0390  -28.0510   22.9030 C   0  0  0  0  0  3  0  0  0  0  0  0
  -25.9350  -32.7070   23.9940 C   0  0  0  0  0  3  0  0  0  0  0  0
  -25.5850  -34.1120   24.2400 N   0  0  0  0  0  0  0  0  0  0  0  0
  -25.8980  -35.1270   23.4250 C   0  0  0  0  0  0  0  0  0  0  0  0
  -26.5850  -34.9830   22.4100 O   0  0  0  0  0  0  0  0  0  0  0  0
  -24.9780  -34.2970   25.0250 H   0  0  0  0  0  0  0  0  0  0  0  0
  -24.1260  -36.8450   22.9440 C   0  0  0  0  0  1  0  0  0  0  0  0
  -25.3650  -36.5250   23.7940 C   0  0  0  0  0  3  0  0  0  0  0  0
  -27.4610  -37.5200   24.5990 C   0  0  0  0  0  1  0  0  0  0  0  0
  -26.3690  -37.6000   23.6320 N   0  0  0  0  0  0  0  0  0  0  0  0
  -25.9350  -38.5150   23.7210 H   0  0  0  0  0  0  0  0  0  0  0  0
  -26.4290  -32.0130   25.3220 C   0  0  1  0  0  0  0  0  0  0  0  0
  -25.3000  -31.7640   26.3480 C   0  0  0  0  0  1  0  0  0  0  0  0
  -27.0970  -30.6530   25.0140 C   0  0  0  0  0  1  0  0  0  0  0  0
  -27.5090  -32.8910   26.0000 C   0  0  0  0  0  1  0  0  0  0  0  0
  1  5  1  0
  3  1  2  0
  3  6  1  0
  4  2  1  0
  5 48  1  0
  5  2  2  0
  6  4  2  0
  8  7  1  0
  9  7  1  0
 10  8  1  0
 10  6  1  0
 10  9  1  0
 10 11  1  6
 12 11  1  0
 13 18  1  0
 14 15  1  0
 14 13  1  0
 16 15  1  0
 16 23  1  0
 16 17  1  0
 18 12  1  0
 18 17  1  0
 19 12  2  0
 20 21  2  0
 21 40  1  0
 22 21  1  0
 22 25  1  0
 23 24  1  0
 23 20  1  0
 24 22  2  0
 25 26  1  0
 26 27  2  0
 28 31  1  0
 28 27  1  0
 29 28  2  0
 30 29  1  0
 30 25  2  0
 31 32  1  0
 32 33  1  0
 33 34  2  0
 35 34  1  0
 35 39  1  0
 36 35  2  0
 37 32  2  0
 37 36  1  0
 38 37  1  0
 40 41  1  0
 41 43  1  0
 41 44  1  0
 42 40  2  0
 45 20  1  0
 45 46  1  0
 47 45  1  0
 49 50  1  0
 49 48  2  0
 50 51  2  0
 52 53  1  0
 52 50  1  0
 54 65  2  0
 55 53  1  0
 55 60  1  0
 56 64  1  0
 56 66  1  0
 57 63  1  0
 57 59  1  0
 58 64  1  0
 59 58  1  0
 60 59  2  0
 61 62  1  0
 61 55  2  0
 62 57  2  0
 63 56  1  0
 64 54  1  0
 66 68  2  0
 67 66  1  0
 69 67  1  0
 70 79  2  0
 70 75  1  0
 71 67  1  0
 71 75  1  0
 72 71  1  0
 73 74  1  0
 73 72  1  0
 74 70  1  0
 75 76  2  0
 76 77  1  0
 78 77  2  0
 79 78  1  0
 80 54  1  0
 80 81  1  0
 80 90  1  0
 81 84  1  0
 82 86  1  0
 82 81  1  0
 83 82  2  0
 86 85  1  0
 88 89  1  0
 88 86  1  0
 88 87  1  0
 90 93  1  1
 90 91  1  0
 92 90  1  0
M  ISO  4  11 100  12 100  52 101  53 101
M  END
>  <TORSDO>  (57) 
F 21

>  <SCORE>  (57) 
-5.820

>  <name>  (57) 
56

>  <ligand_id>  (57) 
56

>  <original_smiles>  (57) 
[H]C(C(=O)C([H])([H])Oc1c([H])c([H])c2c(c1[H])C([H])([H])N(C(=O)C([H])(N([H])C(=O)C([H])(N([H])C([H])([H])[H])C([H])([H])[H])C(C([H])([H])[H])(C([H])([H])[H])C([H])([H])[H])C([H])(C(=O)N([H])C1([H])c3c([H])c([H])c([H])c([H])c3C([H])([H])C([H])([H])C1([H])[H])C2([H])[H])=C([H])c1c([H])c([H])c(C2(C([H])([H])C(=O)N3C([H])([H])C([H])([H])C([H])([H])C([H])(n4nc(-c5c([H])c([H])c(Oc6c([H])c([H])c(F)c([H])c6F)c([H])c5[H])c(C(=O)N([H])[H])c4N([H])[H])C3([H])[H])C([H])([H])C([H])([H])C2([H])[H])c([H])c1[H]

>  <smiles>  (57) 
[H]C(C(=O)C([H])([H])Oc1c([H])c([H])c2c(c1[H])C([H])([H])N(C(=O)C([H])(N([H])C(=O)C([H])(N([H])C([H])([H])[H])C([H])([H])[H])C(C([H])([H])[H])(C([H])([H])[H])C([H])([H])[H])C([H])(C(=O)N([H])C1([H])c3c([H])c([H])c([H])c([H])c3C([H])([H])C([H])([H])C1([H])[H])C2([H])[H])=C([H])c1c([H])c([H])c(C2(C([H])([H])C(=O)N3C([H])([H])C([H])([H])C([H])([H])C([H])(n4nc(-c5c([H])c([H])c(Oc6c([H])c([H])c(F)c([H])c6F)c([H])c5[H])c(C(=O)N([H])[H])c4N([H])[H])C3([H])[H])C([H])([H])C([H])([H])C2([H])[H])c([H])c1[H]

$$$$
57:0:0
     RDKit          3D

 98106  0  0  1  0  0  0  0  0999 V2000
  -30.6360  -20.8780   23.0310 C   0  0  0  0  0  3  0  0  0  0  0  0
  -29.3120  -18.7940   26.6290 C   0  0  0  0  0  3  0  0  0  0  0  0
  -28.3620  -19.2830   25.7130 C   0  0  0  0  0  3  0  0  0  0  0  0
  -30.6830  -18.9870   26.3810 C   0  0  0  0  0  3  0  0  0  0  0  0
  -28.7770  -19.9610   24.5530 C   0  0  0  0  0  3  0  0  0  0  0  0
  -31.1000  -19.6590   25.2180 C   0  0  0  0  0  3  0  0  0  0  0  0
  -30.1510  -20.1530   24.2930 C   0  0  0  0  0  0  0  0  0  0  0  0
  -31.0690  -19.9100   21.9030 C   0  0  0  0  0  0  0  0  0  0  0  0
  -30.8630  -18.5950   22.0680 N   0  0  0  0  0  0  0  0  0  0  0  0
  -31.6480  -20.3560   20.9100 O   0  0  0  0  0  0  0  0  0  0  0  0
  -30.3490  -18.3180   22.8960 H   0  0  0  0  0  0  0  0  0  0  0  0
  -31.4590  -17.5490   21.2400 C   0  0  0  0  0  2  0  0  0  0  0  0
  -31.4600  -16.1950   21.9760 C   0  0  0  0  0  2  0  0  0  0  0  0
  -30.3350  -15.2240   21.5490 C   0  0  0  0  0  2  0  0  0  0  0  0
  -30.6850  -14.3410   20.3340 C   0  0  0  0  0  0  0  0  0  0  0  0
  -30.3100  -12.2580   19.0510 C   0  0  0  0  0  2  0  0  0  0  0  0
  -29.3400  -12.4640   17.8750 C   0  0  0  0  0  2  0  0  0  0  0  0
  -27.8810  -12.3030   18.3430 C   0  0  0  0  0  2  0  0  0  0  0  0
  -27.5680  -13.1480   19.6040 C   0  0  0  0  0  3  0  0  0  0  0  0
  -28.6400  -12.9300   20.6930 C   0  0  0  0  0  2  0  0  0  0  0  0
  -29.9590  -13.2160   20.1080 N   0  0  0  0  0  0  0  0  0  0  0  0
  -31.6550  -14.6490   19.6320 O   0  0  0  0  0  0  0  0  0  0  0  0
  -25.1820  -13.7580   20.3600 C   0  0  0  0  0  0  0  0  0  0  0  0
  -24.1210  -12.9830   20.7470 C   0  0  0  0  0  0  0  0  0  0  0  0
  -24.5810  -11.6330   20.6970 C   0  0  0  0  0  0  0  0  0  0  0  0
  -26.2230  -12.8770   20.1060 N   0  0  0  0  0  0  0  0  0  0  0  0
  -25.8640  -11.5940   20.3640 N   0  0  0  0  0  0  0  0  0  0  0  0
  -23.8580  -10.3690   20.8980 C   0  0  0  0  0  0  0  0  0  0  0  0
  -24.2890   -9.4140   21.8460 C   0  0  0  0  0  3  0  0  0  0  0  0
  -23.5680   -8.2150   22.0320 C   0  0  0  0  0  3  0  0  0  0  0  0
  -22.4020   -7.9620   21.2700 C   0  0  0  0  0  0  0  0  0  0  0  0
  -21.9910   -8.9050   20.3130 C   0  0  0  0  0  3  0  0  0  0  0  0
  -22.7120  -10.0970   20.1260 C   0  0  0  0  0  3  0  0  0  0  0  0
  -21.6530   -6.8150   21.3650 O   0  0  0  0  0  0  0  0  0  0  0  0
  -21.5790   -6.0970   22.5320 C   0  0  0  0  0  0  0  0  0  0  0  0
  -21.1270   -6.6790   23.7370 C   0  0  0  0  0  3  0  0  0  0  0  0
  -21.0000   -5.8890   24.8960 C   0  0  0  0  0  3  0  0  0  0  0  0
  -21.3140   -4.5180   24.8530 C   0  0  0  0  0  0  0  0  0  0  0  0
  -21.7600   -3.9350   23.6530 C   0  0  0  0  0  3  0  0  0  0  0  0
  -21.8890   -4.7230   22.4950 C   0  0  0  0  0  0  0  0  0  0  0  0
  -22.2980   -4.1520   21.3370 F   0  0  0  0  0  0  0  0  0  0  0  0
  -21.1860   -3.7560   25.9640 F   0  0  0  0  0  0  0  0  0  0  0  0
  -22.7290  -13.4600   21.0510 C   0  0  0  0  0  0  0  0  0  0  0  0
  -22.0250  -12.7670   21.9400 N   0  0  0  0  0  0  0  0  0  0  0  0
  -22.2750  -14.4800   20.5360 O   0  0  0  0  0  0  0  0  0  0  0  0
  -22.4040  -11.9410   22.3780 H   0  0  0  0  0  0  0  0  0  0  0  0
  -21.0940  -13.0690   22.1870 H   0  0  0  0  0  0  0  0  0  0  0  0
  -25.3450  -15.1280   20.1850 N   0  0  0  0  0  0  0  0  0  0  0  0
  -24.5870  -15.7890   20.3210 H   0  0  0  0  0  0  0  0  0  0  0  0
  -26.1990  -15.5670   19.8590 H   0  0  0  0  0  0  0  0  0  0  0  0
  -29.7440  -22.0800   22.5940 C   0  0  0  0  0  2  0  0  0  0  0  0
  -28.7890  -21.8970   21.4000 C   0  0  0  0  0  0  0  0  0  0  0  0
  -28.5790  -22.9140   20.5550 N   0  0  0  0  0  0  0  0  0  0  0  0
  -28.2090  -20.8300   21.2110 O   0  0  0  0  0  0  0  0  0  0  0  0
  -27.9440  -22.7250   19.7910 H   0  0  0  0  0  0  0  0  0  0  0  0
  -29.0310  -24.3010   20.6660 C   0  0  0  0  0  2  0  0  0  0  0  0
  -27.9820  -25.1920   20.0010 C   0  0  0  0  0  2  0  0  0  0  0  0
  -28.2500  -26.5940   20.1360 O   0  0  0  0  0  0  0  0  0  0  0  0
  -24.9000  -31.8700   23.5120 C   0  0  0  0  0  0  0  0  0  0  0  0
  -27.1380  -27.4130   20.1540 C   0  0  0  0  0  0  0  0  0  0  0  0
  -23.5490  -30.6180   21.8630 C   0  0  0  0  0  3  0  0  0  0  0  0
  -24.8500  -29.0700   20.3140 C   0  0  0  0  0  0  0  0  0  0  0  0
  -26.0890  -30.8250   21.5880 C   0  0  0  0  0  2  0  0  0  0  0  0
  -26.0610  -29.4860   20.8850 C   0  0  0  0  0  0  0  0  0  0  0  0
  -27.2070  -28.6630   20.8060 C   0  0  0  0  0  3  0  0  0  0  0  0
  -25.9130  -27.0340   19.5470 C   0  0  0  0  0  3  0  0  0  0  0  0
  -24.7730  -27.8420   19.6390 C   0  0  0  0  0  3  0  0  0  0  0  0
  -23.6630  -29.9940   20.4490 C   0  0  0  0  0  2  0  0  0  0  0  0
  -24.8650  -31.1170   22.3750 N   0  0  0  0  0  0  0  0  0  0  0  0
  -23.8580  -32.1840   24.1020 O   0  0  0  0  0  0  0  0  0  0  0  0
  -22.8760  -29.5920   22.8020 C   0  0  0  0  0  0  0  0  0  0  0  0
  -21.5590  -29.3950   22.6240 N   0  0  0  0  0  0  0  0  0  0  0  0
  -23.5350  -28.9760   23.6440 O   0  0  0  0  0  0  0  0  0  0  0  0
  -21.0930  -29.9420   21.9120 H   0  0  0  0  0  0  0  0  0  0  0  0
  -18.2060  -28.0820   22.9080 C   0  0  0  0  0  0  0  0  0  0  0  0
  -20.7220  -28.4560   23.3680 C   0  0  0  0  0  3  0  0  0  0  0  0
  -20.9250  -27.0070   22.8640 C   0  0  0  0  0  2  0  0  0  0  0  0
  -19.9200  -26.5980   21.7830 C   0  0  0  0  0  2  0  0  0  0  0  0
  -18.4870  -26.7140   22.3090 C   0  0  0  0  0  2  0  0  0  0  0  0
  -19.2580  -28.9070   23.3890 C   0  0  0  0  0  0  0  0  0  0  0  0
  -18.9460  -30.1830   23.9020 C   0  0  0  0  0  3  0  0  0  0  0  0
  -17.6150  -30.6390   23.9430 C   0  0  0  0  0  3  0  0  0  0  0  0
  -16.5760  -29.8150   23.4800 C   0  0  0  0  0  3  0  0  0  0  0  0
  -16.8720  -28.5380   22.9670 C   0  0  0  0  0  3  0  0  0  0  0  0
  -26.2430  -32.3920   24.1060 C   0  0  0  0  0  3  0  0  0  0  0  0
  -26.7840  -31.5080   25.2960 C   0  0  1  0  0  0  0  0  0  0  0  0
  -25.7280  -31.2280   26.3910 C   0  0  0  0  0  1  0  0  0  0  0  0
  -27.2980  -30.1470   24.7720 C   0  0  0  0  0  1  0  0  0  0  0  0
  -27.9880  -32.2120   25.9640 C   0  0  0  0  0  1  0  0  0  0  0  0
  -26.0210  -33.7740   24.5460 N   0  0  0  0  0  0  0  0  0  0  0  0
  -26.3830  -34.8620   23.8550 C   0  0  0  0  0  0  0  0  0  0  0  0
  -27.0140  -34.8030   22.7960 O   0  0  0  0  0  0  0  0  0  0  0  0
  -25.4660  -33.9000   25.3780 H   0  0  0  0  0  0  0  0  0  0  0  0
  -24.7450  -36.7630   23.6820 C   0  0  0  0  0  1  0  0  0  0  0  0
  -25.9830  -36.2360   24.4260 C   0  0  0  0  0  3  0  0  0  0  0  0
  -28.1820  -36.9440   25.2530 C   0  0  0  0  0  1  0  0  0  0  0  0
  -27.0660  -37.2410   24.3590 N   0  0  0  0  0  0  0  0  0  0  0  0
  -26.7160  -38.1670   24.5870 H   0  0  0  0  0  0  0  0  0  0  0  0
  1 51  1  0
  1  7  1  0
  3  2  2  0
  4  2  1  0
  5  3  1  0
  6  4  2  0
  7  5  2  0
  7  6  1  0
  8  9  1  0
  8  1  1  0
  9 11  1  0
 10  8  2  0
 12 13  1  0
 12  9  1  0
 14 13  1  0
 15 14  1  0
 16 21  1  0
 17 18  1  0
 17 16  1  0
 19 18  1  0
 19 26  1  0
 19 20  1  0
 21 15  1  0
 21 20  1  0
 22 15  2  0
 23 24  2  0
 24 43  1  0
 25 24  1  0
 25 28  1  0
 26 23  1  0
 26 27  1  0
 27 25  2  0
 28 29  1  0
 29 30  2  0
 31 34  1  0
 31 30  1  0
 32 31  2  0
 33 32  1  0
 33 28  2  0
 34 35  1  0
 35 36  1  0
 36 37  2  0
 38 37  1  0
 38 42  1  0
 39 38  2  0
 40 35  2  0
 40 39  1  0
 41 40  1  0
 43 44  1  0
 44 47  1  0
 44 46  1  0
 45 43  2  0
 48 49  1  0
 48 23  1  0
 50 48  1  0
 52 51  1  0
 53 56  1  0
 53 52  1  0
 54 52  2  0
 55 53  1  0
 57 58  1  0
 57 56  1  0
 58 60  1  0
 59 70  2  0
 60 65  1  0
 61 69  1  0
 61 71  1  0
 62 68  1  0
 62 64  1  0
 63 69  1  0
 64 63  1  0
 65 64  2  0
 66 67  1  0
 66 60  2  0
 67 62  2  0
 68 61  1  0
 69 59  1  0
 71 73  2  0
 72 71  1  0
 74 72  1  0
 75 84  2  0
 75 80  1  0
 76 72  1  0
 76 80  1  0
 77 76  1  0
 78 79  1  0
 78 77  1  0
 79 75  1  0
 80 81  2  0
 81 82  1  0
 83 82  2  0
 84 83  1  0
 85 59  1  0
 85 90  1  0
 85 86  1  0
 86 89  1  1
 86 87  1  0
 88 86  1  0
 90 93  1  0
 91 95  1  0
 91 90  1  0
 92 91  2  0
 95 94  1  0
 97 95  1  0
 97 98  1  0
 97 96  1  0
M  ISO  4  14 100  15 100  57 101  58 101
M  END
>  <TORSDO>  (58) 
F 25

>  <SCORE>  (58) 
2.737

>  <name>  (58) 
57

>  <ligand_id>  (58) 
57

>  <original_smiles>  (58) 
[H]c1c([H])c([H])c(C([H])(C(=O)N([H])C([H])([H])C([H])([H])C([H])([H])C(=O)N2C([H])([H])C([H])([H])C([H])([H])C([H])(n3nc(-c4c([H])c([H])c(Oc5c([H])c([H])c(F)c([H])c5F)c([H])c4[H])c(C(=O)N([H])[H])c3N([H])[H])C2([H])[H])C([H])([H])C(=O)N([H])C([H])([H])C([H])([H])Oc2c([H])c([H])c3c(c2[H])C([H])([H])N(C(=O)C([H])(N([H])C(=O)C([H])(N([H])C([H])([H])[H])C([H])([H])[H])C(C([H])([H])[H])(C([H])([H])[H])C([H])([H])[H])C([H])(C(=O)N([H])C2([H])c4c([H])c([H])c([H])c([H])c4C([H])([H])C([H])([H])C2([H])[H])C3([H])[H])c([H])c1[H]

>  <smiles>  (58) 
[H]c1c([H])c([H])c(C([H])(C(=O)N([H])C([H])([H])C([H])([H])C([H])([H])C(=O)N2C([H])([H])C([H])([H])C([H])([H])C([H])(n3nc(-c4c([H])c([H])c(Oc5c([H])c([H])c(F)c([H])c5F)c([H])c4[H])c(C(=O)N([H])[H])c3N([H])[H])C2([H])[H])C([H])([H])C(=O)N([H])C([H])([H])C([H])([H])Oc2c([H])c([H])c3c(c2[H])C([H])([H])N(C(=O)C([H])(N([H])C(=O)C([H])(N([H])C([H])([H])[H])C([H])([H])[H])C(C([H])([H])[H])(C([H])([H])[H])C([H])([H])[H])C([H])(C(=O)N([H])C2([H])c4c([H])c([H])c([H])c([H])c4C([H])([H])C([H])([H])C2([H])[H])C3([H])[H])c([H])c1[H]

$$$$
58:0:0
     RDKit          3D

 96104  0  0  1  0  0  0  0  0999 V2000
  -27.9700  -21.1840   21.4990 C   0  0  0  0  0  3  0  0  0  0  0  0
  -28.7280  -20.0190   21.2860 C   0  0  0  0  0  3  0  0  0  0  0  0
  -29.9460  -21.1530   19.5100 C   0  0  0  0  0  3  0  0  0  0  0  0
  -28.2150  -22.3590   20.7580 C   0  0  0  0  0  0  0  0  0  0  0  0
  -29.7380  -19.9900   20.3040 C   0  0  0  0  0  0  0  0  0  0  0  0
  -29.2130  -22.3540   19.7410 C   0  0  0  0  0  0  0  0  0  0  0  0
  -27.4670  -23.6010   21.1530 C   0  0  0  0  0  0  0  0  0  0  0  0
  -28.0670  -24.3380   22.0760 N   0  0  0  0  0  0  0  0  0  0  0  0
  -26.3710  -23.8890   20.6810 O   0  0  0  0  0  0  0  0  0  0  0  0
  -28.9730  -24.0600   22.4210 H   0  0  0  0  0  0  0  0  0  0  0  0
  -27.6310  -25.1730   22.4380 H   0  0  0  0  0  0  0  0  0  0  0  0
  -30.7150  -18.7970   20.2660 C   0  0  0  0  0  2  0  0  0  0  0  0
  -31.0330  -17.5140   18.1430 C   0  0  0  0  0  1  0  0  0  0  0  0
  -28.8260  -17.3320   19.2570 C   0  0  0  0  0  1  0  0  0  0  0  0
  -30.3410  -17.4490   19.5260 C   0  0  2  0  0  0  0  0  0  0  0  0
  -30.8340  -16.2110   20.4020 C   0  0  0  0  0  2  0  0  0  0  0  0
  -31.2890  -14.8750   19.7210 C   0  0  0  0  0  0  0  0  0  0  0  0
  -30.9440  -12.5590   18.9110 C   0  0  0  0  0  2  0  0  0  0  0  0
  -29.9480  -12.5370   17.7350 C   0  0  0  0  0  2  0  0  0  0  0  0
  -28.5020  -12.4360   18.2560 C   0  0  0  0  0  2  0  0  0  0  0  0
  -28.1960  -13.4660   19.3790 C   0  0  0  0  0  3  0  0  0  0  0  0
  -29.3090  -13.4610   20.4510 C   0  0  0  0  0  2  0  0  0  0  0  0
  -30.5940  -13.7000   19.7790 N   0  0  0  0  0  0  0  0  0  0  0  0
  -32.3590  -14.9270   19.1090 O   0  0  0  0  0  0  0  0  0  0  0  0
  -25.9170  -14.1750   20.3370 C   0  0  0  0  0  0  0  0  0  0  0  0
  -24.8310  -13.4520   20.7480 C   0  0  0  0  0  0  0  0  0  0  0  0
  -25.1920  -12.0790   20.5940 C   0  0  0  0  0  0  0  0  0  0  0  0
  -26.8750  -13.2460   19.9620 N   0  0  0  0  0  0  0  0  0  0  0  0
  -26.4470  -11.9750   20.1770 N   0  0  0  0  0  0  0  0  0  0  0  0
  -24.3930  -10.8570   20.7650 C   0  0  0  0  0  0  0  0  0  0  0  0
  -24.8120   -9.8130   21.6190 C   0  0  0  0  0  3  0  0  0  0  0  0
  -24.0180   -8.6580   21.7800 C   0  0  0  0  0  3  0  0  0  0  0  0
  -22.7900   -8.5390   21.0880 C   0  0  0  0  0  0  0  0  0  0  0  0
  -22.3900   -9.5700   20.2200 C   0  0  0  0  0  3  0  0  0  0  0  0
  -23.1830  -10.7170   20.0570 C   0  0  0  0  0  3  0  0  0  0  0  0
  -21.9640   -7.4450   21.1650 O   0  0  0  0  0  0  0  0  0  0  0  0
  -21.8930   -6.6760   22.3000 C   0  0  0  0  0  0  0  0  0  0  0  0
  -21.5230   -7.2230   23.5490 C   0  0  0  0  0  3  0  0  0  0  0  0
  -21.3960   -6.3840   24.6730 C   0  0  0  0  0  3  0  0  0  0  0  0
  -21.6280   -5.0010   24.5530 C   0  0  0  0  0  0  0  0  0  0  0  0
  -21.9930   -4.4550   23.3080 C   0  0  0  0  0  3  0  0  0  0  0  0
  -22.1220   -5.2900   22.1850 C   0  0  0  0  0  0  0  0  0  0  0  0
  -22.4510   -4.7570   20.9840 F   0  0  0  0  0  0  0  0  0  0  0  0
  -21.5000   -4.1930   25.6300 F   0  0  0  0  0  0  0  0  0  0  0  0
  -23.5000  -14.0010   21.1750 C   0  0  0  0  0  0  0  0  0  0  0  0
  -22.8160  -13.3100   22.0790 N   0  0  0  0  0  0  0  0  0  0  0  0
  -23.0860  -15.0750   20.7430 O   0  0  0  0  0  0  0  0  0  0  0  0
  -23.1730  -12.4410   22.4500 H   0  0  0  0  0  0  0  0  0  0  0  0
  -21.9260  -13.6550   22.4080 H   0  0  0  0  0  0  0  0  0  0  0  0
  -26.1600  -15.5410   20.2300 N   0  0  0  0  0  0  0  0  0  0  0  0
  -25.4570  -16.2350   20.4560 H   0  0  0  0  0  0  0  0  0  0  0  0
  -27.0200  -15.9430   19.8830 H   0  0  0  0  0  0  0  0  0  0  0  0
  -29.6440  -23.6590   19.0480 C   0  0  0  0  0  2  0  0  0  0  0  0
  -28.5570  -24.4910   18.3120 C   0  0  0  0  0  2  0  0  0  0  0  0
  -28.6820  -26.0050   18.6350 C   0  0  0  0  0  2  0  0  0  0  0  0
  -27.9870  -26.8430   17.7090 O   0  0  0  0  0  0  0  0  0  0  0  0
  -25.0940  -30.8560   22.8770 C   0  0  0  0  0  0  0  0  0  0  0  0
  -26.9080  -27.5330   18.2050 C   0  0  0  0  0  0  0  0  0  0  0  0
  -23.5620  -30.1080   21.0820 C   0  0  0  0  0  3  0  0  0  0  0  0
  -24.6770  -29.0400   19.0500 C   0  0  0  0  0  0  0  0  0  0  0  0
  -26.0620  -30.4000   20.6270 C   0  0  0  0  0  2  0  0  0  0  0  0
  -25.9420  -29.2990   19.5940 C   0  0  0  0  0  0  0  0  0  0  0  0
  -27.0640  -28.5480   19.1760 C   0  0  0  0  0  3  0  0  0  0  0  0
  -25.6330  -27.2790   17.6700 C   0  0  0  0  0  3  0  0  0  0  0  0
  -24.5150  -28.0260   18.0890 C   0  0  0  0  0  3  0  0  0  0  0  0
  -23.5290  -29.8930   19.5450 C   0  0  0  0  0  2  0  0  0  0  0  0
  -24.9320  -30.4520   21.5850 N   0  0  0  0  0  0  0  0  0  0  0  0
  -24.1210  -30.9880   23.6330 O   0  0  0  0  0  0  0  0  0  0  0  0
  -22.9520  -28.8650   21.7680 C   0  0  0  0  0  0  0  0  0  0  0  0
  -21.6170  -28.7440   21.7060 N   0  0  0  0  0  0  0  0  0  0  0  0
  -23.6750  -28.0240   22.3110 O   0  0  0  0  0  0  0  0  0  0  0  0
  -21.0990  -29.4750   21.2380 H   0  0  0  0  0  0  0  0  0  0  0  0
  -18.2660  -27.4310   22.0020 C   0  0  0  0  0  0  0  0  0  0  0  0
  -20.8300  -27.6370   22.2440 C   0  0  0  0  0  3  0  0  0  0  0  0
  -20.9180  -26.3980   21.3230 C   0  0  0  0  0  2  0  0  0  0  0  0
  -19.7800  -26.3280   20.3000 C   0  0  0  0  0  2  0  0  0  0  0  0
  -18.4210  -26.2960   21.0030 C   0  0  0  0  0  2  0  0  0  0  0  0
  -19.3970  -28.0700   22.5730 C   0  0  0  0  0  0  0  0  0  0  0  0
  -19.2010  -29.1420   23.4690 C   0  0  0  0  0  3  0  0  0  0  0  0
  -17.9040  -29.5770   23.7990 C   0  0  0  0  0  3  0  0  0  0  0  0
  -16.7870  -28.9310   23.2440 C   0  0  0  0  0  3  0  0  0  0  0  0
  -16.9670  -27.8590   22.3520 C   0  0  0  0  0  3  0  0  0  0  0  0
  -26.5020  -31.1950   23.4580 C   0  0  0  0  0  3  0  0  0  0  0  0
  -26.3590  -32.4000   24.2850 N   0  0  0  0  0  0  0  0  0  0  0  0
  -26.7670  -33.6240   23.9260 C   0  0  0  0  0  0  0  0  0  0  0  0
  -27.3800  -33.8440   22.8770 O   0  0  0  0  0  0  0  0  0  0  0  0
  -25.8210  -32.3020   25.1330 H   0  0  0  0  0  0  0  0  0  0  0  0
  -25.2650  -35.5980   24.3270 C   0  0  0  0  0  1  0  0  0  0  0  0
  -26.4470  -34.7900   24.8810 C   0  0  0  0  0  3  0  0  0  0  0  0
  -28.6640  -35.0640   25.8980 C   0  0  0  0  0  1  0  0  0  0  0  0
  -27.5970  -35.6870   25.1200 N   0  0  0  0  0  0  0  0  0  0  0  0
  -27.3030  -36.5310   25.6030 H   0  0  0  0  0  0  0  0  0  0  0  0
  -27.1280  -30.0130   24.2960 C   0  0  1  0  0  0  0  0  0  0  0  0
  -26.1800  -29.4590   25.3840 C   0  0  0  0  0  1  0  0  0  0  0  0
  -27.5310  -28.8410   23.3710 C   0  0  0  0  0  1  0  0  0  0  0  0
  -28.4230  -30.4940   24.9920 C   0  0  0  0  0  1  0  0  0  0  0  0
  2  1  1  0
  3  6  2  0
  3  5  1  0
  4  7  1  0
  4  1  2  0
  5  2  2  0
  6  4  1  0
  7  8  1  0
  8 10  1  0
  8 11  1  0
  9  7  2  0
 12  5  1  0
 15 13  1  6
 14 15  1  0
 15 12  1  0
 15 16  1  0
 17 23  1  0
 17 16  1  0
 18 23  1  0
 19 20  1  0
 19 18  1  0
 21 20  1  0
 21 28  1  0
 21 22  1  0
 23 22  1  0
 24 17  2  0
 25 26  2  0
 26 45  1  0
 27 26  1  0
 27 30  1  0
 28 29  1  0
 28 25  1  0
 29 27  2  0
 30 31  1  0
 31 32  2  0
 33 36  1  0
 33 32  1  0
 34 33  2  0
 35 34  1  0
 35 30  2  0
 36 37  1  0
 37 38  1  0
 38 39  2  0
 40 39  1  0
 40 44  1  0
 41 40  2  0
 42 37  2  0
 42 41  1  0
 43 42  1  0
 45 46  1  0
 46 49  1  0
 46 48  1  0
 47 45  2  0
 50 25  1  0
 50 51  1  0
 52 50  1  0
 53  6  1  0
 54 55  1  0
 54 53  1  0
 56 58  1  0
 56 55  1  0
 57 68  2  0
 58 63  1  0
 59 67  1  0
 59 69  1  0
 60 66  1  0
 60 62  1  0
 61 67  1  0
 62 61  1  0
 63 62  2  0
 64 65  1  0
 64 58  2  0
 65 60  2  0
 66 59  1  0
 67 57  1  0
 69 71  2  0
 70 69  1  0
 72 70  1  0
 73 82  2  0
 73 78  1  0
 74 70  1  0
 74 78  1  0
 75 74  1  0
 76 77  1  0
 76 75  1  0
 77 73  1  0
 78 79  2  0
 79 80  1  0
 81 80  2  0
 82 81  1  0
 83 57  1  0
 83 84  1  0
 83 93  1  0
 84 87  1  0
 85 84  1  0
 85 89  1  0
 86 85  2  0
 89 88  1  0
 89 91  1  0
 91 92  1  0
 91 90  1  0
 93 96  1  1
 93 94  1  0
 95 93  1  0
M  ISO  4  16 100  17 100  55 101  56 101
M  END
>  <TORSDO>  (59) 
F 23

>  <SCORE>  (59) 
-9.357

>  <name>  (59) 
58

>  <ligand_id>  (59) 
58

>  <original_smiles>  (59) 
[H]c1c([H])c([H])c2c(c1[H])C([H])([H])C([H])([H])C([H])([H])C2([H])N([H])C(=O)C1([H])N(C(=O)C([H])(N([H])C(=O)C([H])(N([H])C([H])([H])[H])C([H])([H])[H])C(C([H])([H])[H])(C([H])([H])[H])C([H])([H])[H])C([H])([H])c2c([H])c(OC([H])([H])C([H])([H])C([H])([H])c3c([H])c(C([H])([H])C(C([H])([H])[H])(C([H])([H])[H])C([H])([H])C(=O)N4C([H])([H])C([H])([H])C([H])([H])C([H])(n5nc(-c6c([H])c([H])c(Oc7c([H])c([H])c(F)c([H])c7F)c([H])c6[H])c(C(=O)N([H])[H])c5N([H])[H])C4([H])[H])c([H])c([H])c3C(=O)N([H])[H])c([H])c([H])c2C1([H])[H]

>  <smiles>  (59) 
[H]c1c([H])c([H])c2c(c1[H])C([H])([H])C([H])([H])C([H])([H])C2([H])N([H])C(=O)C1([H])N(C(=O)C([H])(N([H])C(=O)C([H])(N([H])C([H])([H])[H])C([H])([H])[H])C(C([H])([H])[H])(C([H])([H])[H])C([H])([H])[H])C([H])([H])c2c([H])c(OC([H])([H])C([H])([H])C([H])([H])c3c([H])c(C([H])([H])C(C([H])([H])[H])(C([H])([H])[H])C([H])([H])C(=O)N4C([H])([H])C([H])([H])C([H])([H])C([H])(n5nc(-c6c([H])c([H])c(Oc7c([H])c([H])c(F)c([H])c7F)c([H])c6[H])c(C(=O)N([H])[H])c5N([H])[H])C4([H])[H])c([H])c([H])c3C(=O)N([H])[H])c([H])c([H])c2C1([H])[H]

$$$$
59:0:0
     RDKit          3D

 94102  0  0  1  0  0  0  0  0999 V2000
  -30.3480  -21.1510   21.2760 C   0  0  0  0  0  3  0  0  0  0  0  0
  -30.5570  -22.4080   21.7270 C   0  0  0  0  0  3  0  0  0  0  0  0
  -31.7800  -18.5490   23.6820 C   0  0  0  0  0  3  0  0  0  0  0  0
  -31.5020  -19.7990   23.0950 C   0  0  0  0  0  3  0  0  0  0  0  0
  -31.2010  -17.3710   23.1700 C   0  0  0  0  0  3  0  0  0  0  0  0
  -30.0260  -18.7000   21.5080 C   0  0  0  0  0  3  0  0  0  0  0  0
  -30.6400  -19.8820   21.9770 C   0  0  0  0  0  0  0  0  0  0  0  0
  -30.3170  -17.4330   22.0720 C   0  0  0  0  0  0  0  0  0  0  0  0
  -29.6540  -16.1470   21.5570 C   0  0  0  0  0  2  0  0  0  0  0  0
  -30.8830  -14.5560   20.0710 C   0  0  0  0  0  0  0  0  0  0  0  0
  -30.5440  -12.3970   18.9330 C   0  0  0  0  0  2  0  0  0  0  0  0
  -29.5780  -12.6050   17.7510 C   0  0  0  0  0  2  0  0  0  0  0  0
  -28.1090  -12.4920   18.2100 C   0  0  0  0  0  2  0  0  0  0  0  0
  -27.8070  -13.3270   19.4800 C   0  0  0  0  0  3  0  0  0  0  0  0
  -28.8850  -13.0850   20.5610 C   0  0  0  0  0  2  0  0  0  0  0  0
  -30.1980  -13.3840   19.9670 N   0  0  0  0  0  0  0  0  0  0  0  0
  -32.0180  -14.7000   19.6000 O   0  0  0  0  0  0  0  0  0  0  0  0
  -29.9930  -16.5830   19.1140 C   0  0  0  0  0  1  0  0  0  0  0  0
  -30.0990  -15.6480   20.2390 N   0  0  0  0  0  0  0  0  0  0  0  0
  -25.4330  -13.9640   20.2490 C   0  0  0  0  0  0  0  0  0  0  0  0
  -24.3660  -13.2030   20.6470 C   0  0  0  0  0  0  0  0  0  0  0  0
  -24.8120  -11.8460   20.6010 C   0  0  0  0  0  0  0  0  0  0  0  0
  -26.4610  -13.0710   19.9880 N   0  0  0  0  0  0  0  0  0  0  0  0
  -26.0920  -11.7920   20.2570 N   0  0  0  0  0  0  0  0  0  0  0  0
  -24.0750  -10.5920   20.8060 C   0  0  0  0  0  0  0  0  0  0  0  0
  -24.4820   -9.6500   21.7780 C   0  0  0  0  0  3  0  0  0  0  0  0
  -23.7520   -8.4580   21.9690 C   0  0  0  0  0  3  0  0  0  0  0  0
  -22.5990   -8.2000   21.1890 C   0  0  0  0  0  0  0  0  0  0  0  0
  -22.2120   -9.1290   20.2070 C   0  0  0  0  0  3  0  0  0  0  0  0
  -22.9440  -10.3130   20.0150 C   0  0  0  0  0  3  0  0  0  0  0  0
  -21.8370   -7.0620   21.2890 O   0  0  0  0  0  0  0  0  0  0  0  0
  -21.6960   -6.3930   22.4790 C   0  0  0  0  0  0  0  0  0  0  0  0
  -21.1750   -7.0220   23.6310 C   0  0  0  0  0  3  0  0  0  0  0  0
  -20.9830   -6.2770   24.8120 C   0  0  0  0  0  3  0  0  0  0  0  0
  -21.3010   -4.9060   24.8410 C   0  0  0  0  0  0  0  0  0  0  0  0
  -21.8160   -4.2780   23.6940 C   0  0  0  0  0  3  0  0  0  0  0  0
  -22.0090   -5.0200   22.5150 C   0  0  0  0  0  0  0  0  0  0  0  0
  -22.4840   -4.4050   21.4050 F   0  0  0  0  0  0  0  0  0  0  0  0
  -21.1110   -4.1900   25.9740 F   0  0  0  0  0  0  0  0  0  0  0  0
  -22.9820  -13.6940   20.9600 C   0  0  0  0  0  0  0  0  0  0  0  0
  -22.2750  -13.0120   21.8550 N   0  0  0  0  0  0  0  0  0  0  0  0
  -22.5360  -14.7180   20.4440 O   0  0  0  0  0  0  0  0  0  0  0  0
  -22.6450  -12.1860   22.3010 H   0  0  0  0  0  0  0  0  0  0  0  0
  -21.3490  -13.3280   22.1040 H   0  0  0  0  0  0  0  0  0  0  0  0
  -25.6090  -15.3330   20.0720 N   0  0  0  0  0  0  0  0  0  0  0  0
  -24.8550  -15.9950   20.2200 H   0  0  0  0  0  0  0  0  0  0  0  0
  -26.4580  -15.7700   19.7360 H   0  0  0  0  0  0  0  0  0  0  0  0
  -30.2880  -23.5560   20.8660 C   0  0  0  0  0  0  0  0  0  0  0  0
  -30.5070  -24.7260   21.4820 N   0  0  0  0  0  0  0  0  0  0  0  0
  -29.9550  -23.4930   19.6800 O   0  0  0  0  0  0  0  0  0  0  0  0
  -30.7500  -24.6920   22.4630 H   0  0  0  0  0  0  0  0  0  0  0  0
  -30.6240  -26.0310   20.8200 C   0  0  0  0  0  2  0  0  0  0  0  0
  -29.4150  -26.9660   21.0360 C   0  0  0  0  0  2  0  0  0  0  0  0
  -28.4000  -26.7420   20.0580 O   0  0  0  0  0  0  0  0  0  0  0  0
  -24.6260  -31.9450   23.2050 C   0  0  0  0  0  0  0  0  0  0  0  0
  -27.2610  -27.5220   20.1160 C   0  0  0  0  0  0  0  0  0  0  0  0
  -23.3930  -30.5220   21.5940 C   0  0  0  0  0  3  0  0  0  0  0  0
  -24.8350  -28.9850   20.1520 C   0  0  0  0  0  0  0  0  0  0  0  0
  -25.9050  -30.9090   21.3360 C   0  0  0  0  0  2  0  0  0  0  0  0
  -25.9930  -29.5310   20.7190 C   0  0  0  0  0  0  0  0  0  0  0  0
  -27.2040  -28.8080   20.7090 C   0  0  0  0  0  3  0  0  0  0  0  0
  -26.0890  -26.9940   19.5350 C   0  0  0  0  0  3  0  0  0  0  0  0
  -24.8760  -27.7110   19.5590 C   0  0  0  0  0  3  0  0  0  0  0  0
  -23.5800  -29.8280   20.2160 C   0  0  0  0  0  2  0  0  0  0  0  0
  -24.6600  -31.1410   22.1040 N   0  0  0  0  0  0  0  0  0  0  0  0
  -23.5560  -32.2100   23.7690 O   0  0  0  0  0  0  0  0  0  0  0  0
  -22.7730  -29.5040   22.5770 C   0  0  0  0  0  0  0  0  0  0  0  0
  -21.4510  -29.2960   22.4650 N   0  0  0  0  0  0  0  0  0  0  0  0
  -23.4780  -28.9020   23.3920 O   0  0  0  0  0  0  0  0  0  0  0  0
  -20.9450  -29.8320   21.7730 H   0  0  0  0  0  0  0  0  0  0  0  0
  -18.1060  -28.0450   23.0030 C   0  0  0  0  0  0  0  0  0  0  0  0
  -20.6580  -28.3550   23.2560 C   0  0  0  0  0  3  0  0  0  0  0  0
  -20.7870  -26.9180   22.7000 C   0  0  0  0  0  2  0  0  0  0  0  0
  -19.6850  -26.5600   21.6990 C   0  0  0  0  0  2  0  0  0  0  0  0
  -18.3040  -26.6900   22.3480 C   0  0  0  0  0  2  0  0  0  0  0  0
  -19.2120  -28.8350   23.4150 C   0  0  0  0  0  0  0  0  0  0  0  0
  -18.9740  -30.1050   23.9860 C   0  0  0  0  0  3  0  0  0  0  0  0
  -17.6610  -30.5850   24.1510 C   0  0  0  0  0  3  0  0  0  0  0  0
  -16.5700  -29.7930   23.7570 C   0  0  0  0  0  3  0  0  0  0  0  0
  -16.7930  -28.5260   23.1890 C   0  0  0  0  0  3  0  0  0  0  0  0
  -25.9220  -32.5860   23.7900 C   0  0  0  0  0  3  0  0  0  0  0  0
  -25.6140  -33.9810   24.1270 N   0  0  0  0  0  0  0  0  0  0  0  0
  -25.9320  -35.0340   23.3620 C   0  0  0  0  0  0  0  0  0  0  0  0
  -26.5880  -34.9330   22.3210 O   0  0  0  0  0  0  0  0  0  0  0  0
  -25.0310  -34.1330   24.9380 H   0  0  0  0  0  0  0  0  0  0  0  0
  -24.1980  -36.8220   23.0200 C   0  0  0  0  0  1  0  0  0  0  0  0
  -25.4460  -36.4210   23.8240 C   0  0  0  0  0  3  0  0  0  0  0  0
  -27.5770  -37.3170   24.6490 C   0  0  0  0  0  1  0  0  0  0  0  0
  -26.4790  -37.4730   23.7000 N   0  0  0  0  0  0  0  0  0  0  0  0
  -26.0740  -38.3960   23.8300 H   0  0  0  0  0  0  0  0  0  0  0  0
  -26.4820  -31.8180   25.0500 C   0  0  1  0  0  0  0  0  0  0  0  0
  -25.4180  -31.5580   26.1410 C   0  0  0  0  0  1  0  0  0  0  0  0
  -27.0780  -30.4530   24.6330 C   0  0  0  0  0  1  0  0  0  0  0  0
  -27.6350  -32.6280   25.6880 C   0  0  0  0  0  1  0  0  0  0  0  0
  1  2  2  0
  1  7  1  0
  4  3  2  0
  5  3  1  0
  6  7  2  0
  6  8  1  0
  7  4  1  0
  8  5  2  0
  9  8  1  0
 10 19  1  0
 11 16  1  0
 12 13  1  0
 12 11  1  0
 14 13  1  0
 14 23  1  0
 14 15  1  0
 16 10  1  0
 16 15  1  0
 17 10  2  0
 18 19  1  0
 19  9  1  0
 20 21  2  0
 21 40  1  0
 22 21  1  0
 22 25  1  0
 23 20  1  0
 23 24  1  0
 24 22  2  0
 25 26  1  0
 26 27  2  0
 28 31  1  0
 28 27  1  0
 29 28  2  0
 30 29  1  0
 30 25  2  0
 31 32  1  0
 32 37  2  0
 32 33  1  0
 33 34  2  0
 34 35  1  0
 35 39  1  0
 36 35  2  0
 37 36  1  0
 38 37  1  0
 40 41  1  0
 41 44  1  0
 41 43  1  0
 42 40  2  0
 45 46  1  0
 45 20  1  0
 47 45  1  0
 48 49  1  0
 48  2  1  0
 49 51  1  0
 50 48  2  0
 52 53  1  0
 52 49  1  0
 54 56  1  0
 54 53  1  0
 55 66  2  0
 56 61  1  0
 57 65  1  0
 57 67  1  0
 58 64  1  0
 58 60  1  0
 59 65  1  0
 60 59  1  0
 61 60  2  0
 62 63  1  0
 62 56  2  0
 63 58  2  0
 64 57  1  0
 65 55  1  0
 67 69  2  0
 68 67  1  0
 70 68  1  0
 71 80  2  0
 71 76  1  0
 72 68  1  0
 72 76  1  0
 73 72  1  0
 74 75  1  0
 74 73  1  0
 75 71  1  0
 76 77  2  0
 77 78  1  0
 79 78  2  0
 80 79  1  0
 81 55  1  0
 81 82  1  0
 81 91  1  0
 82 85  1  0
 83 87  1  0
 83 82  1  0
 84 83  2  0
 87 86  1  0
 89 87  1  0
 89 90  1  0
 89 88  1  0
 91 94  1  1
 91 92  1  0
 93 91  1  0
M  ISO  4  10 100  19 100  53 101  54 101
M  END
>  <TORSDO>  (60) 
F 21

>  <SCORE>  (60) 
-11.593

>  <name>  (60) 
59

>  <ligand_id>  (60) 
59

>  <original_smiles>  (60) 
[H]C(C(=O)N([H])C([H])([H])C([H])([H])Oc1c([H])c([H])c2c(c1[H])C([H])([H])N(C(=O)C([H])(N([H])C(=O)C([H])(N([H])C([H])([H])[H])C([H])([H])[H])C(C([H])([H])[H])(C([H])([H])[H])C([H])([H])[H])C([H])(C(=O)N([H])C1([H])c3c([H])c([H])c([H])c([H])c3C([H])([H])C([H])([H])C1([H])[H])C2([H])[H])=C([H])c1c([H])c([H])c([H])c(C([H])([H])N(C(=O)N2C([H])([H])C([H])([H])C([H])([H])C([H])(n3nc(-c4c([H])c([H])c(Oc5c([H])c([H])c(F)c([H])c5F)c([H])c4[H])c(C(=O)N([H])[H])c3N([H])[H])C2([H])[H])C([H])([H])[H])c1[H]

>  <smiles>  (60) 
[H]C(C(=O)N([H])C([H])([H])C([H])([H])Oc1c([H])c([H])c2c(c1[H])C([H])([H])N(C(=O)C([H])(N([H])C(=O)C([H])(N([H])C([H])([H])[H])C([H])([H])[H])C(C([H])([H])[H])(C([H])([H])[H])C([H])([H])[H])C([H])(C(=O)N([H])C1([H])c3c([H])c([H])c([H])c([H])c3C([H])([H])C([H])([H])C1([H])[H])C2([H])[H])=C([H])c1c([H])c([H])c([H])c(C([H])([H])N(C(=O)N2C([H])([H])C([H])([H])C([H])([H])C([H])(n3nc(-c4c([H])c([H])c(Oc5c([H])c([H])c(F)c([H])c5F)c([H])c4[H])c(C(=O)N([H])[H])c3N([H])[H])C2([H])[H])C([H])([H])[H])c1[H]

$$$$
60:0:0
     RDKit          3D

 93102  0  0  1  0  0  0  0  0999 V2000
  -26.9050  -22.8580   17.4740 C   0  0  0  0  0  3  0  0  0  0  0  0
  -27.5620  -21.6270   17.7130 C   0  0  0  0  0  3  0  0  0  0  0  0
  -27.3440  -24.0880   18.0570 C   0  0  0  0  0  3  0  0  0  0  0  0
  -28.6150  -21.7020   18.6210 C   0  0  0  0  0  0  0  0  0  0  0  0
  -28.9600  -22.9110   19.3290 C   0  0  0  0  0  0  0  0  0  0  0  0
  -28.3840  -24.1870   19.0300 C   0  0  0  0  0  0  0  0  0  0  0  0
  -30.0250  -22.1440   20.1140 C   0  0  0  0  0  2  0  0  0  0  0  0
  -29.6870  -20.8120   19.2350 C   0  0  0  0  0  3  0  0  0  0  0  0
  -27.7980  -19.5070   20.4990 C   0  0  0  0  0  1  0  0  0  0  0  0
  -29.0960  -19.4090   19.6730 C   0  0  0  0  0  3  0  0  0  0  0  0
  -30.0350  -18.4260   20.3220 N   0  0  0  0  0  4  0  0  0  0  0  0
  -30.9700  -18.8000   20.3580 H   0  0  0  0  0  0  0  0  0  0  0  0
  -29.7140  -18.3440   21.2710 H   0  0  0  0  0  0  0  0  0  0  0  0
  -30.0860  -17.0210   19.7710 C   0  0  0  0  0  2  0  0  0  0  0  0
  -30.4190  -15.8980   20.8300 C   0  0  0  0  0  2  0  0  0  0  0  0
  -30.9780  -14.5570   20.2560 C   0  0  0  0  0  0  0  0  0  0  0  0
  -30.5990  -12.3380   19.2140 C   0  0  0  0  0  2  0  0  0  0  0  0
  -29.6770  -12.5350   17.9910 C   0  0  0  0  0  2  0  0  0  0  0  0
  -28.2030  -12.4330   18.4170 C   0  0  0  0  0  2  0  0  0  0  0  0
  -27.8810  -13.3040   19.6600 C   0  0  0  0  0  3  0  0  0  0  0  0
  -28.9400  -13.1350   20.7750 C   0  0  0  0  0  2  0  0  0  0  0  0
  -30.2640  -13.3900   20.1940 N   0  0  0  0  0  0  0  0  0  0  0  0
  -32.1100  -14.6250   19.7760 O   0  0  0  0  0  0  0  0  0  0  0  0
  -25.4980  -13.9400   20.3690 C   0  0  0  0  0  0  0  0  0  0  0  0
  -24.4190  -13.1810   20.7430 C   0  0  0  0  0  0  0  0  0  0  0  0
  -24.8660  -11.8260   20.7330 C   0  0  0  0  0  0  0  0  0  0  0  0
  -26.5320  -13.0440   20.1520 N   0  0  0  0  0  0  0  0  0  0  0  0
  -26.1580  -11.7680   20.4310 N   0  0  0  0  0  0  0  0  0  0  0  0
  -24.1220  -10.5740   20.9380 C   0  0  0  0  0  0  0  0  0  0  0  0
  -24.5380   -9.6160   21.8880 C   0  0  0  0  0  3  0  0  0  0  0  0
  -23.7970   -8.4320   22.0840 C   0  0  0  0  0  3  0  0  0  0  0  0
  -22.6270   -8.1960   21.3210 C   0  0  0  0  0  0  0  0  0  0  0  0
  -22.2320   -9.1420   20.3600 C   0  0  0  0  0  3  0  0  0  0  0  0
  -22.9720  -10.3210   20.1660 C   0  0  0  0  0  3  0  0  0  0  0  0
  -21.8570   -7.0620   21.4230 O   0  0  0  0  0  0  0  0  0  0  0  0
  -21.7840   -6.3440   22.5880 C   0  0  0  0  0  0  0  0  0  0  0  0
  -21.3460   -6.9280   23.7960 C   0  0  0  0  0  3  0  0  0  0  0  0
  -21.2180   -6.1370   24.9550 C   0  0  0  0  0  3  0  0  0  0  0  0
  -21.5220   -4.7620   24.9040 C   0  0  0  0  0  0  0  0  0  0  0  0
  -21.9560   -4.1760   23.7010 C   0  0  0  0  0  3  0  0  0  0  0  0
  -22.0840   -4.9670   22.5450 C   0  0  0  0  0  0  0  0  0  0  0  0
  -22.4800   -4.3950   21.3820 F   0  0  0  0  0  0  0  0  0  0  0  0
  -21.3910   -3.9980   26.0140 F   0  0  0  0  0  0  0  0  0  0  0  0
  -23.0280  -13.6800   20.9980 C   0  0  0  0  0  0  0  0  0  0  0  0
  -22.2910  -13.0030   21.8740 N   0  0  0  0  0  0  0  0  0  0  0  0
  -22.5990  -14.6970   20.4580 O   0  0  0  0  0  0  0  0  0  0  0  0
  -22.6520  -12.1750   22.3220 H   0  0  0  0  0  0  0  0  0  0  0  0
  -21.3600  -13.3190   22.1000 H   0  0  0  0  0  0  0  0  0  0  0  0
  -25.6750  -15.3030   20.1750 N   0  0  0  0  0  0  0  0  0  0  0  0
  -24.9120  -15.9660   20.2620 H   0  0  0  0  0  0  0  0  0  0  0  0
  -26.5280  -15.7310   19.8430 H   0  0  0  0  0  0  0  0  0  0  0  0
  -28.9720  -25.5870   19.3920 C   0  0  0  0  0  2  0  0  0  0  0  0
  -28.3660  -26.5370   20.3340 O   0  0  0  0  0  0  0  0  0  0  0  0
  -24.5770  -31.8580   23.2350 C   0  0  0  0  0  0  0  0  0  0  0  0
  -27.2330  -27.3410   20.1640 C   0  0  0  0  0  0  0  0  0  0  0  0
  -23.3830  -30.4630   21.5800 C   0  0  0  0  0  3  0  0  0  0  0  0
  -24.8450  -28.9190   20.1540 C   0  0  0  0  0  0  0  0  0  0  0  0
  -25.9170  -30.7920   21.4100 C   0  0  0  0  0  2  0  0  0  0  0  0
  -26.0040  -29.4190   20.7570 C   0  0  0  0  0  0  0  0  0  0  0  0
  -27.1930  -28.6390   20.7540 C   0  0  0  0  0  3  0  0  0  0  0  0
  -26.0430  -26.8720   19.5720 C   0  0  0  0  0  3  0  0  0  0  0  0
  -24.8670  -27.6510   19.5460 C   0  0  0  0  0  3  0  0  0  0  0  0
  -23.6030  -29.7810   20.2020 C   0  0  0  0  0  2  0  0  0  0  0  0
  -24.6440  -31.0550   22.1330 N   0  0  0  0  0  0  0  0  0  0  0  0
  -23.4900  -32.1370   23.7640 O   0  0  0  0  0  0  0  0  0  0  0  0
  -22.7070  -29.4530   22.5390 C   0  0  0  0  0  0  0  0  0  0  0  0
  -21.3800  -29.2950   22.4090 N   0  0  0  0  0  0  0  0  0  0  0  0
  -23.3780  -28.8150   23.3530 O   0  0  0  0  0  0  0  0  0  0  0  0
  -20.8970  -29.8630   21.7270 H   0  0  0  0  0  0  0  0  0  0  0  0
  -17.9830  -28.1550   22.9130 C   0  0  0  0  0  0  0  0  0  0  0  0
  -20.5460  -28.3650   23.1740 C   0  0  0  0  0  3  0  0  0  0  0  0
  -20.6180  -26.9370   22.5840 C   0  0  0  0  0  2  0  0  0  0  0  0
  -19.5070  -26.6480   21.5690 C   0  0  0  0  0  2  0  0  0  0  0  0
  -18.1300  -26.8120   22.2200 C   0  0  0  0  0  2  0  0  0  0  0  0
  -19.1170  -28.8920   23.3460 C   0  0  0  0  0  0  0  0  0  0  0  0
  -18.9230  -30.1510   23.9540 C   0  0  0  0  0  3  0  0  0  0  0  0
  -17.6300  -30.6750   24.1310 C   0  0  0  0  0  3  0  0  0  0  0  0
  -16.5100  -29.9360   23.7120 C   0  0  0  0  0  3  0  0  0  0  0  0
  -16.6860  -28.6780   23.1100 C   0  0  0  0  0  3  0  0  0  0  0  0
  -25.8580  -32.4820   23.8700 C   0  0  0  0  0  3  0  0  0  0  0  0
  -25.5560  -33.8850   24.1920 N   0  0  0  0  0  0  0  0  0  0  0  0
  -25.9070  -34.9320   23.4340 C   0  0  0  0  0  0  0  0  0  0  0  0
  -26.5880  -34.8210   22.4120 O   0  0  0  0  0  0  0  0  0  0  0  0
  -24.9450  -34.0450   24.9790 H   0  0  0  0  0  0  0  0  0  0  0  0
  -24.1980  -36.7420   23.0580 C   0  0  0  0  0  1  0  0  0  0  0  0
  -25.4270  -36.3270   23.8840 C   0  0  0  0  0  3  0  0  0  0  0  0
  -27.5640  -37.1910   24.7310 C   0  0  0  0  0  1  0  0  0  0  0  0
  -26.4680  -37.3730   23.7840 N   0  0  0  0  0  0  0  0  0  0  0  0
  -26.0650  -38.2940   23.9440 H   0  0  0  0  0  0  0  0  0  0  0  0
  -26.3540  -31.7130   25.1550 C   0  0  1  0  0  0  0  0  0  0  0  0
  -25.2490  -31.4900   26.2120 C   0  0  0  0  0  1  0  0  0  0  0  0
  -26.9270  -30.3280   24.7740 C   0  0  0  0  0  1  0  0  0  0  0  0
  -27.5050  -32.4990   25.8260 C   0  0  0  0  0  1  0  0  0  0  0  0
  1  2  2  0
  1  3  1  0
  2  4  1  0
  3  6  2  0
  4  8  1  0
  4  5  2  0
  5  7  1  0
  6  5  1  0
  6 52  1  0
  8 10  1  0
  8  7  1  0
 10 11  1  0
 10  9  1  0
 11 12  1  0
 11 13  1  0
 14 11  1  0
 14 15  1  0
 16 15  1  0
 17 22  1  0
 18 19  1  0
 18 17  1  0
 20 19  1  0
 20 27  1  0
 20 21  1  0
 22 16  1  0
 22 21  1  0
 23 16  2  0
 24 25  2  0
 25 44  1  0
 26 25  1  0
 26 29  1  0
 27 24  1  0
 27 28  1  0
 28 26  2  0
 29 30  1  0
 30 31  2  0
 32 35  1  0
 32 31  1  0
 33 32  2  0
 34 33  1  0
 34 29  2  0
 35 36  1  0
 36 37  1  0
 37 38  2  0
 39 38  1  0
 39 43  1  0
 40 39  2  0
 41 36  2  0
 41 40  1  0
 42 41  1  0
 44 45  1  0
 45 48  1  0
 45 47  1  0
 46 44  2  0
 49 50  1  0
 49 24  1  0
 51 49  1  0
 52 53  1  0
 54 65  2  0
 55 53  1  0
 55 60  1  0
 56 64  1  0
 56 66  1  0
 57 63  1  0
 57 59  1  0
 58 64  1  0
 59 58  1  0
 60 59  2  0
 61 55  2  0
 62 61  1  0
 62 57  2  0
 63 56  1  0
 64 54  1  0
 66 68  2  0
 67 66  1  0
 69 67  1  0
 70 79  2  0
 70 75  1  0
 71 67  1  0
 71 75  1  0
 72 71  1  0
 73 74  1  0
 73 72  1  0
 74 70  1  0
 75 76  2  0
 76 77  1  0
 78 77  2  0
 79 78  1  0
 80 54  1  0
 80 81  1  0
 80 90  1  0
 81 84  1  0
 82 86  1  0
 82 81  1  0
 83 82  2  0
 86 85  1  0
 88 86  1  0
 88 89  1  0
 88 87  1  0
 90 93  1  1
 90 91  1  0
 92 90  1  0
M  ISO  4  15 100  16 100  52 101  53 101
M  END
>  <TORSDO>  (61) 
F 21

>  <SCORE>  (61) 
-12.921

>  <name>  (61) 
60

>  <ligand_id>  (61) 
60

>  <original_smiles>  (61) 
[H]c1c([H])c([H])c2c(c1[H])C([H])([H])C([H])([H])C([H])([H])C2([H])N([H])C(=O)C1([H])N(C(=O)C([H])(N([H])C(=O)C([H])(N([H])C([H])([H])[H])C([H])([H])[H])C(C([H])([H])[H])(C([H])([H])[H])C([H])([H])[H])C([H])([H])c2c([H])c(OC([H])([H])c3c([H])c([H])c([H])c4c3C([H])([H])C4([H])C([H])(C([H])([H])[H])[N+]([H])([H])C([H])([H])C([H])([H])C(=O)N3C([H])([H])C([H])([H])C([H])([H])C([H])(n4nc(-c5c([H])c([H])c(Oc6c([H])c([H])c(F)c([H])c6F)c([H])c5[H])c(C(=O)N([H])[H])c4N([H])[H])C3([H])[H])c([H])c([H])c2C1([H])[H]

>  <smiles>  (61) 
[H]c1c([H])c([H])c2c(c1[H])C([H])([H])C([H])([H])C([H])([H])C2([H])N([H])C(=O)C1([H])N(C(=O)C([H])(N([H])C(=O)C([H])(N([H])C([H])([H])[H])C([H])([H])[H])C(C([H])([H])[H])(C([H])([H])[H])C([H])([H])[H])C([H])([H])c2c([H])c(OC([H])([H])c3c([H])c([H])c([H])c4c3C([H])([H])C4([H])C([H])(C([H])([H])[H])[N+]([H])([H])C([H])([H])C([H])([H])C(=O)N3C([H])([H])C([H])([H])C([H])([H])C([H])(n4nc(-c5c([H])c([H])c(Oc6c([H])c([H])c(F)c([H])c6F)c([H])c5[H])c(C(=O)N([H])[H])c4N([H])[H])C3([H])[H])c([H])c([H])c2C1([H])[H]

$$$$
61:0:0
     RDKit          3D

 83 87  0  0  1  0  0  0  0  0999 V2000
  -28.0660  -23.2220   20.2240 C   0  0  0  0  0 15  0  0  0  0  0  0
  -28.1540  -25.1360   20.2990 O   0  0  0  0  0  1  0  0  0  0  0  0
  -24.7210  -31.8430   23.1740 C   0  0  0  0  0  0  0  0  0  0  0  0
  -27.2130  -26.4830   20.2590 C   0  0  0  0  0  0  0  0  0  0  0  0
  -23.5400  -30.4290   21.5510 C   0  0  0  0  0  3  0  0  0  0  0  0
  -24.9820  -28.7050   20.1750 C   0  0  0  0  0  0  0  0  0  0  0  0
  -26.1310  -30.4780   21.4640 C   0  0  0  0  0  2  0  0  0  0  0  0
  -26.1850  -29.0070   20.8230 C   0  0  0  0  0  0  0  0  0  0  0  0
  -27.2690  -27.9330   20.8240 C   0  0  0  0  0  3  0  0  0  0  0  0
  -25.9730  -26.4660   19.5490 C   0  0  0  0  0  3  0  0  0  0  0  0
  -24.9320  -27.4630   19.5120 C   0  0  0  0  0  3  0  0  0  0  0  0
  -23.7930  -29.6980   20.1960 C   0  0  0  0  0  2  0  0  0  0  0  0
  -24.8250  -30.9580   22.1150 N   0  0  0  0  0  0  0  0  0  0  0  0
  -23.6230  -32.1610   23.6670 O   0  0  0  0  0  0  0  0  0  0  0  0
  -22.7940  -29.4870   22.5370 C   0  0  0  0  0  0  0  0  0  0  0  0
  -21.4580  -29.3530   22.4170 N   0  0  0  0  0  0  0  0  0  0  0  0
  -23.4350  -28.8700   23.3910 O   0  0  0  0  0  0  0  0  0  0  0  0
  -20.9850  -29.9020   21.7120 H   0  0  0  0  0  0  0  0  0  0  0  0
  -18.0580  -28.1560   22.9470 C   0  0  0  0  0  0  0  0  0  0  0  0
  -20.6210  -28.4290   23.1980 C   0  0  0  0  0  3  0  0  0  0  0  0
  -20.7160  -26.9890   22.6420 C   0  0  0  0  0  2  0  0  0  0  0  0
  -19.6130  -26.6590   21.6310 C   0  0  0  0  0  2  0  0  0  0  0  0
  -18.2330  -26.8050   22.2760 C   0  0  0  0  0  2  0  0  0  0  0  0
  -19.1770  -28.9260   23.3660 C   0  0  0  0  0  0  0  0  0  0  0  0
  -18.9540  -30.1850   23.9630 C   0  0  0  0  0  3  0  0  0  0  0  0
  -17.6470  -30.6770   24.1410 C   0  0  0  0  0  3  0  0  0  0  0  0
  -16.5430  -29.9080   23.7320 C   0  0  0  0  0  3  0  0  0  0  0  0
  -16.7500  -28.6490   23.1420 C   0  0  0  0  0  3  0  0  0  0  0  0
  -25.9730  -32.5100   23.8220 C   0  0  0  0  0  3  0  0  0  0  0  0
  -26.4720  -31.7550   25.1190 C   0  0  1  0  0  0  0  0  0  0  0  0
  -25.3660  -31.5250   26.1770 C   0  0  0  0  0  1  0  0  0  0  0  0
  -27.0630  -30.3740   24.7650 C   0  0  0  0  0  1  0  0  0  0  0  0
  -27.6100  -32.5590   25.7880 C   0  0  0  0  0  1  0  0  0  0  0  0
  -25.6350  -33.9080   24.1700 N   0  0  0  0  0  0  0  0  0  0  0  0
  -25.9390  -34.9890   23.4380 C   0  0  0  0  0  0  0  0  0  0  0  0
  -26.5830  -34.9140   22.3890 O   0  0  0  0  0  0  0  0  0  0  0  0
  -25.0550  -34.0350   24.9870 H   0  0  0  0  0  0  0  0  0  0  0  0
  -24.1770  -36.7810   23.1980 C   0  0  0  0  0  1  0  0  0  0  0  0
  -25.4590  -36.3690   23.9420 C   0  0  0  0  0  3  0  0  0  0  0  0
  -27.6140  -37.2830   24.6910 C   0  0  0  0  0  1  0  0  0  0  0  0
  -26.4720  -37.4380   23.7960 N   0  0  0  0  0  0  0  0  0  0  0  0
  -26.0590  -38.3530   23.9630 H   0  0  0  0  0  0  0  0  0  0  0  0
  -29.0480  -21.3240   20.2210 C   0  0  0  0  0 15  0  0  0  0  0  0
  -29.1690  -17.7230   20.2210 C   0  0  0  0  0  2  0  0  0  0  0  0
  -28.7960  -19.3310   20.2590 C   0  0  0  0  0  2  0  0  0  0  0  0
  -30.1080  -16.1520   20.1070 C   0  0  0  0  0  0  0  0  0  0  0  0
  -30.3710  -13.4940   19.3410 C   0  0  0  0  0  2  0  0  0  0  0  0
  -29.5070  -12.8950   18.1780 C   0  0  0  0  0  2  0  0  0  0  0  0
  -28.1310  -12.4310   18.6720 C   0  0  0  0  0  2  0  0  0  0  0  0
  -27.5680  -13.4490   19.6830 C   0  0  0  0  0  3  0  0  0  0  0  0
  -28.5840  -13.9360   20.7510 C   0  0  0  0  0  2  0  0  0  0  0  0
  -29.6820  -14.6940   20.0700 N   0  0  0  0  0  0  0  0  0  0  0  0
  -31.3460  -16.0410   19.9200 O   0  0  0  0  0  0  0  0  0  0  0  0
  -25.2330  -13.9070   20.5390 C   0  0  0  0  0  0  0  0  0  0  0  0
  -24.1960  -13.1060   20.9180 C   0  0  0  0  0  0  0  0  0  0  0  0
  -24.6810  -11.7630   20.8430 C   0  0  0  0  0  0  0  0  0  0  0  0
  -26.2800  -13.0590   20.2440 N   0  0  0  0  0  0  0  0  0  0  0  0
  -25.9670  -11.7570   20.4910 N   0  0  0  0  0  0  0  0  0  0  0  0
  -23.9690  -10.4900   21.0270 C   0  0  0  0  0  0  0  0  0  0  0  0
  -24.4130   -9.5170   21.9500 C   0  0  0  0  0  3  0  0  0  0  0  0
  -23.6920   -8.3150   22.1270 C   0  0  0  0  0  3  0  0  0  0  0  0
  -22.5140   -8.0750   21.3820 C   0  0  0  0  0  0  0  0  0  0  0  0
  -22.0870   -9.0380   20.4500 C   0  0  0  0  0  3  0  0  0  0  0  0
  -22.8070  -10.2310   20.2710 C   0  0  0  0  0  3  0  0  0  0  0  0
  -21.7650   -6.9270   21.4680 O   0  0  0  0  0  0  0  0  0  0  0  0
  -21.7070   -6.1900   22.6240 C   0  0  0  0  0  0  0  0  0  0  0  0
  -21.2450   -6.7420   23.8390 C   0  0  0  0  0  3  0  0  0  0  0  0
  -21.1360   -5.9310   24.9860 C   0  0  0  0  0  3  0  0  0  0  0  0
  -21.4780   -4.5680   24.9200 C   0  0  0  0  0  0  0  0  0  0  0  0
  -21.9330   -4.0130   23.7100 C   0  0  0  0  0  3  0  0  0  0  0  0
  -22.0440   -4.8220   22.5650 C   0  0  0  0  0  0  0  0  0  0  0  0
  -22.4610   -4.2780   21.3970 F   0  0  0  0  0  0  0  0  0  0  0  0
  -21.3670   -3.7860   26.0200 F   0  0  0  0  0  0  0  0  0  0  0  0
  -22.8010  -13.5630   21.2280 C   0  0  0  0  0  0  0  0  0  0  0  0
  -22.1030  -12.8520   22.1050 N   0  0  0  0  0  0  0  0  0  0  0  0
  -22.3430  -14.5900   20.7290 O   0  0  0  0  0  0  0  0  0  0  0  0
  -22.4900  -12.0210   22.5310 H   0  0  0  0  0  0  0  0  0  0  0  0
  -21.1690  -13.1420   22.3590 H   0  0  0  0  0  0  0  0  0  0  0  0
  -25.3700  -15.2840   20.3850 N   0  0  0  0  0  0  0  0  0  0  0  0
  -24.5980  -15.9240   20.5400 H   0  0  0  0  0  0  0  0  0  0  0  0
  -26.1980  -15.7450   20.0330 H   0  0  0  0  0  0  0  0  0  0  0  0
  -27.4660  -19.4060   20.4130 O   0  0  0  0  0  0  0  0  0  0  0  0
  -27.2270  -20.3240   20.4420 H   0  0  0  0  0  0  0  0  0  0  0  0
  3 14  2  0
  4  2  1  0
  4  9  1  0
  5 13  1  0
  5 15  1  0
  6 12  1  0
  6  8  1  0
  7 13  1  0
  8  9  2  0
  8  7  1  0
 10  4  2  0
 11 10  1  0
 11  6  2  0
 12  5  1  0
 13  3  1  0
 15 17  2  0
 16 15  1  0
 18 16  1  0
 19 28  2  0
 19 24  1  0
 20 16  1  0
 20 24  1  0
 21 20  1  0
 22 23  1  0
 22 21  1  0
 23 19  1  0
 24 25  2  0
 25 26  1  0
 27 26  2  0
 28 27  1  0
 29  3  1  0
 29 34  1  0
 29 30  1  0
 30 33  1  1
 30 31  1  0
 32 30  1  0
 34 37  1  0
 35 39  1  0
 35 34  1  0
 36 35  2  0
 39 38  1  0
 41 39  1  0
 41 42  1  0
 41 40  1  0
 44 45  1  0
 45 82  1  0
 46 44  1  0
 47 52  1  0
 48 49  1  0
 48 47  1  0
 50 49  1  0
 50 57  1  0
 50 51  1  0
 52 46  1  0
 52 51  1  0
 53 46  2  0
 54 55  2  0
 55 74  1  0
 56 55  1  0
 56 59  1  0
 57 58  1  0
 57 54  1  0
 58 56  2  0
 59 60  1  0
 60 61  2  0
 62 65  1  0
 62 61  1  0
 63 62  2  0
 64 63  1  0
 64 59  2  0
 65 66  1  0
 66 67  1  0
 67 68  2  0
 69 68  1  0
 69 73  1  0
 70 69  2  0
 71 66  2  0
 71 70  1  0
 72 71  1  0
 74 75  1  0
 75 78  1  0
 75 77  1  0
 76 74  2  0
 79 54  1  0
 79 80  1  0
 81 79  1  0
 82 83  1  0
M  ISO  4   1 101   2 101  44 100  46 100
M  END
>  <TORSDO>  (62) 
F 19

>  <SCORE>  (62) 
-16.140

>  <name>  (62) 
61

>  <ligand_id>  (62) 
61

>  <original_smiles>  (62) 
[H]OC(=C([H])C(=O)N1C([H])([H])C([H])([H])C([H])([H])C([H])(n2nc(-c3c([H])c([H])c(Oc4c([H])c([H])c(F)c([H])c4F)c([H])c3[H])c(C(=O)N([H])[H])c2N([H])[H])C1([H])[H])C([H])([H])C([H])([H])Oc1c([H])c([H])c2c(c1[H])C([H])([H])N(C(=O)C([H])(N([H])C(=O)C([H])(N([H])C([H])([H])[H])C([H])([H])[H])C(C([H])([H])[H])(C([H])([H])[H])C([H])([H])[H])C([H])(C(=O)N([H])C1([H])c3c([H])c([H])c([H])c([H])c3C([H])([H])C([H])([H])C1([H])[H])C2([H])[H]

>  <smiles>  (62) 
[H]OC(=C([H])C(=O)N1C([H])([H])C([H])([H])C([H])([H])C([H])(n2nc(-c3c([H])c([H])c(Oc4c([H])c([H])c(F)c([H])c4F)c([H])c3[H])c(C(=O)N([H])[H])c2N([H])[H])C1([H])[H])C([H])([H])C([H])([H])Oc1c([H])c([H])c2c(c1[H])C([H])([H])N(C(=O)C([H])(N([H])C(=O)C([H])(N([H])C([H])([H])[H])C([H])([H])[H])C(C([H])([H])[H])(C([H])([H])[H])C([H])([H])[H])C([H])(C(=O)N([H])C1([H])c3c([H])c([H])c([H])c([H])c3C([H])([H])C([H])([H])C1([H])[H])C2([H])[H]

$$$$
62:0:0
     RDKit          3D

101110  0  0  1  0  0  0  0  0999 V2000
  -30.3440  -19.5460   20.6550 C   0  0  0  0  0  3  0  0  0  0  0  0
  -28.1540  -20.3530   20.0940 C   0  0  0  0  0  3  0  0  0  0  0  0
  -29.5060  -20.6380   20.3420 C   0  0  0  0  0  0  0  0  0  0  0  0
  -29.8220  -18.2210   20.6780 C   0  0  0  0  0  0  0  0  0  0  0  0
  -27.7050  -19.0210   20.1180 C   0  0  0  0  0  0  0  0  0  0  0  0
  -28.5100  -17.9750   20.4110 N   0  0  0  0  0  0  0  0  0  0  0  0
  -30.9520  -14.7100   20.2770 C   0  0  0  0  0  0  0  0  0  0  0  0
  -30.5260  -12.7000   18.9200 C   0  0  0  0  0  2  0  0  0  0  0  0
  -29.5310  -13.0620   17.8010 C   0  0  0  0  0  2  0  0  0  0  0  0
  -28.0820  -12.8830   18.2930 C   0  0  0  0  0  2  0  0  0  0  0  0
  -27.8230  -13.5570   19.6680 C   0  0  0  0  0  3  0  0  0  0  0  0
  -28.9410  -13.2330   20.6830 C   0  0  0  0  0  2  0  0  0  0  0  0
  -30.2220  -13.5820   20.0570 N   0  0  0  0  0  0  0  0  0  0  0  0
  -32.1260  -14.7900   19.9090 O   0  0  0  0  0  0  0  0  0  0  0  0
  -30.7570  -17.0400   20.8900 C   0  0  0  0  0  0  0  0  0  0  0  0
  -30.2500  -15.8070   20.6470 N   0  0  0  0  0  0  0  0  0  0  0  0
  -31.9230  -17.2490   21.2530 O   0  0  0  0  0  0  0  0  0  0  0  0
  -29.2480  -15.7820   20.5820 H   0  0  0  0  0  0  0  0  0  0  0  0
  -25.4370  -14.0600   20.4740 C   0  0  0  0  0  0  0  0  0  0  0  0
  -24.4010  -13.2470   20.8420 C   0  0  0  0  0  0  0  0  0  0  0  0
  -24.9050  -11.9120   20.7700 C   0  0  0  0  0  0  0  0  0  0  0  0
  -26.5010  -13.2220   20.1880 N   0  0  0  0  0  0  0  0  0  0  0  0
  -26.1880  -11.9220   20.4290 N   0  0  0  0  0  0  0  0  0  0  0  0
  -24.2250  -10.6260   20.9520 C   0  0  0  0  0  0  0  0  0  0  0  0
  -24.6600   -9.6910   21.9180 C   0  0  0  0  0  3  0  0  0  0  0  0
  -23.9760   -8.4690   22.0880 C   0  0  0  0  0  3  0  0  0  0  0  0
  -22.8440   -8.1720   21.2910 C   0  0  0  0  0  0  0  0  0  0  0  0
  -22.4290   -9.0960   20.3160 C   0  0  0  0  0  3  0  0  0  0  0  0
  -23.1150  -10.3100   20.1450 C   0  0  0  0  0  3  0  0  0  0  0  0
  -22.1350   -6.9980   21.3680 O   0  0  0  0  0  0  0  0  0  0  0  0
  -22.0110   -6.3080   22.5470 C   0  0  0  0  0  0  0  0  0  0  0  0
  -21.4390   -6.8940   23.6970 C   0  0  0  0  0  3  0  0  0  0  0  0
  -21.2680   -6.1280   24.8670 C   0  0  0  0  0  3  0  0  0  0  0  0
  -21.6560   -4.7750   24.8860 C   0  0  0  0  0  0  0  0  0  0  0  0
  -22.2200   -4.1880   23.7400 C   0  0  0  0  0  3  0  0  0  0  0  0
  -22.3940   -4.9520   22.5730 C   0  0  0  0  0  0  0  0  0  0  0  0
  -22.9190   -4.3760   21.4640 F   0  0  0  0  0  0  0  0  0  0  0  0
  -21.4840   -4.0350   26.0060 F   0  0  0  0  0  0  0  0  0  0  0  0
  -22.9990  -13.6760   21.1570 C   0  0  0  0  0  0  0  0  0  0  0  0
  -22.3170  -12.9520   22.0380 N   0  0  0  0  0  0  0  0  0  0  0  0
  -22.5140  -14.6920   20.6580 O   0  0  0  0  0  0  0  0  0  0  0  0
  -22.7230  -12.1310   22.4630 H   0  0  0  0  0  0  0  0  0  0  0  0
  -21.3790  -13.2250   22.2930 H   0  0  0  0  0  0  0  0  0  0  0  0
  -25.5540  -15.4380   20.3470 N   0  0  0  0  0  0  0  0  0  0  0  0
  -24.7880  -16.0430   20.6130 H   0  0  0  0  0  0  0  0  0  0  0  0
  -26.4220  -15.9360   20.1990 H   0  0  0  0  0  0  0  0  0  0  0  0
  -23.9960  -18.8980   20.5010 C   0  0  0  0  0  2  0  0  0  0  0  0
  -23.6780  -17.6910   19.6020 C   0  0  0  0  0  2  0  0  0  0  0  0
  -25.4690  -18.8970   20.9440 C   0  0  0  0  0  2  0  0  0  0  0  0
  -26.1110  -17.6710   18.8600 C   0  0  0  0  0  2  0  0  0  0  0  0
  -24.6370  -17.6580   18.3920 C   0  0  0  0  0  3  0  0  0  0  0  0
  -26.3650  -18.7670   19.7970 N   0  0  0  0  0  0  0  0  0  0  0  0
  -24.3550  -16.5060   17.5180 N   0  0  0  0  0  4  0  0  0  0  0  0
  -24.4630  -15.6380   18.0110 H   0  0  0  0  0  0  0  0  0  0  0  0
  -24.9730  -16.5070   16.7270 H   0  0  0  0  0  0  0  0  0  0  0  0
  -23.4130  -16.5590   17.1700 H   0  0  0  0  0  0  0  0  0  0  0  0
  -30.0390  -22.0680   20.1640 C   0  0  0  0  0  3  0  0  0  0  0  0
  -29.6160  -23.0750   21.2620 C   0  0  0  0  0  3  0  0  0  0  0  0
  -29.9050  -24.5810   20.9530 C   0  0  0  0  0  2  0  0  0  0  0  0
  -28.7140  -25.3560   20.3400 C   0  0  0  0  0  2  0  0  0  0  0  0
  -28.8460  -26.7970   20.3930 O   0  0  0  0  0  0  0  0  0  0  0  0
  -24.8070  -31.9410   23.2650 C   0  0  0  0  0  0  0  0  0  0  0  0
  -27.6680  -27.5280   20.3090 C   0  0  0  0  0  0  0  0  0  0  0  0
  -23.6910  -30.4780   21.6190 C   0  0  0  0  0  3  0  0  0  0  0  0
  -25.2290  -28.9780   20.2420 C   0  0  0  0  0  0  0  0  0  0  0  0
  -26.2100  -30.9130   21.4760 C   0  0  0  0  0  2  0  0  0  0  0  0
  -26.3580  -29.5380   20.8520 C   0  0  0  0  0  0  0  0  0  0  0  0
  -27.5800  -28.8210   20.8830 C   0  0  0  0  0  3  0  0  0  0  0  0
  -26.5190  -27.0030   19.6690 C   0  0  0  0  0  3  0  0  0  0  0  0
  -25.3060  -27.7110   19.6450 C   0  0  0  0  0  3  0  0  0  0  0  0
  -23.9560  -29.7930   20.2510 C   0  0  0  0  0  2  0  0  0  0  0  0
  -24.9200  -31.1270   22.1780 N   0  0  0  0  0  0  0  0  0  0  0  0
  -23.7050  -32.1830   23.7750 O   0  0  0  0  0  0  0  0  0  0  0  0
  -23.0530  -29.4440   22.5750 C   0  0  0  0  0  0  0  0  0  0  0  0
  -21.7370  -29.2200   22.4260 N   0  0  0  0  0  0  0  0  0  0  0  0
  -23.7400  -28.8470   23.4090 O   0  0  0  0  0  0  0  0  0  0  0  0
  -21.2430  -29.7560   21.7250 H   0  0  0  0  0  0  0  0  0  0  0  0
  -18.3880  -27.9440   22.8910 C   0  0  0  0  0  0  0  0  0  0  0  0
  -20.9350  -28.2660   23.1910 C   0  0  0  0  0  3  0  0  0  0  0  0
  -21.0810  -26.8360   22.6230 C   0  0  0  0  0  2  0  0  0  0  0  0
  -19.9980  -26.4810   21.5980 C   0  0  0  0  0  2  0  0  0  0  0  0
  -18.6060  -26.5960   22.2250 C   0  0  0  0  0  2  0  0  0  0  0  0
  -19.4830  -28.7350   23.3310 C   0  0  0  0  0  0  0  0  0  0  0  0
  -19.2270  -29.9960   23.9120 C   0  0  0  0  0  3  0  0  0  0  0  0
  -17.9080  -30.4670   24.0590 C   0  0  0  0  0  3  0  0  0  0  0  0
  -16.8280  -29.6730   23.6350 C   0  0  0  0  0  3  0  0  0  0  0  0
  -17.0690  -28.4130   23.0570 C   0  0  0  0  0  3  0  0  0  0  0  0
  -26.0550  -32.6270   23.9040 C   0  0  0  0  0  3  0  0  0  0  0  0
  -25.6840  -34.0120   24.2220 N   0  0  0  0  0  0  0  0  0  0  0  0
  -25.9830  -35.0730   23.4600 C   0  0  0  0  0  0  0  0  0  0  0  0
  -26.6710  -34.9910   22.4380 O   0  0  0  0  0  0  0  0  0  0  0  0
  -25.0710  -34.1470   25.0120 H   0  0  0  0  0  0  0  0  0  0  0  0
  -24.1820  -36.7850   23.0730 C   0  0  0  0  0  1  0  0  0  0  0  0
  -25.4320  -36.4430   23.9000 C   0  0  0  0  0  3  0  0  0  0  0  0
  -27.5150  -37.4250   24.7470 C   0  0  0  0  0  1  0  0  0  0  0  0
  -26.4180  -37.5380   23.7890 N   0  0  0  0  0  0  0  0  0  0  0  0
  -25.9710  -38.4410   23.9260 H   0  0  0  0  0  0  0  0  0  0  0  0
  -26.5830  -31.8810   25.1910 C   0  0  1  0  0  0  0  0  0  0  0  0
  -25.4780  -31.5790   26.2310 C   0  0  0  0  0  1  0  0  0  0  0  0
  -27.2490  -30.5390   24.8090 C   0  0  0  0  0  1  0  0  0  0  0  0
  -27.6720  -32.7340   25.8820 C   0  0  0  0  0  1  0  0  0  0  0  0
  1  4  1  0
  2  5  2  0
  2  3  1  0
  3  1  2  0
  4 15  1  0
  5  6  1  0
  6  4  2  0
  7 16  1  0
  8 13  1  0
  9 10  1  0
  9  8  1  0
 11 10  1  0
 11 22  1  0
 11 12  1  0
 13  7  1  0
 13 12  1  0
 14  7  2  0
 15 17  2  0
 16 15  1  0
 18 16  1  0
 19 20  2  0
 20 39  1  0
 21 20  1  0
 21 24  1  0
 22 23  1  0
 22 19  1  0
 23 21  2  0
 24 25  1  0
 25 26  2  0
 27 30  1  0
 27 26  1  0
 28 27  2  0
 29 28  1  0
 29 24  2  0
 30 31  1  0
 31 36  2  0
 31 32  1  0
 32 33  2  0
 33 34  1  0
 34 38  1  0
 35 34  2  0
 36 35  1  0
 37 36  1  0
 39 40  1  0
 40 43  1  0
 40 42  1  0
 41 39  2  0
 44 19  1  0
 44 45  1  0
 46 44  1  0
 47 49  1  0
 48 47  1  0
 50 52  1  0
 51 53  1  0
 51 50  1  0
 51 48  1  0
 52  5  1  0
 52 49  1  0
 53 54  1  0
 55 53  1  0
 56 53  1  0
 57  3  1  0
 57 58  2  0
 59 58  1  0
 60 61  1  0
 60 59  1  0
 62 73  2  0
 63 61  1  0
 63 68  1  0
 64 72  1  0
 64 74  1  0
 65 71  1  0
 65 67  1  0
 66 72  1  0
 67 68  2  0
 67 66  1  0
 69 63  2  0
 70 69  1  0
 70 65  2  0
 71 64  1  0
 72 62  1  0
 74 76  2  0
 75 74  1  0
 77 75  1  0
 78 87  2  0
 78 83  1  0
 79 75  1  0
 79 83  1  0
 80 79  1  0
 81 82  1  0
 81 80  1  0
 82 78  1  0
 83 84  2  0
 84 85  1  0
 86 85  2  0
 87 86  1  0
 88 62  1  0
 88 89  1  0
 88 98  1  0
 89 92  1  0
 90 94  1  0
 90 89  1  0
 91 90  2  0
 94 93  1  0
 96 94  1  0
 96 97  1  0
 96 95  1  0
 98101  1  1
 98 99  1  0
100 98  1  0
M  ISO  4   7 100  16 100  60 101  61 101
M  END
>  <TORSDO>  (63) 
F 22

>  <SCORE>  (63) 
5.457

>  <name>  (63) 
62

>  <ligand_id>  (63) 
62

>  <original_smiles>  (63) 
[H]c1c([H])c([H])c2c(c1[H])C([H])([H])C([H])([H])C([H])([H])C2([H])N([H])C(=O)C1([H])N(C(=O)C([H])(N([H])C(=O)C([H])(N([H])C([H])([H])[H])C([H])([H])[H])C(C([H])([H])[H])(C([H])([H])[H])C([H])([H])[H])C([H])([H])c2c([H])c(OC([H])([H])C([H])([H])C([H])([H])C([H])([H])c3c([H])c(C(=O)N([H])C(=O)N4C([H])([H])C([H])([H])C([H])([H])C([H])(n5nc(-c6c([H])c([H])c(Oc7c([H])c([H])c(F)c([H])c7F)c([H])c6[H])c(C(=O)N([H])[H])c5N([H])[H])C4([H])[H])nc(N4C([H])([H])C([H])([H])C([H])([H])C([H])([N+]([H])([H])[H])C4([H])[H])c3[H])c([H])c([H])c2C1([H])[H]

>  <smiles>  (63) 
[H]c1c([H])c([H])c2c(c1[H])C([H])([H])C([H])([H])C([H])([H])C2([H])N([H])C(=O)C1([H])N(C(=O)C([H])(N([H])C(=O)C([H])(N([H])C([H])([H])[H])C([H])([H])[H])C(C([H])([H])[H])(C([H])([H])[H])C([H])([H])[H])C([H])([H])c2c([H])c(OC([H])([H])C([H])([H])C([H])([H])C([H])([H])c3c([H])c(C(=O)N([H])C(=O)N4C([H])([H])C([H])([H])C([H])([H])C([H])(n5nc(-c6c([H])c([H])c(Oc7c([H])c([H])c(F)c([H])c7F)c([H])c6[H])c(C(=O)N([H])[H])c5N([H])[H])C4([H])[H])nc(N4C([H])([H])C([H])([H])C([H])([H])C([H])([N+]([H])([H])[H])C4([H])[H])c3[H])c([H])c([H])c2C1([H])[H]

$$$$
63:0:0
     RDKit          3D

 91 99  0  0  1  0  0  0  0  0999 V2000
  -27.9370  -22.1950   22.1910 C   0  0  0  0  0  3  0  0  0  0  0  0
  -28.3290  -20.9730   21.6080 C   0  0  0  0  0  3  0  0  0  0  0  0
  -28.5330  -23.4050   21.7790 C   0  0  0  0  0  3  0  0  0  0  0  0
  -29.9480  -22.1660   20.2350 C   0  0  0  0  0  3  0  0  0  0  0  0
  -29.3470  -20.9520   20.6290 C   0  0  0  0  0  0  0  0  0  0  0  0
  -29.5370  -23.3990   20.7880 C   0  0  0  0  0  0  0  0  0  0  0  0
  -30.7370  -25.5890   21.3870 C   0  0  0  0  0  1  0  0  0  0  0  0
  -30.1710  -24.6920   20.2740 C   0  0  0  0  0  3  0  0  0  0  0  0
  -29.2610  -25.4290   19.2650 C   0  0  0  0  0  2  0  0  0  0  0  0
  -28.1290  -26.2970   19.8510 C   0  0  0  0  0  2  0  0  0  0  0  0
  -27.4940  -26.9580   18.7620 O   0  0  0  0  0  0  0  0  0  0  0  0
  -24.6030  -31.6170   23.3130 C   0  0  0  0  0  0  0  0  0  0  0  0
  -26.4270  -27.7430   19.1090 C   0  0  0  0  0  0  0  0  0  0  0  0
  -23.0810  -30.6700   21.6040 C   0  0  0  0  0  3  0  0  0  0  0  0
  -24.2060  -29.3600   19.7270 C   0  0  0  0  0  0  0  0  0  0  0  0
  -25.5890  -30.8840   21.1510 C   0  0  0  0  0  2  0  0  0  0  0  0
  -25.4660  -29.6700   20.2540 C   0  0  0  0  0  0  0  0  0  0  0  0
  -26.5820  -28.8610   19.9540 C   0  0  0  0  0  3  0  0  0  0  0  0
  -25.1610  -27.4440   18.5710 C   0  0  0  0  0  3  0  0  0  0  0  0
  -24.0460  -28.2440   18.8840 C   0  0  0  0  0  3  0  0  0  0  0  0
  -23.0590  -30.2680   20.1050 C   0  0  0  0  0  2  0  0  0  0  0  0
  -24.4490  -31.0600   22.0790 N   0  0  0  0  0  0  0  0  0  0  0  0
  -23.6260  -31.8500   24.0360 O   0  0  0  0  0  0  0  0  0  0  0  0
  -22.4520  -29.5240   22.4260 C   0  0  0  0  0  0  0  0  0  0  0  0
  -21.1190  -29.3860   22.3320 N   0  0  0  0  0  0  0  0  0  0  0  0
  -23.1570  -28.7640   23.0960 O   0  0  0  0  0  0  0  0  0  0  0  0
  -20.6170  -30.0370   21.7480 H   0  0  0  0  0  0  0  0  0  0  0  0
  -17.7630  -28.0980   22.6720 C   0  0  0  0  0  0  0  0  0  0  0  0
  -20.3140  -28.3570   22.9870 C   0  0  0  0  0  3  0  0  0  0  0  0
  -20.4420  -27.0040   22.2500 C   0  0  0  0  0  2  0  0  0  0  0  0
  -19.3480  -26.7860   21.1990 C   0  0  0  0  0  2  0  0  0  0  0  0
  -17.9620  -26.8380   21.8470 C   0  0  0  0  0  2  0  0  0  0  0  0
  -18.8690  -28.8200   23.1920 C   0  0  0  0  0  0  0  0  0  0  0  0
  -18.6300  -30.0060   23.9200 C   0  0  0  0  0  3  0  0  0  0  0  0
  -17.3160  -30.4690   24.1320 C   0  0  0  0  0  3  0  0  0  0  0  0
  -16.2240  -29.7390   23.6300 C   0  0  0  0  0  3  0  0  0  0  0  0
  -16.4490  -28.5550   22.9060 C   0  0  0  0  0  3  0  0  0  0  0  0
  -26.0090  -32.0110   23.8640 C   0  0  0  0  0  3  0  0  0  0  0  0
  -25.8930  -33.3490   24.4600 N   0  0  0  0  0  0  0  0  0  0  0  0
  -26.3080  -34.4800   23.8770 C   0  0  0  0  0  0  0  0  0  0  0  0
  -26.9040  -34.4970   22.7950 O   0  0  0  0  0  0  0  0  0  0  0  0
  -25.3710  -33.4170   25.3210 H   0  0  0  0  0  0  0  0  0  0  0  0
  -24.8040  -36.4920   23.9700 C   0  0  0  0  0  1  0  0  0  0  0  0
  -26.0180  -35.8020   24.6130 C   0  0  0  0  0  3  0  0  0  0  0  0
  -28.2740  -36.2590   25.4630 C   0  0  0  0  0  1  0  0  0  0  0  0
  -27.1680  -36.7320   24.6350 N   0  0  0  0  0  0  0  0  0  0  0  0
  -26.8870  -37.6500   24.9720 H   0  0  0  0  0  0  0  0  0  0  0  0
  -26.5820  -30.9770   24.9110 C   0  0  1  0  0  0  0  0  0  0  0  0
  -25.5960  -30.6420   26.0550 C   0  0  0  0  0  1  0  0  0  0  0  0
  -26.9720  -29.6490   24.2180 C   0  0  0  0  0  1  0  0  0  0  0  0
  -27.8790  -31.5360   25.5430 C   0  0  0  0  0  1  0  0  0  0  0  0
  -29.7730  -19.6610   19.9390 C   0  0  0  0  0  2  0  0  0  0  0  0
  -29.7890  -18.3960   20.8170 C   0  0  0  0  0  2  0  0  0  0  0  0
  -30.5730  -17.2490   20.1420 C   0  0  0  0  0  2  0  0  0  0  0  0
  -30.3130  -15.8650   20.7690 C   0  0  0  0  0  2  0  0  0  0  0  0
  -30.9920  -14.6900   20.0240 C   0  0  0  0  0  0  0  0  0  0  0  0
  -30.7030  -12.4670   18.9780 C   0  0  0  0  0  2  0  0  0  0  0  0
  -29.7000  -12.5760   17.8120 C   0  0  0  0  0  2  0  0  0  0  0  0
  -28.2460  -12.4620   18.3160 C   0  0  0  0  0  2  0  0  0  0  0  0
  -27.9590  -13.3800   19.5340 C   0  0  0  0  0  3  0  0  0  0  0  0
  -29.0590  -13.2060   20.6060 C   0  0  0  0  0  2  0  0  0  0  0  0
  -30.3540  -13.4930   19.9700 N   0  0  0  0  0  0  0  0  0  0  0  0
  -32.0580  -14.8950   19.4300 O   0  0  0  0  0  0  0  0  0  0  0  0
  -25.6360  -14.0550   20.4170 C   0  0  0  0  0  0  0  0  0  0  0  0
  -24.5610  -13.3060   20.8230 C   0  0  0  0  0  0  0  0  0  0  0  0
  -24.9640  -11.9420   20.7060 C   0  0  0  0  0  0  0  0  0  0  0  0
  -26.6270  -13.1430   20.0840 N   0  0  0  0  0  0  0  0  0  0  0  0
  -26.2280  -11.8660   20.3100 N   0  0  0  0  0  0  0  0  0  0  0  0
  -24.2050  -10.7010   20.8930 C   0  0  0  0  0  0  0  0  0  0  0  0
  -24.5930   -9.7310   21.8420 C   0  0  0  0  0  3  0  0  0  0  0  0
  -23.8340   -8.5530   22.0150 C   0  0  0  0  0  3  0  0  0  0  0  0
  -22.6710   -8.3380   21.2370 C   0  0  0  0  0  0  0  0  0  0  0  0
  -22.3010   -9.2970   20.2770 C   0  0  0  0  0  3  0  0  0  0  0  0
  -23.0620  -10.4660   20.1030 C   0  0  0  0  0  3  0  0  0  0  0  0
  -21.8880   -7.2120   21.3170 O   0  0  0  0  0  0  0  0  0  0  0  0
  -21.7000   -6.5490   22.5040 C   0  0  0  0  0  0  0  0  0  0  0  0
  -21.1400   -7.1870   23.6320 C   0  0  0  0  0  3  0  0  0  0  0  0
  -20.8990   -6.4520   24.8090 C   0  0  0  0  0  3  0  0  0  0  0  0
  -21.2070   -5.0800   24.8580 C   0  0  0  0  0  0  0  0  0  0  0  0
  -21.7610   -4.4410   23.7330 C   0  0  0  0  0  3  0  0  0  0  0  0
  -22.0030   -5.1740   22.5580 C   0  0  0  0  0  0  0  0  0  0  0  0
  -22.5160   -4.5500   21.4720 F   0  0  0  0  0  0  0  0  0  0  0  0
  -20.9700   -4.3700   25.9850 F   0  0  0  0  0  0  0  0  0  0  0  0
  -23.2070  -13.8260   21.2100 C   0  0  0  0  0  0  0  0  0  0  0  0
  -22.5210  -13.1340   22.1140 N   0  0  0  0  0  0  0  0  0  0  0  0
  -22.7680  -14.8770   20.7470 O   0  0  0  0  0  0  0  0  0  0  0  0
  -22.8910  -12.2820   22.5080 H   0  0  0  0  0  0  0  0  0  0  0  0
  -21.6170  -13.4670   22.4210 H   0  0  0  0  0  0  0  0  0  0  0  0
  -25.8460  -15.4230   20.2880 N   0  0  0  0  0  0  0  0  0  0  0  0
  -25.1180  -16.1050   20.4750 H   0  0  0  0  0  0  0  0  0  0  0  0
  -26.6960  -15.8410   19.9310 H   0  0  0  0  0  0  0  0  0  0  0  0
  2  1  2  0
  3  1  1  0
  4  5  2  0
  4  6  1  0
  5  2  1  0
  6  3  2  0
  8  6  1  0
  8  7  1  0
  9 10  1  0
  9  8  1  0
 11 13  1  0
 11 10  1  0
 12 23  2  0
 13 18  1  0
 14 22  1  0
 14 24  1  0
 15 21  1  0
 15 17  1  0
 16 22  1  0
 17 16  1  0
 18 17  2  0
 19 20  1  0
 19 13  2  0
 20 15  2  0
 21 14  1  0
 22 12  1  0
 24 26  2  0
 25 24  1  0
 27 25  1  0
 28 37  2  0
 28 33  1  0
 29 25  1  0
 29 33  1  0
 30 29  1  0
 31 32  1  0
 31 30  1  0
 32 28  1  0
 33 34  2  0
 34 35  1  0
 36 35  2  0
 37 36  1  0
 38 12  1  0
 38 39  1  0
 38 48  1  0
 39 42  1  0
 40 39  1  0
 40 44  1  0
 41 40  2  0
 44 43  1  0
 44 46  1  0
 46 47  1  0
 46 45  1  0
 48 51  1  1
 48 49  1  0
 50 48  1  0
 52  5  1  0
 52 53  1  0
 54 55  1  0
 54 53  1  0
 56 55  1  0
 57 62  1  0
 58 59  1  0
 58 57  1  0
 60 59  1  0
 60 67  1  0
 60 61  1  0
 62 56  1  0
 62 61  1  0
 63 56  2  0
 64 65  2  0
 65 84  1  0
 66 65  1  0
 66 69  1  0
 67 68  1  0
 67 64  1  0
 68 66  2  0
 69 70  1  0
 70 71  2  0
 72 75  1  0
 72 71  1  0
 73 72  2  0
 74 73  1  0
 74 69  2  0
 75 76  1  0
 76 81  2  0
 76 77  1  0
 77 78  2  0
 78 79  1  0
 79 83  1  0
 80 79  2  0
 81 80  1  0
 82 81  1  0
 84 85  1  0
 85 88  1  0
 85 87  1  0
 86 84  2  0
 89 64  1  0
 89 90  1  0
 91 89  1  0
M  ISO  4  10 101  11 101  55 100  56 100
M  END
>  <TORSDO>  (64) 
F 23

>  <SCORE>  (64) 
-10.835

>  <name>  (64) 
63

>  <ligand_id>  (64) 
63

>  <original_smiles>  (64) 
[H]c1c([H])c([H])c2c(c1[H])C([H])([H])C([H])([H])C([H])([H])C2([H])N([H])C(=O)C1([H])N(C(=O)C([H])(N([H])C(=O)C([H])(N([H])C([H])([H])[H])C([H])([H])[H])C(C([H])([H])[H])(C([H])([H])[H])C([H])([H])[H])C([H])([H])c2c([H])c(OC([H])([H])C([H])([H])C([H])(c3c([H])c([H])c([H])c(C([H])([H])C([H])([H])C([H])([H])C([H])([H])C(=O)N4C([H])([H])C([H])([H])C([H])([H])C([H])(n5nc(-c6c([H])c([H])c(Oc7c([H])c([H])c(F)c([H])c7F)c([H])c6[H])c(C(=O)N([H])[H])c5N([H])[H])C4([H])[H])c3[H])C([H])([H])[H])c([H])c([H])c2C1([H])[H]

>  <smiles>  (64) 
[H]c1c([H])c([H])c2c(c1[H])C([H])([H])C([H])([H])C([H])([H])C2([H])N([H])C(=O)C1([H])N(C(=O)C([H])(N([H])C(=O)C([H])(N([H])C([H])([H])[H])C([H])([H])[H])C(C([H])([H])[H])(C([H])([H])[H])C([H])([H])[H])C([H])([H])c2c([H])c(OC([H])([H])C([H])([H])C([H])(c3c([H])c([H])c([H])c(C([H])([H])C([H])([H])C([H])([H])C([H])([H])C(=O)N4C([H])([H])C([H])([H])C([H])([H])C([H])(n5nc(-c6c([H])c([H])c(Oc7c([H])c([H])c(F)c([H])c7F)c([H])c6[H])c(C(=O)N([H])[H])c5N([H])[H])C4([H])[H])c3[H])C([H])([H])[H])c([H])c([H])c2C1([H])[H]

$$$$
64:0:0
     RDKit          3D

 92100  0  0  1  0  0  0  0  0999 V2000
  -31.9070  -21.4850   19.4980 C   0  0  0  0  0  3  0  0  0  0  0  0
  -31.2240  -22.7000   19.6100 C   0  0  0  0  0  3  0  0  0  0  0  0
  -31.2400  -20.2680   19.6890 C   0  0  0  0  0  3  0  0  0  0  0  0
  -29.8430  -22.7830   19.9040 C   0  0  0  0  0  0  0  0  0  0  0  0
  -29.8620  -20.2080   19.9970 C   0  0  0  0  0  0  0  0  0  0  0  0
  -29.1580  -21.5060   20.0800 C   0  0  0  0  0  0  0  0  0  0  0  0
  -26.9890  -21.3180   19.1340 C   0  0  0  0  0  1  0  0  0  0  0  0
  -27.7820  -21.5910   20.3270 N   0  0  0  0  0  0  0  0  0  0  0  0
  -27.5340  -22.4840   20.7460 H   0  0  0  0  0  0  0  0  0  0  0  0
  -29.3900  -24.2680   19.9400 C   0  0  0  0  0  3  0  0  0  0  0  0
  -28.2530  -25.0360   20.0250 C   0  0  0  0  0  3  0  0  0  0  0  0
  -28.3090  -26.4590   20.0030 O   0  0  0  0  0  0  0  0  0  0  0  0
  -24.5980  -31.8030   23.1770 C   0  0  0  0  0  0  0  0  0  0  0  0
  -27.1690  -27.2840   20.0180 C   0  0  0  0  0  0  0  0  0  0  0  0
  -23.3740  -30.4420   21.5180 C   0  0  0  0  0  3  0  0  0  0  0  0
  -24.8080  -28.9080   20.0520 C   0  0  0  0  0  0  0  0  0  0  0  0
  -25.9110  -30.7530   21.3190 C   0  0  0  0  0  2  0  0  0  0  0  0
  -25.9810  -29.3820   20.6520 C   0  0  0  0  0  0  0  0  0  0  0  0
  -27.1620  -28.5800   20.6280 C   0  0  0  0  0  3  0  0  0  0  0  0
  -25.9780  -26.8670   19.3860 C   0  0  0  0  0  3  0  0  0  0  0  0
  -24.8090  -27.6570   19.4110 C   0  0  0  0  0  3  0  0  0  0  0  0
  -23.5740  -29.7880   20.1240 C   0  0  0  0  0  2  0  0  0  0  0  0
  -24.6470  -31.0160   22.0610 N   0  0  0  0  0  0  0  0  0  0  0  0
  -23.5200  -32.0730   23.7270 O   0  0  0  0  0  0  0  0  0  0  0  0
  -22.7150  -29.4100   22.4640 C   0  0  0  0  0  0  0  0  0  0  0  0
  -21.3860  -29.2480   22.3510 N   0  0  0  0  0  0  0  0  0  0  0  0
  -23.3970  -28.7610   23.2600 O   0  0  0  0  0  0  0  0  0  0  0  0
  -20.8930  -29.8240   21.6820 H   0  0  0  0  0  0  0  0  0  0  0  0
  -18.0030  -28.0810   22.8760 C   0  0  0  0  0  0  0  0  0  0  0  0
  -20.5680  -28.3000   23.1090 C   0  0  0  0  0  3  0  0  0  0  0  0
  -20.6420  -26.8840   22.4920 C   0  0  0  0  0  2  0  0  0  0  0  0
  -19.5190  -26.6040   21.4880 C   0  0  0  0  0  2  0  0  0  0  0  0
  -18.1500  -26.7480   22.1600 C   0  0  0  0  0  2  0  0  0  0  0  0
  -19.1380  -28.8160   23.3070 C   0  0  0  0  0  0  0  0  0  0  0  0
  -18.9460  -30.0640   23.9390 C   0  0  0  0  0  3  0  0  0  0  0  0
  -17.6510  -30.5770   24.1410 C   0  0  0  0  0  3  0  0  0  0  0  0
  -16.5300  -29.8380   23.7240 C   0  0  0  0  0  3  0  0  0  0  0  0
  -16.7070  -28.5900   23.0990 C   0  0  0  0  0  3  0  0  0  0  0  0
  -25.8880  -32.4170   23.8010 C   0  0  0  0  0  3  0  0  0  0  0  0
  -25.5850  -33.8080   24.1690 N   0  0  0  0  0  0  0  0  0  0  0  0
  -25.8900  -34.8770   23.4210 C   0  0  0  0  0  0  0  0  0  0  0  0
  -26.5240  -34.7960   22.3660 O   0  0  0  0  0  0  0  0  0  0  0  0
  -25.0180  -33.9440   24.9920 H   0  0  0  0  0  0  0  0  0  0  0  0
  -24.1340  -36.6610   23.1790 C   0  0  0  0  0  1  0  0  0  0  0  0
  -25.4160  -36.2550   23.9220 C   0  0  0  0  0  3  0  0  0  0  0  0
  -27.5790  -37.1460   24.6680 C   0  0  0  0  0  1  0  0  0  0  0  0
  -26.4340  -37.3180   23.7770 N   0  0  0  0  0  0  0  0  0  0  0  0
  -26.0290  -38.2320   23.9560 H   0  0  0  0  0  0  0  0  0  0  0  0
  -26.4140  -31.6150   25.0540 C   0  0  1  0  0  0  0  0  0  0  0  0
  -25.3320  -31.3560   26.1270 C   0  0  0  0  0  1  0  0  0  0  0  0
  -26.9880  -30.2440   24.6250 C   0  0  0  0  0  1  0  0  0  0  0  0
  -27.5760  -32.3870   25.7230 C   0  0  0  0  0  1  0  0  0  0  0  0
  -29.3260  -18.7480   20.2380 C   0  0  0  0  0  0  0  0  0  0  0  0
  -28.1630  -18.5200   20.5790 O   0  0  0  0  0  0  0  0  0  0  0  0
  -30.2720  -17.4660   20.0770 C   0  0  0  0  0  3  0  0  0  0  0  0
  -29.7630  -16.0070   20.5430 C   0  0  0  0  0  3  0  0  0  0  0  0
  -30.5300  -14.6970   20.0440 C   0  0  0  0  0  0  0  0  0  0  0  0
  -30.2840  -12.4350   19.0030 C   0  0  0  0  0  2  0  0  0  0  0  0
  -29.2790  -12.5360   17.8330 C   0  0  0  0  0  2  0  0  0  0  0  0
  -27.8330  -12.3650   18.3360 C   0  0  0  0  0  2  0  0  0  0  0  0
  -27.5290  -13.2430   19.5790 C   0  0  0  0  0  3  0  0  0  0  0  0
  -28.6430  -13.1240   20.6420 C   0  0  0  0  0  2  0  0  0  0  0  0
  -29.9190  -13.4650   20.0000 N   0  0  0  0  0  0  0  0  0  0  0  0
  -31.6660  -14.8290   19.5790 O   0  0  0  0  0  0  0  0  0  0  0  0
  -25.1950  -13.8480   20.4590 C   0  0  0  0  0  0  0  0  0  0  0  0
  -24.1400  -13.0780   20.8690 C   0  0  0  0  0  0  0  0  0  0  0  0
  -24.5800  -11.7220   20.7720 C   0  0  0  0  0  0  0  0  0  0  0  0
  -26.2100  -12.9620   20.1370 N   0  0  0  0  0  0  0  0  0  0  0  0
  -25.8500  -11.6760   20.3880 N   0  0  0  0  0  0  0  0  0  0  0  0
  -23.8480  -10.4650   20.9700 C   0  0  0  0  0  0  0  0  0  0  0  0
  -24.2910   -9.4870   21.8880 C   0  0  0  0  0  3  0  0  0  0  0  0
  -23.5590   -8.2950   22.0730 C   0  0  0  0  0  3  0  0  0  0  0  0
  -22.3690   -8.0710   21.3410 C   0  0  0  0  0  0  0  0  0  0  0  0
  -21.9450   -9.0370   20.4120 C   0  0  0  0  0  3  0  0  0  0  0  0
  -22.6770  -10.2210   20.2240 C   0  0  0  0  0  3  0  0  0  0  0  0
  -21.6080   -6.9320   21.4350 O   0  0  0  0  0  0  0  0  0  0  0  0
  -21.5410   -6.2050   22.5980 C   0  0  0  0  0  0  0  0  0  0  0  0
  -21.0950   -6.7780   23.8090 C   0  0  0  0  0  3  0  0  0  0  0  0
  -20.9750   -5.9780   24.9620 C   0  0  0  0  0  3  0  0  0  0  0  0
  -21.2900   -4.6070   24.9060 C   0  0  0  0  0  0  0  0  0  0  0  0
  -21.7300   -4.0340   23.7000 C   0  0  0  0  0  3  0  0  0  0  0  0
  -21.8510   -4.8320   22.5480 C   0  0  0  0  0  0  0  0  0  0  0  0
  -22.2550   -4.2700   21.3830 F   0  0  0  0  0  0  0  0  0  0  0  0
  -21.1680   -3.8370   26.0130 F   0  0  0  0  0  0  0  0  0  0  0  0
  -22.7680  -13.5650   21.2340 C   0  0  0  0  0  0  0  0  0  0  0  0
  -22.0830  -12.8560   22.1240 N   0  0  0  0  0  0  0  0  0  0  0  0
  -22.3130  -14.6090   20.7660 O   0  0  0  0  0  0  0  0  0  0  0  0
  -22.4640  -12.0100   22.5230 H   0  0  0  0  0  0  0  0  0  0  0  0
  -21.1640  -13.1620   22.4110 H   0  0  0  0  0  0  0  0  0  0  0  0
  -25.3680  -15.2210   20.3140 N   0  0  0  0  0  0  0  0  0  0  0  0
  -24.6240  -15.8840   20.5010 H   0  0  0  0  0  0  0  0  0  0  0  0
  -26.2160  -15.6630   19.9800 H   0  0  0  0  0  0  0  0  0  0  0  0
  1  2  2  0
  1  3  1  0
  2  4  1  0
  3  5  2  0
  4 10  1  0
  4  6  2  0
  5  6  1  0
  5 53  1  0
  6  8  1  0
  7  8  1  0
  8  9  1  0
 10 11  2  0
 12 14  1  0
 12 11  1  0
 13 24  2  0
 14 19  1  0
 15 23  1  0
 15 25  1  0
 16 22  1  0
 16 18  1  0
 17 23  1  0
 18 17  1  0
 19 18  2  0
 20 21  1  0
 20 14  2  0
 21 16  2  0
 22 15  1  0
 23 13  1  0
 25 27  2  0
 26 25  1  0
 28 26  1  0
 29 38  2  0
 29 34  1  0
 30 26  1  0
 30 34  1  0
 31 30  1  0
 32 33  1  0
 32 31  1  0
 33 29  1  0
 34 35  2  0
 35 36  1  0
 37 36  2  0
 38 37  1  0
 39 13  1  0
 39 40  1  0
 39 49  1  0
 40 43  1  0
 41 45  1  0
 41 40  1  0
 42 41  2  0
 45 44  1  0
 47 45  1  0
 47 48  1  0
 47 46  1  0
 49 52  1  1
 49 50  1  0
 51 49  1  0
 53 54  2  0
 55 53  1  0
 55 56  2  0
 57 56  1  0
 58 63  1  0
 59 60  1  0
 59 58  1  0
 61 60  1  0
 61 68  1  0
 61 62  1  0
 63 57  1  0
 63 62  1  0
 64 57  2  0
 65 66  2  0
 66 85  1  0
 67 66  1  0
 67 70  1  0
 68 69  1  0
 68 65  1  0
 69 67  2  0
 70 71  1  0
 71 72  2  0
 73 76  1  0
 73 72  1  0
 74 73  2  0
 75 74  1  0
 75 70  2  0
 76 77  1  0
 77 78  1  0
 78 79  2  0
 80 79  1  0
 80 84  1  0
 81 80  2  0
 82 77  2  0
 82 81  1  0
 83 82  1  0
 85 86  1  0
 86 89  1  0
 86 88  1  0
 87 85  2  0
 90 65  1  0
 90 91  1  0
 92 90  1  0
M  ISO  4  11 101  12 101  56 100  57 100
M  END
>  <TORSDO>  (65) 
F 21

>  <SCORE>  (65) 
-13.426

>  <name>  (65) 
64

>  <ligand_id>  (65) 
64

>  <original_smiles>  (65) 
[H]C(Oc1c([H])c([H])c2c(c1[H])C([H])([H])N(C(=O)C([H])(N([H])C(=O)C([H])(N([H])C([H])([H])[H])C([H])([H])[H])C(C([H])([H])[H])(C([H])([H])[H])C([H])([H])[H])C([H])(C(=O)N([H])C1([H])c3c([H])c([H])c([H])c([H])c3C([H])([H])C([H])([H])C1([H])[H])C2([H])[H])=C([H])c1c([H])c([H])c([H])c(C(=O)C([H])([H])C([H])([H])C(=O)N2C([H])([H])C([H])([H])C([H])([H])C([H])(n3nc(-c4c([H])c([H])c(Oc5c([H])c([H])c(F)c([H])c5F)c([H])c4[H])c(C(=O)N([H])[H])c3N([H])[H])C2([H])[H])c1N([H])C([H])([H])[H]

>  <smiles>  (65) 
[H]C(Oc1c([H])c([H])c2c(c1[H])C([H])([H])N(C(=O)C([H])(N([H])C(=O)C([H])(N([H])C([H])([H])[H])C([H])([H])[H])C(C([H])([H])[H])(C([H])([H])[H])C([H])([H])[H])C([H])(C(=O)N([H])C1([H])c3c([H])c([H])c([H])c([H])c3C([H])([H])C([H])([H])C1([H])[H])C2([H])[H])=C([H])c1c([H])c([H])c([H])c(C(=O)C([H])([H])C([H])([H])C(=O)N2C([H])([H])C([H])([H])C([H])([H])C([H])(n3nc(-c4c([H])c([H])c(Oc5c([H])c([H])c(F)c([H])c5F)c([H])c4[H])c(C(=O)N([H])[H])c3N([H])[H])C2([H])[H])c1N([H])C([H])([H])[H]

$$$$
65:0:0
     RDKit          3D

 99109  0  0  1  0  0  0  0  0999 V2000
  -32.6670  -19.0850   21.0300 C   0  0  0  0  0  3  0  0  0  0  0  0
  -33.3820  -20.1420   20.4380 C   0  0  0  0  0  3  0  0  0  0  0  0
  -30.5750  -20.1840   20.4550 C   0  0  0  0  0  3  0  0  0  0  0  0
  -31.2830  -21.2760   19.9030 C   0  0  0  0  0  0  0  0  0  0  0  0
  -31.2530  -19.0820   21.0200 C   0  0  0  0  0  0  0  0  0  0  0  0
  -32.7030  -21.2330   19.8570 C   0  0  0  0  0  0  0  0  0  0  0  0
  -33.5240  -22.3430   19.2170 C   0  0  0  0  0  1  0  0  0  0  0  0
  -31.0310  -17.8040   24.0100 C   0  0  0  0  0  2  0  0  0  0  0  0
  -29.9830  -18.3870   23.0690 C   0  0  0  0  0  2  0  0  0  0  0  0
  -31.3690  -16.4480   23.3940 C   0  0  0  0  0  2  0  0  0  0  0  0
  -30.4310  -17.9620   21.6650 C   0  0  0  0  0  3  0  0  0  0  0  0
  -31.1700  -16.6070   21.8720 C   0  0  0  0  0  3  0  0  0  0  0  0
  -30.6350  -14.8510   20.1900 C   0  0  0  0  0  0  0  0  0  0  0  0
  -30.2450  -12.7870   18.8990 C   0  0  0  0  0  2  0  0  0  0  0  0
  -29.2420  -13.0010   17.7540 C   0  0  0  0  0  2  0  0  0  0  0  0
  -27.8020  -12.7940   18.2590 C   0  0  0  0  0  2  0  0  0  0  0  0
  -27.5040  -13.6050   19.5460 C   0  0  0  0  0  3  0  0  0  0  0  0
  -28.6130  -13.3990   20.6030 C   0  0  0  0  0  2  0  0  0  0  0  0
  -29.9180  -13.7150   19.9920 N   0  0  0  0  0  0  0  0  0  0  0  0
  -31.5320  -15.2240   19.4280 O   0  0  0  0  0  0  0  0  0  0  0  0
  -30.3950  -15.4790   21.3480 N   0  0  0  0  0  0  0  0  0  0  0  0
  -29.6790  -15.0860   21.9390 H   0  0  0  0  0  0  0  0  0  0  0  0
  -25.1230  -14.1250   20.3830 C   0  0  0  0  0  0  0  0  0  0  0  0
  -24.0980  -13.3110   20.7870 C   0  0  0  0  0  0  0  0  0  0  0  0
  -24.5960  -11.9760   20.7000 C   0  0  0  0  0  0  0  0  0  0  0  0
  -26.1820  -13.2810   20.0810 N   0  0  0  0  0  0  0  0  0  0  0  0
  -25.8690  -11.9830   20.3250 N   0  0  0  0  0  0  0  0  0  0  0  0
  -23.9180  -10.6880   20.8960 C   0  0  0  0  0  0  0  0  0  0  0  0
  -24.3150   -9.7920   21.9130 C   0  0  0  0  0  3  0  0  0  0  0  0
  -23.6360   -8.5670   22.0930 C   0  0  0  0  0  3  0  0  0  0  0  0
  -22.5470   -8.2300   21.2570 C   0  0  0  0  0  0  0  0  0  0  0  0
  -22.1710   -9.1140   20.2300 C   0  0  0  0  0  3  0  0  0  0  0  0
  -22.8500  -10.3300   20.0480 C   0  0  0  0  0  3  0  0  0  0  0  0
  -21.8460   -7.0510   21.3420 O   0  0  0  0  0  0  0  0  0  0  0  0
  -21.6270   -6.4280   22.5450 C   0  0  0  0  0  0  0  0  0  0  0  0
  -20.9250   -7.0610   23.5940 C   0  0  0  0  0  3  0  0  0  0  0  0
  -20.6620   -6.3610   24.7890 C   0  0  0  0  0  3  0  0  0  0  0  0
  -21.0900   -5.0280   24.9320 C   0  0  0  0  0  0  0  0  0  0  0  0
  -21.7840   -4.3930   23.8860 C   0  0  0  0  0  3  0  0  0  0  0  0
  -22.0490   -5.0920   22.6950 C   0  0  0  0  0  0  0  0  0  0  0  0
  -22.6990   -4.4690   21.6820 F   0  0  0  0  0  0  0  0  0  0  0  0
  -20.8300   -4.3510   26.0750 F   0  0  0  0  0  0  0  0  0  0  0  0
  -22.7040  -13.7390   21.1430 C   0  0  0  0  0  0  0  0  0  0  0  0
  -22.0450  -13.0040   22.0320 N   0  0  0  0  0  0  0  0  0  0  0  0
  -22.2060  -14.7590   20.6680 O   0  0  0  0  0  0  0  0  0  0  0  0
  -22.4590  -12.1790   22.4400 H   0  0  0  0  0  0  0  0  0  0  0  0
  -21.1110  -13.2720   22.3110 H   0  0  0  0  0  0  0  0  0  0  0  0
  -25.2410  -15.5030   20.2320 N   0  0  0  0  0  0  0  0  0  0  0  0
  -24.4670  -16.1380   20.3970 H   0  0  0  0  0  0  0  0  0  0  0  0
  -26.0700  -15.9700   19.8840 H   0  0  0  0  0  0  0  0  0  0  0  0
  -30.5030  -22.4240   19.3660 C   0  0  0  0  0  0  0  0  0  0  0  0
  -30.3110  -22.6080   18.1610 O   0  0  0  0  0  0  0  0  0  0  0  0
  -28.3870  -23.4410   20.4210 C   0  0  0  0  0  2  0  0  0  0  0  0
  -30.5470  -24.8290   20.2250 C   0  0  0  0  0  2  0  0  0  0  0  0
  -27.8010  -24.6720   19.7100 C   0  0  0  0  0  2  0  0  0  0  0  0
  -29.7030  -25.9330   20.8910 C   0  0  0  0  0  2  0  0  0  0  0  0
  -29.9400  -23.4110   20.4090 C   0  0  0  0  0  3  0  0  0  0  0  0
  -28.2500  -25.9980   20.3700 C   0  0  0  0  0  3  0  0  0  0  0  0
  -28.1190  -27.0890   19.4520 O   0  0  0  0  0  0  0  0  0  0  0  0
  -24.4450  -31.7210   23.3980 C   0  0  0  0  0  0  0  0  0  0  0  0
  -26.9610  -27.8140   19.5950 C   0  0  0  0  0  0  0  0  0  0  0  0
  -23.1810  -30.6020   21.5900 C   0  0  0  0  0  3  0  0  0  0  0  0
  -24.5800  -29.2980   19.9010 C   0  0  0  0  0  0  0  0  0  0  0  0
  -25.7010  -30.9730   21.3820 C   0  0  0  0  0  2  0  0  0  0  0  0
  -25.7560  -29.7200   20.5370 C   0  0  0  0  0  0  0  0  0  0  0  0
  -26.9500  -28.9810   20.3850 C   0  0  0  0  0  3  0  0  0  0  0  0
  -25.7750  -27.4070   18.9470 C   0  0  0  0  0  3  0  0  0  0  0  0
  -24.5810  -28.1390   19.1070 C   0  0  0  0  0  3  0  0  0  0  0  0
  -23.3460  -30.1470   20.1150 C   0  0  0  0  0  2  0  0  0  0  0  0
  -24.4620  -31.1020   22.1830 N   0  0  0  0  0  0  0  0  0  0  0  0
  -23.3820  -31.9160   24.0030 O   0  0  0  0  0  0  0  0  0  0  0  0
  -22.5430  -29.4470   22.3960 C   0  0  0  0  0  0  0  0  0  0  0  0
  -21.2250  -29.2590   22.2260 N   0  0  0  0  0  0  0  0  0  0  0  0
  -23.2310  -28.7300   23.1270 O   0  0  0  0  0  0  0  0  0  0  0  0
  -20.7330  -29.8940   21.6140 H   0  0  0  0  0  0  0  0  0  0  0  0
  -17.8740  -27.9400   22.4980 C   0  0  0  0  0  0  0  0  0  0  0  0
  -20.4190  -28.2120   22.8530 C   0  0  0  0  0  3  0  0  0  0  0  0
  -20.5650  -26.8720   22.0970 C   0  0  0  0  0  2  0  0  0  0  0  0
  -19.4890  -26.6610   21.0280 C   0  0  0  0  0  2  0  0  0  0  0  0
  -18.0930  -26.6950   21.6580 C   0  0  0  0  0  2  0  0  0  0  0  0
  -18.9670  -28.6620   23.0450 C   0  0  0  0  0  0  0  0  0  0  0  0
  -18.7110  -29.8340   23.7900 C   0  0  0  0  0  3  0  0  0  0  0  0
  -17.3940  -30.2840   23.9940 C   0  0  0  0  0  3  0  0  0  0  0  0
  -16.3140  -29.5570   23.4630 C   0  0  0  0  0  3  0  0  0  0  0  0
  -16.5540  -28.3870   22.7220 C   0  0  0  0  0  3  0  0  0  0  0  0
  -25.7560  -32.2340   24.0710 C   0  0  0  0  0  3  0  0  0  0  0  0
  -25.4910  -33.5870   24.5780 N   0  0  0  0  0  0  0  0  0  0  0  0
  -25.8910  -34.7140   23.9760 C   0  0  0  0  0  0  0  0  0  0  0  0
  -26.5930  -34.7200   22.9600 O   0  0  0  0  0  0  0  0  0  0  0  0
  -24.8670  -33.6580   25.3690 H   0  0  0  0  0  0  0  0  0  0  0  0
  -24.2820  -36.6390   23.7800 C   0  0  0  0  0  1  0  0  0  0  0  0
  -25.4410  -36.0490   24.6000 C   0  0  0  0  0  3  0  0  0  0  0  0
  -27.5410  -36.6850   25.7000 C   0  0  0  0  0  1  0  0  0  0  0  0
  -26.5290  -37.0440   24.7100 N   0  0  0  0  0  0  0  0  0  0  0  0
  -26.1570  -37.9580   24.9550 H   0  0  0  0  0  0  0  0  0  0  0  0
  -26.2700  -31.2920   25.2280 C   0  0  1  0  0  0  0  0  0  0  0  0
  -25.1820  -30.9380   26.2690 C   0  0  0  0  0  1  0  0  0  0  0  0
  -26.8190  -29.9670   24.6520 C   0  0  0  0  0  1  0  0  0  0  0  0
  -27.4450  -31.9710   25.9720 C   0  0  0  0  0  1  0  0  0  0  0  0
  2  1  2  0
  3  5  2  0
  4  3  1  0
  5  1  1  0
  6  4  2  0
  6  2  1  0
  7  6  1  0
  9  8  1  0
 10  8  1  0
 11  5  1  0
 11 12  1  0
 11  9  1  0
 12 21  1  0
 12 10  1  0
 13 21  1  0
 14 19  1  0
 15 16  1  0
 15 14  1  0
 17 16  1  0
 17 26  1  0
 17 18  1  0
 19 13  1  0
 19 18  1  0
 20 13  2  0
 21 22  1  0
 23 24  2  0
 24 43  1  0
 25 24  1  0
 25 28  1  0
 26 27  1  0
 26 23  1  0
 27 25  2  0
 28 29  1  0
 29 30  2  0
 31 34  1  0
 31 30  1  0
 32 31  2  0
 33 32  1  0
 33 28  2  0
 34 35  1  0
 35 40  2  0
 35 36  1  0
 36 37  2  0
 37 38  1  0
 38 42  1  0
 39 38  2  0
 40 39  1  0
 41 40  1  0
 43 44  1  0
 44 47  1  0
 44 46  1  0
 45 43  2  0
 48 23  1  0
 48 49  1  0
 50 48  1  0
 51  4  1  0
 52 51  2  0
 54 57  1  0
 54 56  1  0
 55 58  1  0
 55 53  1  0
 57 51  1  0
 57 53  1  0
 58 59  1  0
 58 56  1  0
 59 61  1  0
 60 71  2  0
 61 66  1  0
 62 70  1  0
 62 72  1  0
 63 69  1  0
 63 65  1  0
 64 70  1  0
 65 64  1  0
 66 65  2  0
 67 68  1  0
 67 61  2  0
 68 63  2  0
 69 62  1  0
 70 60  1  0
 72 74  2  0
 73 72  1  0
 75 73  1  0
 76 85  2  0
 76 81  1  0
 77 73  1  0
 77 81  1  0
 78 77  1  0
 79 80  1  0
 79 78  1  0
 80 76  1  0
 81 82  2  0
 82 83  1  0
 84 83  2  0
 85 84  1  0
 86 60  1  0
 86 87  1  0
 86 96  1  0
 87 90  1  0
 88 87  1  0
 88 92  1  0
 89 88  2  0
 92 91  1  0
 92 94  1  0
 94 95  1  0
 94 93  1  0
 96 99  1  1
 96 97  1  0
 98 96  1  0
M  ISO  4  13 100  21 100  58 101  59 101
M  END
>  <TORSDO>  (66) 
F 19

>  <SCORE>  (66) 
-9.253

>  <name>  (66) 
65

>  <ligand_id>  (66) 
65

>  <original_smiles>  (66) 
[H]c1c([H])c([H])c2c(c1[H])C([H])([H])C([H])([H])C([H])([H])C2([H])N([H])C(=O)C1([H])N(C(=O)C([H])(N([H])C(=O)C([H])(N([H])C([H])([H])[H])C([H])([H])[H])C(C([H])([H])[H])(C([H])([H])[H])C([H])([H])[H])C([H])([H])c2c([H])c(OC3([H])C([H])([H])C([H])([H])C([H])(C(=O)c4c([H])c(C5([H])C([H])([H])C([H])([H])C([H])([H])C5([H])N([H])C(=O)N5C([H])([H])C([H])([H])C([H])([H])C([H])(n6nc(-c7c([H])c([H])c(Oc8c([H])c([H])c(F)c([H])c8F)c([H])c7[H])c(C(=O)N([H])[H])c6N([H])[H])C5([H])[H])c([H])c([H])c4C([H])([H])[H])C([H])([H])C3([H])[H])c([H])c([H])c2C1([H])[H]

>  <smiles>  (66) 
[H]c1c([H])c([H])c2c(c1[H])C([H])([H])C([H])([H])C([H])([H])C2([H])N([H])C(=O)C1([H])N(C(=O)C([H])(N([H])C(=O)C([H])(N([H])C([H])([H])[H])C([H])([H])[H])C(C([H])([H])[H])(C([H])([H])[H])C([H])([H])[H])C([H])([H])c2c([H])c(OC3([H])C([H])([H])C([H])([H])C([H])(C(=O)c4c([H])c(C5([H])C([H])([H])C([H])([H])C([H])([H])C5([H])N([H])C(=O)N5C([H])([H])C([H])([H])C([H])([H])C([H])(n6nc(-c7c([H])c([H])c(Oc8c([H])c([H])c(F)c([H])c8F)c([H])c7[H])c(C(=O)N([H])[H])c6N([H])[H])C5([H])[H])c([H])c([H])c4C([H])([H])[H])C([H])([H])C3([H])[H])c([H])c([H])c2C1([H])[H]

$$$$
66:0:0
     RDKit          3D

 88 95  0  0  1  0  0  0  0  0999 V2000
  -28.6270  -20.2720   20.2730 C   0  0  0  0  0  3  0  0  0  0  0  0
  -27.6990  -20.0570   19.1540 N   0  0  0  0  0  4  0  0  0  0  0  0
  -28.1730  -20.1680   18.2760 H   0  0  0  0  0  0  0  0  0  0  0  0
  -26.9360  -20.7060   19.1970 H   0  0  0  0  0  0  0  0  0  0  0  0
  -27.3200  -19.1280   19.1920 H   0  0  0  0  0  0  0  0  0  0  0  0
  -29.3970  -17.1690   20.3160 C   0  0  0  0  0  3  0  0  0  0  0  0
  -29.6080  -18.6940   20.2580 C   0  0  0  0  0  0  0  0  0  0  0  0
  -30.2530  -15.6870   20.2270 C   0  0  0  0  0  0  0  0  0  0  0  0
  -30.3600  -13.1480   19.4110 C   0  0  0  0  0  2  0  0  0  0  0  0
  -29.4730  -12.7860   18.1860 C   0  0  0  0  0  2  0  0  0  0  0  0
  -28.0410  -12.4350   18.6220 C   0  0  0  0  0  2  0  0  0  0  0  0
  -27.5300  -13.4140   19.7040 C   0  0  0  0  0  3  0  0  0  0  0  0
  -28.5550  -13.7040   20.8220 C   0  0  0  0  0  2  0  0  0  0  0  0
  -29.7450  -14.3150   20.1900 N   0  0  0  0  0  0  0  0  0  0  0  0
  -31.4820  -15.6150   20.0360 O   0  0  0  0  0  0  0  0  0  0  0  0
  -25.1610  -13.9110   20.4720 C   0  0  0  0  0  0  0  0  0  0  0  0
  -24.1120  -13.1170   20.8380 C   0  0  0  0  0  0  0  0  0  0  0  0
  -24.6000  -11.7740   20.8030 C   0  0  0  0  0  0  0  0  0  0  0  0
  -26.2160  -13.0550   20.2220 N   0  0  0  0  0  0  0  0  0  0  0  0
  -25.8940  -11.7620   20.4900 N   0  0  0  0  0  0  0  0  0  0  0  0
  -23.8890  -10.5010   20.9900 C   0  0  0  0  0  0  0  0  0  0  0  0
  -24.3160   -9.5440   21.9360 C   0  0  0  0  0  3  0  0  0  0  0  0
  -23.5990   -8.3410   22.1130 C   0  0  0  0  0  3  0  0  0  0  0  0
  -22.4390   -8.0860   21.3410 C   0  0  0  0  0  0  0  0  0  0  0  0
  -22.0310   -9.0310   20.3840 C   0  0  0  0  0  3  0  0  0  0  0  0
  -22.7490  -10.2250   20.2070 C   0  0  0  0  0  3  0  0  0  0  0  0
  -21.6960   -6.9330   21.4260 O   0  0  0  0  0  0  0  0  0  0  0  0
  -21.6190   -6.2080   22.5890 C   0  0  0  0  0  0  0  0  0  0  0  0
  -21.1200   -6.7700   23.7850 C   0  0  0  0  0  3  0  0  0  0  0  0
  -20.9940   -5.9690   24.9380 C   0  0  0  0  0  3  0  0  0  0  0  0
  -21.3540   -4.6100   24.8960 C   0  0  0  0  0  0  0  0  0  0  0  0
  -21.8450   -4.0480   23.7040 C   0  0  0  0  0  3  0  0  0  0  0  0
  -21.9740   -4.8450   22.5530 C   0  0  0  0  0  0  0  0  0  0  0  0
  -22.4270   -4.2930   21.4020 F   0  0  0  0  0  0  0  0  0  0  0  0
  -21.2260   -3.8390   26.0010 F   0  0  0  0  0  0  0  0  0  0  0  0
  -22.7070  -13.5750   21.1010 C   0  0  0  0  0  0  0  0  0  0  0  0
  -21.9870  -12.8750   21.9700 N   0  0  0  0  0  0  0  0  0  0  0  0
  -22.2590  -14.5900   20.5710 O   0  0  0  0  0  0  0  0  0  0  0  0
  -22.3640  -12.0560   22.4230 H   0  0  0  0  0  0  0  0  0  0  0  0
  -21.0440  -13.1660   22.1860 H   0  0  0  0  0  0  0  0  0  0  0  0
  -25.3010  -15.2850   20.2990 N   0  0  0  0  0  0  0  0  0  0  0  0
  -24.5230  -15.9240   20.4160 H   0  0  0  0  0  0  0  0  0  0  0  0
  -26.1380  -15.7360   19.9560 H   0  0  0  0  0  0  0  0  0  0  0  0
  -30.8790  -19.1010   20.1380 O   0  0  0  0  0  0  0  0  0  0  0  0
  -30.8860  -20.0500   20.1750 H   0  0  0  0  0  0  0  0  0  0  0  0
  -28.9140  -22.1880   20.3140 C   0  0  0  0  0  3  0  0  0  0  0  0
  -27.9320  -23.8610   20.2470 C   0  0  0  0  0  3  0  0  0  0  0  0
  -28.1310  -25.6040   20.3330 O   0  0  0  0  0  0  0  0  0  0  0  0
  -24.6640  -31.9010   23.2360 C   0  0  0  0  0  0  0  0  0  0  0  0
  -27.1570  -26.8090   20.2750 C   0  0  0  0  0  0  0  0  0  0  0  0
  -23.4640  -30.5010   21.6100 C   0  0  0  0  0  3  0  0  0  0  0  0
  -24.8970  -28.8390   20.2060 C   0  0  0  0  0  0  0  0  0  0  0  0
  -26.0410  -30.6350   21.4790 C   0  0  0  0  0  2  0  0  0  0  0  0
  -26.0970  -29.2000   20.8320 C   0  0  0  0  0  0  0  0  0  0  0  0
  -27.2120  -28.2120   20.8330 C   0  0  0  0  0  3  0  0  0  0  0  0
  -25.9250  -26.6520   19.5920 C   0  0  0  0  0  3  0  0  0  0  0  0
  -24.8500  -27.5910   19.5600 C   0  0  0  0  0  3  0  0  0  0  0  0
  -23.6960  -29.7950   20.2430 C   0  0  0  0  0  2  0  0  0  0  0  0
  -24.7470  -31.0440   22.1600 N   0  0  0  0  0  0  0  0  0  0  0  0
  -23.5730  -32.2100   23.7470 O   0  0  0  0  0  0  0  0  0  0  0  0
  -22.7450  -29.5320   22.5880 C   0  0  0  0  0  0  0  0  0  0  0  0
  -21.4130  -29.3780   22.4610 N   0  0  0  0  0  0  0  0  0  0  0  0
  -23.3980  -28.9170   23.4350 O   0  0  0  0  0  0  0  0  0  0  0  0
  -20.9370  -29.9230   21.7570 H   0  0  0  0  0  0  0  0  0  0  0  0
  -18.0240  -28.1700   22.9690 C   0  0  0  0  0  0  0  0  0  0  0  0
  -20.5820  -28.4510   23.2400 C   0  0  0  0  0  3  0  0  0  0  0  0
  -20.6910  -27.0100   22.6880 C   0  0  0  0  0  2  0  0  0  0  0  0
  -19.5950  -26.6700   21.6710 C   0  0  0  0  0  2  0  0  0  0  0  0
  -18.2100  -26.8150   22.3060 C   0  0  0  0  0  2  0  0  0  0  0  0
  -19.1370  -28.9450   23.3930 C   0  0  0  0  0  0  0  0  0  0  0  0
  -18.9060  -30.2080   23.9790 C   0  0  0  0  0  3  0  0  0  0  0  0
  -17.5970  -30.6990   24.1410 C   0  0  0  0  0  3  0  0  0  0  0  0
  -16.4990  -29.9230   23.7300 C   0  0  0  0  0  3  0  0  0  0  0  0
  -16.7140  -28.6610   23.1490 C   0  0  0  0  0  3  0  0  0  0  0  0
  -25.9310  -32.5480   23.8700 C   0  0  0  0  0  3  0  0  0  0  0  0
  -25.6190  -33.9550   24.1900 N   0  0  0  0  0  0  0  0  0  0  0  0
  -25.9440  -35.0100   23.4320 C   0  0  0  0  0  0  0  0  0  0  0  0
  -26.5950  -34.9030   22.3910 O   0  0  0  0  0  0  0  0  0  0  0  0
  -25.0370  -34.1110   25.0000 H   0  0  0  0  0  0  0  0  0  0  0  0
  -24.2110  -36.8160   23.1300 C   0  0  0  0  0  1  0  0  0  0  0  0
  -25.4760  -36.4060   23.9000 C   0  0  0  0  0  3  0  0  0  0  0  0
  -27.6350  -37.2990   24.6620 C   0  0  0  0  0  1  0  0  0  0  0  0
  -26.5080  -37.4570   23.7480 N   0  0  0  0  0  0  0  0  0  0  0  0
  -26.1070  -38.3790   23.8960 H   0  0  0  0  0  0  0  0  0  0  0  0
  -26.4210  -31.7990   25.1720 C   0  0  1  0  0  0  0  0  0  0  0  0
  -25.3130  -31.5950   26.2310 C   0  0  0  0  0  1  0  0  0  0  0  0
  -26.9950  -30.4060   24.8270 C   0  0  0  0  0  1  0  0  0  0  0  0
  -27.5720  -32.5950   25.8320 C   0  0  0  0  0  1  0  0  0  0  0  0
  1 46  1  0
  2  5  1  0
  2  4  1  0
  2  1  1  0
  3  2  1  0
  7  1  1  0
  7  6  2  0
  8  6  1  0
  9 14  1  0
 10 11  1  0
 10  9  1  0
 12 11  1  0
 12 19  1  0
 12 13  1  0
 14  8  1  0
 14 13  1  0
 15  8  2  0
 16 17  2  0
 17 36  1  0
 18 17  1  0
 18 21  1  0
 19 16  1  0
 19 20  1  0
 20 18  2  0
 21 22  1  0
 22 23  2  0
 24 27  1  0
 24 23  1  0
 25 24  2  0
 26 25  1  0
 26 21  2  0
 27 28  1  0
 28 29  1  0
 29 30  2  0
 31 30  1  0
 31 35  1  0
 32 31  2  0
 33 28  2  0
 33 32  1  0
 34 33  1  0
 36 37  1  0
 37 40  1  0
 37 39  1  0
 38 36  2  0
 41 42  1  0
 41 16  1  0
 43 41  1  0
 44 45  1  0
 44  7  1  0
 47 46  2  0
 47 48  1  0
 49 60  2  0
 50 48  1  0
 50 55  1  0
 51 59  1  0
 51 61  1  0
 52 58  1  0
 52 54  1  0
 53 59  1  0
 54 55  2  0
 54 53  1  0
 56 50  2  0
 57 56  1  0
 57 52  2  0
 58 51  1  0
 59 49  1  0
 61 63  2  0
 62 61  1  0
 64 62  1  0
 65 74  2  0
 65 70  1  0
 66 62  1  0
 66 70  1  0
 67 66  1  0
 68 69  1  0
 68 67  1  0
 69 65  1  0
 70 71  2  0
 71 72  1  0
 73 72  2  0
 74 73  1  0
 75 49  1  0
 75 76  1  0
 75 85  1  0
 76 79  1  0
 77 81  1  0
 77 76  1  0
 78 77  2  0
 81 80  1  0
 83 84  1  0
 83 81  1  0
 83 82  1  0
 85 88  1  1
 85 86  1  0
 87 85  1  0
M  ISO  4   6 100   8 100  47 101  48 101
M  END
>  <TORSDO>  (67) 
F 21

>  <SCORE>  (67) 
-16.239

>  <name>  (67) 
66

>  <ligand_id>  (67) 
66

>  <original_smiles>  (67) 
[H]OC(=C([H])C(=O)N1C([H])([H])C([H])([H])C([H])([H])C([H])(n2nc(-c3c([H])c([H])c(Oc4c([H])c([H])c(F)c([H])c4F)c([H])c3[H])c(C(=O)N([H])[H])c2N([H])[H])C1([H])[H])C([H])(C([H])([H])C([H])([H])Oc1c([H])c([H])c2c(c1[H])C([H])([H])N(C(=O)C([H])(N([H])C(=O)C([H])(N([H])C([H])([H])[H])C([H])([H])[H])C(C([H])([H])[H])(C([H])([H])[H])C([H])([H])[H])C([H])(C(=O)N([H])C1([H])c3c([H])c([H])c([H])c([H])c3C([H])([H])C([H])([H])C1([H])[H])C2([H])[H])[N+]([H])([H])[H]

>  <smiles>  (67) 
[H]OC(=C([H])C(=O)N1C([H])([H])C([H])([H])C([H])([H])C([H])(n2nc(-c3c([H])c([H])c(Oc4c([H])c([H])c(F)c([H])c4F)c([H])c3[H])c(C(=O)N([H])[H])c2N([H])[H])C1([H])[H])C([H])(C([H])([H])C([H])([H])Oc1c([H])c([H])c2c(c1[H])C([H])([H])N(C(=O)C([H])(N([H])C(=O)C([H])(N([H])C([H])([H])[H])C([H])([H])[H])C(C([H])([H])[H])(C([H])([H])[H])C([H])([H])[H])C([H])(C(=O)N([H])C1([H])c3c([H])c([H])c([H])c([H])c3C([H])([H])C([H])([H])C1([H])[H])C2([H])[H])[N+]([H])([H])[H]

$$$$
67:0:0
     RDKit          3D

 94102  0  0  1  0  0  0  0  0999 V2000
  -30.3880  -23.8250   21.4620 C   0  0  0  0  0  2  0  0  0  0  0  0
  -30.7350  -20.2090   20.1790 C   0  0  0  0  0  3  0  0  0  0  0  0
  -28.5350  -20.4570   21.1760 C   0  0  0  0  0  3  0  0  0  0  0  0
  -30.9850  -21.5790   20.4130 C   0  0  0  0  0  3  0  0  0  0  0  0
  -28.7880  -21.8250   21.4220 C   0  0  0  0  0  3  0  0  0  0  0  0
  -29.5140  -19.6210   20.5840 C   0  0  0  0  0  0  0  0  0  0  0  0
  -30.0260  -22.3960   21.0560 C   0  0  0  0  0  0  0  0  0  0  0  0
  -29.2150  -18.1650   20.3710 C   0  0  0  0  0  0  0  0  0  0  0  0
  -28.0530  -17.7500   20.2930 O   0  0  0  0  0  0  0  0  0  0  0  0
  -30.3890  -17.1630   20.2750 C   0  0  0  0  0  2  0  0  0  0  0  0
  -30.0830  -15.7420   20.8500 C   0  0  0  0  0  2  0  0  0  0  0  0
  -30.7400  -14.5620   20.0910 C   0  0  0  0  0  0  0  0  0  0  0  0
  -30.4320  -12.3780   18.9610 C   0  0  0  0  0  2  0  0  0  0  0  0
  -29.4530  -12.5570   17.7820 C   0  0  0  0  0  2  0  0  0  0  0  0
  -27.9840  -12.4590   18.2490 C   0  0  0  0  0  2  0  0  0  0  0  0
  -27.6960  -13.3220   19.5060 C   0  0  0  0  0  3  0  0  0  0  0  0
  -28.7740  -13.0680   20.5840 C   0  0  0  0  0  2  0  0  0  0  0  0
  -30.0830  -13.3730   19.9860 N   0  0  0  0  0  0  0  0  0  0  0  0
  -31.8280  -14.7560   19.5360 O   0  0  0  0  0  0  0  0  0  0  0  0
  -25.3300  -14.0090   20.2590 C   0  0  0  0  0  0  0  0  0  0  0  0
  -24.2500  -13.2710   20.6590 C   0  0  0  0  0  0  0  0  0  0  0  0
  -24.6740  -11.9070   20.6350 C   0  0  0  0  0  0  0  0  0  0  0  0
  -26.3460  -13.0950   20.0180 N   0  0  0  0  0  0  0  0  0  0  0  0
  -25.9540  -11.8260   20.2980 N   0  0  0  0  0  0  0  0  0  0  0  0
  -23.9190  -10.6670   20.8600 C   0  0  0  0  0  0  0  0  0  0  0  0
  -24.3440   -9.7050   21.8030 C   0  0  0  0  0  3  0  0  0  0  0  0
  -23.5930   -8.5280   22.0150 C   0  0  0  0  0  3  0  0  0  0  0  0
  -22.4020   -8.3070   21.2830 C   0  0  0  0  0  0  0  0  0  0  0  0
  -21.9950   -9.2560   20.3300 C   0  0  0  0  0  3  0  0  0  0  0  0
  -22.7460  -10.4240   20.1160 C   0  0  0  0  0  3  0  0  0  0  0  0
  -21.6220   -7.1820   21.4040 O   0  0  0  0  0  0  0  0  0  0  0  0
  -21.5640   -6.4680   22.5730 C   0  0  0  0  0  0  0  0  0  0  0  0
  -21.1810   -7.0660   23.7940 C   0  0  0  0  0  3  0  0  0  0  0  0
  -21.0680   -6.2800   24.9580 C   0  0  0  0  0  3  0  0  0  0  0  0
  -21.3270   -4.8970   24.9030 C   0  0  0  0  0  0  0  0  0  0  0  0
  -21.7020   -4.2990   23.6860 C   0  0  0  0  0  3  0  0  0  0  0  0
  -21.8180   -5.0830   22.5240 C   0  0  0  0  0  0  0  0  0  0  0  0
  -22.1600   -4.4980   21.3520 F   0  0  0  0  0  0  0  0  0  0  0  0
  -21.2110   -4.1400   26.0190 F   0  0  0  0  0  0  0  0  0  0  0  0
  -22.8730  -13.7890   20.9610 C   0  0  0  0  0  0  0  0  0  0  0  0
  -22.1530  -13.1280   21.8600 N   0  0  0  0  0  0  0  0  0  0  0  0
  -22.4470  -14.8160   20.4350 O   0  0  0  0  0  0  0  0  0  0  0  0
  -22.5120  -12.2980   22.3090 H   0  0  0  0  0  0  0  0  0  0  0  0
  -21.2280  -13.4570   22.1030 H   0  0  0  0  0  0  0  0  0  0  0  0
  -25.5320  -15.3720   20.0660 N   0  0  0  0  0  0  0  0  0  0  0  0
  -24.8000  -16.0550   20.2260 H   0  0  0  0  0  0  0  0  0  0  0  0
  -26.4220  -15.7970   19.8320 H   0  0  0  0  0  0  0  0  0  0  0  0
  -30.0060  -24.9800   20.4860 C   0  0  0  0  0  3  0  0  0  0  0  0
  -30.9630  -26.0990   20.6500 N   0  0  0  0  0  4  0  0  0  0  0  0
  -30.9830  -26.4390   21.5960 H   0  0  0  0  0  0  0  0  0  0  0  0
  -30.6660  -26.8610   20.0630 H   0  0  0  0  0  0  0  0  0  0  0  0
  -31.8950  -25.8360   20.3810 H   0  0  0  0  0  0  0  0  0  0  0  0
  -28.5670  -25.5460   20.6690 C   0  0  0  0  0  2  0  0  0  0  0  0
  -28.5050  -26.8550   20.0750 O   0  0  0  0  0  0  0  0  0  0  0  0
  -24.5990  -31.9260   23.2150 C   0  0  0  0  0  0  0  0  0  0  0  0
  -27.3060  -27.5280   20.1420 C   0  0  0  0  0  0  0  0  0  0  0  0
  -23.4090  -30.5130   21.5680 C   0  0  0  0  0  3  0  0  0  0  0  0
  -24.8830  -28.9870   20.1500 C   0  0  0  0  0  0  0  0  0  0  0  0
  -25.9260  -30.9090   21.3680 C   0  0  0  0  0  2  0  0  0  0  0  0
  -26.0330  -29.5350   20.7340 C   0  0  0  0  0  0  0  0  0  0  0  0
  -27.2470  -28.8150   20.7230 C   0  0  0  0  0  3  0  0  0  0  0  0
  -26.1400  -26.9870   19.5590 C   0  0  0  0  0  3  0  0  0  0  0  0
  -24.9310  -27.7100   19.5630 C   0  0  0  0  0  3  0  0  0  0  0  0
  -23.6290  -29.8310   20.1900 C   0  0  0  0  0  2  0  0  0  0  0  0
  -24.6630  -31.1330   22.1090 N   0  0  0  0  0  0  0  0  0  0  0  0
  -23.5160  -32.1820   23.7600 O   0  0  0  0  0  0  0  0  0  0  0  0
  -22.7710  -29.4850   22.5300 C   0  0  0  0  0  0  0  0  0  0  0  0
  -21.4460  -29.2960   22.4120 N   0  0  0  0  0  0  0  0  0  0  0  0
  -23.4650  -28.8580   23.3330 O   0  0  0  0  0  0  0  0  0  0  0  0
  -20.9460  -29.8590   21.7370 H   0  0  0  0  0  0  0  0  0  0  0  0
  -18.0810  -28.0900   22.9360 C   0  0  0  0  0  0  0  0  0  0  0  0
  -20.6410  -28.3500   23.1840 C   0  0  0  0  0  3  0  0  0  0  0  0
  -20.7410  -26.9240   22.5940 C   0  0  0  0  0  2  0  0  0  0  0  0
  -19.6300  -26.6100   21.5870 C   0  0  0  0  0  2  0  0  0  0  0  0
  -18.2540  -26.7480   22.2450 C   0  0  0  0  0  2  0  0  0  0  0  0
  -19.2030  -28.8490   23.3620 C   0  0  0  0  0  0  0  0  0  0  0  0
  -18.9900  -30.1080   23.9640 C   0  0  0  0  0  3  0  0  0  0  0  0
  -17.6870  -30.6080   24.1470 C   0  0  0  0  0  3  0  0  0  0  0  0
  -16.5790  -29.8470   23.7350 C   0  0  0  0  0  3  0  0  0  0  0  0
  -16.7770  -28.5890   23.1360 C   0  0  0  0  0  3  0  0  0  0  0  0
  -25.8780  -32.5730   23.8350 C   0  0  0  0  0  3  0  0  0  0  0  0
  -26.4030  -31.8080   25.1110 C   0  0  1  0  0  0  0  0  0  0  0  0
  -25.3130  -31.5660   26.1800 C   0  0  0  0  0  1  0  0  0  0  0  0
  -26.9990  -30.4380   24.7170 C   0  0  0  0  0  1  0  0  0  0  0  0
  -27.5500  -32.6110   25.7710 C   0  0  0  0  0  1  0  0  0  0  0  0
  -25.5570  -33.9680   24.1610 N   0  0  0  0  0  0  0  0  0  0  0  0
  -25.8800  -35.0210   23.3980 C   0  0  0  0  0  0  0  0  0  0  0  0
  -26.5520  -34.9200   22.3680 O   0  0  0  0  0  0  0  0  0  0  0  0
  -24.9600  -34.1190   24.9620 H   0  0  0  0  0  0  0  0  0  0  0  0
  -24.1280  -36.7870   23.0450 C   0  0  0  0  0  1  0  0  0  0  0  0
  -25.3800  -36.4060   23.8510 C   0  0  0  0  0  3  0  0  0  0  0  0
  -27.5130  -37.3170   24.6570 C   0  0  0  0  0  1  0  0  0  0  0  0
  -26.4000  -37.4700   23.7230 N   0  0  0  0  0  0  0  0  0  0  0  0
  -25.9850  -38.3860   23.8730 H   0  0  0  0  0  0  0  0  0  0  0  0
  2  4  2  0
  2  6  1  0
  3  5  1  0
  4  7  1  0
  6  3  2  0
  7  5  2  0
  7  1  1  0
  8  6  1  0
  9  8  2  0
 10  8  1  0
 10 11  1  0
 12 11  1  0
 13 18  1  0
 14 15  1  0
 14 13  1  0
 16 15  1  0
 16 23  1  0
 16 17  1  0
 18 12  1  0
 18 17  1  0
 19 12  2  0
 20 21  2  0
 21 40  1  0
 22 21  1  0
 22 25  1  0
 23 20  1  0
 23 24  1  0
 24 22  2  0
 25 26  1  0
 26 27  2  0
 28 31  1  0
 28 27  1  0
 29 28  2  0
 30 29  1  0
 30 25  2  0
 31 32  1  0
 32 33  1  0
 33 34  2  0
 35 34  1  0
 35 39  1  0
 36 35  2  0
 37 32  2  0
 37 36  1  0
 38 37  1  0
 40 41  1  0
 41 44  1  0
 41 43  1  0
 42 40  2  0
 45 46  1  0
 45 20  1  0
 47 45  1  0
 48 49  1  0
 48 53  1  0
 48  1  1  0
 49 50  1  0
 51 49  1  0
 52 49  1  0
 54 56  1  0
 54 53  1  0
 55 66  2  0
 56 61  1  0
 57 65  1  0
 57 67  1  0
 58 64  1  0
 58 60  1  0
 59 65  1  0
 60 59  1  0
 61 60  2  0
 62 63  1  0
 62 56  2  0
 63 58  2  0
 64 57  1  0
 65 55  1  0
 67 69  2  0
 68 67  1  0
 70 68  1  0
 71 80  2  0
 71 76  1  0
 72 68  1  0
 72 76  1  0
 73 72  1  0
 74 75  1  0
 74 73  1  0
 75 71  1  0
 76 77  2  0
 77 78  1  0
 79 78  2  0
 80 79  1  0
 81 55  1  0
 81 86  1  0
 81 82  1  0
 82 85  1  1
 82 83  1  0
 84 82  1  0
 86 89  1  0
 87 91  1  0
 87 86  1  0
 88 87  2  0
 91 90  1  0
 93 91  1  0
 93 94  1  0
 93 92  1  0
M  ISO  4  11 100  12 100  53 101  54 101
M  END
>  <TORSDO>  (68) 
F 23

>  <SCORE>  (68) 
-12.963

>  <name>  (68) 
67

>  <ligand_id>  (68) 
67

>  <original_smiles>  (68) 
[H]c1c([H])c([H])c2c(c1[H])C([H])([H])C([H])([H])C([H])([H])C2([H])N([H])C(=O)C1([H])N(C(=O)C([H])(N([H])C(=O)C([H])(N([H])C([H])([H])[H])C([H])([H])[H])C(C([H])([H])[H])(C([H])([H])[H])C([H])([H])[H])C([H])([H])c2c([H])c(OC([H])([H])C([H])(C([H])([H])c3c([H])c([H])c(C(=O)C([H])([H])C([H])([H])C(=O)N4C([H])([H])C([H])([H])C([H])([H])C([H])(n5nc(-c6c([H])c([H])c(Oc7c([H])c([H])c(F)c([H])c7F)c([H])c6[H])c(C(=O)N([H])[H])c5N([H])[H])C4([H])[H])c([H])c3[H])[N+]([H])([H])[H])c([H])c([H])c2C1([H])[H]

>  <smiles>  (68) 
[H]c1c([H])c([H])c2c(c1[H])C([H])([H])C([H])([H])C([H])([H])C2([H])N([H])C(=O)C1([H])N(C(=O)C([H])(N([H])C(=O)C([H])(N([H])C([H])([H])[H])C([H])([H])[H])C(C([H])([H])[H])(C([H])([H])[H])C([H])([H])[H])C([H])([H])c2c([H])c(OC([H])([H])C([H])(C([H])([H])c3c([H])c([H])c(C(=O)C([H])([H])C([H])([H])C(=O)N4C([H])([H])C([H])([H])C([H])([H])C([H])(n5nc(-c6c([H])c([H])c(Oc7c([H])c([H])c(F)c([H])c7F)c([H])c6[H])c(C(=O)N([H])[H])c5N([H])[H])C4([H])[H])c([H])c3[H])[N+]([H])([H])[H])c([H])c([H])c2C1([H])[H]

$$$$
68:0:0
     RDKit          3D

 98107  0  0  1  0  0  0  0  0999 V2000
  -31.3350  -21.1100   18.7740 C   0  0  0  0  0  0  0  0  0  0  0  0
  -32.5210  -20.9230   19.0690 O   0  0  0  0  0  0  0  0  0  0  0  0
  -29.3220  -22.6530   18.5240 C   0  0  0  0  0  3  0  0  0  0  0  0
  -31.5120  -23.5930   19.0360 C   0  0  0  0  0  3  0  0  0  0  0  0
  -28.7660  -23.9480   18.5480 C   0  0  0  0  0  3  0  0  0  0  0  0
  -30.9550  -24.8860   19.0600 C   0  0  0  0  0  3  0  0  0  0  0  0
  -30.7040  -22.4630   18.7690 C   0  0  0  0  0  0  0  0  0  0  0  0
  -29.5790  -25.0680   18.8180 C   0  0  0  0  0  0  0  0  0  0  0  0
  -28.9760  -26.4580   18.8380 C   0  0  0  0  0  2  0  0  0  0  0  0
  -28.4880  -26.8090   20.1350 O   0  0  0  0  0  0  0  0  0  0  0  0
  -24.5890  -31.8890   23.2500 C   0  0  0  0  0  0  0  0  0  0  0  0
  -27.3040  -27.5020   20.1560 C   0  0  0  0  0  0  0  0  0  0  0  0
  -23.4060  -30.4830   21.5910 C   0  0  0  0  0  3  0  0  0  0  0  0
  -24.8840  -28.9530   20.1850 C   0  0  0  0  0  0  0  0  0  0  0  0
  -25.9300  -30.8600   21.4230 C   0  0  0  0  0  2  0  0  0  0  0  0
  -26.0310  -29.4900   20.7850 C   0  0  0  0  0  0  0  0  0  0  0  0
  -27.2400  -28.7650   20.7830 C   0  0  0  0  0  3  0  0  0  0  0  0
  -26.1350  -26.9590   19.5790 C   0  0  0  0  0  3  0  0  0  0  0  0
  -24.9270  -27.6810   19.5890 C   0  0  0  0  0  3  0  0  0  0  0  0
  -23.6340  -29.8020   20.2160 C   0  0  0  0  0  2  0  0  0  0  0  0
  -24.6570  -31.0930   22.1460 N   0  0  0  0  0  0  0  0  0  0  0  0
  -23.5020  -32.1550   23.7800 O   0  0  0  0  0  0  0  0  0  0  0  0
  -22.7510  -29.4570   22.5440 C   0  0  0  0  0  0  0  0  0  0  0  0
  -21.4290  -29.2670   22.3980 N   0  0  0  0  0  0  0  0  0  0  0  0
  -23.4270  -28.8370   23.3670 O   0  0  0  0  0  0  0  0  0  0  0  0
  -20.9460  -29.8210   21.7060 H   0  0  0  0  0  0  0  0  0  0  0  0
  -18.0580  -28.0460   22.8420 C   0  0  0  0  0  0  0  0  0  0  0  0
  -20.6080  -28.3240   23.1570 C   0  0  0  0  0  3  0  0  0  0  0  0
  -20.7320  -26.8930   22.5850 C   0  0  0  0  0  2  0  0  0  0  0  0
  -19.6500  -26.5600   21.5530 C   0  0  0  0  0  2  0  0  0  0  0  0
  -18.2560  -26.6970   22.1720 C   0  0  0  0  0  2  0  0  0  0  0  0
  -19.1640  -28.8170   23.2890 C   0  0  0  0  0  0  0  0  0  0  0  0
  -18.9260  -30.0810   23.8730 C   0  0  0  0  0  3  0  0  0  0  0  0
  -17.6150  -30.5740   24.0140 C   0  0  0  0  0  3  0  0  0  0  0  0
  -16.5230  -29.7990   23.5850 C   0  0  0  0  0  3  0  0  0  0  0  0
  -16.7460  -28.5380   23.0040 C   0  0  0  0  0  3  0  0  0  0  0  0
  -25.8670  -32.5220   23.8840 C   0  0  0  0  0  3  0  0  0  0  0  0
  -25.5560  -33.9240   24.1990 N   0  0  0  0  0  0  0  0  0  0  0  0
  -25.9000  -34.9680   23.4350 C   0  0  0  0  0  0  0  0  0  0  0  0
  -26.5850  -34.8550   22.4150 O   0  0  0  0  0  0  0  0  0  0  0  0
  -24.9540  -34.0850   24.9930 H   0  0  0  0  0  0  0  0  0  0  0  0
  -24.1810  -36.7590   23.0360 C   0  0  0  0  0  1  0  0  0  0  0  0
  -25.4070  -36.3600   23.8730 C   0  0  0  0  0  3  0  0  0  0  0  0
  -27.5280  -37.2470   24.7360 C   0  0  0  0  0  1  0  0  0  0  0  0
  -26.4430  -37.4110   23.7720 N   0  0  0  0  0  0  0  0  0  0  0  0
  -26.0350  -38.3330   23.9080 H   0  0  0  0  0  0  0  0  0  0  0  0
  -26.3690  -31.7580   25.1710 C   0  0  1  0  0  0  0  0  0  0  0  0
  -25.2630  -31.5260   26.2260 C   0  0  0  0  0  1  0  0  0  0  0  0
  -26.9570  -30.3800   24.7910 C   0  0  0  0  0  1  0  0  0  0  0  0
  -27.5120  -32.5560   25.8410 C   0  0  0  0  0  1  0  0  0  0  0  0
  -30.4590  -19.9060   18.4130 C   0  0  0  0  0  2  0  0  0  0  0  0
  -31.8260  -18.5610   16.8400 C   0  0  0  0  0  1  0  0  0  0  0  0
  -31.3370  -18.7190   18.2320 N   0  0  2  0  0  4  0  0  0  0  0  0
  -32.1530  -18.9490   18.7890 H   0  0  0  0  0  0  0  0  0  0  0  0
  -31.2570  -17.4150   20.2930 C   0  0  0  0  0  0  0  0  0  0  0  0
  -28.9000  -17.2620   20.3170 C   0  0  0  0  0  2  0  0  0  0  0  0
  -29.3240  -17.2070   18.8370 C   0  0  0  0  0  2  0  0  0  0  0  0
  -30.1250  -16.8230   21.1460 C   0  0  0  0  0  3  0  0  0  0  0  0
  -30.8500  -17.4430   18.8200 C   0  0  0  0  0  3  0  0  0  0  0  0
  -32.3220  -17.8550   20.7310 O   0  0  0  0  0  0  0  0  0  0  0  0
  -30.7540  -14.4010   20.5690 C   0  0  0  0  0  0  0  0  0  0  0  0
  -30.4030  -12.3090   19.3240 C   0  0  0  0  0  2  0  0  0  0  0  0
  -29.4770  -12.6010   18.1260 C   0  0  0  0  0  2  0  0  0  0  0  0
  -27.9960  -12.4950   18.5410 C   0  0  0  0  0  2  0  0  0  0  0  0
  -27.6770  -13.2830   19.8400 C   0  0  0  0  0  3  0  0  0  0  0  0
  -28.7150  -12.9670   20.9420 C   0  0  0  0  0  2  0  0  0  0  0  0
  -30.0610  -13.2460   20.4050 N   0  0  0  0  0  0  0  0  0  0  0  0
  -31.8260  -14.6250   20.0000 O   0  0  0  0  0  0  0  0  0  0  0  0
  -30.0980  -15.3480   21.2660 N   0  0  0  0  0  0  0  0  0  0  0  0
  -29.3150  -14.9900   21.7890 H   0  0  0  0  0  0  0  0  0  0  0  0
  -25.2700  -13.9210   20.4990 C   0  0  0  0  0  0  0  0  0  0  0  0
  -24.1910  -13.1610   20.8580 C   0  0  0  0  0  0  0  0  0  0  0  0
  -24.6380  -11.8040   20.8400 C   0  0  0  0  0  0  0  0  0  0  0  0
  -26.3120  -13.0290   20.2920 N   0  0  0  0  0  0  0  0  0  0  0  0
  -25.9330  -11.7510   20.5480 N   0  0  0  0  0  0  0  0  0  0  0  0
  -23.8990  -10.5510   21.0290 C   0  0  0  0  0  0  0  0  0  0  0  0
  -24.3100   -9.5860   21.9750 C   0  0  0  0  0  3  0  0  0  0  0  0
  -23.5680   -8.3980   22.1530 C   0  0  0  0  0  3  0  0  0  0  0  0
  -22.4030   -8.1650   21.3810 C   0  0  0  0  0  0  0  0  0  0  0  0
  -22.0140   -9.1190   20.4240 C   0  0  0  0  0  3  0  0  0  0  0  0
  -22.7550  -10.2990   20.2450 C   0  0  0  0  0  3  0  0  0  0  0  0
  -21.6380   -7.0260   21.4640 O   0  0  0  0  0  0  0  0  0  0  0  0
  -21.5640   -6.2930   22.6210 C   0  0  0  0  0  0  0  0  0  0  0  0
  -21.1220   -6.8610   23.8360 C   0  0  0  0  0  3  0  0  0  0  0  0
  -20.9900   -6.0540   24.9830 C   0  0  0  0  0  3  0  0  0  0  0  0
  -21.2970   -4.6820   24.9180 C   0  0  0  0  0  0  0  0  0  0  0  0
  -21.7360   -4.1140   23.7090 C   0  0  0  0  0  3  0  0  0  0  0  0
  -21.8670   -4.9180   22.5640 C   0  0  0  0  0  0  0  0  0  0  0  0
  -22.2690   -4.3610   21.3950 F   0  0  0  0  0  0  0  0  0  0  0  0
  -21.1650   -3.9060   26.0190 F   0  0  0  0  0  0  0  0  0  0  0  0
  -22.7960  -13.6520   21.1140 C   0  0  0  0  0  0  0  0  0  0  0  0
  -22.0580  -12.9620   21.9750 N   0  0  0  0  0  0  0  0  0  0  0  0
  -22.3710  -14.6800   20.5870 O   0  0  0  0  0  0  0  0  0  0  0  0
  -22.4180  -12.1310   22.4210 H   0  0  0  0  0  0  0  0  0  0  0  0
  -21.1200  -13.2690   22.1960 H   0  0  0  0  0  0  0  0  0  0  0  0
  -25.4450  -15.2900   20.3130 N   0  0  0  0  0  0  0  0  0  0  0  0
  -24.6760  -15.9440   20.4050 H   0  0  0  0  0  0  0  0  0  0  0  0
  -26.2820  -15.7180   19.9410 H   0  0  0  0  0  0  0  0  0  0  0  0
  1  2  2  0
  3  5  2  0
  3  7  1  0
  4  6  1  0
  5  8  1  0
  7  1  1  0
  7  4  2  0
  8  9  1  0
  8  6  2  0
  9 10  1  0
 10 12  1  0
 11 22  2  0
 12 17  1  0
 13 21  1  0
 13 23  1  0
 14 20  1  0
 14 16  1  0
 15 21  1  0
 16 15  1  0
 17 16  2  0
 18 19  1  0
 18 12  2  0
 19 14  2  0
 20 13  1  0
 21 11  1  0
 23 25  2  0
 24 23  1  0
 26 24  1  0
 27 36  2  0
 27 32  1  0
 28 24  1  0
 28 32  1  0
 29 28  1  0
 30 31  1  0
 30 29  1  0
 31 27  1  0
 32 33  2  0
 33 34  1  0
 35 34  2  0
 36 35  1  0
 37 11  1  0
 37 38  1  0
 37 47  1  0
 38 41  1  0
 39 43  1  0
 39 38  1  0
 40 39  2  0
 43 42  1  0
 45 43  1  0
 45 46  1  0
 45 44  1  0
 47 50  1  1
 47 48  1  0
 49 47  1  0
 51  1  1  0
 52 53  1  0
 53 51  1  0
 53 54  1  1
 55 60  2  0
 55 58  1  0
 56 58  1  0
 57 56  1  0
 58 69  1  0
 59 53  1  0
 59 57  1  0
 59 55  1  0
 61 69  1  0
 62 67  1  0
 63 64  1  0
 63 62  1  0
 65 64  1  0
 65 74  1  0
 65 66  1  0
 67 61  1  0
 67 66  1  0
 68 61  2  0
 69 70  1  0
 71 72  2  0
 72 91  1  0
 73 72  1  0
 73 76  1  0
 74 71  1  0
 74 75  1  0
 75 73  2  0
 76 77  1  0
 77 78  2  0
 79 82  1  0
 79 78  1  0
 80 79  2  0
 81 80  1  0
 81 76  2  0
 82 83  1  0
 83 84  1  0
 84 85  2  0
 86 85  1  0
 86 90  1  0
 87 86  2  0
 88 83  2  0
 88 87  1  0
 89 88  1  0
 91 92  1  0
 92 95  1  0
 92 94  1  0
 93 91  2  0
 96 97  1  0
 96 71  1  0
 98 96  1  0
M  ISO  4   9 101  10 101  61 100  69 100
M  END
>  <TORSDO>  (69) 
F 21

>  <SCORE>  (69) 
-13.796

>  <name>  (69) 
68

>  <ligand_id>  (69) 
68

>  <original_smiles>  (69) 
[H]c1c([H])c([H])c2c(c1[H])C([H])([H])C([H])([H])C([H])([H])C2([H])N([H])C(=O)C1([H])N(C(=O)C([H])(N([H])C(=O)C([H])(N([H])C([H])([H])[H])C([H])([H])[H])C(C([H])([H])[H])(C([H])([H])[H])C([H])([H])[H])C([H])([H])c2c([H])c(OC([H])([H])c3c([H])c([H])c(C(=O)C([H])([H])[N+]([H])(C([H])([H])[H])C4([H])C(=O)C([H])(N([H])C(=O)N5C([H])([H])C([H])([H])C([H])([H])C([H])(n6nc(-c7c([H])c([H])c(Oc8c([H])c([H])c(F)c([H])c8F)c([H])c7[H])c(C(=O)N([H])[H])c6N([H])[H])C5([H])[H])C([H])([H])C4([H])[H])c([H])c3[H])c([H])c([H])c2C1([H])[H]

>  <smiles>  (69) 
[H]c1c([H])c([H])c2c(c1[H])C([H])([H])C([H])([H])C([H])([H])C2([H])N([H])C(=O)C1([H])N(C(=O)C([H])(N([H])C(=O)C([H])(N([H])C([H])([H])[H])C([H])([H])[H])C(C([H])([H])[H])(C([H])([H])[H])C([H])([H])[H])C([H])([H])c2c([H])c(OC([H])([H])c3c([H])c([H])c(C(=O)C([H])([H])[N+]([H])(C([H])([H])[H])C4([H])C(=O)C([H])(N([H])C(=O)N5C([H])([H])C([H])([H])C([H])([H])C([H])(n6nc(-c7c([H])c([H])c(Oc8c([H])c([H])c(F)c([H])c8F)c([H])c7[H])c(C(=O)N([H])[H])c6N([H])[H])C5([H])[H])C([H])([H])C4([H])[H])c([H])c3[H])c([H])c([H])c2C1([H])[H]

$$$$
69:0:0
     RDKit          3D

 89 98  0  0  1  0  0  0  0  0999 V2000
  -30.3980  -15.4630   20.3660 C   0  0  0  0  0  0  0  0  0  0  0  0
  -30.4190  -12.9920   19.5020 C   0  0  0  0  0  2  0  0  0  0  0  0
  -29.5310  -12.7050   18.2650 C   0  0  0  0  0  2  0  0  0  0  0  0
  -28.0660  -12.4550   18.6680 C   0  0  0  0  0  2  0  0  0  0  0  0
  -27.5880  -13.4110   19.7900 C   0  0  0  0  0  3  0  0  0  0  0  0
  -28.6210  -13.5950   20.9180 C   0  0  0  0  0  2  0  0  0  0  0  0
  -29.8220  -14.1520   20.2680 N   0  0  0  0  0  0  0  0  0  0  0  0
  -31.6400  -15.3790   20.3520 O   0  0  0  0  0  0  0  0  0  0  0  0
  -30.4490  -21.3250   19.6580 C   0  0  0  0  0  3  0  0  0  0  0  0
  -31.2000  -20.2320   19.1460 C   0  0  0  0  0  3  0  0  0  0  0  0
  -28.9100  -19.6420   20.4900 C   0  0  0  0  0  3  0  0  0  0  0  0
  -29.1830  -21.1730   20.2700 C   0  0  0  0  0  0  0  0  0  0  0  0
  -30.8180  -18.8720   19.2990 C   0  0  0  0  0  0  0  0  0  0  0  0
  -29.7860  -18.4010   20.1200 C   0  0  0  0  0  0  0  0  0  0  0  0
  -31.2460  -17.7910   18.3510 C   0  0  0  0  0  2  0  0  0  0  0  0
  -30.1030  -16.7520   18.4910 C   0  0  0  0  0  2  0  0  0  0  0  0
  -29.7180  -16.7540   19.9270 N   0  0  0  0  0  0  0  0  0  0  0  0
  -25.2080  -13.9540   20.5120 C   0  0  0  0  0  0  0  0  0  0  0  0
  -24.1420  -13.1730   20.8580 C   0  0  0  0  0  0  0  0  0  0  0  0
  -24.6140  -11.8250   20.8350 C   0  0  0  0  0  0  0  0  0  0  0  0
  -26.2570  -13.0830   20.2840 N   0  0  0  0  0  0  0  0  0  0  0  0
  -25.9130  -11.7950   20.5470 N   0  0  0  0  0  0  0  0  0  0  0  0
  -23.8870  -10.5610   21.0110 C   0  0  0  0  0  0  0  0  0  0  0  0
  -24.2950   -9.5940   21.9570 C   0  0  0  0  0  3  0  0  0  0  0  0
  -23.5630   -8.3980   22.1200 C   0  0  0  0  0  3  0  0  0  0  0  0
  -22.4090   -8.1580   21.3380 C   0  0  0  0  0  0  0  0  0  0  0  0
  -22.0190   -9.1130   20.3820 C   0  0  0  0  0  3  0  0  0  0  0  0
  -22.7510  -10.3010   20.2160 C   0  0  0  0  0  3  0  0  0  0  0  0
  -21.6500   -7.0140   21.4110 O   0  0  0  0  0  0  0  0  0  0  0  0
  -21.5650   -6.2810   22.5660 C   0  0  0  0  0  0  0  0  0  0  0  0
  -21.0910   -6.8410   23.7720 C   0  0  0  0  0  3  0  0  0  0  0  0
  -20.9530   -6.0320   24.9190 C   0  0  0  0  0  3  0  0  0  0  0  0
  -21.2790   -4.6640   24.8590 C   0  0  0  0  0  0  0  0  0  0  0  0
  -21.7470   -4.1040   23.6580 C   0  0  0  0  0  3  0  0  0  0  0  0
  -21.8870   -4.9090   22.5140 C   0  0  0  0  0  0  0  0  0  0  0  0
  -22.3160   -4.3590   21.3530 F   0  0  0  0  0  0  0  0  0  0  0  0
  -21.1400   -3.8850   25.9590 F   0  0  0  0  0  0  0  0  0  0  0  0
  -22.7390  -13.6470   21.0940 C   0  0  0  0  0  0  0  0  0  0  0  0
  -21.9890  -12.9510   21.9400 N   0  0  0  0  0  0  0  0  0  0  0  0
  -22.3140  -14.6710   20.5620 O   0  0  0  0  0  0  0  0  0  0  0  0
  -22.3460  -12.1230   22.3950 H   0  0  0  0  0  0  0  0  0  0  0  0
  -21.0450  -13.2510   22.1350 H   0  0  0  0  0  0  0  0  0  0  0  0
  -25.3650  -15.3270   20.3450 N   0  0  0  0  0  0  0  0  0  0  0  0
  -24.5970  -15.9740   20.4820 H   0  0  0  0  0  0  0  0  0  0  0  0
  -26.2120  -15.7780   20.0220 H   0  0  0  0  0  0  0  0  0  0  0  0
  -28.2680  -22.6670   20.2580 C   0  0  0  0  0  0  0  0  0  0  0  0
  -27.1710  -22.5500   19.7040 O   0  0  0  0  0  0  0  0  0  0  0  0
  -28.4820  -24.3170   20.8920 C   0  0  0  0  0  2  0  0  0  0  0  0
  -28.3200  -25.8710   20.2720 O   0  0  0  0  0  0  0  0  0  0  0  0
  -24.6480  -31.9070   23.2350 C   0  0  0  0  0  0  0  0  0  0  0  0
  -27.2750  -26.9510   20.3540 C   0  0  0  0  0  0  0  0  0  0  0  0
  -23.4930  -30.4780   21.6030 C   0  0  0  0  0  3  0  0  0  0  0  0
  -24.9740  -28.8510   20.2380 C   0  0  0  0  0  0  0  0  0  0  0  0
  -26.0640  -30.6900   21.4990 C   0  0  0  0  0  2  0  0  0  0  0  0
  -26.1530  -29.2620   20.8740 C   0  0  0  0  0  0  0  0  0  0  0  0
  -27.3000  -28.3370   20.8970 C   0  0  0  0  0  3  0  0  0  0  0  0
  -26.0610  -26.7010   19.6740 C   0  0  0  0  0  3  0  0  0  0  0  0
  -24.9540  -27.5900   19.6220 C   0  0  0  0  0  3  0  0  0  0  0  0
  -23.7550  -29.7770   20.2410 C   0  0  0  0  0  2  0  0  0  0  0  0
  -24.7560  -31.0560   22.1650 N   0  0  0  0  0  0  0  0  0  0  0  0
  -23.5470  -32.1960   23.7320 O   0  0  0  0  0  0  0  0  0  0  0  0
  -22.7910  -29.4900   22.5700 C   0  0  0  0  0  0  0  0  0  0  0  0
  -21.4620  -29.3170   22.4340 N   0  0  0  0  0  0  0  0  0  0  0  0
  -23.4480  -28.8770   23.4150 O   0  0  0  0  0  0  0  0  0  0  0  0
  -20.9820  -29.8630   21.7320 H   0  0  0  0  0  0  0  0  0  0  0  0
  -18.0760  -28.1120   22.9400 C   0  0  0  0  0  0  0  0  0  0  0  0
  -20.6360  -28.3830   23.2070 C   0  0  0  0  0  3  0  0  0  0  0  0
  -20.7400  -26.9480   22.6420 C   0  0  0  0  0  2  0  0  0  0  0  0
  -19.6410  -26.6190   21.6260 C   0  0  0  0  0  2  0  0  0  0  0  0
  -18.2570  -26.7630   22.2660 C   0  0  0  0  0  2  0  0  0  0  0  0
  -19.1920  -28.8810   23.3670 C   0  0  0  0  0  0  0  0  0  0  0  0
  -18.9670  -30.1410   23.9610 C   0  0  0  0  0  3  0  0  0  0  0  0
  -17.6590  -30.6360   24.1290 C   0  0  0  0  0  3  0  0  0  0  0  0
  -16.5580  -29.8650   23.7170 C   0  0  0  0  0  3  0  0  0  0  0  0
  -16.7680  -28.6060   23.1280 C   0  0  0  0  0  3  0  0  0  0  0  0
  -25.9000  -32.5740   23.8810 C   0  0  0  0  0  3  0  0  0  0  0  0
  -25.5630  -33.9780   24.1830 N   0  0  0  0  0  0  0  0  0  0  0  0
  -25.9040  -35.0300   23.4280 C   0  0  0  0  0  0  0  0  0  0  0  0
  -26.5980  -34.9250   22.4130 O   0  0  0  0  0  0  0  0  0  0  0  0
  -24.9480  -34.1330   24.9680 H   0  0  0  0  0  0  0  0  0  0  0  0
  -24.1790  -36.8210   23.0210 C   0  0  0  0  0  1  0  0  0  0  0  0
  -25.3990  -36.4210   23.8670 C   0  0  0  0  0  3  0  0  0  0  0  0
  -27.5060  -37.3230   24.7540 C   0  0  0  0  0  1  0  0  0  0  0  0
  -26.4290  -37.4800   23.7790 N   0  0  0  0  0  0  0  0  0  0  0  0
  -26.0130  -38.3980   23.9140 H   0  0  0  0  0  0  0  0  0  0  0  0
  -26.3850  -31.8410   25.1930 C   0  0  1  0  0  0  0  0  0  0  0  0
  -25.2660  -31.6250   26.2390 C   0  0  0  0  0  1  0  0  0  0  0  0
  -26.9880  -30.4570   24.8630 C   0  0  0  0  0  1  0  0  0  0  0  0
  -27.5130  -32.6610   25.8650 C   0  0  0  0  0  1  0  0  0  0  0  0
  2  7  1  0
  3  4  1  0
  3  2  1  0
  5  4  1  0
  5 21  1  0
  5  6  1  0
  7  1  1  0
  7  6  1  0
  8  1  2  0
  9 12  1  0
 10 13  1  0
 10  9  2  0
 12 11  2  0
 13 14  2  0
 14 11  1  0
 15 16  1  0
 15 13  1  0
 16 17  1  0
 17 14  1  0
 17  1  1  0
 18 19  2  0
 19 38  1  0
 20 19  1  0
 20 23  1  0
 21 18  1  0
 21 22  1  0
 22 20  2  0
 23 24  1  0
 24 25  2  0
 26 29  1  0
 26 25  1  0
 27 26  2  0
 28 27  1  0
 28 23  2  0
 29 30  1  0
 30 31  1  0
 31 32  2  0
 33 32  1  0
 33 37  1  0
 34 33  2  0
 35 30  2  0
 35 34  1  0
 36 35  1  0
 38 39  1  0
 39 42  1  0
 39 41  1  0
 40 38  2  0
 43 44  1  0
 43 18  1  0
 45 43  1  0
 46 12  1  0
 46 48  1  0
 47 46  2  0
 49 51  1  0
 49 48  1  0
 50 61  2  0
 51 56  1  0
 52 60  1  0
 52 62  1  0
 53 59  1  0
 53 55  1  0
 54 60  1  0
 55 56  2  0
 55 54  1  0
 57 51  2  0
 58 57  1  0
 58 53  2  0
 59 52  1  0
 60 50  1  0
 62 64  2  0
 63 62  1  0
 65 63  1  0
 66 75  2  0
 66 71  1  0
 67 63  1  0
 67 71  1  0
 68 67  1  0
 69 70  1  0
 69 68  1  0
 70 66  1  0
 71 72  2  0
 72 73  1  0
 74 73  2  0
 75 74  1  0
 76 50  1  0
 76 77  1  0
 76 86  1  0
 77 80  1  0
 78 82  1  0
 78 77  1  0
 79 78  2  0
 82 81  1  0
 84 82  1  0
 84 85  1  0
 84 83  1  0
 86 89  1  1
 86 87  1  0
 88 86  1  0
M  ISO  4   1 100  17 100  48 101  49 101
M  END
>  <TORSDO>  (70) 
F 17

>  <SCORE>  (70) 
-16.610

>  <name>  (70) 
69

>  <ligand_id>  (70) 
69

>  <original_smiles>  (70) 
[H]c1c([H])c([H])c2c(c1[H])C([H])([H])C([H])([H])C([H])([H])C2([H])N([H])C(=O)C1([H])N(C(=O)C([H])(N([H])C(=O)C([H])(N([H])C([H])([H])[H])C([H])([H])[H])C(C([H])([H])[H])(C([H])([H])[H])C([H])([H])[H])C([H])([H])c2c([H])c(OC([H])([H])C(=O)c3c([H])c([H])c4c(c3[H])N(C(=O)N3C([H])([H])C([H])([H])C([H])([H])C([H])(n5nc(-c6c([H])c([H])c(Oc7c([H])c([H])c(F)c([H])c7F)c([H])c6[H])c(C(=O)N([H])[H])c5N([H])[H])C3([H])[H])C([H])([H])C4([H])[H])c([H])c([H])c2C1([H])[H]

>  <smiles>  (70) 
[H]c1c([H])c([H])c2c(c1[H])C([H])([H])C([H])([H])C([H])([H])C2([H])N([H])C(=O)C1([H])N(C(=O)C([H])(N([H])C(=O)C([H])(N([H])C([H])([H])[H])C([H])([H])[H])C(C([H])([H])[H])(C([H])([H])[H])C([H])([H])[H])C([H])([H])c2c([H])c(OC([H])([H])C(=O)c3c([H])c([H])c4c(c3[H])N(C(=O)N3C([H])([H])C([H])([H])C([H])([H])C([H])(n5nc(-c6c([H])c([H])c(Oc7c([H])c([H])c(F)c([H])c7F)c([H])c6[H])c(C(=O)N([H])[H])c5N([H])[H])C3([H])[H])C([H])([H])C4([H])[H])c([H])c([H])c2C1([H])[H]

$$$$
70:0:0
     RDKit          3D

 92100  0  0  1  0  0  0  0  0999 V2000
  -28.9380  -21.4730   21.3690 C   0  0  0  0  0  2  0  0  0  0  0  0
  -32.1190  -18.5930   21.9910 C   0  0  0  0  0  3  0  0  0  0  0  0
  -31.8390  -19.5480   22.9820 C   0  0  0  0  0  3  0  0  0  0  0  0
  -30.2600  -19.4250   20.6610 C   0  0  0  0  0  3  0  0  0  0  0  0
  -31.3070  -18.4950   20.8430 C   0  0  0  0  0  0  0  0  0  0  0  0
  -30.7670  -20.4490   22.8270 C   0  0  0  0  0  0  0  0  0  0  0  0
  -30.0010  -20.4170   21.6350 C   0  0  0  0  0  0  0  0  0  0  0  0
  -30.4540  -21.4280   23.9500 C   0  0  0  0  0  1  0  0  0  0  0  0
  -31.5360  -17.3710   19.8350 C   0  0  0  0  0  2  0  0  0  0  0  0
  -31.1980  -15.9930   20.4410 C   0  0  0  0  0  2  0  0  0  0  0  0
  -31.8370  -14.7670   19.7650 C   0  0  0  0  0  0  0  0  0  0  0  0
  -31.4820  -12.4550   18.9570 C   0  0  0  0  0  2  0  0  0  0  0  0
  -30.5010  -12.4650   17.7670 C   0  0  0  0  0  2  0  0  0  0  0  0
  -29.0330  -12.4530   18.2400 C   0  0  0  0  0  2  0  0  0  0  0  0
  -28.7570  -13.5150   19.3410 C   0  0  0  0  0  3  0  0  0  0  0  0
  -29.8300  -13.4290   20.4480 C   0  0  0  0  0  2  0  0  0  0  0  0
  -31.1520  -13.5960   19.8200 N   0  0  0  0  0  0  0  0  0  0  0  0
  -32.9030  -14.8890   19.1500 O   0  0  0  0  0  0  0  0  0  0  0  0
  -26.4760  -14.3810   20.1700 C   0  0  0  0  0  0  0  0  0  0  0  0
  -25.3500  -13.7250   20.5930 C   0  0  0  0  0  0  0  0  0  0  0  0
  -25.6590  -12.3310   20.5320 C   0  0  0  0  0  0  0  0  0  0  0  0
  -27.4080  -13.3910   19.8850 N   0  0  0  0  0  0  0  0  0  0  0  0
  -26.9180  -12.1530   20.1520 N   0  0  0  0  0  0  0  0  0  0  0  0
  -24.8110  -11.1550   20.7570 C   0  0  0  0  0  0  0  0  0  0  0  0
  -25.1510  -10.1720   21.7130 C   0  0  0  0  0  3  0  0  0  0  0  0
  -24.3110   -9.0580   21.9220 C   0  0  0  0  0  3  0  0  0  0  0  0
  -23.1180   -8.9170   21.1740 C   0  0  0  0  0  0  0  0  0  0  0  0
  -22.7970   -9.8850   20.2070 C   0  0  0  0  0  3  0  0  0  0  0  0
  -23.6350  -10.9920   19.9970 C   0  0  0  0  0  3  0  0  0  0  0  0
  -22.2550   -7.8550   21.2900 O   0  0  0  0  0  0  0  0  0  0  0  0
  -22.0670   -7.2070   22.4840 C   0  0  0  0  0  0  0  0  0  0  0  0
  -21.6340   -7.8880   23.6410 C   0  0  0  0  0  3  0  0  0  0  0  0
  -21.3850   -7.1720   24.8300 C   0  0  0  0  0  3  0  0  0  0  0  0
  -21.5620   -5.7770   24.8610 C   0  0  0  0  0  0  0  0  0  0  0  0
  -21.9920   -5.0940   23.7080 C   0  0  0  0  0  3  0  0  0  0  0  0
  -22.2390   -5.8070   22.5230 C   0  0  0  0  0  0  0  0  0  0  0  0
  -22.6300   -5.1430   21.4080 F   0  0  0  0  0  0  0  0  0  0  0  0
  -21.3180   -5.0870   26.0010 F   0  0  0  0  0  0  0  0  0  0  0  0
  -24.0280  -14.3470   20.9410 C   0  0  0  0  0  0  0  0  0  0  0  0
  -23.2930  -13.7480   21.8710 N   0  0  0  0  0  0  0  0  0  0  0  0
  -23.6600  -15.3990   20.4230 O   0  0  0  0  0  0  0  0  0  0  0  0
  -23.6000  -12.8950   22.3180 H   0  0  0  0  0  0  0  0  0  0  0  0
  -22.4060  -14.1500   22.1400 H   0  0  0  0  0  0  0  0  0  0  0  0
  -26.7780  -15.7280   19.9890 N   0  0  0  0  0  0  0  0  0  0  0  0
  -26.1020  -16.4640   20.1670 H   0  0  0  0  0  0  0  0  0  0  0  0
  -27.6650  -16.0790   19.6500 H   0  0  0  0  0  0  0  0  0  0  0  0
  -29.5010  -22.8920   21.5980 C   0  0  0  0  0  2  0  0  0  0  0  0
  -28.4450  -23.9970   21.7810 C   0  0  0  0  0  2  0  0  0  0  0  0
  -28.0380  -24.7020   20.4870 C   0  0  0  0  0  0  0  0  0  0  0  0
  -27.4890  -24.0910   19.5630 O   0  0  0  0  0  0  0  0  0  0  0  0
  -28.3570  -26.2020   20.4000 C   0  0  0  0  0  2  0  0  0  0  0  0
  -27.7850  -26.7730   19.2250 O   0  0  0  0  0  0  0  0  0  0  0  0
  -24.5600  -31.8050   23.1130 C   0  0  0  0  0  0  0  0  0  0  0  0
  -26.6680  -27.5290   19.4620 C   0  0  0  0  0  0  0  0  0  0  0  0
  -23.1270  -30.5850   21.5040 C   0  0  0  0  0  3  0  0  0  0  0  0
  -24.3560  -29.0940   19.8410 C   0  0  0  0  0  0  0  0  0  0  0  0
  -25.6370  -30.8490   21.0800 C   0  0  0  0  0  2  0  0  0  0  0  0
  -25.5890  -29.5260   20.3480 C   0  0  0  0  0  0  0  0  0  0  0  0
  -26.7490  -28.7460   20.1670 C   0  0  0  0  0  3  0  0  0  0  0  0
  -25.4250  -27.0970   18.9540 C   0  0  0  0  0  3  0  0  0  0  0  0
  -24.2660  -27.8720   19.1480 C   0  0  0  0  0  3  0  0  0  0  0  0
  -23.1680  -29.9990   20.0660 C   0  0  0  0  0  2  0  0  0  0  0  0
  -24.4660  -31.0880   21.9550 N   0  0  0  0  0  0  0  0  0  0  0  0
  -23.5520  -32.0840   23.7770 O   0  0  0  0  0  0  0  0  0  0  0  0
  -22.5220  -29.5260   22.4490 C   0  0  0  0  0  0  0  0  0  0  0  0
  -21.1910  -29.3570   22.3850 N   0  0  0  0  0  0  0  0  0  0  0  0
  -23.2420  -28.8560   23.1950 O   0  0  0  0  0  0  0  0  0  0  0  0
  -20.6670  -29.9540   21.7610 H   0  0  0  0  0  0  0  0  0  0  0  0
  -17.8510  -28.0920   22.9190 C   0  0  0  0  0  0  0  0  0  0  0  0
  -20.4080  -28.3890   23.1520 C   0  0  0  0  0  3  0  0  0  0  0  0
  -20.5240  -26.9710   22.5430 C   0  0  0  0  0  2  0  0  0  0  0  0
  -19.4090  -26.6500   21.5430 C   0  0  0  0  0  2  0  0  0  0  0  0
  -18.0370  -26.7590   22.2140 C   0  0  0  0  0  2  0  0  0  0  0  0
  -18.9640  -28.8650   23.3450 C   0  0  0  0  0  0  0  0  0  0  0  0
  -18.7340  -30.1150   23.9590 C   0  0  0  0  0  3  0  0  0  0  0  0
  -17.4240  -30.5920   24.1570 C   0  0  0  0  0  3  0  0  0  0  0  0
  -16.3260  -29.8150   23.7490 C   0  0  0  0  0  3  0  0  0  0  0  0
  -16.5400  -28.5690   23.1350 C   0  0  0  0  0  3  0  0  0  0  0  0
  -25.9310  -32.3260   23.6450 C   0  0  0  0  0  3  0  0  0  0  0  0
  -25.7270  -33.6980   24.1310 N   0  0  0  0  0  0  0  0  0  0  0  0
  -26.0780  -34.8020   23.4590 C   0  0  0  0  0  0  0  0  0  0  0  0
  -26.6840  -34.7690   22.3830 O   0  0  0  0  0  0  0  0  0  0  0  0
  -25.1920  -33.8050   24.9800 H   0  0  0  0  0  0  0  0  0  0  0  0
  -24.4540  -36.7180   23.3700 C   0  0  0  0  0  1  0  0  0  0  0  0
  -25.6990  -36.1620   24.0780 C   0  0  0  0  0  3  0  0  0  0  0  0
  -27.9200  -36.8230   24.8890 C   0  0  0  0  0  1  0  0  0  0  0  0
  -26.7920  -37.1570   24.0230 N   0  0  0  0  0  0  0  0  0  0  0  0
  -26.4550  -38.0790   24.2850 H   0  0  0  0  0  0  0  0  0  0  0  0
  -26.5440  -31.4180   24.7790 C   0  0  1  0  0  0  0  0  0  0  0  0
  -25.5630  -31.1150   25.9350 C   0  0  0  0  0  1  0  0  0  0  0  0
  -27.0160  -30.0680   24.1930 C   0  0  0  0  0  1  0  0  0  0  0  0
  -27.7970  -32.1010   25.3770 C   0  0  0  0  0  1  0  0  0  0  0  0
  1 47  1  0
  1  7  1  0
  2  3  1  0
  4  5  1  0
  4  7  2  0
  5  2  2  0
  6  3  2  0
  6  8  1  0
  7  6  1  0
  9 10  1  0
  9  5  1  0
 11 17  1  0
 11 10  1  0
 12 17  1  0
 13 14  1  0
 13 12  1  0
 15 14  1  0
 15 22  1  0
 15 16  1  0
 17 16  1  0
 18 11  2  0
 19 20  2  0
 20 39  1  0
 21 20  1  0
 21 24  1  0
 22 23  1  0
 22 19  1  0
 23 21  2  0
 24 25  1  0
 25 26  2  0
 27 30  1  0
 27 26  1  0
 28 27  2  0
 29 28  1  0
 29 24  2  0
 30 31  1  0
 31 36  2  0
 31 32  1  0
 32 33  2  0
 33 34  1  0
 34 38  1  0
 35 34  2  0
 36 35  1  0
 37 36  1  0
 39 40  1  0
 40 43  1  0
 40 42  1  0
 41 39  2  0
 44 45  1  0
 44 19  1  0
 46 44  1  0
 47 48  1  0
 49 48  1  0
 50 49  2  0
 51 49  1  0
 52 54  1  0
 52 51  1  0
 53 64  2  0
 54 59  1  0
 55 63  1  0
 55 65  1  0
 56 62  1  0
 56 58  1  0
 57 63  1  0
 58 57  1  0
 59 58  2  0
 60 61  1  0
 60 54  2  0
 61 56  2  0
 62 55  1  0
 63 53  1  0
 65 67  2  0
 66 65  1  0
 68 66  1  0
 69 78  2  0
 69 74  1  0
 70 66  1  0
 70 74  1  0
 71 70  1  0
 72 73  1  0
 72 71  1  0
 73 69  1  0
 74 75  2  0
 75 76  1  0
 77 76  2  0
 78 77  1  0
 79 53  1  0
 79 80  1  0
 79 89  1  0
 80 83  1  0
 81 85  1  0
 81 80  1  0
 82 81  2  0
 85 84  1  0
 87 85  1  0
 87 88  1  0
 87 86  1  0
 89 92  1  1
 89 90  1  0
 91 89  1  0
M  ISO  4  10 100  11 100  51 101  52 101
M  END
>  <TORSDO>  (71) 
F 23

>  <SCORE>  (71) 
-11.108

>  <name>  (71) 
70

>  <ligand_id>  (71) 
70

>  <original_smiles>  (71) 
[H]c1c([H])c([H])c2c(c1[H])C([H])([H])C([H])([H])C([H])([H])C2([H])N([H])C(=O)C1([H])N(C(=O)C([H])(N([H])C(=O)C([H])(N([H])C([H])([H])[H])C([H])([H])[H])C(C([H])([H])[H])(C([H])([H])[H])C([H])([H])[H])C([H])([H])c2c([H])c(OC([H])([H])C(=O)C([H])([H])C([H])([H])C([H])([H])c3c([H])c(C([H])([H])C([H])([H])C(=O)N4C([H])([H])C([H])([H])C([H])([H])C([H])(n5nc(-c6c([H])c([H])c(Oc7c([H])c([H])c(F)c([H])c7F)c([H])c6[H])c(C(=O)N([H])[H])c5N([H])[H])C4([H])[H])c([H])c([H])c3C([H])([H])[H])c([H])c([H])c2C1([H])[H]

>  <smiles>  (71) 
[H]c1c([H])c([H])c2c(c1[H])C([H])([H])C([H])([H])C([H])([H])C2([H])N([H])C(=O)C1([H])N(C(=O)C([H])(N([H])C(=O)C([H])(N([H])C([H])([H])[H])C([H])([H])[H])C(C([H])([H])[H])(C([H])([H])[H])C([H])([H])[H])C([H])([H])c2c([H])c(OC([H])([H])C(=O)C([H])([H])C([H])([H])C([H])([H])c3c([H])c(C([H])([H])C([H])([H])C(=O)N4C([H])([H])C([H])([H])C([H])([H])C([H])(n5nc(-c6c([H])c([H])c(Oc7c([H])c([H])c(F)c([H])c7F)c([H])c6[H])c(C(=O)N([H])[H])c5N([H])[H])C4([H])[H])c([H])c([H])c3C([H])([H])[H])c([H])c([H])c2C1([H])[H]

$$$$
71:0:0
     RDKit          3D

 92101  0  0  1  0  0  0  0  0999 V2000
  -29.6830  -24.1100   20.8640 C   0  0  0  0  0  2  0  0  0  0  0  0
  -30.1280  -23.8920   18.4030 C   0  0  0  0  0  2  0  0  0  0  0  0
  -28.5830  -23.0270   20.7730 C   0  0  0  0  0  2  0  0  0  0  0  0
  -28.9860  -22.8630   18.2930 C   0  0  0  0  0  2  0  0  0  0  0  0
  -29.8600  -24.8940   19.5420 C   0  0  0  0  0  3  0  0  0  0  0  0
  -28.7550  -22.2010   19.5780 N   0  0  0  0  0  0  0  0  0  0  0  0
  -28.9320  -18.6290   20.6500 C   0  0  0  0  0  3  0  0  0  0  0  0
  -30.7990  -19.1230   19.1670 C   0  0  0  0  0  3  0  0  0  0  0  0
  -28.5180  -19.9750   20.5590 C   0  0  0  0  0  3  0  0  0  0  0  0
  -30.3810  -20.4540   19.0660 C   0  0  0  0  0  3  0  0  0  0  0  0
  -30.0750  -18.1990   19.9440 C   0  0  0  0  0  0  0  0  0  0  0  0
  -29.2260  -20.8900   19.7450 C   0  0  0  0  0  0  0  0  0  0  0  0
  -30.5510  -16.8200   19.9070 C   0  0  0  0  0  3  0  0  0  0  0  0
  -30.0030  -15.6950   20.4140 C   0  0  0  0  0  3  0  0  0  0  0  0
  -30.7210  -14.4540   20.1420 C   0  0  0  0  0  0  0  0  0  0  0  0
  -30.2920  -12.3040   19.0710 C   0  0  0  0  0  2  0  0  0  0  0  0
  -29.3330  -12.5540   17.8880 C   0  0  0  0  0  2  0  0  0  0  0  0
  -27.8700  -12.4530   18.3600 C   0  0  0  0  0  2  0  0  0  0  0  0
  -27.5830  -13.2940   19.6330 C   0  0  0  0  0  3  0  0  0  0  0  0
  -28.6710  -13.0740   20.7090 C   0  0  0  0  0  2  0  0  0  0  0  0
  -29.9850  -13.3130   20.0970 N   0  0  0  0  0  0  0  0  0  0  0  0
  -31.8900  -14.4790   19.7500 O   0  0  0  0  0  0  0  0  0  0  0  0
  -25.2160  -13.9140   20.4260 C   0  0  0  0  0  0  0  0  0  0  0  0
  -24.1540  -13.1480   20.8240 C   0  0  0  0  0  0  0  0  0  0  0  0
  -24.6010  -11.7930   20.7680 C   0  0  0  0  0  0  0  0  0  0  0  0
  -26.2460  -13.0260   20.1560 N   0  0  0  0  0  0  0  0  0  0  0  0
  -25.8810  -11.7450   20.4210 N   0  0  0  0  0  0  0  0  0  0  0  0
  -23.8700  -10.5360   20.9720 C   0  0  0  0  0  0  0  0  0  0  0  0
  -24.3150   -9.5650   21.8940 C   0  0  0  0  0  3  0  0  0  0  0  0
  -23.5850   -8.3720   22.0870 C   0  0  0  0  0  3  0  0  0  0  0  0
  -22.3950   -8.1430   21.3560 C   0  0  0  0  0  0  0  0  0  0  0  0
  -21.9680   -9.1040   20.4220 C   0  0  0  0  0  3  0  0  0  0  0  0
  -22.6990  -10.2890   20.2280 C   0  0  0  0  0  3  0  0  0  0  0  0
  -21.6350   -7.0030   21.4580 O   0  0  0  0  0  0  0  0  0  0  0  0
  -21.5920   -6.2660   22.6150 C   0  0  0  0  0  0  0  0  0  0  0  0
  -21.1840   -6.8310   23.8430 C   0  0  0  0  0  3  0  0  0  0  0  0
  -21.0880   -6.0210   24.9920 C   0  0  0  0  0  3  0  0  0  0  0  0
  -21.3910   -4.6490   24.9160 C   0  0  0  0  0  0  0  0  0  0  0  0
  -21.7950   -4.0830   23.6930 C   0  0  0  0  0  3  0  0  0  0  0  0
  -21.8910   -4.8910   22.5460 C   0  0  0  0  0  0  0  0  0  0  0  0
  -22.2590   -4.3360   21.3650 F   0  0  0  0  0  0  0  0  0  0  0  0
  -21.2940   -3.8700   26.0180 F   0  0  0  0  0  0  0  0  0  0  0  0
  -22.7700  -13.6360   21.1460 C   0  0  0  0  0  0  0  0  0  0  0  0
  -22.0660  -12.9400   22.0310 N   0  0  0  0  0  0  0  0  0  0  0  0
  -22.3250  -14.6690   20.6490 O   0  0  0  0  0  0  0  0  0  0  0  0
  -22.4390  -12.1030   22.4550 H   0  0  0  0  0  0  0  0  0  0  0  0
  -21.1390  -13.2470   22.2890 H   0  0  0  0  0  0  0  0  0  0  0  0
  -25.3890  -15.2840   20.2520 N   0  0  0  0  0  0  0  0  0  0  0  0
  -24.6370  -15.9490   20.4000 H   0  0  0  0  0  0  0  0  0  0  0  0
  -26.2380  -15.7170   19.9120 H   0  0  0  0  0  0  0  0  0  0  0  0
  -28.6350  -25.7560   19.2040 C   0  0  0  0  0  2  0  0  0  0  0  0
  -28.4990  -26.8520   20.0970 O   0  0  0  0  0  0  0  0  0  0  0  0
  -24.6310  -31.9090   23.2270 C   0  0  0  0  0  0  0  0  0  0  0  0
  -27.2960  -27.5280   20.0930 C   0  0  0  0  0  0  0  0  0  0  0  0
  -23.4290  -30.5150   21.5760 C   0  0  0  0  0  3  0  0  0  0  0  0
  -24.8860  -29.0070   20.1380 C   0  0  0  0  0  0  0  0  0  0  0  0
  -25.9510  -30.8920   21.3800 C   0  0  0  0  0  2  0  0  0  0  0  0
  -26.0400  -29.5280   20.7330 C   0  0  0  0  0  0  0  0  0  0  0  0
  -27.2430  -28.7900   20.7220 C   0  0  0  0  0  3  0  0  0  0  0  0
  -26.1140  -27.0180   19.4950 C   0  0  0  0  0  3  0  0  0  0  0  0
  -24.9150  -27.7460   19.5240 C   0  0  0  0  0  3  0  0  0  0  0  0
  -23.6380  -29.8540   20.1900 C   0  0  0  0  0  2  0  0  0  0  0  0
  -24.6890  -31.1200   22.1180 N   0  0  0  0  0  0  0  0  0  0  0  0
  -23.5490  -32.1700   23.7710 O   0  0  0  0  0  0  0  0  0  0  0  0
  -22.7900  -29.4770   22.5260 C   0  0  0  0  0  0  0  0  0  0  0  0
  -21.4670  -29.2910   22.4040 N   0  0  0  0  0  0  0  0  0  0  0  0
  -23.4820  -28.8430   23.3280 O   0  0  0  0  0  0  0  0  0  0  0  0
  -20.9710  -29.8550   21.7280 H   0  0  0  0  0  0  0  0  0  0  0  0
  -18.0950  -28.0950   22.9100 C   0  0  0  0  0  0  0  0  0  0  0  0
  -20.6550  -28.3450   23.1690 C   0  0  0  0  0  3  0  0  0  0  0  0
  -20.7520  -26.9210   22.5730 C   0  0  0  0  0  2  0  0  0  0  0  0
  -19.6420  -26.6130   21.5620 C   0  0  0  0  0  2  0  0  0  0  0  0
  -18.2650  -26.7540   22.2170 C   0  0  0  0  0  2  0  0  0  0  0  0
  -19.2190  -28.8490   23.3430 C   0  0  0  0  0  0  0  0  0  0  0  0
  -19.0090  -30.1060   23.9490 C   0  0  0  0  0  3  0  0  0  0  0  0
  -17.7070  -30.6100   24.1290 C   0  0  0  0  0  3  0  0  0  0  0  0
  -16.5970  -29.8530   23.7130 C   0  0  0  0  0  3  0  0  0  0  0  0
  -16.7930  -28.5970   23.1110 C   0  0  0  0  0  3  0  0  0  0  0  0
  -25.9150  -32.5410   23.8470 C   0  0  0  0  0  3  0  0  0  0  0  0
  -26.4480  -31.7580   25.1100 C   0  0  1  0  0  0  0  0  0  0  0  0
  -25.3620  -31.4960   26.1800 C   0  0  0  0  0  1  0  0  0  0  0  0
  -27.0410  -30.3920   24.6940 C   0  0  0  0  0  1  0  0  0  0  0  0
  -27.5940  -32.5540   25.7760 C   0  0  0  0  0  1  0  0  0  0  0  0
  -25.5970  -33.9330   24.1940 N   0  0  0  0  0  0  0  0  0  0  0  0
  -25.9060  -34.9930   23.4350 C   0  0  0  0  0  0  0  0  0  0  0  0
  -26.5600  -34.9050   22.3930 O   0  0  0  0  0  0  0  0  0  0  0  0
  -25.0150  -34.0750   25.0060 H   0  0  0  0  0  0  0  0  0  0  0  0
  -24.1440  -36.7600   23.1240 C   0  0  0  0  0  1  0  0  0  0  0  0
  -25.4080  -36.3730   23.9080 C   0  0  0  0  0  3  0  0  0  0  0  0
  -27.5470  -37.2830   24.6980 C   0  0  0  0  0  1  0  0  0  0  0  0
  -26.4230  -37.4410   23.7790 N   0  0  0  0  0  0  0  0  0  0  0  0
  -26.0070  -38.3550   23.9380 H   0  0  0  0  0  0  0  0  0  0  0  0
  2  5  1  0
  3  1  1  0
  4  2  1  0
  4  6  1  0
  5 51  1  0
  5  1  1  0
  6 12  1  0
  6  3  1  0
  8 11  1  0
  9  7  1  0
 10  8  2  0
 10 12  1  0
 11  7  2  0
 12  9  2  0
 13 11  1  0
 13 14  2  0
 15 14  1  0
 16 21  1  0
 17 18  1  0
 17 16  1  0
 19 18  1  0
 19 26  1  0
 19 20  1  0
 21 15  1  0
 21 20  1  0
 22 15  2  0
 23 24  2  0
 24 43  1  0
 25 24  1  0
 25 28  1  0
 26 27  1  0
 26 23  1  0
 27 25  2  0
 28 29  1  0
 29 30  2  0
 31 34  1  0
 31 30  1  0
 32 31  2  0
 33 32  1  0
 33 28  2  0
 34 35  1  0
 35 36  1  0
 36 37  2  0
 38 37  1  0
 38 42  1  0
 39 38  2  0
 40 35  2  0
 40 39  1  0
 41 40  1  0
 43 44  1  0
 44 47  1  0
 44 46  1  0
 45 43  2  0
 48 49  1  0
 48 23  1  0
 50 48  1  0
 51 52  1  0
 53 64  2  0
 54 52  1  0
 54 59  1  0
 55 63  1  0
 55 65  1  0
 56 62  1  0
 56 58  1  0
 57 63  1  0
 58 57  1  0
 59 58  2  0
 60 61  1  0
 60 54  2  0
 61 56  2  0
 62 55  1  0
 63 53  1  0
 65 67  2  0
 66 65  1  0
 68 66  1  0
 69 78  2  0
 69 74  1  0
 70 66  1  0
 70 74  1  0
 71 70  1  0
 72 73  1  0
 72 71  1  0
 73 69  1  0
 74 75  2  0
 75 76  1  0
 77 76  2  0
 78 77  1  0
 79 53  1  0
 79 84  1  0
 79 80  1  0
 80 83  1  1
 80 81  1  0
 82 80  1  0
 84 87  1  0
 85 89  1  0
 85 84  1  0
 86 85  2  0
 89 88  1  0
 91 89  1  0
 91 92  1  0
 91 90  1  0
M  ISO  4  14 100  15 100  51 101  52 101
M  END
>  <TORSDO>  (72) 
F 19

>  <SCORE>  (72) 
-14.271

>  <name>  (72) 
71

>  <ligand_id>  (72) 
71

>  <original_smiles>  (72) 
[H]C(C(=O)N1C([H])([H])C([H])([H])C([H])([H])C([H])(n2nc(-c3c([H])c([H])c(Oc4c([H])c([H])c(F)c([H])c4F)c([H])c3[H])c(C(=O)N([H])[H])c2N([H])[H])C1([H])[H])=C([H])c1c([H])c([H])c(N2C([H])([H])C([H])([H])C([H])(C([H])([H])Oc3c([H])c([H])c4c(c3[H])C([H])([H])N(C(=O)C([H])(N([H])C(=O)C([H])(N([H])C([H])([H])[H])C([H])([H])[H])C(C([H])([H])[H])(C([H])([H])[H])C([H])([H])[H])C([H])(C(=O)N([H])C3([H])c5c([H])c([H])c([H])c([H])c5C([H])([H])C([H])([H])C3([H])[H])C4([H])[H])C([H])([H])C2([H])[H])c([H])c1[H]

>  <smiles>  (72) 
[H]C(C(=O)N1C([H])([H])C([H])([H])C([H])([H])C([H])(n2nc(-c3c([H])c([H])c(Oc4c([H])c([H])c(F)c([H])c4F)c([H])c3[H])c(C(=O)N([H])[H])c2N([H])[H])C1([H])[H])=C([H])c1c([H])c([H])c(N2C([H])([H])C([H])([H])C([H])(C([H])([H])Oc3c([H])c([H])c4c(c3[H])C([H])([H])N(C(=O)C([H])(N([H])C(=O)C([H])(N([H])C([H])([H])[H])C([H])([H])[H])C(C([H])([H])[H])(C([H])([H])[H])C([H])([H])[H])C([H])(C(=O)N([H])C3([H])c5c([H])c([H])c([H])c([H])c5C([H])([H])C([H])([H])C3([H])[H])C4([H])[H])C([H])([H])C2([H])[H])c([H])c1[H]

$$$$
72:0:0
     RDKit          3D

 97106  0  0  1  0  0  0  0  0999 V2000
  -27.8860  -19.8490   18.6990 C   0  0  0  0  0  3  0  0  0  0  0  0
  -28.5700  -18.6610   19.1140 C   0  0  0  0  0  3  0  0  0  0  0  0
  -29.9970  -20.0250   20.5190 C   0  0  0  0  0  3  0  0  0  0  0  0
  -28.2510  -21.1260   19.2060 C   0  0  0  0  0  0  0  0  0  0  0  0
  -29.2920  -21.2220   20.1150 C   0  0  0  0  0  0  0  0  0  0  0  0
  -29.6560  -18.6930   20.0330 C   0  0  0  0  0  0  0  0  0  0  0  0
  -27.7010  -22.4970   18.9010 C   0  0  0  0  0  0  0  0  0  0  0  0
  -29.5130  -22.7340   20.4760 C   0  0  0  0  0  3  0  0  0  0  0  0
  -28.3310  -23.5960   19.8260 C   0  0  0  0  0  3  0  0  0  0  0  0
  -26.8340  -22.7490   18.0600 O   0  0  0  0  0  0  0  0  0  0  0  0
  -30.9600  -17.4460   21.8870 C   0  0  0  0  0  1  0  0  0  0  0  0
  -30.4990  -17.3680   20.4230 C   0  0  0  0  0  3  0  0  0  0  0  0
  -30.7870  -14.7720   20.0130 C   0  0  0  0  0  0  0  0  0  0  0  0
  -30.5540  -12.4560   19.0830 C   0  0  0  0  0  2  0  0  0  0  0  0
  -29.5710  -12.4870   17.8890 C   0  0  0  0  0  2  0  0  0  0  0  0
  -28.1150  -12.3510   18.3730 C   0  0  0  0  0  2  0  0  0  0  0  0
  -27.7950  -13.2780   19.5750 C   0  0  0  0  0  3  0  0  0  0  0  0
  -28.8890  -13.2150   20.6580 C   0  0  0  0  0  2  0  0  0  0  0  0
  -30.1590  -13.5470   20.0030 N   0  0  0  0  0  0  0  0  0  0  0  0
  -31.9770  -14.8440   19.6900 O   0  0  0  0  0  0  0  0  0  0  0  0
  -30.0230  -15.9230   20.2050 N   0  0  0  0  0  0  0  0  0  0  0  0
  -29.0410  -15.7590   20.3730 H   0  0  0  0  0  0  0  0  0  0  0  0
  -25.4610  -13.9200   20.4090 C   0  0  0  0  0  0  0  0  0  0  0  0
  -24.3910  -13.1680   20.8120 C   0  0  0  0  0  0  0  0  0  0  0  0
  -24.8200  -11.8070   20.7520 C   0  0  0  0  0  0  0  0  0  0  0  0
  -26.4700  -13.0170   20.1220 N   0  0  0  0  0  0  0  0  0  0  0  0
  -26.0950  -11.7410   20.3950 N   0  0  0  0  0  0  0  0  0  0  0  0
  -24.0670  -10.5620   20.9510 C   0  0  0  0  0  0  0  0  0  0  0  0
  -24.5030   -9.5730   21.8600 C   0  0  0  0  0  3  0  0  0  0  0  0
  -23.7520   -8.3920   22.0480 C   0  0  0  0  0  3  0  0  0  0  0  0
  -22.5490   -8.1950   21.3300 C   0  0  0  0  0  0  0  0  0  0  0  0
  -22.1300   -9.1720   20.4100 C   0  0  0  0  0  3  0  0  0  0  0  0
  -22.8830  -10.3440   20.2190 C   0  0  0  0  0  3  0  0  0  0  0  0
  -21.7680   -7.0690   21.4360 O   0  0  0  0  0  0  0  0  0  0  0  0
  -21.7320   -6.3200   22.5860 C   0  0  0  0  0  0  0  0  0  0  0  0
  -21.3560   -6.8800   23.8270 C   0  0  0  0  0  3  0  0  0  0  0  0
  -21.2600   -6.0600   24.9690 C   0  0  0  0  0  3  0  0  0  0  0  0
  -21.5340   -4.6820   24.8740 C   0  0  0  0  0  0  0  0  0  0  0  0
  -21.9100   -4.1230   23.6390 C   0  0  0  0  0  3  0  0  0  0  0  0
  -22.0050   -4.9400   22.4980 C   0  0  0  0  0  0  0  0  0  0  0  0
  -22.3440   -4.3920   21.3050 F   0  0  0  0  0  0  0  0  0  0  0  0
  -21.4360   -3.8930   25.9680 F   0  0  0  0  0  0  0  0  0  0  0  0
  -23.0180  -13.6800   21.1380 C   0  0  0  0  0  0  0  0  0  0  0  0
  -22.2980  -13.0030   22.0250 N   0  0  0  0  0  0  0  0  0  0  0  0
  -22.5920  -14.7200   20.6380 O   0  0  0  0  0  0  0  0  0  0  0  0
  -22.6490  -12.1610   22.4570 H   0  0  0  0  0  0  0  0  0  0  0  0
  -21.3810  -13.3410   22.2800 H   0  0  0  0  0  0  0  0  0  0  0  0
  -25.6490  -15.2890   20.2350 N   0  0  0  0  0  0  0  0  0  0  0  0
  -24.8990  -15.9540   20.3830 H   0  0  0  0  0  0  0  0  0  0  0  0
  -26.4740  -15.7140   19.8330 H   0  0  0  0  0  0  0  0  0  0  0  0
  -29.6510  -23.0030   21.9910 C   0  0  0  0  0  2  0  0  0  0  0  0
  -28.4460  -22.6430   22.7660 N   0  0  0  0  0  4  0  0  0  0  0  0
  -27.6670  -23.2300   22.5280 H   0  0  0  0  0  0  0  0  0  0  0  0
  -28.6280  -22.7720   23.7450 H   0  0  0  0  0  0  0  0  0  0  0  0
  -28.1930  -21.6850   22.6120 H   0  0  0  0  0  0  0  0  0  0  0  0
  -28.6010  -25.0560   19.1380 C   0  0  0  0  0  2  0  0  0  0  0  0
  -28.5200  -26.4130   19.7960 O   0  0  0  0  0  0  0  0  0  0  0  0
  -24.6840  -31.6820   23.0140 C   0  0  0  0  0  0  0  0  0  0  0  0
  -27.3800  -27.2530   19.7690 C   0  0  0  0  0  0  0  0  0  0  0  0
  -23.5000  -30.2900   21.3520 C   0  0  0  0  0  3  0  0  0  0  0  0
  -24.9750  -28.8250   19.8550 C   0  0  0  0  0  0  0  0  0  0  0  0
  -26.0280  -30.6790   21.1450 C   0  0  0  0  0  2  0  0  0  0  0  0
  -26.1380  -29.3200   20.4540 C   0  0  0  0  0  0  0  0  0  0  0  0
  -27.3400  -28.5420   20.4090 C   0  0  0  0  0  3  0  0  0  0  0  0
  -26.1880  -26.8220   19.1520 C   0  0  0  0  0  3  0  0  0  0  0  0
  -25.0040  -27.5840   19.2000 C   0  0  0  0  0  3  0  0  0  0  0  0
  -23.7150  -29.6600   19.9510 C   0  0  0  0  0  2  0  0  0  0  0  0
  -24.7560  -30.9030   21.8920 N   0  0  0  0  0  0  0  0  0  0  0  0
  -23.6010  -31.9120   23.5690 O   0  0  0  0  0  0  0  0  0  0  0  0
  -22.8820  -29.2280   22.2920 C   0  0  0  0  0  0  0  0  0  0  0  0
  -21.5600  -29.0180   22.1870 N   0  0  0  0  0  0  0  0  0  0  0  0
  -23.5940  -28.5980   23.0800 O   0  0  0  0  0  0  0  0  0  0  0  0
  -21.0420  -29.5760   21.5230 H   0  0  0  0  0  0  0  0  0  0  0  0
  -18.2300  -27.7080   22.7020 C   0  0  0  0  0  0  0  0  0  0  0  0
  -20.7840  -28.0330   22.9420 C   0  0  0  0  0  3  0  0  0  0  0  0
  -20.9190  -26.6250   22.3140 C   0  0  0  0  0  2  0  0  0  0  0  0
  -19.8080  -26.3040   21.3090 C   0  0  0  0  0  2  0  0  0  0  0  0
  -18.4350  -26.3870   21.9800 C   0  0  0  0  0  2  0  0  0  0  0  0
  -19.3340  -28.4890   23.1390 C   0  0  0  0  0  0  0  0  0  0  0  0
  -19.0870  -29.7270   23.7730 C   0  0  0  0  0  3  0  0  0  0  0  0
  -17.7720  -30.1800   23.9800 C   0  0  0  0  0  3  0  0  0  0  0  0
  -16.6840  -29.3930   23.5630 C   0  0  0  0  0  3  0  0  0  0  0  0
  -16.9140  -28.1610   22.9280 C   0  0  0  0  0  3  0  0  0  0  0  0
  -25.9550  -32.3380   23.6400 C   0  0  0  0  0  3  0  0  0  0  0  0
  -26.5310  -31.5320   24.8700 C   0  0  1  0  0  0  0  0  0  0  0  0
  -25.4750  -31.2160   25.9530 C   0  0  0  0  0  1  0  0  0  0  0  0
  -27.1520  -30.1940   24.4070 C   0  0  0  0  0  1  0  0  0  0  0  0
  -27.6640  -32.3400   25.5460 C   0  0  0  0  0  1  0  0  0  0  0  0
  -25.5980  -33.7040   24.0450 N   0  0  0  0  0  0  0  0  0  0  0  0
  -25.8600  -34.8060   23.3310 C   0  0  0  0  0  0  0  0  0  0  0  0
  -26.5000  -34.7820   22.2760 O   0  0  0  0  0  0  0  0  0  0  0  0
  -25.0290  -33.8000   24.8740 H   0  0  0  0  0  0  0  0  0  0  0  0
  -24.0420  -36.5340   23.1290 C   0  0  0  0  0  1  0  0  0  0  0  0
  -25.3280  -36.1470   23.8750 C   0  0  0  0  0  3  0  0  0  0  0  0
  -27.4480  -37.0910   24.6790 C   0  0  0  0  0  1  0  0  0  0  0  0
  -26.3060  -37.2510   23.7830 N   0  0  0  0  0  0  0  0  0  0  0  0
  -25.8620  -38.1410   23.9950 H   0  0  0  0  0  0  0  0  0  0  0  0
  1  2  2  0
  1  4  1  0
  2  6  1  0
  4  5  2  0
  5  8  1  0
  5  3  1  0
  6 12  1  0
  6  3  2  0
  7  4  1  0
  7  9  1  0
  8 51  1  0
  9 56  1  0
  9  8  1  0
 10  7  2  0
 12 11  1  0
 13 21  1  0
 14 19  1  0
 15 16  1  0
 15 14  1  0
 17 16  1  0
 17 26  1  0
 17 18  1  0
 19 13  1  0
 19 18  1  0
 20 13  2  0
 21 22  1  0
 21 12  1  0
 23 24  2  0
 24 43  1  0
 25 24  1  0
 25 28  1  0
 26 27  1  0
 26 23  1  0
 27 25  2  0
 28 29  1  0
 29 30  2  0
 31 34  1  0
 31 30  1  0
 32 31  2  0
 33 32  1  0
 33 28  2  0
 34 35  1  0
 35 36  1  0
 36 37  2  0
 38 37  1  0
 38 42  1  0
 39 38  2  0
 40 35  2  0
 40 39  1  0
 41 40  1  0
 43 44  1  0
 44 47  1  0
 44 46  1  0
 45 43  2  0
 48 49  1  0
 48 23  1  0
 50 48  1  0
 51 52  1  0
 52 54  1  0
 53 52  1  0
 55 52  1  0
 56 57  1  0
 58 69  2  0
 59 57  1  0
 59 64  1  0
 60 68  1  0
 60 70  1  0
 61 67  1  0
 61 63  1  0
 62 68  1  0
 63 62  1  0
 64 63  2  0
 65 66  1  0
 65 59  2  0
 66 61  2  0
 67 60  1  0
 68 58  1  0
 70 72  2  0
 71 70  1  0
 73 71  1  0
 74 83  2  0
 74 79  1  0
 75 71  1  0
 75 79  1  0
 76 75  1  0
 77 78  1  0
 77 76  1  0
 78 74  1  0
 79 80  2  0
 80 81  1  0
 82 81  2  0
 83 82  1  0
 84 58  1  0
 84 89  1  0
 84 85  1  0
 85 88  1  1
 85 86  1  0
 87 85  1  0
 89 92  1  0
 90 94  1  0
 90 89  1  0
 91 90  2  0
 94 93  1  0
 96 94  1  0
 96 97  1  0
 96 95  1  0
M  ISO  4  13 100  21 100  56 101  57 101
M  END
>  <TORSDO>  (73) 
F 20

>  <SCORE>  (73) 
-13.869

>  <name>  (73) 
72

>  <ligand_id>  (73) 
72

>  <original_smiles>  (73) 
[H]c1c([H])c([H])c2c(c1[H])C([H])([H])C([H])([H])C([H])([H])C2([H])N([H])C(=O)C1([H])N(C(=O)C([H])(N([H])C(=O)C([H])(N([H])C([H])([H])[H])C([H])([H])[H])C(C([H])([H])[H])(C([H])([H])[H])C([H])([H])[H])C([H])([H])c2c([H])c(OC([H])([H])C3([H])C(=O)c4c([H])c([H])c(C([H])(N([H])C(=O)N5C([H])([H])C([H])([H])C([H])([H])C([H])(n6nc(-c7c([H])c([H])c(Oc8c([H])c([H])c(F)c([H])c8F)c([H])c7[H])c(C(=O)N([H])[H])c6N([H])[H])C5([H])[H])C([H])([H])[H])c([H])c4C3([H])C([H])([H])[N+]([H])([H])[H])c([H])c([H])c2C1([H])[H]

>  <smiles>  (73) 
[H]c1c([H])c([H])c2c(c1[H])C([H])([H])C([H])([H])C([H])([H])C2([H])N([H])C(=O)C1([H])N(C(=O)C([H])(N([H])C(=O)C([H])(N([H])C([H])([H])[H])C([H])([H])[H])C(C([H])([H])[H])(C([H])([H])[H])C([H])([H])[H])C([H])([H])c2c([H])c(OC([H])([H])C3([H])C(=O)c4c([H])c([H])c(C([H])(N([H])C(=O)N5C([H])([H])C([H])([H])C([H])([H])C([H])(n6nc(-c7c([H])c([H])c(Oc8c([H])c([H])c(F)c([H])c8F)c([H])c7[H])c(C(=O)N([H])[H])c6N([H])[H])C5([H])[H])C([H])([H])[H])c([H])c4C3([H])C([H])([H])[N+]([H])([H])[H])c([H])c([H])c2C1([H])[H]

$$$$
73:0:0
     RDKit          3D

 94103  0  0  1  0  0  0  0  0999 V2000
  -28.6720  -23.0500   19.5400 C   0  0  0  0  0  3  0  0  0  0  0  0
  -30.8530  -23.1560   21.3470 C   0  0  0  0  0  3  0  0  0  0  0  0
  -29.2700  -21.8660   20.0320 C   0  0  0  0  0  0  0  0  0  0  0  0
  -30.3380  -21.9180   20.9190 C   0  0  0  0  0  0  0  0  0  0  0  0
  -29.1940  -24.3170   19.9280 C   0  0  0  0  0  0  0  0  0  0  0  0
  -30.2910  -24.3560   20.8400 C   0  0  0  0  0  0  0  0  0  0  0  0
  -28.9650  -20.4510   19.7300 C   0  0  0  0  0  0  0  0  0  0  0  0
  -30.8330  -20.5320   21.2890 C   0  0  0  0  0  2  0  0  0  0  0  0
  -30.1270  -19.5910   20.2730 C   0  0  0  0  0  3  0  0  0  0  0  0
  -30.9110  -25.6760   21.2720 C   0  0  0  0  0  1  0  0  0  0  0  0
  -27.9680  -20.0230   19.1410 O   0  0  0  0  0  0  0  0  0  0  0  0
  -29.6060  -18.3020   20.8120 N   0  0  0  0  0  4  0  0  0  0  0  0
  -28.7710  -18.1230   20.2750 H   0  0  0  0  0  0  0  0  0  0  0  0
  -29.3230  -18.4310   21.7700 H   0  0  0  0  0  0  0  0  0  0  0  0
  -30.5330  -17.1370   20.6700 C   0  0  0  0  0  2  0  0  0  0  0  0
  -29.9580  -15.7620   21.1510 C   0  0  0  0  0  2  0  0  0  0  0  0
  -30.6820  -14.5240   20.5500 C   0  0  0  0  0  0  0  0  0  0  0  0
  -30.4160  -12.3580   19.3860 C   0  0  0  0  0  2  0  0  0  0  0  0
  -29.4940  -12.5630   18.1660 C   0  0  0  0  0  2  0  0  0  0  0  0
  -28.0120  -12.4190   18.5690 C   0  0  0  0  0  2  0  0  0  0  0  0
  -27.6520  -13.2560   19.8250 C   0  0  0  0  0  3  0  0  0  0  0  0
  -28.6900  -13.0430   20.9510 C   0  0  0  0  0  2  0  0  0  0  0  0
  -30.0220  -13.3400   20.4090 N   0  0  0  0  0  0  0  0  0  0  0  0
  -31.8200  -14.6850   20.0990 O   0  0  0  0  0  0  0  0  0  0  0  0
  -25.2390  -13.8640   20.4800 C   0  0  0  0  0  0  0  0  0  0  0  0
  -24.1660  -13.0930   20.8390 C   0  0  0  0  0  0  0  0  0  0  0  0
  -24.6330  -11.7430   20.8360 C   0  0  0  0  0  0  0  0  0  0  0  0
  -26.2910  -12.9840   20.2810 N   0  0  0  0  0  0  0  0  0  0  0  0
  -25.9280  -11.7040   20.5540 N   0  0  0  0  0  0  0  0  0  0  0  0
  -23.9070  -10.4810   21.0280 C   0  0  0  0  0  0  0  0  0  0  0  0
  -24.3280   -9.5250   21.9790 C   0  0  0  0  0  3  0  0  0  0  0  0
  -23.6040   -8.3270   22.1580 C   0  0  0  0  0  3  0  0  0  0  0  0
  -22.4450   -8.0760   21.3850 C   0  0  0  0  0  0  0  0  0  0  0  0
  -22.0440   -9.0210   20.4240 C   0  0  0  0  0  3  0  0  0  0  0  0
  -22.7690  -10.2100   20.2440 C   0  0  0  0  0  3  0  0  0  0  0  0
  -21.6930   -6.9290   21.4730 O   0  0  0  0  0  0  0  0  0  0  0  0
  -21.6330   -6.1950   22.6300 C   0  0  0  0  0  0  0  0  0  0  0  0
  -21.1930   -6.7590   23.8470 C   0  0  0  0  0  3  0  0  0  0  0  0
  -21.0800   -5.9500   24.9970 C   0  0  0  0  0  3  0  0  0  0  0  0
  -21.3960   -4.5800   24.9290 C   0  0  0  0  0  0  0  0  0  0  0  0
  -21.8300   -4.0160   23.7160 C   0  0  0  0  0  3  0  0  0  0  0  0
  -21.9450   -4.8220   22.5690 C   0  0  0  0  0  0  0  0  0  0  0  0
  -22.3430   -4.2690   21.3980 F   0  0  0  0  0  0  0  0  0  0  0  0
  -21.2800   -3.8020   26.0300 F   0  0  0  0  0  0  0  0  0  0  0  0
  -22.7620  -13.5690   21.0750 C   0  0  0  0  0  0  0  0  0  0  0  0
  -22.0170  -12.8800   21.9330 N   0  0  0  0  0  0  0  0  0  0  0  0
  -22.3320  -14.5870   20.5350 O   0  0  0  0  0  0  0  0  0  0  0  0
  -22.3780  -12.0560   22.3920 H   0  0  0  0  0  0  0  0  0  0  0  0
  -21.0740  -13.1810   22.1340 H   0  0  0  0  0  0  0  0  0  0  0  0
  -25.4030  -15.2320   20.2840 N   0  0  0  0  0  0  0  0  0  0  0  0
  -24.6270  -15.8820   20.3570 H   0  0  0  0  0  0  0  0  0  0  0  0
  -26.2480  -15.6620   19.9330 H   0  0  0  0  0  0  0  0  0  0  0  0
  -28.6430  -25.5900   19.2500 C   0  0  0  0  0  2  0  0  0  0  0  0
  -28.3980  -26.7120   20.1260 O   0  0  0  0  0  0  0  0  0  0  0  0
  -24.5850  -31.8830   23.2000 C   0  0  0  0  0  0  0  0  0  0  0  0
  -27.2090  -27.4240   20.0880 C   0  0  0  0  0  0  0  0  0  0  0  0
  -23.3670  -30.4830   21.5660 C   0  0  0  0  0  3  0  0  0  0  0  0
  -24.8090  -28.9470   20.1280 C   0  0  0  0  0  0  0  0  0  0  0  0
  -25.8940  -30.8350   21.3530 C   0  0  0  0  0  2  0  0  0  0  0  0
  -25.9730  -29.4640   20.7080 C   0  0  0  0  0  0  0  0  0  0  0  0
  -27.1700  -28.7080   20.6880 C   0  0  0  0  0  3  0  0  0  0  0  0
  -26.0120  -26.9190   19.5230 C   0  0  0  0  0  3  0  0  0  0  0  0
  -24.8250  -27.6740   19.5360 C   0  0  0  0  0  3  0  0  0  0  0  0
  -23.5670  -29.8070   20.1840 C   0  0  0  0  0  2  0  0  0  0  0  0
  -24.6340  -31.0830   22.0980 N   0  0  0  0  0  0  0  0  0  0  0  0
  -23.5070  -32.1550   23.7470 O   0  0  0  0  0  0  0  0  0  0  0  0
  -22.7220  -29.4600   22.5290 C   0  0  0  0  0  0  0  0  0  0  0  0
  -21.3950  -29.2830   22.4130 N   0  0  0  0  0  0  0  0  0  0  0  0
  -23.4100  -28.8310   23.3360 O   0  0  0  0  0  0  0  0  0  0  0  0
  -20.9010  -29.8440   21.7340 H   0  0  0  0  0  0  0  0  0  0  0  0
  -18.0210  -28.1000   22.9400 C   0  0  0  0  0  0  0  0  0  0  0  0
  -20.5820  -28.3460   23.1890 C   0  0  0  0  0  3  0  0  0  0  0  0
  -20.6730  -26.9160   22.6060 C   0  0  0  0  0  2  0  0  0  0  0  0
  -19.5600  -26.6030   21.6010 C   0  0  0  0  0  2  0  0  0  0  0  0
  -18.1860  -26.7520   22.2580 C   0  0  0  0  0  2  0  0  0  0  0  0
  -19.1480  -28.8550   23.3620 C   0  0  0  0  0  0  0  0  0  0  0  0
  -18.9410  -30.1190   23.9590 C   0  0  0  0  0  3  0  0  0  0  0  0
  -17.6400  -30.6260   24.1370 C   0  0  0  0  0  3  0  0  0  0  0  0
  -16.5280  -29.8670   23.7320 C   0  0  0  0  0  3  0  0  0  0  0  0
  -16.7200  -28.6070   23.1390 C   0  0  0  0  0  3  0  0  0  0  0  0
  -25.8740  -32.5130   23.8120 C   0  0  0  0  0  3  0  0  0  0  0  0
  -26.4090  -31.7330   25.0750 C   0  0  1  0  0  0  0  0  0  0  0  0
  -25.3300  -31.4820   26.1540 C   0  0  0  0  0  1  0  0  0  0  0  0
  -26.9920  -30.3610   24.6630 C   0  0  0  0  0  1  0  0  0  0  0  0
  -27.5650  -32.5260   25.7300 C   0  0  0  0  0  1  0  0  0  0  0  0
  -25.5650  -33.9070   24.1550 N   0  0  0  0  0  0  0  0  0  0  0  0
  -25.8930  -34.9660   23.4030 C   0  0  0  0  0  0  0  0  0  0  0  0
  -26.5590  -34.8720   22.3690 O   0  0  0  0  0  0  0  0  0  0  0  0
  -24.9730  -34.0550   24.9600 H   0  0  0  0  0  0  0  0  0  0  0  0
  -24.1660  -36.7620   23.0620 C   0  0  0  0  0  1  0  0  0  0  0  0
  -25.4040  -36.3500   23.8740 C   0  0  0  0  0  3  0  0  0  0  0  0
  -27.5360  -37.2250   24.7200 C   0  0  0  0  0  1  0  0  0  0  0  0
  -26.4380  -37.4040   23.7750 N   0  0  0  0  0  0  0  0  0  0  0  0
  -26.0310  -38.3220   23.9310 H   0  0  0  0  0  0  0  0  0  0  0  0
  1  5  2  0
  1  3  1  0
  3  4  2  0
  4  8  1  0
  4  2  1  0
  5  6  1  0
  6 10  1  0
  6  2  2  0
  7  3  1  0
  7  9  1  0
  9 12  1  0
  9  8  1  0
 11  7  2  0
 12 14  1  0
 13 12  1  0
 15 12  1  0
 15 16  1  0
 17 16  1  0
 18 23  1  0
 19 20  1  0
 19 18  1  0
 21 20  1  0
 21 28  1  0
 21 22  1  0
 23 17  1  0
 23 22  1  0
 24 17  2  0
 25 26  2  0
 26 45  1  0
 27 26  1  0
 27 30  1  0
 28 25  1  0
 28 29  1  0
 29 27  2  0
 30 31  1  0
 31 32  2  0
 33 36  1  0
 33 32  1  0
 34 33  2  0
 35 34  1  0
 35 30  2  0
 36 37  1  0
 37 38  1  0
 38 39  2  0
 40 39  1  0
 40 44  1  0
 41 40  2  0
 42 37  2  0
 42 41  1  0
 43 42  1  0
 45 46  1  0
 46 49  1  0
 46 48  1  0
 47 45  2  0
 50 51  1  0
 50 25  1  0
 52 50  1  0
 53  5  1  0
 53 54  1  0
 55 66  2  0
 56 54  1  0
 56 61  1  0
 57 65  1  0
 57 67  1  0
 58 64  1  0
 58 60  1  0
 59 65  1  0
 60 59  1  0
 61 60  2  0
 62 63  1  0
 62 56  2  0
 63 58  2  0
 64 57  1  0
 65 55  1  0
 67 69  2  0
 68 67  1  0
 70 68  1  0
 71 80  2  0
 71 76  1  0
 72 68  1  0
 72 76  1  0
 73 72  1  0
 74 75  1  0
 74 73  1  0
 75 71  1  0
 76 77  2  0
 77 78  1  0
 79 78  2  0
 80 79  1  0
 81 55  1  0
 81 86  1  0
 81 82  1  0
 82 85  1  1
 82 83  1  0
 84 82  1  0
 86 89  1  0
 87 91  1  0
 87 86  1  0
 88 87  2  0
 91 90  1  0
 93 91  1  0
 93 94  1  0
 93 92  1  0
M  ISO  4  16 100  17 100  53 101  54 101
M  END
>  <TORSDO>  (74) 
F 20

>  <SCORE>  (74) 
-14.151

>  <name>  (74) 
73

>  <ligand_id>  (74) 
73

>  <original_smiles>  (74) 
[H]c1c([H])c([H])c2c(c1[H])C([H])([H])C([H])([H])C([H])([H])C2([H])N([H])C(=O)C1([H])N(C(=O)C([H])(N([H])C(=O)C([H])(N([H])C([H])([H])[H])C([H])([H])[H])C(C([H])([H])[H])(C([H])([H])[H])C([H])([H])[H])C([H])([H])c2c([H])c(OC([H])([H])c3c([H])c4c(c([H])c3C([H])([H])[H])C([H])([H])C([H])([N+]([H])([H])C([H])([H])C([H])([H])C(=O)N3C([H])([H])C([H])([H])C([H])([H])C([H])(n5nc(-c6c([H])c([H])c(Oc7c([H])c([H])c(F)c([H])c7F)c([H])c6[H])c(C(=O)N([H])[H])c5N([H])[H])C3([H])[H])C4=O)c([H])c([H])c2C1([H])[H]

>  <smiles>  (74) 
[H]c1c([H])c([H])c2c(c1[H])C([H])([H])C([H])([H])C([H])([H])C2([H])N([H])C(=O)C1([H])N(C(=O)C([H])(N([H])C(=O)C([H])(N([H])C([H])([H])[H])C([H])([H])[H])C(C([H])([H])[H])(C([H])([H])[H])C([H])([H])[H])C([H])([H])c2c([H])c(OC([H])([H])c3c([H])c4c(c([H])c3C([H])([H])[H])C([H])([H])C([H])([N+]([H])([H])C([H])([H])C([H])([H])C(=O)N3C([H])([H])C([H])([H])C([H])([H])C([H])(n5nc(-c6c([H])c([H])c(Oc7c([H])c([H])c(F)c([H])c7F)c([H])c6[H])c(C(=O)N([H])[H])c5N([H])[H])C3([H])[H])C4=O)c([H])c([H])c2C1([H])[H]

$$$$
74:0:0
     RDKit          3D

 90 98  0  0  1  0  0  0  0  0999 V2000
  -32.1390  -21.0920   19.9200 C   0  0  0  0  0  3  0  0  0  0  0  0
  -31.2990  -22.2020   20.1290 C   0  0  0  0  0  3  0  0  0  0  0  0
  -31.6500  -19.7840   20.0950 C   0  0  0  0  0  3  0  0  0  0  0  0
  -29.4720  -20.6980   20.6840 C   0  0  0  0  0  3  0  0  0  0  0  0
  -29.9520  -22.0210   20.5100 C   0  0  0  0  0  0  0  0  0  0  0  0
  -30.3070  -19.5660   20.4810 C   0  0  0  0  0  0  0  0  0  0  0  0
  -29.0480  -23.1680   20.7710 C   0  0  0  0  0  3  0  0  0  0  0  0
  -29.3710  -24.4800   20.7910 C   0  0  0  0  0  3  0  0  0  0  0  0
  -28.3890  -25.6000   21.1130 C   0  0  0  0  0  2  0  0  0  0  0  0
  -28.4550  -26.6850   20.1820 O   0  0  0  0  0  0  0  0  0  0  0  0
  -24.5850  -31.8390   23.2190 C   0  0  0  0  0  0  0  0  0  0  0  0
  -27.3030  -27.4360   20.1640 C   0  0  0  0  0  0  0  0  0  0  0  0
  -23.4110  -30.4340   21.5530 C   0  0  0  0  0  3  0  0  0  0  0  0
  -24.8970  -28.9120   20.1440 C   0  0  0  0  0  0  0  0  0  0  0  0
  -25.9350  -30.8160   21.3910 C   0  0  0  0  0  2  0  0  0  0  0  0
  -26.0420  -29.4480   20.7500 C   0  0  0  0  0  0  0  0  0  0  0  0
  -27.2510  -28.7170   20.7570 C   0  0  0  0  0  3  0  0  0  0  0  0
  -26.1470  -26.9120   19.5510 C   0  0  0  0  0  3  0  0  0  0  0  0
  -24.9440  -27.6420   19.5410 C   0  0  0  0  0  3  0  0  0  0  0  0
  -23.6450  -29.7580   20.1750 C   0  0  0  0  0  2  0  0  0  0  0  0
  -24.6610  -31.0440   22.1130 N   0  0  0  0  0  0  0  0  0  0  0  0
  -23.4940  -32.1010   23.7450 O   0  0  0  0  0  0  0  0  0  0  0  0
  -22.7540  -29.4060   22.5010 C   0  0  0  0  0  0  0  0  0  0  0  0
  -21.4290  -29.2320   22.3680 N   0  0  0  0  0  0  0  0  0  0  0  0
  -23.4320  -28.7680   23.3110 O   0  0  0  0  0  0  0  0  0  0  0  0
  -20.9440  -29.7970   21.6860 H   0  0  0  0  0  0  0  0  0  0  0  0
  -18.0430  -28.0720   22.8610 C   0  0  0  0  0  0  0  0  0  0  0  0
  -20.6050  -28.2910   23.1260 C   0  0  0  0  0  3  0  0  0  0  0  0
  -20.6850  -26.8690   22.5210 C   0  0  0  0  0  2  0  0  0  0  0  0
  -19.5750  -26.5820   21.5060 C   0  0  0  0  0  2  0  0  0  0  0  0
  -18.1980  -26.7330   22.1590 C   0  0  0  0  0  2  0  0  0  0  0  0
  -19.1740  -28.8100   23.3000 C   0  0  0  0  0  0  0  0  0  0  0  0
  -18.9760  -30.0650   23.9160 C   0  0  0  0  0  3  0  0  0  0  0  0
  -17.6790  -30.5810   24.0970 C   0  0  0  0  0  3  0  0  0  0  0  0
  -16.5620  -29.8400   23.6750 C   0  0  0  0  0  3  0  0  0  0  0  0
  -16.7450  -28.5870   23.0620 C   0  0  0  0  0  3  0  0  0  0  0  0
  -25.8590  -32.4730   23.8590 C   0  0  0  0  0  3  0  0  0  0  0  0
  -25.5410  -33.8710   24.1830 N   0  0  0  0  0  0  0  0  0  0  0  0
  -25.8760  -34.9220   23.4210 C   0  0  0  0  0  0  0  0  0  0  0  0
  -26.5560  -34.8180   22.3970 O   0  0  0  0  0  0  0  0  0  0  0  0
  -24.9400  -34.0250   24.9790 H   0  0  0  0  0  0  0  0  0  0  0  0
  -24.1450  -36.7050   23.0360 C   0  0  0  0  0  1  0  0  0  0  0  0
  -25.3760  -36.3090   23.8680 C   0  0  0  0  0  3  0  0  0  0  0  0
  -27.4910  -37.2090   24.7340 C   0  0  0  0  0  1  0  0  0  0  0  0
  -26.4060  -37.3660   23.7690 N   0  0  0  0  0  0  0  0  0  0  0  0
  -25.9930  -38.2860   23.9030 H   0  0  0  0  0  0  0  0  0  0  0  0
  -26.3610  -31.7030   25.1410 C   0  0  1  0  0  0  0  0  0  0  0  0
  -25.2520  -31.4570   26.1910 C   0  0  0  0  0  1  0  0  0  0  0  0
  -26.9570  -30.3290   24.7540 C   0  0  0  0  0  1  0  0  0  0  0  0
  -27.4960  -32.5030   25.8230 C   0  0  0  0  0  1  0  0  0  0  0  0
  -29.7630  -18.1800   20.6930 C   0  0  0  0  0  0  0  0  0  0  0  0
  -28.5920  -17.9750   21.0260 O   0  0  0  0  0  0  0  0  0  0  0  0
  -30.7130  -16.9840   20.4860 C   0  0  0  0  0  2  0  0  0  0  0  0
  -30.1280  -15.5920   20.8700 C   0  0  0  0  0  2  0  0  0  0  0  0
  -30.7460  -14.4230   20.0720 C   0  0  0  0  0  0  0  0  0  0  0  0
  -30.3720  -12.2860   18.8860 C   0  0  0  0  0  2  0  0  0  0  0  0
  -29.3560  -12.5090   17.7490 C   0  0  0  0  0  2  0  0  0  0  0  0
  -27.9110  -12.3660   18.2700 C   0  0  0  0  0  2  0  0  0  0  0  0
  -27.6570  -13.1880   19.5600 C   0  0  0  0  0  3  0  0  0  0  0  0
  -28.7790  -12.9490   20.5960 C   0  0  0  0  0  2  0  0  0  0  0  0
  -30.0660  -13.2510   19.9510 N   0  0  0  0  0  0  0  0  0  0  0  0
  -31.8140  -14.6220   19.4850 O   0  0  0  0  0  0  0  0  0  0  0  0
  -25.3140  -13.7990   20.4370 C   0  0  0  0  0  0  0  0  0  0  0  0
  -24.2640  -13.0260   20.8550 C   0  0  0  0  0  0  0  0  0  0  0  0
  -24.7090  -11.6710   20.7590 C   0  0  0  0  0  0  0  0  0  0  0  0
  -26.3340  -12.9150   20.1180 N   0  0  0  0  0  0  0  0  0  0  0  0
  -25.9760  -11.6290   20.3670 N   0  0  0  0  0  0  0  0  0  0  0  0
  -23.9840  -10.4100   20.9640 C   0  0  0  0  0  0  0  0  0  0  0  0
  -24.4230   -9.4510   21.9030 C   0  0  0  0  0  3  0  0  0  0  0  0
  -23.7000   -8.2550   22.0950 C   0  0  0  0  0  3  0  0  0  0  0  0
  -22.5240   -8.0080   21.3460 C   0  0  0  0  0  0  0  0  0  0  0  0
  -22.1050   -8.9560   20.3970 C   0  0  0  0  0  3  0  0  0  0  0  0
  -22.8290  -10.1440   20.2030 C   0  0  0  0  0  3  0  0  0  0  0  0
  -21.7720   -6.8630   21.4470 O   0  0  0  0  0  0  0  0  0  0  0  0
  -21.6750   -6.1670   22.6250 C   0  0  0  0  0  0  0  0  0  0  0  0
  -21.1580   -6.7560   23.7990 C   0  0  0  0  0  3  0  0  0  0  0  0
  -21.0100   -5.9840   24.9690 C   0  0  0  0  0  3  0  0  0  0  0  0
  -21.3710   -4.6240   24.9640 C   0  0  0  0  0  0  0  0  0  0  0  0
  -21.8810   -4.0330   23.7960 C   0  0  0  0  0  3  0  0  0  0  0  0
  -22.0300   -4.8030   22.6280 C   0  0  0  0  0  0  0  0  0  0  0  0
  -22.5020   -4.2230   21.4980 F   0  0  0  0  0  0  0  0  0  0  0  0
  -21.2220   -3.8790   26.0850 F   0  0  0  0  0  0  0  0  0  0  0  0
  -22.8920  -13.5060   21.2320 C   0  0  0  0  0  0  0  0  0  0  0  0
  -22.2140  -12.7880   22.1200 N   0  0  0  0  0  0  0  0  0  0  0  0
  -22.4320  -14.5520   20.7760 O   0  0  0  0  0  0  0  0  0  0  0  0
  -22.5990  -11.9400   22.5100 H   0  0  0  0  0  0  0  0  0  0  0  0
  -21.2960  -13.0900   22.4150 H   0  0  0  0  0  0  0  0  0  0  0  0
  -25.4810  -15.1720   20.2850 N   0  0  0  0  0  0  0  0  0  0  0  0
  -24.7320  -15.8320   20.4660 H   0  0  0  0  0  0  0  0  0  0  0  0
  -26.3230  -15.6150   19.9390 H   0  0  0  0  0  0  0  0  0  0  0  0
  1  3  2  0
  1  2  1  0
  2  5  2  0
  3  6  1  0
  5  4  1  0
  5  7  1  0
  6  4  2  0
  6 51  1  0
  7  8  2  0
  8  9  1  0
 10  9  1  0
 11 22  2  0
 12 10  1  0
 12 17  1  0
 13 21  1  0
 13 23  1  0
 14 20  1  0
 14 16  1  0
 15 21  1  0
 16 17  2  0
 16 15  1  0
 18 12  2  0
 19 18  1  0
 19 14  2  0
 20 13  1  0
 21 11  1  0
 23 25  2  0
 24 23  1  0
 26 24  1  0
 27 36  2  0
 27 32  1  0
 28 24  1  0
 28 32  1  0
 29 28  1  0
 30 31  1  0
 30 29  1  0
 31 27  1  0
 32 33  2  0
 33 34  1  0
 35 34  2  0
 36 35  1  0
 37 11  1  0
 37 38  1  0
 37 47  1  0
 38 41  1  0
 39 43  1  0
 39 38  1  0
 40 39  2  0
 43 42  1  0
 45 43  1  0
 45 46  1  0
 45 44  1  0
 47 50  1  1
 47 48  1  0
 49 47  1  0
 51 52  2  0
 53 51  1  0
 53 54  1  0
 55 54  1  0
 56 61  1  0
 57 58  1  0
 57 56  1  0
 59 58  1  0
 59 66  1  0
 59 60  1  0
 61 55  1  0
 61 60  1  0
 62 55  2  0
 63 64  2  0
 64 83  1  0
 65 64  1  0
 65 68  1  0
 66 67  1  0
 66 63  1  0
 67 65  2  0
 68 69  1  0
 69 70  2  0
 71 74  1  0
 71 70  1  0
 72 71  2  0
 73 72  1  0
 73 68  2  0
 74 75  1  0
 75 80  2  0
 75 76  1  0
 76 77  2  0
 78 77  1  0
 78 82  1  0
 79 78  2  0
 80 79  1  0
 81 80  1  0
 83 84  1  0
 84 87  1  0
 84 86  1  0
 85 83  2  0
 88 63  1  0
 88 89  1  0
 90 88  1  0
M  ISO  4   9 101  10 101  54 100  55 100
M  END
>  <TORSDO>  (75) 
F 21

>  <SCORE>  (75) 
-13.330

>  <name>  (75) 
74

>  <ligand_id>  (75) 
74

>  <original_smiles>  (75) 
[H]C(=C([H])C([H])([H])Oc1c([H])c([H])c2c(c1[H])C([H])([H])N(C(=O)C([H])(N([H])C(=O)C([H])(N([H])C([H])([H])[H])C([H])([H])[H])C(C([H])([H])[H])(C([H])([H])[H])C([H])([H])[H])C([H])(C(=O)N([H])C1([H])c3c([H])c([H])c([H])c([H])c3C([H])([H])C([H])([H])C1([H])[H])C2([H])[H])c1c([H])c([H])c([H])c(C(=O)C([H])([H])C([H])([H])C(=O)N2C([H])([H])C([H])([H])C([H])([H])C([H])(n3nc(-c4c([H])c([H])c(Oc5c([H])c([H])c(F)c([H])c5F)c([H])c4[H])c(C(=O)N([H])[H])c3N([H])[H])C2([H])[H])c1[H]

>  <smiles>  (75) 
[H]C(=C([H])C([H])([H])Oc1c([H])c([H])c2c(c1[H])C([H])([H])N(C(=O)C([H])(N([H])C(=O)C([H])(N([H])C([H])([H])[H])C([H])([H])[H])C(C([H])([H])[H])(C([H])([H])[H])C([H])([H])[H])C([H])(C(=O)N([H])C1([H])c3c([H])c([H])c([H])c([H])c3C([H])([H])C([H])([H])C1([H])[H])C2([H])[H])c1c([H])c([H])c([H])c(C(=O)C([H])([H])C([H])([H])C(=O)N2C([H])([H])C([H])([H])C([H])([H])C([H])(n3nc(-c4c([H])c([H])c(Oc5c([H])c([H])c(F)c([H])c5F)c([H])c4[H])c(C(=O)N([H])[H])c3N([H])[H])C2([H])[H])c1[H]

$$$$
75:0:0
     RDKit          3D

 91 99  0  0  1  0  0  0  0  0999 V2000
  -29.2080  -20.9110   22.3680 C   0  0  0  0  0  3  0  0  0  0  0  0
  -30.0400  -19.7810   22.2440 C   0  0  0  0  0  3  0  0  0  0  0  0
  -29.4780  -22.0730   21.6200 C   0  0  0  0  0  3  0  0  0  0  0  0
  -31.3890  -20.9600   20.5880 C   0  0  0  0  0  3  0  0  0  0  0  0
  -31.1320  -19.7950   21.3510 C   0  0  0  0  0  0  0  0  0  0  0  0
  -30.5710  -22.1090   20.7240 C   0  0  0  0  0  0  0  0  0  0  0  0
  -32.0510  -18.6270   21.3240 C   0  0  0  0  0  0  0  0  0  0  0  0
  -32.8100  -18.3600   22.2610 O   0  0  0  0  0  0  0  0  0  0  0  0
  -31.9770  -17.6830   20.1220 C   0  0  0  0  0  2  0  0  0  0  0  0
  -31.4020  -16.2970   20.5200 C   0  0  0  0  0  2  0  0  0  0  0  0
  -32.0160  -15.0900   19.7880 C   0  0  0  0  0  0  0  0  0  0  0  0
  -31.6710  -12.8240   18.8510 C   0  0  0  0  0  2  0  0  0  0  0  0
  -30.6870  -12.8900   17.6650 C   0  0  0  0  0  2  0  0  0  0  0  0
  -29.2260  -12.8230   18.1550 C   0  0  0  0  0  2  0  0  0  0  0  0
  -28.9370  -13.8120   19.3160 C   0  0  0  0  0  3  0  0  0  0  0  0
  -30.0220  -13.6930   20.4100 C   0  0  0  0  0  2  0  0  0  0  0  0
  -31.3330  -13.9150   19.7760 N   0  0  0  0  0  0  0  0  0  0  0  0
  -33.0810  -15.2380   19.1820 O   0  0  0  0  0  0  0  0  0  0  0  0
  -26.6190  -14.5660   20.1480 C   0  0  0  0  0  0  0  0  0  0  0  0
  -25.5220  -13.8600   20.5610 C   0  0  0  0  0  0  0  0  0  0  0  0
  -25.8920  -12.4810   20.4920 C   0  0  0  0  0  0  0  0  0  0  0  0
  -27.5920  -13.6220   19.8570 N   0  0  0  0  0  0  0  0  0  0  0  0
  -27.1580  -12.3630   20.1180 N   0  0  0  0  0  0  0  0  0  0  0  0
  -25.0950  -11.2660   20.7050 C   0  0  0  0  0  0  0  0  0  0  0  0
  -25.4050  -10.3510   21.7360 C   0  0  0  0  0  3  0  0  0  0  0  0
  -24.6140   -9.2000   21.9330 C   0  0  0  0  0  3  0  0  0  0  0  0
  -23.5000   -8.9530   21.0970 C   0  0  0  0  0  0  0  0  0  0  0  0
  -23.2080   -9.8540   20.0580 C   0  0  0  0  0  3  0  0  0  0  0  0
  -23.9980  -10.9980   19.8600 C   0  0  0  0  0  3  0  0  0  0  0  0
  -22.6920   -7.8450   21.1950 O   0  0  0  0  0  0  0  0  0  0  0  0
  -22.3550   -7.3070   22.4110 C   0  0  0  0  0  0  0  0  0  0  0  0
  -21.6670   -8.0530   23.3920 C   0  0  0  0  0  3  0  0  0  0  0  0
  -21.2790   -7.4400   24.6000 C   0  0  0  0  0  3  0  0  0  0  0  0
  -21.5700   -6.0820   24.8270 C   0  0  0  0  0  0  0  0  0  0  0  0
  -22.2520   -5.3360   23.8490 C   0  0  0  0  0  3  0  0  0  0  0  0
  -22.6400   -5.9460   22.6430 C   0  0  0  0  0  0  0  0  0  0  0  0
  -23.2780   -5.2170   21.6960 F   0  0  0  0  0  0  0  0  0  0  0  0
  -21.1930   -5.4900   25.9830 F   0  0  0  0  0  0  0  0  0  0  0  0
  -24.1750  -14.4220   20.9110 C   0  0  0  0  0  0  0  0  0  0  0  0
  -23.4590  -13.7740   21.8230 N   0  0  0  0  0  0  0  0  0  0  0  0
  -23.7690  -15.4700   20.4100 O   0  0  0  0  0  0  0  0  0  0  0  0
  -23.8020  -12.9260   22.2490 H   0  0  0  0  0  0  0  0  0  0  0  0
  -22.5560  -14.1330   22.1000 H   0  0  0  0  0  0  0  0  0  0  0  0
  -26.8640  -15.9260   19.9780 N   0  0  0  0  0  0  0  0  0  0  0  0
  -26.1500  -16.6280   20.1350 H   0  0  0  0  0  0  0  0  0  0  0  0
  -27.7270  -16.3120   19.6170 H   0  0  0  0  0  0  0  0  0  0  0  0
  -30.9170  -23.3800   19.9460 C   0  0  0  0  0  2  0  0  0  0  0  0
  -29.7130  -24.2690   19.5630 C   0  0  0  0  0  2  0  0  0  0  0  0
  -30.0790  -25.4150   18.5980 C   0  0  0  0  0  2  0  0  0  0  0  0
  -28.8750  -26.2970   18.2210 C   0  0  0  0  0  2  0  0  0  0  0  0
  -28.6040  -27.2410   19.2640 O   0  0  0  0  0  0  0  0  0  0  0  0
  -24.5030  -31.5810   23.1180 C   0  0  0  0  0  0  0  0  0  0  0  0
  -27.3530  -27.8160   19.3730 C   0  0  0  0  0  0  0  0  0  0  0  0
  -23.3310  -30.2640   21.3860 C   0  0  0  0  0  3  0  0  0  0  0  0
  -24.8270  -29.0600   19.7080 C   0  0  0  0  0  0  0  0  0  0  0  0
  -25.7960  -30.8940   21.0990 C   0  0  0  0  0  2  0  0  0  0  0  0
  -25.9660  -29.6190   20.3000 C   0  0  0  0  0  0  0  0  0  0  0  0
  -27.2250  -28.9970   20.1420 C   0  0  0  0  0  3  0  0  0  0  0  0
  -26.1860  -27.2690   18.7860 C   0  0  0  0  0  3  0  0  0  0  0  0
  -24.9330  -27.8810   18.9540 C   0  0  0  0  0  3  0  0  0  0  0  0
  -23.5130  -29.7740   19.9240 C   0  0  0  0  0  2  0  0  0  0  0  0
  -24.5650  -30.9220   21.9260 N   0  0  0  0  0  0  0  0  0  0  0  0
  -23.4370  -31.6800   23.7410 O   0  0  0  0  0  0  0  0  0  0  0  0
  -22.8430  -29.0770   22.2460 C   0  0  0  0  0  0  0  0  0  0  0  0
  -21.5560  -28.7250   22.1030 N   0  0  0  0  0  0  0  0  0  0  0  0
  -23.6190  -28.4790   22.9960 O   0  0  0  0  0  0  0  0  0  0  0  0
  -20.9830  -29.2720   21.4740 H   0  0  0  0  0  0  0  0  0  0  0  0
  -18.4020  -26.9930   22.4370 C   0  0  0  0  0  0  0  0  0  0  0  0
  -20.8870  -27.6150   22.7820 C   0  0  0  0  0  3  0  0  0  0  0  0
  -21.2150  -26.2660   22.1010 C   0  0  0  0  0  2  0  0  0  0  0  0
  -20.1850  -25.8600   21.0420 C   0  0  0  0  0  2  0  0  0  0  0  0
  -18.7910  -25.7430   21.6650 C   0  0  0  0  0  2  0  0  0  0  0  0
  -19.3870  -27.8790   22.9470 C   0  0  0  0  0  0  0  0  0  0  0  0
  -18.9730  -29.0470   23.6240 C   0  0  0  0  0  3  0  0  0  0  0  0
  -17.6050  -29.3310   23.7990 C   0  0  0  0  0  3  0  0  0  0  0  0
  -16.6350  -28.4420   23.3060 C   0  0  0  0  0  3  0  0  0  0  0  0
  -17.0340  -27.2740   22.6300 C   0  0  0  0  0  3  0  0  0  0  0  0
  -25.7610  -32.2620   23.7420 C   0  0  0  0  0  3  0  0  0  0  0  0
  -25.3840  -33.6330   24.1090 N   0  0  0  0  0  0  0  0  0  0  0  0
  -25.6690  -34.7200   23.3790 C   0  0  0  0  0  0  0  0  0  0  0  0
  -26.3490  -34.6760   22.3500 O   0  0  0  0  0  0  0  0  0  0  0  0
  -24.7770  -33.7370   24.9080 H   0  0  0  0  0  0  0  0  0  0  0  0
  -23.8630  -36.4390   23.0500 C   0  0  0  0  0  1  0  0  0  0  0  0
  -25.1120  -36.0710   23.8670 C   0  0  0  0  0  3  0  0  0  0  0  0
  -27.1890  -37.0340   24.7560 C   0  0  0  0  0  1  0  0  0  0  0  0
  -26.0970  -37.1730   23.7950 N   0  0  0  0  0  0  0  0  0  0  0  0
  -25.6470  -38.0700   23.9510 H   0  0  0  0  0  0  0  0  0  0  0  0
  -26.3300  -31.4840   24.9910 C   0  0  1  0  0  0  0  0  0  0  0  0
  -25.2610  -31.1540   26.0580 C   0  0  0  0  0  1  0  0  0  0  0  0
  -26.9890  -30.1550   24.5540 C   0  0  0  0  0  1  0  0  0  0  0  0
  -27.4400  -32.3240   25.6660 C   0  0  0  0  0  1  0  0  0  0  0  0
  2  1  1  0
  3  1  2  0
  4  6  2  0
  4  5  1  0
  5  2  2  0
  6  3  1  0
  7  5  1  0
  7  8  2  0
  9 10  1  0
  9  7  1  0
 11 10  1  0
 12 17  1  0
 13 14  1  0
 13 12  1  0
 15 14  1  0
 15 22  1  0
 15 16  1  0
 17 11  1  0
 17 16  1  0
 18 11  2  0
 19 20  2  0
 20 39  1  0
 21 20  1  0
 21 24  1  0
 22 23  1  0
 22 19  1  0
 23 21  2  0
 24 25  1  0
 25 26  2  0
 27 30  1  0
 27 26  1  0
 28 27  2  0
 29 28  1  0
 29 24  2  0
 30 31  1  0
 31 36  2  0
 31 32  1  0
 32 33  2  0
 33 34  1  0
 34 38  1  0
 35 34  2  0
 36 35  1  0
 37 36  1  0
 39 40  1  0
 40 43  1  0
 40 42  1  0
 41 39  2  0
 44 45  1  0
 44 19  1  0
 46 44  1  0
 47  6  1  0
 48 47  1  0
 49 48  1  0
 50 49  1  0
 50 51  1  0
 51 53  1  0
 52 63  2  0
 53 58  1  0
 54 62  1  0
 54 64  1  0
 55 61  1  0
 55 57  1  0
 56 62  1  0
 57 56  1  0
 58 57  2  0
 59 60  1  0
 59 53  2  0
 60 55  2  0
 61 54  1  0
 62 52  1  0
 64 66  2  0
 65 64  1  0
 67 65  1  0
 68 77  2  0
 68 73  1  0
 69 65  1  0
 69 73  1  0
 70 69  1  0
 71 72  1  0
 71 70  1  0
 72 68  1  0
 73 74  2  0
 74 75  1  0
 76 75  2  0
 77 76  1  0
 78 52  1  0
 78 79  1  0
 78 88  1  0
 79 82  1  0
 80 84  1  0
 80 79  1  0
 81 80  2  0
 84 83  1  0
 86 84  1  0
 86 87  1  0
 86 85  1  0
 88 91  1  1
 88 89  1  0
 90 88  1  0
M  ISO  4  10 100  11 100  50 101  51 101
M  END
>  <TORSDO>  (76) 
F 23

>  <SCORE>  (76) 
-8.405

>  <name>  (76) 
75

>  <ligand_id>  (76) 
75

>  <original_smiles>  (76) 
[H]c1c([H])c(C(=O)C([H])([H])C([H])([H])C(=O)N2C([H])([H])C([H])([H])C([H])([H])C([H])(n3nc(-c4c([H])c([H])c(Oc5c([H])c([H])c(F)c([H])c5F)c([H])c4[H])c(C(=O)N([H])[H])c3N([H])[H])C2([H])[H])c([H])c(C([H])([H])C([H])([H])C([H])([H])C([H])([H])Oc2c([H])c([H])c3c(c2[H])C([H])([H])N(C(=O)C([H])(N([H])C(=O)C([H])(N([H])C([H])([H])[H])C([H])([H])[H])C(C([H])([H])[H])(C([H])([H])[H])C([H])([H])[H])C([H])(C(=O)N([H])C2([H])c4c([H])c([H])c([H])c([H])c4C([H])([H])C([H])([H])C2([H])[H])C3([H])[H])c1[H]

>  <smiles>  (76) 
[H]c1c([H])c(C(=O)C([H])([H])C([H])([H])C(=O)N2C([H])([H])C([H])([H])C([H])([H])C([H])(n3nc(-c4c([H])c([H])c(Oc5c([H])c([H])c(F)c([H])c5F)c([H])c4[H])c(C(=O)N([H])[H])c3N([H])[H])C2([H])[H])c([H])c(C([H])([H])C([H])([H])C([H])([H])C([H])([H])Oc2c([H])c([H])c3c(c2[H])C([H])([H])N(C(=O)C([H])(N([H])C(=O)C([H])(N([H])C([H])([H])[H])C([H])([H])[H])C(C([H])([H])[H])(C([H])([H])[H])C([H])([H])[H])C([H])(C(=O)N([H])C2([H])c4c([H])c([H])c([H])c([H])c4C([H])([H])C([H])([H])C2([H])[H])C3([H])[H])c1[H]

$$$$
76:0:0
     RDKit          3D

 95103  0  0  1  0  0  0  0  0999 V2000
  -27.4440  -19.1880   20.4180 C   0  0  0  0  0  2  0  0  0  0  0  0
  -28.1220  -20.5010   20.8670 C   0  0  0  0  0  2  0  0  0  0  0  0
  -27.5760  -21.7810   20.1960 C   0  0  0  0  0  2  0  0  0  0  0  0
  -27.5410  -22.9800   21.1600 C   0  0  0  0  0  2  0  0  0  0  0  0
  -27.2830  -24.3390   20.4800 C   0  0  0  0  0  2  0  0  0  0  0  0
  -28.5470  -24.9260   19.8180 C   0  0  0  0  0  2  0  0  0  0  0  0
  -28.8150  -26.4070   20.1550 C   0  0  0  0  0  2  0  0  0  0  0  0
  -28.2770  -27.2480   19.1510 O   0  0  0  0  0  0  0  0  0  0  0  0
  -24.4940  -31.8120   23.1300 C   0  0  0  0  0  0  0  0  0  0  0  0
  -27.0820  -27.8570   19.4320 C   0  0  0  0  0  0  0  0  0  0  0  0
  -23.2370  -30.5700   21.4030 C   0  0  0  0  0  3  0  0  0  0  0  0
  -24.6460  -29.2350   19.7510 C   0  0  0  0  0  0  0  0  0  0  0  0
  -25.7320  -31.0270   21.1140 C   0  0  0  0  0  2  0  0  0  0  0  0
  -25.8170  -29.7330   20.3360 C   0  0  0  0  0  0  0  0  0  0  0  0
  -27.0400  -29.0460   20.1890 C   0  0  0  0  0  3  0  0  0  0  0  0
  -25.9010  -27.3560   18.8490 C   0  0  0  0  0  3  0  0  0  0  0  0
  -24.6780  -28.0380   19.0130 C   0  0  0  0  0  3  0  0  0  0  0  0
  -23.3850  -30.0500   19.9500 C   0  0  0  0  0  2  0  0  0  0  0  0
  -24.5110  -31.1430   21.9410 N   0  0  0  0  0  0  0  0  0  0  0  0
  -23.4380  -31.9930   23.7520 O   0  0  0  0  0  0  0  0  0  0  0  0
  -22.6650  -29.4260   22.2770 C   0  0  0  0  0  0  0  0  0  0  0  0
  -21.3420  -29.2180   22.2070 N   0  0  0  0  0  0  0  0  0  0  0  0
  -23.4100  -28.7320   22.9760 O   0  0  0  0  0  0  0  0  0  0  0  0
  -20.7910  -29.8400   21.6320 H   0  0  0  0  0  0  0  0  0  0  0  0
  -18.0480  -27.8030   22.6900 C   0  0  0  0  0  0  0  0  0  0  0  0
  -20.5990  -28.1660   22.8950 C   0  0  0  0  0  3  0  0  0  0  0  0
  -20.7490  -26.8090   22.1700 C   0  0  0  0  0  2  0  0  0  0  0  0
  -19.6170  -26.5070   21.1820 C   0  0  0  0  0  2  0  0  0  0  0  0
  -18.2660  -26.5260   21.8980 C   0  0  0  0  0  2  0  0  0  0  0  0
  -19.1450  -28.5810   23.1490 C   0  0  0  0  0  0  0  0  0  0  0  0
  -18.8890  -29.7760   23.8550 C   0  0  0  0  0  3  0  0  0  0  0  0
  -17.5700  -30.1920   24.1130 C   0  0  0  0  0  3  0  0  0  0  0  0
  -16.4890  -29.4070   23.6680 C   0  0  0  0  0  3  0  0  0  0  0  0
  -16.7300  -28.2160   22.9640 C   0  0  0  0  0  3  0  0  0  0  0  0
  -25.7930  -32.4160   23.7460 C   0  0  0  0  0  3  0  0  0  0  0  0
  -26.3450  -31.5870   24.9690 C   0  0  1  0  0  0  0  0  0  0  0  0
  -25.2890  -31.3110   26.0630 C   0  0  0  0  0  1  0  0  0  0  0  0
  -26.9010  -30.2220   24.4960 C   0  0  0  0  0  1  0  0  0  0  0  0
  -27.5230  -32.3440   25.6320 C   0  0  0  0  0  1  0  0  0  0  0  0
  -25.4940  -33.7980   24.1420 N   0  0  0  0  0  0  0  0  0  0  0  0
  -25.8430  -34.8870   23.4400 C   0  0  0  0  0  0  0  0  0  0  0  0
  -26.5240  -34.8320   22.4120 O   0  0  0  0  0  0  0  0  0  0  0  0
  -24.8900  -33.9180   24.9420 H   0  0  0  0  0  0  0  0  0  0  0  0
  -24.1430  -36.7260   23.1550 C   0  0  0  0  0  1  0  0  0  0  0  0
  -25.3620  -36.2530   23.9650 C   0  0  0  0  0  3  0  0  0  0  0  0
  -27.4890  -37.0730   24.8860 C   0  0  0  0  0  1  0  0  0  0  0  0
  -26.4090  -37.3000   23.9290 N   0  0  0  0  0  0  0  0  0  0  0  0
  -26.0060  -38.2140   24.1150 H   0  0  0  0  0  0  0  0  0  0  0  0
  -28.3590  -17.9470   20.5480 C   0  0  0  0  0  2  0  0  0  0  0  0
  -30.2890  -17.1460   19.3490 C   0  0  0  0  0  0  0  0  0  0  0  0
  -29.2410  -17.8840   19.4030 N   0  0  0  0  0  0  0  0  0  0  0  0
  -31.1790  -17.2840   18.0890 C   0  0  0  0  0  2  0  0  0  0  0  0
  -30.5660  -21.2380   16.3620 C   0  0  0  0  0  3  0  0  0  0  0  0
  -30.1760  -20.0920   15.6390 C   0  0  0  0  0  3  0  0  0  0  0  0
  -31.2620  -21.0980   17.5790 C   0  0  0  0  0  3  0  0  0  0  0  0
  -30.4300  -18.8070   16.1630 C   0  0  0  0  0  3  0  0  0  0  0  0
  -31.5290  -19.8140   18.0940 C   0  0  0  0  0  3  0  0  0  0  0  0
  -31.0700  -18.6610   17.4160 C   0  0  0  0  0  0  0  0  0  0  0  0
  -30.7500  -16.1880   20.4870 C   0  0  0  0  0  2  0  0  0  0  0  0
  -31.3580  -14.8440   20.0140 C   0  0  0  0  0  0  0  0  0  0  0  0
  -30.9860  -12.5930   19.0770 C   0  0  0  0  0  2  0  0  0  0  0  0
  -30.0190  -12.7040   17.8790 C   0  0  0  0  0  2  0  0  0  0  0  0
  -28.5570  -12.6220   18.3580 C   0  0  0  0  0  2  0  0  0  0  0  0
  -28.2640  -13.5650   19.5560 C   0  0  0  0  0  3  0  0  0  0  0  0
  -29.3480  -13.4410   20.6460 C   0  0  0  0  0  2  0  0  0  0  0  0
  -30.6540  -13.6750   20.0170 N   0  0  0  0  0  0  0  0  0  0  0  0
  -32.4970  -14.8940   19.5400 O   0  0  0  0  0  0  0  0  0  0  0  0
  -25.9300  -14.2440   20.3900 C   0  0  0  0  0  0  0  0  0  0  0  0
  -24.8440  -13.5040   20.7840 C   0  0  0  0  0  0  0  0  0  0  0  0
  -25.2460  -12.1370   20.6830 C   0  0  0  0  0  0  0  0  0  0  0  0
  -26.9260  -13.3280   20.0930 N   0  0  0  0  0  0  0  0  0  0  0  0
  -26.5200  -12.0530   20.3260 N   0  0  0  0  0  0  0  0  0  0  0  0
  -24.4700  -10.8980   20.8540 C   0  0  0  0  0  0  0  0  0  0  0  0
  -24.8410   -9.9190   21.8010 C   0  0  0  0  0  3  0  0  0  0  0  0
  -24.0670   -8.7490   21.9600 C   0  0  0  0  0  3  0  0  0  0  0  0
  -22.9090   -8.5520   21.1700 C   0  0  0  0  0  0  0  0  0  0  0  0
  -22.5600   -9.5190   20.2110 C   0  0  0  0  0  3  0  0  0  0  0  0
  -23.3350  -10.6800   20.0510 C   0  0  0  0  0  3  0  0  0  0  0  0
  -22.1110   -7.4360   21.2380 O   0  0  0  0  0  0  0  0  0  0  0  0
  -21.9260   -6.7540   22.4130 C   0  0  0  0  0  0  0  0  0  0  0  0
  -21.3670   -7.3720   23.5530 C   0  0  0  0  0  3  0  0  0  0  0  0
  -21.1290   -6.6170   24.7190 C   0  0  0  0  0  3  0  0  0  0  0  0
  -21.4400   -5.2440   24.7440 C   0  0  0  0  0  0  0  0  0  0  0  0
  -21.9920   -4.6260   23.6080 C   0  0  0  0  0  3  0  0  0  0  0  0
  -22.2320   -5.3780   22.4450 C   0  0  0  0  0  0  0  0  0  0  0  0
  -22.7440   -4.7730   21.3460 F   0  0  0  0  0  0  0  0  0  0  0  0
  -21.2040   -4.5160   25.8600 F   0  0  0  0  0  0  0  0  0  0  0  0
  -23.4840  -14.0310   21.1290 C   0  0  0  0  0  0  0  0  0  0  0  0
  -22.7680  -13.3380   22.0090 N   0  0  0  0  0  0  0  0  0  0  0  0
  -23.0670  -15.0860   20.6580 O   0  0  0  0  0  0  0  0  0  0  0  0
  -23.1230  -12.4800   22.4060 H   0  0  0  0  0  0  0  0  0  0  0  0
  -21.8550  -13.6680   22.2860 H   0  0  0  0  0  0  0  0  0  0  0  0
  -26.1450  -15.6050   20.2300 N   0  0  0  0  0  0  0  0  0  0  0  0
  -25.4040  -16.2900   20.3310 H   0  0  0  0  0  0  0  0  0  0  0  0
  -26.9800  -15.9870   19.8030 H   0  0  0  0  0  0  0  0  0  0  0  0
  1 49  1  0
  1  2  1  0
  3  2  1  0
  3  4  1  0
  5  4  1  0
  6  7  1  0
  6  5  1  0
  8 10  1  0
  8  7  1  0
  9 20  2  0
 10 15  1  0
 11 19  1  0
 11 21  1  0
 12 18  1  0
 12 14  1  0
 13 19  1  0
 14 13  1  0
 15 14  2  0
 16 17  1  0
 16 10  2  0
 17 12  2  0
 18 11  1  0
 19  9  1  0
 21 23  2  0
 22 21  1  0
 24 22  1  0
 25 34  2  0
 25 30  1  0
 26 22  1  0
 26 30  1  0
 27 26  1  0
 28 29  1  0
 28 27  1  0
 29 25  1  0
 30 31  2  0
 31 32  1  0
 33 32  2  0
 34 33  1  0
 35  9  1  0
 35 40  1  0
 35 36  1  0
 36 39  1  1
 36 37  1  0
 38 36  1  0
 40 43  1  0
 41 45  1  0
 41 40  1  0
 42 41  2  0
 45 44  1  0
 47 45  1  0
 47 48  1  0
 47 46  1  0
 50 51  2  0
 50 59  1  0
 51 49  1  0
 52 50  1  0
 53 55  1  0
 54 56  1  0
 54 53  2  0
 55 57  2  0
 56 58  2  0
 58 52  1  0
 58 57  1  0
 60 66  1  0
 60 59  1  0
 61 66  1  0
 62 63  1  0
 62 61  1  0
 64 63  1  0
 64 71  1  0
 64 65  1  0
 66 65  1  0
 67 60  2  0
 68 69  2  0
 69 88  1  0
 70 69  1  0
 70 73  1  0
 71 72  1  0
 71 68  1  0
 72 70  2  0
 73 74  1  0
 74 75  2  0
 76 79  1  0
 76 75  1  0
 77 76  2  0
 78 77  1  0
 78 73  2  0
 79 80  1  0
 80 85  2  0
 80 81  1  0
 81 82  2  0
 82 83  1  0
 83 87  1  0
 84 83  2  0
 85 84  1  0
 86 85  1  0
 88 89  1  0
 89 92  1  0
 89 91  1  0
 90 88  2  0
 93 94  1  0
 93 68  1  0
 95 93  1  0
M  ISO  4   7 101   8 101  59 100  60 100
M  END
>  <TORSDO>  (77) 
F 27

>  <SCORE>  (77) 
-10.421

>  <name>  (77) 
76

>  <ligand_id>  (77) 
76

>  <original_smiles>  (77) 
[H]c1c([H])c([H])c(C([H])([H])C(=NC([H])([H])C([H])([H])C([H])([H])C([H])([H])C([H])([H])C([H])([H])C([H])([H])C([H])([H])Oc2c([H])c([H])c3c(c2[H])C([H])([H])N(C(=O)C([H])(N([H])C(=O)C([H])(N([H])C([H])([H])[H])C([H])([H])[H])C(C([H])([H])[H])(C([H])([H])[H])C([H])([H])[H])C([H])(C(=O)N([H])C2([H])c4c([H])c([H])c([H])c([H])c4C([H])([H])C([H])([H])C2([H])[H])C3([H])[H])C([H])([H])C(=O)N2C([H])([H])C([H])([H])C([H])([H])C([H])(n3nc(-c4c([H])c([H])c(Oc5c([H])c([H])c(F)c([H])c5F)c([H])c4[H])c(C(=O)N([H])[H])c3N([H])[H])C2([H])[H])c([H])c1[H]

>  <smiles>  (77) 
[H]c1c([H])c([H])c(C([H])([H])C(=NC([H])([H])C([H])([H])C([H])([H])C([H])([H])C([H])([H])C([H])([H])C([H])([H])C([H])([H])Oc2c([H])c([H])c3c(c2[H])C([H])([H])N(C(=O)C([H])(N([H])C(=O)C([H])(N([H])C([H])([H])[H])C([H])([H])[H])C(C([H])([H])[H])(C([H])([H])[H])C([H])([H])[H])C([H])(C(=O)N([H])C2([H])c4c([H])c([H])c([H])c([H])c4C([H])([H])C([H])([H])C2([H])[H])C3([H])[H])C([H])([H])C(=O)N2C([H])([H])C([H])([H])C([H])([H])C([H])(n3nc(-c4c([H])c([H])c(Oc5c([H])c([H])c(F)c([H])c5F)c([H])c4[H])c(C(=O)N([H])[H])c3N([H])[H])C2([H])[H])c([H])c1[H]

$$$$
77:0:0
     RDKit          3D

 93101  0  0  1  0  0  0  0  0999 V2000
  -28.8100  -22.7920   23.6800 C   0  0  0  0  0  3  0  0  0  0  0  0
  -29.6550  -21.7730   24.1280 C   0  0  0  0  0  3  0  0  0  0  0  0
  -28.8720  -23.2070   22.3400 C   0  0  0  0  0  3  0  0  0  0  0  0
  -30.5140  -21.1370   23.2210 C   0  0  0  0  0  3  0  0  0  0  0  0
  -29.7660  -22.6200   21.4050 C   0  0  0  0  0  0  0  0  0  0  0  0
  -30.5600  -21.4880   21.8480 C   0  0  0  0  0  0  0  0  0  0  0  0
  -29.8610  -23.3040   20.0500 C   0  0  0  0  0  0  0  0  0  0  0  0
  -30.7260  -23.0080   19.2220 O   0  0  0  0  0  0  0  0  0  0  0  0
  -28.8530  -24.4340   19.6520 C   0  0  0  0  0  2  0  0  0  0  0  0
  -29.1040  -25.8560   20.2570 C   0  0  0  0  0  2  0  0  0  0  0  0
  -28.8060  -26.9880   19.4030 O   0  0  0  0  0  0  0  0  0  0  0  0
  -24.5250  -31.4360   23.0340 C   0  0  0  0  0  0  0  0  0  0  0  0
  -27.5650  -27.5860   19.5340 C   0  0  0  0  0  0  0  0  0  0  0  0
  -23.4460  -30.0830   21.2680 C   0  0  0  0  0  3  0  0  0  0  0  0
  -25.0300  -28.8440   19.6940 C   0  0  0  0  0  0  0  0  0  0  0  0
  -25.9190  -30.7160   21.0930 C   0  0  0  0  0  2  0  0  0  0  0  0
  -26.1380  -29.4250   20.3250 C   0  0  0  0  0  0  0  0  0  0  0  0
  -27.4100  -28.8060   20.2380 C   0  0  0  0  0  3  0  0  0  0  0  0
  -26.4410  -27.0190   18.9010 C   0  0  0  0  0  3  0  0  0  0  0  0
  -25.1780  -27.6410   18.9780 C   0  0  0  0  0  3  0  0  0  0  0  0
  -23.7050  -29.5650   19.8280 C   0  0  0  0  0  2  0  0  0  0  0  0
  -24.6480  -30.7570   21.8590 N   0  0  0  0  0  0  0  0  0  0  0  0
  -23.4300  -31.5410   23.6030 O   0  0  0  0  0  0  0  0  0  0  0  0
  -22.9150  -28.9130   22.1260 C   0  0  0  0  0  0  0  0  0  0  0  0
  -21.6260  -28.5800   21.9540 N   0  0  0  0  0  0  0  0  0  0  0  0
  -23.6620  -28.3110   22.9020 O   0  0  0  0  0  0  0  0  0  0  0  0
  -21.0790  -29.1260   21.3020 H   0  0  0  0  0  0  0  0  0  0  0  0
  -18.4340  -26.9100   22.2390 C   0  0  0  0  0  0  0  0  0  0  0  0
  -20.9240  -27.4850   22.6250 C   0  0  0  0  0  3  0  0  0  0  0  0
  -21.2370  -26.1310   21.9490 C   0  0  0  0  0  2  0  0  0  0  0  0
  -20.2160  -25.7420   20.8740 C   0  0  0  0  0  2  0  0  0  0  0  0
  -18.8100  -25.6520   21.4750 C   0  0  0  0  0  2  0  0  0  0  0  0
  -19.4260  -27.7780   22.7650 C   0  0  0  0  0  0  0  0  0  0  0  0
  -19.0220  -28.9530   23.4370 C   0  0  0  0  0  3  0  0  0  0  0  0
  -17.6570  -29.2630   23.5890 C   0  0  0  0  0  3  0  0  0  0  0  0
  -16.6790  -28.3910   23.0810 C   0  0  0  0  0  3  0  0  0  0  0  0
  -17.0680  -27.2150   22.4120 C   0  0  0  0  0  3  0  0  0  0  0  0
  -25.7490  -32.1320   23.7090 C   0  0  0  0  0  3  0  0  0  0  0  0
  -25.3320  -33.4890   24.0860 N   0  0  0  0  0  0  0  0  0  0  0  0
  -25.6320  -34.5960   23.3930 C   0  0  0  0  0  0  0  0  0  0  0  0
  -26.3590  -34.5860   22.3950 O   0  0  0  0  0  0  0  0  0  0  0  0
  -24.6840  -33.5650   24.8560 H   0  0  0  0  0  0  0  0  0  0  0  0
  -23.8190  -36.2980   23.0230 C   0  0  0  0  0  1  0  0  0  0  0  0
  -25.0340  -35.9270   23.8870 C   0  0  0  0  0  3  0  0  0  0  0  0
  -27.0550  -36.8930   24.8910 C   0  0  0  0  0  1  0  0  0  0  0  0
  -26.0040  -37.0440   23.8890 N   0  0  0  0  0  0  0  0  0  0  0  0
  -25.5320  -37.9300   24.0550 H   0  0  0  0  0  0  0  0  0  0  0  0
  -26.2960  -31.3470   24.9630 C   0  0  1  0  0  0  0  0  0  0  0  0
  -25.2020  -30.9800   25.9930 C   0  0  0  0  0  1  0  0  0  0  0  0
  -26.9920  -30.0370   24.5260 C   0  0  0  0  0  1  0  0  0  0  0  0
  -27.3700  -32.1960   25.6840 C   0  0  0  0  0  1  0  0  0  0  0  0
  -31.5160  -20.6190   20.9800 C   0  0  0  0  0  3  0  0  0  0  0  0
  -31.1930  -19.0740   20.9300 C   0  0  0  0  0  3  0  0  0  0  0  0
  -32.2920  -18.1320   20.3130 C   0  0  0  0  0  2  0  0  0  0  0  0
  -31.7740  -16.8190   19.6150 C   0  0  0  0  0  3  0  0  0  0  0  0
  -32.5910  -15.4950   19.9050 C   0  0  0  0  0  0  0  0  0  0  0  0
  -32.3230  -13.1050   19.3580 C   0  0  0  0  0  2  0  0  0  0  0  0
  -31.4220  -13.0130   18.1050 C   0  0  0  0  0  2  0  0  0  0  0  0
  -29.9250  -13.0410   18.4860 C   0  0  0  0  0  2  0  0  0  0  0  0
  -29.5690  -14.1350   19.5280 C   0  0  0  0  0  3  0  0  0  0  0  0
  -30.5940  -14.1650   20.6850 C   0  0  0  0  0  2  0  0  0  0  0  0
  -31.9370  -14.3130   20.1090 N   0  0  0  0  0  0  0  0  0  0  0  0
  -33.7990  -15.5170   19.6500 O   0  0  0  0  0  0  0  0  0  0  0  0
  -27.2650  -14.9920   20.2780 C   0  0  0  0  0  0  0  0  0  0  0  0
  -26.1180  -14.3360   20.6360 C   0  0  0  0  0  0  0  0  0  0  0  0
  -26.4260  -12.9430   20.5780 C   0  0  0  0  0  0  0  0  0  0  0  0
  -28.2020  -14.0030   20.0190 N   0  0  0  0  0  0  0  0  0  0  0  0
  -27.7010  -12.7640   20.2610 N   0  0  0  0  0  0  0  0  0  0  0  0
  -25.5650  -11.7660   20.7480 C   0  0  0  0  0  0  0  0  0  0  0  0
  -25.8160  -10.8050   21.7510 C   0  0  0  0  0  3  0  0  0  0  0  0
  -24.9620   -9.6920   21.9050 C   0  0  0  0  0  3  0  0  0  0  0  0
  -23.8450   -9.5310   21.0520 C   0  0  0  0  0  0  0  0  0  0  0  0
  -23.6130  -10.4780   20.0390 C   0  0  0  0  0  3  0  0  0  0  0  0
  -24.4670  -11.5830   19.8830 C   0  0  0  0  0  3  0  0  0  0  0  0
  -22.9760   -8.4670   21.1100 O   0  0  0  0  0  0  0  0  0  0  0  0
  -22.5930   -7.9170   22.3060 C   0  0  0  0  0  0  0  0  0  0  0  0
  -21.9470   -8.6790   23.3040 C   0  0  0  0  0  3  0  0  0  0  0  0
  -21.5070   -8.0570   24.4900 C   0  0  0  0  0  3  0  0  0  0  0  0
  -21.7040   -6.6760   24.6760 C   0  0  0  0  0  0  0  0  0  0  0  0
  -22.3440   -5.9140   23.6810 C   0  0  0  0  0  3  0  0  0  0  0  0
  -22.7830   -6.5330   22.4990 C   0  0  0  0  0  0  0  0  0  0  0  0
  -23.3800   -5.7920   21.5350 F   0  0  0  0  0  0  0  0  0  0  0  0
  -21.2760   -6.0760   25.8110 F   0  0  0  0  0  0  0  0  0  0  0  0
  -24.7840  -14.9600   20.9260 C   0  0  0  0  0  0  0  0  0  0  0  0
  -23.9930  -14.3390   21.7940 N   0  0  0  0  0  0  0  0  0  0  0  0
  -24.4550  -16.0320   20.4180 O   0  0  0  0  0  0  0  0  0  0  0  0
  -24.2740  -13.4720   22.2280 H   0  0  0  0  0  0  0  0  0  0  0  0
  -23.0950  -14.7360   22.0290 H   0  0  0  0  0  0  0  0  0  0  0  0
  -27.5830  -16.3380   20.1300 N   0  0  0  0  0  0  0  0  0  0  0  0
  -26.9020  -17.0770   20.2630 H   0  0  0  0  0  0  0  0  0  0  0  0
  -28.4840  -16.6800   19.8200 H   0  0  0  0  0  0  0  0  0  0  0  0
  -30.7540  -18.0120   17.4930 C   0  0  0  0  0  1  0  0  0  0  0  0
  -31.7900  -17.0380   18.0710 C   0  0  0  0  0  2  0  0  0  0  0  0
  1  2  1  0
  3  1  2  0
  4  2  2  0
  5  6  2  0
  5  3  1  0
  6  4  1  0
  7  5  1  0
  8  7  2  0
  9  7  1  0
  9 10  1  0
 11 13  1  0
 11 10  1  0
 12 23  2  0
 13 18  1  0
 14 22  1  0
 14 24  1  0
 15 21  1  0
 15 17  1  0
 16 22  1  0
 17 16  1  0
 18 17  2  0
 19 20  1  0
 19 13  2  0
 20 15  2  0
 21 14  1  0
 22 12  1  0
 24 26  2  0
 25 24  1  0
 27 25  1  0
 28 37  2  0
 28 33  1  0
 29 25  1  0
 29 33  1  0
 30 29  1  0
 31 32  1  0
 31 30  1  0
 32 28  1  0
 33 34  2  0
 34 35  1  0
 36 35  2  0
 37 36  1  0
 38 12  1  0
 38 39  1  0
 38 48  1  0
 39 42  1  0
 40 44  1  0
 40 39  1  0
 41 40  2  0
 44 43  1  0
 44 46  1  0
 46 47  1  0
 46 45  1  0
 48 51  1  1
 48 49  1  0
 50 48  1  0
 52  6  1  0
 53 52  2  0
 54 53  1  0
 55 93  1  0
 55 56  1  0
 55 54  1  0
 56 62  1  0
 57 62  1  0
 58 59  1  0
 58 57  1  0
 60 59  1  0
 60 67  1  0
 60 61  1  0
 62 61  1  0
 63 56  2  0
 64 65  2  0
 65 84  1  0
 66 65  1  0
 66 69  1  0
 67 68  1  0
 67 64  1  0
 68 66  2  0
 69 70  1  0
 70 71  2  0
 72 75  1  0
 72 71  1  0
 73 72  2  0
 74 73  1  0
 74 69  2  0
 75 76  1  0
 76 81  2  0
 76 77  1  0
 77 78  2  0
 78 79  1  0
 79 83  1  0
 80 79  2  0
 81 80  1  0
 82 81  1  0
 84 85  1  0
 85 88  1  0
 85 87  1  0
 86 84  2  0
 89 90  1  0
 89 64  1  0
 91 89  1  0
 92 93  1  0
M  ISO  4  10 101  11 101  55 100  56 100
M  END
>  <TORSDO>  (78) 
F 24

>  <SCORE>  (78) 
-7.774

>  <name>  (78) 
77

>  <ligand_id>  (78) 
77

>  <original_smiles>  (78) 
[H]c1c([H])c([H])c(C([H])([H])C([H])([H])C([H])([H])C([H])(C(=O)N2C([H])([H])C([H])([H])C([H])([H])C([H])(n3nc(-c4c([H])c([H])c(Oc5c([H])c([H])c(F)c([H])c5F)c([H])c4[H])c(C(=O)N([H])[H])c3N([H])[H])C2([H])[H])C([H])([H])C([H])([H])[H])c(C(=O)C([H])([H])C([H])([H])Oc2c([H])c([H])c3c(c2[H])C([H])([H])N(C(=O)C([H])(N([H])C(=O)C([H])(N([H])C([H])([H])[H])C([H])([H])[H])C(C([H])([H])[H])(C([H])([H])[H])C([H])([H])[H])C([H])(C(=O)N([H])C2([H])c4c([H])c([H])c([H])c([H])c4C([H])([H])C([H])([H])C2([H])[H])C3([H])[H])c1[H]

>  <smiles>  (78) 
[H]c1c([H])c([H])c(C([H])([H])C([H])([H])C([H])([H])C([H])(C(=O)N2C([H])([H])C([H])([H])C([H])([H])C([H])(n3nc(-c4c([H])c([H])c(Oc5c([H])c([H])c(F)c([H])c5F)c([H])c4[H])c(C(=O)N([H])[H])c3N([H])[H])C2([H])[H])C([H])([H])C([H])([H])[H])c(C(=O)C([H])([H])C([H])([H])Oc2c([H])c([H])c3c(c2[H])C([H])([H])N(C(=O)C([H])(N([H])C(=O)C([H])(N([H])C([H])([H])[H])C([H])([H])[H])C(C([H])([H])[H])(C([H])([H])[H])C([H])([H])[H])C([H])(C(=O)N([H])C2([H])c4c([H])c([H])c([H])c([H])c4C([H])([H])C([H])([H])C2([H])[H])C3([H])[H])c1[H]

$$$$
78:0:0
     RDKit          3D

 96104  0  0  1  0  0  0  0  0999 V2000
  -27.2360  -20.9150   20.6290 C   0  0  0  0  0  3  0  0  0  0  0  0
  -26.3250  -21.8910   20.1990 C   0  0  0  0  0  3  0  0  0  0  0  0
  -28.7880  -21.5880   18.8760 C   0  0  0  0  0  3  0  0  0  0  0  0
  -28.4640  -20.7350   19.9640 C   0  0  0  0  0  0  0  0  0  0  0  0
  -26.6370  -22.7430   19.1230 C   0  0  0  0  0  0  0  0  0  0  0  0
  -27.8960  -22.6200   18.4650 C   0  0  0  0  0  0  0  0  0  0  0  0
  -25.5730  -23.7570   18.7190 C   0  0  0  0  0  1  0  0  0  0  0  0
  -29.3840  -19.6890   20.5000 C   0  0  0  0  0  0  0  0  0  0  0  0
  -29.8170  -19.7260   21.6570 O   0  0  0  0  0  0  0  0  0  0  0  0
  -29.7100  -18.4870   19.6050 C   0  0  0  0  0  2  0  0  0  0  0  0
  -30.5420  -17.3300   20.2690 C   0  0  0  0  0  3  0  0  0  0  0  0
  -31.9150  -17.7630   20.6230 N   0  0  0  0  0  4  0  0  0  0  0  0
  -32.4220  -18.1030   19.8210 H   0  0  0  0  0  0  0  0  0  0  0  0
  -32.4450  -17.0070   21.0220 H   0  0  0  0  0  0  0  0  0  0  0  0
  -31.8800  -18.4940   21.3160 H   0  0  0  0  0  0  0  0  0  0  0  0
  -30.5410  -16.0880   19.3310 C   0  0  0  0  0  2  0  0  0  0  0  0
  -31.3180  -14.8070   19.7320 C   0  0  0  0  0  0  0  0  0  0  0  0
  -31.0100  -12.5070   18.9810 C   0  0  0  0  0  2  0  0  0  0  0  0
  -30.0500  -12.5750   17.7760 C   0  0  0  0  0  2  0  0  0  0  0  0
  -28.5800  -12.4700   18.2420 C   0  0  0  0  0  2  0  0  0  0  0  0
  -28.2480  -13.4480   19.3990 C   0  0  0  0  0  3  0  0  0  0  0  0
  -29.3430  -13.4510   20.4920 C   0  0  0  0  0  2  0  0  0  0  0  0
  -30.6620  -13.6270   19.8640 N   0  0  0  0  0  0  0  0  0  0  0  0
  -32.5340  -14.8680   19.5420 O   0  0  0  0  0  0  0  0  0  0  0  0
  -25.9390  -14.1540   20.2700 C   0  0  0  0  0  0  0  0  0  0  0  0
  -24.8550  -13.4240   20.6710 C   0  0  0  0  0  0  0  0  0  0  0  0
  -25.2500  -12.0540   20.5890 C   0  0  0  0  0  0  0  0  0  0  0  0
  -26.9230  -13.2260   19.9590 N   0  0  0  0  0  0  0  0  0  0  0  0
  -26.5190  -11.9600   20.2180 N   0  0  0  0  0  0  0  0  0  0  0  0
  -24.4820  -10.8220   20.7920 C   0  0  0  0  0  0  0  0  0  0  0  0
  -24.8120   -9.9050   21.8150 C   0  0  0  0  0  3  0  0  0  0  0  0
  -24.0450   -8.7340   21.9970 C   0  0  0  0  0  3  0  0  0  0  0  0
  -22.9380   -8.4730   21.1550 C   0  0  0  0  0  0  0  0  0  0  0  0
  -22.6310   -9.3770   20.1230 C   0  0  0  0  0  3  0  0  0  0  0  0
  -23.3960  -10.5400   19.9400 C   0  0  0  0  0  3  0  0  0  0  0  0
  -22.1540   -7.3470   21.2410 O   0  0  0  0  0  0  0  0  0  0  0  0
  -21.8500   -6.7730   22.4480 C   0  0  0  0  0  0  0  0  0  0  0  0
  -21.1750   -7.4860   23.4630 C   0  0  0  0  0  3  0  0  0  0  0  0
  -20.8210   -6.8370   24.6630 C   0  0  0  0  0  3  0  0  0  0  0  0
  -21.1310   -5.4750   24.8450 C   0  0  0  0  0  0  0  0  0  0  0  0
  -21.7970   -4.7630   23.8340 C   0  0  0  0  0  3  0  0  0  0  0  0
  -22.1520   -5.4100   22.6370 C   0  0  0  0  0  0  0  0  0  0  0  0
  -22.7760   -4.7140   21.6560 F   0  0  0  0  0  0  0  0  0  0  0  0
  -20.7840   -4.8490   25.9940 F   0  0  0  0  0  0  0  0  0  0  0  0
  -23.4950  -13.9590   21.0160 C   0  0  0  0  0  0  0  0  0  0  0  0
  -22.7780  -13.2840   21.9090 N   0  0  0  0  0  0  0  0  0  0  0  0
  -23.0800  -15.0120   20.5310 O   0  0  0  0  0  0  0  0  0  0  0  0
  -23.1220  -12.4290   22.3190 H   0  0  0  0  0  0  0  0  0  0  0  0
  -21.8690  -13.6300   22.1830 H   0  0  0  0  0  0  0  0  0  0  0  0
  -26.1650  -15.5210   20.1130 N   0  0  0  0  0  0  0  0  0  0  0  0
  -25.4430  -16.2130   20.2840 H   0  0  0  0  0  0  0  0  0  0  0  0
  -27.0160  -15.9230   19.7460 H   0  0  0  0  0  0  0  0  0  0  0  0
  -28.2670  -23.5110   17.2690 C   0  0  0  0  0  2  0  0  0  0  0  0
  -29.0400  -24.8450   17.5080 C   0  0  0  0  0  2  0  0  0  0  0  0
  -28.9950  -25.5340   18.8920 C   0  0  0  0  0  2  0  0  0  0  0  0
  -28.9460  -26.9770   18.7760 O   0  0  0  0  0  0  0  0  0  0  0  0
  -24.8640  -30.9500   23.0680 C   0  0  0  0  0  0  0  0  0  0  0  0
  -27.7130  -27.5750   18.9650 C   0  0  0  0  0  0  0  0  0  0  0  0
  -23.6890  -29.7740   21.2370 C   0  0  0  0  0  3  0  0  0  0  0  0
  -25.1770  -28.7490   19.4390 C   0  0  0  0  0  0  0  0  0  0  0  0
  -26.1320  -30.4710   20.9750 C   0  0  0  0  0  2  0  0  0  0  0  0
  -26.3180  -29.2760   20.0560 C   0  0  0  0  0  0  0  0  0  0  0  0
  -27.5900  -28.7030   19.8150 C   0  0  0  0  0  3  0  0  0  0  0  0
  -26.5510  -27.0800   18.3300 C   0  0  0  0  0  3  0  0  0  0  0  0
  -25.2910  -27.6550   18.5650 C   0  0  0  0  0  3  0  0  0  0  0  0
  -23.8590  -29.4260   19.7370 C   0  0  0  0  0  2  0  0  0  0  0  0
  -24.9160  -30.4080   21.8190 N   0  0  0  0  0  0  0  0  0  0  0  0
  -23.8080  -30.9650   23.7180 O   0  0  0  0  0  0  0  0  0  0  0  0
  -23.2490  -28.5000   21.9950 C   0  0  0  0  0  0  0  0  0  0  0  0
  -21.9850  -28.0910   21.7790 N   0  0  0  0  0  0  0  0  0  0  0  0
  -24.0350  -27.8930   22.7270 O   0  0  0  0  0  0  0  0  0  0  0  0
  -21.4060  -28.6370   21.1550 H   0  0  0  0  0  0  0  0  0  0  0  0
  -18.9580  -26.1180   21.7810 C   0  0  0  0  0  0  0  0  0  0  0  0
  -21.3580  -26.9010   22.3590 C   0  0  0  0  0  3  0  0  0  0  0  0
  -21.8330  -25.6130   21.6530 C   0  0  0  0  0  2  0  0  0  0  0  0
  -20.9280  -25.1910   20.4910 C   0  0  0  0  0  2  0  0  0  0  0  0
  -19.4990  -24.9420   20.9810 C   0  0  0  0  0  2  0  0  0  0  0  0
  -19.8270  -27.0400   22.4230 C   0  0  0  0  0  0  0  0  0  0  0  0
  -19.2740  -28.1300   23.1300 C   0  0  0  0  0  3  0  0  0  0  0  0
  -17.8790  -28.3010   23.2140 C   0  0  0  0  0  3  0  0  0  0  0  0
  -17.0210  -27.3750   22.5900 C   0  0  0  0  0  3  0  0  0  0  0  0
  -17.5570  -26.2920   21.8750 C   0  0  0  0  0  3  0  0  0  0  0  0
  -26.1190  -31.5950   23.7300 C   0  0  0  0  0  3  0  0  0  0  0  0
  -26.7490  -30.7040   24.8750 C   0  0  1  0  0  0  0  0  0  0  0  0
  -25.7210  -30.2340   25.9290 C   0  0  0  0  0  1  0  0  0  0  0  0
  -27.4210  -29.4450   24.2770 C   0  0  0  0  0  1  0  0  0  0  0  0
  -27.8540  -31.4980   25.6100 C   0  0  0  0  0  1  0  0  0  0  0  0
  -25.7110  -32.9060   24.2550 N   0  0  0  0  0  0  0  0  0  0  0  0
  -25.9490  -34.0730   23.6430 C   0  0  0  0  0  0  0  0  0  0  0  0
  -26.6130  -34.1650   22.6040 O   0  0  0  0  0  0  0  0  0  0  0  0
  -25.1070  -32.8990   25.0650 H   0  0  0  0  0  0  0  0  0  0  0  0
  -24.0900  -35.7640   23.5470 C   0  0  0  0  0  1  0  0  0  0  0  0
  -25.3670  -35.3440   24.2930 C   0  0  0  0  0  3  0  0  0  0  0  0
  -27.4410  -36.2650   25.2330 C   0  0  0  0  0  1  0  0  0  0  0  0
  -26.3180  -36.4760   24.3230 N   0  0  0  0  0  0  0  0  0  0  0  0
  -25.8480  -37.3370   24.5870 H   0  0  0  0  0  0  0  0  0  0  0  0
  2  1  1  0
  3  4  1  0
  4  8  1  0
  4  1  2  0
  5  2  2  0
  6  3  2  0
  6  5  1  0
  7  5  1  0
  8  9  2  0
 10 11  1  0
 10  8  1  0
 11 16  1  0
 11 12  1  0
 12 14  1  0
 12 15  1  0
 13 12  1  0
 16 17  1  0
 17 23  1  0
 18 23  1  0
 19 20  1  0
 19 18  1  0
 21 20  1  0
 21 28  1  0
 21 22  1  0
 23 22  1  0
 24 17  2  0
 25 26  2  0
 26 45  1  0
 27 26  1  0
 27 30  1  0
 28 29  1  0
 28 25  1  0
 29 27  2  0
 30 31  1  0
 31 32  2  0
 33 36  1  0
 33 32  1  0
 34 33  2  0
 35 34  1  0
 35 30  2  0
 36 37  1  0
 37 42  2  0
 37 38  1  0
 38 39  2  0
 39 40  1  0
 40 44  1  0
 41 40  2  0
 42 41  1  0
 43 42  1  0
 45 46  1  0
 46 49  1  0
 46 48  1  0
 47 45  2  0
 50 25  1  0
 50 51  1  0
 52 50  1  0
 53 54  1  0
 53  6  1  0
 54 55  1  0
 56 55  1  0
 56 58  1  0
 57 68  2  0
 58 63  1  0
 59 67  1  0
 59 69  1  0
 60 66  1  0
 60 62  1  0
 61 67  1  0
 62 61  1  0
 63 62  2  0
 64 65  1  0
 64 58  2  0
 65 60  2  0
 66 59  1  0
 67 57  1  0
 69 71  2  0
 70 69  1  0
 72 70  1  0
 73 82  2  0
 73 78  1  0
 74 70  1  0
 74 78  1  0
 75 74  1  0
 76 77  1  0
 76 75  1  0
 77 73  1  0
 78 79  2  0
 79 80  1  0
 81 80  2  0
 82 81  1  0
 83 57  1  0
 83 88  1  0
 83 84  1  0
 84 87  1  1
 84 85  1  0
 86 84  1  0
 88 91  1  0
 89 88  1  0
 89 93  1  0
 90 89  2  0
 93 92  1  0
 93 95  1  0
 95 96  1  0
 95 94  1  0
M  ISO  4  16 100  17 100  55 101  56 101
M  END
>  <TORSDO>  (79) 
F 24

>  <SCORE>  (79) 
-8.083

>  <name>  (79) 
78

>  <ligand_id>  (79) 
78

>  <original_smiles>  (79) 
[H]c1c([H])c([H])c2c(c1[H])C([H])([H])C([H])([H])C([H])([H])C2([H])N([H])C(=O)C1([H])N(C(=O)C([H])(N([H])C(=O)C([H])(N([H])C([H])([H])[H])C([H])([H])[H])C(C([H])([H])[H])(C([H])([H])[H])C([H])([H])[H])C([H])([H])c2c([H])c(OC([H])([H])C([H])([H])C([H])([H])c3c([H])c(C(=O)C([H])([H])C([H])(C([H])([H])C(=O)N4C([H])([H])C([H])([H])C([H])([H])C([H])(n5nc(-c6c([H])c([H])c(Oc7c([H])c([H])c(F)c([H])c7F)c([H])c6[H])c(C(=O)N([H])[H])c5N([H])[H])C4([H])[H])[N+]([H])([H])[H])c([H])c([H])c3C([H])([H])[H])c([H])c([H])c2C1([H])[H]

>  <smiles>  (79) 
[H]c1c([H])c([H])c2c(c1[H])C([H])([H])C([H])([H])C([H])([H])C2([H])N([H])C(=O)C1([H])N(C(=O)C([H])(N([H])C(=O)C([H])(N([H])C([H])([H])[H])C([H])([H])[H])C(C([H])([H])[H])(C([H])([H])[H])C([H])([H])[H])C([H])([H])c2c([H])c(OC([H])([H])C([H])([H])C([H])([H])c3c([H])c(C(=O)C([H])([H])C([H])(C([H])([H])C(=O)N4C([H])([H])C([H])([H])C([H])([H])C([H])(n5nc(-c6c([H])c([H])c(Oc7c([H])c([H])c(F)c([H])c7F)c([H])c6[H])c(C(=O)N([H])[H])c5N([H])[H])C4([H])[H])[N+]([H])([H])[H])c([H])c([H])c3C([H])([H])[H])c([H])c([H])c2C1([H])[H]

$$$$
79:0:0
     RDKit          3D

 96104  0  0  1  0  0  0  0  0999 V2000
  -29.1230  -20.3380   19.6100 C   0  0  0  0  0  3  0  0  0  0  0  0
  -29.4840  -18.8760   19.3190 N   0  0  0  0  0  4  0  0  0  0  0  0
  -28.6270  -18.3500   19.3710 H   0  0  0  0  0  0  0  0  0  0  0  0
  -29.7430  -18.8500   18.3450 H   0  0  0  0  0  0  0  0  0  0  0  0
  -30.5700  -18.0840   20.0510 C   0  0  0  0  0  2  0  0  0  0  0  0
  -30.1540  -16.7550   20.8340 C   0  0  0  0  0  2  0  0  0  0  0  0
  -31.0550  -15.4560   20.6910 C   0  0  0  0  0  0  0  0  0  0  0  0
  -31.0520  -13.0740   19.9520 C   0  0  0  0  0  2  0  0  0  0  0  0
  -30.2440  -12.9740   18.6390 C   0  0  0  0  0  2  0  0  0  0  0  0
  -28.7430  -12.7850   18.9320 C   0  0  0  0  0  2  0  0  0  0  0  0
  -28.2120  -13.8040   19.9750 C   0  0  0  0  0  3  0  0  0  0  0  0
  -29.1450  -13.8960   21.2050 C   0  0  0  0  0  2  0  0  0  0  0  0
  -30.5000  -14.2030   20.7300 N   0  0  0  0  0  0  0  0  0  0  0  0
  -32.2450  -15.6000   20.4000 O   0  0  0  0  0  0  0  0  0  0  0  0
  -25.7810  -14.4130   20.5390 C   0  0  0  0  0  0  0  0  0  0  0  0
  -24.6830  -13.6400   20.8090 C   0  0  0  0  0  0  0  0  0  0  0  0
  -25.1390  -12.2880   20.7880 C   0  0  0  0  0  0  0  0  0  0  0  0
  -26.8310  -13.5270   20.3590 N   0  0  0  0  0  0  0  0  0  0  0  0
  -26.4460  -12.2420   20.5710 N   0  0  0  0  0  0  0  0  0  0  0  0
  -24.3930  -11.0260   20.8960 C   0  0  0  0  0  0  0  0  0  0  0  0
  -24.6970  -10.0690   21.8880 C   0  0  0  0  0  3  0  0  0  0  0  0
  -23.9480   -8.8750   21.9840 C   0  0  0  0  0  3  0  0  0  0  0  0
  -22.8840   -8.6320   21.0810 C   0  0  0  0  0  0  0  0  0  0  0  0
  -22.6020   -9.5800   20.0820 C   0  0  0  0  0  3  0  0  0  0  0  0
  -23.3510  -10.7630   19.9860 C   0  0  0  0  0  3  0  0  0  0  0  0
  -22.1230   -7.4890   21.0810 O   0  0  0  0  0  0  0  0  0  0  0  0
  -21.8180   -6.8260   22.2410 C   0  0  0  0  0  0  0  0  0  0  0  0
  -21.1180   -7.4510   23.2950 C   0  0  0  0  0  3  0  0  0  0  0  0
  -20.7640   -6.7120   24.4430 C   0  0  0  0  0  3  0  0  0  0  0  0
  -21.1040   -5.3490   24.5350 C   0  0  0  0  0  0  0  0  0  0  0  0
  -21.8010   -4.7240   23.4850 C   0  0  0  0  0  3  0  0  0  0  0  0
  -22.1530   -5.4590   22.3400 C   0  0  0  0  0  0  0  0  0  0  0  0
  -22.8030   -4.8470   21.3210 F   0  0  0  0  0  0  0  0  0  0  0  0
  -20.7610   -4.6370   25.6320 F   0  0  0  0  0  0  0  0  0  0  0  0
  -23.2720  -14.1270   20.9800 C   0  0  0  0  0  0  0  0  0  0  0  0
  -22.4820  -13.4340   21.7920 N   0  0  0  0  0  0  0  0  0  0  0  0
  -22.8760  -15.1540   20.4320 O   0  0  0  0  0  0  0  0  0  0  0  0
  -22.8170  -12.6030   22.2560 H   0  0  0  0  0  0  0  0  0  0  0  0
  -21.5330  -13.7410   21.9490 H   0  0  0  0  0  0  0  0  0  0  0  0
  -25.9630  -15.7840   20.4030 N   0  0  0  0  0  0  0  0  0  0  0  0
  -25.1880  -16.4330   20.4820 H   0  0  0  0  0  0  0  0  0  0  0  0
  -26.8260  -16.2300   20.1180 H   0  0  0  0  0  0  0  0  0  0  0  0
  -30.2740  -21.1990   20.1860 C   0  0  0  0  0  2  0  0  0  0  0  0
  -30.4550  -21.1500   21.7110 C   0  0  0  0  0  0  0  0  0  0  0  0
  -31.1010  -20.2390   22.2360 O   0  0  0  0  0  0  0  0  0  0  0  0
  -28.9540  -24.5410   23.9090 C   0  0  0  0  0  3  0  0  0  0  0  0
  -28.5100  -24.3130   22.5910 C   0  0  0  0  0  3  0  0  0  0  0  0
  -29.8580  -23.6490   24.5160 C   0  0  0  0  0  3  0  0  0  0  0  0
  -28.9890  -23.2000   21.8730 C   0  0  0  0  0  3  0  0  0  0  0  0
  -30.3300  -22.5280   23.8010 C   0  0  0  0  0  3  0  0  0  0  0  0
  -29.9200  -22.3140   22.4630 C   0  0  0  0  0  0  0  0  0  0  0  0
  -28.4240  -21.1320   18.4100 C   0  0  0  0  0  2  0  0  0  0  0  0
  -27.8210  -22.5770   18.7280 C   0  0  0  0  0  3  0  0  0  0  0  0
  -27.7090  -23.6850   17.5900 C   0  0  0  0  0  3  0  0  0  0  0  0
  -26.7750  -24.9180   17.9370 C   0  0  0  0  0  2  0  0  0  0  0  0
  -27.2230  -26.3200   17.7680 O   0  0  0  0  0  0  0  0  0  0  0  0
  -25.6500  -30.4210   23.5170 C   0  0  0  0  0  0  0  0  0  0  0  0
  -26.4170  -27.3140   18.3450 C   0  0  0  0  0  0  0  0  0  0  0  0
  -23.9200  -30.2540   21.7680 C   0  0  0  0  0  3  0  0  0  0  0  0
  -24.6770  -29.2380   19.5490 C   0  0  0  0  0  0  0  0  0  0  0  0
  -26.4050  -30.0140   21.1680 C   0  0  0  0  0  2  0  0  0  0  0  0
  -25.9940  -29.1130   20.0070 C   0  0  0  0  0  0  0  0  0  0  0  0
  -26.8740  -28.1680   19.3970 C   0  0  0  0  0  3  0  0  0  0  0  0
  -25.0860  -27.5000   17.9030 C   0  0  0  0  0  3  0  0  0  0  0  0
  -24.2230  -28.4380   18.4930 C   0  0  0  0  0  3  0  0  0  0  0  0
  -23.7880  -30.2620   20.2220 C   0  0  0  0  0  2  0  0  0  0  0  0
  -25.3520  -30.2120   22.2020 N   0  0  0  0  0  0  0  0  0  0  0  0
  -24.7640  -30.6670   24.3460 O   0  0  0  0  0  0  0  0  0  0  0  0
  -23.0700  -29.0950   22.3460 C   0  0  0  0  0  0  0  0  0  0  0  0
  -21.7350  -29.2290   22.2730 N   0  0  0  0  0  0  0  0  0  0  0  0
  -23.6130  -28.0950   22.8240 O   0  0  0  0  0  0  0  0  0  0  0  0
  -21.3680  -30.0850   21.8820 H   0  0  0  0  0  0  0  0  0  0  0  0
  -18.1880  -28.5140   22.4270 C   0  0  0  0  0  0  0  0  0  0  0  0
  -20.7450  -28.2470   22.7200 C   0  0  0  0  0  3  0  0  0  0  0  0
  -20.6340  -27.0700   21.7230 C   0  0  0  0  0  2  0  0  0  0  0  0
  -19.5300  -27.2640   20.6800 C   0  0  0  0  0  2  0  0  0  0  0  0
  -18.1690  -27.4330   21.3590 C   0  0  0  0  0  2  0  0  0  0  0  0
  -19.4000  -28.9070   23.0540 C   0  0  0  0  0  0  0  0  0  0  0  0
  -19.3670  -29.9390   24.0180 C   0  0  0  0  0  3  0  0  0  0  0  0
  -18.1560  -30.5700   24.3570 C   0  0  0  0  0  3  0  0  0  0  0  0
  -16.9580  -30.1650   23.7420 C   0  0  0  0  0  3  0  0  0  0  0  0
  -16.9750  -29.1400   22.7810 C   0  0  0  0  0  3  0  0  0  0  0  0
  -27.1200  -30.3830   24.0340 C   0  0  0  0  0  3  0  0  0  0  0  0
  -27.5190  -28.9960   24.6710 C   0  0  1  0  0  0  0  0  0  0  0  0
  -26.5220  -28.4960   25.7440 C   0  0  0  0  0  1  0  0  0  0  0  0
  -27.6240  -27.9030   23.5830 C   0  0  0  0  0  1  0  0  0  0  0  0
  -28.9180  -29.1050   25.3250 C   0  0  0  0  0  1  0  0  0  0  0  0
  -27.2710  -31.4680   25.0120 N   0  0  0  0  0  0  0  0  0  0  0  0
  -27.8960  -32.6270   24.7710 C   0  0  0  0  0  0  0  0  0  0  0  0
  -28.4670  -32.8710   23.7040 O   0  0  0  0  0  0  0  0  0  0  0  0
  -26.7750  -31.3580   25.8860 H   0  0  0  0  0  0  0  0  0  0  0  0
  -26.8510  -34.7710   25.5710 C   0  0  0  0  0  1  0  0  0  0  0  0
  -27.8880  -33.6840   25.8920 C   0  0  0  0  0  3  0  0  0  0  0  0
  -30.1870  -33.4020   26.7080 C   0  0  0  0  0  1  0  0  0  0  0  0
  -29.2070  -34.3100   26.1210 N   0  0  0  0  0  0  0  0  0  0  0  0
  -29.1200  -35.1140   26.7370 H   0  0  0  0  0  0  0  0  0  0  0  0
  1 52  1  0
  1 43  1  0
  2  3  1  0
  2  1  1  0
  2  5  1  0
  4  2  1  0
  5  6  1  0
  7 13  1  0
  7  6  1  0
  8 13  1  0
  9 10  1  0
  9  8  1  0
 11 10  1  0
 11 18  1  0
 11 12  1  0
 13 12  1  0
 14  7  2  0
 15 16  2  0
 16 35  1  0
 17 16  1  0
 17 20  1  0
 18 15  1  0
 18 19  1  0
 19 17  2  0
 20 21  1  0
 21 22  2  0
 23 26  1  0
 23 22  1  0
 24 23  2  0
 25 24  1  0
 25 20  2  0
 26 27  1  0
 27 32  2  0
 27 28  1  0
 28 29  2  0
 29 30  1  0
 30 34  1  0
 31 30  2  0
 32 31  1  0
 33 32  1  0
 35 36  1  0
 36 39  1  0
 36 38  1  0
 37 35  2  0
 40 41  1  0
 40 15  1  0
 42 40  1  0
 43 44  1  0
 44 45  2  0
 44 51  1  0
 46 48  1  0
 47 46  2  0
 49 51  2  0
 49 47  1  0
 50 48  2  0
 51 50  1  0
 52 53  1  0
 54 55  1  0
 54 53  2  0
 56 55  1  0
 56 58  1  0
 57 68  2  0
 58 63  1  0
 59 67  1  0
 59 69  1  0
 60 62  1  0
 60 66  1  0
 61 67  1  0
 62 61  1  0
 63 62  2  0
 64 58  2  0
 64 65  1  0
 65 60  2  0
 66 59  1  0
 67 57  1  0
 69 71  2  0
 70 69  1  0
 72 70  1  0
 73 82  2  0
 73 78  1  0
 74 70  1  0
 74 78  1  0
 75 74  1  0
 76 77  1  0
 76 75  1  0
 77 73  1  0
 78 79  2  0
 79 80  1  0
 81 80  2  0
 82 81  1  0
 83 57  1  0
 83 84  1  0
 83 88  1  0
 84 87  1  1
 84 85  1  0
 86 84  1  0
 88 91  1  0
 89 88  1  0
 89 93  1  0
 90 89  2  0
 93 92  1  0
 93 95  1  0
 95 94  1  0
 95 96  1  0
M  ISO  4   6 100   7 100  55 101  56 101
M  END
>  <TORSDO>  (80) 
F 26

>  <SCORE>  (80) 
-8.993

>  <name>  (80) 
79

>  <ligand_id>  (80) 
79

>  <original_smiles>  (80) 
[H]c1c([H])c([H])c(C(=O)C([H])([H])C([H])(C([H])([H])C([H])([H])C([H])([H])C([H])([H])Oc2c([H])c([H])c3c(c2[H])C([H])([H])N(C(=O)C([H])(N([H])C(=O)C([H])(N([H])C([H])([H])[H])C([H])([H])[H])C(C([H])([H])[H])(C([H])([H])[H])C([H])([H])[H])C([H])(C(=O)N([H])C2([H])c4c([H])c([H])c([H])c([H])c4C([H])([H])C([H])([H])C2([H])[H])C3([H])[H])[N+]([H])([H])C([H])([H])C([H])([H])C(=O)N2C([H])([H])C([H])([H])C([H])([H])C([H])(n3nc(-c4c([H])c([H])c(Oc5c([H])c([H])c(F)c([H])c5F)c([H])c4[H])c(C(=O)N([H])[H])c3N([H])[H])C2([H])[H])c([H])c1[H]

>  <smiles>  (80) 
[H]c1c([H])c([H])c(C(=O)C([H])([H])C([H])(C([H])([H])C([H])([H])C([H])([H])C([H])([H])Oc2c([H])c([H])c3c(c2[H])C([H])([H])N(C(=O)C([H])(N([H])C(=O)C([H])(N([H])C([H])([H])[H])C([H])([H])[H])C(C([H])([H])[H])(C([H])([H])[H])C([H])([H])[H])C([H])(C(=O)N([H])C2([H])c4c([H])c([H])c([H])c([H])c4C([H])([H])C([H])([H])C2([H])[H])C3([H])[H])[N+]([H])([H])C([H])([H])C([H])([H])C(=O)N2C([H])([H])C([H])([H])C([H])([H])C([H])(n3nc(-c4c([H])c([H])c(Oc5c([H])c([H])c(F)c([H])c5F)c([H])c4[H])c(C(=O)N([H])[H])c3N([H])[H])C2([H])[H])c([H])c1[H]

$$$$
80:0:0
     RDKit          3D

 97105  0  0  1  0  0  0  0  0999 V2000
  -31.5510  -21.8840   19.9170 C   0  0  0  0  0  0  0  0  0  0  0  0
  -32.1640  -21.6380   20.9620 O   0  0  0  0  0  0  0  0  0  0  0  0
  -30.6510  -19.5880   19.6210 C   0  0  0  0  0  3  0  0  0  0  0  0
  -30.9500  -20.9360   17.6250 C   0  0  0  0  0  3  0  0  0  0  0  0
  -31.0510  -20.7990   19.0260 C   0  0  0  0  0  0  0  0  0  0  0  0
  -30.1660  -18.5110   18.8500 C   0  0  0  0  0  0  0  0  0  0  0  0
  -30.4770  -19.8710   16.8300 C   0  0  0  0  0  0  0  0  0  0  0  0
  -30.1000  -18.6400   17.4330 C   0  0  0  0  0  0  0  0  0  0  0  0
  -30.3810  -20.0810   15.3260 C   0  0  0  0  0  1  0  0  0  0  0  0
  -29.6560  -17.4680   16.5570 C   0  0  0  0  0  1  0  0  0  0  0  0
  -29.6670  -17.3140   19.5900 C   0  0  0  0  0  0  0  0  0  0  0  0
  -28.6580  -16.6860   19.2620 O   0  0  0  0  0  0  0  0  0  0  0  0
  -30.4730  -16.8880   20.8270 C   0  0  0  0  0  2  0  0  0  0  0  0
  -30.1810  -15.4460   21.2850 C   0  0  0  0  0  2  0  0  0  0  0  0
  -30.7520  -14.4000   20.3120 C   0  0  0  0  0  0  0  0  0  0  0  0
  -30.4040  -12.3590   18.9710 C   0  0  0  0  0  2  0  0  0  0  0  0
  -29.4190  -12.6590   17.8230 C   0  0  0  0  0  2  0  0  0  0  0  0
  -27.9560  -12.5120   18.2940 C   0  0  0  0  0  2  0  0  0  0  0  0
  -27.6790  -13.2660   19.6220 C   0  0  0  0  0  3  0  0  0  0  0  0
  -28.7570  -12.9120   20.6680 C   0  0  0  0  0  2  0  0  0  0  0  0
  -30.0680  -13.2500   20.0900 N   0  0  0  0  0  0  0  0  0  0  0  0
  -31.8010  -14.6710   19.7170 O   0  0  0  0  0  0  0  0  0  0  0  0
  -25.2880  -13.8910   20.3570 C   0  0  0  0  0  0  0  0  0  0  0  0
  -24.2260  -13.1200   20.7490 C   0  0  0  0  0  0  0  0  0  0  0  0
  -24.6870  -11.7690   20.7170 C   0  0  0  0  0  0  0  0  0  0  0  0
  -26.3300  -13.0050   20.1180 N   0  0  0  0  0  0  0  0  0  0  0  0
  -25.9710  -11.7260   20.3860 N   0  0  0  0  0  0  0  0  0  0  0  0
  -23.9680  -10.5070   20.9280 C   0  0  0  0  0  0  0  0  0  0  0  0
  -24.4170   -9.5510   21.8660 C   0  0  0  0  0  3  0  0  0  0  0  0
  -23.7020   -8.3510   22.0660 C   0  0  0  0  0  3  0  0  0  0  0  0
  -22.5210   -8.0990   21.3270 C   0  0  0  0  0  0  0  0  0  0  0  0
  -22.0910   -9.0430   20.3770 C   0  0  0  0  0  3  0  0  0  0  0  0
  -22.8070  -10.2350   20.1770 C   0  0  0  0  0  3  0  0  0  0  0  0
  -21.7750   -6.9500   21.4350 O   0  0  0  0  0  0  0  0  0  0  0  0
  -21.7400   -6.2230   22.5980 C   0  0  0  0  0  0  0  0  0  0  0  0
  -21.3250   -6.7930   23.8210 C   0  0  0  0  0  3  0  0  0  0  0  0
  -21.2370   -5.9920   24.9760 C   0  0  0  0  0  3  0  0  0  0  0  0
  -21.5510   -4.6210   24.9080 C   0  0  0  0  0  0  0  0  0  0  0  0
  -21.9600   -4.0510   23.6900 C   0  0  0  0  0  3  0  0  0  0  0  0
  -22.0510   -4.8500   22.5370 C   0  0  0  0  0  0  0  0  0  0  0  0
  -22.4240   -4.2900   21.3610 F   0  0  0  0  0  0  0  0  0  0  0  0
  -21.4590   -3.8490   26.0170 F   0  0  0  0  0  0  0  0  0  0  0  0
  -22.8320  -13.5960   21.0500 C   0  0  0  0  0  0  0  0  0  0  0  0
  -22.1260  -12.9030   21.9340 N   0  0  0  0  0  0  0  0  0  0  0  0
  -22.3800  -14.6180   20.5340 O   0  0  0  0  0  0  0  0  0  0  0  0
  -22.5050  -12.0750   22.3710 H   0  0  0  0  0  0  0  0  0  0  0  0
  -21.1920  -13.2020   22.1780 H   0  0  0  0  0  0  0  0  0  0  0  0
  -25.4520  -15.2590   20.1690 N   0  0  0  0  0  0  0  0  0  0  0  0
  -24.6900  -15.9190   20.2750 H   0  0  0  0  0  0  0  0  0  0  0  0
  -26.3060  -15.6870   19.8230 H   0  0  0  0  0  0  0  0  0  0  0  0
  -31.1700  -23.3490   19.5960 C   0  0  0  0  0  0  0  0  0  0  0  0
  -30.3770  -23.8570   20.5480 N   0  0  0  0  0  0  0  0  0  0  0  0
  -31.5860  -23.9790   18.6180 O   0  0  0  0  0  0  0  0  0  0  0  0
  -30.1230  -23.2330   21.3030 H   0  0  0  0  0  0  0  0  0  0  0  0
  -29.9860  -25.2510   20.6630 C   0  0  0  0  0  2  0  0  0  0  0  0
  -28.5540  -25.5150   20.1750 C   0  0  0  0  0  2  0  0  0  0  0  0
  -28.4530  -26.9210   20.2500 O   0  0  0  0  0  0  0  0  0  0  0  0
  -24.5720  -31.9760   23.2750 C   0  0  0  0  0  0  0  0  0  0  0  0
  -27.2260  -27.5300   20.2550 C   0  0  0  0  0  0  0  0  0  0  0  0
  -23.3620  -30.5530   21.6490 C   0  0  0  0  0  3  0  0  0  0  0  0
  -24.8130  -28.9890   20.2510 C   0  0  0  0  0  0  0  0  0  0  0  0
  -25.8810  -30.9200   21.4400 C   0  0  0  0  0  2  0  0  0  0  0  0
  -25.9640  -29.5400   20.8240 C   0  0  0  0  0  0  0  0  0  0  0  0
  -27.1700  -28.8190   20.8170 C   0  0  0  0  0  3  0  0  0  0  0  0
  -26.0590  -26.9660   19.6920 C   0  0  0  0  0  3  0  0  0  0  0  0
  -24.8530  -27.6990   19.6850 C   0  0  0  0  0  3  0  0  0  0  0  0
  -23.5670  -29.8450   20.2810 C   0  0  0  0  0  2  0  0  0  0  0  0
  -24.6230  -31.1650   22.1800 N   0  0  0  0  0  0  0  0  0  0  0  0
  -23.4930  -32.2580   23.8140 O   0  0  0  0  0  0  0  0  0  0  0  0
  -22.7110  -29.5480   22.6240 C   0  0  0  0  0  0  0  0  0  0  0  0
  -21.3890  -29.3590   22.4890 N   0  0  0  0  0  0  0  0  0  0  0  0
  -23.3930  -28.9400   23.4550 O   0  0  0  0  0  0  0  0  0  0  0  0
  -20.9050  -29.9000   21.7850 H   0  0  0  0  0  0  0  0  0  0  0  0
  -18.0160  -28.1640   22.9670 C   0  0  0  0  0  0  0  0  0  0  0  0
  -20.5680  -28.4330   23.2660 C   0  0  0  0  0  3  0  0  0  0  0  0
  -20.6820  -26.9920   22.7160 C   0  0  0  0  0  2  0  0  0  0  0  0
  -19.5930  -26.6490   21.6960 C   0  0  0  0  0  2  0  0  0  0  0  0
  -18.2040  -26.8030   22.3200 C   0  0  0  0  0  2  0  0  0  0  0  0
  -19.1270  -28.9360   23.3960 C   0  0  0  0  0  0  0  0  0  0  0  0
  -18.8990  -30.2110   23.9580 C   0  0  0  0  0  3  0  0  0  0  0  0
  -17.5910  -30.7130   24.0980 C   0  0  0  0  0  3  0  0  0  0  0  0
  -16.4940  -29.9370   23.6850 C   0  0  0  0  0  3  0  0  0  0  0  0
  -16.7070  -28.6650   23.1250 C   0  0  0  0  0  3  0  0  0  0  0  0
  -25.8620  -32.6080   23.8880 C   0  0  0  0  0  3  0  0  0  0  0  0
  -25.5580  -34.0090   24.2080 N   0  0  0  0  0  0  0  0  0  0  0  0
  -25.8940  -35.0530   23.4390 C   0  0  0  0  0  0  0  0  0  0  0  0
  -26.5640  -34.9400   22.4100 O   0  0  0  0  0  0  0  0  0  0  0  0
  -24.9610  -34.1710   25.0060 H   0  0  0  0  0  0  0  0  0  0  0  0
  -24.1670  -36.8420   23.0680 C   0  0  0  0  0  1  0  0  0  0  0  0
  -25.4070  -36.4460   23.8840 C   0  0  0  0  0  3  0  0  0  0  0  0
  -27.5430  -37.3330   24.7080 C   0  0  0  0  0  1  0  0  0  0  0  0
  -26.4420  -37.4960   23.7620 N   0  0  0  0  0  0  0  0  0  0  0  0
  -26.0370  -38.4180   23.9030 H   0  0  0  0  0  0  0  0  0  0  0  0
  -26.3850  -31.8430   25.1660 C   0  0  1  0  0  0  0  0  0  0  0  0
  -25.2950  -31.6100   26.2380 C   0  0  0  0  0  1  0  0  0  0  0  0
  -26.9670  -30.4660   24.7740 C   0  0  0  0  0  1  0  0  0  0  0  0
  -27.5380  -32.6420   25.8200 C   0  0  0  0  0  1  0  0  0  0  0  0
  1  2  2  0
  4  5  2  0
  5  3  1  0
  5  1  1  0
  6 11  1  0
  6  3  2  0
  7  8  2  0
  7  4  1  0
  8  6  1  0
  9  7  1  0
 10  8  1  0
 11 13  1  0
 12 11  2  0
 13 14  1  0
 15 14  1  0
 16 21  1  0
 17 18  1  0
 17 16  1  0
 19 18  1  0
 19 26  1  0
 19 20  1  0
 21 15  1  0
 21 20  1  0
 22 15  2  0
 23 24  2  0
 24 43  1  0
 25 24  1  0
 25 28  1  0
 26 23  1  0
 26 27  1  0
 27 25  2  0
 28 29  1  0
 29 30  2  0
 31 34  1  0
 31 30  1  0
 32 31  2  0
 33 32  1  0
 33 28  2  0
 34 35  1  0
 35 36  1  0
 36 37  2  0
 38 37  1  0
 38 42  1  0
 39 38  2  0
 40 35  2  0
 40 39  1  0
 41 40  1  0
 43 44  1  0
 44 47  1  0
 44 46  1  0
 45 43  2  0
 48 49  1  0
 48 23  1  0
 50 48  1  0
 51  1  1  0
 51 52  1  0
 52 55  1  0
 52 54  1  0
 53 51  2  0
 56 57  1  0
 56 55  1  0
 57 59  1  0
 58 69  2  0
 59 64  1  0
 60 68  1  0
 60 70  1  0
 61 67  1  0
 61 63  1  0
 62 68  1  0
 63 62  1  0
 64 63  2  0
 65 59  2  0
 66 65  1  0
 66 61  2  0
 67 60  1  0
 68 58  1  0
 70 72  2  0
 71 70  1  0
 73 71  1  0
 74 83  2  0
 74 79  1  0
 75 71  1  0
 75 79  1  0
 76 75  1  0
 77 78  1  0
 77 76  1  0
 78 74  1  0
 79 80  2  0
 80 81  1  0
 82 81  2  0
 83 82  1  0
 84 58  1  0
 84 85  1  0
 84 94  1  0
 85 88  1  0
 86 90  1  0
 86 85  1  0
 87 86  2  0
 90 89  1  0
 92 90  1  0
 92 93  1  0
 92 91  1  0
 94 97  1  1
 94 95  1  0
 96 94  1  0
M  ISO  4  14 100  15 100  56 101  57 101
M  END
>  <TORSDO>  (81) 
F 23

>  <SCORE>  (81) 
-11.981

>  <name>  (81) 
80

>  <ligand_id>  (81) 
80

>  <original_smiles>  (81) 
[H]c1c([H])c([H])c2c(c1[H])C([H])([H])C([H])([H])C([H])([H])C2([H])N([H])C(=O)C1([H])N(C(=O)C([H])(N([H])C(=O)C([H])(N([H])C([H])([H])[H])C([H])([H])[H])C(C([H])([H])[H])(C([H])([H])[H])C([H])([H])[H])C([H])([H])c2c([H])c(OC([H])([H])C([H])([H])N([H])C(=O)C(=O)c3c([H])c(C(=O)C([H])([H])C([H])([H])C(=O)N4C([H])([H])C([H])([H])C([H])([H])C([H])(n5nc(-c6c([H])c([H])c(Oc7c([H])c([H])c(F)c([H])c7F)c([H])c6[H])c(C(=O)N([H])[H])c5N([H])[H])C4([H])[H])c(C([H])([H])[H])c(C([H])([H])[H])c3[H])c([H])c([H])c2C1([H])[H]

>  <smiles>  (81) 
[H]c1c([H])c([H])c2c(c1[H])C([H])([H])C([H])([H])C([H])([H])C2([H])N([H])C(=O)C1([H])N(C(=O)C([H])(N([H])C(=O)C([H])(N([H])C([H])([H])[H])C([H])([H])[H])C(C([H])([H])[H])(C([H])([H])[H])C([H])([H])[H])C([H])([H])c2c([H])c(OC([H])([H])C([H])([H])N([H])C(=O)C(=O)c3c([H])c(C(=O)C([H])([H])C([H])([H])C(=O)N4C([H])([H])C([H])([H])C([H])([H])C([H])(n5nc(-c6c([H])c([H])c(Oc7c([H])c([H])c(F)c([H])c7F)c([H])c6[H])c(C(=O)N([H])[H])c5N([H])[H])C4([H])[H])c(C([H])([H])[H])c(C([H])([H])[H])c3[H])c([H])c([H])c2C1([H])[H]

$$$$
81:0:0
     RDKit          3D

101104  0  0  1  0  0  0  0  0999 V2000
  -26.6590  -19.8640   19.4750 C   0  0  0  0  0  3  0  0  0  0  0  0
  -31.7910  -18.0810   16.8250 C   0  0  0  0  0  3  0  0  0  0  0  0
  -32.3480  -19.1220   16.0450 C   0  0  0  0  0  3  0  0  0  0  0  0
  -30.5130  -18.2250   17.4100 C   0  0  0  0  0  2  0  0  0  0  0  0
  -31.6330  -20.3190   15.8380 C   0  0  0  0  0  3  0  0  0  0  0  0
  -29.8080  -19.4270   17.2010 C   0  0  0  0  0  0  0  0  0  0  0  0
  -30.3650  -20.4500   16.4330 C   0  0  0  0  0  0  0  0  0  0  0  0
  -28.5390  -19.8750   17.7720 C   0  0  0  0  0  0  0  0  0  0  0  0
  -27.8030  -19.2270   18.7000 C   0  0  0  0  0  2  0  0  0  0  0  0
  -29.4860  -21.6720   16.3840 C   0  0  0  0  0  3  0  0  0  0  0  0
  -28.2660  -21.2810   17.2410 C   0  0  0  0  0  3  0  0  0  0  0  0
  -25.6350  -18.5850   20.1930 N   0  0  0  0  0  4  0  0  0  0  0  0
  -25.7450  -18.7340   21.1820 H   0  0  0  0  0  0  0  0  0  0  0  0
  -24.7050  -18.9210   19.9960 H   0  0  0  0  0  0  0  0  0  0  0  0
  -25.4330  -16.8100   20.0970 C   0  0  0  0  0  2  0  0  0  0  0  0
  -24.4430  -15.3920   21.0350 C   0  0  0  0  0  2  0  0  0  0  0  0
  -24.3200  -13.5350   21.4740 C   0  0  0  0  0  0  0  0  0  0  0  0
  -22.9750  -11.1930   21.6730 C   0  0  0  0  0  2  0  0  0  0  0  0
  -22.4310  -10.6830   20.2960 C   0  0  0  0  0  2  0  0  0  0  0  0
  -21.2470  -11.5380   19.8040 C   0  0  0  0  0  2  0  0  0  0  0  0
  -21.5080  -13.0280   20.1130 C   0  0  0  0  0  3  0  0  0  0  0  0
  -21.8440  -13.2580   21.5820 C   0  0  0  0  0  2  0  0  0  0  0  0
  -23.1610  -12.7160   21.6750 N   0  0  0  0  0  0  0  0  0  0  0  0
  -25.2890  -12.7730   21.7650 O   0  0  0  0  0  0  0  0  0  0  0  0
  -20.3390  -14.6700   18.6100 C   0  0  0  0  0  0  0  0  0  0  0  0
  -19.1670  -15.3480   18.7440 C   0  0  0  0  0  0  0  0  0  0  0  0
  -18.6390  -14.9720   20.0170 C   0  0  0  0  0  0  0  0  0  0  0  0
  -20.4510  -13.9180   19.7590 N   0  0  0  0  0  0  0  0  0  0  0  0
  -19.4650  -14.1560   20.6490 N   0  0  0  0  0  0  0  0  0  0  0  0
  -17.3560  -15.2750   20.6420 C   0  0  0  0  0  0  0  0  0  0  0  0
  -17.1400  -16.4880   21.3320 C   0  0  0  0  0  3  0  0  0  0  0  0
  -15.8830  -16.7580   21.9130 C   0  0  0  0  0  3  0  0  0  0  0  0
  -14.8360  -15.8120   21.8030 C   0  0  0  0  0  0  0  0  0  0  0  0
  -15.0700  -14.5960   21.1390 C   0  0  0  0  0  3  0  0  0  0  0  0
  -16.3220  -14.3250   20.5670 C   0  0  0  0  0  3  0  0  0  0  0  0
  -13.5890  -15.9780   22.3520 O   0  0  0  0  0  0  0  0  0  0  0  0
  -13.0420  -17.2230   22.5240 C   0  0  0  0  0  0  0  0  0  0  0  0
  -12.9770  -18.1610   21.4700 C   0  0  0  0  0  3  0  0  0  0  0  0
  -12.3420  -19.4030   21.6730 C   0  0  0  0  0  3  0  0  0  0  0  0
  -11.7670  -19.7050   22.9230 C   0  0  0  0  0  0  0  0  0  0  0  0
  -11.8280  -18.7700   23.9710 C   0  0  0  0  0  3  0  0  0  0  0  0
  -12.4620  -17.5320   23.7700 C   0  0  0  0  0  0  0  0  0  0  0  0
  -12.5010  -16.6250   24.7770 F   0  0  0  0  0  0  0  0  0  0  0  0
  -11.1490  -20.8920   23.1150 F   0  0  0  0  0  0  0  0  0  0  0  0
  -18.5240  -16.2040   17.6990 C   0  0  0  0  0  0  0  0  0  0  0  0
  -17.7190  -17.1720   18.1160 N   0  0  0  0  0  0  0  0  0  0  0  0
  -18.7760  -16.0440   16.5050 O   0  0  0  0  0  0  0  0  0  0  0  0
  -17.5300  -17.3080   19.0980 H   0  0  0  0  0  0  0  0  0  0  0  0
  -17.2810  -17.7850   17.4420 H   0  0  0  0  0  0  0  0  0  0  0  0
  -21.2930  -14.6020   17.6020 N   0  0  0  0  0  0  0  0  0  0  0  0
  -21.0710  -14.9990   16.6960 H   0  0  0  0  0  0  0  0  0  0  0  0
  -21.9430  -13.8290   17.5490 H   0  0  0  0  0  0  0  0  0  0  0  0
  -27.4360  -21.5900   19.9910 C   0  0  0  0  0  2  0  0  0  0  0  0
  -28.7760  -22.9070   19.4010 C   0  0  0  0  0  2  0  0  0  0  0  0
  -30.4150  -23.8490   19.9380 C   0  0  0  0  0  1  0  0  0  0  0  0
  -31.2260  -25.6490   19.9840 C   0  0  0  0  0 15  0  0  0  0  0  0
  -32.9010  -26.7790   19.9740 C   0  0  0  0  0 15  0  0  0  0  0  0
  -34.3560  -27.3700   16.8470 C   0  0  0  0  0 15  0  0  0  0  0  0
  -35.4750  -25.5730   16.3420 C   0  0  0  0  0 15  0  0  0  0  0  0
  -35.7680  -23.7750   15.1960 C   0  0  0  0  0 15  0  0  0  0  0  0
  -36.0430  -22.7880   13.5480 O   0  0  0  0  0  1  0  0  0  0  0  0
  -37.7900  -26.6470   14.7200 C   0  0  0  0  0  0  0  0  0  0  0  0
  -36.9890  -22.3860   12.4680 C   0  0  0  0  0  3  0  0  0  0  0  0
  -36.5970  -26.4910   12.3970 C   0  0  0  0  0  3  0  0  0  0  0  0
  -37.4430  -24.4690   11.0250 C   0  0  0  0  0  3  0  0  0  0  0  0
  -38.7420  -25.2110   13.0130 C   0  0  0  0  0  2  0  0  0  0  0  0
  -38.2700  -24.1270   12.1090 C   0  0  0  0  0  3  0  0  0  0  0  0
  -38.2950  -22.8230   12.5890 C   0  0  0  0  0  2  0  0  0  0  0  0
  -36.5570  -22.2450   11.1090 C   0  0  0  0  0  2  0  0  0  0  0  0
  -36.7140  -23.4360   10.3690 C   0  0  0  0  0  2  0  0  0  0  0  0
  -37.0690  -25.9560   10.9900 C   0  0  0  0  0  2  0  0  0  0  0  0
  -37.6190  -26.0540   13.4850 N   0  0  0  0  0  0  0  0  0  0  0  0
  -37.1220  -27.6270   15.0550 O   0  0  0  0  0  0  0  0  0  0  0  0
  -35.2040  -25.8200   12.2940 C   0  0  0  0  0  0  0  0  0  0  0  0
  -34.3610  -25.6590   11.2990 N   0  0  0  0  0  0  0  0  0  0  0  0
  -34.7560  -25.2720   13.2390 O   0  0  0  0  0  0  0  0  0  0  0  0
  -34.5640  -26.0330   10.3850 H   0  0  0  0  0  0  0  0  0  0  0  0
  -32.6220  -24.3270    9.5390 C   0  0  0  0  0  0  0  0  0  0  0  0
  -32.9010  -25.4720   11.6840 C   0  0  0  0  0  3  0  0  0  0  0  0
  -32.6760  -24.1570   12.3230 C   0  0  0  0  0  2  0  0  0  0  0  0
  -32.9490  -22.9190   11.4780 C   0  0  0  0  0  2  0  0  0  0  0  0
  -32.5040  -22.9280   10.0470 C   0  0  0  0  0  2  0  0  0  0  0  0
  -32.0880  -25.4890   10.5650 C   0  0  0  0  0  0  0  0  0  0  0  0
  -31.1590  -26.8440    9.7230 C   0  0  0  0  0  3  0  0  0  0  0  0
  -31.2090  -26.6250    8.0450 C   0  0  0  0  0  3  0  0  0  0  0  0
  -31.8600  -25.4450    7.3190 C   0  0  0  0  0  3  0  0  0  0  0  0
  -32.4870  -24.3440    8.0410 C   0  0  0  0  0  3  0  0  0  0  0  0
  -38.9180  -26.2320   15.7570 C   0  0  0  0  0  3  0  0  0  0  0  0
  -39.4530  -27.4760   16.3280 N   0  0  0  0  0  0  0  0  0  0  0  0
  -40.5420  -28.1070   15.8720 C   0  0  0  0  0  0  0  0  0  0  0  0
  -41.2520  -27.6500   14.9720 O   0  0  0  0  0  0  0  0  0  0  0  0
  -38.8860  -27.9380   17.0250 H   0  0  0  0  0  0  0  0  0  0  0  0
  -40.4190  -30.6010   15.5980 C   0  0  0  0  0  1  0  0  0  0  0  0
  -40.8960  -29.4620   16.5130 C   0  0  0  0  0  3  0  0  0  0  0  0
  -42.8160  -28.7510   17.8640 C   0  0  0  0  0  1  0  0  0  0  0  0
  -42.3400  -29.6190   16.7900 N   0  0  0  0  0  0  0  0  0  0  0  0
  -42.5560  -30.5800   17.0380 H   0  0  0  0  0  0  0  0  0  0  0  0
  -38.4810  -25.2590   16.9250 C   0  0  1  0  0  0  0  0  0  0  0  0
  -37.1950  -25.7090   17.6590 C   0  0  0  0  0  1  0  0  0  0  0  0
  -38.3100  -23.8200   16.3890 C   0  0  0  0  0  1  0  0  0  0  0  0
  -39.6020  -25.1560   17.9910 C   0  0  0  0  0  1  0  0  0  0  0  0
  1  9  1  0
  1 53  1  0
  1 12  1  0
  2  4  1  0
  3  2  2  0
  5  3  1  0
  5  7  2  0
  6  4  1  0
  6  8  2  0
  7  6  1  0
  8  9  1  0
 10  7  1  0
 10 11  2  0
 11  8  1  0
 12 13  1  0
 14 12  1  0
 15 12  1  0
 15 16  1  0
 16 17  1  0
 17 23  1  0
 17 24  2  0
 18 23  1  0
 19 18  1  0
 20 21  1  0
 20 19  1  0
 21 28  1  0
 21 22  1  0
 22 23  1  0
 25 26  2  0
 25 28  1  0
 26 27  1  0
 27 30  1  0
 27 29  2  0
 28 29  1  0
 30 31  1  0
 31 32  2  0
 33 32  1  0
 33 36  1  0
 34 33  2  0
 35 30  2  0
 35 34  1  0
 36 37  1  0
 37 42  1  0
 38 39  1  0
 38 37  2  0
 39 40  2  0
 40 44  1  0
 40 41  1  0
 42 41  2  0
 42 43  1  0
 45 46  1  0
 45 26  1  0
 46 48  1  0
 47 45  2  0
 49 46  1  0
 50 25  1  0
 51 50  1  0
 52 50  1  0
 54 55  1  0
 54 53  1  0
 62 73  2  0
 63 68  1  0
 63 61  1  0
 64 74  1  0
 64 72  1  0
 65 70  1  0
 65 67  1  0
 66 72  1  0
 67 68  1  0
 67 66  1  0
 69 63  1  0
 70 69  1  0
 71 65  1  0
 71 64  1  0
 72 62  1  0
 74 76  2  0
 75 74  1  0
 77 75  1  0
 78 82  1  0
 78 83  1  0
 79 75  1  0
 79 80  1  0
 81 80  1  0
 82 81  1  0
 83 79  1  0
 84 83  2  0
 85 84  1  0
 86 87  1  0
 86 85  2  0
 87 78  2  0
 88 62  1  0
 88 89  1  0
 88 98  1  0
 89 92  1  0
 90 89  1  0
 90 94  1  0
 91 90  2  0
 94 93  1  0
 94 96  1  0
 96 97  1  0
 96 95  1  0
 98 99  1  1
 98101  1  0
100 98  1  0
M  ISO  4  16 100  17 100  60 101  61 101
M  END
>  <TORSDO>  (82) 
F 28

>  <SCORE>  (82) 
64.443

>  <name>  (82) 
81

>  <ligand_id>  (82) 
81

>  <original_smiles>  (82) 
[H]C(=C1c2c([H])c([H])c([H])c([H])c2C([H])([H])C1([H])[H])C([H])(C([H])([H])C([H])([H])C([H])([H])C([H])([H])C([H])([H])C([H])([H])C([H])([H])C([H])([H])Oc1c([H])c([H])c2c(c1[H])C([H])([H])N(C(=O)C([H])(N([H])C(=O)C([H])(N([H])C([H])([H])[H])C([H])([H])[H])C(C([H])([H])[H])(C([H])([H])[H])C([H])([H])[H])C([H])(C(=O)N([H])C1([H])c3c([H])c([H])c([H])c([H])c3C([H])([H])C([H])([H])C1([H])[H])C2([H])[H])[N+]([H])([H])C([H])([H])C([H])([H])C(=O)N1C([H])([H])C([H])([H])C([H])([H])C([H])(n2nc(-c3c([H])c([H])c(Oc4c([H])c([H])c(F)c([H])c4F)c([H])c3[H])c(C(=O)N([H])[H])c2N([H])[H])C1([H])[H]

>  <smiles>  (82) 
[H]C(=C1c2c([H])c([H])c([H])c([H])c2C([H])([H])C1([H])[H])C([H])(C([H])([H])C([H])([H])C([H])([H])C([H])([H])C([H])([H])C([H])([H])C([H])([H])C([H])([H])Oc1c([H])c([H])c2c(c1[H])C([H])([H])N(C(=O)C([H])(N([H])C(=O)C([H])(N([H])C([H])([H])[H])C([H])([H])[H])C(C([H])([H])[H])(C([H])([H])[H])C([H])([H])[H])C([H])(C(=O)N([H])C1([H])c3c([H])c([H])c([H])c([H])c3C([H])([H])C([H])([H])C1([H])[H])C2([H])[H])[N+]([H])([H])C([H])([H])C([H])([H])C(=O)N1C([H])([H])C([H])([H])C([H])([H])C([H])(n2nc(-c3c([H])c([H])c(Oc4c([H])c([H])c(F)c([H])c4F)c([H])c3[H])c(C(=O)N([H])[H])c2N([H])[H])C1([H])[H]

$$$$
82:0:0
     RDKit          3D

 97105  0  0  1  0  0  0  0  0999 V2000
  -28.4050  -18.1680   19.6100 C   0  0  0  0  0  3  0  0  0  0  0  0
  -27.7460  -19.3830   19.3590 C   0  0  0  0  0  3  0  0  0  0  0  0
  -30.1630  -19.3780   20.7570 C   0  0  0  0  0  3  0  0  0  0  0  0
  -29.6490  -18.1480   20.2700 C   0  0  0  0  0  0  0  0  0  0  0  0
  -29.5060  -20.6160   20.5290 C   0  0  0  0  0  0  0  0  0  0  0  0
  -28.3030  -20.6170   19.7610 C   0  0  0  0  0  0  0  0  0  0  0  0
  -30.2130  -21.8570   20.9940 C   0  0  0  0  0  0  0  0  0  0  0  0
  -31.4300  -22.0020   20.8620 O   0  0  0  0  0  0  0  0  0  0  0  0
  -29.4100  -22.9560   21.7080 C   0  0  0  0  0  2  0  0  0  0  0  0
  -29.5880  -24.3600   21.0680 C   0  0  0  0  0  2  0  0  0  0  0  0
  -28.4780  -25.3540   21.4520 C   0  0  0  0  0  2  0  0  0  0  0  0
  -28.6290  -26.5970   20.7510 O   0  0  0  0  0  0  0  0  0  0  0  0
  -24.6180  -31.8600   23.3560 C   0  0  0  0  0  0  0  0  0  0  0  0
  -27.4690  -27.3280   20.6420 C   0  0  0  0  0  0  0  0  0  0  0  0
  -23.5250  -30.3920   21.6940 C   0  0  0  0  0  3  0  0  0  0  0  0
  -25.0740  -28.8070   20.4300 C   0  0  0  0  0  0  0  0  0  0  0  0
  -26.0550  -30.7600   21.6450 C   0  0  0  0  0  2  0  0  0  0  0  0
  -26.1870  -29.3660   21.0700 C   0  0  0  0  0  0  0  0  0  0  0  0
  -27.3930  -28.6350   21.1690 C   0  0  0  0  0  3  0  0  0  0  0  0
  -26.3450  -26.7820   19.9880 C   0  0  0  0  0  3  0  0  0  0  0  0
  -25.1440  -27.5140   19.8850 C   0  0  0  0  0  3  0  0  0  0  0  0
  -23.8250  -29.6580   20.3590 C   0  0  0  0  0  2  0  0  0  0  0  0
  -24.7470  -31.0210   22.2910 N   0  0  0  0  0  0  0  0  0  0  0  0
  -23.5040  -32.1490   23.8140 O   0  0  0  0  0  0  0  0  0  0  0  0
  -22.8160  -29.4030   22.6490 C   0  0  0  0  0  0  0  0  0  0  0  0
  -21.5010  -29.2170   22.4490 N   0  0  0  0  0  0  0  0  0  0  0  0
  -23.4470  -28.8060   23.5240 O   0  0  0  0  0  0  0  0  0  0  0  0
  -21.0550  -29.7490   21.7150 H   0  0  0  0  0  0  0  0  0  0  0  0
  -18.0970  -28.0510   22.7850 C   0  0  0  0  0  0  0  0  0  0  0  0
  -20.6360  -28.3060   23.1980 C   0  0  0  0  0  3  0  0  0  0  0  0
  -20.7630  -26.8580   22.6720 C   0  0  0  0  0  2  0  0  0  0  0  0
  -19.7200  -26.5090   21.6050 C   0  0  0  0  0  2  0  0  0  0  0  0
  -18.3030  -26.6810   22.1620 C   0  0  0  0  0  2  0  0  0  0  0  0
  -19.1940  -28.8220   23.2560 C   0  0  0  0  0  0  0  0  0  0  0  0
  -18.9480  -30.1040   23.7930 C   0  0  0  0  0  3  0  0  0  0  0  0
  -17.6390  -30.6170   23.8650 C   0  0  0  0  0  3  0  0  0  0  0  0
  -16.5560  -29.8430   23.4130 C   0  0  0  0  0  3  0  0  0  0  0  0
  -16.7850  -28.5620   22.8790 C   0  0  0  0  0  3  0  0  0  0  0  0
  -25.8610  -32.5190   24.0340 C   0  0  0  0  0  3  0  0  0  0  0  0
  -25.5290  -33.9270   24.2900 N   0  0  0  0  0  0  0  0  0  0  0  0
  -25.9030  -34.9490   23.5080 C   0  0  0  0  0  0  0  0  0  0  0  0
  -26.6330  -34.8090   22.5230 O   0  0  0  0  0  0  0  0  0  0  0  0
  -24.8870  -34.1090   25.0470 H   0  0  0  0  0  0  0  0  0  0  0  0
  -24.1830  -36.7090   22.9860 C   0  0  0  0  0  1  0  0  0  0  0  0
  -25.3830  -36.3510   23.8780 C   0  0  0  0  0  3  0  0  0  0  0  0
  -27.4680  -37.2870   24.7780 C   0  0  0  0  0  1  0  0  0  0  0  0
  -26.4140  -37.4070   23.7730 N   0  0  0  0  0  0  0  0  0  0  0  0
  -25.9960  -38.3300   23.8590 H   0  0  0  0  0  0  0  0  0  0  0  0
  -26.2980  -31.7970   25.3680 C   0  0  1  0  0  0  0  0  0  0  0  0
  -25.1390  -31.5940   26.3700 C   0  0  0  0  0  1  0  0  0  0  0  0
  -26.9120  -30.4110   25.0650 C   0  0  0  0  0  1  0  0  0  0  0  0
  -27.4030  -32.6220   26.0710 C   0  0  0  0  0  1  0  0  0  0  0  0
  -29.8980  -15.6360   20.3880 C   0  0  0  0  0  3  0  0  0  0  0  0
  -30.4360  -16.8890   20.3240 C   0  0  0  0  0  0  0  0  0  0  0  0
  -30.6590  -14.3930   20.1710 C   0  0  0  0  0  0  0  0  0  0  0  0
  -30.2190  -12.2800   19.0050 C   0  0  0  0  0  2  0  0  0  0  0  0
  -29.2470  -12.5780   17.8440 C   0  0  0  0  0  2  0  0  0  0  0  0
  -27.7870  -12.4490   18.3230 C   0  0  0  0  0  2  0  0  0  0  0  0
  -27.5140  -13.2340   19.6330 C   0  0  0  0  0  3  0  0  0  0  0  0
  -28.6150  -12.9750   20.6880 C   0  0  0  0  0  2  0  0  0  0  0  0
  -29.9250  -13.2460   20.0760 N   0  0  0  0  0  0  0  0  0  0  0  0
  -31.8380  -14.4060   19.8180 O   0  0  0  0  0  0  0  0  0  0  0  0
  -25.1430  -13.8310   20.4310 C   0  0  0  0  0  0  0  0  0  0  0  0
  -24.0870  -13.0560   20.8290 C   0  0  0  0  0  0  0  0  0  0  0  0
  -24.5490  -11.7050   20.7800 C   0  0  0  0  0  0  0  0  0  0  0  0
  -26.1810  -12.9540   20.1610 N   0  0  0  0  0  0  0  0  0  0  0  0
  -25.8300  -11.6700   20.4340 N   0  0  0  0  0  0  0  0  0  0  0  0
  -23.8310  -10.4410   20.9870 C   0  0  0  0  0  0  0  0  0  0  0  0
  -24.2890   -9.4750   21.9100 C   0  0  0  0  0  3  0  0  0  0  0  0
  -23.5720   -8.2740   22.1020 C   0  0  0  0  0  3  0  0  0  0  0  0
  -22.3840   -8.0310   21.3730 C   0  0  0  0  0  0  0  0  0  0  0  0
  -21.9440   -8.9880   20.4410 C   0  0  0  0  0  3  0  0  0  0  0  0
  -22.6610  -10.1800   20.2470 C   0  0  0  0  0  3  0  0  0  0  0  0
  -21.6340   -6.8850   21.4780 O   0  0  0  0  0  0  0  0  0  0  0  0
  -21.6150   -6.1410   22.6320 C   0  0  0  0  0  0  0  0  0  0  0  0
  -21.2220   -6.6960   23.8690 C   0  0  0  0  0  3  0  0  0  0  0  0
  -21.1490   -5.8790   25.0150 C   0  0  0  0  0  3  0  0  0  0  0  0
  -21.4570   -4.5080   24.9250 C   0  0  0  0  0  0  0  0  0  0  0  0
  -21.8420   -3.9530   23.6920 C   0  0  0  0  0  3  0  0  0  0  0  0
  -21.9180   -4.7670   22.5480 C   0  0  0  0  0  0  0  0  0  0  0  0
  -22.2690   -4.2230   21.3580 F   0  0  0  0  0  0  0  0  0  0  0  0
  -21.3790   -3.7220   26.0230 F   0  0  0  0  0  0  0  0  0  0  0  0
  -22.6980  -13.5300   21.1450 C   0  0  0  0  0  0  0  0  0  0  0  0
  -21.9980  -12.8310   22.0320 N   0  0  0  0  0  0  0  0  0  0  0  0
  -22.2440  -14.5560   20.6420 O   0  0  0  0  0  0  0  0  0  0  0  0
  -22.3810  -12.0050   22.4660 H   0  0  0  0  0  0  0  0  0  0  0  0
  -21.0660  -13.1300   22.2830 H   0  0  0  0  0  0  0  0  0  0  0  0
  -25.2990  -15.2030   20.2550 N   0  0  0  0  0  0  0  0  0  0  0  0
  -24.5360  -15.8530   20.4030 H   0  0  0  0  0  0  0  0  0  0  0  0
  -26.1410  -15.6480   19.9140 H   0  0  0  0  0  0  0  0  0  0  0  0
  -31.7510  -17.1190   20.1740 O   0  0  0  0  0  0  0  0  0  0  0  0
  -31.8570  -18.0480   20.0100 H   0  0  0  0  0  0  0  0  0  0  0  0
  -27.6100  -21.8830   19.2530 C   0  0  0  0  0  2  0  0  0  0  0  0
  -27.6660  -23.6230   17.4900 C   0  0  0  0  0  1  0  0  0  0  0  0
  -28.2780  -22.4000   18.0440 N   0  0  0  0  0  4  0  0  0  0  0  0
  -29.2480  -22.5810   18.2400 H   0  0  0  0  0  0  0  0  0  0  0  0
  -28.2510  -21.6840   17.3360 H   0  0  0  0  0  0  0  0  0  0  0  0
  1  4  1  0
  2  1  2  0
  2  6  1  0
  4 54  1  0
  4  3  2  0
  5  3  1  0
  5  7  1  0
  6  5  2  0
  7  9  1  0
  8  7  2  0
 10 11  1  0
 10  9  1  0
 12 11  1  0
 13 24  2  0
 14 12  1  0
 14 19  1  0
 15 23  1  0
 15 25  1  0
 16 18  1  0
 17 23  1  0
 18 19  2  0
 18 17  1  0
 20 14  2  0
 21 20  1  0
 21 16  2  0
 22 16  1  0
 22 15  1  0
 23 13  1  0
 25 27  2  0
 26 25  1  0
 28 26  1  0
 29 38  2  0
 29 34  1  0
 30 26  1  0
 30 34  1  0
 31 30  1  0
 32 33  1  0
 32 31  1  0
 33 29  1  0
 34 35  2  0
 35 36  1  0
 37 36  2  0
 38 37  1  0
 39 13  1  0
 39 40  1  0
 39 49  1  0
 40 43  1  0
 41 45  1  0
 41 40  1  0
 42 41  2  0
 45 44  1  0
 47 48  1  0
 47 45  1  0
 47 46  1  0
 49 52  1  1
 49 50  1  0
 51 49  1  0
 54 53  2  0
 55 53  1  0
 56 61  1  0
 57 58  1  0
 57 56  1  0
 59 58  1  0
 59 66  1  0
 59 60  1  0
 61 55  1  0
 61 60  1  0
 62 55  2  0
 63 64  2  0
 64 83  1  0
 65 64  1  0
 65 68  1  0
 66 63  1  0
 66 67  1  0
 67 65  2  0
 68 69  1  0
 69 70  2  0
 71 74  1  0
 71 70  1  0
 72 71  2  0
 73 72  1  0
 73 68  2  0
 74 75  1  0
 75 76  1  0
 76 77  2  0
 78 77  1  0
 78 82  1  0
 79 78  2  0
 80 75  2  0
 80 79  1  0
 81 80  1  0
 83 84  1  0
 84 87  1  0
 84 86  1  0
 85 83  2  0
 88 89  1  0
 88 63  1  0
 90 88  1  0
 91 54  1  0
 92 91  1  0
 93  6  1  0
 94 95  1  0
 95 96  1  0
 95 93  1  0
 97 95  1  0
M  ISO  4  11 101  12 101  53 100  55 100
M  END
>  <TORSDO>  (83) 
F 24

>  <SCORE>  (83) 
-12.803

>  <name>  (83) 
82

>  <ligand_id>  (83) 
82

>  <original_smiles>  (83) 
[H]OC(=C([H])C(=O)N1C([H])([H])C([H])([H])C([H])([H])C([H])(n2nc(-c3c([H])c([H])c(Oc4c([H])c([H])c(F)c([H])c4F)c([H])c3[H])c(C(=O)N([H])[H])c2N([H])[H])C1([H])[H])c1c([H])c([H])c(C([H])([H])[N+]([H])([H])C([H])([H])[H])c(C(=O)C([H])([H])C([H])([H])C([H])([H])Oc2c([H])c([H])c3c(c2[H])C([H])([H])N(C(=O)C([H])(N([H])C(=O)C([H])(N([H])C([H])([H])[H])C([H])([H])[H])C(C([H])([H])[H])(C([H])([H])[H])C([H])([H])[H])C([H])(C(=O)N([H])C2([H])c4c([H])c([H])c([H])c([H])c4C([H])([H])C([H])([H])C2([H])[H])C3([H])[H])c1[H]

>  <smiles>  (83) 
[H]OC(=C([H])C(=O)N1C([H])([H])C([H])([H])C([H])([H])C([H])(n2nc(-c3c([H])c([H])c(Oc4c([H])c([H])c(F)c([H])c4F)c([H])c3[H])c(C(=O)N([H])[H])c2N([H])[H])C1([H])[H])c1c([H])c([H])c(C([H])([H])[N+]([H])([H])C([H])([H])[H])c(C(=O)C([H])([H])C([H])([H])C([H])([H])Oc2c([H])c([H])c3c(c2[H])C([H])([H])N(C(=O)C([H])(N([H])C(=O)C([H])(N([H])C([H])([H])[H])C([H])([H])[H])C(C([H])([H])[H])(C([H])([H])[H])C([H])([H])[H])C([H])(C(=O)N([H])C2([H])c4c([H])c([H])c([H])c([H])c4C([H])([H])C([H])([H])C2([H])[H])C3([H])[H])c1[H]

$$$$
83:0:0
     RDKit          3D

 94 92  0  0  1  0  0  0  0  0999 V2000
  -26.4410  -16.8930   18.2680 C   0  0  0  0  0  1  0  0  0  0  0  0
  -26.9280  -14.9860   18.0440 C   0  0  0  0  0 15  0  0  0  0  0  0
  -28.7430  -17.8520   19.9830 C   0  0  0  0  0  2  0  0  0  0  0  0
  -27.3470  -18.3580   19.1040 C   0  0  0  0  0  2  0  0  0  0  0  0
  -28.7220  -14.3460   18.9000 C   0  0  0  0  0  3  0  0  0  0  0  0
  -29.6080  -16.3160   20.0960 C   0  0  0  0  0  3  0  0  0  0  0  0
  -30.0030  -15.8720   21.2300 C   0  0  0  0  0  2  0  0  0  0  0  0
  -29.8990  -14.9870   19.6610 C   0  0  0  0  0  2  0  0  0  0  0  0
  -28.9190  -13.1970   18.8760 C   0  0  0  0  0  1  0  0  0  0  0  0
  -31.7110  -14.6730   22.4420 C   0  0  0  0  0  2  0  0  0  0  0  0
  -31.1780  -15.8650   22.1780 C   0  0  0  0  0  3  0  0  0  0  0  0
  -31.6970  -13.8130   21.3090 C   0  0  0  0  0  0  0  0  0  0  0  0
  -31.0970  -13.0210   19.0120 C   0  0  0  0  0 15  0  0  0  0  0  0
  -30.2520  -14.4400   17.5180 C   0  0  0  0  0 15  0  0  0  0  0  0
  -28.5960  -16.0770   18.1260 C   0  0  0  0  0  1  0  0  0  0  0  0
  -27.4540  -15.4240   20.3450 C   0  0  0  0  0  1  0  0  0  0  0  0
  -28.7560  -13.7290   21.5060 C   0  0  0  0  0 15  0  0  0  0  0  0
  -30.5630  -13.0650   20.8900 N   0  0  0  0  0  1  0  0  0  0  0  0
  -32.5930  -14.2370   20.5550 O   0  0  0  0  0  0  0  0  0  0  0  0
  -25.0850  -14.4410   20.8480 C   0  0  0  0  0  0  0  0  0  0  0  0
  -24.2710  -13.3840   21.0960 C   0  0  0  0  0  0  0  0  0  0  0  0
  -24.9700  -12.1640   20.9450 C   0  0  0  0  0  0  0  0  0  0  0  0
  -26.3290  -14.1000   20.6050 N   0  0  0  0  0  0  0  0  0  0  0  0
  -26.2380  -12.6160   20.7020 N   0  0  0  0  0  0  0  0  0  0  0  0
  -24.3920  -10.7340   21.0650 C   0  0  0  0  0  0  0  0  0  0  0  0
  -24.6890   -9.7940   22.0970 C   0  0  0  0  0  3  0  0  0  0  0  0
  -23.9800   -8.5600   22.2420 C   0  0  0  0  0  3  0  0  0  0  0  0
  -22.9270   -8.2120   21.3570 C   0  0  0  0  0  0  0  0  0  0  0  0
  -22.6330   -9.1170   20.3210 C   0  0  0  0  0  3  0  0  0  0  0  0
  -23.3470  -10.3350   20.1820 C   0  0  0  0  0  3  0  0  0  0  0  0
  -22.2010   -7.0310   21.3960 O   0  0  0  0  0  0  0  0  0  0  0  0
  -21.9080   -6.3610   22.5660 C   0  0  0  0  0  0  0  0  0  0  0  0
  -21.1600   -6.9640   23.6000 C   0  0  0  0  0  3  0  0  0  0  0  0
  -20.8270   -6.2310   24.7590 C   0  0  0  0  0  3  0  0  0  0  0  0
  -21.2300   -4.8890   24.8860 C   0  0  0  0  0  0  0  0  0  0  0  0
  -21.9560   -4.2740   23.8520 C   0  0  0  0  0  3  0  0  0  0  0  0
  -22.2860   -5.0040   22.6930 C   0  0  0  0  0  0  0  0  0  0  0  0
  -22.9620   -4.3890   21.6930 F   0  0  0  0  0  0  0  0  0  0  0  0
  -20.9180   -4.1870   26.0030 F   0  0  0  0  0  0  0  0  0  0  0  0
  -22.8580  -13.6030   21.4450 C   0  0  0  0  0  0  0  0  0  0  0  0
  -22.3280  -12.8260   22.3730 N   0  0  0  0  0  0  0  0  0  0  0  0
  -22.2620  -14.5630   20.9630 O   0  0  0  0  0  0  0  0  0  0  0  0
  -22.8540  -12.0630   22.7740 H   0  0  0  0  0  0  0  0  0  0  0  0
  -21.3760  -12.9800   22.6740 H   0  0  0  0  0  0  0  0  0  0  0  0
  -24.8870  -15.7910   20.8620 N   0  0  0  0  0  0  0  0  0  0  0  0
  -23.9420  -16.1520   20.9270 H   0  0  0  0  0  0  0  0  0  0  0  0
  -25.5420  -16.4480   20.4560 H   0  0  0  0  0  0  0  0  0  0  0  0
  -31.5120  -17.1230   22.9680 C   0  0  0  0  0  2  0  0  0  0  0  0
  -30.5420  -19.0490   24.3600 C   0  0  0  0  0  1  0  0  0  0  0  0
  -30.2950  -18.0210   23.2440 C   0  0  0  0  0  2  0  0  0  0  0  0
  -27.1830  -20.5360   18.9340 C   0  0  0  0  0  2  0  0  0  0  0  0
  -27.1840  -20.7240   17.7130 O   0  0  0  0  0  0  0  0  0  0  0  0
  -26.9710  -22.5920   19.7050 C   0  0  0  0  0 15  0  0  0  0  0  0
  -27.3670  -24.6530   19.6010 O   0  0  0  0  0  1  0  0  0  0  0  0
  -24.6520  -31.8890   23.0050 C   0  0  0  0  0  0  0  0  0  0  0  0
  -26.7280  -26.2440   19.7980 C   0  0  0  0  0  0  0  0  0  0  0  0
  -23.4350  -30.5150   21.4030 C   0  0  0  0  0  3  0  0  0  0  0  0
  -24.7690  -28.7860   19.9150 C   0  0  0  0  0  0  0  0  0  0  0  0
  -26.0310  -30.4060   21.2780 C   0  0  0  0  0  2  0  0  0  0  0  0
  -25.9980  -28.9310   20.5580 C   0  0  0  0  0  0  0  0  0  0  0  0
  -26.9630  -27.7030   20.4510 C   0  0  0  0  0  3  0  0  0  0  0  0
  -25.5230  -26.5070   19.0990 C   0  0  0  0  0  3  0  0  0  0  0  0
  -24.6140  -27.6170   19.1580 C   0  0  0  0  0  3  0  0  0  0  0  0
  -23.6420  -29.8440   20.0140 C   0  0  0  0  0  2  0  0  0  0  0  0
  -24.7480  -30.9910   21.9420 N   0  0  0  0  0  0  0  0  0  0  0  0
  -23.5580  -32.2050   23.5130 O   0  0  0  0  0  0  0  0  0  0  0  0
  -22.7110  -29.5480   22.3830 C   0  0  0  0  0  0  0  0  0  0  0  0
  -21.3770  -29.3810   22.2670 N   0  0  0  0  0  0  0  0  0  0  0  0
  -23.3690  -28.9470   23.2350 O   0  0  0  0  0  0  0  0  0  0  0  0
  -20.8880  -29.9160   21.5640 H   0  0  0  0  0  0  0  0  0  0  0  0
  -18.0290  -28.0320   22.7670 C   0  0  0  0  0  0  0  0  0  0  0  0
  -20.5730  -28.4300   23.0490 C   0  0  0  0  0  3  0  0  0  0  0  0
  -20.7430  -26.9890   22.5120 C   0  0  0  0  0  2  0  0  0  0  0  0
  -19.6730  -26.5970   21.4880 C   0  0  0  0  0  2  0  0  0  0  0  0
  -18.2790  -26.6850   22.1110 C   0  0  0  0  0  2  0  0  0  0  0  0
  -19.1060  -28.8590   23.1920 C   0  0  0  0  0  0  0  0  0  0  0  0
  -18.8140  -30.1120   23.7740 C   0  0  0  0  0  3  0  0  0  0  0  0
  -17.4820  -30.5430   23.9290 C   0  0  0  0  0  3  0  0  0  0  0  0
  -16.4230  -29.7180   23.5150 C   0  0  0  0  0  3  0  0  0  0  0  0
  -16.6970  -28.4640   22.9410 C   0  0  0  0  0  3  0  0  0  0  0  0
  -25.8940  -32.5790   23.6470 C   0  0  0  0  0  3  0  0  0  0  0  0
  -25.5440  -33.9810   23.9890 N   0  0  0  0  0  0  0  0  0  0  0  0
  -25.9050  -35.0750   23.3020 C   0  0  0  0  0  0  0  0  0  0  0  0
  -26.6120  -35.0120   22.2940 O   0  0  0  0  0  0  0  0  0  0  0  0
  -24.9130  -34.1000   24.7680 H   0  0  0  0  0  0  0  0  0  0  0  0
  -24.1950  -36.9070   22.9820 C   0  0  0  0  0  1  0  0  0  0  0  0
  -25.4130  -36.4550   23.8030 C   0  0  0  0  0  3  0  0  0  0  0  0
  -27.5250  -37.3150   24.7230 C   0  0  0  0  0  1  0  0  0  0  0  0
  -26.4520  -37.5100   23.7540 N   0  0  0  0  0  0  0  0  0  0  0  0
  -26.0420  -38.4270   23.9150 H   0  0  0  0  0  0  0  0  0  0  0  0
  -26.3920  -31.8490   24.9580 C   0  0  1  0  0  0  0  0  0  0  0  0
  -25.2860  -31.6320   26.0200 C   0  0  0  0  0  1  0  0  0  0  0  0
  -26.9910  -30.4660   24.6340 C   0  0  0  0  0  1  0  0  0  0  0  0
  -27.5290  -32.6680   25.6140 C   0  0  0  0  0  1  0  0  0  0  0  0
  1  4  1  0
  3  6  1  0
  4  3  1  0
  5  8  1  0
  6  8  1  0
  6  7  1  0
  9  5  1  0
 11  7  1  0
 11 10  1  0
 11 48  1  0
 12 10  1  0
 15  5  1  0
 16 23  1  0
 18 12  1  0
 19 12  2  0
 20 45  1  0
 20 21  2  0
 21 40  1  0
 22 25  1  0
 22 21  1  0
 23 24  1  0
 23 20  1  0
 24 22  2  0
 25 26  1  0
 26 27  2  0
 28 31  1  0
 28 27  1  0
 29 28  2  0
 30 29  1  0
 30 25  2  0
 31 32  1  0
 32 37  2  0
 32 33  1  0
 33 34  2  0
 34 35  1  0
 35 39  1  0
 36 35  2  0
 37 36  1  0
 38 37  1  0
 40 41  1  0
 41 44  1  0
 41 43  1  0
 42 40  2  0
 45 46  1  0
 47 45  1  0
 48 50  1  0
 50 49  1  0
 52 51  2  0
 54 56  1  0
 55 66  2  0
 56 61  1  0
 57 65  1  0
 57 67  1  0
 58 64  1  0
 58 60  1  0
 59 65  1  0
 60 59  1  0
 61 60  2  0
 62 63  1  0
 62 56  2  0
 63 58  2  0
 64 57  1  0
 65 55  1  0
 67 69  2  0
 68 67  1  0
 70 68  1  0
 71 80  2  0
 71 76  1  0
 72 68  1  0
 72 76  1  0
 73 72  1  0
 74 75  1  0
 74 73  1  0
 75 71  1  0
 76 77  2  0
 77 78  1  0
 79 78  2  0
 80 79  1  0
 81 55  1  0
 81 82  1  0
 81 91  1  0
 82 85  1  0
 83 87  1  0
 83 82  1  0
 84 83  2  0
 87 86  1  0
 89 87  1  0
 89 90  1  0
 89 88  1  0
 91 94  1  1
 91 92  1  0
 93 91  1  0
M  ISO  4  10 100  12 100  53 101  54 101
M  END
>  <TORSDO>  (84) 
F 21

>  <SCORE>  (84) 
-3.234

>  <name>  (84) 
83

>  <ligand_id>  (84) 
83

>  <original_smiles>  (84) 
[H]C(C(=O)N1C([H])([H])C([H])([H])C([H])([H])C([H])(n2nc(-c3c([H])c([H])c(Oc4c([H])c([H])c(F)c([H])c4F)c([H])c3[H])c(C(=O)N([H])[H])c2N([H])[H])C1([H])[H])=C(C([H])([H])C([H])([H])C([H])([H])[H])C1([H])c2c([H])c(C(=O)C([H])([H])Oc3c([H])c([H])c4c(c3[H])C([H])([H])N(C(=O)C([H])(N([H])C(=O)C([H])(N([H])C([H])([H])[H])C([H])([H])[H])C(C([H])([H])[H])(C([H])([H])[H])C([H])([H])[H])C([H])(C(=O)N([H])C3([H])c5c([H])c([H])c([H])c([H])c5C([H])([H])C([H])([H])C3([H])[H])C4([H])[H])c([H])c([H])c2C1([H])C([H])([H])[H]

>  <smiles>  (84) 
[H]C(C(=O)N1C([H])([H])C([H])([H])C([H])([H])C([H])(n2nc(-c3c([H])c([H])c(Oc4c([H])c([H])c(F)c([H])c4F)c([H])c3[H])c(C(=O)N([H])[H])c2N([H])[H])C1([H])[H])=C(C([H])([H])C([H])([H])C([H])([H])[H])C1([H])c2c([H])c(C(=O)C([H])([H])Oc3c([H])c([H])c4c(c3[H])C([H])([H])N(C(=O)C([H])(N([H])C(=O)C([H])(N([H])C([H])([H])[H])C([H])([H])[H])C(C([H])([H])[H])(C([H])([H])[H])C([H])([H])[H])C([H])(C(=O)N([H])C3([H])c5c([H])c([H])c([H])c([H])c5C([H])([H])C([H])([H])C3([H])[H])C4([H])[H])c([H])c([H])c2C1([H])C([H])([H])[H]

$$$$
84:0:0
     RDKit          3D

 94102  0  0  1  0  0  0  0  0999 V2000
  -29.2440  -19.0580   20.2330 C   0  0  0  0  0  2  0  0  0  0  0  0
  -32.4050  -19.7970   23.1580 C   0  0  0  0  0  3  0  0  0  0  0  0
  -31.2200  -20.5430   23.1680 C   0  0  0  0  0  3  0  0  0  0  0  0
  -32.5920  -18.7970   22.1890 C   0  0  0  0  0  3  0  0  0  0  0  0
  -30.2270  -20.2760   22.2110 C   0  0  0  0  0  3  0  0  0  0  0  0
  -31.6080  -18.5100   21.2100 C   0  0  0  0  0  0  0  0  0  0  0  0
  -30.3980  -19.2780   21.2190 C   0  0  0  0  0  0  0  0  0  0  0  0
  -32.2460  -16.1640   20.6950 C   0  0  0  0  0  3  0  0  0  0  0  0
  -31.9480  -17.4160   20.2640 C   0  0  0  0  0  0  0  0  0  0  0  0
  -32.7460  -15.0680   19.8630 C   0  0  0  0  0  0  0  0  0  0  0  0
  -32.3120  -12.7830   19.0230 C   0  0  0  0  0  2  0  0  0  0  0  0
  -31.3170  -12.8290   17.8480 C   0  0  0  0  0  2  0  0  0  0  0  0
  -29.8580  -12.8280   18.3450 C   0  0  0  0  0  2  0  0  0  0  0  0
  -29.6160  -13.8660   19.4700 C   0  0  0  0  0  3  0  0  0  0  0  0
  -30.7030  -13.7410   20.5550 C   0  0  0  0  0  2  0  0  0  0  0  0
  -32.0200  -13.9170   19.9160 N   0  0  0  0  0  0  0  0  0  0  0  0
  -33.7720  -15.1550   19.1790 O   0  0  0  0  0  0  0  0  0  0  0  0
  -27.3900  -14.7420   20.4250 C   0  0  0  0  0  0  0  0  0  0  0  0
  -26.2490  -14.1010   20.8220 C   0  0  0  0  0  0  0  0  0  0  0  0
  -26.4940  -12.7070   20.6410 C   0  0  0  0  0  0  0  0  0  0  0  0
  -28.2720  -13.7460   20.0360 N   0  0  0  0  0  0  0  0  0  0  0  0
  -27.7360  -12.5110   20.2180 N   0  0  0  0  0  0  0  0  0  0  0  0
  -25.6030  -11.5510   20.7970 C   0  0  0  0  0  0  0  0  0  0  0  0
  -25.8490  -10.5500   21.7630 C   0  0  0  0  0  3  0  0  0  0  0  0
  -24.9700   -9.4560   21.9020 C   0  0  0  0  0  3  0  0  0  0  0  0
  -23.8280   -9.3500   21.0720 C   0  0  0  0  0  0  0  0  0  0  0  0
  -23.6010  -10.3350   20.0950 C   0  0  0  0  0  3  0  0  0  0  0  0
  -24.4800  -11.4220   19.9550 C   0  0  0  0  0  3  0  0  0  0  0  0
  -22.9380   -8.3060   21.1170 O   0  0  0  0  0  0  0  0  0  0  0  0
  -22.5470   -7.7440   22.3040 C   0  0  0  0  0  0  0  0  0  0  0  0
  -21.9250   -8.5040   23.3180 C   0  0  0  0  0  3  0  0  0  0  0  0
  -21.4760   -7.8730   24.4960 C   0  0  0  0  0  3  0  0  0  0  0  0
  -21.6430   -6.4840   24.6580 C   0  0  0  0  0  0  0  0  0  0  0  0
  -22.2550   -5.7250   23.6460 C   0  0  0  0  0  3  0  0  0  0  0  0
  -22.7030   -6.3530   22.4710 C   0  0  0  0  0  0  0  0  0  0  0  0
  -23.2780   -5.6160   21.4890 F   0  0  0  0  0  0  0  0  0  0  0  0
  -21.2030   -5.8740   25.7830 F   0  0  0  0  0  0  0  0  0  0  0  0
  -24.9630  -14.7460   21.2550 C   0  0  0  0  0  0  0  0  0  0  0  0
  -24.2580  -14.1360   22.2010 N   0  0  0  0  0  0  0  0  0  0  0  0
  -24.5980  -15.8220   20.7820 O   0  0  0  0  0  0  0  0  0  0  0  0
  -24.5670  -13.2650   22.6070 H   0  0  0  0  0  0  0  0  0  0  0  0
  -23.3950  -14.5470   22.5260 H   0  0  0  0  0  0  0  0  0  0  0  0
  -27.7520  -16.0860   20.3450 N   0  0  0  0  0  0  0  0  0  0  0  0
  -27.1140  -16.8390   20.5780 H   0  0  0  0  0  0  0  0  0  0  0  0
  -28.6460  -16.4200   19.9990 H   0  0  0  0  0  0  0  0  0  0  0  0
  -32.0480  -17.8030   18.9810 O   0  0  0  0  0  0  0  0  0  0  0  0
  -31.8620  -18.7330   18.9590 H   0  0  0  0  0  0  0  0  0  0  0  0
  -28.6320  -20.3610   19.6620 C   0  0  0  0  0  2  0  0  0  0  0  0
  -28.2840  -20.2930   18.1670 C   0  0  0  0  0  2  0  0  0  0  0  0
  -27.5900  -21.5580   17.6200 C   0  0  0  0  0  2  0  0  0  0  0  0
  -28.4900  -22.5170   16.7930 C   0  0  0  0  0  2  0  0  0  0  0  0
  -29.7410  -23.1920   17.4700 C   0  0  0  0  0  2  0  0  0  0  0  0
  -29.7500  -24.1990   18.6790 C   0  0  0  0  0  2  0  0  0  0  0  0
  -29.8400  -25.6020   18.3630 O   0  0  0  0  0  0  0  0  0  0  0  0
  -26.2640  -29.2170   23.3170 C   0  0  0  0  0  0  0  0  0  0  0  0
  -28.7080  -26.3230   18.6640 C   0  0  0  0  0  0  0  0  0  0  0  0
  -24.9790  -28.6060   21.2910 C   0  0  0  0  0  3  0  0  0  0  0  0
  -26.3570  -27.7390   19.3290 C   0  0  0  0  0  0  0  0  0  0  0  0
  -27.5140  -28.9580   21.1830 C   0  0  0  0  0  2  0  0  0  0  0  0
  -27.5410  -27.9640   20.0430 C   0  0  0  0  0  0  0  0  0  0  0  0
  -28.7230  -27.2680   19.7100 C   0  0  0  0  0  3  0  0  0  0  0  0
  -27.5120  -26.1240   17.9440 C   0  0  0  0  0  3  0  0  0  0  0  0
  -26.3370  -26.8190   18.2690 C   0  0  0  0  0  3  0  0  0  0  0  0
  -25.1390  -28.5270   19.7510 C   0  0  0  0  0  2  0  0  0  0  0  0
  -26.2720  -28.9170   21.9880 N   0  0  0  0  0  0  0  0  0  0  0  0
  -25.2020  -29.2740   23.9510 O   0  0  0  0  0  0  0  0  0  0  0  0
  -24.3220  -27.2990   21.7890 C   0  0  0  0  0  0  0  0  0  0  0  0
  -23.0150  -27.1510   21.5180 N   0  0  0  0  0  0  0  0  0  0  0  0
  -24.9800  -26.4360   22.3740 O   0  0  0  0  0  0  0  0  0  0  0  0
  -22.5490  -27.8920   21.0120 H   0  0  0  0  0  0  0  0  0  0  0  0
  -19.6890  -25.7500   21.2660 C   0  0  0  0  0  0  0  0  0  0  0  0
  -22.1940  -25.9910   21.8660 C   0  0  0  0  0  3  0  0  0  0  0  0
  -22.4380  -24.8380   20.8630 C   0  0  0  0  0  2  0  0  0  0  0  0
  -21.4410  -24.8440   19.7040 C   0  0  0  0  0  2  0  0  0  0  0  0
  -20.0140  -24.6850   20.2290 C   0  0  0  0  0  2  0  0  0  0  0  0
  -20.7140  -26.3710   22.0250 C   0  0  0  0  0  0  0  0  0  0  0  0
  -20.3620  -27.3760   22.9530 C   0  0  0  0  0  3  0  0  0  0  0  0
  -19.0200  -27.7750   23.1140 C   0  0  0  0  0  3  0  0  0  0  0  0
  -18.0110  -27.1460   22.3670 C   0  0  0  0  0  3  0  0  0  0  0  0
  -18.3450  -26.1310   21.4540 C   0  0  0  0  0  3  0  0  0  0  0  0
  -27.5830  -29.5220   24.0940 C   0  0  0  0  0  3  0  0  0  0  0  0
  -28.0540  -28.3280   25.0120 C   0  0  1  0  0  0  0  0  0  0  0  0
  -26.9510  -27.7900   25.9520 C   0  0  0  0  0  1  0  0  0  0  0  0
  -28.5550  -27.1440   24.1540 C   0  0  0  0  0  1  0  0  0  0  0  0
  -29.2520  -28.7770   25.8820 C   0  0  0  0  0  1  0  0  0  0  0  0
  -27.3530  -30.7320   24.8910 N   0  0  0  0  0  0  0  0  0  0  0  0
  -27.8060  -31.9510   24.5680 C   0  0  0  0  0  0  0  0  0  0  0  0
  -28.5310  -32.1590   23.5910 O   0  0  0  0  0  0  0  0  0  0  0  0
  -26.7260  -30.6480   25.6770 H   0  0  0  0  0  0  0  0  0  0  0  0
  -26.2610  -33.9210   24.7910 C   0  0  0  0  0  1  0  0  0  0  0  0
  -27.3880  -33.1270   25.4720 C   0  0  0  0  0  3  0  0  0  0  0  0
  -29.4970  -33.4210   26.6930 C   0  0  0  0  0  1  0  0  0  0  0  0
  -28.5070  -34.0340   25.8110 N   0  0  0  0  0  0  0  0  0  0  0  0
  -28.1640  -34.8810   26.2550 H   0  0  0  0  0  0  0  0  0  0  0  0
  1  7  1  0
  2  3  1  0
  4  2  2  0
  5  3  2  0
  6  7  2  0
  6  4  1  0
  7  5  1  0
  9  8  2  0
  9  6  1  0
 10 16  1  0
 10  8  1  0
 11 16  1  0
 12 13  1  0
 12 11  1  0
 14 13  1  0
 14 21  1  0
 14 15  1  0
 16 15  1  0
 17 10  2  0
 18 19  2  0
 19 38  1  0
 20 23  1  0
 20 19  1  0
 21 22  1  0
 21 18  1  0
 22 20  2  0
 23 24  1  0
 24 25  2  0
 26 29  1  0
 26 25  1  0
 27 26  2  0
 28 27  1  0
 28 23  2  0
 29 30  1  0
 30 35  2  0
 30 31  1  0
 31 32  2  0
 32 33  1  0
 33 37  1  0
 34 33  2  0
 35 34  1  0
 36 35  1  0
 38 39  1  0
 39 42  1  0
 39 41  1  0
 40 38  2  0
 43 18  1  0
 43 44  1  0
 45 43  1  0
 46  9  1  0
 47 46  1  0
 48  1  1  0
 49 48  1  0
 50 49  1  0
 51 52  1  0
 51 50  1  0
 52 53  1  0
 54 56  1  0
 54 53  1  0
 55 66  2  0
 56 61  1  0
 57 67  1  0
 57 65  1  0
 58 64  1  0
 58 60  1  0
 59 65  1  0
 60 59  1  0
 61 60  2  0
 62 63  1  0
 62 56  2  0
 63 58  2  0
 64 57  1  0
 65 55  1  0
 67 69  2  0
 68 67  1  0
 70 68  1  0
 71 80  2  0
 71 76  1  0
 72 68  1  0
 72 76  1  0
 73 72  1  0
 74 75  1  0
 74 73  1  0
 75 71  1  0
 76 77  2  0
 77 78  1  0
 79 78  2  0
 80 79  1  0
 81 55  1  0
 81 86  1  0
 81 82  1  0
 82 85  1  1
 82 83  1  0
 84 82  1  0
 86 89  1  0
 87 86  1  0
 87 91  1  0
 88 87  2  0
 91 90  1  0
 91 93  1  0
 93 94  1  0
 93 92  1  0
M  ISO  4   8 100  10 100  53 101  54 101
M  END
>  <TORSDO>  (85) 
F 25

>  <SCORE>  (85) 
-6.479

>  <name>  (85) 
84

>  <ligand_id>  (85) 
84

>  <original_smiles>  (85) 
[H]OC(=C([H])C(=O)N1C([H])([H])C([H])([H])C([H])([H])C([H])(n2nc(-c3c([H])c([H])c(Oc4c([H])c([H])c(F)c([H])c4F)c([H])c3[H])c(C(=O)N([H])[H])c2N([H])[H])C1([H])[H])c1c([H])c([H])c([H])c([H])c1C([H])([H])C([H])([H])C([H])([H])C([H])([H])C([H])([H])C([H])([H])C([H])([H])Oc1c([H])c([H])c2c(c1[H])C([H])([H])N(C(=O)C([H])(N([H])C(=O)C([H])(N([H])C([H])([H])[H])C([H])([H])[H])C(C([H])([H])[H])(C([H])([H])[H])C([H])([H])[H])C([H])(C(=O)N([H])C1([H])c3c([H])c([H])c([H])c([H])c3C([H])([H])C([H])([H])C1([H])[H])C2([H])[H]

>  <smiles>  (85) 
[H]OC(=C([H])C(=O)N1C([H])([H])C([H])([H])C([H])([H])C([H])(n2nc(-c3c([H])c([H])c(Oc4c([H])c([H])c(F)c([H])c4F)c([H])c3[H])c(C(=O)N([H])[H])c2N([H])[H])C1([H])[H])c1c([H])c([H])c([H])c([H])c1C([H])([H])C([H])([H])C([H])([H])C([H])([H])C([H])([H])C([H])([H])C([H])([H])Oc1c([H])c([H])c2c(c1[H])C([H])([H])N(C(=O)C([H])(N([H])C(=O)C([H])(N([H])C([H])([H])[H])C([H])([H])[H])C(C([H])([H])[H])(C([H])([H])[H])C([H])([H])[H])C([H])(C(=O)N([H])C1([H])c3c([H])c([H])c([H])c([H])c3C([H])([H])C([H])([H])C1([H])[H])C2([H])[H]

$$$$
85:0:0
     RDKit          3D

 93101  0  0  1  0  0  0  0  0999 V2000
  -28.4180  -23.1480   23.3430 C   0  0  0  0  0  3  0  0  0  0  0  0
  -28.0780  -24.5070   23.2780 C   0  0  0  0  0  3  0  0  0  0  0  0
  -28.8580  -22.4830   22.1870 C   0  0  0  0  0  3  0  0  0  0  0  0
  -28.1860  -25.1960   22.0590 C   0  0  0  0  0  3  0  0  0  0  0  0
  -28.9630  -23.1500   20.9430 C   0  0  0  0  0  0  0  0  0  0  0  0
  -28.6380  -24.5540   20.8790 C   0  0  0  0  0  0  0  0  0  0  0  0
  -29.4920  -22.3070   19.7610 C   0  0  0  0  0  2  0  0  0  0  0  0
  -28.3200  -20.6860   18.1690 C   0  0  0  0  0  1  0  0  0  0  0  0
  -28.8730  -20.8620   19.5970 C   0  0  0  0  0  3  0  0  0  0  0  0
  -29.4660  -18.4740   20.2270 C   0  0  0  0  0  0  0  0  0  0  0  0
  -29.8120  -19.7430   19.8900 N   0  0  0  0  0  0  0  0  0  0  0  0
  -28.2900  -18.1710   20.4350 O   0  0  0  0  0  0  0  0  0  0  0  0
  -30.7970  -19.9290   19.7530 H   0  0  0  0  0  0  0  0  0  0  0  0
  -30.5680  -17.3790   20.3220 C   0  0  0  0  0  2  0  0  0  0  0  0
  -30.1340  -16.0020   20.9590 C   0  0  0  0  0  2  0  0  0  0  0  0
  -30.8950  -14.7390   20.4500 C   0  0  0  0  0  0  0  0  0  0  0  0
  -30.6990  -12.4840   19.4410 C   0  0  0  0  0  2  0  0  0  0  0  0
  -29.7960  -12.5790   18.1920 C   0  0  0  0  0  2  0  0  0  0  0  0
  -28.3070  -12.4530   18.5730 C   0  0  0  0  0  2  0  0  0  0  0  0
  -27.9160  -13.3740   19.7590 C   0  0  0  0  0  3  0  0  0  0  0  0
  -28.9300  -13.2390   20.9180 C   0  0  0  0  0  2  0  0  0  0  0  0
  -30.2670  -13.5300   20.3830 N   0  0  0  0  0  0  0  0  0  0  0  0
  -32.0420  -14.8910   20.0170 O   0  0  0  0  0  0  0  0  0  0  0  0
  -25.5070  -14.0280   20.3790 C   0  0  0  0  0  0  0  0  0  0  0  0
  -24.4170  -13.2760   20.7280 C   0  0  0  0  0  0  0  0  0  0  0  0
  -24.8640  -11.9190   20.7440 C   0  0  0  0  0  0  0  0  0  0  0  0
  -26.5470  -13.1290   20.2030 N   0  0  0  0  0  0  0  0  0  0  0  0
  -26.1620  -11.8570   20.4810 N   0  0  0  0  0  0  0  0  0  0  0  0
  -24.1170  -10.6700   20.9390 C   0  0  0  0  0  0  0  0  0  0  0  0
  -24.4780   -9.7420   21.9400 C   0  0  0  0  0  3  0  0  0  0  0  0
  -23.7340   -8.5560   22.1200 C   0  0  0  0  0  3  0  0  0  0  0  0
  -22.6140   -8.2900   21.2970 C   0  0  0  0  0  0  0  0  0  0  0  0
  -22.2720   -9.2060   20.2870 C   0  0  0  0  0  3  0  0  0  0  0  0
  -23.0170  -10.3840   20.1060 C   0  0  0  0  0  3  0  0  0  0  0  0
  -21.8480   -7.1530   21.3820 O   0  0  0  0  0  0  0  0  0  0  0  0
  -21.6890   -6.4800   22.5660 C   0  0  0  0  0  0  0  0  0  0  0  0
  -21.1320   -7.0970   23.7070 C   0  0  0  0  0  3  0  0  0  0  0  0
  -20.9230   -6.3480   24.8830 C   0  0  0  0  0  3  0  0  0  0  0  0
  -21.2600   -4.9820   24.9170 C   0  0  0  0  0  0  0  0  0  0  0  0
  -21.8100   -4.3640   23.7800 C   0  0  0  0  0  3  0  0  0  0  0  0
  -22.0210   -5.1100   22.6070 C   0  0  0  0  0  0  0  0  0  0  0  0
  -22.5320   -4.5040   21.5080 F   0  0  0  0  0  0  0  0  0  0  0  0
  -21.0530   -4.2600   26.0420 F   0  0  0  0  0  0  0  0  0  0  0  0
  -23.0180  -13.7750   20.9460 C   0  0  0  0  0  0  0  0  0  0  0  0
  -22.2600  -13.1130   21.8140 N   0  0  0  0  0  0  0  0  0  0  0  0
  -22.6050  -14.7870   20.3830 O   0  0  0  0  0  0  0  0  0  0  0  0
  -22.6080  -12.2940   22.2900 H   0  0  0  0  0  0  0  0  0  0  0  0
  -21.3200  -13.4290   22.0040 H   0  0  0  0  0  0  0  0  0  0  0  0
  -25.6950  -15.3930   20.1820 N   0  0  0  0  0  0  0  0  0  0  0  0
  -24.9390  -16.0620   20.2770 H   0  0  0  0  0  0  0  0  0  0  0  0
  -26.5790  -15.8290   19.9460 H   0  0  0  0  0  0  0  0  0  0  0  0
  -28.7770  -25.4230   19.6100 C   0  0  0  0  0  2  0  0  0  0  0  0
  -28.6930  -26.8660   19.8150 O   0  0  0  0  0  0  0  0  0  0  0  0
  -24.6730  -31.7980   23.0920 C   0  0  0  0  0  0  0  0  0  0  0  0
  -27.4790  -27.5440   19.8340 C   0  0  0  0  0  0  0  0  0  0  0  0
  -23.5270  -30.4290   21.3840 C   0  0  0  0  0  3  0  0  0  0  0  0
  -25.0370  -28.9990   19.9060 C   0  0  0  0  0  0  0  0  0  0  0  0
  -26.0470  -30.8650   21.2260 C   0  0  0  0  0  2  0  0  0  0  0  0
  -26.1780  -29.5260   20.5210 C   0  0  0  0  0  0  0  0  0  0  0  0
  -27.4000  -28.8090   20.4760 C   0  0  0  0  0  3  0  0  0  0  0  0
  -26.3090  -27.0370   19.2240 C   0  0  0  0  0  3  0  0  0  0  0  0
  -25.1000  -27.7560   19.2560 C   0  0  0  0  0  3  0  0  0  0  0  0
  -23.7680  -29.8190   19.9790 C   0  0  0  0  0  2  0  0  0  0  0  0
  -24.7680  -31.0450   21.9590 N   0  0  0  0  0  0  0  0  0  0  0  0
  -23.5790  -32.0130   23.6330 O   0  0  0  0  0  0  0  0  0  0  0  0
  -22.9040  -29.3460   22.2960 C   0  0  0  0  0  0  0  0  0  0  0  0
  -21.5860  -29.1280   22.1570 N   0  0  0  0  0  0  0  0  0  0  0  0
  -23.6050  -28.7040   23.0840 O   0  0  0  0  0  0  0  0  0  0  0  0
  -21.0810  -29.6990   21.4950 H   0  0  0  0  0  0  0  0  0  0  0  0
  -18.2460  -27.8200   22.6060 C   0  0  0  0  0  0  0  0  0  0  0  0
  -20.7970  -28.1310   22.8820 C   0  0  0  0  0  3  0  0  0  0  0  0
  -20.9350  -26.7340   22.2320 C   0  0  0  0  0  2  0  0  0  0  0  0
  -19.8360  -26.4350   21.2080 C   0  0  0  0  0  2  0  0  0  0  0  0
  -18.4530  -26.5110   21.8620 C   0  0  0  0  0  2  0  0  0  0  0  0
  -19.3470  -28.5890   23.0700 C   0  0  0  0  0  0  0  0  0  0  0  0
  -19.0980  -29.8150   23.7250 C   0  0  0  0  0  3  0  0  0  0  0  0
  -17.7820  -30.2720   23.9210 C   0  0  0  0  0  3  0  0  0  0  0  0
  -16.6960  -29.5010   23.4710 C   0  0  0  0  0  3  0  0  0  0  0  0
  -16.9290  -28.2760   22.8200 C   0  0  0  0  0  3  0  0  0  0  0  0
  -25.9320  -32.4460   23.7470 C   0  0  0  0  0  3  0  0  0  0  0  0
  -25.5760  -33.8220   24.1230 N   0  0  0  0  0  0  0  0  0  0  0  0
  -25.8860  -34.9100   23.4070 C   0  0  0  0  0  0  0  0  0  0  0  0
  -26.5710  -34.8640   22.3810 O   0  0  0  0  0  0  0  0  0  0  0  0
  -24.9660  -33.9290   24.9200 H   0  0  0  0  0  0  0  0  0  0  0  0
  -24.1120  -36.6630   23.0860 C   0  0  0  0  0  1  0  0  0  0  0  0
  -25.3500  -36.2660   23.9050 C   0  0  0  0  0  3  0  0  0  0  0  0
  -27.4400  -37.1810   24.8120 C   0  0  0  0  0  1  0  0  0  0  0  0
  -26.3550  -37.3510   23.8510 N   0  0  0  0  0  0  0  0  0  0  0  0
  -25.9200  -38.2540   24.0190 H   0  0  0  0  0  0  0  0  0  0  0  0
  -26.4640  -31.6470   25.0000 C   0  0  1  0  0  0  0  0  0  0  0  0
  -25.3690  -31.3280   26.0440 C   0  0  0  0  0  1  0  0  0  0  0  0
  -27.1060  -30.3110   24.5620 C   0  0  0  0  0  1  0  0  0  0  0  0
  -27.5770  -32.4600   25.7030 C   0  0  0  0  0  1  0  0  0  0  0  0
  2  1  1  0
  3  1  2  0
  4  2  2  0
  5  3  1  0
  6  5  2  0
  6  4  1  0
  7  5  1  0
  9  8  1  0
  9  7  1  0
  9 11  1  0
 10 14  1  0
 10 12  2  0
 11 10  1  0
 13 11  1  0
 14 15  1  0
 16 15  1  0
 17 22  1  0
 18 19  1  0
 18 17  1  0
 20 19  1  0
 20 27  1  0
 20 21  1  0
 22 16  1  0
 22 21  1  0
 23 16  2  0
 24 25  2  0
 25 26  1  0
 25 44  1  0
 26 29  1  0
 27 24  1  0
 27 28  1  0
 28 26  2  0
 29 30  1  0
 30 31  2  0
 32 35  1  0
 32 31  1  0
 33 32  2  0
 34 33  1  0
 34 29  2  0
 35 36  1  0
 36 41  2  0
 36 37  1  0
 37 38  2  0
 38 39  1  0
 39 43  1  0
 40 39  2  0
 41 40  1  0
 42 41  1  0
 44 45  1  0
 45 48  1  0
 45 47  1  0
 46 44  2  0
 49 50  1  0
 49 24  1  0
 51 49  1  0
 52 53  1  0
 52  6  1  0
 53 55  1  0
 54 65  2  0
 55 60  1  0
 56 64  1  0
 56 66  1  0
 57 63  1  0
 57 59  1  0
 58 64  1  0
 59 58  1  0
 60 59  2  0
 61 62  1  0
 61 55  2  0
 62 57  2  0
 63 56  1  0
 64 54  1  0
 66 68  2  0
 67 66  1  0
 69 67  1  0
 70 79  2  0
 70 75  1  0
 71 67  1  0
 71 75  1  0
 72 71  1  0
 73 74  1  0
 73 72  1  0
 74 70  1  0
 75 76  2  0
 76 77  1  0
 78 77  2  0
 79 78  1  0
 80 54  1  0
 80 81  1  0
 80 90  1  0
 81 84  1  0
 82 86  1  0
 82 81  1  0
 83 82  2  0
 86 85  1  0
 88 86  1  0
 88 89  1  0
 88 87  1  0
 90 93  1  1
 90 91  1  0
 92 90  1  0
M  ISO  4  15 100  16 100  52 101  53 101
M  END
>  <TORSDO>  (86) 
F 22

>  <SCORE>  (86) 
-11.198

>  <name>  (86) 
85

>  <ligand_id>  (86) 
85

>  <original_smiles>  (86) 
[H]c1c([H])c([H])c(C([H])([H])C([H])(N([H])C(=O)C([H])([H])C([H])([H])C(=O)N2C([H])([H])C([H])([H])C([H])([H])C([H])(n3nc(-c4c([H])c([H])c(Oc5c([H])c([H])c(F)c([H])c5F)c([H])c4[H])c(C(=O)N([H])[H])c3N([H])[H])C2([H])[H])C([H])([H])[H])c(C([H])([H])Oc2c([H])c([H])c3c(c2[H])C([H])([H])N(C(=O)C([H])(N([H])C(=O)C([H])(N([H])C([H])([H])[H])C([H])([H])[H])C(C([H])([H])[H])(C([H])([H])[H])C([H])([H])[H])C([H])(C(=O)N([H])C2([H])c4c([H])c([H])c([H])c([H])c4C([H])([H])C([H])([H])C2([H])[H])C3([H])[H])c1[H]

>  <smiles>  (86) 
[H]c1c([H])c([H])c(C([H])([H])C([H])(N([H])C(=O)C([H])([H])C([H])([H])C(=O)N2C([H])([H])C([H])([H])C([H])([H])C([H])(n3nc(-c4c([H])c([H])c(Oc5c([H])c([H])c(F)c([H])c5F)c([H])c4[H])c(C(=O)N([H])[H])c3N([H])[H])C2([H])[H])C([H])([H])[H])c(C([H])([H])Oc2c([H])c([H])c3c(c2[H])C([H])([H])N(C(=O)C([H])(N([H])C(=O)C([H])(N([H])C([H])([H])[H])C([H])([H])[H])C(C([H])([H])[H])(C([H])([H])[H])C([H])([H])[H])C([H])(C(=O)N([H])C2([H])c4c([H])c([H])c([H])c([H])c4C([H])([H])C([H])([H])C2([H])[H])C3([H])[H])c1[H]

$$$$
86:0:0
     RDKit          3D

 99108  0  0  1  0  0  0  0  0999 V2000
  -26.9740  -24.7750   20.4120 C   0  0  0  0  0  2  0  0  0  0  0  0
  -27.6500  -23.5550   21.0140 C   0  0  0  0  0  2  0  0  0  0  0  0
  -29.3890  -25.0920   20.3600 C   0  0  0  0  0  2  0  0  0  0  0  0
  -28.0850  -25.5010   19.6250 C   0  0  0  0  0  3  0  0  0  0  0  0
  -29.0390  -24.0420   21.4620 C   0  0  2  0  0  0  0  0  0  0  0  0
  -29.5890  -21.6070   22.0530 C   0  0  0  0  0  3  0  0  0  0  0  0
  -31.4130  -23.0410   21.3330 C   0  0  0  0  0  3  0  0  0  0  0  0
  -30.4850  -20.5320   22.2060 C   0  0  0  0  0  3  0  0  0  0  0  0
  -32.3080  -21.9590   21.4730 C   0  0  0  0  0  3  0  0  0  0  0  0
  -30.0330  -22.8730   21.5970 C   0  0  0  0  0  0  0  0  0  0  0  0
  -31.8490  -20.6910   21.8960 C   0  0  0  0  0  0  0  0  0  0  0  0
  -32.8290  -19.5330   22.0740 C   0  0  0  0  0  2  0  0  0  0  0  0
  -32.8370  -18.4900   20.9270 C   0  0  0  0  0  2  0  0  0  0  0  0
  -31.6920  -17.5410   20.9490 N   0  0  0  0  0  4  0  0  0  0  0  0
  -30.8540  -18.0450   20.7090 H   0  0  0  0  0  0  0  0  0  0  0  0
  -31.5960  -17.1930   21.8900 H   0  0  0  0  0  0  0  0  0  0  0  0
  -31.8440  -16.3880   20.0200 C   0  0  0  0  0  2  0  0  0  0  0  0
  -30.8300  -15.2250   20.2520 C   0  0  0  0  0  2  0  0  0  0  0  0
  -31.0970  -13.9970   19.3490 C   0  0  0  0  0  0  0  0  0  0  0  0
  -30.6430  -11.6590   18.6710 C   0  0  0  0  0  2  0  0  0  0  0  0
  -29.5870  -11.5450   17.5570 C   0  0  0  0  0  2  0  0  0  0  0  0
  -28.1770  -11.4880   18.1680 C   0  0  0  0  0  2  0  0  0  0  0  0
  -27.9270  -12.6350   19.1810 C   0  0  0  0  0  3  0  0  0  0  0  0
  -29.0850  -12.7410   20.2050 C   0  0  0  0  0  2  0  0  0  0  0  0
  -30.3560  -12.8620   19.4700 N   0  0  0  0  0  0  0  0  0  0  0  0
  -32.0240  -14.0750   18.5380 O   0  0  0  0  0  0  0  0  0  0  0  0
  -25.7270  -13.4580   20.2400 C   0  0  0  0  0  0  0  0  0  0  0  0
  -24.6370  -12.7840   20.7270 C   0  0  0  0  0  0  0  0  0  0  0  0
  -24.9360  -11.3950   20.5840 C   0  0  0  0  0  0  0  0  0  0  0  0
  -26.6280  -12.4840   19.8370 N   0  0  0  0  0  0  0  0  0  0  0  0
  -26.1620  -11.2360   20.0990 N   0  0  0  0  0  0  0  0  0  0  0  0
  -24.1070  -10.2060   20.8270 C   0  0  0  0  0  0  0  0  0  0  0  0
  -24.4940   -9.2130   21.7530 C   0  0  0  0  0  3  0  0  0  0  0  0
  -23.6710   -8.0890   21.9850 C   0  0  0  0  0  3  0  0  0  0  0  0
  -22.4450   -7.9530   21.2910 C   0  0  0  0  0  0  0  0  0  0  0  0
  -22.0750   -8.9340   20.3540 C   0  0  0  0  0  3  0  0  0  0  0  0
  -22.8980  -10.0490   20.1210 C   0  0  0  0  0  3  0  0  0  0  0  0
  -21.5930   -6.8850   21.4340 O   0  0  0  0  0  0  0  0  0  0  0  0
  -21.4800   -6.2080   22.6220 C   0  0  0  0  0  0  0  0  0  0  0  0
  -21.0680   -6.8520   23.8090 C   0  0  0  0  0  3  0  0  0  0  0  0
  -20.8970   -6.1050   24.9930 C   0  0  0  0  0  3  0  0  0  0  0  0
  -21.1260   -4.7150   24.9880 C   0  0  0  0  0  0  0  0  0  0  0  0
  -21.5320   -4.0730   23.8040 C   0  0  0  0  0  3  0  0  0  0  0  0
  -21.7030   -4.8170   22.6240 C   0  0  0  0  0  0  0  0  0  0  0  0
  -22.0720   -4.1880   21.4820 F   0  0  0  0  0  0  0  0  0  0  0  0
  -20.9550   -3.9960   26.1220 F   0  0  0  0  0  0  0  0  0  0  0  0
  -23.3510  -13.3900   21.2100 C   0  0  0  0  0  0  0  0  0  0  0  0
  -22.6830  -12.7370   22.1570 N   0  0  0  0  0  0  0  0  0  0  0  0
  -22.9560  -14.4730   20.7840 O   0  0  0  0  0  0  0  0  0  0  0  0
  -23.0180  -11.8570   22.5200 H   0  0  0  0  0  0  0  0  0  0  0  0
  -21.8260  -13.1250   22.5230 H   0  0  0  0  0  0  0  0  0  0  0  0
  -26.0180  -14.8100   20.0880 N   0  0  0  0  0  0  0  0  0  0  0  0
  -25.3540  -15.5400   20.3240 H   0  0  0  0  0  0  0  0  0  0  0  0
  -26.8670  -15.1670   19.6660 H   0  0  0  0  0  0  0  0  0  0  0  0
  -28.9520  -24.6830   22.7860 N   0  0  0  0  0  4  0  0  0  0  0  0
  -28.6660  -24.0090   23.4740 H   0  0  0  0  0  0  0  0  0  0  0  0
  -28.2980  -25.4450   22.7970 H   0  0  0  0  0  0  0  0  0  0  0  0
  -29.8540  -25.0310   23.0570 H   0  0  0  0  0  0  0  0  0  0  0  0
  -28.0400  -26.9350   19.4240 O   0  0  0  0  0  0  0  0  0  0  0  0
  -24.3810  -31.7760   23.0940 C   0  0  0  0  0  0  0  0  0  0  0  0
  -26.8530  -27.6340   19.5100 C   0  0  0  0  0  0  0  0  0  0  0  0
  -23.0760  -30.4740   21.4470 C   0  0  0  0  0  3  0  0  0  0  0  0
  -24.4420  -29.0880   19.7970 C   0  0  0  0  0  0  0  0  0  0  0  0
  -25.5740  -30.9010   21.0920 C   0  0  0  0  0  2  0  0  0  0  0  0
  -25.6310  -29.5860   20.3440 C   0  0  0  0  0  0  0  0  0  0  0  0
  -26.8380  -28.8650   20.2040 C   0  0  0  0  0  3  0  0  0  0  0  0
  -25.6570  -27.1880   18.9020 C   0  0  0  0  0  3  0  0  0  0  0  0
  -24.4500  -27.8840   19.0770 C   0  0  0  0  0  3  0  0  0  0  0  0
  -23.1910  -29.9110   20.0070 C   0  0  0  0  0  2  0  0  0  0  0  0
  -24.3660  -31.0600   21.9350 N   0  0  0  0  0  0  0  0  0  0  0  0
  -23.3410  -31.9840   23.7330 O   0  0  0  0  0  0  0  0  0  0  0  0
  -22.5200  -29.3680   22.3740 C   0  0  0  0  0  0  0  0  0  0  0  0
  -21.2060  -29.1100   22.2710 N   0  0  0  0  0  0  0  0  0  0  0  0
  -23.2660  -28.7460   23.1350 O   0  0  0  0  0  0  0  0  0  0  0  0
  -20.6630  -29.6680   21.6280 H   0  0  0  0  0  0  0  0  0  0  0  0
  -17.9480  -27.6070   22.7060 C   0  0  0  0  0  0  0  0  0  0  0  0
  -20.4700  -28.0890   23.0150 C   0  0  0  0  0  3  0  0  0  0  0  0
  -20.7080  -26.6840   22.4160 C   0  0  0  0  0  2  0  0  0  0  0  0
  -19.6510  -26.2820   21.3820 C   0  0  0  0  0  2  0  0  0  0  0  0
  -18.2530  -26.2910   22.0100 C   0  0  0  0  0  2  0  0  0  0  0  0
  -18.9900  -28.4590   23.1630 C   0  0  0  0  0  0  0  0  0  0  0  0
  -18.6530  -29.6870   23.7710 C   0  0  0  0  0  3  0  0  0  0  0  0
  -17.3080  -30.0690   23.9280 C   0  0  0  0  0  3  0  0  0  0  0  0
  -16.2800  -29.2150   23.4910 C   0  0  0  0  0  3  0  0  0  0  0  0
  -16.6010  -27.9860   22.8850 C   0  0  0  0  0  3  0  0  0  0  0  0
  -25.7000  -32.3880   23.6590 C   0  0  0  0  0  3  0  0  0  0  0  0
  -25.4010  -33.7610   24.0830 N   0  0  0  0  0  0  0  0  0  0  0  0
  -25.6830  -34.8570   23.3650 C   0  0  0  0  0  0  0  0  0  0  0  0
  -26.2960  -34.8180   22.2950 O   0  0  0  0  0  0  0  0  0  0  0  0
  -24.8470  -33.8650   24.9210 H   0  0  0  0  0  0  0  0  0  0  0  0
  -23.9250  -36.6480   23.2080 C   0  0  0  0  0  1  0  0  0  0  0  0
  -25.2150  -36.2130   23.9240 C   0  0  0  0  0  3  0  0  0  0  0  0
  -27.3880  -37.0730   24.6750 C   0  0  0  0  0  1  0  0  0  0  0  0
  -26.2320  -37.2810   23.8080 N   0  0  0  0  0  0  0  0  0  0  0  0
  -25.8290  -38.1880   24.0280 H   0  0  0  0  0  0  0  0  0  0  0  0
  -26.3110  -31.5530   24.8520 C   0  0  1  0  0  0  0  0  0  0  0  0
  -25.2970  -31.2480   25.9790 C   0  0  0  0  0  1  0  0  0  0  0  0
  -26.8730  -30.2010   24.3470 C   0  0  0  0  0  1  0  0  0  0  0  0
  -27.5020  -32.3210   25.4710 C   0  0  0  0  0  1  0  0  0  0  0  0
  1  2  1  0
  2  5  1  0
  3  5  1  0
  4 59  1  0
  4  3  1  0
  4  1  1  0
  5 10  1  0
  5 55  1  1
  6  8  1  0
  7  9  2  0
  7 10  1  0
  9 11  1  0
 10  6  2  0
 11 12  1  0
 11  8  2  0
 13 14  1  0
 13 12  1  0
 14 16  1  0
 15 14  1  0
 17 18  1  0
 17 14  1  0
 19 25  1  0
 19 18  1  0
 20 25  1  0
 21 22  1  0
 21 20  1  0
 23 22  1  0
 23 30  1  0
 23 24  1  0
 25 24  1  0
 26 19  2  0
 27 28  2  0
 28 47  1  0
 29 28  1  0
 29 32  1  0
 30 31  1  0
 30 27  1  0
 31 29  2  0
 32 33  1  0
 33 34  2  0
 35 38  1  0
 35 34  1  0
 36 35  2  0
 37 36  1  0
 37 32  2  0
 38 39  1  0
 39 44  2  0
 39 40  1  0
 40 41  2  0
 42 41  1  0
 42 46  1  0
 43 42  2  0
 44 43  1  0
 45 44  1  0
 47 48  1  0
 48 50  1  0
 48 51  1  0
 49 47  2  0
 52 27  1  0
 52 53  1  0
 54 52  1  0
 55 57  1  0
 55 58  1  0
 55 56  1  0
 59 61  1  0
 60 71  2  0
 61 66  1  0
 62 70  1  0
 62 72  1  0
 63 69  1  0
 63 65  1  0
 64 70  1  0
 65 64  1  0
 66 65  2  0
 67 68  1  0
 67 61  2  0
 68 63  2  0
 69 62  1  0
 70 60  1  0
 72 74  2  0
 73 72  1  0
 75 73  1  0
 76 85  2  0
 76 81  1  0
 77 73  1  0
 77 81  1  0
 78 77  1  0
 79 80  1  0
 79 78  1  0
 80 76  1  0
 81 82  2  0
 82 83  1  0
 84 83  2  0
 85 84  1  0
 86 60  1  0
 86 87  1  0
 86 96  1  0
 87 90  1  0
 88 92  1  0
 88 87  1  0
 89 88  2  0
 92 91  1  0
 94 92  1  0
 94 95  1  0
 94 93  1  0
 96 99  1  1
 96 97  1  0
 98 96  1  0
M  ISO  4   4 101  18 100  19 100  59 101
M  END
>  <TORSDO>  (87) 
F 23

>  <SCORE>  (87) 
-11.442

>  <name>  (87) 
86

>  <ligand_id>  (87) 
86

>  <original_smiles>  (87) 
[H]c1c([H])c([H])c2c(c1[H])C([H])([H])C([H])([H])C([H])([H])C2([H])N([H])C(=O)C1([H])N(C(=O)C([H])(N([H])C(=O)C([H])(N([H])C([H])([H])[H])C([H])([H])[H])C(C([H])([H])[H])(C([H])([H])[H])C([H])([H])[H])C([H])([H])c2c([H])c(OC3([H])C([H])([H])C([H])([H])C(c4c([H])c([H])c(C([H])([H])C([H])([H])[N+]([H])([H])C([H])([H])C([H])([H])C(=O)N5C([H])([H])C([H])([H])C([H])([H])C([H])(n6nc(-c7c([H])c([H])c(Oc8c([H])c([H])c(F)c([H])c8F)c([H])c7[H])c(C(=O)N([H])[H])c6N([H])[H])C5([H])[H])c([H])c4[H])([N+]([H])([H])[H])C3([H])[H])c([H])c([H])c2C1([H])[H]

>  <smiles>  (87) 
[H]c1c([H])c([H])c2c(c1[H])C([H])([H])C([H])([H])C([H])([H])C2([H])N([H])C(=O)C1([H])N(C(=O)C([H])(N([H])C(=O)C([H])(N([H])C([H])([H])[H])C([H])([H])[H])C(C([H])([H])[H])(C([H])([H])[H])C([H])([H])[H])C([H])([H])c2c([H])c(OC3([H])C([H])([H])C([H])([H])C(c4c([H])c([H])c(C([H])([H])C([H])([H])[N+]([H])([H])C([H])([H])C([H])([H])C(=O)N5C([H])([H])C([H])([H])C([H])([H])C([H])(n6nc(-c7c([H])c([H])c(Oc8c([H])c([H])c(F)c([H])c8F)c([H])c7[H])c(C(=O)N([H])[H])c6N([H])[H])C5([H])[H])c([H])c4[H])([N+]([H])([H])[H])C3([H])[H])c([H])c([H])c2C1([H])[H]

$$$$
87:0:0
     RDKit          3D

 96105  0  0  1  0  0  0  0  0999 V2000
  -28.3760  -17.7620   17.8840 C   0  0  0  0  0  3  0  0  0  0  0  0
  -27.9630  -19.0950   17.5960 C   0  0  0  0  0  3  0  0  0  0  0  0
  -26.4910  -17.5640   19.2360 C   0  0  0  0  0  3  0  0  0  0  0  0
  -27.7630  -17.0220   18.9110 C   0  0  0  0  0  0  0  0  0  0  0  0
  -26.2000  -18.9370   19.2020 C   0  0  0  0  0  0  0  0  0  0  0  0
  -27.1540  -19.7640   18.5470 C   0  0  0  0  0  0  0  0  0  0  0  0
  -26.8180  -21.8560   20.1150 C   0  0  0  0  0  2  0  0  0  0  0  0
  -27.6850  -22.2170   17.7270 C   0  0  0  0  0  2  0  0  0  0  0  0
  -27.4900  -23.2010   20.4840 C   0  0  0  0  0  2  0  0  0  0  0  0
  -28.3050  -23.5730   18.1920 C   0  0  0  0  0  2  0  0  0  0  0  0
  -27.5210  -21.2070   18.9140 C   0  0  0  0  0  3  0  0  0  0  0  0
  -27.5080  -24.2160   19.3350 C   0  0  0  0  0  3  0  0  0  0  0  0
  -28.0870  -25.5940   19.8120 C   0  0  0  0  0  2  0  0  0  0  0  0
  -28.0350  -26.7610   18.9410 O   0  0  0  0  0  0  0  0  0  0  0  0
  -24.6720  -31.6860   22.9050 C   0  0  0  0  0  0  0  0  0  0  0  0
  -26.9270  -27.5520   19.1400 C   0  0  0  0  0  0  0  0  0  0  0  0
  -23.3040  -30.4740   21.2500 C   0  0  0  0  0  3  0  0  0  0  0  0
  -24.5900  -29.1100   19.5170 C   0  0  0  0  0  0  0  0  0  0  0  0
  -25.8090  -30.8270   20.8590 C   0  0  0  0  0  2  0  0  0  0  0  0
  -25.8130  -29.5400   20.0600 C   0  0  0  0  0  0  0  0  0  0  0  0
  -26.9910  -28.7810   19.8630 C   0  0  0  0  0  3  0  0  0  0  0  0
  -25.6970  -27.1500   18.6160 C   0  0  0  0  0  3  0  0  0  0  0  0
  -24.5300  -27.9210   18.7860 C   0  0  0  0  0  3  0  0  0  0  0  0
  -23.3710  -29.9630   19.7900 C   0  0  0  0  0  2  0  0  0  0  0  0
  -24.6180  -31.0150   21.7230 N   0  0  0  0  0  0  0  0  0  0  0  0
  -23.6500  -31.8920   23.5750 O   0  0  0  0  0  0  0  0  0  0  0  0
  -22.7470  -29.3450   22.1460 C   0  0  0  0  0  0  0  0  0  0  0  0
  -21.4160  -29.1450   22.1000 N   0  0  0  0  0  0  0  0  0  0  0  0
  -23.4970  -28.6550   22.8380 O   0  0  0  0  0  0  0  0  0  0  0  0
  -20.8680  -29.7570   21.5130 H   0  0  0  0  0  0  0  0  0  0  0  0
  -18.1100  -27.8050   22.6890 C   0  0  0  0  0  0  0  0  0  0  0  0
  -20.6730  -28.1200   22.8350 C   0  0  0  0  0  3  0  0  0  0  0  0
  -20.7770  -26.7480   22.1330 C   0  0  0  0  0  2  0  0  0  0  0  0
  -19.6240  -26.4760   21.1600 C   0  0  0  0  0  2  0  0  0  0  0  0
  -18.2810  -26.5230   21.8930 C   0  0  0  0  0  2  0  0  0  0  0  0
  -19.2320  -28.5640   23.1190 C   0  0  0  0  0  0  0  0  0  0  0  0
  -19.0150  -29.7650   23.8280 C   0  0  0  0  0  3  0  0  0  0  0  0
  -17.7070  -30.2090   24.1110 C   0  0  0  0  0  3  0  0  0  0  0  0
  -16.6020  -29.4460   23.6980 C   0  0  0  0  0  3  0  0  0  0  0  0
  -16.8040  -28.2460   22.9940 C   0  0  0  0  0  3  0  0  0  0  0  0
  -26.0160  -32.2490   23.4670 C   0  0  0  0  0  3  0  0  0  0  0  0
  -25.7430  -33.5930   23.9890 N   0  0  0  0  0  0  0  0  0  0  0  0
  -26.0300  -34.7340   23.3500 C   0  0  0  0  0  0  0  0  0  0  0  0
  -26.6360  -34.7650   22.2730 O   0  0  0  0  0  0  0  0  0  0  0  0
  -25.1950  -33.6390   24.8370 H   0  0  0  0  0  0  0  0  0  0  0  0
  -24.3090  -36.5690   23.3310 C   0  0  0  0  0  1  0  0  0  0  0  0
  -25.5850  -36.0500   24.0130 C   0  0  0  0  0  3  0  0  0  0  0  0
  -27.7720  -36.8060   24.8370 C   0  0  0  0  0  1  0  0  0  0  0  0
  -26.6200  -37.1060   23.9900 N   0  0  0  0  0  0  0  0  0  0  0  0
  -26.2310  -37.9960   24.2900 H   0  0  0  0  0  0  0  0  0  0  0  0
  -26.6540  -31.3380   24.5870 C   0  0  1  0  0  0  0  0  0  0  0  0
  -25.6730  -30.9730   25.7270 C   0  0  0  0  0  1  0  0  0  0  0  0
  -27.1900  -30.0190   23.9830 C   0  0  0  0  0  1  0  0  0  0  0  0
  -27.8690  -32.0600   25.2180 C   0  0  0  0  0  1  0  0  0  0  0  0
  -24.8910  -19.3890   19.7230 C   0  0  0  0  0  3  0  0  0  0  0  0
  -23.8570  -19.3670   19.0480 O   0  0  0  0  0  0  0  0  0  0  0  0
  -29.3700  -15.0360   19.5530 C   0  0  0  0  0  2  0  0  0  0  0  0
  -28.2840  -15.6410   18.9470 C   0  0  0  0  0  3  0  0  0  0  0  0
  -30.2070  -14.9610   20.8070 C   0  0  0  0  0  0  0  0  0  0  0  0
  -30.6260  -12.5590   20.6060 C   0  0  0  0  0  2  0  0  0  0  0  0
  -29.8490  -12.0540   19.3440 C   0  0  0  0  0  2  0  0  0  0  0  0
  -28.3330  -12.0640   19.5070 C   0  0  0  0  0  3  0  0  0  0  0  0
  -27.7860  -12.6640   20.8130 C   0  0  0  0  0  0  0  0  0  0  0  0
  -28.5930  -13.5020   21.8090 C   0  0  0  0  0  2  0  0  0  0  0  0
  -29.9380  -13.7220   21.2590 N   0  0  0  0  0  0  0  0  0  0  0  0
  -31.3480  -15.4670   20.9450 O   0  0  0  0  0  0  0  0  0  0  0  0
  -25.2980  -13.5200   20.9580 C   0  0  0  0  0  0  0  0  0  0  0  0
  -24.1660  -12.7610   21.0840 C   0  0  0  0  0  0  0  0  0  0  0  0
  -24.6420  -11.4360   21.1850 C   0  0  0  0  0  0  0  0  0  0  0  0
  -26.3500  -12.6340   20.8980 N   0  0  0  0  0  0  0  0  0  0  0  0
  -25.9110  -11.3790   20.9540 N   0  0  0  0  0  0  0  0  0  0  0  0
  -23.9920  -10.1670   21.3880 C   0  0  0  0  0  0  0  0  0  0  0  0
  -24.4100   -9.3140   22.4320 C   0  0  0  0  0  3  0  0  0  0  0  0
  -23.7670   -8.0720   22.6210 C   0  0  0  0  0  3  0  0  0  0  0  0
  -22.7320   -7.6850   21.7260 C   0  0  0  0  0  0  0  0  0  0  0  0
  -22.3440   -8.5430   20.6930 C   0  0  0  0  0  3  0  0  0  0  0  0
  -22.9890   -9.7750   20.5070 C   0  0  0  0  0  3  0  0  0  0  0  0
  -22.0850   -6.4870   21.7950 O   0  0  0  0  0  0  0  0  0  0  0  0
  -21.9740   -5.8040   22.9750 C   0  0  0  0  0  0  0  0  0  0  0  0
  -21.3610   -6.3710   24.1180 C   0  0  0  0  0  3  0  0  0  0  0  0
  -21.1920   -5.5830   25.2750 C   0  0  0  0  0  3  0  0  0  0  0  0
  -21.6550   -4.2590   25.2950 C   0  0  0  0  0  0  0  0  0  0  0  0
  -22.2530   -3.6970   24.1640 C   0  0  0  0  0  3  0  0  0  0  0  0
  -22.4200   -4.4670   23.0030 C   0  0  0  0  0  0  0  0  0  0  0  0
  -22.9900   -3.9280   21.8970 F   0  0  0  0  0  0  0  0  0  0  0  0
  -21.4810   -3.5100   26.4090 F   0  0  0  0  0  0  0  0  0  0  0  0
  -22.7540  -13.2050   21.1370 C   0  0  0  0  0  0  0  0  0  0  0  0
  -21.9070  -12.5140   21.8950 N   0  0  0  0  0  0  0  0  0  0  0  0
  -22.3820  -14.1980   20.5180 O   0  0  0  0  0  0  0  0  0  0  0  0
  -22.1940  -11.7000   22.4290 H   0  0  0  0  0  0  0  0  0  0  0  0
  -20.9390  -12.8130   21.9190 H   0  0  0  0  0  0  0  0  0  0  0  0
  -25.5350  -14.8350   21.0660 N   0  0  0  0  0  0  0  0  0  0  0  0
  -24.7670  -15.4230   21.3780 H   0  0  0  0  0  0  0  0  0  0  0  0
  -26.4790  -15.1940   21.1290 H   0  0  0  0  0  0  0  0  0  0  0  0
  -27.7310  -14.8940   17.9840 O   0  0  0  0  0  0  0  0  0  0  0  0
  -26.7790  -14.8980   18.0800 H   0  0  0  0  0  0  0  0  0  0  0  0
  1  4  1  0
  2  1  2  0
  2  6  1  0
  4 58  1  0
  4  3  2  0
  5  3  1  0
  5 55  1  0
  6  5  2  0
  7  9  1  0
  8 10  1  0
  8 11  1  0
 10 12  1  0
 11  6  1  0
 11  7  1  0
 12 13  1  0
 12  9  1  0
 14 16  1  0
 14 13  1  0
 15 26  2  0
 16 21  1  0
 17 25  1  0
 17 27  1  0
 18 24  1  0
 18 20  1  0
 19 25  1  0
 20 19  1  0
 21 20  2  0
 22 23  1  0
 22 16  2  0
 23 18  2  0
 24 17  1  0
 25 15  1  0
 27 29  2  0
 28 27  1  0
 30 28  1  0
 31 40  2  0
 31 36  1  0
 32 28  1  0
 32 36  1  0
 33 32  1  0
 34 35  1  0
 34 33  1  0
 35 31  1  0
 36 37  2  0
 37 38  1  0
 39 38  2  0
 40 39  1  0
 41 15  1  0
 41 42  1  0
 41 51  1  0
 42 45  1  0
 43 42  1  0
 43 47  1  0
 44 43  2  0
 47 46  1  0
 49 47  1  0
 49 50  1  0
 49 48  1  0
 51 54  1  1
 51 52  1  0
 53 51  1  0
 56 55  2  0
 57 59  1  0
 58 57  1  0
 59 66  2  0
 59 65  1  0
 60 65  1  0
 61 62  1  0
 61 60  1  0
 62 63  2  0
 63 70  1  0
 63 64  1  0
 65 64  1  0
 67 92  1  0
 67 68  2  0
 68 87  1  0
 68 69  1  0
 69 72  1  0
 70 71  1  0
 70 67  1  0
 71 69  2  0
 72 73  1  0
 73 74  2  0
 75 78  1  0
 75 74  1  0
 76 75  2  0
 77 76  1  0
 77 72  2  0
 78 79  1  0
 79 84  2  0
 79 80  1  0
 80 81  2  0
 81 82  1  0
 82 86  1  0
 83 82  2  0
 84 83  1  0
 85 84  1  0
 87 88  1  0
 88 91  1  0
 88 90  1  0
 89 87  2  0
 92 94  1  0
 92 93  1  0
 95 96  1  0
 95 58  1  0
M  ISO  4  13 101  14 101  57 100  59 100
M  END
>  <TORSDO>  (88) 
F 21

>  <SCORE>  (88) 
-7.198

>  <name>  (88) 
87

>  <ligand_id>  (88) 
87

>  <original_smiles>  (88) 
[H]OC(=C([H])C(=O)N1C([H])([H])C([H])([H])C([H])([H])C([H])(n2nc(-c3c([H])c([H])c(Oc4c([H])c([H])c(F)c([H])c4F)c([H])c3[H])c(C(=O)N([H])[H])c2N([H])[H])C1([H])[H])c1c([H])c([H])c(C2([H])C([H])([H])C([H])([H])C([H])(C([H])([H])Oc3c([H])c([H])c4c(c3[H])C([H])([H])N(C(=O)C([H])(N([H])C(=O)C([H])(N([H])C([H])([H])[H])C([H])([H])[H])C(C([H])([H])[H])(C([H])([H])[H])C([H])([H])[H])C([H])(C(=O)N([H])C3([H])c5c([H])c([H])c([H])c([H])c5C([H])([H])C([H])([H])C3([H])[H])C4([H])[H])C([H])([H])C2([H])[H])c(C([H])=O)c1[H]

>  <smiles>  (88) 
[H]OC(=C([H])C(=O)N1C([H])([H])C([H])([H])C([H])([H])C([H])(n2nc(-c3c([H])c([H])c(Oc4c([H])c([H])c(F)c([H])c4F)c([H])c3[H])c(C(=O)N([H])[H])c2N([H])[H])C1([H])[H])c1c([H])c([H])c(C2([H])C([H])([H])C([H])([H])C([H])(C([H])([H])Oc3c([H])c([H])c4c(c3[H])C([H])([H])N(C(=O)C([H])(N([H])C(=O)C([H])(N([H])C([H])([H])[H])C([H])([H])[H])C(C([H])([H])[H])(C([H])([H])[H])C([H])([H])[H])C([H])(C(=O)N([H])C3([H])c5c([H])c([H])c([H])c([H])c5C([H])([H])C([H])([H])C3([H])[H])C4([H])[H])C([H])([H])C2([H])[H])c(C([H])=O)c1[H]

$$$$
88:0:0
     RDKit          3D

 94103  0  0  1  0  0  0  0  0999 V2000
  -28.3420  -21.0200   20.4600 C   0  0  0  0  0  3  0  0  0  0  0  0
  -30.4760  -21.3340   21.5760 C   0  0  0  0  0  3  0  0  0  0  0  0
  -28.2790  -22.4030   20.1820 C   0  0  0  0  0  3  0  0  0  0  0  0
  -30.4040  -22.7200   21.3120 C   0  0  0  0  0  3  0  0  0  0  0  0
  -29.4590  -20.4660   21.1250 C   0  0  0  0  0  0  0  0  0  0  0  0
  -29.3210  -23.2750   20.5870 C   0  0  0  0  0  0  0  0  0  0  0  0
  -29.5450  -19.0000   21.4110 C   0  0  0  0  0  0  0  0  0  0  0  0
  -29.0610  -18.5090   22.4330 O   0  0  0  0  0  0  0  0  0  0  0  0
  -31.4160  -14.6590   19.7110 C   0  0  0  0  0  0  0  0  0  0  0  0
  -31.0310  -12.4400   18.7290 C   0  0  0  0  0  2  0  0  0  0  0  0
  -29.9960  -12.5910   17.5940 C   0  0  0  0  0  2  0  0  0  0  0  0
  -28.5550  -12.5180   18.1420 C   0  0  0  0  0  2  0  0  0  0  0  0
  -28.3290  -13.4030   19.3990 C   0  0  0  0  0  3  0  0  0  0  0  0
  -29.4730  -13.2270   20.4250 C   0  0  0  0  0  2  0  0  0  0  0  0
  -30.7420  -13.4780   19.7290 N   0  0  0  0  0  0  0  0  0  0  0  0
  -32.5880  -14.7450   19.3340 O   0  0  0  0  0  0  0  0  0  0  0  0
  -30.8510  -17.6710   17.9660 C   0  0  0  0  0  2  0  0  0  0  0  0
  -30.1180  -18.5690   18.9560 C   0  0  0  0  0  2  0  0  0  0  0  0
  -30.3980  -16.2220   18.1370 C   0  0  0  0  0  2  0  0  0  0  0  0
  -30.0380  -16.5740   20.5830 C   0  0  0  0  0  2  0  0  0  0  0  0
  -30.3330  -18.1060   20.4130 C   0  0  0  0  0  3  0  0  0  0  0  0
  -30.5990  -15.7260   19.5110 N   0  0  0  0  0  0  0  0  0  0  0  0
  -26.0450  -14.0800   20.3690 C   0  0  0  0  0  0  0  0  0  0  0  0
  -24.9760  -13.3360   20.7870 C   0  0  0  0  0  0  0  0  0  0  0  0
  -25.3620  -11.9700   20.6360 C   0  0  0  0  0  0  0  0  0  0  0  0
  -27.0180  -13.1650   19.9940 N   0  0  0  0  0  0  0  0  0  0  0  0
  -26.6160  -11.8900   20.2130 N   0  0  0  0  0  0  0  0  0  0  0  0
  -24.5930  -10.7330   20.8150 C   0  0  0  0  0  0  0  0  0  0  0  0
  -24.9710   -9.7600   21.7660 C   0  0  0  0  0  3  0  0  0  0  0  0
  -24.2060   -8.5850   21.9310 C   0  0  0  0  0  3  0  0  0  0  0  0
  -23.0470   -8.3770   21.1440 C   0  0  0  0  0  0  0  0  0  0  0  0
  -22.6900   -9.3390   20.1830 C   0  0  0  0  0  3  0  0  0  0  0  0
  -23.4550  -10.5040   20.0150 C   0  0  0  0  0  3  0  0  0  0  0  0
  -22.2550   -7.2580   21.2190 O   0  0  0  0  0  0  0  0  0  0  0  0
  -22.0270   -6.6170   22.4110 C   0  0  0  0  0  0  0  0  0  0  0  0
  -21.4510   -7.2810   23.5150 C   0  0  0  0  0  3  0  0  0  0  0  0
  -21.1690   -6.5670   24.6980 C   0  0  0  0  0  3  0  0  0  0  0  0
  -21.4540   -5.1910   24.7730 C   0  0  0  0  0  0  0  0  0  0  0  0
  -22.0210   -4.5260   23.6720 C   0  0  0  0  0  3  0  0  0  0  0  0
  -22.3050   -5.2380   22.4930 C   0  0  0  0  0  0  0  0  0  0  0  0
  -22.8330   -4.5890   21.4280 F   0  0  0  0  0  0  0  0  0  0  0  0
  -21.1750   -4.5020   25.9050 F   0  0  0  0  0  0  0  0  0  0  0  0
  -23.6330  -13.8580   21.2120 C   0  0  0  0  0  0  0  0  0  0  0  0
  -22.9670  -13.1620   22.1250 N   0  0  0  0  0  0  0  0  0  0  0  0
  -23.1910  -14.9180   20.7690 O   0  0  0  0  0  0  0  0  0  0  0  0
  -23.3410  -12.3050   22.5050 H   0  0  0  0  0  0  0  0  0  0  0  0
  -22.0700  -13.4930   22.4520 H   0  0  0  0  0  0  0  0  0  0  0  0
  -26.2610  -15.4500   20.2500 N   0  0  0  0  0  0  0  0  0  0  0  0
  -25.5360  -16.1280   20.4600 H   0  0  0  0  0  0  0  0  0  0  0  0
  -27.0940  -15.8660   19.8540 H   0  0  0  0  0  0  0  0  0  0  0  0
  -29.2990  -24.7540   20.3050 C   0  0  0  0  0  0  0  0  0  0  0  0
  -29.9790  -25.5600   20.9510 O   0  0  0  0  0  0  0  0  0  0  0  0
  -28.4310  -25.2610   19.1360 C   0  0  0  0  0  2  0  0  0  0  0  0
  -28.4180  -26.7040   19.0640 O   0  0  0  0  0  0  0  0  0  0  0  0
  -24.6670  -31.4610   22.7950 C   0  0  0  0  0  0  0  0  0  0  0  0
  -27.2110  -27.3630   19.1930 C   0  0  0  0  0  0  0  0  0  0  0  0
  -23.3840  -30.1300   21.1520 C   0  0  0  0  0  3  0  0  0  0  0  0
  -24.7710  -28.7690   19.5060 C   0  0  0  0  0  0  0  0  0  0  0  0
  -25.8710  -30.6100   20.7860 C   0  0  0  0  0  2  0  0  0  0  0  0
  -25.9530  -29.2940   20.0400 C   0  0  0  0  0  0  0  0  0  0  0  0
  -27.1740  -28.5990   19.8800 C   0  0  0  0  0  3  0  0  0  0  0  0
  -26.0070  -26.8650   18.6370 C   0  0  0  0  0  3  0  0  0  0  0  0
  -24.7940  -27.5550   18.8010 C   0  0  0  0  0  3  0  0  0  0  0  0
  -23.5040  -29.5640   19.7120 C   0  0  0  0  0  2  0  0  0  0  0  0
  -24.6640  -30.7460   21.6350 N   0  0  0  0  0  0  0  0  0  0  0  0
  -23.6240  -31.6440   23.4370 O   0  0  0  0  0  0  0  0  0  0  0  0
  -22.8540  -29.0140   22.0810 C   0  0  0  0  0  0  0  0  0  0  0  0
  -21.5420  -28.7390   21.9990 N   0  0  0  0  0  0  0  0  0  0  0  0
  -23.6190  -28.3990   22.8300 O   0  0  0  0  0  0  0  0  0  0  0  0
  -20.9870  -29.2770   21.3490 H   0  0  0  0  0  0  0  0  0  0  0  0
  -18.3040  -27.2270   22.5260 C   0  0  0  0  0  0  0  0  0  0  0  0
  -20.8330  -27.7090   22.7570 C   0  0  0  0  0  3  0  0  0  0  0  0
  -21.0510  -26.3130   22.1330 C   0  0  0  0  0  2  0  0  0  0  0  0
  -19.9640  -25.9310   21.1210 C   0  0  0  0  0  2  0  0  0  0  0  0
  -18.5900  -25.9250   21.7980 C   0  0  0  0  0  2  0  0  0  0  0  0
  -19.3580  -28.0730   22.9620 C   0  0  0  0  0  0  0  0  0  0  0  0
  -19.0400  -29.2910   23.6020 C   0  0  0  0  0  3  0  0  0  0  0  0
  -17.6990  -29.6640   23.8100 C   0  0  0  0  0  3  0  0  0  0  0  0
  -16.6590  -28.8160   23.3920 C   0  0  0  0  0  3  0  0  0  0  0  0
  -16.9620  -27.5990   22.7550 C   0  0  0  0  0  3  0  0  0  0  0  0
  -25.9770  -32.1000   23.3570 C   0  0  0  0  0  3  0  0  0  0  0  0
  -26.6580  -31.2340   24.4870 C   0  0  1  0  0  0  0  0  0  0  0  0
  -25.6930  -30.8250   25.6240 C   0  0  0  0  0  1  0  0  0  0  0  0
  -27.2640  -29.9410   23.8950 C   0  0  0  0  0  1  0  0  0  0  0  0
  -27.8300  -32.0250   25.1170 C   0  0  0  0  0  1  0  0  0  0  0  0
  -25.6330  -33.4360   23.8630 N   0  0  0  0  0  0  0  0  0  0  0  0
  -25.8690  -34.5790   23.2060 C   0  0  0  0  0  0  0  0  0  0  0  0
  -26.4740  -34.6230   22.1310 O   0  0  0  0  0  0  0  0  0  0  0  0
  -25.0860  -33.4730   24.7100 H   0  0  0  0  0  0  0  0  0  0  0  0
  -24.0540  -36.3200   23.1490 C   0  0  0  0  0  1  0  0  0  0  0  0
  -25.3540  -35.8840   23.8440 C   0  0  0  0  0  3  0  0  0  0  0  0
  -27.4930  -36.7650   24.6670 C   0  0  0  0  0  1  0  0  0  0  0  0
  -26.3380  -36.9890   23.8010 N   0  0  0  0  0  0  0  0  0  0  0  0
  -25.9040  -37.8670   24.0710 H   0  0  0  0  0  0  0  0  0  0  0  0
  1  5  1  0
  3  1  2  0
  3  6  1  0
  4  2  1  0
  5  7  1  0
  5  2  2  0
  6  4  2  0
  7  8  2  0
  9 15  1  0
 10 15  1  0
 11 12  1  0
 11 10  1  0
 13 12  1  0
 13 26  1  0
 13 14  1  0
 15 14  1  0
 16  9  2  0
 17 19  1  0
 17 18  1  0
 18 21  1  0
 19 22  1  0
 21 20  1  0
 21  7  1  0
 22  9  1  0
 22 20  1  0
 23 24  2  0
 24 43  1  0
 25 24  1  0
 25 28  1  0
 26 27  1  0
 26 23  1  0
 27 25  2  0
 28 29  1  0
 29 30  2  0
 31 34  1  0
 31 30  1  0
 32 31  2  0
 33 32  1  0
 33 28  2  0
 34 35  1  0
 35 40  2  0
 35 36  1  0
 36 37  2  0
 37 38  1  0
 38 42  1  0
 39 38  2  0
 40 39  1  0
 41 40  1  0
 43 44  1  0
 44 47  1  0
 44 46  1  0
 45 43  2  0
 48 23  1  0
 48 49  1  0
 50 48  1  0
 51  6  1  0
 51 52  2  0
 53 51  1  0
 54 53  1  0
 54 56  1  0
 55 66  2  0
 56 61  1  0
 57 65  1  0
 57 67  1  0
 58 64  1  0
 58 60  1  0
 59 65  1  0
 60 59  1  0
 61 60  2  0
 62 63  1  0
 62 56  2  0
 63 58  2  0
 64 57  1  0
 65 55  1  0
 67 69  2  0
 68 67  1  0
 70 68  1  0
 71 80  2  0
 71 76  1  0
 72 68  1  0
 72 76  1  0
 73 72  1  0
 74 75  1  0
 74 73  1  0
 75 71  1  0
 76 77  2  0
 77 78  1  0
 79 78  2  0
 80 79  1  0
 81 55  1  0
 81 86  1  0
 81 82  1  0
 82 85  1  1
 82 83  1  0
 84 82  1  0
 86 89  1  0
 87 91  1  0
 87 86  1  0
 88 87  2  0
 91 90  1  0
 93 91  1  0
 93 94  1  0
 93 92  1  0
M  ISO  4   9 100  22 100  53 101  54 101
M  END
>  <TORSDO>  (89) 
F 19

>  <SCORE>  (89) 
-9.471

>  <name>  (89) 
88

>  <ligand_id>  (89) 
88

>  <original_smiles>  (89) 
[H]c1c([H])c([H])c2c(c1[H])C([H])([H])C([H])([H])C([H])([H])C2([H])N([H])C(=O)C1([H])N(C(=O)C([H])(N([H])C(=O)C([H])(N([H])C([H])([H])[H])C([H])([H])[H])C(C([H])([H])[H])(C([H])([H])[H])C([H])([H])[H])C([H])([H])c2c([H])c(OC([H])([H])C(=O)c3c([H])c([H])c(C(=O)C4([H])C([H])([H])N(C(=O)N5C([H])([H])C([H])([H])C([H])([H])C([H])(n6nc(-c7c([H])c([H])c(Oc8c([H])c([H])c(F)c([H])c8F)c([H])c7[H])c(C(=O)N([H])[H])c6N([H])[H])C5([H])[H])C([H])([H])C([H])([H])C4([H])[H])c([H])c3[H])c([H])c([H])c2C1([H])[H]

>  <smiles>  (89) 
[H]c1c([H])c([H])c2c(c1[H])C([H])([H])C([H])([H])C([H])([H])C2([H])N([H])C(=O)C1([H])N(C(=O)C([H])(N([H])C(=O)C([H])(N([H])C([H])([H])[H])C([H])([H])[H])C(C([H])([H])[H])(C([H])([H])[H])C([H])([H])[H])C([H])([H])c2c([H])c(OC([H])([H])C(=O)c3c([H])c([H])c(C(=O)C4([H])C([H])([H])N(C(=O)N5C([H])([H])C([H])([H])C([H])([H])C([H])(n6nc(-c7c([H])c([H])c(Oc8c([H])c([H])c(F)c([H])c8F)c([H])c7[H])c(C(=O)N([H])[H])c6N([H])[H])C5([H])[H])C([H])([H])C([H])([H])C4([H])[H])c([H])c3[H])c([H])c([H])c2C1([H])[H]

$$$$
89:0:0
     RDKit          3D

 96104  0  0  1  0  0  0  0  0999 V2000
  -29.7410  -20.7330   21.1340 C   0  0  0  0  0  3  0  0  0  0  0  0
  -29.7130  -21.7490   19.0540 C   0  0  0  0  0  3  0  0  0  0  0  0
  -29.8030  -21.9770   20.4060 C   0  0  0  0  0  0  0  0  0  0  0  0
  -29.6120  -19.5950   20.3590 C   0  0  0  0  0  0  0  0  0  0  0  0
  -29.5590  -20.0480   18.6720 S   0  0  0  0  0  0  0  0  0  0  0  0
  -30.0130  -23.3320   21.0860 C   0  0  0  0  0  3  0  0  0  0  0  0
  -31.3960  -23.3320   21.5910 N   0  0  0  0  0  4  0  0  0  0  0  0
  -32.0450  -23.2610   20.8290 H   0  0  0  0  0  0  0  0  0  0  0  0
  -31.5410  -22.5530   22.2050 H   0  0  0  0  0  0  0  0  0  0  0  0
  -31.5870  -24.1740   22.1030 H   0  0  0  0  0  0  0  0  0  0  0  0
  -29.7780  -24.6370   20.2470 C   0  0  0  0  0  2  0  0  0  0  0  0
  -28.3440  -25.2190   20.1690 C   0  0  0  0  0  2  0  0  0  0  0  0
  -28.4080  -26.6530   19.9770 O   0  0  0  0  0  0  0  0  0  0  0  0
  -24.6120  -31.7860   23.1790 C   0  0  0  0  0  0  0  0  0  0  0  0
  -27.2250  -27.3690   20.0140 C   0  0  0  0  0  0  0  0  0  0  0  0
  -23.3870  -30.3970   21.5420 C   0  0  0  0  0  3  0  0  0  0  0  0
  -24.8230  -28.8760   20.0810 C   0  0  0  0  0  0  0  0  0  0  0  0
  -25.9100  -30.7650   21.3060 C   0  0  0  0  0  2  0  0  0  0  0  0
  -25.9900  -29.4000   20.6480 C   0  0  0  0  0  0  0  0  0  0  0  0
  -27.1950  -28.6570   20.6030 C   0  0  0  0  0  3  0  0  0  0  0  0
  -26.0350  -26.8620   19.4450 C   0  0  0  0  0  3  0  0  0  0  0  0
  -24.8410  -27.6080   19.4740 C   0  0  0  0  0  3  0  0  0  0  0  0
  -23.5780  -29.7310   20.1530 C   0  0  0  0  0  2  0  0  0  0  0  0
  -24.6560  -30.9980   22.0680 N   0  0  0  0  0  0  0  0  0  0  0  0
  -23.5380  -32.0490   23.7380 O   0  0  0  0  0  0  0  0  0  0  0  0
  -22.7540  -29.3650   22.5020 C   0  0  0  0  0  0  0  0  0  0  0  0
  -21.4290  -29.1720   22.3850 N   0  0  0  0  0  0  0  0  0  0  0  0
  -23.4490  -28.7380   23.3050 O   0  0  0  0  0  0  0  0  0  0  0  0
  -20.9290  -29.7290   21.7070 H   0  0  0  0  0  0  0  0  0  0  0  0
  -18.0660  -27.9610   22.9160 C   0  0  0  0  0  0  0  0  0  0  0  0
  -20.6270  -28.2210   23.1540 C   0  0  0  0  0  3  0  0  0  0  0  0
  -20.7260  -26.7990   22.5550 C   0  0  0  0  0  2  0  0  0  0  0  0
  -19.6100  -26.4870   21.5530 C   0  0  0  0  0  2  0  0  0  0  0  0
  -18.2360  -26.6200   22.2200 C   0  0  0  0  0  2  0  0  0  0  0  0
  -19.1890  -28.7190   23.3400 C   0  0  0  0  0  0  0  0  0  0  0  0
  -18.9770  -29.9740   23.9490 C   0  0  0  0  0  3  0  0  0  0  0  0
  -17.6730  -30.4710   24.1400 C   0  0  0  0  0  3  0  0  0  0  0  0
  -16.5650  -29.7070   23.7350 C   0  0  0  0  0  3  0  0  0  0  0  0
  -16.7620  -28.4540   23.1270 C   0  0  0  0  0  3  0  0  0  0  0  0
  -25.9050  -32.4150   23.7880 C   0  0  0  0  0  3  0  0  0  0  0  0
  -26.4440  -31.6340   25.0480 C   0  0  1  0  0  0  0  0  0  0  0  0
  -25.3680  -31.3780   26.1290 C   0  0  0  0  0  1  0  0  0  0  0  0
  -27.0280  -30.2640   24.6310 C   0  0  0  0  0  1  0  0  0  0  0  0
  -27.5980  -32.4270   25.7050 C   0  0  0  0  0  1  0  0  0  0  0  0
  -25.6000  -33.8090   24.1340 N   0  0  0  0  0  0  0  0  0  0  0  0
  -25.9330  -34.8690   23.3850 C   0  0  0  0  0  0  0  0  0  0  0  0
  -26.6000  -34.7760   22.3520 O   0  0  0  0  0  0  0  0  0  0  0  0
  -25.0080  -33.9570   24.9390 H   0  0  0  0  0  0  0  0  0  0  0  0
  -24.2180  -36.6760   23.0360 C   0  0  0  0  0  1  0  0  0  0  0  0
  -25.4460  -36.2530   23.8570 C   0  0  0  0  0  3  0  0  0  0  0  0
  -27.5730  -37.1170   24.7290 C   0  0  0  0  0  1  0  0  0  0  0  0
  -26.4850  -37.3020   23.7730 N   0  0  0  0  0  0  0  0  0  0  0  0
  -26.0810  -38.2220   23.9270 H   0  0  0  0  0  0  0  0  0  0  0  0
  -29.4320  -18.1370   20.7870 C   0  0  0  0  0  3  0  0  0  0  0  0
  -29.2790  -18.0360   22.2490 N   0  0  0  0  0  4  0  0  0  0  0  0
  -30.1370  -18.2480   22.7240 H   0  0  0  0  0  0  0  0  0  0  0  0
  -28.9860  -17.1140   22.5140 H   0  0  0  0  0  0  0  0  0  0  0  0
  -28.5680  -18.6740   22.5590 H   0  0  0  0  0  0  0  0  0  0  0  0
  -30.4870  -17.1090   20.2520 C   0  0  0  0  0  2  0  0  0  0  0  0
  -30.3010  -15.6520   20.8040 C   0  0  0  0  0  2  0  0  0  0  0  0
  -30.9740  -14.4920   20.0130 C   0  0  0  0  0  0  0  0  0  0  0  0
  -30.6180  -12.3810   18.7590 C   0  0  0  0  0  2  0  0  0  0  0  0
  -29.6040  -12.6480   17.6250 C   0  0  0  0  0  2  0  0  0  0  0  0
  -28.1530  -12.5120   18.1310 C   0  0  0  0  0  2  0  0  0  0  0  0
  -27.9060  -13.2930   19.4480 C   0  0  0  0  0  3  0  0  0  0  0  0
  -29.0180  -12.9810   20.4770 C   0  0  0  0  0  2  0  0  0  0  0  0
  -30.3110  -13.3110   19.8570 N   0  0  0  0  0  0  0  0  0  0  0  0
  -32.0620  -14.7030   19.4670 O   0  0  0  0  0  0  0  0  0  0  0  0
  -25.5580  -13.9300   20.2880 C   0  0  0  0  0  0  0  0  0  0  0  0
  -24.4950  -13.1690   20.6970 C   0  0  0  0  0  0  0  0  0  0  0  0
  -24.9280  -11.8110   20.6160 C   0  0  0  0  0  0  0  0  0  0  0  0
  -26.5740  -13.0340   19.9890 N   0  0  0  0  0  0  0  0  0  0  0  0
  -26.2000  -11.7540   20.2410 N   0  0  0  0  0  0  0  0  0  0  0  0
  -24.1900  -10.5580   20.8170 C   0  0  0  0  0  0  0  0  0  0  0  0
  -24.5830   -9.6170   21.7940 C   0  0  0  0  0  3  0  0  0  0  0  0
  -23.8470   -8.4280   21.9820 C   0  0  0  0  0  3  0  0  0  0  0  0
  -22.7030   -8.1700   21.1880 C   0  0  0  0  0  0  0  0  0  0  0  0
  -22.3290   -9.0980   20.2000 C   0  0  0  0  0  3  0  0  0  0  0  0
  -23.0660  -10.2790   20.0130 C   0  0  0  0  0  3  0  0  0  0  0  0
  -21.9420   -7.0300   21.2820 O   0  0  0  0  0  0  0  0  0  0  0  0
  -21.7510   -6.3880   22.4790 C   0  0  0  0  0  0  0  0  0  0  0  0
  -21.1700   -7.0390   23.5880 C   0  0  0  0  0  3  0  0  0  0  0  0
  -20.9300   -6.3230   24.7780 C   0  0  0  0  0  3  0  0  0  0  0  0
  -21.2610   -4.9560   24.8570 C   0  0  0  0  0  0  0  0  0  0  0  0
  -21.8360   -4.3050   23.7510 C   0  0  0  0  0  3  0  0  0  0  0  0
  -22.0770   -5.0190   22.5640 C   0  0  0  0  0  0  0  0  0  0  0  0
  -22.6120   -4.3820   21.4940 F   0  0  0  0  0  0  0  0  0  0  0  0
  -21.0230   -4.2650   25.9960 F   0  0  0  0  0  0  0  0  0  0  0  0
  -23.1220  -13.6650   21.0500 C   0  0  0  0  0  0  0  0  0  0  0  0
  -22.4320  -12.9680   21.9470 N   0  0  0  0  0  0  0  0  0  0  0  0
  -22.6710  -14.7010   20.5630 O   0  0  0  0  0  0  0  0  0  0  0  0
  -22.8120  -12.1290   22.3600 H   0  0  0  0  0  0  0  0  0  0  0  0
  -21.5120  -13.2790   22.2260 H   0  0  0  0  0  0  0  0  0  0  0  0
  -25.7360  -15.3000   20.1240 N   0  0  0  0  0  0  0  0  0  0  0  0
  -24.9660  -15.9510   20.2340 H   0  0  0  0  0  0  0  0  0  0  0  0
  -26.5390  -15.7090   19.6650 H   0  0  0  0  0  0  0  0  0  0  0  0
  2  3  2  0
  3  6  1  0
  3  1  1  0
  4 54  1  0
  4  1  2  0
  5  2  1  0
  5  4  1  0
  6 11  1  0
  6  7  1  0
  7 10  1  0
  7  9  1  0
  8  7  1  0
 12 11  1  0
 13 15  1  0
 13 12  1  0
 14 25  2  0
 15 20  1  0
 16 24  1  0
 16 26  1  0
 17 23  1  0
 17 19  1  0
 18 24  1  0
 19 18  1  0
 20 19  2  0
 21 22  1  0
 21 15  2  0
 22 17  2  0
 23 16  1  0
 24 14  1  0
 26 28  2  0
 27 26  1  0
 29 27  1  0
 30 39  2  0
 30 35  1  0
 31 27  1  0
 31 35  1  0
 32 31  1  0
 33 34  1  0
 33 32  1  0
 34 30  1  0
 35 36  2  0
 36 37  1  0
 38 37  2  0
 39 38  1  0
 40 14  1  0
 40 45  1  0
 40 41  1  0
 41 44  1  1
 41 42  1  0
 43 41  1  0
 45 48  1  0
 46 50  1  0
 46 45  1  0
 47 46  2  0
 50 49  1  0
 52 50  1  0
 52 53  1  0
 52 51  1  0
 54 59  1  0
 54 55  1  0
 55 57  1  0
 55 58  1  0
 55 56  1  0
 59 60  1  0
 61 60  1  0
 62 67  1  0
 63 64  1  0
 63 62  1  0
 65 64  1  0
 65 72  1  0
 65 66  1  0
 67 61  1  0
 67 66  1  0
 68 61  2  0
 69 70  2  0
 70 89  1  0
 71 70  1  0
 71 74  1  0
 72 73  1  0
 72 69  1  0
 73 71  2  0
 74 75  1  0
 75 76  2  0
 77 80  1  0
 77 76  1  0
 78 77  2  0
 79 78  1  0
 79 74  2  0
 80 81  1  0
 81 86  2  0
 81 82  1  0
 82 83  2  0
 83 84  1  0
 84 88  1  0
 85 84  2  0
 86 85  1  0
 87 86  1  0
 89 90  1  0
 90 93  1  0
 90 92  1  0
 91 89  2  0
 94 95  1  0
 94 69  1  0
 96 94  1  0
M  ISO  4  12 101  13 101  60 100  61 100
M  END
>  <TORSDO>  (90) 
F 24

>  <SCORE>  (90) 
-11.433

>  <name>  (90) 
89

>  <ligand_id>  (90) 
89

>  <original_smiles>  (90) 
[H]c1sc(C([H])(C([H])([H])C([H])([H])C(=O)N2C([H])([H])C([H])([H])C([H])([H])C([H])(n3nc(-c4c([H])c([H])c(Oc5c([H])c([H])c(F)c([H])c5F)c([H])c4[H])c(C(=O)N([H])[H])c3N([H])[H])C2([H])[H])[N+]([H])([H])[H])c([H])c1C([H])(C([H])([H])C([H])([H])Oc1c([H])c([H])c2c(c1[H])C([H])([H])N(C(=O)C([H])(N([H])C(=O)C([H])(N([H])C([H])([H])[H])C([H])([H])[H])C(C([H])([H])[H])(C([H])([H])[H])C([H])([H])[H])C([H])(C(=O)N([H])C1([H])c3c([H])c([H])c([H])c([H])c3C([H])([H])C([H])([H])C1([H])[H])C2([H])[H])[N+]([H])([H])[H]

>  <smiles>  (90) 
[H]c1sc(C([H])(C([H])([H])C([H])([H])C(=O)N2C([H])([H])C([H])([H])C([H])([H])C([H])(n3nc(-c4c([H])c([H])c(Oc5c([H])c([H])c(F)c([H])c5F)c([H])c4[H])c(C(=O)N([H])[H])c3N([H])[H])C2([H])[H])[N+]([H])([H])[H])c([H])c1C([H])(C([H])([H])C([H])([H])Oc1c([H])c([H])c2c(c1[H])C([H])([H])N(C(=O)C([H])(N([H])C(=O)C([H])(N([H])C([H])([H])[H])C([H])([H])[H])C(C([H])([H])[H])(C([H])([H])[H])C([H])([H])[H])C([H])(C(=O)N([H])C1([H])c3c([H])c([H])c([H])c([H])c3C([H])([H])C([H])([H])C1([H])[H])C2([H])[H])[N+]([H])([H])[H]

$$$$
90:0:0
     RDKit          3D

 94102  0  0  1  0  0  0  0  0999 V2000
  -29.1680  -20.6320   22.1450 C   0  0  0  0  0  1  0  0  0  0  0  0
  -29.5540  -20.6790   20.6470 C   0  0  1  0  0  0  0  0  0  0  0  0
  -31.9820  -20.9890   21.5130 C   0  0  0  0  0  3  0  0  0  0  0  0
  -31.5200  -21.2910   19.1440 C   0  0  0  0  0  3  0  0  0  0  0  0
  -33.3370  -21.3020   21.2900 C   0  0  0  0  0  3  0  0  0  0  0  0
  -32.8740  -21.6100   18.9210 C   0  0  0  0  0  3  0  0  0  0  0  0
  -31.0510  -20.9830   20.4430 C   0  0  0  0  0  0  0  0  0  0  0  0
  -33.7850  -21.6180   19.9930 C   0  0  0  0  0  0  0  0  0  0  0  0
  -35.0920  -21.9340   19.7700 O   0  0  0  0  0  0  0  0  0  0  0  0
  -35.6180  -21.9280   20.5640 H   0  0  0  0  0  0  0  0  0  0  0  0
  -29.2730  -19.1460   20.1130 C   0  0  0  0  0  0  0  0  0  0  0  0
  -28.2750  -18.9560   19.4150 O   0  0  0  0  0  0  0  0  0  0  0  0
  -30.2050  -17.8460   20.4470 C   0  0  0  0  0  2  0  0  0  0  0  0
  -29.6330  -16.2880   20.4510 C   0  0  0  0  0  2  0  0  0  0  0  0
  -30.5040  -14.9390   20.1280 C   0  0  0  0  0  0  0  0  0  0  0  0
  -30.3470  -12.6430   19.0930 C   0  0  0  0  0  2  0  0  0  0  0  0
  -29.3440  -12.6950   17.9160 C   0  0  0  0  0  2  0  0  0  0  0  0
  -27.9000  -12.4790   18.4110 C   0  0  0  0  0  2  0  0  0  0  0  0
  -27.5670  -13.3450   19.6540 C   0  0  0  0  0  3  0  0  0  0  0  0
  -28.6800  -13.2670   20.7200 C   0  0  0  0  0  2  0  0  0  0  0  0
  -29.9400  -13.6720   20.0840 N   0  0  0  0  0  0  0  0  0  0  0  0
  -31.6740  -15.0610   19.7510 O   0  0  0  0  0  0  0  0  0  0  0  0
  -25.2170  -13.8960   20.5170 C   0  0  0  0  0  0  0  0  0  0  0  0
  -24.1770  -13.1050   20.9210 C   0  0  0  0  0  0  0  0  0  0  0  0
  -24.6480  -11.7590   20.8390 C   0  0  0  0  0  0  0  0  0  0  0  0
  -26.2540  -13.0300   20.2080 N   0  0  0  0  0  0  0  0  0  0  0  0
  -25.9230  -11.7380   20.4660 N   0  0  0  0  0  0  0  0  0  0  0  0
  -23.9410  -10.4870   21.0380 C   0  0  0  0  0  0  0  0  0  0  0  0
  -24.4060   -9.5180   21.9550 C   0  0  0  0  0  3  0  0  0  0  0  0
  -23.6980   -8.3120   22.1420 C   0  0  0  0  0  3  0  0  0  0  0  0
  -22.5110   -8.0650   21.4130 C   0  0  0  0  0  0  0  0  0  0  0  0
  -22.0650   -9.0220   20.4850 C   0  0  0  0  0  3  0  0  0  0  0  0
  -22.7730  -10.2200   20.2960 C   0  0  0  0  0  3  0  0  0  0  0  0
  -21.7720   -6.9110   21.5100 O   0  0  0  0  0  0  0  0  0  0  0  0
  -21.7430   -6.1700   22.6650 C   0  0  0  0  0  0  0  0  0  0  0  0
  -21.2840   -6.7110   23.8850 C   0  0  0  0  0  3  0  0  0  0  0  0
  -21.2040   -5.8950   25.0310 C   0  0  0  0  0  3  0  0  0  0  0  0
  -21.5740   -4.5380   24.9580 C   0  0  0  0  0  0  0  0  0  0  0  0
  -22.0260   -3.9980   23.7410 C   0  0  0  0  0  3  0  0  0  0  0  0
  -22.1080   -4.8110   22.5970 C   0  0  0  0  0  0  0  0  0  0  0  0
  -22.5240   -4.2790   21.4220 F   0  0  0  0  0  0  0  0  0  0  0  0
  -21.4910   -3.7510   26.0560 F   0  0  0  0  0  0  0  0  0  0  0  0
  -22.7910  -13.5640   21.2690 C   0  0  0  0  0  0  0  0  0  0  0  0
  -22.1070  -12.8390   22.1460 N   0  0  0  0  0  0  0  0  0  0  0  0
  -22.3240  -14.6000   20.7970 O   0  0  0  0  0  0  0  0  0  0  0  0
  -22.5010  -12.0000   22.5500 H   0  0  0  0  0  0  0  0  0  0  0  0
  -21.1790  -13.1270   22.4210 H   0  0  0  0  0  0  0  0  0  0  0  0
  -25.3630  -15.2710   20.3610 N   0  0  0  0  0  0  0  0  0  0  0  0
  -24.5940  -15.9140   20.5200 H   0  0  0  0  0  0  0  0  0  0  0  0
  -26.1910  -15.7260   20.0020 H   0  0  0  0  0  0  0  0  0  0  0  0
  -28.6910  -21.9760   20.0430 C   0  0  0  0  0  2  0  0  0  0  0  0
  -28.9920  -23.5740   20.4070 C   0  0  0  0  0  3  0  0  0  0  0  0
  -28.0060  -24.8260   19.9480 C   0  0  0  0  0  3  0  0  0  0  0  0
  -28.2420  -26.3220   20.2110 O   0  0  0  0  0  0  0  0  0  0  0  0
  -24.5930  -31.9120   23.2100 C   0  0  0  0  0  0  0  0  0  0  0  0
  -27.1680  -27.2650   20.1360 C   0  0  0  0  0  0  0  0  0  0  0  0
  -23.3850  -30.5240   21.5700 C   0  0  0  0  0  3  0  0  0  0  0  0
  -24.8280  -28.9680   20.1260 C   0  0  0  0  0  0  0  0  0  0  0  0
  -25.9320  -30.8090   21.3890 C   0  0  0  0  0  2  0  0  0  0  0  0
  -26.0050  -29.4240   20.7310 C   0  0  0  0  0  0  0  0  0  0  0  0
  -27.1770  -28.5870   20.7230 C   0  0  0  0  0  3  0  0  0  0  0  0
  -25.9660  -26.9000   19.4900 C   0  0  0  0  0  3  0  0  0  0  0  0
  -24.8170  -27.7170   19.4920 C   0  0  0  0  0  3  0  0  0  0  0  0
  -23.5970  -29.8560   20.1860 C   0  0  0  0  0  2  0  0  0  0  0  0
  -24.6570  -31.1010   22.1120 N   0  0  0  0  0  0  0  0  0  0  0  0
  -23.5110  -32.1910   23.7470 O   0  0  0  0  0  0  0  0  0  0  0  0
  -22.7150  -29.5080   22.5280 C   0  0  0  0  0  0  0  0  0  0  0  0
  -21.3890  -29.3250   22.3970 N   0  0  0  0  0  0  0  0  0  0  0  0
  -23.3910  -28.8860   23.3530 O   0  0  0  0  0  0  0  0  0  0  0  0
  -20.9000  -29.8750   21.7050 H   0  0  0  0  0  0  0  0  0  0  0  0
  -18.0150  -28.1100   22.9020 C   0  0  0  0  0  0  0  0  0  0  0  0
  -20.5720  -28.3830   23.1680 C   0  0  0  0  0  3  0  0  0  0  0  0
  -20.6820  -26.9530   22.5910 C   0  0  0  0  0  2  0  0  0  0  0  0
  -19.5800  -26.6260   21.5770 C   0  0  0  0  0  2  0  0  0  0  0  0
  -18.1980  -26.7640   22.2210 C   0  0  0  0  0  2  0  0  0  0  0  0
  -19.1300  -28.8770   23.3320 C   0  0  0  0  0  0  0  0  0  0  0  0
  -18.9060  -30.1350   23.9310 C   0  0  0  0  0  3  0  0  0  0  0  0
  -17.5980  -30.6300   24.0980 C   0  0  0  0  0  3  0  0  0  0  0  0
  -16.4970  -29.8620   23.6830 C   0  0  0  0  0  3  0  0  0  0  0  0
  -16.7060  -28.6030   23.0920 C   0  0  0  0  0  3  0  0  0  0  0  0
  -25.8750  -32.5440   23.8320 C   0  0  0  0  0  3  0  0  0  0  0  0
  -25.5680  -33.9440   24.1620 N   0  0  0  0  0  0  0  0  0  0  0  0
  -25.8910  -34.9960   23.3970 C   0  0  0  0  0  0  0  0  0  0  0  0
  -26.5450  -34.8900   22.3570 O   0  0  0  0  0  0  0  0  0  0  0  0
  -24.9790  -34.0980   24.9670 H   0  0  0  0  0  0  0  0  0  0  0  0
  -24.1630  -36.7950   23.0620 C   0  0  0  0  0  1  0  0  0  0  0  0
  -25.4130  -36.3870   23.8580 C   0  0  0  0  0  3  0  0  0  0  0  0
  -27.5540  -37.2740   24.6710 C   0  0  0  0  0  1  0  0  0  0  0  0
  -26.4470  -37.4370   23.7320 N   0  0  0  0  0  0  0  0  0  0  0  0
  -26.0440  -38.3590   23.8750 H   0  0  0  0  0  0  0  0  0  0  0  0
  -26.3880  -31.7750   25.1120 C   0  0  1  0  0  0  0  0  0  0  0  0
  -25.2910  -31.5380   26.1760 C   0  0  0  0  0  1  0  0  0  0  0  0
  -26.9730  -30.3960   24.7290 C   0  0  0  0  0  1  0  0  0  0  0  0
  -27.5380  -32.5700   25.7730 C   0  0  0  0  0  1  0  0  0  0  0  0
  2  1  1  1
  4  7  1  0
  5  3  1  0
  6  4  2  0
  6  8  1  0
  7  2  1  0
  7  3  2  0
  8  5  2  0
  9  8  1  0
  9 10  1  0
 11 13  1  0
 11  2  1  0
 12 11  2  0
 13 14  1  0
 15 14  1  0
 16 21  1  0
 17 18  1  0
 17 16  1  0
 19 18  1  0
 19 26  1  0
 19 20  1  0
 21 15  1  0
 21 20  1  0
 22 15  2  0
 23 24  2  0
 24 43  1  0
 25 24  1  0
 25 28  1  0
 26 27  1  0
 26 23  1  0
 27 25  2  0
 28 29  1  0
 29 30  2  0
 31 34  1  0
 31 30  1  0
 32 31  2  0
 33 32  1  0
 33 28  2  0
 34 35  1  0
 35 36  1  0
 36 37  2  0
 38 37  1  0
 38 42  1  0
 39 38  2  0
 40 35  2  0
 40 39  1  0
 41 40  1  0
 43 44  1  0
 44 47  1  0
 44 46  1  0
 45 43  2  0
 48 23  1  0
 48 49  1  0
 50 48  1  0
 51 52  1  0
 51  2  1  0
 53 54  1  0
 53 52  2  0
 55 66  2  0
 56 54  1  0
 56 61  1  0
 57 65  1  0
 57 67  1  0
 58 64  1  0
 58 60  1  0
 59 65  1  0
 60 59  1  0
 61 60  2  0
 62 63  1  0
 62 56  2  0
 63 58  2  0
 64 57  1  0
 65 55  1  0
 67 69  2  0
 68 67  1  0
 70 68  1  0
 71 80  2  0
 71 76  1  0
 72 68  1  0
 72 76  1  0
 73 72  1  0
 74 75  1  0
 74 73  1  0
 75 71  1  0
 76 77  2  0
 77 78  1  0
 79 78  2  0
 80 79  1  0
 81 55  1  0
 81 82  1  0
 81 91  1  0
 82 85  1  0
 83 87  1  0
 83 82  1  0
 84 83  2  0
 87 86  1  0
 89 87  1  0
 89 90  1  0
 89 88  1  0
 91 94  1  1
 91 92  1  0
 93 91  1  0
M  ISO  4  14 100  15 100  53 101  54 101
M  END
>  <TORSDO>  (91) 
F 24

>  <SCORE>  (91) 
-12.258

>  <name>  (91) 
90

>  <ligand_id>  (91) 
90

>  <original_smiles>  (91) 
[H]Oc1c([H])c([H])c(C(C(=O)C([H])([H])C([H])([H])C(=O)N2C([H])([H])C([H])([H])C([H])([H])C([H])(n3nc(-c4c([H])c([H])c(Oc5c([H])c([H])c(F)c([H])c5F)c([H])c4[H])c(C(=O)N([H])[H])c3N([H])[H])C2([H])[H])(C([H])([H])[H])C([H])([H])C([H])([H])C([H])([H])Oc2c([H])c([H])c3c(c2[H])C([H])([H])N(C(=O)C([H])(N([H])C(=O)C([H])(N([H])C([H])([H])[H])C([H])([H])[H])C(C([H])([H])[H])(C([H])([H])[H])C([H])([H])[H])C([H])(C(=O)N([H])C2([H])c4c([H])c([H])c([H])c([H])c4C([H])([H])C([H])([H])C2([H])[H])C3([H])[H])c([H])c1[H]

>  <smiles>  (91) 
[H]Oc1c([H])c([H])c(C(C(=O)C([H])([H])C([H])([H])C(=O)N2C([H])([H])C([H])([H])C([H])([H])C([H])(n3nc(-c4c([H])c([H])c(Oc5c([H])c([H])c(F)c([H])c5F)c([H])c4[H])c(C(=O)N([H])[H])c3N([H])[H])C2([H])[H])(C([H])([H])[H])C([H])([H])C([H])([H])C([H])([H])Oc2c([H])c([H])c3c(c2[H])C([H])([H])N(C(=O)C([H])(N([H])C(=O)C([H])(N([H])C([H])([H])[H])C([H])([H])[H])C(C([H])([H])[H])(C([H])([H])[H])C([H])([H])[H])C([H])(C(=O)N([H])C2([H])c4c([H])c([H])c([H])c([H])c4C([H])([H])C([H])([H])C2([H])[H])C3([H])[H])c([H])c1[H]

$$$$
91:0:0
     RDKit          3D

 86 93  0  0  1  0  0  0  0  0999 V2000
  -29.2450  -19.8630   20.0660 C   0  0  0  0  0  3  0  0  0  0  0  0
  -29.1350  -21.2320   20.6000 C   0  0  0  0  0  0  0  0  0  0  0  0
  -29.7910  -18.3690   20.6410 C   0  0  0  0  0  0  0  0  0  0  0  0
  -30.5560  -18.4240   21.6080 O   0  0  0  0  0  0  0  0  0  0  0  0
  -29.4770  -16.7310   20.1520 C   0  0  0  0  0  2  0  0  0  0  0  0
  -30.3780  -15.2340   20.2380 C   0  0  0  0  0  0  0  0  0  0  0  0
  -30.3730  -12.7910   19.3770 C   0  0  0  0  0  2  0  0  0  0  0  0
  -29.4370  -12.6300   18.1490 C   0  0  0  0  0  2  0  0  0  0  0  0
  -27.9840  -12.3730   18.5920 C   0  0  0  0  0  2  0  0  0  0  0  0
  -27.5500  -13.3230   19.7340 C   0  0  0  0  0  3  0  0  0  0  0  0
  -28.6070  -13.4320   20.8510 C   0  0  0  0  0  2  0  0  0  0  0  0
  -29.8510  -13.9140   20.2330 N   0  0  0  0  0  0  0  0  0  0  0  0
  -31.6020  -15.2480   20.0370 O   0  0  0  0  0  0  0  0  0  0  0  0
  -25.1880  -13.8820   20.5200 C   0  0  0  0  0  0  0  0  0  0  0  0
  -24.1280  -13.1050   20.8950 C   0  0  0  0  0  0  0  0  0  0  0  0
  -24.5920  -11.7550   20.8500 C   0  0  0  0  0  0  0  0  0  0  0  0
  -26.2260  -13.0070   20.2550 N   0  0  0  0  0  0  0  0  0  0  0  0
  -25.8800  -11.7200   20.5240 N   0  0  0  0  0  0  0  0  0  0  0  0
  -23.8640  -10.4920   21.0380 C   0  0  0  0  0  0  0  0  0  0  0  0
  -24.2950   -9.5190   21.9660 C   0  0  0  0  0  3  0  0  0  0  0  0
  -23.5650   -8.3250   22.1430 C   0  0  0  0  0  3  0  0  0  0  0  0
  -22.3880   -8.0940   21.3920 C   0  0  0  0  0  0  0  0  0  0  0  0
  -21.9760   -9.0540   20.4520 C   0  0  0  0  0  3  0  0  0  0  0  0
  -22.7060  -10.2410   20.2730 C   0  0  0  0  0  3  0  0  0  0  0  0
  -21.6290   -6.9510   21.4780 O   0  0  0  0  0  0  0  0  0  0  0  0
  -21.5750   -6.2080   22.6300 C   0  0  0  0  0  0  0  0  0  0  0  0
  -21.1400   -6.7620   23.8540 C   0  0  0  0  0  3  0  0  0  0  0  0
  -21.0320   -5.9460   24.9970 C   0  0  0  0  0  3  0  0  0  0  0  0
  -21.3490   -4.5780   24.9190 C   0  0  0  0  0  0  0  0  0  0  0  0
  -21.7770   -4.0230   23.7000 C   0  0  0  0  0  3  0  0  0  0  0  0
  -21.8860   -4.8360   22.5580 C   0  0  0  0  0  0  0  0  0  0  0  0
  -22.2790   -4.2910   21.3810 F   0  0  0  0  0  0  0  0  0  0  0  0
  -21.2390   -3.7910   26.0160 F   0  0  0  0  0  0  0  0  0  0  0  0
  -22.7340  -13.5840   21.1800 C   0  0  0  0  0  0  0  0  0  0  0  0
  -22.0090  -12.8820   22.0420 N   0  0  0  0  0  0  0  0  0  0  0  0
  -22.2980  -14.6160   20.6710 O   0  0  0  0  0  0  0  0  0  0  0  0
  -22.3760  -12.0470   22.4750 H   0  0  0  0  0  0  0  0  0  0  0  0
  -21.0740  -13.1850   22.2750 H   0  0  0  0  0  0  0  0  0  0  0  0
  -25.3520  -15.2550   20.3530 N   0  0  0  0  0  0  0  0  0  0  0  0
  -24.5860  -15.9080   20.4790 H   0  0  0  0  0  0  0  0  0  0  0  0
  -26.1930  -15.6950   20.0060 H   0  0  0  0  0  0  0  0  0  0  0  0
  -29.4210  -21.4250   21.8940 O   0  0  0  0  0  0  0  0  0  0  0  0
  -29.3800  -22.3560   22.0670 H   0  0  0  0  0  0  0  0  0  0  0  0
  -28.7810  -22.8070   19.9560 C   0  0  0  0  0  2  0  0  0  0  0  0
  -28.1230  -24.3300   20.6330 C   0  0  0  0  0  2  0  0  0  0  0  0
  -28.2800  -25.9270   20.3040 O   0  0  0  0  0  0  0  0  0  0  0  0
  -24.6420  -31.8610   23.2220 C   0  0  0  0  0  0  0  0  0  0  0  0
  -27.2340  -26.9780   20.2970 C   0  0  0  0  0  0  0  0  0  0  0  0
  -23.4580  -30.4370   21.6010 C   0  0  0  0  0  3  0  0  0  0  0  0
  -24.9190  -28.8190   20.2130 C   0  0  0  0  0  0  0  0  0  0  0  0
  -26.0220  -30.6670   21.4550 C   0  0  0  0  0  2  0  0  0  0  0  0
  -26.1020  -29.2500   20.8240 C   0  0  0  0  0  0  0  0  0  0  0  0
  -27.2590  -28.3530   20.8340 C   0  0  0  0  0  3  0  0  0  0  0  0
  -26.0160  -26.6820   19.6460 C   0  0  0  0  0  3  0  0  0  0  0  0
  -24.8970  -27.5530   19.6020 C   0  0  0  0  0  3  0  0  0  0  0  0
  -23.6950  -29.7330   20.2360 C   0  0  0  0  0  2  0  0  0  0  0  0
  -24.7290  -31.0160   22.1460 N   0  0  0  0  0  0  0  0  0  0  0  0
  -23.5500  -32.1530   23.7370 O   0  0  0  0  0  0  0  0  0  0  0  0
  -22.7680  -29.4510   22.5780 C   0  0  0  0  0  0  0  0  0  0  0  0
  -21.4390  -29.2780   22.4490 N   0  0  0  0  0  0  0  0  0  0  0  0
  -23.4330  -28.8410   23.4190 O   0  0  0  0  0  0  0  0  0  0  0  0
  -20.9550  -29.8210   21.7470 H   0  0  0  0  0  0  0  0  0  0  0  0
  -18.0610  -28.0570   22.9560 C   0  0  0  0  0  0  0  0  0  0  0  0
  -20.6170  -28.3490   23.2310 C   0  0  0  0  0  3  0  0  0  0  0  0
  -20.7330  -26.9070   22.6820 C   0  0  0  0  0  2  0  0  0  0  0  0
  -19.6390  -26.5590   21.6660 C   0  0  0  0  0  2  0  0  0  0  0  0
  -18.2530  -26.7010   22.3010 C   0  0  0  0  0  2  0  0  0  0  0  0
  -19.1700  -28.8380   23.3780 C   0  0  0  0  0  0  0  0  0  0  0  0
  -18.9340  -30.1050   23.9540 C   0  0  0  0  0  3  0  0  0  0  0  0
  -17.6230  -30.5940   24.1110 C   0  0  0  0  0  3  0  0  0  0  0  0
  -16.5290  -29.8110   23.7010 C   0  0  0  0  0  3  0  0  0  0  0  0
  -16.7480  -28.5450   23.1300 C   0  0  0  0  0  3  0  0  0  0  0  0
  -25.9090  -32.5170   23.8510 C   0  0  0  0  0  3  0  0  0  0  0  0
  -25.5830  -33.9180   24.1690 N   0  0  0  0  0  0  0  0  0  0  0  0
  -25.9150  -34.9740   23.4150 C   0  0  0  0  0  0  0  0  0  0  0  0
  -26.5910  -34.8710   22.3870 O   0  0  0  0  0  0  0  0  0  0  0  0
  -24.9820  -34.0700   24.9650 H   0  0  0  0  0  0  0  0  0  0  0  0
  -24.1870  -36.7700   23.0500 C   0  0  0  0  0  1  0  0  0  0  0  0
  -25.4230  -36.3640   23.8680 C   0  0  0  0  0  3  0  0  0  0  0  0
  -27.5490  -37.2570   24.7140 C   0  0  0  0  0  1  0  0  0  0  0  0
  -26.4550  -37.4200   23.7620 N   0  0  0  0  0  0  0  0  0  0  0  0
  -26.0450  -38.3390   23.9020 H   0  0  0  0  0  0  0  0  0  0  0  0
  -26.4150  -31.7700   25.1470 C   0  0  1  0  0  0  0  0  0  0  0  0
  -25.3130  -31.5460   26.2090 C   0  0  0  0  0  1  0  0  0  0  0  0
  -27.0070  -30.3870   24.7910 C   0  0  0  0  0  1  0  0  0  0  0  0
  -27.5560  -32.5800   25.8060 C   0  0  0  0  0  1  0  0  0  0  0  0
  1  2  2  0
  1  3  1  0
  2 42  1  0
  3  4  2  0
  5  6  1  0
  5  3  1  0
  7 12  1  0
  8  9  1  0
  8  7  1  0
 10  9  1  0
 10 17  1  0
 10 11  1  0
 12  6  1  0
 12 11  1  0
 13  6  2  0
 14 15  2  0
 15 34  1  0
 16 15  1  0
 16 19  1  0
 17 14  1  0
 17 18  1  0
 18 16  2  0
 19 20  1  0
 20 21  2  0
 22 25  1  0
 22 21  1  0
 23 22  2  0
 24 23  1  0
 24 19  2  0
 25 26  1  0
 26 27  1  0
 27 28  2  0
 29 28  1  0
 29 33  1  0
 30 29  2  0
 31 26  2  0
 31 30  1  0
 32 31  1  0
 34 35  1  0
 35 38  1  0
 35 37  1  0
 36 34  2  0
 39 40  1  0
 39 14  1  0
 41 39  1  0
 42 43  1  0
 44  2  1  0
 44 45  1  0
 46 45  1  0
 47 58  2  0
 48 46  1  0
 48 53  1  0
 49 57  1  0
 49 59  1  0
 50 56  1  0
 50 52  1  0
 51 57  1  0
 52 53  2  0
 52 51  1  0
 54 48  2  0
 55 54  1  0
 55 50  2  0
 56 49  1  0
 57 47  1  0
 59 61  2  0
 60 59  1  0
 62 60  1  0
 63 72  2  0
 63 68  1  0
 64 60  1  0
 64 68  1  0
 65 64  1  0
 66 67  1  0
 66 65  1  0
 67 63  1  0
 68 69  2  0
 69 70  1  0
 71 70  2  0
 72 71  1  0
 73 47  1  0
 73 74  1  0
 73 83  1  0
 74 77  1  0
 75 79  1  0
 75 74  1  0
 76 75  2  0
 79 78  1  0
 81 79  1  0
 81 82  1  0
 81 80  1  0
 83 86  1  1
 83 84  1  0
 85 83  1  0
M  ISO  4   5 100   6 100  45 101  46 101
M  END
>  <TORSDO>  (92) 
F 21

>  <SCORE>  (92) 
-15.342

>  <name>  (92) 
91

>  <ligand_id>  (92) 
91

>  <original_smiles>  (92) 
[H]OC(=C([H])C(=O)C([H])([H])C(=O)N1C([H])([H])C([H])([H])C([H])([H])C([H])(n2nc(-c3c([H])c([H])c(Oc4c([H])c([H])c(F)c([H])c4F)c([H])c3[H])c(C(=O)N([H])[H])c2N([H])[H])C1([H])[H])C([H])([H])C([H])([H])Oc1c([H])c([H])c2c(c1[H])C([H])([H])N(C(=O)C([H])(N([H])C(=O)C([H])(N([H])C([H])([H])[H])C([H])([H])[H])C(C([H])([H])[H])(C([H])([H])[H])C([H])([H])[H])C([H])(C(=O)N([H])C1([H])c3c([H])c([H])c([H])c([H])c3C([H])([H])C([H])([H])C1([H])[H])C2([H])[H]

>  <smiles>  (92) 
[H]OC(=C([H])C(=O)C([H])([H])C(=O)N1C([H])([H])C([H])([H])C([H])([H])C([H])(n2nc(-c3c([H])c([H])c(Oc4c([H])c([H])c(F)c([H])c4F)c([H])c3[H])c(C(=O)N([H])[H])c2N([H])[H])C1([H])[H])C([H])([H])C([H])([H])Oc1c([H])c([H])c2c(c1[H])C([H])([H])N(C(=O)C([H])(N([H])C(=O)C([H])(N([H])C([H])([H])[H])C([H])([H])[H])C(C([H])([H])[H])(C([H])([H])[H])C([H])([H])[H])C([H])(C(=O)N([H])C1([H])c3c([H])c([H])c([H])c([H])c3C([H])([H])C([H])([H])C1([H])[H])C2([H])[H]

$$$$
92:0:0
     RDKit          3D

 93101  0  0  1  0  0  0  0  0999 V2000
  -29.2640  -22.8330   19.5590 C   0  0  0  0  0  2  0  0  0  0  0  0
  -32.4980  -20.7570   19.7850 C   0  0  0  0  0  3  0  0  0  0  0  0
  -32.0000  -19.5170   20.2300 C   0  0  0  0  0  3  0  0  0  0  0  0
  -31.6230  -21.8380   19.5680 C   0  0  0  0  0  3  0  0  0  0  0  0
  -29.7470  -20.4370   20.2430 C   0  0  0  0  0  3  0  0  0  0  0  0
  -30.6150  -19.3400   20.4570 C   0  0  0  0  0  0  0  0  0  0  0  0
  -30.2380  -21.6840   19.7900 C   0  0  0  0  0  0  0  0  0  0  0  0
  -30.0540  -18.0380   20.9390 C   0  0  0  0  0  0  0  0  0  0  0  0
  -28.9020  -17.9260   21.3680 O   0  0  0  0  0  0  0  0  0  0  0  0
  -30.9670  -16.8060   20.8740 C   0  0  0  0  0  2  0  0  0  0  0  0
  -30.2560  -15.4410   21.0950 C   0  0  0  0  0  2  0  0  0  0  0  0
  -30.7890  -14.3250   20.1800 C   0  0  0  0  0  0  0  0  0  0  0  0
  -30.3690  -12.2420   18.9230 C   0  0  0  0  0  2  0  0  0  0  0  0
  -29.3770  -12.5150   17.7750 C   0  0  0  0  0  2  0  0  0  0  0  0
  -27.9240  -12.3850   18.2680 C   0  0  0  0  0  2  0  0  0  0  0  0
  -27.6620  -13.1890   19.5700 C   0  0  0  0  0  3  0  0  0  0  0  0
  -28.7600  -12.9070   20.6220 C   0  0  0  0  0  2  0  0  0  0  0  0
  -30.0670  -13.1880   20.0070 N   0  0  0  0  0  0  0  0  0  0  0  0
  -31.8470  -14.5210   19.5750 O   0  0  0  0  0  0  0  0  0  0  0  0
  -25.2920  -13.8150   20.3580 C   0  0  0  0  0  0  0  0  0  0  0  0
  -24.2330  -13.0510   20.7680 C   0  0  0  0  0  0  0  0  0  0  0  0
  -24.6860  -11.6960   20.7300 C   0  0  0  0  0  0  0  0  0  0  0  0
  -26.3250  -12.9270   20.0980 N   0  0  0  0  0  0  0  0  0  0  0  0
  -25.9640  -11.6480   20.3770 N   0  0  0  0  0  0  0  0  0  0  0  0
  -23.9610  -10.4390   20.9550 C   0  0  0  0  0  0  0  0  0  0  0  0
  -24.4130   -9.4850   21.8940 C   0  0  0  0  0  3  0  0  0  0  0  0
  -23.6900   -8.2920   22.1060 C   0  0  0  0  0  3  0  0  0  0  0  0
  -22.5020   -8.0430   21.3790 C   0  0  0  0  0  0  0  0  0  0  0  0
  -22.0680   -8.9860   20.4300 C   0  0  0  0  0  3  0  0  0  0  0  0
  -22.7920  -10.1710   20.2160 C   0  0  0  0  0  3  0  0  0  0  0  0
  -21.7470   -6.9000   21.5010 O   0  0  0  0  0  0  0  0  0  0  0  0
  -21.7070   -6.1850   22.6710 C   0  0  0  0  0  0  0  0  0  0  0  0
  -21.2970   -6.7710   23.8880 C   0  0  0  0  0  3  0  0  0  0  0  0
  -21.2040   -5.9820   25.0520 C   0  0  0  0  0  3  0  0  0  0  0  0
  -21.5100   -4.6090   25.0000 C   0  0  0  0  0  0  0  0  0  0  0  0
  -21.9130   -4.0230   23.7880 C   0  0  0  0  0  3  0  0  0  0  0  0
  -22.0080   -4.8090   22.6250 C   0  0  0  0  0  0  0  0  0  0  0  0
  -22.3770   -4.2360   21.4550 F   0  0  0  0  0  0  0  0  0  0  0  0
  -21.4140   -3.8500   26.1160 F   0  0  0  0  0  0  0  0  0  0  0  0
  -22.8480  -13.5360   21.0900 C   0  0  0  0  0  0  0  0  0  0  0  0
  -22.1510  -12.8490   21.9880 N   0  0  0  0  0  0  0  0  0  0  0  0
  -22.3950  -14.5590   20.5790 O   0  0  0  0  0  0  0  0  0  0  0  0
  -22.5320  -12.0220   22.4230 H   0  0  0  0  0  0  0  0  0  0  0  0
  -21.2240  -13.1570   22.2460 H   0  0  0  0  0  0  0  0  0  0  0  0
  -25.4570  -15.1830   20.1660 N   0  0  0  0  0  0  0  0  0  0  0  0
  -24.7000  -15.8440   20.3040 H   0  0  0  0  0  0  0  0  0  0  0  0
  -26.3090  -15.6180   19.8350 H   0  0  0  0  0  0  0  0  0  0  0  0
  -29.6160  -23.7480   18.3650 C   0  0  0  0  0  2  0  0  0  0  0  0
  -28.4550  -24.6650   17.9690 C   0  0  0  0  0  0  0  0  0  0  0  0
  -27.3370  -24.1930   17.7360 O   0  0  0  0  0  0  0  0  0  0  0  0
  -28.7040  -26.1660   17.8010 C   0  0  0  0  0  2  0  0  0  0  0  0
  -29.2050  -26.8800   19.0720 C   0  0  0  0  0  2  0  0  0  0  0  0
  -28.3400  -26.7350   20.1940 O   0  0  0  0  0  0  0  0  0  0  0  0
  -24.5610  -31.9090   23.2710 C   0  0  0  0  0  0  0  0  0  0  0  0
  -27.1910  -27.4850   20.1780 C   0  0  0  0  0  0  0  0  0  0  0  0
  -23.3440  -30.5050   21.6360 C   0  0  0  0  0  3  0  0  0  0  0  0
  -24.7920  -28.9620   20.2120 C   0  0  0  0  0  0  0  0  0  0  0  0
  -25.8670  -30.8680   21.4240 C   0  0  0  0  0  2  0  0  0  0  0  0
  -25.9510  -29.4970   20.7890 C   0  0  0  0  0  0  0  0  0  0  0  0
  -27.1560  -28.7610   20.7760 C   0  0  0  0  0  3  0  0  0  0  0  0
  -26.0130  -26.9480   19.6200 C   0  0  0  0  0  3  0  0  0  0  0  0
  -24.8150  -27.6840   19.6280 C   0  0  0  0  0  3  0  0  0  0  0  0
  -23.5470  -29.8180   20.2590 C   0  0  0  0  0  2  0  0  0  0  0  0
  -24.6090  -31.1080   22.1690 N   0  0  0  0  0  0  0  0  0  0  0  0
  -23.4830  -32.1850   23.8150 O   0  0  0  0  0  0  0  0  0  0  0  0
  -22.6950  -29.4890   22.6030 C   0  0  0  0  0  0  0  0  0  0  0  0
  -21.3720  -29.3020   22.4740 N   0  0  0  0  0  0  0  0  0  0  0  0
  -23.3790  -28.8710   23.4230 O   0  0  0  0  0  0  0  0  0  0  0  0
  -20.8820  -29.8510   21.7810 H   0  0  0  0  0  0  0  0  0  0  0  0
  -18.0010  -28.0950   22.9570 C   0  0  0  0  0  0  0  0  0  0  0  0
  -20.5550  -28.3680   23.2470 C   0  0  0  0  0  3  0  0  0  0  0  0
  -20.6700  -26.9310   22.6870 C   0  0  0  0  0  2  0  0  0  0  0  0
  -19.5780  -26.5920   21.6670 C   0  0  0  0  0  2  0  0  0  0  0  0
  -18.1900  -26.7390   22.2980 C   0  0  0  0  0  2  0  0  0  0  0  0
  -19.1130  -28.8670   23.3880 C   0  0  0  0  0  0  0  0  0  0  0  0
  -18.8840  -30.1360   23.9630 C   0  0  0  0  0  3  0  0  0  0  0  0
  -17.5750  -30.6330   24.1090 C   0  0  0  0  0  3  0  0  0  0  0  0
  -16.4780  -29.8580   23.6960 C   0  0  0  0  0  3  0  0  0  0  0  0
  -16.6920  -28.5900   23.1250 C   0  0  0  0  0  3  0  0  0  0  0  0
  -25.8520  -32.5370   23.8830 C   0  0  0  0  0  3  0  0  0  0  0  0
  -25.5520  -33.9380   24.2060 N   0  0  0  0  0  0  0  0  0  0  0  0
  -25.8950  -34.9830   23.4420 C   0  0  0  0  0  0  0  0  0  0  0  0
  -26.5700  -34.8710   22.4140 O   0  0  0  0  0  0  0  0  0  0  0  0
  -24.9530  -34.1000   25.0010 H   0  0  0  0  0  0  0  0  0  0  0  0
  -24.1830  -36.7850   23.0620 C   0  0  0  0  0  1  0  0  0  0  0  0
  -25.4140  -36.3770   23.8880 C   0  0  0  0  0  3  0  0  0  0  0  0
  -27.5480  -37.2470   24.7330 C   0  0  0  0  0  1  0  0  0  0  0  0
  -26.4550  -37.4210   23.7800 N   0  0  0  0  0  0  0  0  0  0  0  0
  -26.0550  -38.3450   23.9220 H   0  0  0  0  0  0  0  0  0  0  0  0
  -26.3730  -31.7670   25.1580 C   0  0  1  0  0  0  0  0  0  0  0  0
  -25.2860  -31.5360   26.2320 C   0  0  0  0  0  1  0  0  0  0  0  0
  -26.9460  -30.3850   24.7630 C   0  0  0  0  0  1  0  0  0  0  0  0
  -27.5320  -32.5570   25.8100 C   0  0  0  0  0  1  0  0  0  0  0  0
  1  7  1  0
  2  3  1  0
  3  6  2  0
  4  2  2  0
  4  7  1  0
  5  6  1  0
  6  8  1  0
  7  5  2  0
  8  9  2  0
 10  8  1  0
 10 11  1  0
 12 11  1  0
 13 18  1  0
 14 15  1  0
 14 13  1  0
 16 15  1  0
 16 23  1  0
 16 17  1  0
 18 12  1  0
 18 17  1  0
 19 12  2  0
 20 21  2  0
 21 40  1  0
 22 21  1  0
 22 25  1  0
 23 20  1  0
 23 24  1  0
 24 22  2  0
 25 26  1  0
 26 27  2  0
 28 31  1  0
 28 27  1  0
 29 28  2  0
 30 29  1  0
 30 25  2  0
 31 32  1  0
 32 33  1  0
 33 34  2  0
 35 34  1  0
 35 39  1  0
 36 35  2  0
 37 32  2  0
 37 36  1  0
 38 37  1  0
 40 41  1  0
 41 44  1  0
 41 43  1  0
 42 40  2  0
 45 46  1  0
 45 20  1  0
 47 45  1  0
 48  1  1  0
 49 48  1  0
 50 49  2  0
 51 49  1  0
 51 52  1  0
 52 53  1  0
 54 65  2  0
 55 53  1  0
 55 60  1  0
 56 64  1  0
 56 66  1  0
 57 63  1  0
 57 59  1  0
 58 64  1  0
 59 58  1  0
 60 59  2  0
 61 62  1  0
 61 55  2  0
 62 57  2  0
 63 56  1  0
 64 54  1  0
 66 68  2  0
 67 66  1  0
 69 67  1  0
 70 79  2  0
 70 75  1  0
 71 67  1  0
 71 75  1  0
 72 71  1  0
 73 74  1  0
 73 72  1  0
 74 70  1  0
 75 76  2  0
 76 77  1  0
 78 77  2  0
 79 78  1  0
 80 54  1  0
 80 81  1  0
 80 90  1  0
 81 84  1  0
 82 86  1  0
 82 81  1  0
 83 82  2  0
 86 85  1  0
 88 86  1  0
 88 89  1  0
 88 87  1  0
 90 93  1  1
 90 91  1  0
 92 90  1  0
M  ISO  4  11 100  12 100  52 101  53 101
M  END
>  <TORSDO>  (93) 
F 24

>  <SCORE>  (93) 
-12.271

>  <name>  (93) 
92

>  <ligand_id>  (93) 
92

>  <original_smiles>  (93) 
[H]c1c([H])c(C(=O)C([H])([H])C([H])([H])C(=O)N2C([H])([H])C([H])([H])C([H])([H])C([H])(n3nc(-c4c([H])c([H])c(Oc5c([H])c([H])c(F)c([H])c5F)c([H])c4[H])c(C(=O)N([H])[H])c3N([H])[H])C2([H])[H])c([H])c(C([H])([H])C([H])([H])C(=O)C([H])([H])C([H])([H])Oc2c([H])c([H])c3c(c2[H])C([H])([H])N(C(=O)C([H])(N([H])C(=O)C([H])(N([H])C([H])([H])[H])C([H])([H])[H])C(C([H])([H])[H])(C([H])([H])[H])C([H])([H])[H])C([H])(C(=O)N([H])C2([H])c4c([H])c([H])c([H])c([H])c4C([H])([H])C([H])([H])C2([H])[H])C3([H])[H])c1[H]

>  <smiles>  (93) 
[H]c1c([H])c(C(=O)C([H])([H])C([H])([H])C(=O)N2C([H])([H])C([H])([H])C([H])([H])C([H])(n3nc(-c4c([H])c([H])c(Oc5c([H])c([H])c(F)c([H])c5F)c([H])c4[H])c(C(=O)N([H])[H])c3N([H])[H])C2([H])[H])c([H])c(C([H])([H])C([H])([H])C(=O)C([H])([H])C([H])([H])Oc2c([H])c([H])c3c(c2[H])C([H])([H])N(C(=O)C([H])(N([H])C(=O)C([H])(N([H])C([H])([H])[H])C([H])([H])[H])C(C([H])([H])[H])(C([H])([H])[H])C([H])([H])[H])C([H])(C(=O)N([H])C2([H])c4c([H])c([H])c([H])c([H])c4C([H])([H])C([H])([H])C2([H])[H])C3([H])[H])c1[H]

$$$$
93:0:0
     RDKit          3D

 98107  0  0  1  0  0  0  0  0999 V2000
  -30.4120  -22.1660   17.2300 C   0  0  0  0  0  3  0  0  0  0  0  0
  -30.5820  -23.5360   17.3810 C   0  0  0  0  0  3  0  0  0  0  0  0
  -29.8260  -21.4450   18.2640 C   0  0  0  0  0  3  0  0  0  0  0  0
  -30.0300  -24.2240   18.4770 C   0  0  0  0  0  0  0  0  0  0  0  0
  -29.3140  -22.0230   19.4530 C   0  0  0  0  0  0  0  0  0  0  0  0
  -29.2150  -23.5700   19.4770 C   0  0  0  0  0  0  0  0  0  0  0  0
  -30.4500  -25.6670   18.5530 C   0  0  0  0  0  0  0  0  0  0  0  0
  -30.0700  -26.4400   17.5420 N   0  0  0  0  0  0  0  0  0  0  0  0
  -31.1430  -26.0890   19.4780 O   0  0  0  0  0  0  0  0  0  0  0  0
  -29.5250  -26.0500   16.7880 H   0  0  0  0  0  0  0  0  0  0  0  0
  -30.3040  -27.4210   17.5370 H   0  0  0  0  0  0  0  0  0  0  0  0
  -29.1550  -20.7770   20.5400 C   0  0  0  0  0  2  0  0  0  0  0  0
  -29.0220  -19.1180   20.2010 C   0  0  0  0  0  0  0  0  0  0  0  0
  -27.9000  -18.7820   19.8160 O   0  0  0  0  0  0  0  0  0  0  0  0
  -32.3520  -18.2050   20.5870 C   0  0  0  0  0  2  0  0  0  0  0  0
  -31.3850  -18.1970   19.4050 C   0  0  0  0  0  2  0  0  0  0  0  0
  -31.1530  -18.1280   21.5360 C   0  0  0  0  0  2  0  0  0  0  0  0
  -30.1890  -17.9150   20.3460 C   0  0  1  0  0  0  0  0  0  0  0  0
  -30.5320  -15.1090   20.1710 C   0  0  0  0  0  0  0  0  0  0  0  0
  -30.3770  -12.7540   19.2160 C   0  0  0  0  0  2  0  0  0  0  0  0
  -29.4140  -12.6800   18.0100 C   0  0  0  0  0  2  0  0  0  0  0  0
  -27.9700  -12.4420   18.4870 C   0  0  0  0  0  2  0  0  0  0  0  0
  -27.5790  -13.3630   19.6720 C   0  0  0  0  0  3  0  0  0  0  0  0
  -28.6680  -13.4190   20.7650 C   0  0  0  0  0  2  0  0  0  0  0  0
  -29.9060  -13.8580   20.1080 N   0  0  0  0  0  0  0  0  0  0  0  0
  -31.7420  -15.1040   19.9270 O   0  0  0  0  0  0  0  0  0  0  0  0
  -29.8060  -16.3470   20.2950 N   0  0  0  0  0  0  0  0  0  0  0  0
  -28.8110  -16.2040   20.3830 H   0  0  0  0  0  0  0  0  0  0  0  0
  -25.2200  -13.9010   20.4920 C   0  0  0  0  0  0  0  0  0  0  0  0
  -24.1730  -13.1110   20.8760 C   0  0  0  0  0  0  0  0  0  0  0  0
  -24.6500  -11.7650   20.8120 C   0  0  0  0  0  0  0  0  0  0  0  0
  -26.2640  -13.0390   20.2110 N   0  0  0  0  0  0  0  0  0  0  0  0
  -25.9330  -11.7470   20.4710 N   0  0  0  0  0  0  0  0  0  0  0  0
  -23.9390  -10.4930   20.9980 C   0  0  0  0  0  0  0  0  0  0  0  0
  -24.3700   -9.5360   21.9450 C   0  0  0  0  0  3  0  0  0  0  0  0
  -23.6560   -8.3310   22.1200 C   0  0  0  0  0  3  0  0  0  0  0  0
  -22.4970   -8.0720   21.3500 C   0  0  0  0  0  0  0  0  0  0  0  0
  -22.0850   -9.0180   20.3950 C   0  0  0  0  0  3  0  0  0  0  0  0
  -22.7990  -10.2150   20.2160 C   0  0  0  0  0  3  0  0  0  0  0  0
  -21.7560   -6.9190   21.4350 O   0  0  0  0  0  0  0  0  0  0  0  0
  -21.6700   -6.2030   22.6010 C   0  0  0  0  0  0  0  0  0  0  0  0
  -21.1500   -6.7670   23.7860 C   0  0  0  0  0  3  0  0  0  0  0  0
  -21.0170   -5.9740   24.9430 C   0  0  0  0  0  3  0  0  0  0  0  0
  -21.3920   -4.6180   24.9160 C   0  0  0  0  0  0  0  0  0  0  0  0
  -21.9050   -4.0530   23.7350 C   0  0  0  0  0  3  0  0  0  0  0  0
  -22.0410   -4.8420   22.5800 C   0  0  0  0  0  0  0  0  0  0  0  0
  -22.5150   -4.2870   21.4380 F   0  0  0  0  0  0  0  0  0  0  0  0
  -21.2570   -3.8530   26.0250 F   0  0  0  0  0  0  0  0  0  0  0  0
  -22.7780  -13.5700   21.1840 C   0  0  0  0  0  0  0  0  0  0  0  0
  -22.0740  -12.8510   22.0510 N   0  0  0  0  0  0  0  0  0  0  0  0
  -22.3220  -14.6020   20.6920 O   0  0  0  0  0  0  0  0  0  0  0  0
  -22.4590  -12.0180   22.4710 H   0  0  0  0  0  0  0  0  0  0  0  0
  -21.1380  -13.1380   22.2980 H   0  0  0  0  0  0  0  0  0  0  0  0
  -25.3640  -15.2760   20.3290 N   0  0  0  0  0  0  0  0  0  0  0  0
  -24.5890  -15.9170   20.4630 H   0  0  0  0  0  0  0  0  0  0  0  0
  -26.1850  -15.7280   19.9500 H   0  0  0  0  0  0  0  0  0  0  0  0
  -28.2610  -24.6580   20.3180 C   0  0  0  0  0  2  0  0  0  0  0  0
  -28.3190  -26.2380   20.1720 O   0  0  0  0  0  0  0  0  0  0  0  0
  -24.6030  -31.9030   23.1770 C   0  0  0  0  0  0  0  0  0  0  0  0
  -27.2190  -27.1820   20.1580 C   0  0  0  0  0  0  0  0  0  0  0  0
  -23.4160  -30.5020   21.5330 C   0  0  0  0  0  3  0  0  0  0  0  0
  -24.8760  -28.9240   20.1170 C   0  0  0  0  0  0  0  0  0  0  0  0
  -25.9690  -30.7760   21.3760 C   0  0  0  0  0  2  0  0  0  0  0  0
  -26.0510  -29.3790   20.7260 C   0  0  0  0  0  0  0  0  0  0  0  0
  -27.2220  -28.5260   20.7210 C   0  0  0  0  0  3  0  0  0  0  0  0
  -26.0120  -26.8270   19.5180 C   0  0  0  0  0  3  0  0  0  0  0  0
  -24.8700  -27.6640   19.4960 C   0  0  0  0  0  3  0  0  0  0  0  0
  -23.6440  -29.8210   20.1580 C   0  0  0  0  0  2  0  0  0  0  0  0
  -24.6830  -31.0830   22.0830 N   0  0  0  0  0  0  0  0  0  0  0  0
  -23.5130  -32.1800   23.7030 O   0  0  0  0  0  0  0  0  0  0  0  0
  -22.7390  -29.4930   22.4960 C   0  0  0  0  0  0  0  0  0  0  0  0
  -21.4130  -29.3110   22.3630 N   0  0  0  0  0  0  0  0  0  0  0  0
  -23.4100  -28.8760   23.3260 O   0  0  0  0  0  0  0  0  0  0  0  0
  -20.9240  -29.8600   21.6690 H   0  0  0  0  0  0  0  0  0  0  0  0
  -18.0380  -28.0860   22.8560 C   0  0  0  0  0  0  0  0  0  0  0  0
  -20.5950  -28.3680   23.1310 C   0  0  0  0  0  3  0  0  0  0  0  0
  -20.7080  -26.9370   22.5570 C   0  0  0  0  0  2  0  0  0  0  0  0
  -19.6130  -26.6050   21.5390 C   0  0  0  0  0  2  0  0  0  0  0  0
  -18.2280  -26.7400   22.1780 C   0  0  0  0  0  2  0  0  0  0  0  0
  -19.1500  -28.8570   23.2900 C   0  0  0  0  0  0  0  0  0  0  0  0
  -18.9180  -30.1160   23.8850 C   0  0  0  0  0  3  0  0  0  0  0  0
  -17.6090  -30.6040   24.0520 C   0  0  0  0  0  3  0  0  0  0  0  0
  -16.5120  -29.8310   23.6320 C   0  0  0  0  0  3  0  0  0  0  0  0
  -16.7270  -28.5740   23.0410 C   0  0  0  0  0  3  0  0  0  0  0  0
  -25.8750  -32.5470   23.8090 C   0  0  0  0  0  3  0  0  0  0  0  0
  -25.5540  -33.9450   24.1400 N   0  0  0  0  0  0  0  0  0  0  0  0
  -25.8910  -35.0060   23.3950 C   0  0  0  0  0  0  0  0  0  0  0  0
  -26.5720  -34.9110   22.3710 O   0  0  0  0  0  0  0  0  0  0  0  0
  -24.9530  -34.0920   24.9370 H   0  0  0  0  0  0  0  0  0  0  0  0
  -24.1750  -36.8090   23.0250 C   0  0  0  0  0  1  0  0  0  0  0  0
  -25.3980  -36.3920   23.8590 C   0  0  0  0  0  3  0  0  0  0  0  0
  -27.5120  -37.2690   24.7490 C   0  0  0  0  0  1  0  0  0  0  0  0
  -26.4350  -37.4440   23.7780 N   0  0  0  0  0  0  0  0  0  0  0  0
  -26.0260  -38.3630   23.9190 H   0  0  0  0  0  0  0  0  0  0  0  0
  -26.3820  -31.7840   25.0940 C   0  0  1  0  0  0  0  0  0  0  0  0
  -25.2810  -31.5500   26.1550 C   0  0  0  0  0  1  0  0  0  0  0  0
  -26.9740  -30.4060   24.7190 C   0  0  0  0  0  1  0  0  0  0  0  0
  -27.5230  -32.5870   25.7630 C   0  0  0  0  0  1  0  0  0  0  0  0
  1  2  2  0
  1  3  1  0
  2  4  1  0
  3  5  2  0
  4  7  1  0
  4  6  2  0
  5  6  1  0
  5 12  1  0
  6 57  1  0
  7  9  2  0
  8  7  1  0
 10  8  1  0
 11  8  1  0
 13 18  1  0
 13 12  1  0
 14 13  2  0
 15 17  1  0
 16 18  1  0
 16 15  1  0
 18 17  1  0
 19 27  1  0
 20 25  1  0
 21 22  1  0
 21 20  1  0
 23 22  1  0
 23 32  1  0
 23 24  1  0
 25 19  1  0
 25 24  1  0
 26 19  2  0
 18 27  1  6
 27 28  1  0
 29 30  2  0
 30 49  1  0
 31 30  1  0
 31 34  1  0
 32 33  1  0
 32 29  1  0
 33 31  2  0
 34 35  1  0
 35 36  2  0
 37 40  1  0
 37 36  1  0
 38 37  2  0
 39 38  1  0
 39 34  2  0
 40 41  1  0
 41 42  1  0
 42 43  2  0
 44 43  1  0
 44 48  1  0
 45 44  2  0
 46 41  2  0
 46 45  1  0
 47 46  1  0
 49 50  1  0
 50 53  1  0
 50 52  1  0
 51 49  2  0
 54 55  1  0
 54 29  1  0
 56 54  1  0
 58 57  1  0
 59 70  2  0
 60 58  1  0
 60 65  1  0
 61 69  1  0
 61 71  1  0
 62 68  1  0
 62 64  1  0
 63 69  1  0
 64 63  1  0
 65 64  2  0
 66 60  2  0
 67 66  1  0
 67 62  2  0
 68 61  1  0
 69 59  1  0
 71 73  2  0
 72 71  1  0
 74 72  1  0
 75 84  2  0
 75 80  1  0
 76 72  1  0
 76 80  1  0
 77 76  1  0
 78 79  1  0
 78 77  1  0
 79 75  1  0
 80 81  2  0
 81 82  1  0
 83 82  2  0
 84 83  1  0
 85 59  1  0
 85 86  1  0
 85 95  1  0
 86 89  1  0
 87 91  1  0
 87 86  1  0
 88 87  2  0
 91 90  1  0
 93 91  1  0
 93 94  1  0
 93 92  1  0
 95 98  1  1
 95 96  1  0
 97 95  1  0
M  ISO  4  19 100  27 100  57 101  58 101
M  END
>  <TORSDO>  (94) 
F 21

>  <SCORE>  (94) 
-14.461

>  <name>  (94) 
93

>  <ligand_id>  (94) 
93

>  <original_smiles>  (94) 
[H]c1c([H])c(C(=O)N([H])[H])c(C([H])([H])Oc2c([H])c([H])c3c(c2[H])C([H])([H])N(C(=O)C([H])(N([H])C(=O)C([H])(N([H])C([H])([H])[H])C([H])([H])[H])C(C([H])([H])[H])(C([H])([H])[H])C([H])([H])[H])C([H])(C(=O)N([H])C2([H])c4c([H])c([H])c([H])c([H])c4C([H])([H])C([H])([H])C2([H])[H])C3([H])[H])c(C([H])([H])C(=O)C2(N([H])C(=O)N3C([H])([H])C([H])([H])C([H])([H])C([H])(n4nc(-c5c([H])c([H])c(Oc6c([H])c([H])c(F)c([H])c6F)c([H])c5[H])c(C(=O)N([H])[H])c4N([H])[H])C3([H])[H])C([H])([H])C([H])([H])C2([H])[H])c1[H]

>  <smiles>  (94) 
[H]c1c([H])c(C(=O)N([H])[H])c(C([H])([H])Oc2c([H])c([H])c3c(c2[H])C([H])([H])N(C(=O)C([H])(N([H])C(=O)C([H])(N([H])C([H])([H])[H])C([H])([H])[H])C(C([H])([H])[H])(C([H])([H])[H])C([H])([H])[H])C([H])(C(=O)N([H])C2([H])c4c([H])c([H])c([H])c([H])c4C([H])([H])C([H])([H])C2([H])[H])C3([H])[H])c(C([H])([H])C(=O)C2(N([H])C(=O)N3C([H])([H])C([H])([H])C([H])([H])C([H])(n4nc(-c5c([H])c([H])c(Oc6c([H])c([H])c(F)c([H])c6F)c([H])c5[H])c(C(=O)N([H])[H])c4N([H])[H])C3([H])[H])C([H])([H])C([H])([H])C2([H])[H])c1[H]

$$$$
94:0:0
     RDKit          3D

 95103  0  0  1  0  0  0  0  0999 V2000
  -28.7160  -22.6200   17.1620 C   0  0  0  0  0  1  0  0  0  0  0  0
  -29.5250  -22.7320   18.4710 C   0  0  0  0  0  3  0  0  0  0  0  0
  -30.5260  -20.1100   21.0880 C   0  0  0  0  0  3  0  0  0  0  0  0
  -28.5130  -19.3140   19.9690 C   0  0  0  0  0  3  0  0  0  0  0  0
  -30.4740  -21.2970   20.3300 C   0  0  0  0  0  3  0  0  0  0  0  0
  -28.4550  -20.5060   19.2190 C   0  0  0  0  0  3  0  0  0  0  0  0
  -29.5660  -19.0990   20.8830 C   0  0  0  0  0  0  0  0  0  0  0  0
  -29.4580  -21.4930   19.3660 C   0  0  0  0  0  0  0  0  0  0  0  0
  -29.7060  -17.7500   21.5820 C   0  0  0  0  0  2  0  0  0  0  0  0
  -30.3150  -15.3210   21.0700 C   0  0  0  0  0  3  0  0  0  0  0  0
  -30.3100  -16.6290   20.7330 C   0  0  0  0  0  0  0  0  0  0  0  0
  -30.8820  -14.3040   20.1890 C   0  0  0  0  0  0  0  0  0  0  0  0
  -30.4020  -12.2570   18.9080 C   0  0  0  0  0  2  0  0  0  0  0  0
  -29.4100  -12.5850   17.7730 C   0  0  0  0  0  2  0  0  0  0  0  0
  -27.9550  -12.4850   18.2760 C   0  0  0  0  0  2  0  0  0  0  0  0
  -27.7260  -13.2590   19.6030 C   0  0  0  0  0  3  0  0  0  0  0  0
  -28.8220  -12.8980   20.6300 C   0  0  0  0  0  2  0  0  0  0  0  0
  -30.1360  -13.1780   20.0230 N   0  0  0  0  0  0  0  0  0  0  0  0
  -31.9260  -14.5020   19.5570 O   0  0  0  0  0  0  0  0  0  0  0  0
  -25.3800  -13.9220   20.4350 C   0  0  0  0  0  0  0  0  0  0  0  0
  -24.3100  -13.1720   20.8460 C   0  0  0  0  0  0  0  0  0  0  0  0
  -24.7310  -11.8090   20.7740 C   0  0  0  0  0  0  0  0  0  0  0  0
  -26.3880  -13.0160   20.1390 N   0  0  0  0  0  0  0  0  0  0  0  0
  -26.0010  -11.7400   20.3970 N   0  0  0  0  0  0  0  0  0  0  0  0
  -23.9830  -10.5640   20.9850 C   0  0  0  0  0  0  0  0  0  0  0  0
  -24.4340   -9.5750   21.8880 C   0  0  0  0  0  3  0  0  0  0  0  0
  -23.6890   -8.3930   22.0850 C   0  0  0  0  0  3  0  0  0  0  0  0
  -22.4780   -8.1910   21.3830 C   0  0  0  0  0  0  0  0  0  0  0  0
  -22.0450   -9.1690   20.4690 C   0  0  0  0  0  3  0  0  0  0  0  0
  -22.7890  -10.3420   20.2680 C   0  0  0  0  0  3  0  0  0  0  0  0
  -21.6990   -7.0640   21.4930 O   0  0  0  0  0  0  0  0  0  0  0  0
  -21.6740   -6.3190   22.6440 C   0  0  0  0  0  0  0  0  0  0  0  0
  -21.3230   -6.8820   23.8900 C   0  0  0  0  0  3  0  0  0  0  0  0
  -21.2420   -6.0630   25.0350 C   0  0  0  0  0  3  0  0  0  0  0  0
  -21.5000   -4.6830   24.9340 C   0  0  0  0  0  0  0  0  0  0  0  0
  -21.8450   -4.1200   23.6920 C   0  0  0  0  0  3  0  0  0  0  0  0
  -21.9270   -4.9350   22.5500 C   0  0  0  0  0  0  0  0  0  0  0  0
  -22.2400   -4.3840   21.3520 F   0  0  0  0  0  0  0  0  0  0  0  0
  -21.4130   -3.8940   26.0310 F   0  0  0  0  0  0  0  0  0  0  0  0
  -22.9420  -13.6820   21.1990 C   0  0  0  0  0  0  0  0  0  0  0  0
  -22.2450  -12.9960   22.0990 N   0  0  0  0  0  0  0  0  0  0  0  0
  -22.5020  -14.7230   20.7120 O   0  0  0  0  0  0  0  0  0  0  0  0
  -22.6140  -12.1560   22.5190 H   0  0  0  0  0  0  0  0  0  0  0  0
  -21.3290  -13.3220   22.3760 H   0  0  0  0  0  0  0  0  0  0  0  0
  -25.5720  -15.2900   20.2690 N   0  0  0  0  0  0  0  0  0  0  0  0
  -24.8350  -15.9660   20.4320 H   0  0  0  0  0  0  0  0  0  0  0  0
  -26.4280  -15.7110   19.9290 H   0  0  0  0  0  0  0  0  0  0  0  0
  -30.8420  -17.1050   19.5890 O   0  0  0  0  0  0  0  0  0  0  0  0
  -31.2780  -16.3810   19.1520 H   0  0  0  0  0  0  0  0  0  0  0  0
  -29.1370  -23.9430   19.2220 N   0  0  0  0  0  4  0  0  0  0  0  0
  -28.1390  -24.0600   19.1460 H   0  0  0  0  0  0  0  0  0  0  0  0
  -29.3370  -23.7890   20.1980 H   0  0  0  0  0  0  0  0  0  0  0  0
  -29.8440  -25.1780   18.7980 C   0  0  0  0  0  2  0  0  0  0  0  0
  -28.9130  -26.3930   18.7410 C   0  0  0  0  0  2  0  0  0  0  0  0
  -28.4290  -26.7000   20.0480 O   0  0  0  0  0  0  0  0  0  0  0  0
  -24.5570  -31.7970   23.1580 C   0  0  0  0  0  0  0  0  0  0  0  0
  -27.2460  -27.3970   20.0710 C   0  0  0  0  0  0  0  0  0  0  0  0
  -23.3660  -30.3910   21.5060 C   0  0  0  0  0  3  0  0  0  0  0  0
  -24.8350  -28.8600   20.0930 C   0  0  0  0  0  0  0  0  0  0  0  0
  -25.8890  -30.7640   21.3250 C   0  0  0  0  0  2  0  0  0  0  0  0
  -25.9840  -29.3930   20.6920 C   0  0  0  0  0  0  0  0  0  0  0  0
  -27.1910  -28.6610   20.6920 C   0  0  0  0  0  3  0  0  0  0  0  0
  -26.0750  -26.8590   19.4940 C   0  0  0  0  0  3  0  0  0  0  0  0
  -24.8720  -27.5880   19.4990 C   0  0  0  0  0  3  0  0  0  0  0  0
  -23.5880  -29.7120   20.1280 C   0  0  0  0  0  2  0  0  0  0  0  0
  -24.6210  -30.9970   22.0550 N   0  0  0  0  0  0  0  0  0  0  0  0
  -23.4700  -32.0640   23.6900 O   0  0  0  0  0  0  0  0  0  0  0  0
  -22.7140  -29.3650   22.4610 C   0  0  0  0  0  0  0  0  0  0  0  0
  -21.3870  -29.1980   22.3410 N   0  0  0  0  0  0  0  0  0  0  0  0
  -23.3980  -28.7230   23.2610 O   0  0  0  0  0  0  0  0  0  0  0  0
  -20.8990  -29.7680   21.6660 H   0  0  0  0  0  0  0  0  0  0  0  0
  -18.0010  -28.0530   22.8590 C   0  0  0  0  0  0  0  0  0  0  0  0
  -20.5650  -28.2620   23.1060 C   0  0  0  0  0  3  0  0  0  0  0  0
  -20.6370  -26.8390   22.5040 C   0  0  0  0  0  2  0  0  0  0  0  0
  -19.5180  -26.5520   21.4980 C   0  0  0  0  0  2  0  0  0  0  0  0
  -18.1470  -26.7110   22.1610 C   0  0  0  0  0  2  0  0  0  0  0  0
  -19.1380  -28.7870   23.2880 C   0  0  0  0  0  0  0  0  0  0  0  0
  -18.9490  -30.0470   23.8990 C   0  0  0  0  0  3  0  0  0  0  0  0
  -17.6560  -30.5700   24.0850 C   0  0  0  0  0  3  0  0  0  0  0  0
  -16.5320  -29.8300   23.6740 C   0  0  0  0  0  3  0  0  0  0  0  0
  -16.7070  -28.5730   23.0660 C   0  0  0  0  0  3  0  0  0  0  0  0
  -25.8370  -32.4280   23.7870 C   0  0  0  0  0  3  0  0  0  0  0  0
  -25.5140  -33.8150   24.1440 N   0  0  0  0  0  0  0  0  0  0  0  0
  -25.8270  -34.8840   23.4000 C   0  0  0  0  0  0  0  0  0  0  0  0
  -26.4900  -34.8080   22.3610 O   0  0  0  0  0  0  0  0  0  0  0  0
  -24.9250  -33.9490   24.9520 H   0  0  0  0  0  0  0  0  0  0  0  0
  -24.0670  -36.6540   23.0900 C   0  0  0  0  0  1  0  0  0  0  0  0
  -25.3230  -36.2580   23.8840 C   0  0  0  0  0  3  0  0  0  0  0  0
  -27.4570  -37.1570   24.7000 C   0  0  0  0  0  1  0  0  0  0  0  0
  -26.3370  -37.3290   23.7770 N   0  0  0  0  0  0  0  0  0  0  0  0
  -25.9200  -38.2390   23.9530 H   0  0  0  0  0  0  0  0  0  0  0  0
  -26.3710  -31.6360   25.0430 C   0  0  1  0  0  0  0  0  0  0  0  0
  -25.2900  -31.3700   26.1160 C   0  0  0  0  0  1  0  0  0  0  0  0
  -26.9590  -30.2710   24.6150 C   0  0  0  0  0  1  0  0  0  0  0  0
  -27.5220  -32.4250   25.7090 C   0  0  0  0  0  1  0  0  0  0  0  0
  2  1  1  0
  2 50  1  0
  2  8  1  0
  4  7  2  0
  5  3  2  0
  6  8  2  0
  6  4  1  0
  7  3  1  0
  7  9  1  0
  8  5  1  0
 11 10  2  0
 11  9  1  0
 12 10  1  0
 13 18  1  0
 14 15  1  0
 14 13  1  0
 16 15  1  0
 16 23  1  0
 16 17  1  0
 18 12  1  0
 18 17  1  0
 19 12  2  0
 20 21  2  0
 21 40  1  0
 22 21  1  0
 22 25  1  0
 23 24  1  0
 23 20  1  0
 24 22  2  0
 25 26  1  0
 26 27  2  0
 28 31  1  0
 28 27  1  0
 29 28  2  0
 30 29  1  0
 30 25  2  0
 31 32  1  0
 32 33  1  0
 33 34  2  0
 35 34  1  0
 35 39  1  0
 36 35  2  0
 37 32  2  0
 37 36  1  0
 38 37  1  0
 40 41  1  0
 41 44  1  0
 41 43  1  0
 42 40  2  0
 45 46  1  0
 45 20  1  0
 47 45  1  0
 48 11  1  0
 49 48  1  0
 50 52  1  0
 51 50  1  0
 53 50  1  0
 54 53  1  0
 54 55  1  0
 55 57  1  0
 56 67  2  0
 57 62  1  0
 58 66  1  0
 58 68  1  0
 59 65  1  0
 59 61  1  0
 60 66  1  0
 61 60  1  0
 62 61  2  0
 63 64  1  0
 63 57  2  0
 64 59  2  0
 65 58  1  0
 66 56  1  0
 68 70  2  0
 69 68  1  0
 71 69  1  0
 72 81  2  0
 72 77  1  0
 73 69  1  0
 73 77  1  0
 74 73  1  0
 75 76  1  0
 75 74  1  0
 76 72  1  0
 77 78  2  0
 78 79  1  0
 80 79  2  0
 81 80  1  0
 82 56  1  0
 82 83  1  0
 82 92  1  0
 83 86  1  0
 84 88  1  0
 84 83  1  0
 85 84  2  0
 88 87  1  0
 90 88  1  0
 90 91  1  0
 90 89  1  0
 92 95  1  1
 92 93  1  0
 94 92  1  0
M  ISO  4  10 100  12 100  54 101  55 101
M  END
>  <TORSDO>  (95) 
F 23

>  <SCORE>  (95) 
-12.661

>  <name>  (95) 
94

>  <ligand_id>  (95) 
94

>  <original_smiles>  (95) 
[H]OC(=C([H])C(=O)N1C([H])([H])C([H])([H])C([H])([H])C([H])(n2nc(-c3c([H])c([H])c(Oc4c([H])c([H])c(F)c([H])c4F)c([H])c3[H])c(C(=O)N([H])[H])c2N([H])[H])C1([H])[H])C([H])([H])c1c([H])c([H])c(C([H])(C([H])([H])[H])[N+]([H])([H])C([H])([H])C([H])([H])Oc2c([H])c([H])c3c(c2[H])C([H])([H])N(C(=O)C([H])(N([H])C(=O)C([H])(N([H])C([H])([H])[H])C([H])([H])[H])C(C([H])([H])[H])(C([H])([H])[H])C([H])([H])[H])C([H])(C(=O)N([H])C2([H])c4c([H])c([H])c([H])c([H])c4C([H])([H])C([H])([H])C2([H])[H])C3([H])[H])c([H])c1[H]

>  <smiles>  (95) 
[H]OC(=C([H])C(=O)N1C([H])([H])C([H])([H])C([H])([H])C([H])(n2nc(-c3c([H])c([H])c(Oc4c([H])c([H])c(F)c([H])c4F)c([H])c3[H])c(C(=O)N([H])[H])c2N([H])[H])C1([H])[H])C([H])([H])c1c([H])c([H])c(C([H])(C([H])([H])[H])[N+]([H])([H])C([H])([H])C([H])([H])Oc2c([H])c([H])c3c(c2[H])C([H])([H])N(C(=O)C([H])(N([H])C(=O)C([H])(N([H])C([H])([H])[H])C([H])([H])[H])C(C([H])([H])[H])(C([H])([H])[H])C([H])([H])[H])C([H])(C(=O)N([H])C2([H])c4c([H])c([H])c([H])c([H])c4C([H])([H])C([H])([H])C2([H])[H])C3([H])[H])c([H])c1[H]

$$$$
95:0:0
     RDKit          3D

 99106  0  0  1  0  0  0  0  0999 V2000
  -28.4040  -20.6990   16.0300 C   0  0  0  0  0  3  0  0  0  0  0  0
  -28.6820  -19.6230   18.0950 C   0  0  0  0  0  3  0  0  0  0  0  0
  -29.3550  -19.7570   15.4330 C   0  0  0  0  0  3  0  0  0  0  0  0
  -29.6130  -18.6780   17.5020 C   0  0  0  0  0  3  0  0  0  0  0  0
  -28.0180  -20.7100   17.4180 C   0  0  0  0  0  0  0  0  0  0  0  0
  -30.0400  -18.6940   16.1320 C   0  0  0  0  0  0  0  0  0  0  0  0
  -27.1790  -21.8290   18.2590 C   0  0  0  0  0  0  0  0  0  0  0  0
  -27.4680  -21.9380   19.4570 O   0  0  0  0  0  0  0  0  0  0  0  0
  -25.9400  -22.8110   17.7980 C   0  0  0  0  0  2  0  0  0  0  0  0
  -25.1480  -23.6980   18.8230 O   0  0  0  0  0  0  0  0  0  0  0  0
  -17.8140  -24.8780   18.8350 C   0  0  0  0  0  0  0  0  0  0  0  0
  -23.9800  -24.4420   18.4190 C   0  0  0  0  0  0  0  0  0  0  0  0
  -19.1360  -25.7130   16.9360 C   0  0  0  0  0  3  0  0  0  0  0  0
  -21.6790  -25.7900   17.2660 C   0  0  0  0  0  0  0  0  0  0  0  0
  -20.2250  -25.4950   19.2610 C   0  0  0  0  0  2  0  0  0  0  0  0
  -21.5880  -25.2920   18.5710 C   0  0  0  0  0  0  0  0  0  0  0  0
  -22.7360  -24.6290   19.1550 C   0  0  0  0  0  3  0  0  0  0  0  0
  -23.9970  -25.0340   17.1390 C   0  0  0  0  0  3  0  0  0  0  0  0
  -22.8830  -25.6700   16.5640 C   0  0  0  0  0  3  0  0  0  0  0  0
  -20.4640  -26.4580   16.6480 C   0  0  0  0  0  2  0  0  0  0  0  0
  -19.0240  -25.3240   18.3790 N   0  0  0  0  0  0  0  0  0  0  0  0
  -16.8260  -24.8020   18.0890 O   0  0  0  0  0  0  0  0  0  0  0  0
  -19.0000  -24.5130   15.9670 C   0  0  0  0  0  0  0  0  0  0  0  0
  -18.5350  -24.7710   14.7310 N   0  0  0  0  0  0  0  0  0  0  0  0
  -19.3290  -23.3780   16.3250 O   0  0  0  0  0  0  0  0  0  0  0  0
  -18.2730  -25.7220   14.5130 H   0  0  0  0  0  0  0  0  0  0  0  0
  -17.5130  -24.3570   11.2800 C   0  0  0  0  0  0  0  0  0  0  0  0
  -18.3730  -23.7920   13.6530 C   0  0  0  0  0  3  0  0  0  0  0  0
  -19.7270  -23.4810   12.9740 C   0  0  0  0  0  2  0  0  0  0  0  0
  -20.0000  -24.3530   11.7440 C   0  0  0  0  0  2  0  0  0  0  0  0
  -18.9020  -24.1620   10.6950 C   0  0  0  0  0  2  0  0  0  0  0  0
  -17.2680  -24.1990   12.6700 C   0  0  0  0  0  0  0  0  0  0  0  0
  -15.9650  -24.4240   13.1650 C   0  0  0  0  0  3  0  0  0  0  0  0
  -14.9200  -24.8000   12.3000 C   0  0  0  0  0  3  0  0  0  0  0  0
  -15.1650  -24.9420   10.9230 C   0  0  0  0  0  3  0  0  0  0  0  0
  -16.4580  -24.7170   10.4150 C   0  0  0  0  0  3  0  0  0  0  0  0
  -17.6100  -24.4580   20.3230 C   0  0  0  0  0  3  0  0  0  0  0  0
  -16.3550  -23.6930   20.4030 N   0  0  0  0  0  0  0  0  0  0  0  0
  -15.1980  -24.1700   20.8810 C   0  0  0  0  0  0  0  0  0  0  0  0
  -15.0930  -25.3000   21.3680 O   0  0  0  0  0  0  0  0  0  0  0  0
  -16.3550  -22.7810   19.9710 H   0  0  0  0  0  0  0  0  0  0  0  0
  -13.1050  -23.6290   19.5940 C   0  0  0  0  0  1  0  0  0  0  0  0
  -13.9630  -23.2500   20.8120 C   0  0  0  0  0  3  0  0  0  0  0  0
  -13.7910  -22.7040   23.2000 C   0  0  0  0  0  1  0  0  0  0  0  0
  -13.1310  -23.2850   22.0350 N   0  0  0  0  0  0  0  0  0  0  0  0
  -12.2540  -22.7920   21.8880 H   0  0  0  0  0  0  0  0  0  0  0  0
  -18.8100  -23.6060   20.8950 C   0  0  1  0  0  0  0  0  0  0  0  0
  -19.4590  -22.6650   19.8530 C   0  0  0  0  0  1  0  0  0  0  0  0
  -19.9210  -24.5230   21.4530 C   0  0  0  0  0  1  0  0  0  0  0  0
  -18.3180  -22.7420   22.0790 C   0  0  0  0  0  1  0  0  0  0  0  0
  -31.3530  -17.8440   15.5620 C   0  0  0  0  0  2  0  0  0  0  0  0
  -32.4250  -18.2000   14.3160 C   0  0  0  0  0  2  0  0  0  0  0  0
  -33.5350  -21.8870   12.8490 C   0  0  0  0  0  3  0  0  0  0  0  0
  -34.7260  -22.5830   13.6180 C   0  0  0  0  0  3  0  0  0  0  0  0
  -32.9610  -20.4350   13.1000 C   0  0  0  0  0  3  0  0  0  0  0  0
  -35.5910  -21.9660   14.7990 C   0  0  0  0  0  0  0  0  0  0  0  0
  -33.5720  -19.4810   14.2530 C   0  0  0  0  0  2  0  0  0  0  0  0
  -35.2550  -20.4550   15.3620 C   0  0  0  0  0  2  0  0  0  0  0  0
  -36.7010  -22.8560   15.3410 C   0  0  0  0  0  1  0  0  0  0  0  0
  -35.9290  -20.4100   16.8190 C   0  0  0  0  0  3  0  0  0  0  0  0
  -36.4770  -18.9780   17.3550 C   0  0  0  0  0  3  0  0  0  0  0  0
  -37.1000  -16.9370   15.8970 C   0  0  0  0  0  0  0  0  0  0  0  0
  -38.4760  -18.4600   14.7320 C   0  0  0  0  0  1  0  0  0  0  0  0
  -40.9380  -20.2420   15.6120 C   0  0  0  0  0  1  0  0  0  0  0  0
  -41.3130  -19.7260   17.3230 C   0  0  0  0  0  3  0  0  0  0  0  0
  -40.5110  -18.2930   18.1000 C   0  0  0  0  0  0  0  0  0  0  0  0
  -39.0280  -17.3000   17.6170 C   0  0  0  0  0  2  0  0  0  0  0  0
  -38.2310  -17.3730   16.0940 N   0  0  0  0  0  0  0  0  0  0  0  0
  -36.8890  -16.3640   14.8320 O   0  0  0  0  0  0  0  0  0  0  0  0
  -36.2460  -17.6290   16.6810 N   0  0  0  0  0  0  0  0  0  0  0  0
  -35.2740  -17.3900   16.5450 H   0  0  0  0  0  0  0  0  0  0  0  0
  -41.4800  -17.3040   20.1460 C   0  0  0  0  0  0  0  0  0  0  0  0
  -41.7910  -17.8820   21.3310 C   0  0  0  0  0  0  0  0  0  0  0  0
  -41.2310  -19.1970   21.3010 C   0  0  0  0  0  0  0  0  0  0  0  0
  -40.7830  -18.2800   19.4720 N   0  0  0  0  0  0  0  0  0  0  0  0
  -40.5720  -19.4040   20.1770 N   0  0  0  0  0  0  0  0  0  0  0  0
  -41.3330  -20.2960   22.2510 C   0  0  0  0  0  0  0  0  0  0  0  0
  -40.3450  -21.3000   22.3150 C   0  0  0  0  0  3  0  0  0  0  0  0
  -40.4440  -22.3310   23.2710 C   0  0  0  0  0  3  0  0  0  0  0  0
  -41.5370  -22.3590   24.1690 C   0  0  0  0  0  0  0  0  0  0  0  0
  -42.5360  -21.3740   24.0740 C   0  0  0  0  0  3  0  0  0  0  0  0
  -42.4410  -20.3510   23.1180 C   0  0  0  0  0  3  0  0  0  0  0  0
  -41.7220  -23.3270   25.1240 O   0  0  0  0  0  0  0  0  0  0  0  0
  -40.8720  -24.3980   25.2310 C   0  0  0  0  0  0  0  0  0  0  0  0
  -39.4720  -24.2350   25.2930 C   0  0  0  0  0  3  0  0  0  0  0  0
  -38.6410  -25.3590   25.4750 C   0  0  0  0  0  3  0  0  0  0  0  0
  -39.2090  -26.6410   25.6030 C   0  0  0  0  0  0  0  0  0  0  0  0
  -40.6050  -26.8020   25.5460 C   0  0  0  0  0  3  0  0  0  0  0  0
  -41.4340  -25.6830   25.3630 C   0  0  0  0  0  0  0  0  0  0  0  0
  -42.7790  -25.8400   25.3280 F   0  0  0  0  0  0  0  0  0  0  0  0
  -38.4120  -27.7190   25.7870 F   0  0  0  0  0  0  0  0  0  0  0  0
  -42.6590  -17.2740   22.3800 C   0  0  0  0  0  0  0  0  0  0  0  0
  -42.3110  -17.4810   23.6410 N   0  0  0  0  0  0  0  0  0  0  0  0
  -43.6170  -16.5620   22.0770 O   0  0  0  0  0  0  0  0  0  0  0  0
  -41.5080  -18.0460   23.8720 H   0  0  0  0  0  0  0  0  0  0  0  0
  -42.8560  -17.0710   24.3870 H   0  0  0  0  0  0  0  0  0  0  0  0
  -41.7820  -16.0660   19.5720 N   0  0  0  0  0  0  0  0  0  0  0  0
  -42.3520  -15.3770   20.0490 H   0  0  0  0  0  0  0  0  0  0  0  0
  -41.4910  -15.7690   18.6510 H   0  0  0  0  0  0  0  0  0  0  0  0
  1  5  1  0
  3  1  2  0
  3  6  1  0
  4  2  1  0
  5  2  2  0
  5  7  1  0
  6  4  2  0
  7  8  2  0
  9  7  1  0
  9 10  1  0
 12 10  1  0
 12 17  1  0
 13 23  1  0
 13 21  1  0
 14 16  1  0
 16 17  2  0
 16 15  1  0
 18 12  2  0
 19 18  1  0
 19 14  2  0
 20 13  1  0
 20 14  1  0
 21 11  1  0
 21 15  1  0
 22 11  2  0
 23 25  2  0
 24 23  1  0
 26 24  1  0
 27 32  1  0
 28 24  1  0
 29 28  1  0
 30 29  1  0
 31 27  1  0
 31 30  1  0
 32 33  2  0
 32 28  1  0
 34 33  1  0
 35 34  2  0
 36 35  1  0
 36 27  2  0
 37 11  1  0
 37 38  1  0
 37 47  1  0
 38 39  1  0
 39 40  2  0
 41 38  1  0
 43 42  1  0
 43 39  1  0
 43 45  1  0
 45 44  1  0
 46 45  1  0
 47 49  1  1
 47 50  1  0
 48 47  1  0
 51  6  1  0
 52 51  1  0
 53 55  2  0
 53 54  1  0
 54 56  2  0
 55 57  1  0
 56 59  1  0
 56 58  1  0
 57 52  1  0
 58 60  1  0
 60 61  2  0
 62 68  1  0
 62 70  1  0
 63 68  1  0
 64 65  1  0
 65 66  2  0
 66 75  1  0
 67 66  1  0
 68 67  1  0
 69 62  2  0
 70 61  1  0
 71 70  1  0
 72 73  2  0
 73 92  1  0
 74 73  1  0
 74 77  1  0
 75 72  1  0
 75 76  1  0
 76 74  2  0
 77 78  2  0
 77 82  1  0
 78 79  1  0
 79 80  2  0
 80 83  1  0
 81 80  1  0
 82 81  2  0
 83 84  1  0
 84 85  2  0
 84 89  1  0
 85 86  1  0
 86 87  2  0
 87 91  1  0
 88 87  1  0
 89 88  2  0
 90 89  1  0
 92 93  1  0
 93 95  1  0
 93 96  1  0
 94 92  2  0
 97 98  1  0
 97 72  1  0
 99 97  1  0
M  ISO  4   9 101  10 101  62 100  70 100
M  END
>  <TORSDO>  (96) 
F 23

>  <SCORE>  (96) 
-5.040

>  <name>  (96) 
95

>  <ligand_id>  (96) 
95

>  <original_smiles>  (96) 
[H]c1c([H])c(C([H])([H])[H])c(C([H])([H])C([H])([H])N([H])C(=O)N2C([H])([H])C([H])([H])C([H])([H])C([H])(n3nc(-c4c([H])c([H])c(Oc5c([H])c([H])c(F)c([H])c5F)c([H])c4[H])c(C(=O)N([H])[H])c3N([H])[H])C2([H])[H])c(C([H])([H])C([H])([H])c2c([H])c([H])c(C(=O)C([H])([H])Oc3c([H])c([H])c4c(c3[H])C([H])([H])N(C(=O)C([H])(N([H])C(=O)C([H])(N([H])C([H])([H])[H])C([H])([H])[H])C(C([H])([H])[H])(C([H])([H])[H])C([H])([H])[H])C([H])(C(=O)N([H])C3([H])c5c([H])c([H])c([H])c([H])c5C([H])([H])C([H])([H])C3([H])[H])C4([H])[H])c([H])c2[H])c1[H]

>  <smiles>  (96) 
[H]c1c([H])c(C([H])([H])[H])c(C([H])([H])C([H])([H])N([H])C(=O)N2C([H])([H])C([H])([H])C([H])([H])C([H])(n3nc(-c4c([H])c([H])c(Oc5c([H])c([H])c(F)c([H])c5F)c([H])c4[H])c(C(=O)N([H])[H])c3N([H])[H])C2([H])[H])c(C([H])([H])C([H])([H])c2c([H])c([H])c(C(=O)C([H])([H])Oc3c([H])c([H])c4c(c3[H])C([H])([H])N(C(=O)C([H])(N([H])C(=O)C([H])(N([H])C([H])([H])[H])C([H])([H])[H])C(C([H])([H])[H])(C([H])([H])[H])C([H])([H])[H])C([H])(C(=O)N([H])C3([H])c5c([H])c([H])c([H])c([H])c5C([H])([H])C([H])([H])C3([H])[H])C4([H])[H])c([H])c2[H])c1[H]

$$$$
96:0:0
     RDKit          3D

 91 99  0  0  1  0  0  0  0  0999 V2000
  -30.4650  -22.5090   21.2310 C   0  0  0  0  0  3  0  0  0  0  0  0
  -28.1490  -22.4450   20.4900 C   0  0  0  0  0  3  0  0  0  0  0  0
  -30.4420  -21.1120   21.4190 C   0  0  0  0  0  3  0  0  0  0  0  0
  -28.1280  -21.0490   20.6630 C   0  0  0  0  0  3  0  0  0  0  0  0
  -29.3300  -23.1840   20.7390 C   0  0  0  0  0  0  0  0  0  0  0  0
  -29.2790  -20.3740   21.1110 C   0  0  0  0  0  0  0  0  0  0  0  0
  -29.3910  -24.6360   20.5080 C   0  0  0  0  0  3  0  0  0  0  0  0
  -28.3130  -25.4270   20.4050 C   0  0  0  0  0  3  0  0  0  0  0  0
  -28.3970  -26.7650   20.1240 O   0  0  0  0  0  0  0  0  0  0  0  0
  -24.5740  -31.8820   23.2240 C   0  0  0  0  0  0  0  0  0  0  0  0
  -27.2220  -27.4780   20.1210 C   0  0  0  0  0  0  0  0  0  0  0  0
  -23.3670  -30.4780   21.5840 C   0  0  0  0  0  3  0  0  0  0  0  0
  -24.8190  -28.9520   20.1510 C   0  0  0  0  0  0  0  0  0  0  0  0
  -25.8890  -30.8510   21.3780 C   0  0  0  0  0  2  0  0  0  0  0  0
  -25.9740  -29.4840   20.7380 C   0  0  0  0  0  0  0  0  0  0  0  0
  -27.1790  -28.7490   20.7270 C   0  0  0  0  0  3  0  0  0  0  0  0
  -26.0550  -26.9640   19.5080 C   0  0  0  0  0  3  0  0  0  0  0  0
  -24.8520  -27.6900   19.5350 C   0  0  0  0  0  3  0  0  0  0  0  0
  -23.5720  -29.8030   20.2020 C   0  0  0  0  0  2  0  0  0  0  0  0
  -24.6270  -31.0850   22.1210 N   0  0  0  0  0  0  0  0  0  0  0  0
  -23.4940  -32.1490   23.7690 O   0  0  0  0  0  0  0  0  0  0  0  0
  -22.7240  -29.4520   22.5440 C   0  0  0  0  0  0  0  0  0  0  0  0
  -21.4000  -29.2650   22.4190 N   0  0  0  0  0  0  0  0  0  0  0  0
  -23.4120  -28.8250   23.3540 O   0  0  0  0  0  0  0  0  0  0  0  0
  -20.9040  -29.8250   21.7380 H   0  0  0  0  0  0  0  0  0  0  0  0
  -18.0310  -28.0620   22.9210 C   0  0  0  0  0  0  0  0  0  0  0  0
  -20.5870  -28.3260   23.1910 C   0  0  0  0  0  3  0  0  0  0  0  0
  -20.6940  -26.8940   22.6160 C   0  0  0  0  0  2  0  0  0  0  0  0
  -19.5910  -26.5690   21.6030 C   0  0  0  0  0  2  0  0  0  0  0  0
  -18.2100  -26.7120   22.2470 C   0  0  0  0  0  2  0  0  0  0  0  0
  -19.1470  -28.8270   23.3510 C   0  0  0  0  0  0  0  0  0  0  0  0
  -18.9260  -30.0900   23.9380 C   0  0  0  0  0  3  0  0  0  0  0  0
  -17.6200  -30.5900   24.1030 C   0  0  0  0  0  3  0  0  0  0  0  0
  -16.5170  -29.8210   23.6900 C   0  0  0  0  0  3  0  0  0  0  0  0
  -16.7240  -28.5600   23.1040 C   0  0  0  0  0  3  0  0  0  0  0  0
  -25.8610  -32.5150   23.8400 C   0  0  0  0  0  3  0  0  0  0  0  0
  -25.5490  -33.9110   24.1730 N   0  0  0  0  0  0  0  0  0  0  0  0
  -25.8780  -34.9650   23.4130 C   0  0  0  0  0  0  0  0  0  0  0  0
  -26.5460  -34.8650   22.3800 O   0  0  0  0  0  0  0  0  0  0  0  0
  -24.9560  -34.0650   24.9760 H   0  0  0  0  0  0  0  0  0  0  0  0
  -24.1430  -36.7510   23.0630 C   0  0  0  0  0  1  0  0  0  0  0  0
  -25.3870  -36.3510   23.8720 C   0  0  0  0  0  3  0  0  0  0  0  0
  -27.5230  -37.2360   24.6960 C   0  0  0  0  0  1  0  0  0  0  0  0
  -26.4130  -37.4090   23.7620 N   0  0  0  0  0  0  0  0  0  0  0  0
  -26.0040  -38.3240   23.9250 H   0  0  0  0  0  0  0  0  0  0  0  0
  -26.3900  -31.7410   25.1090 C   0  0  1  0  0  0  0  0  0  0  0  0
  -25.3070  -31.4950   26.1840 C   0  0  0  0  0  1  0  0  0  0  0  0
  -26.9740  -30.3680   24.7040 C   0  0  0  0  0  1  0  0  0  0  0  0
  -27.5440  -32.5350   25.7640 C   0  0  0  0  0  1  0  0  0  0  0  0
  -29.2980  -18.8550   21.1480 C   0  0  0  0  0  2  0  0  0  0  0  0
  -30.2270  -18.3310   20.0390 C   0  0  0  0  0  2  0  0  0  0  0  0
  -31.0470  -16.7420   18.3690 C   0  0  0  0  0  1  0  0  0  0  0  0
  -28.6180  -16.7900   18.8610 C   0  0  0  0  0  1  0  0  0  0  0  0
  -30.0110  -16.8880   19.5160 C   0  0  2  0  0  0  0  0  0  0  0  0
  -30.1650  -15.8290   20.6830 C   0  0  0  0  0  2  0  0  0  0  0  0
  -30.7960  -14.4680   20.3040 C   0  0  0  0  0  0  0  0  0  0  0  0
  -30.4010  -12.3200   19.1970 C   0  0  0  0  0  2  0  0  0  0  0  0
  -29.4620  -12.5690   18.0000 C   0  0  0  0  0  2  0  0  0  0  0  0
  -27.9880  -12.4640   18.4380 C   0  0  0  0  0  2  0  0  0  0  0  0
  -27.6810  -13.2910   19.7170 C   0  0  0  0  0  3  0  0  0  0  0  0
  -28.7480  -13.0710   20.8100 C   0  0  0  0  0  2  0  0  0  0  0  0
  -30.0690  -13.3210   20.2210 N   0  0  0  0  0  0  0  0  0  0  0  0
  -31.9720  -14.5060   19.9410 O   0  0  0  0  0  0  0  0  0  0  0  0
  -25.2930  -13.9380   20.4210 C   0  0  0  0  0  0  0  0  0  0  0  0
  -24.2180  -13.1820   20.8000 C   0  0  0  0  0  0  0  0  0  0  0  0
  -24.6640  -11.8260   20.7800 C   0  0  0  0  0  0  0  0  0  0  0  0
  -26.3290  -13.0420   20.2050 N   0  0  0  0  0  0  0  0  0  0  0  0
  -25.9530  -11.7660   20.4770 N   0  0  0  0  0  0  0  0  0  0  0  0
  -23.9230  -10.5750   20.9780 C   0  0  0  0  0  0  0  0  0  0  0  0
  -24.3580   -9.5970   21.8990 C   0  0  0  0  0  3  0  0  0  0  0  0
  -23.6160   -8.4110   22.0860 C   0  0  0  0  0  3  0  0  0  0  0  0
  -22.4280   -8.1950   21.3490 C   0  0  0  0  0  0  0  0  0  0  0  0
  -22.0130   -9.1600   20.4160 C   0  0  0  0  0  3  0  0  0  0  0  0
  -22.7550  -10.3380   20.2260 C   0  0  0  0  0  3  0  0  0  0  0  0
  -21.6570   -7.0620   21.4490 O   0  0  0  0  0  0  0  0  0  0  0  0
  -21.6330   -6.3040   22.5920 C   0  0  0  0  0  0  0  0  0  0  0  0
  -21.2740   -6.8550   23.8420 C   0  0  0  0  0  3  0  0  0  0  0  0
  -21.1930   -6.0260   24.9790 C   0  0  0  0  0  3  0  0  0  0  0  0
  -21.4640   -4.6490   24.8680 C   0  0  0  0  0  0  0  0  0  0  0  0
  -21.8190   -4.0990   23.6240 C   0  0  0  0  0  3  0  0  0  0  0  0
  -21.8990   -4.9240   22.4890 C   0  0  0  0  0  0  0  0  0  0  0  0
  -22.2170   -4.3850   21.2880 F   0  0  0  0  0  0  0  0  0  0  0  0
  -21.3810   -3.8510   25.9580 F   0  0  0  0  0  0  0  0  0  0  0  0
  -22.8280  -13.6800   21.0690 C   0  0  0  0  0  0  0  0  0  0  0  0
  -22.0950  -13.0010   21.9450 N   0  0  0  0  0  0  0  0  0  0  0  0
  -22.4020  -14.7040   20.5390 O   0  0  0  0  0  0  0  0  0  0  0  0
  -22.4570  -12.1740   22.3980 H   0  0  0  0  0  0  0  0  0  0  0  0
  -21.1620  -13.3160   22.1700 H   0  0  0  0  0  0  0  0  0  0  0  0
  -25.4650  -15.3040   20.2220 N   0  0  0  0  0  0  0  0  0  0  0  0
  -24.6900  -15.9530   20.2880 H   0  0  0  0  0  0  0  0  0  0  0  0
  -26.3090  -15.7290   19.8620 H   0  0  0  0  0  0  0  0  0  0  0  0
  1  3  1  0
  2  4  2  0
  2  5  1  0
  4  6  1  0
  5  1  2  0
  6 50  1  0
  6  3  2  0
  7  5  1  0
  8  7  2  0
  9  8  1  0
 10 21  2  0
 11  9  1  0
 11 16  1  0
 12 20  1  0
 12 22  1  0
 13 19  1  0
 13 15  1  0
 14 20  1  0
 15 14  1  0
 16 15  2  0
 17 18  1  0
 17 11  2  0
 18 13  2  0
 19 12  1  0
 20 10  1  0
 22 24  2  0
 23 22  1  0
 25 23  1  0
 26 35  2  0
 26 31  1  0
 27 23  1  0
 27 31  1  0
 28 27  1  0
 29 30  1  0
 29 28  1  0
 30 26  1  0
 31 32  2  0
 32 33  1  0
 34 33  2  0
 35 34  1  0
 36 10  1  0
 36 37  1  0
 36 46  1  0
 37 40  1  0
 38 42  1  0
 38 37  1  0
 39 38  2  0
 42 41  1  0
 44 42  1  0
 44 45  1  0
 44 43  1  0
 46 49  1  1
 46 47  1  0
 48 46  1  0
 51 50  1  0
 54 52  1  6
 53 54  1  0
 54 51  1  0
 54 55  1  0
 56 55  1  0
 57 62  1  0
 58 59  1  0
 58 57  1  0
 60 59  1  0
 60 67  1  0
 60 61  1  0
 62 56  1  0
 62 61  1  0
 63 56  2  0
 64 65  2  0
 65 84  1  0
 66 65  1  0
 66 69  1  0
 67 64  1  0
 67 68  1  0
 68 66  2  0
 69 70  1  0
 70 71  2  0
 72 75  1  0
 72 71  1  0
 73 72  2  0
 74 73  1  0
 74 69  2  0
 75 76  1  0
 76 77  1  0
 77 78  2  0
 79 78  1  0
 79 83  1  0
 80 79  2  0
 81 76  2  0
 81 80  1  0
 82 81  1  0
 84 85  1  0
 85 88  1  0
 85 87  1  0
 86 84  2  0
 89 90  1  0
 89 64  1  0
 91 89  1  0
M  ISO  4   8 101   9 101  55 100  56 100
M  END
>  <TORSDO>  (97) 
F 21

>  <SCORE>  (97) 
-13.322

>  <name>  (97) 
96

>  <ligand_id>  (97) 
96

>  <original_smiles>  (97) 
[H]C(Oc1c([H])c([H])c2c(c1[H])C([H])([H])N(C(=O)C([H])(N([H])C(=O)C([H])(N([H])C([H])([H])[H])C([H])([H])[H])C(C([H])([H])[H])(C([H])([H])[H])C([H])([H])[H])C([H])(C(=O)N([H])C1([H])c3c([H])c([H])c([H])c([H])c3C([H])([H])C([H])([H])C1([H])[H])C2([H])[H])=C([H])c1c([H])c([H])c(C([H])([H])C([H])([H])C(C([H])([H])[H])(C([H])([H])[H])C([H])([H])C(=O)N2C([H])([H])C([H])([H])C([H])([H])C([H])(n3nc(-c4c([H])c([H])c(Oc5c([H])c([H])c(F)c([H])c5F)c([H])c4[H])c(C(=O)N([H])[H])c3N([H])[H])C2([H])[H])c([H])c1[H]

>  <smiles>  (97) 
[H]C(Oc1c([H])c([H])c2c(c1[H])C([H])([H])N(C(=O)C([H])(N([H])C(=O)C([H])(N([H])C([H])([H])[H])C([H])([H])[H])C(C([H])([H])[H])(C([H])([H])[H])C([H])([H])[H])C([H])(C(=O)N([H])C1([H])c3c([H])c([H])c([H])c([H])c3C([H])([H])C([H])([H])C1([H])[H])C2([H])[H])=C([H])c1c([H])c([H])c(C([H])([H])C([H])([H])C(C([H])([H])[H])(C([H])([H])[H])C([H])([H])C(=O)N2C([H])([H])C([H])([H])C([H])([H])C([H])(n3nc(-c4c([H])c([H])c(Oc5c([H])c([H])c(F)c([H])c5F)c([H])c4[H])c(C(=O)N([H])[H])c3N([H])[H])C2([H])[H])c([H])c1[H]

$$$$
97:0:0
     RDKit          3D

 95103  0  0  1  0  0  0  0  0999 V2000
  -29.0120  -19.8690   16.9900 C   0  0  0  0  0  3  0  0  0  0  0  0
  -28.7250  -21.2160   16.7770 C   0  0  0  0  0  3  0  0  0  0  0  0
  -29.5450  -19.4760   18.2200 C   0  0  0  0  0  3  0  0  0  0  0  0
  -28.9370  -22.1820   17.7840 C   0  0  0  0  0  0  0  0  0  0  0  0
  -29.7450  -20.3930   19.2820 C   0  0  0  0  0  0  0  0  0  0  0  0
  -29.4040  -21.7960   19.0900 C   0  0  0  0  0  0  0  0  0  0  0  0
  -28.6670  -23.6130   17.3290 C   0  0  0  0  0  1  0  0  0  0  0  0
  -29.5450  -22.8020   20.2880 C   0  0  0  0  0  2  0  0  0  0  0  0
  -29.5620  -24.3750   20.1450 C   0  0  0  0  0  2  0  0  0  0  0  0
  -28.2640  -25.1740   20.4940 C   0  0  0  0  0  2  0  0  0  0  0  0
  -28.4020  -26.6000   20.2330 O   0  0  0  0  0  0  0  0  0  0  0  0
  -24.5960  -31.8810   23.2200 C   0  0  0  0  0  0  0  0  0  0  0  0
  -27.2450  -27.3690   20.2130 C   0  0  0  0  0  0  0  0  0  0  0  0
  -23.4040  -30.4720   21.5770 C   0  0  0  0  0  3  0  0  0  0  0  0
  -24.8670  -28.9210   20.1810 C   0  0  0  0  0  0  0  0  0  0  0  0
  -25.9360  -30.8140   21.4040 C   0  0  0  0  0  2  0  0  0  0  0  0
  -26.0250  -29.4340   20.7800 C   0  0  0  0  0  0  0  0  0  0  0  0
  -27.2180  -28.6660   20.7930 C   0  0  0  0  0  3  0  0  0  0  0  0
  -26.0690  -26.8930   19.5900 C   0  0  0  0  0  3  0  0  0  0  0  0
  -24.8850  -27.6510   19.5850 C   0  0  0  0  0  3  0  0  0  0  0  0
  -23.6290  -29.7900   20.2030 C   0  0  0  0  0  2  0  0  0  0  0  0
  -24.6630  -31.0700   22.1270 N   0  0  0  0  0  0  0  0  0  0  0  0
  -23.5090  -32.1590   23.7460 O   0  0  0  0  0  0  0  0  0  0  0  0
  -22.7390  -29.4570   22.5360 C   0  0  0  0  0  0  0  0  0  0  0  0
  -21.4150  -29.2820   22.4010 N   0  0  0  0  0  0  0  0  0  0  0  0
  -23.4130  -28.8300   23.3580 O   0  0  0  0  0  0  0  0  0  0  0  0
  -20.9300  -29.8360   21.7090 H   0  0  0  0  0  0  0  0  0  0  0  0
  -18.0290  -28.1100   22.8860 C   0  0  0  0  0  0  0  0  0  0  0  0
  -20.5880  -28.3520   23.1710 C   0  0  0  0  0  3  0  0  0  0  0  0
  -20.6850  -26.9180   22.5980 C   0  0  0  0  0  2  0  0  0  0  0  0
  -19.5840  -26.6020   21.5810 C   0  0  0  0  0  2  0  0  0  0  0  0
  -18.2000  -26.7590   22.2160 C   0  0  0  0  0  2  0  0  0  0  0  0
  -19.1500  -28.8650   23.3220 C   0  0  0  0  0  0  0  0  0  0  0  0
  -18.9380  -30.1330   23.9050 C   0  0  0  0  0  3  0  0  0  0  0  0
  -17.6350  -30.6450   24.0580 C   0  0  0  0  0  3  0  0  0  0  0  0
  -16.5280  -29.8870   23.6410 C   0  0  0  0  0  3  0  0  0  0  0  0
  -16.7270  -28.6210   23.0610 C   0  0  0  0  0  3  0  0  0  0  0  0
  -25.8760  -32.5140   23.8480 C   0  0  0  0  0  3  0  0  0  0  0  0
  -25.5630  -33.9110   24.1780 N   0  0  0  0  0  0  0  0  0  0  0  0
  -25.8940  -34.9630   23.4170 C   0  0  0  0  0  0  0  0  0  0  0  0
  -26.5670  -34.8600   22.3870 O   0  0  0  0  0  0  0  0  0  0  0  0
  -24.9670  -34.0640   24.9780 H   0  0  0  0  0  0  0  0  0  0  0  0
  -24.1660  -36.7510   23.0480 C   0  0  0  0  0  1  0  0  0  0  0  0
  -25.4010  -36.3510   23.8700 C   0  0  0  0  0  3  0  0  0  0  0  0
  -27.5300  -37.2390   24.7120 C   0  0  0  0  0  1  0  0  0  0  0  0
  -26.4340  -37.4050   23.7620 N   0  0  0  0  0  0  0  0  0  0  0  0
  -26.0250  -38.3250   23.9050 H   0  0  0  0  0  0  0  0  0  0  0  0
  -26.3900  -31.7380   25.1220 C   0  0  1  0  0  0  0  0  0  0  0  0
  -25.2940  -31.4940   26.1840 C   0  0  0  0  0  1  0  0  0  0  0  0
  -26.9820  -30.3640   24.7230 C   0  0  0  0  0  1  0  0  0  0  0  0
  -27.5350  -32.5330   25.7950 C   0  0  0  0  0  1  0  0  0  0  0  0
  -30.4190  -19.7750   20.5410 C   0  0  0  0  0  3  0  0  0  0  0  0
  -29.8330  -18.4400   20.9590 N   0  0  0  0  0  4  0  0  0  0  0  0
  -29.7320  -18.4950   21.9590 H   0  0  0  0  0  0  0  0  0  0  0  0
  -28.8940  -18.4090   20.5930 H   0  0  0  0  0  0  0  0  0  0  0  0
  -30.5820  -17.1600   20.6470 C   0  0  0  0  0  2  0  0  0  0  0  0
  -29.8870  -15.8000   21.0340 C   0  0  0  0  0  2  0  0  0  0  0  0
  -30.6310  -14.5220   20.5080 C   0  0  0  0  0  0  0  0  0  0  0  0
  -30.3530  -12.3440   19.3600 C   0  0  0  0  0  2  0  0  0  0  0  0
  -29.4330  -12.5890   18.1480 C   0  0  0  0  0  2  0  0  0  0  0  0
  -27.9460  -12.4620   18.5430 C   0  0  0  0  0  2  0  0  0  0  0  0
  -27.6030  -13.2650   19.8280 C   0  0  0  0  0  3  0  0  0  0  0  0
  -28.6530  -13.0290   20.9380 C   0  0  0  0  0  2  0  0  0  0  0  0
  -29.9760  -13.3300   20.3890 N   0  0  0  0  0  0  0  0  0  0  0  0
  -31.7770  -14.6570   20.0780 O   0  0  0  0  0  0  0  0  0  0  0  0
  -25.2070  -13.8800   20.5260 C   0  0  0  0  0  0  0  0  0  0  0  0
  -24.1340  -13.1130   20.8900 C   0  0  0  0  0  0  0  0  0  0  0  0
  -24.5890  -11.7600   20.8630 C   0  0  0  0  0  0  0  0  0  0  0  0
  -26.2490  -12.9940   20.3000 N   0  0  0  0  0  0  0  0  0  0  0  0
  -25.8830  -11.7130   20.5680 N   0  0  0  0  0  0  0  0  0  0  0  0
  -23.8530  -10.5020   21.0470 C   0  0  0  0  0  0  0  0  0  0  0  0
  -24.2750   -9.5330   21.9820 C   0  0  0  0  0  3  0  0  0  0  0  0
  -23.5410   -8.3420   22.1590 C   0  0  0  0  0  3  0  0  0  0  0  0
  -22.3710   -8.1110   21.3990 C   0  0  0  0  0  0  0  0  0  0  0  0
  -21.9700   -9.0660   20.4500 C   0  0  0  0  0  3  0  0  0  0  0  0
  -22.7050  -10.2490   20.2700 C   0  0  0  0  0  3  0  0  0  0  0  0
  -21.6080   -6.9720   21.4850 O   0  0  0  0  0  0  0  0  0  0  0  0
  -21.5500   -6.2250   22.6340 C   0  0  0  0  0  0  0  0  0  0  0  0
  -21.1270   -6.7790   23.8620 C   0  0  0  0  0  3  0  0  0  0  0  0
  -21.0150   -5.9590   25.0050 C   0  0  0  0  0  3  0  0  0  0  0  0
  -21.3160   -4.5880   24.9200 C   0  0  0  0  0  0  0  0  0  0  0  0
  -21.7320   -4.0340   23.6970 C   0  0  0  0  0  3  0  0  0  0  0  0
  -21.8440   -4.8490   22.5580 C   0  0  0  0  0  0  0  0  0  0  0  0
  -22.2240   -4.3040   21.3770 F   0  0  0  0  0  0  0  0  0  0  0  0
  -21.2020   -3.7980   26.0140 F   0  0  0  0  0  0  0  0  0  0  0  0
  -22.7370  -13.5960   21.1480 C   0  0  0  0  0  0  0  0  0  0  0  0
  -22.0020  -12.9020   22.0090 N   0  0  0  0  0  0  0  0  0  0  0  0
  -22.3090  -14.6230   20.6240 O   0  0  0  0  0  0  0  0  0  0  0  0
  -22.3660  -12.0700   22.4510 H   0  0  0  0  0  0  0  0  0  0  0  0
  -21.0590  -13.1970   22.2210 H   0  0  0  0  0  0  0  0  0  0  0  0
  -25.3790  -15.2510   20.3520 N   0  0  0  0  0  0  0  0  0  0  0  0
  -24.6090  -15.9080   20.4470 H   0  0  0  0  0  0  0  0  0  0  0  0
  -26.2280  -15.6850   20.0140 H   0  0  0  0  0  0  0  0  0  0  0  0
  -32.7020  -21.0520   20.3150 C   0  0  0  0  0  1  0  0  0  0  0  0
  -31.9600  -19.7090   20.3440 C   0  0  0  0  0  2  0  0  0  0  0  0
  1  3  1  0
  2  1  2  0
  2  4  1  0
  3  5  2  0
  4  6  2  0
  5 52  1  0
  6  5  1  0
  6  8  1  0
  7  4  1  0
  9  8  1  0
  9 10  1  0
 11 10  1  0
 12 23  2  0
 13 11  1  0
 13 18  1  0
 14 22  1  0
 14 24  1  0
 15 21  1  0
 15 17  1  0
 16 22  1  0
 17 18  2  0
 17 16  1  0
 19 13  2  0
 20 19  1  0
 20 15  2  0
 21 14  1  0
 22 12  1  0
 24 26  2  0
 25 24  1  0
 27 25  1  0
 28 37  2  0
 28 33  1  0
 29 25  1  0
 29 33  1  0
 30 29  1  0
 31 32  1  0
 31 30  1  0
 32 28  1  0
 33 34  2  0
 34 35  1  0
 36 35  2  0
 37 36  1  0
 38 12  1  0
 38 39  1  0
 38 48  1  0
 39 42  1  0
 40 44  1  0
 40 39  1  0
 41 40  2  0
 44 43  1  0
 46 44  1  0
 46 47  1  0
 46 45  1  0
 48 51  1  1
 48 49  1  0
 50 48  1  0
 52 95  1  0
 52 53  1  0
 53 54  1  0
 55 53  1  0
 56 53  1  0
 56 57  1  0
 58 57  1  0
 59 64  1  0
 60 61  1  0
 60 59  1  0
 62 61  1  0
 62 69  1  0
 62 63  1  0
 64 58  1  0
 64 63  1  0
 65 58  2  0
 66 67  2  0
 67 86  1  0
 68 67  1  0
 68 71  1  0
 69 66  1  0
 69 70  1  0
 70 68  2  0
 71 72  1  0
 72 73  2  0
 74 77  1  0
 74 73  1  0
 75 74  2  0
 76 75  1  0
 76 71  2  0
 77 78  1  0
 78 79  1  0
 79 80  2  0
 81 80  1  0
 81 85  1  0
 82 81  2  0
 83 78  2  0
 83 82  1  0
 84 83  1  0
 86 87  1  0
 87 90  1  0
 87 89  1  0
 88 86  2  0
 91 92  1  0
 91 66  1  0
 93 91  1  0
 94 95  1  0
M  ISO  4  10 101  11 101  57 100  58 100
M  END
>  <TORSDO>  (98) 
F 24

>  <SCORE>  (98) 
-12.626

>  <name>  (98) 
97

>  <ligand_id>  (98) 
97

>  <original_smiles>  (98) 
[H]c1c([H])c([H])c2c(c1[H])C([H])([H])C([H])([H])C([H])([H])C2([H])N([H])C(=O)C1([H])N(C(=O)C([H])(N([H])C(=O)C([H])(N([H])C([H])([H])[H])C([H])([H])[H])C(C([H])([H])[H])(C([H])([H])[H])C([H])([H])[H])C([H])([H])c2c([H])c(OC([H])([H])C([H])([H])C([H])([H])c3c(C([H])([H])[H])c([H])c([H])c([H])c3C([H])(C([H])([H])C([H])([H])[H])[N+]([H])([H])C([H])([H])C([H])([H])C(=O)N3C([H])([H])C([H])([H])C([H])([H])C([H])(n4nc(-c5c([H])c([H])c(Oc6c([H])c([H])c(F)c([H])c6F)c([H])c5[H])c(C(=O)N([H])[H])c4N([H])[H])C3([H])[H])c([H])c([H])c2C1([H])[H]

>  <smiles>  (98) 
[H]c1c([H])c([H])c2c(c1[H])C([H])([H])C([H])([H])C([H])([H])C2([H])N([H])C(=O)C1([H])N(C(=O)C([H])(N([H])C(=O)C([H])(N([H])C([H])([H])[H])C([H])([H])[H])C(C([H])([H])[H])(C([H])([H])[H])C([H])([H])[H])C([H])([H])c2c([H])c(OC([H])([H])C([H])([H])C([H])([H])c3c(C([H])([H])[H])c([H])c([H])c([H])c3C([H])(C([H])([H])C([H])([H])[H])[N+]([H])([H])C([H])([H])C([H])([H])C(=O)N3C([H])([H])C([H])([H])C([H])([H])C([H])(n4nc(-c5c([H])c([H])c(Oc6c([H])c([H])c(F)c([H])c6F)c([H])c5[H])c(C(=O)N([H])[H])c4N([H])[H])C3([H])[H])c([H])c([H])c2C1([H])[H]

$$$$
98:0:0
     RDKit          3D

 94102  0  0  1  0  0  0  0  0999 V2000
  -29.2960  -22.0400   20.3270 C   0  0  0  0  0  3  0  0  0  0  0  0
  -31.8290  -22.2620   20.7370 C   0  0  0  0  0  3  0  0  0  0  0  0
  -33.1360  -22.4830   20.2550 C   0  0  0  0  0  3  0  0  0  0  0  0
  -30.9610  -22.6560   18.4970 C   0  0  0  0  0  3  0  0  0  0  0  0
  -30.7270  -22.3260   19.8540 C   0  0  0  0  0  0  0  0  0  0  0  0
  -33.3600  -22.8100   18.8990 C   0  0  0  0  0  0  0  0  0  0  0  0
  -32.2560  -22.9290   18.0210 C   0  0  0  0  0  0  0  0  0  0  0  0
  -34.7820  -23.0250   18.3990 C   0  0  0  0  0  1  0  0  0  0  0  0
  -32.4330  -23.3560   16.5680 C   0  0  0  0  0  1  0  0  0  0  0  0
  -28.9840  -20.4690   19.8820 C   0  0  0  0  0  0  0  0  0  0  0  0
  -29.6700  -19.3190   20.3600 N   0  0  0  0  0  0  0  0  0  0  0  0
  -28.1170  -20.3060   19.0210 O   0  0  0  0  0  0  0  0  0  0  0  0
  -30.3610  -19.5580   21.0630 H   0  0  0  0  0  0  0  0  0  0  0  0
  -29.8060  -17.8380   19.8060 C   0  0  0  0  0  2  0  0  0  0  0  0
  -29.8090  -16.4040   20.7030 C   0  0  0  0  0  2  0  0  0  0  0  0
  -30.5210  -14.9610   20.2670 C   0  0  0  0  0  0  0  0  0  0  0  0
  -30.3760  -12.6130   19.2980 C   0  0  0  0  0  2  0  0  0  0  0  0
  -29.4310  -12.5790   18.0770 C   0  0  0  0  0  2  0  0  0  0  0  0
  -27.9690  -12.3780   18.5200 C   0  0  0  0  0  2  0  0  0  0  0  0
  -27.5780  -13.2950   19.7070 C   0  0  0  0  0  3  0  0  0  0  0  0
  -28.6430  -13.2980   20.8240 C   0  0  0  0  0  2  0  0  0  0  0  0
  -29.9210  -13.7000   20.2170 N   0  0  0  0  0  0  0  0  0  0  0  0
  -31.7010  -15.0060   19.9000 O   0  0  0  0  0  0  0  0  0  0  0  0
  -25.1920  -13.8620   20.4470 C   0  0  0  0  0  0  0  0  0  0  0  0
  -24.1330  -13.0820   20.8180 C   0  0  0  0  0  0  0  0  0  0  0  0
  -24.6090  -11.7330   20.8010 C   0  0  0  0  0  0  0  0  0  0  0  0
  -26.2440  -12.9920   20.2140 N   0  0  0  0  0  0  0  0  0  0  0  0
  -25.9010  -11.7060   20.4930 N   0  0  0  0  0  0  0  0  0  0  0  0
  -23.8910  -10.4680   21.0020 C   0  0  0  0  0  0  0  0  0  0  0  0
  -24.3310   -9.5080   21.9400 C   0  0  0  0  0  3  0  0  0  0  0  0
  -23.6120   -8.3080   22.1290 C   0  0  0  0  0  3  0  0  0  0  0  0
  -22.4370   -8.0580   21.3800 C   0  0  0  0  0  0  0  0  0  0  0  0
  -22.0160   -9.0070   20.4320 C   0  0  0  0  0  3  0  0  0  0  0  0
  -22.7350  -10.1970   20.2410 C   0  0  0  0  0  3  0  0  0  0  0  0
  -21.6900   -6.9100   21.4770 O   0  0  0  0  0  0  0  0  0  0  0  0
  -21.6560   -6.1660   22.6310 C   0  0  0  0  0  0  0  0  0  0  0  0
  -21.2440   -6.7230   23.8610 C   0  0  0  0  0  3  0  0  0  0  0  0
  -21.1570   -5.9080   25.0070 C   0  0  0  0  0  3  0  0  0  0  0  0
  -21.4720   -4.5380   24.9250 C   0  0  0  0  0  0  0  0  0  0  0  0
  -21.8770   -3.9830   23.6990 C   0  0  0  0  0  3  0  0  0  0  0  0
  -21.9660   -4.7950   22.5540 C   0  0  0  0  0  0  0  0  0  0  0  0
  -22.3370   -4.2480   21.3710 F   0  0  0  0  0  0  0  0  0  0  0  0
  -21.3840   -3.7540   26.0250 F   0  0  0  0  0  0  0  0  0  0  0  0
  -22.7300  -13.5500   21.0820 C   0  0  0  0  0  0  0  0  0  0  0  0
  -22.0080  -12.8570   21.9530 N   0  0  0  0  0  0  0  0  0  0  0  0
  -22.2880  -14.5680   20.5510 O   0  0  0  0  0  0  0  0  0  0  0  0
  -22.3820  -12.0350   22.4020 H   0  0  0  0  0  0  0  0  0  0  0  0
  -21.0660  -13.1530   22.1720 H   0  0  0  0  0  0  0  0  0  0  0  0
  -25.3400  -15.2330   20.2610 N   0  0  0  0  0  0  0  0  0  0  0  0
  -24.5610  -15.8720   20.3740 H   0  0  0  0  0  0  0  0  0  0  0  0
  -26.1830  -15.6940   19.9440 H   0  0  0  0  0  0  0  0  0  0  0  0
  -28.3470  -23.3750   19.9100 C   0  0  0  0  0  2  0  0  0  0  0  0
  -28.3490  -24.8560   20.6940 C   0  0  0  0  0  2  0  0  0  0  0  0
  -28.3360  -26.2950   20.1380 O   0  0  0  0  0  0  0  0  0  0  0  0
  -24.6470  -31.8740   23.2420 C   0  0  0  0  0  0  0  0  0  0  0  0
  -27.2240  -27.1910   20.2060 C   0  0  0  0  0  0  0  0  0  0  0  0
  -23.4360  -30.4720   21.6140 C   0  0  0  0  0  3  0  0  0  0  0  0
  -24.8750  -28.8850   20.1990 C   0  0  0  0  0  0  0  0  0  0  0  0
  -25.9820  -30.7510   21.4250 C   0  0  0  0  0  2  0  0  0  0  0  0
  -26.0580  -29.3560   20.7850 C   0  0  0  0  0  0  0  0  0  0  0  0
  -27.2370  -28.5280   20.7600 C   0  0  0  0  0  3  0  0  0  0  0  0
  -26.0130  -26.7960   19.6030 C   0  0  0  0  0  3  0  0  0  0  0  0
  -24.8610  -27.6180   19.5970 C   0  0  0  0  0  3  0  0  0  0  0  0
  -23.6490  -29.7860   20.2390 C   0  0  0  0  0  2  0  0  0  0  0  0
  -24.7100  -31.0540   22.1500 N   0  0  0  0  0  0  0  0  0  0  0  0
  -23.5670  -32.1580   23.7810 O   0  0  0  0  0  0  0  0  0  0  0  0
  -22.7640  -29.4690   22.5810 C   0  0  0  0  0  0  0  0  0  0  0  0
  -21.4350  -29.2970   22.4620 N   0  0  0  0  0  0  0  0  0  0  0  0
  -23.4390  -28.8440   23.4010 O   0  0  0  0  0  0  0  0  0  0  0  0
  -20.9510  -29.8550   21.7730 H   0  0  0  0  0  0  0  0  0  0  0  0
  -18.0540  -28.1010   22.9660 C   0  0  0  0  0  0  0  0  0  0  0  0
  -20.6130  -28.3630   23.2350 C   0  0  0  0  0  3  0  0  0  0  0  0
  -20.7150  -26.9280   22.6670 C   0  0  0  0  0  2  0  0  0  0  0  0
  -19.6140  -26.6000   21.6540 C   0  0  0  0  0  2  0  0  0  0  0  0
  -18.2330  -26.7470   22.2970 C   0  0  0  0  0  2  0  0  0  0  0  0
  -19.1730  -28.8670   23.3910 C   0  0  0  0  0  0  0  0  0  0  0  0
  -18.9540  -30.1310   23.9770 C   0  0  0  0  0  3  0  0  0  0  0  0
  -17.6500  -30.6330   24.1420 C   0  0  0  0  0  3  0  0  0  0  0  0
  -16.5450  -29.8650   23.7330 C   0  0  0  0  0  3  0  0  0  0  0  0
  -16.7490  -28.6000   23.1520 C   0  0  0  0  0  3  0  0  0  0  0  0
  -25.9290  -32.5090   23.8580 C   0  0  0  0  0  3  0  0  0  0  0  0
  -25.6170  -33.9090   24.1900 N   0  0  0  0  0  0  0  0  0  0  0  0
  -25.9440  -34.9660   23.4350 C   0  0  0  0  0  0  0  0  0  0  0  0
  -26.6060  -34.8660   22.3970 O   0  0  0  0  0  0  0  0  0  0  0  0
  -25.0230  -34.0530   24.9940 H   0  0  0  0  0  0  0  0  0  0  0  0
  -24.2110  -36.7660   23.1030 C   0  0  0  0  0  1  0  0  0  0  0  0
  -25.4590  -36.3540   23.9010 C   0  0  0  0  0  3  0  0  0  0  0  0
  -27.5990  -37.2400   24.7160 C   0  0  0  0  0  1  0  0  0  0  0  0
  -26.4890  -37.4090   23.7840 N   0  0  0  0  0  0  0  0  0  0  0  0
  -26.0830  -38.3280   23.9410 H   0  0  0  0  0  0  0  0  0  0  0  0
  -26.4440  -31.7450   25.1370 C   0  0  1  0  0  0  0  0  0  0  0  0
  -25.3500  -31.5150   26.2080 C   0  0  0  0  0  1  0  0  0  0  0  0
  -27.0190  -30.3620   24.7500 C   0  0  0  0  0  1  0  0  0  0  0  0
  -27.5980  -32.5370   25.7920 C   0  0  0  0  0  1  0  0  0  0  0  0
  1 52  1  0
  3  2  1  0
  4  5  1  0
  5  1  1  0
  5  2  2  0
  6  3  2  0
  7  4  2  0
  7  6  1  0
  8  6  1  0
  9  7  1  0
 10  1  1  0
 10 11  1  0
 11 13  1  0
 12 10  2  0
 14 11  1  0
 14 15  1  0
 16 15  1  0
 17 22  1  0
 18 19  1  0
 18 17  1  0
 20 19  1  0
 20 27  1  0
 20 21  1  0
 22 16  1  0
 22 21  1  0
 23 16  2  0
 24 25  2  0
 25 44  1  0
 26 25  1  0
 26 29  1  0
 27 24  1  0
 27 28  1  0
 28 26  2  0
 29 30  1  0
 30 31  2  0
 32 35  1  0
 32 31  1  0
 33 32  2  0
 34 33  1  0
 34 29  2  0
 35 36  1  0
 36 37  1  0
 37 38  2  0
 39 38  1  0
 39 43  1  0
 40 39  2  0
 41 36  2  0
 41 40  1  0
 42 41  1  0
 44 45  1  0
 45 48  1  0
 45 47  1  0
 46 44  2  0
 49 50  1  0
 49 24  1  0
 51 49  1  0
 52 53  1  0
 54 56  1  0
 54 53  1  0
 55 66  2  0
 56 61  1  0
 57 65  1  0
 57 67  1  0
 58 64  1  0
 58 60  1  0
 59 65  1  0
 60 59  1  0
 61 60  2  0
 62 56  2  0
 63 62  1  0
 63 58  2  0
 64 57  1  0
 65 55  1  0
 67 69  2  0
 68 67  1  0
 70 68  1  0
 71 80  2  0
 71 76  1  0
 72 68  1  0
 72 76  1  0
 73 72  1  0
 74 75  1  0
 74 73  1  0
 75 71  1  0
 76 77  2  0
 77 78  1  0
 79 78  2  0
 80 79  1  0
 81 55  1  0
 81 82  1  0
 81 91  1  0
 82 85  1  0
 83 87  1  0
 83 82  1  0
 84 83  2  0
 87 86  1  0
 89 87  1  0
 89 90  1  0
 89 88  1  0
 91 94  1  1
 91 92  1  0
 93 91  1  0
M  ISO  4  15 100  16 100  53 101  54 101
M  END
>  <TORSDO>  (99) 
F 22

>  <SCORE>  (99) 
-12.938

>  <name>  (99) 
98

>  <ligand_id>  (99) 
98

>  <original_smiles>  (99) 
[H]c1c([H])c([H])c2c(c1[H])C([H])([H])C([H])([H])C([H])([H])C2([H])N([H])C(=O)C1([H])N(C(=O)C([H])(N([H])C(=O)C([H])(N([H])C([H])([H])[H])C([H])([H])[H])C(C([H])([H])[H])(C([H])([H])[H])C([H])([H])[H])C([H])([H])c2c([H])c(OC([H])([H])C([H])([H])C([H])(C(=O)N([H])C([H])([H])C([H])([H])C(=O)N3C([H])([H])C([H])([H])C([H])([H])C([H])(n4nc(-c5c([H])c([H])c(Oc6c([H])c([H])c(F)c([H])c6F)c([H])c5[H])c(C(=O)N([H])[H])c4N([H])[H])C3([H])[H])c3c([H])c([H])c(C([H])([H])[H])c(C([H])([H])[H])c3[H])c([H])c([H])c2C1([H])[H]

>  <smiles>  (99) 
[H]c1c([H])c([H])c2c(c1[H])C([H])([H])C([H])([H])C([H])([H])C2([H])N([H])C(=O)C1([H])N(C(=O)C([H])(N([H])C(=O)C([H])(N([H])C([H])([H])[H])C([H])([H])[H])C(C([H])([H])[H])(C([H])([H])[H])C([H])([H])[H])C([H])([H])c2c([H])c(OC([H])([H])C([H])([H])C([H])(C(=O)N([H])C([H])([H])C([H])([H])C(=O)N3C([H])([H])C([H])([H])C([H])([H])C([H])(n4nc(-c5c([H])c([H])c(Oc6c([H])c([H])c(F)c([H])c6F)c([H])c5[H])c(C(=O)N([H])[H])c4N([H])[H])C3([H])[H])c3c([H])c([H])c(C([H])([H])[H])c(C([H])([H])[H])c3[H])c([H])c([H])c2C1([H])[H]

$$$$
