0:0:0
     RDKit          3D

 65 71  0  0  1  0  0  0  0  0999 V2000
   65.6910   39.5540   55.6840 C   0  0  0  0  0  0  0  0  0  0  0  0
   64.7080   39.4030   56.5830 N   0  0  0  0  0  0  0  0  0  0  0  0
   65.6490   40.4050   54.7950 O   0  0  0  0  0  0  0  0  0  0  0  0
   64.8340   38.6780   57.2760 H   0  0  0  0  0  0  0  0  0  0  0  0
   63.5470   40.2790   56.7450 C   0  0  0  0  0  2  0  0  0  0  0  0
   62.2470   39.6690   56.1690 C   0  0  0  0  0  2  0  0  0  0  0  0
   61.9230   40.0620   54.7160 C   0  0  0  0  0  2  0  0  0  0  0  0
   61.7790   41.5800   54.5070 C   0  0  0  0  0  2  0  0  0  0  0  0
   61.0180   41.9320   53.2100 C   0  0  0  0  0  2  0  0  0  0  0  0
   61.3700   43.3160   52.6310 C   0  0  0  0  0  2  0  0  0  0  0  0
   62.7610   43.3560   51.9800 C   0  0  0  0  0  2  0  0  0  0  0  0
   63.8060   44.1190   52.8310 C   0  0  0  0  0  2  0  0  0  0  0  0
   65.2090   43.8900   52.4820 N   0  0  0  0  0  0  0  0  0  0  0  0
   65.7820   44.6750   52.7880 H   0  0  0  0  0  0  0  0  0  0  0  0
   65.4980   43.4700   51.1730 C   0  0  0  0  0  0  0  0  0  0  0  0
   65.8150   42.1070   50.9440 C   0  0  0  0  0  3  0  0  0  0  0  0
   66.1040   41.6250   49.6430 C   0  0  0  0  0  3  0  0  0  0  0  0
   66.1050   42.5070   48.5370 C   0  0  0  0  0  3  0  0  0  0  0  0
   65.7860   43.8550   48.7890 C   0  0  0  0  0  0  0  0  0  0  0  0
   65.6650   44.9930   47.8450 C   0  0  0  0  0  0  0  0  0  0  0  0
   65.5000   44.3280   50.0470 C   0  0  0  0  0  0  0  0  0  0  0  0
   65.2040   45.7840   49.9010 C   0  0  0  0  0  0  0  0  0  0  0  0
   65.3160   46.0770   48.5780 N   0  0  0  0  0  0  0  0  0  0  0  0
   65.8140   44.9210   46.6200 O   0  0  0  0  0  0  0  0  0  0  0  0
   64.8880   46.5480   50.8200 O   0  0  0  0  0  0  0  0  0  0  0  0
   65.0010   47.3790   47.9510 C   0  0  0  0  0  3  0  0  0  0  0  0
   63.4800   47.5500   47.7290 C   0  0  0  0  0  2  0  0  0  0  0  0
   63.1460   48.9230   47.1310 C   0  0  0  0  0  2  0  0  0  0  0  0
   63.8320   50.0460   47.9180 C   0  0  0  0  0  0  0  0  0  0  0  0
   65.6050   48.6060   48.6720 C   0  0  0  0  0  0  0  0  0  0  0  0
   64.9610   49.7820   48.5970 N   0  0  0  0  0  0  0  0  0  0  0  0
   66.6780   48.5040   49.2800 O   0  0  0  0  0  0  0  0  0  0  0  0
   63.3460   51.1790   47.9100 O   0  0  0  0  0  0  0  0  0  0  0  0
   65.3820   50.5570   49.0810 H   0  0  0  0  0  0  0  0  0  0  0  0
   66.9200   38.6440   55.8140 C   0  0  0  0  0  2  0  0  0  0  0  0
   66.7130   37.4480   55.0560 O   0  0  0  0  0  0  0  0  0  0  0  0
   67.0720   36.2320   55.5330 C   0  0  0  0  0  0  0  0  0  0  0  0
   66.3360   35.6440   56.3260 O   0  0  0  0  0  0  0  0  0  0  0  0
   73.4620   33.3130   57.4710 N   0  0  0  0  0  0  0  0  0  0  0  0
   71.8160   34.7980   58.6120 C   0  0  0  0  0  1  0  0  0  0  0  0
   72.3740   34.0850   57.4160 C   0  0  0  0  0  0  0  0  0  0  0  0
   70.6260   35.4370   54.4690 C   0  0  0  0  0  0  0  0  0  0  0  0
   70.6990   34.8270   55.7050 C   0  0  0  0  0  0  0  0  0  0  0  0
   68.4410   35.7660   55.2380 C   0  0  0  0  0  0  0  0  0  0  0  0
   72.7110   33.4410   55.4370 C   0  0  0  0  0  0  0  0  0  0  0  0
   72.5720   33.3570   53.9230 C   0  0  0  0  0  3  0  0  0  0  0  0
   69.3000   35.9250   54.1600 C   0  0  0  0  0  0  0  0  0  0  0  0
   68.9150   36.5200   52.8240 C   0  0  0  0  0  1  0  0  0  0  0  0
   71.8180   35.6130   53.5680 C   0  0  0  0  0  0  0  0  0  0  0  0
   73.6890   32.8970   56.1740 N   0  0  0  0  0  0  0  0  0  0  0  0
   72.6890   34.6980   53.3520 N   0  0  0  0  0  0  0  0  0  0  0  0
   71.8530   34.1720   56.1710 N   0  0  0  0  0  0  0  0  0  0  0  0
   69.1920   34.8890   56.5470 S   0  0  0  0  0  0  0  0  0  0  0  0
   71.9620   39.3730   53.0200 C   0  0  0  0  0  3  0  0  0  0  0  0
   72.5590   39.4450   51.7490 C   0  0  0  0  0  0  0  0  0  0  0  0
   72.9010   38.2660   51.0610 C   0  0  0  0  0  3  0  0  0  0  0  0
   72.6470   37.0110   51.6460 C   0  0  0  0  0  3  0  0  0  0  0  0
   72.0600   36.9310   52.9270 C   0  0  0  0  0  0  0  0  0  0  0  0
   71.7240   38.1210   53.6150 C   0  0  0  0  0  3  0  0  0  0  0  0
   72.8830   40.9820   51.0390 Cl  0  0  0  0  0  0  0  0  0  0  0  0
   73.6150   32.3860   53.2920 C   0  0  0  0  0  2  0  0  0  0  0  0
   73.8100   32.4420   51.7700 C   0  0  0  0  0  0  0  0  0  0  0  0
   74.9440   32.4100   51.2800 O   0  0  0  0  0  0  0  0  0  0  0  0
   72.6680   32.5300   51.0610 O   0  0  0  0  0  0  0  0  0  0  0  0
   72.7340   32.7060   49.6530 C   0  0  0  0  0  1  0  0  0  0  0  0
  1 35  1  0
  1  2  1  0
  2  5  1  0
  2  4  1  0
  3  1  2  0
  6  5  1  0
  7  6  1  0
  8  7  1  0
  9  8  1  0
 10  9  1  0
 11 10  1  0
 11 12  1  0
 13 14  1  0
 13 12  1  0
 15 13  1  0
 16 15  1  0
 17 16  2  0
 18 19  2  0
 18 17  1  0
 19 21  1  0
 20 23  1  0
 20 19  1  0
 21 15  2  0
 22 21  1  0
 22 25  2  0
 23 22  1  0
 24 20  2  0
 26 27  1  0
 26 23  1  0
 26 30  1  0
 28 27  1  0
 28 29  1  0
 29 31  1  0
 30 32  2  0
 31 30  1  0
 31 34  1  0
 33 29  2  0
 36 37  1  0
 36 35  1  0
 37 38  2  0
 41 39  2  0
 41 40  1  0
 42 43  2  0
 43 52  1  0
 43 53  1  0
 44 37  1  0
 44 53  1  0
 45 52  1  0
 45 50  2  0
 46 61  1  0
 46 45  1  0
 47 42  1  0
 47 44  2  0
 48 47  1  0
 49 42  1  0
 50 39  1  0
 51 49  2  0
 51 46  1  0
 52 41  1  0
 54 59  1  0
 55 54  2  0
 56 57  2  0
 56 55  1  0
 57 58  1  0
 58 49  1  0
 58 59  2  0
 60 55  1  0
 62 61  1  0
 63 62  2  0
 64 62  1  0
 65 64  1  0
M  ISO  4  13 101  15 101  36 100  37 100
M  END
>  <TORSDO>  (1) 
F 19

>  <SCORE>  (1) 
-5.683

>  <name>  (1) 
0

>  <ligand_id>  (1) 
0

>  <original_smiles>  (1) 
[H]c1c([H])c2c(c(N([H])C([H])([H])C([H])([H])C([H])([H])C([H])([H])C([H])([H])C([H])([H])C([H])([H])C([H])([H])N([H])C(=O)C([H])([H])OC(=O)c3sc4c(c3C([H])([H])[H])C(c3c([H])c([H])c(Cl)c([H])c3[H])=NC([H])(C([H])([H])C(=O)OC([H])([H])[H])c3nnc(C([H])([H])[H])n3-4)c1[H])C(=O)N(C1([H])C(=O)N([H])C(=O)C([H])([H])C1([H])[H])C2=O

>  <smiles>  (1) 
[H]c1c([H])c2c(c(N([H])C([H])([H])C([H])([H])C([H])([H])C([H])([H])C([H])([H])C([H])([H])C([H])([H])C([H])([H])N([H])C(=O)C([H])([H])OC(=O)c3sc4c(c3C([H])([H])[H])C(c3c([H])c([H])c(Cl)c([H])c3[H])=NC([H])(C([H])([H])C(=O)OC([H])([H])[H])c3nnc(C([H])([H])[H])n3-4)c1[H])C(=O)N(C1([H])C(=O)N([H])C(=O)C([H])([H])C1([H])[H])C2=O

$$$$
