=
 OpenBabel04082316253D

 79 85  0  0  1  0  0  0  0  0999 V2000
  -12.2030    7.7830   14.5850 C   0  0  0  0  0  0  0  0  0  0  0  0
  -11.2760    7.9680   13.5650 N   0  0  0  0  0  0  0  0  0  0  0  0
  -12.6530    6.6930   14.9280 O   0  0  0  0  0  0  0  0  0  0  0  0
  -10.9740    8.8840   13.3620 H   0  0  0  0  0  0  0  0  0  0  0  0
  -14.2660   10.8250   15.4480 C   0  0  0  0  0  3  0  0  0  0  0  0
  -12.4300   10.6690   17.0100 C   0  0  0  0  0  3  0  0  0  0  0  0
  -13.8200    9.6690   14.8070 C   0  0  0  0  0  3  0  0  0  0  0  0
  -11.9830    9.5130   16.3690 C   0  0  0  0  0  3  0  0  0  0  0  0
  -13.5710   11.3250   16.5490 C   0  0  0  0  0  0  0  0  0  0  0  0
  -12.6780    9.0130   15.2680 C   0  0  0  0  0  0  0  0  0  0  0  0
  -15.2250   13.1280   16.8090 C   0  0  0  0  0  3  0  0  0  0  0  0
  -15.6720   14.2850   17.4490 C   0  0  0  0  0  3  0  0  0  0  0  0
  -13.2930   13.0740   18.2580 C   0  0  0  0  0  3  0  0  0  0  0  0
  -14.0350   12.5230   17.2140 C   0  0  0  0  0  0  0  0  0  0  0  0
  -14.9300   14.8350   18.4930 C   0  0  0  0  0  0  0  0  0  0  0  0
  -13.7400   14.2300   18.8980 C   0  0  0  0  0  0  0  0  0  0  0  0
  -14.4000   16.9000   19.7080 C   0  0  0  0  0  2  0  0  0  0  0  0
  -16.7180   15.9920   19.7580 C   0  0  0  0  0  2  0  0  0  0  0  0
  -14.9540   18.3140   19.8130 C   0  0  0  0  0  2  0  0  0  0  0  0
  -17.2660   17.4100   19.8670 C   0  0  0  0  0  2  0  0  0  0  0  0
  -16.7930   19.6650   20.8190 C   0  0  0  0  0  1  0  0  0  0  0  0
  -15.3980   15.9960   19.1210 N   0  0  0  0  0  0  0  0  0  0  0  0
  -16.2580   18.2840   20.5680 N   0  0  0  0  0  4  0  0  0  0  0  0
  -16.0750   17.8710   21.4830 H   0  0  0  0  0  0  0  0  0  0  0  0
  -12.0190   14.1160   20.7200 C   0  0  0  0  0  0  0  0  0  0  0  0
  -12.9800   14.7650   19.9420 N   0  0  0  0  0  0  0  0  0  0  0  0
  -11.6460   12.9510   20.6490 O   0  0  0  0  0  0  0  0  0  0  0  0
  -13.1420   15.7120   20.1550 H   0  0  0  0  0  0  0  0  0  0  0  0
   -9.8640   16.7230   22.4380 C   0  0  0  0  0  3  0  0  0  0  0  0
  -11.9220   14.9170   22.9730 C   0  0  0  0  0  3  0  0  0  0  0  0
  -11.4190   15.0090   21.7330 C   0  0  0  0  0  0  0  0  0  0  0  0
  -10.3460   15.9490   21.4490 C   0  0  0  0  0  0  0  0  0  0  0  0
  -10.4200   16.6260   23.8200 C   0  0  0  0  0  0  0  0  0  0  0  0
  -11.4360   15.7030   23.9880 N   0  0  0  0  0  0  0  0  0  0  0  0
   -9.9760   17.3360   24.7190 O   0  0  0  0  0  0  0  0  0  0  0  0
  -11.8320   15.6040   24.8830 H   0  0  0  0  0  0  0  0  0  0  0  0
   -9.7910   16.0410   20.0580 C   0  0  0  0  0  0  0  0  0  0  0  0
   -9.4340   14.8250   19.6020 F   0  0  0  0  0  0  0  0  0  0  0  0
  -10.7050   16.5520   19.2080 F   0  0  0  0  0  0  0  0  0  0  0  0
   -8.7030   16.8350   20.0240 F   0  0  0  0  0  0  0  0  0  0  0  0
  -10.7400    6.8800   12.7960 C   0  0  0  0  0  2  0  0  0  0  0  0
  -11.7500    6.3170   11.8000 C   0  0  0  0  0  2  0  0  0  0  0  0
  -11.0810    5.5470   10.6550 C   0  0  0  0  0  2  0  0  0  0  0  0
  -11.0050    4.0460   10.9320 C   0  0  0  0  0  2  0  0  0  0  0  0
   -9.7260    3.6160   11.6320 C   0  0  0  0  0  0  0  0  0  0  0  0
   -9.9750    3.1690   12.9210 N   0  0  0  0  0  0  0  0  0  0  0  0
   -8.6220    3.6460   11.0930 O   0  0  0  0  0  0  0  0  0  0  0  0
  -10.9030    3.1900   13.2520 H   0  0  0  0  0  0  0  0  0  0  0  0
   -8.9420    2.6770   13.8040 C   0  0  2  0  0  3  0  0  0  0  0  0
   -9.3740    1.3010   14.2450 C   0  0  0  0  0  0  0  0  0  0  0  0
   -7.4620   -1.8670   14.0020 C   0  0  0  0  0  2  0  0  0  0  0  0
   -7.1040    0.4430   13.4960 C   0  0  0  0  0  2  0  0  0  0  0  0
   -8.7540   -1.1120   14.3200 C   0  0  2  0  0  3  0  0  0  0  0  0
   -6.7450   -0.9540   13.0130 C   0  0  2  0  0  3  0  0  0  0  0  0
   -8.4420    0.2920   14.0640 N   0  0  0  0  0  0  0  0  0  0  0  0
  -10.4940    1.1280   14.7300 O   0  0  0  0  0  0  0  0  0  0  0  0
   -9.0950   -1.3960   15.7670 C   0  0  0  0  0  0  0  0  0  0  0  0
   -9.8700   -2.5260   15.9510 N   0  0  0  0  0  0  0  0  0  0  0  0
   -8.6830   -0.6450   16.6430 O   0  0  0  0  0  0  0  0  0  0  0  0
  -10.1370   -3.0450   15.1590 H   0  0  0  0  0  0  0  0  0  0  0  0
  -10.3080   -2.9800   17.2510 C   0  0  0  0  0  2  0  0  0  0  0  0
   -8.6720   -5.5440   19.5140 C   0  0  0  0  0  3  0  0  0  0  0  0
   -8.2480   -6.1620   17.2180 C   0  0  0  0  0  3  0  0  0  0  0  0
   -9.3900   -4.4280   19.0820 C   0  0  0  0  0  3  0  0  0  0  0  0
   -8.9660   -5.0480   16.7850 C   0  0  0  0  0  3  0  0  0  0  0  0
   -8.1000   -6.4100   18.5830 C   0  0  0  0  0  0  0  0  0  0  0  0
   -9.5360   -4.1800   17.7170 C   0  0  0  0  0  0  0  0  0  0  0  0
   -5.6500   -9.2010   19.4800 C   0  0  0  0  0  3  0  0  0  0  0  0
   -7.3580   -7.5630   19.0300 C   0  0  0  0  0  0  0  0  0  0  0  0
   -7.7550   -8.6590   19.7690 C   0  0  0  0  0  0  0  0  0  0  0  0
   -9.1130   -8.9110   20.2960 C   0  0  0  0  0  1  0  0  0  0  0  0
   -6.7770   -9.5980   20.0270 N   0  0  0  0  0  0  0  0  0  0  0  0
   -5.6940   -7.7050   18.6400 S   0  0  0  0  0  0  0  0  0  0  0  0
   -7.2700   -1.1410   11.7030 O   0  0  0  0  0  0  0  0  0  0  0  0
   -6.5420   -1.3200   11.0860 H   0  0  0  0  0  0  0  0  0  0  0  0
   -9.9110    4.2380   15.6180 C   0  0  0  0  0  1  0  0  0  0  0  0
   -7.7190    4.7750   14.5360 C   0  0  0  0  0  1  0  0  0  0  0  0
   -7.8930    2.8430   16.1050 C   0  0  0  0  0  1  0  0  0  0  0  0
   -8.6370    3.6250   15.0020 C   0  0  0  0  0  0  0  0  0  0  0  0
  1  3  2  0  0  0  0
  1 10  1  0  0  0  0
  2  1  1  0  0  0  0
  4  2  1  0  0  0  0
  5  9  1  0  0  0  0
  7 10  1  0  0  0  0
  7  5  2  0  0  0  0
  8  6  1  0  0  0  0
  9  6  2  0  0  0  0
  9 14  1  0  0  0  0
 10  8  2  0  0  0  0
 11 14  2  0  0  0  0
 11 12  1  0  0  0  0
 12 15  2  0  0  0  0
 13 16  2  0  0  0  0
 14 13  1  0  0  0  0
 15 16  1  0  0  0  0
 15 22  1  0  0  0  0
 16 26  1  0  0  0  0
 17 19  1  0  0  0  0
 18 20  1  0  0  0  0
 19 23  1  0  0  0  0
 20 23  1  0  0  0  0
 22 17  1  0  0  0  0
 22 18  1  0  0  0  0
 23 21  1  0  0  0  0
 23 24  1  0  0  0  0
 25 31  1  0  0  0  0
 26 28  1  0  0  0  0
 26 25  1  0  0  0  0
 27 25  2  0  0  0  0
 29 33  1  0  0  0  0
 30 34  1  0  0  0  0
 31 30  2  0  0  0  0
 32 31  1  0  0  0  0
 32 29  2  0  0  0  0
 33 34  1  0  0  0  0
 33 35  2  0  0  0  0
 34 36  1  0  0  0  0
 37 32  1  0  0  0  0
 38 37  1  0  0  0  0
 39 37  1  0  0  0  0
 40 37  1  0  0  0  0
 41  2  1  0  0  0  0
 42 41  1  0  0  0  0
 43 44  1  0  0  0  0
 43 42  1  0  0  0  0
 44 45  1  0  0  0  0
 45 46  1  0  0  0  0
 46 48  1  0  0  0  0
 46 49  1  0  0  0  0
 47 45  2  0  0  0  0
 49 50  1  1  0  0  0
 49 79  1  0  0  0  0
 50 56  2  0  0  0  0
 51 53  1  0  0  0  0
 52 55  1  0  0  0  0
 53 57  1  1  0  0  0
 54 74  1  6  0  0  0
 54 52  1  0  0  0  0
 54 51  1  0  0  0  0
 55 50  1  0  0  0  0
 55 53  1  0  0  0  0
 57 58  1  0  0  0  0
 57 59  2  0  0  0  0
 58 61  1  0  0  0  0
 60 58  1  0  0  0  0
 61 67  1  0  0  0  0
 63 66  1  0  0  0  0
 64 62  1  0  0  0  0
 65 63  2  0  0  0  0
 65 67  1  0  0  0  0
 66 69  1  0  0  0  0
 66 62  2  0  0  0  0
 67 64  2  0  0  0  0
 68 72  2  0  0  0  0
 69 70  2  0  0  0  0
 70 72  1  0  0  0  0
 70 71  1  0  0  0  0
 73 69  1  0  0  0  0
 73 68  1  0  0  0  0
 75 74  1  0  0  0  0
 77 79  1  0  0  0  0
 79 76  1  0  0  0  0
 79 78  1  0  0  0  0
M  END
>  <MODEL>
1

>  <REMARK>
 VINA RESULT:   -13.508      0.000      0.000
 INTER + INTRA:         -30.028
 INTER:                 -28.412
 INTRA:                  -1.616
 UNBOUND:                -1.910
  Name = 
  24 active torsions:
  status: ('A' for Active; 'I' for Inactive)
    1  A    between atoms: C_13  and  C_15
    2  A    between atoms: C_14  and  C_20
    3  A    between atoms: C_16  and  C_27
    4  A    between atoms: C_17  and  C_45
    5  A    between atoms: C_18  and  N_55
    6  A    between atoms: C_19  and  N_57
    7  A    between atoms: C_21  and  C_40
    8  A    between atoms: C_24  and  C_28
    9  A    between atoms: C_25  and  C_51
   10  A    between atoms: C_29  and  C_38
   11  A    between atoms: C_30  and  C_50
   12  A    between atoms: C_31  and  C_46
   13  A    between atoms: C_39  and  O_68
   14  A    between atoms: C_41  and  C_52
   15  A    between atoms: C_42  and  C_52
   16  A    between atoms: C_43  and  C_52
   17  A    between atoms: C_44  and  N_61
   18  A    between atoms: C_45  and  N_59
   19  A    between atoms: C_46  and  C_47
   20  A    between atoms: C_47  and  C_48
   21  A    between atoms: C_48  and  C_49
   22  A    between atoms: C_49  and  N_58
   23  A    between atoms: C_50  and  C_52
   24  A    between atoms: C_50  and  N_60
                            x       y       z     vdW  Elec       q    Type
                         _______ _______ _______ _____ _____    ______ ____

>  <TORSDO>
F 19

$$$$
=
 OpenBabel04082316253D

 79 85  0  0  1  0  0  0  0  0999 V2000
  -12.6400    8.1610   13.8480 C   0  0  0  0  0  0  0  0  0  0  0  0
  -11.4980    7.5250   13.3740 N   0  0  0  0  0  0  0  0  0  0  0  0
  -13.7550    8.0610   13.3430 O   0  0  0  0  0  0  0  0  0  0  0  0
  -10.6460    7.6680   13.8480 H   0  0  0  0  0  0  0  0  0  0  0  0
  -13.1360   10.9400   16.3560 C   0  0  0  0  0  3  0  0  0  0  0  0
  -11.2570    9.5940   17.0570 C   0  0  0  0  0  3  0  0  0  0  0  0
  -13.3090   10.1190   15.2420 C   0  0  0  0  0  3  0  0  0  0  0  0
  -11.4290    8.7720   15.9420 C   0  0  0  0  0  3  0  0  0  0  0  0
  -12.1100   10.6770   17.2640 C   0  0  0  0  0  0  0  0  0  0  0  0
  -12.4560    9.0350   15.0350 C   0  0  0  0  0  0  0  0  0  0  0  0
  -10.9800   11.2010   19.3850 C   0  0  0  0  0  3  0  0  0  0  0  0
  -10.8080   12.0210   20.5010 C   0  0  0  0  0  3  0  0  0  0  0  0
  -12.7110   12.6750   18.5700 C   0  0  0  0  0  3  0  0  0  0  0  0
  -11.9310   11.5290   18.4200 C   0  0  0  0  0  0  0  0  0  0  0  0
  -11.5870   13.1680   20.6500 C   0  0  0  0  0  0  0  0  0  0  0  0
  -12.5390   13.4950   19.6840 C   0  0  0  0  0  0  0  0  0  0  0  0
  -12.2640   13.7370   22.9390 C   0  0  0  0  0  2  0  0  0  0  0  0
  -10.9090   15.3490   21.6110 C   0  0  0  0  0  2  0  0  0  0  0  0
  -11.5990   14.2330   24.2150 C   0  0  0  0  0  2  0  0  0  0  0  0
  -10.2510   15.8450   22.8930 C   0  0  0  0  0  2  0  0  0  0  0  0
  -10.6640   16.2680   25.3150 C   0  0  0  0  0  1  0  0  0  0  0  0
  -11.3970   13.9760   21.7780 N   0  0  0  0  0  0  0  0  0  0  0  0
  -11.2090   15.6790   24.0440 N   0  0  0  0  0  4  0  0  0  0  0  0
  -12.0550   16.2030   23.8190 H   0  0  0  0  0  0  0  0  0  0  0  0
  -13.4090   15.7290   18.9440 C   0  0  0  0  0  0  0  0  0  0  0  0
  -13.3310   14.6400   19.8140 N   0  0  0  0  0  0  0  0  0  0  0  0
  -12.8030   15.9060   17.8950 O   0  0  0  0  0  0  0  0  0  0  0  0
  -13.9030   14.6830   20.6140 H   0  0  0  0  0  0  0  0  0  0  0  0
  -16.5950   17.6410   19.7100 C   0  0  0  0  0  3  0  0  0  0  0  0
  -13.8290   17.8250   20.0190 C   0  0  0  0  0  3  0  0  0  0  0  0
  -14.3630   16.7560   19.4130 C   0  0  0  0  0  0  0  0  0  0  0  0
  -15.8050   16.6550   19.2490 C   0  0  0  0  0  0  0  0  0  0  0  0
  -16.0060   18.8340   20.3860 C   0  0  0  0  0  0  0  0  0  0  0  0
  -14.6270   18.8360   20.4930 N   0  0  0  0  0  0  0  0  0  0  0  0
  -16.7320   19.7310   20.8060 O   0  0  0  0  0  0  0  0  0  0  0  0
  -14.1940   19.6040   20.9310 H   0  0  0  0  0  0  0  0  0  0  0  0
  -16.3900   15.4530   18.5670 C   0  0  0  0  0  0  0  0  0  0  0  0
  -16.3320   15.5850   17.2280 F   0  0  0  0  0  0  0  0  0  0  0  0
  -15.7200   14.3340   18.9050 F   0  0  0  0  0  0  0  0  0  0  0  0
  -17.6820   15.2830   18.9130 F   0  0  0  0  0  0  0  0  0  0  0  0
  -11.5090    6.6680   12.2210 C   0  0  0  0  0  2  0  0  0  0  0  0
  -12.6290    5.6330   12.2760 C   0  0  0  0  0  2  0  0  0  0  0  0
  -12.1290    4.2100   11.9950 C   0  0  0  0  0  2  0  0  0  0  0  0
  -10.8840    4.1980   11.1080 C   0  0  0  0  0  2  0  0  0  0  0  0
   -9.6430    3.6590   11.8010 C   0  0  0  0  0  0  0  0  0  0  0  0
   -9.9040    3.3150   13.1190 N   0  0  0  0  0  0  0  0  0  0  0  0
   -8.5600    3.5310   11.2360 O   0  0  0  0  0  0  0  0  0  0  0  0
  -10.8120    3.4620   13.4700 H   0  0  0  0  0  0  0  0  0  0  0  0
   -8.9090    2.7540   14.0040 C   0  0  2  0  0  3  0  0  0  0  0  0
   -9.3810    1.3660   14.3560 C   0  0  0  0  0  0  0  0  0  0  0  0
   -7.4960   -1.8140   14.0750 C   0  0  0  0  0  2  0  0  0  0  0  0
   -7.0830    0.5100   13.6970 C   0  0  0  0  0  2  0  0  0  0  0  0
   -8.7950   -1.0570   14.3540 C   0  0  2  0  0  3  0  0  0  0  0  0
   -6.7130   -0.8680   13.1710 C   0  0  2  0  0  3  0  0  0  0  0  0
   -8.4520    0.3530   14.1820 N   0  0  0  0  0  0  0  0  0  0  0  0
  -10.5290    1.1870   14.7690 O   0  0  0  0  0  0  0  0  0  0  0  0
   -9.2210   -1.4010   15.7650 C   0  0  0  0  0  0  0  0  0  0  0  0
  -10.1810   -2.3930   15.8360 N   0  0  0  0  0  0  0  0  0  0  0  0
   -8.7130   -0.8100   16.7110 O   0  0  0  0  0  0  0  0  0  0  0  0
  -10.5080   -2.7890   14.9970 H   0  0  0  0  0  0  0  0  0  0  0  0
  -10.7270   -2.8760   17.0850 C   0  0  0  0  0  2  0  0  0  0  0  0
   -8.7040   -6.0720   17.3260 C   0  0  0  0  0  3  0  0  0  0  0  0
   -8.9030   -5.1180   19.5370 C   0  0  0  0  0  3  0  0  0  0  0  0
   -9.4510   -5.0160   16.8030 C   0  0  0  0  0  3  0  0  0  0  0  0
   -9.6490   -4.0620   19.0140 C   0  0  0  0  0  3  0  0  0  0  0  0
   -8.4300   -6.1240   18.6930 C   0  0  0  0  0  0  0  0  0  0  0  0
   -9.9240   -4.0120   17.6470 C   0  0  0  0  0  0  0  0  0  0  0  0
   -6.8620   -9.0920   20.5160 C   0  0  0  0  0  3  0  0  0  0  0  0
   -7.6580   -7.2150   19.2330 C   0  0  0  0  0  0  0  0  0  0  0  0
   -6.4170   -7.7030   18.8790 C   0  0  0  0  0  0  0  0  0  0  0  0
   -5.5490   -7.1830   17.8020 C   0  0  0  0  0  1  0  0  0  0  0  0
   -5.9600   -8.7790   19.6140 N   0  0  0  0  0  0  0  0  0  0  0  0
   -8.2870   -8.1350   20.5380 S   0  0  0  0  0  0  0  0  0  0  0  0
   -7.1650   -0.9880   11.8260 O   0  0  0  0  0  0  0  0  0  0  0  0
   -8.1160   -1.1800   11.8210 H   0  0  0  0  0  0  0  0  0  0  0  0
   -9.9040    4.2250   15.8790 C   0  0  0  0  0  1  0  0  0  0  0  0
   -7.6780    4.7900   14.8830 C   0  0  0  0  0  1  0  0  0  0  0  0
   -7.9170    2.7770   16.3370 C   0  0  0  0  0  1  0  0  0  0  0  0
   -8.6220    3.6290   15.2610 C   0  0  0  0  0  0  0  0  0  0  0  0
  1 10  1  0  0  0  0
  2  4  1  0  0  0  0
  2  1  1  0  0  0  0
  3  1  2  0  0  0  0
  5  9  1  0  0  0  0
  6  9  2  0  0  0  0
  7  5  2  0  0  0  0
  8  6  1  0  0  0  0
  9 14  1  0  0  0  0
 10  7  1  0  0  0  0
 10  8  2  0  0  0  0
 11 12  1  0  0  0  0
 12 15  2  0  0  0  0
 13 16  2  0  0  0  0
 14 13  1  0  0  0  0
 14 11  2  0  0  0  0
 15 22  1  0  0  0  0
 16 26  1  0  0  0  0
 16 15  1  0  0  0  0
 17 19  1  0  0  0  0
 18 22  1  0  0  0  0
 18 20  1  0  0  0  0
 20 23  1  0  0  0  0
 22 17  1  0  0  0  0
 23 19  1  0  0  0  0
 23 21  1  0  0  0  0
 24 23  1  0  0  0  0
 25 31  1  0  0  0  0
 25 26  1  0  0  0  0
 26 28  1  0  0  0  0
 27 25  2  0  0  0  0
 29 33  1  0  0  0  0
 30 34  1  0  0  0  0
 31 30  2  0  0  0  0
 32 31  1  0  0  0  0
 32 29  2  0  0  0  0
 33 34  1  0  0  0  0
 33 35  2  0  0  0  0
 34 36  1  0  0  0  0
 37 39  1  0  0  0  0
 37 40  1  0  0  0  0
 37 32  1  0  0  0  0
 38 37  1  0  0  0  0
 41 42  1  0  0  0  0
 41  2  1  0  0  0  0
 43 42  1  0  0  0  0
 44 45  1  0  0  0  0
 44 43  1  0  0  0  0
 45 46  1  0  0  0  0
 46 48  1  0  0  0  0
 46 49  1  0  0  0  0
 47 45  2  0  0  0  0
 49 50  1  1  0  0  0
 49 79  1  0  0  0  0
 50 56  2  0  0  0  0
 51 53  1  0  0  0  0
 52 55  1  0  0  0  0
 53 57  1  1  0  0  0
 54 74  1  6  0  0  0
 54 52  1  0  0  0  0
 54 51  1  0  0  0  0
 55 53  1  0  0  0  0
 55 50  1  0  0  0  0
 57 58  1  0  0  0  0
 57 59  2  0  0  0  0
 58 61  1  0  0  0  0
 60 58  1  0  0  0  0
 61 67  1  0  0  0  0
 62 66  1  0  0  0  0
 64 62  2  0  0  0  0
 64 67  1  0  0  0  0
 65 63  1  0  0  0  0
 66 69  1  0  0  0  0
 66 63  2  0  0  0  0
 67 65  2  0  0  0  0
 68 73  1  0  0  0  0
 69 73  1  0  0  0  0
 70 69  2  0  0  0  0
 70 72  1  0  0  0  0
 71 70  1  0  0  0  0
 72 68  2  0  0  0  0
 75 74  1  0  0  0  0
 77 79  1  0  0  0  0
 79 76  1  0  0  0  0
 79 78  1  0  0  0  0
M  END
>  <MODEL>
2

>  <REMARK>
 VINA RESULT:   -12.771      1.994      3.743
 INTER + INTRA:         -28.493
 INTER:                 -26.583
 INTRA:                  -1.910
 UNBOUND:                -1.910
  Name = 
  24 active torsions:
  status: ('A' for Active; 'I' for Inactive)
    1  A    between atoms: C_13  and  C_15
    2  A    between atoms: C_14  and  C_20
    3  A    between atoms: C_16  and  C_27
    4  A    between atoms: C_17  and  C_45
    5  A    between atoms: C_18  and  N_55
    6  A    between atoms: C_19  and  N_57
    7  A    between atoms: C_21  and  C_40
    8  A    between atoms: C_24  and  C_28
    9  A    between atoms: C_25  and  C_51
   10  A    between atoms: C_29  and  C_38
   11  A    between atoms: C_30  and  C_50
   12  A    between atoms: C_31  and  C_46
   13  A    between atoms: C_39  and  O_68
   14  A    between atoms: C_41  and  C_52
   15  A    between atoms: C_42  and  C_52
   16  A    between atoms: C_43  and  C_52
   17  A    between atoms: C_44  and  N_61
   18  A    between atoms: C_45  and  N_59
   19  A    between atoms: C_46  and  C_47
   20  A    between atoms: C_47  and  C_48
   21  A    between atoms: C_48  and  C_49
   22  A    between atoms: C_49  and  N_58
   23  A    between atoms: C_50  and  C_52
   24  A    between atoms: C_50  and  N_60
                            x       y       z     vdW  Elec       q    Type
                         _______ _______ _______ _____ _____    ______ ____

>  <TORSDO>
F 19

$$$$
