REMARK  Name = 
REMARK  24 active torsions:
REMARK  status: ('A' for Active; 'I' for Inactive)
REMARK    1  A    between atoms: C_13  and  C_15
REMARK    2  A    between atoms: C_14  and  C_20
REMARK    3  A    between atoms: C_16  and  C_27
REMARK    4  A    between atoms: C_17  and  C_45
REMARK    5  A    between atoms: C_18  and  N_55
REMARK    6  A    between atoms: C_19  and  N_57
REMARK    7  A    between atoms: C_21  and  C_40
REMARK    8  A    between atoms: C_24  and  C_28
REMARK    9  A    between atoms: C_25  and  C_51
REMARK   10  A    between atoms: C_29  and  C_38
REMARK   11  A    between atoms: C_30  and  C_50
REMARK   12  A    between atoms: C_31  and  C_46
REMARK   13  A    between atoms: C_39  and  O_68
REMARK   14  A    between atoms: C_41  and  C_52
REMARK   15  A    between atoms: C_42  and  C_52
REMARK   16  A    between atoms: C_43  and  C_52
REMARK   17  A    between atoms: C_44  and  N_61
REMARK   18  A    between atoms: C_45  and  N_59
REMARK   19  A    between atoms: C_46  and  C_47
REMARK   20  A    between atoms: C_47  and  C_48
REMARK   21  A    between atoms: C_48  and  C_49
REMARK   22  A    between atoms: C_49  and  N_58
REMARK   23  A    between atoms: C_50  and  C_52
REMARK   24  A    between atoms: C_50  and  N_60
REMARK                            x       y       z     vdW  Elec       q    Type
REMARK                         _______ _______ _______ _____ _____    ______ ____
ROOT
ATOM      1  C   UNL     1     -12.328   8.584  13.840  0.00  0.00    +0.000 C 
ATOM      2  N   UNL     1     -13.330   7.725  13.402  0.00  0.00    +0.000 N 
ATOM      3  O   UNL     1     -11.132   8.440  13.601  0.00  0.00    +0.000 OA
ATOM      4  H   UNL     1     -14.263   7.925  13.646  0.00  0.00    +0.000 HD
ENDROOT
BRANCH   1  10
ATOM      5  C   UNL     1     -14.473  11.318  15.316  0.00  0.00    +0.000 A 
ATOM      6  C   UNL     1     -12.307  11.375  16.384  0.00  0.00    +0.000 A 
ATOM      7  C   UNL     1     -14.059  10.241  14.533  0.00  0.00    +0.000 A 
ATOM      8  C   UNL     1     -11.892  10.298  15.600  0.00  0.00    +0.000 A 
ATOM      9  C   UNL     1     -13.597  11.885  16.242  0.00  0.00    +0.000 A 
ATOM     10  C   UNL     1     -12.769   9.731  14.675  0.00  0.00    +0.000 A 
BRANCH   9  14
ATOM     11  C   UNL     1     -14.974  13.899  16.561  0.00  0.00    +0.000 A 
ATOM     12  C   UNL     1     -15.388  14.977  17.344  0.00  0.00    +0.000 A 
ATOM     13  C   UNL     1     -13.494  13.183  18.331  0.00  0.00    +0.000 A 
ATOM     14  C   UNL     1     -14.027  13.002  17.055  0.00  0.00    +0.000 A 
ATOM     15  C   UNL     1     -14.856  15.157  18.620  0.00  0.00    +0.000 A 
ATOM     16  C   UNL     1     -13.908  14.260  19.114  0.00  0.00    +0.000 A 
BRANCH  15  22
ATOM     17  C   UNL     1     -16.448  16.044  20.263  0.00  0.00    +0.000 C 
ATOM     18  C   UNL     1     -15.087  17.609  18.886  0.00  0.00    +0.000 C 
ATOM     19  C   UNL     1     -16.437  17.046  21.409  0.00  0.00    +0.000 C 
ATOM     20  C   UNL     1     -15.084  18.610  20.035  0.00  0.00    +0.000 C 
ATOM     21  C   UNL     1     -16.456  19.487  21.923  0.00  0.00    +0.000 C 
ATOM     22  N   UNL     1     -15.286  16.246  19.388  0.00  0.00    +0.000 N 
ATOM     23  N   UNL     1     -16.341  18.442  20.849  0.00  0.00    +0.000 N 
ATOM     24  H   UNL     1     -17.135  18.579  20.223  0.00  0.00    +0.000 HD
ENDBRANCH  15  22
BRANCH  16  26
ATOM     25  C   UNL     1     -12.411  13.617  21.021  0.00  0.00    +0.000 C 
ATOM     26  N   UNL     1     -13.361  14.422  20.390  0.00  0.00    +0.000 N 
ATOM     27  O   UNL     1     -11.864  12.609  20.591  0.00  0.00    +0.000 OA
ATOM     28  H   UNL     1     -13.684  15.196  20.905  0.00  0.00    +0.000 HD
BRANCH  25  31
ATOM     29  C   UNL     1     -10.764  15.439  23.913  0.00  0.00    +0.000 A 
ATOM     30  C   UNL     1     -12.815  13.625  23.380  0.00  0.00    +0.000 A 
ATOM     31  C   UNL     1     -12.070  14.105  22.374  0.00  0.00    +0.000 A 
ATOM     32  C   UNL     1     -10.999  15.051  22.646  0.00  0.00    +0.000 A 
ATOM     33  C   UNL     1     -11.590  14.908  25.037  0.00  0.00    +0.000 A 
ATOM     34  N   UNL     1     -12.582  14.015  24.675  0.00  0.00    +0.000 N 
ATOM     35  O   UNL     1     -11.371  15.266  26.191  0.00  0.00    +0.000 OA
ATOM     36  H   UNL     1     -13.151  13.638  25.384  0.00  0.00    +0.000 HD
BRANCH  32  37
ATOM     37  C   UNL     1     -10.172  15.580  21.512  0.00  0.00    +0.000 C 
ATOM     38  F   UNL     1      -9.235  16.438  21.960  0.00  0.00    +0.000 F 
ATOM     39  F   UNL     1      -9.543  14.578  20.866  0.00  0.00    +0.000 F 
ATOM     40  F   UNL     1     -10.940  16.233  20.617  0.00  0.00    +0.000 F 
ENDBRANCH  32  37
ENDBRANCH  25  31
ENDBRANCH  16  26
ENDBRANCH   9  14
ENDBRANCH   1  10
BRANCH   2  41
ATOM     41  C   UNL     1     -13.060   6.559  12.607  0.00  0.00    +0.000 C 
BRANCH  41  42
ATOM     42  C   UNL     1     -12.807   5.319  13.459  0.00  0.00    +0.000 C 
BRANCH  42  43
ATOM     43  C   UNL     1     -12.496   4.078  12.613  0.00  0.00    +0.000 C 
BRANCH  43  44
ATOM     44  C   UNL     1     -12.191   2.852  13.473  0.00  0.00    +0.000 C 
BRANCH  44  45
ATOM     45  C   UNL     1     -10.953   3.005  14.342  0.00  0.00    +0.000 C 
ATOM     46  N   UNL     1      -9.818   3.232  13.577  0.00  0.00    +0.000 N 
ATOM     47  O   UNL     1     -10.982   2.954  15.569  0.00  0.00    +0.000 OA
ATOM     48  H   UNL     1      -9.911   3.252  12.597  0.00  0.00    +0.000 HD
BRANCH  46  49
ATOM     49  C   UNL     1      -8.506   3.438  14.147  0.00  0.00    +0.000 C 
BRANCH  49  50
ATOM     50  C   UNL     1      -8.418   4.901  14.504  0.00  0.00    +0.000 C 
ATOM     51  C   UNL     1      -6.733   6.427  17.433  0.00  0.00    +0.000 C 
ATOM     52  C   UNL     1      -7.021   4.237  16.518  0.00  0.00    +0.000 C 
ATOM     53  C   UNL     1      -7.625   6.550  16.196  0.00  0.00    +0.000 C 
ATOM     54  C   UNL     1      -6.887   4.967  17.845  0.00  0.00    +0.000 C 
ATOM     55  N   UNL     1      -7.694   5.198  15.647  0.00  0.00    +0.000 N 
ATOM     56  O   UNL     1      -8.971   5.746  13.797  0.00  0.00    +0.000 OA
BRANCH  53  57
ATOM     57  C   UNL     1      -6.964   7.542  15.263  0.00  0.00    +0.000 C 
ATOM     58  N   UNL     1      -7.374   8.849  15.450  0.00  0.00    +0.000 N 
ATOM     59  O   UNL     1      -6.146   7.146  14.441  0.00  0.00    +0.000 OA
ATOM     60  H   UNL     1      -8.042   9.035  16.148  0.00  0.00    +0.000 HD
BRANCH  58  61
ATOM     61  C   UNL     1      -6.869   9.955  14.668  0.00  0.00    +0.000 C 
BRANCH  61  67
ATOM     62  C   UNL     1      -9.343  11.500  12.247  0.00  0.00    +0.000 A 
ATOM     63  C   UNL     1      -8.345   9.566  11.198  0.00  0.00    +0.000 A 
ATOM     64  C   UNL     1      -8.576  11.276  13.391  0.00  0.00    +0.000 A 
ATOM     65  C   UNL     1      -7.578   9.342  12.341  0.00  0.00    +0.000 A 
ATOM     66  C   UNL     1      -9.228  10.645  11.151  0.00  0.00    +0.000 A 
ATOM     67  C   UNL     1      -7.694  10.196  13.438  0.00  0.00    +0.000 A 
BRANCH  66  69
ATOM     68  C   UNL     1     -10.783  11.313   7.726  0.00  0.00    +0.000 A 
ATOM     69  C   UNL     1     -10.021  10.877   9.969  0.00  0.00    +0.000 A 
ATOM     70  C   UNL     1     -11.389  10.918   9.796  0.00  0.00    +0.000 A 
ATOM     71  C   UNL     1     -12.409  10.723  10.848  0.00  0.00    +0.000 C 
ATOM     72  N   UNL     1     -11.827  11.168   8.510  0.00  0.00    +0.000 NA
ATOM     73  S   UNL     1      -9.242  11.161   8.467  0.00  0.00    +0.000 S 
ENDBRANCH  66  69
ENDBRANCH  61  67
ENDBRANCH  58  61
ENDBRANCH  53  57
BRANCH  54  74
ATOM     74  O   UNL     1      -8.085   4.792  18.594  0.00  0.00    +0.000 OA
ATOM     75  H   UNL     1      -8.842   5.099  18.069  0.00  0.00    +0.000 HD
ENDBRANCH  54  74
ENDBRANCH  49  50
BRANCH  49  79
ATOM     76  C   UNL     1      -7.404   1.468  12.893  0.00  0.00    +0.000 C 
ATOM     77  C   UNL     1      -5.987   3.267  13.904  0.00  0.00    +0.000 C 
ATOM     78  C   UNL     1      -7.384   3.762  11.897  0.00  0.00    +0.000 C 
ATOM     79  C   UNL     1      -7.341   2.973  13.223  0.00  0.00    +0.000 C 
ENDBRANCH  49  79
ENDBRANCH  46  49
ENDBRANCH  44  45
ENDBRANCH  43  44
ENDBRANCH  42  43
ENDBRANCH  41  42
ENDBRANCH   2  41
TORSDOF 19
