=
                    3D
 Structure written by MMmdl.
 78 84  0  0  1  0            999 V2000
  -12.2030    7.7830   14.5850 C   0  0  0  0  0  0
  -11.2760    7.9680   13.5650 N   0  0  0  0  0  0
  -12.6530    6.6930   14.9280 O   0  0  0  0  0  0
  -10.9740    8.8840   13.3620 H   0  0  0  0  0  0
  -14.2660   10.8250   15.4480 C   0  0  0  0  0  0
  -12.4300   10.6690   17.0100 C   0  0  0  0  0  0
  -13.8200    9.6690   14.8070 C   0  0  0  0  0  0
  -11.9830    9.5130   16.3690 C   0  0  0  0  0  0
  -13.5710   11.3250   16.5490 C   0  0  0  0  0  0
  -12.6780    9.0130   15.2680 C   0  0  0  0  0  0
  -15.2250   13.1280   16.8090 C   0  0  0  0  0  0
  -15.6720   14.2850   17.4490 C   0  0  0  0  0  0
  -13.2930   13.0740   18.2580 C   0  0  0  0  0  0
  -14.0350   12.5230   17.2140 C   0  0  0  0  0  0
  -14.9300   14.8350   18.4930 C   0  0  0  0  0  0
  -13.7400   14.2300   18.8980 C   0  0  0  0  0  0
  -14.4000   16.9000   19.7080 C   0  0  0  0  0  0
  -16.7180   15.9920   19.7580 C   0  0  0  0  0  0
  -14.9540   18.3140   19.8130 C   0  0  0  0  0  0
  -17.2660   17.4100   19.8670 C   0  0  0  0  0  0
  -16.7930   19.6650   20.8190 C   0  0  0  0  0  0
  -15.3980   15.9960   19.1210 N   0  0  0  0  0  0
  -16.2580   18.2840   20.5680 N   0  0  0  0  0  0
  -12.0190   14.1160   20.7200 C   0  0  0  0  0  0
  -12.9800   14.7650   19.9420 N   0  0  0  0  0  0
  -11.6460   12.9510   20.6490 O   0  0  0  0  0  0
  -13.1420   15.7120   20.1550 H   0  0  0  0  0  0
   -9.8640   16.7230   22.4380 C   0  0  0  0  0  0
  -11.9220   14.9170   22.9730 C   0  0  0  0  0  0
  -11.4190   15.0090   21.7330 C   0  0  0  0  0  0
  -10.3460   15.9490   21.4490 C   0  0  0  0  0  0
  -10.4200   16.6260   23.8200 C   0  0  0  0  0  0
  -11.4360   15.7030   23.9880 N   0  0  0  0  0  0
   -9.9760   17.3360   24.7190 O   0  0  0  0  0  0
  -11.8320   15.6040   24.8830 H   0  0  0  0  0  0
   -9.7910   16.0410   20.0580 C   0  0  0  0  0  0
   -9.4340   14.8250   19.6020 F   0  0  0  0  0  0
  -10.7050   16.5520   19.2080 F   0  0  0  0  0  0
   -8.7030   16.8350   20.0240 F   0  0  0  0  0  0
  -10.7400    6.8800   12.7960 C   0  0  0  0  0  0
  -11.7500    6.3170   11.8000 C   0  0  0  0  0  0
  -11.0810    5.5470   10.6550 C   0  0  0  0  0  0
  -11.0050    4.0460   10.9320 C   0  0  0  0  0  0
   -9.7260    3.6160   11.6320 C   0  0  0  0  0  0
   -9.9750    3.1690   12.9210 N   0  0  0  0  0  0
   -8.6220    3.6460   11.0930 O   0  0  0  0  0  0
  -10.9030    3.1900   13.2520 H   0  0  0  0  0  0
   -8.9420    2.6770   13.8040 C   0  0  2  0  0  0
   -9.3740    1.3010   14.2450 C   0  0  0  0  0  0
   -7.4620   -1.8670   14.0020 C   0  0  0  0  0  0
   -7.1040    0.4430   13.4960 C   0  0  0  0  0  0
   -8.7540   -1.1120   14.3200 C   0  0  2  0  0  0
   -6.7450   -0.9540   13.0130 C   0  0  2  0  0  0
   -8.4420    0.2920   14.0640 N   0  0  2  0  0  0
  -10.4940    1.1280   14.7300 O   0  0  0  0  0  0
   -9.0950   -1.3960   15.7670 C   0  0  0  0  0  0
   -9.8700   -2.5260   15.9510 N   0  0  0  0  0  0
   -8.6830   -0.6450   16.6430 O   0  0  0  0  0  0
  -10.1370   -3.0450   15.1590 H   0  0  0  0  0  0
  -10.3080   -2.9800   17.2510 C   0  0  0  0  0  0
   -8.6720   -5.5440   19.5140 C   0  0  0  0  0  0
   -8.2480   -6.1620   17.2180 C   0  0  0  0  0  0
   -9.3900   -4.4280   19.0820 C   0  0  0  0  0  0
   -8.9660   -5.0480   16.7850 C   0  0  0  0  0  0
   -8.1000   -6.4100   18.5830 C   0  0  0  0  0  0
   -9.5360   -4.1800   17.7170 C   0  0  0  0  0  0
   -5.6500   -9.2010   19.4800 C   0  0  0  0  0  0
   -7.3580   -7.5630   19.0300 C   0  0  0  0  0  0
   -7.7550   -8.6590   19.7690 C   0  0  0  0  0  0
   -9.1130   -8.9110   20.2960 C   0  0  0  0  0  0
   -6.7770   -9.5980   20.0270 N   0  0  0  0  0  0
   -5.6940   -7.7050   18.6400 S   0  0  0  0  0  0
   -7.2700   -1.1410   11.7030 O   0  0  0  0  0  0
   -6.5420   -1.3200   11.0860 H   0  0  0  0  0  0
   -9.9110    4.2380   15.6180 C   0  0  0  0  0  0
   -7.7190    4.7750   14.5360 C   0  0  0  0  0  0
   -7.8930    2.8430   16.1050 C   0  0  0  0  0  0
   -8.6370    3.6250   15.0020 C   0  0  0  0  0  0
  1  3  2  0  0  0
  1 10  1  0  0  0
  1  2  1  0  0  0
  2  4  1  0  0  0
  2 40  1  0  0  0
  5  9  1  0  0  0
  5  7  2  0  0  0
  6  8  1  0  0  0
  6  9  2  0  0  0
  7 10  1  0  0  0
  8 10  2  0  0  0
  9 14  1  0  0  0
 11 14  2  0  0  0
 11 12  1  0  0  0
 12 15  2  0  0  0
 13 16  2  0  0  0
 13 14  1  0  0  0
 15 16  1  0  0  0
 15 22  1  0  0  0
 16 25  1  0  0  0
 17 19  1  0  0  0
 17 22  1  0  0  0
 18 20  1  0  0  0
 18 22  1  0  0  0
 19 23  1  0  0  0
 20 23  1  0  0  0
 21 23  1  0  0  0
 24 30  1  0  0  0
 24 25  1  0  0  0
 24 26  2  0  0  0
 25 27  1  0  0  0
 28 32  1  0  0  0
 28 31  2  0  0  0
 29 33  1  0  0  0
 29 30  2  0  0  0
 30 31  1  0  0  0
 31 36  1  0  0  0
 32 33  1  0  0  0
 32 34  2  0  0  0
 33 35  1  0  0  0
 36 37  1  0  0  0
 36 38  1  0  0  0
 36 39  1  0  0  0
 40 41  1  0  0  0
 41 42  1  0  0  0
 42 43  1  0  0  0
 43 44  1  0  0  0
 44 45  1  0  0  0
 44 46  2  0  0  0
 45 47  1  0  0  0
 45 48  1  0  0  0
 48 49  1  0  0  0
 48 78  1  0  0  0
 49 55  2  0  0  0
 49 54  1  0  0  0
 50 52  1  0  0  0
 50 53  1  0  0  0
 51 54  1  0  0  0
 51 53  1  0  0  0
 52 56  1  0  0  0
 52 54  1  0  0  0
 53 73  1  0  0  0
 56 57  1  0  0  0
 56 58  2  0  0  0
 57 60  1  0  0  0
 57 59  1  0  0  0
 60 66  1  0  0  0
 61 63  1  0  0  0
 61 65  2  0  0  0
 62 65  1  0  0  0
 62 64  2  0  0  0
 63 66  2  0  0  0
 64 66  1  0  0  0
 65 68  1  0  0  0
 67 71  2  0  0  0
 67 72  1  0  0  0
 68 69  2  0  0  0
 68 72  1  0  0  0
 69 71  1  0  0  0
 69 70  1  0  0  0
 73 74  1  0  0  0
 75 78  1  0  0  0
 76 78  1  0  0  0
 77 78  1  0  0  0
M  END
> <s_m_entry_id>
11

> <s_m_entry_name>
0000_ADV_out_mae.1

> <MODEL>
1

> <REMARK>
 VINA RESULT:   -13.508      0.000      0.000
 INTER + INTRA:         -30.028
 INTER:                 -28.412
 INTRA:                  -1.616
 UNBOUND:                -1.910
  Name = 
  24 active torsions:
  status: ('A' for Active; 'I' for Inactive)
    1  A    between atoms: C_13  and  C_15
    2  A    between atoms: C_14  and  C_20
    3  A    between atoms: C_16  and  C_27
    4  A    between atoms: C_17  and  C_45
    5  A    between atoms: C_18  and  N_55
    6  A    between atoms: C_19  and  N_57
    7  A    between atoms: C_21  and  C_40
    8  A    between atoms: C_24  and  C_28
    9  A    between atoms: C_25  and  C_51
   10  A    between atoms: C_29  and  C_38
   11  A    between atoms: C_30  and  C_50
   12  A    between atoms: C_31  and  C_46
   13  A    between atoms: C_39  and  O_68
   14  A    between atoms: C_41  and  C_52
   15  A    between atoms: C_42  and  C_52
   16  A    between atoms: C_43  and  C_52
   17  A    between atoms: C_44  and  N_61
   18  A    between atoms: C_45  and  N_59
   19  A    between atoms: C_46  and  C_47
   20  A    between atoms: C_47  and  C_48
   21  A    between atoms: C_48  and  C_49
   22  A    between atoms: C_49  and  N_58
   23  A    between atoms: C_50  and  C_52
   24  A    between atoms: C_50  and  N_60
                            x       y       z     vdW  Elec       q    Type
                         _______ _______ _______ _____ _____    ______ ____

> <TORSDO>
F 19

> <chiral flag>
1

> <version>
0

> <chiral flag>
1

> <s_m_Source_Path>
/data/baiqing/PycharmProjects/DockStream-master/result/7Q2J

> <s_m_Source_File>
0000_ADV_out_mae.sdf

> <i_m_Source_File_Index>
1

> <s_m_subgroup_title>
0000_ADV_out_mae

> <s_m_subgroupid>
0000_ADV_out_mae-imp5

> <b_m_subgroup_collapsed>
0

$$$$
