MODEL 1
REMARK VINA RESULT:   -13.508      0.000      0.000
REMARK INTER + INTRA:         -30.028
REMARK INTER:                 -28.412
REMARK INTRA:                  -1.616
REMARK UNBOUND:                -1.910
REMARK  Name = 
REMARK  24 active torsions:
REMARK  status: ('A' for Active; 'I' for Inactive)
REMARK    1  A    between atoms: C_13  and  C_15
REMARK    2  A    between atoms: C_14  and  C_20
REMARK    3  A    between atoms: C_16  and  C_27
REMARK    4  A    between atoms: C_17  and  C_45
REMARK    5  A    between atoms: C_18  and  N_55
REMARK    6  A    between atoms: C_19  and  N_57
REMARK    7  A    between atoms: C_21  and  C_40
REMARK    8  A    between atoms: C_24  and  C_28
REMARK    9  A    between atoms: C_25  and  C_51
REMARK   10  A    between atoms: C_29  and  C_38
REMARK   11  A    between atoms: C_30  and  C_50
REMARK   12  A    between atoms: C_31  and  C_46
REMARK   13  A    between atoms: C_39  and  O_68
REMARK   14  A    between atoms: C_41  and  C_52
REMARK   15  A    between atoms: C_42  and  C_52
REMARK   16  A    between atoms: C_43  and  C_52
REMARK   17  A    between atoms: C_44  and  N_61
REMARK   18  A    between atoms: C_45  and  N_59
REMARK   19  A    between atoms: C_46  and  C_47
REMARK   20  A    between atoms: C_47  and  C_48
REMARK   21  A    between atoms: C_48  and  C_49
REMARK   22  A    between atoms: C_49  and  N_58
REMARK   23  A    between atoms: C_50  and  C_52
REMARK   24  A    between atoms: C_50  and  N_60
REMARK                            x       y       z     vdW  Elec       q    Type
REMARK                         _______ _______ _______ _____ _____    ______ ____
ROOT
ATOM      1  C   UNL     1     -12.203   7.783  14.585  0.00  0.00    +0.000 C 
ATOM      2  N   UNL     1     -11.276   7.968  13.565  0.00  0.00    +0.000 N 
ATOM      3  O   UNL     1     -12.653   6.693  14.928  0.00  0.00    +0.000 OA
ATOM      4  H   UNL     1     -10.974   8.884  13.362  0.00  0.00    +0.000 HD
ENDROOT
BRANCH   1  10
ATOM      5  C   UNL     1     -14.266  10.825  15.448  0.00  0.00    +0.000 A 
ATOM      6  C   UNL     1     -12.430  10.669  17.010  0.00  0.00    +0.000 A 
ATOM      7  C   UNL     1     -13.820   9.669  14.807  0.00  0.00    +0.000 A 
ATOM      8  C   UNL     1     -11.983   9.513  16.369  0.00  0.00    +0.000 A 
ATOM      9  C   UNL     1     -13.571  11.325  16.549  0.00  0.00    +0.000 A 
ATOM     10  C   UNL     1     -12.678   9.013  15.268  0.00  0.00    +0.000 A 
BRANCH   9  14
ATOM     11  C   UNL     1     -15.225  13.128  16.809  0.00  0.00    +0.000 A 
ATOM     12  C   UNL     1     -15.672  14.285  17.449  0.00  0.00    +0.000 A 
ATOM     13  C   UNL     1     -13.293  13.074  18.258  0.00  0.00    +0.000 A 
ATOM     14  C   UNL     1     -14.035  12.523  17.214  0.00  0.00    +0.000 A 
ATOM     15  C   UNL     1     -14.930  14.835  18.493  0.00  0.00    +0.000 A 
ATOM     16  C   UNL     1     -13.740  14.230  18.898  0.00  0.00    +0.000 A 
BRANCH  15  22
ATOM     17  C   UNL     1     -14.400  16.900  19.708  0.00  0.00    +0.000 C 
ATOM     18  C   UNL     1     -16.718  15.992  19.758  0.00  0.00    +0.000 C 
ATOM     19  C   UNL     1     -14.954  18.314  19.813  0.00  0.00    +0.000 C 
ATOM     20  C   UNL     1     -17.266  17.410  19.867  0.00  0.00    +0.000 C 
ATOM     21  C   UNL     1     -16.793  19.665  20.819  0.00  0.00    +0.000 C 
ATOM     22  N   UNL     1     -15.398  15.996  19.121  0.00  0.00    +0.000 N 
ATOM     23  N   UNL     1     -16.258  18.284  20.568  0.00  0.00    +0.000 N 
ATOM     24  H   UNL     1     -16.075  17.871  21.483  0.00  0.00    +0.000 HD
ENDBRANCH  15  22
BRANCH  16  26
ATOM     25  C   UNL     1     -12.019  14.116  20.720  0.00  0.00    +0.000 C 
ATOM     26  N   UNL     1     -12.980  14.765  19.942  0.00  0.00    +0.000 N 
ATOM     27  O   UNL     1     -11.646  12.951  20.649  0.00  0.00    +0.000 OA
ATOM     28  H   UNL     1     -13.142  15.712  20.155  0.00  0.00    +0.000 HD
BRANCH  25  31
ATOM     29  C   UNL     1      -9.864  16.723  22.438  0.00  0.00    +0.000 A 
ATOM     30  C   UNL     1     -11.922  14.917  22.973  0.00  0.00    +0.000 A 
ATOM     31  C   UNL     1     -11.419  15.009  21.733  0.00  0.00    +0.000 A 
ATOM     32  C   UNL     1     -10.346  15.949  21.449  0.00  0.00    +0.000 A 
ATOM     33  C   UNL     1     -10.420  16.626  23.820  0.00  0.00    +0.000 A 
ATOM     34  N   UNL     1     -11.436  15.703  23.988  0.00  0.00    +0.000 N 
ATOM     35  O   UNL     1      -9.976  17.336  24.719  0.00  0.00    +0.000 OA
ATOM     36  H   UNL     1     -11.832  15.604  24.883  0.00  0.00    +0.000 HD
BRANCH  32  37
ATOM     37  C   UNL     1      -9.791  16.041  20.058  0.00  0.00    +0.000 C 
ATOM     38  F   UNL     1      -9.434  14.825  19.602  0.00  0.00    +0.000 F 
ATOM     39  F   UNL     1     -10.705  16.552  19.208  0.00  0.00    +0.000 F 
ATOM     40  F   UNL     1      -8.703  16.835  20.024  0.00  0.00    +0.000 F 
ENDBRANCH  32  37
ENDBRANCH  25  31
ENDBRANCH  16  26
ENDBRANCH   9  14
ENDBRANCH   1  10
BRANCH   2  41
ATOM     41  C   UNL     1     -10.740   6.880  12.796  0.00  0.00    +0.000 C 
BRANCH  41  42
ATOM     42  C   UNL     1     -11.750   6.317  11.800  0.00  0.00    +0.000 C 
BRANCH  42  43
ATOM     43  C   UNL     1     -11.081   5.547  10.655  0.00  0.00    +0.000 C 
BRANCH  43  44
ATOM     44  C   UNL     1     -11.005   4.046  10.932  0.00  0.00    +0.000 C 
BRANCH  44  45
ATOM     45  C   UNL     1      -9.726   3.616  11.632  0.00  0.00    +0.000 C 
ATOM     46  N   UNL     1      -9.975   3.169  12.921  0.00  0.00    +0.000 N 
ATOM     47  O   UNL     1      -8.622   3.646  11.093  0.00  0.00    +0.000 OA
ATOM     48  H   UNL     1     -10.903   3.190  13.252  0.00  0.00    +0.000 HD
BRANCH  46  49
ATOM     49  C   UNL     1      -8.942   2.677  13.804  0.00  0.00    +0.000 C 
BRANCH  49  50
ATOM     50  C   UNL     1      -9.374   1.301  14.245  0.00  0.00    +0.000 C 
ATOM     51  C   UNL     1      -7.462  -1.867  14.002  0.00  0.00    +0.000 C 
ATOM     52  C   UNL     1      -7.104   0.443  13.496  0.00  0.00    +0.000 C 
ATOM     53  C   UNL     1      -8.754  -1.112  14.320  0.00  0.00    +0.000 C 
ATOM     54  C   UNL     1      -6.745  -0.954  13.013  0.00  0.00    +0.000 C 
ATOM     55  N   UNL     1      -8.442   0.292  14.064  0.00  0.00    +0.000 N 
ATOM     56  O   UNL     1     -10.494   1.128  14.730  0.00  0.00    +0.000 OA
BRANCH  53  57
ATOM     57  C   UNL     1      -9.095  -1.396  15.767  0.00  0.00    +0.000 C 
ATOM     58  N   UNL     1      -9.870  -2.526  15.951  0.00  0.00    +0.000 N 
ATOM     59  O   UNL     1      -8.683  -0.645  16.643  0.00  0.00    +0.000 OA
ATOM     60  H   UNL     1     -10.137  -3.045  15.159  0.00  0.00    +0.000 HD
BRANCH  58  61
ATOM     61  C   UNL     1     -10.308  -2.980  17.251  0.00  0.00    +0.000 C 
BRANCH  61  67
ATOM     62  C   UNL     1      -8.672  -5.544  19.514  0.00  0.00    +0.000 A 
ATOM     63  C   UNL     1      -8.248  -6.162  17.218  0.00  0.00    +0.000 A 
ATOM     64  C   UNL     1      -9.390  -4.428  19.082  0.00  0.00    +0.000 A 
ATOM     65  C   UNL     1      -8.966  -5.048  16.785  0.00  0.00    +0.000 A 
ATOM     66  C   UNL     1      -8.100  -6.410  18.583  0.00  0.00    +0.000 A 
ATOM     67  C   UNL     1      -9.536  -4.180  17.717  0.00  0.00    +0.000 A 
BRANCH  66  69
ATOM     68  C   UNL     1      -5.650  -9.201  19.480  0.00  0.00    +0.000 A 
ATOM     69  C   UNL     1      -7.358  -7.563  19.030  0.00  0.00    +0.000 A 
ATOM     70  C   UNL     1      -7.755  -8.659  19.769  0.00  0.00    +0.000 A 
ATOM     71  C   UNL     1      -9.113  -8.911  20.296  0.00  0.00    +0.000 C 
ATOM     72  N   UNL     1      -6.777  -9.598  20.027  0.00  0.00    +0.000 NA
ATOM     73  S   UNL     1      -5.694  -7.705  18.640  0.00  0.00    +0.000 S 
ENDBRANCH  66  69
ENDBRANCH  61  67
ENDBRANCH  58  61
ENDBRANCH  53  57
BRANCH  54  74
ATOM     74  O   UNL     1      -7.270  -1.141  11.703  0.00  0.00    +0.000 OA
ATOM     75  H   UNL     1      -6.542  -1.320  11.086  0.00  0.00    +0.000 HD
ENDBRANCH  54  74
ENDBRANCH  49  50
BRANCH  49  79
ATOM     76  C   UNL     1      -9.911   4.238  15.618  0.00  0.00    +0.000 C 
ATOM     77  C   UNL     1      -7.719   4.775  14.536  0.00  0.00    +0.000 C 
ATOM     78  C   UNL     1      -7.893   2.843  16.105  0.00  0.00    +0.000 C 
ATOM     79  C   UNL     1      -8.637   3.625  15.002  0.00  0.00    +0.000 C 
ENDBRANCH  49  79
ENDBRANCH  46  49
ENDBRANCH  44  45
ENDBRANCH  43  44
ENDBRANCH  42  43
ENDBRANCH  41  42
ENDBRANCH   2  41
TORSDOF 19
ENDMDL
MODEL 2
REMARK VINA RESULT:   -12.771      1.994      3.743
REMARK INTER + INTRA:         -28.493
REMARK INTER:                 -26.583
REMARK INTRA:                  -1.910
REMARK UNBOUND:                -1.910
REMARK  Name = 
REMARK  24 active torsions:
REMARK  status: ('A' for Active; 'I' for Inactive)
REMARK    1  A    between atoms: C_13  and  C_15
REMARK    2  A    between atoms: C_14  and  C_20
REMARK    3  A    between atoms: C_16  and  C_27
REMARK    4  A    between atoms: C_17  and  C_45
REMARK    5  A    between atoms: C_18  and  N_55
REMARK    6  A    between atoms: C_19  and  N_57
REMARK    7  A    between atoms: C_21  and  C_40
REMARK    8  A    between atoms: C_24  and  C_28
REMARK    9  A    between atoms: C_25  and  C_51
REMARK   10  A    between atoms: C_29  and  C_38
REMARK   11  A    between atoms: C_30  and  C_50
REMARK   12  A    between atoms: C_31  and  C_46
REMARK   13  A    between atoms: C_39  and  O_68
REMARK   14  A    between atoms: C_41  and  C_52
REMARK   15  A    between atoms: C_42  and  C_52
REMARK   16  A    between atoms: C_43  and  C_52
REMARK   17  A    between atoms: C_44  and  N_61
REMARK   18  A    between atoms: C_45  and  N_59
REMARK   19  A    between atoms: C_46  and  C_47
REMARK   20  A    between atoms: C_47  and  C_48
REMARK   21  A    between atoms: C_48  and  C_49
REMARK   22  A    between atoms: C_49  and  N_58
REMARK   23  A    between atoms: C_50  and  C_52
REMARK   24  A    between atoms: C_50  and  N_60
REMARK                            x       y       z     vdW  Elec       q    Type
REMARK                         _______ _______ _______ _____ _____    ______ ____
ROOT
ATOM      1  C   UNL     1     -12.640   8.161  13.848  0.00  0.00    +0.000 C 
ATOM      2  N   UNL     1     -11.498   7.525  13.374  0.00  0.00    +0.000 N 
ATOM      3  O   UNL     1     -13.755   8.061  13.343  0.00  0.00    +0.000 OA
ATOM      4  H   UNL     1     -10.646   7.668  13.848  0.00  0.00    +0.000 HD
ENDROOT
BRANCH   1  10
ATOM      5  C   UNL     1     -13.136  10.940  16.356  0.00  0.00    +0.000 A 
ATOM      6  C   UNL     1     -11.257   9.594  17.057  0.00  0.00    +0.000 A 
ATOM      7  C   UNL     1     -13.309  10.119  15.242  0.00  0.00    +0.000 A 
ATOM      8  C   UNL     1     -11.429   8.772  15.942  0.00  0.00    +0.000 A 
ATOM      9  C   UNL     1     -12.110  10.677  17.264  0.00  0.00    +0.000 A 
ATOM     10  C   UNL     1     -12.456   9.035  15.035  0.00  0.00    +0.000 A 
BRANCH   9  14
ATOM     11  C   UNL     1     -10.980  11.201  19.385  0.00  0.00    +0.000 A 
ATOM     12  C   UNL     1     -10.808  12.021  20.501  0.00  0.00    +0.000 A 
ATOM     13  C   UNL     1     -12.711  12.675  18.570  0.00  0.00    +0.000 A 
ATOM     14  C   UNL     1     -11.931  11.529  18.420  0.00  0.00    +0.000 A 
ATOM     15  C   UNL     1     -11.587  13.168  20.650  0.00  0.00    +0.000 A 
ATOM     16  C   UNL     1     -12.539  13.495  19.684  0.00  0.00    +0.000 A 
BRANCH  15  22
ATOM     17  C   UNL     1     -12.264  13.737  22.939  0.00  0.00    +0.000 C 
ATOM     18  C   UNL     1     -10.909  15.349  21.611  0.00  0.00    +0.000 C 
ATOM     19  C   UNL     1     -11.599  14.233  24.215  0.00  0.00    +0.000 C 
ATOM     20  C   UNL     1     -10.251  15.845  22.893  0.00  0.00    +0.000 C 
ATOM     21  C   UNL     1     -10.664  16.268  25.315  0.00  0.00    +0.000 C 
ATOM     22  N   UNL     1     -11.397  13.976  21.778  0.00  0.00    +0.000 N 
ATOM     23  N   UNL     1     -11.209  15.679  24.044  0.00  0.00    +0.000 N 
ATOM     24  H   UNL     1     -12.055  16.203  23.819  0.00  0.00    +0.000 HD
ENDBRANCH  15  22
BRANCH  16  26
ATOM     25  C   UNL     1     -13.409  15.729  18.944  0.00  0.00    +0.000 C 
ATOM     26  N   UNL     1     -13.331  14.640  19.814  0.00  0.00    +0.000 N 
ATOM     27  O   UNL     1     -12.803  15.906  17.895  0.00  0.00    +0.000 OA
ATOM     28  H   UNL     1     -13.903  14.683  20.614  0.00  0.00    +0.000 HD
BRANCH  25  31
ATOM     29  C   UNL     1     -16.595  17.641  19.710  0.00  0.00    +0.000 A 
ATOM     30  C   UNL     1     -13.829  17.825  20.019  0.00  0.00    +0.000 A 
ATOM     31  C   UNL     1     -14.363  16.756  19.413  0.00  0.00    +0.000 A 
ATOM     32  C   UNL     1     -15.805  16.655  19.249  0.00  0.00    +0.000 A 
ATOM     33  C   UNL     1     -16.006  18.834  20.386  0.00  0.00    +0.000 A 
ATOM     34  N   UNL     1     -14.627  18.836  20.493  0.00  0.00    +0.000 N 
ATOM     35  O   UNL     1     -16.732  19.731  20.806  0.00  0.00    +0.000 OA
ATOM     36  H   UNL     1     -14.194  19.604  20.931  0.00  0.00    +0.000 HD
BRANCH  32  37
ATOM     37  C   UNL     1     -16.390  15.453  18.567  0.00  0.00    +0.000 C 
ATOM     38  F   UNL     1     -16.332  15.585  17.228  0.00  0.00    +0.000 F 
ATOM     39  F   UNL     1     -15.720  14.334  18.905  0.00  0.00    +0.000 F 
ATOM     40  F   UNL     1     -17.682  15.283  18.913  0.00  0.00    +0.000 F 
ENDBRANCH  32  37
ENDBRANCH  25  31
ENDBRANCH  16  26
ENDBRANCH   9  14
ENDBRANCH   1  10
BRANCH   2  41
ATOM     41  C   UNL     1     -11.509   6.668  12.221  0.00  0.00    +0.000 C 
BRANCH  41  42
ATOM     42  C   UNL     1     -12.629   5.633  12.276  0.00  0.00    +0.000 C 
BRANCH  42  43
ATOM     43  C   UNL     1     -12.129   4.210  11.995  0.00  0.00    +0.000 C 
BRANCH  43  44
ATOM     44  C   UNL     1     -10.884   4.198  11.108  0.00  0.00    +0.000 C 
BRANCH  44  45
ATOM     45  C   UNL     1      -9.643   3.659  11.801  0.00  0.00    +0.000 C 
ATOM     46  N   UNL     1      -9.904   3.315  13.119  0.00  0.00    +0.000 N 
ATOM     47  O   UNL     1      -8.560   3.531  11.236  0.00  0.00    +0.000 OA
ATOM     48  H   UNL     1     -10.812   3.462  13.470  0.00  0.00    +0.000 HD
BRANCH  46  49
ATOM     49  C   UNL     1      -8.909   2.754  14.004  0.00  0.00    +0.000 C 
BRANCH  49  50
ATOM     50  C   UNL     1      -9.381   1.366  14.356  0.00  0.00    +0.000 C 
ATOM     51  C   UNL     1      -7.496  -1.814  14.075  0.00  0.00    +0.000 C 
ATOM     52  C   UNL     1      -7.083   0.510  13.697  0.00  0.00    +0.000 C 
ATOM     53  C   UNL     1      -8.795  -1.057  14.354  0.00  0.00    +0.000 C 
ATOM     54  C   UNL     1      -6.713  -0.868  13.171  0.00  0.00    +0.000 C 
ATOM     55  N   UNL     1      -8.452   0.353  14.182  0.00  0.00    +0.000 N 
ATOM     56  O   UNL     1     -10.529   1.187  14.769  0.00  0.00    +0.000 OA
BRANCH  53  57
ATOM     57  C   UNL     1      -9.221  -1.401  15.765  0.00  0.00    +0.000 C 
ATOM     58  N   UNL     1     -10.181  -2.393  15.836  0.00  0.00    +0.000 N 
ATOM     59  O   UNL     1      -8.713  -0.810  16.711  0.00  0.00    +0.000 OA
ATOM     60  H   UNL     1     -10.508  -2.789  14.997  0.00  0.00    +0.000 HD
BRANCH  58  61
ATOM     61  C   UNL     1     -10.727  -2.876  17.085  0.00  0.00    +0.000 C 
BRANCH  61  67
ATOM     62  C   UNL     1      -8.704  -6.072  17.326  0.00  0.00    +0.000 A 
ATOM     63  C   UNL     1      -8.903  -5.118  19.537  0.00  0.00    +0.000 A 
ATOM     64  C   UNL     1      -9.451  -5.016  16.803  0.00  0.00    +0.000 A 
ATOM     65  C   UNL     1      -9.649  -4.062  19.014  0.00  0.00    +0.000 A 
ATOM     66  C   UNL     1      -8.430  -6.124  18.693  0.00  0.00    +0.000 A 
ATOM     67  C   UNL     1      -9.924  -4.012  17.647  0.00  0.00    +0.000 A 
BRANCH  66  69
ATOM     68  C   UNL     1      -6.862  -9.092  20.516  0.00  0.00    +0.000 A 
ATOM     69  C   UNL     1      -7.658  -7.215  19.233  0.00  0.00    +0.000 A 
ATOM     70  C   UNL     1      -6.417  -7.703  18.879  0.00  0.00    +0.000 A 
ATOM     71  C   UNL     1      -5.549  -7.183  17.802  0.00  0.00    +0.000 C 
ATOM     72  N   UNL     1      -5.960  -8.779  19.614  0.00  0.00    +0.000 NA
ATOM     73  S   UNL     1      -8.287  -8.135  20.538  0.00  0.00    +0.000 S 
ENDBRANCH  66  69
ENDBRANCH  61  67
ENDBRANCH  58  61
ENDBRANCH  53  57
BRANCH  54  74
ATOM     74  O   UNL     1      -7.165  -0.988  11.826  0.00  0.00    +0.000 OA
ATOM     75  H   UNL     1      -8.116  -1.180  11.821  0.00  0.00    +0.000 HD
ENDBRANCH  54  74
ENDBRANCH  49  50
BRANCH  49  79
ATOM     76  C   UNL     1      -9.904   4.225  15.879  0.00  0.00    +0.000 C 
ATOM     77  C   UNL     1      -7.678   4.790  14.883  0.00  0.00    +0.000 C 
ATOM     78  C   UNL     1      -7.917   2.777  16.337  0.00  0.00    +0.000 C 
ATOM     79  C   UNL     1      -8.622   3.629  15.261  0.00  0.00    +0.000 C 
ENDBRANCH  49  79
ENDBRANCH  46  49
ENDBRANCH  44  45
ENDBRANCH  43  44
ENDBRANCH  42  43
ENDBRANCH  41  42
ENDBRANCH   2  41
TORSDOF 19
ENDMDL
