ligand
                    3D
 Structure written by MMmdl.
132138  0  0  1  0            999 V2000
   -2.3702    2.8961   -1.4265 O   0  0  0  0  0  0
   -2.7355    3.2207   -0.2949 C   0  0  0  0  0  0
   -3.2643    4.6072   -0.0217 C   0  0  0  0  0  0
   -2.7510    5.6986   -0.7304 C   0  0  0  0  0  0
   -3.2303    6.9831   -0.4883 C   0  0  0  0  0  0
   -4.2726    4.8240    0.9262 C   0  0  0  0  0  0
   -4.7518    6.1097    1.1608 C   0  0  0  0  0  0
   -4.2369    7.2062    0.4590 C   0  0  0  0  0  0
   -4.7533    8.5831    0.7130 C   0  0  0  0  0  0
   -4.9331    9.4900   -0.3378 C   0  0  0  0  0  0
   -5.4143   10.7902   -0.1135 C   0  0  0  0  0  0
   -5.5812   11.6941   -1.1843 N   0  0  0  0  0  0
   -4.7566   11.8733   -2.2390 C   0  0  0  0  0  0
   -3.6866   11.2781   -2.3894 O   0  0  0  0  0  0
   -5.2036   12.8903   -3.1725 C   0  0  0  0  0  0
   -6.5743   12.9799   -3.7440 C   0  0  0  0  0  0
   -7.6651   11.9181   -3.5176 C   0  0  0  0  0  0
   -8.6041   11.9709   -4.4653 F   0  0  0  0  0  0
   -8.2526   12.1229   -2.3396 F   0  0  0  0  0  0
   -7.1458   10.6900   -3.5440 F   0  0  0  0  0  0
   -6.8301   14.0512   -4.5527 C   0  0  0  0  0  0
   -5.8620   15.0871   -4.9086 C   0  0  0  0  0  0
   -6.1272   16.0501   -5.6243 O   0  0  0  0  0  0
   -4.6233   14.8945   -4.3814 N   0  0  0  0  0  0
   -4.3265   13.8496   -3.5538 C   0  0  0  0  0  0
   -5.0758    9.0034    2.0073 C   0  0  0  0  0  0
   -5.5779   10.2807    2.2429 C   0  0  0  0  0  0
   -5.7669   11.1914    1.1935 C   0  0  0  0  0  0
   -6.2930   12.4582    1.4422 N   0  0  0  0  0  0
   -6.0771   13.1473    2.7270 C   0  0  0  0  0  0
   -6.3483   14.6654    2.5859 C   0  0  0  0  0  0
   -7.7107   12.6725    1.1071 C   0  0  0  0  0  0
   -8.0108   14.1807    0.9322 C   0  0  0  0  0  0
   -7.7422   14.8906    2.1873 N   0  0  0  0  0  0
   -8.0087   16.3166    2.0357 C   0  0  0  0  0  0
   -2.6650    2.3997    0.7707 N   0  0  0  0  0  0
   -2.1516    1.0308    0.7543 C   0  0  0  0  0  0
   -0.6229    0.9435    0.5741 C   0  0  0  0  0  0
   -0.0818   -0.4950    0.7118 C   0  0  0  0  0  0
    1.4313   -0.6489    0.4191 C   0  0  0  0  0  0
    2.3699    0.1773    1.3132 C   0  0  0  0  0  0
    3.3322    0.7599    0.8127 O   0  0  0  0  0  0
    2.0871    0.2220    2.6279 N   0  0  0  0  0  0
    2.8575    0.9513    3.6443 C   0  0  1  0  0  0
    2.0136    1.2303    4.9478 C   0  0  0  0  0  0
    1.5204   -0.0786    5.6206 C   0  0  0  0  0  0
    0.7612    2.0690    4.5797 C   0  0  0  0  0  0
    2.8262    2.0440    5.9895 C   0  0  0  0  0  0
    4.2029    0.2126    3.9012 C   0  0  0  0  0  0
    4.1510   -1.0015    4.1103 O   0  0  0  0  0  0
    5.3725    0.9092    3.8944 N   0  0  0  0  0  0
    6.7118    0.3237    4.1257 C   0  0  1  0  0  0
    7.7315    1.4189    3.7835 C   0  0  0  0  0  0
    6.9299    2.6974    3.9744 C   0  0  1  0  0  0
    7.4658    3.7925    3.2628 O   0  0  0  0  0  0
    5.5219    2.3201    3.5135 C   0  0  0  0  0  0
    6.8437   -0.2190    5.5633 C   0  0  0  0  0  0
    6.8694    0.5692    6.5092 O   0  0  0  0  0  0
    6.9077   -1.5555    5.6812 N   0  0  0  0  0  0
    7.0010   -2.2872    6.9459 C   0  0  0  0  0  0
    5.9055   -1.9816    7.9666 C   0  0  0  0  0  0
    6.2508   -1.5695    9.2556 C   0  0  0  0  0  0
    5.2554   -1.2705   10.1814 C   0  0  0  0  0  0
    3.9093   -1.3786    9.8224 C   0  0  0  0  0  0
    3.5649   -1.7939    8.5339 C   0  0  0  0  0  0
    4.5595   -2.0990    7.6094 C   0  0  0  0  0  0
    2.8385   -1.0398   10.8000 C   0  0  0  0  0  0
    2.8930   -1.6807   12.4225 S   0  0  0  0  0  0
    1.4041   -0.8646   12.7419 C   0  0  0  0  0  0
    0.9169   -0.1794   11.7418 N   0  0  0  0  0  0
    1.6839   -0.2555   10.6683 C   0  0  0  0  0  0
    1.2078    0.5255    9.4623 C   0  0  0  0  0  0
   -1.9728    5.5624   -1.4684 H   0  0  0  0  0  0
   -2.8080    7.8087   -1.0427 H   0  0  0  0  0  0
   -4.6997    4.0015    1.4821 H   0  0  0  0  0  0
   -5.5363    6.2467    1.8905 H   0  0  0  0  0  0
   -4.7063    9.1713   -1.3451 H   0  0  0  0  0  0
   -6.3117   12.3791   -1.0562 H   0  0  0  0  0  0
   -7.8086   14.1575   -4.9984 H   0  0  0  0  0  0
   -3.9251   15.5866   -4.6115 H   0  0  0  0  0  0
   -3.2993   13.9116   -3.2200 H   0  0  0  0  0  0
   -4.9435    8.3356    2.8460 H   0  0  0  0  0  0
   -5.8303   10.5500    3.2579 H   0  0  0  0  0  0
   -5.0469   12.9989    3.0532 H   0  0  0  0  0  0
   -6.7260   12.7162    3.4922 H   0  0  0  0  0  0
   -5.6793   15.0954    1.8372 H   0  0  0  0  0  0
   -6.1466   15.1665    3.5337 H   0  0  0  0  0  0
   -8.3377   12.2475    1.8937 H   0  0  0  0  0  0
   -7.9675   12.1489    0.1863 H   0  0  0  0  0  0
   -9.0523   14.3193    0.6385 H   0  0  0  0  0  0
   -7.3869   14.5945    0.1367 H   0  0  0  0  0  0
   -9.0499   16.4849    1.7576 H   0  0  0  0  0  0
   -7.8313   16.8415    2.9753 H   0  0  0  0  0  0
   -7.3752   16.7663    1.2691 H   0  0  0  0  0  0
   -2.9671    2.7523    1.6671 H   0  0  0  0  0  0
   -2.6605    0.4503   -0.0179 H   0  0  0  0  0  0
   -2.4295    0.5715    1.7038 H   0  0  0  0  0  0
   -0.1398    1.5899    1.3081 H   0  0  0  0  0  0
   -0.3470    1.3377   -0.4049 H   0  0  0  0  0  0
   -0.6264   -1.1427    0.0230 H   0  0  0  0  0  0
   -0.3078   -0.8782    1.7083 H   0  0  0  0  0  0
    1.6190   -0.3901   -0.6244 H   0  0  0  0  0  0
    1.7163   -1.6969    0.5201 H   0  0  0  0  0  0
    1.2877   -0.2874    2.9748 H   0  0  0  0  0  0
    3.0613    1.9210    3.1917 H   0  0  0  0  0  0
    2.3469   -0.6749    6.0059 H   0  0  0  0  0  0
    0.8637    0.1302    6.4658 H   0  0  0  0  0  0
    0.9574   -0.7067    4.9295 H   0  0  0  0  0  0
    1.0346    3.0000    4.0811 H   0  0  0  0  0  0
    0.0882    1.5289    3.9125 H   0  0  0  0  0  0
    0.1807    2.3367    5.4638 H   0  0  0  0  0  0
    3.1721    2.9923    5.5776 H   0  0  0  0  0  0
    2.2265    2.2801    6.8695 H   0  0  0  0  0  0
    3.7022    1.4997    6.3456 H   0  0  0  0  0  0
    6.9031   -0.5118    3.4501 H   0  0  0  0  0  0
    8.0275    1.2910    2.7406 H   0  0  0  0  0  0
    8.6288    1.3711    4.4027 H   0  0  0  0  0  0
    6.8970    2.9458    5.0370 H   0  0  0  0  0  0
    6.9054    4.5575    3.4124 H   0  0  0  0  0  0
    4.7722    2.9715    3.9609 H   0  0  0  0  0  0
    5.4347    2.4005    2.4286 H   0  0  0  0  0  0
    6.9268   -2.1131    4.8393 H   0  0  0  0  0  0
    7.9931   -2.1291    7.3726 H   0  0  0  0  0  0
    6.9487   -3.3504    6.7099 H   0  0  0  0  0  0
    7.2881   -1.4718    9.5405 H   0  0  0  0  0  0
    5.5340   -0.9448   11.1732 H   0  0  0  0  0  0
    2.5275   -1.8827    8.2455 H   0  0  0  0  0  0
    4.2837   -2.4142    6.6135 H   0  0  0  0  0  0
    0.9250   -0.9284   13.7077 H   0  0  0  0  0  0
    1.9633    0.5678    8.6785 H   0  0  0  0  0  0
    0.3149    0.0812    9.0217 H   0  0  0  0  0  0
    0.9652    1.5591    9.7123 H   0  0  0  0  0  0
  1  2  2  0  0  0
  2  3  1  0  0  0
  2 36  1  0  0  0
  3  4  1  0  0  0
  3  6  2  0  0  0
  4  5  2  0  0  0
  4 73  1  0  0  0
  5  8  1  0  0  0
  5 74  1  0  0  0
  6  7  1  0  0  0
  6 75  1  0  0  0
  7  8  2  0  0  0
  7 76  1  0  0  0
  8  9  1  0  0  0
  9 10  1  0  0  0
  9 26  2  0  0  0
 10 11  2  0  0  0
 10 77  1  0  0  0
 11 12  1  0  0  0
 11 28  1  0  0  0
 12 13  1  0  0  0
 12 78  1  0  0  0
 13 14  2  0  0  0
 13 15  1  0  0  0
 15 16  1  0  0  0
 15 25  2  0  0  0
 16 17  1  0  0  0
 16 21  2  0  0  0
 17 18  1  0  0  0
 17 19  1  0  0  0
 17 20  1  0  0  0
 21 22  1  0  0  0
 21 79  1  0  0  0
 22 23  2  0  0  0
 22 24  1  0  0  0
 24 25  1  0  0  0
 24 80  1  0  0  0
 25 81  1  0  0  0
 26 27  1  0  0  0
 26 82  1  0  0  0
 27 28  2  0  0  0
 27 83  1  0  0  0
 28 29  1  0  0  0
 29 30  1  0  0  0
 29 32  1  0  0  0
 30 31  1  0  0  0
 30 84  1  0  0  0
 30 85  1  0  0  0
 31 34  1  0  0  0
 31 86  1  0  0  0
 31 87  1  0  0  0
 32 33  1  0  0  0
 32 88  1  0  0  0
 32 89  1  0  0  0
 33 34  1  0  0  0
 33 90  1  0  0  0
 33 91  1  0  0  0
 34 35  1  0  0  0
 35 92  1  0  0  0
 35 93  1  0  0  0
 35 94  1  0  0  0
 36 37  1  0  0  0
 36 95  1  0  0  0
 37 38  1  0  0  0
 37 96  1  0  0  0
 37 97  1  0  0  0
 38 39  1  0  0  0
 38 98  1  0  0  0
 38 99  1  0  0  0
 39 40  1  0  0  0
 39100  1  0  0  0
 39101  1  0  0  0
 40 41  1  0  0  0
 40102  1  0  0  0
 40103  1  0  0  0
 41 42  2  0  0  0
 41 43  1  0  0  0
 43 44  1  0  0  0
 43104  1  0  0  0
 44 45  1  0  0  0
 44 49  1  0  0  0
 44105  1  0  0  0
 45 46  1  0  0  0
 45 47  1  0  0  0
 45 48  1  0  0  0
 46106  1  0  0  0
 46107  1  0  0  0
 46108  1  0  0  0
 47109  1  0  0  0
 47110  1  0  0  0
 47111  1  0  0  0
 48112  1  0  0  0
 48113  1  0  0  0
 48114  1  0  0  0
 49 50  2  0  0  0
 49 51  1  0  0  0
 51 52  1  0  0  0
 51 56  1  0  0  0
 52 53  1  0  0  0
 52 57  1  0  0  0
 52115  1  0  0  0
 53 54  1  0  0  0
 53116  1  0  0  0
 53117  1  0  0  0
 54 55  1  0  0  0
 54 56  1  0  0  0
 54118  1  0  0  0
 55119  1  0  0  0
 56120  1  0  0  0
 56121  1  0  0  0
 57 58  2  0  0  0
 57 59  1  0  0  0
 59 60  1  0  0  0
 59122  1  0  0  0
 60 61  1  0  0  0
 60123  1  0  0  0
 60124  1  0  0  0
 61 62  1  0  0  0
 61 66  2  0  0  0
 62 63  2  0  0  0
 62125  1  0  0  0
 63 64  1  0  0  0
 63126  1  0  0  0
 64 65  2  0  0  0
 64 67  1  0  0  0
 65 66  1  0  0  0
 65127  1  0  0  0
 66128  1  0  0  0
 67 68  1  0  0  0
 67 71  2  0  0  0
 68 69  1  0  0  0
 69 70  2  0  0  0
 69129  1  0  0  0
 70 71  1  0  0  0
 71 72  1  0  0  0
 72130  1  0  0  0
 72131  1  0  0  0
 72132  1  0  0  0
M  END
> <s_m_entry_id>
16

> <s_m_entry_name>
7q2j.1_mol5

> <s_m_source_file>
ligprep_1.maegz

> <i_m_source_file_index>
1

> <i_lp_mmshare_version>
38013

> <i_f3d_flags>
0

> <s_lp_Force_Field>
OPLS3

> <r_lp_Energy>
107.370534674413

> <b_lp_Chiralities_Consistent>
1

> <s_lp_Variant>
ligand-1

> <s_m_job_name>
ligprep_1

> <s_m_subgroup_title>
ligprep_1-out1

> <s_m_subgroupid>
ligprep_1-out1

> <b_m_subgroup_collapsed>
0

$$$$
