REMARK  Name = ligand
REMARK  24 active torsions:
REMARK  status: ('A' for Active; 'I' for Inactive)
REMARK    1  A    between atoms: C_2  and  C_3
REMARK    2  A    between atoms: C_8  and  C_9
REMARK    3  A    between atoms: C_11  and  N_12
REMARK    4  A    between atoms: C_13  and  C_15
REMARK    5  A    between atoms: C_16  and  C_17
REMARK    6  A    between atoms: C_28  and  N_29
REMARK    7  A    between atoms: N_34  and  C_35
REMARK    8  A    between atoms: N_36  and  C_37
REMARK    9  A    between atoms: C_37  and  C_38
REMARK   10  A    between atoms: C_38  and  C_39
REMARK   11  A    between atoms: C_39  and  C_40
REMARK   12  A    between atoms: C_40  and  C_41
REMARK   13  A    between atoms: N_43  and  C_44
REMARK   14  A    between atoms: C_44  and  C_45
REMARK   15  A    between atoms: C_44  and  C_49
REMARK   16  A    between atoms: C_45  and  C_46
REMARK   17  A    between atoms: C_45  and  C_47
REMARK   18  A    between atoms: C_45  and  C_48
REMARK   19  A    between atoms: C_52  and  C_57
REMARK   20  A    between atoms: C_54  and  O_55
REMARK   21  A    between atoms: N_59  and  C_60
REMARK   22  A    between atoms: C_60  and  C_61
REMARK   23  A    between atoms: C_64  and  C_67
REMARK   24  A    between atoms: C_71  and  C_72
REMARK                            x       y       z     vdW  Elec       q    Type
REMARK                         _______ _______ _______ _____ _____    ______ ____
ROOT
ATOM      1  O   UNL     1      -2.370   2.896  -1.427  0.00  0.00    +0.000 OA
ATOM      2  C   UNL     1      -2.736   3.221  -0.295  0.00  0.00    +0.000 C 
ATOM      3  N   UNL     1      -2.665   2.400   0.771  0.00  0.00    +0.000 N 
ATOM      4  H   UNL     1      -2.967   2.752   1.667  0.00  0.00    +0.000 HD
ENDROOT
BRANCH   2   5
ATOM      5  C   UNL     1      -3.264   4.607  -0.022  0.00  0.00    +0.000 A 
ATOM      6  C   UNL     1      -2.751   5.699  -0.730  0.00  0.00    +0.000 A 
ATOM      7  C   UNL     1      -3.230   6.983  -0.488  0.00  0.00    +0.000 A 
ATOM      8  C   UNL     1      -4.273   4.824   0.926  0.00  0.00    +0.000 A 
ATOM      9  C   UNL     1      -4.752   6.110   1.161  0.00  0.00    +0.000 A 
ATOM     10  C   UNL     1      -4.237   7.206   0.459  0.00  0.00    +0.000 A 
BRANCH  10  11
ATOM     11  C   UNL     1      -4.753   8.583   0.713  0.00  0.00    +0.000 A 
ATOM     12  C   UNL     1      -4.933   9.490  -0.338  0.00  0.00    +0.000 A 
ATOM     13  C   UNL     1      -5.414  10.790  -0.114  0.00  0.00    +0.000 A 
ATOM     14  C   UNL     1      -5.076   9.003   2.007  0.00  0.00    +0.000 A 
ATOM     15  C   UNL     1      -5.578  10.281   2.243  0.00  0.00    +0.000 A 
ATOM     16  C   UNL     1      -5.767  11.191   1.194  0.00  0.00    +0.000 A 
BRANCH  16  17
ATOM     17  N   UNL     1      -6.293  12.458   1.442  0.00  0.00    +0.000 N 
ATOM     18  C   UNL     1      -6.077  13.147   2.727  0.00  0.00    +0.000 C 
ATOM     19  C   UNL     1      -6.348  14.665   2.586  0.00  0.00    +0.000 C 
ATOM     20  C   UNL     1      -7.711  12.672   1.107  0.00  0.00    +0.000 C 
ATOM     21  C   UNL     1      -8.011  14.181   0.932  0.00  0.00    +0.000 C 
ATOM     22  N   UNL     1      -7.742  14.891   2.187  0.00  0.00    +0.000 NA
ATOM     23  C   UNL     1      -8.009  16.317   2.036  0.00  0.00    +0.000 C 
ENDBRANCH  16  17
BRANCH  13  24
ATOM     24  N   UNL     1      -5.581  11.694  -1.184  0.00  0.00    +0.000 N 
ATOM     25  C   UNL     1      -4.757  11.873  -2.239  0.00  0.00    +0.000 C 
ATOM     26  O   UNL     1      -3.687  11.278  -2.389  0.00  0.00    +0.000 OA
ATOM     27  H   UNL     1      -6.312  12.379  -1.056  0.00  0.00    +0.000 HD
BRANCH  25  28
ATOM     28  C   UNL     1      -5.204  12.890  -3.172  0.00  0.00    +0.000 A 
ATOM     29  C   UNL     1      -6.574  12.980  -3.744  0.00  0.00    +0.000 A 
ATOM     30  C   UNL     1      -6.830  14.051  -4.553  0.00  0.00    +0.000 A 
ATOM     31  C   UNL     1      -5.862  15.087  -4.909  0.00  0.00    +0.000 A 
ATOM     32  O   UNL     1      -6.127  16.050  -5.624  0.00  0.00    +0.000 OA
ATOM     33  N   UNL     1      -4.623  14.895  -4.381  0.00  0.00    +0.000 N 
ATOM     34  C   UNL     1      -4.327  13.850  -3.554  0.00  0.00    +0.000 A 
ATOM     35  H   UNL     1      -3.925  15.587  -4.612  0.00  0.00    +0.000 HD
BRANCH  29  36
ATOM     36  C   UNL     1      -7.665  11.918  -3.518  0.00  0.00    +0.000 C 
ATOM     37  F   UNL     1      -8.604  11.971  -4.465  0.00  0.00    +0.000 F 
ATOM     38  F   UNL     1      -8.253  12.123  -2.340  0.00  0.00    +0.000 F 
ATOM     39  F   UNL     1      -7.146  10.690  -3.544  0.00  0.00    +0.000 F 
ENDBRANCH  29  36
ENDBRANCH  25  28
ENDBRANCH  13  24
ENDBRANCH  10  11
ENDBRANCH   2   5
BRANCH   3  40
ATOM     40  C   UNL     1      -2.152   1.031   0.754  0.00  0.00    +0.000 C 
BRANCH  40  41
ATOM     41  C   UNL     1      -0.623   0.944   0.574  0.00  0.00    +0.000 C 
BRANCH  41  42
ATOM     42  C   UNL     1      -0.082  -0.495   0.712  0.00  0.00    +0.000 C 
BRANCH  42  43
ATOM     43  C   UNL     1       1.431  -0.649   0.419  0.00  0.00    +0.000 C 
BRANCH  43  44
ATOM     44  C   UNL     1       2.370   0.177   1.313  0.00  0.00    +0.000 C 
ATOM     45  O   UNL     1       3.332   0.760   0.813  0.00  0.00    +0.000 OA
ATOM     46  N   UNL     1       2.087   0.222   2.628  0.00  0.00    +0.000 N 
ATOM     47  H   UNL     1       1.288  -0.287   2.975  0.00  0.00    +0.000 HD
BRANCH  46  48
ATOM     48  C   UNL     1       2.857   0.951   3.644  0.00  0.00    +0.000 C 
BRANCH  48  49
ATOM     49  C   UNL     1       4.203   0.213   3.901  0.00  0.00    +0.000 C 
ATOM     50  O   UNL     1       4.151  -1.002   4.110  0.00  0.00    +0.000 OA
ATOM     51  N   UNL     1       5.372   0.909   3.894  0.00  0.00    +0.000 N 
ATOM     52  C   UNL     1       6.712   0.324   4.126  0.00  0.00    +0.000 C 
ATOM     53  C   UNL     1       7.731   1.419   3.784  0.00  0.00    +0.000 C 
ATOM     54  C   UNL     1       6.930   2.697   3.974  0.00  0.00    +0.000 C 
ATOM     55  C   UNL     1       5.522   2.320   3.514  0.00  0.00    +0.000 C 
BRANCH  52  56
ATOM     56  C   UNL     1       6.844  -0.219   5.563  0.00  0.00    +0.000 C 
ATOM     57  O   UNL     1       6.869   0.569   6.509  0.00  0.00    +0.000 OA
ATOM     58  N   UNL     1       6.908  -1.556   5.681  0.00  0.00    +0.000 N 
ATOM     59  H   UNL     1       6.927  -2.113   4.839  0.00  0.00    +0.000 HD
BRANCH  58  60
ATOM     60  C   UNL     1       7.001  -2.287   6.946  0.00  0.00    +0.000 C 
BRANCH  60  61
ATOM     61  C   UNL     1       5.905  -1.982   7.967  0.00  0.00    +0.000 A 
ATOM     62  C   UNL     1       6.251  -1.569   9.256  0.00  0.00    +0.000 A 
ATOM     63  C   UNL     1       5.255  -1.270  10.181  0.00  0.00    +0.000 A 
ATOM     64  C   UNL     1       3.909  -1.379   9.822  0.00  0.00    +0.000 A 
ATOM     65  C   UNL     1       3.565  -1.794   8.534  0.00  0.00    +0.000 A 
ATOM     66  C   UNL     1       4.559  -2.099   7.609  0.00  0.00    +0.000 A 
BRANCH  64  67
ATOM     67  C   UNL     1       2.838  -1.040  10.800  0.00  0.00    +0.000 A 
ATOM     68  S   UNL     1       2.893  -1.681  12.422  0.00  0.00    +0.000 S 
ATOM     69  C   UNL     1       1.404  -0.865  12.742  0.00  0.00    +0.000 A 
ATOM     70  N   UNL     1       0.917  -0.179  11.742  0.00  0.00    +0.000 NA
ATOM     71  C   UNL     1       1.684  -0.256  10.668  0.00  0.00    +0.000 A 
ATOM     72  C   UNL     1       1.208   0.525   9.462  0.00  0.00    +0.000 C 
ENDBRANCH  64  67
ENDBRANCH  60  61
ENDBRANCH  58  60
ENDBRANCH  52  56
BRANCH  54  73
ATOM     73  O   UNL     1       7.466   3.792   3.263  0.00  0.00    +0.000 OA
ATOM     74  H   UNL     1       6.905   4.558   3.412  0.00  0.00    +0.000 HD
ENDBRANCH  54  73
ENDBRANCH  48  49
BRANCH  48  75
ATOM     75  C   UNL     1       2.014   1.230   4.948  0.00  0.00    +0.000 C 
ATOM     76  C   UNL     1       1.520  -0.079   5.621  0.00  0.00    +0.000 C 
ATOM     77  C   UNL     1       0.761   2.069   4.580  0.00  0.00    +0.000 C 
ATOM     78  C   UNL     1       2.826   2.044   5.989  0.00  0.00    +0.000 C 
ENDBRANCH  48  75
ENDBRANCH  46  48
ENDBRANCH  43  44
ENDBRANCH  42  43
ENDBRANCH  41  42
ENDBRANCH  40  41
ENDBRANCH   3  40
TORSDOF 19
