ligand
                    3D
 Structure written by MMmdl.
 78 84  0  0  1  0            999 V2000
  -16.5080   15.5370   20.0710 O   0  0  0  0  0  0
  -16.2380   15.6020   18.8700 C   0  0  0  0  0  0
  -16.5290   16.6690   18.1010 N   0  0  0  0  0  0
  -16.2550   16.6490   17.1300 H   0  0  0  0  0  0
  -15.5110   14.4750   18.1790 C   0  0  0  0  0  0
  -14.2600   14.0630   18.6490 C   0  0  0  0  0  0
  -13.5790   13.0230   18.0220 C   0  0  0  0  0  0
  -16.0730   13.8200   17.0750 C   0  0  0  0  0  0
  -15.3900   12.7780   16.4540 C   0  0  0  0  0  0
  -14.1350   12.3670   16.9170 C   0  0  0  0  0  0
  -13.4060   11.2490   16.2490 C   0  0  0  0  0  0
  -12.0080   11.1840   16.2740 C   0  0  0  0  0  0
  -11.3080   10.1410   15.6460 C   0  0  0  0  0  0
  -14.1000   10.2330   15.5850 C   0  0  0  0  0  0
  -13.4220    9.1770   14.9790 C   0  0  0  0  0  0
  -12.0220    9.1030   15.0070 C   0  0  0  0  0  0
  -11.3580    8.0290   14.4170 N   0  0  0  0  0  0
  -11.1020    7.9800   12.9670 C   0  0  0  0  0  0
   -9.9840    6.9580   12.6430 C   0  0  0  0  0  0
  -11.8090    6.6770   14.7890 C   0  0  0  0  0  0
  -10.7030    5.6320   14.5030 C   0  0  0  0  0  0
  -10.3930    5.6150   13.0690 N   0  0  0  0  0  0
   -9.3440    4.6430   12.7840 C   0  0  0  0  0  0
   -9.8980   10.0970   15.6740 N   0  0  0  0  0  0
   -9.0460   10.6260   14.7690 C   0  0  0  0  0  0
   -9.4030   11.2030   13.7390 O   0  0  0  0  0  0
   -9.5030    9.4690   16.3590 H   0  0  0  0  0  0
   -7.6460   10.4040   15.0760 C   0  0  0  0  0  0
   -6.8200   11.2640   15.9650 C   0  0  0  0  0  0
   -5.5360   10.8550   16.1910 C   0  0  0  0  0  0
   -4.9190    9.6620   15.6140 C   0  0  0  0  0  0
   -3.7670    9.3080   15.8520 O   0  0  0  0  0  0
   -5.7330    8.9660   14.7750 N   0  0  0  0  0  0
   -7.0270    9.3270   14.5340 C   0  0  0  0  0  0
   -5.3380    8.1390   14.3510 H   0  0  0  0  0  0
   -7.3170   12.5870   16.5740 C   0  0  0  0  0  0
   -8.6400   12.5810   16.7470 F   0  0  0  0  0  0
   -7.0110   13.5980   15.7610 F   0  0  0  0  0  0
   -6.7620   12.7990   17.7680 F   0  0  0  0  0  0
  -17.1920   17.8890   18.5600 C   0  0  0  0  0  0
  -16.2140   19.0210   18.9370 C   0  0  0  0  0  0
  -15.2790   18.6440   20.1050 C   0  0  0  0  0  0
  -13.8430   18.2450   19.6820 C   0  0  0  0  0  0
  -13.2230   17.0690   20.4540 C   0  0  0  0  0  0
  -13.7730   16.6510   21.4740 O   0  0  0  0  0  0
  -12.0850   16.5430   19.9660 N   0  0  0  0  0  0
  -11.6810   16.9380   19.1300 H   0  0  0  0  0  0
  -11.3400   15.4220   20.5540 C   0  0  2  0  0  0
  -10.5210   15.9300   21.7760 C   0  0  0  0  0  0
   -9.6150   16.7370   21.5540 O   0  0  0  0  0  0
  -10.8150   15.4780   23.0260 N   0  0  0  0  0  0
  -10.1110   15.8820   24.2640 C   0  0  1  0  0  0
  -10.9290   15.3200   25.4340 C   0  0  0  0  0  0
  -11.6670   14.1530   24.8000 C   0  0  2  0  0  0
  -11.9630   14.6330   23.3790 C   0  0  0  0  0  0
   -8.6430   15.4120   24.2510 C   0  0  0  0  0  0
   -7.7380   16.2460   24.2890 O   0  0  0  0  0  0
   -8.4530   14.0820   24.2150 N   0  0  0  0  0  0
   -9.2620   13.4830   24.1380 H   0  0  0  0  0  0
   -7.1500   13.4150   24.2300 C   0  0  0  0  0  0
   -6.9310   12.3690   23.1380 C   0  0  0  0  0  0
   -6.7410   11.0290   23.4860 C   0  0  0  0  0  0
   -6.5620   10.0710   22.4920 C   0  0  0  0  0  0
   -6.5750   10.4460   21.1460 C   0  0  0  0  0  0
   -6.7630   11.7860   20.8000 C   0  0  0  0  0  0
   -6.9360   12.7460   21.7920 C   0  0  0  0  0  0
   -6.4060    9.4230   20.0770 C   0  0  0  0  0  0
   -4.9180    8.5210   19.9510 S   0  0  0  0  0  0
   -5.5800    7.7180   18.5710 C   0  0  0  0  0  0
   -6.7900    8.0830   18.2400 N   0  0  0  0  0  0
   -7.2660    9.0130   19.0500 C   0  0  0  0  0  0
   -8.6740    9.4850   18.7550 C   0  0  0  0  0  0
  -12.8310   13.7880   25.5100 O   0  0  0  0  0  0
  -13.2600   13.0650   25.0440 H   0  0  0  0  0  0
  -10.4840   14.6440   19.4810 C   0  0  0  0  0  0
   -8.9580   14.8290   19.6990 C   0  0  0  0  0  0
  -10.8230   15.1820   18.0650 C   0  0  0  0  0  0
  -10.8030   13.1260   19.4880 C   0  0  0  0  0  0
  1  2  2  0  0  0
  2  3  1  0  0  0
  2  5  1  0  0  0
  3 40  1  0  0  0
  3  4  1  0  0  0
  5  6  1  0  0  0
  5  8  2  0  0  0
  6  7  2  0  0  0
  7 10  1  0  0  0
  8  9  1  0  0  0
  9 10  2  0  0  0
 10 11  1  0  0  0
 11 12  1  0  0  0
 11 14  2  0  0  0
 12 13  2  0  0  0
 13 24  1  0  0  0
 13 16  1  0  0  0
 14 15  1  0  0  0
 15 16  2  0  0  0
 16 17  1  0  0  0
 17 20  1  0  0  0
 17 18  1  0  0  0
 18 19  1  0  0  0
 19 22  1  0  0  0
 20 21  1  0  0  0
 21 22  1  0  0  0
 22 23  1  0  0  0
 24 27  1  0  0  0
 24 25  1  0  0  0
 25 28  1  0  0  0
 25 26  2  0  0  0
 28 29  1  0  0  0
 28 34  2  0  0  0
 29 30  2  0  0  0
 29 36  1  0  0  0
 30 31  1  0  0  0
 31 32  2  0  0  0
 31 33  1  0  0  0
 33 34  1  0  0  0
 33 35  1  0  0  0
 36 37  1  0  0  0
 36 39  1  0  0  0
 36 38  1  0  0  0
 40 41  1  0  0  0
 41 42  1  0  0  0
 42 43  1  0  0  0
 43 44  1  0  0  0
 44 45  2  0  0  0
 44 46  1  0  0  0
 46 48  1  0  0  0
 46 47  1  0  0  0
 48 49  1  0  0  0
 48 75  1  0  0  0
 49 51  1  0  0  0
 49 50  2  0  0  0
 51 55  1  0  0  0
 51 52  1  0  0  0
 52 56  1  0  0  0
 52 53  1  0  0  0
 53 54  1  0  0  0
 54 73  1  0  0  0
 54 55  1  0  0  0
 56 57  2  0  0  0
 56 58  1  0  0  0
 58 60  1  0  0  0
 58 59  1  0  0  0
 60 61  1  0  0  0
 61 62  1  0  0  0
 61 66  2  0  0  0
 62 63  2  0  0  0
 63 64  1  0  0  0
 64 65  2  0  0  0
 64 67  1  0  0  0
 65 66  1  0  0  0
 67 68  1  0  0  0
 67 71  2  0  0  0
 68 69  1  0  0  0
 69 70  2  0  0  0
 70 71  1  0  0  0
 71 72  1  0  0  0
 73 74  1  0  0  0
 75 78  1  0  0  0
 75 76  1  0  0  0
 75 77  1  0  0  0
M  END
> <MODEL>
1

> <REMARK>
 VINA RESULT:    -9.820      0.000      0.000
 INTER + INTRA:         -27.762
 INTER:                 -21.511
 INTRA:                  -6.250
 UNBOUND:                -7.322
  Name = ligand
  24 active torsions:
  status: ('A' for Active; 'I' for Inactive)
    1  A    between atoms: C_2  and  C_3
    2  A    between atoms: C_8  and  C_9
    3  A    between atoms: C_11  and  N_12
    4  A    between atoms: C_13  and  C_15
    5  A    between atoms: C_16  and  C_17
    6  A    between atoms: C_28  and  N_29
    7  A    between atoms: N_34  and  C_35
    8  A    between atoms: N_36  and  C_37
    9  A    between atoms: C_37  and  C_38
   10  A    between atoms: C_38  and  C_39
   11  A    between atoms: C_39  and  C_40
   12  A    between atoms: C_40  and  C_41
   13  A    between atoms: N_43  and  C_44
   14  A    between atoms: C_44  and  C_45
   15  A    between atoms: C_44  and  C_49
   16  A    between atoms: C_45  and  C_46
   17  A    between atoms: C_45  and  C_47
   18  A    between atoms: C_45  and  C_48
   19  A    between atoms: C_52  and  C_57
   20  A    between atoms: C_54  and  O_55
   21  A    between atoms: N_59  and  C_60
   22  A    between atoms: C_60  and  C_61
   23  A    between atoms: C_64  and  C_67
   24  A    between atoms: C_71  and  C_72
                            x       y       z     vdW  Elec       q    Type
                         _______ _______ _______ _____ _____    ______ ____

> <TORSDO>
F 19

> <chiral flag>
1

> <version>
0

$$$$
ligand
                    3D
 Structure written by MMmdl.
 78 84  0  0  1  0            999 V2000
  -11.5700    7.3920   13.2150 O   0  0  0  0  0  0
  -11.7720    7.3940   14.4320 C   0  0  0  0  0  0
  -11.4970    6.3430   15.2300 N   0  0  0  0  0  0
  -11.6730    6.4350   16.2190 H   0  0  0  0  0  0
  -12.3170    8.6180   15.1230 C   0  0  0  0  0  0
  -11.7500    9.0470   16.3290 C   0  0  0  0  0  0
  -12.2430   10.1750   16.9760 C   0  0  0  0  0  0
  -13.3800    9.3470   14.5740 C   0  0  0  0  0  0
  -13.8660   10.4790   15.2230 C   0  0  0  0  0  0
  -13.3060   10.9070   16.4330 C   0  0  0  0  0  0
  -13.8300   12.1200   17.1260 C   0  0  0  0  0  0
  -13.1080   12.7270   18.1600 C   0  0  0  0  0  0
  -13.5890   13.8660   18.8250 C   0  0  0  0  0  0
  -15.0540   12.6880   16.7580 C   0  0  0  0  0  0
  -15.5340   13.8330   17.3900 C   0  0  0  0  0  0
  -14.8120   14.4480   18.4210 C   0  0  0  0  0  0
  -15.2930   15.6080   19.0280 N   0  0  0  0  0  0
  -16.7280   15.9440   19.0240 C   0  0  0  0  0  0
  -17.0470   16.9890   20.1210 C   0  0  0  0  0  0
  -14.5870   16.8640   18.7250 C   0  0  0  0  0  0
  -14.8640   17.9250   19.8190 C   0  0  0  0  0  0
  -16.2980   18.2260   19.8690 N   0  0  0  0  0  0
  -16.5780   19.2160   20.9030 C   0  0  0  0  0  0
  -12.8520   14.4600   19.8710 N   0  0  0  0  0  0
  -12.2250   13.8300   20.8880 C   0  0  0  0  0  0
  -12.2530   12.6100   21.0680 O   0  0  0  0  0  0
  -12.9410   15.4630   19.9420 H   0  0  0  0  0  0
  -11.5560   14.7240   21.8140 C   0  0  0  0  0  0
  -10.4830   15.6870   21.4450 C   0  0  0  0  0  0
  -10.0210   16.4990   22.4410 C   0  0  0  0  0  0
  -10.4810   16.4740   23.8290 C   0  0  0  0  0  0
  -10.0600   17.2310   24.7000 O   0  0  0  0  0  0
  -11.4260   15.5290   24.0840 N   0  0  0  0  0  0
  -11.9300   14.7090   23.1160 C   0  0  0  0  0  0
  -11.7630   15.4770   25.0340 H   0  0  0  0  0  0
   -9.8500   15.7640   20.0440 C   0  0  0  0  0  0
   -9.6620   14.5490   19.5240 F   0  0  0  0  0  0
   -8.6660   16.3700   20.1200 F   0  0  0  0  0  0
  -10.6360   16.4360   19.2030 F   0  0  0  0  0  0
  -10.9280    5.0700   14.7900 C   0  0  0  0  0  0
   -9.9670    4.4330   15.8140 C   0  0  0  0  0  0
   -8.5490    5.0390   15.7650 C   0  0  0  0  0  0
   -8.1200    5.7890   17.0510 C   0  0  0  0  0  0
   -8.4720    7.2840   17.1000 C   0  0  0  0  0  0
   -8.7230    7.8860   16.0560 O   0  0  0  0  0  0
   -8.4880    7.8740   18.3090 N   0  0  0  0  0  0
   -8.2630    7.3260   19.1250 H   0  0  0  0  0  0
   -8.7980    9.2860   18.5680 C   0  0  2  0  0  0
   -7.5400   10.1540   18.2750 C   0  0  0  0  0  0
   -6.4720    9.7890   18.7750 O   0  0  0  0  0  0
   -7.6470   11.2670   17.4990 N   0  0  0  0  0  0
   -6.5280   12.1720   17.1510 C   0  0  1  0  0  0
   -7.0610   13.1310   16.0780 C   0  0  0  0  0  0
   -8.5610   13.1160   16.3260 C   0  0  2  0  0  0
   -8.8480   11.6790   16.7600 C   0  0  0  0  0  0
   -5.9770   12.8860   18.4010 C   0  0  0  0  0  0
   -4.7990   13.2440   18.4250 O   0  0  0  0  0  0
   -6.8560   13.0860   19.3980 N   0  0  0  0  0  0
   -7.7880   12.7120   19.2990 H   0  0  0  0  0  0
   -6.5600   13.7700   20.6580 C   0  0  0  0  0  0
   -6.9720   13.0250   21.9270 C   0  0  0  0  0  0
   -7.9620   13.5580   22.7560 C   0  0  0  0  0  0
   -8.3550   12.8710   23.9010 C   0  0  0  0  0  0
   -7.7630   11.6460   24.2210 C   0  0  0  0  0  0
   -6.7720   11.1160   23.3930 C   0  0  0  0  0  0
   -6.3740   11.8040   22.2510 C   0  0  0  0  0  0
   -8.1930   10.8950   25.4330 C   0  0  0  0  0  0
   -8.0940   11.6370   27.0100 S   0  0  0  0  0  0
   -8.7000   10.1670   27.6850 C   0  0  0  0  0  0
   -8.9560    9.2200   26.8220 N   0  0  0  0  0  0
   -8.6900    9.5930   25.5830 C   0  0  0  0  0  0
   -8.9740    8.5640   24.5100 C   0  0  0  0  0  0
   -9.3090   13.5090   15.1960 O   0  0  0  0  0  0
  -10.0670   12.9240   15.1120 H   0  0  0  0  0  0
   -9.4180    9.5110   20.0010 C   0  0  0  0  0  0
   -9.4770   11.0130   20.3880 C   0  0  0  0  0  0
   -8.5420    8.7880   21.0590 C   0  0  0  0  0  0
  -10.8480    8.9180   20.1030 C   0  0  0  0  0  0
  1  2  2  0  0  0
  2  5  1  0  0  0
  2  3  1  0  0  0
  3  4  1  0  0  0
  3 40  1  0  0  0
  5  6  1  0  0  0
  5  8  2  0  0  0
  6  7  2  0  0  0
  7 10  1  0  0  0
  8  9  1  0  0  0
  9 10  2  0  0  0
 10 11  1  0  0  0
 11 12  1  0  0  0
 11 14  2  0  0  0
 12 13  2  0  0  0
 13 24  1  0  0  0
 13 16  1  0  0  0
 14 15  1  0  0  0
 15 16  2  0  0  0
 16 17  1  0  0  0
 17 18  1  0  0  0
 17 20  1  0  0  0
 18 19  1  0  0  0
 19 22  1  0  0  0
 20 21  1  0  0  0
 21 22  1  0  0  0
 22 23  1  0  0  0
 24 27  1  0  0  0
 24 25  1  0  0  0
 25 26  2  0  0  0
 25 28  1  0  0  0
 28 34  2  0  0  0
 28 29  1  0  0  0
 29 30  2  0  0  0
 29 36  1  0  0  0
 30 31  1  0  0  0
 31 33  1  0  0  0
 31 32  2  0  0  0
 33 35  1  0  0  0
 33 34  1  0  0  0
 36 38  1  0  0  0
 36 37  1  0  0  0
 36 39  1  0  0  0
 40 41  1  0  0  0
 41 42  1  0  0  0
 42 43  1  0  0  0
 43 44  1  0  0  0
 44 46  1  0  0  0
 44 45  2  0  0  0
 46 48  1  0  0  0
 46 47  1  0  0  0
 48 49  1  0  0  0
 48 75  1  0  0  0
 49 50  2  0  0  0
 49 51  1  0  0  0
 51 52  1  0  0  0
 51 55  1  0  0  0
 52 56  1  0  0  0
 52 53  1  0  0  0
 53 54  1  0  0  0
 54 73  1  0  0  0
 54 55  1  0  0  0
 56 57  2  0  0  0
 56 58  1  0  0  0
 58 60  1  0  0  0
 58 59  1  0  0  0
 60 61  1  0  0  0
 61 66  2  0  0  0
 61 62  1  0  0  0
 62 63  2  0  0  0
 63 64  1  0  0  0
 64 67  1  0  0  0
 64 65  2  0  0  0
 65 66  1  0  0  0
 67 71  2  0  0  0
 67 68  1  0  0  0
 68 69  1  0  0  0
 69 70  2  0  0  0
 70 71  1  0  0  0
 71 72  1  0  0  0
 73 74  1  0  0  0
 75 78  1  0  0  0
 75 76  1  0  0  0
 75 77  1  0  0  0
M  END
> <MODEL>
2

> <REMARK>
 VINA RESULT:    -9.613      2.580      8.908
 INTER + INTRA:         -27.332
 INTER:                 -20.010
 INTRA:                  -7.322
 UNBOUND:                -7.322
  Name = ligand
  24 active torsions:
  status: ('A' for Active; 'I' for Inactive)
    1  A    between atoms: C_2  and  C_3
    2  A    between atoms: C_8  and  C_9
    3  A    between atoms: C_11  and  N_12
    4  A    between atoms: C_13  and  C_15
    5  A    between atoms: C_16  and  C_17
    6  A    between atoms: C_28  and  N_29
    7  A    between atoms: N_34  and  C_35
    8  A    between atoms: N_36  and  C_37
    9  A    between atoms: C_37  and  C_38
   10  A    between atoms: C_38  and  C_39
   11  A    between atoms: C_39  and  C_40
   12  A    between atoms: C_40  and  C_41
   13  A    between atoms: N_43  and  C_44
   14  A    between atoms: C_44  and  C_45
   15  A    between atoms: C_44  and  C_49
   16  A    between atoms: C_45  and  C_46
   17  A    between atoms: C_45  and  C_47
   18  A    between atoms: C_45  and  C_48
   19  A    between atoms: C_52  and  C_57
   20  A    between atoms: C_54  and  O_55
   21  A    between atoms: N_59  and  C_60
   22  A    between atoms: C_60  and  C_61
   23  A    between atoms: C_64  and  C_67
   24  A    between atoms: C_71  and  C_72
                            x       y       z     vdW  Elec       q    Type
                         _______ _______ _______ _____ _____    ______ ____

> <TORSDO>
F 19

> <chiral flag>
1

> <version>
0

$$$$
