ligand
                    3D
 Structure written by MMmdl.
132138  0  0  1  0            999 V2000
  -13.5653    8.6133   13.6304 O   0  0  0  0  0  0
  -12.7058    8.4422   14.4926 C   0  0  0  0  0  0
  -12.5680    9.4136   15.6536 C   0  0  0  0  0  0
  -13.3905   10.5433   15.7131 C   0  0  0  0  0  0
  -13.2808   11.4438   16.7731 C   0  0  0  0  0  0
  -11.6329    9.1898   16.6664 C   0  0  0  0  0  0
  -11.5229   10.0810   17.7279 C   0  0  0  0  0  0
  -12.3420   11.2292   17.8013 C   0  0  0  0  0  0
  -12.2052   12.2100   18.9634 C   0  0  0  0  0  0
  -12.9101   13.4350   18.9764 C   0  0  0  0  0  0
  -12.7445   14.3488   20.0459 C   0  0  0  0  0  0
  -13.4596   15.6039   20.0823 N   0  0  0  0  0  0
  -14.6035   15.8835   19.3934 C   0  0  0  0  0  0
  -15.1883   15.0633   18.6934 O   0  0  0  0  0  0
  -15.0945   17.2871   19.5970 C   0  0  0  0  0  0
  -16.3923   17.7493   19.1097 C   0  0  0  0  0  0
  -17.3317   16.8640   18.3742 C   0  0  0  0  0  0
  -17.7262   15.8723   19.1634 F   0  0  0  0  0  0
  -18.4037   17.5988   18.0690 F   0  0  0  0  0  0
  -16.7044   16.4502   17.2682 F   0  0  0  0  0  0
  -16.7342   19.0513   19.3500 C   0  0  0  0  0  0
  -15.8990   20.0154   20.0599 C   0  0  0  0  0  0
  -16.2272   21.1783   20.2676 O   0  0  0  0  0  0
  -14.7028   19.4773   20.4681 N   0  0  0  0  0  0
  -14.3582   18.1878   20.2353 C   0  0  0  0  0  0
  -11.3643   11.9145   20.0470 C   0  0  0  0  0  0
  -11.1960   12.8038   21.0953 C   0  0  0  0  0  0
  -11.8507   14.0374   21.1142 C   0  0  0  0  0  0
  -11.6175   14.9357   22.1850 N   0  0  0  0  0  0
  -11.8004   16.3986   22.1246 C   0  0  0  0  0  0
  -10.5787   17.2132   22.5762 C   0  0  0  0  0  0
  -10.9995   14.5584   23.4742 C   0  0  0  0  0  0
   -9.7423   15.3815   23.8150 C   0  0  0  0  0  0
  -10.1261   16.7908   23.8915 N   0  0  0  0  0  0
   -9.0061   17.6307   24.2613 C   0  0  0  0  0  0
  -11.8431    7.3994   14.4907 N   0  0  0  0  0  0
  -11.9050    6.3428   13.4636 C   0  0  0  0  0  0
  -13.0945    5.3961   13.6948 C   0  0  0  0  0  0
  -13.3324    4.2687   12.6642 C   0  0  0  0  0  0
  -14.5661    3.3559   12.9708 C   0  0  0  0  0  0
  -14.4287    2.5448   14.2871 C   0  0  0  0  0  0
  -13.3447    2.5011   14.8687 O   0  0  0  0  0  0
  -15.5244    1.8873   14.7360 N   0  0  0  0  0  0
  -15.4591    0.9401   15.8893 C   0  0  1  0  0  0
  -16.8165    0.5596   16.6012 C   0  0  0  0  0  0
  -17.6661   -0.4596   15.7948 C   0  0  0  0  0  0
  -16.5679   -0.0683   18.0027 C   0  0  0  0  0  0
  -17.6309    1.8408   16.8514 C   0  0  0  0  0  0
  -14.5062   -0.2672   15.6732 C   0  0  0  0  0  0
  -13.8510   -0.6331   16.6542 O   0  0  0  0  0  0
  -14.3366   -0.8214   14.4406 N   0  0  0  0  0  0
  -13.2308   -1.7327   14.0438 C   0  0  1  0  0  0
  -13.3336   -1.7980   12.5172 C   0  0  0  0  0  0
  -14.8303   -1.7119   12.2819 C   0  0  1  0  0  0
  -15.5027   -2.9246   12.5477 O   0  0  0  0  0  0
  -15.2501   -0.6519   13.2911 C   0  0  0  0  0  0
  -11.8442   -1.2071   14.4797 C   0  0  0  0  0  0
  -11.6435    0.0068   14.4690 O   0  0  0  0  0  0
  -10.9402   -2.1222   14.8703 N   0  0  0  0  0  0
   -9.5582   -1.7510   15.2269 C   0  0  0  0  0  0
   -9.3999   -0.5952   16.2197 C   0  0  0  0  0  0
   -8.8283    0.6059   15.8014 C   0  0  0  0  0  0
   -8.6977    1.6646   16.6952 C   0  0  0  0  0  0
   -9.1371    1.5287   18.0233 C   0  0  0  0  0  0
   -9.7029    0.3140   18.4360 C   0  0  0  0  0  0
   -9.8324   -0.7429   17.5364 C   0  0  0  0  0  0
   -9.0037    2.6950   18.9904 C   0  0  0  0  0  0
   -8.2601    4.1968   18.4475 S   0  0  0  0  0  0
   -8.5328    4.8143   20.0156 C   0  0  0  0  0  0
   -9.1125    4.0234   20.8679 N   0  0  0  0  0  0
   -9.3944    2.8318   20.3566 C   0  0  0  0  0  0
  -10.0687    1.8356   21.2792 C   0  0  0  0  0  0
  -14.1194   10.7247   14.9347 H   0  0  0  0  0  0
  -13.9274   12.3016   16.7949 H   0  0  0  0  0  0
  -10.9927    8.3228   16.6392 H   0  0  0  0  0  0
  -10.7926    9.8840   18.4901 H   0  0  0  0  0  0
  -13.5520   13.6768   18.1575 H   0  0  0  0  0  0
  -13.1360   16.2762   20.7554 H   0  0  0  0  0  0
  -17.6864   19.4194   19.0024 H   0  0  0  0  0  0
  -14.0903   20.1008   20.9977 H   0  0  0  0  0  0
  -13.3849   17.9892   20.6458 H   0  0  0  0  0  0
  -10.8273   10.9857   20.0771 H   0  0  0  0  0  0
  -10.5239   12.5388   21.8973 H   0  0  0  0  0  0
  -12.7271   16.6769   22.6291 H   0  0  0  0  0  0
  -11.7959   16.7377   21.0944 H   0  0  0  0  0  0
  -10.8456   18.2696   22.5963 H   0  0  0  0  0  0
   -9.7713   17.1049   21.8493 H   0  0  0  0  0  0
  -11.7597   14.7789   24.2305 H   0  0  0  0  0  0
  -10.8132   13.4968   23.6023 H   0  0  0  0  0  0
   -9.3187   15.0398   24.7581 H   0  0  0  0  0  0
   -8.9801   15.2409   23.0441 H   0  0  0  0  0  0
   -9.2794   18.6877   24.2474 H   0  0  0  0  0  0
   -8.1500   17.4774   23.5974 H   0  0  0  0  0  0
   -8.7041   17.3968   25.2705 H   0  0  0  0  0  0
  -11.1505    7.3073   15.2159 H   0  0  0  0  0  0
  -10.9766    5.7706   13.4948 H   0  0  0  0  0  0
  -11.9552    6.7760   12.4615 H   0  0  0  0  0  0
  -13.9717    6.0124   13.6690 H   0  0  0  0  0  0
  -13.0303    4.9953   14.7070 H   0  0  0  0  0  0
  -12.4337    3.6540   12.5832 H   0  0  0  0  0  0
  -13.4639    4.7194   11.6801 H   0  0  0  0  0  0
  -14.7095    2.6770   12.1399 H   0  0  0  0  0  0
  -15.5029    3.8773   12.8687 H   0  0  0  0  0  0
  -16.4155    1.9324   14.2463 H   0  0  0  0  0  0
  -14.9300    1.5232   16.6433 H   0  0  0  0  0  0
  -18.6201   -0.6654   16.2851 H   0  0  0  0  0  0
  -17.1554   -1.4183   15.6923 H   0  0  0  0  0  0
  -17.9037   -0.1225   14.7896 H   0  0  0  0  0  0
  -17.5028   -0.2210   18.5456 H   0  0  0  0  0  0
  -15.9303    0.5669   18.6225 H   0  0  0  0  0  0
  -16.0877   -1.0462   17.9381 H   0  0  0  0  0  0
  -18.6142    1.6288   17.2668 H   0  0  0  0  0  0
  -17.7797    2.4125   15.9373 H   0  0  0  0  0  0
  -17.1045    2.4899   17.5510 H   0  0  0  0  0  0
  -13.3944   -2.7261   14.4618 H   0  0  0  0  0  0
  -12.8264   -2.6409   12.0665 H   0  0  0  0  0  0
  -12.8449   -0.9228   12.1159 H   0  0  0  0  0  0
  -15.0479   -1.3842   11.2647 H   0  0  0  0  0  0
  -15.1370   -3.6223   11.9973 H   0  0  0  0  0  0
  -16.3057   -0.7359   13.5410 H   0  0  0  0  0  0
  -15.1066    0.3256   12.8438 H   0  0  0  0  0  0
  -11.1619   -3.1067   14.8248 H   0  0  0  0  0  0
   -9.0793   -2.6355   15.6550 H   0  0  0  0  0  0
   -9.0005   -1.5480   14.3085 H   0  0  0  0  0  0
   -8.4939    0.7221   14.7814 H   0  0  0  0  0  0
   -8.2606    2.5910   16.3572 H   0  0  0  0  0  0
  -10.0461    0.1877   19.4418 H   0  0  0  0  0  0
  -10.2762   -1.6730   17.8592 H   0  0  0  0  0  0
   -8.2265    5.8164   20.2702 H   0  0  0  0  0  0
   -9.4355    0.9694   21.4621 H   0  0  0  0  0  0
  -11.0199    1.4897   20.8741 H   0  0  0  0  0  0
  -10.2972    2.2564   22.2569 H   0  0  0  0  0  0
  1  2  2  0  0  0
  2  3  1  0  0  0
  2 36  1  0  0  0
  3  4  1  0  0  0
  3  6  2  0  0  0
  4  5  2  0  0  0
  4 73  1  0  0  0
  5  8  1  0  0  0
  5 74  1  0  0  0
  6  7  1  0  0  0
  6 75  1  0  0  0
  7  8  2  0  0  0
  7 76  1  0  0  0
  8  9  1  0  0  0
  9 10  1  0  0  0
  9 26  2  0  0  0
 10 11  2  0  0  0
 10 77  1  0  0  0
 11 12  1  0  0  0
 11 28  1  0  0  0
 12 13  1  0  0  0
 12 78  1  0  0  0
 13 14  2  0  0  0
 13 15  1  0  0  0
 15 16  1  0  0  0
 15 25  2  0  0  0
 16 17  1  0  0  0
 16 21  2  0  0  0
 17 18  1  0  0  0
 17 19  1  0  0  0
 17 20  1  0  0  0
 21 22  1  0  0  0
 21 79  1  0  0  0
 22 23  2  0  0  0
 22 24  1  0  0  0
 24 25  1  0  0  0
 24 80  1  0  0  0
 25 81  1  0  0  0
 26 27  1  0  0  0
 26 82  1  0  0  0
 27 28  2  0  0  0
 27 83  1  0  0  0
 28 29  1  0  0  0
 29 30  1  0  0  0
 29 32  1  0  0  0
 30 31  1  0  0  0
 30 84  1  0  0  0
 30 85  1  0  0  0
 31 34  1  0  0  0
 31 86  1  0  0  0
 31 87  1  0  0  0
 32 33  1  0  0  0
 32 88  1  0  0  0
 32 89  1  0  0  0
 33 34  1  0  0  0
 33 90  1  0  0  0
 33 91  1  0  0  0
 34 35  1  0  0  0
 35 92  1  0  0  0
 35 93  1  0  0  0
 35 94  1  0  0  0
 36 37  1  0  0  0
 36 95  1  0  0  0
 37 38  1  0  0  0
 37 96  1  0  0  0
 37 97  1  0  0  0
 38 39  1  0  0  0
 38 98  1  0  0  0
 38 99  1  0  0  0
 39 40  1  0  0  0
 39100  1  0  0  0
 39101  1  0  0  0
 40 41  1  0  0  0
 40102  1  0  0  0
 40103  1  0  0  0
 41 42  2  0  0  0
 41 43  1  0  0  0
 43 44  1  0  0  0
 43104  1  0  0  0
 44 45  1  0  0  0
 44 49  1  0  0  0
 44105  1  0  0  0
 45 46  1  0  0  0
 45 47  1  0  0  0
 45 48  1  0  0  0
 46106  1  0  0  0
 46107  1  0  0  0
 46108  1  0  0  0
 47109  1  0  0  0
 47110  1  0  0  0
 47111  1  0  0  0
 48112  1  0  0  0
 48113  1  0  0  0
 48114  1  0  0  0
 49 50  2  0  0  0
 49 51  1  0  0  0
 51 52  1  0  0  0
 51 56  1  0  0  0
 52 53  1  0  0  0
 52 57  1  0  0  0
 52115  1  0  0  0
 53 54  1  0  0  0
 53116  1  0  0  0
 53117  1  0  0  0
 54 55  1  0  0  0
 54 56  1  0  0  0
 54118  1  0  0  0
 55119  1  0  0  0
 56120  1  0  0  0
 56121  1  0  0  0
 57 58  2  0  0  0
 57 59  1  0  0  0
 59 60  1  0  0  0
 59122  1  0  0  0
 60 61  1  0  0  0
 60123  1  0  0  0
 60124  1  0  0  0
 61 62  1  0  0  0
 61 66  2  0  0  0
 62 63  2  0  0  0
 62125  1  0  0  0
 63 64  1  0  0  0
 63126  1  0  0  0
 64 65  2  0  0  0
 64 67  1  0  0  0
 65 66  1  0  0  0
 65127  1  0  0  0
 66128  1  0  0  0
 67 68  1  0  0  0
 67 71  2  0  0  0
 68 69  1  0  0  0
 69 70  2  0  0  0
 69129  1  0  0  0
 70 71  1  0  0  0
 71 72  1  0  0  0
 72130  1  0  0  0
 72131  1  0  0  0
 72132  1  0  0  0
M  END
> <s_m_entry_id>
28

> <s_m_entry_name>
7q2j.1_mol5

> <s_m_source_file>
ligprep_1.maegz

> <i_m_source_file_index>
1

> <i_lp_mmshare_version>
38013

> <i_f3d_flags>
0

> <s_lp_Force_Field>
OPLS3

> <r_lp_Energy>
107.370534674413

> <b_lp_Chiralities_Consistent>
1

> <s_lp_Variant>
ligand-1

> <s_m_job_name>
glide-dock_SP_ligprep_ligand

> <s_i_glide_gridfile>
glide-grid_crystal_ligand

> <i_i_glide_lignum>
1

> <i_i_glide_rotatable_bonds>
24

> <r_i_docking_score>
-10.3656212682605

> <r_i_glide_ligand_efficiency>
-0.143966962059173

> <r_i_glide_ligand_efficiency_sa>
-0.598926696812624

> <r_i_glide_ligand_efficiency_ln>
-1.96442621808206

> <r_i_glide_gscore>
-10.3656212682605

> <r_i_glide_evdw>
-53.1755790710449

> <r_i_glide_ecoul>
-20.6960220336914

> <r_i_glide_energy>
-73.8716011047363

> <r_i_glide_einternal>
19.6176795959473

> <r_i_glide_emodel>
-109.37696452754

> <r_i_glide_intrahb_reward>
0

> <i_i_glide_confnum>
585

> <i_i_glide_posenum>
191

> <r_i_glide_eff_state_penalty>
0

> <r_i_glide_lipo>
-3.14967668360712

> <r_i_glide_hbond>
-0.745493906975403

> <r_i_glide_metal>
0

> <r_i_glide_rewards>
-0.69961613187778

> <r_i_glide_erotb>
0.234125560457195

> <r_i_glide_esite>
-0.241777847651401

> <s_m_subgroup_title>
glide-dock_SP_ligprep_ligand_pv1

> <s_m_subgroupid>
glide-dock_SP_ligprep_ligand_pv1

> <b_m_subgroup_collapsed>
0

$$$$
