0:0:0
     RDKit          3D

 89 96  0  0  1  0  0  0  0  0999 V2000
  -29.1290  -19.8420   20.4030 C   0  0  0  0  0  0  0  0  0  0  0  0
  -29.0930  -21.2510   19.9180 N   0  0  0  0  0  0  0  0  0  0  0  0
  -28.5030  -19.6410   21.4440 O   0  0  0  0  0  0  0  0  0  0  0  0
  -29.5610  -21.3290   19.0230 H   0  0  0  0  0  0  0  0  0  0  0  0
  -28.7070  -22.7760   20.5230 C   0  0  0  0  0  2  0  0  0  0  0  0
  -28.1280  -24.3490   19.8220 C   0  0  0  0  0  2  0  0  0  0  0  0
  -28.1790  -25.9520   20.2640 O   0  0  0  0  0  0  0  0  0  0  0  0
  -24.5810  -31.9000   23.2140 C   0  0  0  0  0  0  0  0  0  0  0  0
  -27.1650  -27.0490   20.1590 C   0  0  0  0  0  0  0  0  0  0  0  0
  -23.3980  -30.5140   21.5590 C   0  0  0  0  0  3  0  0  0  0  0  0
  -24.8590  -28.9280   20.1200 C   0  0  0  0  0  0  0  0  0  0  0  0
  -25.9640  -30.7330   21.4250 C   0  0  0  0  0  2  0  0  0  0  0  0
  -26.0410  -29.3300   20.7540 C   0  0  0  0  0  0  0  0  0  0  0  0
  -27.1840  -28.4090   20.7520 C   0  0  0  0  0  3  0  0  0  0  0  0
  -25.9560  -26.8090   19.4680 C   0  0  0  0  0  3  0  0  0  0  0  0
  -24.8420  -27.6910   19.4570 C   0  0  0  0  0  3  0  0  0  0  0  0
  -23.6350  -29.8450   20.1760 C   0  0  0  0  0  2  0  0  0  0  0  0
  -24.6700  -31.0770   22.1190 N   0  0  0  0  0  0  0  0  0  0  0  0
  -23.4890  -32.1820   23.7340 O   0  0  0  0  0  0  0  0  0  0  0  0
  -22.7050  -29.5080   22.5140 C   0  0  0  0  0  0  0  0  0  0  0  0
  -21.3770  -29.3340   22.3790 N   0  0  0  0  0  0  0  0  0  0  0  0
  -23.3690  -28.8850   23.3450 O   0  0  0  0  0  0  0  0  0  0  0  0
  -20.8940  -29.8880   21.6860 H   0  0  0  0  0  0  0  0  0  0  0  0
  -18.0010  -28.0920   22.8580 C   0  0  0  0  0  0  0  0  0  0  0  0
  -20.5570  -28.3830   23.1390 C   0  0  0  0  0  3  0  0  0  0  0  0
  -20.6770  -26.9560   22.5570 C   0  0  0  0  0  2  0  0  0  0  0  0
  -19.5840  -26.6280   21.5340 C   0  0  0  0  0  2  0  0  0  0  0  0
  -18.1970  -26.7510   22.1700 C   0  0  0  0  0  2  0  0  0  0  0  0
  -19.1090  -28.8650   23.2980 C   0  0  0  0  0  0  0  0  0  0  0  0
  -18.8700  -30.1170   23.9050 C   0  0  0  0  0  3  0  0  0  0  0  0
  -17.5570  -30.5980   24.0720 C   0  0  0  0  0  3  0  0  0  0  0  0
  -16.4650  -29.8230   23.6450 C   0  0  0  0  0  3  0  0  0  0  0  0
  -16.6870  -28.5720   23.0440 C   0  0  0  0  0  3  0  0  0  0  0  0
  -25.8470  -32.5440   23.8570 C   0  0  0  0  0  3  0  0  0  0  0  0
  -26.3230  -31.7990   25.1660 C   0  0  1  0  0  0  0  0  0  0  0  0
  -25.2000  -31.5960   26.2110 C   0  0  0  0  0  1  0  0  0  0  0  0
  -26.9040  -30.4060   24.8310 C   0  0  0  0  0  1  0  0  0  0  0  0
  -27.4630  -32.6000   25.8390 C   0  0  0  0  0  1  0  0  0  0  0  0
  -25.5360  -33.9520   24.1620 N   0  0  0  0  0  0  0  0  0  0  0  0
  -25.8930  -34.9990   23.4060 C   0  0  0  0  0  0  0  0  0  0  0  0
  -26.5810  -34.8810   22.3880 O   0  0  0  0  0  0  0  0  0  0  0  0
  -24.9270  -34.1170   24.9490 H   0  0  0  0  0  0  0  0  0  0  0  0
  -24.1960  -36.8180   23.0100 C   0  0  0  0  0  1  0  0  0  0  0  0
  -25.4160  -36.3990   23.8470 C   0  0  0  0  0  3  0  0  0  0  0  0
  -27.5380  -37.2730   24.7230 C   0  0  0  0  0  1  0  0  0  0  0  0
  -26.4640  -37.4390   23.7480 N   0  0  0  0  0  0  0  0  0  0  0  0
  -26.0650  -38.3660   23.8700 H   0  0  0  0  0  0  0  0  0  0  0  0
  -29.9600  -18.3950   19.8110 C   0  0  0  0  0  3  0  0  0  0  0  0
  -30.4580  -15.4500   19.8890 C   0  0  0  0  0  0  0  0  0  0  0  0
  -30.3550  -13.0210   18.9630 C   0  0  0  0  0  2  0  0  0  0  0  0
  -29.3670  -12.8510   17.7830 C   0  0  0  0  0  2  0  0  0  0  0  0
  -27.9480  -12.5670   18.3020 C   0  0  0  0  0  2  0  0  0  0  0  0
  -27.5690  -13.4960   19.4810 C   0  0  0  0  0  3  0  0  0  0  0  0
  -28.6840  -13.6230   20.5440 C   0  0  0  0  0  2  0  0  0  0  0  0
  -29.8730  -14.1470   19.8540 N   0  0  0  0  0  0  0  0  0  0  0  0
  -31.6460  -15.4180   19.5400 O   0  0  0  0  0  0  0  0  0  0  0  0
  -29.7480  -16.7460   20.1160 N   0  0  0  0  0  0  0  0  0  0  0  0
  -28.8090  -16.5760   20.4450 H   0  0  0  0  0  0  0  0  0  0  0  0
  -25.2450  -14.0250   20.3820 C   0  0  0  0  0  0  0  0  0  0  0  0
  -24.2110  -13.2360   20.7990 C   0  0  0  0  0  0  0  0  0  0  0  0
  -24.6820  -11.8890   20.7170 C   0  0  0  0  0  0  0  0  0  0  0  0
  -26.2770  -13.1600   20.0620 N   0  0  0  0  0  0  0  0  0  0  0  0
  -25.9540  -11.8680   20.3310 N   0  0  0  0  0  0  0  0  0  0  0  0
  -23.9720  -10.6200   20.9250 C   0  0  0  0  0  0  0  0  0  0  0  0
  -24.4370   -9.6530   21.8440 C   0  0  0  0  0  3  0  0  0  0  0  0
  -23.7230   -8.4520   22.0420 C   0  0  0  0  0  3  0  0  0  0  0  0
  -22.5290   -8.2070   21.3230 C   0  0  0  0  0  0  0  0  0  0  0  0
  -22.0830   -9.1630   20.3930 C   0  0  0  0  0  3  0  0  0  0  0  0
  -22.7980  -10.3550   20.1920 C   0  0  0  0  0  3  0  0  0  0  0  0
  -21.7840   -7.0580   21.4320 O   0  0  0  0  0  0  0  0  0  0  0  0
  -21.7550   -6.3270   22.5920 C   0  0  0  0  0  0  0  0  0  0  0  0
  -21.2990   -6.8780   23.8090 C   0  0  0  0  0  3  0  0  0  0  0  0
  -21.2200   -6.0700   24.9620 C   0  0  0  0  0  3  0  0  0  0  0  0
  -21.5870   -4.7130   24.8980 C   0  0  0  0  0  0  0  0  0  0  0  0
  -22.0350   -4.1610   23.6850 C   0  0  0  0  0  3  0  0  0  0  0  0
  -22.1150   -4.9660   22.5350 C   0  0  0  0  0  0  0  0  0  0  0  0
  -22.5280   -4.4230   21.3640 F   0  0  0  0  0  0  0  0  0  0  0  0
  -21.5030   -3.9350   26.0030 F   0  0  0  0  0  0  0  0  0  0  0  0
  -22.8300  -13.7010   21.1530 C   0  0  0  0  0  0  0  0  0  0  0  0
  -22.1510  -12.9850   22.0420 N   0  0  0  0  0  0  0  0  0  0  0  0
  -22.3640  -14.7360   20.6770 O   0  0  0  0  0  0  0  0  0  0  0  0
  -22.5430  -12.1480   22.4470 H   0  0  0  0  0  0  0  0  0  0  0  0
  -21.2260  -13.2780   22.3220 H   0  0  0  0  0  0  0  0  0  0  0  0
  -25.3890  -15.4000   20.2180 N   0  0  0  0  0  0  0  0  0  0  0  0
  -24.6220  -16.0430   20.3800 H   0  0  0  0  0  0  0  0  0  0  0  0
  -26.2010  -15.8480   19.8140 H   0  0  0  0  0  0  0  0  0  0  0  0
  -31.8640  -18.6960   21.5400 C   0  0  0  0  0  1  0  0  0  0  0  0
  -32.0780  -19.8620   19.3010 C   0  0  0  0  0  1  0  0  0  0  0  0
  -31.4850  -18.6510   20.0470 C   0  0  0  0  0  3  0  0  0  0  0  0
  1  3  2  0
  2  1  1  0
  2  5  1  0
  4  2  1  0
  6  7  1  0
  6  5  1  0
  8 19  2  0
  9  7  1  0
  9 14  1  0
 10 18  1  0
 10 20  1  0
 11 17  1  0
 11 13  1  0
 12 18  1  0
 13 12  1  0
 14 13  2  0
 15  9  2  0
 16 15  1  0
 16 11  2  0
 17 10  1  0
 18  8  1  0
 20 22  2  0
 21 20  1  0
 23 21  1  0
 24 33  2  0
 24 29  1  0
 25 21  1  0
 25 29  1  0
 26 25  1  0
 27 28  1  0
 27 26  1  0
 28 24  1  0
 29 30  2  0
 30 31  1  0
 32 31  2  0
 33 32  1  0
 34  8  1  0
 34 39  1  0
 34 35  1  0
 35 38  1  1
 35 36  1  0
 37 35  1  0
 39 42  1  0
 40 44  1  0
 40 39  1  0
 41 40  2  0
 44 43  1  0
 46 44  1  0
 46 47  1  0
 46 45  1  0
 48 89  1  0
 48 57  1  0
 48  1  1  0
 49 57  1  0
 50 55  1  0
 51 52  1  0
 51 50  1  0
 53 52  1  0
 53 62  1  0
 53 54  1  0
 55 49  1  0
 55 54  1  0
 56 49  2  0
 57 58  1  0
 59 60  2  0
 60 79  1  0
 61 60  1  0
 61 64  1  0
 62 63  1  0
 62 59  1  0
 63 61  2  0
 64 65  1  0
 65 66  2  0
 67 70  1  0
 67 66  1  0
 68 67  2  0
 69 68  1  0
 69 64  2  0
 70 71  1  0
 71 72  1  0
 72 73  2  0
 74 73  1  0
 74 78  1  0
 75 74  2  0
 76 71  2  0
 76 75  1  0
 77 76  1  0
 79 80  1  0
 80 83  1  0
 80 82  1  0
 81 79  2  0
 84 85  1  0
 84 59  1  0
 86 84  1  0
 88 89  1  0
 89 87  1  0
M  ISO  4   6 101   7 101  49 100  57 100
M  END
>  <TORSDO>  (1) 
F 20

>  <SCORE>  (1) 
-15.647

>  <name>  (1) 
0

>  <ligand_id>  (1) 
0

>  <original_smiles>  (1) 
[H]c1c([H])c([H])c2c(c1[H])C([H])([H])C([H])([H])C([H])([H])C2([H])N([H])C(=O)C1([H])N(C(=O)C([H])(N([H])C(=O)C([H])(N([H])C([H])([H])[H])C([H])([H])[H])C(C([H])([H])[H])(C([H])([H])[H])C([H])([H])[H])C([H])([H])c2c([H])c(OC([H])([H])C([H])([H])N([H])C(=O)C([H])(N([H])C(=O)N3C([H])([H])C([H])([H])C([H])([H])C([H])(n4nc(-c5c([H])c([H])c(Oc6c([H])c([H])c(F)c([H])c6F)c([H])c5[H])c(C(=O)N([H])[H])c4N([H])[H])C3([H])[H])C([H])(C([H])([H])[H])C([H])([H])[H])c([H])c([H])c2C1([H])[H]

>  <smiles>  (1) 
[H]c1c([H])c([H])c2c(c1[H])C([H])([H])C([H])([H])C([H])([H])C2([H])N([H])C(=O)C1([H])N(C(=O)C([H])(N([H])C(=O)C([H])(N([H])C([H])([H])[H])C([H])([H])[H])C(C([H])([H])[H])(C([H])([H])[H])C([H])([H])[H])C([H])([H])c2c([H])c(OC([H])([H])C([H])([H])N([H])C(=O)C([H])(N([H])C(=O)N3C([H])([H])C([H])([H])C([H])([H])C([H])(n4nc(-c5c([H])c([H])c(Oc6c([H])c([H])c(F)c([H])c6F)c([H])c5[H])c(C(=O)N([H])[H])c4N([H])[H])C3([H])[H])C([H])(C([H])([H])[H])C([H])([H])[H])c([H])c([H])c2C1([H])[H]

$$$$
3:0:0
     RDKit          3D

 86 93  0  0  1  0  0  0  0  0999 V2000
  -28.7250  -22.7500   20.5790 C   0  0  0  0  0  0  0  0  0  0  0  0
  -28.8410  -21.3510   20.0620 N   0  0  0  0  0  0  0  0  0  0  0  0
  -29.1550  -22.9050   21.7240 O   0  0  0  0  0  0  0  0  0  0  0  0
  -28.5310  -21.3120   19.0990 H   0  0  0  0  0  0  0  0  0  0  0  0
  -28.0220  -24.2200   19.8880 C   0  0  0  0  0  2  0  0  0  0  0  0
  -28.1810  -25.8160   20.3270 O   0  0  0  0  0  0  0  0  0  0  0  0
  -24.6460  -31.8650   23.1900 C   0  0  0  0  0  0  0  0  0  0  0  0
  -27.1910  -26.9380   20.2110 C   0  0  0  0  0  0  0  0  0  0  0  0
  -23.4510  -30.4600   21.5590 C   0  0  0  0  0  3  0  0  0  0  0  0
  -24.9000  -28.8410   20.1460 C   0  0  0  0  0  0  0  0  0  0  0  0
  -26.0200  -30.6560   21.4210 C   0  0  0  0  0  2  0  0  0  0  0  0
  -26.0860  -29.2400   20.7720 C   0  0  0  0  0  0  0  0  0  0  0  0
  -27.2230  -28.3080   20.7840 C   0  0  0  0  0  3  0  0  0  0  0  0
  -25.9790  -26.7040   19.5210 C   0  0  0  0  0  3  0  0  0  0  0  0
  -24.8730  -27.5950   19.4990 C   0  0  0  0  0  3  0  0  0  0  0  0
  -23.6830  -29.7660   20.1870 C   0  0  0  0  0  2  0  0  0  0  0  0
  -24.7280  -31.0220   22.1090 N   0  0  0  0  0  0  0  0  0  0  0  0
  -23.5560  -32.1610   23.7070 O   0  0  0  0  0  0  0  0  0  0  0  0
  -22.7510  -29.4750   22.5310 C   0  0  0  0  0  0  0  0  0  0  0  0
  -21.4200  -29.3200   22.4100 N   0  0  0  0  0  0  0  0  0  0  0  0
  -23.4130  -28.8500   23.3630 O   0  0  0  0  0  0  0  0  0  0  0  0
  -20.9380  -29.8750   21.7160 H   0  0  0  0  0  0  0  0  0  0  0  0
  -18.0300  -28.1280   22.9270 C   0  0  0  0  0  0  0  0  0  0  0  0
  -20.5920  -28.3910   23.1880 C   0  0  0  0  0  3  0  0  0  0  0  0
  -20.6890  -26.9540   22.6240 C   0  0  0  0  0  2  0  0  0  0  0  0
  -19.5860  -26.6270   21.6110 C   0  0  0  0  0  2  0  0  0  0  0  0
  -18.2040  -26.7760   22.2560 C   0  0  0  0  0  2  0  0  0  0  0  0
  -19.1510  -28.8920   23.3510 C   0  0  0  0  0  0  0  0  0  0  0  0
  -18.9320  -30.1550   23.9430 C   0  0  0  0  0  3  0  0  0  0  0  0
  -17.6260  -30.6550   24.1130 C   0  0  0  0  0  3  0  0  0  0  0  0
  -16.5220  -29.8880   23.7040 C   0  0  0  0  0  3  0  0  0  0  0  0
  -16.7240  -28.6260   23.1170 C   0  0  0  0  0  3  0  0  0  0  0  0
  -25.9170  -32.5090   23.8220 C   0  0  0  0  0  3  0  0  0  0  0  0
  -26.4230  -31.7460   25.1090 C   0  0  1  0  0  0  0  0  0  0  0  0
  -25.3230  -31.5200   26.1740 C   0  0  0  0  0  1  0  0  0  0  0  0
  -27.0050  -30.3630   24.7410 C   0  0  0  0  0  1  0  0  0  0  0  0
  -27.5730  -32.5420   25.7720 C   0  0  0  0  0  1  0  0  0  0  0  0
  -25.5980  -33.9090   24.1570 N   0  0  0  0  0  0  0  0  0  0  0  0
  -25.9300  -34.9720   23.4130 C   0  0  0  0  0  0  0  0  0  0  0  0
  -26.5990  -34.8790   22.3820 O   0  0  0  0  0  0  0  0  0  0  0  0
  -25.0020  -34.0540   24.9580 H   0  0  0  0  0  0  0  0  0  0  0  0
  -24.2010  -36.7750   23.0900 C   0  0  0  0  0  1  0  0  0  0  0  0
  -25.4470  -36.3590   23.8880 C   0  0  0  0  0  3  0  0  0  0  0  0
  -27.5870  -37.2400   24.7120 C   0  0  0  0  0  1  0  0  0  0  0  0
  -26.4790  -37.4140   23.7760 N   0  0  0  0  0  0  0  0  0  0  0  0
  -26.0740  -38.3320   23.9320 H   0  0  0  0  0  0  0  0  0  0  0  0
  -29.1200  -19.7980   20.6660 C   0  0  0  0  0  2  0  0  0  0  0  0
  -29.8280  -18.2610   19.9970 C   0  0  0  0  0  2  0  0  0  0  0  0
  -30.4160  -15.3400   20.2120 C   0  0  0  0  0  0  0  0  0  0  0  0
  -30.3850  -12.8860   19.3430 C   0  0  0  0  0  2  0  0  0  0  0  0
  -29.4590  -12.6810   18.1170 C   0  0  0  0  0  2  0  0  0  0  0  0
  -28.0130  -12.4050   18.5670 C   0  0  0  0  0  2  0  0  0  0  0  0
  -27.5720  -13.3620   19.7030 C   0  0  0  0  0  3  0  0  0  0  0  0
  -28.6280  -13.5140   20.8190 C   0  0  0  0  0  2  0  0  0  0  0  0
  -29.8530  -14.0280   20.1810 N   0  0  0  0  0  0  0  0  0  0  0  0
  -31.6220  -15.3370   19.9210 O   0  0  0  0  0  0  0  0  0  0  0  0
  -29.6630  -16.6220   20.3640 N   0  0  0  0  0  0  0  0  0  0  0  0
  -28.7150  -16.4170   20.6450 H   0  0  0  0  0  0  0  0  0  0  0  0
  -25.2070  -13.9120   20.4730 C   0  0  0  0  0  0  0  0  0  0  0  0
  -24.1500  -13.1320   20.8510 C   0  0  0  0  0  0  0  0  0  0  0  0
  -24.6210  -11.7830   20.8200 C   0  0  0  0  0  0  0  0  0  0  0  0
  -26.2500  -13.0390   20.2220 N   0  0  0  0  0  0  0  0  0  0  0  0
  -25.9100  -11.7530   20.5000 N   0  0  0  0  0  0  0  0  0  0  0  0
  -23.8980  -10.5200   21.0170 C   0  0  0  0  0  0  0  0  0  0  0  0
  -24.3420   -9.5490   21.9430 C   0  0  0  0  0  3  0  0  0  0  0  0
  -23.6160   -8.3540   22.1300 C   0  0  0  0  0  3  0  0  0  0  0  0
  -22.4320   -8.1180   21.3930 C   0  0  0  0  0  0  0  0  0  0  0  0
  -22.0070   -9.0770   20.4550 C   0  0  0  0  0  3  0  0  0  0  0  0
  -22.7330  -10.2640   20.2660 C   0  0  0  0  0  3  0  0  0  0  0  0
  -21.6760   -6.9750   21.4890 O   0  0  0  0  0  0  0  0  0  0  0  0
  -21.6500   -6.2250   22.6370 C   0  0  0  0  0  0  0  0  0  0  0  0
  -21.2600   -6.7740   23.8780 C   0  0  0  0  0  3  0  0  0  0  0  0
  -21.1810   -5.9500   25.0190 C   0  0  0  0  0  3  0  0  0  0  0  0
  -21.4810   -4.5790   24.9200 C   0  0  0  0  0  0  0  0  0  0  0  0
  -21.8640   -4.0290   23.6840 C   0  0  0  0  0  3  0  0  0  0  0  0
  -21.9440   -4.8490   22.5460 C   0  0  0  0  0  0  0  0  0  0  0  0
  -22.2930   -4.3090   21.3530 F   0  0  0  0  0  0  0  0  0  0  0  0
  -21.3980   -3.7860   26.0150 F   0  0  0  0  0  0  0  0  0  0  0  0
  -22.7530  -13.6070   21.1260 C   0  0  0  0  0  0  0  0  0  0  0  0
  -22.0320  -12.9140   22.0000 N   0  0  0  0  0  0  0  0  0  0  0  0
  -22.3120  -14.6280   20.6000 O   0  0  0  0  0  0  0  0  0  0  0  0
  -22.4040  -12.0890   22.4460 H   0  0  0  0  0  0  0  0  0  0  0  0
  -21.0950  -13.2140   22.2270 H   0  0  0  0  0  0  0  0  0  0  0  0
  -25.3620  -15.2830   20.2890 N   0  0  0  0  0  0  0  0  0  0  0  0
  -24.5880  -15.9300   20.3980 H   0  0  0  0  0  0  0  0  0  0  0  0
  -26.1930  -15.7200   19.9130 H   0  0  0  0  0  0  0  0  0  0  0  0
  1  3  2  0
  2  1  1  0
  2 47  1  0
  4  2  1  0
  5  6  1  0
  5  1  1  0
  7 18  2  0
  8  6  1  0
  8 13  1  0
  9 17  1  0
  9 19  1  0
 10 16  1  0
 10 12  1  0
 11 17  1  0
 12 13  2  0
 12 11  1  0
 14  8  2  0
 15 14  1  0
 15 10  2  0
 16  9  1  0
 17  7  1  0
 19 21  2  0
 20 19  1  0
 22 20  1  0
 23 32  2  0
 23 28  1  0
 24 20  1  0
 24 28  1  0
 25 24  1  0
 26 27  1  0
 26 25  1  0
 27 23  1  0
 28 29  2  0
 29 30  1  0
 31 30  2  0
 32 31  1  0
 33  7  1  0
 33 38  1  0
 33 34  1  0
 34 37  1  1
 34 35  1  0
 36 34  1  0
 38 41  1  0
 39 43  1  0
 39 38  1  0
 40 39  2  0
 43 42  1  0
 45 43  1  0
 45 46  1  0
 45 44  1  0
 48 57  1  0
 48 47  1  0
 49 57  1  0
 50 55  1  0
 51 52  1  0
 51 50  1  0
 53 52  1  0
 53 62  1  0
 53 54  1  0
 55 49  1  0
 55 54  1  0
 56 49  2  0
 57 58  1  0
 59 60  2  0
 60 79  1  0
 61 60  1  0
 61 64  1  0
 62 59  1  0
 62 63  1  0
 63 61  2  0
 64 65  1  0
 65 66  2  0
 67 70  1  0
 67 66  1  0
 68 67  2  0
 69 68  1  0
 69 64  2  0
 70 71  1  0
 71 72  1  0
 72 73  2  0
 74 73  1  0
 74 78  1  0
 75 74  2  0
 76 71  2  0
 76 75  1  0
 77 76  1  0
 79 80  1  0
 80 83  1  0
 80 82  1  0
 81 79  2  0
 84 85  1  0
 84 59  1  0
 86 84  1  0
M  ISO  4   5 101   6 101  49 100  57 100
M  END
>  <TORSDO>  (2) 
F 19

>  <SCORE>  (2) 
-16.442

>  <name>  (2) 
3

>  <ligand_id>  (2) 
3

>  <original_smiles>  (2) 
[H]c1c([H])c([H])c2c(c1[H])C([H])([H])C([H])([H])C([H])([H])C2([H])N([H])C(=O)C1([H])N(C(=O)C([H])(N([H])C(=O)C([H])(N([H])C([H])([H])[H])C([H])([H])[H])C(C([H])([H])[H])(C([H])([H])[H])C([H])([H])[H])C([H])([H])c2c([H])c(OC([H])([H])C(=O)N([H])C([H])([H])C([H])([H])N([H])C(=O)N3C([H])([H])C([H])([H])C([H])([H])C([H])(n4nc(-c5c([H])c([H])c(Oc6c([H])c([H])c(F)c([H])c6F)c([H])c5[H])c(C(=O)N([H])[H])c4N([H])[H])C3([H])[H])c([H])c([H])c2C1([H])[H]

>  <smiles>  (2) 
[H]c1c([H])c([H])c2c(c1[H])C([H])([H])C([H])([H])C([H])([H])C2([H])N([H])C(=O)C1([H])N(C(=O)C([H])(N([H])C(=O)C([H])(N([H])C([H])([H])[H])C([H])([H])[H])C(C([H])([H])[H])(C([H])([H])[H])C([H])([H])[H])C([H])([H])c2c([H])c(OC([H])([H])C(=O)N([H])C([H])([H])C([H])([H])N([H])C(=O)N3C([H])([H])C([H])([H])C([H])([H])C([H])(n4nc(-c5c([H])c([H])c(Oc6c([H])c([H])c(F)c([H])c6F)c([H])c5[H])c(C(=O)N([H])[H])c4N([H])[H])C3([H])[H])c([H])c([H])c2C1([H])[H]

$$$$
4:0:0
     RDKit          3D

 84 88  0  0  1  0  0  0  0  0999 V2000
  -28.7250  -21.2680   19.9940 C   0  0  0  0  0  2  0  0  0  0  0  0
  -29.1980  -19.7450   20.5060 N   0  0  0  0  0  2  0  0  0  0  0  0
  -28.5820  -21.2390   18.7680 O   0  0  0  0  0  1  0  0  0  0  0  0
  -29.4180  -19.7930   21.4940 H   0  0  0  0  0  0  0  0  0  0  0  0
  -30.0290  -16.2520   20.1510 C   0  0  0  0  0  0  0  0  0  0  0  0
  -30.2750  -13.5960   19.3060 C   0  0  0  0  0  2  0  0  0  0  0  0
  -29.4130  -12.9310   18.1730 C   0  0  0  0  0  2  0  0  0  0  0  0
  -28.0500  -12.4560   18.6940 C   0  0  0  0  0  2  0  0  0  0  0  0
  -27.4880  -13.4780   19.6980 C   0  0  0  0  0  3  0  0  0  0  0  0
  -28.5160  -14.0010   20.7440 C   0  0  0  0  0  2  0  0  0  0  0  0
  -29.5640  -14.8010   20.0140 N   0  0  0  0  0  0  0  0  0  0  0  0
  -31.2790  -16.1070   20.0970 O   0  0  0  0  0  0  0  0  0  0  0  0
  -29.2370  -17.7320   20.1200 N   0  0  0  0  0  2  0  0  0  0  0  0
  -28.2610  -17.5330   19.9460 H   0  0  0  0  0  0  0  0  0  0  0  0
  -25.1620  -13.9490   20.5680 C   0  0  0  0  0  0  0  0  0  0  0  0
  -24.1170  -13.1560   20.9430 C   0  0  0  0  0  0  0  0  0  0  0  0
  -24.5910  -11.8100   20.8590 C   0  0  0  0  0  0  0  0  0  0  0  0
  -26.2030  -13.0940   20.2690 N   0  0  0  0  0  0  0  0  0  0  0  0
  -25.8760  -11.7930   20.5040 N   0  0  0  0  0  0  0  0  0  0  0  0
  -23.8650  -10.5430   21.0350 C   0  0  0  0  0  0  0  0  0  0  0  0
  -24.3040   -9.5570   21.9470 C   0  0  0  0  0  3  0  0  0  0  0  0
  -23.5710   -8.3610   22.1180 C   0  0  0  0  0  3  0  0  0  0  0  0
  -22.3850   -8.1420   21.3780 C   0  0  0  0  0  0  0  0  0  0  0  0
  -21.9630   -9.1160   20.4570 C   0  0  0  0  0  3  0  0  0  0  0  0
  -22.6950  -10.3030   20.2840 C   0  0  0  0  0  3  0  0  0  0  0  0
  -21.6250   -7.0000   21.4610 O   0  0  0  0  0  0  0  0  0  0  0  0
  -21.5750   -6.2470   22.6060 C   0  0  0  0  0  0  0  0  0  0  0  0
  -21.1200   -6.7830   23.8300 C   0  0  0  0  0  3  0  0  0  0  0  0
  -21.0200   -5.9570   24.9670 C   0  0  0  0  0  3  0  0  0  0  0  0
  -21.3640   -4.5940   24.8810 C   0  0  0  0  0  0  0  0  0  0  0  0
  -21.8120   -4.0580   23.6610 C   0  0  0  0  0  3  0  0  0  0  0  0
  -21.9140   -4.8800   22.5270 C   0  0  0  0  0  0  0  0  0  0  0  0
  -22.3250   -4.3530   21.3490 F   0  0  0  0  0  0  0  0  0  0  0  0
  -21.2610   -3.7980   25.9710 F   0  0  0  0  0  0  0  0  0  0  0  0
  -22.7280  -13.6250   21.2580 C   0  0  0  0  0  0  0  0  0  0  0  0
  -22.0200  -12.9090   22.1240 N   0  0  0  0  0  0  0  0  0  0  0  0
  -22.2820  -14.6650   20.7740 O   0  0  0  0  0  0  0  0  0  0  0  0
  -22.3970  -12.0690   22.5370 H   0  0  0  0  0  0  0  0  0  0  0  0
  -21.0890  -13.2050   22.3770 H   0  0  0  0  0  0  0  0  0  0  0  0
  -25.3100  -15.3250   20.4190 N   0  0  0  0  0  0  0  0  0  0  0  0
  -24.5400  -15.9710   20.5660 H   0  0  0  0  0  0  0  0  0  0  0  0
  -26.1410  -15.7750   20.0600 H   0  0  0  0  0  0  0  0  0  0  0  0
  -28.2110  -23.1570   20.6450 C   0  0  0  0  0 15  0  0  0  0  0  0
  -28.1790  -25.0690   20.2680 O   0  0  0  0  0  1  0  0  0  0  0  0
  -24.6550  -31.8320   23.1800 C   0  0  0  0  0  0  0  0  0  0  0  0
  -27.2230  -26.4260   20.3220 C   0  0  0  0  0  0  0  0  0  0  0  0
  -23.5000  -30.3930   21.5640 C   0  0  0  0  0  3  0  0  0  0  0  0
  -24.9700  -28.6660   20.2130 C   0  0  0  0  0  0  0  0  0  0  0  0
  -26.0950  -30.4540   21.4940 C   0  0  0  0  0  2  0  0  0  0  0  0
  -26.1700  -28.9720   20.8640 C   0  0  0  0  0  0  0  0  0  0  0  0
  -27.2660  -27.8970   20.8680 C   0  0  0  0  0  3  0  0  0  0  0  0
  -25.9780  -26.4230   19.6100 C   0  0  0  0  0  3  0  0  0  0  0  0
  -24.9340  -27.4190   19.5600 C   0  0  0  0  0  3  0  0  0  0  0  0
  -23.7720  -29.6510   20.2190 C   0  0  0  0  0  2  0  0  0  0  0  0
  -24.7780  -30.9360   22.1300 N   0  0  0  0  0  0  0  0  0  0  0  0
  -23.5500  -32.1440   23.6620 O   0  0  0  0  0  0  0  0  0  0  0  0
  -22.7530  -29.4550   22.5540 C   0  0  0  0  0  0  0  0  0  0  0  0
  -21.4190  -29.3090   22.4270 N   0  0  0  0  0  0  0  0  0  0  0  0
  -23.3950  -28.8480   23.4140 O   0  0  0  0  0  0  0  0  0  0  0  0
  -20.9450  -29.8480   21.7160 H   0  0  0  0  0  0  0  0  0  0  0  0
  -18.0260  -28.0960   22.9670 C   0  0  0  0  0  0  0  0  0  0  0  0
  -20.5880  -28.3820   23.2120 C   0  0  0  0  0  3  0  0  0  0  0  0
  -20.6900  -26.9420   22.6540 C   0  0  0  0  0  2  0  0  0  0  0  0
  -19.5870  -26.6060   21.6450 C   0  0  0  0  0  2  0  0  0  0  0  0
  -18.2070  -26.7460   22.2930 C   0  0  0  0  0  2  0  0  0  0  0  0
  -19.1430  -28.8710   23.3830 C   0  0  0  0  0  0  0  0  0  0  0  0
  -18.9130  -30.1290   23.9810 C   0  0  0  0  0  3  0  0  0  0  0  0
  -17.6040  -30.6140   24.1620 C   0  0  0  0  0  3  0  0  0  0  0  0
  -16.5040  -29.8390   23.7570 C   0  0  0  0  0  3  0  0  0  0  0  0
  -16.7160  -28.5800   23.1660 C   0  0  0  0  0  3  0  0  0  0  0  0
  -25.8930  -32.5200   23.8320 C   0  0  0  0  0  3  0  0  0  0  0  0
  -25.5440  -33.9250   24.1460 N   0  0  0  0  0  0  0  0  0  0  0  0
  -25.8860  -34.9960   23.4140 C   0  0  0  0  0  0  0  0  0  0  0  0
  -26.5770  -34.9060   22.3980 O   0  0  0  0  0  0  0  0  0  0  0  0
  -24.9280  -34.0660   24.9320 H   0  0  0  0  0  0  0  0  0  0  0  0
  -24.1670  -36.8060   23.0510 C   0  0  0  0  0  1  0  0  0  0  0  0
  -25.3910  -36.3850   23.8800 C   0  0  0  0  0  3  0  0  0  0  0  0
  -27.5010  -37.2770   24.7690 C   0  0  0  0  0  1  0  0  0  0  0  0
  -26.4240  -37.4420   23.7980 N   0  0  0  0  0  0  0  0  0  0  0  0
  -26.0110  -38.3610   23.9360 H   0  0  0  0  0  0  0  0  0  0  0  0
  -26.3750  -31.7970   25.1520 C   0  0  1  0  0  0  0  0  0  0  0  0
  -25.2520  -31.5830   26.1960 C   0  0  0  0  0  1  0  0  0  0  0  0
  -26.9830  -30.4130   24.8400 C   0  0  0  0  0  1  0  0  0  0  0  0
  -27.4980  -32.6230   25.8220 C   0  0  0  0  0  1  0  0  0  0  0  0
  1  2  1  0
  2  4  1  0
  3  1  1  0
  6 11  1  0
  7  8  1  0
  7  6  1  0
  9  8  1  0
  9 18  1  0
  9 10  1  0
 11  5  1  0
 11 10  1  0
 12  5  2  0
 13  5  1  0
 14 13  1  0
 15 16  2  0
 16 35  1  0
 17 16  1  0
 17 20  1  0
 18 19  1  0
 18 15  1  0
 19 17  2  0
 20 21  1  0
 21 22  2  0
 23 26  1  0
 23 22  1  0
 24 23  2  0
 25 24  1  0
 25 20  2  0
 26 27  1  0
 27 28  1  0
 28 29  2  0
 30 29  1  0
 30 34  1  0
 31 30  2  0
 32 27  2  0
 32 31  1  0
 33 32  1  0
 35 36  1  0
 36 39  1  0
 36 38  1  0
 37 35  2  0
 40 41  1  0
 40 15  1  0
 42 40  1  0
 44 46  1  0
 45 56  2  0
 46 51  1  0
 47 55  1  0
 47 57  1  0
 48 54  1  0
 48 50  1  0
 49 55  1  0
 50 51  2  0
 50 49  1  0
 52 46  2  0
 53 52  1  0
 53 48  2  0
 54 47  1  0
 55 45  1  0
 57 59  2  0
 58 57  1  0
 60 58  1  0
 61 70  2  0
 61 66  1  0
 62 58  1  0
 62 66  1  0
 63 62  1  0
 64 65  1  0
 64 63  1  0
 65 61  1  0
 66 67  2  0
 67 68  1  0
 69 68  2  0
 70 69  1  0
 71 45  1  0
 71 72  1  0
 71 81  1  0
 72 75  1  0
 73 77  1  0
 73 72  1  0
 74 73  2  0
 77 76  1  0
 79 77  1  0
 79 80  1  0
 79 78  1  0
 81 84  1  1
 81 82  1  0
 83 81  1  0
M  ISO  4   5 100  13 100  43 101  44 101
M  END
>  <TORSDO>  (3) 
F 17

>  <SCORE>  (3) 
-16.416

>  <name>  (3) 
4

>  <ligand_id>  (3) 
4

>  <original_smiles>  (3) 
[H]c1c([H])c([H])c2c(c1[H])C([H])([H])C([H])([H])C([H])([H])C2([H])N([H])C(=O)C1([H])N(C(=O)C([H])(N([H])C(=O)C([H])(N([H])C([H])([H])[H])C([H])([H])[H])C(C([H])([H])[H])(C([H])([H])[H])C([H])([H])[H])C([H])([H])c2c([H])c(OC([H])([H])C(=O)N([H])N([H])C(=O)N3C([H])([H])C([H])([H])C([H])([H])C([H])(n4nc(-c5c([H])c([H])c(Oc6c([H])c([H])c(F)c([H])c6F)c([H])c5[H])c(C(=O)N([H])[H])c4N([H])[H])C3([H])[H])c([H])c([H])c2C1([H])[H]

>  <smiles>  (3) 
[H]c1c([H])c([H])c2c(c1[H])C([H])([H])C([H])([H])C([H])([H])C2([H])N([H])C(=O)C1([H])N(C(=O)C([H])(N([H])C(=O)C([H])(N([H])C([H])([H])[H])C([H])([H])[H])C(C([H])([H])[H])(C([H])([H])[H])C([H])([H])[H])C([H])([H])c2c([H])c(OC([H])([H])C(=O)N([H])N([H])C(=O)N3C([H])([H])C([H])([H])C([H])([H])C([H])(n4nc(-c5c([H])c([H])c(Oc6c([H])c([H])c(F)c([H])c6F)c([H])c5[H])c(C(=O)N([H])[H])c4N([H])[H])C3([H])[H])c([H])c([H])c2C1([H])[H]

$$$$
5:0:0
     RDKit          3D

 91 98  0  0  1  0  0  0  0  0999 V2000
  -28.5520  -24.1460   19.9820 C   0  0  0  0  0  0  0  0  0  0  0  0
  -28.5940  -22.9380   20.5820 N   0  0  0  0  0  0  0  0  0  0  0  0
  -28.7590  -24.2820   18.7720 O   0  0  0  0  0  0  0  0  0  0  0  0
  -28.3890  -22.9150   21.5730 H   0  0  0  0  0  0  0  0  0  0  0  0
  -28.2550  -25.3790   20.8720 C   0  0  0  0  0  2  0  0  0  0  0  0
  -28.3980  -26.6410   20.1730 O   0  0  0  0  0  0  0  0  0  0  0  0
  -24.6170  -31.8740   23.2020 C   0  0  0  0  0  0  0  0  0  0  0  0
  -27.2570  -27.4130   20.1510 C   0  0  0  0  0  0  0  0  0  0  0  0
  -23.4140  -30.4680   21.5620 C   0  0  0  0  0  3  0  0  0  0  0  0
  -24.8710  -28.9300   20.1410 C   0  0  0  0  0  0  0  0  0  0  0  0
  -25.9400  -30.8280   21.3650 C   0  0  0  0  0  2  0  0  0  0  0  0
  -26.0290  -29.4540   20.7310 C   0  0  0  0  0  0  0  0  0  0  0  0
  -27.2290  -28.7040   20.7290 C   0  0  0  0  0  3  0  0  0  0  0  0
  -26.0870  -26.9080   19.5470 C   0  0  0  0  0  3  0  0  0  0  0  0
  -24.8960  -27.6570   19.5430 C   0  0  0  0  0  3  0  0  0  0  0  0
  -23.6270  -29.7880   20.1840 C   0  0  0  0  0  2  0  0  0  0  0  0
  -24.6750  -31.0720   22.1020 N   0  0  0  0  0  0  0  0  0  0  0  0
  -23.5330  -32.1460   23.7400 O   0  0  0  0  0  0  0  0  0  0  0  0
  -22.7640  -29.4470   22.5250 C   0  0  0  0  0  0  0  0  0  0  0  0
  -21.4390  -29.2620   22.3950 N   0  0  0  0  0  0  0  0  0  0  0  0
  -23.4470  -28.8240   23.3420 O   0  0  0  0  0  0  0  0  0  0  0  0
  -20.9490  -29.8190   21.7100 H   0  0  0  0  0  0  0  0  0  0  0  0
  -18.0700  -28.0470   22.8730 C   0  0  0  0  0  0  0  0  0  0  0  0
  -20.6230  -28.3250   23.1660 C   0  0  0  0  0  3  0  0  0  0  0  0
  -20.7410  -26.8890   22.6020 C   0  0  0  0  0  2  0  0  0  0  0  0
  -19.6490  -26.5510   21.5810 C   0  0  0  0  0  2  0  0  0  0  0  0
  -18.2610  -26.6930   22.2110 C   0  0  0  0  0  2  0  0  0  0  0  0
  -19.1800  -28.8190   23.3070 C   0  0  0  0  0  0  0  0  0  0  0  0
  -18.9470  -30.0860   23.8850 C   0  0  0  0  0  3  0  0  0  0  0  0
  -17.6380  -30.5810   24.0340 C   0  0  0  0  0  3  0  0  0  0  0  0
  -16.5430  -29.8070   23.6150 C   0  0  0  0  0  3  0  0  0  0  0  0
  -16.7600  -28.5410   23.0400 C   0  0  0  0  0  3  0  0  0  0  0  0
  -25.9000  -32.5090   23.8220 C   0  0  0  0  0  3  0  0  0  0  0  0
  -25.5900  -33.9080   24.1470 N   0  0  0  0  0  0  0  0  0  0  0  0
  -25.9190  -34.9560   23.3810 C   0  0  0  0  0  0  0  0  0  0  0  0
  -26.5860  -34.8490   22.3480 O   0  0  0  0  0  0  0  0  0  0  0  0
  -24.9990  -34.0660   24.9490 H   0  0  0  0  0  0  0  0  0  0  0  0
  -24.1780  -36.7370   23.0280 C   0  0  0  0  0  1  0  0  0  0  0  0
  -25.4280  -36.3450   23.8310 C   0  0  0  0  0  3  0  0  0  0  0  0
  -27.5680  -37.2440   24.6320 C   0  0  0  0  0  1  0  0  0  0  0  0
  -26.4540  -37.4030   23.7020 N   0  0  0  0  0  0  0  0  0  0  0  0
  -26.0440  -38.3210   23.8540 H   0  0  0  0  0  0  0  0  0  0  0  0
  -26.4190  -31.7410   25.1000 C   0  0  1  0  0  0  0  0  0  0  0  0
  -25.3270  -31.5080   26.1700 C   0  0  0  0  0  1  0  0  0  0  0  0
  -27.0000  -30.3620   24.7090 C   0  0  0  0  0  1  0  0  0  0  0  0
  -27.5680  -32.5380   25.7610 C   0  0  0  0  0  1  0  0  0  0  0  0
  -29.0230  -21.6720   19.9570 C   0  0  0  0  0  2  0  0  0  0  0  0
  -28.7270  -20.4130   20.8270 C   0  0  0  0  0  2  0  0  0  0  0  0
  -29.2950  -17.9520   20.7400 C   0  0  0  0  0  0  0  0  0  0  0  0
  -29.5470  -19.2460   20.4520 N   0  0  0  0  0  0  0  0  0  0  0  0
  -28.2610  -17.5880   21.3040 O   0  0  0  0  0  0  0  0  0  0  0  0
  -30.4210  -19.4430   19.9800 H   0  0  0  0  0  0  0  0  0  0  0  0
  -30.3680  -16.9120   20.3580 C   0  0  0  0  0  2  0  0  0  0  0  0
  -30.6310  -14.4590   20.0520 C   0  0  0  0  0  0  0  0  0  0  0  0
  -30.2680  -12.2980   18.9250 C   0  0  0  0  0  2  0  0  0  0  0  0
  -29.2660  -12.5140   17.7740 C   0  0  0  0  0  2  0  0  0  0  0  0
  -27.8140  -12.3910   18.2780 C   0  0  0  0  0  2  0  0  0  0  0  0
  -27.5540  -13.2110   19.5720 C   0  0  0  0  0  3  0  0  0  0  0  0
  -28.6670  -12.9780   20.6170 C   0  0  0  0  0  2  0  0  0  0  0  0
  -29.9540  -13.2810   19.9740 N   0  0  0  0  0  0  0  0  0  0  0  0
  -31.7440  -14.6210   19.5420 O   0  0  0  0  0  0  0  0  0  0  0  0
  -29.9470  -15.5100   20.5390 N   0  0  0  0  0  0  0  0  0  0  0  0
  -29.0300  -15.3610   20.9340 H   0  0  0  0  0  0  0  0  0  0  0  0
  -25.2070  -13.8190   20.4280 C   0  0  0  0  0  0  0  0  0  0  0  0
  -24.1570  -13.0480   20.8480 C   0  0  0  0  0  0  0  0  0  0  0  0
  -24.6070  -11.6940   20.7720 C   0  0  0  0  0  0  0  0  0  0  0  0
  -26.2300  -12.9350   20.1240 N   0  0  0  0  0  0  0  0  0  0  0  0
  -25.8770  -11.6510   20.3890 N   0  0  0  0  0  0  0  0  0  0  0  0
  -23.8840  -10.4340   20.9870 C   0  0  0  0  0  0  0  0  0  0  0  0
  -24.3630   -9.4520   21.8840 C   0  0  0  0  0  3  0  0  0  0  0  0
  -23.6420   -8.2560   22.0860 C   0  0  0  0  0  3  0  0  0  0  0  0
  -22.4280   -8.0330   21.3930 C   0  0  0  0  0  0  0  0  0  0  0  0
  -21.9680   -9.0040   20.4850 C   0  0  0  0  0  3  0  0  0  0  0  0
  -22.6900  -10.1910   20.2800 C   0  0  0  0  0  3  0  0  0  0  0  0
  -21.6730   -6.8920   21.5100 O   0  0  0  0  0  0  0  0  0  0  0  0
  -21.6760   -6.1390   22.6570 C   0  0  0  0  0  0  0  0  0  0  0  0
  -21.3350   -6.6900   23.9110 C   0  0  0  0  0  3  0  0  0  0  0  0
  -21.2830   -5.8650   25.0530 C   0  0  0  0  0  3  0  0  0  0  0  0
  -21.5620   -4.4890   24.9410 C   0  0  0  0  0  0  0  0  0  0  0  0
  -21.8960   -3.9370   23.6920 C   0  0  0  0  0  3  0  0  0  0  0  0
  -21.9490   -4.7600   22.5530 C   0  0  0  0  0  0  0  0  0  0  0  0
  -22.2510   -4.2190   21.3480 F   0  0  0  0  0  0  0  0  0  0  0  0
  -21.5040   -3.6940   26.0350 F   0  0  0  0  0  0  0  0  0  0  0  0
  -22.7820  -13.5290   21.2080 C   0  0  0  0  0  0  0  0  0  0  0  0
  -22.1040  -12.8290   22.1120 N   0  0  0  0  0  0  0  0  0  0  0  0
  -22.3180  -14.5600   20.7250 O   0  0  0  0  0  0  0  0  0  0  0  0
  -22.4930  -11.9970   22.5270 H   0  0  0  0  0  0  0  0  0  0  0  0
  -21.1820  -13.1320   22.3940 H   0  0  0  0  0  0  0  0  0  0  0  0
  -25.3710  -15.1920   20.2630 N   0  0  0  0  0  0  0  0  0  0  0  0
  -24.6260  -15.8550   20.4450 H   0  0  0  0  0  0  0  0  0  0  0  0
  -26.2180  -15.6360   19.9300 H   0  0  0  0  0  0  0  0  0  0  0  0
  1  2  1  0
  1  5  1  0
  2  4  1  0
  3  1  2  0
  6  5  1  0
  7 18  2  0
  8  6  1  0
  8 13  1  0
  9 17  1  0
  9 19  1  0
 10 16  1  0
 10 12  1  0
 11 17  1  0
 12 11  1  0
 13 12  2  0
 14  8  2  0
 15 14  1  0
 15 10  2  0
 16  9  1  0
 17  7  1  0
 19 21  2  0
 20 19  1  0
 22 20  1  0
 23 32  2  0
 23 28  1  0
 24 20  1  0
 24 28  1  0
 25 24  1  0
 26 27  1  0
 26 25  1  0
 27 23  1  0
 28 29  2  0
 29 30  1  0
 31 30  2  0
 32 31  1  0
 33  7  1  0
 33 34  1  0
 33 43  1  0
 34 37  1  0
 35 39  1  0
 35 34  1  0
 36 35  2  0
 39 38  1  0
 41 39  1  0
 41 42  1  0
 41 40  1  0
 43 46  1  1
 43 44  1  0
 45 43  1  0
 47  2  1  0
 47 48  1  0
 49 51  2  0
 50 49  1  0
 50 48  1  0
 52 50  1  0
 53 62  1  0
 53 49  1  0
 54 62  1  0
 55 60  1  0
 56 57  1  0
 56 55  1  0
 58 57  1  0
 58 67  1  0
 58 59  1  0
 60 54  1  0
 60 59  1  0
 61 54  2  0
 62 63  1  0
 64 65  2  0
 65 84  1  0
 66 65  1  0
 66 69  1  0
 67 68  1  0
 67 64  1  0
 68 66  2  0
 69 70  1  0
 70 71  2  0
 72 75  1  0
 72 71  1  0
 73 72  2  0
 74 73  1  0
 74 69  2  0
 75 76  1  0
 76 77  1  0
 77 78  2  0
 79 78  1  0
 79 83  1  0
 80 79  2  0
 81 76  2  0
 81 80  1  0
 82 81  1  0
 84 85  1  0
 85 88  1  0
 85 87  1  0
 86 84  2  0
 89 64  1  0
 89 90  1  0
 91 89  1  0
M  ISO  4   5 101   6 101  54 100  62 100
M  END
>  <TORSDO>  (4) 
F 21

>  <SCORE>  (4) 
-12.880

>  <name>  (4) 
5

>  <ligand_id>  (4) 
5

>  <original_smiles>  (4) 
[H]c1c([H])c([H])c2c(c1[H])C([H])([H])C([H])([H])C([H])([H])C2([H])N([H])C(=O)C1([H])N(C(=O)C([H])(N([H])C(=O)C([H])(N([H])C([H])([H])[H])C([H])([H])[H])C(C([H])([H])[H])(C([H])([H])[H])C([H])([H])[H])C([H])([H])c2c([H])c(OC([H])([H])C(=O)N([H])C([H])([H])C([H])([H])N([H])C(=O)C([H])([H])N([H])C(=O)N3C([H])([H])C([H])([H])C([H])([H])C([H])(n4nc(-c5c([H])c([H])c(Oc6c([H])c([H])c(F)c([H])c6F)c([H])c5[H])c(C(=O)N([H])[H])c4N([H])[H])C3([H])[H])c([H])c([H])c2C1([H])[H]

>  <smiles>  (4) 
[H]c1c([H])c([H])c2c(c1[H])C([H])([H])C([H])([H])C([H])([H])C2([H])N([H])C(=O)C1([H])N(C(=O)C([H])(N([H])C(=O)C([H])(N([H])C([H])([H])[H])C([H])([H])[H])C(C([H])([H])[H])(C([H])([H])[H])C([H])([H])[H])C([H])([H])c2c([H])c(OC([H])([H])C(=O)N([H])C([H])([H])C([H])([H])N([H])C(=O)C([H])([H])N([H])C(=O)N3C([H])([H])C([H])([H])C([H])([H])C([H])(n4nc(-c5c([H])c([H])c(Oc6c([H])c([H])c(F)c([H])c6F)c([H])c5[H])c(C(=O)N([H])[H])c4N([H])[H])C3([H])[H])c([H])c([H])c2C1([H])[H]

$$$$
6:0:0
     RDKit          3D

 86 93  0  0  1  0  0  0  0  0999 V2000
  -28.8370  -22.7640   20.5210 C   0  0  0  0  0  3  0  0  0  0  0  0
  -29.3040  -19.8370   20.4720 C   0  0  0  0  0  0  0  0  0  0  0  0
  -29.1010  -21.2080   19.9240 N   0  0  0  0  0  0  0  0  0  0  0  0
  -29.0370  -19.7210   21.6680 O   0  0  0  0  0  0  0  0  0  0  0  0
  -29.2830  -21.2270   18.9280 H   0  0  0  0  0  0  0  0  0  0  0  0
  -29.9160  -18.3420   19.7690 C   0  0  0  0  0  2  0  0  0  0  0  0
  -30.5450  -15.4350   19.9120 C   0  0  0  0  0  0  0  0  0  0  0  0
  -30.4730  -13.0020   18.9930 C   0  0  0  0  0  2  0  0  0  0  0  0
  -29.4800  -12.8250   17.8150 C   0  0  0  0  0  2  0  0  0  0  0  0
  -28.0620  -12.5370   18.3380 C   0  0  0  0  0  2  0  0  0  0  0  0
  -27.6820  -13.4660   19.5160 C   0  0  0  0  0  3  0  0  0  0  0  0
  -28.7990  -13.5920   20.5770 C   0  0  0  0  0  2  0  0  0  0  0  0
  -29.9860  -14.1210   19.8860 N   0  0  0  0  0  0  0  0  0  0  0  0
  -31.7310  -15.4470   19.5520 O   0  0  0  0  0  0  0  0  0  0  0  0
  -29.7910  -16.7020   20.1270 N   0  0  0  0  0  0  0  0  0  0  0  0
  -28.8680  -16.4950   20.4780 H   0  0  0  0  0  0  0  0  0  0  0  0
  -25.3690  -13.9960   20.4450 C   0  0  0  0  0  0  0  0  0  0  0  0
  -24.3330  -13.2060   20.8550 C   0  0  0  0  0  0  0  0  0  0  0  0
  -24.7930  -11.8580   20.7430 C   0  0  0  0  0  0  0  0  0  0  0  0
  -26.3910  -13.1300   20.1000 N   0  0  0  0  0  0  0  0  0  0  0  0
  -26.0610  -11.8360   20.3460 N   0  0  0  0  0  0  0  0  0  0  0  0
  -24.0760  -10.5890   20.9320 C   0  0  0  0  0  0  0  0  0  0  0  0
  -24.5270   -9.6140   21.8480 C   0  0  0  0  0  3  0  0  0  0  0  0
  -23.8060   -8.4140   22.0280 C   0  0  0  0  0  3  0  0  0  0  0  0
  -22.6190   -8.1800   21.2940 C   0  0  0  0  0  0  0  0  0  0  0  0
  -22.1860   -9.1460   20.3670 C   0  0  0  0  0  3  0  0  0  0  0  0
  -22.9080  -10.3370   20.1840 C   0  0  0  0  0  3  0  0  0  0  0  0
  -21.8680   -7.0330   21.3840 O   0  0  0  0  0  0  0  0  0  0  0  0
  -21.8000   -6.3070   22.5460 C   0  0  0  0  0  0  0  0  0  0  0  0
  -21.3120   -6.8670   23.7470 C   0  0  0  0  0  3  0  0  0  0  0  0
  -21.1940   -6.0650   24.9000 C   0  0  0  0  0  3  0  0  0  0  0  0
  -21.5530   -4.7060   24.8530 C   0  0  0  0  0  0  0  0  0  0  0  0
  -22.0340   -4.1450   23.6560 C   0  0  0  0  0  3  0  0  0  0  0  0
  -22.1530   -4.9440   22.5060 C   0  0  0  0  0  0  0  0  0  0  0  0
  -22.5970   -4.3930   21.3500 F   0  0  0  0  0  0  0  0  0  0  0  0
  -21.4340   -3.9340   25.9590 F   0  0  0  0  0  0  0  0  0  0  0  0
  -22.9580  -13.6740   21.2300 C   0  0  0  0  0  0  0  0  0  0  0  0
  -22.2850  -12.9510   22.1170 N   0  0  0  0  0  0  0  0  0  0  0  0
  -22.4910  -14.7170   20.7720 O   0  0  0  0  0  0  0  0  0  0  0  0
  -22.6760  -12.1070   22.5080 H   0  0  0  0  0  0  0  0  0  0  0  0
  -21.3640  -13.2450   22.4110 H   0  0  0  0  0  0  0  0  0  0  0  0
  -25.5210  -15.3730   20.3060 N   0  0  0  0  0  0  0  0  0  0  0  0
  -24.7590  -16.0170   20.4850 H   0  0  0  0  0  0  0  0  0  0  0  0
  -26.3290  -15.8220   19.8970 H   0  0  0  0  0  0  0  0  0  0  0  0
  -28.1150  -24.3050   19.8790 C   0  0  0  0  0  3  0  0  0  0  0  0
  -28.1940  -25.9180   20.2780 O   0  0  0  0  0  0  0  0  0  0  0  0
  -24.5950  -31.8880   23.1940 C   0  0  0  0  0  0  0  0  0  0  0  0
  -27.1750  -27.0110   20.1740 C   0  0  0  0  0  0  0  0  0  0  0  0
  -23.4050  -30.4810   21.5610 C   0  0  0  0  0  3  0  0  0  0  0  0
  -24.8610  -28.8830   20.1320 C   0  0  0  0  0  0  0  0  0  0  0  0
  -25.9690  -30.7060   21.4070 C   0  0  0  0  0  2  0  0  0  0  0  0
  -26.0460  -29.2950   20.7520 C   0  0  0  0  0  0  0  0  0  0  0  0
  -27.1940  -28.3790   20.7500 C   0  0  0  0  0  3  0  0  0  0  0  0
  -25.9610  -26.7580   19.4960 C   0  0  0  0  0  3  0  0  0  0  0  0
  -24.8440  -27.6370   19.4830 C   0  0  0  0  0  3  0  0  0  0  0  0
  -23.6350  -29.7950   20.1850 C   0  0  0  0  0  2  0  0  0  0  0  0
  -24.6780  -31.0530   22.1080 N   0  0  0  0  0  0  0  0  0  0  0  0
  -23.5050  -32.1710   23.7190 O   0  0  0  0  0  0  0  0  0  0  0  0
  -22.7210  -29.4820   22.5320 C   0  0  0  0  0  0  0  0  0  0  0  0
  -21.3910  -29.3080   22.4130 N   0  0  0  0  0  0  0  0  0  0  0  0
  -23.3930  -28.8650   23.3630 O   0  0  0  0  0  0  0  0  0  0  0  0
  -20.9010  -29.8570   21.7200 H   0  0  0  0  0  0  0  0  0  0  0  0
  -18.0190  -28.0780   22.9440 C   0  0  0  0  0  0  0  0  0  0  0  0
  -20.5790  -28.3650   23.1900 C   0  0  0  0  0  3  0  0  0  0  0  0
  -20.6870  -26.9330   22.6150 C   0  0  0  0  0  2  0  0  0  0  0  0
  -19.5810  -26.6030   21.6070 C   0  0  0  0  0  2  0  0  0  0  0  0
  -18.2020  -26.7330   22.2610 C   0  0  0  0  0  2  0  0  0  0  0  0
  -19.1340  -28.8510   23.3650 C   0  0  0  0  0  0  0  0  0  0  0  0
  -18.9060  -30.1080   23.9670 C   0  0  0  0  0  3  0  0  0  0  0  0
  -17.5960  -30.5930   24.1480 C   0  0  0  0  0  3  0  0  0  0  0  0
  -16.4970  -29.8180   23.7400 C   0  0  0  0  0  3  0  0  0  0  0  0
  -16.7080  -28.5620   23.1440 C   0  0  0  0  0  3  0  0  0  0  0  0
  -25.8630  -32.5410   23.8220 C   0  0  0  0  0  3  0  0  0  0  0  0
  -26.3680  -31.7940   25.1190 C   0  0  1  0  0  0  0  0  0  0  0  0
  -25.2640  -31.5700   26.1790 C   0  0  0  0  0  1  0  0  0  0  0  0
  -26.9610  -30.4120   24.7640 C   0  0  0  0  0  1  0  0  0  0  0  0
  -27.5080  -32.6040   25.7790 C   0  0  0  0  0  1  0  0  0  0  0  0
  -25.5400  -33.9440   24.1420 N   0  0  0  0  0  0  0  0  0  0  0  0
  -25.8640  -35.0000   23.3830 C   0  0  0  0  0  0  0  0  0  0  0  0
  -26.5290  -34.8960   22.3480 O   0  0  0  0  0  0  0  0  0  0  0  0
  -24.9480  -34.0970   24.9440 H   0  0  0  0  0  0  0  0  0  0  0  0
  -24.1290  -36.7940   23.0420 C   0  0  0  0  0  1  0  0  0  0  0  0
  -25.3790  -36.3910   23.8420 C   0  0  0  0  0  3  0  0  0  0  0  0
  -27.5130  -37.2930   24.6600 C   0  0  0  0  0  1  0  0  0  0  0  0
  -26.4080  -37.4470   23.7170 N   0  0  0  0  0  0  0  0  0  0  0  0
  -25.9980  -38.3670   23.8570 H   0  0  0  0  0  0  0  0  0  0  0  0
  2  4  2  0
  3  2  1  0
  3  1  1  0
  5  3  1  0
  6 15  1  0
  6  2  1  0
  7 15  1  0
  8 13  1  0
  9 10  1  0
  9  8  1  0
 11 10  1  0
 11 20  1  0
 11 12  1  0
 13  7  1  0
 13 12  1  0
 14  7  2  0
 15 16  1  0
 17 18  2  0
 18 37  1  0
 19 18  1  0
 19 22  1  0
 20 21  1  0
 20 17  1  0
 21 19  2  0
 22 23  1  0
 23 24  2  0
 25 28  1  0
 25 24  1  0
 26 25  2  0
 27 26  1  0
 27 22  2  0
 28 29  1  0
 29 30  1  0
 30 31  2  0
 32 31  1  0
 32 36  1  0
 33 32  2  0
 34 29  2  0
 34 33  1  0
 35 34  1  0
 37 38  1  0
 38 41  1  0
 38 40  1  0
 39 37  2  0
 42 17  1  0
 42 43  1  0
 44 42  1  0
 45 46  1  0
 45  1  2  0
 47 58  2  0
 48 46  1  0
 48 53  1  0
 49 57  1  0
 49 59  1  0
 50 56  1  0
 50 52  1  0
 51 57  1  0
 52 51  1  0
 53 52  2  0
 54 48  2  0
 55 54  1  0
 55 50  2  0
 56 49  1  0
 57 47  1  0
 59 61  2  0
 60 59  1  0
 62 60  1  0
 63 72  2  0
 63 68  1  0
 64 60  1  0
 64 68  1  0
 65 64  1  0
 66 67  1  0
 66 65  1  0
 67 63  1  0
 68 69  2  0
 69 70  1  0
 71 70  2  0
 72 71  1  0
 73 47  1  0
 73 78  1  0
 73 74  1  0
 74 77  1  1
 74 75  1  0
 76 74  1  0
 78 81  1  0
 79 83  1  0
 79 78  1  0
 80 79  2  0
 83 82  1  0
 85 83  1  0
 85 86  1  0
 85 84  1  0
M  ISO  4   7 100  15 100  45 101  46 101
M  END
>  <TORSDO>  (5) 
F 19

>  <SCORE>  (5) 
-15.612

>  <name>  (5) 
6

>  <ligand_id>  (5) 
6

>  <original_smiles>  (5) 
[H]c1c([H])c([H])c2c(c1[H])C([H])([H])C([H])([H])C([H])([H])C2([H])N([H])C(=O)C1([H])N(C(=O)C([H])(N([H])C(=O)C([H])(N([H])C([H])([H])[H])C([H])([H])[H])C(C([H])([H])[H])(C([H])([H])[H])C([H])([H])[H])C([H])([H])c2c([H])c(OC([H])([H])C([H])([H])N([H])C(=O)C([H])([H])N([H])C(=O)N3C([H])([H])C([H])([H])C([H])([H])C([H])(n4nc(-c5c([H])c([H])c(Oc6c([H])c([H])c(F)c([H])c6F)c([H])c5[H])c(C(=O)N([H])[H])c4N([H])[H])C3([H])[H])c([H])c([H])c2C1([H])[H]

>  <smiles>  (5) 
[H]c1c([H])c([H])c2c(c1[H])C([H])([H])C([H])([H])C([H])([H])C2([H])N([H])C(=O)C1([H])N(C(=O)C([H])(N([H])C(=O)C([H])(N([H])C([H])([H])[H])C([H])([H])[H])C(C([H])([H])[H])(C([H])([H])[H])C([H])([H])[H])C([H])([H])c2c([H])c(OC([H])([H])C([H])([H])N([H])C(=O)C([H])([H])N([H])C(=O)N3C([H])([H])C([H])([H])C([H])([H])C([H])(n4nc(-c5c([H])c([H])c(Oc6c([H])c([H])c(F)c([H])c6F)c([H])c5[H])c(C(=O)N([H])[H])c4N([H])[H])C3([H])[H])c([H])c([H])c2C1([H])[H]

$$$$
7:0:0
     RDKit          3D

 86 93  0  0  1  0  0  0  0  0999 V2000
  -28.8370  -22.7640   20.5210 C   0  0  0  0  0  3  0  0  0  0  0  0
  -29.3040  -19.8370   20.4720 C   0  0  0  0  0  0  0  0  0  0  0  0
  -29.1010  -21.2080   19.9240 N   0  0  0  0  0  0  0  0  0  0  0  0
  -29.0370  -19.7210   21.6680 O   0  0  0  0  0  0  0  0  0  0  0  0
  -29.2830  -21.2270   18.9280 H   0  0  0  0  0  0  0  0  0  0  0  0
  -29.9160  -18.3420   19.7690 C   0  0  0  0  0  2  0  0  0  0  0  0
  -30.5450  -15.4350   19.9120 C   0  0  0  0  0  0  0  0  0  0  0  0
  -30.4730  -13.0020   18.9930 C   0  0  0  0  0  2  0  0  0  0  0  0
  -29.4800  -12.8250   17.8150 C   0  0  0  0  0  2  0  0  0  0  0  0
  -28.0620  -12.5370   18.3380 C   0  0  0  0  0  2  0  0  0  0  0  0
  -27.6820  -13.4660   19.5160 C   0  0  0  0  0  3  0  0  0  0  0  0
  -28.7990  -13.5920   20.5770 C   0  0  0  0  0  2  0  0  0  0  0  0
  -29.9860  -14.1210   19.8860 N   0  0  0  0  0  0  0  0  0  0  0  0
  -31.7310  -15.4470   19.5520 O   0  0  0  0  0  0  0  0  0  0  0  0
  -29.7910  -16.7020   20.1270 N   0  0  0  0  0  0  0  0  0  0  0  0
  -28.8680  -16.4950   20.4780 H   0  0  0  0  0  0  0  0  0  0  0  0
  -25.3690  -13.9960   20.4450 C   0  0  0  0  0  0  0  0  0  0  0  0
  -24.3330  -13.2060   20.8550 C   0  0  0  0  0  0  0  0  0  0  0  0
  -24.7930  -11.8580   20.7430 C   0  0  0  0  0  0  0  0  0  0  0  0
  -26.3910  -13.1300   20.1000 N   0  0  0  0  0  0  0  0  0  0  0  0
  -26.0610  -11.8360   20.3460 N   0  0  0  0  0  0  0  0  0  0  0  0
  -24.0760  -10.5890   20.9320 C   0  0  0  0  0  0  0  0  0  0  0  0
  -24.5270   -9.6140   21.8480 C   0  0  0  0  0  3  0  0  0  0  0  0
  -23.8060   -8.4140   22.0280 C   0  0  0  0  0  3  0  0  0  0  0  0
  -22.6190   -8.1800   21.2940 C   0  0  0  0  0  0  0  0  0  0  0  0
  -22.1860   -9.1460   20.3670 C   0  0  0  0  0  3  0  0  0  0  0  0
  -22.9080  -10.3370   20.1840 C   0  0  0  0  0  3  0  0  0  0  0  0
  -21.8680   -7.0330   21.3840 O   0  0  0  0  0  0  0  0  0  0  0  0
  -21.8000   -6.3070   22.5460 C   0  0  0  0  0  0  0  0  0  0  0  0
  -21.3120   -6.8670   23.7470 C   0  0  0  0  0  3  0  0  0  0  0  0
  -21.1940   -6.0650   24.9000 C   0  0  0  0  0  3  0  0  0  0  0  0
  -21.5530   -4.7060   24.8530 C   0  0  0  0  0  0  0  0  0  0  0  0
  -22.0340   -4.1450   23.6560 C   0  0  0  0  0  3  0  0  0  0  0  0
  -22.1530   -4.9440   22.5060 C   0  0  0  0  0  0  0  0  0  0  0  0
  -22.5970   -4.3930   21.3500 F   0  0  0  0  0  0  0  0  0  0  0  0
  -21.4340   -3.9340   25.9590 F   0  0  0  0  0  0  0  0  0  0  0  0
  -22.9580  -13.6740   21.2300 C   0  0  0  0  0  0  0  0  0  0  0  0
  -22.2850  -12.9510   22.1170 N   0  0  0  0  0  0  0  0  0  0  0  0
  -22.4910  -14.7170   20.7720 O   0  0  0  0  0  0  0  0  0  0  0  0
  -22.6760  -12.1070   22.5080 H   0  0  0  0  0  0  0  0  0  0  0  0
  -21.3640  -13.2450   22.4110 H   0  0  0  0  0  0  0  0  0  0  0  0
  -25.5210  -15.3730   20.3060 N   0  0  0  0  0  0  0  0  0  0  0  0
  -24.7590  -16.0170   20.4850 H   0  0  0  0  0  0  0  0  0  0  0  0
  -26.3290  -15.8220   19.8970 H   0  0  0  0  0  0  0  0  0  0  0  0
  -28.1150  -24.3050   19.8790 C   0  0  0  0  0  3  0  0  0  0  0  0
  -28.1940  -25.9180   20.2780 O   0  0  0  0  0  0  0  0  0  0  0  0
  -24.5950  -31.8880   23.1940 C   0  0  0  0  0  0  0  0  0  0  0  0
  -27.1750  -27.0110   20.1740 C   0  0  0  0  0  0  0  0  0  0  0  0
  -23.4050  -30.4810   21.5610 C   0  0  0  0  0  3  0  0  0  0  0  0
  -24.8610  -28.8830   20.1320 C   0  0  0  0  0  0  0  0  0  0  0  0
  -25.9690  -30.7060   21.4070 C   0  0  0  0  0  2  0  0  0  0  0  0
  -26.0460  -29.2950   20.7520 C   0  0  0  0  0  0  0  0  0  0  0  0
  -27.1940  -28.3790   20.7500 C   0  0  0  0  0  3  0  0  0  0  0  0
  -25.9610  -26.7580   19.4960 C   0  0  0  0  0  3  0  0  0  0  0  0
  -24.8440  -27.6370   19.4830 C   0  0  0  0  0  3  0  0  0  0  0  0
  -23.6350  -29.7950   20.1850 C   0  0  0  0  0  2  0  0  0  0  0  0
  -24.6780  -31.0530   22.1080 N   0  0  0  0  0  0  0  0  0  0  0  0
  -23.5050  -32.1710   23.7190 O   0  0  0  0  0  0  0  0  0  0  0  0
  -22.7210  -29.4820   22.5320 C   0  0  0  0  0  0  0  0  0  0  0  0
  -21.3910  -29.3080   22.4130 N   0  0  0  0  0  0  0  0  0  0  0  0
  -23.3930  -28.8650   23.3630 O   0  0  0  0  0  0  0  0  0  0  0  0
  -20.9010  -29.8570   21.7200 H   0  0  0  0  0  0  0  0  0  0  0  0
  -18.0190  -28.0780   22.9440 C   0  0  0  0  0  0  0  0  0  0  0  0
  -20.5790  -28.3650   23.1900 C   0  0  0  0  0  3  0  0  0  0  0  0
  -20.6870  -26.9330   22.6150 C   0  0  0  0  0  2  0  0  0  0  0  0
  -19.5810  -26.6030   21.6070 C   0  0  0  0  0  2  0  0  0  0  0  0
  -18.2020  -26.7330   22.2610 C   0  0  0  0  0  2  0  0  0  0  0  0
  -19.1340  -28.8510   23.3650 C   0  0  0  0  0  0  0  0  0  0  0  0
  -18.9060  -30.1080   23.9670 C   0  0  0  0  0  3  0  0  0  0  0  0
  -17.5960  -30.5930   24.1480 C   0  0  0  0  0  3  0  0  0  0  0  0
  -16.4970  -29.8180   23.7400 C   0  0  0  0  0  3  0  0  0  0  0  0
  -16.7080  -28.5620   23.1440 C   0  0  0  0  0  3  0  0  0  0  0  0
  -25.8630  -32.5410   23.8220 C   0  0  0  0  0  3  0  0  0  0  0  0
  -26.3680  -31.7940   25.1190 C   0  0  1  0  0  0  0  0  0  0  0  0
  -25.2640  -31.5700   26.1790 C   0  0  0  0  0  1  0  0  0  0  0  0
  -26.9610  -30.4120   24.7640 C   0  0  0  0  0  1  0  0  0  0  0  0
  -27.5080  -32.6040   25.7790 C   0  0  0  0  0  1  0  0  0  0  0  0
  -25.5400  -33.9440   24.1420 N   0  0  0  0  0  0  0  0  0  0  0  0
  -25.8640  -35.0000   23.3830 C   0  0  0  0  0  0  0  0  0  0  0  0
  -26.5290  -34.8960   22.3480 O   0  0  0  0  0  0  0  0  0  0  0  0
  -24.9480  -34.0970   24.9440 H   0  0  0  0  0  0  0  0  0  0  0  0
  -24.1290  -36.7940   23.0420 C   0  0  0  0  0  1  0  0  0  0  0  0
  -25.3790  -36.3910   23.8420 C   0  0  0  0  0  3  0  0  0  0  0  0
  -27.5130  -37.2930   24.6600 C   0  0  0  0  0  1  0  0  0  0  0  0
  -26.4080  -37.4470   23.7170 N   0  0  0  0  0  0  0  0  0  0  0  0
  -25.9980  -38.3670   23.8570 H   0  0  0  0  0  0  0  0  0  0  0  0
  2  4  2  0
  3  2  1  0
  3  1  1  0
  5  3  1  0
  6 15  1  0
  6  2  1  0
  7 15  1  0
  8 13  1  0
  9 10  1  0
  9  8  1  0
 11 10  1  0
 11 20  1  0
 11 12  1  0
 13  7  1  0
 13 12  1  0
 14  7  2  0
 15 16  1  0
 17 18  2  0
 18 37  1  0
 19 18  1  0
 19 22  1  0
 20 21  1  0
 20 17  1  0
 21 19  2  0
 22 23  1  0
 23 24  2  0
 25 28  1  0
 25 24  1  0
 26 25  2  0
 27 26  1  0
 27 22  2  0
 28 29  1  0
 29 30  1  0
 30 31  2  0
 32 31  1  0
 32 36  1  0
 33 32  2  0
 34 29  2  0
 34 33  1  0
 35 34  1  0
 37 38  1  0
 38 41  1  0
 38 40  1  0
 39 37  2  0
 42 17  1  0
 42 43  1  0
 44 42  1  0
 45 46  1  0
 45  1  2  0
 47 58  2  0
 48 46  1  0
 48 53  1  0
 49 57  1  0
 49 59  1  0
 50 56  1  0
 50 52  1  0
 51 57  1  0
 52 51  1  0
 53 52  2  0
 54 48  2  0
 55 54  1  0
 55 50  2  0
 56 49  1  0
 57 47  1  0
 59 61  2  0
 60 59  1  0
 62 60  1  0
 63 72  2  0
 63 68  1  0
 64 60  1  0
 64 68  1  0
 65 64  1  0
 66 67  1  0
 66 65  1  0
 67 63  1  0
 68 69  2  0
 69 70  1  0
 71 70  2  0
 72 71  1  0
 73 47  1  0
 73 78  1  0
 73 74  1  0
 74 77  1  1
 74 75  1  0
 76 74  1  0
 78 81  1  0
 79 83  1  0
 79 78  1  0
 80 79  2  0
 83 82  1  0
 85 83  1  0
 85 86  1  0
 85 84  1  0
M  ISO  4   7 100  15 100  45 101  46 101
M  END
>  <TORSDO>  (6) 
F 19

>  <SCORE>  (6) 
-15.612

>  <name>  (6) 
7

>  <ligand_id>  (6) 
7

>  <original_smiles>  (6) 
[H]c1c([H])c([H])c2c(c1[H])C([H])([H])C([H])([H])C([H])([H])C2([H])N([H])C(=O)C1([H])N(C(=O)C([H])(N([H])C(=O)C([H])(N([H])C([H])([H])[H])C([H])([H])[H])C(C([H])([H])[H])(C([H])([H])[H])C([H])([H])[H])C([H])([H])c2c([H])c(OC([H])([H])C([H])([H])N([H])C(=O)C([H])([H])N([H])C(=O)N3C([H])([H])C([H])([H])C([H])([H])C([H])(n4nc(-c5c([H])c([H])c(Oc6c([H])c([H])c(F)c([H])c6F)c([H])c5[H])c(C(=O)N([H])[H])c4N([H])[H])C3([H])[H])c([H])c([H])c2C1([H])[H]

>  <smiles>  (6) 
[H]c1c([H])c([H])c2c(c1[H])C([H])([H])C([H])([H])C([H])([H])C2([H])N([H])C(=O)C1([H])N(C(=O)C([H])(N([H])C(=O)C([H])(N([H])C([H])([H])[H])C([H])([H])[H])C(C([H])([H])[H])(C([H])([H])[H])C([H])([H])[H])C([H])([H])c2c([H])c(OC([H])([H])C([H])([H])N([H])C(=O)C([H])([H])N([H])C(=O)N3C([H])([H])C([H])([H])C([H])([H])C([H])(n4nc(-c5c([H])c([H])c(Oc6c([H])c([H])c(F)c([H])c6F)c([H])c5[H])c(C(=O)N([H])[H])c4N([H])[H])C3([H])[H])c([H])c([H])c2C1([H])[H]

$$$$
8:0:0
     RDKit          3D

103110  0  0  1  0  0  0  0  0999 V2000
  -29.0830  -20.6290   20.1520 C   0  0  0  0  0  3  0  0  0  0  0  0
  -29.7210  -21.9870   20.5820 C   0  0  0  0  0  0  0  0  0  0  0  0
  -29.2970  -23.1140   19.9730 N   0  0  0  0  0  0  0  0  0  0  0  0
  -30.5690  -22.0120   21.4770 O   0  0  0  0  0  0  0  0  0  0  0  0
  -28.6150  -22.9880   19.2400 H   0  0  0  0  0  0  0  0  0  0  0  0
  -29.6330  -24.5160   20.3040 C   0  0  0  0  0  2  0  0  0  0  0  0
  -28.5260  -25.4830   19.7980 C   0  0  0  0  0  2  0  0  0  0  0  0
  -28.6730  -26.8920   20.1160 O   0  0  0  0  0  0  0  0  0  0  0  0
  -24.6230  -31.7970   23.3850 C   0  0  0  0  0  0  0  0  0  0  0  0
  -27.5130  -27.6600   20.0700 C   0  0  0  0  0  0  0  0  0  0  0  0
  -23.5420  -30.5420   21.5520 C   0  0  0  0  0  3  0  0  0  0  0  0
  -25.1040  -29.1700   20.0760 C   0  0  0  0  0  0  0  0  0  0  0  0
  -26.0750  -30.9390   21.5440 C   0  0  0  0  0  2  0  0  0  0  0  0
  -26.2210  -29.6360   20.7790 C   0  0  0  0  0  0  0  0  0  0  0  0
  -27.4290  -28.8920   20.7720 C   0  0  0  0  0  3  0  0  0  0  0  0
  -26.3710  -27.2310   19.3490 C   0  0  0  0  0  3  0  0  0  0  0  0
  -25.1760  -27.9690   19.3550 C   0  0  0  0  0  3  0  0  0  0  0  0
  -23.8450  -30.0050   20.1300 C   0  0  0  0  0  2  0  0  0  0  0  0
  -24.7610  -31.1030   22.2190 N   0  0  0  0  0  0  0  0  0  0  0  0
  -23.5050  -32.0040   23.8790 O   0  0  0  0  0  0  0  0  0  0  0  0
  -22.8540  -29.4250   22.3700 C   0  0  0  0  0  0  0  0  0  0  0  0
  -21.5320  -29.2710   22.1840 N   0  0  0  0  0  0  0  0  0  0  0  0
  -23.5080  -28.7020   23.1260 O   0  0  0  0  0  0  0  0  0  0  0  0
  -21.0670  -29.9060   21.5510 H   0  0  0  0  0  0  0  0  0  0  0  0
  -18.1260  -28.0990   22.4890 C   0  0  0  0  0  0  0  0  0  0  0  0
  -20.6850  -28.2610   22.8190 C   0  0  0  0  0  3  0  0  0  0  0  0
  -20.7650  -26.9130   22.0650 C   0  0  0  0  0  2  0  0  0  0  0  0
  -19.6690  -26.7470   21.0080 C   0  0  0  0  0  2  0  0  0  0  0  0
  -18.2830  -26.8410   21.6500 C   0  0  0  0  0  2  0  0  0  0  0  0
  -19.2550  -28.7740   23.0250 C   0  0  0  0  0  0  0  0  0  0  0  0
  -19.0550  -29.9560   23.7690 C   0  0  0  0  0  3  0  0  0  0  0  0
  -17.7590  -30.4640   23.9820 C   0  0  0  0  0  3  0  0  0  0  0  0
  -16.6440  -29.7830   23.4620 C   0  0  0  0  0  3  0  0  0  0  0  0
  -16.8290  -28.6020   22.7220 C   0  0  0  0  0  3  0  0  0  0  0  0
  -25.8570  -32.3830   24.1380 C   0  0  0  0  0  3  0  0  0  0  0  0
  -26.2740  -31.5370   25.4020 C   0  0  1  0  0  0  0  0  0  0  0  0
  -25.1040  -31.2530   26.3720 C   0  0  0  0  0  1  0  0  0  0  0  0
  -26.8740  -30.1760   24.9750 C   0  0  0  0  0  1  0  0  0  0  0  0
  -27.3800  -32.2790   26.1890 C   0  0  0  0  0  1  0  0  0  0  0  0
  -25.5260  -33.7620   24.5230 N   0  0  0  0  0  0  0  0  0  0  0  0
  -25.9040  -34.8530   23.8440 C   0  0  0  0  0  0  0  0  0  0  0  0
  -26.6380  -34.8040   22.8540 O   0  0  0  0  0  0  0  0  0  0  0  0
  -24.8820  -33.8740   25.2930 H   0  0  0  0  0  0  0  0  0  0  0  0
  -24.1870  -36.6560   23.4860 C   0  0  0  0  0  1  0  0  0  0  0  0
  -25.3840  -36.2150   24.3430 C   0  0  0  0  0  3  0  0  0  0  0  0
  -27.4640  -37.0620   25.3340 C   0  0  0  0  0  1  0  0  0  0  0  0
  -26.4150  -37.2740   24.3410 N   0  0  0  0  0  0  0  0  0  0  0  0
  -25.9970  -38.1850   24.5100 H   0  0  0  0  0  0  0  0  0  0  0  0
  -29.6220  -18.1860   20.5660 C   0  0  0  0  0  0  0  0  0  0  0  0
  -29.6830  -19.4940   20.8900 N   0  0  0  0  0  0  0  0  0  0  0  0
  -29.0570  -17.7870   19.5450 O   0  0  0  0  0  0  0  0  0  0  0  0
  -30.2060  -19.7610   21.7160 H   0  0  0  0  0  0  0  0  0  0  0  0
  -30.2620  -17.1620   21.5290 C   0  0  0  0  0  2  0  0  0  0  0  0
  -30.5110  -14.8230   20.6060 C   0  0  0  0  0  0  0  0  0  0  0  0
  -30.2430  -12.7530   19.2830 C   0  0  0  0  0  2  0  0  0  0  0  0
  -29.3130  -13.0340   18.0860 C   0  0  0  0  0  2  0  0  0  0  0  0
  -27.8350  -12.8520   18.4850 C   0  0  0  0  0  2  0  0  0  0  0  0
  -27.4760  -13.5830   19.8060 C   0  0  0  0  0  3  0  0  0  0  0  0
  -28.5230  -13.2920   20.9050 C   0  0  0  0  0  2  0  0  0  0  0  0
  -29.8460  -13.6560   20.3750 N   0  0  0  0  0  0  0  0  0  0  0  0
  -31.6300  -15.0560   20.1410 O   0  0  0  0  0  0  0  0  0  0  0  0
  -29.8320  -15.7670   21.2840 N   0  0  0  0  0  0  0  0  0  0  0  0
  -28.8930  -15.5320   21.5680 H   0  0  0  0  0  0  0  0  0  0  0  0
  -25.0660  -14.1110   20.5370 C   0  0  0  0  0  0  0  0  0  0  0  0
  -24.0000  -13.3050   20.8340 C   0  0  0  0  0  0  0  0  0  0  0  0
  -24.4730  -11.9630   20.7020 C   0  0  0  0  0  0  0  0  0  0  0  0
  -26.1210  -13.2590   20.2480 N   0  0  0  0  0  0  0  0  0  0  0  0
  -25.7660  -11.9570   20.4040 N   0  0  0  0  0  0  0  0  0  0  0  0
  -23.7550  -10.6850   20.7880 C   0  0  0  0  0  0  0  0  0  0  0  0
  -24.2260   -9.6260   21.5940 C   0  0  0  0  0  3  0  0  0  0  0  0
  -23.5110   -8.4110   21.6730 C   0  0  0  0  0  3  0  0  0  0  0  0
  -22.3060   -8.2490   20.9460 C   0  0  0  0  0  0  0  0  0  0  0  0
  -21.8540   -9.2990   20.1270 C   0  0  0  0  0  3  0  0  0  0  0  0
  -22.5710  -10.5040   20.0450 C   0  0  0  0  0  3  0  0  0  0  0  0
  -21.5560   -7.0990   20.9420 O   0  0  0  0  0  0  0  0  0  0  0  0
  -21.6040   -6.2070   21.9830 C   0  0  0  0  0  0  0  0  0  0  0  0
  -21.3160   -6.5930   23.3100 C   0  0  0  0  0  3  0  0  0  0  0  0
  -21.3090   -5.6280   24.3380 C   0  0  0  0  0  3  0  0  0  0  0  0
  -21.5760   -4.2780   24.0390 C   0  0  0  0  0  0  0  0  0  0  0  0
  -21.8560   -3.8920   22.7170 C   0  0  0  0  0  3  0  0  0  0  0  0
  -21.8670   -4.8530   21.6910 C   0  0  0  0  0  0  0  0  0  0  0  0
  -22.1170   -4.4720   20.4160 F   0  0  0  0  0  0  0  0  0  0  0  0
  -21.5600   -3.3500   25.0240 F   0  0  0  0  0  0  0  0  0  0  0  0
  -22.5970  -13.7500   21.1280 C   0  0  0  0  0  0  0  0  0  0  0  0
  -21.8760  -13.0020   21.9560 N   0  0  0  0  0  0  0  0  0  0  0  0
  -22.1470  -14.7960   20.6620 O   0  0  0  0  0  0  0  0  0  0  0  0
  -22.2540  -12.1590   22.3600 H   0  0  0  0  0  0  0  0  0  0  0  0
  -20.9340  -13.2790   22.1900 H   0  0  0  0  0  0  0  0  0  0  0  0
  -25.2200  -15.4930   20.4710 N   0  0  0  0  0  0  0  0  0  0  0  0
  -24.4400  -16.1240   20.6180 H   0  0  0  0  0  0  0  0  0  0  0  0
  -26.0690  -15.9700   20.1870 H   0  0  0  0  0  0  0  0  0  0  0  0
  -27.5410  -20.6120   20.3410 C   0  0  0  0  0  2  0  0  0  0  0  0
  -26.7440  -21.3880   19.2720 C   0  0  0  0  0  2  0  0  0  0  0  0
  -25.3130  -21.7310   19.7130 C   0  0  0  0  0  2  0  0  0  0  0  0
  -24.9600  -24.1690   20.2880 C   0  0  0  0  0  0  0  0  0  0  0  0
  -24.9980  -25.1080   21.2300 N   0  0  0  0  0  0  0  0  0  0  0  0
  -24.5970  -24.4960   19.0450 N   0  0  0  0  0  4  0  0  0  0  0  0
  -25.2980  -22.9090   20.6010 N   0  0  0  0  0  0  0  0  0  0  0  0
  -24.7610  -26.0750   21.0500 H   0  0  0  0  0  0  0  0  0  0  0  0
  -25.2610  -24.9050   22.1860 H   0  0  0  0  0  0  0  0  0  0  0  0
  -24.3230  -25.4340   18.7870 H   0  0  0  0  0  0  0  0  0  0  0  0
  -24.5460  -23.8030   18.3140 H   0  0  0  0  0  0  0  0  0  0  0  0
  -25.5590  -22.6980   21.5590 H   0  0  0  0  0  0  0  0  0  0  0  0
  1 92  1  0
  1  2  1  0
  1 50  1  0
  2  4  2  0
  3  6  1  0
  3  2  1  0
  5  3  1  0
  7  8  1  0
  7  6  1  0
  9 20  2  0
 10  8  1  0
 10 15  1  0
 11 19  1  0
 11 21  1  0
 12 18  1  0
 12 14  1  0
 13 19  1  0
 14 13  1  0
 15 14  2  0
 16 17  1  0
 16 10  2  0
 17 12  2  0
 18 11  1  0
 19  9  1  0
 21 23  2  0
 22 21  1  0
 24 22  1  0
 25 34  2  0
 25 30  1  0
 26 22  1  0
 26 30  1  0
 27 26  1  0
 28 29  1  0
 28 27  1  0
 29 25  1  0
 30 31  2  0
 31 32  1  0
 33 32  2  0
 34 33  1  0
 35  9  1  0
 35 40  1  0
 35 36  1  0
 36 39  1  1
 36 37  1  0
 38 36  1  0
 40 43  1  0
 41 45  1  0
 41 40  1  0
 42 41  2  0
 45 44  1  0
 47 45  1  0
 47 48  1  0
 47 46  1  0
 49 50  1  0
 49 53  1  0
 50 52  1  0
 51 49  2  0
 54 62  1  0
 55 60  1  0
 56 57  1  0
 56 55  1  0
 58 57  1  0
 58 67  1  0
 58 59  1  0
 60 54  1  0
 60 59  1  0
 61 54  2  0
 62 53  1  0
 62 63  1  0
 64 65  2  0
 65 84  1  0
 66 69  1  0
 66 65  1  0
 67 68  1  0
 67 64  1  0
 68 66  2  0
 69 70  1  0
 70 71  2  0
 72 71  1  0
 73 72  2  0
 74 73  1  0
 74 69  2  0
 75 72  1  0
 75 76  1  0
 76 77  1  0
 77 78  2  0
 79 78  1  0
 79 83  1  0
 80 79  2  0
 81 76  2  0
 81 80  1  0
 82 81  1  0
 84 85  1  0
 85 88  1  0
 85 87  1  0
 86 84  2  0
 89 64  1  0
 89 90  1  0
 91 89  1  0
 93 94  1  0
 93 92  1  0
 94 98  1  0
 95 98  1  0
 95 96  1  0
 96100  1  0
 97 95  2  0
 98103  1  0
 99 96  1  0
101 97  1  0
102 97  1  0
M  ISO  4   7 101   8 101  54 100  62 100
M  END
>  <TORSDO>  (7) 
F 25

>  <SCORE>  (7) 
-10.925

>  <name>  (7) 
8

>  <ligand_id>  (7) 
8

>  <original_smiles>  (7) 
[H]c1c([H])c([H])c2c(c1[H])C([H])([H])C([H])([H])C([H])([H])C2([H])N([H])C(=O)C1([H])N(C(=O)C([H])(N([H])C(=O)C([H])(N([H])C([H])([H])[H])C([H])([H])[H])C(C([H])([H])[H])(C([H])([H])[H])C([H])([H])[H])C([H])([H])c2c([H])c(OC([H])([H])C([H])([H])N([H])C(=O)C([H])(N([H])C(=O)C([H])([H])N([H])C(=O)N3C([H])([H])C([H])([H])C([H])([H])C([H])(n4nc(-c5c([H])c([H])c(Oc6c([H])c([H])c(F)c([H])c6F)c([H])c5[H])c(C(=O)N([H])[H])c4N([H])[H])C3([H])[H])C([H])([H])C([H])([H])C([H])([H])N([H])C(N([H])[H])=[N+]([H])[H])c([H])c([H])c2C1([H])[H]

>  <smiles>  (7) 
[H]c1c([H])c([H])c2c(c1[H])C([H])([H])C([H])([H])C([H])([H])C2([H])N([H])C(=O)C1([H])N(C(=O)C([H])(N([H])C(=O)C([H])(N([H])C([H])([H])[H])C([H])([H])[H])C(C([H])([H])[H])(C([H])([H])[H])C([H])([H])[H])C([H])([H])c2c([H])c(OC([H])([H])C([H])([H])N([H])C(=O)C([H])(N([H])C(=O)C([H])([H])N([H])C(=O)N3C([H])([H])C([H])([H])C([H])([H])C([H])(n4nc(-c5c([H])c([H])c(Oc6c([H])c([H])c(F)c([H])c6F)c([H])c5[H])c(C(=O)N([H])[H])c4N([H])[H])C3([H])[H])C([H])([H])C([H])([H])C([H])([H])N([H])C(N([H])[H])=[N+]([H])[H])c([H])c([H])c2C1([H])[H]

$$$$
9:0:0
     RDKit          3D

109116  0  0  1  0  0  0  0  0999 V2000
  -32.1280  -21.5260   21.2680 C   0  0  0  0  0  3  0  0  0  0  0  0
  -33.0440  -22.0580   20.4370 N   0  0  0  0  0  0  0  0  0  0  0  0
  -31.4450  -20.4190   20.9240 N   0  0  0  0  0  0  0  0  0  0  0  0
  -31.8880  -22.1150   22.4520 N   0  0  0  0  0  0  0  0  0  0  0  0
  -33.2110  -21.5970   19.5530 H   0  0  0  0  0  0  0  0  0  0  0  0
  -30.7720  -20.0550   21.5840 H   0  0  0  0  0  0  0  0  0  0  0  0
  -32.4670  -22.9010   22.7150 H   0  0  0  0  0  0  0  0  0  0  0  0
  -30.8300  -21.7720   23.4140 C   0  0  0  0  0  2  0  0  0  0  0  0
  -29.4380  -22.0420   22.8210 C   0  0  0  0  0  2  0  0  0  0  0  0
  -29.1180  -23.5460   22.7090 C   0  0  0  0  0  2  0  0  0  0  0  0
  -27.8230  -23.8430   21.9520 C   0  0  0  0  0  0  0  0  0  0  0  0
  -27.4980  -25.1200   21.7890 N   0  0  0  0  0  0  0  0  0  0  0  0
  -27.1080  -22.9430   21.5170 O   0  0  0  0  0  0  0  0  0  0  0  0
  -28.0840  -25.8520   22.1660 H   0  0  0  0  0  0  0  0  0  0  0  0
  -26.6500  -25.3700   21.3030 H   0  0  0  0  0  0  0  0  0  0  0  0
  -31.5840  -19.6360   19.6840 C   0  0  0  0  0  2  0  0  0  0  0  0
  -32.5200  -18.4260   19.8660 C   0  0  0  0  0  2  0  0  0  0  0  0
  -31.9780  -17.2670   20.7410 C   0  0  0  0  0  2  0  0  0  0  0  0
  -30.6030  -16.6270   20.3490 C   0  0  0  0  0  3  0  0  0  0  0  0
  -31.1140  -14.1450   20.2290 C   0  0  0  0  0  0  0  0  0  0  0  0
  -30.6940  -11.9730   19.1600 C   0  0  0  0  0  2  0  0  0  0  0  0
  -29.7690  -12.2130   17.9480 C   0  0  0  0  0  2  0  0  0  0  0  0
  -28.2890  -12.1750   18.3760 C   0  0  0  0  0  2  0  0  0  0  0  0
  -27.9980  -13.0590   19.6180 C   0  0  0  0  0  3  0  0  0  0  0  0
  -29.0400  -12.7980   20.7330 C   0  0  0  0  0  2  0  0  0  0  0  0
  -30.3840  -13.0020   20.1630 N   0  0  0  0  0  0  0  0  0  0  0  0
  -32.2310  -14.2510   19.7170 O   0  0  0  0  0  0  0  0  0  0  0  0
  -30.4410  -15.2070   20.7100 N   0  0  0  0  0  0  0  0  0  0  0  0
  -29.5460  -14.9780   21.1130 H   0  0  0  0  0  0  0  0  0  0  0  0
  -25.6410  -13.8190   20.3250 C   0  0  0  0  0  0  0  0  0  0  0  0
  -24.5310  -13.1170   20.7120 C   0  0  0  0  0  0  0  0  0  0  0  0
  -24.9100  -11.7400   20.6970 C   0  0  0  0  0  0  0  0  0  0  0  0
  -26.6310  -12.8730   20.1010 N   0  0  0  0  0  0  0  0  0  0  0  0
  -26.1930  -11.6190   20.3820 N   0  0  0  0  0  0  0  0  0  0  0  0
  -24.1120  -10.5240   20.9060 C   0  0  0  0  0  0  0  0  0  0  0  0
  -24.4970   -9.5420   21.8460 C   0  0  0  0  0  3  0  0  0  0  0  0
  -23.7040   -8.3910   22.0450 C   0  0  0  0  0  3  0  0  0  0  0  0
  -22.5110   -8.2150   21.3050 C   0  0  0  0  0  0  0  0  0  0  0  0
  -22.1450   -9.1840   20.3540 C   0  0  0  0  0  3  0  0  0  0  0  0
  -22.9370  -10.3250   20.1530 C   0  0  0  0  0  3  0  0  0  0  0  0
  -21.6930   -7.1160   21.4090 O   0  0  0  0  0  0  0  0  0  0  0  0
  -21.6070   -6.3930   22.5720 C   0  0  0  0  0  0  0  0  0  0  0  0
  -21.2070   -6.9830   23.7900 C   0  0  0  0  0  3  0  0  0  0  0  0
  -21.0660   -6.1870   24.9450 C   0  0  0  0  0  3  0  0  0  0  0  0
  -21.3160   -4.8030   24.8810 C   0  0  0  0  0  0  0  0  0  0  0  0
  -21.7100   -4.2140   23.6670 C   0  0  0  0  0  3  0  0  0  0  0  0
  -21.8520   -5.0070   22.5150 C   0  0  0  0  0  0  0  0  0  0  0  0
  -22.2120   -4.4300   21.3430 F   0  0  0  0  0  0  0  0  0  0  0  0
  -21.1740   -4.0360   25.9880 F   0  0  0  0  0  0  0  0  0  0  0  0
  -23.1660  -13.6800   20.9870 C   0  0  0  0  0  0  0  0  0  0  0  0
  -22.4090  -13.0520   21.8790 N   0  0  0  0  0  0  0  0  0  0  0  0
  -22.7790  -14.7120   20.4410 O   0  0  0  0  0  0  0  0  0  0  0  0
  -22.7360  -12.2200   22.3490 H   0  0  0  0  0  0  0  0  0  0  0  0
  -21.4930  -13.4150   22.1010 H   0  0  0  0  0  0  0  0  0  0  0  0
  -25.8880  -15.1740   20.1280 N   0  0  0  0  0  0  0  0  0  0  0  0
  -25.1620  -15.8770   20.2160 H   0  0  0  0  0  0  0  0  0  0  0  0
  -26.7520  -15.5410   19.7470 H   0  0  0  0  0  0  0  0  0  0  0  0
  -30.1570  -16.7750   18.8830 C   0  0  0  0  0  0  0  0  0  0  0  0
  -28.9970  -17.3760   18.6530 N   0  0  0  0  0  0  0  0  0  0  0  0
  -30.8340  -16.3260   17.9640 O   0  0  0  0  0  0  0  0  0  0  0  0
  -28.4350  -17.7260   19.4160 H   0  0  0  0  0  0  0  0  0  0  0  0
  -28.6630  -17.4860   17.7060 H   0  0  0  0  0  0  0  0  0  0  0  0
  -33.8230  -23.2910   20.6610 C   0  0  0  0  0  2  0  0  0  0  0  0
  -32.9680  -24.5640   20.4940 C   0  0  0  0  0  2  0  0  0  0  0  0
  -32.6460  -24.9140   19.0310 C   0  0  0  0  0  2  0  0  0  0  0  0
  -31.7450  -26.1600   18.8870 C   0  0  0  0  0  2  0  0  0  0  0  0
  -30.2710  -25.8530   19.1990 C   0  0  0  0  0  2  0  0  0  0  0  0
  -29.3420  -27.0800   19.2490 C   0  0  0  0  0  2  0  0  0  0  0  0
  -28.0370  -26.5300   19.3390 O   0  0  0  0  0  0  0  0  0  0  0  0
  -24.5310  -31.5930   22.9810 C   0  0  0  0  0  0  0  0  0  0  0  0
  -26.9530  -27.3600   19.4760 C   0  0  0  0  0  0  0  0  0  0  0  0
  -23.2270  -30.3480   21.2880 C   0  0  0  0  0  3  0  0  0  0  0  0
  -24.5900  -28.8880   19.7010 C   0  0  0  0  0  0  0  0  0  0  0  0
  -25.7510  -30.6710   21.0150 C   0  0  0  0  0  2  0  0  0  0  0  0
  -25.7830  -29.3520   20.2730 C   0  0  0  0  0  0  0  0  0  0  0  0
  -26.9720  -28.5970   20.1610 C   0  0  0  0  0  3  0  0  0  0  0  0
  -25.7410  -26.8970   18.9280 C   0  0  0  0  0  3  0  0  0  0  0  0
  -24.5620  -27.6570   19.0260 C   0  0  0  0  0  3  0  0  0  0  0  0
  -23.3680  -29.7660   19.8560 C   0  0  0  0  0  2  0  0  0  0  0  0
  -24.5240  -30.8790   21.8200 N   0  0  0  0  0  0  0  0  0  0  0  0
  -23.4800  -31.8510   23.5810 O   0  0  0  0  0  0  0  0  0  0  0  0
  -22.5830  -29.2750   22.1940 C   0  0  0  0  0  0  0  0  0  0  0  0
  -21.2490  -29.1520   22.1200 N   0  0  0  0  0  0  0  0  0  0  0  0
  -23.2810  -28.5590   22.9200 O   0  0  0  0  0  0  0  0  0  0  0  0
  -20.7480  -29.7810   21.5070 H   0  0  0  0  0  0  0  0  0  0  0  0
  -17.8540  -28.0670   22.7100 C   0  0  0  0  0  0  0  0  0  0  0  0
  -20.4310  -28.1860   22.8520 C   0  0  0  0  0  3  0  0  0  0  0  0
  -20.4330  -26.8100   22.1480 C   0  0  0  0  0  2  0  0  0  0  0  0
  -19.2620  -26.6290   21.1760 C   0  0  0  0  0  2  0  0  0  0  0  0
  -17.9260  -26.7770   21.9110 C   0  0  0  0  0  2  0  0  0  0  0  0
  -19.0300  -28.7370   23.1390 C   0  0  0  0  0  0  0  0  0  0  0  0
  -18.9080  -29.9520   23.8480 C   0  0  0  0  0  3  0  0  0  0  0  0
  -17.6410  -30.4940   24.1320 C   0  0  0  0  0  3  0  0  0  0  0  0
  -16.4790  -29.8200   23.7200 C   0  0  0  0  0  3  0  0  0  0  0  0
  -16.5870  -28.6070   23.0140 C   0  0  0  0  0  3  0  0  0  0  0  0
  -25.8580  -32.1430   23.5950 C   0  0  0  0  0  3  0  0  0  0  0  0
  -25.6040  -33.5190   24.0370 N   0  0  0  0  0  0  0  0  0  0  0  0
  -25.9500  -34.6140   23.3470 C   0  0  0  0  0  0  0  0  0  0  0  0
  -26.5900  -34.5690   22.2930 O   0  0  0  0  0  0  0  0  0  0  0  0
  -25.0340  -33.6310   24.8630 H   0  0  0  0  0  0  0  0  0  0  0  0
  -24.2650  -36.4740   23.1770 C   0  0  0  0  0  1  0  0  0  0  0  0
  -25.5170  -35.9780   23.9180 C   0  0  0  0  0  3  0  0  0  0  0  0
  -27.6970  -36.7430   24.7480 C   0  0  0  0  0  1  0  0  0  0  0  0
  -26.5780  -37.0080   23.8500 N   0  0  0  0  0  0  0  0  0  0  0  0
  -26.2010  -37.9260   24.0720 H   0  0  0  0  0  0  0  0  0  0  0  0
  -26.4030  -31.2620   24.7850 C   0  0  1  0  0  0  0  0  0  0  0  0
  -25.3490  -30.9790   25.8810 C   0  0  0  0  0  1  0  0  0  0  0  0
  -26.9240  -29.9020   24.2660 C   0  0  0  0  0  1  0  0  0  0  0  0
  -27.6060  -31.9700   25.4530 C   0  0  0  0  0  1  0  0  0  0  0  0
  1  2  1  0
  1  4  1  0
  2 63  1  0
  3  1  1  0
  3  6  1  0
  4  7  1  0
  4  8  1  0
  5  2  1  0
  9  8  1  0
 10  9  1  0
 11 10  1  0
 12 11  1  0
 12 14  1  0
 13 11  2  0
 15 12  1  0
 16 17  1  0
 16  3  1  0
 17 18  1  0
 19 28  1  0
 19 18  1  0
 20 28  1  0
 21 26  1  0
 22 23  1  0
 22 21  1  0
 24 23  1  0
 24 33  1  0
 24 25  1  0
 26 20  1  0
 26 25  1  0
 27 20  2  0
 28 29  1  0
 30 31  2  0
 31 50  1  0
 32 31  1  0
 32 35  1  0
 33 30  1  0
 33 34  1  0
 34 32  2  0
 35 36  1  0
 36 37  2  0
 38 41  1  0
 38 37  1  0
 39 38  2  0
 40 39  1  0
 40 35  2  0
 41 42  1  0
 42 43  1  0
 43 44  2  0
 45 44  1  0
 45 49  1  0
 46 45  2  0
 47 42  2  0
 47 46  1  0
 48 47  1  0
 50 51  1  0
 51 54  1  0
 51 53  1  0
 52 50  2  0
 55 56  1  0
 55 30  1  0
 57 55  1  0
 58 19  1  0
 59 58  1  0
 59 61  1  0
 60 58  2  0
 62 59  1  0
 64 63  1  0
 65 64  1  0
 66 65  1  0
 66 67  1  0
 67 68  1  0
 68 69  1  0
 69 71  1  0
 70 81  2  0
 71 76  1  0
 72 80  1  0
 72 82  1  0
 73 79  1  0
 73 75  1  0
 74 80  1  0
 75 74  1  0
 76 75  2  0
 77 78  1  0
 77 71  2  0
 78 73  2  0
 79 72  1  0
 80 70  1  0
 82 84  2  0
 83 82  1  0
 85 83  1  0
 86 95  2  0
 86 91  1  0
 87 83  1  0
 87 91  1  0
 88 87  1  0
 89 90  1  0
 89 88  1  0
 90 86  1  0
 91 92  2  0
 92 93  1  0
 94 93  2  0
 95 94  1  0
 96 70  1  0
 96 97  1  0
 96106  1  0
 97100  1  0
 98102  1  0
 98 97  1  0
 99 98  2  0
102101  1  0
104102  1  0
104105  1  0
104103  1  0
106109  1  1
106107  1  0
108106  1  0
M  ISO  4  20 100  28 100  68 101  69 101
M  END
>  <TORSDO>  (8) 
F 31

>  <SCORE>  (8) 
-9.673

>  <name>  (8) 
9

>  <ligand_id>  (8) 
9

>  <original_smiles>  (8) 
[H]c1c([H])c([H])c2c(c1[H])C([H])([H])C([H])([H])C([H])([H])C2([H])N([H])C(=O)C1([H])N(C(=O)C([H])(N([H])C(=O)C([H])(N([H])C([H])([H])[H])C([H])([H])[H])C(C([H])([H])[H])(C([H])([H])[H])C([H])([H])[H])C([H])([H])c2c([H])c(OC([H])([H])C([H])([H])C([H])([H])C([H])([H])C([H])([H])C([H])([H])N([H])C(N([H])C([H])([H])C([H])([H])C([H])([H])C([H])(C(=O)N([H])[H])N([H])C(=O)N3C([H])([H])C([H])([H])C([H])([H])C([H])(n4nc(-c5c([H])c([H])c(Oc6c([H])c([H])c(F)c([H])c6F)c([H])c5[H])c(C(=O)N([H])[H])c4N([H])[H])C3([H])[H])=[N+]([H])C([H])([H])C([H])([H])C([H])([H])C(=O)N([H])[H])c([H])c([H])c2C1([H])[H]

>  <smiles>  (8) 
[H]c1c([H])c([H])c2c(c1[H])C([H])([H])C([H])([H])C([H])([H])C2([H])N([H])C(=O)C1([H])N(C(=O)C([H])(N([H])C(=O)C([H])(N([H])C([H])([H])[H])C([H])([H])[H])C(C([H])([H])[H])(C([H])([H])[H])C([H])([H])[H])C([H])([H])c2c([H])c(OC([H])([H])C([H])([H])C([H])([H])C([H])([H])C([H])([H])C([H])([H])N([H])C(N([H])C([H])([H])C([H])([H])C([H])([H])C([H])(C(=O)N([H])[H])N([H])C(=O)N3C([H])([H])C([H])([H])C([H])([H])C([H])(n4nc(-c5c([H])c([H])c(Oc6c([H])c([H])c(F)c([H])c6F)c([H])c5[H])c(C(=O)N([H])[H])c4N([H])[H])C3([H])[H])=[N+]([H])C([H])([H])C([H])([H])C([H])([H])C(=O)N([H])[H])c([H])c([H])c2C1([H])[H]

$$$$
10:0:0
     RDKit          3D

 83 90  0  0  1  0  0  0  0  0999 V2000
  -27.9490  -23.9120   20.2000 C   0  0  0  0  0  3  0  0  0  0  0  0
  -28.1500  -25.6420   20.2980 O   0  0  0  0  0  0  0  0  0  0  0  0
  -24.6720  -31.8880   23.2420 C   0  0  0  0  0  0  0  0  0  0  0  0
  -27.1710  -26.8340   20.2470 C   0  0  0  0  0  0  0  0  0  0  0  0
  -23.4710  -30.4970   21.6080 C   0  0  0  0  0  3  0  0  0  0  0  0
  -24.9060  -28.8480   20.1930 C   0  0  0  0  0  0  0  0  0  0  0  0
  -26.0490  -30.6390   21.4750 C   0  0  0  0  0  2  0  0  0  0  0  0
  -26.1040  -29.2100   20.8200 C   0  0  0  0  0  0  0  0  0  0  0  0
  -27.2230  -28.2300   20.8150 C   0  0  0  0  0  3  0  0  0  0  0  0
  -25.9390  -26.6690   19.5680 C   0  0  0  0  0  3  0  0  0  0  0  0
  -24.8600  -27.6020   19.5430 C   0  0  0  0  0  3  0  0  0  0  0  0
  -23.7020  -29.8000   20.2370 C   0  0  0  0  0  2  0  0  0  0  0  0
  -24.7550  -31.0400   22.1610 N   0  0  0  0  0  0  0  0  0  0  0  0
  -23.5830  -32.1920   23.7560 O   0  0  0  0  0  0  0  0  0  0  0  0
  -22.7560  -29.5220   22.5800 C   0  0  0  0  0  0  0  0  0  0  0  0
  -21.4230  -29.3690   22.4550 N   0  0  0  0  0  0  0  0  0  0  0  0
  -23.4110  -28.8980   23.4200 O   0  0  0  0  0  0  0  0  0  0  0  0
  -20.9460  -29.9220   21.7570 H   0  0  0  0  0  0  0  0  0  0  0  0
  -18.0330  -28.1690   22.9680 C   0  0  0  0  0  0  0  0  0  0  0  0
  -20.5930  -28.4390   23.2300 C   0  0  0  0  0  3  0  0  0  0  0  0
  -20.6940  -27.0020   22.6640 C   0  0  0  0  0  2  0  0  0  0  0  0
  -19.5940  -26.6750   21.6500 C   0  0  0  0  0  2  0  0  0  0  0  0
  -18.2110  -26.8200   22.2910 C   0  0  0  0  0  2  0  0  0  0  0  0
  -19.1500  -28.9350   23.3940 C   0  0  0  0  0  0  0  0  0  0  0  0
  -18.9270  -30.1950   23.9910 C   0  0  0  0  0  3  0  0  0  0  0  0
  -17.6200  -30.6890   24.1620 C   0  0  0  0  0  3  0  0  0  0  0  0
  -16.5170  -29.9210   23.7490 C   0  0  0  0  0  3  0  0  0  0  0  0
  -16.7250  -28.6620   23.1580 C   0  0  0  0  0  3  0  0  0  0  0  0
  -25.9420  -32.5310   23.8780 C   0  0  0  0  0  3  0  0  0  0  0  0
  -26.4400  -31.7670   25.1680 C   0  0  1  0  0  0  0  0  0  0  0  0
  -25.3350  -31.5460   26.2290 C   0  0  0  0  0  1  0  0  0  0  0  0
  -27.0170  -30.3800   24.8050 C   0  0  0  0  0  1  0  0  0  0  0  0
  -27.5910  -32.5580   25.8350 C   0  0  0  0  0  1  0  0  0  0  0  0
  -25.6270  -33.9320   24.2180 N   0  0  0  0  0  0  0  0  0  0  0  0
  -25.9330  -34.9970   23.4640 C   0  0  0  0  0  0  0  0  0  0  0  0
  -26.5690  -34.9020   22.4100 O   0  0  0  0  0  0  0  0  0  0  0  0
  -25.0570  -34.0770   25.0370 H   0  0  0  0  0  0  0  0  0  0  0  0
  -24.1800  -36.7890   23.2110 C   0  0  0  0  0  1  0  0  0  0  0  0
  -25.4650  -36.3850   23.9520 C   0  0  0  0  0  3  0  0  0  0  0  0
  -27.6320  -37.2910   24.6730 C   0  0  0  0  0  1  0  0  0  0  0  0
  -26.4840  -37.4450   23.7830 N   0  0  0  0  0  0  0  0  0  0  0  0
  -26.0790  -38.3630   23.9460 H   0  0  0  0  0  0  0  0  0  0  0  0
  -28.9470  -22.2690   20.2790 C   0  0  0  0  0  3  0  0  0  0  0  0
  -28.7110  -20.3580   20.2370 C   0  0  0  0  0  3  0  0  0  0  0  0
  -29.7530  -18.7430   20.2450 C   0  0  0  0  0  3  0  0  0  0  0  0
  -30.2820  -15.6460   20.1480 C   0  0  0  0  0  0  0  0  0  0  0  0
  -30.3500  -13.1330   19.2860 C   0  0  0  0  0  2  0  0  0  0  0  0
  -29.4300  -12.7740   18.0850 C   0  0  0  0  0  2  0  0  0  0  0  0
  -28.0130  -12.4240   18.5630 C   0  0  0  0  0  2  0  0  0  0  0  0
  -27.5300  -13.4030   19.6600 C   0  0  0  0  0  3  0  0  0  0  0  0
  -28.5860  -13.6800   20.7550 C   0  0  0  0  0  2  0  0  0  0  0  0
  -29.7510  -14.2930   20.0790 N   0  0  0  0  0  0  0  0  0  0  0  0
  -31.5110  -15.5990   19.9480 O   0  0  0  0  0  0  0  0  0  0  0  0
  -29.5270  -16.9940   20.2480 N   0  0  0  0  0  0  0  0  0  0  0  0
  -28.5450  -16.7820   20.3500 H   0  0  0  0  0  0  0  0  0  0  0  0
  -25.1770  -13.9060   20.4730 C   0  0  0  0  0  0  0  0  0  0  0  0
  -24.1340  -13.1120   20.8550 C   0  0  0  0  0  0  0  0  0  0  0  0
  -24.6200  -11.7680   20.8040 C   0  0  0  0  0  0  0  0  0  0  0  0
  -26.2270  -13.0500   20.2020 N   0  0  0  0  0  0  0  0  0  0  0  0
  -25.9070  -11.7560   20.4690 N   0  0  0  0  0  0  0  0  0  0  0  0
  -23.9110  -10.4960   20.9970 C   0  0  0  0  0  0  0  0  0  0  0  0
  -24.3510   -9.5380   21.9370 C   0  0  0  0  0  3  0  0  0  0  0  0
  -23.6360   -8.3340   22.1190 C   0  0  0  0  0  3  0  0  0  0  0  0
  -22.4690   -8.0770   21.3610 C   0  0  0  0  0  0  0  0  0  0  0  0
  -22.0480   -9.0240   20.4100 C   0  0  0  0  0  3  0  0  0  0  0  0
  -22.7630  -10.2200   20.2260 C   0  0  0  0  0  3  0  0  0  0  0  0
  -21.7270   -6.9240   21.4530 O   0  0  0  0  0  0  0  0  0  0  0  0
  -21.6590   -6.2030   22.6170 C   0  0  0  0  0  0  0  0  0  0  0  0
  -21.1670   -6.7650   23.8150 C   0  0  0  0  0  3  0  0  0  0  0  0
  -21.0490   -5.9670   24.9700 C   0  0  0  0  0  3  0  0  0  0  0  0
  -21.4130   -4.6090   24.9290 C   0  0  0  0  0  0  0  0  0  0  0  0
  -21.8990   -4.0450   23.7360 C   0  0  0  0  0  3  0  0  0  0  0  0
  -22.0180   -4.8400   22.5820 C   0  0  0  0  0  0  0  0  0  0  0  0
  -22.4660   -4.2870   21.4300 F   0  0  0  0  0  0  0  0  0  0  0  0
  -21.2940   -3.8400   26.0380 F   0  0  0  0  0  0  0  0  0  0  0  0
  -22.7360  -13.5700   21.1460 C   0  0  0  0  0  0  0  0  0  0  0  0
  -22.0320  -12.8660   22.0240 N   0  0  0  0  0  0  0  0  0  0  0  0
  -22.2780  -14.5880   20.6300 O   0  0  0  0  0  0  0  0  0  0  0  0
  -22.4170  -12.0420   22.4630 H   0  0  0  0  0  0  0  0  0  0  0  0
  -21.0930  -13.1550   22.2630 H   0  0  0  0  0  0  0  0  0  0  0  0
  -25.3150  -15.2810   20.3020 N   0  0  0  0  0  0  0  0  0  0  0  0
  -24.5370  -15.9190   20.4270 H   0  0  0  0  0  0  0  0  0  0  0  0
  -26.1390  -15.7310   19.9280 H   0  0  0  0  0  0  0  0  0  0  0  0
  1 43  2  0
  1  2  1  0
  3 14  2  0
  4  2  1  0
  4  9  1  0
  5 13  1  0
  5 15  1  0
  6 12  1  0
  6  8  1  0
  7 13  1  0
  8  7  1  0
  9  8  2  0
 10  4  2  0
 11 10  1  0
 11  6  2  0
 12  5  1  0
 13  3  1  0
 15 17  2  0
 16 15  1  0
 18 16  1  0
 19 28  2  0
 19 24  1  0
 20 16  1  0
 20 24  1  0
 21 20  1  0
 22 23  1  0
 22 21  1  0
 23 19  1  0
 24 25  2  0
 25 26  1  0
 27 26  2  0
 28 27  1  0
 29  3  1  0
 29 34  1  0
 29 30  1  0
 30 33  1  1
 30 31  1  0
 32 30  1  0
 34 37  1  0
 35 39  1  0
 35 34  1  0
 36 35  2  0
 39 38  1  0
 41 42  1  0
 41 39  1  0
 41 40  1  0
 44 45  2  0
 44 43  1  0
 45 54  1  0
 46 54  1  0
 47 52  1  0
 48 49  1  0
 48 47  1  0
 50 49  1  0
 50 59  1  0
 50 51  1  0
 52 46  1  0
 52 51  1  0
 53 46  2  0
 54 55  1  0
 56 57  2  0
 57 76  1  0
 58 57  1  0
 58 61  1  0
 59 60  1  0
 59 56  1  0
 60 58  2  0
 61 62  1  0
 62 63  2  0
 64 67  1  0
 64 63  1  0
 65 64  2  0
 66 65  1  0
 66 61  2  0
 67 68  1  0
 68 69  1  0
 69 70  2  0
 71 70  1  0
 71 75  1  0
 72 71  2  0
 73 68  2  0
 73 72  1  0
 74 73  1  0
 76 77  1  0
 77 80  1  0
 77 79  1  0
 78 76  2  0
 81 82  1  0
 81 56  1  0
 83 81  1  0
M  ISO  4   1 101   2 101  46 100  54 100
M  END
>  <TORSDO>  (9) 
F 19

>  <SCORE>  (9) 
-16.287

>  <name>  (9) 
10

>  <ligand_id>  (9) 
10

>  <original_smiles>  (9) 
[H]c1c([H])c([H])c2c(c1[H])C([H])([H])C([H])([H])C([H])([H])C2([H])N([H])C(=O)C1([H])N(C(=O)C([H])(N([H])C(=O)C([H])(N([H])C([H])([H])[H])C([H])([H])[H])C(C([H])([H])[H])(C([H])([H])[H])C([H])([H])[H])C([H])([H])c2c([H])c(OC([H])([H])C([H])([H])C([H])([H])C([H])([H])N([H])C(=O)N3C([H])([H])C([H])([H])C([H])([H])C([H])(n4nc(-c5c([H])c([H])c(Oc6c([H])c([H])c(F)c([H])c6F)c([H])c5[H])c(C(=O)N([H])[H])c4N([H])[H])C3([H])[H])c([H])c([H])c2C1([H])[H]

>  <smiles>  (9) 
[H]c1c([H])c([H])c2c(c1[H])C([H])([H])C([H])([H])C([H])([H])C2([H])N([H])C(=O)C1([H])N(C(=O)C([H])(N([H])C(=O)C([H])(N([H])C([H])([H])[H])C([H])([H])[H])C(C([H])([H])[H])(C([H])([H])[H])C([H])([H])[H])C([H])([H])c2c([H])c(OC([H])([H])C([H])([H])C([H])([H])C([H])([H])N([H])C(=O)N3C([H])([H])C([H])([H])C([H])([H])C([H])(n4nc(-c5c([H])c([H])c(Oc6c([H])c([H])c(F)c([H])c6F)c([H])c5[H])c(C(=O)N([H])[H])c4N([H])[H])C3([H])[H])c([H])c([H])c2C1([H])[H]

$$$$
11:0:0
     RDKit          3D

 82 87  0  0  1  0  0  0  0  0999 V2000
  -28.1280  -24.4610   20.3080 O   0  0  0  0  0  1  0  0  0  0  0  0
  -24.7170  -31.7540   23.1190 C   0  0  0  0  0  0  0  0  0  0  0  0
  -27.2370  -26.0080   20.2720 C   0  0  0  0  0  0  0  0  0  0  0  0
  -23.5780  -30.3270   21.4830 C   0  0  0  0  0  3  0  0  0  0  0  0
  -25.0440  -28.5110   20.1550 C   0  0  0  0  0  0  0  0  0  0  0  0
  -26.1810  -30.2440   21.4900 C   0  0  0  0  0  2  0  0  0  0  0  0
  -26.2420  -28.7260   20.8450 C   0  0  0  0  0  0  0  0  0  0  0  0
  -27.2830  -27.5330   20.8480 C   0  0  0  0  0  3  0  0  0  0  0  0
  -26.0020  -26.1970   19.5210 C   0  0  0  0  0  3  0  0  0  0  0  0
  -25.0080  -27.2750   19.4680 C   0  0  0  0  0  3  0  0  0  0  0  0
  -23.8740  -29.5550   20.1500 C   0  0  0  0  0  2  0  0  0  0  0  0
  -24.8600  -30.8260   22.0830 N   0  0  0  0  0  0  0  0  0  0  0  0
  -23.6030  -32.0930   23.5670 O   0  0  0  0  0  0  0  0  0  0  0  0
  -22.7700  -29.4320   22.4680 C   0  0  0  0  0  0  0  0  0  0  0  0
  -21.4280  -29.3480   22.3410 N   0  0  0  0  0  0  0  0  0  0  0  0
  -23.3780  -28.7990   23.3320 O   0  0  0  0  0  0  0  0  0  0  0  0
  -20.9780  -29.9060   21.6300 H   0  0  0  0  0  0  0  0  0  0  0  0
  -17.9930  -28.2310   22.8790 C   0  0  0  0  0  0  0  0  0  0  0  0
  -20.5660  -28.4340   23.1110 C   0  0  0  0  0  3  0  0  0  0  0  0
  -20.6160  -27.0030   22.5240 C   0  0  0  0  0  2  0  0  0  0  0  0
  -19.5000  -26.7270   21.5140 C   0  0  0  0  0  2  0  0  0  0  0  0
  -18.1280  -26.8940   22.1710 C   0  0  0  0  0  2  0  0  0  0  0  0
  -19.1360  -28.9630   23.3050 C   0  0  0  0  0  0  0  0  0  0  0  0
  -18.9480  -30.2110   23.9390 C   0  0  0  0  0  3  0  0  0  0  0  0
  -17.6540  -30.7280   24.1430 C   0  0  0  0  0  3  0  0  0  0  0  0
  -16.5290  -29.9960   23.7270 C   0  0  0  0  0  3  0  0  0  0  0  0
  -16.7000  -28.7490   23.1030 C   0  0  0  0  0  3  0  0  0  0  0  0
  -25.9360  -32.4460   23.8080 C   0  0  0  0  0  3  0  0  0  0  0  0
  -25.5800  -33.8480   24.1450 N   0  0  0  0  0  0  0  0  0  0  0  0
  -25.9080  -34.9380   23.4360 C   0  0  0  0  0  0  0  0  0  0  0  0
  -26.5810  -34.8720   22.4060 O   0  0  0  0  0  0  0  0  0  0  0  0
  -24.9750  -33.9700   24.9440 H   0  0  0  0  0  0  0  0  0  0  0  0
  -24.1580  -36.7430   23.1760 C   0  0  0  0  0  1  0  0  0  0  0  0
  -25.4240  -36.3200   23.9410 C   0  0  0  0  0  3  0  0  0  0  0  0
  -27.5680  -37.2270   24.7370 C   0  0  0  0  0  1  0  0  0  0  0  0
  -26.4430  -37.3900   23.8210 N   0  0  0  0  0  0  0  0  0  0  0  0
  -26.0280  -38.3020   23.9860 H   0  0  0  0  0  0  0  0  0  0  0  0
  -26.3930  -31.7080   25.1290 C   0  0  1  0  0  0  0  0  0  0  0  0
  -25.2540  -31.4940   26.1550 C   0  0  0  0  0  1  0  0  0  0  0  0
  -26.9940  -30.3220   24.8160 C   0  0  0  0  0  1  0  0  0  0  0  0
  -27.5150  -32.5170   25.8220 C   0  0  0  0  0  1  0  0  0  0  0  0
  -28.1060  -22.3000   20.1900 C   0  0  0  0  0 15  0  0  0  0  0  0
  -29.8470  -16.8010   20.1650 C   0  0  0  0  0  0  0  0  0  0  0  0
  -30.2580  -13.9950   19.4080 C   0  0  0  0  0  2  0  0  0  0  0  0
  -29.5270  -13.0930   18.3190 C   0  0  0  0  0  2  0  0  0  0  0  0
  -28.2200  -12.4880   18.8300 C   0  0  0  0  0  2  0  0  0  0  0  0
  -27.5450  -13.5220   19.7390 C   0  0  0  0  0  3  0  0  0  0  0  0
  -28.4810  -14.2790   20.7630 C   0  0  0  0  0  2  0  0  0  0  0  0
  -29.4470  -15.2420   20.0430 N   0  0  0  0  0  0  0  0  0  0  0  0
  -31.0970  -16.5490   20.1140 O   0  0  0  0  0  0  0  0  0  0  0  0
  -29.1500  -20.2780   20.2290 C   0  0  0  0  0  2  0  0  0  0  0  0
  -29.0980  -18.4610   20.1800 N   0  0  0  0  0  0  0  0  0  0  0  0
  -30.3470  -20.5670   20.3300 O   0  0  0  0  0  1  0  0  0  0  0  0
  -28.1090  -18.2680   20.1260 H   0  0  0  0  0  0  0  0  0  0  0  0
  -25.1830  -13.9080   20.5150 C   0  0  0  0  0  0  0  0  0  0  0  0
  -24.1480  -13.0970   20.8740 C   0  0  0  0  0  0  0  0  0  0  0  0
  -24.6540  -11.7600   20.8370 C   0  0  0  0  0  0  0  0  0  0  0  0
  -26.2610  -13.0810   20.2820 N   0  0  0  0  0  0  0  0  0  0  0  0
  -25.9550  -11.7710   20.5250 N   0  0  0  0  0  0  0  0  0  0  0  0
  -23.9430  -10.4810   21.0250 C   0  0  0  0  0  0  0  0  0  0  0  0
  -24.3760   -9.5170   21.9600 C   0  0  0  0  0  3  0  0  0  0  0  0
  -23.6530   -8.3170   22.1460 C   0  0  0  0  0  3  0  0  0  0  0  0
  -22.4780   -8.0710   21.3950 C   0  0  0  0  0  0  0  0  0  0  0  0
  -22.0610   -9.0240   20.4500 C   0  0  0  0  0  3  0  0  0  0  0  0
  -22.7850  -10.2140   20.2640 C   0  0  0  0  0  3  0  0  0  0  0  0
  -21.7300   -6.9210   21.4880 O   0  0  0  0  0  0  0  0  0  0  0  0
  -21.6900   -6.1740   22.6390 C   0  0  0  0  0  0  0  0  0  0  0  0
  -21.2570   -6.7210   23.8660 C   0  0  0  0  0  3  0  0  0  0  0  0
  -21.1660   -5.9030   25.0100 C   0  0  0  0  0  3  0  0  0  0  0  0
  -21.4980   -4.5370   24.9270 C   0  0  0  0  0  0  0  0  0  0  0  0
  -21.9230   -3.9890   23.7040 C   0  0  0  0  0  3  0  0  0  0  0  0
  -22.0160   -4.8040   22.5630 C   0  0  0  0  0  0  0  0  0  0  0  0
  -22.4050   -4.2660   21.3830 F   0  0  0  0  0  0  0  0  0  0  0  0
  -21.4040   -3.7480   26.0230 F   0  0  0  0  0  0  0  0  0  0  0  0
  -22.7390  -13.5440   21.1290 C   0  0  0  0  0  0  0  0  0  0  0  0
  -22.0230  -12.8470   22.0010 N   0  0  0  0  0  0  0  0  0  0  0  0
  -22.2870  -14.5560   20.5940 O   0  0  0  0  0  0  0  0  0  0  0  0
  -22.4050  -12.0310   22.4570 H   0  0  0  0  0  0  0  0  0  0  0  0
  -21.0780  -13.1320   22.2180 H   0  0  0  0  0  0  0  0  0  0  0  0
  -25.2960  -15.2820   20.3270 N   0  0  0  0  0  0  0  0  0  0  0  0
  -24.5050  -15.9090   20.4230 H   0  0  0  0  0  0  0  0  0  0  0  0
  -26.1330  -15.7440   19.9940 H   0  0  0  0  0  0  0  0  0  0  0  0
  2 13  2  0
  3  1  1  0
  3  8  1  0
  4 12  1  0
  4 14  1  0
  5  7  1  0
  6 12  1  0
  7  8  2  0
  7  6  1  0
  9  3  2  0
 10  9  1  0
 10  5  2  0
 11  5  1  0
 11  4  1  0
 12  2  1  0
 14 16  2  0
 15 14  1  0
 17 15  1  0
 18 27  2  0
 18 23  1  0
 19 15  1  0
 19 23  1  0
 20 19  1  0
 21 22  1  0
 21 20  1  0
 22 18  1  0
 23 24  2  0
 24 25  1  0
 26 25  2  0
 27 26  1  0
 28  2  1  0
 28 29  1  0
 28 38  1  0
 29 32  1  0
 30 34  1  0
 30 29  1  0
 31 30  2  0
 34 33  1  0
 36 34  1  0
 36 37  1  0
 36 35  1  0
 38 41  1  1
 38 39  1  0
 40 38  1  0
 43 52  1  0
 44 49  1  0
 45 46  1  0
 45 44  1  0
 47 46  1  0
 47 58  1  0
 47 48  1  0
 49 43  1  0
 49 48  1  0
 50 43  2  0
 51 53  1  0
 52 51  1  0
 54 52  1  0
 55 56  2  0
 56 75  1  0
 57 56  1  0
 57 60  1  0
 58 55  1  0
 58 59  1  0
 59 57  2  0
 60 61  1  0
 61 62  2  0
 63 66  1  0
 63 62  1  0
 64 63  2  0
 65 64  1  0
 65 60  2  0
 66 67  1  0
 67 68  1  0
 68 69  2  0
 70 69  1  0
 70 74  1  0
 71 70  2  0
 72 67  2  0
 72 71  1  0
 73 72  1  0
 75 76  1  0
 76 79  1  0
 76 78  1  0
 77 75  2  0
 80 81  1  0
 80 55  1  0
 82 80  1  0
M  ISO  4   1 101  42 101  43 100  52 100
M  END
>  <TORSDO>  (10) 
F 16

>  <SCORE>  (10) 
-16.200

>  <name>  (10) 
11

>  <ligand_id>  (10) 
11

>  <original_smiles>  (10) 
[H]c1c([H])c([H])c2c(c1[H])C([H])([H])C([H])([H])C([H])([H])C2([H])N([H])C(=O)C1([H])N(C(=O)C([H])(N([H])C(=O)C([H])(N([H])C([H])([H])[H])C([H])([H])[H])C(C([H])([H])[H])(C([H])([H])[H])C([H])([H])[H])C([H])([H])c2c([H])c(OC([H])([H])C(=O)N([H])C(=O)N3C([H])([H])C([H])([H])C([H])([H])C([H])(n4nc(-c5c([H])c([H])c(Oc6c([H])c([H])c(F)c([H])c6F)c([H])c5[H])c(C(=O)N([H])[H])c4N([H])[H])C3([H])[H])c([H])c([H])c2C1([H])[H]

>  <smiles>  (10) 
[H]c1c([H])c([H])c2c(c1[H])C([H])([H])C([H])([H])C([H])([H])C2([H])N([H])C(=O)C1([H])N(C(=O)C([H])(N([H])C(=O)C([H])(N([H])C([H])([H])[H])C([H])([H])[H])C(C([H])([H])[H])(C([H])([H])[H])C([H])([H])[H])C([H])([H])c2c([H])c(OC([H])([H])C(=O)N([H])C(=O)N3C([H])([H])C([H])([H])C([H])([H])C([H])(n4nc(-c5c([H])c([H])c(Oc6c([H])c([H])c(F)c([H])c6F)c([H])c5[H])c(C(=O)N([H])[H])c4N([H])[H])C3([H])[H])c([H])c([H])c2C1([H])[H]

$$$$
12:0:0
     RDKit          3D

 87 94  0  0  1  0  0  0  0  0999 V2000
  -29.1770  -19.7480   20.0010 C   0  0  0  0  0  0  0  0  0  0  0  0
  -29.0550  -21.1280   20.5480 N   0  0  0  0  0  0  0  0  0  0  0  0
  -28.8260  -19.6230   18.8280 O   0  0  0  0  0  0  0  0  0  0  0  0
  -29.2990  -21.1410   21.5310 H   0  0  0  0  0  0  0  0  0  0  0  0
  -31.3310  -18.4880   20.7550 C   0  0  0  0  0  1  0  0  0  0  0  0
  -29.8120  -18.2540   20.6910 C   0  0  0  0  0  3  0  0  0  0  0  0
  -30.3810  -15.3300   20.2710 C   0  0  0  0  0  0  0  0  0  0  0  0
  -30.3620  -12.8880   19.3580 C   0  0  0  0  0  2  0  0  0  0  0  0
  -29.4350  -12.6640   18.1370 C   0  0  0  0  0  2  0  0  0  0  0  0
  -27.9910  -12.3830   18.5890 C   0  0  0  0  0  2  0  0  0  0  0  0
  -27.5400  -13.3440   19.7160 C   0  0  0  0  0  3  0  0  0  0  0  0
  -28.5940  -13.5020   20.8320 C   0  0  0  0  0  2  0  0  0  0  0  0
  -29.8090  -14.0260   20.1830 N   0  0  0  0  0  0  0  0  0  0  0  0
  -31.6100  -15.3100   20.1030 O   0  0  0  0  0  0  0  0  0  0  0  0
  -29.6170  -16.6090   20.3670 N   0  0  0  0  0  0  0  0  0  0  0  0
  -28.6310  -16.3970   20.3270 H   0  0  0  0  0  0  0  0  0  0  0  0
  -25.1710  -13.8920   20.4800 C   0  0  0  0  0  0  0  0  0  0  0  0
  -24.1140  -13.1110   20.8520 C   0  0  0  0  0  0  0  0  0  0  0  0
  -24.5880  -11.7630   20.8230 C   0  0  0  0  0  0  0  0  0  0  0  0
  -26.2170  -13.0210   20.2340 N   0  0  0  0  0  0  0  0  0  0  0  0
  -25.8790  -11.7340   20.5100 N   0  0  0  0  0  0  0  0  0  0  0  0
  -23.8660  -10.4970   21.0130 C   0  0  0  0  0  0  0  0  0  0  0  0
  -24.2950   -9.5360   21.9550 C   0  0  0  0  0  3  0  0  0  0  0  0
  -23.5690   -8.3380   22.1350 C   0  0  0  0  0  3  0  0  0  0  0  0
  -22.4020   -8.0930   21.3740 C   0  0  0  0  0  0  0  0  0  0  0  0
  -21.9940   -9.0430   20.4210 C   0  0  0  0  0  3  0  0  0  0  0  0
  -22.7190  -10.2320   20.2380 C   0  0  0  0  0  3  0  0  0  0  0  0
  -21.6490   -6.9460   21.4620 O   0  0  0  0  0  0  0  0  0  0  0  0
  -21.5880   -6.2150   22.6210 C   0  0  0  0  0  0  0  0  0  0  0  0
  -21.1350   -6.7770   23.8340 C   0  0  0  0  0  3  0  0  0  0  0  0
  -21.0210   -5.9710   24.9840 C   0  0  0  0  0  3  0  0  0  0  0  0
  -21.3480   -4.6040   24.9230 C   0  0  0  0  0  0  0  0  0  0  0  0
  -21.7950   -4.0410   23.7150 C   0  0  0  0  0  3  0  0  0  0  0  0
  -21.9100   -4.8440   22.5660 C   0  0  0  0  0  0  0  0  0  0  0  0
  -22.3200   -4.2910   21.3990 F   0  0  0  0  0  0  0  0  0  0  0  0
  -21.2320   -3.8280   26.0260 F   0  0  0  0  0  0  0  0  0  0  0  0
  -22.7150  -13.5820   21.1160 C   0  0  0  0  0  0  0  0  0  0  0  0
  -21.9850  -12.8830   21.9780 N   0  0  0  0  0  0  0  0  0  0  0  0
  -22.2770  -14.6070   20.5940 O   0  0  0  0  0  0  0  0  0  0  0  0
  -22.3540  -12.0560   22.4230 H   0  0  0  0  0  0  0  0  0  0  0  0
  -21.0450  -13.1810   22.1990 H   0  0  0  0  0  0  0  0  0  0  0  0
  -25.3230  -15.2640   20.2980 N   0  0  0  0  0  0  0  0  0  0  0  0
  -24.5460  -15.9070   20.4030 H   0  0  0  0  0  0  0  0  0  0  0  0
  -26.1520  -15.7050   19.9220 H   0  0  0  0  0  0  0  0  0  0  0  0
  -28.8450  -22.6990   19.9660 C   0  0  0  0  0  2  0  0  0  0  0  0
  -28.0870  -24.2320   20.5820 C   0  0  0  0  0  2  0  0  0  0  0  0
  -28.2550  -25.8650   20.3110 O   0  0  0  0  0  0  0  0  0  0  0  0
  -24.6380  -31.8680   23.2360 C   0  0  0  0  0  0  0  0  0  0  0  0
  -27.2220  -26.9480   20.3000 C   0  0  0  0  0  0  0  0  0  0  0  0
  -23.4570  -30.4490   21.6080 C   0  0  0  0  0  3  0  0  0  0  0  0
  -24.9170  -28.8260   20.2180 C   0  0  0  0  0  0  0  0  0  0  0  0
  -26.0250  -30.6630   21.4710 C   0  0  0  0  0  2  0  0  0  0  0  0
  -26.1030  -29.2430   20.8360 C   0  0  0  0  0  0  0  0  0  0  0  0
  -27.2520  -28.3280   20.8450 C   0  0  0  0  0  3  0  0  0  0  0  0
  -26.0020  -26.6820   19.6400 C   0  0  0  0  0  3  0  0  0  0  0  0
  -24.8920  -27.5660   19.5990 C   0  0  0  0  0  3  0  0  0  0  0  0
  -23.6970  -29.7470   20.2430 C   0  0  0  0  0  2  0  0  0  0  0  0
  -24.7280  -31.0220   22.1590 N   0  0  0  0  0  0  0  0  0  0  0  0
  -23.5440  -32.1600   23.7480 O   0  0  0  0  0  0  0  0  0  0  0  0
  -22.7590  -29.4640   22.5820 C   0  0  0  0  0  0  0  0  0  0  0  0
  -21.4290  -29.3000   22.4570 N   0  0  0  0  0  0  0  0  0  0  0  0
  -23.4230  -28.8460   23.4190 O   0  0  0  0  0  0  0  0  0  0  0  0
  -20.9470  -29.8490   21.7580 H   0  0  0  0  0  0  0  0  0  0  0  0
  -18.0450  -28.0940   22.9700 C   0  0  0  0  0  0  0  0  0  0  0  0
  -20.6050  -28.3690   23.2350 C   0  0  0  0  0  3  0  0  0  0  0  0
  -20.7100  -26.9320   22.6750 C   0  0  0  0  0  2  0  0  0  0  0  0
  -19.6100  -26.5970   21.6620 C   0  0  0  0  0  2  0  0  0  0  0  0
  -18.2270  -26.7410   22.3020 C   0  0  0  0  0  2  0  0  0  0  0  0
  -19.1610  -28.8650   23.3930 C   0  0  0  0  0  0  0  0  0  0  0  0
  -18.9340  -30.1290   23.9800 C   0  0  0  0  0  3  0  0  0  0  0  0
  -17.6270  -30.6230   24.1460 C   0  0  0  0  0  3  0  0  0  0  0  0
  -16.5270  -29.8510   23.7360 C   0  0  0  0  0  3  0  0  0  0  0  0
  -16.7360  -28.5880   23.1540 C   0  0  0  0  0  3  0  0  0  0  0  0
  -25.9030  -32.5220   23.8700 C   0  0  0  0  0  3  0  0  0  0  0  0
  -26.3990  -31.7780   25.1700 C   0  0  1  0  0  0  0  0  0  0  0  0
  -25.2910  -31.5630   26.2280 C   0  0  0  0  0  1  0  0  0  0  0  0
  -26.9880  -30.3920   24.8250 C   0  0  0  0  0  1  0  0  0  0  0  0
  -27.5400  -32.5860   25.8330 C   0  0  0  0  0  1  0  0  0  0  0  0
  -25.5790  -33.9250   24.1820 N   0  0  0  0  0  0  0  0  0  0  0  0
  -25.9180  -34.9790   23.4280 C   0  0  0  0  0  0  0  0  0  0  0  0
  -26.5980  -34.8730   22.4040 O   0  0  0  0  0  0  0  0  0  0  0  0
  -24.9750  -34.0820   24.9760 H   0  0  0  0  0  0  0  0  0  0  0  0
  -24.1960  -36.7800   23.0550 C   0  0  0  0  0  1  0  0  0  0  0  0
  -25.4290  -36.3720   23.8780 C   0  0  0  0  0  3  0  0  0  0  0  0
  -27.5550  -37.2630   24.7290 C   0  0  0  0  0  1  0  0  0  0  0  0
  -26.4640  -37.4250   23.7710 N   0  0  0  0  0  0  0  0  0  0  0  0
  -26.0560  -38.3460   23.9080 H   0  0  0  0  0  0  0  0  0  0  0  0
  1  2  1  0
  1  6  1  0
  2  4  1  0
  3  1  2  0
  6  5  1  0
  7 15  1  0
  8 13  1  0
  9 10  1  0
  9  8  1  0
 11 10  1  0
 11 20  1  0
 11 12  1  0
 13  7  1  0
 13 12  1  0
 14  7  2  0
 15  6  1  0
 16 15  1  0
 17 18  2  0
 18 37  1  0
 19 18  1  0
 19 22  1  0
 20 17  1  0
 20 21  1  0
 21 19  2  0
 22 23  1  0
 23 24  2  0
 25 28  1  0
 25 24  1  0
 26 25  2  0
 27 26  1  0
 27 22  2  0
 28 29  1  0
 29 30  1  0
 30 31  2  0
 32 31  1  0
 32 36  1  0
 33 32  2  0
 34 29  2  0
 34 33  1  0
 35 34  1  0
 37 38  1  0
 38 41  1  0
 38 40  1  0
 39 37  2  0
 42 43  1  0
 42 17  1  0
 44 42  1  0
 45  2  1  0
 45 46  1  0
 47 46  1  0
 48 59  2  0
 49 47  1  0
 49 54  1  0
 50 58  1  0
 50 60  1  0
 51 57  1  0
 51 53  1  0
 52 58  1  0
 53 54  2  0
 53 52  1  0
 55 49  2  0
 56 55  1  0
 56 51  2  0
 57 50  1  0
 58 48  1  0
 60 62  2  0
 61 60  1  0
 63 61  1  0
 64 73  2  0
 64 69  1  0
 65 61  1  0
 65 69  1  0
 66 65  1  0
 67 68  1  0
 67 66  1  0
 68 64  1  0
 69 70  2  0
 70 71  1  0
 72 71  2  0
 73 72  1  0
 74 48  1  0
 74 79  1  0
 74 75  1  0
 75 78  1  1
 75 76  1  0
 77 75  1  0
 79 82  1  0
 80 84  1  0
 80 79  1  0
 81 80  2  0
 84 83  1  0
 86 84  1  0
 86 87  1  0
 86 85  1  0
M  ISO  4   7 100  15 100  46 101  47 101
M  END
>  <TORSDO>  (11) 
F 19

>  <SCORE>  (11) 
-16.531

>  <name>  (11) 
12

>  <ligand_id>  (11) 
12

>  <original_smiles>  (11) 
[H]c1c([H])c([H])c2c(c1[H])C([H])([H])C([H])([H])C([H])([H])C2([H])N([H])C(=O)C1([H])N(C(=O)C([H])(N([H])C(=O)C([H])(N([H])C([H])([H])[H])C([H])([H])[H])C(C([H])([H])[H])(C([H])([H])[H])C([H])([H])[H])C([H])([H])c2c([H])c(OC([H])([H])C([H])([H])N([H])C(=O)C([H])(N([H])C(=O)N3C([H])([H])C([H])([H])C([H])([H])C([H])(n4nc(-c5c([H])c([H])c(Oc6c([H])c([H])c(F)c([H])c6F)c([H])c5[H])c(C(=O)N([H])[H])c4N([H])[H])C3([H])[H])C([H])([H])[H])c([H])c([H])c2C1([H])[H]

>  <smiles>  (11) 
[H]c1c([H])c([H])c2c(c1[H])C([H])([H])C([H])([H])C([H])([H])C2([H])N([H])C(=O)C1([H])N(C(=O)C([H])(N([H])C(=O)C([H])(N([H])C([H])([H])[H])C([H])([H])[H])C(C([H])([H])[H])(C([H])([H])[H])C([H])([H])[H])C([H])([H])c2c([H])c(OC([H])([H])C([H])([H])N([H])C(=O)C([H])(N([H])C(=O)N3C([H])([H])C([H])([H])C([H])([H])C([H])(n4nc(-c5c([H])c([H])c(Oc6c([H])c([H])c(F)c([H])c6F)c([H])c5[H])c(C(=O)N([H])[H])c4N([H])[H])C3([H])[H])C([H])([H])[H])c([H])c([H])c2C1([H])[H]

$$$$
13:0:0
     RDKit          3D

 86 93  0  0  1  0  0  0  0  0999 V2000
  -28.8370  -22.7640   20.5210 C   0  0  0  0  0  3  0  0  0  0  0  0
  -29.3040  -19.8370   20.4720 C   0  0  0  0  0  0  0  0  0  0  0  0
  -29.1010  -21.2080   19.9240 N   0  0  0  0  0  0  0  0  0  0  0  0
  -29.0370  -19.7210   21.6680 O   0  0  0  0  0  0  0  0  0  0  0  0
  -29.2830  -21.2270   18.9280 H   0  0  0  0  0  0  0  0  0  0  0  0
  -29.9160  -18.3420   19.7690 C   0  0  0  0  0  2  0  0  0  0  0  0
  -30.5450  -15.4350   19.9120 C   0  0  0  0  0  0  0  0  0  0  0  0
  -30.4730  -13.0020   18.9930 C   0  0  0  0  0  2  0  0  0  0  0  0
  -29.4800  -12.8250   17.8150 C   0  0  0  0  0  2  0  0  0  0  0  0
  -28.0620  -12.5370   18.3380 C   0  0  0  0  0  2  0  0  0  0  0  0
  -27.6820  -13.4660   19.5160 C   0  0  0  0  0  3  0  0  0  0  0  0
  -28.7990  -13.5920   20.5770 C   0  0  0  0  0  2  0  0  0  0  0  0
  -29.9860  -14.1210   19.8860 N   0  0  0  0  0  0  0  0  0  0  0  0
  -31.7310  -15.4470   19.5520 O   0  0  0  0  0  0  0  0  0  0  0  0
  -29.7910  -16.7020   20.1270 N   0  0  0  0  0  0  0  0  0  0  0  0
  -28.8680  -16.4950   20.4780 H   0  0  0  0  0  0  0  0  0  0  0  0
  -25.3690  -13.9960   20.4450 C   0  0  0  0  0  0  0  0  0  0  0  0
  -24.3330  -13.2060   20.8550 C   0  0  0  0  0  0  0  0  0  0  0  0
  -24.7930  -11.8580   20.7430 C   0  0  0  0  0  0  0  0  0  0  0  0
  -26.3910  -13.1300   20.1000 N   0  0  0  0  0  0  0  0  0  0  0  0
  -26.0610  -11.8360   20.3460 N   0  0  0  0  0  0  0  0  0  0  0  0
  -24.0760  -10.5890   20.9320 C   0  0  0  0  0  0  0  0  0  0  0  0
  -24.5270   -9.6140   21.8480 C   0  0  0  0  0  3  0  0  0  0  0  0
  -23.8060   -8.4140   22.0280 C   0  0  0  0  0  3  0  0  0  0  0  0
  -22.6190   -8.1800   21.2940 C   0  0  0  0  0  0  0  0  0  0  0  0
  -22.1860   -9.1460   20.3670 C   0  0  0  0  0  3  0  0  0  0  0  0
  -22.9080  -10.3370   20.1840 C   0  0  0  0  0  3  0  0  0  0  0  0
  -21.8680   -7.0330   21.3840 O   0  0  0  0  0  0  0  0  0  0  0  0
  -21.8000   -6.3070   22.5460 C   0  0  0  0  0  0  0  0  0  0  0  0
  -21.3120   -6.8670   23.7470 C   0  0  0  0  0  3  0  0  0  0  0  0
  -21.1940   -6.0650   24.9000 C   0  0  0  0  0  3  0  0  0  0  0  0
  -21.5530   -4.7060   24.8530 C   0  0  0  0  0  0  0  0  0  0  0  0
  -22.0340   -4.1450   23.6560 C   0  0  0  0  0  3  0  0  0  0  0  0
  -22.1530   -4.9440   22.5060 C   0  0  0  0  0  0  0  0  0  0  0  0
  -22.5970   -4.3930   21.3500 F   0  0  0  0  0  0  0  0  0  0  0  0
  -21.4340   -3.9340   25.9590 F   0  0  0  0  0  0  0  0  0  0  0  0
  -22.9580  -13.6740   21.2300 C   0  0  0  0  0  0  0  0  0  0  0  0
  -22.2850  -12.9510   22.1170 N   0  0  0  0  0  0  0  0  0  0  0  0
  -22.4910  -14.7170   20.7720 O   0  0  0  0  0  0  0  0  0  0  0  0
  -22.6760  -12.1070   22.5080 H   0  0  0  0  0  0  0  0  0  0  0  0
  -21.3640  -13.2450   22.4110 H   0  0  0  0  0  0  0  0  0  0  0  0
  -25.5210  -15.3730   20.3060 N   0  0  0  0  0  0  0  0  0  0  0  0
  -24.7590  -16.0170   20.4850 H   0  0  0  0  0  0  0  0  0  0  0  0
  -26.3290  -15.8220   19.8970 H   0  0  0  0  0  0  0  0  0  0  0  0
  -28.1150  -24.3050   19.8790 C   0  0  0  0  0  3  0  0  0  0  0  0
  -28.1940  -25.9180   20.2780 O   0  0  0  0  0  0  0  0  0  0  0  0
  -24.5950  -31.8880   23.1940 C   0  0  0  0  0  0  0  0  0  0  0  0
  -27.1750  -27.0110   20.1740 C   0  0  0  0  0  0  0  0  0  0  0  0
  -23.4050  -30.4810   21.5610 C   0  0  0  0  0  3  0  0  0  0  0  0
  -24.8610  -28.8830   20.1320 C   0  0  0  0  0  0  0  0  0  0  0  0
  -25.9690  -30.7060   21.4070 C   0  0  0  0  0  2  0  0  0  0  0  0
  -26.0460  -29.2950   20.7520 C   0  0  0  0  0  0  0  0  0  0  0  0
  -27.1940  -28.3790   20.7500 C   0  0  0  0  0  3  0  0  0  0  0  0
  -25.9610  -26.7580   19.4960 C   0  0  0  0  0  3  0  0  0  0  0  0
  -24.8440  -27.6370   19.4830 C   0  0  0  0  0  3  0  0  0  0  0  0
  -23.6350  -29.7950   20.1850 C   0  0  0  0  0  2  0  0  0  0  0  0
  -24.6780  -31.0530   22.1080 N   0  0  0  0  0  0  0  0  0  0  0  0
  -23.5050  -32.1710   23.7190 O   0  0  0  0  0  0  0  0  0  0  0  0
  -22.7210  -29.4820   22.5320 C   0  0  0  0  0  0  0  0  0  0  0  0
  -21.3910  -29.3080   22.4130 N   0  0  0  0  0  0  0  0  0  0  0  0
  -23.3930  -28.8650   23.3630 O   0  0  0  0  0  0  0  0  0  0  0  0
  -20.9010  -29.8570   21.7200 H   0  0  0  0  0  0  0  0  0  0  0  0
  -18.0190  -28.0780   22.9440 C   0  0  0  0  0  0  0  0  0  0  0  0
  -20.5790  -28.3650   23.1900 C   0  0  0  0  0  3  0  0  0  0  0  0
  -20.6870  -26.9330   22.6150 C   0  0  0  0  0  2  0  0  0  0  0  0
  -19.5810  -26.6030   21.6070 C   0  0  0  0  0  2  0  0  0  0  0  0
  -18.2020  -26.7330   22.2610 C   0  0  0  0  0  2  0  0  0  0  0  0
  -19.1340  -28.8510   23.3650 C   0  0  0  0  0  0  0  0  0  0  0  0
  -18.9060  -30.1080   23.9670 C   0  0  0  0  0  3  0  0  0  0  0  0
  -17.5960  -30.5930   24.1480 C   0  0  0  0  0  3  0  0  0  0  0  0
  -16.4970  -29.8180   23.7400 C   0  0  0  0  0  3  0  0  0  0  0  0
  -16.7080  -28.5620   23.1440 C   0  0  0  0  0  3  0  0  0  0  0  0
  -25.8630  -32.5410   23.8220 C   0  0  0  0  0  3  0  0  0  0  0  0
  -26.3680  -31.7940   25.1190 C   0  0  1  0  0  0  0  0  0  0  0  0
  -25.2640  -31.5700   26.1790 C   0  0  0  0  0  1  0  0  0  0  0  0
  -26.9610  -30.4120   24.7640 C   0  0  0  0  0  1  0  0  0  0  0  0
  -27.5080  -32.6040   25.7790 C   0  0  0  0  0  1  0  0  0  0  0  0
  -25.5400  -33.9440   24.1420 N   0  0  0  0  0  0  0  0  0  0  0  0
  -25.8640  -35.0000   23.3830 C   0  0  0  0  0  0  0  0  0  0  0  0
  -26.5290  -34.8960   22.3480 O   0  0  0  0  0  0  0  0  0  0  0  0
  -24.9480  -34.0970   24.9440 H   0  0  0  0  0  0  0  0  0  0  0  0
  -24.1290  -36.7940   23.0420 C   0  0  0  0  0  1  0  0  0  0  0  0
  -25.3790  -36.3910   23.8420 C   0  0  0  0  0  3  0  0  0  0  0  0
  -27.5130  -37.2930   24.6600 C   0  0  0  0  0  1  0  0  0  0  0  0
  -26.4080  -37.4470   23.7170 N   0  0  0  0  0  0  0  0  0  0  0  0
  -25.9980  -38.3670   23.8570 H   0  0  0  0  0  0  0  0  0  0  0  0
  2  4  2  0
  3  2  1  0
  3  1  1  0
  5  3  1  0
  6 15  1  0
  6  2  1  0
  7 15  1  0
  8 13  1  0
  9 10  1  0
  9  8  1  0
 11 10  1  0
 11 20  1  0
 11 12  1  0
 13  7  1  0
 13 12  1  0
 14  7  2  0
 15 16  1  0
 17 18  2  0
 18 37  1  0
 19 18  1  0
 19 22  1  0
 20 21  1  0
 20 17  1  0
 21 19  2  0
 22 23  1  0
 23 24  2  0
 25 28  1  0
 25 24  1  0
 26 25  2  0
 27 26  1  0
 27 22  2  0
 28 29  1  0
 29 30  1  0
 30 31  2  0
 32 31  1  0
 32 36  1  0
 33 32  2  0
 34 29  2  0
 34 33  1  0
 35 34  1  0
 37 38  1  0
 38 41  1  0
 38 40  1  0
 39 37  2  0
 42 17  1  0
 42 43  1  0
 44 42  1  0
 45 46  1  0
 45  1  2  0
 47 58  2  0
 48 46  1  0
 48 53  1  0
 49 57  1  0
 49 59  1  0
 50 56  1  0
 50 52  1  0
 51 57  1  0
 52 51  1  0
 53 52  2  0
 54 48  2  0
 55 54  1  0
 55 50  2  0
 56 49  1  0
 57 47  1  0
 59 61  2  0
 60 59  1  0
 62 60  1  0
 63 72  2  0
 63 68  1  0
 64 60  1  0
 64 68  1  0
 65 64  1  0
 66 67  1  0
 66 65  1  0
 67 63  1  0
 68 69  2  0
 69 70  1  0
 71 70  2  0
 72 71  1  0
 73 47  1  0
 73 78  1  0
 73 74  1  0
 74 77  1  1
 74 75  1  0
 76 74  1  0
 78 81  1  0
 79 83  1  0
 79 78  1  0
 80 79  2  0
 83 82  1  0
 85 83  1  0
 85 86  1  0
 85 84  1  0
M  ISO  4   7 100  15 100  45 101  46 101
M  END
>  <TORSDO>  (12) 
F 19

>  <SCORE>  (12) 
-15.612

>  <name>  (12) 
13

>  <ligand_id>  (12) 
13

>  <original_smiles>  (12) 
[H]c1c([H])c([H])c2c(c1[H])C([H])([H])C([H])([H])C([H])([H])C2([H])N([H])C(=O)C1([H])N(C(=O)C([H])(N([H])C(=O)C([H])(N([H])C([H])([H])[H])C([H])([H])[H])C(C([H])([H])[H])(C([H])([H])[H])C([H])([H])[H])C([H])([H])c2c([H])c(OC([H])([H])C([H])([H])N([H])C(=O)C([H])([H])N([H])C(=O)N3C([H])([H])C([H])([H])C([H])([H])C([H])(n4nc(-c5c([H])c([H])c(Oc6c([H])c([H])c(F)c([H])c6F)c([H])c5[H])c(C(=O)N([H])[H])c4N([H])[H])C3([H])[H])c([H])c([H])c2C1([H])[H]

>  <smiles>  (12) 
[H]c1c([H])c([H])c2c(c1[H])C([H])([H])C([H])([H])C([H])([H])C2([H])N([H])C(=O)C1([H])N(C(=O)C([H])(N([H])C(=O)C([H])(N([H])C([H])([H])[H])C([H])([H])[H])C(C([H])([H])[H])(C([H])([H])[H])C([H])([H])[H])C([H])([H])c2c([H])c(OC([H])([H])C([H])([H])N([H])C(=O)C([H])([H])N([H])C(=O)N3C([H])([H])C([H])([H])C([H])([H])C([H])(n4nc(-c5c([H])c([H])c(Oc6c([H])c([H])c(F)c([H])c6F)c([H])c5[H])c(C(=O)N([H])[H])c4N([H])[H])C3([H])[H])c([H])c([H])c2C1([H])[H]

$$$$
14:0:0
     RDKit          3D

 95102  0  0  1  0  0  0  0  0999 V2000
  -29.4800  -20.6020   21.1630 C   0  0  0  0  0  2  0  0  0  0  0  0
  -30.0550  -18.1480   20.8070 C   0  0  0  0  0  0  0  0  0  0  0  0
  -29.4960  -19.3210   20.4400 N   0  0  0  0  0  0  0  0  0  0  0  0
  -30.6650  -18.0010   21.8670 O   0  0  0  0  0  0  0  0  0  0  0  0
  -29.0160  -19.3160   19.5500 H   0  0  0  0  0  0  0  0  0  0  0  0
  -29.8790  -16.9620   19.8300 C   0  0  0  0  0  0  0  0  0  0  0  0
  -30.6760  -14.5760   20.3790 C   0  0  0  0  0  0  0  0  0  0  0  0
  -30.4280  -12.3860   19.2990 C   0  0  0  0  0  2  0  0  0  0  0  0
  -29.4900  -12.5910   18.0890 C   0  0  0  0  0  2  0  0  0  0  0  0
  -28.0120  -12.4520   18.5100 C   0  0  0  0  0  2  0  0  0  0  0  0
  -27.6640  -13.2890   19.7700 C   0  0  0  0  0  3  0  0  0  0  0  0
  -28.7180  -13.0790   20.8850 C   0  0  0  0  0  2  0  0  0  0  0  0
  -30.0470  -13.3720   20.3220 N   0  0  0  0  0  0  0  0  0  0  0  0
  -31.8590  -14.7270   20.0620 O   0  0  0  0  0  0  0  0  0  0  0  0
  -29.8150  -15.6140   20.4510 N   0  0  0  0  0  4  0  0  0  0  0  0
  -28.8990  -15.3530   20.7780 H   0  0  0  0  0  0  0  0  0  0  0  0
  -25.2630  -13.9020   20.4640 C   0  0  0  0  0  0  0  0  0  0  0  0
  -24.1940  -13.1320   20.8360 C   0  0  0  0  0  0  0  0  0  0  0  0
  -24.6570  -11.7800   20.8190 C   0  0  0  0  0  0  0  0  0  0  0  0
  -26.3090  -13.0190   20.2450 N   0  0  0  0  0  0  0  0  0  0  0  0
  -25.9490  -11.7390   20.5180 N   0  0  0  0  0  0  0  0  0  0  0  0
  -23.9340  -10.5180   21.0160 C   0  0  0  0  0  0  0  0  0  0  0  0
  -24.3670   -9.5560   21.9550 C   0  0  0  0  0  3  0  0  0  0  0  0
  -23.6440   -8.3590   22.1390 C   0  0  0  0  0  3  0  0  0  0  0  0
  -22.4720   -8.1150   21.3840 C   0  0  0  0  0  0  0  0  0  0  0  0
  -22.0570   -9.0650   20.4350 C   0  0  0  0  0  3  0  0  0  0  0  0
  -22.7810  -10.2550   20.2500 C   0  0  0  0  0  3  0  0  0  0  0  0
  -21.7220   -6.9690   21.4770 O   0  0  0  0  0  0  0  0  0  0  0  0
  -21.6770   -6.2280   22.6300 C   0  0  0  0  0  0  0  0  0  0  0  0
  -21.2630   -6.7870   23.8590 C   0  0  0  0  0  3  0  0  0  0  0  0
  -21.1670   -5.9720   25.0050 C   0  0  0  0  0  3  0  0  0  0  0  0
  -21.4740   -4.6020   24.9230 C   0  0  0  0  0  0  0  0  0  0  0  0
  -21.8820   -4.0430   23.7000 C   0  0  0  0  0  3  0  0  0  0  0  0
  -21.9800   -4.8540   22.5560 C   0  0  0  0  0  0  0  0  0  0  0  0
  -22.3540   -4.3060   21.3740 F   0  0  0  0  0  0  0  0  0  0  0  0
  -21.3730   -3.8170   26.0220 F   0  0  0  0  0  0  0  0  0  0  0  0
  -22.7940  -13.6090   21.0950 C   0  0  0  0  0  0  0  0  0  0  0  0
  -22.0620  -12.9220   21.9630 N   0  0  0  0  0  0  0  0  0  0  0  0
  -22.3570  -14.6290   20.5620 O   0  0  0  0  0  0  0  0  0  0  0  0
  -22.4260  -12.0970   22.4180 H   0  0  0  0  0  0  0  0  0  0  0  0
  -21.1220  -13.2260   22.1780 H   0  0  0  0  0  0  0  0  0  0  0  0
  -25.4240  -15.2710   20.2740 N   0  0  0  0  0  0  0  0  0  0  0  0
  -24.6470  -15.9160   20.3630 H   0  0  0  0  0  0  0  0  0  0  0  0
  -26.2570  -15.7080   19.9030 H   0  0  0  0  0  0  0  0  0  0  0  0
  -30.7570  -17.0110   18.5420 C   0  0  0  0  0  2  0  0  0  0  0  0
  -29.2600  -18.4780   17.0590 C   0  0  0  0  0  1  0  0  0  0  0  0
  -31.6980  -18.1740   16.5090 C   0  0  0  0  0  1  0  0  0  0  0  0
  -30.6670  -18.2670   17.6440 C   0  0  0  0  0  3  0  0  0  0  0  0
  -29.4750  -21.8200   20.1900 C   0  0  0  0  0  2  0  0  0  0  0  0
  -28.9640  -24.2790   20.1920 C   0  0  0  0  0  0  0  0  0  0  0  0
  -28.9750  -23.0690   20.7920 N   0  0  0  0  0  0  0  0  0  0  0  0
  -29.4360  -24.4490   19.0650 O   0  0  0  0  0  0  0  0  0  0  0  0
  -28.5660  -23.0080   21.7150 H   0  0  0  0  0  0  0  0  0  0  0  0
  -28.3220  -25.4610   20.9610 C   0  0  0  0  0  2  0  0  0  0  0  0
  -28.4320  -26.7190   20.2520 O   0  0  0  0  0  0  0  0  0  0  0  0
  -24.5900  -31.9360   23.2440 C   0  0  0  0  0  0  0  0  0  0  0  0
  -27.2770  -27.4740   20.2290 C   0  0  0  0  0  0  0  0  0  0  0  0
  -23.4030  -30.5160   21.6010 C   0  0  0  0  0  3  0  0  0  0  0  0
  -24.8770  -28.9750   20.1980 C   0  0  0  0  0  0  0  0  0  0  0  0
  -25.9300  -30.8860   21.4200 C   0  0  0  0  0  2  0  0  0  0  0  0
  -26.0290  -29.5100   20.7910 C   0  0  0  0  0  0  0  0  0  0  0  0
  -27.2350  -28.7680   20.7980 C   0  0  0  0  0  3  0  0  0  0  0  0
  -26.1110  -26.9560   19.6260 C   0  0  0  0  0  3  0  0  0  0  0  0
  -24.9150  -27.6990   19.6090 C   0  0  0  0  0  3  0  0  0  0  0  0
  -23.6280  -29.8280   20.2280 C   0  0  0  0  0  2  0  0  0  0  0  0
  -24.6590  -31.1280   22.1470 N   0  0  0  0  0  0  0  0  0  0  0  0
  -23.5040  -32.2070   23.7730 O   0  0  0  0  0  0  0  0  0  0  0  0
  -22.7490  -29.4990   22.5650 C   0  0  0  0  0  0  0  0  0  0  0  0
  -21.4280  -29.3040   22.4230 N   0  0  0  0  0  0  0  0  0  0  0  0
  -23.4290  -28.8880   23.3930 O   0  0  0  0  0  0  0  0  0  0  0  0
  -20.9420  -29.8510   21.7260 H   0  0  0  0  0  0  0  0  0  0  0  0
  -18.0610  -28.0780   22.8820 C   0  0  0  0  0  0  0  0  0  0  0  0
  -20.6100  -28.3670   23.1920 C   0  0  0  0  0  3  0  0  0  0  0  0
  -20.7380  -26.9310   22.6340 C   0  0  0  0  0  2  0  0  0  0  0  0
  -19.6560  -26.5840   21.6060 C   0  0  0  0  0  2  0  0  0  0  0  0
  -18.2630  -26.7220   22.2270 C   0  0  0  0  0  2  0  0  0  0  0  0
  -19.1640  -28.8570   23.3210 C   0  0  0  0  0  0  0  0  0  0  0  0
  -18.9220  -30.1260   23.8920 C   0  0  0  0  0  3  0  0  0  0  0  0
  -17.6110  -30.6150   24.0300 C   0  0  0  0  0  3  0  0  0  0  0  0
  -16.5210  -29.8330   23.6080 C   0  0  0  0  0  3  0  0  0  0  0  0
  -16.7480  -28.5670   23.0400 C   0  0  0  0  0  3  0  0  0  0  0  0
  -25.8690  -32.5770   23.8690 C   0  0  0  0  0  3  0  0  0  0  0  0
  -25.5520  -33.9760   24.1870 N   0  0  0  0  0  0  0  0  0  0  0  0
  -25.8910  -35.0240   23.4250 C   0  0  0  0  0  0  0  0  0  0  0  0
  -26.5750  -34.9160   22.4030 O   0  0  0  0  0  0  0  0  0  0  0  0
  -24.9450  -34.1340   24.9780 H   0  0  0  0  0  0  0  0  0  0  0  0
  -24.1650  -36.8090   23.0320 C   0  0  0  0  0  1  0  0  0  0  0  0
  -25.3930  -36.4120   23.8670 C   0  0  0  0  0  3  0  0  0  0  0  0
  -27.5130  -37.3050   24.7270 C   0  0  0  0  0  1  0  0  0  0  0  0
  -26.4240  -37.4680   23.7670 N   0  0  0  0  0  0  0  0  0  0  0  0
  -26.0140  -38.3870   23.9060 H   0  0  0  0  0  0  0  0  0  0  0  0
  -26.3830  -31.8150   25.1520 C   0  0  1  0  0  0  0  0  0  0  0  0
  -25.2860  -31.5800   26.2160 C   0  0  0  0  0  1  0  0  0  0  0  0
  -26.9760  -30.4390   24.7700 C   0  0  0  0  0  1  0  0  0  0  0  0
  -27.5250  -32.6200   25.8170 C   0  0  0  0  0  1  0  0  0  0  0  0
  2  4  2  0
  3  2  1  0
  3  1  1  0
  5  3  1  0
  6 15  2  0
  6  2  1  0
  7 15  1  0
  8 13  1  0
  9 10  1  0
  9  8  1  0
 11 10  1  0
 11 20  1  0
 11 12  1  0
 13  7  1  0
 13 12  1  0
 14  7  2  0
 15 16  1  0
 17 18  2  0
 18 37  1  0
 19 18  1  0
 19 22  1  0
 20 17  1  0
 20 21  1  0
 21 19  2  0
 22 23  1  0
 23 24  2  0
 25 28  1  0
 25 24  1  0
 26 25  2  0
 27 26  1  0
 27 22  2  0
 28 29  1  0
 29 30  1  0
 30 31  2  0
 32 31  1  0
 32 36  1  0
 33 32  2  0
 34 29  2  0
 34 33  1  0
 35 34  1  0
 37 38  1  0
 38 41  1  0
 38 40  1  0
 39 37  2  0
 42 43  1  0
 42 17  1  0
 44 42  1  0
 45  6  1  0
 46 48  1  0
 47 48  1  0
 48 45  1  0
 49 51  1  0
 49  1  1  0
 50 51  1  0
 50 54  1  0
 51 53  1  0
 52 50  2  0
 55 54  1  0
 56 67  2  0
 57 55  1  0
 57 62  1  0
 58 66  1  0
 58 68  1  0
 59 65  1  0
 59 61  1  0
 60 66  1  0
 61 62  2  0
 61 60  1  0
 63 57  2  0
 64 63  1  0
 64 59  2  0
 65 58  1  0
 66 56  1  0
 68 70  2  0
 69 68  1  0
 71 69  1  0
 72 81  2  0
 72 77  1  0
 73 69  1  0
 73 77  1  0
 74 73  1  0
 75 76  1  0
 75 74  1  0
 76 72  1  0
 77 78  2  0
 78 79  1  0
 80 79  2  0
 81 80  1  0
 82 56  1  0
 82 83  1  0
 82 92  1  0
 83 86  1  0
 84 88  1  0
 84 83  1  0
 85 84  2  0
 88 87  1  0
 90 88  1  0
 90 91  1  0
 90 89  1  0
 92 95  1  1
 92 93  1  0
 94 92  1  0
M  ISO  4   7 100  15 100  54 101  55 101
M  END
>  <TORSDO>  (13) 
F 23

>  <SCORE>  (13) 
-12.985

>  <name>  (13) 
14

>  <ligand_id>  (13) 
14

>  <original_smiles>  (13) 
[H]c1c([H])c([H])c2c(c1[H])C([H])([H])C([H])([H])C([H])([H])C2([H])N([H])C(=O)C1([H])N(C(=O)C([H])(N([H])C(=O)C([H])(N([H])C([H])([H])[H])C([H])([H])[H])C(C([H])([H])[H])(C([H])([H])[H])C([H])([H])[H])C([H])([H])c2c([H])c(OC([H])([H])C(=O)N([H])C([H])([H])C([H])([H])N([H])C(=O)C([H])(N([H])C(=O)N3C([H])([H])C([H])([H])C([H])([H])C([H])(n4nc(-c5c([H])c([H])c(Oc6c([H])c([H])c(F)c([H])c6F)c([H])c5[H])c(C(=O)N([H])[H])c4N([H])[H])C3([H])[H])C([H])([H])C([H])(C([H])([H])[H])C([H])([H])[H])c([H])c([H])c2C1([H])[H]

>  <smiles>  (13) 
[H]c1c([H])c([H])c2c(c1[H])C([H])([H])C([H])([H])C([H])([H])C2([H])N([H])C(=O)C1([H])N(C(=O)C([H])(N([H])C(=O)C([H])(N([H])C([H])([H])[H])C([H])([H])[H])C(C([H])([H])[H])(C([H])([H])[H])C([H])([H])[H])C([H])([H])c2c([H])c(OC([H])([H])C(=O)N([H])C([H])([H])C([H])([H])N([H])C(=O)C([H])(N([H])C(=O)N3C([H])([H])C([H])([H])C([H])([H])C([H])(n4nc(-c5c([H])c([H])c(Oc6c([H])c([H])c(F)c([H])c6F)c([H])c5[H])c(C(=O)N([H])[H])c4N([H])[H])C3([H])[H])C([H])([H])C([H])(C([H])([H])[H])C([H])([H])[H])c([H])c([H])c2C1([H])[H]

$$$$
15:0:0
     RDKit          3D

 93100  0  0  1  0  0  0  0  0999 V2000
  -30.0350  -22.4860   20.9440 C   0  0  0  0  0  0  0  0  0  0  0  0
  -30.3250  -23.7860   21.0700 N   0  0  0  0  0  0  0  0  0  0  0  0
  -29.2180  -22.0640   20.1260 O   0  0  0  0  0  0  0  0  0  0  0  0
  -30.9990  -24.0380   21.7820 H   0  0  0  0  0  0  0  0  0  0  0  0
  -30.8260  -21.5380   21.8580 C   0  0  0  0  0  2  0  0  0  0  0  0
  -30.9520  -20.0720   21.3800 C   0  0  0  0  0  2  0  0  0  0  0  0
  -29.8300  -19.1430   21.8880 C   0  0  0  0  0  2  0  0  0  0  0  0
  -30.1270  -17.6380   21.6850 C   0  0  0  0  0  2  0  0  0  0  0  0
  -29.8850  -17.1270   20.2540 C   0  0  0  0  0  0  0  0  0  0  0  0
  -30.4680  -16.0000   19.8230 N   0  0  0  0  0  0  0  0  0  0  0  0
  -29.1340  -17.7470   19.5030 O   0  0  0  0  0  0  0  0  0  0  0  0
  -30.3950  -15.6640   18.8730 H   0  0  0  0  0  0  0  0  0  0  0  0
  -31.9050  -14.1750   19.9760 C   0  0  0  0  0  0  0  0  0  0  0  0
  -31.3170  -11.9770   19.0180 C   0  0  0  0  0  2  0  0  0  0  0  0
  -30.3690  -12.1210   17.8140 C   0  0  0  0  0  2  0  0  0  0  0  0
  -28.9010  -12.1680   18.2810 C   0  0  0  0  0  2  0  0  0  0  0  0
  -28.6720  -13.1830   19.4320 C   0  0  0  0  0  3  0  0  0  0  0  0
  -29.7310  -13.0100   20.5440 C   0  0  0  0  0  2  0  0  0  0  0  0
  -31.0630  -13.1070   19.9230 N   0  0  0  0  0  0  0  0  0  0  0  0
  -33.0090  -14.1970   19.4320 O   0  0  0  0  0  0  0  0  0  0  0  0
  -31.4460  -15.2890   20.5550 N   0  0  0  0  0  0  0  0  0  0  0  0
  -32.1700  -15.9570   20.7770 H   0  0  0  0  0  0  0  0  0  0  0  0
  -26.4160  -14.1280   20.2330 C   0  0  0  0  0  0  0  0  0  0  0  0
  -25.2590  -13.5130   20.6270 C   0  0  0  0  0  0  0  0  0  0  0  0
  -25.5180  -12.1090   20.5670 C   0  0  0  0  0  0  0  0  0  0  0  0
  -27.3130  -13.1060   19.9580 N   0  0  0  0  0  0  0  0  0  0  0  0
  -26.7760  -11.8880   20.2160 N   0  0  0  0  0  0  0  0  0  0  0  0
  -24.6240  -10.9630   20.7680 C   0  0  0  0  0  0  0  0  0  0  0  0
  -24.9330   -9.9390   21.6910 C   0  0  0  0  0  3  0  0  0  0  0  0
  -24.0480   -8.8550   21.8780 C   0  0  0  0  0  3  0  0  0  0  0  0
  -22.8400   -8.7890   21.1440 C   0  0  0  0  0  0  0  0  0  0  0  0
  -22.5490   -9.7990   20.2100 C   0  0  0  0  0  3  0  0  0  0  0  0
  -23.4320  -10.8740   20.0200 C   0  0  0  0  0  3  0  0  0  0  0  0
  -21.9340   -7.7610   21.2420 O   0  0  0  0  0  0  0  0  0  0  0  0
  -21.7810   -7.0460   22.4030 C   0  0  0  0  0  0  0  0  0  0  0  0
  -21.4430   -7.6700   23.6230 C   0  0  0  0  0  3  0  0  0  0  0  0
  -21.2270   -6.8880   24.7760 C   0  0  0  0  0  3  0  0  0  0  0  0
  -21.3390   -5.4870   24.7100 C   0  0  0  0  0  0  0  0  0  0  0  0
  -21.6700   -4.8640   23.4930 C   0  0  0  0  0  3  0  0  0  0  0  0
  -21.8880   -5.6420   22.3420 C   0  0  0  0  0  0  0  0  0  0  0  0
  -22.1860   -5.0350   21.1680 F   0  0  0  0  0  0  0  0  0  0  0  0
  -21.1240   -4.7350   25.8140 F   0  0  0  0  0  0  0  0  0  0  0  0
  -23.9540  -14.1840   20.9500 C   0  0  0  0  0  0  0  0  0  0  0  0
  -23.1690  -13.5950   21.8460 N   0  0  0  0  0  0  0  0  0  0  0  0
  -23.6460  -15.2620   20.4450 O   0  0  0  0  0  0  0  0  0  0  0  0
  -23.4300  -12.7210   22.2760 H   0  0  0  0  0  0  0  0  0  0  0  0
  -22.2930  -14.0260   22.1060 H   0  0  0  0  0  0  0  0  0  0  0  0
  -26.7720  -15.4630   20.0680 N   0  0  0  0  0  0  0  0  0  0  0  0
  -26.1170  -16.2190   20.2370 H   0  0  0  0  0  0  0  0  0  0  0  0
  -27.6800  -15.7940   19.7680 H   0  0  0  0  0  0  0  0  0  0  0  0
  -29.8820  -24.8670   20.1900 C   0  0  0  0  0  2  0  0  0  0  0  0
  -28.5670  -25.5270   20.6370 C   0  0  0  0  0  2  0  0  0  0  0  0
  -28.5210  -26.8240   20.0450 O   0  0  0  0  0  0  0  0  0  0  0  0
  -24.6850  -31.8640   23.2680 C   0  0  0  0  0  0  0  0  0  0  0  0
  -27.3230  -27.4890   20.1190 C   0  0  0  0  0  0  0  0  0  0  0  0
  -23.4620  -30.4600   21.6360 C   0  0  0  0  0  3  0  0  0  0  0  0
  -24.9050  -28.9420   20.1830 C   0  0  0  0  0  0  0  0  0  0  0  0
  -25.9750  -30.8540   21.3920 C   0  0  0  0  0  2  0  0  0  0  0  0
  -26.0650  -29.4860   20.7470 C   0  0  0  0  0  0  0  0  0  0  0  0
  -27.2790  -28.7680   20.7080 C   0  0  0  0  0  3  0  0  0  0  0  0
  -26.1490  -26.9450   19.5540 C   0  0  0  0  0  3  0  0  0  0  0  0
  -24.9390  -27.6690   19.5840 C   0  0  0  0  0  3  0  0  0  0  0  0
  -23.6520  -29.7860   20.2510 C   0  0  0  0  0  2  0  0  0  0  0  0
  -24.7270  -31.0740   22.1580 N   0  0  0  0  0  0  0  0  0  0  0  0
  -23.6120  -32.1220   23.8300 O   0  0  0  0  0  0  0  0  0  0  0  0
  -22.8390  -29.4260   22.6030 C   0  0  0  0  0  0  0  0  0  0  0  0
  -21.5190  -29.2150   22.4800 N   0  0  0  0  0  0  0  0  0  0  0  0
  -23.5400  -28.8170   23.4160 O   0  0  0  0  0  0  0  0  0  0  0  0
  -21.0150  -29.7590   21.7940 H   0  0  0  0  0  0  0  0  0  0  0  0
  -18.1830  -27.9090   22.9470 C   0  0  0  0  0  0  0  0  0  0  0  0
  -20.7250  -28.2610   23.2540 C   0  0  0  0  0  3  0  0  0  0  0  0
  -20.8870  -26.8250   22.7020 C   0  0  0  0  0  2  0  0  0  0  0  0
  -19.8130  -26.4480   21.6780 C   0  0  0  0  0  2  0  0  0  0  0  0
  -18.4170  -26.5560   22.2980 C   0  0  0  0  0  2  0  0  0  0  0  0
  -19.2680  -28.7170   23.3820 C   0  0  0  0  0  0  0  0  0  0  0  0
  -18.9970  -29.9820   23.9450 C   0  0  0  0  0  3  0  0  0  0  0  0
  -17.6730  -30.4410   24.0830 C   0  0  0  0  0  3  0  0  0  0  0  0
  -16.6020  -29.6310   23.6660 C   0  0  0  0  0  3  0  0  0  0  0  0
  -16.8580  -28.3670   23.1040 C   0  0  0  0  0  3  0  0  0  0  0  0
  -25.9770  -32.5010   23.8690 C   0  0  0  0  0  3  0  0  0  0  0  0
  -25.6680  -33.8980   24.2000 N   0  0  0  0  0  0  0  0  0  0  0  0
  -26.0010  -34.9500   23.4400 C   0  0  0  0  0  0  0  0  0  0  0  0
  -26.6710  -34.8470   22.4100 O   0  0  0  0  0  0  0  0  0  0  0  0
  -25.0760  -34.0520   25.0010 H   0  0  0  0  0  0  0  0  0  0  0  0
  -24.2690  -36.7390   23.0830 C   0  0  0  0  0  1  0  0  0  0  0  0
  -25.5110  -36.3370   23.8960 C   0  0  0  0  0  3  0  0  0  0  0  0
  -27.6440  -37.2220   24.7290 C   0  0  0  0  0  1  0  0  0  0  0  0
  -26.5420  -37.3920   23.7860 N   0  0  0  0  0  0  0  0  0  0  0  0
  -26.1350  -38.3110   23.9350 H   0  0  0  0  0  0  0  0  0  0  0  0
  -26.5200  -31.7320   25.1360 C   0  0  1  0  0  0  0  0  0  0  0  0
  -25.4450  -31.4870   26.2200 C   0  0  0  0  0  1  0  0  0  0  0  0
  -27.1050  -30.3590   24.7310 C   0  0  0  0  0  1  0  0  0  0  0  0
  -27.6760  -32.5330   25.7790 C   0  0  0  0  0  1  0  0  0  0  0  0
  1  2  1  0
  1  5  1  0
  2  4  1  0
  3  1  2  0
  6  5  1  0
  6  7  1  0
  8  7  1  0
  9  8  1  0
 10  9  1  0
 10 21  1  0
 11  9  2  0
 12 10  1  0
 13 21  1  0
 14 19  1  0
 15 16  1  0
 15 14  1  0
 17 16  1  0
 17 26  1  0
 17 18  1  0
 19 13  1  0
 19 18  1  0
 20 13  2  0
 21 22  1  0
 23 24  2  0
 24 43  1  0
 25 24  1  0
 25 28  1  0
 26 27  1  0
 26 23  1  0
 27 25  2  0
 28 29  1  0
 29 30  2  0
 31 34  1  0
 31 30  1  0
 32 31  2  0
 33 32  1  0
 33 28  2  0
 34 35  1  0
 35 36  1  0
 36 37  2  0
 38 37  1  0
 38 42  1  0
 39 38  2  0
 40 35  2  0
 40 39  1  0
 41 40  1  0
 43 44  1  0
 44 47  1  0
 44 46  1  0
 45 43  2  0
 48 23  1  0
 48 49  1  0
 50 48  1  0
 51 52  1  0
 51  2  1  0
 53 55  1  0
 53 52  1  0
 54 65  2  0
 55 60  1  0
 56 64  1  0
 56 66  1  0
 57 63  1  0
 57 59  1  0
 58 64  1  0
 59 58  1  0
 60 59  2  0
 61 62  1  0
 61 55  2  0
 62 57  2  0
 63 56  1  0
 64 54  1  0
 66 68  2  0
 67 66  1  0
 69 67  1  0
 70 79  2  0
 70 75  1  0
 71 67  1  0
 71 75  1  0
 72 71  1  0
 73 74  1  0
 73 72  1  0
 74 70  1  0
 75 76  2  0
 76 77  1  0
 78 77  2  0
 79 78  1  0
 80 54  1  0
 80 81  1  0
 80 90  1  0
 81 84  1  0
 82 86  1  0
 82 81  1  0
 83 82  2  0
 86 85  1  0
 88 86  1  0
 88 89  1  0
 88 87  1  0
 90 93  1  1
 90 91  1  0
 92 90  1  0
M  ISO  4  13 100  21 100  52 101  53 101
M  END
>  <TORSDO>  (14) 
F 23

>  <SCORE>  (14) 
-11.369

>  <name>  (14) 
15

>  <ligand_id>  (14) 
15

>  <original_smiles>  (14) 
[H]c1c([H])c([H])c2c(c1[H])C([H])([H])C([H])([H])C([H])([H])C2([H])N([H])C(=O)C1([H])N(C(=O)C([H])(N([H])C(=O)C([H])(N([H])C([H])([H])[H])C([H])([H])[H])C(C([H])([H])[H])(C([H])([H])[H])C([H])([H])[H])C([H])([H])c2c([H])c(OC([H])([H])C([H])([H])N([H])C(=O)C([H])([H])C([H])([H])C([H])([H])C([H])([H])C(=O)N([H])N([H])C(=O)N3C([H])([H])C([H])([H])C([H])([H])C([H])(n4nc(-c5c([H])c([H])c(Oc6c([H])c([H])c(F)c([H])c6F)c([H])c5[H])c(C(=O)N([H])[H])c4N([H])[H])C3([H])[H])c([H])c([H])c2C1([H])[H]

>  <smiles>  (14) 
[H]c1c([H])c([H])c2c(c1[H])C([H])([H])C([H])([H])C([H])([H])C2([H])N([H])C(=O)C1([H])N(C(=O)C([H])(N([H])C(=O)C([H])(N([H])C([H])([H])[H])C([H])([H])[H])C(C([H])([H])[H])(C([H])([H])[H])C([H])([H])[H])C([H])([H])c2c([H])c(OC([H])([H])C([H])([H])N([H])C(=O)C([H])([H])C([H])([H])C([H])([H])C([H])([H])C(=O)N([H])N([H])C(=O)N3C([H])([H])C([H])([H])C([H])([H])C([H])(n4nc(-c5c([H])c([H])c(Oc6c([H])c([H])c(F)c([H])c6F)c([H])c5[H])c(C(=O)N([H])[H])c4N([H])[H])C3([H])[H])c([H])c([H])c2C1([H])[H]

$$$$
16:0:0
     RDKit          3D

108116  0  0  1  0  0  0  0  0999 V2000
  -28.5180  -25.0310   18.6790 C   0  0  0  0  0  0  0  0  0  0  0  0
  -25.1580  -22.8410   18.3560 C   0  0  0  0  0  2  0  0  0  0  0  0
  -25.9100  -22.8910   17.0210 C   0  0  0  0  0  2  0  0  0  0  0  0
  -26.0920  -22.5220   19.5420 C   0  0  0  0  0  2  0  0  0  0  0  0
  -27.0760  -23.8980   17.0780 C   0  0  0  0  0  2  0  0  0  0  0  0
  -27.6060  -22.7360   19.2610 C   0  0  0  0  0  3  0  0  0  0  0  0
  -27.7880  -23.9200   18.3780 N   0  0  0  0  0  0  0  0  0  0  0  0
  -28.7860  -25.8720   17.8120 O   0  0  0  0  0  0  0  0  0  0  0  0
  -28.3030  -21.4640   18.7220 C   0  0  0  0  0  0  0  0  0  0  0  0
  -27.9640  -20.3060   19.3010 N   0  0  0  0  0  0  0  0  0  0  0  0
  -29.1300  -21.5210   17.8080 O   0  0  0  0  0  0  0  0  0  0  0  0
  -27.3490  -20.3330   20.1000 H   0  0  0  0  0  0  0  0  0  0  0  0
  -28.4760  -18.9880   18.9290 C   0  0  0  0  0  3  0  0  0  0  0  0
  -29.6500  -18.5710   19.8450 C   0  0  0  0  0  0  0  0  0  0  0  0
  -30.2840  -17.4330   19.5340 N   0  0  0  0  0  0  0  0  0  0  0  0
  -29.9760  -19.2570   20.8150 O   0  0  0  0  0  0  0  0  0  0  0  0
  -29.9660  -16.9260   18.7200 H   0  0  0  0  0  0  0  0  0  0  0  0
  -31.4530  -16.9030   20.2320 C   0  0  0  0  0  2  0  0  0  0  0  0
  -31.0800  -16.3090   21.6050 C   0  0  0  0  0  2  0  0  0  0  0  0
  -31.1950  -13.8980   20.9840 C   0  0  0  0  0  0  0  0  0  0  0  0
  -30.9060  -11.5980   20.1450 C   0  0  0  0  0  2  0  0  0  0  0  0
  -30.0700  -11.6040   18.8500 C   0  0  0  0  0  2  0  0  0  0  0  0
  -28.5620  -11.5810   19.1640 C   0  0  0  0  0  2  0  0  0  0  0  0
  -28.1540  -12.6370   20.2260 C   0  0  0  0  0  3  0  0  0  0  0  0
  -29.0990  -12.5740   21.4460 C   0  0  0  0  0  2  0  0  0  0  0  0
  -30.4810  -12.7430   20.9610 N   0  0  0  0  0  0  0  0  0  0  0  0
  -32.3300  -14.0040   20.5110 O   0  0  0  0  0  0  0  0  0  0  0  0
  -30.5490  -14.9530   21.4980 N   0  0  0  0  0  0  0  0  0  0  0  0
  -29.6120  -14.7940   21.8390 H   0  0  0  0  0  0  0  0  0  0  0  0
  -25.8020  -13.4610   20.8710 C   0  0  0  0  0  0  0  0  0  0  0  0
  -24.6360  -12.7930   21.1310 C   0  0  0  0  0  0  0  0  0  0  0  0
  -24.9440  -11.4050   21.0050 C   0  0  0  0  0  0  0  0  0  0  0  0
  -26.7550  -12.4870   20.6170 N   0  0  0  0  0  0  0  0  0  0  0  0
  -26.2370  -11.2390   20.7520 N   0  0  0  0  0  0  0  0  0  0  0  0
  -24.0730  -10.2260   21.0560 C   0  0  0  0  0  0  0  0  0  0  0  0
  -24.2510   -9.2190   22.0280 C   0  0  0  0  0  3  0  0  0  0  0  0
  -23.3900   -8.1010   22.0670 C   0  0  0  0  0  3  0  0  0  0  0  0
  -22.3360   -7.9850   21.1300 C   0  0  0  0  0  0  0  0  0  0  0  0
  -22.1780   -8.9800   20.1470 C   0  0  0  0  0  3  0  0  0  0  0  0
  -23.0400  -10.0880   20.1070 C   0  0  0  0  0  3  0  0  0  0  0  0
  -21.4670   -6.9220   21.0760 O   0  0  0  0  0  0  0  0  0  0  0  0
  -21.0210   -6.3000   22.2130 C   0  0  0  0  0  0  0  0  0  0  0  0
  -20.3000   -6.9930   23.2100 C   0  0  0  0  0  3  0  0  0  0  0  0
  -19.8000   -6.2980   24.3300 C   0  0  0  0  0  3  0  0  0  0  0  0
  -20.0110   -4.9110   24.4510 C   0  0  0  0  0  0  0  0  0  0  0  0
  -20.7240   -4.2190   23.4570 C   0  0  0  0  0  3  0  0  0  0  0  0
  -21.2260   -4.9100   22.3400 C   0  0  0  0  0  0  0  0  0  0  0  0
  -21.8930   -4.2340   21.3740 F   0  0  0  0  0  0  0  0  0  0  0  0
  -19.5250   -4.2420   25.5220 F   0  0  0  0  0  0  0  0  0  0  0  0
  -23.2890  -13.4090   21.3820 C   0  0  0  0  0  0  0  0  0  0  0  0
  -22.4600  -12.7560   22.1900 N   0  0  0  0  0  0  0  0  0  0  0  0
  -22.9840  -14.4980   20.9010 O   0  0  0  0  0  0  0  0  0  0  0  0
  -22.7200  -11.8720   22.6020 H   0  0  0  0  0  0  0  0  0  0  0  0
  -21.5530  -13.1480   22.4000 H   0  0  0  0  0  0  0  0  0  0  0  0
  -26.1260  -14.8070   20.8070 N   0  0  0  0  0  0  0  0  0  0  0  0
  -25.4340  -15.5380   20.9250 H   0  0  0  0  0  0  0  0  0  0  0  0
  -27.0330  -15.1560   20.5290 H   0  0  0  0  0  0  0  0  0  0  0  0
  -26.7930  -17.6640   20.4350 C   0  0  0  0  0  1  0  0  0  0  0  0
  -26.1390  -18.3620   18.0990 C   0  0  0  0  0  1  0  0  0  0  0  0
  -27.3130  -17.9560   19.0110 C   0  0  0  0  0  3  0  0  0  0  0  0
  -28.9890  -25.3390   20.1270 C   0  0  0  0  0  3  0  0  0  0  0  0
  -28.8210  -26.7330   20.4150 O   0  0  0  0  0  0  0  0  0  0  0  0
  -24.7100  -31.8570   23.1120 C   0  0  0  0  0  0  0  0  0  0  0  0
  -27.5790  -27.3320   20.3750 C   0  0  0  0  0  0  0  0  0  0  0  0
  -23.5920  -30.3300   21.5180 C   0  0  0  0  0  3  0  0  0  0  0  0
  -25.1290  -28.7420   20.2450 C   0  0  0  0  0  0  0  0  0  0  0  0
  -26.1140  -30.7420   21.3820 C   0  0  0  0  0  2  0  0  0  0  0  0
  -26.2520  -29.3400   20.8270 C   0  0  0  0  0  0  0  0  0  0  0  0
  -27.4770  -28.6430   20.8860 C   0  0  0  0  0  3  0  0  0  0  0  0
  -26.4280  -26.7320   19.8130 C   0  0  0  0  0  3  0  0  0  0  0  0
  -25.2090  -27.4340   19.7420 C   0  0  0  0  0  3  0  0  0  0  0  0
  -23.8590  -29.5610   20.1970 C   0  0  0  0  0  2  0  0  0  0  0  0
  -24.8210  -30.9950   22.0610 N   0  0  0  0  0  0  0  0  0  0  0  0
  -23.6060  -32.1340   23.5980 O   0  0  0  0  0  0  0  0  0  0  0  0
  -22.9330  -29.3530   22.5160 C   0  0  0  0  0  0  0  0  0  0  0  0
  -21.6190  -29.1280   22.3550 N   0  0  0  0  0  0  0  0  0  0  0  0
  -23.6040  -28.7940   23.3880 O   0  0  0  0  0  0  0  0  0  0  0  0
  -21.1390  -29.6270   21.6200 H   0  0  0  0  0  0  0  0  0  0  0  0
  -18.2580  -27.9020   22.8230 C   0  0  0  0  0  0  0  0  0  0  0  0
  -20.8000  -28.2160   23.1500 C   0  0  0  0  0  3  0  0  0  0  0  0
  -20.9420  -26.7600   22.6460 C   0  0  0  0  0  2  0  0  0  0  0  0
  -19.8720  -26.3660   21.6240 C   0  0  0  0  0  2  0  0  0  0  0  0
  -18.4720  -26.5220   22.2220 C   0  0  0  0  0  2  0  0  0  0  0  0
  -19.3520  -28.7040   23.2420 C   0  0  0  0  0  0  0  0  0  0  0  0
  -19.0970  -29.9930   23.7550 C   0  0  0  0  0  3  0  0  0  0  0  0
  -17.7810  -30.4810   23.8610 C   0  0  0  0  0  3  0  0  0  0  0  0
  -16.7010  -29.6750   23.4630 C   0  0  0  0  0  3  0  0  0  0  0  0
  -16.9390  -28.3880   22.9480 C   0  0  0  0  0  3  0  0  0  0  0  0
  -25.9600  -32.5530   23.7350 C   0  0  0  0  0  3  0  0  0  0  0  0
  -26.5340  -31.7960   24.9950 C   0  0  1  0  0  0  0  0  0  0  0  0
  -25.4660  -31.4600   26.0620 C   0  0  0  0  0  1  0  0  0  0  0  0
  -27.2150  -30.4710   24.5770 C   0  0  0  0  0  1  0  0  0  0  0  0
  -27.6280  -32.6600   25.6680 C   0  0  0  0  0  1  0  0  0  0  0  0
  -25.5740  -33.9260   24.0870 N   0  0  0  0  0  0  0  0  0  0  0  0
  -25.7900  -34.9970   23.3150 C   0  0  0  0  0  0  0  0  0  0  0  0
  -26.4070  -34.9400   22.2490 O   0  0  0  0  0  0  0  0  0  0  0  0
  -25.0240  -34.0430   24.9260 H   0  0  0  0  0  0  0  0  0  0  0  0
  -23.9150  -36.6540   23.0650 C   0  0  0  0  0  1  0  0  0  0  0  0
  -25.2290  -36.3480   23.8010 C   0  0  0  0  0  3  0  0  0  0  0  0
  -27.3300  -37.3970   24.5180 C   0  0  0  0  0  1  0  0  0  0  0  0
  -26.1730  -37.4730   23.6290 N   0  0  0  0  0  0  0  0  0  0  0  0
  -25.7080  -38.3620   23.7900 H   0  0  0  0  0  0  0  0  0  0  0  0
  -30.5160  -25.1240   20.2620 C   0  0  0  0  0  2  0  0  0  0  0  0
  -30.9480  -23.6590   20.2100 C   0  0  0  0  0  0  0  0  0  0  0  0
  -31.9050  -23.3180   19.3530 N   0  0  0  0  0  0  0  0  0  0  0  0
  -30.4220  -22.8290   20.9450 O   0  0  0  0  0  0  0  0  0  0  0  0
  -32.3360  -24.0100   18.7540 H   0  0  0  0  0  0  0  0  0  0  0  0
  -32.2250  -22.3620   19.3000 H   0  0  0  0  0  0  0  0  0  0  0  0
  1 61  1  0
  2  4  1  0
  3  5  1  0
  3  2  1  0
  5  7  1  0
  6  9  1  0
  6  4  1  0
  7  1  1  0
  7  6  1  0
  8  1  2  0
  9 10  1  0
 10 12  1  0
 11  9  2  0
 13 60  1  0
 13 10  1  0
 13 14  1  0
 14 16  2  0
 15 14  1  0
 15 18  1  0
 17 15  1  0
 18 19  1  0
 20 28  1  0
 21 26  1  0
 22 23  1  0
 22 21  1  0
 24 23  1  0
 24 33  1  0
 24 25  1  0
 26 20  1  0
 26 25  1  0
 27 20  2  0
 28 19  1  0
 28 29  1  0
 30 31  2  0
 31 50  1  0
 32 35  1  0
 32 31  1  0
 33 34  1  0
 33 30  1  0
 34 32  2  0
 35 36  1  0
 36 37  2  0
 38 37  1  0
 39 38  2  0
 40 39  1  0
 40 35  2  0
 41 38  1  0
 41 42  1  0
 42 47  2  0
 42 43  1  0
 43 44  2  0
 44 45  1  0
 45 49  1  0
 46 45  2  0
 47 46  1  0
 48 47  1  0
 50 51  1  0
 51 54  1  0
 51 53  1  0
 52 50  2  0
 55 30  1  0
 55 56  1  0
 57 55  1  0
 59 60  1  0
 60 58  1  0
 61103  1  0
 61 62  1  0
 63 74  2  0
 64 62  1  0
 64 69  1  0
 65 73  1  0
 65 75  1  0
 66 68  1  0
 67 73  1  0
 68 69  2  0
 68 67  1  0
 70 64  2  0
 71 70  1  0
 71 66  2  0
 72 66  1  0
 72 65  1  0
 73 63  1  0
 75 77  2  0
 76 75  1  0
 78 76  1  0
 79 88  2  0
 79 84  1  0
 80 76  1  0
 80 84  1  0
 81 80  1  0
 82 83  1  0
 82 81  1  0
 83 79  1  0
 84 85  2  0
 85 86  1  0
 87 86  2  0
 88 87  1  0
 89 63  1  0
 89 94  1  0
 89 90  1  0
 90 93  1  1
 90 91  1  0
 92 90  1  0
 94 97  1  0
 95 99  1  0
 95 94  1  0
 96 95  2  0
 99 98  1  0
101102  1  0
101 99  1  0
101100  1  0
104103  1  0
104106  2  0
105104  1  0
107105  1  0
108105  1  0
M  ISO  4  20 100  28 100  61 101  62 101
M  END
>  <TORSDO>  (15) 
F 25

>  <SCORE>  (15) 
-9.567

>  <name>  (15) 
16

>  <ligand_id>  (15) 
16

>  <original_smiles>  (15) 
[H]c1c([H])c([H])c2c(c1[H])C([H])([H])C([H])([H])C([H])([H])C2([H])N([H])C(=O)C1([H])N(C(=O)C([H])(N([H])C(=O)C([H])(N([H])C([H])([H])[H])C([H])([H])[H])C(C([H])([H])[H])(C([H])([H])[H])C([H])([H])[H])C([H])([H])c2c([H])c(OC([H])(C(=O)N3C([H])([H])C([H])([H])C([H])([H])C([H])([H])C3([H])C(=O)N([H])C([H])(C(=O)N([H])C([H])([H])C([H])([H])N([H])C(=O)N3C([H])([H])C([H])([H])C([H])([H])C([H])(n4nc(-c5c([H])c([H])c(Oc6c([H])c([H])c(F)c([H])c6F)c([H])c5[H])c(C(=O)N([H])[H])c4N([H])[H])C3([H])[H])C([H])(C([H])([H])[H])C([H])([H])[H])C([H])([H])C(=O)N([H])[H])c([H])c([H])c2C1([H])[H]

>  <smiles>  (15) 
[H]c1c([H])c([H])c2c(c1[H])C([H])([H])C([H])([H])C([H])([H])C2([H])N([H])C(=O)C1([H])N(C(=O)C([H])(N([H])C(=O)C([H])(N([H])C([H])([H])[H])C([H])([H])[H])C(C([H])([H])[H])(C([H])([H])[H])C([H])([H])[H])C([H])([H])c2c([H])c(OC([H])(C(=O)N3C([H])([H])C([H])([H])C([H])([H])C([H])([H])C3([H])C(=O)N([H])C([H])(C(=O)N([H])C([H])([H])C([H])([H])N([H])C(=O)N3C([H])([H])C([H])([H])C([H])([H])C([H])(n4nc(-c5c([H])c([H])c(Oc6c([H])c([H])c(F)c([H])c6F)c([H])c5[H])c(C(=O)N([H])[H])c4N([H])[H])C3([H])[H])C([H])(C([H])([H])[H])C([H])([H])[H])C([H])([H])C(=O)N([H])[H])c([H])c([H])c2C1([H])[H]

$$$$
17:0:0
     RDKit          3D

100108  0  0  1  0  0  0  0  0999 V2000
  -30.3340  -22.5650   21.0890 C   0  0  0  0  0  0  0  0  0  0  0  0
  -31.2330  -21.5880   21.2500 N   0  0  0  0  0  0  0  0  0  0  0  0
  -29.2620  -22.6010   21.6980 O   0  0  0  0  0  0  0  0  0  0  0  0
  -32.0690  -21.6180   20.6820 H   0  0  0  0  0  0  0  0  0  0  0  0
  -30.6770  -23.6500   20.0640 C   0  0  0  0  0  2  0  0  0  0  0  0
  -30.1430  -26.0810   20.0490 C   0  0  0  0  0  0  0  0  0  0  0  0
  -29.7850  -24.8000   20.1960 N   0  0  0  0  0  0  0  0  0  0  0  0
  -31.2880  -26.4120   19.7310 O   0  0  0  0  0  0  0  0  0  0  0  0
  -28.8370  -24.5960   20.4880 H   0  0  0  0  0  0  0  0  0  0  0  0
  -29.0770  -27.1500   20.3170 C   0  0  0  0  0  2  0  0  0  0  0  0
  -27.9200  -26.9010   19.5180 O   0  0  0  0  0  0  0  0  0  0  0  0
  -24.6220  -31.9740   23.3260 C   0  0  0  0  0  0  0  0  0  0  0  0
  -26.8200  -27.7090   19.7200 C   0  0  0  0  0  0  0  0  0  0  0  0
  -23.2110  -30.7300   21.7130 C   0  0  0  0  0  3  0  0  0  0  0  0
  -24.4710  -29.2520   20.0550 C   0  0  0  0  0  0  0  0  0  0  0  0
  -25.7110  -31.0370   21.2940 C   0  0  0  0  0  2  0  0  0  0  0  0
  -25.6900  -29.7090   20.5680 C   0  0  0  0  0  0  0  0  0  0  0  0
  -26.8620  -28.9440   20.4130 C   0  0  0  0  0  3  0  0  0  0  0  0
  -25.5880  -27.2660   19.1970 C   0  0  0  0  0  3  0  0  0  0  0  0
  -24.4110  -28.0240   19.3680 C   0  0  0  0  0  3  0  0  0  0  0  0
  -23.2680  -30.1410   20.2750 C   0  0  0  0  0  2  0  0  0  0  0  0
  -24.5380  -31.2550   22.1700 N   0  0  0  0  0  0  0  0  0  0  0  0
  -23.6080  -32.2410   23.9870 O   0  0  0  0  0  0  0  0  0  0  0  0
  -22.6160  -29.6650   22.6610 C   0  0  0  0  0  0  0  0  0  0  0  0
  -21.3060  -29.4060   22.5220 N   0  0  0  0  0  0  0  0  0  0  0  0
  -23.3290  -29.0760   23.4780 O   0  0  0  0  0  0  0  0  0  0  0  0
  -20.7890  -29.9380   21.8350 H   0  0  0  0  0  0  0  0  0  0  0  0
  -18.0530  -27.8730   22.8410 C   0  0  0  0  0  0  0  0  0  0  0  0
  -20.5420  -28.4160   23.2780 C   0  0  0  0  0  3  0  0  0  0  0  0
  -20.8370  -26.9820   22.7770 C   0  0  0  0  0  2  0  0  0  0  0  0
  -19.8520  -26.5050   21.7050 C   0  0  0  0  0  2  0  0  0  0  0  0
  -18.4190  -26.5250   22.2440 C   0  0  0  0  0  2  0  0  0  0  0  0
  -19.0510  -28.7660   23.3120 C   0  0  0  0  0  0  0  0  0  0  0  0
  -18.6590  -30.0200   23.8290 C   0  0  0  0  0  3  0  0  0  0  0  0
  -17.3010  -30.3850   23.8780 C   0  0  0  0  0  3  0  0  0  0  0  0
  -16.3160  -29.4910   23.4230 C   0  0  0  0  0  3  0  0  0  0  0  0
  -16.6920  -28.2370   22.9100 C   0  0  0  0  0  3  0  0  0  0  0  0
  -25.9860  -32.5140   23.8590 C   0  0  0  0  0  3  0  0  0  0  0  0
  -25.7840  -33.9130   24.2590 N   0  0  0  0  0  0  0  0  0  0  0  0
  -26.1480  -34.9720   23.5260 C   0  0  0  0  0  0  0  0  0  0  0  0
  -26.7660  -34.8720   22.4610 O   0  0  0  0  0  0  0  0  0  0  0  0
  -25.2400  -34.0710   25.0950 H   0  0  0  0  0  0  0  0  0  0  0  0
  -24.5280  -36.8810   23.3080 C   0  0  0  0  0  1  0  0  0  0  0  0
  -25.7660  -36.3660   24.0590 C   0  0  0  0  0  3  0  0  0  0  0  0
  -27.9820  -37.0720   24.8430 C   0  0  0  0  0  1  0  0  0  0  0  0
  -26.8590  -37.3590   23.9550 N   0  0  0  0  0  0  0  0  0  0  0  0
  -26.5160  -38.2910   24.1670 H   0  0  0  0  0  0  0  0  0  0  0  0
  -26.5670  -31.6690   25.0570 C   0  0  1  0  0  0  0  0  0  0  0  0
  -25.5470  -31.4190   26.1930 C   0  0  0  0  0  1  0  0  0  0  0  0
  -27.0700  -30.2940   24.5590 C   0  0  0  0  0  1  0  0  0  0  0  0
  -27.7890  -32.3930   25.6700 C   0  0  0  0  0  1  0  0  0  0  0  0
  -31.0810  -20.3550   22.0310 C   0  0  0  0  0  3  0  0  0  0  0  0
  -30.6810  -14.5160   19.6990 C   0  0  0  0  0  0  0  0  0  0  0  0
  -30.1570  -12.4410   18.4690 C   0  0  0  0  0  2  0  0  0  0  0  0
  -29.0790  -12.6840   17.4000 C   0  0  0  0  0  2  0  0  0  0  0  0
  -27.6770  -12.5080   18.0090 C   0  0  0  0  0  2  0  0  0  0  0  0
  -27.4970  -13.3160   19.3210 C   0  0  0  0  0  3  0  0  0  0  0  0
  -28.6800  -13.0760   20.2840 C   0  0  0  0  0  2  0  0  0  0  0  0
  -29.9390  -13.3830   19.5820 N   0  0  0  0  0  0  0  0  0  0  0  0
  -31.5410  -14.8170   18.8610 O   0  0  0  0  0  0  0  0  0  0  0  0
  -31.8150  -19.2120   21.2840 C   0  0  0  0  0  0  0  0  0  0  0  0
  -32.4020  -16.8730   21.0610 C   0  0  0  0  0  2  0  0  0  0  0  0
  -30.1140  -17.4490   21.9050 C   0  0  0  0  0  2  0  0  0  0  0  0
  -31.9520  -15.4770   21.5180 C   0  0  0  0  0  2  0  0  0  0  0  0
  -29.6110  -16.1050   21.2780 C   0  0  0  0  0  2  0  0  0  0  0  0
  -31.4220  -17.9160   21.3980 N   0  0  0  0  0  0  0  0  0  0  0  0
  -30.6660  -15.1390   20.9040 N   0  0  0  0  0  0  0  0  0  0  0  0
  -32.8270  -19.5170   20.6350 O   0  0  0  0  0  0  0  0  0  0  0  0
  -25.2070  -13.8870   20.3520 C   0  0  0  0  0  0  0  0  0  0  0  0
  -24.1960  -13.0970   20.8310 C   0  0  0  0  0  0  0  0  0  0  0  0
  -24.6440  -11.7490   20.6840 C   0  0  0  0  0  0  0  0  0  0  0  0
  -26.2130  -13.0190   19.9550 N   0  0  0  0  0  0  0  0  0  0  0  0
  -25.8810  -11.7260   20.2050 N   0  0  0  0  0  0  0  0  0  0  0  0
  -23.9470  -10.4790   20.9180 C   0  0  0  0  0  0  0  0  0  0  0  0
  -24.4240   -9.5370   21.8570 C   0  0  0  0  0  3  0  0  0  0  0  0
  -23.7230   -8.3320   22.0810 C   0  0  0  0  0  3  0  0  0  0  0  0
  -22.5320   -8.0590   21.3680 C   0  0  0  0  0  0  0  0  0  0  0  0
  -22.0740   -8.9910   20.4170 C   0  0  0  0  0  3  0  0  0  0  0  0
  -22.7760  -10.1850   20.1910 C   0  0  0  0  0  3  0  0  0  0  0  0
  -21.8000   -6.9040   21.5010 O   0  0  0  0  0  0  0  0  0  0  0  0
  -21.7070   -6.2440   22.6990 C   0  0  0  0  0  0  0  0  0  0  0  0
  -21.2070   -6.8750   23.8600 C   0  0  0  0  0  3  0  0  0  0  0  0
  -21.0610   -6.1400   25.0530 C   0  0  0  0  0  3  0  0  0  0  0  0
  -21.4050   -4.7760   25.0880 C   0  0  0  0  0  0  0  0  0  0  0  0
  -21.8980   -4.1450   23.9330 C   0  0  0  0  0  3  0  0  0  0  0  0
  -22.0460   -4.8760   22.7400 C   0  0  0  0  0  0  0  0  0  0  0  0
  -22.5000   -4.2580   21.6240 F   0  0  0  0  0  0  0  0  0  0  0  0
  -21.2590   -4.0670   26.2320 F   0  0  0  0  0  0  0  0  0  0  0  0
  -22.8470  -13.5600   21.3060 C   0  0  0  0  0  0  0  0  0  0  0  0
  -22.2570  -12.8560   22.2660 N   0  0  0  0  0  0  0  0  0  0  0  0
  -22.3280  -14.5820   20.8580 O   0  0  0  0  0  0  0  0  0  0  0  0
  -22.6910  -12.0320   22.6530 H   0  0  0  0  0  0  0  0  0  0  0  0
  -21.3580  -13.1500   22.6210 H   0  0  0  0  0  0  0  0  0  0  0  0
  -25.3440  -15.2650   20.2080 N   0  0  0  0  0  0  0  0  0  0  0  0
  -24.5890  -15.9040   20.4320 H   0  0  0  0  0  0  0  0  0  0  0  0
  -26.1520  -15.7270   19.8120 H   0  0  0  0  0  0  0  0  0  0  0  0
  -30.4780  -20.9780   24.4580 C   0  0  0  0  0  1  0  0  0  0  0  0
  -31.6010  -20.5530   23.4910 C   0  0  0  0  0  3  0  0  0  0  0  0
  -33.4000  -21.6180   25.0230 C   0  0  0  0  0  1  0  0  0  0  0  0
  -32.8210  -21.5070   23.6030 C   0  0  0  0  0  2  0  0  0  0  0  0
  1  2  1  0
  1  3  2  0
  2 52  1  0
  4  2  1  0
  5  7  1  0
  5  1  1  0
  6  7  1  0
  6 10  1  0
  7  9  1  0
  8  6  2  0
 11 13  1  0
 11 10  1  0
 12 23  2  0
 13 18  1  0
 14 22  1  0
 14 24  1  0
 15 21  1  0
 15 17  1  0
 16 22  1  0
 17 16  1  0
 18 17  2  0
 19 20  1  0
 19 13  2  0
 20 15  2  0
 21 14  1  0
 22 12  1  0
 24 26  2  0
 25 24  1  0
 27 25  1  0
 28 37  2  0
 28 33  1  0
 29 25  1  0
 29 33  1  0
 30 29  1  0
 31 32  1  0
 31 30  1  0
 32 28  1  0
 33 34  2  0
 34 35  1  0
 36 35  2  0
 37 36  1  0
 38 12  1  0
 38 39  1  0
 38 48  1  0
 39 42  1  0
 40 44  1  0
 40 39  1  0
 41 40  2  0
 44 43  1  0
 46 44  1  0
 46 47  1  0
 46 45  1  0
 48 51  1  1
 48 49  1  0
 50 48  1  0
 52 61  1  0
 52 98  1  0
 53 67  1  0
 54 59  1  0
 55 56  1  0
 55 54  1  0
 57 56  1  0
 57 72  1  0
 57 58  1  0
 59 53  1  0
 59 58  1  0
 60 53  2  0
 61 66  1  0
 62 66  1  0
 62 64  1  0
 65 63  1  0
 66 63  1  0
 67 65  1  0
 67 64  1  0
 68 61  2  0
 69 70  2  0
 70 89  1  0
 71 70  1  0
 71 74  1  0
 72 73  1  0
 72 69  1  0
 73 71  2  0
 74 75  1  0
 75 76  2  0
 77 80  1  0
 77 76  1  0
 78 77  2  0
 79 78  1  0
 79 74  2  0
 80 81  1  0
 81 86  2  0
 81 82  1  0
 82 83  2  0
 83 84  1  0
 84 88  1  0
 85 84  2  0
 86 85  1  0
 87 86  1  0
 89 90  1  0
 90 93  1  0
 90 92  1  0
 91 89  2  0
 94 69  1  0
 94 95  1  0
 96 94  1  0
 98100  1  0
 98 97  1  0
100 99  1  0
M  ISO  4  10 101  11 101  53 100  67 100
M  END
>  <TORSDO>  (16) 
F 22

>  <SCORE>  (16) 
-9.314

>  <name>  (16) 
17

>  <ligand_id>  (16) 
17

>  <original_smiles>  (16) 
[H]c1c([H])c([H])c2c(c1[H])C([H])([H])C([H])([H])C([H])([H])C2([H])N([H])C(=O)C1([H])N(C(=O)C([H])(N([H])C(=O)C([H])(N([H])C([H])([H])[H])C([H])([H])[H])C(C([H])([H])[H])(C([H])([H])[H])C([H])([H])[H])C([H])([H])c2c([H])c(OC([H])([H])C(=O)N([H])C([H])([H])C(=O)N([H])C([H])(C(=O)N3C([H])([H])C([H])([H])N(C(=O)N4C([H])([H])C([H])([H])C([H])([H])C([H])(n5nc(-c6c([H])c([H])c(Oc7c([H])c([H])c(F)c([H])c7F)c([H])c6[H])c(C(=O)N([H])[H])c5N([H])[H])C4([H])[H])C([H])([H])C3([H])[H])C([H])(C([H])([H])[H])C([H])([H])C([H])([H])[H])c([H])c([H])c2C1([H])[H]

>  <smiles>  (16) 
[H]c1c([H])c([H])c2c(c1[H])C([H])([H])C([H])([H])C([H])([H])C2([H])N([H])C(=O)C1([H])N(C(=O)C([H])(N([H])C(=O)C([H])(N([H])C([H])([H])[H])C([H])([H])[H])C(C([H])([H])[H])(C([H])([H])[H])C([H])([H])[H])C([H])([H])c2c([H])c(OC([H])([H])C(=O)N([H])C([H])([H])C(=O)N([H])C([H])(C(=O)N3C([H])([H])C([H])([H])N(C(=O)N4C([H])([H])C([H])([H])C([H])([H])C([H])(n5nc(-c6c([H])c([H])c(Oc7c([H])c([H])c(F)c([H])c7F)c([H])c6[H])c(C(=O)N([H])[H])c5N([H])[H])C4([H])[H])C([H])([H])C3([H])[H])C([H])(C([H])([H])[H])C([H])([H])C([H])([H])[H])c([H])c([H])c2C1([H])[H]

$$$$
18:0:0
     RDKit          3D

 97104  0  0  1  0  0  0  0  0999 V2000
  -27.9560  -21.2550   19.5840 C   0  0  0  0  0  2  0  0  0  0  0  0
  -29.2860  -21.8170   19.0180 C   0  0  0  0  0  2  0  0  0  0  0  0
  -29.4640  -23.3490   19.0320 C   0  0  0  0  0  0  0  0  0  0  0  0
  -28.5370  -24.1130   18.4310 N   0  0  0  0  0  0  0  0  0  0  0  0
  -30.4880  -23.8220   19.5210 O   0  0  0  0  0  0  0  0  0  0  0  0
  -27.7330  -23.6190   18.0600 H   0  0  0  0  0  0  0  0  0  0  0  0
  -28.6810  -25.5110   17.9810 C   0  0  0  0  0  2  0  0  0  0  0  0
  -29.1500  -26.5750   19.0120 C   0  0  0  0  0  2  0  0  0  0  0  0
  -28.3680  -26.7110   20.1990 O   0  0  0  0  0  0  0  0  0  0  0  0
  -24.5960  -31.9110   23.2600 C   0  0  0  0  0  0  0  0  0  0  0  0
  -27.2310  -27.4860   20.1420 C   0  0  0  0  0  0  0  0  0  0  0  0
  -23.3830  -30.5120   21.6200 C   0  0  0  0  0  3  0  0  0  0  0  0
  -24.8340  -28.9790   20.1850 C   0  0  0  0  0  0  0  0  0  0  0  0
  -25.9080  -30.8720   21.4180 C   0  0  0  0  0  2  0  0  0  0  0  0
  -25.9930  -29.5000   20.7740 C   0  0  0  0  0  0  0  0  0  0  0  0
  -27.1930  -28.7550   20.7620 C   0  0  0  0  0  3  0  0  0  0  0  0
  -26.0580  -26.9730   19.5540 C   0  0  0  0  0  3  0  0  0  0  0  0
  -24.8600  -27.7140   19.5730 C   0  0  0  0  0  3  0  0  0  0  0  0
  -23.5930  -29.8390   20.2350 C   0  0  0  0  0  2  0  0  0  0  0  0
  -24.6470  -31.1100   22.1580 N   0  0  0  0  0  0  0  0  0  0  0  0
  -23.5190  -32.1820   23.8060 O   0  0  0  0  0  0  0  0  0  0  0  0
  -22.7350  -29.4910   22.5820 C   0  0  0  0  0  0  0  0  0  0  0  0
  -21.4100  -29.3030   22.4570 N   0  0  0  0  0  0  0  0  0  0  0  0
  -23.4210  -28.8700   23.3980 O   0  0  0  0  0  0  0  0  0  0  0  0
  -20.9150  -29.8580   21.7730 H   0  0  0  0  0  0  0  0  0  0  0  0
  -18.0430  -28.0930   22.9500 C   0  0  0  0  0  0  0  0  0  0  0  0
  -20.5980  -28.3660   23.2320 C   0  0  0  0  0  3  0  0  0  0  0  0
  -20.7100  -26.9300   22.6660 C   0  0  0  0  0  2  0  0  0  0  0  0
  -19.6160  -26.5970   21.6470 C   0  0  0  0  0  2  0  0  0  0  0  0
  -18.2310  -26.7400   22.2830 C   0  0  0  0  0  2  0  0  0  0  0  0
  -19.1560  -28.8620   23.3830 C   0  0  0  0  0  0  0  0  0  0  0  0
  -18.9280  -30.1270   23.9650 C   0  0  0  0  0  3  0  0  0  0  0  0
  -17.6200  -30.6250   24.1160 C   0  0  0  0  0  3  0  0  0  0  0  0
  -16.5220  -29.8520   23.7010 C   0  0  0  0  0  3  0  0  0  0  0  0
  -16.7350  -28.5870   23.1260 C   0  0  0  0  0  3  0  0  0  0  0  0
  -25.8880  -32.5390   23.8730 C   0  0  0  0  0  3  0  0  0  0  0  0
  -26.4130  -31.7660   25.1450 C   0  0  1  0  0  0  0  0  0  0  0  0
  -25.3270  -31.5280   26.2200 C   0  0  0  0  0  1  0  0  0  0  0  0
  -26.9890  -30.3850   24.7490 C   0  0  0  0  0  1  0  0  0  0  0  0
  -27.5720  -32.5550   25.8010 C   0  0  0  0  0  1  0  0  0  0  0  0
  -25.5840  -33.9390   24.2000 N   0  0  0  0  0  0  0  0  0  0  0  0
  -25.9220  -34.9850   23.4340 C   0  0  0  0  0  0  0  0  0  0  0  0
  -26.5910  -34.8750   22.4030 O   0  0  0  0  0  0  0  0  0  0  0  0
  -24.9810  -34.0990   24.9940 H   0  0  0  0  0  0  0  0  0  0  0  0
  -24.1970  -36.7820   23.0700 C   0  0  0  0  0  1  0  0  0  0  0  0
  -25.4360  -36.3760   23.8840 C   0  0  0  0  0  3  0  0  0  0  0  0
  -27.5750  -37.2560   24.7120 C   0  0  0  0  0  1  0  0  0  0  0  0
  -26.4720  -37.4260   23.7700 N   0  0  0  0  0  0  0  0  0  0  0  0
  -26.0670  -38.3470   23.9180 H   0  0  0  0  0  0  0  0  0  0  0  0
  -28.1090  -20.0480   20.5520 C   0  0  0  0  0  2  0  0  0  0  0  0
  -29.0730  -17.7330   20.4910 C   0  0  0  0  0  0  0  0  0  0  0  0
  -29.0460  -19.0140   20.0910 N   0  0  0  0  0  0  0  0  0  0  0  0
  -28.1560  -17.2190   21.1330 O   0  0  0  0  0  0  0  0  0  0  0  0
  -29.8240  -19.3310   19.5280 H   0  0  0  0  0  0  0  0  0  0  0  0
  -30.3210  -16.8920   20.1410 C   0  0  0  0  0  3  0  0  0  0  0  0
  -30.7570  -14.4340   19.9970 C   0  0  0  0  0  0  0  0  0  0  0  0
  -30.4270  -12.2400   18.9440 C   0  0  0  0  0  2  0  0  0  0  0  0
  -29.4290  -12.4130   17.7800 C   0  0  0  0  0  2  0  0  0  0  0  0
  -27.9810  -12.2690   18.2820 C   0  0  0  0  0  2  0  0  0  0  0  0
  -27.6910  -13.1250   19.5440 C   0  0  0  0  0  3  0  0  0  0  0  0
  -28.8040  -12.9420   20.6040 C   0  0  0  0  0  2  0  0  0  0  0  0
  -30.0940  -13.2450   19.9630 N   0  0  0  0  0  0  0  0  0  0  0  0
  -31.8440  -14.5980   19.4410 O   0  0  0  0  0  0  0  0  0  0  0  0
  -30.0820  -15.4810   20.5020 N   0  0  0  0  0  0  0  0  0  0  0  0
  -29.2050  -15.3060   20.9710 H   0  0  0  0  0  0  0  0  0  0  0  0
  -25.3310  -13.7150   20.3830 C   0  0  0  0  0  0  0  0  0  0  0  0
  -24.2930  -12.9340   20.8090 C   0  0  0  0  0  0  0  0  0  0  0  0
  -24.7610  -11.5870   20.7550 C   0  0  0  0  0  0  0  0  0  0  0  0
  -26.3680  -12.8410   20.0950 N   0  0  0  0  0  0  0  0  0  0  0  0
  -26.0310  -11.5570   20.3790 N   0  0  0  0  0  0  0  0  0  0  0  0
  -24.0520  -10.3190   20.9800 C   0  0  0  0  0  0  0  0  0  0  0  0
  -24.5030   -9.3890   21.9410 C   0  0  0  0  0  3  0  0  0  0  0  0
  -23.8000   -8.1840   22.1610 C   0  0  0  0  0  3  0  0  0  0  0  0
  -22.6290   -7.9010   21.4170 C   0  0  0  0  0  0  0  0  0  0  0  0
  -22.1970   -8.8210   20.4470 C   0  0  0  0  0  3  0  0  0  0  0  0
  -22.9000  -10.0160   20.2260 C   0  0  0  0  0  3  0  0  0  0  0  0
  -21.8970   -6.7470   21.5420 O   0  0  0  0  0  0  0  0  0  0  0  0
  -21.8130   -6.0710   22.7320 C   0  0  0  0  0  0  0  0  0  0  0  0
  -21.3300   -6.6850   23.9080 C   0  0  0  0  0  3  0  0  0  0  0  0
  -21.1980   -5.9340   25.0910 C   0  0  0  0  0  3  0  0  0  0  0  0
  -21.5340   -4.5680   25.1020 C   0  0  0  0  0  0  0  0  0  0  0  0
  -22.0080   -3.9520   23.9300 C   0  0  0  0  0  3  0  0  0  0  0  0
  -22.1450   -4.7010   22.7480 C   0  0  0  0  0  0  0  0  0  0  0  0
  -22.5830   -4.0960   21.6180 F   0  0  0  0  0  0  0  0  0  0  0  0
  -21.4000   -3.8440   26.2380 F   0  0  0  0  0  0  0  0  0  0  0  0
  -22.9050  -13.4010   21.1530 C   0  0  0  0  0  0  0  0  0  0  0  0
  -22.2270  -12.7070   22.0600 N   0  0  0  0  0  0  0  0  0  0  0  0
  -22.4270  -14.4140   20.6460 O   0  0  0  0  0  0  0  0  0  0  0  0
  -22.6240  -11.8900   22.4970 H   0  0  0  0  0  0  0  0  0  0  0  0
  -21.2930  -13.0010   22.3210 H   0  0  0  0  0  0  0  0  0  0  0  0
  -25.4830  -15.0880   20.2080 N   0  0  0  0  0  0  0  0  0  0  0  0
  -24.7360  -15.7400   20.4320 H   0  0  0  0  0  0  0  0  0  0  0  0
  -26.3520  -15.5510   19.9720 H   0  0  0  0  0  0  0  0  0  0  0  0
  -31.6490  -17.4320   20.7630 C   0  0  0  0  0  2  0  0  0  0  0  0
  -32.6100  -18.5080   18.6240 C   0  0  0  0  0  1  0  0  0  0  0  0
  -33.5350  -19.1380   20.8800 C   0  0  0  0  0  1  0  0  0  0  0  0
  -32.2710  -18.7000   20.1170 C   0  0  0  0  0  3  0  0  0  0  0  0
  1 50  1  0
  2  3  1  0
  2  1  1  0
  3  5  2  0
  4  3  1  0
  6  4  1  0
  7  4  1  0
  7  8  1  0
  8  9  1  0
 10 21  2  0
 11  9  1  0
 11 16  1  0
 12 20  1  0
 12 22  1  0
 13 19  1  0
 13 15  1  0
 14 20  1  0
 15 14  1  0
 16 15  2  0
 17 18  1  0
 17 11  2  0
 18 13  2  0
 19 12  1  0
 20 10  1  0
 22 24  2  0
 23 22  1  0
 25 23  1  0
 26 35  2  0
 26 31  1  0
 27 23  1  0
 27 31  1  0
 28 27  1  0
 29 30  1  0
 29 28  1  0
 30 26  1  0
 31 32  2  0
 32 33  1  0
 34 33  2  0
 35 34  1  0
 36 10  1  0
 36 41  1  0
 36 37  1  0
 37 40  1  1
 37 38  1  0
 39 37  1  0
 41 44  1  0
 42 46  1  0
 42 41  1  0
 43 42  2  0
 46 45  1  0
 48 46  1  0
 48 49  1  0
 48 47  1  0
 51 53  2  0
 52 51  1  0
 52 50  1  0
 54 52  1  0
 55 51  1  0
 55 64  1  0
 55 94  1  0
 56 64  1  0
 57 62  1  0
 58 59  1  0
 58 57  1  0
 60 59  1  0
 60 69  1  0
 60 61  1  0
 62 56  1  0
 62 61  1  0
 63 56  2  0
 64 65  1  0
 66 67  2  0
 67 86  1  0
 68 67  1  0
 68 71  1  0
 69 70  1  0
 69 66  1  0
 70 68  2  0
 71 72  1  0
 72 73  2  0
 74 77  1  0
 74 73  1  0
 75 74  2  0
 76 75  1  0
 76 71  2  0
 77 78  1  0
 78 83  2  0
 78 79  1  0
 79 80  2  0
 80 81  1  0
 81 85  1  0
 82 81  2  0
 83 82  1  0
 84 83  1  0
 86 87  1  0
 87 90  1  0
 87 89  1  0
 88 86  2  0
 91 66  1  0
 91 92  1  0
 93 91  1  0
 95 97  1  0
 97 94  1  0
 97 96  1  0
M  ISO  4   8 101   9 101  56 100  64 100
M  END
>  <TORSDO>  (17) 
F 25

>  <SCORE>  (17) 
-12.036

>  <name>  (17) 
18

>  <ligand_id>  (17) 
18

>  <original_smiles>  (17) 
[H]c1c([H])c([H])c2c(c1[H])C([H])([H])C([H])([H])C([H])([H])C2([H])N([H])C(=O)C1([H])N(C(=O)C([H])(N([H])C(=O)C([H])(N([H])C([H])([H])[H])C([H])([H])[H])C(C([H])([H])[H])(C([H])([H])[H])C([H])([H])[H])C([H])([H])c2c([H])c(OC([H])([H])C([H])([H])N([H])C(=O)C([H])([H])C([H])([H])C([H])([H])N([H])C(=O)C([H])(N([H])C(=O)N3C([H])([H])C([H])([H])C([H])([H])C([H])(n4nc(-c5c([H])c([H])c(Oc6c([H])c([H])c(F)c([H])c6F)c([H])c5[H])c(C(=O)N([H])[H])c4N([H])[H])C3([H])[H])C([H])([H])C([H])(C([H])([H])[H])C([H])([H])[H])c([H])c([H])c2C1([H])[H]

>  <smiles>  (17) 
[H]c1c([H])c([H])c2c(c1[H])C([H])([H])C([H])([H])C([H])([H])C2([H])N([H])C(=O)C1([H])N(C(=O)C([H])(N([H])C(=O)C([H])(N([H])C([H])([H])[H])C([H])([H])[H])C(C([H])([H])[H])(C([H])([H])[H])C([H])([H])[H])C([H])([H])c2c([H])c(OC([H])([H])C([H])([H])N([H])C(=O)C([H])([H])C([H])([H])C([H])([H])N([H])C(=O)C([H])(N([H])C(=O)N3C([H])([H])C([H])([H])C([H])([H])C([H])(n4nc(-c5c([H])c([H])c(Oc6c([H])c([H])c(F)c([H])c6F)c([H])c5[H])c(C(=O)N([H])[H])c4N([H])[H])C3([H])[H])C([H])([H])C([H])(C([H])([H])[H])C([H])([H])[H])c([H])c([H])c2C1([H])[H]

$$$$
19:0:0
     RDKit          3D

 81 85  0  0  1  0  0  0  0  0999 V2000
  -28.1090  -24.6470   20.3000 O   0  0  0  0  0  1  0  0  0  0  0  0
  -24.7100  -31.7810   23.1610 C   0  0  0  0  0  0  0  0  0  0  0  0
  -27.2070  -26.1440   20.2640 C   0  0  0  0  0  0  0  0  0  0  0  0
  -23.5560  -30.3680   21.5220 C   0  0  0  0  0  3  0  0  0  0  0  0
  -25.0090  -28.5810   20.1690 C   0  0  0  0  0  0  0  0  0  0  0  0
  -26.1560  -30.3130   21.5020 C   0  0  0  0  0  2  0  0  0  0  0  0
  -26.2110  -28.8120   20.8490 C   0  0  0  0  0  0  0  0  0  0  0  0
  -27.2590  -27.6460   20.8460 C   0  0  0  0  0  3  0  0  0  0  0  0
  -25.9680  -26.2870   19.5230 C   0  0  0  0  0  3  0  0  0  0  0  0
  -24.9660  -27.3480   19.4800 C   0  0  0  0  0  3  0  0  0  0  0  0
  -23.8360  -29.6140   20.1780 C   0  0  0  0  0  2  0  0  0  0  0  0
  -24.8390  -30.8700   22.1140 N   0  0  0  0  0  0  0  0  0  0  0  0
  -23.6010  -32.1150   23.6230 O   0  0  0  0  0  0  0  0  0  0  0  0
  -22.7620  -29.4580   22.5040 C   0  0  0  0  0  0  0  0  0  0  0  0
  -21.4220  -29.3560   22.3730 N   0  0  0  0  0  0  0  0  0  0  0  0
  -23.3780  -28.8290   23.3670 O   0  0  0  0  0  0  0  0  0  0  0  0
  -20.9670  -29.9120   21.6630 H   0  0  0  0  0  0  0  0  0  0  0  0
  -17.9970  -28.2130   22.9010 C   0  0  0  0  0  0  0  0  0  0  0  0
  -20.5670  -28.4380   23.1430 C   0  0  0  0  0  3  0  0  0  0  0  0
  -20.6330  -27.0060   22.5600 C   0  0  0  0  0  2  0  0  0  0  0  0
  -19.5210  -26.7160   21.5460 C   0  0  0  0  0  2  0  0  0  0  0  0
  -18.1460  -26.8740   22.1990 C   0  0  0  0  0  2  0  0  0  0  0  0
  -19.1320  -28.9550   23.3290 C   0  0  0  0  0  0  0  0  0  0  0  0
  -18.9320  -30.2040   23.9560 C   0  0  0  0  0  3  0  0  0  0  0  0
  -17.6350  -30.7130   24.1530 C   0  0  0  0  0  3  0  0  0  0  0  0
  -16.5160  -29.9710   23.7350 C   0  0  0  0  0  3  0  0  0  0  0  0
  -16.6980  -28.7220   23.1160 C   0  0  0  0  0  3  0  0  0  0  0  0
  -25.9400  -32.4590   23.8420 C   0  0  0  0  0  3  0  0  0  0  0  0
  -25.5980  -33.8650   24.1720 N   0  0  0  0  0  0  0  0  0  0  0  0
  -25.9200  -34.9450   23.4450 C   0  0  0  0  0  0  0  0  0  0  0  0
  -26.5760  -34.8640   22.4040 O   0  0  0  0  0  0  0  0  0  0  0  0
  -25.0070  -33.9990   24.9800 H   0  0  0  0  0  0  0  0  0  0  0  0
  -24.1680  -36.7480   23.1980 C   0  0  0  0  0  1  0  0  0  0  0  0
  -25.4480  -36.3330   23.9420 C   0  0  0  0  0  3  0  0  0  0  0  0
  -27.6060  -37.2470   24.6880 C   0  0  0  0  0  1  0  0  0  0  0  0
  -26.4650  -37.3980   23.7880 N   0  0  0  0  0  0  0  0  0  0  0  0
  -26.0550  -38.3150   23.9480 H   0  0  0  0  0  0  0  0  0  0  0  0
  -26.3960  -31.7200   25.1620 C   0  0  1  0  0  0  0  0  0  0  0  0
  -25.2580  -31.5140   26.1910 C   0  0  0  0  0  1  0  0  0  0  0  0
  -26.9880  -30.3300   24.8490 C   0  0  0  0  0  1  0  0  0  0  0  0
  -27.5230  -32.5250   25.8520 C   0  0  0  0  0  1  0  0  0  0  0  0
  -28.1400  -22.5480   20.1630 C   0  0  0  0  0 15  0  0  0  0  0  0
  -29.1420  -20.4180   20.2160 C   0  0  0  0  0 15  0  0  0  0  0  0
  -29.9010  -16.6470   20.0860 C   0  0  0  0  0  0  0  0  0  0  0  0
  -30.2300  -13.8900   19.2940 C   0  0  0  0  0  2  0  0  0  0  0  0
  -29.4480  -13.0530   18.1990 C   0  0  0  0  0  2  0  0  0  0  0  0
  -28.1340  -12.4820   18.7300 C   0  0  0  0  0  2  0  0  0  0  0  0
  -27.5010  -13.5140   19.6750 C   0  0  0  0  0  3  0  0  0  0  0  0
  -28.4750  -14.2100   20.6950 C   0  0  0  0  0  2  0  0  0  0  0  0
  -29.4550  -15.1290   19.9600 N   0  0  0  0  0  0  0  0  0  0  0  0
  -31.1430  -16.3980   20.0040 O   0  0  0  0  0  0  0  0  0  0  0  0
  -29.2570  -18.3100   20.1340 N   0  0  0  0  0  2  0  0  0  0  0  0
  -30.2580  -18.4710   20.1320 H   0  0  0  0  0  0  0  0  0  0  0  0
  -25.1600  -13.9200   20.5080 C   0  0  0  0  0  0  0  0  0  0  0  0
  -24.1280  -13.1120   20.8810 C   0  0  0  0  0  0  0  0  0  0  0  0
  -24.6260  -11.7720   20.8220 C   0  0  0  0  0  0  0  0  0  0  0  0
  -26.2240  -13.0860   20.2420 N   0  0  0  0  0  0  0  0  0  0  0  0
  -25.9190  -11.7780   20.4820 N   0  0  0  0  0  0  0  0  0  0  0  0
  -23.9140  -10.4950   21.0120 C   0  0  0  0  0  0  0  0  0  0  0  0
  -24.3570   -9.5290   21.9420 C   0  0  0  0  0  3  0  0  0  0  0  0
  -23.6350   -8.3280   22.1300 C   0  0  0  0  0  3  0  0  0  0  0  0
  -22.4560   -8.0830   21.3870 C   0  0  0  0  0  0  0  0  0  0  0  0
  -22.0290   -9.0390   20.4470 C   0  0  0  0  0  3  0  0  0  0  0  0
  -22.7510  -10.2310   20.2590 C   0  0  0  0  0  3  0  0  0  0  0  0
  -21.7070   -6.9350   21.4820 O   0  0  0  0  0  0  0  0  0  0  0  0
  -21.6700   -6.1910   22.6350 C   0  0  0  0  0  0  0  0  0  0  0  0
  -21.2140   -6.7320   23.8560 C   0  0  0  0  0  3  0  0  0  0  0  0
  -21.1260   -5.9140   25.0000 C   0  0  0  0  0  3  0  0  0  0  0  0
  -21.4850   -4.5540   24.9250 C   0  0  0  0  0  0  0  0  0  0  0  0
  -21.9340   -4.0110   23.7070 C   0  0  0  0  0  3  0  0  0  0  0  0
  -22.0220   -4.8270   22.5660 C   0  0  0  0  0  0  0  0  0  0  0  0
  -22.4340   -4.2930   21.3900 F   0  0  0  0  0  0  0  0  0  0  0  0
  -21.3950   -3.7660   26.0220 F   0  0  0  0  0  0  0  0  0  0  0  0
  -22.7270  -13.5620   21.1730 C   0  0  0  0  0  0  0  0  0  0  0  0
  -22.0260  -12.8570   22.0520 N   0  0  0  0  0  0  0  0  0  0  0  0
  -22.2670  -14.5820   20.6590 O   0  0  0  0  0  0  0  0  0  0  0  0
  -22.4140  -12.0340   22.4890 H   0  0  0  0  0  0  0  0  0  0  0  0
  -21.0880  -13.1430   22.2910 H   0  0  0  0  0  0  0  0  0  0  0  0
  -25.2790  -15.2960   20.3350 N   0  0  0  0  0  0  0  0  0  0  0  0
  -24.4980  -15.9290   20.4650 H   0  0  0  0  0  0  0  0  0  0  0  0
  -26.1180  -15.7610   20.0090 H   0  0  0  0  0  0  0  0  0  0  0  0
  2 13  2  0
  3  1  1  0
  3  8  1  0
  4 12  1  0
  4 14  1  0
  5 11  1  0
  5  7  1  0
  6 12  1  0
  7  6  1  0
  8  7  2  0
  9  3  2  0
 10  9  1  0
 10  5  2  0
 11  4  1  0
 12  2  1  0
 14 16  2  0
 15 14  1  0
 17 15  1  0
 18 27  2  0
 18 23  1  0
 19 15  1  0
 19 23  1  0
 20 19  1  0
 21 22  1  0
 21 20  1  0
 22 18  1  0
 23 24  2  0
 24 25  1  0
 26 25  2  0
 27 26  1  0
 28  2  1  0
 28 29  1  0
 28 38  1  0
 29 32  1  0
 30 34  1  0
 30 29  1  0
 31 30  2  0
 34 33  1  0
 36 34  1  0
 36 37  1  0
 36 35  1  0
 38 41  1  1
 38 39  1  0
 40 38  1  0
 44 52  1  0
 45 50  1  0
 46 47  1  0
 46 45  1  0
 48 47  1  0
 48 57  1  0
 48 49  1  0
 50 44  1  0
 50 49  1  0
 51 44  2  0
 53 52  1  0
 54 55  2  0
 55 74  1  0
 56 55  1  0
 56 59  1  0
 57 58  1  0
 57 54  1  0
 58 56  2  0
 59 60  1  0
 60 61  2  0
 62 65  1  0
 62 61  1  0
 63 62  2  0
 64 63  1  0
 64 59  2  0
 65 66  1  0
 66 67  1  0
 67 68  2  0
 69 68  1  0
 69 73  1  0
 70 69  2  0
 71 66  2  0
 71 70  1  0
 72 71  1  0
 74 75  1  0
 75 78  1  0
 75 77  1  0
 76 74  2  0
 79 80  1  0
 79 54  1  0
 81 79  1  0
M  ISO  4   1 101  42 101  44 100  52 100
M  END
>  <TORSDO>  (18) 
F 17

>  <SCORE>  (18) 
-16.141

>  <name>  (18) 
19

>  <ligand_id>  (18) 
19

>  <original_smiles>  (18) 
[H]c1c([H])c([H])c2c(c1[H])C([H])([H])C([H])([H])C([H])([H])C2([H])N([H])C(=O)C1([H])N(C(=O)C([H])(N([H])C(=O)C([H])(N([H])C([H])([H])[H])C([H])([H])[H])C(C([H])([H])[H])(C([H])([H])[H])C([H])([H])[H])C([H])([H])c2c([H])c(OC([H])([H])C([H])([H])N([H])C(=O)N3C([H])([H])C([H])([H])C([H])([H])C([H])(n4nc(-c5c([H])c([H])c(Oc6c([H])c([H])c(F)c([H])c6F)c([H])c5[H])c(C(=O)N([H])[H])c4N([H])[H])C3([H])[H])c([H])c([H])c2C1([H])[H]

>  <smiles>  (18) 
[H]c1c([H])c([H])c2c(c1[H])C([H])([H])C([H])([H])C([H])([H])C2([H])N([H])C(=O)C1([H])N(C(=O)C([H])(N([H])C(=O)C([H])(N([H])C([H])([H])[H])C([H])([H])[H])C(C([H])([H])[H])(C([H])([H])[H])C([H])([H])[H])C([H])([H])c2c([H])c(OC([H])([H])C([H])([H])N([H])C(=O)N3C([H])([H])C([H])([H])C([H])([H])C([H])(n4nc(-c5c([H])c([H])c(Oc6c([H])c([H])c(F)c([H])c6F)c([H])c5[H])c(C(=O)N([H])[H])c4N([H])[H])C3([H])[H])c([H])c([H])c2C1([H])[H]

$$$$
20:0:0
     RDKit          3D

 95102  0  0  1  0  0  0  0  0999 V2000
  -28.6020  -21.3500   18.7070 C   0  0  0  0  0  2  0  0  0  0  0  0
  -29.7870  -21.0570   17.7620 C   0  0  0  0  0  2  0  0  0  0  0  0
  -31.0080  -20.4410   18.4740 C   0  0  0  0  0  2  0  0  0  0  0  0
  -31.2110  -19.3250   20.6880 C   0  0  0  0  0  0  0  0  0  0  0  0
  -30.5950  -19.5030   19.5140 N   0  0  0  0  0  0  0  0  0  0  0  0
  -32.3490  -19.7360   20.9180 O   0  0  0  0  0  0  0  0  0  0  0  0
  -29.6810  -19.0850   19.4050 H   0  0  0  0  0  0  0  0  0  0  0  0
  -30.3950  -18.6520   21.7910 C   0  0  0  0  0  2  0  0  0  0  0  0
  -30.0240  -17.1920   21.4840 C   0  0  0  0  0  2  0  0  0  0  0  0
  -31.1710  -16.1900   21.6940 C   0  0  0  0  0  2  0  0  0  0  0  0
  -31.0250  -14.1660   20.2420 C   0  0  0  0  0  0  0  0  0  0  0  0
  -30.5330  -12.1350   18.9310 C   0  0  0  0  0  2  0  0  0  0  0  0
  -29.5680  -12.4360   17.7710 C   0  0  0  0  0  2  0  0  0  0  0  0
  -28.1010  -12.3590   18.2380 C   0  0  0  0  0  2  0  0  0  0  0  0
  -27.8460  -13.1750   19.5300 C   0  0  0  0  0  3  0  0  0  0  0  0
  -28.9100  -12.8460   20.6030 C   0  0  0  0  0  2  0  0  0  0  0  0
  -30.2520  -13.0720   20.0270 N   0  0  0  0  0  0  0  0  0  0  0  0
  -31.9770  -14.4880   19.5230 O   0  0  0  0  0  0  0  0  0  0  0  0
  -30.7050  -14.8550   21.3440 N   0  0  0  0  0  0  0  0  0  0  0  0
  -29.9850  -14.4510   21.9240 H   0  0  0  0  0  0  0  0  0  0  0  0
  -25.4840  -13.8870   20.2810 C   0  0  0  0  0  0  0  0  0  0  0  0
  -24.3960  -13.1600   20.6870 C   0  0  0  0  0  0  0  0  0  0  0  0
  -24.8030  -11.7910   20.6580 C   0  0  0  0  0  0  0  0  0  0  0  0
  -26.4900  -12.9630   20.0380 N   0  0  0  0  0  0  0  0  0  0  0  0
  -26.0810  -11.6980   20.3160 N   0  0  0  0  0  0  0  0  0  0  0  0
  -24.0330  -10.5600   20.8810 C   0  0  0  0  0  0  0  0  0  0  0  0
  -24.4490   -9.5910   21.8210 C   0  0  0  0  0  3  0  0  0  0  0  0
  -23.6840   -8.4230   22.0320 C   0  0  0  0  0  3  0  0  0  0  0  0
  -22.4890   -8.2180   21.3040 C   0  0  0  0  0  0  0  0  0  0  0  0
  -22.0890   -9.1750   20.3560 C   0  0  0  0  0  3  0  0  0  0  0  0
  -22.8540  -10.3340   20.1430 C   0  0  0  0  0  3  0  0  0  0  0  0
  -21.6950   -7.1020   21.4250 O   0  0  0  0  0  0  0  0  0  0  0  0
  -21.6370   -6.3820   22.5910 C   0  0  0  0  0  0  0  0  0  0  0  0
  -21.2700   -6.9770   23.8170 C   0  0  0  0  0  3  0  0  0  0  0  0
  -21.1550   -6.1870   24.9780 C   0  0  0  0  0  3  0  0  0  0  0  0
  -21.3950   -4.8010   24.9130 C   0  0  0  0  0  0  0  0  0  0  0  0
  -21.7550   -4.2050   23.6910 C   0  0  0  0  0  3  0  0  0  0  0  0
  -21.8720   -4.9930   22.5330 C   0  0  0  0  0  0  0  0  0  0  0  0
  -22.1980   -4.4110   21.3530 F   0  0  0  0  0  0  0  0  0  0  0  0
  -21.2790   -4.0390   26.0250 F   0  0  0  0  0  0  0  0  0  0  0  0
  -23.0260  -13.6930   20.9920 C   0  0  0  0  0  0  0  0  0  0  0  0
  -22.2970  -13.0410   21.8910 N   0  0  0  0  0  0  0  0  0  0  0  0
  -22.6100  -14.7260   20.4670 O   0  0  0  0  0  0  0  0  0  0  0  0
  -22.6440  -12.2060   22.3400 H   0  0  0  0  0  0  0  0  0  0  0  0
  -21.3780  -13.3820   22.1350 H   0  0  0  0  0  0  0  0  0  0  0  0
  -25.6990  -15.2480   20.0850 N   0  0  0  0  0  0  0  0  0  0  0  0
  -24.9670  -15.9380   20.2150 H   0  0  0  0  0  0  0  0  0  0  0  0
  -26.5640  -15.6480   19.7440 H   0  0  0  0  0  0  0  0  0  0  0  0
  -27.5860  -22.3710   18.1640 C   0  0  0  0  0  2  0  0  0  0  0  0
  -28.2400  -24.5080   19.2600 C   0  0  0  0  0  0  0  0  0  0  0  0
  -28.1090  -23.7340   18.1730 N   0  0  0  0  0  0  0  0  0  0  0  0
  -27.9810  -24.1090   20.3980 O   0  0  0  0  0  0  0  0  0  0  0  0
  -28.3330  -24.1490   17.2780 H   0  0  0  0  0  0  0  0  0  0  0  0
  -28.6940  -25.9540   19.0180 C   0  0  0  0  0  2  0  0  0  0  0  0
  -28.3950  -26.7940   20.1380 O   0  0  0  0  0  0  0  0  0  0  0  0
  -24.5680  -31.8970   23.2590 C   0  0  0  0  0  0  0  0  0  0  0  0
  -27.1920  -27.4670   20.1490 C   0  0  0  0  0  0  0  0  0  0  0  0
  -23.3480  -30.4990   21.6210 C   0  0  0  0  0  3  0  0  0  0  0  0
  -24.7890  -28.9560   20.1950 C   0  0  0  0  0  0  0  0  0  0  0  0
  -25.8730  -30.8470   21.4190 C   0  0  0  0  0  2  0  0  0  0  0  0
  -25.9480  -29.4760   20.7830 C   0  0  0  0  0  0  0  0  0  0  0  0
  -27.1450  -28.7300   20.7760 C   0  0  0  0  0  3  0  0  0  0  0  0
  -26.0100  -26.9510   19.5670 C   0  0  0  0  0  3  0  0  0  0  0  0
  -24.8120  -27.6870   19.5940 C   0  0  0  0  0  3  0  0  0  0  0  0
  -23.5490  -29.8180   20.2420 C   0  0  0  0  0  2  0  0  0  0  0  0
  -24.6150  -31.0960   22.1570 N   0  0  0  0  0  0  0  0  0  0  0  0
  -23.4910  -32.1760   23.8020 O   0  0  0  0  0  0  0  0  0  0  0  0
  -22.6970  -29.4810   22.5840 C   0  0  0  0  0  0  0  0  0  0  0  0
  -21.3750  -29.2940   22.4500 N   0  0  0  0  0  0  0  0  0  0  0  0
  -23.3810  -28.8610   23.4040 O   0  0  0  0  0  0  0  0  0  0  0  0
  -20.8880  -29.8450   21.7580 H   0  0  0  0  0  0  0  0  0  0  0  0
  -18.0050  -28.0900   22.9220 C   0  0  0  0  0  0  0  0  0  0  0  0
  -20.5570  -28.3610   23.2220 C   0  0  0  0  0  3  0  0  0  0  0  0
  -20.6740  -26.9260   22.6610 C   0  0  0  0  0  2  0  0  0  0  0  0
  -19.5850  -26.5870   21.6390 C   0  0  0  0  0  2  0  0  0  0  0  0
  -18.1950  -26.7330   22.2650 C   0  0  0  0  0  2  0  0  0  0  0  0
  -19.1140  -28.8610   23.3580 C   0  0  0  0  0  0  0  0  0  0  0  0
  -18.8840  -30.1310   23.9290 C   0  0  0  0  0  3  0  0  0  0  0  0
  -17.5750  -30.6290   24.0730 C   0  0  0  0  0  3  0  0  0  0  0  0
  -16.4790  -29.8530   23.6570 C   0  0  0  0  0  3  0  0  0  0  0  0
  -16.6940  -28.5860   23.0870 C   0  0  0  0  0  3  0  0  0  0  0  0
  -25.8620  -32.5210   23.8710 C   0  0  0  0  0  3  0  0  0  0  0  0
  -26.3830  -31.7480   25.1430 C   0  0  1  0  0  0  0  0  0  0  0  0
  -25.2960  -31.5170   26.2170 C   0  0  0  0  0  1  0  0  0  0  0  0
  -26.9570  -30.3670   24.7460 C   0  0  0  0  0  1  0  0  0  0  0  0
  -27.5420  -32.5370   25.7970 C   0  0  0  0  0  1  0  0  0  0  0  0
  -25.5640  -33.9210   24.1980 N   0  0  0  0  0  0  0  0  0  0  0  0
  -25.8960  -34.9690   23.4320 C   0  0  0  0  0  0  0  0  0  0  0  0
  -26.5590  -34.8580   22.3970 O   0  0  0  0  0  0  0  0  0  0  0  0
  -24.9770  -34.0820   25.0050 H   0  0  0  0  0  0  0  0  0  0  0  0
  -24.1710  -36.7640   23.0810 C   0  0  0  0  0  1  0  0  0  0  0  0
  -25.4170  -36.3610   23.8860 C   0  0  0  0  0  3  0  0  0  0  0  0
  -27.5620  -37.2390   24.6950 C   0  0  0  0  0  1  0  0  0  0  0  0
  -26.4520  -37.4090   23.7600 N   0  0  0  0  0  0  0  0  0  0  0  0
  -26.0510  -38.3310   23.9070 H   0  0  0  0  0  0  0  0  0  0  0  0
  2  3  1  0
  2  1  1  0
  3  5  1  0
  4  6  2  0
  4  8  1  0
  5  4  1  0
  7  5  1  0
  9 10  1  0
  9  8  1  0
 11 19  1  0
 12 17  1  0
 13 14  1  0
 13 12  1  0
 15 14  1  0
 15 24  1  0
 15 16  1  0
 17 11  1  0
 17 16  1  0
 18 11  2  0
 19 10  1  0
 19 20  1  0
 21 22  2  0
 22 41  1  0
 23 22  1  0
 23 26  1  0
 24 21  1  0
 24 25  1  0
 25 23  2  0
 26 27  1  0
 27 28  2  0
 29 32  1  0
 29 28  1  0
 30 29  2  0
 31 30  1  0
 31 26  2  0
 32 33  1  0
 33 34  1  0
 34 35  2  0
 36 35  1  0
 36 40  1  0
 37 36  2  0
 38 33  2  0
 38 37  1  0
 39 38  1  0
 41 42  1  0
 42 45  1  0
 42 44  1  0
 43 41  2  0
 46 47  1  0
 46 21  1  0
 48 46  1  0
 49 51  1  0
 49  1  1  0
 50 52  2  0
 51 50  1  0
 53 51  1  0
 54 50  1  0
 54 55  1  0
 55 57  1  0
 56 67  2  0
 57 62  1  0
 58 66  1  0
 58 68  1  0
 59 65  1  0
 59 61  1  0
 60 66  1  0
 61 60  1  0
 62 61  2  0
 63 64  1  0
 63 57  2  0
 64 59  2  0
 65 58  1  0
 66 56  1  0
 68 70  2  0
 69 68  1  0
 71 69  1  0
 72 81  2  0
 72 77  1  0
 73 69  1  0
 73 77  1  0
 74 73  1  0
 75 76  1  0
 75 74  1  0
 76 72  1  0
 77 78  2  0
 78 79  1  0
 80 79  2  0
 81 80  1  0
 82 56  1  0
 82 87  1  0
 82 83  1  0
 83 86  1  1
 83 84  1  0
 85 83  1  0
 87 90  1  0
 88 92  1  0
 88 87  1  0
 89 88  2  0
 92 91  1  0
 94 92  1  0
 94 95  1  0
 94 93  1  0
M  ISO  4  11 100  19 100  54 101  55 101
M  END
>  <TORSDO>  (19) 
F 25

>  <SCORE>  (19) 
-12.073

>  <name>  (19) 
20

>  <ligand_id>  (19) 
20

>  <original_smiles>  (19) 
[H]c1c([H])c([H])c2c(c1[H])C([H])([H])C([H])([H])C([H])([H])C2([H])N([H])C(=O)C1([H])N(C(=O)C([H])(N([H])C(=O)C([H])(N([H])C([H])([H])[H])C([H])([H])[H])C(C([H])([H])[H])(C([H])([H])[H])C([H])([H])[H])C([H])([H])c2c([H])c(OC([H])([H])C(=O)N([H])C([H])([H])C([H])([H])C([H])([H])C([H])([H])N([H])C(=O)C([H])([H])C([H])([H])C([H])([H])N([H])C(=O)N3C([H])([H])C([H])([H])C([H])([H])C([H])(n4nc(-c5c([H])c([H])c(Oc6c([H])c([H])c(F)c([H])c6F)c([H])c5[H])c(C(=O)N([H])[H])c4N([H])[H])C3([H])[H])c([H])c([H])c2C1([H])[H]

>  <smiles>  (19) 
[H]c1c([H])c([H])c2c(c1[H])C([H])([H])C([H])([H])C([H])([H])C2([H])N([H])C(=O)C1([H])N(C(=O)C([H])(N([H])C(=O)C([H])(N([H])C([H])([H])[H])C([H])([H])[H])C(C([H])([H])[H])(C([H])([H])[H])C([H])([H])[H])C([H])([H])c2c([H])c(OC([H])([H])C(=O)N([H])C([H])([H])C([H])([H])C([H])([H])C([H])([H])N([H])C(=O)C([H])([H])C([H])([H])C([H])([H])N([H])C(=O)N3C([H])([H])C([H])([H])C([H])([H])C([H])(n4nc(-c5c([H])c([H])c(Oc6c([H])c([H])c(F)c([H])c6F)c([H])c5[H])c(C(=O)N([H])[H])c4N([H])[H])C3([H])[H])c([H])c([H])c2C1([H])[H]

$$$$
21:0:0
     RDKit          3D

104113  0  0  1  0  0  0  0  0999 V2000
  -31.1140  -22.8670   19.6190 C   0  0  0  0  0  0  0  0  0  0  0  0
  -31.3550  -22.0110   20.6260 N   0  0  0  0  0  0  0  0  0  0  0  0
  -31.0020  -22.4880   18.4510 O   0  0  0  0  0  0  0  0  0  0  0  0
  -31.3440  -22.3960   21.5610 H   0  0  0  0  0  0  0  0  0  0  0  0
  -29.6030  -25.6060   18.2640 C   0  0  0  0  0  0  0  0  0  0  0  0
  -32.4420  -24.8610   20.4230 C   0  0  0  0  0  2  0  0  0  0  0  0
  -32.0510  -25.7170   18.2220 C   0  0  0  0  0  2  0  0  0  0  0  0
  -31.0460  -24.3780   19.9770 C   0  0  0  0  0  3  0  0  0  0  0  0
  -33.1680  -25.1870   19.1230 C   0  0  0  0  0  3  0  0  0  0  0  0
  -30.7890  -25.2110   18.7850 N   0  0  0  0  0  0  0  0  0  0  0  0
  -29.5440  -26.1570   17.1590 O   0  0  0  0  0  0  0  0  0  0  0  0
  -33.6960  -24.0790   18.6000 F   0  0  0  0  0  0  0  0  0  0  0  0
  -28.3000  -25.5010   19.0750 C   0  0  0  0  0  2  0  0  0  0  0  0
  -28.1800  -26.7110   19.8420 O   0  0  0  0  0  0  0  0  0  0  0  0
  -24.5160  -31.8390   23.1330 C   0  0  0  0  0  0  0  0  0  0  0  0
  -26.9860  -27.4030   19.8850 C   0  0  0  0  0  0  0  0  0  0  0  0
  -23.2290  -30.4780   21.5200 C   0  0  0  0  0  3  0  0  0  0  0  0
  -24.6040  -28.9320   20.0230 C   0  0  0  0  0  0  0  0  0  0  0  0
  -25.7510  -30.7990   21.2340 C   0  0  0  0  0  2  0  0  0  0  0  0
  -25.7880  -29.4330   20.5760 C   0  0  0  0  0  0  0  0  0  0  0  0
  -26.9760  -28.6710   20.5120 C   0  0  0  0  0  3  0  0  0  0  0  0
  -25.7740  -26.9030   19.3560 C   0  0  0  0  0  3  0  0  0  0  0  0
  -24.5890  -27.6630   19.4200 C   0  0  0  0  0  3  0  0  0  0  0  0
  -23.3770  -29.8120   20.1240 C   0  0  0  0  0  2  0  0  0  0  0  0
  -24.5190  -31.0530   22.0200 N   0  0  0  0  0  0  0  0  0  0  0  0
  -23.4600  -32.1240   23.7140 O   0  0  0  0  0  0  0  0  0  0  0  0
  -22.5990  -29.4560   22.4920 C   0  0  0  0  0  0  0  0  0  0  0  0
  -21.2750  -29.2590   22.3760 N   0  0  0  0  0  0  0  0  0  0  0  0
  -23.2960  -28.8450   23.3060 O   0  0  0  0  0  0  0  0  0  0  0  0
  -20.7740  -29.8060   21.6910 H   0  0  0  0  0  0  0  0  0  0  0  0
  -17.9280  -27.9920   22.8590 C   0  0  0  0  0  0  0  0  0  0  0  0
  -20.4750  -28.3170   23.1560 C   0  0  0  0  0  3  0  0  0  0  0  0
  -20.6180  -26.8770   22.6070 C   0  0  0  0  0  2  0  0  0  0  0  0
  -19.5360  -26.5090   21.5880 C   0  0  0  0  0  2  0  0  0  0  0  0
  -18.1440  -26.6340   22.2140 C   0  0  0  0  0  2  0  0  0  0  0  0
  -19.0220  -28.7890   23.2870 C   0  0  0  0  0  0  0  0  0  0  0  0
  -18.7670  -30.0600   23.8480 C   0  0  0  0  0  3  0  0  0  0  0  0
  -17.4480  -30.5300   23.9910 C   0  0  0  0  0  3  0  0  0  0  0  0
  -16.3680  -29.7310   23.5800 C   0  0  0  0  0  3  0  0  0  0  0  0
  -16.6080  -28.4640   23.0180 C   0  0  0  0  0  3  0  0  0  0  0  0
  -25.8340  -32.4410   23.7120 C   0  0  0  0  0  3  0  0  0  0  0  0
  -25.5540  -33.8310   24.0910 N   0  0  0  0  0  0  0  0  0  0  0  0
  -25.8840  -34.9030   23.3550 C   0  0  0  0  0  0  0  0  0  0  0  0
  -26.5280  -34.8210   22.3060 O   0  0  0  0  0  0  0  0  0  0  0  0
  -24.9800  -33.9700   24.9100 H   0  0  0  0  0  0  0  0  0  0  0  0
  -24.1910  -36.7430   23.0770 C   0  0  0  0  0  1  0  0  0  0  0  0
  -25.4270  -36.2830   23.8660 C   0  0  0  0  0  3  0  0  0  0  0  0
  -27.5820  -37.1030   24.7180 C   0  0  0  0  0  1  0  0  0  0  0  0
  -26.4800  -37.3190   23.7840 N   0  0  0  0  0  0  0  0  0  0  0  0
  -26.0900  -38.2420   23.9580 H   0  0  0  0  0  0  0  0  0  0  0  0
  -26.3990  -31.6310   24.9420 C   0  0  1  0  0  0  0  0  0  0  0  0
  -25.3560  -31.3750   26.0540 C   0  0  0  0  0  1  0  0  0  0  0  0
  -26.9490  -30.2590   24.4840 C   0  0  0  0  0  1  0  0  0  0  0  0
  -27.5830  -32.4000   25.5750 C   0  0  0  0  0  1  0  0  0  0  0  0
  -31.9390  -20.6700   20.4950 C   0  0  0  0  0  2  0  0  0  0  0  0
  -29.9080  -19.7750   19.2680 C   0  0  0  0  0  3  0  0  0  0  0  0
  -29.1730  -17.4720   19.5310 C   0  0  0  0  0  3  0  0  0  0  0  0
  -31.1220  -18.2570   20.7560 C   0  0  0  0  0  3  0  0  0  0  0  0
  -29.0080  -18.7410   18.9420 C   0  0  0  0  0  0  0  0  0  0  0  0
  -30.9600  -19.5460   20.1790 C   0  0  0  0  0  0  0  0  0  0  0  0
  -30.2270  -17.2090   20.4350 C   0  0  0  0  0  0  0  0  0  0  0  0
  -31.0810  -14.9120   20.6110 C   0  0  0  0  0  0  0  0  0  0  0  0
  -30.8470  -12.7480   19.4680 C   0  0  0  0  0  2  0  0  0  0  0  0
  -29.9520  -12.9840   18.2340 C   0  0  0  0  0  2  0  0  0  0  0  0
  -28.4580  -12.8450   18.5990 C   0  0  0  0  0  2  0  0  0  0  0  0
  -28.0770  -13.6510   19.8680 C   0  0  0  0  0  3  0  0  0  0  0  0
  -29.0930  -13.4090   21.0070 C   0  0  0  0  0  2  0  0  0  0  0  0
  -30.4400  -13.7190   20.4920 N   0  0  0  0  0  0  0  0  0  0  0  0
  -32.2350  -15.1040   20.2160 O   0  0  0  0  0  0  0  0  0  0  0  0
  -30.3010  -15.9210   21.0420 N   0  0  0  0  0  0  0  0  0  0  0  0
  -29.4220  -15.5700   21.3890 H   0  0  0  0  0  0  0  0  0  0  0  0
  -25.6610  -14.2830   20.5040 C   0  0  0  0  0  0  0  0  0  0  0  0
  -24.5720  -13.5160   20.8170 C   0  0  0  0  0  0  0  0  0  0  0  0
  -25.0190  -12.1610   20.7690 C   0  0  0  0  0  0  0  0  0  0  0  0
  -26.7040  -13.3920   20.2900 N   0  0  0  0  0  0  0  0  0  0  0  0
  -26.3170  -12.1100   20.5080 N   0  0  0  0  0  0  0  0  0  0  0  0
  -24.2710  -10.9060   20.9030 C   0  0  0  0  0  0  0  0  0  0  0  0
  -24.6530   -9.9200   21.8410 C   0  0  0  0  0  3  0  0  0  0  0  0
  -23.9090   -8.7260   21.9640 C   0  0  0  0  0  3  0  0  0  0  0  0
  -22.7730   -8.5120   21.1470 C   0  0  0  0  0  0  0  0  0  0  0  0
  -22.4150   -9.4850   20.1980 C   0  0  0  0  0  3  0  0  0  0  0  0
  -23.1580  -10.6700   20.0730 C   0  0  0  0  0  3  0  0  0  0  0  0
  -22.0040   -7.3720   21.1780 O   0  0  0  0  0  0  0  0  0  0  0  0
  -21.8540   -6.6380   22.3260 C   0  0  0  0  0  0  0  0  0  0  0  0
  -21.2880   -7.1910   23.4950 C   0  0  0  0  0  3  0  0  0  0  0  0
  -21.0880   -6.3810   24.6310 C   0  0  0  0  0  3  0  0  0  0  0  0
  -21.4430   -5.0190   24.5970 C   0  0  0  0  0  0  0  0  0  0  0  0
  -21.9980   -4.4650   23.4310 C   0  0  0  0  0  3  0  0  0  0  0  0
  -22.2020   -5.2720   22.2980 C   0  0  0  0  0  0  0  0  0  0  0  0
  -22.7190   -4.7280   21.1680 F   0  0  0  0  0  0  0  0  0  0  0  0
  -21.2440   -4.2390   25.6850 F   0  0  0  0  0  0  0  0  0  0  0  0
  -23.1710  -14.0030   21.0510 C   0  0  0  0  0  0  0  0  0  0  0  0
  -22.4090  -13.3000   21.8820 N   0  0  0  0  0  0  0  0  0  0  0  0
  -22.7610  -15.0440   20.5370 O   0  0  0  0  0  0  0  0  0  0  0  0
  -22.7500  -12.4550   22.3170 H   0  0  0  0  0  0  0  0  0  0  0  0
  -21.4680  -13.6100   22.0810 H   0  0  0  0  0  0  0  0  0  0  0  0
  -25.8470  -15.6550   20.3670 N   0  0  0  0  0  0  0  0  0  0  0  0
  -25.0810  -16.3140   20.4510 H   0  0  0  0  0  0  0  0  0  0  0  0
  -26.7040  -16.0950   20.0690 H   0  0  0  0  0  0  0  0  0  0  0  0
  -27.9120  -18.9590   17.9370 C   0  0  0  0  0  0  0  0  0  0  0  0
  -27.3180  -20.1440   17.9620 N   0  0  0  0  0  0  0  0  0  0  0  0
  -27.5540  -18.0670   17.1710 O   0  0  0  0  0  0  0  0  0  0  0  0
  -27.6040  -20.8320   18.6400 H   0  0  0  0  0  0  0  0  0  0  0  0
  -26.5620  -20.3510   17.3260 H   0  0  0  0  0  0  0  0  0  0  0  0
  1  2  1  0
  2  4  1  0
  3  1  2  0
  5 10  1  0
  5 13  1  0
  7 10  1  0
  7  9  1  0
  8  1  1  0
  8  6  1  0
  9 12  1  0
  9  6  1  0
 10  8  1  0
 11  5  2  0
 13 14  1  0
 14 16  1  0
 15 26  2  0
 16 21  1  0
 17 25  1  0
 17 27  1  0
 18 24  1  0
 18 20  1  0
 19 25  1  0
 20 19  1  0
 21 20  2  0
 22 23  1  0
 22 16  2  0
 23 18  2  0
 24 17  1  0
 25 15  1  0
 27 29  2  0
 28 27  1  0
 30 28  1  0
 31 40  2  0
 31 36  1  0
 32 28  1  0
 32 36  1  0
 33 32  1  0
 34 35  1  0
 34 33  1  0
 35 31  1  0
 36 37  2  0
 37 38  1  0
 39 38  2  0
 40 39  1  0
 41 15  1  0
 41 42  1  0
 41 51  1  0
 42 45  1  0
 43 47  1  0
 43 42  1  0
 44 43  2  0
 47 46  1  0
 49 47  1  0
 49 50  1  0
 49 48  1  0
 51 54  1  1
 51 52  1  0
 53 51  1  0
 55  2  1  0
 56 60  1  0
 57 61  2  0
 59 56  2  0
 59 57  1  0
 60 55  1  0
 60 58  2  0
 61 58  1  0
 61 70  1  0
 62 70  1  0
 63 68  1  0
 64 65  1  0
 64 63  1  0
 66 65  1  0
 66 75  1  0
 66 67  1  0
 68 62  1  0
 68 67  1  0
 69 62  2  0
 70 71  1  0
 72 73  2  0
 73 92  1  0
 74 73  1  0
 74 77  1  0
 75 72  1  0
 75 76  1  0
 76 74  2  0
 77 78  1  0
 78 79  2  0
 80 83  1  0
 80 79  1  0
 81 80  2  0
 82 81  1  0
 82 77  2  0
 83 84  1  0
 84 85  1  0
 85 86  2  0
 87 86  1  0
 87 91  1  0
 88 87  2  0
 89 84  2  0
 89 88  1  0
 90 89  1  0
 92 93  1  0
 93 96  1  0
 93 95  1  0
 94 92  2  0
 97 98  1  0
 97 72  1  0
 99 97  1  0
100101  1  0
100 59  1  0
101103  1  0
102100  2  0
104101  1  0
M  ISO  4  13 101  14 101  62 100  70 100
M  END
>  <TORSDO>  (20) 
F 21

>  <SCORE>  (20) 
-13.012

>  <name>  (20) 
21

>  <ligand_id>  (20) 
21

>  <original_smiles>  (20) 
[H]c1c([H])c([H])c2c(c1[H])C([H])([H])C([H])([H])C([H])([H])C2([H])N([H])C(=O)C1([H])N(C(=O)C([H])(N([H])C(=O)C([H])(N([H])C([H])([H])[H])C([H])([H])[H])C(C([H])([H])[H])(C([H])([H])[H])C([H])([H])[H])C([H])([H])c2c([H])c(OC([H])([H])C(=O)N3C([H])([H])C([H])(F)C([H])([H])C3([H])C(=O)N([H])C([H])([H])c3c([H])c(C(=O)N([H])[H])c([H])c(N([H])C(=O)N4C([H])([H])C([H])([H])C([H])([H])C([H])(n5nc(-c6c([H])c([H])c(Oc7c([H])c([H])c(F)c([H])c7F)c([H])c6[H])c(C(=O)N([H])[H])c5N([H])[H])C4([H])[H])c3[H])c([H])c([H])c2C1([H])[H]

>  <smiles>  (20) 
[H]c1c([H])c([H])c2c(c1[H])C([H])([H])C([H])([H])C([H])([H])C2([H])N([H])C(=O)C1([H])N(C(=O)C([H])(N([H])C(=O)C([H])(N([H])C([H])([H])[H])C([H])([H])[H])C(C([H])([H])[H])(C([H])([H])[H])C([H])([H])[H])C([H])([H])c2c([H])c(OC([H])([H])C(=O)N3C([H])([H])C([H])(F)C([H])([H])C3([H])C(=O)N([H])C([H])([H])c3c([H])c(C(=O)N([H])[H])c([H])c(N([H])C(=O)N4C([H])([H])C([H])([H])C([H])([H])C([H])(n5nc(-c6c([H])c([H])c(Oc7c([H])c([H])c(F)c([H])c7F)c([H])c6[H])c(C(=O)N([H])[H])c5N([H])[H])C4([H])[H])c3[H])c([H])c([H])c2C1([H])[H]

$$$$
22:0:0
     RDKit          3D

100107  0  0  1  0  0  0  0  0999 V2000
  -27.6620  -21.4950   18.9840 C   0  0  0  0  0  0  0  0  0  0  0  0
  -27.2830  -20.2730   19.3750 N   0  0  0  0  0  0  0  0  0  0  0  0
  -28.1340  -21.7120   17.8640 O   0  0  0  0  0  0  0  0  0  0  0  0
  -26.9040  -20.1660   20.3050 H   0  0  0  0  0  0  0  0  0  0  0  0
  -27.4640  -22.6390   19.9850 C   0  0  0  0  0  2  0  0  0  0  0  0
  -28.4360  -24.9390   19.9520 C   0  0  0  0  0  0  0  0  0  0  0  0
  -27.7930  -23.9240   19.3690 N   0  0  0  0  0  0  0  0  0  0  0  0
  -28.7640  -24.9220   21.1410 O   0  0  0  0  0  0  0  0  0  0  0  0
  -27.5860  -23.9990   18.3810 H   0  0  0  0  0  0  0  0  0  0  0  0
  -28.7560  -26.1520   19.0620 C   0  0  0  0  0  2  0  0  0  0  0  0
  -28.5810  -27.3820   19.7760 O   0  0  0  0  0  0  0  0  0  0  0  0
  -24.4720  -32.0010   23.2760 C   0  0  0  0  0  0  0  0  0  0  0  0
  -27.3300  -27.9620   19.8490 C   0  0  0  0  0  0  0  0  0  0  0  0
  -23.3150  -30.6230   21.5770 C   0  0  0  0  0  3  0  0  0  0  0  0
  -24.8280  -29.2780   20.0270 C   0  0  0  0  0  0  0  0  0  0  0  0
  -25.8050  -31.1630   21.3470 C   0  0  0  0  0  2  0  0  0  0  0  0
  -25.9630  -29.8440   20.6220 C   0  0  0  0  0  0  0  0  0  0  0  0
  -27.2090  -29.1880   20.5370 C   0  0  0  0  0  3  0  0  0  0  0  0
  -26.1700  -27.3970   19.2650 C   0  0  0  0  0  3  0  0  0  0  0  0
  -24.9260  -28.0490   19.3540 C   0  0  0  0  0  3  0  0  0  0  0  0
  -23.5320  -30.0470   20.1540 C   0  0  0  0  0  2  0  0  0  0  0  0
  -24.5490  -31.2750   22.1250 N   0  0  0  0  0  0  0  0  0  0  0  0
  -23.3900  -32.1690   23.8570 O   0  0  0  0  0  0  0  0  0  0  0  0
  -22.7630  -29.5010   22.4840 C   0  0  0  0  0  0  0  0  0  0  0  0
  -21.4670  -29.1910   22.3260 N   0  0  0  0  0  0  0  0  0  0  0  0
  -23.4980  -28.9150   23.2840 O   0  0  0  0  0  0  0  0  0  0  0  0
  -20.9320  -29.7210   21.6530 H   0  0  0  0  0  0  0  0  0  0  0  0
  -18.2430  -27.5980   22.6640 C   0  0  0  0  0  0  0  0  0  0  0  0
  -20.7390  -28.1470   23.0470 C   0  0  0  0  0  3  0  0  0  0  0  0
  -21.0330  -26.7520   22.4500 C   0  0  0  0  0  2  0  0  0  0  0  0
  -20.0160  -26.3260   21.3850 C   0  0  0  0  0  2  0  0  0  0  0  0
  -18.6030  -26.2930   21.9720 C   0  0  0  0  0  2  0  0  0  0  0  0
  -19.2460  -28.4760   23.1540 C   0  0  0  0  0  0  0  0  0  0  0  0
  -18.8570  -29.6920   23.7550 C   0  0  0  0  0  3  0  0  0  0  0  0
  -17.4970  -30.0350   23.8730 C   0  0  0  0  0  3  0  0  0  0  0  0
  -16.5080  -29.1550   23.3990 C   0  0  0  0  0  3  0  0  0  0  0  0
  -16.8800  -27.9390   22.8000 C   0  0  0  0  0  3  0  0  0  0  0  0
  -25.7310  -32.6750   23.9040 C   0  0  0  0  0  3  0  0  0  0  0  0
  -26.2690  -31.9210   25.1830 C   0  0  1  0  0  0  0  0  0  0  0  0
  -25.1790  -31.6410   26.2440 C   0  0  0  0  0  1  0  0  0  0  0  0
  -26.9060  -30.5670   24.7920 C   0  0  0  0  0  1  0  0  0  0  0  0
  -27.3830  -32.7580   25.8540 C   0  0  0  0  0  1  0  0  0  0  0  0
  -25.3750  -34.0610   24.2290 N   0  0  0  0  0  0  0  0  0  0  0  0
  -25.6910  -35.1240   23.4760 C   0  0  0  0  0  0  0  0  0  0  0  0
  -26.3890  -35.0430   22.4600 O   0  0  0  0  0  0  0  0  0  0  0  0
  -24.7560  -34.1970   25.0150 H   0  0  0  0  0  0  0  0  0  0  0  0
  -23.9170  -36.8590   23.0720 C   0  0  0  0  0  1  0  0  0  0  0  0
  -25.1470  -36.4940   23.9180 C   0  0  0  0  0  3  0  0  0  0  0  0
  -27.2280  -37.4450   24.8070 C   0  0  0  0  0  1  0  0  0  0  0  0
  -26.1490  -37.5800   23.8330 N   0  0  0  0  0  0  0  0  0  0  0  0
  -25.7090  -38.4860   23.9680 H   0  0  0  0  0  0  0  0  0  0  0  0
  -27.2740  -19.0810   18.5170 C   0  0  0  0  0  3  0  0  0  0  0  0
  -28.5520  -18.2260   18.6760 C   0  0  0  0  0  0  0  0  0  0  0  0
  -29.2680  -18.3440   19.8040 N   0  0  0  0  0  0  0  0  0  0  0  0
  -28.8920  -17.4690   17.7650 O   0  0  0  0  0  0  0  0  0  0  0  0
  -28.9310  -19.0140   20.4820 H   0  0  0  0  0  0  0  0  0  0  0  0
  -30.5320  -17.6610   20.0790 C   0  0  0  0  0  2  0  0  0  0  0  0
  -30.5610  -17.0260   21.4920 C   0  0  0  0  0  2  0  0  0  0  0  0
  -31.0040  -14.6430   20.8960 C   0  0  0  0  0  0  0  0  0  0  0  0
  -30.6850  -12.6940   19.4400 C   0  0  0  0  0  2  0  0  0  0  0  0
  -29.7750  -13.1430   18.2770 C   0  0  0  0  0  2  0  0  0  0  0  0
  -28.2870  -12.9930   18.6580 C   0  0  0  0  0  2  0  0  0  0  0  0
  -27.9570  -13.6220   20.0400 C   0  0  0  0  0  3  0  0  0  0  0  0
  -28.9810  -13.1680   21.1060 C   0  0  0  0  0  2  0  0  0  0  0  0
  -30.3280  -13.5030   20.6110 N   0  0  0  0  0  0  0  0  0  0  0  0
  -32.1470  -14.8830   20.4910 O   0  0  0  0  0  0  0  0  0  0  0  0
  -30.2540  -15.5980   21.4650 N   0  0  0  0  0  0  0  0  0  0  0  0
  -29.3300  -15.3230   21.7670 H   0  0  0  0  0  0  0  0  0  0  0  0
  -25.5390  -14.2060   20.7100 C   0  0  0  0  0  0  0  0  0  0  0  0
  -24.4520  -13.4220   20.9850 C   0  0  0  0  0  0  0  0  0  0  0  0
  -24.9090  -12.0720   20.8840 C   0  0  0  0  0  0  0  0  0  0  0  0
  -26.5850  -13.3330   20.4510 N   0  0  0  0  0  0  0  0  0  0  0  0
  -26.2060  -12.0410   20.6130 N   0  0  0  0  0  0  0  0  0  0  0  0
  -24.1720  -10.8060   20.9740 C   0  0  0  0  0  0  0  0  0  0  0  0
  -24.5550   -9.7940   21.8820 C   0  0  0  0  0  3  0  0  0  0  0  0
  -23.8200   -8.5930   21.9620 C   0  0  0  0  0  3  0  0  0  0  0  0
  -22.6900   -8.3950   21.1330 C   0  0  0  0  0  0  0  0  0  0  0  0
  -22.3280   -9.3970   20.2160 C   0  0  0  0  0  3  0  0  0  0  0  0
  -23.0620  -10.5910   20.1340 C   0  0  0  0  0  3  0  0  0  0  0  0
  -21.9300   -7.2500   21.1230 O   0  0  0  0  0  0  0  0  0  0  0  0
  -21.7440   -6.5010   22.2560 C   0  0  0  0  0  0  0  0  0  0  0  0
  -21.1680   -7.0460   23.4250 C   0  0  0  0  0  3  0  0  0  0  0  0
  -20.9350   -6.2210   24.5440 C   0  0  0  0  0  3  0  0  0  0  0  0
  -21.2680   -4.8540   24.4920 C   0  0  0  0  0  0  0  0  0  0  0  0
  -21.8370   -4.3100   23.3270 C   0  0  0  0  0  3  0  0  0  0  0  0
  -22.0720   -5.1320   22.2110 C   0  0  0  0  0  0  0  0  0  0  0  0
  -22.6030   -4.6000   21.0820 F   0  0  0  0  0  0  0  0  0  0  0  0
  -21.0370   -4.0610   25.5630 F   0  0  0  0  0  0  0  0  0  0  0  0
  -23.0490  -13.8910   21.2410 C   0  0  0  0  0  0  0  0  0  0  0  0
  -22.2900  -13.1530   22.0460 N   0  0  0  0  0  0  0  0  0  0  0  0
  -22.6300  -14.9440   20.7630 O   0  0  0  0  0  0  0  0  0  0  0  0
  -22.6350  -12.2970   22.4550 H   0  0  0  0  0  0  0  0  0  0  0  0
  -21.3480  -13.4490   22.2570 H   0  0  0  0  0  0  0  0  0  0  0  0
  -25.7250  -15.5810   20.6480 N   0  0  0  0  0  0  0  0  0  0  0  0
  -26.6100  -16.0340   20.4640 H   0  0  0  0  0  0  0  0  0  0  0  0
  -24.9720  -16.2300   20.8470 H   0  0  0  0  0  0  0  0  0  0  0  0
  -26.0600  -18.1980   18.8990 C   0  0  0  0  0  2  0  0  0  0  0  0
  -23.6400  -17.9960   19.6500 C   0  0  0  0  0  1  0  0  0  0  0  0
  -24.2650  -19.7820   17.9810 C   0  0  0  0  0  1  0  0  0  0  0  0
  -24.7440  -18.9590   19.1860 C   0  0  0  0  0  3  0  0  0  0  0  0
  1  2  1  0
  1  5  1  0
  2  4  1  0
  3  1  2  0
  6  8  2  0
  7  6  1  0
  7  5  1  0
  9  7  1  0
 10 11  1  0
 10  6  1  0
 11 13  1  0
 12 23  2  0
 13 18  1  0
 14 22  1  0
 14 24  1  0
 15 21  1  0
 15 17  1  0
 16 22  1  0
 17 16  1  0
 18 17  2  0
 19 20  1  0
 19 13  2  0
 20 15  2  0
 21 14  1  0
 22 12  1  0
 24 26  2  0
 25 24  1  0
 27 25  1  0
 28 37  2  0
 28 33  1  0
 29 25  1  0
 29 33  1  0
 30 29  1  0
 31 32  1  0
 31 30  1  0
 32 28  1  0
 33 34  2  0
 34 35  1  0
 36 35  2  0
 37 36  1  0
 38 12  1  0
 38 43  1  0
 38 39  1  0
 39 42  1  1
 39 40  1  0
 41 39  1  0
 43 46  1  0
 44 48  1  0
 44 43  1  0
 45 44  2  0
 48 47  1  0
 50 48  1  0
 50 51  1  0
 50 49  1  0
 52 53  1  0
 52 97  1  0
 52  2  1  0
 53 54  1  0
 54 57  1  0
 54 56  1  0
 55 53  2  0
 57 58  1  0
 59 67  1  0
 60 65  1  0
 61 62  1  0
 61 60  1  0
 63 62  1  0
 63 72  1  0
 63 64  1  0
 65 59  1  0
 65 64  1  0
 66 59  2  0
 67 58  1  0
 67 68  1  0
 69 70  2  0
 70 89  1  0
 71 74  1  0
 71 70  1  0
 72 73  1  0
 72 69  1  0
 73 71  2  0
 74 75  1  0
 75 76  2  0
 77 76  1  0
 78 77  2  0
 79 78  1  0
 79 74  2  0
 80 77  1  0
 80 81  1  0
 81 82  1  0
 82 83  2  0
 84 83  1  0
 84 88  1  0
 85 84  2  0
 86 81  2  0
 86 85  1  0
 87 86  1  0
 89 90  1  0
 90 93  1  0
 90 92  1  0
 91 89  2  0
 94 69  1  0
 94 96  1  0
 95 94  1  0
 97100  1  0
 99100  1  0
100 98  1  0
M  ISO  4  10 101  11 101  59 100  67 100
M  END
>  <TORSDO>  (21) 
F 25

>  <SCORE>  (21) 
-8.175

>  <name>  (21) 
22

>  <ligand_id>  (21) 
22

>  <original_smiles>  (21) 
[H]c1c([H])c([H])c2c(c1[H])C([H])([H])C([H])([H])C([H])([H])C2([H])N([H])C(=O)C1([H])N(C(=O)C([H])(N([H])C(=O)C([H])(N([H])C([H])([H])[H])C([H])([H])[H])C(C([H])([H])[H])(C([H])([H])[H])C([H])([H])[H])C([H])([H])c2c([H])c(OC([H])([H])C(=O)N([H])C([H])([H])C(=O)N([H])C([H])(C(=O)N([H])C([H])([H])C([H])([H])N([H])C(=O)N3C([H])([H])C([H])([H])C([H])([H])C([H])(n4nc(-c5c([H])c([H])c(Oc6c([H])c([H])c(F)c([H])c6F)c([H])c5[H])c(C(=O)N([H])[H])c4N([H])[H])C3([H])[H])C([H])([H])C([H])(C([H])([H])[H])C([H])([H])[H])c([H])c([H])c2C1([H])[H]

>  <smiles>  (21) 
[H]c1c([H])c([H])c2c(c1[H])C([H])([H])C([H])([H])C([H])([H])C2([H])N([H])C(=O)C1([H])N(C(=O)C([H])(N([H])C(=O)C([H])(N([H])C([H])([H])[H])C([H])([H])[H])C(C([H])([H])[H])(C([H])([H])[H])C([H])([H])[H])C([H])([H])c2c([H])c(OC([H])([H])C(=O)N([H])C([H])([H])C(=O)N([H])C([H])(C(=O)N([H])C([H])([H])C([H])([H])N([H])C(=O)N3C([H])([H])C([H])([H])C([H])([H])C([H])(n4nc(-c5c([H])c([H])c(Oc6c([H])c([H])c(F)c([H])c6F)c([H])c5[H])c(C(=O)N([H])[H])c4N([H])[H])C3([H])[H])C([H])([H])C([H])(C([H])([H])[H])C([H])([H])[H])c([H])c([H])c2C1([H])[H]

$$$$
23:0:0
     RDKit          3D

106113  0  0  1  0  0  0  0  0999 V2000
  -27.3800  -20.4380   26.7310 C   0  0  0  0  0  2  0  0  0  0  0  0
  -28.6340  -20.7620   25.9050 C   0  0  0  0  0  0  0  0  0  0  0  0
  -29.6530  -19.9000   25.9790 N   0  0  0  0  0  0  0  0  0  0  0  0
  -28.6910  -21.7760   25.1960 O   0  0  0  0  0  0  0  0  0  0  0  0
  -29.6590  -19.0130   26.4690 H   0  0  0  0  0  0  0  0  0  0  0  0
  -31.0320  -19.3670   24.1100 C   0  0  0  0  0  0  0  0  0  0  0  0
  -30.8050  -20.1120   25.1950 N   0  0  0  0  0  0  0  0  0  0  0  0
  -30.4240  -18.3120   23.8890 O   0  0  0  0  0  0  0  0  0  0  0  0
  -31.2190  -21.0210   25.3640 H   0  0  0  0  0  0  0  0  0  0  0  0
  -32.0900  -19.8870   23.1250 C   0  0  0  0  0  2  0  0  0  0  0  0
  -30.9150  -21.0960   21.2930 C   0  0  0  0  0  0  0  0  0  0  0  0
  -31.5630  -20.0290   21.7690 N   0  0  0  0  0  0  0  0  0  0  0  0
  -30.7470  -22.1290   21.9440 O   0  0  0  0  0  0  0  0  0  0  0  0
  -31.6410  -19.2170   21.1710 H   0  0  0  0  0  0  0  0  0  0  0  0
  -30.3920  -20.9680   19.8660 C   0  0  0  0  0  2  0  0  0  0  0  0
  -29.3570  -22.6940   18.4090 C   0  0  0  0  0  0  0  0  0  0  0  0
  -27.6600  -22.8970   16.6500 C   0  0  0  0  0  2  0  0  0  0  0  0
  -27.3700  -24.3090   16.1280 C   0  0  0  0  0  2  0  0  0  0  0  0
  -26.3150  -24.9990   17.0080 C   0  0  0  0  0  2  0  0  0  0  0  0
  -26.6770  -24.9430   18.5150 C   0  0  0  0  0  3  0  0  0  0  0  0
  -27.0460  -23.5080   18.9500 C   0  0  0  0  0  2  0  0  0  0  0  0
  -28.0890  -22.9820   18.0500 N   0  0  0  0  0  0  0  0  0  0  0  0
  -30.3270  -22.7520   17.6440 O   0  0  0  0  0  0  0  0  0  0  0  0
  -29.3880  -21.9740   19.5340 N   0  0  0  0  0  0  0  0  0  0  0  0
  -28.5310  -21.9460   20.0640 H   0  0  0  0  0  0  0  0  0  0  0  0
  -25.6800  -26.3550   20.4260 C   0  0  0  0  0  0  0  0  0  0  0  0
  -24.3850  -26.6280   20.7820 C   0  0  0  0  0  0  0  0  0  0  0  0
  -23.5630  -25.9100   19.8610 C   0  0  0  0  0  0  0  0  0  0  0  0
  -25.6030  -25.4980   19.3380 N   0  0  0  0  0  0  0  0  0  0  0  0
  -24.3130  -25.1920   19.0350 N   0  0  0  0  0  0  0  0  0  0  0  0
  -22.1050  -25.9060   19.6810 C   0  0  0  0  0  0  0  0  0  0  0  0
  -21.3340  -24.7440   19.9110 C   0  0  0  0  0  3  0  0  0  0  0  0
  -19.9320  -24.7730   19.7490 C   0  0  0  0  0  3  0  0  0  0  0  0
  -19.2860  -25.9700   19.3580 C   0  0  0  0  0  0  0  0  0  0  0  0
  -20.0610  -27.1160   19.1100 C   0  0  0  0  0  3  0  0  0  0  0  0
  -21.4570  -27.0860   19.2660 C   0  0  0  0  0  3  0  0  0  0  0  0
  -17.9320  -26.0840   19.1500 O   0  0  0  0  0  0  0  0  0  0  0  0
  -17.0250  -25.4900   19.9890 C   0  0  0  0  0  0  0  0  0  0  0  0
  -16.8950  -25.8750   21.3420 C   0  0  0  0  0  3  0  0  0  0  0  0
  -15.9020  -25.2880   22.1500 C   0  0  0  0  0  3  0  0  0  0  0  0
  -15.0300  -24.3250   21.6060 C   0  0  0  0  0  0  0  0  0  0  0  0
  -15.1540  -23.9440   20.2580 C   0  0  0  0  0  3  0  0  0  0  0  0
  -16.1450  -24.5300   19.4510 C   0  0  0  0  0  0  0  0  0  0  0  0
  -16.2460  -24.1740   18.1480 F   0  0  0  0  0  0  0  0  0  0  0  0
  -14.0690  -23.7670   22.3790 F   0  0  0  0  0  0  0  0  0  0  0  0
  -23.9330  -27.5780   21.8520 C   0  0  0  0  0  0  0  0  0  0  0  0
  -22.7960  -27.2980   22.4800 N   0  0  0  0  0  0  0  0  0  0  0  0
  -24.6130  -28.5510   22.1730 O   0  0  0  0  0  0  0  0  0  0  0  0
  -22.2460  -26.4880   22.2340 H   0  0  0  0  0  0  0  0  0  0  0  0
  -22.4690  -27.9050   23.2200 H   0  0  0  0  0  0  0  0  0  0  0  0
  -26.9070  -26.7750   20.9240 N   0  0  0  0  0  0  0  0  0  0  0  0
  -26.9840  -27.4390   21.6880 H   0  0  0  0  0  0  0  0  0  0  0  0
  -27.8070  -26.5060   20.5410 H   0  0  0  0  0  0  0  0  0  0  0  0
  -26.3800  -22.6790   27.1380 C   0  0  0  0  0  0  0  0  0  0  0  0
  -26.3380  -21.4580   26.5900 N   0  0  0  0  0  0  0  0  0  0  0  0
  -27.2600  -23.0190   27.9310 O   0  0  0  0  0  0  0  0  0  0  0  0
  -25.6100  -21.2660   25.9160 H   0  0  0  0  0  0  0  0  0  0  0  0
  -25.2990  -23.6770   26.7270 C   0  0  0  0  0  2  0  0  0  0  0  0
  -25.3800  -25.8060   25.4620 C   0  0  0  0  0  0  0  0  0  0  0  0
  -25.9470  -24.8980   26.2590 N   0  0  0  0  0  0  0  0  0  0  0  0
  -24.2020  -25.7260   25.1020 O   0  0  0  0  0  0  0  0  0  0  0  0
  -26.9270  -24.9890   26.4920 H   0  0  0  0  0  0  0  0  0  0  0  0
  -26.2420  -26.9850   24.9960 C   0  0  0  0  0  2  0  0  0  0  0  0
  -25.4520  -27.8430   24.0970 N   0  0  0  0  0  0  0  0  0  0  0  0
  -24.4740  -27.7350   24.3550 H   0  0  0  0  0  0  0  0  0  0  0  0
  -25.7710  -29.2210   24.4020 O   0  0  0  0  0  0  0  0  0  0  0  0
  -27.0410  -30.8340   31.1870 C   0  0  0  0  0  0  0  0  0  0  0  0
  -25.2240  -29.6000   25.6040 C   0  0  0  0  0  0  0  0  0  0  0  0
  -24.6620  -30.5220   30.5880 C   0  0  0  0  0  3  0  0  0  0  0  0
  -24.1580  -30.3830   28.0920 C   0  0  0  0  0  0  0  0  0  0  0  0
  -26.3500  -31.3260   28.8450 C   0  0  0  0  0  2  0  0  0  0  0  0
  -25.5040  -30.6320   27.7990 C   0  0  0  0  0  0  0  0  0  0  0  0
  -26.0440  -30.2370   26.5570 C   0  0  0  0  0  3  0  0  0  0  0  0
  -23.8630  -29.3660   25.9030 C   0  0  0  0  0  3  0  0  0  0  0  0
  -23.3330  -29.7440   27.1510 C   0  0  0  0  0  3  0  0  0  0  0  0
  -23.6600  -30.8380   29.4460 C   0  0  0  0  0  2  0  0  0  0  0  0
  -26.0730  -30.8730   30.2290 N   0  0  0  0  0  0  0  0  0  0  0  0
  -26.7680  -30.5580   32.3630 O   0  0  0  0  0  0  0  0  0  0  0  0
  -24.4830  -29.0440   31.0040 C   0  0  0  0  0  0  0  0  0  0  0  0
  -23.6010  -28.8010   31.9890 N   0  0  0  0  0  0  0  0  0  0  0  0
  -25.1030  -28.1470   30.4300 O   0  0  0  0  0  0  0  0  0  0  0  0
  -23.1500  -29.5960   32.4180 H   0  0  0  0  0  0  0  0  0  0  0  0
  -21.8960  -27.1350   34.7030 C   0  0  0  0  0  0  0  0  0  0  0  0
  -23.2340  -27.4890   32.5190 C   0  0  0  0  0  3  0  0  0  0  0  0
  -21.9970  -26.9140   31.7900 C   0  0  0  0  0  2  0  0  0  0  0  0
  -20.6760  -27.2470   32.4900 C   0  0  0  0  0  2  0  0  0  0  0  0
  -20.6720  -26.6940   33.9190 C   0  0  0  0  0  2  0  0  0  0  0  0
  -23.0940  -27.5260   34.0470 C   0  0  0  0  0  0  0  0  0  0  0  0
  -24.1900  -27.9630   34.8200 C   0  0  0  0  0  3  0  0  0  0  0  0
  -24.1060  -28.0120   36.2240 C   0  0  0  0  0  3  0  0  0  0  0  0
  -22.9270  -27.6040   36.8730 C   0  0  0  0  0  3  0  0  0  0  0  0
  -21.8280  -27.1630   36.1120 C   0  0  0  0  0  3  0  0  0  0  0  0
  -28.5340  -31.1580   30.8610 C   0  0  0  0  0  3  0  0  0  0  0  0
  -29.4240  -29.8680   30.6730 C   0  0  1  0  0  0  0  0  0  0  0  0
  -29.3240  -28.8590   31.8420 C   0  0  0  0  0  1  0  0  0  0  0  0
  -29.0270  -29.1270   29.3740 C   0  0  0  0  0  1  0  0  0  0  0  0
  -30.9090  -30.2720   30.5220 C   0  0  0  0  0  1  0  0  0  0  0  0
  -29.0530  -31.9980   31.9500 N   0  0  0  0  0  0  0  0  0  0  0  0
  -29.1270  -33.3350   31.9070 C   0  0  0  0  0  0  0  0  0  0  0  0
  -28.8260  -33.9910   30.9060 O   0  0  0  0  0  0  0  0  0  0  0  0
  -29.2580  -31.5310   32.8200 H   0  0  0  0  0  0  0  0  0  0  0  0
  -28.4030  -34.5750   33.9710 C   0  0  0  0  0  1  0  0  0  0  0  0
  -29.6130  -34.0590   33.1770 C   0  0  0  0  0  3  0  0  0  0  0  0
  -31.8360  -34.7400   32.3850 C   0  0  0  0  0  1  0  0  0  0  0  0
  -30.5410  -35.1780   32.8980 N   0  0  0  0  0  0  0  0  0  0  0  0
  -30.7030  -35.7280   33.7380 H   0  0  0  0  0  0  0  0  0  0  0  0
  2  3  1  0
  2  1  1  0
  3  5  1  0
  4  2  2  0
  6  7  1  0
  7  9  1  0
  7  3  1  0
  8  6  2  0
 10  6  1  0
 11 12  1  0
 11 13  2  0
 12 10  1  0
 14 12  1  0
 15 11  1  0
 16 24  1  0
 17 22  1  0
 18 17  1  0
 18 19  1  0
 20 19  1  0
 20 21  1  0
 20 29  1  0
 22 16  1  0
 22 21  1  0
 23 16  2  0
 24 15  1  0
 24 25  1  0
 26 27  2  0
 26 51  1  0
 27 46  1  0
 28 27  1  0
 29 26  1  0
 30 29  1  0
 30 28  2  0
 31 28  1  0
 31 32  1  0
 33 32  2  0
 34 33  1  0
 35 36  1  0
 35 34  2  0
 36 31  2  0
 37 34  1  0
 37 38  1  0
 38 39  1  0
 39 40  2  0
 41 40  1  0
 41 45  1  0
 42 41  2  0
 43 38  2  0
 43 42  1  0
 44 43  1  0
 46 48  2  0
 46 47  1  0
 47 50  1  0
 49 47  1  0
 51 52  1  0
 53 51  1  0
 54 56  2  0
 55  1  1  0
 55 54  1  0
 57 55  1  0
 58 54  1  0
 59 60  1  0
 60 62  1  0
 60 58  1  0
 61 59  2  0
 63 59  1  0
 64 65  1  0
 64 66  1  0
 64 63  1  0
 66 68  1  0
 67 78  2  0
 68 74  2  0
 68 73  1  0
 69 79  1  0
 70 76  1  0
 71 77  1  0
 72 70  1  0
 72 71  1  0
 73 72  2  0
 74 75  1  0
 75 70  2  0
 76 69  1  0
 77 69  1  0
 77 67  1  0
 79 80  1  0
 80 82  1  0
 81 79  2  0
 83 92  1  0
 84 80  1  0
 84 88  1  0
 85 86  1  0
 85 84  1  0
 86 87  1  0
 87 83  1  0
 88 83  2  0
 88 89  1  0
 89 90  2  0
 90 91  1  0
 92 91  2  0
 93 67  1  0
 93 98  1  0
 94 93  1  0
 94 95  1  1
 96 94  1  0
 97 94  1  0
 98101  1  0
 99 98  1  0
 99103  1  0
100 99  2  0
103102  1  0
104105  1  0
105103  1  0
105106  1  0
M  ISO  4  16 100  24 100  64 101  66 101
M  END
>  <TORSDO>  (22) 
F 26

>  <SCORE>  (22) 
32.632

>  <name>  (22) 
23

>  <ligand_id>  (22) 
23

>  <original_smiles>  (22) 
[H]c1c([H])c([H])c2c(c1[H])C([H])([H])C([H])([H])C([H])([H])C2([H])N([H])C(=O)C1([H])N(C(=O)C([H])(N([H])C(=O)C([H])(N([H])C([H])([H])[H])C([H])([H])[H])C(C([H])([H])[H])(C([H])([H])[H])C([H])([H])[H])C([H])([H])c2c([H])c(ON([H])C([H])([H])C(=O)N([H])C([H])([H])C(=O)N([H])C([H])([H])C(=O)N([H])N([H])C(=O)C([H])([H])N([H])C(=O)C([H])([H])N([H])C(=O)N3C([H])([H])C([H])([H])C([H])([H])C([H])(n4nc(-c5c([H])c([H])c(Oc6c([H])c([H])c(F)c([H])c6F)c([H])c5[H])c(C(=O)N([H])[H])c4N([H])[H])C3([H])[H])c([H])c([H])c2C1([H])[H]

>  <smiles>  (22) 
[H]c1c([H])c([H])c2c(c1[H])C([H])([H])C([H])([H])C([H])([H])C2([H])N([H])C(=O)C1([H])N(C(=O)C([H])(N([H])C(=O)C([H])(N([H])C([H])([H])[H])C([H])([H])[H])C(C([H])([H])[H])(C([H])([H])[H])C([H])([H])[H])C([H])([H])c2c([H])c(ON([H])C([H])([H])C(=O)N([H])C([H])([H])C(=O)N([H])C([H])([H])C(=O)N([H])N([H])C(=O)C([H])([H])N([H])C(=O)C([H])([H])N([H])C(=O)N3C([H])([H])C([H])([H])C([H])([H])C([H])(n4nc(-c5c([H])c([H])c(Oc6c([H])c([H])c(F)c([H])c6F)c([H])c5[H])c(C(=O)N([H])[H])c4N([H])[H])C3([H])[H])c([H])c([H])c2C1([H])[H]

$$$$
24:0:0
     RDKit          3D

103110  0  0  1  0  0  0  0  0999 V2000
  -30.0830  -20.6880   23.3240 C   0  0  0  0  0  2  0  0  0  0  0  0
  -29.3050  -21.5420   22.4020 N   0  0  0  0  0  4  0  0  0  0  0  0
  -28.4330  -21.0690   22.2260 H   0  0  0  0  0  0  0  0  0  0  0  0
  -29.8080  -21.6060   21.5290 H   0  0  0  0  0  0  0  0  0  0  0  0
  -29.0880  -22.9320   22.8500 C   0  0  0  0  0  2  0  0  0  0  0  0
  -29.6840  -23.9040   21.8430 C   0  0  0  0  0  0  0  0  0  0  0  0
  -29.5810  -25.2080   22.1140 N   0  0  0  0  0  0  0  0  0  0  0  0
  -30.2150  -23.4670   20.8200 O   0  0  0  0  0  0  0  0  0  0  0  0
  -29.1510  -25.4680   22.9930 H   0  0  0  0  0  0  0  0  0  0  0  0
  -30.0370  -26.3030   21.2600 C   0  0  0  0  0  2  0  0  0  0  0  0
  -29.3700  -26.3060   19.8680 C   0  0  0  0  0  2  0  0  0  0  0  0
  -29.2170  -27.6490   19.4110 O   0  0  0  0  0  0  0  0  0  0  0  0
  -24.5760  -31.4870   23.1620 C   0  0  0  0  0  0  0  0  0  0  0  0
  -27.9370  -28.1340   19.5010 C   0  0  0  0  0  0  0  0  0  0  0  0
  -23.6200  -30.1580   21.3040 C   0  0  0  0  0  3  0  0  0  0  0  0
  -25.3120  -29.1430   19.6880 C   0  0  0  0  0  0  0  0  0  0  0  0
  -26.0330  -30.9980   21.2050 C   0  0  0  0  0  2  0  0  0  0  0  0
  -26.3570  -29.7770   20.3710 C   0  0  0  0  0  0  0  0  0  0  0  0
  -27.6720  -29.2790   20.2770 C   0  0  0  0  0  3  0  0  0  0  0  0
  -26.8800  -27.5060   18.8080 C   0  0  0  0  0  3  0  0  0  0  0  0
  -25.5680  -28.0040   18.9040 C   0  0  0  0  0  3  0  0  0  0  0  0
  -23.9350  -29.7470   19.8400 C   0  0  0  0  0  2  0  0  0  0  0  0
  -24.7570  -30.8920   21.9500 N   0  0  0  0  0  0  0  0  0  0  0  0
  -23.4710  -31.4800   23.7200 O   0  0  0  0  0  0  0  0  0  0  0  0
  -23.1780  -28.9030   22.0890 C   0  0  0  0  0  0  0  0  0  0  0  0
  -21.9480  -28.4360   21.8230 N   0  0  0  0  0  0  0  0  0  0  0  0
  -23.9390  -28.3550   22.8910 O   0  0  0  0  0  0  0  0  0  0  0  0
  -21.3820  -28.9490   21.1600 H   0  0  0  0  0  0  0  0  0  0  0  0
  -18.9800  -26.3730   21.7690 C   0  0  0  0  0  0  0  0  0  0  0  0
  -21.3280  -27.2480   22.4100 C   0  0  0  0  0  3  0  0  0  0  0  0
  -21.8750  -25.9590   21.7540 C   0  0  0  0  0  2  0  0  0  0  0  0
  -21.0220  -25.4710   20.5790 C   0  0  0  0  0  2  0  0  0  0  0  0
  -19.5870  -25.1910   21.0350 C   0  0  0  0  0  2  0  0  0  0  0  0
  -19.7980  -27.3490   22.3980 C   0  0  0  0  0  0  0  0  0  0  0  0
  -19.1840  -28.4480   23.0360 C   0  0  0  0  0  3  0  0  0  0  0  0
  -17.7830  -28.5790   23.0560 C   0  0  0  0  0  3  0  0  0  0  0  0
  -16.9780  -27.6030   22.4450 C   0  0  0  0  0  3  0  0  0  0  0  0
  -17.5770  -26.5010   21.8060 C   0  0  0  0  0  3  0  0  0  0  0  0
  -25.7390  -32.2320   23.8920 C   0  0  0  0  0  3  0  0  0  0  0  0
  -26.2380  -31.4900   25.1920 C   0  0  1  0  0  0  0  0  0  0  0  0
  -25.0980  -31.1050   26.1640 C   0  0  0  0  0  1  0  0  0  0  0  0
  -27.0010  -30.1960   24.8210 C   0  0  0  0  0  1  0  0  0  0  0  0
  -27.2360  -32.3890   25.9600 C   0  0  0  0  0  1  0  0  0  0  0  0
  -25.2630  -33.5820   24.2170 N   0  0  0  0  0  0  0  0  0  0  0  0
  -25.5790  -34.6860   23.5270 C   0  0  0  0  0  0  0  0  0  0  0  0
  -26.3700  -34.6800   22.5780 O   0  0  0  0  0  0  0  0  0  0  0  0
  -24.5690  -33.6560   24.9470 H   0  0  0  0  0  0  0  0  0  0  0  0
  -23.7480  -36.3270   22.9950 C   0  0  0  0  0  1  0  0  0  0  0  0
  -24.9070  -36.0050   23.9520 C   0  0  0  0  0  3  0  0  0  0  0  0
  -26.8310  -37.0360   25.0740 C   0  0  0  0  0  1  0  0  0  0  0  0
  -25.8400  -37.1500   24.0060 N   0  0  0  0  0  0  0  0  0  0  0  0
  -25.3350  -38.0230   24.1350 H   0  0  0  0  0  0  0  0  0  0  0  0
  -30.2290  -19.3040   22.6840 C   0  0  0  0  0  0  0  0  0  0  0  0
  -30.0190  -19.1560   21.4740 O   0  0  0  0  0  0  0  0  0  0  0  0
  -30.5950  -18.1270   23.6090 C   0  0  0  0  0  3  0  0  0  0  0  0
  -29.4480  -18.3670   25.8230 C   0  0  0  0  0  0  0  0  0  0  0  0
  -28.2110  -17.9890   26.6260 C   0  0  0  0  0  1  0  0  0  0  0  0
  -29.5110  -17.9020   24.5700 N   0  0  0  0  0  0  0  0  0  0  0  0
  -30.3220  -19.0740   26.3270 O   0  0  0  0  0  0  0  0  0  0  0  0
  -28.7140  -17.3710   24.2410 H   0  0  0  0  0  0  0  0  0  0  0  0
  -31.6150  -16.7760   21.7630 C   0  0  0  0  0  0  0  0  0  0  0  0
  -30.7980  -16.9130   22.8120 N   0  0  0  0  0  0  0  0  0  0  0  0
  -32.2220  -17.7200   21.2550 O   0  0  0  0  0  0  0  0  0  0  0  0
  -30.2800  -16.0940   23.0960 H   0  0  0  0  0  0  0  0  0  0  0  0
  -31.7720  -15.3620   21.2060 C   0  0  0  0  0  2  0  0  0  0  0  0
  -30.2700  -14.6150   19.3690 C   0  0  0  0  0  0  0  0  0  0  0  0
  -29.6790  -12.6470   18.0200 C   0  0  0  0  0  2  0  0  0  0  0  0
  -28.4790  -12.7960   17.0770 C   0  0  0  0  0  2  0  0  0  0  0  0
  -27.1710  -12.4870   17.8240 C   0  0  0  0  0  2  0  0  0  0  0  0
  -27.0450  -13.2840   19.1460 C   0  0  0  0  0  3  0  0  0  0  0  0
  -28.3250  -13.1580   20.0000 C   0  0  0  0  0  2  0  0  0  0  0  0
  -29.4940  -13.5250   19.1800 N   0  0  0  0  0  0  0  0  0  0  0  0
  -30.9280  -15.1570   18.4750 O   0  0  0  0  0  0  0  0  0  0  0  0
  -30.5260  -14.8250   20.6660 N   0  0  0  0  0  0  0  0  0  0  0  0
  -29.9410  -14.3200   21.3130 H   0  0  0  0  0  0  0  0  0  0  0  0
  -24.9150  -13.6700   20.5430 C   0  0  0  0  0  0  0  0  0  0  0  0
  -23.9650  -12.8050   21.0190 C   0  0  0  0  0  0  0  0  0  0  0  0
  -24.3860  -11.4990   20.6230 C   0  0  0  0  0  0  0  0  0  0  0  0
  -25.8550  -12.8810   19.8940 N   0  0  0  0  0  0  0  0  0  0  0  0
  -25.5520  -11.5600   19.9940 N   0  0  0  0  0  0  0  0  0  0  0  0
  -23.7130  -10.1990   20.7530 C   0  0  0  0  0  0  0  0  0  0  0  0
  -24.2720   -9.1520   21.5200 C   0  0  0  0  0  3  0  0  0  0  0  0
  -23.6000   -7.9190   21.6450 C   0  0  0  0  0  3  0  0  0  0  0  0
  -22.3520   -7.7220   21.0060 C   0  0  0  0  0  0  0  0  0  0  0  0
  -21.8110   -8.7590   20.2260 C   0  0  0  0  0  3  0  0  0  0  0  0
  -22.4840   -9.9850   20.0970 C   0  0  0  0  0  3  0  0  0  0  0  0
  -21.6390   -6.5480   21.0500 O   0  0  0  0  0  0  0  0  0  0  0  0
  -21.6540   -5.7380   22.1570 C   0  0  0  0  0  0  0  0  0  0  0  0
  -21.2490   -6.2040   23.4270 C   0  0  0  0  0  3  0  0  0  0  0  0
  -21.2140   -5.3200   24.5240 C   0  0  0  0  0  3  0  0  0  0  0  0
  -21.5740   -3.9690   24.3510 C   0  0  0  0  0  0  0  0  0  0  0  0
  -21.9730   -3.5020   23.0860 C   0  0  0  0  0  3  0  0  0  0  0  0
  -22.0100   -4.3850   21.9930 C   0  0  0  0  0  0  0  0  0  0  0  0
  -22.3740   -3.9240   20.7710 F   0  0  0  0  0  0  0  0  0  0  0  0
  -21.5340   -3.1180   25.4030 F   0  0  0  0  0  0  0  0  0  0  0  0
  -22.6920  -13.1780   21.7210 C   0  0  0  0  0  0  0  0  0  0  0  0
  -22.2300  -12.3400   22.6430 N   0  0  0  0  0  0  0  0  0  0  0  0
  -22.1200  -14.2420   21.4890 O   0  0  0  0  0  0  0  0  0  0  0  0
  -22.7060  -11.4740   22.8510 H   0  0  0  0  0  0  0  0  0  0  0  0
  -21.3850  -12.5660   23.1490 H   0  0  0  0  0  0  0  0  0  0  0  0
  -25.0490  -15.0530   20.5860 N   0  0  0  0  0  0  0  0  0  0  0  0
  -24.3500  -15.6530   21.0130 H   0  0  0  0  0  0  0  0  0  0  0  0
  -25.8050  -15.5710   20.1530 H   0  0  0  0  0  0  0  0  0  0  0  0
  2  5  1  0
  2  1  1  0
  3  2  1  0
  4  2  1  0
  6  7  1  0
  6  5  1  0
  7  9  1  0
  8  6  2  0
 10  7  1  0
 11 10  1  0
 12 14  1  0
 12 11  1  0
 13 24  2  0
 14 19  1  0
 15 23  1  0
 15 25  1  0
 16 22  1  0
 16 18  1  0
 17 23  1  0
 18 17  1  0
 19 18  2  0
 20 21  1  0
 20 14  2  0
 21 16  2  0
 22 15  1  0
 23 13  1  0
 25 27  2  0
 26 25  1  0
 28 26  1  0
 29 38  2  0
 29 34  1  0
 30 26  1  0
 31 30  1  0
 32 33  1  0
 32 31  1  0
 33 29  1  0
 34 30  1  0
 34 35  2  0
 35 36  1  0
 37 36  2  0
 38 37  1  0
 39 13  1  0
 39 44  1  0
 39 40  1  0
 40 43  1  1
 40 41  1  0
 42 40  1  0
 44 47  1  0
 45 49  1  0
 45 44  1  0
 46 45  2  0
 49 48  1  0
 49 51  1  0
 51 52  1  0
 51 50  1  0
 53  1  1  0
 54 53  2  0
 55 53  1  0
 55 58  1  0
 56 59  2  0
 56 57  1  0
 58 56  1  0
 60 58  1  0
 61 62  1  0
 62 64  1  0
 62 55  1  0
 63 61  2  0
 65 61  1  0
 66 74  1  0
 67 72  1  0
 68 69  1  0
 68 67  1  0
 70 69  1  0
 70 79  1  0
 70 71  1  0
 72 66  1  0
 72 71  1  0
 73 66  2  0
 74 65  1  0
 74 75  1  0
 76101  1  0
 76 77  2  0
 77 96  1  0
 78 81  1  0
 78 77  1  0
 79 80  1  0
 79 76  1  0
 80 78  2  0
 81 82  1  0
 82 83  2  0
 84 87  1  0
 84 83  1  0
 85 84  2  0
 86 85  1  0
 86 81  2  0
 87 88  1  0
 88 89  1  0
 89 90  2  0
 91 90  1  0
 91 95  1  0
 92 91  2  0
 93 88  2  0
 93 92  1  0
 94 93  1  0
 96 97  1  0
 97 99  1  0
 97100  1  0
 98 96  2  0
101102  1  0
103101  1  0
M  ISO  4  11 101  12 101  66 100  74 100
M  END
>  <TORSDO>  (23) 
F 26

>  <SCORE>  (23) 
1.852

>  <name>  (23) 
24

>  <ligand_id>  (23) 
24

>  <original_smiles>  (23) 
[H]c1c([H])c([H])c2c(c1[H])C([H])([H])C([H])([H])C([H])([H])C2([H])N([H])C(=O)C1([H])N(C(=O)C([H])(N([H])C(=O)C([H])(N([H])C([H])([H])[H])C([H])([H])[H])C(C([H])([H])[H])(C([H])([H])[H])C([H])([H])[H])C([H])([H])c2c([H])c(OC([H])([H])C([H])([H])N([H])C(=O)C([H])([H])[N+]([H])([H])C([H])([H])C(=O)C([H])(N([H])C(=O)C([H])([H])[H])N([H])C(=O)C([H])([H])N([H])C(=O)N3C([H])([H])C([H])([H])C([H])([H])C([H])(n4nc(-c5c([H])c([H])c(Oc6c([H])c([H])c(F)c([H])c6F)c([H])c5[H])c(C(=O)N([H])[H])c4N([H])[H])C3([H])[H])c([H])c([H])c2C1([H])[H]

>  <smiles>  (23) 
[H]c1c([H])c([H])c2c(c1[H])C([H])([H])C([H])([H])C([H])([H])C2([H])N([H])C(=O)C1([H])N(C(=O)C([H])(N([H])C(=O)C([H])(N([H])C([H])([H])[H])C([H])([H])[H])C(C([H])([H])[H])(C([H])([H])[H])C([H])([H])[H])C([H])([H])c2c([H])c(OC([H])([H])C([H])([H])N([H])C(=O)C([H])([H])[N+]([H])([H])C([H])([H])C(=O)C([H])(N([H])C(=O)C([H])([H])[H])N([H])C(=O)C([H])([H])N([H])C(=O)N3C([H])([H])C([H])([H])C([H])([H])C([H])(n4nc(-c5c([H])c([H])c(Oc6c([H])c([H])c(F)c([H])c6F)c([H])c5[H])c(C(=O)N([H])[H])c4N([H])[H])C3([H])[H])c([H])c([H])c2C1([H])[H]

$$$$
25:0:0
     RDKit          3D

 87 94  0  0  1  0  0  0  0  0999 V2000
  -28.5360  -21.7890   20.2570 C   0  0  0  0  0  0  0  0  0  0  0  0
  -29.3510  -20.6330   20.4470 N   0  0  0  0  0  0  0  0  0  0  0  0
  -27.3550  -21.5930   19.9680 O   0  0  0  0  0  0  0  0  0  0  0  0
  -30.3170  -20.8380   20.6750 H   0  0  0  0  0  0  0  0  0  0  0  0
  -28.9820  -23.3870   20.3930 C   0  0  0  0  0  3  0  0  0  0  0  0
  -27.9680  -24.7180   20.1040 C   0  0  0  0  0  3  0  0  0  0  0  0
  -28.2450  -26.2490   20.2930 O   0  0  0  0  0  0  0  0  0  0  0  0
  -24.6260  -31.9510   23.2800 C   0  0  0  0  0  0  0  0  0  0  0  0
  -27.1910  -27.2390   20.2290 C   0  0  0  0  0  0  0  0  0  0  0  0
  -23.4220  -30.5630   21.6390 C   0  0  0  0  0  3  0  0  0  0  0  0
  -24.8660  -28.9920   20.2050 C   0  0  0  0  0  0  0  0  0  0  0  0
  -25.9760  -30.8240   21.4710 C   0  0  0  0  0  2  0  0  0  0  0  0
  -26.0480  -29.4350   20.8130 C   0  0  0  0  0  0  0  0  0  0  0  0
  -27.2120  -28.5740   20.8060 C   0  0  0  0  0  3  0  0  0  0  0  0
  -25.9820  -26.9010   19.5820 C   0  0  0  0  0  3  0  0  0  0  0  0
  -24.8460  -27.7400   19.5730 C   0  0  0  0  0  3  0  0  0  0  0  0
  -23.6410  -29.8910   20.2560 C   0  0  0  0  0  2  0  0  0  0  0  0
  -24.6950  -31.1340   22.1850 N   0  0  0  0  0  0  0  0  0  0  0  0
  -23.5400  -32.2350   23.8110 O   0  0  0  0  0  0  0  0  0  0  0  0
  -22.7440  -29.5530   22.5980 C   0  0  0  0  0  0  0  0  0  0  0  0
  -21.4170  -29.3740   22.4640 N   0  0  0  0  0  0  0  0  0  0  0  0
  -23.4130  -28.9330   23.4280 O   0  0  0  0  0  0  0  0  0  0  0  0
  -20.9320  -29.9260   21.7690 H   0  0  0  0  0  0  0  0  0  0  0  0
  -18.0360  -28.1720   22.9650 C   0  0  0  0  0  0  0  0  0  0  0  0
  -20.5950  -28.4350   23.2320 C   0  0  0  0  0  3  0  0  0  0  0  0
  -20.6970  -27.0040   22.6520 C   0  0  0  0  0  2  0  0  0  0  0  0
  -19.5950  -26.6840   21.6370 C   0  0  0  0  0  2  0  0  0  0  0  0
  -18.2140  -26.8260   22.2820 C   0  0  0  0  0  2  0  0  0  0  0  0
  -19.1540  -28.9340   23.3960 C   0  0  0  0  0  0  0  0  0  0  0  0
  -18.9330  -30.1930   23.9960 C   0  0  0  0  0  3  0  0  0  0  0  0
  -17.6280  -30.6890   24.1670 C   0  0  0  0  0  3  0  0  0  0  0  0
  -16.5240  -29.9250   23.7500 C   0  0  0  0  0  3  0  0  0  0  0  0
  -16.7290  -28.6670   23.1550 C   0  0  0  0  0  3  0  0  0  0  0  0
  -25.9060  -32.5840   23.9080 C   0  0  0  0  0  3  0  0  0  0  0  0
  -26.4080  -31.8180   25.1940 C   0  0  1  0  0  0  0  0  0  0  0  0
  -25.3040  -31.5850   26.2510 C   0  0  0  0  0  1  0  0  0  0  0  0
  -26.9960  -30.4390   24.8180 C   0  0  0  0  0  1  0  0  0  0  0  0
  -27.5510  -32.6160   25.8640 C   0  0  0  0  0  1  0  0  0  0  0  0
  -25.5990  -33.9850   24.2350 N   0  0  0  0  0  0  0  0  0  0  0  0
  -25.9050  -35.0350   23.4620 C   0  0  0  0  0  0  0  0  0  0  0  0
  -26.5440  -34.9260   22.4120 O   0  0  0  0  0  0  0  0  0  0  0  0
  -25.0270  -34.1430   25.0520 H   0  0  0  0  0  0  0  0  0  0  0  0
  -24.1580  -36.8220   23.1620 C   0  0  0  0  0  1  0  0  0  0  0  0
  -25.4320  -36.4280   23.9270 C   0  0  0  0  0  3  0  0  0  0  0  0
  -27.5850  -37.3400   24.6780 C   0  0  0  0  0  1  0  0  0  0  0  0
  -26.4550  -37.4830   23.7630 N   0  0  0  0  0  0  0  0  0  0  0  0
  -26.0480  -38.4040   23.9030 H   0  0  0  0  0  0  0  0  0  0  0  0
  -29.0040  -19.0830   20.4080 C   0  0  0  0  0  3  0  0  0  0  0  0
  -30.1100  -17.8050   20.4950 C   0  0  0  0  0  3  0  0  0  0  0  0
  -30.5060  -15.0730   20.3590 C   0  0  0  0  0  0  0  0  0  0  0  0
  -30.3760  -12.7400   19.3720 C   0  0  0  0  0  2  0  0  0  0  0  0
  -29.4320  -12.7170   18.1480 C   0  0  0  0  0  2  0  0  0  0  0  0
  -27.9730  -12.4950   18.5910 C   0  0  0  0  0  2  0  0  0  0  0  0
  -27.5760  -13.3950   19.7900 C   0  0  0  0  0  3  0  0  0  0  0  0
  -28.6420  -13.3900   20.9060 C   0  0  0  0  0  2  0  0  0  0  0  0
  -29.9040  -13.8170   20.2900 N   0  0  0  0  0  0  0  0  0  0  0  0
  -31.7060  -15.1380   20.0720 O   0  0  0  0  0  0  0  0  0  0  0  0
  -29.7400  -16.2610   20.5410 N   0  0  0  0  0  0  0  0  0  0  0  0
  -28.7640  -16.0790   20.7210 H   0  0  0  0  0  0  0  0  0  0  0  0
  -25.2000  -13.9500   20.5610 C   0  0  0  0  0  0  0  0  0  0  0  0
  -24.1420  -13.1630   20.9260 C   0  0  0  0  0  0  0  0  0  0  0  0
  -24.6120  -11.8150   20.8670 C   0  0  0  0  0  0  0  0  0  0  0  0
  -26.2440  -13.0810   20.2960 N   0  0  0  0  0  0  0  0  0  0  0  0
  -25.9020  -11.7900   20.5470 N   0  0  0  0  0  0  0  0  0  0  0  0
  -23.8930  -10.5460   21.0400 C   0  0  0  0  0  0  0  0  0  0  0  0
  -24.3110   -9.5810   21.9810 C   0  0  0  0  0  3  0  0  0  0  0  0
  -23.5890   -8.3780   22.1420 C   0  0  0  0  0  3  0  0  0  0  0  0
  -22.4350   -8.1330   21.3600 C   0  0  0  0  0  0  0  0  0  0  0  0
  -22.0360   -9.0880   20.4090 C   0  0  0  0  0  3  0  0  0  0  0  0
  -22.7580  -10.2810   20.2470 C   0  0  0  0  0  3  0  0  0  0  0  0
  -21.6860   -6.9830   21.4310 O   0  0  0  0  0  0  0  0  0  0  0  0
  -21.5870   -6.2580   22.5910 C   0  0  0  0  0  0  0  0  0  0  0  0
  -21.0250   -6.8050   23.7650 C   0  0  0  0  0  3  0  0  0  0  0  0
  -20.8780   -6.0030   24.9150 C   0  0  0  0  0  3  0  0  0  0  0  0
  -21.2830   -4.6560   24.8910 C   0  0  0  0  0  0  0  0  0  0  0  0
  -21.8380   -4.1080   23.7210 C   0  0  0  0  0  3  0  0  0  0  0  0
  -21.9860   -4.9060   22.5730 C   0  0  0  0  0  0  0  0  0  0  0  0
  -22.5020   -4.3680   21.4420 F   0  0  0  0  0  0  0  0  0  0  0  0
  -21.1360   -3.8820   25.9930 F   0  0  0  0  0  0  0  0  0  0  0  0
  -22.7450  -13.6300   21.2140 C   0  0  0  0  0  0  0  0  0  0  0  0
  -22.0250  -12.9160   22.0720 N   0  0  0  0  0  0  0  0  0  0  0  0
  -22.3020  -14.6620   20.7140 O   0  0  0  0  0  0  0  0  0  0  0  0
  -22.3980  -12.0800   22.4990 H   0  0  0  0  0  0  0  0  0  0  0  0
  -21.0880  -13.2090   22.3070 H   0  0  0  0  0  0  0  0  0  0  0  0
  -25.3530  -15.3230   20.4050 N   0  0  0  0  0  0  0  0  0  0  0  0
  -24.5780  -15.9660   20.5260 H   0  0  0  0  0  0  0  0  0  0  0  0
  -26.1810  -15.7710   20.0330 H   0  0  0  0  0  0  0  0  0  0  0  0
  1  5  1  0
  1  2  1  0
  2  4  1  0
  3  1  2  0
  6  7  1  0
  6  5  2  0
  8 19  2  0
  9  7  1  0
  9 14  1  0
 10 18  1  0
 10 20  1  0
 11 17  1  0
 11 13  1  0
 12 18  1  0
 13 12  1  0
 14 13  2  0
 15  9  2  0
 16 15  1  0
 16 11  2  0
 17 10  1  0
 18  8  1  0
 20 22  2  0
 21 20  1  0
 23 21  1  0
 24 33  2  0
 24 29  1  0
 25 21  1  0
 25 29  1  0
 26 25  1  0
 27 28  1  0
 27 26  1  0
 28 24  1  0
 29 30  2  0
 30 31  1  0
 32 31  2  0
 33 32  1  0
 34  8  1  0
 34 39  1  0
 34 35  1  0
 35 38  1  1
 35 36  1  0
 37 35  1  0
 39 42  1  0
 40 44  1  0
 40 39  1  0
 41 40  2  0
 44 43  1  0
 46 47  1  0
 46 44  1  0
 46 45  1  0
 48  2  1  0
 48 49  2  0
 49 58  1  0
 50 58  1  0
 51 56  1  0
 52 53  1  0
 52 51  1  0
 54 53  1  0
 54 63  1  0
 54 55  1  0
 56 50  1  0
 56 55  1  0
 57 50  2  0
 58 59  1  0
 60 61  2  0
 61 80  1  0
 62 61  1  0
 62 65  1  0
 63 64  1  0
 63 60  1  0
 64 62  2  0
 65 66  1  0
 66 67  2  0
 68 71  1  0
 68 67  1  0
 69 68  2  0
 70 69  1  0
 70 65  2  0
 71 72  1  0
 72 73  1  0
 73 74  2  0
 75 74  1  0
 75 79  1  0
 76 75  2  0
 77 72  2  0
 77 76  1  0
 78 77  1  0
 80 81  1  0
 81 84  1  0
 81 83  1  0
 82 80  2  0
 85 86  1  0
 85 60  1  0
 87 85  1  0
M  ISO  4   6 101   7 101  50 100  58 100
M  END
>  <TORSDO>  (24) 
F 20

>  <SCORE>  (24) 
-14.337

>  <name>  (24) 
25

>  <ligand_id>  (24) 
25

>  <original_smiles>  (24) 
[H]c1c([H])c([H])c2c(c1[H])C([H])([H])C([H])([H])C([H])([H])C2([H])N([H])C(=O)C1([H])N(C(=O)C([H])(N([H])C(=O)C([H])(N([H])C([H])([H])[H])C([H])([H])[H])C(C([H])([H])[H])(C([H])([H])[H])C([H])([H])[H])C([H])([H])c2c([H])c(OC([H])([H])C([H])([H])C(=O)N([H])C([H])([H])C([H])([H])N([H])C(=O)N3C([H])([H])C([H])([H])C([H])([H])C([H])(n4nc(-c5c([H])c([H])c(Oc6c([H])c([H])c(F)c([H])c6F)c([H])c5[H])c(C(=O)N([H])[H])c4N([H])[H])C3([H])[H])c([H])c([H])c2C1([H])[H]

>  <smiles>  (24) 
[H]c1c([H])c([H])c2c(c1[H])C([H])([H])C([H])([H])C([H])([H])C2([H])N([H])C(=O)C1([H])N(C(=O)C([H])(N([H])C(=O)C([H])(N([H])C([H])([H])[H])C([H])([H])[H])C(C([H])([H])[H])(C([H])([H])[H])C([H])([H])[H])C([H])([H])c2c([H])c(OC([H])([H])C([H])([H])C(=O)N([H])C([H])([H])C([H])([H])N([H])C(=O)N3C([H])([H])C([H])([H])C([H])([H])C([H])(n4nc(-c5c([H])c([H])c(Oc6c([H])c([H])c(F)c([H])c6F)c([H])c5[H])c(C(=O)N([H])[H])c4N([H])[H])C3([H])[H])c([H])c([H])c2C1([H])[H]

$$$$
26:0:0
     RDKit          3D

106113  0  0  1  0  0  0  0  0999 V2000
  -27.6230  -25.1000   23.6340 C   0  0  0  0  0  2  0  0  0  0  0  0
  -28.7880  -26.1020   23.6540 C   0  0  0  0  0  0  0  0  0  0  0  0
  -28.6430  -27.1880   24.4180 N   0  0  0  0  0  0  0  0  0  0  0  0
  -29.8040  -25.9030   22.9830 O   0  0  0  0  0  0  0  0  0  0  0  0
  -27.7710  -27.2960   24.9170 H   0  0  0  0  0  0  0  0  0  0  0  0
  -29.6780  -28.1900   24.6920 C   0  0  0  0  0  2  0  0  0  0  0  0
  -30.3250  -28.8330   23.4550 C   0  0  0  0  0  0  0  0  0  0  0  0
  -30.2150  -28.2060   22.2800 N   0  0  0  0  0  0  0  0  0  0  0  0
  -30.9020  -29.9160   23.5630 O   0  0  0  0  0  0  0  0  0  0  0  0
  -29.7590  -27.3030   22.2700 H   0  0  0  0  0  0  0  0  0  0  0  0
  -30.6810  -28.7320   21.0030 C   0  0  0  0  0  2  0  0  0  0  0  0
  -30.1580  -27.8950   19.8180 C   0  0  0  0  0  2  0  0  0  0  0  0
  -28.9690  -27.1460   20.0840 O   0  0  0  0  0  0  0  0  0  0  0  0
  -24.6260  -31.8010   23.3000 C   0  0  0  0  0  0  0  0  0  0  0  0
  -27.7720  -27.8200   20.0990 C   0  0  0  0  0  0  0  0  0  0  0  0
  -23.6110  -30.4260   21.5060 C   0  0  0  0  0  3  0  0  0  0  0  0
  -25.2490  -29.0950   20.0750 C   0  0  0  0  0  0  0  0  0  0  0  0
  -26.1000  -30.9940   21.4670 C   0  0  0  0  0  2  0  0  0  0  0  0
  -26.3250  -29.6790   20.7540 C   0  0  0  0  0  0  0  0  0  0  0  0
  -27.5840  -29.0500   20.7690 C   0  0  0  0  0  3  0  0  0  0  0  0
  -26.6750  -27.2280   19.4400 C   0  0  0  0  0  3  0  0  0  0  0  0
  -25.4160  -27.8620   19.4170 C   0  0  0  0  0  3  0  0  0  0  0  0
  -23.9390  -29.8500   20.1020 C   0  0  0  0  0  2  0  0  0  0  0  0
  -24.7930  -31.0850   22.1510 N   0  0  0  0  0  0  0  0  0  0  0  0
  -23.5030  -31.9570   23.7980 O   0  0  0  0  0  0  0  0  0  0  0  0
  -22.9940  -29.3000   22.3660 C   0  0  0  0  0  0  0  0  0  0  0  0
  -21.6820  -29.0720   22.1940 N   0  0  0  0  0  0  0  0  0  0  0  0
  -23.6920  -28.6400   23.1410 O   0  0  0  0  0  0  0  0  0  0  0  0
  -21.1810  -29.6610   21.5440 H   0  0  0  0  0  0  0  0  0  0  0  0
  -18.3510  -27.7190   22.5290 C   0  0  0  0  0  0  0  0  0  0  0  0
  -20.8940  -28.0380   22.8620 C   0  0  0  0  0  3  0  0  0  0  0  0
  -21.0550  -26.6720   22.1550 C   0  0  0  0  0  2  0  0  0  0  0  0
  -19.9760  -26.4070   21.1010 C   0  0  0  0  0  2  0  0  0  0  0  0
  -18.5840  -26.4440   21.7360 C   0  0  0  0  0  2  0  0  0  0  0  0
  -19.4370  -28.4750   23.0450 C   0  0  0  0  0  0  0  0  0  0  0  0
  -19.1670  -29.6710   23.7440 C   0  0  0  0  0  3  0  0  0  0  0  0
  -17.8440  -30.1110   23.9360 C   0  0  0  0  0  3  0  0  0  0  0  0
  -16.7730  -29.3490   23.4380 C   0  0  0  0  0  3  0  0  0  0  0  0
  -17.0270  -28.1550   22.7410 C   0  0  0  0  0  3  0  0  0  0  0  0
  -25.8310  -32.4770   24.0270 C   0  0  0  0  0  3  0  0  0  0  0  0
  -25.4560  -33.8700   24.3000 N   0  0  0  0  0  0  0  0  0  0  0  0
  -25.8610  -34.9200   23.5740 C   0  0  0  0  0  0  0  0  0  0  0  0
  -26.6570  -34.8200   22.6350 O   0  0  0  0  0  0  0  0  0  0  0  0
  -24.7630  -34.0180   25.0190 H   0  0  0  0  0  0  0  0  0  0  0  0
  -24.1370  -36.6570   23.0000 C   0  0  0  0  0  1  0  0  0  0  0  0
  -25.2940  -36.3020   23.9470 C   0  0  0  0  0  3  0  0  0  0  0  0
  -27.3200  -37.2430   24.9670 C   0  0  0  0  0  1  0  0  0  0  0  0
  -26.3080  -37.3800   23.9240 N   0  0  0  0  0  0  0  0  0  0  0  0
  -25.8670  -38.2900   24.0270 H   0  0  0  0  0  0  0  0  0  0  0  0
  -26.2500  -31.7370   25.3570 C   0  0  1  0  0  0  0  0  0  0  0  0
  -25.0670  -31.4620   26.3130 C   0  0  0  0  0  1  0  0  0  0  0  0
  -26.9270  -30.3820   25.0390 C   0  0  0  0  0  1  0  0  0  0  0  0
  -27.2940  -32.5830   26.1230 C   0  0  0  0  0  1  0  0  0  0  0  0
  -29.0480  -23.0960   23.2850 C   0  0  0  0  0  0  0  0  0  0  0  0
  -27.9890  -23.8500   22.9670 N   0  0  0  0  0  0  0  0  0  0  0  0
  -29.7640  -23.3270   24.2590 O   0  0  0  0  0  0  0  0  0  0  0  0
  -27.4810  -23.6150   22.1260 H   0  0  0  0  0  0  0  0  0  0  0  0
  -29.3850  -21.9480   22.3420 C   0  0  0  0  0  2  0  0  0  0  0  0
  -31.1720  -21.6070   20.6630 C   0  0  0  0  0  0  0  0  0  0  0  0
  -30.6450  -22.2740   21.6900 N   0  0  0  0  0  0  0  0  0  0  0  0
  -30.6590  -20.5780   20.2170 O   0  0  0  0  0  0  0  0  0  0  0  0
  -31.1140  -23.1070   22.0210 H   0  0  0  0  0  0  0  0  0  0  0  0
  -32.4490  -22.1900   20.0460 C   0  0  0  0  0  2  0  0  0  0  0  0
  -33.6720  -20.2780   19.0220 C   0  0  0  0  0  0  0  0  0  0  0  0
  -33.5210  -21.2010   19.9760 N   0  0  0  0  0  0  0  0  0  0  0  0
  -32.9250  -20.1960   18.0450 O   0  0  0  0  0  0  0  0  0  0  0  0
  -34.1620  -21.1760   20.7570 H   0  0  0  0  0  0  0  0  0  0  0  0
  -34.8500  -19.3160   19.1970 C   0  0  0  0  0  2  0  0  0  0  0  0
  -34.7660  -17.1070   18.0480 C   0  0  0  0  0  0  0  0  0  0  0  0
  -34.9840  -14.7220   17.4620 C   0  0  0  0  0  2  0  0  0  0  0  0
  -33.9400  -14.2380   16.4420 C   0  0  0  0  0  2  0  0  0  0  0  0
  -32.6460  -13.8080   17.1530 C   0  0  0  0  0  2  0  0  0  0  0  0
  -32.1320  -14.8820   18.1460 C   0  0  0  0  0  3  0  0  0  0  0  0
  -33.2670  -15.3630   19.0760 C   0  0  0  0  0  2  0  0  0  0  0  0
  -34.4040  -15.8170   18.2510 N   0  0  0  0  0  0  0  0  0  0  0  0
  -35.4800  -17.4800   17.1110 O   0  0  0  0  0  0  0  0  0  0  0  0
  -34.4410  -17.9220   19.0530 N   0  0  0  0  0  0  0  0  0  0  0  0
  -33.8770  -17.5300   19.7930 H   0  0  0  0  0  0  0  0  0  0  0  0
  -29.8200  -15.0610   19.2730 C   0  0  0  0  0  0  0  0  0  0  0  0
  -29.0420  -14.1340   19.9120 C   0  0  0  0  0  0  0  0  0  0  0  0
  -29.7870  -12.9160   19.8980 C   0  0  0  0  0  0  0  0  0  0  0  0
  -30.9820  -14.3960   18.9070 N   0  0  0  0  0  0  0  0  0  0  0  0
  -30.9740  -13.1080   19.3370 N   0  0  0  0  0  0  0  0  0  0  0  0
  -29.4150  -11.5620   20.3350 C   0  0  0  0  0  0  0  0  0  0  0  0
  -30.3820  -10.6470   20.8060 C   0  0  0  0  0  3  0  0  0  0  0  0
  -29.9980   -9.3580   21.2370 C   0  0  0  0  0  3  0  0  0  0  0  0
  -28.6360   -8.9760   21.2020 C   0  0  0  0  0  0  0  0  0  0  0  0
  -27.6820   -9.8820   20.7090 C   0  0  0  0  0  3  0  0  0  0  0  0
  -28.0650  -11.1620   20.2760 C   0  0  0  0  0  3  0  0  0  0  0  0
  -28.1740   -7.7370   21.5740 O   0  0  0  0  0  0  0  0  0  0  0  0
  -29.0060   -6.7920   22.1190 C   0  0  0  0  0  0  0  0  0  0  0  0
  -30.1500   -7.1490   22.8670 C   0  0  0  0  0  3  0  0  0  0  0  0
  -30.9390   -6.1470   23.4680 C   0  0  0  0  0  3  0  0  0  0  0  0
  -30.5830   -4.7930   23.3310 C   0  0  0  0  0  0  0  0  0  0  0  0
  -29.4410   -4.4360   22.5910 C   0  0  0  0  0  3  0  0  0  0  0  0
  -28.6540   -5.4330   21.9900 C   0  0  0  0  0  0  0  0  0  0  0  0
  -27.5440   -5.0860   21.2960 F   0  0  0  0  0  0  0  0  0  0  0  0
  -31.3350   -3.8310   23.9150 F   0  0  0  0  0  0  0  0  0  0  0  0
  -27.6440  -14.3390   20.4220 C   0  0  0  0  0  0  0  0  0  0  0  0
  -27.2630  -13.6220   21.4730 N   0  0  0  0  0  0  0  0  0  0  0  0
  -26.8950  -15.1750   19.9180 O   0  0  0  0  0  0  0  0  0  0  0  0
  -27.8830  -12.9510   21.9020 H   0  0  0  0  0  0  0  0  0  0  0  0
  -26.3360  -13.7490   21.8570 H   0  0  0  0  0  0  0  0  0  0  0  0
  -29.6330  -16.4030   18.9560 N   0  0  0  0  0  0  0  0  0  0  0  0
  -28.7760  -16.8990   19.1760 H   0  0  0  0  0  0  0  0  0  0  0  0
  -30.3030  -16.9740   18.4550 H   0  0  0  0  0  0  0  0  0  0  0  0
  1  2  1  0
  2  3  1  0
  3  6  1  0
  3  5  1  0
  4  2  2  0
  7  9  2  0
  7  6  1  0
  8  7  1  0
 10  8  1  0
 11  8  1  0
 12 13  1  0
 12 11  1  0
 13 15  1  0
 14 25  2  0
 15 20  1  0
 16 24  1  0
 16 26  1  0
 17 23  1  0
 17 19  1  0
 18 24  1  0
 19 20  2  0
 19 18  1  0
 21 15  2  0
 22 21  1  0
 22 17  2  0
 23 16  1  0
 24 14  1  0
 26 28  2  0
 27 26  1  0
 29 27  1  0
 30 39  2  0
 30 35  1  0
 31 27  1  0
 31 35  1  0
 32 31  1  0
 33 34  1  0
 33 32  1  0
 34 30  1  0
 35 36  2  0
 36 37  1  0
 38 37  2  0
 39 38  1  0
 40 14  1  0
 40 41  1  0
 40 50  1  0
 41 44  1  0
 42 46  1  0
 42 41  1  0
 43 42  2  0
 46 45  1  0
 48 46  1  0
 48 49  1  0
 48 47  1  0
 50 53  1  1
 50 51  1  0
 52 50  1  0
 54 56  2  0
 55 54  1  0
 55  1  1  0
 57 55  1  0
 58 54  1  0
 59 60  1  0
 60 62  1  0
 60 58  1  0
 61 59  2  0
 63 59  1  0
 64 68  1  0
 64 65  1  0
 65 63  1  0
 65 67  1  0
 66 64  2  0
 69 75  1  0
 69 77  1  0
 70 75  1  0
 71 72  1  0
 71 70  1  0
 73 72  1  0
 73 82  1  0
 73 74  1  0
 75 74  1  0
 76 69  2  0
 77 68  1  0
 77 78  1  0
 79 80  2  0
 80 99  1  0
 81 80  1  0
 81 84  1  0
 82 79  1  0
 82 83  1  0
 83 81  2  0
 84 85  1  0
 85 86  2  0
 87 86  1  0
 87 90  1  0
 88 87  2  0
 89 84  2  0
 89 88  1  0
 90 91  1  0
 91 92  1  0
 92 93  2  0
 94 93  1  0
 94 98  1  0
 95 94  2  0
 96 91  2  0
 96 95  1  0
 97 96  1  0
 99100  1  0
100103  1  0
100102  1  0
101 99  2  0
104105  1  0
104 79  1  0
106104  1  0
M  ISO  4  12 101  13 101  69 100  77 100
M  END
>  <TORSDO>  (25) 
F 27

>  <SCORE>  (25) 
-7.577

>  <name>  (25) 
26

>  <ligand_id>  (25) 
26

>  <original_smiles>  (25) 
[H]c1c([H])c([H])c2c(c1[H])C([H])([H])C([H])([H])C([H])([H])C2([H])N([H])C(=O)C1([H])N(C(=O)C([H])(N([H])C(=O)C([H])(N([H])C([H])([H])[H])C([H])([H])[H])C(C([H])([H])[H])(C([H])([H])[H])C([H])([H])[H])C([H])([H])c2c([H])c(OC([H])([H])C([H])([H])N([H])C(=O)C([H])([H])N([H])C(=O)C([H])([H])N([H])C(=O)C([H])([H])N([H])C(=O)C([H])([H])N([H])C(=O)C([H])([H])N([H])C(=O)N3C([H])([H])C([H])([H])C([H])([H])C([H])(n4nc(-c5c([H])c([H])c(Oc6c([H])c([H])c(F)c([H])c6F)c([H])c5[H])c(C(=O)N([H])[H])c4N([H])[H])C3([H])[H])c([H])c([H])c2C1([H])[H]

>  <smiles>  (25) 
[H]c1c([H])c([H])c2c(c1[H])C([H])([H])C([H])([H])C([H])([H])C2([H])N([H])C(=O)C1([H])N(C(=O)C([H])(N([H])C(=O)C([H])(N([H])C([H])([H])[H])C([H])([H])[H])C(C([H])([H])[H])(C([H])([H])[H])C([H])([H])[H])C([H])([H])c2c([H])c(OC([H])([H])C([H])([H])N([H])C(=O)C([H])([H])N([H])C(=O)C([H])([H])N([H])C(=O)C([H])([H])N([H])C(=O)C([H])([H])N([H])C(=O)C([H])([H])N([H])C(=O)N3C([H])([H])C([H])([H])C([H])([H])C([H])(n4nc(-c5c([H])c([H])c(Oc6c([H])c([H])c(F)c([H])c6F)c([H])c5[H])c(C(=O)N([H])[H])c4N([H])[H])C3([H])[H])c([H])c([H])c2C1([H])[H]

$$$$
27:0:0
     RDKit          3D

 95103  0  0  1  0  0  0  0  0999 V2000
  -29.5710  -18.4410   20.8340 C   0  0  0  0  0  0  0  0  0  0  0  0
  -29.1220  -21.0850   18.2220 C   0  0  0  0  0  2  0  0  0  0  0  0
  -27.9740  -21.2180   19.2200 C   0  0  0  0  0  2  0  0  0  0  0  0
  -29.7670  -19.7710   18.6780 C   0  0  0  0  0  2  0  0  0  0  0  0
  -28.6180  -20.7680   20.5510 C   0  0  0  0  0  3  0  0  0  0  0  0
  -29.4220  -19.5970   20.1100 N   0  0  0  0  0  0  0  0  0  0  0  0
  -29.4290  -18.4090   22.0590 O   0  0  0  0  0  0  0  0  0  0  0  0
  -29.4290  -21.9670   21.1150 C   0  0  0  0  0  0  0  0  0  0  0  0
  -28.7250  -23.0960   21.3240 N   0  0  0  0  0  0  0  0  0  0  0  0
  -30.6520  -21.9110   21.2500 O   0  0  0  0  0  0  0  0  0  0  0  0
  -27.7180  -23.0190   21.2530 H   0  0  0  0  0  0  0  0  0  0  0  0
  -29.2350  -24.4740   21.3340 C   0  0  0  0  0  2  0  0  0  0  0  0
  -28.3360  -25.3320   20.4090 C   0  0  0  0  0  2  0  0  0  0  0  0
  -28.4950  -26.7570   20.5500 O   0  0  0  0  0  0  0  0  0  0  0  0
  -24.5720  -31.9630   23.3890 C   0  0  0  0  0  0  0  0  0  0  0  0
  -27.3410  -27.5110   20.4350 C   0  0  0  0  0  0  0  0  0  0  0  0
  -23.4350  -30.5450   21.7150 C   0  0  0  0  0  3  0  0  0  0  0  0
  -24.9440  -29.0220   20.3460 C   0  0  0  0  0  0  0  0  0  0  0  0
  -25.9690  -30.9220   21.6010 C   0  0  0  0  0  2  0  0  0  0  0  0
  -26.0830  -29.5440   20.9780 C   0  0  0  0  0  0  0  0  0  0  0  0
  -27.2800  -28.7960   21.0230 C   0  0  0  0  0  3  0  0  0  0  0  0
  -26.1900  -27.0250   19.7580 C   0  0  0  0  0  3  0  0  0  0  0  0
  -24.9970  -27.7630   19.7260 C   0  0  0  0  0  3  0  0  0  0  0  0
  -23.7050  -29.8820   20.3380 C   0  0  0  0  0  2  0  0  0  0  0  0
  -24.6760  -31.1590   22.2920 N   0  0  0  0  0  0  0  0  0  0  0  0
  -23.4690  -32.2190   23.8950 O   0  0  0  0  0  0  0  0  0  0  0  0
  -22.7680  -29.5160   22.6580 C   0  0  0  0  0  0  0  0  0  0  0  0
  -21.4470  -29.3280   22.5010 N   0  0  0  0  0  0  0  0  0  0  0  0
  -23.4350  -28.8970   23.4920 O   0  0  0  0  0  0  0  0  0  0  0  0
  -20.9680  -29.8850   21.8070 H   0  0  0  0  0  0  0  0  0  0  0  0
  -18.0610  -28.1420   22.9430 C   0  0  0  0  0  0  0  0  0  0  0  0
  -20.6170  -28.3880   23.2560 C   0  0  0  0  0  3  0  0  0  0  0  0
  -20.7240  -26.9600   22.6750 C   0  0  0  0  0  2  0  0  0  0  0  0
  -19.6320  -26.6470   21.6460 C   0  0  0  0  0  2  0  0  0  0  0  0
  -18.2390  -26.7970   22.2650 C   0  0  0  0  0  2  0  0  0  0  0  0
  -19.1760  -28.8960   23.3970 C   0  0  0  0  0  0  0  0  0  0  0  0
  -18.9510  -30.1580   23.9930 C   0  0  0  0  0  3  0  0  0  0  0  0
  -17.6450  -30.6630   24.1380 C   0  0  0  0  0  3  0  0  0  0  0  0
  -16.5440  -29.9070   23.6960 C   0  0  0  0  0  3  0  0  0  0  0  0
  -16.7530  -28.6500   23.1030 C   0  0  0  0  0  3  0  0  0  0  0  0
  -25.8240  -32.6170   24.0450 C   0  0  0  0  0  3  0  0  0  0  0  0
  -25.5040  -34.0280   24.2970 N   0  0  0  0  0  0  0  0  0  0  0  0
  -25.8790  -35.0450   23.5090 C   0  0  0  0  0  0  0  0  0  0  0  0
  -26.5950  -34.8930   22.5150 O   0  0  0  0  0  0  0  0  0  0  0  0
  -24.8750  -34.2200   25.0610 H   0  0  0  0  0  0  0  0  0  0  0  0
  -24.1770  -36.8210   22.9940 C   0  0  0  0  0  1  0  0  0  0  0  0
  -25.3790  -36.4550   23.8800 C   0  0  0  0  0  3  0  0  0  0  0  0
  -27.4790  -37.3670   24.7690 C   0  0  0  0  0  1  0  0  0  0  0  0
  -26.4230  -37.4990   23.7680 N   0  0  0  0  0  0  0  0  0  0  0  0
  -26.0170  -38.4270   23.8550 H   0  0  0  0  0  0  0  0  0  0  0  0
  -26.2730  -31.8960   25.3750 C   0  0  1  0  0  0  0  0  0  0  0  0
  -25.1330  -31.6980   26.3990 C   0  0  0  0  0  1  0  0  0  0  0  0
  -26.8650  -30.5050   25.0570 C   0  0  0  0  0  1  0  0  0  0  0  0
  -27.3870  -32.7180   26.0620 C   0  0  0  0  0  1  0  0  0  0  0  0
  -29.7130  -17.0870   20.0590 C   0  0  0  0  0  3  0  0  0  0  0  0
  -30.6670  -14.7480   20.5510 C   0  0  0  0  0  0  0  0  0  0  0  0
  -30.5110  -12.4870   19.5390 C   0  0  0  0  0  2  0  0  0  0  0  0
  -29.5950  -12.5490   18.2980 C   0  0  0  0  0  2  0  0  0  0  0  0
  -28.1110  -12.4100   18.6980 C   0  0  0  0  0  2  0  0  0  0  0  0
  -27.7130  -13.2980   19.9050 C   0  0  0  0  0  3  0  0  0  0  0  0
  -28.7510  -13.1780   21.0500 C   0  0  0  0  0  2  0  0  0  0  0  0
  -30.0730  -13.5170   20.5040 N   0  0  0  0  0  0  0  0  0  0  0  0
  -31.8120  -14.9250   20.1250 O   0  0  0  0  0  0  0  0  0  0  0  0
  -29.8580  -15.8060   20.8410 N   0  0  0  0  0  0  0  0  0  0  0  0
  -29.0650  -15.5920   21.4290 H   0  0  0  0  0  0  0  0  0  0  0  0
  -25.2960  -13.9150   20.5760 C   0  0  0  0  0  0  0  0  0  0  0  0
  -24.2210  -13.1390   20.9170 C   0  0  0  0  0  0  0  0  0  0  0  0
  -24.6910  -11.7900   20.8970 C   0  0  0  0  0  0  0  0  0  0  0  0
  -26.3500  -13.0360   20.3600 N   0  0  0  0  0  0  0  0  0  0  0  0
  -25.9860  -11.7570   20.6200 N   0  0  0  0  0  0  0  0  0  0  0  0
  -23.9710  -10.5240   21.0730 C   0  0  0  0  0  0  0  0  0  0  0  0
  -24.3880   -9.5630   22.0210 C   0  0  0  0  0  3  0  0  0  0  0  0
  -23.6710   -8.3590   22.1780 C   0  0  0  0  0  3  0  0  0  0  0  0
  -22.5250   -8.1080   21.3880 C   0  0  0  0  0  0  0  0  0  0  0  0
  -22.1280   -9.0570   20.4310 C   0  0  0  0  0  3  0  0  0  0  0  0
  -22.8440  -10.2530   20.2700 C   0  0  0  0  0  3  0  0  0  0  0  0
  -21.7780   -6.9570   21.4550 O   0  0  0  0  0  0  0  0  0  0  0  0
  -21.6910   -6.2250   22.6120 C   0  0  0  0  0  0  0  0  0  0  0  0
  -21.1800   -6.7770   23.8060 C   0  0  0  0  0  3  0  0  0  0  0  0
  -21.0540   -5.9690   24.9550 C   0  0  0  0  0  3  0  0  0  0  0  0
  -21.4220   -4.6110   24.9060 C   0  0  0  0  0  0  0  0  0  0  0  0
  -21.9240   -4.0590   23.7140 C   0  0  0  0  0  3  0  0  0  0  0  0
  -22.0600   -4.8650   22.5710 C   0  0  0  0  0  0  0  0  0  0  0  0
  -22.5280   -4.3250   21.4190 F   0  0  0  0  0  0  0  0  0  0  0  0
  -21.2890   -3.8320   26.0060 F   0  0  0  0  0  0  0  0  0  0  0  0
  -22.8160  -13.6120   21.1550 C   0  0  0  0  0  0  0  0  0  0  0  0
  -22.0730  -12.9140   22.0090 N   0  0  0  0  0  0  0  0  0  0  0  0
  -22.3840  -14.6340   20.6250 O   0  0  0  0  0  0  0  0  0  0  0  0
  -22.4360  -12.0910   22.4650 H   0  0  0  0  0  0  0  0  0  0  0  0
  -21.1300  -13.2120   22.2160 H   0  0  0  0  0  0  0  0  0  0  0  0
  -25.4510  -15.2860   20.4200 N   0  0  0  0  0  0  0  0  0  0  0  0
  -24.6830  -15.9270   20.5760 H   0  0  0  0  0  0  0  0  0  0  0  0
  -26.3260  -15.7500   20.2210 H   0  0  0  0  0  0  0  0  0  0  0  0
  -28.7530  -16.2740   17.7990 C   0  0  0  0  0  1  0  0  0  0  0  0
  -28.4590  -16.9290   19.1500 C   0  0  0  0  0  2  0  0  0  0  0  0
  1  7  2  0
  2  4  1  0
  2  3  1  0
  3  5  1  0
  4  6  1  0
  5  8  1  0
  6  5  1  0
  6  1  1  0
  8 10  2  0
  8  9  1  0
  9 12  1  0
 11  9  1  0
 13 14  1  0
 13 12  1  0
 15 26  2  0
 16 14  1  0
 16 21  1  0
 17 25  1  0
 17 27  1  0
 18 20  1  0
 19 25  1  0
 20 21  2  0
 20 19  1  0
 22 16  2  0
 23 22  1  0
 23 18  2  0
 24 18  1  0
 24 17  1  0
 25 15  1  0
 27 29  2  0
 28 27  1  0
 30 28  1  0
 31 40  2  0
 31 36  1  0
 32 28  1  0
 32 36  1  0
 33 32  1  0
 34 35  1  0
 34 33  1  0
 35 31  1  0
 36 37  2  0
 37 38  1  0
 39 38  2  0
 40 39  1  0
 41 15  1  0
 41 42  1  0
 41 51  1  0
 42 45  1  0
 43 47  1  0
 43 42  1  0
 44 43  2  0
 47 46  1  0
 49 50  1  0
 49 47  1  0
 49 48  1  0
 51 54  1  1
 51 52  1  0
 53 51  1  0
 55 95  1  0
 55  1  1  0
 55 64  1  0
 56 64  1  0
 57 62  1  0
 58 59  1  0
 58 57  1  0
 60 59  1  0
 60 69  1  0
 60 61  1  0
 62 56  1  0
 62 61  1  0
 63 56  2  0
 64 65  1  0
 66 67  2  0
 67 86  1  0
 68 67  1  0
 68 71  1  0
 69 66  1  0
 69 70  1  0
 70 68  2  0
 71 72  1  0
 72 73  2  0
 74 77  1  0
 74 73  1  0
 75 74  2  0
 76 75  1  0
 76 71  2  0
 77 78  1  0
 78 79  1  0
 79 80  2  0
 81 80  1  0
 81 85  1  0
 82 81  2  0
 83 78  2  0
 83 82  1  0
 84 83  1  0
 86 87  1  0
 87 90  1  0
 87 89  1  0
 88 86  2  0
 91 92  1  0
 91 66  1  0
 93 91  1  0
 94 95  1  0
M  ISO  4  13 101  14 101  56 100  64 100
M  END
>  <TORSDO>  (26) 
F 21

>  <SCORE>  (26) 
-11.469

>  <name>  (26) 
27

>  <ligand_id>  (26) 
27

>  <original_smiles>  (26) 
[H]c1c([H])c([H])c2c(c1[H])C([H])([H])C([H])([H])C([H])([H])C2([H])N([H])C(=O)C1([H])N(C(=O)C([H])(N([H])C(=O)C([H])(N([H])C([H])([H])[H])C([H])([H])[H])C(C([H])([H])[H])(C([H])([H])[H])C([H])([H])[H])C([H])([H])c2c([H])c(OC([H])([H])C([H])([H])N([H])C(=O)C3([H])N(C(=O)C([H])(N([H])C(=O)N4C([H])([H])C([H])([H])C([H])([H])C([H])(n5nc(-c6c([H])c([H])c(Oc7c([H])c([H])c(F)c([H])c7F)c([H])c6[H])c(C(=O)N([H])[H])c5N([H])[H])C4([H])[H])C([H])([H])C([H])([H])[H])C([H])([H])C([H])([H])C3([H])[H])c([H])c([H])c2C1([H])[H]

>  <smiles>  (26) 
[H]c1c([H])c([H])c2c(c1[H])C([H])([H])C([H])([H])C([H])([H])C2([H])N([H])C(=O)C1([H])N(C(=O)C([H])(N([H])C(=O)C([H])(N([H])C([H])([H])[H])C([H])([H])[H])C(C([H])([H])[H])(C([H])([H])[H])C([H])([H])[H])C([H])([H])c2c([H])c(OC([H])([H])C([H])([H])N([H])C(=O)C3([H])N(C(=O)C([H])(N([H])C(=O)N4C([H])([H])C([H])([H])C([H])([H])C([H])(n5nc(-c6c([H])c([H])c(Oc7c([H])c([H])c(F)c([H])c7F)c([H])c6[H])c(C(=O)N([H])[H])c5N([H])[H])C4([H])[H])C([H])([H])C([H])([H])[H])C([H])([H])C([H])([H])C3([H])[H])c([H])c([H])c2C1([H])[H]

$$$$
28:0:0
     RDKit          3D

 97100  0  0  1  0  0  0  0  0999 V2000
  -28.5520  -32.4000   24.4110 C   0  0  0  0  0 15  0  0  0  0  0  0
  -29.6240  -30.9940   23.3590 C   0  0  0  0  0 15  0  0  0  0  0  0
  -29.6700  -29.1920   22.4900 C   0  0  0  0  0  1  0  0  0  0  0  0
  -30.0160  -27.2870   22.6380 C   0  0  0  0  0  2  0  0  0  0  0  0
  -29.5770  -25.5840   21.8050 C   0  0  0  0  0  2  0  0  0  0  0  0
  -30.2850  -23.9300   21.2530 C   0  0  0  0  0  0  0  0  0  0  0  0
  -29.8900  -22.4200   21.2880 N   0  0  0  0  0  0  0  0  0  0  0  0
  -31.3290  -24.1120   20.6260 O   0  0  0  0  0  0  0  0  0  0  0  0
  -29.1140  -22.3570   21.9380 H   0  0  0  0  0  0  0  0  0  0  0  0
  -29.9900  -20.8250   20.4550 C   0  0  0  0  0  2  0  0  0  0  0  0
  -30.5160  -18.9540   20.6690 C   0  0  0  0  0  2  0  0  0  0  0  0
  -30.7200  -15.8420   19.8360 C   0  0  0  0  0  0  0  0  0  0  0  0
  -30.5980  -13.3050   18.9160 C   0  0  0  0  0  2  0  0  0  0  0  0
  -29.6310  -12.8000   17.7930 C   0  0  0  0  0  2  0  0  0  0  0  0
  -28.2560  -12.4210   18.3570 C   0  0  0  0  0  2  0  0  0  0  0  0
  -27.7940  -13.4760   19.3860 C   0  0  0  0  0  3  0  0  0  0  0  0
  -28.8920  -13.9130   20.4100 C   0  0  0  0  0  2  0  0  0  0  0  0
  -30.0590  -14.5240   19.7010 N   0  0  0  0  0  0  0  0  0  0  0  0
  -31.9090  -15.6910   19.5270 O   0  0  0  0  0  0  0  0  0  0  0  0
  -30.1550  -17.2760   20.1220 N   0  0  0  0  0  0  0  0  0  0  0  0
  -29.1480  -17.1770   20.1270 H   0  0  0  0  0  0  0  0  0  0  0  0
  -25.5190  -13.9930   20.4000 C   0  0  0  0  0  0  0  0  0  0  0  0
  -24.4820  -13.2060   20.8320 C   0  0  0  0  0  0  0  0  0  0  0  0
  -24.9170  -11.8560   20.6810 C   0  0  0  0  0  0  0  0  0  0  0  0
  -26.5180  -13.1210   20.0120 N   0  0  0  0  0  0  0  0  0  0  0  0
  -26.1750  -11.8230   20.2400 N   0  0  0  0  0  0  0  0  0  0  0  0
  -24.1790  -10.5970   20.8800 C   0  0  0  0  0  0  0  0  0  0  0  0
  -24.5910   -9.6410   21.8330 C   0  0  0  0  0  3  0  0  0  0  0  0
  -23.8500   -8.4540   22.0260 C   0  0  0  0  0  3  0  0  0  0  0  0
  -22.6830   -8.2140   21.2640 C   0  0  0  0  0  0  0  0  0  0  0  0
  -22.2880   -9.1570   20.2990 C   0  0  0  0  0  3  0  0  0  0  0  0
  -23.0300  -10.3370   20.1060 C   0  0  0  0  0  3  0  0  0  0  0  0
  -21.9170   -7.0760   21.3620 O   0  0  0  0  0  0  0  0  0  0  0  0
  -21.7640   -6.4100   22.5520 C   0  0  0  0  0  0  0  0  0  0  0  0
  -21.1990   -7.0330   23.6880 C   0  0  0  0  0  3  0  0  0  0  0  0
  -20.9950   -6.2920   24.8690 C   0  0  0  0  0  3  0  0  0  0  0  0
  -21.3470   -4.9280   24.9160 C   0  0  0  0  0  0  0  0  0  0  0  0
  -21.9050   -4.3070   23.7860 C   0  0  0  0  0  3  0  0  0  0  0  0
  -22.1100   -5.0440   22.6080 C   0  0  0  0  0  0  0  0  0  0  0  0
  -22.6280   -4.4340   21.5130 F   0  0  0  0  0  0  0  0  0  0  0  0
  -21.1460   -4.2150   26.0480 F   0  0  0  0  0  0  0  0  0  0  0  0
  -23.1300  -13.6950   21.2610 C   0  0  0  0  0  0  0  0  0  0  0  0
  -22.4870  -12.9740   22.1790 N   0  0  0  0  0  0  0  0  0  0  0  0
  -22.6590  -14.7430   20.8290 O   0  0  0  0  0  0  0  0  0  0  0  0
  -22.8890  -12.1250   22.5470 H   0  0  0  0  0  0  0  0  0  0  0  0
  -21.5810  -13.2720   22.5130 H   0  0  0  0  0  0  0  0  0  0  0  0
  -25.6850  -15.3650   20.2810 N   0  0  0  0  0  0  0  0  0  0  0  0
  -24.9410  -16.0220   20.4890 H   0  0  0  0  0  0  0  0  0  0  0  0
  -26.5090  -15.8110   19.8920 H   0  0  0  0  0  0  0  0  0  0  0  0
  -27.4480  -32.4510   26.2020 C   0  0  0  0  0 15  0  0  0  0  0  0
  -25.5210  -31.6670   26.5810 C   0  0  0  0  0  1  0  0  0  0  0  0
  -24.6960  -28.7170   25.3030 C   0  0  0  0  0  0  0  0  0  0  0  0
  -24.5990  -30.2510   25.7190 N   0  0  0  0  0  0  0  0  0  0  0  0
  -24.4330  -27.9410   26.2360 O   0  0  0  0  0  0  0  0  0  0  0  0
  -24.0180  -30.7290   25.0300 H   0  0  0  0  0  0  0  0  0  0  0  0
  -24.9670  -27.6910   23.7470 C   0  0  0  0  0  2  0  0  0  0  0  0
  -26.2370  -26.9100   22.9220 O   0  0  0  0  0  0  0  0  0  0  0  0
  -24.5330  -31.5060   22.6440 C   0  0  0  0  0  0  0  0  0  0  0  0
  -26.2660  -26.7270   21.5200 C   0  0  0  0  0  3  0  0  0  0  0  0
  -22.9480  -30.0590   21.3730 C   0  0  0  0  0  3  0  0  0  0  0  0
  -24.2210  -28.0910   20.3850 C   0  0  0  0  0  0  0  0  0  0  0  0
  -25.4240  -30.1840   20.8340 C   0  0  0  0  0  2  0  0  0  0  0  0
  -25.4360  -28.7070   20.6890 C   0  0  0  0  0  0  0  0  0  0  0  0
  -26.5710  -27.9630   20.9890 C   0  0  0  0  0  2  0  0  0  0  0  0
  -25.2450  -25.9710   20.8730 C   0  0  0  0  0  3  0  0  0  0  0  0
  -24.1610  -26.6880   20.3210 C   0  0  0  0  0  3  0  0  0  0  0  0
  -23.0360  -29.0170   20.2190 C   0  0  0  0  0  2  0  0  0  0  0  0
  -24.3240  -30.5760   21.7200 N   0  0  0  0  0  0  0  0  0  0  0  0
  -23.5330  -32.0920   23.1160 O   0  0  0  0  0  0  0  0  0  0  0  0
  -22.1000  -29.4540   22.5200 C   0  0  0  0  0  0  0  0  0  0  0  0
  -20.8070  -29.1960   22.4100 N   0  0  0  0  0  0  0  0  0  0  0  0
  -22.5910  -29.1150   23.5460 O   0  0  0  0  0  0  0  0  0  0  0  0
  -20.3010  -29.4510   21.5770 H   0  0  0  0  0  0  0  0  0  0  0  0
  -17.5180  -28.2770   23.2960 C   0  0  0  0  0  0  0  0  0  0  0  0
  -20.0530  -28.5430   23.4910 C   0  0  0  0  0  3  0  0  0  0  0  0
  -20.1310  -27.0020   23.4240 C   0  0  0  0  0  2  0  0  0  0  0  0
  -19.0610  -26.4130   22.5030 C   0  0  0  0  0  2  0  0  0  0  0  0
  -17.6610  -26.7880   23.0030 C   0  0  0  0  0  2  0  0  0  0  0  0
  -18.6480  -29.0950   23.5300 C   0  0  0  0  0  0  0  0  0  0  0  0
  -18.4860  -30.4740   23.7650 C   0  0  0  0  0  3  0  0  0  0  0  0
  -17.2050  -31.0520   23.7460 C   0  0  0  0  0  3  0  0  0  0  0  0
  -16.0790  -30.2400   23.5220 C   0  0  0  0  0  3  0  0  0  0  0  0
  -16.2330  -28.8560   23.3100 C   0  0  0  0  0  3  0  0  0  0  0  0
  -26.0080  -31.7340   23.2540 C   0  0  0  0  0  2  0  0  0  0  0  0
  -25.5070  -33.2010   23.6900 N   0  0  0  0  0  0  0  0  0  0  0  0
  -25.7370  -34.4840   23.2960 C   0  0  0  0  0  0  0  0  0  0  0  0
  -26.4110  -34.7090   22.3020 O   0  0  0  0  0  0  0  0  0  0  0  0
  -24.7920  -33.1450   24.4040 H   0  0  0  0  0  0  0  0  0  0  0  0
  -23.8130  -36.2080   23.4590 C   0  0  0  0  0  1  0  0  0  0  0  0
  -25.1400  -35.7220   24.0800 C   0  0  0  0  0  3  0  0  0  0  0  0
  -27.1990  -36.7260   25.0190 C   0  0  0  0  0  1  0  0  0  0  0  0
  -26.0390  -36.9090   24.1530 N   0  0  0  0  0  0  0  0  0  0  0  0
  -25.5310  -37.7320   24.4710 H   0  0  0  0  0  0  0  0  0  0  0  0
  -27.0810  -30.2790   24.3330 C   0  0  0  0  0  3  0  0  0  0  0  0
  -26.8530  -29.5130   25.8990 C   0  0  0  0  0  2  0  0  0  0  0  0
  -27.3030  -29.5220   23.1480 C   0  0  0  0  0  1  0  0  0  0  0  0
  -28.5450  -30.2200   25.3030 C   0  0  0  0  0  2  0  0  0  0  0  0
  3  4  1  0
  5  4  1  0
  6  7  1  0
  6  5  1  0
  7  9  1  0
  8  6  2  0
 10 11  1  0
 10  7  1  0
 12 20  1  0
 13 18  1  0
 14 15  1  0
 14 13  1  0
 16 15  1  0
 16 25  1  0
 16 17  1  0
 18 12  1  0
 18 17  1  0
 19 12  2  0
 20 21  1  0
 20 11  1  0
 22 23  2  0
 23 42  1  0
 24 23  1  0
 24 27  1  0
 25 26  1  0
 25 22  1  0
 26 24  2  0
 27 28  1  0
 28 29  2  0
 30 33  1  0
 30 29  1  0
 31 30  2  0
 32 31  1  0
 32 27  2  0
 33 34  1  0
 34 39  2  0
 34 35  1  0
 35 36  2  0
 36 37  1  0
 37 41  1  0
 38 37  2  0
 39 38  1  0
 40 39  1  0
 42 43  1  0
 43 46  1  0
 43 45  1  0
 44 42  2  0
 47 22  1  0
 47 48  1  0
 49 47  1  0
 52 53  1  0
 52 54  2  0
 53 51  1  0
 55 53  1  0
 56 52  1  0
 57 56  1  0
 58 69  2  0
 58 84  1  0
 59 57  1  0
 60 68  1  0
 60 70  1  0
 61 63  2  0
 62 68  1  0
 63 62  1  0
 63 64  1  0
 64 59  1  0
 65 59  1  0
 66 61  1  0
 66 65  2  0
 67 61  1  0
 67 60  1  0
 68 58  1  0
 70 72  2  0
 71 70  1  0
 73 71  1  0
 74 83  2  0
 74 79  1  0
 75 71  1  0
 75 79  1  0
 76 75  1  0
 77 78  1  0
 77 76  1  0
 78 74  1  0
 79 80  2  0
 81 80  1  0
 82 81  2  0
 83 82  1  0
 84 85  1  0
 85 88  1  0
 86 85  1  0
 86 90  1  0
 87 86  2  0
 90 89  1  0
 90 92  1  0
 92 93  1  0
 92 91  1  0
 94 97  1  0
 94 95  1  0
 96 94  1  0
 97 95  1  0
M  ISO  4  12 100  20 100  56 101  57 101
M  END
>  <TORSDO>  (27) 
F 27

>  <SCORE>  (27) 
-15.442

>  <name>  (27) 
28

>  <ligand_id>  (27) 
28

>  <original_smiles>  (27) 
[H]c1c([H])c([H])c2c(c1[H])C([H])([H])C([H])([H])C([H])([H])C2([H])N([H])C(=O)C1([H])N(C(=O)C([H])(N([H])C(=O)C([H])(N([H])C([H])([H])[H])C([H])([H])[H])C(C([H])([H])[H])(C([H])([H])[H])C([H])([H])[H])C([H])([H])c2c([H])c(OC([H])([H])C(=O)N([H])C([H])([H])C([H])([H])C([H])([H])C([H])([H])C([H])([H])C([H])([H])C([H])([H])C(=O)N([H])C([H])([H])C([H])([H])N([H])C(=O)N3C([H])([H])C([H])([H])C([H])([H])C([H])(n4nc(-c5c([H])c([H])c(Oc6c([H])c([H])c(F)c([H])c6F)c([H])c5[H])c(C(=O)N([H])[H])c4N([H])[H])C3([H])[H])c([H])c([H])c2C1([H])[H]

>  <smiles>  (27) 
[H]c1c([H])c([H])c2c(c1[H])C([H])([H])C([H])([H])C([H])([H])C2([H])N([H])C(=O)C1([H])N(C(=O)C([H])(N([H])C(=O)C([H])(N([H])C([H])([H])[H])C([H])([H])[H])C(C([H])([H])[H])(C([H])([H])[H])C([H])([H])[H])C([H])([H])c2c([H])c(OC([H])([H])C(=O)N([H])C([H])([H])C([H])([H])C([H])([H])C([H])([H])C([H])([H])C([H])([H])C([H])([H])C(=O)N([H])C([H])([H])C([H])([H])N([H])C(=O)N3C([H])([H])C([H])([H])C([H])([H])C([H])(n4nc(-c5c([H])c([H])c(Oc6c([H])c([H])c(F)c([H])c6F)c([H])c5[H])c(C(=O)N([H])[H])c4N([H])[H])C3([H])[H])c([H])c([H])c2C1([H])[H]

$$$$
29:0:0
     RDKit          3D

105113  0  0  1  0  0  0  0  0999 V2000
  -26.9750  -22.7910   19.4970 C   0  0  0  0  0  0  0  0  0  0  0  0
  -26.5500  -22.6110   18.2420 N   0  0  0  0  0  0  0  0  0  0  0  0
  -28.0220  -22.3160   19.9350 O   0  0  0  0  0  0  0  0  0  0  0  0
  -25.6470  -23.0090   18.0180 H   0  0  0  0  0  0  0  0  0  0  0  0
  -27.8910  -25.3780   21.1580 C   0  0  0  0  0  0  0  0  0  0  0  0
  -25.4420  -22.9730   22.5540 C   0  0  0  0  0  2  0  0  0  0  0  0
  -24.9820  -23.0370   21.1020 C   0  0  0  0  0  2  0  0  0  0  0  0
  -26.4200  -24.1360   22.7090 C   0  0  0  0  0  2  0  0  0  0  0  0
  -26.1180  -23.7470   20.3450 C   0  0  0  0  0  3  0  0  0  0  0  0
  -26.8840  -24.4870   21.3600 N   0  0  0  0  0  0  0  0  0  0  0  0
  -28.4300  -25.9580   22.1050 O   0  0  0  0  0  0  0  0  0  0  0  0
  -28.4180  -25.6960   19.7350 C   0  0  0  0  0  2  0  0  0  0  0  0
  -28.3970  -27.1060   19.4810 O   0  0  0  0  0  0  0  0  0  0  0  0
  -24.6380  -31.8470   23.1600 C   0  0  0  0  0  0  0  0  0  0  0  0
  -27.1910  -27.7620   19.5870 C   0  0  0  0  0  0  0  0  0  0  0  0
  -23.3660  -30.5400   21.4880 C   0  0  0  0  0  3  0  0  0  0  0  0
  -24.7620  -29.1680   19.8640 C   0  0  0  0  0  0  0  0  0  0  0  0
  -25.8590  -31.0040   21.1580 C   0  0  0  0  0  2  0  0  0  0  0  0
  -25.9400  -29.6900   20.4120 C   0  0  0  0  0  0  0  0  0  0  0  0
  -27.1560  -28.9960   20.2700 C   0  0  0  0  0  3  0  0  0  0  0  0
  -25.9930  -27.2560   19.0270 C   0  0  0  0  0  3  0  0  0  0  0  0
  -24.7810  -27.9500   19.1710 C   0  0  0  0  0  3  0  0  0  0  0  0
  -23.5010  -29.9730   20.0520 C   0  0  0  0  0  2  0  0  0  0  0  0
  -24.6420  -31.1440   21.9920 N   0  0  0  0  0  0  0  0  0  0  0  0
  -23.5900  -32.0390   23.7880 O   0  0  0  0  0  0  0  0  0  0  0  0
  -22.8140  -29.4250   22.4040 C   0  0  0  0  0  0  0  0  0  0  0  0
  -21.4880  -29.2180   22.3530 N   0  0  0  0  0  0  0  0  0  0  0  0
  -23.5710  -28.7550   23.1120 O   0  0  0  0  0  0  0  0  0  0  0  0
  -20.9450  -29.8190   21.7510 H   0  0  0  0  0  0  0  0  0  0  0  0
  -18.1830  -27.8980   22.9930 C   0  0  0  0  0  0  0  0  0  0  0  0
  -20.7500  -28.2010   23.0990 C   0  0  0  0  0  3  0  0  0  0  0  0
  -20.8340  -26.8260   22.3960 C   0  0  0  0  0  2  0  0  0  0  0  0
  -19.6670  -26.5650   21.4420 C   0  0  0  0  0  2  0  0  0  0  0  0
  -18.3330  -26.6150   22.1890 C   0  0  0  0  0  2  0  0  0  0  0  0
  -19.3160  -28.6490   23.4050 C   0  0  0  0  0  0  0  0  0  0  0  0
  -19.1150  -29.8540   24.1150 C   0  0  0  0  0  3  0  0  0  0  0  0
  -17.8180  -30.3030   24.4200 C   0  0  0  0  0  3  0  0  0  0  0  0
  -16.7000  -29.5470   24.0250 C   0  0  0  0  0  3  0  0  0  0  0  0
  -16.8840  -28.3500   23.3110 C   0  0  0  0  0  3  0  0  0  0  0  0
  -25.9470  -32.4650   23.7420 C   0  0  0  0  0  3  0  0  0  0  0  0
  -25.6190  -33.8090   24.2350 N   0  0  0  0  0  0  0  0  0  0  0  0
  -25.8790  -34.9480   23.5750 C   0  0  0  0  0  0  0  0  0  0  0  0
  -26.4980  -34.9760   22.5050 O   0  0  0  0  0  0  0  0  0  0  0  0
  -25.0640  -33.8590   25.0770 H   0  0  0  0  0  0  0  0  0  0  0  0
  -24.0890  -36.7110   23.4770 C   0  0  0  0  0  1  0  0  0  0  0  0
  -25.3710  -36.2610   24.1970 C   0  0  0  0  0  3  0  0  0  0  0  0
  -27.5080  -37.1150   25.0460 C   0  0  0  0  0  1  0  0  0  0  0  0
  -26.3680  -37.3530   24.1660 N   0  0  0  0  0  0  0  0  0  0  0  0
  -25.9390  -38.2350   24.4340 H   0  0  0  0  0  0  0  0  0  0  0  0
  -26.5930  -31.5920   24.8870 C   0  0  1  0  0  0  0  0  0  0  0  0
  -25.6080  -31.2030   26.0110 C   0  0  0  0  0  1  0  0  0  0  0  0
  -27.1790  -30.2810   24.3090 C   0  0  0  0  0  1  0  0  0  0  0  0
  -27.7640  -32.3690   25.5350 C   0  0  0  0  0  1  0  0  0  0  0  0
  -27.3170  -22.0950   17.1170 C   0  0  0  0  0  2  0  0  0  0  0  0
  -27.5560  -20.5760   17.1640 C   0  0  0  0  0  2  0  0  0  0  0  0
  -29.0480  -20.2240   17.2470 C   0  0  0  0  0  2  0  0  0  0  0  0
  -29.3390  -18.8020   16.7590 C   0  0  0  0  0  2  0  0  0  0  0  0
  -30.8210  -18.4040   16.9100 C   0  0  0  0  0  2  0  0  0  0  0  0
  -30.7530  -17.3670   19.1570 C   0  0  0  0  0  0  0  0  0  0  0  0
  -31.2450  -18.2720   18.3040 N   0  0  0  0  0  0  0  0  0  0  0  0
  -29.8260  -16.6150   18.8460 O   0  0  0  0  0  0  0  0  0  0  0  0
  -32.0060  -18.8640   18.6180 H   0  0  0  0  0  0  0  0  0  0  0  0
  -31.4000  -17.2470   20.5560 C   0  0  0  0  0  3  0  0  0  0  0  0
  -31.7690  -14.8360   20.7760 C   0  0  0  0  0  0  0  0  0  0  0  0
  -31.4900  -12.5750   19.8790 C   0  0  0  0  0  2  0  0  0  0  0  0
  -30.6830  -12.6600   18.5680 C   0  0  0  0  0  2  0  0  0  0  0  0
  -29.1680  -12.6030   18.8560 C   0  0  0  0  0  2  0  0  0  0  0  0
  -28.7300  -13.6010   19.9610 C   0  0  0  0  0  3  0  0  0  0  0  0
  -29.6630  -13.5070   21.1910 C   0  0  0  0  0  2  0  0  0  0  0  0
  -31.0550  -13.6820   20.7400 N   0  0  0  0  0  0  0  0  0  0  0  0
  -32.9250  -14.9340   20.3550 O   0  0  0  0  0  0  0  0  0  0  0  0
  -31.0750  -15.9290   21.1200 N   0  0  0  0  0  0  0  0  0  0  0  0
  -30.1160  -15.7840   21.3920 H   0  0  0  0  0  0  0  0  0  0  0  0
  -26.3160  -14.3510   20.4570 C   0  0  0  0  0  0  0  0  0  0  0  0
  -25.1790  -13.6460   20.7490 C   0  0  0  0  0  0  0  0  0  0  0  0
  -25.5650  -12.2700   20.7740 C   0  0  0  0  0  0  0  0  0  0  0  0
  -27.3270  -13.4110   20.3250 N   0  0  0  0  0  0  0  0  0  0  0  0
  -26.8720  -12.1550   20.5720 N   0  0  0  0  0  0  0  0  0  0  0  0
  -24.7600  -11.0530   20.9240 C   0  0  0  0  0  0  0  0  0  0  0  0
  -25.0410  -10.1020   21.9290 C   0  0  0  0  0  3  0  0  0  0  0  0
  -24.2430   -8.9460   22.0650 C   0  0  0  0  0  3  0  0  0  0  0  0
  -23.1490   -8.7330   21.1950 C   0  0  0  0  0  0  0  0  0  0  0  0
  -22.8900   -9.6690   20.1780 C   0  0  0  0  0  3  0  0  0  0  0  0
  -23.6880  -10.8160   20.0400 C   0  0  0  0  0  3  0  0  0  0  0  0
  -22.3330   -7.6280   21.2370 O   0  0  0  0  0  0  0  0  0  0  0  0
  -22.0710   -6.9690   22.4100 C   0  0  0  0  0  0  0  0  0  0  0  0
  -21.5010   -7.6250   23.5230 C   0  0  0  0  0  3  0  0  0  0  0  0
  -21.1890   -6.8940   24.6870 C   0  0  0  0  0  3  0  0  0  0  0  0
  -21.4330   -5.5090   24.7350 C   0  0  0  0  0  0  0  0  0  0  0  0
  -21.9930   -4.8520   23.6270 C   0  0  0  0  0  3  0  0  0  0  0  0
  -22.3100   -5.5810   22.4660 C   0  0  0  0  0  0  0  0  0  0  0  0
  -22.8330   -4.9400   21.3940 F   0  0  0  0  0  0  0  0  0  0  0  0
  -21.1230   -4.8050   25.8500 F   0  0  0  0  0  0  0  0  0  0  0  0
  -23.7920  -14.1990   20.9020 C   0  0  0  0  0  0  0  0  0  0  0  0
  -22.9690  -13.5720   21.7360 N   0  0  0  0  0  0  0  0  0  0  0  0
  -23.4460  -15.2220   20.3140 O   0  0  0  0  0  0  0  0  0  0  0  0
  -23.2600  -12.7410   22.2310 H   0  0  0  0  0  0  0  0  0  0  0  0
  -22.0340  -13.9220   21.8810 H   0  0  0  0  0  0  0  0  0  0  0  0
  -26.5700  -15.7080   20.2700 N   0  0  0  0  0  0  0  0  0  0  0  0
  -25.8370  -16.4060   20.3180 H   0  0  0  0  0  0  0  0  0  0  0  0
  -27.4590  -16.0830   19.9630 H   0  0  0  0  0  0  0  0  0  0  0  0
  -29.4530  -18.2860   21.9250 C   0  0  0  0  0  1  0  0  0  0  0  0
  -30.9400  -18.3830   21.5080 C   0  0  0  0  0  3  0  0  0  0  0  0
  -31.9170  -19.9210   23.3200 C   0  0  0  0  0  1  0  0  0  0  0  0
  -31.8770  -18.5000   22.7320 C   0  0  0  0  0  2  0  0  0  0  0  0
  1  3  2  0
  2  1  1  0
  4  2  1  0
  5 10  1  0
  5 11  2  0
  6  8  1  0
  7  6  1  0
  9  1  1  0
  9  7  1  0
  9 10  1  0
 10  8  1  0
 12  5  1  0
 13 15  1  0
 13 12  1  0
 14 25  2  0
 15 20  1  0
 16 24  1  0
 16 26  1  0
 17 23  1  0
 17 19  1  0
 18 24  1  0
 19 18  1  0
 20 19  2  0
 21 22  1  0
 21 15  2  0
 22 17  2  0
 23 16  1  0
 24 14  1  0
 26 28  2  0
 27 26  1  0
 29 27  1  0
 30 39  2  0
 30 35  1  0
 31 27  1  0
 31 35  1  0
 32 31  1  0
 33 34  1  0
 33 32  1  0
 34 30  1  0
 35 36  2  0
 36 37  1  0
 38 37  2  0
 39 38  1  0
 40 14  1  0
 40 41  1  0
 40 50  1  0
 41 44  1  0
 42 46  1  0
 42 41  1  0
 43 42  2  0
 46 45  1  0
 48 46  1  0
 48 49  1  0
 48 47  1  0
 50 53  1  1
 50 51  1  0
 52 50  1  0
 54 55  1  0
 54  2  1  0
 55 56  1  0
 57 58  1  0
 57 56  1  0
 58 60  1  0
 60 62  1  0
 60 59  1  0
 61 59  2  0
 63 59  1  0
 63 72  1  0
 63103  1  0
 64 72  1  0
 65 70  1  0
 66 67  1  0
 66 65  1  0
 68 67  1  0
 68 77  1  0
 68 69  1  0
 70 64  1  0
 70 69  1  0
 71 64  2  0
 72 73  1  0
 74 75  2  0
 75 76  1  0
 75 94  1  0
 76 79  1  0
 77 74  1  0
 77 78  1  0
 78 76  2  0
 79 80  1  0
 80 81  2  0
 82 85  1  0
 82 81  1  0
 83 82  2  0
 84 83  1  0
 84 79  2  0
 85 86  1  0
 86 91  2  0
 86 87  1  0
 87 88  2  0
 88 89  1  0
 89 93  1  0
 90 89  2  0
 91 90  1  0
 92 91  1  0
 94 95  1  0
 95 98  1  0
 95 97  1  0
 96 94  2  0
 99100  1  0
 99 74  1  0
101 99  1  0
103102  1  0
103105  1  0
105104  1  0
M  ISO  4  12 101  13 101  64 100  72 100
M  END
>  <TORSDO>  (28) 
F 27

>  <SCORE>  (28) 
-7.181

>  <name>  (28) 
29

>  <ligand_id>  (28) 
29

>  <original_smiles>  (28) 
[H]c1c([H])c([H])c2c(c1[H])C([H])([H])C([H])([H])C([H])([H])C2([H])N([H])C(=O)C1([H])N(C(=O)C([H])(N([H])C(=O)C([H])(N([H])C([H])([H])[H])C([H])([H])[H])C(C([H])([H])[H])(C([H])([H])[H])C([H])([H])[H])C([H])([H])c2c([H])c(OC([H])([H])C(=O)N3C([H])([H])C([H])([H])C([H])([H])C3([H])C(=O)N([H])C([H])([H])C([H])([H])C([H])([H])C([H])([H])C([H])([H])N([H])C(=O)C([H])(N([H])C(=O)N3C([H])([H])C([H])([H])C([H])([H])C([H])(n4nc(-c5c([H])c([H])c(Oc6c([H])c([H])c(F)c([H])c6F)c([H])c5[H])c(C(=O)N([H])[H])c4N([H])[H])C3([H])[H])C([H])(C([H])([H])[H])C([H])([H])C([H])([H])[H])c([H])c([H])c2C1([H])[H]

>  <smiles>  (28) 
[H]c1c([H])c([H])c2c(c1[H])C([H])([H])C([H])([H])C([H])([H])C2([H])N([H])C(=O)C1([H])N(C(=O)C([H])(N([H])C(=O)C([H])(N([H])C([H])([H])[H])C([H])([H])[H])C(C([H])([H])[H])(C([H])([H])[H])C([H])([H])[H])C([H])([H])c2c([H])c(OC([H])([H])C(=O)N3C([H])([H])C([H])([H])C([H])([H])C3([H])C(=O)N([H])C([H])([H])C([H])([H])C([H])([H])C([H])([H])C([H])([H])N([H])C(=O)C([H])(N([H])C(=O)N3C([H])([H])C([H])([H])C([H])([H])C([H])(n4nc(-c5c([H])c([H])c(Oc6c([H])c([H])c(F)c([H])c6F)c([H])c5[H])c(C(=O)N([H])[H])c4N([H])[H])C3([H])[H])C([H])(C([H])([H])[H])C([H])([H])C([H])([H])[H])c([H])c([H])c2C1([H])[H]

$$$$
30:0:0
     RDKit          3D

 81 85  0  0  1  0  0  0  0  0999 V2000
  -28.1090  -24.6470   20.3000 O   0  0  0  0  0  1  0  0  0  0  0  0
  -24.7100  -31.7810   23.1610 C   0  0  0  0  0  0  0  0  0  0  0  0
  -27.2070  -26.1440   20.2640 C   0  0  0  0  0  0  0  0  0  0  0  0
  -23.5560  -30.3680   21.5220 C   0  0  0  0  0  3  0  0  0  0  0  0
  -25.0090  -28.5810   20.1690 C   0  0  0  0  0  0  0  0  0  0  0  0
  -26.1560  -30.3130   21.5020 C   0  0  0  0  0  2  0  0  0  0  0  0
  -26.2110  -28.8120   20.8490 C   0  0  0  0  0  0  0  0  0  0  0  0
  -27.2590  -27.6460   20.8460 C   0  0  0  0  0  3  0  0  0  0  0  0
  -25.9680  -26.2870   19.5230 C   0  0  0  0  0  3  0  0  0  0  0  0
  -24.9660  -27.3480   19.4800 C   0  0  0  0  0  3  0  0  0  0  0  0
  -23.8360  -29.6140   20.1780 C   0  0  0  0  0  2  0  0  0  0  0  0
  -24.8390  -30.8700   22.1140 N   0  0  0  0  0  0  0  0  0  0  0  0
  -23.6010  -32.1150   23.6230 O   0  0  0  0  0  0  0  0  0  0  0  0
  -22.7620  -29.4580   22.5040 C   0  0  0  0  0  0  0  0  0  0  0  0
  -21.4220  -29.3560   22.3730 N   0  0  0  0  0  0  0  0  0  0  0  0
  -23.3780  -28.8290   23.3670 O   0  0  0  0  0  0  0  0  0  0  0  0
  -20.9670  -29.9120   21.6630 H   0  0  0  0  0  0  0  0  0  0  0  0
  -17.9970  -28.2130   22.9010 C   0  0  0  0  0  0  0  0  0  0  0  0
  -20.5670  -28.4380   23.1430 C   0  0  0  0  0  3  0  0  0  0  0  0
  -20.6330  -27.0060   22.5600 C   0  0  0  0  0  2  0  0  0  0  0  0
  -19.5210  -26.7160   21.5460 C   0  0  0  0  0  2  0  0  0  0  0  0
  -18.1460  -26.8740   22.1990 C   0  0  0  0  0  2  0  0  0  0  0  0
  -19.1320  -28.9550   23.3290 C   0  0  0  0  0  0  0  0  0  0  0  0
  -18.9320  -30.2040   23.9560 C   0  0  0  0  0  3  0  0  0  0  0  0
  -17.6350  -30.7130   24.1530 C   0  0  0  0  0  3  0  0  0  0  0  0
  -16.5160  -29.9710   23.7350 C   0  0  0  0  0  3  0  0  0  0  0  0
  -16.6980  -28.7220   23.1160 C   0  0  0  0  0  3  0  0  0  0  0  0
  -25.9400  -32.4590   23.8420 C   0  0  0  0  0  3  0  0  0  0  0  0
  -25.5980  -33.8650   24.1720 N   0  0  0  0  0  0  0  0  0  0  0  0
  -25.9200  -34.9450   23.4450 C   0  0  0  0  0  0  0  0  0  0  0  0
  -26.5760  -34.8640   22.4040 O   0  0  0  0  0  0  0  0  0  0  0  0
  -25.0070  -33.9990   24.9800 H   0  0  0  0  0  0  0  0  0  0  0  0
  -24.1680  -36.7480   23.1980 C   0  0  0  0  0  1  0  0  0  0  0  0
  -25.4480  -36.3330   23.9420 C   0  0  0  0  0  3  0  0  0  0  0  0
  -27.6060  -37.2470   24.6880 C   0  0  0  0  0  1  0  0  0  0  0  0
  -26.4650  -37.3980   23.7880 N   0  0  0  0  0  0  0  0  0  0  0  0
  -26.0550  -38.3150   23.9480 H   0  0  0  0  0  0  0  0  0  0  0  0
  -26.3960  -31.7200   25.1620 C   0  0  1  0  0  0  0  0  0  0  0  0
  -25.2580  -31.5140   26.1910 C   0  0  0  0  0  1  0  0  0  0  0  0
  -26.9880  -30.3300   24.8490 C   0  0  0  0  0  1  0  0  0  0  0  0
  -27.5230  -32.5250   25.8520 C   0  0  0  0  0  1  0  0  0  0  0  0
  -28.1400  -22.5480   20.1630 C   0  0  0  0  0 15  0  0  0  0  0  0
  -29.1420  -20.4180   20.2160 C   0  0  0  0  0 15  0  0  0  0  0  0
  -29.9010  -16.6470   20.0860 C   0  0  0  0  0  0  0  0  0  0  0  0
  -30.2300  -13.8900   19.2940 C   0  0  0  0  0  2  0  0  0  0  0  0
  -29.4480  -13.0530   18.1990 C   0  0  0  0  0  2  0  0  0  0  0  0
  -28.1340  -12.4820   18.7300 C   0  0  0  0  0  2  0  0  0  0  0  0
  -27.5010  -13.5140   19.6750 C   0  0  0  0  0  3  0  0  0  0  0  0
  -28.4750  -14.2100   20.6950 C   0  0  0  0  0  2  0  0  0  0  0  0
  -29.4550  -15.1290   19.9600 N   0  0  0  0  0  0  0  0  0  0  0  0
  -31.1430  -16.3980   20.0040 O   0  0  0  0  0  0  0  0  0  0  0  0
  -29.2570  -18.3100   20.1340 N   0  0  0  0  0  2  0  0  0  0  0  0
  -30.2580  -18.4710   20.1320 H   0  0  0  0  0  0  0  0  0  0  0  0
  -25.1600  -13.9200   20.5080 C   0  0  0  0  0  0  0  0  0  0  0  0
  -24.1280  -13.1120   20.8810 C   0  0  0  0  0  0  0  0  0  0  0  0
  -24.6260  -11.7720   20.8220 C   0  0  0  0  0  0  0  0  0  0  0  0
  -26.2240  -13.0860   20.2420 N   0  0  0  0  0  0  0  0  0  0  0  0
  -25.9190  -11.7780   20.4820 N   0  0  0  0  0  0  0  0  0  0  0  0
  -23.9140  -10.4950   21.0120 C   0  0  0  0  0  0  0  0  0  0  0  0
  -24.3570   -9.5290   21.9420 C   0  0  0  0  0  3  0  0  0  0  0  0
  -23.6350   -8.3280   22.1300 C   0  0  0  0  0  3  0  0  0  0  0  0
  -22.4560   -8.0830   21.3870 C   0  0  0  0  0  0  0  0  0  0  0  0
  -22.0290   -9.0390   20.4470 C   0  0  0  0  0  3  0  0  0  0  0  0
  -22.7510  -10.2310   20.2590 C   0  0  0  0  0  3  0  0  0  0  0  0
  -21.7070   -6.9350   21.4820 O   0  0  0  0  0  0  0  0  0  0  0  0
  -21.6700   -6.1910   22.6350 C   0  0  0  0  0  0  0  0  0  0  0  0
  -21.2140   -6.7320   23.8560 C   0  0  0  0  0  3  0  0  0  0  0  0
  -21.1260   -5.9140   25.0000 C   0  0  0  0  0  3  0  0  0  0  0  0
  -21.4850   -4.5540   24.9250 C   0  0  0  0  0  0  0  0  0  0  0  0
  -21.9340   -4.0110   23.7070 C   0  0  0  0  0  3  0  0  0  0  0  0
  -22.0220   -4.8270   22.5660 C   0  0  0  0  0  0  0  0  0  0  0  0
  -22.4340   -4.2930   21.3900 F   0  0  0  0  0  0  0  0  0  0  0  0
  -21.3950   -3.7660   26.0220 F   0  0  0  0  0  0  0  0  0  0  0  0
  -22.7270  -13.5620   21.1730 C   0  0  0  0  0  0  0  0  0  0  0  0
  -22.0260  -12.8570   22.0520 N   0  0  0  0  0  0  0  0  0  0  0  0
  -22.2670  -14.5820   20.6590 O   0  0  0  0  0  0  0  0  0  0  0  0
  -22.4140  -12.0340   22.4890 H   0  0  0  0  0  0  0  0  0  0  0  0
  -21.0880  -13.1430   22.2910 H   0  0  0  0  0  0  0  0  0  0  0  0
  -25.2790  -15.2960   20.3350 N   0  0  0  0  0  0  0  0  0  0  0  0
  -24.4980  -15.9290   20.4650 H   0  0  0  0  0  0  0  0  0  0  0  0
  -26.1180  -15.7610   20.0090 H   0  0  0  0  0  0  0  0  0  0  0  0
  2 13  2  0
  3  1  1  0
  3  8  1  0
  4 12  1  0
  4 14  1  0
  5 11  1  0
  5  7  1  0
  6 12  1  0
  7  6  1  0
  8  7  2  0
  9  3  2  0
 10  9  1  0
 10  5  2  0
 11  4  1  0
 12  2  1  0
 14 16  2  0
 15 14  1  0
 17 15  1  0
 18 27  2  0
 18 23  1  0
 19 15  1  0
 19 23  1  0
 20 19  1  0
 21 22  1  0
 21 20  1  0
 22 18  1  0
 23 24  2  0
 24 25  1  0
 26 25  2  0
 27 26  1  0
 28  2  1  0
 28 29  1  0
 28 38  1  0
 29 32  1  0
 30 34  1  0
 30 29  1  0
 31 30  2  0
 34 33  1  0
 36 34  1  0
 36 37  1  0
 36 35  1  0
 38 41  1  1
 38 39  1  0
 40 38  1  0
 44 52  1  0
 45 50  1  0
 46 47  1  0
 46 45  1  0
 48 47  1  0
 48 57  1  0
 48 49  1  0
 50 44  1  0
 50 49  1  0
 51 44  2  0
 53 52  1  0
 54 55  2  0
 55 74  1  0
 56 55  1  0
 56 59  1  0
 57 58  1  0
 57 54  1  0
 58 56  2  0
 59 60  1  0
 60 61  2  0
 62 65  1  0
 62 61  1  0
 63 62  2  0
 64 63  1  0
 64 59  2  0
 65 66  1  0
 66 67  1  0
 67 68  2  0
 69 68  1  0
 69 73  1  0
 70 69  2  0
 71 66  2  0
 71 70  1  0
 72 71  1  0
 74 75  1  0
 75 78  1  0
 75 77  1  0
 76 74  2  0
 79 80  1  0
 79 54  1  0
 81 79  1  0
M  ISO  4   1 101  42 101  44 100  52 100
M  END
>  <TORSDO>  (29) 
F 17

>  <SCORE>  (29) 
-16.141

>  <name>  (29) 
30

>  <ligand_id>  (29) 
30

>  <original_smiles>  (29) 
[H]c1c([H])c([H])c2c(c1[H])C([H])([H])C([H])([H])C([H])([H])C2([H])N([H])C(=O)C1([H])N(C(=O)C([H])(N([H])C(=O)C([H])(N([H])C([H])([H])[H])C([H])([H])[H])C(C([H])([H])[H])(C([H])([H])[H])C([H])([H])[H])C([H])([H])c2c([H])c(OC([H])([H])C([H])([H])N([H])C(=O)N3C([H])([H])C([H])([H])C([H])([H])C([H])(n4nc(-c5c([H])c([H])c(Oc6c([H])c([H])c(F)c([H])c6F)c([H])c5[H])c(C(=O)N([H])[H])c4N([H])[H])C3([H])[H])c([H])c([H])c2C1([H])[H]

>  <smiles>  (29) 
[H]c1c([H])c([H])c2c(c1[H])C([H])([H])C([H])([H])C([H])([H])C2([H])N([H])C(=O)C1([H])N(C(=O)C([H])(N([H])C(=O)C([H])(N([H])C([H])([H])[H])C([H])([H])[H])C(C([H])([H])[H])(C([H])([H])[H])C([H])([H])[H])C([H])([H])c2c([H])c(OC([H])([H])C([H])([H])N([H])C(=O)N3C([H])([H])C([H])([H])C([H])([H])C([H])(n4nc(-c5c([H])c([H])c(Oc6c([H])c([H])c(F)c([H])c6F)c([H])c5[H])c(C(=O)N([H])[H])c4N([H])[H])C3([H])[H])c([H])c([H])c2C1([H])[H]

$$$$
31:0:0
     RDKit          3D

119127  0  0  1  0  0  0  0  0999 V2000
  -32.2200  -18.5110   21.4570 C   0  0  0  0  0  3  0  0  0  0  0  0
  -31.8460  -17.2110   21.8460 C   0  0  0  0  0  3  0  0  0  0  0  0
  -29.6850  -17.5150   20.7680 C   0  0  0  0  0  3  0  0  0  0  0  0
  -31.3490  -19.3110   20.6860 C   0  0  0  0  0  0  0  0  0  0  0  0
  -30.0560  -18.8140   20.3470 C   0  0  0  0  0  0  0  0  0  0  0  0
  -30.5870  -16.6910   21.4720 C   0  0  0  0  0  0  0  0  0  0  0  0
  -31.0050  -14.2880   21.7220 C   0  0  0  0  0  0  0  0  0  0  0  0
  -31.0500  -11.8670   21.2710 C   0  0  0  0  0  2  0  0  0  0  0  0
  -30.6210  -11.6030   19.8150 C   0  0  0  0  0  2  0  0  0  0  0  0
  -29.0880  -11.4790   19.7130 C   0  0  0  0  0  2  0  0  0  0  0  0
  -28.3470  -12.6450   20.4220 C   0  0  0  0  0  3  0  0  0  0  0  0
  -28.9140  -12.8770   21.8420 C   0  0  0  0  0  2  0  0  0  0  0  0
  -30.3680  -13.0880   21.7260 N   0  0  0  0  0  0  0  0  0  0  0  0
  -32.2250  -14.3950   21.5730 O   0  0  0  0  0  0  0  0  0  0  0  0
  -30.2020  -15.3640   21.7990 N   0  0  0  0  0  0  0  0  0  0  0  0
  -29.2160  -15.1560   21.8100 H   0  0  0  0  0  0  0  0  0  0  0  0
  -25.8880  -13.1660   19.8710 C   0  0  0  0  0  0  0  0  0  0  0  0
  -24.7290  -12.4850   20.1300 C   0  0  0  0  0  0  0  0  0  0  0  0
  -25.1100  -11.3230   20.8670 C   0  0  0  0  0  0  0  0  0  0  0  0
  -26.9040  -12.4200   20.4470 N   0  0  0  0  0  0  0  0  0  0  0  0
  -26.4170  -11.3310   21.0960 N   0  0  0  0  0  0  0  0  0  0  0  0
  -24.3140  -10.1750   21.3210 C   0  0  0  0  0  0  0  0  0  0  0  0
  -24.3430   -9.7410   22.6650 C   0  0  0  0  0  3  0  0  0  0  0  0
  -23.5560   -8.6460   23.0810 C   0  0  0  0  0  3  0  0  0  0  0  0
  -22.7270   -7.9740   22.1510 C   0  0  0  0  0  0  0  0  0  0  0  0
  -22.7190   -8.3960   20.8090 C   0  0  0  0  0  3  0  0  0  0  0  0
  -23.5070   -9.4830   20.3960 C   0  0  0  0  0  3  0  0  0  0  0  0
  -21.9480   -6.8850   22.4590 O   0  0  0  0  0  0  0  0  0  0  0  0
  -21.4580   -6.6860   23.7240 C   0  0  0  0  0  0  0  0  0  0  0  0
  -20.7000   -7.6710   24.3950 C   0  0  0  0  0  3  0  0  0  0  0  0
  -20.1580   -7.3970   25.6660 C   0  0  0  0  0  3  0  0  0  0  0  0
  -20.3620   -6.1400   26.2640 C   0  0  0  0  0  0  0  0  0  0  0  0
  -21.1110   -5.1560   25.5960 C   0  0  0  0  0  3  0  0  0  0  0  0
  -21.6550   -5.4270   24.3280 C   0  0  0  0  0  0  0  0  0  0  0  0
  -22.3580   -4.4680   23.6790 F   0  0  0  0  0  0  0  0  0  0  0  0
  -19.8340   -5.8730   27.4820 F   0  0  0  0  0  0  0  0  0  0  0  0
  -23.3530  -12.8420   19.6400 C   0  0  0  0  0  0  0  0  0  0  0  0
  -22.3250  -12.5010   20.4080 N   0  0  0  0  0  0  0  0  0  0  0  0
  -23.1880  -13.4690   18.5950 O   0  0  0  0  0  0  0  0  0  0  0  0
  -22.4620  -12.0040   21.2760 H   0  0  0  0  0  0  0  0  0  0  0  0
  -21.3850  -12.7410   20.1250 H   0  0  0  0  0  0  0  0  0  0  0  0
  -26.1660  -14.3410   19.1810 N   0  0  0  0  0  0  0  0  0  0  0  0
  -25.4470  -14.8740   18.7050 H   0  0  0  0  0  0  0  0  0  0  0  0
  -27.0970  -14.7050   19.0200 H   0  0  0  0  0  0  0  0  0  0  0  0
  -29.0210  -19.6320   19.6140 C   0  0  0  0  0  0  0  0  0  0  0  0
  -29.3440  -20.1180   18.4140 N   0  0  0  0  0  0  0  0  0  0  0  0
  -27.9080  -19.8010   20.1110 O   0  0  0  0  0  0  0  0  0  0  0  0
  -30.2840  -19.9800   18.0580 H   0  0  0  0  0  0  0  0  0  0  0  0
  -28.4830  -20.9750   17.6090 C   0  0  0  0  0  2  0  0  0  0  0  0
  -29.2440  -21.5210   16.3970 C   0  0  0  0  0  0  0  0  0  0  0  0
  -29.0950  -22.8240   16.1440 N   0  0  0  0  0  0  0  0  0  0  0  0
  -29.9300  -20.7740   15.6960 O   0  0  0  0  0  0  0  0  0  0  0  0
  -28.5230  -23.3520   16.7880 H   0  0  0  0  0  0  0  0  0  0  0  0
  -29.6680  -23.5680   15.0200 C   0  0  0  0  0  2  0  0  0  0  0  0
  -31.1270  -23.9840   15.2870 C   0  0  0  0  0  2  0  0  0  0  0  0
  -31.4920  -24.0190   16.6670 O   0  0  0  0  0  0  0  0  0  0  0  0
  -33.1200  -29.4200   20.9890 C   0  0  0  0  0  0  0  0  0  0  0  0
  -31.0130  -25.0650   17.4180 C   0  0  0  0  0  0  0  0  0  0  0  0
  -30.7320  -28.7740   20.9170 C   0  0  0  0  0  3  0  0  0  0  0  0
  -30.0750  -27.1680   19.0490 C   0  0  0  0  0  0  0  0  0  0  0  0
  -32.2500  -28.3910   18.8940 C   0  0  0  0  0  2  0  0  0  0  0  0
  -31.3790  -27.2050   18.5420 C   0  0  0  0  0  0  0  0  0  0  0  0
  -31.8570  -26.1520   17.7300 C   0  0  0  0  0  3  0  0  0  0  0  0
  -29.7080  -25.0320   17.9520 C   0  0  0  0  0  3  0  0  0  0  0  0
  -29.2340  -26.0810   18.7610 C   0  0  0  0  0  3  0  0  0  0  0  0
  -29.6380  -28.3330   19.9080 C   0  0  0  0  0  2  0  0  0  0  0  0
  -32.0920  -28.8590   20.2920 N   0  0  0  0  0  0  0  0  0  0  0  0
  -32.9410  -29.8990   22.1170 O   0  0  0  0  0  0  0  0  0  0  0  0
  -30.6810  -27.8370   22.1450 C   0  0  0  0  0  0  0  0  0  0  0  0
  -29.7590  -28.1250   23.0780 N   0  0  0  0  0  0  0  0  0  0  0  0
  -31.4350  -26.8630   22.2300 O   0  0  0  0  0  0  0  0  0  0  0  0
  -29.1850  -28.9440   22.9380 H   0  0  0  0  0  0  0  0  0  0  0  0
  -27.7870  -28.0520   26.1040 C   0  0  0  0  0  0  0  0  0  0  0  0
  -29.5040  -27.3620   24.2990 C   0  0  0  0  0  3  0  0  0  0  0  0
  -28.5730  -26.1590   24.0200 C   0  0  0  0  0  2  0  0  0  0  0  0
  -27.0930  -26.4740   24.2490 C   0  0  0  0  0  2  0  0  0  0  0  0
  -26.8570  -26.9220   25.6950 C   0  0  0  0  0  2  0  0  0  0  0  0
  -29.0220  -28.2690   25.4380 C   0  0  0  0  0  0  0  0  0  0  0  0
  -29.8330  -29.3550   25.8340 C   0  0  0  0  0  3  0  0  0  0  0  0
  -29.4290  -30.2120   26.8750 C   0  0  0  0  0  3  0  0  0  0  0  0
  -28.2130  -29.9840   27.5410 C   0  0  0  0  0  3  0  0  0  0  0  0
  -27.3980  -28.9040   27.1590 C   0  0  0  0  0  3  0  0  0  0  0  0
  -34.5590  -29.5080   20.3940 C   0  0  0  0  0  3  0  0  0  0  0  0
  -35.0980  -30.8300   20.7360 N   0  0  0  0  0  0  0  0  0  0  0  0
  -35.1260  -31.8790   19.9030 C   0  0  0  0  0  0  0  0  0  0  0  0
  -34.7610  -31.8100   18.7260 O   0  0  0  0  0  0  0  0  0  0  0  0
  -35.3650  -30.9750   21.7000 H   0  0  0  0  0  0  0  0  0  0  0  0
  -34.4520  -34.1190   20.8220 C   0  0  0  0  0  1  0  0  0  0  0  0
  -35.6430  -33.2170   20.4650 C   0  0  0  0  0  3  0  0  0  0  0  0
  -37.8300  -33.2530   19.3500 C   0  0  0  0  0  1  0  0  0  0  0  0
  -36.5510  -33.9310   19.5410 N   0  0  0  0  0  0  0  0  0  0  0  0
  -36.7380  -34.8730   19.8780 H   0  0  0  0  0  0  0  0  0  0  0  0
  -35.5170  -28.3640   20.9080 C   0  0  1  0  0  0  0  0  0  0  0  0
  -35.5460  -28.2210   22.4470 C   0  0  0  0  0  1  0  0  0  0  0  0
  -35.0990  -26.9980   20.3160 C   0  0  0  0  0  1  0  0  0  0  0  0
  -36.9620  -28.6330   20.4240 C   0  0  0  0  0  1  0  0  0  0  0  0
  -31.8230  -20.6640   20.2520 C   0  0  0  0  0  0  0  0  0  0  0  0
  -31.5260  -21.6690   21.0780 N   0  0  0  0  0  0  0  0  0  0  0  0
  -32.3730  -20.8120   19.1610 O   0  0  0  0  0  0  0  0  0  0  0  0
  -31.1300  -21.4290   21.9760 H   0  0  0  0  0  0  0  0  0  0  0  0
  -31.5860  -23.0860   20.7150 C   0  0  0  0  0  2  0  0  0  0  0  0
  -30.3380  -23.5330   19.9170 C   0  0  0  0  0  2  0  0  0  0  0  0
  -29.1330  -23.8240   20.8130 C   0  0  0  0  0  0  0  0  0  0  0  0
  -28.2870  -22.8150   21.0490 N   0  0  0  0  0  0  0  0  0  0  0  0
  -28.9830  -24.9480   21.2960 O   0  0  0  0  0  0  0  0  0  0  0  0
  -28.4250  -21.9440   20.5600 H   0  0  0  0  0  0  0  0  0  0  0  0
  -27.0720  -22.9130   21.8530 C   0  0  0  0  0  3  0  0  0  0  0  0
  -25.8610  -22.9930   20.9060 C   0  0  0  0  0  0  0  0  0  0  0  0
  -24.8470  -23.7630   21.2780 N   0  0  0  0  0  0  0  0  0  0  0  0
  -25.8260  -22.3560   19.8540 O   0  0  0  0  0  0  0  0  0  0  0  0
  -24.8910  -24.2800   22.1440 H   0  0  0  0  0  0  0  0  0  0  0  0
  -24.0270  -23.8460   20.6950 H   0  0  0  0  0  0  0  0  0  0  0  0
  -26.9280  -21.6310   22.7030 C   0  0  0  0  0  2  0  0  0  0  0  0
  -28.0040  -21.4960   23.7980 C   0  0  0  0  0  2  0  0  0  0  0  0
  -27.7730  -20.2760   24.7110 C   0  0  0  0  0  2  0  0  0  0  0  0
  -28.7100  -20.2400   25.8490 N   0  0  0  0  0  4  0  0  0  0  0  0
  -29.6610  -20.1410   25.5420 H   0  0  0  0  0  0  0  0  0  0  0  0
  -28.4870  -19.4670   26.4500 H   0  0  0  0  0  0  0  0  0  0  0  0
  -28.6320  -21.0800   26.3960 H   0  0  0  0  0  0  0  0  0  0  0  0
  1  2  1  0
  3  6  1  0
  4  1  2  0
  5  4  1  0
  5  3  2  0
  6 15  1  0
  6  2  2  0
  7 13  1  0
  7 15  1  0
  8 13  1  0
  9  8  1  0
 10  9  1  0
 11 10  1  0
 11 20  1  0
 11 12  1  0
 13 12  1  0
 14  7  2  0
 15 16  1  0
 17 18  2  0
 17 20  1  0
 18 19  1  0
 19 21  2  0
 19 22  1  0
 20 21  1  0
 22 23  1  0
 23 24  2  0
 25 28  1  0
 25 24  1  0
 26 25  2  0
 27 26  1  0
 27 22  2  0
 28 29  1  0
 29 34  2  0
 29 30  1  0
 30 31  2  0
 31 32  1  0
 32 36  1  0
 33 32  2  0
 34 33  1  0
 35 34  1  0
 37 18  1  0
 37 38  1  0
 38 40  1  0
 39 37  2  0
 41 38  1  0
 42 17  1  0
 43 42  1  0
 44 42  1  0
 45 47  2  0
 45  5  1  0
 46 45  1  0
 48 46  1  0
 49 46  1  0
 50 49  1  0
 51 50  1  0
 51 53  1  0
 52 50  2  0
 54 55  1  0
 54 51  1  0
 55 56  1  0
 56 58  1  0
 57 68  2  0
 58 63  2  0
 58 64  1  0
 59 69  1  0
 60 66  1  0
 61 67  1  0
 62 61  1  0
 62 60  2  0
 63 62  1  0
 64 65  2  0
 65 60  1  0
 66 59  1  0
 67 59  1  0
 67 57  1  0
 69 71  2  0
 69 70  1  0
 72 70  1  0
 73 82  1  0
 74 70  1  0
 74 78  1  0
 75 76  1  0
 75 74  1  0
 76 77  1  0
 77 73  1  0
 78 79  1  0
 78 73  2  0
 79 80  2  0
 80 81  1  0
 82 81  2  0
 83 84  1  0
 83 93  1  0
 83 57  1  0
 84 87  1  0
 85 89  1  0
 85 84  1  0
 86 85  2  0
 89 88  1  0
 90 91  1  0
 91 92  1  0
 91 89  1  0
 93 94  1  1
 95 93  1  0
 96 93  1  0
 97  4  1  0
 97 98  1  0
 98100  1  0
 99 97  2  0
101 98  1  0
102101  1  0
102103  1  0
103104  1  0
103105  2  0
104107  1  0
106104  1  0
107113  1  0
108109  1  0
108107  1  0
109111  1  0
110108  2  0
112109  1  0
113114  1  0
114115  1  0
115116  1  0
116119  1  0
116118  1  0
117116  1  0
M  ISO  4   7 100  15 100  55 101  56 101
M  END
>  <TORSDO>  (30) 
F 31

>  <SCORE>  (30) 
16.677

>  <name>  (30) 
31

>  <ligand_id>  (30) 
31

>  <original_smiles>  (30) 
[H]c1c([H])c([H])c2c(c1[H])C([H])([H])C([H])([H])C([H])([H])C2([H])N([H])C(=O)C1([H])N(C(=O)C([H])(N([H])C(=O)C([H])(N([H])C([H])([H])[H])C([H])([H])[H])C(C([H])([H])[H])(C([H])([H])[H])C([H])([H])[H])C([H])([H])c2c([H])c(OC([H])([H])C([H])([H])N([H])C(=O)C([H])([H])N([H])C(=O)c3c([H])c(N([H])C(=O)N4C([H])([H])C([H])([H])C([H])([H])C([H])(n5nc(-c6c([H])c([H])c(Oc7c([H])c([H])c(F)c([H])c7F)c([H])c6[H])c(C(=O)N([H])[H])c5N([H])[H])C4([H])[H])c([H])c([H])c3C(=O)N([H])C([H])([H])C([H])([H])C(=O)N([H])C([H])(C(=O)N([H])[H])C([H])([H])C([H])([H])C([H])([H])[N+]([H])([H])[H])c([H])c([H])c2C1([H])[H]

>  <smiles>  (30) 
[H]c1c([H])c([H])c2c(c1[H])C([H])([H])C([H])([H])C([H])([H])C2([H])N([H])C(=O)C1([H])N(C(=O)C([H])(N([H])C(=O)C([H])(N([H])C([H])([H])[H])C([H])([H])[H])C(C([H])([H])[H])(C([H])([H])[H])C([H])([H])[H])C([H])([H])c2c([H])c(OC([H])([H])C([H])([H])N([H])C(=O)C([H])([H])N([H])C(=O)c3c([H])c(N([H])C(=O)N4C([H])([H])C([H])([H])C([H])([H])C([H])(n5nc(-c6c([H])c([H])c(Oc7c([H])c([H])c(F)c([H])c7F)c([H])c6[H])c(C(=O)N([H])[H])c5N([H])[H])C4([H])[H])c([H])c([H])c3C(=O)N([H])C([H])([H])C([H])([H])C(=O)N([H])C([H])(C(=O)N([H])[H])C([H])([H])C([H])([H])C([H])([H])[N+]([H])([H])[H])c([H])c([H])c2C1([H])[H]

$$$$
32:0:0
     RDKit          3D

101108  0  0  1  0  0  0  0  0999 V2000
  -21.4560  -22.5920   23.6380 C   0  0  0  0  0  3  0  0  0  0  0  0
  -22.2850  -23.1860   22.3140 C   0  0  0  0  0  3  0  0  0  0  0  0
  -23.7170  -24.0460   22.3230 C   0  0  0  0  0  2  0  0  0  0  0  0
  -24.1700  -25.2290   21.2890 C   0  0  0  0  0  0  0  0  0  0  0  0
  -25.1350  -25.0960   20.2740 N   0  0  0  0  0  0  0  0  0  0  0  0
  -23.6740  -26.3400   21.4830 O   0  0  0  0  0  0  0  0  0  0  0  0
  -25.4320  -24.1450   20.0840 H   0  0  0  0  0  0  0  0  0  0  0  0
  -27.3920  -26.0620   20.2540 C   0  0  0  0  0  1  0  0  0  0  0  0
  -26.0160  -26.1800   19.5710 C   0  0  0  0  0  3  0  0  0  0  0  0
  -26.3140  -26.2540   17.9560 C   0  0  0  0  0  0  0  0  0  0  0  0
  -27.1650  -27.1680   17.3040 N   0  0  0  0  0  0  0  0  0  0  0  0
  -25.8290  -25.3480   17.2810 O   0  0  0  0  0  0  0  0  0  0  0  0
  -27.6780  -27.9130   17.7570 H   0  0  0  0  0  0  0  0  0  0  0  0
  -28.4280  -27.6380   14.9100 C   0  0  0  0  0  0  0  0  0  0  0  0
  -28.4100  -28.3300   12.4490 C   0  0  0  0  0  2  0  0  0  0  0  0
  -27.3560  -29.4530   12.2250 C   0  0  0  0  0  2  0  0  0  0  0  0
  -25.9040  -28.9170   12.2270 C   0  0  0  0  0  2  0  0  0  0  0  0
  -25.6640  -27.9050   13.3730 C   0  0  0  0  0  3  0  0  0  0  0  0
  -26.7470  -26.8150   13.2900 C   0  0  0  0  0  2  0  0  0  0  0  0
  -28.0030  -27.4910   13.6090 N   0  0  0  0  0  0  0  0  0  0  0  0
  -29.4570  -28.2990   15.1360 O   0  0  0  0  0  0  0  0  0  0  0  0
  -27.5340  -27.0260   15.8270 N   0  0  0  0  0  0  0  0  0  0  0  0
  -26.8030  -26.4630   15.4150 H   0  0  0  0  0  0  0  0  0  0  0  0
  -23.5480  -26.8730   14.3910 C   0  0  0  0  0  0  0  0  0  0  0  0
  -22.3870  -26.4410   13.8160 C   0  0  0  0  0  0  0  0  0  0  0  0
  -22.5310  -26.6730   12.4140 C   0  0  0  0  0  0  0  0  0  0  0  0
  -24.3410  -27.3130   13.3430 N   0  0  0  0  0  0  0  0  0  0  0  0
  -23.7370  -27.1460   12.1440 N   0  0  0  0  0  0  0  0  0  0  0  0
  -21.5700  -26.5340   11.3210 C   0  0  0  0  0  0  0  0  0  0  0  0
  -21.9140  -25.8850   10.1150 C   0  0  0  0  0  3  0  0  0  0  0  0
  -20.9640  -25.7540    9.0800 C   0  0  0  0  0  3  0  0  0  0  0  0
  -19.6580  -26.2720    9.2480 C   0  0  0  0  0  0  0  0  0  0  0  0
  -19.3290  -26.9390   10.4410 C   0  0  0  0  0  3  0  0  0  0  0  0
  -20.2770  -27.0730   11.4690 C   0  0  0  0  0  3  0  0  0  0  0  0
  -18.6760  -26.2120    8.2880 O   0  0  0  0  0  0  0  0  0  0  0  0
  -18.7120  -25.2810    7.2820 C   0  0  0  0  0  0  0  0  0  0  0  0
  -18.6870  -23.8940    7.5470 C   0  0  0  0  0  3  0  0  0  0  0  0
  -18.6560  -22.9740    6.4810 C   0  0  0  0  0  3  0  0  0  0  0  0
  -18.6370  -23.4370    5.1520 C   0  0  0  0  0  0  0  0  0  0  0  0
  -18.6570  -24.8170    4.8860 C   0  0  0  0  0  3  0  0  0  0  0  0
  -18.6920  -25.7370    5.9490 C   0  0  0  0  0  0  0  0  0  0  0  0
  -18.6880  -27.0660    5.6880 F   0  0  0  0  0  0  0  0  0  0  0  0
  -18.5980  -22.5540    4.1260 F   0  0  0  0  0  0  0  0  0  0  0  0
  -21.1750  -25.9310   14.5360 C   0  0  0  0  0  0  0  0  0  0  0  0
  -20.4430  -25.0050   13.9270 N   0  0  0  0  0  0  0  0  0  0  0  0
  -20.9000  -26.3150   15.6720 O   0  0  0  0  0  0  0  0  0  0  0  0
  -20.6880  -24.6710   13.0070 H   0  0  0  0  0  0  0  0  0  0  0  0
  -19.6330  -24.6170   14.3900 H   0  0  0  0  0  0  0  0  0  0  0  0
  -23.9840  -26.9530   15.7090 N   0  0  0  0  0  0  0  0  0  0  0  0
  -23.4000  -26.6810   16.4910 H   0  0  0  0  0  0  0  0  0  0  0  0
  -24.9360  -27.1660   15.9770 H   0  0  0  0  0  0  0  0  0  0  0  0
  -20.0730  -21.6550   23.5770 C   0  0  0  0  0  3  0  0  0  0  0  0
  -18.9370  -21.5470   24.8110 C   0  0  0  0  0  3  0  0  0  0  0  0
  -17.4170  -20.8340   24.7530 C   0  0  0  0  0  3  0  0  0  0  0  0
  -15.9530  -21.2290   25.5210 C   0  0  1  0  0  0  0  0  0  0  0  0
  -13.5200  -21.8230   22.3970 C   0  0  0  0  0  2  0  0  0  0  0  0
  -14.4930  -21.4920   24.8370 N   0  0  2  0  0  4  0  0  0  0  0  0
  -12.3120  -22.0000   22.1220 O   0  0  0  0  0  0  0  0  0  0  0  0
  -13.7590  -21.6060   25.5170 H   0  0  0  0  0  0  0  0  0  0  0  0
  -14.3380  -21.9410   20.2860 C   0  0  0  0  0 15  0  0  0  0  0  0
  -16.0160  -22.3370   18.9940 O   0  0  0  0  0  1  0  0  0  0  0  0
  -16.9480  -26.2170   22.0080 C   0  0  0  0  0  0  0  0  0  0  0  0
  -16.8750  -23.0730   17.8520 C   0  0  0  0  0  3  0  0  0  0  0  0
  -15.5370  -24.6690   20.8120 C   0  0  0  0  0  3  0  0  0  0  0  0
  -15.4010  -24.9220   18.1380 C   0  0  0  0  0  3  0  0  0  0  0  0
  -16.9390  -26.3130   19.5050 C   0  0  0  0  0  2  0  0  0  0  0  0
  -16.7080  -25.3310   18.3770 C   0  0  0  0  0  3  0  0  0  0  0  0
  -17.6140  -24.3210   18.0400 C   0  0  0  0  0  2  0  0  0  0  0  0
  -16.2470  -23.2120   16.6310 C   0  0  0  0  0  2  0  0  0  0  0  0
  -15.1680  -23.9760   17.0810 C   0  0  0  0  0  2  0  0  0  0  0  0
  -14.6570  -24.8220   19.4400 C   0  0  0  0  0  2  0  0  0  0  0  0
  -16.4630  -25.8050   20.8150 N   0  0  0  0  0  0  0  0  0  0  0  0
  -16.5280  -25.7470   23.0780 O   0  0  0  0  0  0  0  0  0  0  0  0
  -16.5010  -23.4490   21.2180 C   0  0  0  0  0  0  0  0  0  0  0  0
  -16.2020  -22.6010   22.1490 N   0  0  0  0  0  0  0  0  0  0  0  0
  -17.5440  -23.1790   20.6610 O   0  0  0  0  0  0  0  0  0  0  0  0
  -15.5350  -22.9510   22.8200 H   0  0  0  0  0  0  0  0  0  0  0  0
  -14.8000  -19.8230   24.3640 C   0  0  0  0  0  3  0  0  0  0  0  0
  -16.4660  -21.1340   22.2790 C   0  0  0  0  0  3  0  0  0  0  0  0
  -15.5420  -19.9520   21.7290 C   0  0  0  0  0  2  0  0  0  0  0  0
  -14.2260  -19.2370   22.3420 C   0  0  0  0  0  2  0  0  0  0  0  0
  -14.2130  -18.7250   23.7360 C   0  0  0  0  0  2  0  0  0  0  0  0
  -16.2690  -21.0220   23.6230 C   0  0  0  0  0  3  0  0  0  0  0  0
  -16.5700  -22.7260   24.5830 C   0  0  0  0  0  2  0  0  0  0  0  0
  -15.5210  -23.1410   26.0530 C   0  0  0  0  0  3  0  0  0  0  0  0
  -14.2320  -22.0160   26.6720 C   0  0  0  0  0  3  0  0  0  0  0  0
  -13.8440  -20.4220   25.8720 C   0  0  0  0  0  3  0  0  0  0  0  0
  -18.0340  -27.3070   22.0570 C   0  0  0  0  0  3  0  0  0  0  0  0
  -17.7710  -28.0640   23.2810 N   0  0  0  0  0  0  0  0  0  0  0  0
  -16.8660  -29.0410   23.3780 C   0  0  0  0  0  0  0  0  0  0  0  0
  -16.2330  -29.4640   22.4060 O   0  0  0  0  0  0  0  0  0  0  0  0
  -18.2260  -27.7390   24.1210 H   0  0  0  0  0  0  0  0  0  0  0  0
  -15.2340  -29.2700   25.2770 C   0  0  0  0  0  1  0  0  0  0  0  0
  -16.6340  -29.6500   24.7710 C   0  0  0  0  0  3  0  0  0  0  0  0
  -18.1780  -31.5470   24.5760 C   0  0  0  0  0  1  0  0  0  0  0  0
  -16.7990  -31.1180   24.7960 N   0  0  0  0  0  0  0  0  0  0  0  0
  -16.4870  -31.4990   25.6860 H   0  0  0  0  0  0  0  0  0  0  0  0
  -19.4980  -26.7270   22.0460 C   0  0  1  0  0  0  0  0  0  0  0  0
  -19.7250  -25.5670   23.0440 C   0  0  0  0  0  1  0  0  0  0  0  0
  -19.8920  -26.2150   20.6430 C   0  0  0  0  0  1  0  0  0  0  0  0
  -20.4890  -27.8600   22.3870 C   0  0  0  0  0  1  0  0  0  0  0  0
  2  3  1  0
  2  1  2  0
  4  6  2  0
  4  3  1  0
  5  4  1  0
  7  5  1  0
  9  8  1  0
  9  5  1  0
 10  9  1  0
 11 13  1  0
 11 10  1  0
 12 10  2  0
 14 21  2  0
 14 22  1  0
 15 20  1  0
 16 17  1  0
 16 15  1  0
 18 17  1  0
 19 18  1  0
 19 20  1  0
 20 14  1  0
 22 11  1  0
 23 22  1  0
 24 49  1  0
 25 24  2  0
 25 44  1  0
 26 25  1  0
 27 18  1  0
 27 24  1  0
 28 26  2  0
 28 27  1  0
 29 34  1  0
 29 26  1  0
 30 29  2  0
 31 32  2  0
 31 30  1  0
 32 33  1  0
 33 34  2  0
 35 32  1  0
 36 37  1  0
 36 35  1  0
 38 37  2  0
 39 38  1  0
 40 39  2  0
 40 41  1  0
 41 36  2  0
 42 41  1  0
 43 39  1  0
 44 46  2  0
 45 48  1  0
 45 44  1  0
 47 45  1  0
 49 51  1  0
 49 50  1  0
 52  1  1  0
 52 53  2  0
 54 53  1  0
 54 55  1  0
 55 84  1  1
 57 59  1  6
 57 55  1  0
 57 87  1  0
 58 56  2  0
 62 88  1  0
 62 73  2  0
 63 68  1  0
 63 61  1  0
 64 72  1  0
 64 74  1  0
 65 70  1  0
 65 67  1  0
 65 71  1  0
 66 72  1  0
 67 68  1  0
 67 66  1  0
 69 70  1  0
 69 63  1  0
 71 64  1  0
 72 62  1  0
 74 75  1  0
 75 77  1  0
 76 74  2  0
 78 82  1  0
 78 57  1  0
 78 87  1  0
 79 75  1  0
 79 83  1  0
 80 79  1  0
 80 81  1  0
 81 82  1  0
 83 54  1  0
 83 55  1  0
 84 85  1  0
 85 86  2  0
 87 86  1  0
 88 89  1  0
 89 90  1  0
 89 92  1  0
 90 94  1  0
 91 90  2  0
 94 96  1  0
 94 93  1  0
 95 96  1  0
 96 97  1  0
 98 88  1  0
 98101  1  1
 98 99  1  0
100 98  1  0
M  ISO  4  14 100  22 100  60 101  61 101
M  END
>  <TORSDO>  (31) 
F 27

>  <SCORE>  (31) 
14.179

>  <name>  (31) 
32

>  <ligand_id>  (31) 
32

>  <original_smiles>  (31) 
[H]c1c([H])c([H])c2c(c1[H])C([H])([H])C([H])([H])C([H])([H])C2([H])N([H])C(=O)C1([H])N(C(=O)C([H])(N([H])C(=O)C([H])(N([H])C([H])([H])[H])C([H])([H])[H])C(C([H])([H])[H])(C([H])([H])[H])C([H])([H])[H])C([H])([H])c2c([H])c(OC([H])([H])C(=O)N([H])C([H])([H])C([H])([H])C([H])([H])C([H])([H])C([H])([H])C([H])([H])C([H])([H])C(=O)N([H])C([H])(C(=O)N([H])N([H])C(=O)N3C([H])([H])C([H])([H])C([H])([H])C([H])(n4nc(-c5c([H])c([H])c(Oc6c([H])c([H])c(F)c([H])c6F)c([H])c5[H])c(C(=O)N([H])[H])c4N([H])[H])C3([H])[H])C([H])([H])[H])c([H])c([H])c2C1([H])[H]

>  <smiles>  (31) 
[H]c1c([H])c([H])c2c(c1[H])C([H])([H])C([H])([H])C([H])([H])C2([H])N([H])C(=O)C1([H])N(C(=O)C([H])(N([H])C(=O)C([H])(N([H])C([H])([H])[H])C([H])([H])[H])C(C([H])([H])[H])(C([H])([H])[H])C([H])([H])[H])C([H])([H])c2c([H])c(OC([H])([H])C(=O)N([H])C([H])([H])C([H])([H])C([H])([H])C([H])([H])C([H])([H])C([H])([H])C([H])([H])C(=O)N([H])C([H])(C(=O)N([H])N([H])C(=O)N3C([H])([H])C([H])([H])C([H])([H])C([H])(n4nc(-c5c([H])c([H])c(Oc6c([H])c([H])c(F)c([H])c6F)c([H])c5[H])c(C(=O)N([H])[H])c4N([H])[H])C3([H])[H])C([H])([H])[H])c([H])c([H])c2C1([H])[H]

$$$$
33:0:0
     RDKit          3D

 96103  0  0  1  0  0  0  0  0999 V2000
  -28.4730  -24.0560   18.7240 C   0  0  0  0  0  3  0  0  0  0  0  0
  -27.0460  -23.6280   18.3130 C   0  0  0  0  0  0  0  0  0  0  0  0
  -26.8150  -23.2950   17.0420 N   0  0  0  0  0  0  0  0  0  0  0  0
  -26.1510  -23.5220   19.1510 O   0  0  0  0  0  0  0  0  0  0  0  0
  -27.5560  -23.3230   16.3530 H   0  0  0  0  0  0  0  0  0  0  0  0
  -25.9090  -22.9470   16.7630 H   0  0  0  0  0  0  0  0  0  0  0  0
  -29.3890  -21.8600   19.5340 C   0  0  0  0  0  0  0  0  0  0  0  0
  -28.9180  -23.1130   19.7950 N   0  0  0  0  0  0  0  0  0  0  0  0
  -29.8190  -21.5580   18.4180 O   0  0  0  0  0  0  0  0  0  0  0  0
  -28.5840  -23.3060   20.7270 H   0  0  0  0  0  0  0  0  0  0  0  0
  -29.3760  -20.7440   20.6260 C   0  0  0  0  0  2  0  0  0  0  0  0
  -29.7350  -18.2120   20.6270 C   0  0  0  0  0  0  0  0  0  0  0  0
  -30.0210  -19.4660   20.2020 N   0  0  0  0  0  0  0  0  0  0  0  0
  -28.8270  -17.9890   21.4280 O   0  0  0  0  0  0  0  0  0  0  0  0
  -30.7500  -19.5750   19.5080 H   0  0  0  0  0  0  0  0  0  0  0  0
  -30.5970  -17.0290   20.1070 C   0  0  0  0  0  2  0  0  0  0  0  0
  -30.7550  -14.5350   20.0250 C   0  0  0  0  0  0  0  0  0  0  0  0
  -30.3720  -12.3500   18.9420 C   0  0  0  0  0  2  0  0  0  0  0  0
  -29.3860  -12.5650   17.7740 C   0  0  0  0  0  2  0  0  0  0  0  0
  -27.9340  -12.4290   18.2690 C   0  0  0  0  0  2  0  0  0  0  0  0
  -27.6580  -13.2680   19.5460 C   0  0  0  0  0  3  0  0  0  0  0  0
  -28.7660  -13.0800   20.6060 C   0  0  0  0  0  2  0  0  0  0  0  0
  -30.0560  -13.3630   19.9660 N   0  0  0  0  0  0  0  0  0  0  0  0
  -31.8960  -14.6300   19.5710 O   0  0  0  0  0  0  0  0  0  0  0  0
  -30.0820  -15.6550   20.3750 N   0  0  0  0  0  0  0  0  0  0  0  0
  -29.1350  -15.5860   20.7170 H   0  0  0  0  0  0  0  0  0  0  0  0
  -25.3070  -13.8800   20.3920 C   0  0  0  0  0  0  0  0  0  0  0  0
  -24.2500  -13.1140   20.8030 C   0  0  0  0  0  0  0  0  0  0  0  0
  -24.6970  -11.7590   20.7290 C   0  0  0  0  0  0  0  0  0  0  0  0
  -26.3300  -12.9950   20.0920 N   0  0  0  0  0  0  0  0  0  0  0  0
  -25.9700  -11.7130   20.3570 N   0  0  0  0  0  0  0  0  0  0  0  0
  -23.9680  -10.5000   20.9360 C   0  0  0  0  0  0  0  0  0  0  0  0
  -24.4180   -9.5340   21.8600 C   0  0  0  0  0  3  0  0  0  0  0  0
  -23.6910   -8.3410   22.0580 C   0  0  0  0  0  3  0  0  0  0  0  0
  -22.5030   -8.1040   21.3290 C   0  0  0  0  0  0  0  0  0  0  0  0
  -22.0750   -9.0620   20.3920 C   0  0  0  0  0  3  0  0  0  0  0  0
  -22.8010  -10.2460   20.1910 C   0  0  0  0  0  3  0  0  0  0  0  0
  -21.7460   -6.9630   21.4340 O   0  0  0  0  0  0  0  0  0  0  0  0
  -21.6850   -6.2430   22.5990 C   0  0  0  0  0  0  0  0  0  0  0  0
  -21.2490   -6.8240   23.8110 C   0  0  0  0  0  3  0  0  0  0  0  0
  -21.1350   -6.0300   24.9700 C   0  0  0  0  0  3  0  0  0  0  0  0
  -21.4450   -4.6570   24.9180 C   0  0  0  0  0  0  0  0  0  0  0  0
  -21.8710   -4.0760   23.7100 C   0  0  0  0  0  3  0  0  0  0  0  0
  -21.9850   -4.8670   22.5530 C   0  0  0  0  0  0  0  0  0  0  0  0
  -22.3770   -4.2990   21.3880 F   0  0  0  0  0  0  0  0  0  0  0  0
  -21.3290   -3.8930   26.0290 F   0  0  0  0  0  0  0  0  0  0  0  0
  -22.8740  -13.6030   21.1510 C   0  0  0  0  0  0  0  0  0  0  0  0
  -22.1850  -12.9030   22.0450 N   0  0  0  0  0  0  0  0  0  0  0  0
  -22.4210  -14.6370   20.6630 O   0  0  0  0  0  0  0  0  0  0  0  0
  -22.5670  -12.0690   22.4670 H   0  0  0  0  0  0  0  0  0  0  0  0
  -21.2590  -13.2100   22.3160 H   0  0  0  0  0  0  0  0  0  0  0  0
  -25.4790  -15.2500   20.2180 N   0  0  0  0  0  0  0  0  0  0  0  0
  -24.7260  -15.9130   20.3550 H   0  0  0  0  0  0  0  0  0  0  0  0
  -26.3120  -15.6780   19.8340 H   0  0  0  0  0  0  0  0  0  0  0  0
  -28.6460  -25.6430   18.9500 C   0  0  0  0  0  2  0  0  0  0  0  0
  -28.3080  -26.4850   20.1090 O   0  0  0  0  0  0  0  0  0  0  0  0
  -24.6070  -31.8710   23.2170 C   0  0  0  0  0  0  0  0  0  0  0  0
  -27.1970  -27.3340   20.0840 C   0  0  0  0  0  0  0  0  0  0  0  0
  -23.3920  -30.4750   21.5840 C   0  0  0  0  0  3  0  0  0  0  0  0
  -24.8300  -28.9260   20.1480 C   0  0  0  0  0  0  0  0  0  0  0  0
  -25.9350  -30.7820   21.4010 C   0  0  0  0  0  2  0  0  0  0  0  0
  -26.0040  -29.4110   20.7390 C   0  0  0  0  0  0  0  0  0  0  0  0
  -27.1880  -28.6170   20.7130 C   0  0  0  0  0  3  0  0  0  0  0  0
  -25.9970  -26.8970   19.4960 C   0  0  0  0  0  3  0  0  0  0  0  0
  -24.8240  -27.6670   19.5320 C   0  0  0  0  0  3  0  0  0  0  0  0
  -23.5980  -29.8020   20.2030 C   0  0  0  0  0  2  0  0  0  0  0  0
  -24.6630  -31.0620   22.1210 N   0  0  0  0  0  0  0  0  0  0  0  0
  -23.5260  -32.1530   23.7550 O   0  0  0  0  0  0  0  0  0  0  0  0
  -22.7370  -29.4570   22.5460 C   0  0  0  0  0  0  0  0  0  0  0  0
  -21.4110  -29.2720   22.4180 N   0  0  0  0  0  0  0  0  0  0  0  0
  -23.4160  -28.8330   23.3660 O   0  0  0  0  0  0  0  0  0  0  0  0
  -20.9200  -29.8250   21.7270 H   0  0  0  0  0  0  0  0  0  0  0  0
  -18.0420  -28.0570   22.9020 C   0  0  0  0  0  0  0  0  0  0  0  0
  -20.5940  -28.3350   23.1890 C   0  0  0  0  0  3  0  0  0  0  0  0
  -20.7110  -26.9000   22.6270 C   0  0  0  0  0  2  0  0  0  0  0  0
  -19.6200  -26.5620   21.6070 C   0  0  0  0  0  2  0  0  0  0  0  0
  -18.2320  -26.7030   22.2400 C   0  0  0  0  0  2  0  0  0  0  0  0
  -19.1510  -28.8310   23.3330 C   0  0  0  0  0  0  0  0  0  0  0  0
  -18.9180  -30.0980   23.9100 C   0  0  0  0  0  3  0  0  0  0  0  0
  -17.6090  -30.5910   24.0620 C   0  0  0  0  0  3  0  0  0  0  0  0
  -16.5120  -29.8130   23.6490 C   0  0  0  0  0  3  0  0  0  0  0  0
  -16.7300  -28.5490   23.0730 C   0  0  0  0  0  3  0  0  0  0  0  0
  -25.8950  -32.5010   23.8340 C   0  0  0  0  0  3  0  0  0  0  0  0
  -25.5830  -33.8970   24.1720 N   0  0  0  0  0  0  0  0  0  0  0  0
  -25.8980  -34.9550   23.4130 C   0  0  0  0  0  0  0  0  0  0  0  0
  -26.5510  -34.8590   22.3710 O   0  0  0  0  0  0  0  0  0  0  0  0
  -24.9990  -34.0450   24.9810 H   0  0  0  0  0  0  0  0  0  0  0  0
  -24.1490  -36.7360   23.1070 C   0  0  0  0  0  1  0  0  0  0  0  0
  -25.4110  -36.3370   23.8870 C   0  0  0  0  0  3  0  0  0  0  0  0
  -27.5590  -37.2330   24.6680 C   0  0  0  0  0  1  0  0  0  0  0  0
  -26.4300  -37.4000   23.7570 N   0  0  0  0  0  0  0  0  0  0  0  0
  -26.0180  -38.3130   23.9270 H   0  0  0  0  0  0  0  0  0  0  0  0
  -26.4200  -31.7260   25.1050 C   0  0  1  0  0  0  0  0  0  0  0  0
  -25.3360  -31.4880   26.1820 C   0  0  0  0  0  1  0  0  0  0  0  0
  -26.9990  -30.3480   24.7100 C   0  0  0  0  0  1  0  0  0  0  0  0
  -27.5740  -32.5210   25.7610 C   0  0  0  0  0  1  0  0  0  0  0  0
  1 55  1  0
  1  8  1  0
  2  1  1  0
  2  4  2  0
  3  2  1  0
  5  3  1  0
  6  3  1  0
  7  8  1  0
  7 11  1  0
  8 10  1  0
  9  7  2  0
 12 14  2  0
 13 11  1  0
 13 12  1  0
 15 13  1  0
 16 25  1  0
 16 12  1  0
 17 25  1  0
 18 23  1  0
 19 20  1  0
 19 18  1  0
 21 20  1  0
 21 30  1  0
 21 22  1  0
 23 17  1  0
 23 22  1  0
 24 17  2  0
 25 26  1  0
 27 28  2  0
 28 47  1  0
 29 28  1  0
 29 32  1  0
 30 31  1  0
 30 27  1  0
 31 29  2  0
 32 33  1  0
 33 34  2  0
 35 38  1  0
 35 34  1  0
 36 35  2  0
 37 36  1  0
 37 32  2  0
 38 39  1  0
 39 40  1  0
 40 41  2  0
 42 41  1  0
 42 46  1  0
 43 42  2  0
 44 39  2  0
 44 43  1  0
 45 44  1  0
 47 48  1  0
 48 51  1  0
 48 50  1  0
 49 47  2  0
 52 53  1  0
 52 27  1  0
 54 52  1  0
 55 56  1  0
 57 68  2  0
 58 56  1  0
 58 63  1  0
 59 67  1  0
 59 69  1  0
 60 66  1  0
 60 62  1  0
 61 67  1  0
 62 61  1  0
 63 62  2  0
 64 65  1  0
 64 58  2  0
 65 60  2  0
 66 59  1  0
 67 57  1  0
 69 71  2  0
 70 69  1  0
 72 70  1  0
 73 82  2  0
 73 78  1  0
 74 70  1  0
 74 78  1  0
 75 74  1  0
 76 77  1  0
 76 75  1  0
 77 73  1  0
 78 79  2  0
 79 80  1  0
 81 80  2  0
 82 81  1  0
 83 57  1  0
 83 84  1  0
 83 93  1  0
 84 87  1  0
 85 89  1  0
 85 84  1  0
 86 85  2  0
 89 88  1  0
 91 89  1  0
 91 92  1  0
 91 90  1  0
 93 96  1  1
 93 94  1  0
 95 93  1  0
M  ISO  4  17 100  25 100  55 101  56 101
M  END
>  <TORSDO>  (32) 
F 22

>  <SCORE>  (32) 
-12.319

>  <name>  (32) 
33

>  <ligand_id>  (32) 
33

>  <original_smiles>  (32) 
[H]c1c([H])c([H])c2c(c1[H])C([H])([H])C([H])([H])C([H])([H])C2([H])N([H])C(=O)C1([H])N(C(=O)C([H])(N([H])C(=O)C([H])(N([H])C([H])([H])[H])C([H])([H])[H])C(C([H])([H])[H])(C([H])([H])[H])C([H])([H])[H])C([H])([H])c2c([H])c(OC([H])([H])C([H])(C(=O)N([H])[H])N([H])C(=O)C([H])([H])N([H])C(=O)C([H])([H])N([H])C(=O)N3C([H])([H])C([H])([H])C([H])([H])C([H])(n4nc(-c5c([H])c([H])c(Oc6c([H])c([H])c(F)c([H])c6F)c([H])c5[H])c(C(=O)N([H])[H])c4N([H])[H])C3([H])[H])c([H])c([H])c2C1([H])[H]

>  <smiles>  (32) 
[H]c1c([H])c([H])c2c(c1[H])C([H])([H])C([H])([H])C([H])([H])C2([H])N([H])C(=O)C1([H])N(C(=O)C([H])(N([H])C(=O)C([H])(N([H])C([H])([H])[H])C([H])([H])[H])C(C([H])([H])[H])(C([H])([H])[H])C([H])([H])[H])C([H])([H])c2c([H])c(OC([H])([H])C([H])(C(=O)N([H])[H])N([H])C(=O)C([H])([H])N([H])C(=O)C([H])([H])N([H])C(=O)N3C([H])([H])C([H])([H])C([H])([H])C([H])(n4nc(-c5c([H])c([H])c(Oc6c([H])c([H])c(F)c([H])c6F)c([H])c5[H])c(C(=O)N([H])[H])c4N([H])[H])C3([H])[H])c([H])c([H])c2C1([H])[H]

$$$$
34:0:0
     RDKit          3D

108115  0  0  1  0  0  0  0  0999 V2000
  -31.7720  -19.2870   19.7210 C   0  0  0  0  0  3  0  0  0  0  0  0
  -30.8930  -21.6100   19.5490 C   0  0  0  0  0  0  0  0  0  0  0  0
  -31.9030  -20.7420   19.6130 N   0  0  0  0  0  0  0  0  0  0  0  0
  -29.7130  -21.2490   19.4560 O   0  0  0  0  0  0  0  0  0  0  0  0
  -32.8340  -21.1180   19.7010 H   0  0  0  0  0  0  0  0  0  0  0  0
  -32.1370  -23.4540   20.8410 C   0  0  0  0  0  1  0  0  0  0  0  0
  -31.2560  -23.0970   19.6290 C   0  0  0  0  0  3  0  0  0  0  0  0
  -29.8460  -25.1230   19.2610 C   0  0  0  0  0  0  0  0  0  0  0  0
  -30.0230  -23.8620   19.6580 N   0  0  0  0  0  0  0  0  0  0  0  0
  -30.7650  -25.8430   18.8630 O   0  0  0  0  0  0  0  0  0  0  0  0
  -29.2050  -23.3210   19.9150 H   0  0  0  0  0  0  0  0  0  0  0  0
  -28.4150  -25.6380   19.3280 C   0  0  0  0  0  2  0  0  0  0  0  0
  -28.3750  -26.8130   20.1310 O   0  0  0  0  0  0  0  0  0  0  0  0
  -24.5670  -31.9330   23.2680 C   0  0  0  0  0  0  0  0  0  0  0  0
  -27.1770  -27.4910   20.1690 C   0  0  0  0  0  0  0  0  0  0  0  0
  -23.3470  -30.5240   21.6430 C   0  0  0  0  0  3  0  0  0  0  0  0
  -24.7830  -28.9850   20.2200 C   0  0  0  0  0  0  0  0  0  0  0  0
  -25.8720  -30.8820   21.4270 C   0  0  0  0  0  2  0  0  0  0  0  0
  -25.9460  -29.5080   20.7960 C   0  0  0  0  0  0  0  0  0  0  0  0
  -27.1450  -28.7630   20.7790 C   0  0  0  0  0  3  0  0  0  0  0  0
  -25.9830  -26.9690   19.6120 C   0  0  0  0  0  3  0  0  0  0  0  0
  -24.7910  -27.7090   19.6370 C   0  0  0  0  0  3  0  0  0  0  0  0
  -23.5440  -29.8450   20.2640 C   0  0  0  0  0  2  0  0  0  0  0  0
  -24.6140  -31.1270   22.1700 N   0  0  0  0  0  0  0  0  0  0  0  0
  -23.4900  -32.2070   23.8150 O   0  0  0  0  0  0  0  0  0  0  0  0
  -22.7080  -29.5000   22.6100 C   0  0  0  0  0  0  0  0  0  0  0  0
  -21.3890  -29.2870   22.4670 N   0  0  0  0  0  0  0  0  0  0  0  0
  -23.3940  -28.9020   23.4430 O   0  0  0  0  0  0  0  0  0  0  0  0
  -20.8980  -29.8250   21.7670 H   0  0  0  0  0  0  0  0  0  0  0  0
  -18.0390  -28.0220   22.9220 C   0  0  0  0  0  0  0  0  0  0  0  0
  -20.5820  -28.3500   23.2440 C   0  0  0  0  0  3  0  0  0  0  0  0
  -20.7320  -26.9080   22.7090 C   0  0  0  0  0  2  0  0  0  0  0  0
  -19.6610  -26.5320   21.6790 C   0  0  0  0  0  2  0  0  0  0  0  0
  -18.2610  -26.6600   22.2870 C   0  0  0  0  0  2  0  0  0  0  0  0
  -19.1280  -28.8220   23.3580 C   0  0  0  0  0  0  0  0  0  0  0  0
  -18.8660  -30.0950   23.9110 C   0  0  0  0  0  3  0  0  0  0  0  0
  -17.5470  -30.5690   24.0320 C   0  0  0  0  0  3  0  0  0  0  0  0
  -16.4700  -29.7670   23.6110 C   0  0  0  0  0  3  0  0  0  0  0  0
  -16.7170  -28.4950   23.0640 C   0  0  0  0  0  3  0  0  0  0  0  0
  -25.8590  -32.5650   23.8730 C   0  0  0  0  0  3  0  0  0  0  0  0
  -26.3850  -31.8030   25.1500 C   0  0  1  0  0  0  0  0  0  0  0  0
  -25.2990  -31.5710   26.2260 C   0  0  0  0  0  1  0  0  0  0  0  0
  -26.9690  -30.4250   24.7610 C   0  0  0  0  0  1  0  0  0  0  0  0
  -27.5390  -32.6040   25.7970 C   0  0  0  0  0  1  0  0  0  0  0  0
  -25.5540  -33.9660   24.1910 N   0  0  0  0  0  0  0  0  0  0  0  0
  -25.8980  -35.0100   23.4260 C   0  0  0  0  0  0  0  0  0  0  0  0
  -26.5780  -34.8960   22.4030 O   0  0  0  0  0  0  0  0  0  0  0  0
  -24.9500  -34.1290   24.9840 H   0  0  0  0  0  0  0  0  0  0  0  0
  -24.1880  -36.8090   23.0320 C   0  0  0  0  0  1  0  0  0  0  0  0
  -25.4100  -36.4020   23.8690 C   0  0  0  0  0  3  0  0  0  0  0  0
  -27.5390  -37.2730   24.7310 C   0  0  0  0  0  1  0  0  0  0  0  0
  -26.4490  -37.4510   23.7730 N   0  0  0  0  0  0  0  0  0  0  0  0
  -26.0460  -38.3710   23.9210 H   0  0  0  0  0  0  0  0  0  0  0  0
  -31.2450  -18.9020   21.1180 C   0  0  0  0  0  0  0  0  0  0  0  0
  -30.3630  -17.9000   21.1680 N   0  0  0  0  0  0  0  0  0  0  0  0
  -31.6660  -19.4710   22.1300 O   0  0  0  0  0  0  0  0  0  0  0  0
  -30.0230  -17.5330   20.2880 H   0  0  0  0  0  0  0  0  0  0  0  0
  -29.9130  -17.2270   22.3800 C   0  0  0  0  0  2  0  0  0  0  0  0
  -30.9360  -16.1850   22.8890 C   0  0  0  0  0  2  0  0  0  0  0  0
  -31.6350  -15.3310   21.8120 C   0  0  0  0  0  2  0  0  0  0  0  0
  -30.7490  -14.0700   19.8480 C   0  0  0  0  0  0  0  0  0  0  0  0
  -30.1140  -12.1490   18.4360 C   0  0  0  0  0  2  0  0  0  0  0  0
  -29.0340  -12.4520   17.3850 C   0  0  0  0  0  2  0  0  0  0  0  0
  -27.6250  -12.3340   17.9900 C   0  0  0  0  0  2  0  0  0  0  0  0
  -27.4810  -13.1200   19.3180 C   0  0  0  0  0  3  0  0  0  0  0  0
  -28.6380  -12.7800   20.2760 C   0  0  0  0  0  2  0  0  0  0  0  0
  -29.9190  -13.0340   19.5880 N   0  0  0  0  0  0  0  0  0  0  0  0
  -31.6010  -14.4990   19.0640 O   0  0  0  0  0  0  0  0  0  0  0  0
  -30.6880  -14.4670   21.1220 N   0  0  0  0  0  0  0  0  0  0  0  0
  -29.9950  -13.9980   21.6850 H   0  0  0  0  0  0  0  0  0  0  0  0
  -25.1800  -13.7790   20.2740 C   0  0  0  0  0  0  0  0  0  0  0  0
  -24.1480  -13.0230   20.7650 C   0  0  0  0  0  0  0  0  0  0  0  0
  -24.5880  -11.6640   20.7030 C   0  0  0  0  0  0  0  0  0  0  0  0
  -26.1830  -12.8790   19.9450 N   0  0  0  0  0  0  0  0  0  0  0  0
  -25.8360  -11.6050   20.2590 N   0  0  0  0  0  0  0  0  0  0  0  0
  -23.8730  -10.4130   20.9830 C   0  0  0  0  0  0  0  0  0  0  0  0
  -24.3640   -9.4750   21.9170 C   0  0  0  0  0  3  0  0  0  0  0  0
  -23.6510   -8.2860   22.1800 C   0  0  0  0  0  3  0  0  0  0  0  0
  -22.4300   -8.0290   21.5110 C   0  0  0  0  0  0  0  0  0  0  0  0
  -21.9590   -8.9550   20.5640 C   0  0  0  0  0  3  0  0  0  0  0  0
  -22.6740  -10.1350   20.2990 C   0  0  0  0  0  3  0  0  0  0  0  0
  -21.6830   -6.8890   21.6840 O   0  0  0  0  0  0  0  0  0  0  0  0
  -21.6780   -6.2040   22.8730 C   0  0  0  0  0  0  0  0  0  0  0  0
  -21.2930   -6.8190   24.0840 C   0  0  0  0  0  3  0  0  0  0  0  0
  -21.2380   -6.0610   25.2710 C   0  0  0  0  0  3  0  0  0  0  0  0
  -21.5550   -4.6900   25.2480 C   0  0  0  0  0  0  0  0  0  0  0  0
  -21.9320   -4.0750   24.0410 C   0  0  0  0  0  3  0  0  0  0  0  0
  -21.9900   -4.8300   22.8570 C   0  0  0  0  0  0  0  0  0  0  0  0
  -22.3340   -4.2270   21.6930 F   0  0  0  0  0  0  0  0  0  0  0  0
  -21.4920   -3.9600   26.3850 F   0  0  0  0  0  0  0  0  0  0  0  0
  -22.7920  -13.5180   21.1770 C   0  0  0  0  0  0  0  0  0  0  0  0
  -22.1550  -12.8450   22.1290 N   0  0  0  0  0  0  0  0  0  0  0  0
  -22.3050  -14.5370   20.6860 O   0  0  0  0  0  0  0  0  0  0  0  0
  -22.5570  -12.0160   22.5410 H   0  0  0  0  0  0  0  0  0  0  0  0
  -21.2510  -13.1630   22.4500 H   0  0  0  0  0  0  0  0  0  0  0  0
  -25.3410  -15.1460   20.0640 N   0  0  0  0  0  0  0  0  0  0  0  0
  -24.6020  -15.8140   20.2580 H   0  0  0  0  0  0  0  0  0  0  0  0
  -26.1580  -15.5710   19.6430 H   0  0  0  0  0  0  0  0  0  0  0  0
  -33.1440  -18.5860   19.4840 C   0  0  0  0  0  2  0  0  0  0  0  0
  -34.3690  -19.7790   17.6460 C   0  0  0  0  0  0  0  0  0  0  0  0
  -35.2650  -20.7010   17.3200 N   0  0  0  0  0  0  0  0  0  0  0  0
  -33.6620  -19.1800   16.6900 N   0  0  0  0  0  4  0  0  0  0  0  0
  -34.1830  -19.4820   18.9370 N   0  0  0  0  0  0  0  0  0  0  0  0
  -35.4310  -20.9830   16.3640 H   0  0  0  0  0  0  0  0  0  0  0  0
  -35.8150  -21.1770   18.0240 H   0  0  0  0  0  0  0  0  0  0  0  0
  -33.7780  -19.4110   15.7120 H   0  0  0  0  0  0  0  0  0  0  0  0
  -33.0440  -18.4100   16.8940 H   0  0  0  0  0  0  0  0  0  0  0  0
  -34.7940  -19.8910   19.6320 H   0  0  0  0  0  0  0  0  0  0  0  0
  1 99  1  0
  1 54  1  0
  2  3  1  0
  2  7  1  0
  3  5  1  0
  3  1  1  0
  4  2  2  0
  7  9  1  0
  7  6  1  0
  8 12  1  0
  8  9  1  0
  9 11  1  0
 10  8  2  0
 12 13  1  0
 13 15  1  0
 14 25  2  0
 15 20  1  0
 16 24  1  0
 16 26  1  0
 17 23  1  0
 17 19  1  0
 18 24  1  0
 19 18  1  0
 20 19  2  0
 21 22  1  0
 21 15  2  0
 22 17  2  0
 23 16  1  0
 24 14  1  0
 26 28  2  0
 27 26  1  0
 29 27  1  0
 30 39  2  0
 30 35  1  0
 31 27  1  0
 31 35  1  0
 32 31  1  0
 33 34  1  0
 33 32  1  0
 34 30  1  0
 35 36  2  0
 36 37  1  0
 38 37  2  0
 39 38  1  0
 40 14  1  0
 40 45  1  0
 40 41  1  0
 41 44  1  1
 41 42  1  0
 43 41  1  0
 45 48  1  0
 46 50  1  0
 46 45  1  0
 47 46  2  0
 50 49  1  0
 52 50  1  0
 52 53  1  0
 52 51  1  0
 54 55  1  0
 54 56  2  0
 55 58  1  0
 57 55  1  0
 58 59  1  0
 60 59  1  0
 61 69  1  0
 62 67  1  0
 63 64  1  0
 63 62  1  0
 65 64  1  0
 65 74  1  0
 65 66  1  0
 67 61  1  0
 67 66  1  0
 68 61  2  0
 69 70  1  0
 69 60  1  0
 71 72  2  0
 72 91  1  0
 73 72  1  0
 73 76  1  0
 74 75  1  0
 74 71  1  0
 75 73  2  0
 76 77  1  0
 77 78  2  0
 79 82  1  0
 79 78  1  0
 80 79  2  0
 81 80  1  0
 81 76  2  0
 82 83  1  0
 83 84  1  0
 84 85  2  0
 86 85  1  0
 86 90  1  0
 87 86  2  0
 88 83  2  0
 88 87  1  0
 89 88  1  0
 91 92  1  0
 92 95  1  0
 92 94  1  0
 93 91  2  0
 96 97  1  0
 96 71  1  0
 98 96  1  0
100103  1  0
101100  1  0
101105  1  0
102107  1  0
102100  2  0
103 99  1  0
103108  1  0
104101  1  0
106102  1  0
M  ISO  4  12 101  13 101  61 100  69 100
M  END
>  <TORSDO>  (33) 
F 26

>  <SCORE>  (33) 
-9.748

>  <name>  (33) 
34

>  <ligand_id>  (33) 
34

>  <original_smiles>  (33) 
[H]c1c([H])c([H])c2c(c1[H])C([H])([H])C([H])([H])C([H])([H])C2([H])N([H])C(=O)C1([H])N(C(=O)C([H])(N([H])C(=O)C([H])(N([H])C([H])([H])[H])C([H])([H])[H])C(C([H])([H])[H])(C([H])([H])[H])C([H])([H])[H])C([H])([H])c2c([H])c(OC([H])([H])C(=O)N([H])C([H])(C(=O)N([H])C([H])(C(=O)N([H])C([H])([H])C([H])([H])C([H])([H])N([H])C(=O)N3C([H])([H])C([H])([H])C([H])([H])C([H])(n4nc(-c5c([H])c([H])c(Oc6c([H])c([H])c(F)c([H])c6F)c([H])c5[H])c(C(=O)N([H])[H])c4N([H])[H])C3([H])[H])C([H])([H])N([H])C(N([H])[H])=[N+]([H])[H])C([H])([H])[H])c([H])c([H])c2C1([H])[H]

>  <smiles>  (33) 
[H]c1c([H])c([H])c2c(c1[H])C([H])([H])C([H])([H])C([H])([H])C2([H])N([H])C(=O)C1([H])N(C(=O)C([H])(N([H])C(=O)C([H])(N([H])C([H])([H])[H])C([H])([H])[H])C(C([H])([H])[H])(C([H])([H])[H])C([H])([H])[H])C([H])([H])c2c([H])c(OC([H])([H])C(=O)N([H])C([H])(C(=O)N([H])C([H])(C(=O)N([H])C([H])([H])C([H])([H])C([H])([H])N([H])C(=O)N3C([H])([H])C([H])([H])C([H])([H])C([H])(n4nc(-c5c([H])c([H])c(Oc6c([H])c([H])c(F)c([H])c6F)c([H])c5[H])c(C(=O)N([H])[H])c4N([H])[H])C3([H])[H])C([H])([H])N([H])C(N([H])[H])=[N+]([H])[H])C([H])([H])[H])c([H])c([H])c2C1([H])[H]

$$$$
35:0:0
     RDKit          3D

 91 99  0  0  1  0  0  0  0  0999 V2000
  -30.1790  -21.6710   20.3980 C   0  0  0  0  0  0  0  0  0  0  0  0
  -29.1730  -22.5860   20.2460 N   0  0  0  0  0  0  0  0  0  0  0  0
  -31.3280  -22.0690   20.5980 O   0  0  0  0  0  0  0  0  0  0  0  0
  -28.2420  -22.2410   20.0600 H   0  0  0  0  0  0  0  0  0  0  0  0
  -31.0220  -19.3220   19.7700 C   0  0  0  0  0  3  0  0  0  0  0  0
  -28.8810  -19.4340   20.8510 C   0  0  0  0  0  3  0  0  0  0  0  0
  -31.0010  -17.8960   19.8140 C   0  0  0  0  0  3  0  0  0  0  0  0
  -28.8560  -18.0010   20.8960 C   0  0  0  0  0  3  0  0  0  0  0  0
  -29.9810  -20.1400   20.2980 C   0  0  0  0  0  0  0  0  0  0  0  0
  -29.9200  -17.1870   20.4050 C   0  0  0  0  0  0  0  0  0  0  0  0
  -30.5960  -14.6910   20.0440 C   0  0  0  0  0  0  0  0  0  0  0  0
  -30.3130  -12.4890   18.9190 C   0  0  0  0  0  2  0  0  0  0  0  0
  -29.2970  -12.6830   17.7720 C   0  0  0  0  0  2  0  0  0  0  0  0
  -27.8510  -12.5140   18.2840 C   0  0  0  0  0  2  0  0  0  0  0  0
  -27.5820  -13.3230   19.5820 C   0  0  0  0  0  3  0  0  0  0  0  0
  -28.7050  -13.1070   20.6210 C   0  0  0  0  0  2  0  0  0  0  0  0
  -29.9790  -13.4670   19.9750 N   0  0  0  0  0  0  0  0  0  0  0  0
  -31.7270  -14.8550   19.5770 O   0  0  0  0  0  0  0  0  0  0  0  0
  -29.8260  -15.7250   20.5120 N   0  0  0  0  0  0  0  0  0  0  0  0
  -28.9720  -15.3980   20.9420 H   0  0  0  0  0  0  0  0  0  0  0  0
  -25.2420  -13.9130   20.4650 C   0  0  0  0  0  0  0  0  0  0  0  0
  -24.1930  -13.1380   20.8740 C   0  0  0  0  0  0  0  0  0  0  0  0
  -24.6380  -11.7850   20.7710 C   0  0  0  0  0  0  0  0  0  0  0  0
  -26.2610  -13.0330   20.1350 N   0  0  0  0  0  0  0  0  0  0  0  0
  -25.9070  -11.7450   20.3790 N   0  0  0  0  0  0  0  0  0  0  0  0
  -23.9130  -10.5230   20.9670 C   0  0  0  0  0  0  0  0  0  0  0  0
  -24.3600   -9.5490   21.8870 C   0  0  0  0  0  3  0  0  0  0  0  0
  -23.6350   -8.3520   22.0710 C   0  0  0  0  0  3  0  0  0  0  0  0
  -22.4500   -8.1180   21.3330 C   0  0  0  0  0  0  0  0  0  0  0  0
  -22.0230   -9.0800   20.4020 C   0  0  0  0  0  3  0  0  0  0  0  0
  -22.7480  -10.2690   20.2160 C   0  0  0  0  0  3  0  0  0  0  0  0
  -21.6980   -6.9730   21.4260 O   0  0  0  0  0  0  0  0  0  0  0  0
  -21.6200   -6.2550   22.5930 C   0  0  0  0  0  0  0  0  0  0  0  0
  -21.1390   -6.8290   23.7890 C   0  0  0  0  0  3  0  0  0  0  0  0
  -21.0120   -6.0360   24.9480 C   0  0  0  0  0  3  0  0  0  0  0  0
  -21.3520   -4.6700   24.9090 C   0  0  0  0  0  0  0  0  0  0  0  0
  -21.8260   -4.0960   23.7160 C   0  0  0  0  0  3  0  0  0  0  0  0
  -21.9560   -4.8870   22.5590 C   0  0  0  0  0  0  0  0  0  0  0  0
  -22.3930   -4.3240   21.4070 F   0  0  0  0  0  0  0  0  0  0  0  0
  -21.2220   -3.9060   26.0180 F   0  0  0  0  0  0  0  0  0  0  0  0
  -22.8200  -13.6170   21.2470 C   0  0  0  0  0  0  0  0  0  0  0  0
  -22.1420  -12.9000   22.1360 N   0  0  0  0  0  0  0  0  0  0  0  0
  -22.3600  -14.6620   20.7880 O   0  0  0  0  0  0  0  0  0  0  0  0
  -22.5270  -12.0570   22.5340 H   0  0  0  0  0  0  0  0  0  0  0  0
  -21.2220  -13.2040   22.4250 H   0  0  0  0  0  0  0  0  0  0  0  0
  -25.4090  -15.2880   20.3240 N   0  0  0  0  0  0  0  0  0  0  0  0
  -24.6500  -15.9380   20.4920 H   0  0  0  0  0  0  0  0  0  0  0  0
  -26.2290  -15.7330   19.9330 H   0  0  0  0  0  0  0  0  0  0  0  0
  -29.3780  -24.0850   20.3590 C   0  0  0  0  0  3  0  0  0  0  0  0
  -28.1920  -25.0630   19.9560 C   0  0  0  0  0  3  0  0  0  0  0  0
  -28.3730  -26.5180   20.1900 O   0  0  0  0  0  0  0  0  0  0  0  0
  -24.6130  -31.8710   23.2430 C   0  0  0  0  0  0  0  0  0  0  0  0
  -27.2450  -27.3550   20.1430 C   0  0  0  0  0  0  0  0  0  0  0  0
  -23.4170  -30.4890   21.5810 C   0  0  0  0  0  3  0  0  0  0  0  0
  -24.8730  -28.9560   20.1450 C   0  0  0  0  0  0  0  0  0  0  0  0
  -25.9550  -30.8150   21.4100 C   0  0  0  0  0  2  0  0  0  0  0  0
  -26.0380  -29.4440   20.7490 C   0  0  0  0  0  0  0  0  0  0  0  0
  -27.2270  -28.6550   20.7390 C   0  0  0  0  0  3  0  0  0  0  0  0
  -26.0540  -26.9220   19.5140 C   0  0  0  0  0  3  0  0  0  0  0  0
  -24.8820  -27.7010   19.5210 C   0  0  0  0  0  3  0  0  0  0  0  0
  -23.6340  -29.8270   20.1960 C   0  0  0  0  0  2  0  0  0  0  0  0
  -24.6810  -31.0750   22.1350 N   0  0  0  0  0  0  0  0  0  0  0  0
  -23.5260  -32.1430   23.7750 O   0  0  0  0  0  0  0  0  0  0  0  0
  -22.7510  -29.4630   22.5280 C   0  0  0  0  0  0  0  0  0  0  0  0
  -21.4260  -29.2850   22.3910 N   0  0  0  0  0  0  0  0  0  0  0  0
  -23.4260  -28.8260   23.3420 O   0  0  0  0  0  0  0  0  0  0  0  0
  -20.9430  -29.8500   21.7070 H   0  0  0  0  0  0  0  0  0  0  0  0
  -18.0420  -28.1010   22.8730 C   0  0  0  0  0  0  0  0  0  0  0  0
  -20.6020  -28.3400   23.1450 C   0  0  0  0  0  3  0  0  0  0  0  0
  -20.6960  -26.9180   22.5460 C   0  0  0  0  0  2  0  0  0  0  0  0
  -19.5890  -26.6190   21.5270 C   0  0  0  0  0  2  0  0  0  0  0  0
  -18.2090  -26.7610   22.1750 C   0  0  0  0  0  2  0  0  0  0  0  0
  -19.1660  -28.8490   23.3140 C   0  0  0  0  0  0  0  0  0  0  0  0
  -18.9550  -30.1030   23.9260 C   0  0  0  0  0  3  0  0  0  0  0  0
  -17.6540  -30.6100   24.1030 C   0  0  0  0  0  3  0  0  0  0  0  0
  -16.5450  -29.8590   23.6770 C   0  0  0  0  0  3  0  0  0  0  0  0
  -16.7390  -28.6060   23.0690 C   0  0  0  0  0  3  0  0  0  0  0  0
  -25.8930  -32.4950   23.8780 C   0  0  0  0  0  3  0  0  0  0  0  0
  -26.3930  -31.7180   25.1580 C   0  0  1  0  0  0  0  0  0  0  0  0
  -25.2870  -31.4800   26.2130 C   0  0  0  0  0  1  0  0  0  0  0  0
  -26.9790  -30.3410   24.7660 C   0  0  0  0  0  1  0  0  0  0  0  0
  -27.5370  -32.5080   25.8370 C   0  0  0  0  0  1  0  0  0  0  0  0
  -25.5860  -33.8940   24.2130 N   0  0  0  0  0  0  0  0  0  0  0  0
  -25.9070  -34.9460   23.4480 C   0  0  0  0  0  0  0  0  0  0  0  0
  -26.5640  -34.8430   22.4090 O   0  0  0  0  0  0  0  0  0  0  0  0
  -25.0030  -34.0500   25.0210 H   0  0  0  0  0  0  0  0  0  0  0  0
  -24.1630  -36.7300   23.1290 C   0  0  0  0  0  1  0  0  0  0  0  0
  -25.4260  -36.3340   23.9110 C   0  0  0  0  0  3  0  0  0  0  0  0
  -27.5720  -37.2370   24.6910 C   0  0  0  0  0  1  0  0  0  0  0  0
  -26.4490  -37.3920   23.7680 N   0  0  0  0  0  0  0  0  0  0  0  0
  -26.0410  -38.3110   23.9170 H   0  0  0  0  0  0  0  0  0  0  0  0
  1  3  2  0
  2 49  1  0
  2  1  1  0
  4  2  1  0
  5  7  2  0
  5  9  1  0
  6  8  1  0
  7 10  1  0
  9  1  1  0
  9  6  2  0
 10 19  1  0
 10  8  2  0
 11 19  1  0
 12 17  1  0
 13 14  1  0
 13 12  1  0
 15 14  1  0
 15 24  1  0
 15 16  1  0
 17 11  1  0
 17 16  1  0
 18 11  2  0
 19 20  1  0
 21 22  2  0
 22 41  1  0
 23 22  1  0
 23 26  1  0
 24 25  1  0
 24 21  1  0
 25 23  2  0
 26 27  1  0
 27 28  2  0
 29 32  1  0
 29 28  1  0
 30 29  2  0
 31 30  1  0
 31 26  2  0
 32 33  1  0
 33 34  1  0
 34 35  2  0
 36 35  1  0
 36 40  1  0
 37 36  2  0
 38 33  2  0
 38 37  1  0
 39 38  1  0
 41 42  1  0
 42 45  1  0
 42 44  1  0
 43 41  2  0
 46 21  1  0
 46 47  1  0
 48 46  1  0
 50 51  1  0
 50 49  2  0
 52 63  2  0
 53 51  1  0
 53 58  1  0
 54 62  1  0
 54 64  1  0
 55 61  1  0
 55 57  1  0
 56 62  1  0
 57 56  1  0
 58 57  2  0
 59 60  1  0
 59 53  2  0
 60 55  2  0
 61 54  1  0
 62 52  1  0
 64 66  2  0
 65 64  1  0
 67 65  1  0
 68 77  2  0
 68 73  1  0
 69 65  1  0
 69 73  1  0
 70 69  1  0
 71 72  1  0
 71 70  1  0
 72 68  1  0
 73 74  2  0
 74 75  1  0
 76 75  2  0
 77 76  1  0
 78 52  1  0
 78 83  1  0
 78 79  1  0
 79 82  1  1
 79 80  1  0
 81 79  1  0
 83 86  1  0
 84 88  1  0
 84 83  1  0
 85 84  2  0
 88 87  1  0
 90 88  1  0
 90 91  1  0
 90 89  1  0
M  ISO  4  11 100  19 100  50 101  51 101
M  END
>  <TORSDO>  (34) 
F 19

>  <SCORE>  (34) 
-13.884

>  <name>  (34) 
35

>  <ligand_id>  (34) 
35

>  <original_smiles>  (34) 
[H]c1c([H])c([H])c2c(c1[H])C([H])([H])C([H])([H])C([H])([H])C2([H])N([H])C(=O)C1([H])N(C(=O)C([H])(N([H])C(=O)C([H])(N([H])C([H])([H])[H])C([H])([H])[H])C(C([H])([H])[H])(C([H])([H])[H])C([H])([H])[H])C([H])([H])c2c([H])c(OC([H])([H])C([H])([H])N([H])C(=O)c3c([H])c([H])c(N([H])C(=O)N4C([H])([H])C([H])([H])C([H])([H])C([H])(n5nc(-c6c([H])c([H])c(Oc7c([H])c([H])c(F)c([H])c7F)c([H])c6[H])c(C(=O)N([H])[H])c5N([H])[H])C4([H])[H])c([H])c3[H])c([H])c([H])c2C1([H])[H]

>  <smiles>  (34) 
[H]c1c([H])c([H])c2c(c1[H])C([H])([H])C([H])([H])C([H])([H])C2([H])N([H])C(=O)C1([H])N(C(=O)C([H])(N([H])C(=O)C([H])(N([H])C([H])([H])[H])C([H])([H])[H])C(C([H])([H])[H])(C([H])([H])[H])C([H])([H])[H])C([H])([H])c2c([H])c(OC([H])([H])C([H])([H])N([H])C(=O)c3c([H])c([H])c(N([H])C(=O)N4C([H])([H])C([H])([H])C([H])([H])C([H])(n5nc(-c6c([H])c([H])c(Oc7c([H])c([H])c(F)c([H])c7F)c([H])c6[H])c(C(=O)N([H])[H])c5N([H])[H])C4([H])[H])c([H])c3[H])c([H])c([H])c2C1([H])[H]

$$$$
36:0:0
     RDKit          3D

 91 98  0  0  1  0  0  0  0  0999 V2000
  -29.3330  -24.3880   21.0320 C   0  0  0  0  0  0  0  0  0  0  0  0
  -29.1570  -23.0850   21.3460 N   0  0  0  0  0  0  0  0  0  0  0  0
  -30.4530  -24.8930   20.9760 O   0  0  0  0  0  0  0  0  0  0  0  0
  -28.2080  -22.7490   21.4560 H   0  0  0  0  0  0  0  0  0  0  0  0
  -30.1700  -22.0060   21.3840 C   0  0  0  0  0  2  0  0  0  0  0  0
  -29.5080  -20.6270   21.0870 C   0  0  0  0  0  0  0  0  0  0  0  0
  -30.1960  -19.4750   21.2730 N   0  0  0  0  0  0  0  0  0  0  0  0
  -28.3460  -20.6030   20.6740 O   0  0  0  0  0  0  0  0  0  0  0  0
  -31.1340  -19.5370   21.6500 H   0  0  0  0  0  0  0  0  0  0  0  0
  -29.6690  -18.1240   20.9530 C   0  0  0  0  0  2  0  0  0  0  0  0
  -30.5910  -16.9420   21.3970 C   0  0  0  0  0  2  0  0  0  0  0  0
  -30.7000  -14.5490   20.5120 C   0  0  0  0  0  0  0  0  0  0  0  0
  -30.3850  -12.3740   19.3640 C   0  0  0  0  0  2  0  0  0  0  0  0
  -29.4530  -12.5410   18.1490 C   0  0  0  0  0  2  0  0  0  0  0  0
  -27.9750  -12.4020   18.5570 C   0  0  0  0  0  2  0  0  0  0  0  0
  -27.6270  -13.2490   19.8060 C   0  0  0  0  0  3  0  0  0  0  0  0
  -28.6760  -13.0920   20.9340 C   0  0  0  0  0  2  0  0  0  0  0  0
  -30.0000  -13.3860   20.3650 N   0  0  0  0  0  0  0  0  0  0  0  0
  -31.8220  -14.7000   20.0240 O   0  0  0  0  0  0  0  0  0  0  0  0
  -30.0640  -15.5760   21.1300 N   0  0  0  0  0  0  0  0  0  0  0  0
  -29.1500  -15.3560   21.5070 H   0  0  0  0  0  0  0  0  0  0  0  0
  -25.2280  -13.8760   20.4870 C   0  0  0  0  0  0  0  0  0  0  0  0
  -24.1470  -13.1120   20.8500 C   0  0  0  0  0  0  0  0  0  0  0  0
  -24.5990  -11.7600   20.8400 C   0  0  0  0  0  0  0  0  0  0  0  0
  -26.2650  -12.9840   20.2760 N   0  0  0  0  0  0  0  0  0  0  0  0
  -25.8930  -11.7070   20.5470 N   0  0  0  0  0  0  0  0  0  0  0  0
  -23.8570  -10.5060   21.0330 C   0  0  0  0  0  0  0  0  0  0  0  0
  -24.2800   -9.5330   21.9680 C   0  0  0  0  0  3  0  0  0  0  0  0
  -23.5350   -8.3460   22.1490 C   0  0  0  0  0  3  0  0  0  0  0  0
  -22.3600   -8.1240   21.3940 C   0  0  0  0  0  0  0  0  0  0  0  0
  -21.9580   -9.0830   20.4480 C   0  0  0  0  0  3  0  0  0  0  0  0
  -22.7010  -10.2620   20.2650 C   0  0  0  0  0  3  0  0  0  0  0  0
  -21.5930   -6.9870   21.4830 O   0  0  0  0  0  0  0  0  0  0  0  0
  -21.5470   -6.2390   22.6340 C   0  0  0  0  0  0  0  0  0  0  0  0
  -21.1490   -6.7990   23.8680 C   0  0  0  0  0  3  0  0  0  0  0  0
  -21.0450   -5.9840   25.0140 C   0  0  0  0  0  3  0  0  0  0  0  0
  -21.3300   -4.6080   24.9250 C   0  0  0  0  0  0  0  0  0  0  0  0
  -21.7210   -4.0470   23.6950 C   0  0  0  0  0  3  0  0  0  0  0  0
  -21.8250   -4.8610   22.5550 C   0  0  0  0  0  0  0  0  0  0  0  0
  -22.1810   -4.3120   21.3680 F   0  0  0  0  0  0  0  0  0  0  0  0
  -21.2230   -3.8200   26.0220 F   0  0  0  0  0  0  0  0  0  0  0  0
  -22.7510  -13.6050   21.0970 C   0  0  0  0  0  0  0  0  0  0  0  0
  -22.0080  -12.9300   21.9680 N   0  0  0  0  0  0  0  0  0  0  0  0
  -22.3260  -14.6280   20.5620 O   0  0  0  0  0  0  0  0  0  0  0  0
  -22.3630  -12.1050   22.4260 H   0  0  0  0  0  0  0  0  0  0  0  0
  -21.0740  -13.2450   22.1880 H   0  0  0  0  0  0  0  0  0  0  0  0
  -25.4140  -15.2420   20.2980 N   0  0  0  0  0  0  0  0  0  0  0  0
  -24.6640  -15.9190   20.3790 H   0  0  0  0  0  0  0  0  0  0  0  0
  -26.2810  -15.6550   19.9740 H   0  0  0  0  0  0  0  0  0  0  0  0
  -28.0600  -25.2280   20.7260 C   0  0  0  0  0  2  0  0  0  0  0  0
  -28.3310  -26.5890   20.2810 O   0  0  0  0  0  0  0  0  0  0  0  0
  -24.5670  -31.8790   23.2310 C   0  0  0  0  0  0  0  0  0  0  0  0
  -27.1970  -27.3870   20.1870 C   0  0  0  0  0  0  0  0  0  0  0  0
  -23.3600  -30.4710   21.5980 C   0  0  0  0  0  3  0  0  0  0  0  0
  -24.8140  -28.9330   20.1610 C   0  0  0  0  0  0  0  0  0  0  0  0
  -25.8880  -30.8210   21.3900 C   0  0  0  0  0  2  0  0  0  0  0  0
  -25.9740  -29.4450   20.7530 C   0  0  0  0  0  0  0  0  0  0  0  0
  -27.1730  -28.6870   20.7490 C   0  0  0  0  0  3  0  0  0  0  0  0
  -26.0220  -26.9070   19.5650 C   0  0  0  0  0  3  0  0  0  0  0  0
  -24.8410  -27.6730   19.5470 C   0  0  0  0  0  3  0  0  0  0  0  0
  -23.5700  -29.7930   20.2160 C   0  0  0  0  0  2  0  0  0  0  0  0
  -24.6240  -31.0750   22.1320 N   0  0  0  0  0  0  0  0  0  0  0  0
  -23.4850  -32.1540   23.7710 O   0  0  0  0  0  0  0  0  0  0  0  0
  -22.7110  -29.4550   22.5630 C   0  0  0  0  0  0  0  0  0  0  0  0
  -21.3840  -29.2740   22.4430 N   0  0  0  0  0  0  0  0  0  0  0  0
  -23.3960  -28.8320   23.3780 O   0  0  0  0  0  0  0  0  0  0  0  0
  -20.8930  -29.8320   21.7570 H   0  0  0  0  0  0  0  0  0  0  0  0
  -18.0110  -28.0770   22.9580 C   0  0  0  0  0  0  0  0  0  0  0  0
  -20.5700  -28.3370   23.2160 C   0  0  0  0  0  3  0  0  0  0  0  0
  -20.6680  -26.9020   22.6430 C   0  0  0  0  0  2  0  0  0  0  0  0
  -19.5620  -26.5770   21.6350 C   0  0  0  0  0  2  0  0  0  0  0  0
  -18.1840  -26.7270   22.2840 C   0  0  0  0  0  2  0  0  0  0  0  0
  -19.1300  -28.8410   23.3830 C   0  0  0  0  0  0  0  0  0  0  0  0
  -18.9100  -30.1060   23.9740 C   0  0  0  0  0  3  0  0  0  0  0  0
  -17.6050  -30.6030   24.1420 C   0  0  0  0  0  3  0  0  0  0  0  0
  -16.5000  -29.8370   23.7300 C   0  0  0  0  0  3  0  0  0  0  0  0
  -16.7050  -28.5750   23.1440 C   0  0  0  0  0  3  0  0  0  0  0  0
  -25.8520  -32.5180   23.8450 C   0  0  0  0  0  3  0  0  0  0  0  0
  -25.5350  -33.9100   24.1830 N   0  0  0  0  0  0  0  0  0  0  0  0
  -25.8400  -34.9680   23.4220 C   0  0  0  0  0  0  0  0  0  0  0  0
  -26.4940  -34.8720   22.3790 O   0  0  0  0  0  0  0  0  0  0  0  0
  -24.9550  -34.0540   24.9970 H   0  0  0  0  0  0  0  0  0  0  0  0
  -24.0900  -36.7440   23.1030 C   0  0  0  0  0  1  0  0  0  0  0  0
  -25.3500  -36.3500   23.8910 C   0  0  0  0  0  3  0  0  0  0  0  0
  -27.4960  -37.2540   24.6760 C   0  0  0  0  0  1  0  0  0  0  0  0
  -26.3700  -37.4130   23.7590 N   0  0  0  0  0  0  0  0  0  0  0  0
  -25.9600  -38.3290   23.9190 H   0  0  0  0  0  0  0  0  0  0  0  0
  -26.3800  -31.7410   25.1130 C   0  0  1  0  0  0  0  0  0  0  0  0
  -25.2910  -31.4980   26.1870 C   0  0  0  0  0  1  0  0  0  0  0  0
  -26.9600  -30.3660   24.7030 C   0  0  0  0  0  1  0  0  0  0  0  0
  -27.5310  -32.5360   25.7700 C   0  0  0  0  0  1  0  0  0  0  0  0
  1  2  1  0
  2  5  1  0
  2  4  1  0
  3  1  2  0
  6  7  1  0
  6  5  1  0
  7  9  1  0
  8  6  2  0
 10  7  1  0
 10 11  1  0
 12 20  1  0
 13 18  1  0
 14 15  1  0
 14 13  1  0
 16 15  1  0
 16 25  1  0
 16 17  1  0
 18 12  1  0
 18 17  1  0
 19 12  2  0
 20 11  1  0
 20 21  1  0
 22 23  2  0
 23 42  1  0
 24 23  1  0
 24 27  1  0
 25 22  1  0
 25 26  1  0
 26 24  2  0
 27 28  1  0
 28 29  2  0
 30 33  1  0
 30 29  1  0
 31 30  2  0
 32 31  1  0
 32 27  2  0
 33 34  1  0
 34 35  1  0
 35 36  2  0
 37 36  1  0
 37 41  1  0
 38 37  2  0
 39 34  2  0
 39 38  1  0
 40 39  1  0
 42 43  1  0
 43 46  1  0
 43 45  1  0
 44 42  2  0
 47 48  1  0
 47 22  1  0
 49 47  1  0
 50  1  1  0
 51 50  1  0
 52 63  2  0
 53 51  1  0
 53 58  1  0
 54 62  1  0
 54 64  1  0
 55 61  1  0
 55 57  1  0
 56 62  1  0
 57 56  1  0
 58 57  2  0
 59 53  2  0
 60 59  1  0
 60 55  2  0
 61 54  1  0
 62 52  1  0
 64 66  2  0
 65 64  1  0
 67 65  1  0
 68 77  2  0
 68 73  1  0
 69 65  1  0
 69 73  1  0
 70 69  1  0
 71 72  1  0
 71 70  1  0
 72 68  1  0
 73 74  2  0
 74 75  1  0
 76 75  2  0
 77 76  1  0
 78 52  1  0
 78 79  1  0
 78 88  1  0
 79 82  1  0
 80 84  1  0
 80 79  1  0
 81 80  2  0
 84 83  1  0
 86 84  1  0
 86 87  1  0
 86 85  1  0
 88 91  1  1
 88 89  1  0
 90 88  1  0
M  ISO  4  12 100  20 100  50 101  51 101
M  END
>  <TORSDO>  (35) 
F 21

>  <SCORE>  (35) 
-13.605

>  <name>  (35) 
36

>  <ligand_id>  (35) 
36

>  <original_smiles>  (35) 
[H]c1c([H])c([H])c2c(c1[H])C([H])([H])C([H])([H])C([H])([H])C2([H])N([H])C(=O)C1([H])N(C(=O)C([H])(N([H])C(=O)C([H])(N([H])C([H])([H])[H])C([H])([H])[H])C(C([H])([H])[H])(C([H])([H])[H])C([H])([H])[H])C([H])([H])c2c([H])c(OC([H])([H])C(=O)N([H])C([H])([H])C(=O)N([H])C([H])([H])C([H])([H])N([H])C(=O)N3C([H])([H])C([H])([H])C([H])([H])C([H])(n4nc(-c5c([H])c([H])c(Oc6c([H])c([H])c(F)c([H])c6F)c([H])c5[H])c(C(=O)N([H])[H])c4N([H])[H])C3([H])[H])c([H])c([H])c2C1([H])[H]

>  <smiles>  (35) 
[H]c1c([H])c([H])c2c(c1[H])C([H])([H])C([H])([H])C([H])([H])C2([H])N([H])C(=O)C1([H])N(C(=O)C([H])(N([H])C(=O)C([H])(N([H])C([H])([H])[H])C([H])([H])[H])C(C([H])([H])[H])(C([H])([H])[H])C([H])([H])[H])C([H])([H])c2c([H])c(OC([H])([H])C(=O)N([H])C([H])([H])C(=O)N([H])C([H])([H])C([H])([H])N([H])C(=O)N3C([H])([H])C([H])([H])C([H])([H])C([H])(n4nc(-c5c([H])c([H])c(Oc6c([H])c([H])c(F)c([H])c6F)c([H])c5[H])c(C(=O)N([H])[H])c4N([H])[H])C3([H])[H])c([H])c([H])c2C1([H])[H]

$$$$
37:0:0
     RDKit          3D

114122  0  0  1  0  0  0  0  0999 V2000
  -30.3950  -21.7750   19.7800 C   0  0  0  0  0  3  0  0  0  0  0  0
  -30.4640  -20.2360   19.7720 C   0  0  0  0  0  0  0  0  0  0  0  0
  -31.3890  -19.6880   20.5720 N   0  0  0  0  0  0  0  0  0  0  0  0
  -29.7170  -19.5740   19.0440 O   0  0  0  0  0  0  0  0  0  0  0  0
  -32.0210  -20.2150   21.1620 H   0  0  0  0  0  0  0  0  0  0  0  0
  -30.9090  -17.5300   21.5220 C   0  0  0  0  0  0  0  0  0  0  0  0
  -31.6000  -18.2900   20.6630 N   0  0  0  0  0  0  0  0  0  0  0  0
  -29.8760  -17.9130   22.0790 O   0  0  0  0  0  0  0  0  0  0  0  0
  -32.4420  -17.9910   20.1890 H   0  0  0  0  0  0  0  0  0  0  0  0
  -31.4860  -15.8850   23.3320 C   0  0  0  0  0  1  0  0  0  0  0  0
  -31.4810  -16.1320   21.8090 C   0  0  0  0  0  3  0  0  0  0  0  0
  -30.7490  -14.6470   19.9520 C   0  0  0  0  0  0  0  0  0  0  0  0
  -30.2240  -12.6850   18.5500 C   0  0  0  0  0  2  0  0  0  0  0  0
  -29.1570  -12.9630   17.4790 C   0  0  0  0  0  2  0  0  0  0  0  0
  -27.7430  -12.7780   18.0590 C   0  0  0  0  0  2  0  0  0  0  0  0
  -27.5440  -13.5420   19.3920 C   0  0  0  0  0  3  0  0  0  0  0  0
  -28.7000  -13.2470   20.3710 C   0  0  0  0  0  2  0  0  0  0  0  0
  -29.9770  -13.5600   19.7030 N   0  0  0  0  0  0  0  0  0  0  0  0
  -31.6090  -15.0730   19.1750 O   0  0  0  0  0  0  0  0  0  0  0  0
  -30.6290  -15.1190   21.1960 N   0  0  0  0  0  0  0  0  0  0  0  0
  -29.9140  -14.7020   21.7720 H   0  0  0  0  0  0  0  0  0  0  0  0
  -25.2200  -14.1030   20.3570 C   0  0  0  0  0  0  0  0  0  0  0  0
  -24.1960  -13.3090   20.7930 C   0  0  0  0  0  0  0  0  0  0  0  0
  -24.6540  -11.9620   20.6540 C   0  0  0  0  0  0  0  0  0  0  0  0
  -26.2420  -13.2410   19.9870 N   0  0  0  0  0  0  0  0  0  0  0  0
  -25.9070  -11.9460   20.2190 N   0  0  0  0  0  0  0  0  0  0  0  0
  -23.9520  -10.6880   20.8580 C   0  0  0  0  0  0  0  0  0  0  0  0
  -24.4060   -9.7400   21.7990 C   0  0  0  0  0  3  0  0  0  0  0  0
  -23.7070   -8.5280   21.9910 C   0  0  0  0  0  3  0  0  0  0  0  0
  -22.5390   -8.2580   21.2400 C   0  0  0  0  0  0  0  0  0  0  0  0
  -22.1010   -9.1970   20.2890 C   0  0  0  0  0  3  0  0  0  0  0  0
  -22.8020  -10.3990   20.0960 C   0  0  0  0  0  3  0  0  0  0  0  0
  -21.8090   -7.0970   21.3390 O   0  0  0  0  0  0  0  0  0  0  0  0
  -21.7050   -6.4120   22.5220 C   0  0  0  0  0  0  0  0  0  0  0  0
  -21.1750   -7.0110   23.6850 C   0  0  0  0  0  3  0  0  0  0  0  0
  -21.0190   -6.2510   24.8620 C   0  0  0  0  0  3  0  0  0  0  0  0
  -21.3830   -4.8920   24.8750 C   0  0  0  0  0  0  0  0  0  0  0  0
  -21.9060   -4.2910   23.7160 C   0  0  0  0  0  3  0  0  0  0  0  0
  -22.0630   -5.0490   22.5420 C   0  0  0  0  0  0  0  0  0  0  0  0
  -22.5480   -4.4600   21.4220 F   0  0  0  0  0  0  0  0  0  0  0  0
  -21.2260   -4.1590   26.0020 F   0  0  0  0  0  0  0  0  0  0  0  0
  -22.8320  -13.7630   21.2270 C   0  0  0  0  0  0  0  0  0  0  0  0
  -22.2080  -13.0380   22.1480 N   0  0  0  0  0  0  0  0  0  0  0  0
  -22.3310  -14.7970   20.7840 O   0  0  0  0  0  0  0  0  0  0  0  0
  -22.6270  -12.2010   22.5250 H   0  0  0  0  0  0  0  0  0  0  0  0
  -21.2970  -13.3240   22.4810 H   0  0  0  0  0  0  0  0  0  0  0  0
  -25.3650  -15.4820   20.2260 N   0  0  0  0  0  0  0  0  0  0  0  0
  -24.6170  -16.1290   20.4510 H   0  0  0  0  0  0  0  0  0  0  0  0
  -26.1870  -15.9390   19.8520 H   0  0  0  0  0  0  0  0  0  0  0  0
  -28.0790  -22.6040   20.0030 C   0  0  0  0  0  0  0  0  0  0  0  0
  -29.1170  -22.2430   19.2450 N   0  0  0  0  0  0  0  0  0  0  0  0
  -28.0890  -22.4970   21.2300 O   0  0  0  0  0  0  0  0  0  0  0  0
  -29.0240  -22.2930   18.2410 H   0  0  0  0  0  0  0  0  0  0  0  0
  -26.9630  -25.5580   20.3000 C   0  0  0  0  0  0  0  0  0  0  0  0
  -24.8350  -22.5280   20.3730 C   0  0  0  0  0  2  0  0  0  0  0  0
  -25.6950  -22.2800   19.1440 C   0  0  0  0  0  2  0  0  0  0  0  0
  -25.0970  -23.9910   20.7410 C   0  0  0  0  0  2  0  0  0  0  0  0
  -26.8800  -23.2470   19.2830 C   0  0  0  0  0  3  0  0  0  0  0  0
  -26.3630  -24.3590   20.0960 N   0  0  0  0  0  0  0  0  0  0  0  0
  -26.5150  -26.3650   21.1200 O   0  0  0  0  0  0  0  0  0  0  0  0
  -28.2410  -25.9240   19.4930 C   0  0  0  0  0  2  0  0  0  0  0  0
  -28.3140  -27.3180   19.1580 O   0  0  0  0  0  0  0  0  0  0  0  0
  -24.5030  -31.6520   23.1980 C   0  0  0  0  0  0  0  0  0  0  0  0
  -27.1360  -28.0210   19.2340 C   0  0  0  0  0  0  0  0  0  0  0  0
  -23.2760  -30.5870   21.3310 C   0  0  0  0  0  3  0  0  0  0  0  0
  -24.7160  -29.4160   19.5840 C   0  0  0  0  0  0  0  0  0  0  0  0
  -25.7820  -31.0500   21.1520 C   0  0  0  0  0  2  0  0  0  0  0  0
  -25.8750  -29.8450   20.2430 C   0  0  0  0  0  0  0  0  0  0  0  0
  -27.0900  -29.1600   20.0610 C   0  0  0  0  0  3  0  0  0  0  0  0
  -25.9660  -27.6010   18.5620 C   0  0  0  0  0  3  0  0  0  0  0  0
  -24.7550  -28.2960   18.7370 C   0  0  0  0  0  3  0  0  0  0  0  0
  -23.4550  -30.2100   19.8350 C   0  0  0  0  0  2  0  0  0  0  0  0
  -24.5390  -31.1000   21.9520 N   0  0  0  0  0  0  0  0  0  0  0  0
  -23.4330  -31.7830   23.8090 O   0  0  0  0  0  0  0  0  0  0  0  0
  -22.6760  -29.3750   22.0770 C   0  0  0  0  0  0  0  0  0  0  0  0
  -21.3510  -29.2010   21.9540 N   0  0  0  0  0  0  0  0  0  0  0  0
  -23.3950  -28.6050   22.7180 O   0  0  0  0  0  0  0  0  0  0  0  0
  -20.8340  -29.8800   21.4120 H   0  0  0  0  0  0  0  0  0  0  0  0
  -17.9960  -27.9330   22.3790 C   0  0  0  0  0  0  0  0  0  0  0  0
  -20.5700  -28.1120   22.5380 C   0  0  0  0  0  3  0  0  0  0  0  0
  -20.6140  -26.8570   21.6370 C   0  0  0  0  0  2  0  0  0  0  0  0
  -19.4450  -26.7830   20.6510 C   0  0  0  0  0  2  0  0  0  0  0  0
  -18.1080  -26.7780   21.3980 C   0  0  0  0  0  2  0  0  0  0  0  0
  -19.1530  -28.5700   22.9010 C   0  0  0  0  0  0  0  0  0  0  0  0
  -18.9960  -29.6620   23.7810 C   0  0  0  0  0  3  0  0  0  0  0  0
  -17.7150  -30.1170   24.1450 C   0  0  0  0  0  3  0  0  0  0  0  0
  -16.5720  -29.4730   23.6370 C   0  0  0  0  0  3  0  0  0  0  0  0
  -16.7140  -28.3820   22.7620 C   0  0  0  0  0  3  0  0  0  0  0  0
  -25.7950  -32.1700   23.9050 C   0  0  0  0  0  3  0  0  0  0  0  0
  -26.2410  -31.2740   25.1250 C   0  0  1  0  0  0  0  0  0  0  0  0
  -25.1100  -31.0070   26.1440 C   0  0  0  0  0  1  0  0  0  0  0  0
  -26.7680  -29.9050   24.6310 C   0  0  0  0  0  1  0  0  0  0  0  0
  -27.4100  -31.9520   25.8760 C   0  0  0  0  0  1  0  0  0  0  0  0
  -25.5450  -33.5510   24.3360 N   0  0  0  0  0  0  0  0  0  0  0  0
  -25.9630  -34.6400   23.6770 C   0  0  0  0  0  0  0  0  0  0  0  0
  -26.6760  -34.5820   22.6710 O   0  0  0  0  0  0  0  0  0  0  0  0
  -24.9260  -33.6780   25.1240 H   0  0  0  0  0  0  0  0  0  0  0  0
  -24.3400  -36.5380   23.3890 C   0  0  0  0  0  1  0  0  0  0  0  0
  -25.5190  -36.0110   24.2210 C   0  0  0  0  0  3  0  0  0  0  0  0
  -27.6470  -36.7190   25.2190 C   0  0  0  0  0  1  0  0  0  0  0  0
  -26.6040  -37.0160   24.2410 N   0  0  0  0  0  0  0  0  0  0  0  0
  -26.2320  -37.9390   24.4450 H   0  0  0  0  0  0  0  0  0  0  0  0
  -31.5280  -22.3160   18.8840 C   0  0  0  0  0  2  0  0  0  0  0  0
  -31.6280  -23.8530   18.8970 C   0  0  0  0  0  2  0  0  0  0  0  0
  -32.8000  -24.3870   18.0660 C   0  0  0  0  0  2  0  0  0  0  0  0
  -32.5570  -26.8890   17.8720 C   0  0  0  0  0  0  0  0  0  0  0  0
  -32.9560  -28.0860   18.3010 N   0  0  0  0  0  0  0  0  0  0  0  0
  -31.6210  -26.8010   16.9270 N   0  0  0  0  0  4  0  0  0  0  0  0
  -33.1030  -25.7870   18.4060 N   0  0  0  0  0  0  0  0  0  0  0  0
  -32.5780  -28.9530   17.9400 H   0  0  0  0  0  0  0  0  0  0  0  0
  -33.6740  -28.1960   19.0040 H   0  0  0  0  0  0  0  0  0  0  0  0
  -31.1820  -27.6170   16.5220 H   0  0  0  0  0  0  0  0  0  0  0  0
  -31.3370  -25.9100   16.5470 H   0  0  0  0  0  0  0  0  0  0  0  0
  -33.8210  -25.8900   19.1170 H   0  0  0  0  0  0  0  0  0  0  0  0
  1103  1  0
  2  1  1  0
  2  3  1  0
  3  7  1  0
  3  5  1  0
  4  2  2  0
  6 11  1  0
  6  8  2  0
  7  6  1  0
  9  7  1  0
 11 10  1  0
 12 20  1  0
 13 18  1  0
 14 15  1  0
 14 13  1  0
 16 15  1  0
 16 25  1  0
 16 17  1  0
 18 12  1  0
 18 17  1  0
 19 12  2  0
 20 21  1  0
 20 11  1  0
 22 23  2  0
 23 42  1  0
 24 23  1  0
 24 27  1  0
 25 26  1  0
 25 22  1  0
 26 24  2  0
 27 28  1  0
 28 29  2  0
 30 33  1  0
 30 29  1  0
 31 30  2  0
 32 31  1  0
 32 27  2  0
 33 34  1  0
 34 39  2  0
 34 35  1  0
 35 36  2  0
 36 37  1  0
 37 41  1  0
 38 37  2  0
 39 38  1  0
 40 39  1  0
 42 43  1  0
 43 46  1  0
 43 45  1  0
 44 42  2  0
 47 22  1  0
 47 48  1  0
 49 47  1  0
 50 52  2  0
 51  1  1  0
 51 50  1  0
 53 51  1  0
 54 60  2  0
 55 57  1  0
 56 58  1  0
 56 55  1  0
 58 50  1  0
 58 59  1  0
 59 54  1  0
 59 57  1  0
 61 54  1  0
 62 64  1  0
 62 61  1  0
 63 74  2  0
 64 69  1  0
 65 73  1  0
 65 75  1  0
 66 72  1  0
 66 68  1  0
 67 73  1  0
 68 67  1  0
 69 68  2  0
 70 71  1  0
 70 64  2  0
 71 66  2  0
 72 65  1  0
 73 63  1  0
 75 77  2  0
 76 75  1  0
 78 76  1  0
 79 88  2  0
 79 84  1  0
 80 76  1  0
 80 84  1  0
 81 80  1  0
 82 83  1  0
 82 81  1  0
 83 79  1  0
 84 85  2  0
 85 86  1  0
 87 86  2  0
 88 87  1  0
 89 63  1  0
 89 94  1  0
 89 90  1  0
 90 93  1  1
 90 91  1  0
 92 90  1  0
 94 97  1  0
 95 99  1  0
 95 94  1  0
 96 95  2  0
 99 98  1  0
 99101  1  0
101102  1  0
101100  1  0
103104  1  0
105109  1  0
105104  1  0
106107  1  0
106109  1  0
107111  1  0
108106  2  0
109114  1  0
110107  1  0
112108  1  0
113108  1  0
M  ISO  4  12 100  20 100  61 101  62 101
M  END
>  <TORSDO>  (36) 
F 26

>  <SCORE>  (36) 
-7.913

>  <name>  (36) 
37

>  <ligand_id>  (36) 
37

>  <original_smiles>  (36) 
[H]c1c([H])c([H])c2c(c1[H])C([H])([H])C([H])([H])C([H])([H])C2([H])N([H])C(=O)C1([H])N(C(=O)C([H])(N([H])C(=O)C([H])(N([H])C([H])([H])[H])C([H])([H])[H])C(C([H])([H])[H])(C([H])([H])[H])C([H])([H])[H])C([H])([H])c2c([H])c(OC([H])([H])C(=O)N3C([H])([H])C([H])([H])C([H])([H])C3([H])C(=O)N([H])C([H])(C(=O)N([H])N([H])C(=O)C([H])(N([H])C(=O)N3C([H])([H])C([H])([H])C([H])([H])C([H])(n4nc(-c5c([H])c([H])c(Oc6c([H])c([H])c(F)c([H])c6F)c([H])c5[H])c(C(=O)N([H])[H])c4N([H])[H])C3([H])[H])C([H])([H])[H])C([H])([H])C([H])([H])C([H])([H])N([H])C(N([H])[H])=[N+]([H])[H])c([H])c([H])c2C1([H])[H]

>  <smiles>  (36) 
[H]c1c([H])c([H])c2c(c1[H])C([H])([H])C([H])([H])C([H])([H])C2([H])N([H])C(=O)C1([H])N(C(=O)C([H])(N([H])C(=O)C([H])(N([H])C([H])([H])[H])C([H])([H])[H])C(C([H])([H])[H])(C([H])([H])[H])C([H])([H])[H])C([H])([H])c2c([H])c(OC([H])([H])C(=O)N3C([H])([H])C([H])([H])C([H])([H])C3([H])C(=O)N([H])C([H])(C(=O)N([H])N([H])C(=O)C([H])(N([H])C(=O)N3C([H])([H])C([H])([H])C([H])([H])C([H])(n4nc(-c5c([H])c([H])c(Oc6c([H])c([H])c(F)c([H])c6F)c([H])c5[H])c(C(=O)N([H])[H])c4N([H])[H])C3([H])[H])C([H])([H])[H])C([H])([H])C([H])([H])C([H])([H])N([H])C(N([H])[H])=[N+]([H])[H])c([H])c([H])c2C1([H])[H]

$$$$
38:0:0
     RDKit          3D

 89 96  0  0  1  0  0  0  0  0999 V2000
  -29.8750  -21.9400   20.7550 C   0  0  0  0  0  0  0  0  0  0  0  0
  -29.1220  -22.9660   20.3210 N   0  0  0  0  0  0  0  0  0  0  0  0
  -30.9590  -22.1180   21.3120 O   0  0  0  0  0  0  0  0  0  0  0  0
  -28.2480  -22.7340   19.8690 H   0  0  0  0  0  0  0  0  0  0  0  0
  -29.3240  -20.5130   20.5340 C   0  0  0  0  0  2  0  0  0  0  0  0
  -30.2340  -19.3600   21.0460 C   0  0  0  0  0  2  0  0  0  0  0  0
  -29.6410  -17.9360   20.8630 C   0  0  0  0  0  2  0  0  0  0  0  0
  -30.5820  -16.8130   21.3720 C   0  0  0  0  0  2  0  0  0  0  0  0
  -30.6980  -14.4500   20.5160 C   0  0  0  0  0  0  0  0  0  0  0  0
  -30.3810  -12.2970   19.3550 C   0  0  0  0  0  2  0  0  0  0  0  0
  -29.4530  -12.4980   18.1410 C   0  0  0  0  0  2  0  0  0  0  0  0
  -27.9750  -12.3730   18.5560 C   0  0  0  0  0  2  0  0  0  0  0  0
  -27.6310  -13.2250   19.8070 C   0  0  0  0  0  3  0  0  0  0  0  0
  -28.6700  -13.0050   20.9290 C   0  0  0  0  0  2  0  0  0  0  0  0
  -30.0040  -13.2890   20.3760 N   0  0  0  0  0  0  0  0  0  0  0  0
  -31.8100  -14.6270   20.0100 O   0  0  0  0  0  0  0  0  0  0  0  0
  -30.0590  -15.4510   21.1550 N   0  0  0  0  0  0  0  0  0  0  0  0
  -29.1490  -15.2340   21.5340 H   0  0  0  0  0  0  0  0  0  0  0  0
  -25.2300  -13.8590   20.4830 C   0  0  0  0  0  0  0  0  0  0  0  0
  -24.1520  -13.1000   20.8500 C   0  0  0  0  0  0  0  0  0  0  0  0
  -24.6000  -11.7430   20.8330 C   0  0  0  0  0  0  0  0  0  0  0  0
  -26.2700  -12.9670   20.2720 N   0  0  0  0  0  0  0  0  0  0  0  0
  -25.8940  -11.6900   20.5390 N   0  0  0  0  0  0  0  0  0  0  0  0
  -23.8600  -10.4900   21.0250 C   0  0  0  0  0  0  0  0  0  0  0  0
  -24.2820   -9.5220   21.9640 C   0  0  0  0  0  3  0  0  0  0  0  0
  -23.5440   -8.3320   22.1440 C   0  0  0  0  0  3  0  0  0  0  0  0
  -22.3720   -8.1010   21.3860 C   0  0  0  0  0  0  0  0  0  0  0  0
  -21.9700   -9.0570   20.4380 C   0  0  0  0  0  3  0  0  0  0  0  0
  -22.7080  -10.2390   20.2550 C   0  0  0  0  0  3  0  0  0  0  0  0
  -21.6070   -6.9630   21.4760 O   0  0  0  0  0  0  0  0  0  0  0  0
  -21.5500   -6.2230   22.6300 C   0  0  0  0  0  0  0  0  0  0  0  0
  -21.1330   -6.7850   23.8560 C   0  0  0  0  0  3  0  0  0  0  0  0
  -21.0230   -5.9730   25.0020 C   0  0  0  0  0  3  0  0  0  0  0  0
  -21.3180   -4.5990   24.9220 C   0  0  0  0  0  0  0  0  0  0  0  0
  -21.7270   -4.0360   23.7010 C   0  0  0  0  0  3  0  0  0  0  0  0
  -21.8410   -4.8450   22.5580 C   0  0  0  0  0  0  0  0  0  0  0  0
  -22.2150   -4.2940   21.3780 F   0  0  0  0  0  0  0  0  0  0  0  0
  -21.2040   -3.8150   26.0210 F   0  0  0  0  0  0  0  0  0  0  0  0
  -22.7570  -13.5920   21.1040 C   0  0  0  0  0  0  0  0  0  0  0  0
  -22.0160  -12.9130   21.9730 N   0  0  0  0  0  0  0  0  0  0  0  0
  -22.3320  -14.6140   20.5690 O   0  0  0  0  0  0  0  0  0  0  0  0
  -22.3720  -12.0870   22.4310 H   0  0  0  0  0  0  0  0  0  0  0  0
  -21.0790  -13.2240   22.1840 H   0  0  0  0  0  0  0  0  0  0  0  0
  -25.4100  -15.2250   20.2920 N   0  0  0  0  0  0  0  0  0  0  0  0
  -24.6470  -15.8890   20.3760 H   0  0  0  0  0  0  0  0  0  0  0  0
  -26.2640  -15.6500   19.9560 H   0  0  0  0  0  0  0  0  0  0  0  0
  -29.4290  -24.3990   20.4630 C   0  0  0  0  0  2  0  0  0  0  0  0
  -28.2400  -25.2620   19.9760 C   0  0  0  0  0  2  0  0  0  0  0  0
  -28.3780  -26.6780   20.2060 O   0  0  0  0  0  0  0  0  0  0  0  0
  -24.5830  -31.8990   23.2390 C   0  0  0  0  0  0  0  0  0  0  0  0
  -27.2120  -27.4310   20.1650 C   0  0  0  0  0  0  0  0  0  0  0  0
  -23.3720  -30.5010   21.5990 C   0  0  0  0  0  3  0  0  0  0  0  0
  -24.8220  -28.9620   20.1720 C   0  0  0  0  0  0  0  0  0  0  0  0
  -25.9020  -30.8490   21.4010 C   0  0  0  0  0  2  0  0  0  0  0  0
  -25.9830  -29.4760   20.7610 C   0  0  0  0  0  0  0  0  0  0  0  0
  -27.1810  -28.7200   20.7530 C   0  0  0  0  0  3  0  0  0  0  0  0
  -26.0270  -26.9450   19.5590 C   0  0  0  0  0  3  0  0  0  0  0  0
  -24.8390  -27.6970   19.5670 C   0  0  0  0  0  3  0  0  0  0  0  0
  -23.5800  -29.8240   20.2190 C   0  0  0  0  0  2  0  0  0  0  0  0
  -24.6380  -31.0970   22.1390 N   0  0  0  0  0  0  0  0  0  0  0  0
  -23.5020  -32.1750   23.7790 O   0  0  0  0  0  0  0  0  0  0  0  0
  -22.7170  -29.4800   22.5580 C   0  0  0  0  0  0  0  0  0  0  0  0
  -21.3920  -29.3080   22.4350 N   0  0  0  0  0  0  0  0  0  0  0  0
  -23.3990  -28.8490   23.3700 O   0  0  0  0  0  0  0  0  0  0  0  0
  -20.9040  -29.8690   21.7520 H   0  0  0  0  0  0  0  0  0  0  0  0
  -18.0090  -28.1430   22.9460 C   0  0  0  0  0  0  0  0  0  0  0  0
  -20.5690  -28.3740   23.2050 C   0  0  0  0  0  3  0  0  0  0  0  0
  -20.6550  -26.9440   22.6220 C   0  0  0  0  0  2  0  0  0  0  0  0
  -19.5450  -26.6380   21.6130 C   0  0  0  0  0  2  0  0  0  0  0  0
  -18.1680  -26.7930   22.2650 C   0  0  0  0  0  2  0  0  0  0  0  0
  -19.1360  -28.8920   23.3730 C   0  0  0  0  0  0  0  0  0  0  0  0
  -18.9340  -30.1550   23.9700 C   0  0  0  0  0  3  0  0  0  0  0  0
  -17.6350  -30.6700   24.1420 C   0  0  0  0  0  3  0  0  0  0  0  0
  -16.5220  -29.9180   23.7310 C   0  0  0  0  0  3  0  0  0  0  0  0
  -16.7090  -28.6560   23.1390 C   0  0  0  0  0  3  0  0  0  0  0  0
  -25.8710  -32.5270   23.8590 C   0  0  0  0  0  3  0  0  0  0  0  0
  -25.5620  -33.9220   24.1960 N   0  0  0  0  0  0  0  0  0  0  0  0
  -25.8820  -34.9770   23.4350 C   0  0  0  0  0  0  0  0  0  0  0  0
  -26.5390  -34.8770   22.3950 O   0  0  0  0  0  0  0  0  0  0  0  0
  -24.9770  -34.0730   25.0050 H   0  0  0  0  0  0  0  0  0  0  0  0
  -24.1390  -36.7600   23.1110 C   0  0  0  0  0  1  0  0  0  0  0  0
  -25.3970  -36.3620   23.9010 C   0  0  0  0  0  3  0  0  0  0  0  0
  -27.5430  -37.2540   24.6900 C   0  0  0  0  0  1  0  0  0  0  0  0
  -26.4220  -37.4200   23.7700 N   0  0  0  0  0  0  0  0  0  0  0  0
  -26.0140  -38.3380   23.9280 H   0  0  0  0  0  0  0  0  0  0  0  0
  -26.3940  -31.7460   25.1270 C   0  0  1  0  0  0  0  0  0  0  0  0
  -25.3070  -31.5030   26.1990 C   0  0  0  0  0  1  0  0  0  0  0  0
  -26.9760  -30.3730   24.7220 C   0  0  0  0  0  1  0  0  0  0  0  0
  -27.5480  -32.5370   25.7870 C   0  0  0  0  0  1  0  0  0  0  0  0
  1  3  2  0
  2 47  1  0
  2  1  1  0
  4  2  1  0
  5  1  1  0
  5  6  1  0
  7  6  1  0
  7  8  1  0
  9 17  1  0
 10 15  1  0
 11 12  1  0
 11 10  1  0
 13 12  1  0
 13 22  1  0
 13 14  1  0
 15  9  1  0
 15 14  1  0
 16  9  2  0
 17  8  1  0
 17 18  1  0
 19 20  2  0
 20 39  1  0
 21 20  1  0
 21 24  1  0
 22 19  1  0
 22 23  1  0
 23 21  2  0
 24 25  1  0
 25 26  2  0
 27 30  1  0
 27 26  1  0
 28 27  2  0
 29 28  1  0
 29 24  2  0
 30 31  1  0
 31 32  1  0
 32 33  2  0
 34 33  1  0
 34 38  1  0
 35 34  2  0
 36 31  2  0
 36 35  1  0
 37 36  1  0
 39 40  1  0
 40 43  1  0
 40 42  1  0
 41 39  2  0
 44 45  1  0
 44 19  1  0
 46 44  1  0
 48 49  1  0
 48 47  1  0
 50 61  2  0
 51 49  1  0
 51 56  1  0
 52 60  1  0
 52 62  1  0
 53 59  1  0
 53 55  1  0
 54 60  1  0
 55 54  1  0
 56 55  2  0
 57 58  1  0
 57 51  2  0
 58 53  2  0
 59 52  1  0
 60 50  1  0
 62 64  2  0
 63 62  1  0
 65 63  1  0
 66 75  2  0
 66 71  1  0
 67 63  1  0
 67 71  1  0
 68 67  1  0
 69 70  1  0
 69 68  1  0
 70 66  1  0
 71 72  2  0
 72 73  1  0
 74 73  2  0
 75 74  1  0
 76 50  1  0
 76 77  1  0
 76 86  1  0
 77 80  1  0
 78 82  1  0
 78 77  1  0
 79 78  2  0
 82 81  1  0
 84 82  1  0
 84 85  1  0
 84 83  1  0
 86 89  1  1
 86 87  1  0
 88 86  1  0
M  ISO  4   9 100  17 100  48 101  49 101
M  END
>  <TORSDO>  (37) 
F 22

>  <SCORE>  (37) 
-13.051

>  <name>  (37) 
38

>  <ligand_id>  (37) 
38

>  <original_smiles>  (37) 
[H]c1c([H])c([H])c2c(c1[H])C([H])([H])C([H])([H])C([H])([H])C2([H])N([H])C(=O)C1([H])N(C(=O)C([H])(N([H])C(=O)C([H])(N([H])C([H])([H])[H])C([H])([H])[H])C(C([H])([H])[H])(C([H])([H])[H])C([H])([H])[H])C([H])([H])c2c([H])c(OC([H])([H])C([H])([H])N([H])C(=O)C([H])([H])C([H])([H])C([H])([H])C([H])([H])N([H])C(=O)N3C([H])([H])C([H])([H])C([H])([H])C([H])(n4nc(-c5c([H])c([H])c(Oc6c([H])c([H])c(F)c([H])c6F)c([H])c5[H])c(C(=O)N([H])[H])c4N([H])[H])C3([H])[H])c([H])c([H])c2C1([H])[H]

>  <smiles>  (37) 
[H]c1c([H])c([H])c2c(c1[H])C([H])([H])C([H])([H])C([H])([H])C2([H])N([H])C(=O)C1([H])N(C(=O)C([H])(N([H])C(=O)C([H])(N([H])C([H])([H])[H])C([H])([H])[H])C(C([H])([H])[H])(C([H])([H])[H])C([H])([H])[H])C([H])([H])c2c([H])c(OC([H])([H])C([H])([H])N([H])C(=O)C([H])([H])C([H])([H])C([H])([H])C([H])([H])N([H])C(=O)N3C([H])([H])C([H])([H])C([H])([H])C([H])(n4nc(-c5c([H])c([H])c(Oc6c([H])c([H])c(F)c([H])c6F)c([H])c5[H])c(C(=O)N([H])[H])c4N([H])[H])C3([H])[H])c([H])c([H])c2C1([H])[H]

$$$$
39:0:0
     RDKit          3D

103111  0  0  1  0  0  0  0  0999 V2000
  -30.1430  -24.1240   20.2930 C   0  0  0  0  0  0  0  0  0  0  0  0
  -29.4340  -21.5010   22.8280 C   0  0  0  0  0  2  0  0  0  0  0  0
  -28.6690  -21.0680   21.5880 C   0  0  0  0  0  2  0  0  0  0  0  0
  -29.8600  -22.9320   22.4870 C   0  0  0  0  0  2  0  0  0  0  0  0
  -29.4500  -21.7180   20.4290 C   0  0  0  0  0  3  0  0  0  0  0  0
  -29.8790  -23.0080   21.0180 N   0  0  0  0  0  0  0  0  0  0  0  0
  -30.0910  -24.1160   19.0590 O   0  0  0  0  0  0  0  0  0  0  0  0
  -30.6190  -20.7890   19.9980 C   0  0  0  0  0  0  0  0  0  0  0  0
  -30.2940  -19.5130   19.7160 N   0  0  0  0  0  0  0  0  0  0  0  0
  -31.7790  -21.2020   19.9550 O   0  0  0  0  0  0  0  0  0  0  0  0
  -29.3100  -19.2940   19.7760 H   0  0  0  0  0  0  0  0  0  0  0  0
  -31.1820  -18.3480   19.5340 C   0  0  0  0  0  3  0  0  0  0  0  0
  -32.0710  -18.1520   20.7820 C   0  0  0  0  0  0  0  0  0  0  0  0
  -33.2950  -17.6710   20.5980 N   0  0  0  0  0  0  0  0  0  0  0  0
  -31.6630  -18.4270   21.9100 O   0  0  0  0  0  0  0  0  0  0  0  0
  -33.6050  -17.4200   19.6700 H   0  0  0  0  0  0  0  0  0  0  0  0
  -33.9210  -17.5390   21.3800 H   0  0  0  0  0  0  0  0  0  0  0  0
  -30.2730  -17.1150   19.2060 C   0  0  0  0  0  2  0  0  0  0  0  0
  -31.1980  -14.8140   19.6070 C   0  0  0  0  0  0  0  0  0  0  0  0
  -30.9600  -12.4680   18.8960 C   0  0  0  0  0  2  0  0  0  0  0  0
  -29.9490  -12.4380   17.7280 C   0  0  0  0  0  2  0  0  0  0  0  0
  -28.5030  -12.3350   18.2530 C   0  0  0  0  0  2  0  0  0  0  0  0
  -28.1980  -13.3660   19.3720 C   0  0  0  0  0  3  0  0  0  0  0  0
  -29.3170  -13.3590   20.4420 C   0  0  0  0  0  2  0  0  0  0  0  0
  -30.6030  -13.6000   19.7660 N   0  0  0  0  0  0  0  0  0  0  0  0
  -32.2600  -14.9800   19.0000 O   0  0  0  0  0  0  0  0  0  0  0  0
  -30.4300  -15.8580   19.9640 N   0  0  0  0  0  0  0  0  0  0  0  0
  -29.6400  -15.6100   20.5430 H   0  0  0  0  0  0  0  0  0  0  0  0
  -25.9180  -14.0730   20.3390 C   0  0  0  0  0  0  0  0  0  0  0  0
  -24.8380  -13.3450   20.7630 C   0  0  0  0  0  0  0  0  0  0  0  0
  -25.2010  -11.9730   20.6050 C   0  0  0  0  0  0  0  0  0  0  0  0
  -26.8760  -13.1450   19.9590 N   0  0  0  0  0  0  0  0  0  0  0  0
  -26.4530  -11.8730   20.1730 N   0  0  0  0  0  0  0  0  0  0  0  0
  -24.4090  -10.7490   20.7900 C   0  0  0  0  0  0  0  0  0  0  0  0
  -24.7740   -9.7690   21.7400 C   0  0  0  0  0  3  0  0  0  0  0  0
  -23.9910   -8.6080   21.9110 C   0  0  0  0  0  3  0  0  0  0  0  0
  -22.8260   -8.4200   21.1290 C   0  0  0  0  0  0  0  0  0  0  0  0
  -22.4770   -9.3870   20.1690 C   0  0  0  0  0  3  0  0  0  0  0  0
  -23.2620  -10.5390   19.9980 C   0  0  0  0  0  3  0  0  0  0  0  0
  -22.0160   -7.3130   21.2120 O   0  0  0  0  0  0  0  0  0  0  0  0
  -21.7880   -6.6750   22.4040 C   0  0  0  0  0  0  0  0  0  0  0  0
  -21.1830   -7.3310   23.4980 C   0  0  0  0  0  3  0  0  0  0  0  0
  -20.9040   -6.6160   24.6810 C   0  0  0  0  0  3  0  0  0  0  0  0
  -21.2230   -5.2480   24.7690 C   0  0  0  0  0  0  0  0  0  0  0  0
  -21.8210   -4.5910   23.6780 C   0  0  0  0  0  3  0  0  0  0  0  0
  -22.1000   -5.3040   22.4970 C   0  0  0  0  0  0  0  0  0  0  0  0
  -22.6570   -4.6600   21.4430 F   0  0  0  0  0  0  0  0  0  0  0  0
  -20.9480   -4.5600   25.9010 F   0  0  0  0  0  0  0  0  0  0  0  0
  -23.5100  -13.8910   21.2070 C   0  0  0  0  0  0  0  0  0  0  0  0
  -22.8260  -13.1910   22.1050 N   0  0  0  0  0  0  0  0  0  0  0  0
  -23.0930  -14.9710   20.7900 O   0  0  0  0  0  0  0  0  0  0  0  0
  -23.1710  -12.3120   22.4630 H   0  0  0  0  0  0  0  0  0  0  0  0
  -21.9410  -13.5400   22.4460 H   0  0  0  0  0  0  0  0  0  0  0  0
  -26.1610  -15.4390   20.2320 N   0  0  0  0  0  0  0  0  0  0  0  0
  -25.4570  -16.1340   20.4570 H   0  0  0  0  0  0  0  0  0  0  0  0
  -27.0160  -15.8360   19.8630 H   0  0  0  0  0  0  0  0  0  0  0  0
  -30.5400  -25.4420   21.0000 C   0  0  0  0  0  3  0  0  0  0  0  0
  -31.7250  -26.0380   20.3500 N   0  0  0  0  0  4  0  0  0  0  0  0
  -31.4870  -26.3060   19.4090 H   0  0  0  0  0  0  0  0  0  0  0  0
  -32.4620  -25.3580   20.2980 H   0  0  0  0  0  0  0  0  0  0  0  0
  -32.0580  -26.8440   20.8490 H   0  0  0  0  0  0  0  0  0  0  0  0
  -29.4020  -26.4910   21.1130 C   0  0  0  0  0  2  0  0  0  0  0  0
  -29.0240  -27.0640   19.8520 O   0  0  0  0  0  0  0  0  0  0  0  0
  -24.7310  -31.6580   23.2100 C   0  0  0  0  0  0  0  0  0  0  0  0
  -27.8100  -27.7110   19.8900 C   0  0  0  0  0  0  0  0  0  0  0  0
  -23.6690  -30.2510   21.4730 C   0  0  0  0  0  3  0  0  0  0  0  0
  -25.2710  -28.9540   19.9640 C   0  0  0  0  0  0  0  0  0  0  0  0
  -26.1430  -30.8730   21.3120 C   0  0  0  0  0  2  0  0  0  0  0  0
  -26.3660  -29.5580   20.5970 C   0  0  0  0  0  0  0  0  0  0  0  0
  -27.6360  -28.9420   20.5630 C   0  0  0  0  0  3  0  0  0  0  0  0
  -26.7050  -27.1240   19.2410 C   0  0  0  0  0  3  0  0  0  0  0  0
  -25.4350  -27.7340   19.2840 C   0  0  0  0  0  3  0  0  0  0  0  0
  -23.9460  -29.6790   20.0550 C   0  0  0  0  0  2  0  0  0  0  0  0
  -24.8650  -30.9400   22.0590 N   0  0  0  0  0  0  0  0  0  0  0  0
  -23.6290  -31.7880   23.7600 O   0  0  0  0  0  0  0  0  0  0  0  0
  -23.1200  -29.1140   22.3640 C   0  0  0  0  0  0  0  0  0  0  0  0
  -21.8390  -28.7650   22.1650 N   0  0  0  0  0  0  0  0  0  0  0  0
  -23.8460  -28.5500   23.1870 O   0  0  0  0  0  0  0  0  0  0  0  0
  -21.3090  -29.2790   21.4750 H   0  0  0  0  0  0  0  0  0  0  0  0
  -18.6620  -27.0580   22.3830 C   0  0  0  0  0  0  0  0  0  0  0  0
  -21.1220  -27.6970   22.8600 C   0  0  0  0  0  3  0  0  0  0  0  0
  -21.4860  -26.3110   22.2810 C   0  0  0  0  0  2  0  0  0  0  0  0
  -20.5310  -25.8480   21.1770 C   0  0  0  0  0  2  0  0  0  0  0  0
  -19.0960  -25.7670   21.7080 C   0  0  0  0  0  2  0  0  0  0  0  0
  -19.6140  -27.9720   22.9090 C   0  0  0  0  0  0  0  0  0  0  0  0
  -19.1590  -29.1740   23.4920 C   0  0  0  0  0  3  0  0  0  0  0  0
  -17.7840  -29.4680   23.5580 C   0  0  0  0  0  3  0  0  0  0  0  0
  -16.8460  -28.5530   23.0510 C   0  0  0  0  0  3  0  0  0  0  0  0
  -17.2850  -27.3490   22.4690 C   0  0  0  0  0  3  0  0  0  0  0  0
  -25.9510  -32.3680   23.8760 C   0  0  0  0  0  3  0  0  0  0  0  0
  -26.4820  -31.6220   25.1620 C   0  0  1  0  0  0  0  0  0  0  0  0
  -25.3740  -31.2960   26.1910 C   0  0  0  0  0  1  0  0  0  0  0  0
  -27.1730  -30.2940   24.7750 C   0  0  0  0  0  1  0  0  0  0  0  0
  -27.5500  -32.4890   25.8690 C   0  0  0  0  0  1  0  0  0  0  0  0
  -25.5400  -33.7400   24.2030 N   0  0  0  0  0  0  0  0  0  0  0  0
  -25.8090  -34.8140   23.4510 C   0  0  0  0  0  0  0  0  0  0  0  0
  -26.5030  -34.7620   22.4310 O   0  0  0  0  0  0  0  0  0  0  0  0
  -24.9190  -33.8490   24.9930 H   0  0  0  0  0  0  0  0  0  0  0  0
  -23.9710  -36.4850   23.0580 C   0  0  0  0  0  1  0  0  0  0  0  0
  -25.2150  -36.1630   23.9020 C   0  0  0  0  0  3  0  0  0  0  0  0
  -27.2550  -37.1920   24.8020 C   0  0  0  0  0  1  0  0  0  0  0  0
  -26.1760  -37.2860   23.8220 N   0  0  0  0  0  0  0  0  0  0  0  0
  -25.7010  -38.1750   23.9560 H   0  0  0  0  0  0  0  0  0  0  0  0
  1 57  1  0
  1  6  1  0
  3  2  1  0
  4  2  1  0
  5  8  1  0
  5  6  1  0
  5  3  1  0
  6  4  1  0
  7  1  2  0
  9 11  1  0
  9  8  1  0
 10  8  2  0
 12 18  1  0
 12  9  1  0
 12 13  1  0
 13 15  2  0
 14 13  1  0
 14 17  1  0
 16 14  1  0
 18 27  1  0
 19 25  1  0
 19 27  1  0
 20 25  1  0
 21 22  1  0
 21 20  1  0
 23 22  1  0
 23 32  1  0
 23 24  1  0
 25 24  1  0
 26 19  2  0
 27 28  1  0
 29 30  2  0
 30 49  1  0
 31 30  1  0
 31 34  1  0
 32 33  1  0
 32 29  1  0
 33 31  2  0
 34 35  1  0
 35 36  2  0
 37 40  1  0
 37 36  1  0
 38 37  2  0
 39 38  1  0
 39 34  2  0
 40 41  1  0
 41 46  2  0
 41 42  1  0
 42 43  2  0
 43 44  1  0
 44 48  1  0
 45 44  2  0
 46 45  1  0
 47 46  1  0
 49 50  1  0
 50 53  1  0
 50 52  1  0
 51 49  2  0
 54 29  1  0
 54 55  1  0
 56 54  1  0
 57 62  1  0
 58 61  1  0
 58 57  1  0
 59 58  1  0
 60 58  1  0
 63 65  1  0
 63 62  1  0
 64 75  2  0
 65 70  1  0
 66 74  1  0
 66 76  1  0
 67 73  1  0
 67 69  1  0
 68 74  1  0
 69 68  1  0
 70 69  2  0
 71 72  1  0
 71 65  2  0
 72 67  2  0
 73 66  1  0
 74 64  1  0
 76 78  2  0
 77 76  1  0
 79 77  1  0
 80 89  2  0
 80 85  1  0
 81 77  1  0
 81 85  1  0
 82 81  1  0
 83 84  1  0
 83 82  1  0
 84 80  1  0
 85 86  2  0
 86 87  1  0
 88 87  2  0
 89 88  1  0
 90 64  1  0
 90 95  1  0
 90 91  1  0
 91 94  1  1
 91 92  1  0
 93 91  1  0
 95 98  1  0
 96100  1  0
 96 95  1  0
 97 96  2  0
100 99  1  0
102100  1  0
102103  1  0
102101  1  0
M  ISO  4  19 100  27 100  62 101  63 101
M  END
>  <TORSDO>  (38) 
F 23

>  <SCORE>  (38) 
-11.327

>  <name>  (38) 
39

>  <ligand_id>  (38) 
39

>  <original_smiles>  (38) 
[H]c1c([H])c([H])c2c(c1[H])C([H])([H])C([H])([H])C([H])([H])C2([H])N([H])C(=O)C1([H])N(C(=O)C([H])(N([H])C(=O)C([H])(N([H])C([H])([H])[H])C([H])([H])[H])C(C([H])([H])[H])(C([H])([H])[H])C([H])([H])[H])C([H])([H])c2c([H])c(OC([H])([H])C([H])(C(=O)N3C([H])([H])C([H])([H])C([H])([H])C3([H])C(=O)N([H])C([H])(C(=O)N([H])[H])C([H])([H])N([H])C(=O)N3C([H])([H])C([H])([H])C([H])([H])C([H])(n4nc(-c5c([H])c([H])c(Oc6c([H])c([H])c(F)c([H])c6F)c([H])c5[H])c(C(=O)N([H])[H])c4N([H])[H])C3([H])[H])[N+]([H])([H])[H])c([H])c([H])c2C1([H])[H]

>  <smiles>  (38) 
[H]c1c([H])c([H])c2c(c1[H])C([H])([H])C([H])([H])C([H])([H])C2([H])N([H])C(=O)C1([H])N(C(=O)C([H])(N([H])C(=O)C([H])(N([H])C([H])([H])[H])C([H])([H])[H])C(C([H])([H])[H])(C([H])([H])[H])C([H])([H])[H])C([H])([H])c2c([H])c(OC([H])([H])C([H])(C(=O)N3C([H])([H])C([H])([H])C([H])([H])C3([H])C(=O)N([H])C([H])(C(=O)N([H])[H])C([H])([H])N([H])C(=O)N3C([H])([H])C([H])([H])C([H])([H])C([H])(n4nc(-c5c([H])c([H])c(Oc6c([H])c([H])c(F)c([H])c6F)c([H])c5[H])c(C(=O)N([H])[H])c4N([H])[H])C3([H])[H])[N+]([H])([H])[H])c([H])c([H])c2C1([H])[H]

$$$$
40:0:0
     RDKit          3D

 99106  0  0  1  0  0  0  0  0999 V2000
  -30.0790  -20.6720   17.6610 C   0  0  0  0  0  2  0  0  0  0  0  0
  -30.8690  -21.4740   18.7140 C   0  0  0  0  0  2  0  0  0  0  0  0
  -30.4190  -22.9430   18.6930 C   0  0  0  0  0  2  0  0  0  0  0  0
  -30.9250  -23.7860   19.8670 C   0  0  0  0  0  2  0  0  0  0  0  0
  -30.6820  -26.2230   20.3980 C   0  0  0  0  0  0  0  0  0  0  0  0
  -30.2950  -25.0930   19.7970 N   0  0  0  0  0  0  0  0  0  0  0  0
  -31.7570  -26.3360   20.9930 O   0  0  0  0  0  0  0  0  0  0  0  0
  -29.3900  -25.1480   19.3470 H   0  0  0  0  0  0  0  0  0  0  0  0
  -29.6700  -27.3730   20.3430 C   0  0  0  0  0  2  0  0  0  0  0  0
  -28.3750  -26.7910   20.1900 O   0  0  0  0  0  0  0  0  0  0  0  0
  -24.5740  -31.9860   23.3170 C   0  0  0  0  0  0  0  0  0  0  0  0
  -27.2520  -27.5760   20.2550 C   0  0  0  0  0  0  0  0  0  0  0  0
  -23.3700  -30.5720   21.6800 C   0  0  0  0  0  3  0  0  0  0  0  0
  -24.8330  -29.0300   20.2710 C   0  0  0  0  0  0  0  0  0  0  0  0
  -25.8890  -30.9500   21.4750 C   0  0  0  0  0  2  0  0  0  0  0  0
  -25.9850  -29.5770   20.8510 C   0  0  0  0  0  0  0  0  0  0  0  0
  -27.2000  -28.8590   20.8470 C   0  0  0  0  0  3  0  0  0  0  0  0
  -26.0800  -27.0280   19.6950 C   0  0  0  0  0  3  0  0  0  0  0  0
  -24.8730  -27.7500   19.6920 C   0  0  0  0  0  3  0  0  0  0  0  0
  -23.5810  -29.8770   20.3070 C   0  0  0  0  0  2  0  0  0  0  0  0
  -24.6290  -31.1830   22.2170 N   0  0  0  0  0  0  0  0  0  0  0  0
  -23.4930  -32.2590   23.8560 O   0  0  0  0  0  0  0  0  0  0  0  0
  -22.7220  -29.5560   22.6460 C   0  0  0  0  0  0  0  0  0  0  0  0
  -21.4010  -29.3630   22.5080 N   0  0  0  0  0  0  0  0  0  0  0  0
  -23.4040  -28.9410   23.4700 O   0  0  0  0  0  0  0  0  0  0  0  0
  -20.9130  -29.9110   21.8140 H   0  0  0  0  0  0  0  0  0  0  0  0
  -18.0280  -28.1620   22.9880 C   0  0  0  0  0  0  0  0  0  0  0  0
  -20.5820  -28.4270   23.2790 C   0  0  0  0  0  3  0  0  0  0  0  0
  -20.6930  -26.9930   22.7150 C   0  0  0  0  0  2  0  0  0  0  0  0
  -19.6010  -26.6590   21.6930 C   0  0  0  0  0  2  0  0  0  0  0  0
  -18.2140  -26.8070   22.3250 C   0  0  0  0  0  2  0  0  0  0  0  0
  -19.1410  -28.9290   23.4210 C   0  0  0  0  0  0  0  0  0  0  0  0
  -18.9140  -30.1980   23.9970 C   0  0  0  0  0  3  0  0  0  0  0  0
  -17.6080  -30.6990   24.1460 C   0  0  0  0  0  3  0  0  0  0  0  0
  -16.5090  -29.9270   23.7320 C   0  0  0  0  0  3  0  0  0  0  0  0
  -16.7190  -28.6600   23.1580 C   0  0  0  0  0  3  0  0  0  0  0  0
  -25.8610  -32.6190   23.9350 C   0  0  0  0  0  3  0  0  0  0  0  0
  -26.3800  -31.8530   25.2130 C   0  0  1  0  0  0  0  0  0  0  0  0
  -25.2830  -31.5960   26.2720 C   0  0  0  0  0  1  0  0  0  0  0  0
  -26.9840  -30.4860   24.8180 C   0  0  0  0  0  1  0  0  0  0  0  0
  -27.5150  -32.6600   25.8860 C   0  0  0  0  0  1  0  0  0  0  0  0
  -25.5550  -34.0190   24.2550 N   0  0  0  0  0  0  0  0  0  0  0  0
  -25.9060  -35.0660   23.4950 C   0  0  0  0  0  0  0  0  0  0  0  0
  -26.5920  -34.9540   22.4760 O   0  0  0  0  0  0  0  0  0  0  0  0
  -24.9500  -34.1810   25.0460 H   0  0  0  0  0  0  0  0  0  0  0  0
  -24.2030  -36.8690   23.0830 C   0  0  0  0  0  1  0  0  0  0  0  0
  -25.4140  -36.4580   23.9340 C   0  0  0  0  0  3  0  0  0  0  0  0
  -27.5300  -37.3250   24.8300 C   0  0  0  0  0  1  0  0  0  0  0  0
  -26.4580  -37.5030   23.8540 N   0  0  0  0  0  0  0  0  0  0  0  0
  -26.0550  -38.4270   23.9910 H   0  0  0  0  0  0  0  0  0  0  0  0
  -30.3770  -19.1610   17.5640 C   0  0  0  0  0  3  0  0  0  0  0  0
  -29.5670  -18.4990   16.4290 C   0  0  0  0  0  0  0  0  0  0  0  0
  -30.2340  -17.8060   15.5140 N   0  0  0  0  0  0  0  0  0  0  0  0
  -28.3430  -18.6250   16.3640 O   0  0  0  0  0  0  0  0  0  0  0  0
  -31.2390  -17.7160   15.5850 H   0  0  0  0  0  0  0  0  0  0  0  0
  -29.7440  -17.3440   14.7630 H   0  0  0  0  0  0  0  0  0  0  0  0
  -29.9440  -17.2990   19.2710 C   0  0  0  0  0  0  0  0  0  0  0  0
  -30.2820  -18.5410   18.8970 N   0  0  0  0  0  0  0  0  0  0  0  0
  -29.4510  -16.4610   18.5130 O   0  0  0  0  0  0  0  0  0  0  0  0
  -30.6300  -19.1240   19.6420 H   0  0  0  0  0  0  0  0  0  0  0  0
  -30.2120  -16.9440   20.7440 C   0  0  0  0  0  2  0  0  0  0  0  0
  -30.7370  -14.5270   20.5320 C   0  0  0  0  0  0  0  0  0  0  0  0
  -30.4510  -12.4050   19.3250 C   0  0  0  0  0  2  0  0  0  0  0  0
  -29.5290  -12.6680   18.1160 C   0  0  0  0  0  2  0  0  0  0  0  0
  -28.0420  -12.5420   18.5110 C   0  0  0  0  0  2  0  0  0  0  0  0
  -27.6990  -13.3370   19.7990 C   0  0  0  0  0  3  0  0  0  0  0  0
  -28.7330  -13.0570   20.9140 C   0  0  0  0  0  2  0  0  0  0  0  0
  -30.0730  -13.3520   20.3820 N   0  0  0  0  0  0  0  0  0  0  0  0
  -31.8690  -14.7330   20.0860 O   0  0  0  0  0  0  0  0  0  0  0  0
  -29.9860  -15.5210   21.0190 N   0  0  0  0  0  0  0  0  0  0  0  0
  -29.0590  -15.2660   21.3210 H   0  0  0  0  0  0  0  0  0  0  0  0
  -25.2800  -13.9480   20.4370 C   0  0  0  0  0  0  0  0  0  0  0  0
  -24.2070  -13.1780   20.7970 C   0  0  0  0  0  0  0  0  0  0  0  0
  -24.6730  -11.8280   20.7970 C   0  0  0  0  0  0  0  0  0  0  0  0
  -26.3330  -13.0670   20.2470 N   0  0  0  0  0  0  0  0  0  0  0  0
  -25.9710  -11.7890   20.5200 N   0  0  0  0  0  0  0  0  0  0  0  0
  -23.9490  -10.5650   20.9900 C   0  0  0  0  0  0  0  0  0  0  0  0
  -24.3640   -9.6160   21.9500 C   0  0  0  0  0  3  0  0  0  0  0  0
  -23.6410   -8.4160   22.1300 C   0  0  0  0  0  3  0  0  0  0  0  0
  -22.4890   -8.1560   21.3500 C   0  0  0  0  0  0  0  0  0  0  0  0
  -22.0930   -9.0960   20.3810 C   0  0  0  0  0  3  0  0  0  0  0  0
  -22.8170  -10.2870   20.1980 C   0  0  0  0  0  3  0  0  0  0  0  0
  -21.7380   -7.0100   21.4410 O   0  0  0  0  0  0  0  0  0  0  0  0
  -21.6650   -6.2870   22.6050 C   0  0  0  0  0  0  0  0  0  0  0  0
  -21.2010   -6.8600   23.8100 C   0  0  0  0  0  3  0  0  0  0  0  0
  -21.0740   -6.0610   24.9640 C   0  0  0  0  0  3  0  0  0  0  0  0
  -21.4020   -4.6940   24.9140 C   0  0  0  0  0  0  0  0  0  0  0  0
  -21.8600   -4.1210   23.7140 C   0  0  0  0  0  3  0  0  0  0  0  0
  -21.9870   -4.9150   22.5620 C   0  0  0  0  0  0  0  0  0  0  0  0
  -22.4070   -4.3530   21.4020 F   0  0  0  0  0  0  0  0  0  0  0  0
  -21.2740   -3.9250   26.0210 F   0  0  0  0  0  0  0  0  0  0  0  0
  -22.8010  -13.6510   21.0330 C   0  0  0  0  0  0  0  0  0  0  0  0
  -22.0580  -12.9610   21.8930 N   0  0  0  0  0  0  0  0  0  0  0  0
  -22.3690  -14.6650   20.4880 O   0  0  0  0  0  0  0  0  0  0  0  0
  -22.4220  -12.1420   22.3560 H   0  0  0  0  0  0  0  0  0  0  0  0
  -21.1110  -13.2540   22.0870 H   0  0  0  0  0  0  0  0  0  0  0  0
  -25.4490  -15.3150   20.2370 N   0  0  0  0  0  0  0  0  0  0  0  0
  -24.6830  -15.9750   20.3020 H   0  0  0  0  0  0  0  0  0  0  0  0
  -26.3020  -15.7350   19.8870 H   0  0  0  0  0  0  0  0  0  0  0  0
  1  2  1  0
  3  2  1  0
  3  4  1  0
  5  7  2  0
  6  4  1  0
  6  5  1  0
  8  6  1  0
  9  5  1  0
 10 12  1  0
 10  9  1  0
 11 22  2  0
 12 17  1  0
 13 21  1  0
 13 23  1  0
 14 20  1  0
 14 16  1  0
 15 21  1  0
 16 15  1  0
 17 16  2  0
 18 12  2  0
 19 18  1  0
 19 14  2  0
 20 13  1  0
 21 11  1  0
 23 25  2  0
 24 23  1  0
 26 24  1  0
 27 36  2  0
 27 32  1  0
 28 24  1  0
 28 32  1  0
 29 28  1  0
 30 31  1  0
 30 29  1  0
 31 27  1  0
 32 33  2  0
 33 34  1  0
 35 34  2  0
 36 35  1  0
 37 11  1  0
 37 42  1  0
 37 38  1  0
 38 41  1  1
 38 39  1  0
 40 38  1  0
 42 45  1  0
 43 47  1  0
 43 42  1  0
 44 43  2  0
 47 46  1  0
 49 47  1  0
 49 50  1  0
 49 48  1  0
 51  1  1  0
 51 58  1  0
 52 51  1  0
 53 55  1  0
 53 52  1  0
 54 52  2  0
 56 53  1  0
 57 61  1  0
 58 57  1  0
 58 60  1  0
 59 57  2  0
 61 70  1  0
 62 70  1  0
 63 68  1  0
 64 65  1  0
 64 63  1  0
 66 65  1  0
 66 75  1  0
 66 67  1  0
 68 62  1  0
 68 67  1  0
 69 62  2  0
 70 71  1  0
 72 73  2  0
 73 92  1  0
 74 73  1  0
 74 77  1  0
 75 72  1  0
 75 76  1  0
 76 74  2  0
 77 78  1  0
 78 79  2  0
 80 83  1  0
 80 79  1  0
 81 80  2  0
 82 81  1  0
 82 77  2  0
 83 84  1  0
 84 85  1  0
 85 86  2  0
 87 86  1  0
 87 91  1  0
 88 87  2  0
 89 84  2  0
 89 88  1  0
 90 89  1  0
 92 93  1  0
 93 96  1  0
 93 95  1  0
 94 92  2  0
 97 98  1  0
 97 72  1  0
 99 97  1  0
M  ISO  4   9 101  10 101  62 100  70 100
M  END
>  <TORSDO>  (39) 
F 25

>  <SCORE>  (39) 
-12.014

>  <name>  (39) 
40

>  <ligand_id>  (39) 
40

>  <original_smiles>  (39) 
[H]c1c([H])c([H])c2c(c1[H])C([H])([H])C([H])([H])C([H])([H])C2([H])N([H])C(=O)C1([H])N(C(=O)C([H])(N([H])C(=O)C([H])(N([H])C([H])([H])[H])C([H])([H])[H])C(C([H])([H])[H])(C([H])([H])[H])C([H])([H])[H])C([H])([H])c2c([H])c(OC([H])([H])C(=O)N([H])C([H])([H])C([H])([H])C([H])([H])C([H])([H])C([H])(C(=O)N([H])[H])N([H])C(=O)C([H])([H])N([H])C(=O)N3C([H])([H])C([H])([H])C([H])([H])C([H])(n4nc(-c5c([H])c([H])c(Oc6c([H])c([H])c(F)c([H])c6F)c([H])c5[H])c(C(=O)N([H])[H])c4N([H])[H])C3([H])[H])c([H])c([H])c2C1([H])[H]

>  <smiles>  (39) 
[H]c1c([H])c([H])c2c(c1[H])C([H])([H])C([H])([H])C([H])([H])C2([H])N([H])C(=O)C1([H])N(C(=O)C([H])(N([H])C(=O)C([H])(N([H])C([H])([H])[H])C([H])([H])[H])C(C([H])([H])[H])(C([H])([H])[H])C([H])([H])[H])C([H])([H])c2c([H])c(OC([H])([H])C(=O)N([H])C([H])([H])C([H])([H])C([H])([H])C([H])([H])C([H])(C(=O)N([H])[H])N([H])C(=O)C([H])([H])N([H])C(=O)N3C([H])([H])C([H])([H])C([H])([H])C([H])(n4nc(-c5c([H])c([H])c(Oc6c([H])c([H])c(F)c([H])c6F)c([H])c5[H])c(C(=O)N([H])[H])c4N([H])[H])C3([H])[H])c([H])c([H])c2C1([H])[H]

$$$$
41:0:0
     RDKit          3D

 90 97  0  0  1  0  0  0  0  0999 V2000
  -28.7600  -24.4870   20.7740 C   0  0  0  0  0  0  0  0  0  0  0  0
  -28.8400  -23.1890   20.4400 N   0  0  0  0  0  0  0  0  0  0  0  0
  -28.9070  -24.8760   21.9360 O   0  0  0  0  0  0  0  0  0  0  0  0
  -28.6860  -22.9500   19.4690 H   0  0  0  0  0  0  0  0  0  0  0  0
  -28.5590  -25.4920   19.6270 C   0  0  0  0  0  2  0  0  0  0  0  0
  -28.4220  -26.8280   20.1370 O   0  0  0  0  0  0  0  0  0  0  0  0
  -24.5720  -31.9090   23.2700 C   0  0  0  0  0  0  0  0  0  0  0  0
  -27.2050  -27.4800   20.1550 C   0  0  0  0  0  0  0  0  0  0  0  0
  -23.3580  -30.5160   21.6250 C   0  0  0  0  0  3  0  0  0  0  0  0
  -24.8030  -28.9820   20.1940 C   0  0  0  0  0  0  0  0  0  0  0  0
  -25.8830  -30.8740   21.4190 C   0  0  0  0  0  2  0  0  0  0  0  0
  -25.9630  -29.5040   20.7770 C   0  0  0  0  0  0  0  0  0  0  0  0
  -27.1630  -28.7590   20.7570 C   0  0  0  0  0  3  0  0  0  0  0  0
  -26.0150  -26.9630   19.5850 C   0  0  0  0  0  3  0  0  0  0  0  0
  -24.8230  -27.7100   19.6000 C   0  0  0  0  0  3  0  0  0  0  0  0
  -23.5620  -29.8440   20.2420 C   0  0  0  0  0  2  0  0  0  0  0  0
  -24.6230  -31.1150   22.1630 N   0  0  0  0  0  0  0  0  0  0  0  0
  -23.4910  -32.1800   23.8140 O   0  0  0  0  0  0  0  0  0  0  0  0
  -22.7120  -29.4900   22.5830 C   0  0  0  0  0  0  0  0  0  0  0  0
  -21.3880  -29.3050   22.4550 N   0  0  0  0  0  0  0  0  0  0  0  0
  -23.3970  -28.8630   23.3960 O   0  0  0  0  0  0  0  0  0  0  0  0
  -20.8960  -29.8610   21.7710 H   0  0  0  0  0  0  0  0  0  0  0  0
  -18.0170  -28.0980   22.9390 C   0  0  0  0  0  0  0  0  0  0  0  0
  -20.5720  -28.3620   23.2220 C   0  0  0  0  0  3  0  0  0  0  0  0
  -20.6830  -26.9330   22.6450 C   0  0  0  0  0  2  0  0  0  0  0  0
  -19.5860  -26.6070   21.6260 C   0  0  0  0  0  2  0  0  0  0  0  0
  -18.2010  -26.7490   22.2650 C   0  0  0  0  0  2  0  0  0  0  0  0
  -19.1310  -28.8630   23.3740 C   0  0  0  0  0  0  0  0  0  0  0  0
  -18.9060  -30.1280   23.9610 C   0  0  0  0  0  3  0  0  0  0  0  0
  -17.6000  -30.6260   24.1200 C   0  0  0  0  0  3  0  0  0  0  0  0
  -16.5000  -29.8580   23.7010 C   0  0  0  0  0  3  0  0  0  0  0  0
  -16.7090  -28.5950   23.1160 C   0  0  0  0  0  3  0  0  0  0  0  0
  -25.8590  -32.5360   23.8890 C   0  0  0  0  0  3  0  0  0  0  0  0
  -25.5590  -33.9370   24.2110 N   0  0  0  0  0  0  0  0  0  0  0  0
  -25.8990  -34.9830   23.4480 C   0  0  0  0  0  0  0  0  0  0  0  0
  -26.5710  -34.8710   22.4180 O   0  0  0  0  0  0  0  0  0  0  0  0
  -24.9660  -34.1000   25.0120 H   0  0  0  0  0  0  0  0  0  0  0  0
  -24.1760  -36.7770   23.0820 C   0  0  0  0  0  1  0  0  0  0  0  0
  -25.4150  -36.3750   23.8960 C   0  0  0  0  0  3  0  0  0  0  0  0
  -27.5550  -37.2540   24.7210 C   0  0  0  0  0  1  0  0  0  0  0  0
  -26.4520  -37.4240   23.7790 N   0  0  0  0  0  0  0  0  0  0  0  0
  -26.0500  -38.3460   23.9230 H   0  0  0  0  0  0  0  0  0  0  0  0
  -26.3740  -31.7670   25.1650 C   0  0  1  0  0  0  0  0  0  0  0  0
  -25.2830  -31.5360   26.2360 C   0  0  0  0  0  1  0  0  0  0  0  0
  -26.9500  -30.3870   24.7720 C   0  0  0  0  0  1  0  0  0  0  0  0
  -27.5290  -32.5580   25.8250 C   0  0  0  0  0  1  0  0  0  0  0  0
  -29.3690  -22.1490   21.3200 C   0  0  0  0  0  2  0  0  0  0  0  0
  -29.1820  -20.7220   20.7580 C   0  0  0  0  0  2  0  0  0  0  0  0
  -30.2840  -19.7780   21.2770 C   0  0  0  0  0  2  0  0  0  0  0  0
  -30.0640  -18.2720   21.0230 C   0  0  0  0  0  2  0  0  0  0  0  0
  -31.3710  -17.4790   21.2410 C   0  0  0  0  0  2  0  0  0  0  0  0
  -31.2260  -16.1090   21.9340 C   0  0  0  0  0  2  0  0  0  0  0  0
  -30.7900  -14.3600   20.2000 C   0  0  0  0  0  0  0  0  0  0  0  0
  -30.3380  -12.2880   18.9310 C   0  0  0  0  0  2  0  0  0  0  0  0
  -29.3430  -12.5170   17.7800 C   0  0  0  0  0  2  0  0  0  0  0  0
  -27.8900  -12.3970   18.2800 C   0  0  0  0  0  2  0  0  0  0  0  0
  -27.6280  -13.2380   19.5570 C   0  0  0  0  0  3  0  0  0  0  0  0
  -28.7200  -12.9750   20.6150 C   0  0  0  0  0  2  0  0  0  0  0  0
  -30.0330  -13.2500   20.0010 N   0  0  0  0  0  0  0  0  0  0  0  0
  -31.8000  -14.6210   19.5400 O   0  0  0  0  0  0  0  0  0  0  0  0
  -30.4030  -15.1280   21.2290 N   0  0  0  0  0  0  0  0  0  0  0  0
  -29.5530  -14.8390   21.6890 H   0  0  0  0  0  0  0  0  0  0  0  0
  -25.2750  -13.8960   20.3720 C   0  0  0  0  0  0  0  0  0  0  0  0
  -24.2080  -13.1450   20.7870 C   0  0  0  0  0  0  0  0  0  0  0  0
  -24.6380  -11.7830   20.7310 C   0  0  0  0  0  0  0  0  0  0  0  0
  -26.2900  -12.9930   20.0930 N   0  0  0  0  0  0  0  0  0  0  0  0
  -25.9110  -11.7180   20.3640 N   0  0  0  0  0  0  0  0  0  0  0  0
  -23.8950  -10.5360   20.9490 C   0  0  0  0  0  0  0  0  0  0  0  0
  -24.3430   -9.5610   21.8670 C   0  0  0  0  0  3  0  0  0  0  0  0
  -23.6010   -8.3780   22.0720 C   0  0  0  0  0  3  0  0  0  0  0  0
  -22.3970   -8.1630   21.3620 C   0  0  0  0  0  0  0  0  0  0  0  0
  -21.9680   -9.1260   20.4310 C   0  0  0  0  0  3  0  0  0  0  0  0
  -22.7100  -10.3010   20.2240 C   0  0  0  0  0  3  0  0  0  0  0  0
  -21.6240   -7.0320   21.4770 O   0  0  0  0  0  0  0  0  0  0  0  0
  -21.5990   -6.2930   22.6330 C   0  0  0  0  0  0  0  0  0  0  0  0
  -21.2400   -6.8620   23.8740 C   0  0  0  0  0  3  0  0  0  0  0  0
  -21.1600   -6.0510   25.0240 C   0  0  0  0  0  3  0  0  0  0  0  0
  -21.4270   -4.6720   24.9330 C   0  0  0  0  0  0  0  0  0  0  0  0
  -21.7800   -4.1030   23.6970 C   0  0  0  0  0  3  0  0  0  0  0  0
  -21.8620   -4.9110   22.5500 C   0  0  0  0  0  0  0  0  0  0  0  0
  -22.1820   -4.3530   21.3570 F   0  0  0  0  0  0  0  0  0  0  0  0
  -21.3420   -3.8920   26.0350 F   0  0  0  0  0  0  0  0  0  0  0  0
  -22.8340  -13.6500   21.1220 C   0  0  0  0  0  0  0  0  0  0  0  0
  -22.1300  -12.9660   22.0170 N   0  0  0  0  0  0  0  0  0  0  0  0
  -22.3950  -14.6870   20.6260 O   0  0  0  0  0  0  0  0  0  0  0  0
  -22.4970  -12.1270   22.4410 H   0  0  0  0  0  0  0  0  0  0  0  0
  -21.2090  -13.2860   22.2820 H   0  0  0  0  0  0  0  0  0  0  0  0
  -25.4620  -15.2640   20.1920 N   0  0  0  0  0  0  0  0  0  0  0  0
  -24.7180  -15.9370   20.3440 H   0  0  0  0  0  0  0  0  0  0  0  0
  -26.3130  -15.6850   19.8390 H   0  0  0  0  0  0  0  0  0  0  0  0
  1  3  2  0
  2  1  1  0
  2 47  1  0
  4  2  1  0
  5  6  1  0
  5  1  1  0
  6  8  1  0
  7 18  2  0
  8 13  1  0
  9 17  1  0
  9 19  1  0
 10 16  1  0
 10 12  1  0
 11 17  1  0
 12 11  1  0
 13 12  2  0
 14 15  1  0
 14  8  2  0
 15 10  2  0
 16  9  1  0
 17  7  1  0
 19 21  2  0
 20 19  1  0
 22 20  1  0
 23 32  2  0
 23 28  1  0
 24 20  1  0
 24 28  1  0
 25 24  1  0
 26 27  1  0
 26 25  1  0
 27 23  1  0
 28 29  2  0
 29 30  1  0
 31 30  2  0
 32 31  1  0
 33  7  1  0
 33 34  1  0
 33 43  1  0
 34 37  1  0
 35 39  1  0
 35 34  1  0
 36 35  2  0
 39 38  1  0
 41 39  1  0
 41 42  1  0
 41 40  1  0
 43 46  1  1
 43 44  1  0
 45 43  1  0
 48 49  1  0
 48 47  1  0
 50 51  1  0
 50 49  1  0
 51 52  1  0
 53 61  1  0
 54 59  1  0
 55 56  1  0
 55 54  1  0
 57 56  1  0
 57 66  1  0
 57 58  1  0
 59 53  1  0
 59 58  1  0
 60 53  2  0
 61 62  1  0
 61 52  1  0
 63 64  2  0
 64 83  1  0
 65 64  1  0
 65 68  1  0
 66 67  1  0
 66 63  1  0
 67 65  2  0
 68 69  1  0
 69 70  2  0
 71 74  1  0
 71 70  1  0
 72 71  2  0
 73 72  1  0
 73 68  2  0
 74 75  1  0
 75 76  1  0
 76 77  2  0
 78 77  1  0
 78 82  1  0
 79 78  2  0
 80 75  2  0
 80 79  1  0
 81 80  1  0
 83 84  1  0
 84 87  1  0
 84 86  1  0
 85 83  2  0
 88 89  1  0
 88 63  1  0
 90 88  1  0
M  ISO  4   5 101   6 101  53 100  61 100
M  END
>  <TORSDO>  (40) 
F 23

>  <SCORE>  (40) 
-12.625

>  <name>  (40) 
41

>  <ligand_id>  (40) 
41

>  <original_smiles>  (40) 
[H]c1c([H])c([H])c2c(c1[H])C([H])([H])C([H])([H])C([H])([H])C2([H])N([H])C(=O)C1([H])N(C(=O)C([H])(N([H])C(=O)C([H])(N([H])C([H])([H])[H])C([H])([H])[H])C(C([H])([H])[H])(C([H])([H])[H])C([H])([H])[H])C([H])([H])c2c([H])c(OC([H])([H])C(=O)N([H])C([H])([H])C([H])([H])C([H])([H])C([H])([H])C([H])([H])C([H])([H])N([H])C(=O)N3C([H])([H])C([H])([H])C([H])([H])C([H])(n4nc(-c5c([H])c([H])c(Oc6c([H])c([H])c(F)c([H])c6F)c([H])c5[H])c(C(=O)N([H])[H])c4N([H])[H])C3([H])[H])c([H])c([H])c2C1([H])[H]

>  <smiles>  (40) 
[H]c1c([H])c([H])c2c(c1[H])C([H])([H])C([H])([H])C([H])([H])C2([H])N([H])C(=O)C1([H])N(C(=O)C([H])(N([H])C(=O)C([H])(N([H])C([H])([H])[H])C([H])([H])[H])C(C([H])([H])[H])(C([H])([H])[H])C([H])([H])[H])C([H])([H])c2c([H])c(OC([H])([H])C(=O)N([H])C([H])([H])C([H])([H])C([H])([H])C([H])([H])C([H])([H])C([H])([H])N([H])C(=O)N3C([H])([H])C([H])([H])C([H])([H])C([H])(n4nc(-c5c([H])c([H])c(Oc6c([H])c([H])c(F)c([H])c6F)c([H])c5[H])c(C(=O)N([H])[H])c4N([H])[H])C3([H])[H])c([H])c([H])c2C1([H])[H]

$$$$
42:0:0
     RDKit          3D

100107  0  0  1  0  0  0  0  0999 V2000
  -28.7040  -20.9570   20.3970 C   0  0  0  0  0  0  0  0  0  0  0  0
  -28.3120  -19.8430   21.0290 N   0  0  0  0  0  0  0  0  0  0  0  0
  -29.1370  -20.9480   19.2410 O   0  0  0  0  0  0  0  0  0  0  0  0
  -27.9610  -19.9440   21.9720 H   0  0  0  0  0  0  0  0  0  0  0  0
  -28.3780  -18.4870   20.4960 C   0  0  0  0  0  2  0  0  0  0  0  0
  -29.4730  -17.6660   21.2070 C   0  0  0  0  0  2  0  0  0  0  0  0
  -31.9670  -13.6120   19.6090 C   0  0  0  0  0  0  0  0  0  0  0  0
  -31.3820  -11.2870   19.0500 C   0  0  0  0  0  2  0  0  0  0  0  0
  -30.3610  -11.2770   17.8910 C   0  0  0  0  0  2  0  0  0  0  0  0
  -28.9210  -11.3990   18.4290 C   0  0  0  0  0  2  0  0  0  0  0  0
  -28.7590  -12.5540   19.4510 C   0  0  0  0  0  3  0  0  0  0  0  0
  -29.8790  -12.5070   20.5120 C   0  0  0  0  0  2  0  0  0  0  0  0
  -31.1750  -12.5250   19.8160 N   0  0  0  0  0  0  0  0  0  0  0  0
  -33.0520  -13.5580   19.0180 O   0  0  0  0  0  0  0  0  0  0  0  0
  -30.8150  -15.6040   20.6140 C   0  0  0  0  0  0  0  0  0  0  0  0
  -31.0060  -15.3270   21.9170 N   0  0  0  0  0  4  0  0  0  0  0  0
  -31.3000  -14.8760   19.5830 N   0  0  0  0  0  0  0  0  0  0  0  0
  -30.1070  -16.7060   20.2900 N   0  0  0  0  0  0  0  0  0  0  0  0
  -31.5720  -14.5560   22.2420 H   0  0  0  0  0  0  0  0  0  0  0  0
  -30.6300  -15.9270   22.6360 H   0  0  0  0  0  0  0  0  0  0  0  0
  -31.4970  -15.4760   18.8010 H   0  0  0  0  0  0  0  0  0  0  0  0
  -29.9970  -16.9450   19.3130 H   0  0  0  0  0  0  0  0  0  0  0  0
  -26.6550  -13.6110   20.4910 C   0  0  0  0  0  0  0  0  0  0  0  0
  -25.4790  -13.0650   20.9290 C   0  0  0  0  0  0  0  0  0  0  0  0
  -25.6040  -11.6550   20.7390 C   0  0  0  0  0  0  0  0  0  0  0  0
  -27.4350  -12.5460   20.0690 N   0  0  0  0  0  0  0  0  0  0  0  0
  -26.8110  -11.3580   20.2750 N   0  0  0  0  0  0  0  0  0  0  0  0
  -24.6260  -10.5750   20.9170 C   0  0  0  0  0  0  0  0  0  0  0  0
  -24.8800   -9.4840   21.7760 C   0  0  0  0  0  3  0  0  0  0  0  0
  -23.9160   -8.4660   21.9450 C   0  0  0  0  0  3  0  0  0  0  0  0
  -22.6830   -8.5360   21.2540 C   0  0  0  0  0  0  0  0  0  0  0  0
  -22.4450   -9.6130   20.3830 C   0  0  0  0  0  3  0  0  0  0  0  0
  -23.4070  -10.6220   20.2120 C   0  0  0  0  0  3  0  0  0  0  0  0
  -21.6990   -7.5810   21.3360 O   0  0  0  0  0  0  0  0  0  0  0  0
  -21.5220   -6.8250   22.4660 C   0  0  0  0  0  0  0  0  0  0  0  0
  -21.2610   -7.4130   23.7240 C   0  0  0  0  0  3  0  0  0  0  0  0
  -21.0170   -6.5970   24.8460 C   0  0  0  0  0  3  0  0  0  0  0  0
  -21.0250   -5.1950   24.7130 C   0  0  0  0  0  0  0  0  0  0  0  0
  -21.2780   -4.6080   23.4610 C   0  0  0  0  0  3  0  0  0  0  0  0
  -21.5230   -5.4210   22.3400 C   0  0  0  0  0  0  0  0  0  0  0  0
  -21.7470   -4.8500   21.1320 F   0  0  0  0  0  0  0  0  0  0  0  0
  -20.7810   -4.4100   25.7880 F   0  0  0  0  0  0  0  0  0  0  0  0
  -24.2670  -13.8130   21.4020 C   0  0  0  0  0  0  0  0  0  0  0  0
  -23.5140  -13.2380   22.3330 N   0  0  0  0  0  0  0  0  0  0  0  0
  -24.0060  -14.9410   20.9820 O   0  0  0  0  0  0  0  0  0  0  0  0
  -23.7380  -12.3220   22.6940 H   0  0  0  0  0  0  0  0  0  0  0  0
  -22.7020  -13.7200   22.6910 H   0  0  0  0  0  0  0  0  0  0  0  0
  -27.1160  -14.9220   20.3970 N   0  0  0  0  0  0  0  0  0  0  0  0
  -26.5090  -15.7080   20.5990 H   0  0  0  0  0  0  0  0  0  0  0  0
  -27.9700  -15.1900   19.9260 H   0  0  0  0  0  0  0  0  0  0  0  0
  -28.6330  -22.2730   21.1970 C   0  0  0  0  0  3  0  0  0  0  0  0
  -28.3400  -24.6610   20.4870 C   0  0  0  0  0  0  0  0  0  0  0  0
  -28.8610  -23.4360   20.3310 N   0  0  0  0  0  0  0  0  0  0  0  0
  -27.5190  -24.9180   21.3710 O   0  0  0  0  0  0  0  0  0  0  0  0
  -29.4790  -23.2750   19.5480 H   0  0  0  0  0  0  0  0  0  0  0  0
  -28.8400  -25.7600   19.5280 C   0  0  0  0  0  2  0  0  0  0  0  0
  -28.7000  -27.0700   20.1020 O   0  0  0  0  0  0  0  0  0  0  0  0
  -24.6750  -31.9700   23.2910 C   0  0  0  0  0  0  0  0  0  0  0  0
  -27.4810  -27.7190   20.0910 C   0  0  0  0  0  0  0  0  0  0  0  0
  -23.5350  -30.6180   21.5630 C   0  0  0  0  0  3  0  0  0  0  0  0
  -25.0490  -29.1680   20.1140 C   0  0  0  0  0  0  0  0  0  0  0  0
  -26.0550  -31.0340   21.4390 C   0  0  0  0  0  2  0  0  0  0  0  0
  -26.1820  -29.6930   20.7470 C   0  0  0  0  0  0  0  0  0  0  0  0
  -27.3980  -28.9760   20.7310 C   0  0  0  0  0  3  0  0  0  0  0  0
  -26.3240  -27.2000   19.4630 C   0  0  0  0  0  3  0  0  0  0  0  0
  -25.1140  -27.9200   19.4720 C   0  0  0  0  0  3  0  0  0  0  0  0
  -23.7880  -29.9990   20.1630 C   0  0  0  0  0  2  0  0  0  0  0  0
  -24.7720  -31.2200   22.1570 N   0  0  0  0  0  0  0  0  0  0  0  0
  -23.5770  -32.2000   23.8150 O   0  0  0  0  0  0  0  0  0  0  0  0
  -22.8820  -29.5460   22.4630 C   0  0  0  0  0  0  0  0  0  0  0  0
  -21.5580  -29.3720   22.3220 N   0  0  0  0  0  0  0  0  0  0  0  0
  -23.5630  -28.8730   23.2420 O   0  0  0  0  0  0  0  0  0  0  0  0
  -21.0710  -29.9690   21.6670 H   0  0  0  0  0  0  0  0  0  0  0  0
  -18.1680  -28.2170   22.8020 C   0  0  0  0  0  0  0  0  0  0  0  0
  -20.7360  -28.3950   23.0340 C   0  0  0  0  0  3  0  0  0  0  0  0
  -20.7930  -27.0120   22.3450 C   0  0  0  0  0  2  0  0  0  0  0  0
  -19.6620  -26.7950   21.3340 C   0  0  0  0  0  2  0  0  0  0  0  0
  -18.2990  -26.9200   22.0200 C   0  0  0  0  0  2  0  0  0  0  0  0
  -19.3140  -28.9170   23.2640 C   0  0  0  0  0  0  0  0  0  0  0  0
  -19.1400  -30.1350   23.9560 C   0  0  0  0  0  3  0  0  0  0  0  0
  -17.8520  -30.6520   24.1900 C   0  0  0  0  0  3  0  0  0  0  0  0
  -16.7210  -29.9480   23.7430 C   0  0  0  0  0  3  0  0  0  0  0  0
  -16.8790  -28.7320   23.0560 C   0  0  0  0  0  3  0  0  0  0  0  0
  -25.9340  -32.5960   23.9690 C   0  0  0  0  0  3  0  0  0  0  0  0
  -25.5930  -33.9740   24.3480 N   0  0  0  0  0  0  0  0  0  0  0  0
  -25.9140  -35.0600   23.6340 C   0  0  0  0  0  0  0  0  0  0  0  0
  -26.6000  -35.0090   22.6090 O   0  0  0  0  0  0  0  0  0  0  0  0
  -24.9840  -34.0860   25.1460 H   0  0  0  0  0  0  0  0  0  0  0  0
  -24.1470  -36.8220   23.3260 C   0  0  0  0  0  1  0  0  0  0  0  0
  -25.3910  -36.4200   24.1340 C   0  0  0  0  0  3  0  0  0  0  0  0
  -27.4980  -37.3240   25.0140 C   0  0  0  0  0  1  0  0  0  0  0  0
  -26.4000  -37.4990   24.0660 N   0  0  0  0  0  0  0  0  0  0  0  0
  -25.9720  -38.4050   24.2410 H   0  0  0  0  0  0  0  0  0  0  0  0
  -26.4360  -31.7800   25.2240 C   0  0  1  0  0  0  0  0  0  0  0  0
  -25.3120  -31.4310   26.2280 C   0  0  0  0  0  1  0  0  0  0  0  0
  -27.1020  -30.4570   24.7810 C   0  0  0  0  0  1  0  0  0  0  0  0
  -27.5170  -32.5900   25.9780 C   0  0  0  0  0  1  0  0  0  0  0  0
  -31.0780  -22.3140   22.0630 C   0  0  0  0  0  1  0  0  0  0  0  0
  -29.2630  -23.4410   23.4120 C   0  0  0  0  0  1  0  0  0  0  0  0
  -29.5810  -22.2980   22.4330 C   0  0  0  0  0  3  0  0  0  0  0  0
  1  2  1  0
  2  4  1  0
  3  1  2  0
  5  2  1  0
  5  6  1  0
  7 13  1  0
  8 13  1  0
  9 10  1  0
  9  8  1  0
 11 10  1  0
 11 26  1  0
 11 12  1  0
 13 12  1  0
 14  7  2  0
 15 16  2  0
 16 19  1  0
 16 20  1  0
 17  7  1  0
 17 15  1  0
 18 15  1  0
 18  6  1  0
 21 17  1  0
 22 18  1  0
 23 24  2  0
 24 43  1  0
 25 28  1  0
 25 24  1  0
 26 27  1  0
 26 23  1  0
 27 25  2  0
 28 29  1  0
 29 30  2  0
 31 34  1  0
 31 30  1  0
 32 31  2  0
 33 32  1  0
 33 28  2  0
 34 35  1  0
 35 36  1  0
 36 37  2  0
 38 37  1  0
 38 42  1  0
 39 38  2  0
 40 35  2  0
 40 39  1  0
 41 40  1  0
 43 44  1  0
 44 47  1  0
 44 46  1  0
 45 43  2  0
 48 23  1  0
 48 49  1  0
 50 48  1  0
 51  1  1  0
 51100  1  0
 52 54  2  0
 53 52  1  0
 53 51  1  0
 55 53  1  0
 56 57  1  0
 56 52  1  0
 58 69  2  0
 59 57  1  0
 59 64  1  0
 60 68  1  0
 60 70  1  0
 61 67  1  0
 61 63  1  0
 62 68  1  0
 63 62  1  0
 64 63  2  0
 65 66  1  0
 65 59  2  0
 66 61  2  0
 67 60  1  0
 68 58  1  0
 70 72  2  0
 71 70  1  0
 73 71  1  0
 74 83  2  0
 74 79  1  0
 75 71  1  0
 75 79  1  0
 76 75  1  0
 77 78  1  0
 77 76  1  0
 78 74  1  0
 79 80  2  0
 80 81  1  0
 82 81  2  0
 83 82  1  0
 84 58  1  0
 84 85  1  0
 84 94  1  0
 85 88  1  0
 86 90  1  0
 86 85  1  0
 87 86  2  0
 90 89  1  0
 92 90  1  0
 92 93  1  0
 92 91  1  0
 94 97  1  1
 94 95  1  0
 96 94  1  0
 98100  1  0
100 99  1  0
M  ISO  4   7 100  17 100  56 101  57 101
M  END
>  <TORSDO>  (41) 
F 22

>  <SCORE>  (41) 
-11.740

>  <name>  (41) 
42

>  <ligand_id>  (41) 
42

>  <original_smiles>  (41) 
[H]c1c([H])c([H])c2c(c1[H])C([H])([H])C([H])([H])C([H])([H])C2([H])N([H])C(=O)C1([H])N(C(=O)C([H])(N([H])C(=O)C([H])(N([H])C([H])([H])[H])C([H])([H])[H])C(C([H])([H])[H])(C([H])([H])[H])C([H])([H])[H])C([H])([H])c2c([H])c(OC([H])([H])C(=O)N([H])C([H])(C(=O)N([H])C([H])([H])C([H])([H])[N+]([H])=C(N([H])[H])N([H])C(=O)N3C([H])([H])C([H])([H])C([H])([H])C([H])(n4nc(-c5c([H])c([H])c(Oc6c([H])c([H])c(F)c([H])c6F)c([H])c5[H])c(C(=O)N([H])[H])c4N([H])[H])C3([H])[H])C([H])(C([H])([H])[H])C([H])([H])[H])c([H])c([H])c2C1([H])[H]

>  <smiles>  (41) 
[H]c1c([H])c([H])c2c(c1[H])C([H])([H])C([H])([H])C([H])([H])C2([H])N([H])C(=O)C1([H])N(C(=O)C([H])(N([H])C(=O)C([H])(N([H])C([H])([H])[H])C([H])([H])[H])C(C([H])([H])[H])(C([H])([H])[H])C([H])([H])[H])C([H])([H])c2c([H])c(OC([H])([H])C(=O)N([H])C([H])(C(=O)N([H])C([H])([H])C([H])([H])[N+]([H])=C(N([H])[H])N([H])C(=O)N3C([H])([H])C([H])([H])C([H])([H])C([H])(n4nc(-c5c([H])c([H])c(Oc6c([H])c([H])c(F)c([H])c6F)c([H])c5[H])c(C(=O)N([H])[H])c4N([H])[H])C3([H])[H])C([H])(C([H])([H])[H])C([H])([H])[H])c([H])c([H])c2C1([H])[H]

$$$$
43:0:0
     RDKit          3D

 98106  0  0  1  0  0  0  0  0999 V2000
  -31.9280  -22.0120   18.8100 C   0  0  0  0  0  0  0  0  0  0  0  0
  -33.0760  -22.9070   19.2890 C   0  0  0  0  0  1  0  0  0  0  0  0
  -31.0940  -21.4420   19.7190 N   0  0  0  0  0  0  0  0  0  0  0  0
  -31.8040  -21.8440   17.5930 O   0  0  0  0  0  0  0  0  0  0  0  0
  -27.9620  -20.1090   18.1440 C   0  0  0  0  0  3  0  0  0  0  0  0
  -27.9050  -18.8280   18.7300 C   0  0  0  0  0  3  0  0  0  0  0  0
  -29.0350  -20.9720   18.4320 C   0  0  0  0  0  3  0  0  0  0  0  0
  -29.9940  -19.2750   19.8980 C   0  0  0  0  0  3  0  0  0  0  0  0
  -28.9300  -18.3990   19.6010 C   0  0  0  0  0  0  0  0  0  0  0  0
  -30.0520  -20.5600   19.3240 C   0  0  0  0  0  0  0  0  0  0  0  0
  -28.9030  -17.0420   20.1560 C   0  0  0  0  0  3  0  0  0  0  0  0
  -29.9820  -16.4690   20.5620 N   0  0  0  0  0  0  0  0  0  0  0  0
  -30.6320  -14.2020   20.4390 C   0  0  0  0  0  0  0  0  0  0  0  0
  -30.3540  -12.0200   19.3420 C   0  0  0  0  0  2  0  0  0  0  0  0
  -29.4070  -12.2180   18.1420 C   0  0  0  0  0  2  0  0  0  0  0  0
  -27.9300  -12.1010   18.5760 C   0  0  0  0  0  2  0  0  0  0  0  0
  -27.6020  -12.9630   19.8240 C   0  0  0  0  0  3  0  0  0  0  0  0
  -28.6570  -12.7310   20.9310 C   0  0  0  0  0  2  0  0  0  0  0  0
  -29.9890  -13.0130   20.3610 N   0  0  0  0  0  0  0  0  0  0  0  0
  -31.7410  -14.4230   19.9380 O   0  0  0  0  0  0  0  0  0  0  0  0
  -29.8730  -15.1800   20.9530 N   0  0  0  0  0  0  0  0  0  0  0  0
  -28.9650  -14.9030   21.2990 H   0  0  0  0  0  0  0  0  0  0  0  0
  -25.2240  -13.6060   20.5760 C   0  0  0  0  0  0  0  0  0  0  0  0
  -24.1480  -12.8490   20.9530 C   0  0  0  0  0  0  0  0  0  0  0  0
  -24.5830  -11.4890   20.8910 C   0  0  0  0  0  0  0  0  0  0  0  0
  -26.2500  -12.7090   20.3150 N   0  0  0  0  0  0  0  0  0  0  0  0
  -25.8650  -11.4300   20.5550 N   0  0  0  0  0  0  0  0  0  0  0  0
  -23.8370  -10.2390   21.0730 C   0  0  0  0  0  0  0  0  0  0  0  0
  -24.2580   -9.2590   21.9980 C   0  0  0  0  0  3  0  0  0  0  0  0
  -23.5160   -8.0700   22.1690 C   0  0  0  0  0  3  0  0  0  0  0  0
  -22.3410   -7.8520   21.4130 C   0  0  0  0  0  0  0  0  0  0  0  0
  -21.9400   -8.8200   20.4750 C   0  0  0  0  0  3  0  0  0  0  0  0
  -22.6820  -10.0010   20.3030 C   0  0  0  0  0  3  0  0  0  0  0  0
  -21.5720   -6.7170   21.4930 O   0  0  0  0  0  0  0  0  0  0  0  0
  -21.5170   -5.9630   22.6380 C   0  0  0  0  0  0  0  0  0  0  0  0
  -21.0420   -6.4940   23.8580 C   0  0  0  0  0  3  0  0  0  0  0  0
  -20.9360   -5.6650   24.9910 C   0  0  0  0  0  3  0  0  0  0  0  0
  -21.2940   -4.3060   24.9070 C   0  0  0  0  0  0  0  0  0  0  0  0
  -21.7640   -3.7750   23.6930 C   0  0  0  0  0  3  0  0  0  0  0  0
  -21.8710   -4.6010   22.5610 C   0  0  0  0  0  0  0  0  0  0  0  0
  -22.3020   -4.0780   21.3870 F   0  0  0  0  0  0  0  0  0  0  0  0
  -21.1840   -3.5080   25.9950 F   0  0  0  0  0  0  0  0  0  0  0  0
  -22.7660  -13.3450   21.2590 C   0  0  0  0  0  0  0  0  0  0  0  0
  -22.0390  -12.6480   22.1260 N   0  0  0  0  0  0  0  0  0  0  0  0
  -22.3380  -14.3860   20.7620 O   0  0  0  0  0  0  0  0  0  0  0  0
  -22.3960  -11.8060   22.5500 H   0  0  0  0  0  0  0  0  0  0  0  0
  -21.1080  -12.9610   22.3670 H   0  0  0  0  0  0  0  0  0  0  0  0
  -25.4100  -14.9760   20.4150 N   0  0  0  0  0  0  0  0  0  0  0  0
  -24.6390  -15.6270   20.5190 H   0  0  0  0  0  0  0  0  0  0  0  0
  -26.2210  -15.3840   19.9710 H   0  0  0  0  0  0  0  0  0  0  0  0
  -31.1780  -21.7230   21.1650 C   0  0  0  0  0  2  0  0  0  0  0  0
  -30.4960  -23.0500   21.5270 C   0  0  0  0  0  0  0  0  0  0  0  0
  -29.6010  -23.5500   20.6650 N   0  0  0  0  0  0  0  0  0  0  0  0
  -30.8340  -23.6490   22.5470 O   0  0  0  0  0  0  0  0  0  0  0  0
  -29.3200  -22.9610   19.8900 H   0  0  0  0  0  0  0  0  0  0  0  0
  -29.1470  -24.9310   20.6690 C   0  0  0  0  0  2  0  0  0  0  0  0
  -27.9860  -25.1950   19.6900 C   0  0  0  0  0  2  0  0  0  0  0  0
  -28.0070  -26.5990   19.4500 O   0  0  0  0  0  0  0  0  0  0  0  0
  -24.4740  -31.5900   23.0210 C   0  0  0  0  0  0  0  0  0  0  0  0
  -26.8280  -27.2920   19.5630 C   0  0  0  0  0  0  0  0  0  0  0  0
  -23.1370  -30.3110   21.3750 C   0  0  0  0  0  3  0  0  0  0  0  0
  -24.4660  -28.8170   19.7920 C   0  0  0  0  0  0  0  0  0  0  0  0
  -25.6490  -30.6350   21.0400 C   0  0  0  0  0  2  0  0  0  0  0  0
  -25.6650  -29.2970   20.3320 C   0  0  0  0  0  0  0  0  0  0  0  0
  -26.8500  -28.5430   20.2130 C   0  0  0  0  0  3  0  0  0  0  0  0
  -25.6160  -26.8100   19.0260 C   0  0  0  0  0  3  0  0  0  0  0  0
  -24.4340  -27.5700   19.1380 C   0  0  0  0  0  3  0  0  0  0  0  0
  -23.2470  -29.6960   19.9530 C   0  0  0  0  0  2  0  0  0  0  0  0
  -24.4420  -30.8550   21.8720 N   0  0  0  0  0  0  0  0  0  0  0  0
  -23.4340  -31.8520   23.6420 O   0  0  0  0  0  0  0  0  0  0  0  0
  -22.5180  -29.2520   22.3170 C   0  0  0  0  0  0  0  0  0  0  0  0
  -21.1870  -29.0920   22.2430 N   0  0  0  0  0  0  0  0  0  0  0  0
  -23.2300  -28.5820   23.0680 O   0  0  0  0  0  0  0  0  0  0  0  0
  -20.6710  -29.6870   21.6120 H   0  0  0  0  0  0  0  0  0  0  0  0
  -17.8350  -27.8640   22.7750 C   0  0  0  0  0  0  0  0  0  0  0  0
  -20.3960  -28.1260   23.0030 C   0  0  0  0  0  3  0  0  0  0  0  0
  -20.4940  -26.7130   22.3830 C   0  0  0  0  0  2  0  0  0  0  0  0
  -19.3750  -26.4160   21.3810 C   0  0  0  0  0  2  0  0  0  0  0  0
  -18.0060  -26.5360   22.0580 C   0  0  0  0  0  2  0  0  0  0  0  0
  -18.9580  -28.6180   23.2060 C   0  0  0  0  0  0  0  0  0  0  0  0
  -18.7480  -29.8650   23.8330 C   0  0  0  0  0  3  0  0  0  0  0  0
  -17.4450  -30.3550   24.0400 C   0  0  0  0  0  3  0  0  0  0  0  0
  -16.3350  -29.5970   23.6270 C   0  0  0  0  0  3  0  0  0  0  0  0
  -16.5320  -28.3550   22.9980 C   0  0  0  0  0  3  0  0  0  0  0  0
  -25.8100  -32.1540   23.5970 C   0  0  0  0  0  3  0  0  0  0  0  0
  -25.5540  -33.5300   24.0410 N   0  0  0  0  0  0  0  0  0  0  0  0
  -25.8870  -34.6270   23.3480 C   0  0  0  0  0  0  0  0  0  0  0  0
  -26.5120  -34.5840   22.2850 O   0  0  0  0  0  0  0  0  0  0  0  0
  -24.9940  -33.6390   24.8730 H   0  0  0  0  0  0  0  0  0  0  0  0
  -24.1970  -36.4830   23.1940 C   0  0  0  0  0  1  0  0  0  0  0  0
  -25.4560  -35.9890   23.9250 C   0  0  0  0  0  3  0  0  0  0  0  0
  -27.6390  -36.7610   24.7410 C   0  0  0  0  0  1  0  0  0  0  0  0
  -26.5120  -37.0220   23.8490 N   0  0  0  0  0  0  0  0  0  0  0  0
  -26.1350  -37.9400   24.0720 H   0  0  0  0  0  0  0  0  0  0  0  0
  -26.3940  -31.2860   24.7790 C   0  0  1  0  0  0  0  0  0  0  0  0
  -25.3750  -31.0110   25.9080 C   0  0  0  0  0  1  0  0  0  0  0  0
  -26.9050  -29.9270   24.2490 C   0  0  0  0  0  1  0  0  0  0  0  0
  -27.6110  -32.0060   25.4040 C   0  0  0  0  0  1  0  0  0  0  0  0
  1  2  1  0
  1  3  1  0
  3 51  1  0
  4  1  2  0
  5  7  2  0
  5  6  1  0
  6  9  2  0
  7 10  1  0
  9  8  1  0
  9 11  1  0
 10  3  1  0
 10  8  2  0
 11 12  2  0
 12 21  1  0
 13 21  1  0
 14 19  1  0
 15 16  1  0
 15 14  1  0
 17 16  1  0
 17 26  1  0
 17 18  1  0
 19 13  1  0
 19 18  1  0
 20 13  2  0
 21 22  1  0
 23 24  2  0
 24 43  1  0
 25 24  1  0
 25 28  1  0
 26 27  1  0
 26 23  1  0
 27 25  2  0
 28 29  1  0
 29 30  2  0
 31 34  1  0
 31 30  1  0
 32 31  2  0
 33 32  1  0
 33 28  2  0
 34 35  1  0
 35 36  1  0
 36 37  2  0
 38 37  1  0
 38 42  1  0
 39 38  2  0
 40 35  2  0
 40 39  1  0
 41 40  1  0
 43 44  1  0
 44 47  1  0
 44 46  1  0
 45 43  2  0
 48 49  1  0
 48 23  1  0
 50 48  1  0
 51 52  1  0
 52 54  2  0
 53 56  1  0
 53 52  1  0
 55 53  1  0
 57 56  1  0
 58 60  1  0
 58 57  1  0
 59 70  2  0
 60 65  1  0
 61 69  1  0
 61 71  1  0
 62 68  1  0
 62 64  1  0
 63 69  1  0
 64 63  1  0
 65 64  2  0
 66 67  1  0
 66 60  2  0
 67 62  2  0
 68 61  1  0
 69 59  1  0
 71 73  2  0
 72 71  1  0
 74 72  1  0
 75 84  2  0
 75 80  1  0
 76 72  1  0
 76 80  1  0
 77 76  1  0
 78 79  1  0
 78 77  1  0
 79 75  1  0
 80 81  2  0
 81 82  1  0
 83 82  2  0
 84 83  1  0
 85 59  1  0
 85 86  1  0
 85 95  1  0
 86 89  1  0
 87 91  1  0
 87 86  1  0
 88 87  2  0
 91 90  1  0
 93 91  1  0
 93 94  1  0
 93 92  1  0
 95 98  1  1
 95 96  1  0
 97 95  1  0
M  ISO  4  13 100  21 100  57 101  58 101
M  END
>  <TORSDO>  (42) 
F 22

>  <SCORE>  (42) 
-12.415

>  <name>  (42) 
43

>  <ligand_id>  (42) 
43

>  <original_smiles>  (42) 
[H]C(=NN([H])C(=O)N1C([H])([H])C([H])([H])C([H])([H])C([H])(n2nc(-c3c([H])c([H])c(Oc4c([H])c([H])c(F)c([H])c4F)c([H])c3[H])c(C(=O)N([H])[H])c2N([H])[H])C1([H])[H])c1c([H])c([H])c([H])c(N(C(=O)C([H])([H])[H])C([H])([H])C(=O)N([H])C([H])([H])C([H])([H])Oc2c([H])c([H])c3c(c2[H])C([H])([H])N(C(=O)C([H])(N([H])C(=O)C([H])(N([H])C([H])([H])[H])C([H])([H])[H])C(C([H])([H])[H])(C([H])([H])[H])C([H])([H])[H])C([H])(C(=O)N([H])C2([H])c4c([H])c([H])c([H])c([H])c4C([H])([H])C([H])([H])C2([H])[H])C3([H])[H])c1[H]

>  <smiles>  (42) 
[H]C(=NN([H])C(=O)N1C([H])([H])C([H])([H])C([H])([H])C([H])(n2nc(-c3c([H])c([H])c(Oc4c([H])c([H])c(F)c([H])c4F)c([H])c3[H])c(C(=O)N([H])[H])c2N([H])[H])C1([H])[H])c1c([H])c([H])c([H])c(N(C(=O)C([H])([H])[H])C([H])([H])C(=O)N([H])C([H])([H])C([H])([H])Oc2c([H])c([H])c3c(c2[H])C([H])([H])N(C(=O)C([H])(N([H])C(=O)C([H])(N([H])C([H])([H])[H])C([H])([H])[H])C(C([H])([H])[H])(C([H])([H])[H])C([H])([H])[H])C([H])(C(=O)N([H])C2([H])c4c([H])c([H])c([H])c([H])c4C([H])([H])C([H])([H])C2([H])[H])C3([H])[H])c1[H]

$$$$
44:0:0
     RDKit          3D

106115  0  0  1  0  0  0  0  0999 V2000
  -32.2160  -24.2220   14.3400 C   0  0  0  0  0  2  0  0  0  0  0  0
  -32.5270  -25.4590   15.1900 C   0  0  0  0  0  2  0  0  0  0  0  0
  -31.8860  -23.0590   15.2820 C   0  0  0  0  0  2  0  0  0  0  0  0
  -31.3300  -25.8570   16.0920 C   0  0  0  0  0  3  0  0  0  0  0  0
  -30.6490  -23.3730   16.1560 C   0  0  0  0  0  3  0  0  0  0  0  0
  -30.7480  -24.6960   16.7910 N   0  0  0  0  0  4  0  0  0  0  0  0
  -29.8270  -24.9530   17.1060 H   0  0  0  0  0  0  0  0  0  0  0  0
  -31.3140  -24.5850   17.6180 H   0  0  0  0  0  0  0  0  0  0  0  0
  -27.7870  -19.6200   18.6740 C   0  0  0  0  0  0  0  0  0  0  0  0
  -30.4180  -20.9070   16.8650 C   0  0  0  0  0  2  0  0  0  0  0  0
  -29.1930  -22.6970   18.1860 C   0  0  0  0  0  2  0  0  0  0  0  0
  -30.2070  -19.9840   18.0660 C   0  0  0  0  0  2  0  0  0  0  0  0
  -28.9940  -21.6690   19.3110 C   0  0  0  0  0  2  0  0  0  0  0  0
  -30.4520  -22.3730   17.3240 C   0  0  0  0  0  3  0  0  0  0  0  0
  -28.9360  -20.3350   18.7130 N   0  0  0  0  0  0  0  0  0  0  0  0
  -26.7340  -20.0310   19.1700 O   0  0  0  0  0  0  0  0  0  0  0  0
  -27.7530  -18.2620   17.9740 C   0  0  0  0  0  2  0  0  0  0  0  0
  -27.9790  -17.0770   18.9290 C   0  0  0  0  0  2  0  0  0  0  0  0
  -29.4270  -16.7960   19.3900 C   0  0  0  0  0  2  0  0  0  0  0  0
  -29.7700  -17.3090   20.8100 C   0  0  0  0  0  2  0  0  0  0  0  0
  -30.9240  -16.5420   21.5020 C   0  0  0  0  0  2  0  0  0  0  0  0
  -31.2140  -14.2030   20.6810 C   0  0  0  0  0  0  0  0  0  0  0  0
  -30.7960  -12.1500   19.3850 C   0  0  0  0  0  2  0  0  0  0  0  0
  -29.9010  -12.4610   18.1680 C   0  0  0  0  0  2  0  0  0  0  0  0
  -28.4120  -12.3450   18.5550 C   0  0  0  0  0  2  0  0  0  0  0  0
  -28.0740  -13.1580   19.8320 C   0  0  0  0  0  3  0  0  0  0  0  0
  -29.0900  -12.8660   20.9640 C   0  0  0  0  0  2  0  0  0  0  0  0
  -30.4580  -13.0940   20.4600 N   0  0  0  0  0  0  0  0  0  0  0  0
  -32.2710  -14.4370   20.0920 O   0  0  0  0  0  0  0  0  0  0  0  0
  -30.6680  -15.1000   21.5150 N   0  0  0  0  0  0  0  0  0  0  0  0
  -29.8640  -14.7870   22.0390 H   0  0  0  0  0  0  0  0  0  0  0  0
  -25.6690  -13.8570   20.4440 C   0  0  0  0  0  0  0  0  0  0  0  0
  -24.5660  -13.1250   20.7810 C   0  0  0  0  0  0  0  0  0  0  0  0
  -24.9890  -11.7620   20.7940 C   0  0  0  0  0  0  0  0  0  0  0  0
  -26.6960  -12.9410   20.2640 N   0  0  0  0  0  0  0  0  0  0  0  0
  -26.2860  -11.6760   20.5320 N   0  0  0  0  0  0  0  0  0  0  0  0
  -24.2200  -10.5270   20.9850 C   0  0  0  0  0  0  0  0  0  0  0  0
  -24.5940   -9.5720   21.9540 C   0  0  0  0  0  3  0  0  0  0  0  0
  -23.8260   -8.4030   22.1340 C   0  0  0  0  0  3  0  0  0  0  0  0
  -22.6720   -8.1800   21.3450 C   0  0  0  0  0  0  0  0  0  0  0  0
  -22.3190   -9.1250   20.3660 C   0  0  0  0  0  3  0  0  0  0  0  0
  -23.0870  -10.2860   20.1840 C   0  0  0  0  0  3  0  0  0  0  0  0
  -21.8810   -7.0620   21.4300 O   0  0  0  0  0  0  0  0  0  0  0  0
  -21.7690   -6.3500   22.5970 C   0  0  0  0  0  0  0  0  0  0  0  0
  -21.3100   -6.9470   23.7910 C   0  0  0  0  0  3  0  0  0  0  0  0
  -21.1430   -6.1620   24.9490 C   0  0  0  0  0  3  0  0  0  0  0  0
  -21.4270   -4.7830   24.9130 C   0  0  0  0  0  0  0  0  0  0  0  0
  -21.8810   -4.1880   23.7240 C   0  0  0  0  0  3  0  0  0  0  0  0
  -22.0460   -4.9690   22.5670 C   0  0  0  0  0  0  0  0  0  0  0  0
  -22.4570   -4.3870   21.4150 F   0  0  0  0  0  0  0  0  0  0  0  0
  -21.2610   -4.0310   26.0240 F   0  0  0  0  0  0  0  0  0  0  0  0
  -23.1740  -13.6410   20.9920 C   0  0  0  0  0  0  0  0  0  0  0  0
  -22.3970  -12.9930   21.8490 N   0  0  0  0  0  0  0  0  0  0  0  0
  -22.7830  -14.6610   20.4260 O   0  0  0  0  0  0  0  0  0  0  0  0
  -22.7090  -12.1620   22.3320 H   0  0  0  0  0  0  0  0  0  0  0  0
  -21.4750  -13.3540   22.0450 H   0  0  0  0  0  0  0  0  0  0  0  0
  -25.8720  -15.2210   20.2650 N   0  0  0  0  0  0  0  0  0  0  0  0
  -25.1240  -15.8930   20.3910 H   0  0  0  0  0  0  0  0  0  0  0  0
  -26.7650  -15.6380   20.0450 H   0  0  0  0  0  0  0  0  0  0  0  0
  -31.7220  -26.8160   17.2370 C   0  0  0  0  0  0  0  0  0  0  0  0
  -30.8000  -26.9840   18.2000 N   0  0  0  0  0  0  0  0  0  0  0  0
  -32.8670  -27.2590   17.3410 O   0  0  0  0  0  0  0  0  0  0  0  0
  -29.8330  -26.7620   18.0100 H   0  0  0  0  0  0  0  0  0  0  0  0
  -31.0800  -27.3230   19.5860 C   0  0  0  0  0  2  0  0  0  0  0  0
  -29.7860  -27.7280   20.2960 C   0  0  0  0  0  2  0  0  0  0  0  0
  -28.6420  -26.8770   20.0490 O   0  0  0  0  0  0  0  0  0  0  0  0
  -24.6460  -31.8690   23.1900 C   0  0  0  0  0  0  0  0  0  0  0  0
  -27.4140  -27.5120   20.1510 C   0  0  0  0  0  0  0  0  0  0  0  0
  -23.4540  -30.4390   21.5470 C   0  0  0  0  0  3  0  0  0  0  0  0
  -24.9370  -28.9020   20.1410 C   0  0  0  0  0  0  0  0  0  0  0  0
  -25.9580  -30.8470   21.3500 C   0  0  0  0  0  2  0  0  0  0  0  0
  -26.0620  -29.4670   20.7470 C   0  0  0  0  0  0  0  0  0  0  0  0
  -27.2710  -28.7670   20.7880 C   0  0  0  0  0  3  0  0  0  0  0  0
  -26.2670  -26.9370   19.5550 C   0  0  0  0  0  3  0  0  0  0  0  0
  -25.0280  -27.6220   19.5570 C   0  0  0  0  0  3  0  0  0  0  0  0
  -23.6760  -29.7390   20.1730 C   0  0  0  0  0  2  0  0  0  0  0  0
  -24.7040  -31.0670   22.0900 N   0  0  0  0  0  0  0  0  0  0  0  0
  -23.5640  -32.1340   23.7280 O   0  0  0  0  0  0  0  0  0  0  0  0
  -22.8180  -29.4190   22.5120 C   0  0  0  0  0  0  0  0  0  0  0  0
  -21.4940  -29.2400   22.3930 N   0  0  0  0  0  0  0  0  0  0  0  0
  -23.5090  -28.7950   23.3210 O   0  0  0  0  0  0  0  0  0  0  0  0
  -21.0030  -29.7950   21.7070 H   0  0  0  0  0  0  0  0  0  0  0  0
  -18.1150  -28.0940   22.9290 C   0  0  0  0  0  0  0  0  0  0  0  0
  -20.6800  -28.3050   23.1650 C   0  0  0  0  0  3  0  0  0  0  0  0
  -20.7490  -26.8790   22.5670 C   0  0  0  0  0  2  0  0  0  0  0  0
  -19.6250  -26.5900   21.5660 C   0  0  0  0  0  2  0  0  0  0  0  0
  -18.2580  -26.7510   22.2350 C   0  0  0  0  0  2  0  0  0  0  0  0
  -19.2530  -28.8310   23.3510 C   0  0  0  0  0  0  0  0  0  0  0  0
  -19.0650  -30.0940   23.9560 C   0  0  0  0  0  3  0  0  0  0  0  0
  -17.7720  -30.6150   24.1470 C   0  0  0  0  0  3  0  0  0  0  0  0
  -16.6480  -29.8730   23.7440 C   0  0  0  0  0  3  0  0  0  0  0  0
  -16.8210  -28.6140   23.1420 C   0  0  0  0  0  3  0  0  0  0  0  0
  -25.9300  -32.5110   23.8120 C   0  0  0  0  0  3  0  0  0  0  0  0
  -26.4700  -31.7340   25.0760 C   0  0  1  0  0  0  0  0  0  0  0  0
  -25.3910  -31.4650   26.1500 C   0  0  0  0  0  1  0  0  0  0  0  0
  -27.0690  -30.3700   24.6590 C   0  0  0  0  0  1  0  0  0  0  0  0
  -27.6160  -32.5340   25.7380 C   0  0  0  0  0  1  0  0  0  0  0  0
  -25.6100  -33.9030   24.1530 N   0  0  0  0  0  0  0  0  0  0  0  0
  -25.9310  -34.9620   23.3960 C   0  0  0  0  0  0  0  0  0  0  0  0
  -26.6030  -34.8690   22.3640 O   0  0  0  0  0  0  0  0  0  0  0  0
  -25.0160  -34.0490   24.9560 H   0  0  0  0  0  0  0  0  0  0  0  0
  -24.1850  -36.7330   23.0350 C   0  0  0  0  0  1  0  0  0  0  0  0
  -25.4240  -36.3420   23.8560 C   0  0  0  0  0  3  0  0  0  0  0  0
  -27.5460  -37.2400   24.7090 C   0  0  0  0  0  1  0  0  0  0  0  0
  -26.4470  -37.4070   23.7590 N   0  0  0  0  0  0  0  0  0  0  0  0
  -26.0330  -38.3230   23.9120 H   0  0  0  0  0  0  0  0  0  0  0  0
  1  2  1  0
  1  3  1  0
  2  4  1  0
  4  6  1  0
  4 60  1  0
  5  3  1  0
  5  6  1  0
  5 14  1  0
  6  7  1  0
  6  8  1  0
  9 15  1  0
  9 16  2  0
 10 12  1  0
 11 13  1  0
 12 15  1  0
 14 10  1  0
 14 11  1  0
 15 13  1  0
 17  9  1  0
 17 18  1  0
 18 19  1  0
 19 20  1  0
 20 21  1  0
 21 30  1  0
 22 30  1  0
 23 28  1  0
 24 25  1  0
 24 23  1  0
 26 25  1  0
 26 35  1  0
 26 27  1  0
 28 22  1  0
 28 27  1  0
 29 22  2  0
 30 31  1  0
 32 33  2  0
 33 34  1  0
 33 52  1  0
 34 37  1  0
 35 32  1  0
 35 36  1  0
 36 34  2  0
 37 38  1  0
 38 39  2  0
 40 43  1  0
 40 39  1  0
 41 40  2  0
 42 41  1  0
 42 37  2  0
 43 44  1  0
 44 45  1  0
 45 46  2  0
 47 46  1  0
 47 51  1  0
 48 47  2  0
 49 44  2  0
 49 48  1  0
 50 49  1  0
 52 53  1  0
 53 56  1  0
 53 55  1  0
 54 52  2  0
 57 58  1  0
 57 32  1  0
 59 57  1  0
 60 62  2  0
 60 61  1  0
 61 64  1  0
 63 61  1  0
 64 65  1  0
 66 68  1  0
 66 65  1  0
 67 78  2  0
 68 73  1  0
 69 77  1  0
 69 79  1  0
 70 76  1  0
 70 72  1  0
 71 77  1  0
 72 73  2  0
 72 71  1  0
 74 75  1  0
 74 68  2  0
 75 70  2  0
 76 69  1  0
 77 67  1  0
 79 81  2  0
 80 79  1  0
 82 80  1  0
 83 92  2  0
 83 88  1  0
 84 80  1  0
 84 88  1  0
 85 84  1  0
 86 87  1  0
 86 85  1  0
 87 83  1  0
 88 89  2  0
 89 90  1  0
 91 90  2  0
 92 91  1  0
 93 67  1  0
 93 98  1  0
 93 94  1  0
 94 97  1  1
 94 95  1  0
 96 94  1  0
 98101  1  0
 99103  1  0
 99 98  1  0
100 99  2  0
103102  1  0
105103  1  0
105106  1  0
105104  1  0
M  ISO  4  22 100  30 100  65 101  66 101
M  END
>  <TORSDO>  (43) 
F 25

>  <SCORE>  (43) 
-12.350

>  <name>  (43) 
44

>  <ligand_id>  (43) 
44

>  <original_smiles>  (43) 
[H]c1c([H])c([H])c2c(c1[H])C([H])([H])C([H])([H])C([H])([H])C2([H])N([H])C(=O)C1([H])N(C(=O)C([H])(N([H])C(=O)C([H])(N([H])C([H])([H])[H])C([H])([H])[H])C(C([H])([H])[H])(C([H])([H])[H])C([H])([H])[H])C([H])([H])c2c([H])c(OC([H])([H])C([H])([H])N([H])C(=O)C3([H])C([H])([H])C([H])([H])C([H])([H])C([H])(C4([H])C([H])([H])C([H])([H])N(C(=O)C([H])([H])C([H])([H])C([H])([H])C([H])([H])C([H])([H])N([H])C(=O)N5C([H])([H])C([H])([H])C([H])([H])C([H])(n6nc(-c7c([H])c([H])c(Oc8c([H])c([H])c(F)c([H])c8F)c([H])c7[H])c(C(=O)N([H])[H])c6N([H])[H])C5([H])[H])C([H])([H])C4([H])[H])[N+]3([H])[H])c([H])c([H])c2C1([H])[H]

>  <smiles>  (43) 
[H]c1c([H])c([H])c2c(c1[H])C([H])([H])C([H])([H])C([H])([H])C2([H])N([H])C(=O)C1([H])N(C(=O)C([H])(N([H])C(=O)C([H])(N([H])C([H])([H])[H])C([H])([H])[H])C(C([H])([H])[H])(C([H])([H])[H])C([H])([H])[H])C([H])([H])c2c([H])c(OC([H])([H])C([H])([H])N([H])C(=O)C3([H])C([H])([H])C([H])([H])C([H])([H])C([H])(C4([H])C([H])([H])C([H])([H])N(C(=O)C([H])([H])C([H])([H])C([H])([H])C([H])([H])C([H])([H])N([H])C(=O)N5C([H])([H])C([H])([H])C([H])([H])C([H])(n6nc(-c7c([H])c([H])c(Oc8c([H])c([H])c(F)c([H])c8F)c([H])c7[H])c(C(=O)N([H])[H])c6N([H])[H])C5([H])[H])C([H])([H])C4([H])[H])[N+]3([H])[H])c([H])c([H])c2C1([H])[H]

$$$$
45:0:0
     RDKit          3D

 97104  0  0  1  0  0  0  0  0999 V2000
  -29.5210  -23.9870   20.6600 C   0  0  0  0  0  0  0  0  0  0  0  0
  -29.7620  -22.7310   21.0590 N   0  0  0  0  0  0  0  0  0  0  0  0
  -29.7270  -24.3420   19.5000 O   0  0  0  0  0  0  0  0  0  0  0  0
  -29.5910  -22.4670   22.0200 H   0  0  0  0  0  0  0  0  0  0  0  0
  -31.7700  -21.7480   20.0100 C   0  0  0  0  0  1  0  0  0  0  0  0
  -30.2440  -21.6490   20.1920 C   0  0  0  0  0  3  0  0  0  0  0  0
  -29.8010  -20.2880   20.7480 C   0  0  0  0  0  0  0  0  0  0  0  0
  -29.5340  -20.1230   21.9450 O   0  0  0  0  0  0  0  0  0  0  0  0
  -29.7070  -19.1140   19.7580 C   0  0  0  0  0  2  0  0  0  0  0  0
  -29.7760  -17.8530   20.4300 O   0  0  0  0  0  0  0  0  0  0  0  0
  -31.1040  -17.4860   20.7920 C   0  0  0  0  0  2  0  0  0  0  0  0
  -31.0610  -16.3280   21.8030 C   0  0  0  0  0  2  0  0  0  0  0  0
  -30.7610  -14.3700   20.2980 C   0  0  0  0  0  0  0  0  0  0  0  0
  -30.3160  -12.3200   19.0050 C   0  0  0  0  0  2  0  0  0  0  0  0
  -29.3380  -12.5850   17.8450 C   0  0  0  0  0  2  0  0  0  0  0  0
  -27.8810  -12.4590   18.3270 C   0  0  0  0  0  2  0  0  0  0  0  0
  -27.6060  -13.2780   19.6160 C   0  0  0  0  0  3  0  0  0  0  0  0
  -28.6830  -12.9880   20.6820 C   0  0  0  0  0  2  0  0  0  0  0  0
  -30.0060  -13.2610   20.0900 N   0  0  0  0  0  0  0  0  0  0  0  0
  -31.7730  -14.6380   19.6450 O   0  0  0  0  0  0  0  0  0  0  0  0
  -30.3590  -15.1490   21.3040 N   0  0  0  0  0  0  0  0  0  0  0  0
  -29.5250  -14.8610   21.7930 H   0  0  0  0  0  0  0  0  0  0  0  0
  -25.2300  -13.9210   20.3800 C   0  0  0  0  0  0  0  0  0  0  0  0
  -24.1610  -13.1630   20.7800 C   0  0  0  0  0  0  0  0  0  0  0  0
  -24.6070  -11.8070   20.7450 C   0  0  0  0  0  0  0  0  0  0  0  0
  -26.2600  -13.0280   20.1290 N   0  0  0  0  0  0  0  0  0  0  0  0
  -25.8870  -11.7500   20.4040 N   0  0  0  0  0  0  0  0  0  0  0  0
  -23.8730  -10.5530   20.9620 C   0  0  0  0  0  0  0  0  0  0  0  0
  -24.3270   -9.5820   21.8830 C   0  0  0  0  0  3  0  0  0  0  0  0
  -23.5950   -8.3930   22.0870 C   0  0  0  0  0  3  0  0  0  0  0  0
  -22.3970   -8.1650   21.3700 C   0  0  0  0  0  0  0  0  0  0  0  0
  -21.9610   -9.1250   20.4390 C   0  0  0  0  0  3  0  0  0  0  0  0
  -22.6920  -10.3060   20.2340 C   0  0  0  0  0  3  0  0  0  0  0  0
  -21.6330   -7.0280   21.4850 O   0  0  0  0  0  0  0  0  0  0  0  0
  -21.6230   -6.2810   22.6350 C   0  0  0  0  0  0  0  0  0  0  0  0
  -21.2740   -6.8390   23.8840 C   0  0  0  0  0  3  0  0  0  0  0  0
  -21.2090   -6.0200   25.0280 C   0  0  0  0  0  3  0  0  0  0  0  0
  -21.4820   -4.6430   24.9260 C   0  0  0  0  0  0  0  0  0  0  0  0
  -21.8240   -4.0830   23.6830 C   0  0  0  0  0  3  0  0  0  0  0  0
  -21.8910   -4.9000   22.5400 C   0  0  0  0  0  0  0  0  0  0  0  0
  -22.2010   -4.3520   21.3390 F   0  0  0  0  0  0  0  0  0  0  0  0
  -21.4120   -3.8540   26.0230 F   0  0  0  0  0  0  0  0  0  0  0  0
  -22.7780  -13.6570   21.0880 C   0  0  0  0  0  0  0  0  0  0  0  0
  -22.0660  -12.9750   21.9790 N   0  0  0  0  0  0  0  0  0  0  0  0
  -22.3360  -14.6830   20.5740 O   0  0  0  0  0  0  0  0  0  0  0  0
  -22.4370  -12.1440   22.4160 H   0  0  0  0  0  0  0  0  0  0  0  0
  -21.1370  -13.2880   22.2250 H   0  0  0  0  0  0  0  0  0  0  0  0
  -25.4080  -15.2880   20.1920 N   0  0  0  0  0  0  0  0  0  0  0  0
  -24.6620  -15.9610   20.3340 H   0  0  0  0  0  0  0  0  0  0  0  0
  -26.2690  -15.7120   19.8690 H   0  0  0  0  0  0  0  0  0  0  0  0
  -28.9120  -24.9490   21.6930 C   0  0  0  0  0  3  0  0  0  0  0  0
  -27.5070  -24.5770   21.9640 N   0  0  0  0  0  4  0  0  0  0  0  0
  -26.9670  -24.6450   21.1170 H   0  0  0  0  0  0  0  0  0  0  0  0
  -27.0960  -25.1690   22.6630 H   0  0  0  0  0  0  0  0  0  0  0  0
  -27.4470  -23.6260   22.2830 H   0  0  0  0  0  0  0  0  0  0  0  0
  -29.0600  -26.4450   21.3080 C   0  0  0  0  0  2  0  0  0  0  0  0
  -28.3760  -26.7310   20.0840 O   0  0  0  0  0  0  0  0  0  0  0  0
  -24.5880  -31.8980   23.2310 C   0  0  0  0  0  0  0  0  0  0  0  0
  -27.2300  -27.4820   20.1530 C   0  0  0  0  0  0  0  0  0  0  0  0
  -23.3760  -30.4950   21.5930 C   0  0  0  0  0  3  0  0  0  0  0  0
  -24.8290  -28.9590   20.1680 C   0  0  0  0  0  0  0  0  0  0  0  0
  -25.8970  -30.8600   21.3870 C   0  0  0  0  0  2  0  0  0  0  0  0
  -25.9830  -29.4880   20.7610 C   0  0  0  0  0  0  0  0  0  0  0  0
  -27.1870  -28.7570   20.7600 C   0  0  0  0  0  3  0  0  0  0  0  0
  -26.0680  -26.9660   19.5440 C   0  0  0  0  0  3  0  0  0  0  0  0
  -24.8630  -27.6920   19.5600 C   0  0  0  0  0  3  0  0  0  0  0  0
  -23.5820  -29.8120   20.2150 C   0  0  0  0  0  2  0  0  0  0  0  0
  -24.6390  -31.0970   22.1300 N   0  0  0  0  0  0  0  0  0  0  0  0
  -23.5090  -32.1720   23.7740 O   0  0  0  0  0  0  0  0  0  0  0  0
  -22.7310  -29.4730   22.5560 C   0  0  0  0  0  0  0  0  0  0  0  0
  -21.4070  -29.2870   22.4270 N   0  0  0  0  0  0  0  0  0  0  0  0
  -23.4170  -28.8450   23.3680 O   0  0  0  0  0  0  0  0  0  0  0  0
  -20.9170  -29.8420   21.7390 H   0  0  0  0  0  0  0  0  0  0  0  0
  -18.0350  -28.0890   22.9210 C   0  0  0  0  0  0  0  0  0  0  0  0
  -20.5910  -28.3500   23.1970 C   0  0  0  0  0  3  0  0  0  0  0  0
  -20.6980  -26.9180   22.6240 C   0  0  0  0  0  2  0  0  0  0  0  0
  -19.6000  -26.5920   21.6070 C   0  0  0  0  0  2  0  0  0  0  0  0
  -18.2160  -26.7380   22.2470 C   0  0  0  0  0  2  0  0  0  0  0  0
  -19.1510  -28.8540   23.3520 C   0  0  0  0  0  0  0  0  0  0  0  0
  -18.9300  -30.1200   23.9360 C   0  0  0  0  0  3  0  0  0  0  0  0
  -17.6240  -30.6210   24.0960 C   0  0  0  0  0  3  0  0  0  0  0  0
  -16.5210  -29.8510   23.6830 C   0  0  0  0  0  3  0  0  0  0  0  0
  -16.7270  -28.5870   23.1010 C   0  0  0  0  0  3  0  0  0  0  0  0
  -25.8780  -32.5240   23.8490 C   0  0  0  0  0  3  0  0  0  0  0  0
  -26.4050  -31.7410   25.1150 C   0  0  1  0  0  0  0  0  0  0  0  0
  -25.3180  -31.4930   26.1860 C   0  0  0  0  0  1  0  0  0  0  0  0
  -26.9880  -30.3690   24.7040 C   0  0  0  0  0  1  0  0  0  0  0  0
  -27.5620  -32.5300   25.7720 C   0  0  0  0  0  1  0  0  0  0  0  0
  -25.5730  -33.9190   24.1880 N   0  0  0  0  0  0  0  0  0  0  0  0
  -25.8990  -34.9710   23.4270 C   0  0  0  0  0  0  0  0  0  0  0  0
  -26.5650  -34.8730   22.3930 O   0  0  0  0  0  0  0  0  0  0  0  0
  -24.9880  -34.0710   24.9970 H   0  0  0  0  0  0  0  0  0  0  0  0
  -24.1680  -36.7610   23.0820 C   0  0  0  0  0  1  0  0  0  0  0  0
  -25.4110  -36.3550   23.8890 C   0  0  0  0  0  3  0  0  0  0  0  0
  -27.5500  -37.2380   24.7130 C   0  0  0  0  0  1  0  0  0  0  0  0
  -26.4410  -37.4110   23.7760 N   0  0  0  0  0  0  0  0  0  0  0  0
  -26.0340  -38.3290   23.9350 H   0  0  0  0  0  0  0  0  0  0  0  0
  1  2  1  0
  1 51  1  0
  2  4  1  0
  3  1  2  0
  6  5  1  0
  6  7  1  0
  6  2  1  0
  7  8  2  0
  9 10  1  0
  9  7  1  0
 10 11  1  0
 11 12  1  0
 13 21  1  0
 14 19  1  0
 15 16  1  0
 15 14  1  0
 17 16  1  0
 17 26  1  0
 17 18  1  0
 19 13  1  0
 19 18  1  0
 20 13  2  0
 21 22  1  0
 21 12  1  0
 23 24  2  0
 24 43  1  0
 25 24  1  0
 25 28  1  0
 26 23  1  0
 26 27  1  0
 27 25  2  0
 28 29  1  0
 29 30  2  0
 31 34  1  0
 31 30  1  0
 32 31  2  0
 33 32  1  0
 33 28  2  0
 34 35  1  0
 35 36  1  0
 36 37  2  0
 38 37  1  0
 38 42  1  0
 39 38  2  0
 40 35  2  0
 40 39  1  0
 41 40  1  0
 43 44  1  0
 44 47  1  0
 44 46  1  0
 45 43  2  0
 48 49  1  0
 48 23  1  0
 50 48  1  0
 51 56  1  0
 51 52  1  0
 52 55  1  0
 52 54  1  0
 53 52  1  0
 57 59  1  0
 57 56  1  0
 58 69  2  0
 59 64  1  0
 60 68  1  0
 60 70  1  0
 61 67  1  0
 61 63  1  0
 62 68  1  0
 63 62  1  0
 64 63  2  0
 65 66  1  0
 65 59  2  0
 66 61  2  0
 67 60  1  0
 68 58  1  0
 70 72  2  0
 71 70  1  0
 73 71  1  0
 74 83  2  0
 74 79  1  0
 75 71  1  0
 75 79  1  0
 76 75  1  0
 77 78  1  0
 77 76  1  0
 78 74  1  0
 79 80  2  0
 80 81  1  0
 82 81  2  0
 83 82  1  0
 84 58  1  0
 84 89  1  0
 84 85  1  0
 85 88  1  1
 85 86  1  0
 87 85  1  0
 89 92  1  0
 90 94  1  0
 90 89  1  0
 91 90  2  0
 94 93  1  0
 96 94  1  0
 96 97  1  0
 96 95  1  0
M  ISO  4  13 100  21 100  56 101  57 101
M  END
>  <TORSDO>  (44) 
F 25

>  <SCORE>  (44) 
-12.350

>  <name>  (44) 
45

>  <ligand_id>  (44) 
45

>  <original_smiles>  (44) 
[H]c1c([H])c([H])c2c(c1[H])C([H])([H])C([H])([H])C([H])([H])C2([H])N([H])C(=O)C1([H])N(C(=O)C([H])(N([H])C(=O)C([H])(N([H])C([H])([H])[H])C([H])([H])[H])C(C([H])([H])[H])(C([H])([H])[H])C([H])([H])[H])C([H])([H])c2c([H])c(OC([H])([H])C([H])(C(=O)N([H])C([H])(C(=O)C([H])([H])OC([H])([H])C([H])([H])N([H])C(=O)N3C([H])([H])C([H])([H])C([H])([H])C([H])(n4nc(-c5c([H])c([H])c(Oc6c([H])c([H])c(F)c([H])c6F)c([H])c5[H])c(C(=O)N([H])[H])c4N([H])[H])C3([H])[H])C([H])([H])[H])[N+]([H])([H])[H])c([H])c([H])c2C1([H])[H]

>  <smiles>  (44) 
[H]c1c([H])c([H])c2c(c1[H])C([H])([H])C([H])([H])C([H])([H])C2([H])N([H])C(=O)C1([H])N(C(=O)C([H])(N([H])C(=O)C([H])(N([H])C([H])([H])[H])C([H])([H])[H])C(C([H])([H])[H])(C([H])([H])[H])C([H])([H])[H])C([H])([H])c2c([H])c(OC([H])([H])C([H])(C(=O)N([H])C([H])(C(=O)C([H])([H])OC([H])([H])C([H])([H])N([H])C(=O)N3C([H])([H])C([H])([H])C([H])([H])C([H])(n4nc(-c5c([H])c([H])c(Oc6c([H])c([H])c(F)c([H])c6F)c([H])c5[H])c(C(=O)N([H])[H])c4N([H])[H])C3([H])[H])C([H])([H])[H])[N+]([H])([H])[H])c([H])c([H])c2C1([H])[H]

$$$$
46:0:0
     RDKit          3D

127128  0  0  1  0  0  0  0  0999 V2000
  -28.0060  -17.2640   19.7270 C   0  0  0  0  0  0  0  0  0  0  0  0
  -29.0260  -17.0030   20.3600 O   0  0  0  0  0  0  0  0  0  0  0  0
  -28.0340  -18.3420   18.6490 C   0  0  0  0  0  2  0  0  0  0  0  0
  -29.0010  -20.5120   19.3130 C   0  0  0  0  0  0  0  0  0  0  0  0
  -27.9890  -19.6420   19.3020 N   0  0  0  0  0  0  0  0  0  0  0  0
  -29.9860  -20.3980   18.5780 O   0  0  0  0  0  0  0  0  0  0  0  0
  -27.2430  -19.7430   19.9840 H   0  0  0  0  0  0  0  0  0  0  0  0
  -28.9650  -21.6140   20.3880 C   0  0  0  0  0  3  0  0  0  0  0  0
  -31.1600  -20.5830   21.0630 C   0  0  0  0  0  0  0  0  0  0  0  0
  -30.2990  -21.6130   21.0210 N   0  0  0  0  0  0  0  0  0  0  0  0
  -30.8070  -19.4150   20.8900 O   0  0  0  0  0  0  0  0  0  0  0  0
  -30.7110  -22.5250   21.1900 H   0  0  0  0  0  0  0  0  0  0  0  0
  -32.6430  -20.9430   21.2870 C   0  0  0  0  0  2  0  0  0  0  0  0
  -32.9390  -23.2890   20.6100 C   0  0  0  0  0  0  0  0  0  0  0  0
  -33.9290  -25.5050   20.1830 C   0  0  0  0  0  2  0  0  0  0  0  0
  -32.8930  -26.5050   19.6370 C   0  0  0  0  0  2  0  0  0  0  0  0
  -32.8170  -26.4180   18.1120 C   0  0  0  0  0  2  0  0  0  0  0  0
  -32.4850  -24.9790   17.6810 C   0  0  0  0  0  3  0  0  0  0  0  0
  -33.5360  -23.9930   18.3100 C   0  0  0  0  0  2  0  0  0  0  0  0
  -33.5530  -24.1430   19.7640 N   0  0  0  0  0  0  0  0  0  0  0  0
  -32.4630  -23.6480   21.6880 O   0  0  0  0  0  0  0  0  0  0  0  0
  -33.0870  -21.9830   20.3480 N   0  0  0  0  0  0  0  0  0  0  0  0
  -33.6200  -21.7130   19.5300 H   0  0  0  0  0  0  0  0  0  0  0  0
  -31.2750  -24.4040   15.0690 C   0  0  0  0  0  0  0  0  0  0  0  0
  -31.9730  -23.9980   13.5570 C   0  0  0  0  0  2  0  0  0  0  0  0
  -34.3350  -24.5260   14.3520 C   0  0  0  0  0  2  0  0  0  0  0  0
  -32.4970  -24.8740   16.2430 N   0  0  0  0  0  0  0  0  0  0  0  0
  -34.0710  -24.9410   15.8230 N   0  0  0  0  0  2  0  0  0  0  0  0
  -35.5000  -25.5380   13.7580 C   0  0  0  0  0  0  0  0  0  0  0  0
  -36.8080  -25.1510   13.4470 C   0  0  0  0  0  3  0  0  0  0  0  0
  -37.6520  -25.8960   12.6010 C   0  0  0  0  0  3  0  0  0  0  0  0
  -37.1880  -26.9840   11.8230 C   0  0  0  0  0  0  0  0  0  0  0  0
  -35.9460  -27.4920   12.1580 C   0  0  0  0  0  3  0  0  0  0  0  0
  -35.2960  -26.9180   13.2770 C   0  0  0  0  0  3  0  0  0  0  0  0
  -37.8910  -27.6140   10.8230 O   0  0  0  0  0  0  0  0  0  0  0  0
  -39.1100  -27.1250   10.4620 C   0  0  0  0  0  0  0  0  0  0  0  0
  -39.2480  -25.8340    9.9100 C   0  0  0  0  0  3  0  0  0  0  0  0
  -40.5260  -25.3660    9.5690 C   0  0  0  0  0  3  0  0  0  0  0  0
  -41.6500  -26.1880    9.7610 C   0  0  0  0  0  0  0  0  0  0  0  0
  -41.4970  -27.4800   10.2960 C   0  0  0  0  0  3  0  0  0  0  0  0
  -40.2300  -27.9490   10.6460 C   0  0  0  0  0  0  0  0  0  0  0  0
  -40.0930  -29.1840   11.1800 F   0  0  0  0  0  0  0  0  0  0  0  0
  -42.8750  -25.7330    9.4120 F   0  0  0  0  0  0  0  0  0  0  0  0
  -31.2860  -23.8480   12.2520 C   0  0  0  0  0  0  0  0  0  0  0  0
  -31.8190  -23.1680   11.2510 N   0  0  0  0  0  0  0  0  0  0  0  0
  -30.2960  -24.4980   12.0960 O   0  0  0  0  0  0  0  0  0  0  0  0
  -32.7030  -22.7120   11.3710 H   0  0  0  0  0  0  0  0  0  0  0  0
  -31.2890  -22.9880   10.4150 H   0  0  0  0  0  0  0  0  0  0  0  0
  -30.0260  -24.3060   15.5500 N   0  0  0  0  0  4  0  0  0  0  0  0
  -29.2530  -24.2060   14.9080 H   0  0  0  0  0  0  0  0  0  0  0  0
  -29.7940  -24.8760   16.3590 H   0  0  0  0  0  0  0  0  0  0  0  0
  -28.7220  -23.0080   19.7430 C   0  0  0  0  0  2  0  0  0  0  0  0
  -27.4370  -23.7120   20.2080 C   0  0  0  0  0  2  0  0  0  0  0  0
  -27.4300  -25.2220   19.8900 C   0  0  0  0  0  2  0  0  0  0  0  0
  -26.0380  -25.8640   20.0330 C   0  0  0  0  0  2  0  0  0  0  0  0
  -24.2830  -26.0430   21.8210 C   0  0  0  0  0  0  0  0  0  0  0  0
  -23.8850  -25.6910   23.0380 N   0  0  0  0  0  0  0  0  0  0  0  0
  -25.4580  -25.5990   21.3590 N   0  0  0  0  0  0  0  0  0  0  0  0
  -23.5070  -26.8260   21.0760 N   0  0  0  0  0  4  0  0  0  0  0  0
  -24.4450  -25.0800   23.6160 H   0  0  0  0  0  0  0  0  0  0  0  0
  -23.0090  -26.0010   23.4350 H   0  0  0  0  0  0  0  0  0  0  0  0
  -25.9880  -24.9580   21.9330 H   0  0  0  0  0  0  0  0  0  0  0  0
  -22.6230  -27.1850   21.4050 H   0  0  0  0  0  0  0  0  0  0  0  0
  -23.7820  -27.0750   20.1370 H   0  0  0  0  0  0  0  0  0  0  0  0
  -26.7390  -16.4770   19.9590 C   0  0  0  0  0  1  0  0  0  0  0  0
  -24.6850  -19.0670   19.0530 C   0  0  0  0  0  2  0  0  0  0  0  0
  -25.2720  -17.7080   19.7830 N   0  0  0  0  0  2  0  0  0  0  0  0
  -25.6240  -19.7070   18.5830 O   0  0  0  0  0  1  0  0  0  0  0  0
  -24.4900  -17.2830   20.2620 H   0  0  0  0  0  0  0  0  0  0  0  0
  -23.0000  -20.0800   18.6310 C   0  0  0  0  0 15  0  0  0  0  0  0
  -22.3380  -21.7090   17.9160 O   0  0  0  0  0  1  0  0  0  0  0  0
  -17.1740  -26.2140   21.6340 C   0  0  0  0  0  0  0  0  0  0  0  0
  -20.9550  -22.5130   18.0170 C   0  0  0  0  0  0  0  0  0  0  0  0
  -16.5560  -24.0870   20.5790 C   0  0  0  0  0  3  0  0  0  0  0  0
  -18.0550  -23.2280   18.6340 C   0  0  0  0  0  0  0  0  0  0  0  0
  -18.3510  -25.5430   19.4350 C   0  0  0  0  0  2  0  0  0  0  0  0
  -19.0080  -24.2370   18.8090 C   0  0  0  0  0  0  0  0  0  0  0  0
  -20.4360  -23.8930   18.4650 C   0  0  0  0  0  3  0  0  0  0  0  0
  -19.8150  -21.7760   17.6370 C   0  0  0  0  0  3  0  0  0  0  0  0
  -18.4610  -22.0650   17.9640 C   0  0  0  0  0  3  0  0  0  0  0  0
  -16.6310  -23.3920   19.1890 C   0  0  0  0  0  2  0  0  0  0  0  0
  -17.3700  -25.3440   20.5830 N   0  0  0  0  0  0  0  0  0  0  0  0
  -16.3940  -25.9550   22.5670 O   0  0  0  0  0  0  0  0  0  0  0  0
  -16.9940  -23.1050   21.7010 C   0  0  0  0  0  0  0  0  0  0  0  0
  -16.0860  -22.2310   22.1780 N   0  0  0  0  0  0  0  0  0  0  0  0
  -18.1550  -23.1360   22.1230 O   0  0  0  0  0  0  0  0  0  0  0  0
  -15.1480  -22.2710   21.8050 H   0  0  0  0  0  0  0  0  0  0  0  0
  -14.6020  -19.4820   24.0280 C   0  0  0  0  0  0  0  0  0  0  0  0
  -16.3470  -21.1950   23.1860 C   0  0  0  0  0  3  0  0  0  0  0  0
  -17.0750  -19.9820   22.5610 C   0  0  0  0  0  2  0  0  0  0  0  0
  -16.1190  -18.8800   22.0950 C   0  0  0  0  0  2  0  0  0  0  0  0
  -15.2890  -18.3580   23.2700 C   0  0  0  0  0  2  0  0  0  0  0  0
  -15.0880  -20.8170   23.9740 C   0  0  0  0  0  0  0  0  0  0  0  0
  -14.3920  -21.8250   24.6760 C   0  0  0  0  0  3  0  0  0  0  0  0
  -13.2320  -21.5210   25.4130 C   0  0  0  0  0  3  0  0  0  0  0  0
  -12.7600  -20.1980   25.4680 C   0  0  0  0  0  3  0  0  0  0  0  0
  -13.4490  -19.1820   24.7820 C   0  0  0  0  0  3  0  0  0  0  0  0
  -17.9050  -27.5880   21.7080 C   0  0  0  0  0  3  0  0  0  0  0  0
  -17.1820  -28.4430   22.6730 N   0  0  0  0  0  0  0  0  0  0  0  0
  -16.3470  -29.4410   22.3540 C   0  0  0  0  0  0  0  0  0  0  0  0
  -16.1310  -29.7780   21.1870 O   0  0  0  0  0  0  0  0  0  0  0  0
  -17.2730  -28.1880   23.6450 H   0  0  0  0  0  0  0  0  0  0  0  0
  -14.2090  -29.6360   23.6830 C   0  0  0  0  0  1  0  0  0  0  0  0
  -15.6360  -30.1840   23.5090 C   0  0  0  0  0  3  0  0  0  0  0  0
  -16.8890  -32.2870   23.3040 C   0  0  0  0  0  1  0  0  0  0  0  0
  -15.5760  -31.6520   23.3250 N   0  0  0  0  0  0  0  0  0  0  0  0
  -15.0330  -32.0820   24.0690 H   0  0  0  0  0  0  0  0  0  0  0  0
  -19.4160  -27.4590   22.1510 C   0  0  1  0  0  0  0  0  0  0  0  0
  -19.6240  -26.6260   23.4370 C   0  0  0  0  0  1  0  0  0  0  0  0
  -20.2720  -26.8160   21.0390 C   0  0  0  0  0  1  0  0  0  0  0  0
  -20.0110  -28.8640   22.4080 C   0  0  0  0  0  1  0  0  0  0  0  0
  -27.5400  -14.7710   20.9380 C   0  0  0  0  0 15  0  0  0  0  0  0
  -28.4310   -9.6020   19.7720 C   0  0  0  0  0  2  0  0  0  0  0  0
  -28.2530  -10.7900   22.5160 C   0  0  0  0  0  3  0  0  0  0  0  0
  -29.0230  -10.9100   18.9650 C   0  0  0  0  0  1  0  0  0  0  0  0
  -28.4710  -12.3920   22.4210 C   0  0  0  0  0  2  0  0  0  0  0  0
  -28.2220   -9.5850   21.3960 C   0  0  0  0  0  0  0  0  0  0  0  0
  -28.8530  -13.1900   21.0520 C   0  0  0  0  0  1  0  0  0  0  0  0
  -27.6890   -8.2860   21.8100 C   0  0  0  0  0  2  0  0  0  0  0  0
  -28.3160   -7.4040   22.4940 N   0  0  0  0  0  2  0  0  0  0  0  0
  -28.3740   -5.0550   22.0960 C   0  0  0  0  0  0  0  0  0  0  0  0
  -28.3900   -4.0360   20.9950 C   0  0  0  0  0  1  0  0  0  0  0  0
  -27.9570   -6.2910   21.7840 N   0  0  0  0  0  0  0  0  0  0  0  0
  -28.7780   -4.7740   23.3480 N   0  0  0  0  0  4  0  0  0  0  0  0
  -27.4330   -6.4590   20.9310 H   0  0  0  0  0  0  0  0  0  0  0  0
  -29.1300   -3.8660   23.6140 H   0  0  0  0  0  0  0  0  0  0  0  0
  -28.7090   -5.4860   24.0620 H   0  0  0  0  0  0  0  0  0  0  0  0
  1 65  1  0
  1  2  2  0
  3  5  1  0
  3  1  1  0
  4  8  1  0
  5  4  1  0
  5  7  1  0
  6  4  2  0
  8 52  1  0
  8 10  1  0
  9 13  1  0
 10  9  1  0
 10 12  1  0
 11  9  2  0
 14 21  2  0
 16 15  1  0
 17 16  1  0
 18 27  1  0
 18 17  1  0
 18 19  1  0
 19 20  1  0
 20 15  1  0
 20 14  1  0
 22 14  1  0
 22 13  1  0
 23 22  1  0
 24 49  2  0
 24 27  1  0
 25 24  1  0
 26 28  1  0
 28 27  1  0
 29 26  1  0
 30 29  1  0
 31 30  2  0
 32 33  2  0
 32 31  1  0
 33 34  1  0
 34 29  2  0
 35 32  1  0
 36 41  1  0
 36 35  1  0
 37 36  2  0
 38 39  2  0
 38 37  1  0
 39 40  1  0
 40 41  2  0
 41 42  1  0
 43 39  1  0
 44 25  1  0
 45 47  1  0
 45 44  1  0
 46 44  2  0
 48 45  1  0
 49 51  1  0
 50 49  1  0
 52 53  1  0
 54 55  1  0
 54 53  1  0
 55 58  1  0
 56 57  1  0
 57 61  1  0
 57 60  1  0
 58 56  1  0
 58 62  1  0
 59 63  1  0
 59 56  2  0
 64 59  1  0
 66 67  1  0
 67 69  1  0
 68 66  1  0
 71 73  1  0
 72 83  2  0
 73 78  1  0
 74 82  1  0
 74 84  1  0
 75 77  1  0
 75 81  1  0
 76 82  1  0
 77 76  1  0
 78 77  2  0
 79 80  1  0
 79 73  2  0
 80 75  2  0
 81 74  1  0
 82 72  1  0
 84 86  2  0
 84 85  1  0
 87 85  1  0
 88 97  1  0
 89 85  1  0
 89 93  1  0
 90 89  1  0
 91 90  1  0
 91 92  1  0
 92 88  1  0
 93 88  2  0
 93 94  1  0
 94 95  2  0
 95 96  1  0
 97 96  2  0
 98 72  1  0
 98108  1  0
 98 99  1  0
 99102  1  0
100 99  1  0
100104  1  0
101100  2  0
104103  1  0
105106  1  0
106104  1  0
106107  1  0
108111  1  1
108109  1  0
110108  1  0
113117  1  0
115113  1  0
116114  1  0
117119  1  0
117114  2  0
118116  1  0
119120  1  0
121124  2  0
122121  1  0
123121  1  0
123120  1  0
124126  1  0
124127  1  0
125123  1  0
M  ISO  4  14 100  22 100  70 101  71 101
M  END
>  <TORSDO>  (45) 
F 33

>  <SCORE>  (45) 
9.790

>  <name>  (45) 
46

>  <ligand_id>  (45) 
46

>  <original_smiles>  (45) 
[H]C(=NN([H])C(=[N+]([H])[H])C([H])([H])[H])c1c([H])c([H])c(C([H])([H])C([H])(C(=O)C([H])([H])N([H])C(=O)C([H])(N([H])C(=O)C([H])([H])N([H])C(=O)N2C([H])([H])C([H])([H])C([H])([H])C([H])(n3nc(-c4c([H])c([H])c(Oc5c([H])c([H])c(F)c([H])c5F)c([H])c4[H])c(C(=O)N([H])[H])c3N([H])[H])C2([H])[H])C([H])([H])C([H])([H])C([H])([H])C([H])([H])N([H])C(N([H])[H])=[N+]([H])[H])N([H])C(=O)C([H])([H])Oc2c([H])c([H])c3c(c2[H])C([H])([H])N(C(=O)C([H])(N([H])C(=O)C([H])(N([H])C([H])([H])[H])C([H])([H])[H])C(C([H])([H])[H])(C([H])([H])[H])C([H])([H])[H])C([H])(C(=O)N([H])C2([H])c4c([H])c([H])c([H])c([H])c4C([H])([H])C([H])([H])C2([H])[H])C3([H])[H])c([H])c1[H]

>  <smiles>  (45) 
[H]C(=NN([H])C(=[N+]([H])[H])C([H])([H])[H])c1c([H])c([H])c(C([H])([H])C([H])(C(=O)C([H])([H])N([H])C(=O)C([H])(N([H])C(=O)C([H])([H])N([H])C(=O)N2C([H])([H])C([H])([H])C([H])([H])C([H])(n3nc(-c4c([H])c([H])c(Oc5c([H])c([H])c(F)c([H])c5F)c([H])c4[H])c(C(=O)N([H])[H])c3N([H])[H])C2([H])[H])C([H])([H])C([H])([H])C([H])([H])C([H])([H])N([H])C(N([H])[H])=[N+]([H])[H])N([H])C(=O)C([H])([H])Oc2c([H])c([H])c3c(c2[H])C([H])([H])N(C(=O)C([H])(N([H])C(=O)C([H])(N([H])C([H])([H])[H])C([H])([H])[H])C(C([H])([H])[H])(C([H])([H])[H])C([H])([H])[H])C([H])(C(=O)N([H])C2([H])c4c([H])c([H])c([H])c([H])c4C([H])([H])C([H])([H])C2([H])[H])C3([H])[H])c([H])c1[H]

$$$$
47:0:0
     RDKit          3D

109118  0  0  1  0  0  0  0  0999 V2000
  -31.6140  -26.1600   20.5300 C   0  0  0  0  0  0  0  0  0  0  0  0
  -29.2570  -25.8860   23.3430 C   0  0  0  0  0  2  0  0  0  0  0  0
  -29.5040  -24.4260   23.0330 C   0  0  0  0  0  2  0  0  0  0  0  0
  -30.3640  -26.5980   22.5720 C   0  0  0  0  0  2  0  0  0  0  0  0
  -30.0180  -24.4280   21.5860 C   0  0  0  0  0  3  0  0  0  0  0  0
  -30.7660  -25.7010   21.4820 N   0  0  0  0  0  0  0  0  0  0  0  0
  -32.1720  -27.2560   20.6510 O   0  0  0  0  0  0  0  0  0  0  0  0
  -30.7680  -23.1030   21.3430 C   0  0  0  0  0  0  0  0  0  0  0  0
  -30.0030  -22.0130   21.1900 N   0  0  0  0  0  0  0  0  0  0  0  0
  -31.9980  -23.0630   21.3450 O   0  0  0  0  0  0  0  0  0  0  0  0
  -28.9990  -22.1380   21.2280 H   0  0  0  0  0  0  0  0  0  0  0  0
  -30.4710  -20.6340   21.0440 C   0  0  0  0  0  2  0  0  0  0  0  0
  -29.6600  -19.8640   19.9770 C   0  0  0  0  0  2  0  0  0  0  0  0
  -28.9550  -18.7280   20.4870 O   0  0  0  0  0  0  0  0  0  0  0  0
  -29.7700  -17.7090   21.0840 C   0  0  0  0  0  2  0  0  0  0  0  0
  -30.4720  -14.3410   20.3420 C   0  0  0  0  0  0  0  0  0  0  0  0
  -30.1790  -12.1340   19.2880 C   0  0  0  0  0  2  0  0  0  0  0  0
  -29.2090  -12.2210   18.0970 C   0  0  0  0  0  2  0  0  0  0  0  0
  -27.7560  -12.0250   18.5700 C   0  0  0  0  0  2  0  0  0  0  0  0
  -27.4080  -12.9320   19.7770 C   0  0  0  0  0  3  0  0  0  0  0  0
  -28.4920  -12.8580   20.8740 C   0  0  0  0  0  2  0  0  0  0  0  0
  -29.7920  -13.1650   20.2600 N   0  0  0  0  0  0  0  0  0  0  0  0
  -31.5140  -14.5570   19.7210 O   0  0  0  0  0  0  0  0  0  0  0  0
  -29.2640  -16.3050   20.7110 C   0  0  0  0  0  0  0  0  0  0  0  0
  -30.0020  -15.2810   21.1690 N   0  0  0  0  0  0  0  0  0  0  0  0
  -28.2600  -16.1730   20.0030 O   0  0  0  0  0  0  0  0  0  0  0  0
  -30.7490  -15.6470   21.7330 H   0  0  0  0  0  0  0  0  0  0  0  0
  -25.0360  -13.5050   20.5930 C   0  0  0  0  0  0  0  0  0  0  0  0
  -23.9950  -12.7120   20.9930 C   0  0  0  0  0  0  0  0  0  0  0  0
  -24.4750  -11.3670   20.9310 C   0  0  0  0  0  0  0  0  0  0  0  0
  -26.0820  -12.6400   20.3090 N   0  0  0  0  0  0  0  0  0  0  0  0
  -25.7530  -11.3510   20.5750 N   0  0  0  0  0  0  0  0  0  0  0  0
  -23.7810  -10.0920   21.1320 C   0  0  0  0  0  0  0  0  0  0  0  0
  -24.2500   -9.1390   22.0630 C   0  0  0  0  0  3  0  0  0  0  0  0
  -23.5550   -7.9260   22.2570 C   0  0  0  0  0  3  0  0  0  0  0  0
  -22.3770   -7.6590   21.5210 C   0  0  0  0  0  0  0  0  0  0  0  0
  -21.9270   -8.6000   20.5770 C   0  0  0  0  0  3  0  0  0  0  0  0
  -22.6210   -9.8050   20.3820 C   0  0  0  0  0  3  0  0  0  0  0  0
  -21.6510   -6.4970   21.6230 O   0  0  0  0  0  0  0  0  0  0  0  0
  -21.6160   -5.7670   22.7840 C   0  0  0  0  0  0  0  0  0  0  0  0
  -21.1670   -6.3250   24.0010 C   0  0  0  0  0  3  0  0  0  0  0  0
  -21.0810   -5.5210   25.1550 C   0  0  0  0  0  3  0  0  0  0  0  0
  -21.4360   -4.1600   25.0910 C   0  0  0  0  0  0  0  0  0  0  0  0
  -21.8770   -3.6020   23.8800 C   0  0  0  0  0  3  0  0  0  0  0  0
  -21.9640   -4.4030   22.7280 C   0  0  0  0  0  0  0  0  0  0  0  0
  -22.3680   -3.8560   21.5570 F   0  0  0  0  0  0  0  0  0  0  0  0
  -21.3470   -3.3820   26.1960 F   0  0  0  0  0  0  0  0  0  0  0  0
  -22.6020  -13.1600   21.3260 C   0  0  0  0  0  0  0  0  0  0  0  0
  -21.9220  -12.4450   22.2140 N   0  0  0  0  0  0  0  0  0  0  0  0
  -22.1220  -14.1790   20.8310 O   0  0  0  0  0  0  0  0  0  0  0  0
  -22.3230  -11.6230   22.6400 H   0  0  0  0  0  0  0  0  0  0  0  0
  -20.9880  -12.7260   22.4710 H   0  0  0  0  0  0  0  0  0  0  0  0
  -25.1770  -14.8810   20.4270 N   0  0  0  0  0  0  0  0  0  0  0  0
  -24.4200  -15.5330   20.6000 H   0  0  0  0  0  0  0  0  0  0  0  0
  -26.0440  -15.3320   20.1540 H   0  0  0  0  0  0  0  0  0  0  0  0
  -31.8880  -25.3720   19.2340 C   0  0  0  0  0  3  0  0  0  0  0  0
  -30.1950  -26.5410   17.7350 C   0  0  0  0  0  0  0  0  0  0  0  0
  -31.4450  -26.2040   18.1050 N   0  0  0  0  0  0  0  0  0  0  0  0
  -30.0310  -27.3290   16.8050 O   0  0  0  0  0  0  0  0  0  0  0  0
  -32.1910  -26.6470   17.5880 H   0  0  0  0  0  0  0  0  0  0  0  0
  -28.9530  -25.9620   18.4470 C   0  0  0  0  0  2  0  0  0  0  0  0
  -28.6070  -26.7860   19.5720 O   0  0  0  0  0  0  0  0  0  0  0  0
  -24.6230  -31.5940   22.9900 C   0  0  0  0  0  0  0  0  0  0  0  0
  -27.3800  -27.4230   19.6170 C   0  0  0  0  0  0  0  0  0  0  0  0
  -23.4370  -30.2590   21.2740 C   0  0  0  0  0  3  0  0  0  0  0  0
  -24.9240  -28.8390   19.7620 C   0  0  0  0  0  0  0  0  0  0  0  0
  -25.9550  -30.6900   21.0870 C   0  0  0  0  0  2  0  0  0  0  0  0
  -26.0710  -29.3620   20.3710 C   0  0  0  0  0  0  0  0  0  0  0  0
  -27.2940  -28.6580   20.3010 C   0  0  0  0  0  3  0  0  0  0  0  0
  -26.2000  -26.8890   19.0480 C   0  0  0  0  0  3  0  0  0  0  0  0
  -24.9840  -27.5970   19.1060 C   0  0  0  0  0  3  0  0  0  0  0  0
  -23.6540  -29.6550   19.8620 C   0  0  0  0  0  2  0  0  0  0  0  0
  -24.6900  -30.8600   21.8420 N   0  0  0  0  0  0  0  0  0  0  0  0
  -23.5390  -31.8070   23.5480 O   0  0  0  0  0  0  0  0  0  0  0  0
  -22.8130  -29.1740   22.1780 C   0  0  0  0  0  0  0  0  0  0  0  0
  -21.4860  -29.0000   22.0720 N   0  0  0  0  0  0  0  0  0  0  0  0
  -23.5200  -28.4890   22.9210 O   0  0  0  0  0  0  0  0  0  0  0  0
  -20.9790  -29.6010   21.4390 H   0  0  0  0  0  0  0  0  0  0  0  0
  -18.1200  -27.8180   22.6200 C   0  0  0  0  0  0  0  0  0  0  0  0
  -20.6900  -28.0100   22.7950 C   0  0  0  0  0  3  0  0  0  0  0  0
  -20.7400  -26.6350   22.0880 C   0  0  0  0  0  2  0  0  0  0  0  0
  -19.5870  -26.4200   21.1010 C   0  0  0  0  0  2  0  0  0  0  0  0
  -18.2390  -26.5330   21.8180 C   0  0  0  0  0  2  0  0  0  0  0  0
  -19.2710  -28.5200   23.0630 C   0  0  0  0  0  0  0  0  0  0  0  0
  -19.1030  -29.7300   23.7710 C   0  0  0  0  0  3  0  0  0  0  0  0
  -17.8160  -30.2380   24.0340 C   0  0  0  0  0  3  0  0  0  0  0  0
  -16.6810  -29.5280   23.6090 C   0  0  0  0  0  3  0  0  0  0  0  0
  -16.8330  -28.3170   22.9100 C   0  0  0  0  0  3  0  0  0  0  0  0
  -25.8960  -32.2150   23.6420 C   0  0  0  0  0  3  0  0  0  0  0  0
  -26.4260  -31.3970   24.8830 C   0  0  1  0  0  0  0  0  0  0  0  0
  -25.3360  -31.1020   25.9390 C   0  0  0  0  0  1  0  0  0  0  0  0
  -27.0210  -30.0450   24.4270 C   0  0  0  0  0  1  0  0  0  0  0  0
  -27.5690  -32.1750   25.5720 C   0  0  0  0  0  1  0  0  0  0  0  0
  -25.5660  -33.5930   24.0290 N   0  0  0  0  0  0  0  0  0  0  0  0
  -25.8940  -34.6840   23.3210 C   0  0  0  0  0  0  0  0  0  0  0  0
  -26.5720  -34.6310   22.2910 O   0  0  0  0  0  0  0  0  0  0  0  0
  -24.9620  -33.7030   24.8300 H   0  0  0  0  0  0  0  0  0  0  0  0
  -24.1380  -36.4600   23.0310 C   0  0  0  0  0  1  0  0  0  0  0  0
  -25.3830  -36.0420   23.8320 C   0  0  0  0  0  3  0  0  0  0  0  0
  -27.5010  -36.9190   24.7100 C   0  0  0  0  0  1  0  0  0  0  0  0
  -26.4000  -37.1150   23.7710 N   0  0  0  0  0  0  0  0  0  0  0  0
  -25.9820  -38.0210   23.9600 H   0  0  0  0  0  0  0  0  0  0  0  0
  -33.4270  -25.1490   19.1500 C   0  0  0  0  0  2  0  0  0  0  0  0
  -34.8930  -21.9910   16.5390 C   0  0  0  0  0  3  0  0  0  0  0  0
  -35.4750  -22.1910   17.8070 C   0  0  0  0  0  3  0  0  0  0  0  0
  -33.8340  -22.8130   16.1160 C   0  0  0  0  0  3  0  0  0  0  0  0
  -34.9950  -23.2170   18.6470 C   0  0  0  0  0  3  0  0  0  0  0  0
  -33.3560  -23.8370   16.9530 C   0  0  0  0  0  3  0  0  0  0  0  0
  -33.9280  -24.0430   18.2270 C   0  0  0  0  0  0  0  0  0  0  0  0
  1  7  2  0
  1  6  1  0
  3  2  1  0
  4  2  1  0
  5  8  1  0
  5  3  1  0
  6  5  1  0
  6  4  1  0
  8 10  2  0
  9 11  1  0
  9  8  1  0
 12  9  1  0
 13 14  1  0
 13 12  1  0
 14 15  1  0
 16 25  1  0
 17 22  1  0
 18 19  1  0
 18 17  1  0
 20 19  1  0
 20 31  1  0
 20 21  1  0
 22 16  1  0
 22 21  1  0
 23 16  2  0
 24 15  1  0
 24 25  1  0
 25 27  1  0
 26 24  2  0
 28 29  2  0
 29 48  1  0
 30 29  1  0
 30 33  1  0
 31 32  1  0
 31 28  1  0
 32 30  2  0
 33 34  1  0
 34 35  2  0
 36 39  1  0
 36 35  1  0
 37 36  2  0
 38 37  1  0
 38 33  2  0
 39 40  1  0
 40 41  1  0
 41 42  2  0
 43 42  1  0
 43 47  1  0
 44 43  2  0
 45 40  2  0
 45 44  1  0
 46 45  1  0
 48 49  1  0
 49 52  1  0
 49 51  1  0
 50 48  2  0
 53 28  1  0
 53 54  1  0
 55 53  1  0
 56103  1  0
 56  1  1  0
 57 58  1  0
 57 61  1  0
 58 56  1  0
 59 57  2  0
 60 58  1  0
 61 62  1  0
 62 64  1  0
 63 74  2  0
 64 69  1  0
 65 73  1  0
 65 75  1  0
 66 72  1  0
 66 68  1  0
 67 73  1  0
 68 67  1  0
 69 68  2  0
 70 71  1  0
 70 64  2  0
 71 66  2  0
 72 65  1  0
 73 63  1  0
 75 77  2  0
 76 75  1  0
 78 76  1  0
 79 88  2  0
 79 84  1  0
 80 76  1  0
 80 84  1  0
 81 80  1  0
 82 83  1  0
 82 81  1  0
 83 79  1  0
 84 85  2  0
 85 86  1  0
 87 86  2  0
 88 87  1  0
 89 63  1  0
 89 94  1  0
 89 90  1  0
 90 93  1  1
 90 91  1  0
 92 90  1  0
 94 97  1  0
 95 99  1  0
 95 94  1  0
 96 95  2  0
 99 98  1  0
101 99  1  0
101102  1  0
101100  1  0
104105  1  0
105107  2  0
106104  2  0
106108  1  0
108109  2  0
109107  1  0
109103  1  0
M  ISO  4  16 100  25 100  61 101  62 101
M  END
>  <TORSDO>  (46) 
F 26

>  <SCORE>  (46) 
-11.230

>  <name>  (46) 
47

>  <ligand_id>  (46) 
47

>  <original_smiles>  (46) 
[H]c1c([H])c([H])c(C([H])([H])C([H])(C(=O)N2C([H])([H])C([H])([H])C([H])([H])C2([H])C(=O)N([H])C([H])([H])C([H])([H])OC([H])([H])C(=O)N([H])C(=O)N2C([H])([H])C([H])([H])C([H])([H])C([H])(n3nc(-c4c([H])c([H])c(Oc5c([H])c([H])c(F)c([H])c5F)c([H])c4[H])c(C(=O)N([H])[H])c3N([H])[H])C2([H])[H])N([H])C(=O)C([H])([H])Oc2c([H])c([H])c3c(c2[H])C([H])([H])N(C(=O)C([H])(N([H])C(=O)C([H])(N([H])C([H])([H])[H])C([H])([H])[H])C(C([H])([H])[H])(C([H])([H])[H])C([H])([H])[H])C([H])(C(=O)N([H])C2([H])c4c([H])c([H])c([H])c([H])c4C([H])([H])C([H])([H])C2([H])[H])C3([H])[H])c([H])c1[H]

>  <smiles>  (46) 
[H]c1c([H])c([H])c(C([H])([H])C([H])(C(=O)N2C([H])([H])C([H])([H])C([H])([H])C2([H])C(=O)N([H])C([H])([H])C([H])([H])OC([H])([H])C(=O)N([H])C(=O)N2C([H])([H])C([H])([H])C([H])([H])C([H])(n3nc(-c4c([H])c([H])c(Oc5c([H])c([H])c(F)c([H])c5F)c([H])c4[H])c(C(=O)N([H])[H])c3N([H])[H])C2([H])[H])N([H])C(=O)C([H])([H])Oc2c([H])c([H])c3c(c2[H])C([H])([H])N(C(=O)C([H])(N([H])C(=O)C([H])(N([H])C([H])([H])[H])C([H])([H])[H])C(C([H])([H])[H])(C([H])([H])[H])C([H])([H])[H])C([H])(C(=O)N([H])C2([H])c4c([H])c([H])c([H])c([H])c4C([H])([H])C([H])([H])C2([H])[H])C3([H])[H])c([H])c1[H]

$$$$
48:0:0
     RDKit          3D

 83 87  0  0  1  0  0  0  0  0999 V2000
  -28.0550  -23.1800   20.1890 C   0  0  0  0  0 15  0  0  0  0  0  0
  -28.1320  -25.1070   20.3120 O   0  0  0  0  0  1  0  0  0  0  0  0
  -24.6910  -31.8390   23.1610 C   0  0  0  0  0  0  0  0  0  0  0  0
  -27.2010  -26.4650   20.2560 C   0  0  0  0  0  0  0  0  0  0  0  0
  -23.5230  -30.4300   21.5250 C   0  0  0  0  0  3  0  0  0  0  0  0
  -24.9770  -28.7060   20.1560 C   0  0  0  0  0  0  0  0  0  0  0  0
  -26.1160  -30.4710   21.4630 C   0  0  0  0  0  2  0  0  0  0  0  0
  -26.1740  -29.0000   20.8170 C   0  0  0  0  0  0  0  0  0  0  0  0
  -27.2550  -27.9190   20.8240 C   0  0  0  0  0  3  0  0  0  0  0  0
  -25.9670  -26.4630   19.5330 C   0  0  0  0  0  3  0  0  0  0  0  0
  -24.9310  -27.4660   19.4880 C   0  0  0  0  0  3  0  0  0  0  0  0
  -23.7890  -29.7000   20.1720 C   0  0  0  0  0  2  0  0  0  0  0  0
  -24.8050  -30.9550   22.1020 N   0  0  0  0  0  0  0  0  0  0  0  0
  -23.5880  -32.1610   23.6430 O   0  0  0  0  0  0  0  0  0  0  0  0
  -22.7650  -29.4900   22.5040 C   0  0  0  0  0  0  0  0  0  0  0  0
  -21.4270  -29.3700   22.3790 N   0  0  0  0  0  0  0  0  0  0  0  0
  -23.3980  -28.8590   23.3540 O   0  0  0  0  0  0  0  0  0  0  0  0
  -20.9620  -29.9280   21.6770 H   0  0  0  0  0  0  0  0  0  0  0  0
  -18.0130  -28.2240   22.9140 C   0  0  0  0  0  0  0  0  0  0  0  0
  -20.5810  -28.4490   23.1520 C   0  0  0  0  0  3  0  0  0  0  0  0
  -20.6500  -27.0170   22.5730 C   0  0  0  0  0  2  0  0  0  0  0  0
  -19.5360  -26.7210   21.5640 C   0  0  0  0  0  2  0  0  0  0  0  0
  -18.1610  -26.8810   22.2190 C   0  0  0  0  0  2  0  0  0  0  0  0
  -19.1470  -28.9670   23.3370 C   0  0  0  0  0  0  0  0  0  0  0  0
  -18.9480  -30.2210   23.9550 C   0  0  0  0  0  3  0  0  0  0  0  0
  -17.6510  -30.7320   24.1480 C   0  0  0  0  0  3  0  0  0  0  0  0
  -16.5330  -29.9880   23.7360 C   0  0  0  0  0  3  0  0  0  0  0  0
  -16.7150  -28.7340   23.1250 C   0  0  0  0  0  3  0  0  0  0  0  0
  -25.9370  -32.5050   23.8220 C   0  0  0  0  0  3  0  0  0  0  0  0
  -25.6040  -33.9100   24.1510 N   0  0  0  0  0  0  0  0  0  0  0  0
  -25.9320  -34.9810   23.4150 C   0  0  0  0  0  0  0  0  0  0  0  0
  -26.5950  -34.8920   22.3800 O   0  0  0  0  0  0  0  0  0  0  0  0
  -25.0090  -34.0500   24.9550 H   0  0  0  0  0  0  0  0  0  0  0  0
  -24.1910  -36.7840   23.1290 C   0  0  0  0  0  1  0  0  0  0  0  0
  -25.4550  -36.3700   23.8990 C   0  0  0  0  0  3  0  0  0  0  0  0
  -27.6050  -37.2700   24.6800 C   0  0  0  0  0  1  0  0  0  0  0  0
  -26.4800  -37.4290   23.7630 N   0  0  0  0  0  0  0  0  0  0  0  0
  -26.0720  -38.3480   23.9190 H   0  0  0  0  0  0  0  0  0  0  0  0
  -26.4080  -31.7600   25.1340 C   0  0  1  0  0  0  0  0  0  0  0  0
  -25.2830  -31.5480   26.1740 C   0  0  0  0  0  1  0  0  0  0  0  0
  -26.9990  -30.3710   24.8050 C   0  0  0  0  0  1  0  0  0  0  0  0
  -27.5420  -32.5640   25.8150 C   0  0  0  0  0  1  0  0  0  0  0  0
  -29.0250  -21.2640   20.2590 C   0  0  0  0  0 15  0  0  0  0  0  0
  -30.1790  -16.1910   20.1390 C   0  0  0  0  0  0  0  0  0  0  0  0
  -30.3390  -13.5550   19.3110 C   0  0  0  0  0  2  0  0  0  0  0  0
  -29.5010  -12.9040   18.1610 C   0  0  0  0  0  2  0  0  0  0  0  0
  -28.1360  -12.4290   18.6650 C   0  0  0  0  0  2  0  0  0  0  0  0
  -27.5600  -13.4540   19.6610 C   0  0  0  0  0  3  0  0  0  0  0  0
  -28.5670  -13.9940   20.7210 C   0  0  0  0  0  2  0  0  0  0  0  0
  -29.6280  -14.7790   19.9980 N   0  0  0  0  0  0  0  0  0  0  0  0
  -31.4100  -15.9430   20.0690 O   0  0  0  0  0  0  0  0  0  0  0  0
  -28.8690  -19.2340   20.1720 C   0  0  0  0  0  2  0  0  0  0  0  0
  -29.7090  -17.8000   20.1790 N   0  0  0  0  0  0  0  0  0  0  0  0
  -27.6690  -18.9690   20.0750 O   0  0  0  0  0  1  0  0  0  0  0  0
  -28.7770  -17.4140   20.1280 H   0  0  0  0  0  0  0  0  0  0  0  0
  -25.2080  -13.9040   20.4640 C   0  0  0  0  0  0  0  0  0  0  0  0
  -24.1700  -13.1000   20.8330 C   0  0  0  0  0  0  0  0  0  0  0  0
  -24.6690  -11.7600   20.7920 C   0  0  0  0  0  0  0  0  0  0  0  0
  -26.2710  -13.0600   20.2120 N   0  0  0  0  0  0  0  0  0  0  0  0
  -25.9620  -11.7600   20.4700 N   0  0  0  0  0  0  0  0  0  0  0  0
  -23.9630  -10.4830   20.9820 C   0  0  0  0  0  0  0  0  0  0  0  0
  -24.3970   -9.5280   21.9280 C   0  0  0  0  0  3  0  0  0  0  0  0
  -23.6840   -8.3240   22.1110 C   0  0  0  0  0  3  0  0  0  0  0  0
  -22.5200   -8.0640   21.3480 C   0  0  0  0  0  0  0  0  0  0  0  0
  -22.1040   -9.0080   20.3930 C   0  0  0  0  0  3  0  0  0  0  0  0
  -22.8190  -10.2030   20.2080 C   0  0  0  0  0  3  0  0  0  0  0  0
  -21.7790   -6.9100   21.4400 O   0  0  0  0  0  0  0  0  0  0  0  0
  -21.7110   -6.1880   22.6050 C   0  0  0  0  0  0  0  0  0  0  0  0
  -21.2250   -6.7530   23.8040 C   0  0  0  0  0  3  0  0  0  0  0  0
  -21.1060   -5.9570   24.9600 C   0  0  0  0  0  3  0  0  0  0  0  0
  -21.4620   -4.5950   24.9180 C   0  0  0  0  0  0  0  0  0  0  0  0
  -21.9410   -4.0290   23.7230 C   0  0  0  0  0  3  0  0  0  0  0  0
  -22.0620   -4.8230   22.5700 C   0  0  0  0  0  0  0  0  0  0  0  0
  -22.5020   -4.2670   21.4150 F   0  0  0  0  0  0  0  0  0  0  0  0
  -21.3420   -3.8270   26.0260 F   0  0  0  0  0  0  0  0  0  0  0  0
  -22.7650  -13.5490   21.1040 C   0  0  0  0  0  0  0  0  0  0  0  0
  -22.0550  -12.8470   21.9790 N   0  0  0  0  0  0  0  0  0  0  0  0
  -22.3080  -14.5630   20.5760 O   0  0  0  0  0  0  0  0  0  0  0  0
  -22.4400  -12.0300   22.4270 H   0  0  0  0  0  0  0  0  0  0  0  0
  -21.1130  -13.1330   22.2050 H   0  0  0  0  0  0  0  0  0  0  0  0
  -25.3350  -15.2790   20.2860 N   0  0  0  0  0  0  0  0  0  0  0  0
  -24.5530  -15.9130   20.4050 H   0  0  0  0  0  0  0  0  0  0  0  0
  -26.1720  -15.7400   19.9540 H   0  0  0  0  0  0  0  0  0  0  0  0
  3 14  2  0
  4  2  1  0
  4  9  1  0
  5 13  1  0
  5 15  1  0
  6 12  1  0
  6  8  1  0
  7 13  1  0
  8  9  2  0
  8  7  1  0
 10  4  2  0
 11 10  1  0
 11  6  2  0
 12  5  1  0
 13  3  1  0
 15 17  2  0
 16 15  1  0
 18 16  1  0
 19 28  2  0
 19 24  1  0
 20 16  1  0
 20 24  1  0
 21 20  1  0
 22 23  1  0
 22 21  1  0
 23 19  1  0
 24 25  2  0
 25 26  1  0
 27 26  2  0
 28 27  1  0
 29  3  1  0
 29 30  1  0
 29 39  1  0
 30 33  1  0
 31 35  1  0
 31 30  1  0
 32 31  2  0
 35 34  1  0
 37 35  1  0
 37 38  1  0
 37 36  1  0
 39 42  1  1
 39 40  1  0
 41 39  1  0
 44 53  1  0
 45 50  1  0
 46 47  1  0
 46 45  1  0
 48 47  1  0
 48 59  1  0
 48 49  1  0
 50 44  1  0
 50 49  1  0
 51 44  2  0
 52 53  1  0
 54 52  1  0
 55 53  1  0
 56 57  2  0
 57 76  1  0
 58 57  1  0
 58 61  1  0
 59 56  1  0
 59 60  1  0
 60 58  2  0
 61 62  1  0
 62 63  2  0
 64 67  1  0
 64 63  1  0
 65 64  2  0
 66 65  1  0
 66 61  2  0
 67 68  1  0
 68 69  1  0
 69 70  2  0
 71 70  1  0
 71 75  1  0
 72 71  2  0
 73 68  2  0
 73 72  1  0
 74 73  1  0
 76 77  1  0
 77 80  1  0
 77 79  1  0
 78 76  2  0
 81 82  1  0
 81 56  1  0
 83 81  1  0
M  ISO  4   1 101   2 101  44 100  53 100
M  END
>  <TORSDO>  (47) 
F 17

>  <SCORE>  (47) 
-16.243

>  <name>  (47) 
48

>  <ligand_id>  (47) 
48

>  <original_smiles>  (47) 
[H]c1c([H])c([H])c2c(c1[H])C([H])([H])C([H])([H])C([H])([H])C2([H])N([H])C(=O)C1([H])N(C(=O)C([H])(N([H])C(=O)C([H])(N([H])C([H])([H])[H])C([H])([H])[H])C(C([H])([H])[H])(C([H])([H])[H])C([H])([H])[H])C([H])([H])c2c([H])c(OC([H])([H])C([H])([H])C(=O)N([H])C(=O)N3C([H])([H])C([H])([H])C([H])([H])C([H])(n4nc(-c5c([H])c([H])c(Oc6c([H])c([H])c(F)c([H])c6F)c([H])c5[H])c(C(=O)N([H])[H])c4N([H])[H])C3([H])[H])c([H])c([H])c2C1([H])[H]

>  <smiles>  (47) 
[H]c1c([H])c([H])c2c(c1[H])C([H])([H])C([H])([H])C([H])([H])C2([H])N([H])C(=O)C1([H])N(C(=O)C([H])(N([H])C(=O)C([H])(N([H])C([H])([H])[H])C([H])([H])[H])C(C([H])([H])[H])(C([H])([H])[H])C([H])([H])[H])C([H])([H])c2c([H])c(OC([H])([H])C([H])([H])C(=O)N([H])C(=O)N3C([H])([H])C([H])([H])C([H])([H])C([H])(n4nc(-c5c([H])c([H])c(Oc6c([H])c([H])c(F)c([H])c6F)c([H])c5[H])c(C(=O)N([H])[H])c4N([H])[H])C3([H])[H])c([H])c([H])c2C1([H])[H]

$$$$
49:0:0
     RDKit          3D

 91 99  0  0  1  0  0  0  0  0999 V2000
  -30.1790  -21.6710   20.3980 C   0  0  0  0  0  0  0  0  0  0  0  0
  -29.1730  -22.5860   20.2460 N   0  0  0  0  0  0  0  0  0  0  0  0
  -31.3280  -22.0690   20.5980 O   0  0  0  0  0  0  0  0  0  0  0  0
  -28.2420  -22.2410   20.0600 H   0  0  0  0  0  0  0  0  0  0  0  0
  -31.0220  -19.3220   19.7700 C   0  0  0  0  0  3  0  0  0  0  0  0
  -28.8810  -19.4340   20.8510 C   0  0  0  0  0  3  0  0  0  0  0  0
  -31.0010  -17.8960   19.8140 C   0  0  0  0  0  3  0  0  0  0  0  0
  -28.8560  -18.0010   20.8960 C   0  0  0  0  0  3  0  0  0  0  0  0
  -29.9810  -20.1400   20.2980 C   0  0  0  0  0  0  0  0  0  0  0  0
  -29.9200  -17.1870   20.4050 C   0  0  0  0  0  0  0  0  0  0  0  0
  -30.5960  -14.6910   20.0440 C   0  0  0  0  0  0  0  0  0  0  0  0
  -30.3130  -12.4890   18.9190 C   0  0  0  0  0  2  0  0  0  0  0  0
  -29.2970  -12.6830   17.7720 C   0  0  0  0  0  2  0  0  0  0  0  0
  -27.8510  -12.5140   18.2840 C   0  0  0  0  0  2  0  0  0  0  0  0
  -27.5820  -13.3230   19.5820 C   0  0  0  0  0  3  0  0  0  0  0  0
  -28.7050  -13.1070   20.6210 C   0  0  0  0  0  2  0  0  0  0  0  0
  -29.9790  -13.4670   19.9750 N   0  0  0  0  0  0  0  0  0  0  0  0
  -31.7270  -14.8550   19.5770 O   0  0  0  0  0  0  0  0  0  0  0  0
  -29.8260  -15.7250   20.5120 N   0  0  0  0  0  0  0  0  0  0  0  0
  -28.9720  -15.3980   20.9420 H   0  0  0  0  0  0  0  0  0  0  0  0
  -25.2420  -13.9130   20.4650 C   0  0  0  0  0  0  0  0  0  0  0  0
  -24.1930  -13.1380   20.8740 C   0  0  0  0  0  0  0  0  0  0  0  0
  -24.6380  -11.7850   20.7710 C   0  0  0  0  0  0  0  0  0  0  0  0
  -26.2610  -13.0330   20.1350 N   0  0  0  0  0  0  0  0  0  0  0  0
  -25.9070  -11.7450   20.3790 N   0  0  0  0  0  0  0  0  0  0  0  0
  -23.9130  -10.5230   20.9670 C   0  0  0  0  0  0  0  0  0  0  0  0
  -24.3600   -9.5490   21.8870 C   0  0  0  0  0  3  0  0  0  0  0  0
  -23.6350   -8.3520   22.0710 C   0  0  0  0  0  3  0  0  0  0  0  0
  -22.4500   -8.1180   21.3330 C   0  0  0  0  0  0  0  0  0  0  0  0
  -22.0230   -9.0800   20.4020 C   0  0  0  0  0  3  0  0  0  0  0  0
  -22.7480  -10.2690   20.2160 C   0  0  0  0  0  3  0  0  0  0  0  0
  -21.6980   -6.9730   21.4260 O   0  0  0  0  0  0  0  0  0  0  0  0
  -21.6200   -6.2550   22.5930 C   0  0  0  0  0  0  0  0  0  0  0  0
  -21.1390   -6.8290   23.7890 C   0  0  0  0  0  3  0  0  0  0  0  0
  -21.0120   -6.0360   24.9480 C   0  0  0  0  0  3  0  0  0  0  0  0
  -21.3520   -4.6700   24.9090 C   0  0  0  0  0  0  0  0  0  0  0  0
  -21.8260   -4.0960   23.7160 C   0  0  0  0  0  3  0  0  0  0  0  0
  -21.9560   -4.8870   22.5590 C   0  0  0  0  0  0  0  0  0  0  0  0
  -22.3930   -4.3240   21.4070 F   0  0  0  0  0  0  0  0  0  0  0  0
  -21.2220   -3.9060   26.0180 F   0  0  0  0  0  0  0  0  0  0  0  0
  -22.8200  -13.6170   21.2470 C   0  0  0  0  0  0  0  0  0  0  0  0
  -22.1420  -12.9000   22.1360 N   0  0  0  0  0  0  0  0  0  0  0  0
  -22.3600  -14.6620   20.7880 O   0  0  0  0  0  0  0  0  0  0  0  0
  -22.5270  -12.0570   22.5340 H   0  0  0  0  0  0  0  0  0  0  0  0
  -21.2220  -13.2040   22.4250 H   0  0  0  0  0  0  0  0  0  0  0  0
  -25.4090  -15.2880   20.3240 N   0  0  0  0  0  0  0  0  0  0  0  0
  -24.6500  -15.9380   20.4920 H   0  0  0  0  0  0  0  0  0  0  0  0
  -26.2290  -15.7330   19.9330 H   0  0  0  0  0  0  0  0  0  0  0  0
  -29.3780  -24.0850   20.3590 C   0  0  0  0  0  3  0  0  0  0  0  0
  -28.1920  -25.0630   19.9560 C   0  0  0  0  0  3  0  0  0  0  0  0
  -28.3730  -26.5180   20.1900 O   0  0  0  0  0  0  0  0  0  0  0  0
  -24.6130  -31.8710   23.2430 C   0  0  0  0  0  0  0  0  0  0  0  0
  -27.2450  -27.3550   20.1430 C   0  0  0  0  0  0  0  0  0  0  0  0
  -23.4170  -30.4890   21.5810 C   0  0  0  0  0  3  0  0  0  0  0  0
  -24.8730  -28.9560   20.1450 C   0  0  0  0  0  0  0  0  0  0  0  0
  -25.9550  -30.8150   21.4100 C   0  0  0  0  0  2  0  0  0  0  0  0
  -26.0380  -29.4440   20.7490 C   0  0  0  0  0  0  0  0  0  0  0  0
  -27.2270  -28.6550   20.7390 C   0  0  0  0  0  3  0  0  0  0  0  0
  -26.0540  -26.9220   19.5140 C   0  0  0  0  0  3  0  0  0  0  0  0
  -24.8820  -27.7010   19.5210 C   0  0  0  0  0  3  0  0  0  0  0  0
  -23.6340  -29.8270   20.1960 C   0  0  0  0  0  2  0  0  0  0  0  0
  -24.6810  -31.0750   22.1350 N   0  0  0  0  0  0  0  0  0  0  0  0
  -23.5260  -32.1430   23.7750 O   0  0  0  0  0  0  0  0  0  0  0  0
  -22.7510  -29.4630   22.5280 C   0  0  0  0  0  0  0  0  0  0  0  0
  -21.4260  -29.2850   22.3910 N   0  0  0  0  0  0  0  0  0  0  0  0
  -23.4260  -28.8260   23.3420 O   0  0  0  0  0  0  0  0  0  0  0  0
  -20.9430  -29.8500   21.7070 H   0  0  0  0  0  0  0  0  0  0  0  0
  -18.0420  -28.1010   22.8730 C   0  0  0  0  0  0  0  0  0  0  0  0
  -20.6020  -28.3400   23.1450 C   0  0  0  0  0  3  0  0  0  0  0  0
  -20.6960  -26.9180   22.5460 C   0  0  0  0  0  2  0  0  0  0  0  0
  -19.5890  -26.6190   21.5270 C   0  0  0  0  0  2  0  0  0  0  0  0
  -18.2090  -26.7610   22.1750 C   0  0  0  0  0  2  0  0  0  0  0  0
  -19.1660  -28.8490   23.3140 C   0  0  0  0  0  0  0  0  0  0  0  0
  -18.9550  -30.1030   23.9260 C   0  0  0  0  0  3  0  0  0  0  0  0
  -17.6540  -30.6100   24.1030 C   0  0  0  0  0  3  0  0  0  0  0  0
  -16.5450  -29.8590   23.6770 C   0  0  0  0  0  3  0  0  0  0  0  0
  -16.7390  -28.6060   23.0690 C   0  0  0  0  0  3  0  0  0  0  0  0
  -25.8930  -32.4950   23.8780 C   0  0  0  0  0  3  0  0  0  0  0  0
  -26.3930  -31.7180   25.1580 C   0  0  1  0  0  0  0  0  0  0  0  0
  -25.2870  -31.4800   26.2130 C   0  0  0  0  0  1  0  0  0  0  0  0
  -26.9790  -30.3410   24.7660 C   0  0  0  0  0  1  0  0  0  0  0  0
  -27.5370  -32.5080   25.8370 C   0  0  0  0  0  1  0  0  0  0  0  0
  -25.5860  -33.8940   24.2130 N   0  0  0  0  0  0  0  0  0  0  0  0
  -25.9070  -34.9460   23.4480 C   0  0  0  0  0  0  0  0  0  0  0  0
  -26.5640  -34.8430   22.4090 O   0  0  0  0  0  0  0  0  0  0  0  0
  -25.0030  -34.0500   25.0210 H   0  0  0  0  0  0  0  0  0  0  0  0
  -24.1630  -36.7300   23.1290 C   0  0  0  0  0  1  0  0  0  0  0  0
  -25.4260  -36.3340   23.9110 C   0  0  0  0  0  3  0  0  0  0  0  0
  -27.5720  -37.2370   24.6910 C   0  0  0  0  0  1  0  0  0  0  0  0
  -26.4490  -37.3920   23.7680 N   0  0  0  0  0  0  0  0  0  0  0  0
  -26.0410  -38.3110   23.9170 H   0  0  0  0  0  0  0  0  0  0  0  0
  1  3  2  0
  2 49  1  0
  2  1  1  0
  4  2  1  0
  5  7  2  0
  5  9  1  0
  6  8  1  0
  7 10  1  0
  9  1  1  0
  9  6  2  0
 10 19  1  0
 10  8  2  0
 11 19  1  0
 12 17  1  0
 13 14  1  0
 13 12  1  0
 15 14  1  0
 15 24  1  0
 15 16  1  0
 17 11  1  0
 17 16  1  0
 18 11  2  0
 19 20  1  0
 21 22  2  0
 22 41  1  0
 23 22  1  0
 23 26  1  0
 24 25  1  0
 24 21  1  0
 25 23  2  0
 26 27  1  0
 27 28  2  0
 29 32  1  0
 29 28  1  0
 30 29  2  0
 31 30  1  0
 31 26  2  0
 32 33  1  0
 33 34  1  0
 34 35  2  0
 36 35  1  0
 36 40  1  0
 37 36  2  0
 38 33  2  0
 38 37  1  0
 39 38  1  0
 41 42  1  0
 42 45  1  0
 42 44  1  0
 43 41  2  0
 46 21  1  0
 46 47  1  0
 48 46  1  0
 50 51  1  0
 50 49  2  0
 52 63  2  0
 53 51  1  0
 53 58  1  0
 54 62  1  0
 54 64  1  0
 55 61  1  0
 55 57  1  0
 56 62  1  0
 57 56  1  0
 58 57  2  0
 59 60  1  0
 59 53  2  0
 60 55  2  0
 61 54  1  0
 62 52  1  0
 64 66  2  0
 65 64  1  0
 67 65  1  0
 68 77  2  0
 68 73  1  0
 69 65  1  0
 69 73  1  0
 70 69  1  0
 71 72  1  0
 71 70  1  0
 72 68  1  0
 73 74  2  0
 74 75  1  0
 76 75  2  0
 77 76  1  0
 78 52  1  0
 78 83  1  0
 78 79  1  0
 79 82  1  1
 79 80  1  0
 81 79  1  0
 83 86  1  0
 84 88  1  0
 84 83  1  0
 85 84  2  0
 88 87  1  0
 90 88  1  0
 90 91  1  0
 90 89  1  0
M  ISO  4  11 100  19 100  50 101  51 101
M  END
>  <TORSDO>  (48) 
F 19

>  <SCORE>  (48) 
-13.884

>  <name>  (48) 
49

>  <ligand_id>  (48) 
49

>  <original_smiles>  (48) 
[H]c1c([H])c([H])c2c(c1[H])C([H])([H])C([H])([H])C([H])([H])C2([H])N([H])C(=O)C1([H])N(C(=O)C([H])(N([H])C(=O)C([H])(N([H])C([H])([H])[H])C([H])([H])[H])C(C([H])([H])[H])(C([H])([H])[H])C([H])([H])[H])C([H])([H])c2c([H])c(OC([H])([H])C([H])([H])N([H])C(=O)c3c([H])c([H])c(N([H])C(=O)N4C([H])([H])C([H])([H])C([H])([H])C([H])(n5nc(-c6c([H])c([H])c(Oc7c([H])c([H])c(F)c([H])c7F)c([H])c6[H])c(C(=O)N([H])[H])c5N([H])[H])C4([H])[H])c([H])c3[H])c([H])c([H])c2C1([H])[H]

>  <smiles>  (48) 
[H]c1c([H])c([H])c2c(c1[H])C([H])([H])C([H])([H])C([H])([H])C2([H])N([H])C(=O)C1([H])N(C(=O)C([H])(N([H])C(=O)C([H])(N([H])C([H])([H])[H])C([H])([H])[H])C(C([H])([H])[H])(C([H])([H])[H])C([H])([H])[H])C([H])([H])c2c([H])c(OC([H])([H])C([H])([H])N([H])C(=O)c3c([H])c([H])c(N([H])C(=O)N4C([H])([H])C([H])([H])C([H])([H])C([H])(n5nc(-c6c([H])c([H])c(Oc7c([H])c([H])c(F)c([H])c7F)c([H])c6[H])c(C(=O)N([H])[H])c5N([H])[H])C4([H])[H])c([H])c3[H])c([H])c([H])c2C1([H])[H]

$$$$
50:0:0
     RDKit          3D

 87 94  0  0  1  0  0  0  0  0999 V2000
  -29.1770  -19.7480   20.0010 C   0  0  0  0  0  0  0  0  0  0  0  0
  -29.0550  -21.1280   20.5480 N   0  0  0  0  0  0  0  0  0  0  0  0
  -28.8260  -19.6230   18.8280 O   0  0  0  0  0  0  0  0  0  0  0  0
  -29.2990  -21.1410   21.5310 H   0  0  0  0  0  0  0  0  0  0  0  0
  -31.3310  -18.4880   20.7550 C   0  0  0  0  0  1  0  0  0  0  0  0
  -29.8120  -18.2540   20.6910 C   0  0  0  0  0  3  0  0  0  0  0  0
  -30.3810  -15.3300   20.2710 C   0  0  0  0  0  0  0  0  0  0  0  0
  -30.3620  -12.8880   19.3580 C   0  0  0  0  0  2  0  0  0  0  0  0
  -29.4350  -12.6640   18.1370 C   0  0  0  0  0  2  0  0  0  0  0  0
  -27.9910  -12.3830   18.5890 C   0  0  0  0  0  2  0  0  0  0  0  0
  -27.5400  -13.3440   19.7160 C   0  0  0  0  0  3  0  0  0  0  0  0
  -28.5940  -13.5020   20.8320 C   0  0  0  0  0  2  0  0  0  0  0  0
  -29.8090  -14.0260   20.1830 N   0  0  0  0  0  0  0  0  0  0  0  0
  -31.6100  -15.3100   20.1030 O   0  0  0  0  0  0  0  0  0  0  0  0
  -29.6170  -16.6090   20.3670 N   0  0  0  0  0  0  0  0  0  0  0  0
  -28.6310  -16.3970   20.3270 H   0  0  0  0  0  0  0  0  0  0  0  0
  -25.1710  -13.8920   20.4800 C   0  0  0  0  0  0  0  0  0  0  0  0
  -24.1140  -13.1110   20.8520 C   0  0  0  0  0  0  0  0  0  0  0  0
  -24.5880  -11.7630   20.8230 C   0  0  0  0  0  0  0  0  0  0  0  0
  -26.2170  -13.0210   20.2340 N   0  0  0  0  0  0  0  0  0  0  0  0
  -25.8790  -11.7340   20.5100 N   0  0  0  0  0  0  0  0  0  0  0  0
  -23.8660  -10.4970   21.0130 C   0  0  0  0  0  0  0  0  0  0  0  0
  -24.2950   -9.5360   21.9550 C   0  0  0  0  0  3  0  0  0  0  0  0
  -23.5690   -8.3380   22.1350 C   0  0  0  0  0  3  0  0  0  0  0  0
  -22.4020   -8.0930   21.3740 C   0  0  0  0  0  0  0  0  0  0  0  0
  -21.9940   -9.0430   20.4210 C   0  0  0  0  0  3  0  0  0  0  0  0
  -22.7190  -10.2320   20.2380 C   0  0  0  0  0  3  0  0  0  0  0  0
  -21.6490   -6.9460   21.4620 O   0  0  0  0  0  0  0  0  0  0  0  0
  -21.5880   -6.2150   22.6210 C   0  0  0  0  0  0  0  0  0  0  0  0
  -21.1350   -6.7770   23.8340 C   0  0  0  0  0  3  0  0  0  0  0  0
  -21.0210   -5.9710   24.9840 C   0  0  0  0  0  3  0  0  0  0  0  0
  -21.3480   -4.6040   24.9230 C   0  0  0  0  0  0  0  0  0  0  0  0
  -21.7950   -4.0410   23.7150 C   0  0  0  0  0  3  0  0  0  0  0  0
  -21.9100   -4.8440   22.5660 C   0  0  0  0  0  0  0  0  0  0  0  0
  -22.3200   -4.2910   21.3990 F   0  0  0  0  0  0  0  0  0  0  0  0
  -21.2320   -3.8280   26.0260 F   0  0  0  0  0  0  0  0  0  0  0  0
  -22.7150  -13.5820   21.1160 C   0  0  0  0  0  0  0  0  0  0  0  0
  -21.9850  -12.8830   21.9780 N   0  0  0  0  0  0  0  0  0  0  0  0
  -22.2770  -14.6070   20.5940 O   0  0  0  0  0  0  0  0  0  0  0  0
  -22.3540  -12.0560   22.4230 H   0  0  0  0  0  0  0  0  0  0  0  0
  -21.0450  -13.1810   22.1990 H   0  0  0  0  0  0  0  0  0  0  0  0
  -25.3230  -15.2640   20.2980 N   0  0  0  0  0  0  0  0  0  0  0  0
  -24.5460  -15.9070   20.4030 H   0  0  0  0  0  0  0  0  0  0  0  0
  -26.1520  -15.7050   19.9220 H   0  0  0  0  0  0  0  0  0  0  0  0
  -28.8450  -22.6990   19.9660 C   0  0  0  0  0  2  0  0  0  0  0  0
  -28.0870  -24.2320   20.5820 C   0  0  0  0  0  2  0  0  0  0  0  0
  -28.2550  -25.8650   20.3110 O   0  0  0  0  0  0  0  0  0  0  0  0
  -24.6380  -31.8680   23.2360 C   0  0  0  0  0  0  0  0  0  0  0  0
  -27.2220  -26.9480   20.3000 C   0  0  0  0  0  0  0  0  0  0  0  0
  -23.4570  -30.4490   21.6080 C   0  0  0  0  0  3  0  0  0  0  0  0
  -24.9170  -28.8260   20.2180 C   0  0  0  0  0  0  0  0  0  0  0  0
  -26.0250  -30.6630   21.4710 C   0  0  0  0  0  2  0  0  0  0  0  0
  -26.1030  -29.2430   20.8360 C   0  0  0  0  0  0  0  0  0  0  0  0
  -27.2520  -28.3280   20.8450 C   0  0  0  0  0  3  0  0  0  0  0  0
  -26.0020  -26.6820   19.6400 C   0  0  0  0  0  3  0  0  0  0  0  0
  -24.8920  -27.5660   19.5990 C   0  0  0  0  0  3  0  0  0  0  0  0
  -23.6970  -29.7470   20.2430 C   0  0  0  0  0  2  0  0  0  0  0  0
  -24.7280  -31.0220   22.1590 N   0  0  0  0  0  0  0  0  0  0  0  0
  -23.5440  -32.1600   23.7480 O   0  0  0  0  0  0  0  0  0  0  0  0
  -22.7590  -29.4640   22.5820 C   0  0  0  0  0  0  0  0  0  0  0  0
  -21.4290  -29.3000   22.4570 N   0  0  0  0  0  0  0  0  0  0  0  0
  -23.4230  -28.8460   23.4190 O   0  0  0  0  0  0  0  0  0  0  0  0
  -20.9470  -29.8490   21.7580 H   0  0  0  0  0  0  0  0  0  0  0  0
  -18.0450  -28.0940   22.9700 C   0  0  0  0  0  0  0  0  0  0  0  0
  -20.6050  -28.3690   23.2350 C   0  0  0  0  0  3  0  0  0  0  0  0
  -20.7100  -26.9320   22.6750 C   0  0  0  0  0  2  0  0  0  0  0  0
  -19.6100  -26.5970   21.6620 C   0  0  0  0  0  2  0  0  0  0  0  0
  -18.2270  -26.7410   22.3020 C   0  0  0  0  0  2  0  0  0  0  0  0
  -19.1610  -28.8650   23.3930 C   0  0  0  0  0  0  0  0  0  0  0  0
  -18.9340  -30.1290   23.9800 C   0  0  0  0  0  3  0  0  0  0  0  0
  -17.6270  -30.6230   24.1460 C   0  0  0  0  0  3  0  0  0  0  0  0
  -16.5270  -29.8510   23.7360 C   0  0  0  0  0  3  0  0  0  0  0  0
  -16.7360  -28.5880   23.1540 C   0  0  0  0  0  3  0  0  0  0  0  0
  -25.9030  -32.5220   23.8700 C   0  0  0  0  0  3  0  0  0  0  0  0
  -26.3990  -31.7780   25.1700 C   0  0  1  0  0  0  0  0  0  0  0  0
  -25.2910  -31.5630   26.2280 C   0  0  0  0  0  1  0  0  0  0  0  0
  -26.9880  -30.3920   24.8250 C   0  0  0  0  0  1  0  0  0  0  0  0
  -27.5400  -32.5860   25.8330 C   0  0  0  0  0  1  0  0  0  0  0  0
  -25.5790  -33.9250   24.1820 N   0  0  0  0  0  0  0  0  0  0  0  0
  -25.9180  -34.9790   23.4280 C   0  0  0  0  0  0  0  0  0  0  0  0
  -26.5980  -34.8730   22.4040 O   0  0  0  0  0  0  0  0  0  0  0  0
  -24.9750  -34.0820   24.9760 H   0  0  0  0  0  0  0  0  0  0  0  0
  -24.1960  -36.7800   23.0550 C   0  0  0  0  0  1  0  0  0  0  0  0
  -25.4290  -36.3720   23.8780 C   0  0  0  0  0  3  0  0  0  0  0  0
  -27.5550  -37.2630   24.7290 C   0  0  0  0  0  1  0  0  0  0  0  0
  -26.4640  -37.4250   23.7710 N   0  0  0  0  0  0  0  0  0  0  0  0
  -26.0560  -38.3460   23.9080 H   0  0  0  0  0  0  0  0  0  0  0  0
  1  2  1  0
  1  6  1  0
  2  4  1  0
  3  1  2  0
  6  5  1  0
  7 15  1  0
  8 13  1  0
  9 10  1  0
  9  8  1  0
 11 10  1  0
 11 20  1  0
 11 12  1  0
 13  7  1  0
 13 12  1  0
 14  7  2  0
 15  6  1  0
 16 15  1  0
 17 18  2  0
 18 37  1  0
 19 18  1  0
 19 22  1  0
 20 17  1  0
 20 21  1  0
 21 19  2  0
 22 23  1  0
 23 24  2  0
 25 28  1  0
 25 24  1  0
 26 25  2  0
 27 26  1  0
 27 22  2  0
 28 29  1  0
 29 30  1  0
 30 31  2  0
 32 31  1  0
 32 36  1  0
 33 32  2  0
 34 29  2  0
 34 33  1  0
 35 34  1  0
 37 38  1  0
 38 41  1  0
 38 40  1  0
 39 37  2  0
 42 43  1  0
 42 17  1  0
 44 42  1  0
 45  2  1  0
 45 46  1  0
 47 46  1  0
 48 59  2  0
 49 47  1  0
 49 54  1  0
 50 58  1  0
 50 60  1  0
 51 57  1  0
 51 53  1  0
 52 58  1  0
 53 54  2  0
 53 52  1  0
 55 49  2  0
 56 55  1  0
 56 51  2  0
 57 50  1  0
 58 48  1  0
 60 62  2  0
 61 60  1  0
 63 61  1  0
 64 73  2  0
 64 69  1  0
 65 61  1  0
 65 69  1  0
 66 65  1  0
 67 68  1  0
 67 66  1  0
 68 64  1  0
 69 70  2  0
 70 71  1  0
 72 71  2  0
 73 72  1  0
 74 48  1  0
 74 79  1  0
 74 75  1  0
 75 78  1  1
 75 76  1  0
 77 75  1  0
 79 82  1  0
 80 84  1  0
 80 79  1  0
 81 80  2  0
 84 83  1  0
 86 84  1  0
 86 87  1  0
 86 85  1  0
M  ISO  4   7 100  15 100  46 101  47 101
M  END
>  <TORSDO>  (49) 
F 19

>  <SCORE>  (49) 
-16.531

>  <name>  (49) 
50

>  <ligand_id>  (49) 
50

>  <original_smiles>  (49) 
[H]c1c([H])c([H])c2c(c1[H])C([H])([H])C([H])([H])C([H])([H])C2([H])N([H])C(=O)C1([H])N(C(=O)C([H])(N([H])C(=O)C([H])(N([H])C([H])([H])[H])C([H])([H])[H])C(C([H])([H])[H])(C([H])([H])[H])C([H])([H])[H])C([H])([H])c2c([H])c(OC([H])([H])C([H])([H])N([H])C(=O)C([H])(N([H])C(=O)N3C([H])([H])C([H])([H])C([H])([H])C([H])(n4nc(-c5c([H])c([H])c(Oc6c([H])c([H])c(F)c([H])c6F)c([H])c5[H])c(C(=O)N([H])[H])c4N([H])[H])C3([H])[H])C([H])([H])[H])c([H])c([H])c2C1([H])[H]

>  <smiles>  (49) 
[H]c1c([H])c([H])c2c(c1[H])C([H])([H])C([H])([H])C([H])([H])C2([H])N([H])C(=O)C1([H])N(C(=O)C([H])(N([H])C(=O)C([H])(N([H])C([H])([H])[H])C([H])([H])[H])C(C([H])([H])[H])(C([H])([H])[H])C([H])([H])[H])C([H])([H])c2c([H])c(OC([H])([H])C([H])([H])N([H])C(=O)C([H])(N([H])C(=O)N3C([H])([H])C([H])([H])C([H])([H])C([H])(n4nc(-c5c([H])c([H])c(Oc6c([H])c([H])c(F)c([H])c6F)c([H])c5[H])c(C(=O)N([H])[H])c4N([H])[H])C3([H])[H])C([H])([H])[H])c([H])c([H])c2C1([H])[H]

$$$$
51:0:0
     RDKit          3D

 94101  0  0  1  0  0  0  0  0999 V2000
  -30.0420  -19.8850   19.9410 C   0  0  0  0  0  3  0  0  0  0  0  0
  -29.5850  -18.4290   20.4580 C   0  0  0  0  0  0  0  0  0  0  0  0
  -30.2970  -17.2840   20.1340 N   0  0  0  0  0  0  0  0  0  0  0  0
  -28.5700  -18.3410   21.1500 O   0  0  0  0  0  0  0  0  0  0  0  0
  -31.1450  -17.3010   19.5810 H   0  0  0  0  0  0  0  0  0  0  0  0
  -30.6520  -14.7620   20.0860 C   0  0  0  0  0  0  0  0  0  0  0  0
  -30.3810  -12.5480   18.9650 C   0  0  0  0  0  2  0  0  0  0  0  0
  -29.3850  -12.7130   17.7950 C   0  0  0  0  0  2  0  0  0  0  0  0
  -27.9320  -12.5420   18.2820 C   0  0  0  0  0  2  0  0  0  0  0  0
  -27.6350  -13.3510   19.5740 C   0  0  0  0  0  3  0  0  0  0  0  0
  -28.7450  -13.1700   20.6310 C   0  0  0  0  0  2  0  0  0  0  0  0
  -30.0180  -13.5420   20.0020 N   0  0  0  0  0  0  0  0  0  0  0  0
  -31.8020  -14.8990   19.6590 O   0  0  0  0  0  0  0  0  0  0  0  0
  -29.9090  -15.8710   20.4520 N   0  0  0  0  0  0  0  0  0  0  0  0
  -28.9490  -15.8160   20.7640 H   0  0  0  0  0  0  0  0  0  0  0  0
  -25.2760  -13.9220   20.4090 C   0  0  0  0  0  0  0  0  0  0  0  0
  -24.2280  -13.1390   20.8090 C   0  0  0  0  0  0  0  0  0  0  0  0
  -24.6930  -11.7900   20.7340 C   0  0  0  0  0  0  0  0  0  0  0  0
  -26.3120  -13.0510   20.1120 N   0  0  0  0  0  0  0  0  0  0  0  0
  -25.9690  -11.7620   20.3680 N   0  0  0  0  0  0  0  0  0  0  0  0
  -23.9770  -10.5230   20.9320 C   0  0  0  0  0  0  0  0  0  0  0  0
  -24.4080   -9.5700   21.8820 C   0  0  0  0  0  3  0  0  0  0  0  0
  -23.6900   -8.3690   22.0660 C   0  0  0  0  0  3  0  0  0  0  0  0
  -22.5280   -8.1120   21.3010 C   0  0  0  0  0  0  0  0  0  0  0  0
  -22.1170   -9.0510   20.3400 C   0  0  0  0  0  3  0  0  0  0  0  0
  -22.8350  -10.2450   20.1540 C   0  0  0  0  0  3  0  0  0  0  0  0
  -21.7830   -6.9600   21.3940 O   0  0  0  0  0  0  0  0  0  0  0  0
  -21.6860   -6.2590   22.5690 C   0  0  0  0  0  0  0  0  0  0  0  0
  -21.1320   -6.8310   23.7360 C   0  0  0  0  0  3  0  0  0  0  0  0
  -20.9870   -6.0520   24.9010 C   0  0  0  0  0  3  0  0  0  0  0  0
  -21.3860   -4.7030   24.9010 C   0  0  0  0  0  0  0  0  0  0  0  0
  -21.9320   -4.1290   23.7390 C   0  0  0  0  0  3  0  0  0  0  0  0
  -22.0780   -4.9050   22.5750 C   0  0  0  0  0  0  0  0  0  0  0  0
  -22.5870   -4.3420   21.4530 F   0  0  0  0  0  0  0  0  0  0  0  0
  -21.2380   -3.9520   26.0170 F   0  0  0  0  0  0  0  0  0  0  0  0
  -22.8430  -13.6080   21.1460 C   0  0  0  0  0  0  0  0  0  0  0  0
  -22.1460  -12.8830   22.0150 N   0  0  0  0  0  0  0  0  0  0  0  0
  -22.3890  -14.6520   20.6770 O   0  0  0  0  0  0  0  0  0  0  0  0
  -22.5280  -12.0400   22.4180 H   0  0  0  0  0  0  0  0  0  0  0  0
  -21.2160  -13.1750   22.2800 H   0  0  0  0  0  0  0  0  0  0  0  0
  -25.4280  -15.2970   20.2520 N   0  0  0  0  0  0  0  0  0  0  0  0
  -24.6580  -15.9390   20.4150 H   0  0  0  0  0  0  0  0  0  0  0  0
  -26.2490  -15.7550   19.8790 H   0  0  0  0  0  0  0  0  0  0  0  0
  -29.0200  -22.3230   19.7880 C   0  0  0  0  0  0  0  0  0  0  0  0
  -29.3670  -21.1640   20.4650 N   0  0  0  0  0  0  0  0  0  0  0  0
  -29.0340  -22.3240   18.5570 O   0  0  0  0  0  0  0  0  0  0  0  0
  -29.2600  -21.1900   21.4710 H   0  0  0  0  0  0  0  0  0  0  0  0
  -28.6240  -23.6960   20.5200 C   0  0  0  0  0  3  0  0  0  0  0  0
  -28.4420  -25.0440   19.6330 C   0  0  0  0  0  3  0  0  0  0  0  0
  -28.3330  -26.4270   20.2210 O   0  0  0  0  0  0  0  0  0  0  0  0
  -24.5530  -31.8560   23.1730 C   0  0  0  0  0  0  0  0  0  0  0  0
  -27.1960  -27.2660   20.1340 C   0  0  0  0  0  0  0  0  0  0  0  0
  -23.3670  -30.4590   21.5200 C   0  0  0  0  0  3  0  0  0  0  0  0
  -24.8310  -28.9050   20.1050 C   0  0  0  0  0  0  0  0  0  0  0  0
  -25.9110  -30.7680   21.3630 C   0  0  0  0  0  2  0  0  0  0  0  0
  -25.9950  -29.3870   20.7130 C   0  0  0  0  0  0  0  0  0  0  0  0
  -27.1760  -28.5790   20.7150 C   0  0  0  0  0  3  0  0  0  0  0  0
  -26.0000  -26.8420   19.5120 C   0  0  0  0  0  3  0  0  0  0  0  0
  -24.8380  -27.6400   19.4970 C   0  0  0  0  0  3  0  0  0  0  0  0
  -23.5950  -29.7830   20.1410 C   0  0  0  0  0  2  0  0  0  0  0  0
  -24.6290  -31.0460   22.0740 N   0  0  0  0  0  0  0  0  0  0  0  0
  -23.4640  -32.1300   23.6980 O   0  0  0  0  0  0  0  0  0  0  0  0
  -22.6940  -29.4420   22.4740 C   0  0  0  0  0  0  0  0  0  0  0  0
  -21.3660  -29.2760   22.3470 N   0  0  0  0  0  0  0  0  0  0  0  0
  -23.3660  -28.8040   23.2860 O   0  0  0  0  0  0  0  0  0  0  0  0
  -20.8810  -29.8440   21.6660 H   0  0  0  0  0  0  0  0  0  0  0  0
  -17.9720  -28.1450   22.8850 C   0  0  0  0  0  0  0  0  0  0  0  0
  -20.5400  -28.3400   23.1120 C   0  0  0  0  0  3  0  0  0  0  0  0
  -20.5980  -26.9200   22.5030 C   0  0  0  0  0  2  0  0  0  0  0  0
  -19.4700  -26.6450   21.5030 C   0  0  0  0  0  2  0  0  0  0  0  0
  -18.1040  -26.8070   22.1760 C   0  0  0  0  0  2  0  0  0  0  0  0
  -19.1150  -28.8720   23.3110 C   0  0  0  0  0  0  0  0  0  0  0  0
  -18.9360  -30.1250   23.9350 C   0  0  0  0  0  3  0  0  0  0  0  0
  -17.6450  -30.6500   24.1380 C   0  0  0  0  0  3  0  0  0  0  0  0
  -16.5160  -29.9200   23.7270 C   0  0  0  0  0  3  0  0  0  0  0  0
  -16.6800  -28.6690   23.1050 C   0  0  0  0  0  3  0  0  0  0  0  0
  -25.8280  -32.4910   23.8080 C   0  0  0  0  0  3  0  0  0  0  0  0
  -25.5040  -33.8810   24.1590 N   0  0  0  0  0  0  0  0  0  0  0  0
  -25.8300  -34.9520   23.4230 C   0  0  0  0  0  0  0  0  0  0  0  0
  -26.5050  -34.8730   22.3920 O   0  0  0  0  0  0  0  0  0  0  0  0
  -24.8990  -34.0130   24.9570 H   0  0  0  0  0  0  0  0  0  0  0  0
  -24.1070  -36.7540   23.0760 C   0  0  0  0  0  1  0  0  0  0  0  0
  -25.3310  -36.3270   23.9040 C   0  0  0  0  0  3  0  0  0  0  0  0
  -27.4350  -37.2030   24.8200 C   0  0  0  0  0  1  0  0  0  0  0  0
  -26.3630  -37.3840   23.8440 N   0  0  0  0  0  0  0  0  0  0  0  0
  -25.9490  -38.3000   23.9930 H   0  0  0  0  0  0  0  0  0  0  0  0
  -26.3460  -31.7060   25.0760 C   0  0  1  0  0  0  0  0  0  0  0  0
  -25.2510  -31.4400   26.1340 C   0  0  0  0  0  1  0  0  0  0  0  0
  -26.9460  -30.3390   24.6680 C   0  0  0  0  0  1  0  0  0  0  0  0
  -27.4800  -32.5050   25.7590 C   0  0  0  0  0  1  0  0  0  0  0  0
  -31.5920  -20.0470   20.0230 C   0  0  0  0  0  2  0  0  0  0  0  0
  -32.1500  -20.7770   17.6190 C   0  0  0  0  0  1  0  0  0  0  0  0
  -33.7200  -21.3280   19.5110 C   0  0  0  0  0  1  0  0  0  0  0  0
  -32.2500  -21.1180   19.1170 C   0  0  0  0  0  3  0  0  0  0  0  0
  1 91  1  0
  1  2  1  0
  1 45  1  0
  2  4  2  0
  3 14  1  0
  3  2  1  0
  5  3  1  0
  6 14  1  0
  7 12  1  0
  8  9  1  0
  8  7  1  0
 10  9  1  0
 10 19  1  0
 10 11  1  0
 12  6  1  0
 12 11  1  0
 13  6  2  0
 14 15  1  0
 16 17  2  0
 17 36  1  0
 18 17  1  0
 18 21  1  0
 19 20  1  0
 19 16  1  0
 20 18  2  0
 21 22  1  0
 22 23  2  0
 24 27  1  0
 24 23  1  0
 25 24  2  0
 26 25  1  0
 26 21  2  0
 27 28  1  0
 28 33  2  0
 28 29  1  0
 29 30  2  0
 31 30  1  0
 31 35  1  0
 32 31  2  0
 33 32  1  0
 34 33  1  0
 36 37  1  0
 37 40  1  0
 37 39  1  0
 38 36  2  0
 41 16  1  0
 41 42  1  0
 43 41  1  0
 44 45  1  0
 44 48  1  0
 45 47  1  0
 46 44  2  0
 49 50  1  0
 49 48  2  0
 51 62  2  0
 52 50  1  0
 52 57  1  0
 53 61  1  0
 53 63  1  0
 54 60  1  0
 54 56  1  0
 55 61  1  0
 56 57  2  0
 56 55  1  0
 58 52  2  0
 59 58  1  0
 59 54  2  0
 60 53  1  0
 61 51  1  0
 63 65  2  0
 64 63  1  0
 66 64  1  0
 67 76  2  0
 67 72  1  0
 68 64  1  0
 68 72  1  0
 69 68  1  0
 70 71  1  0
 70 69  1  0
 71 67  1  0
 72 73  2  0
 73 74  1  0
 75 74  2  0
 76 75  1  0
 77 51  1  0
 77 78  1  0
 77 87  1  0
 78 81  1  0
 79 83  1  0
 79 78  1  0
 80 79  2  0
 83 82  1  0
 85 83  1  0
 85 86  1  0
 85 84  1  0
 87 90  1  1
 87 88  1  0
 89 87  1  0
 92 94  1  0
 94 93  1  0
 94 91  1  0
M  ISO  4   6 100  14 100  49 101  50 101
M  END
>  <TORSDO>  (50) 
F 22

>  <SCORE>  (50) 
-12.866

>  <name>  (50) 
51

>  <ligand_id>  (50) 
51

>  <original_smiles>  (50) 
[H]c1c([H])c([H])c2c(c1[H])C([H])([H])C([H])([H])C([H])([H])C2([H])N([H])C(=O)C1([H])N(C(=O)C([H])(N([H])C(=O)C([H])(N([H])C([H])([H])[H])C([H])([H])[H])C(C([H])([H])[H])(C([H])([H])[H])C([H])([H])[H])C([H])([H])c2c([H])c(OC([H])([H])C([H])([H])C(=O)N([H])C([H])(C(=O)N([H])N([H])C(=O)N3C([H])([H])C([H])([H])C([H])([H])C([H])(n4nc(-c5c([H])c([H])c(Oc6c([H])c([H])c(F)c([H])c6F)c([H])c5[H])c(C(=O)N([H])[H])c4N([H])[H])C3([H])[H])C([H])([H])C([H])(C([H])([H])[H])C([H])([H])[H])c([H])c([H])c2C1([H])[H]

>  <smiles>  (50) 
[H]c1c([H])c([H])c2c(c1[H])C([H])([H])C([H])([H])C([H])([H])C2([H])N([H])C(=O)C1([H])N(C(=O)C([H])(N([H])C(=O)C([H])(N([H])C([H])([H])[H])C([H])([H])[H])C(C([H])([H])[H])(C([H])([H])[H])C([H])([H])[H])C([H])([H])c2c([H])c(OC([H])([H])C([H])([H])C(=O)N([H])C([H])(C(=O)N([H])N([H])C(=O)N3C([H])([H])C([H])([H])C([H])([H])C([H])(n4nc(-c5c([H])c([H])c(Oc6c([H])c([H])c(F)c([H])c6F)c([H])c5[H])c(C(=O)N([H])[H])c4N([H])[H])C3([H])[H])C([H])([H])C([H])(C([H])([H])[H])C([H])([H])[H])c([H])c([H])c2C1([H])[H]

$$$$
52:0:0
     RDKit          3D

 92100  0  0  1  0  0  0  0  0999 V2000
  -29.0750  -22.2080   20.9130 C   0  0  0  0  0  0  0  0  0  0  0  0
  -29.6440  -23.1930   20.1960 N   0  0  0  0  0  0  0  0  0  0  0  0
  -28.2160  -22.4460   21.7650 O   0  0  0  0  0  0  0  0  0  0  0  0
  -30.3100  -22.9100   19.4910 H   0  0  0  0  0  0  0  0  0  0  0  0
  -28.9510  -19.7090   21.3930 C   0  0  0  0  0  3  0  0  0  0  0  0
  -30.6970  -20.4830   19.8980 C   0  0  0  0  0  3  0  0  0  0  0  0
  -29.4840  -18.4000   21.3490 C   0  0  0  0  0  3  0  0  0  0  0  0
  -31.2320  -19.1730   19.8570 C   0  0  0  0  0  3  0  0  0  0  0  0
  -29.5660  -20.7830   20.7000 C   0  0  0  0  0  0  0  0  0  0  0  0
  -30.6570  -18.1270   20.6130 C   0  0  0  0  0  0  0  0  0  0  0  0
  -31.3870  -16.7840   20.7660 C   0  0  0  0  0  2  0  0  0  0  0  0
  -31.1570  -14.5320   19.7150 C   0  0  0  0  0  0  0  0  0  0  0  0
  -30.7010  -12.3310   18.6910 C   0  0  0  0  0  2  0  0  0  0  0  0
  -29.6840  -12.4730   17.5420 C   0  0  0  0  0  2  0  0  0  0  0  0
  -28.2430  -12.3960   18.0820 C   0  0  0  0  0  2  0  0  0  0  0  0
  -28.0090  -13.3240   19.3040 C   0  0  0  0  0  3  0  0  0  0  0  0
  -29.1320  -13.1570   20.3510 C   0  0  0  0  0  2  0  0  0  0  0  0
  -30.4200  -13.3890   19.6760 N   0  0  0  0  0  0  0  0  0  0  0  0
  -32.2200  -14.6530   19.0980 O   0  0  0  0  0  0  0  0  0  0  0  0
  -30.6500  -15.5560   20.4250 N   0  0  0  0  0  0  0  0  0  0  0  0
  -29.7580  -15.4100   20.8710 H   0  0  0  0  0  0  0  0  0  0  0  0
  -25.7180  -14.0430   20.2240 C   0  0  0  0  0  0  0  0  0  0  0  0
  -24.6400  -13.3210   20.6630 C   0  0  0  0  0  0  0  0  0  0  0  0
  -25.0180  -11.9470   20.5640 C   0  0  0  0  0  0  0  0  0  0  0  0
  -26.6870  -13.1120   19.8880 N   0  0  0  0  0  0  0  0  0  0  0  0
  -26.2730  -11.8440   20.1480 N   0  0  0  0  0  0  0  0  0  0  0  0
  -24.2360  -10.7240   20.7850 C   0  0  0  0  0  0  0  0  0  0  0  0
  -24.6410   -9.7490   21.7240 C   0  0  0  0  0  3  0  0  0  0  0  0
  -23.8640   -8.5880   21.9320 C   0  0  0  0  0  3  0  0  0  0  0  0
  -22.6680   -8.3950   21.2010 C   0  0  0  0  0  0  0  0  0  0  0  0
  -22.2820   -9.3580   20.2510 C   0  0  0  0  0  3  0  0  0  0  0  0
  -23.0590  -10.5090   20.0410 C   0  0  0  0  0  3  0  0  0  0  0  0
  -21.8620   -7.2880   21.3170 O   0  0  0  0  0  0  0  0  0  0  0  0
  -21.7300   -6.6170   22.5070 C   0  0  0  0  0  0  0  0  0  0  0  0
  -21.2640   -7.2580   23.6750 C   0  0  0  0  0  3  0  0  0  0  0  0
  -21.0770   -6.5150   24.8590 C   0  0  0  0  0  3  0  0  0  0  0  0
  -21.3440   -5.1330   24.8730 C   0  0  0  0  0  0  0  0  0  0  0  0
  -21.8030   -4.4930   23.7080 C   0  0  0  0  0  3  0  0  0  0  0  0
  -21.9920   -5.2330   22.5290 C   0  0  0  0  0  0  0  0  0  0  0  0
  -22.4140   -4.6060   21.4030 F   0  0  0  0  0  0  0  0  0  0  0  0
  -21.1570   -4.4170   26.0060 F   0  0  0  0  0  0  0  0  0  0  0  0
  -23.2990  -13.8690   21.0610 C   0  0  0  0  0  0  0  0  0  0  0  0
  -22.6110  -13.1990   21.9790 N   0  0  0  0  0  0  0  0  0  0  0  0
  -22.8750  -14.9250   20.5940 O   0  0  0  0  0  0  0  0  0  0  0  0
  -22.9680  -12.3420   22.3780 H   0  0  0  0  0  0  0  0  0  0  0  0
  -21.7150  -13.5480   22.2890 H   0  0  0  0  0  0  0  0  0  0  0  0
  -25.9490  -15.4060   20.0640 N   0  0  0  0  0  0  0  0  0  0  0  0
  -25.2370  -16.1030   20.2570 H   0  0  0  0  0  0  0  0  0  0  0  0
  -26.7990  -15.8040   19.6850 H   0  0  0  0  0  0  0  0  0  0  0  0
  -29.5850  -24.6360   20.5090 C   0  0  0  0  0  2  0  0  0  0  0  0
  -28.3170  -25.3720   20.0130 C   0  0  0  0  0  2  0  0  0  0  0  0
  -28.3990  -26.7940   20.2530 O   0  0  0  0  0  0  0  0  0  0  0  0
  -24.5080  -31.9540   23.2780 C   0  0  0  0  0  0  0  0  0  0  0  0
  -27.2200  -27.5230   20.2150 C   0  0  0  0  0  0  0  0  0  0  0  0
  -23.3310  -30.5420   21.6250 C   0  0  0  0  0  3  0  0  0  0  0  0
  -24.8120  -29.0220   20.2100 C   0  0  0  0  0  0  0  0  0  0  0  0
  -25.8570  -30.9220   21.4510 C   0  0  0  0  0  2  0  0  0  0  0  0
  -25.9620  -29.5530   20.8080 C   0  0  0  0  0  0  0  0  0  0  0  0
  -27.1690  -28.8110   20.8050 C   0  0  0  0  0  3  0  0  0  0  0  0
  -26.0500  -27.0170   19.6050 C   0  0  0  0  0  3  0  0  0  0  0  0
  -24.8520  -27.7540   19.6060 C   0  0  0  0  0  3  0  0  0  0  0  0
  -23.5590  -29.8670   20.2470 C   0  0  0  0  0  2  0  0  0  0  0  0
  -24.5830  -31.1550   22.1760 N   0  0  0  0  0  0  0  0  0  0  0  0
  -23.4190  -32.2140   23.8100 O   0  0  0  0  0  0  0  0  0  0  0  0
  -22.6830  -29.5120   22.5790 C   0  0  0  0  0  0  0  0  0  0  0  0
  -21.3670  -29.2940   22.4200 N   0  0  0  0  0  0  0  0  0  0  0  0
  -23.3600  -28.9120   23.4180 O   0  0  0  0  0  0  0  0  0  0  0  0
  -20.8800  -29.8310   21.7160 H   0  0  0  0  0  0  0  0  0  0  0  0
  -18.0190  -27.9930   22.8180 C   0  0  0  0  0  0  0  0  0  0  0  0
  -20.5540  -28.3430   23.1770 C   0  0  0  0  0  3  0  0  0  0  0  0
  -20.7270  -26.9060   22.6320 C   0  0  0  0  0  2  0  0  0  0  0  0
  -19.6740  -26.5290   21.5850 C   0  0  0  0  0  2  0  0  0  0  0  0
  -18.2660  -26.6380   22.1750 C   0  0  0  0  0  2  0  0  0  0  0  0
  -19.0950  -28.8000   23.2730 C   0  0  0  0  0  0  0  0  0  0  0  0
  -18.8120  -30.0660   23.8310 C   0  0  0  0  0  3  0  0  0  0  0  0
  -17.4860  -30.5260   23.9380 C   0  0  0  0  0  3  0  0  0  0  0  0
  -16.4240  -29.7160   23.5010 C   0  0  0  0  0  3  0  0  0  0  0  0
  -16.6910  -28.4520   22.9450 C   0  0  0  0  0  3  0  0  0  0  0  0
  -25.7820  -32.5990   23.9090 C   0  0  0  0  0  3  0  0  0  0  0  0
  -26.2770  -31.8520   25.2080 C   0  0  1  0  0  0  0  0  0  0  0  0
  -25.1640  -31.6220   26.2570 C   0  0  0  0  0  1  0  0  0  0  0  0
  -26.8790  -30.4730   24.8480 C   0  0  0  0  0  1  0  0  0  0  0  0
  -27.4060  -32.6660   25.8810 C   0  0  0  0  0  1  0  0  0  0  0  0
  -25.4660  -34.0030   24.2040 N   0  0  0  0  0  0  0  0  0  0  0  0
  -25.8080  -35.0390   23.4270 C   0  0  0  0  0  0  0  0  0  0  0  0
  -26.4920  -34.9130   22.4070 O   0  0  0  0  0  0  0  0  0  0  0  0
  -24.8590  -34.1740   24.9920 H   0  0  0  0  0  0  0  0  0  0  0  0
  -24.0780  -36.8170   23.0120 C   0  0  0  0  0  1  0  0  0  0  0  0
  -25.3120  -36.4350   23.8460 C   0  0  0  0  0  3  0  0  0  0  0  0
  -27.4340  -37.3480   24.6810 C   0  0  0  0  0  1  0  0  0  0  0  0
  -26.3430  -37.4890   23.7190 N   0  0  0  0  0  0  0  0  0  0  0  0
  -25.9330  -38.4110   23.8380 H   0  0  0  0  0  0  0  0  0  0  0  0
  1  3  2  0
  2 50  1  0
  2  1  1  0
  4  2  1  0
  6  9  1  0
  7  5  1  0
  8  6  2  0
  8 10  1  0
  9  1  1  0
  9  5  2  0
 10 11  1  0
 10  7  2  0
 12 20  1  0
 13 18  1  0
 14 15  1  0
 14 13  1  0
 16 15  1  0
 16 25  1  0
 16 17  1  0
 18 12  1  0
 18 17  1  0
 19 12  2  0
 20 11  1  0
 20 21  1  0
 22 23  2  0
 23 42  1  0
 24 23  1  0
 24 27  1  0
 25 26  1  0
 25 22  1  0
 26 24  2  0
 27 28  1  0
 28 29  2  0
 30 33  1  0
 30 29  1  0
 31 30  2  0
 32 31  1  0
 32 27  2  0
 33 34  1  0
 34 39  2  0
 34 35  1  0
 35 36  2  0
 36 37  1  0
 37 41  1  0
 38 37  2  0
 39 38  1  0
 40 39  1  0
 42 43  1  0
 43 46  1  0
 43 45  1  0
 44 42  2  0
 47 22  1  0
 47 48  1  0
 49 47  1  0
 51 52  1  0
 51 50  1  0
 53 64  2  0
 54 52  1  0
 54 59  1  0
 55 63  1  0
 55 65  1  0
 56 62  1  0
 56 58  1  0
 57 63  1  0
 58 57  1  0
 59 58  2  0
 60 61  1  0
 60 54  2  0
 61 56  2  0
 62 55  1  0
 63 53  1  0
 65 67  2  0
 66 65  1  0
 68 66  1  0
 69 78  2  0
 69 74  1  0
 70 66  1  0
 70 74  1  0
 71 70  1  0
 72 73  1  0
 72 71  1  0
 73 69  1  0
 74 75  2  0
 75 76  1  0
 77 76  2  0
 78 77  1  0
 79 53  1  0
 79 84  1  0
 79 80  1  0
 80 83  1  1
 80 81  1  0
 82 80  1  0
 84 87  1  0
 85 89  1  0
 85 84  1  0
 86 85  2  0
 89 88  1  0
 91 92  1  0
 91 89  1  0
 91 90  1  0
M  ISO  4  12 100  20 100  51 101  52 101
M  END
>  <TORSDO>  (51) 
F 20

>  <SCORE>  (51) 
-12.615

>  <name>  (51) 
52

>  <ligand_id>  (51) 
52

>  <original_smiles>  (51) 
[H]c1c([H])c([H])c2c(c1[H])C([H])([H])C([H])([H])C([H])([H])C2([H])N([H])C(=O)C1([H])N(C(=O)C([H])(N([H])C(=O)C([H])(N([H])C([H])([H])[H])C([H])([H])[H])C(C([H])([H])[H])(C([H])([H])[H])C([H])([H])[H])C([H])([H])c2c([H])c(OC([H])([H])C([H])([H])N([H])C(=O)c3c([H])c([H])c(C([H])([H])N([H])C(=O)N4C([H])([H])C([H])([H])C([H])([H])C([H])(n5nc(-c6c([H])c([H])c(Oc7c([H])c([H])c(F)c([H])c7F)c([H])c6[H])c(C(=O)N([H])[H])c5N([H])[H])C4([H])[H])c([H])c3[H])c([H])c([H])c2C1([H])[H]

>  <smiles>  (51) 
[H]c1c([H])c([H])c2c(c1[H])C([H])([H])C([H])([H])C([H])([H])C2([H])N([H])C(=O)C1([H])N(C(=O)C([H])(N([H])C(=O)C([H])(N([H])C([H])([H])[H])C([H])([H])[H])C(C([H])([H])[H])(C([H])([H])[H])C([H])([H])[H])C([H])([H])c2c([H])c(OC([H])([H])C([H])([H])N([H])C(=O)c3c([H])c([H])c(C([H])([H])N([H])C(=O)N4C([H])([H])C([H])([H])C([H])([H])C([H])(n5nc(-c6c([H])c([H])c(Oc7c([H])c([H])c(F)c([H])c7F)c([H])c6[H])c(C(=O)N([H])[H])c5N([H])[H])C4([H])[H])c([H])c3[H])c([H])c([H])c2C1([H])[H]

$$$$
53:0:0
     RDKit          3D

 94101  0  0  1  0  0  0  0  0999 V2000
  -28.2300  -20.5510   20.6100 C   0  0  0  0  0  2  0  0  0  0  0  0
  -29.0130  -19.4010   19.9070 C   0  0  0  0  0  2  0  0  0  0  0  0
  -29.3780  -18.1360   20.7570 C   0  0  0  0  0  2  0  0  0  0  0  0
  -29.9030  -16.9280   19.9070 C   0  0  0  0  0  0  0  0  0  0  0  0
  -30.7120  -14.5410   20.3660 C   0  0  0  0  0  0  0  0  0  0  0  0
  -30.4040  -12.3590   19.2770 C   0  0  0  0  0  2  0  0  0  0  0  0
  -29.4740  -12.5900   18.0680 C   0  0  0  0  0  2  0  0  0  0  0  0
  -27.9980  -12.4630   18.4940 C   0  0  0  0  0  2  0  0  0  0  0  0
  -27.6670  -13.2960   19.7620 C   0  0  0  0  0  3  0  0  0  0  0  0
  -28.7200  -13.0780   20.8730 C   0  0  0  0  0  2  0  0  0  0  0  0
  -30.0450  -13.3560   20.3000 N   0  0  0  0  0  0  0  0  0  0  0  0
  -31.8780  -14.6480   19.9830 O   0  0  0  0  0  0  0  0  0  0  0  0
  -29.9380  -15.6210   20.6310 N   0  0  0  0  0  4  0  0  0  0  0  0
  -29.0570  -15.3740   21.0540 H   0  0  0  0  0  0  0  0  0  0  0  0
  -25.2730  -13.9210   20.4670 C   0  0  0  0  0  0  0  0  0  0  0  0
  -24.2000  -13.1550   20.8390 C   0  0  0  0  0  0  0  0  0  0  0  0
  -24.6550  -11.8020   20.8200 C   0  0  0  0  0  0  0  0  0  0  0  0
  -26.3130  -13.0330   20.2420 N   0  0  0  0  0  0  0  0  0  0  0  0
  -25.9460  -11.7530   20.5120 N   0  0  0  0  0  0  0  0  0  0  0  0
  -23.9230  -10.5440   21.0190 C   0  0  0  0  0  0  0  0  0  0  0  0
  -24.3590   -9.5750   21.9500 C   0  0  0  0  0  3  0  0  0  0  0  0
  -23.6300   -8.3820   22.1360 C   0  0  0  0  0  3  0  0  0  0  0  0
  -22.4480   -8.1490   21.3920 C   0  0  0  0  0  0  0  0  0  0  0  0
  -22.0300   -9.1060   20.4500 C   0  0  0  0  0  3  0  0  0  0  0  0
  -22.7610  -10.2910   20.2620 C   0  0  0  0  0  3  0  0  0  0  0  0
  -21.6890   -7.0080   21.4880 O   0  0  0  0  0  0  0  0  0  0  0  0
  -21.6560   -6.2600   22.6370 C   0  0  0  0  0  0  0  0  0  0  0  0
  -21.2670   -6.8140   23.8770 C   0  0  0  0  0  3  0  0  0  0  0  0
  -21.1810   -5.9930   25.0180 C   0  0  0  0  0  3  0  0  0  0  0  0
  -21.4730   -4.6190   24.9230 C   0  0  0  0  0  0  0  0  0  0  0  0
  -21.8540   -4.0650   23.6890 C   0  0  0  0  0  3  0  0  0  0  0  0
  -21.9440   -4.8820   22.5490 C   0  0  0  0  0  0  0  0  0  0  0  0
  -22.2910   -4.3390   21.3570 F   0  0  0  0  0  0  0  0  0  0  0  0
  -21.3820   -3.8290   26.0180 F   0  0  0  0  0  0  0  0  0  0  0  0
  -22.8050  -13.6410   21.1060 C   0  0  0  0  0  0  0  0  0  0  0  0
  -22.0730  -12.9550   21.9760 N   0  0  0  0  0  0  0  0  0  0  0  0
  -22.3730  -14.6640   20.5760 O   0  0  0  0  0  0  0  0  0  0  0  0
  -22.4350  -12.1280   22.4260 H   0  0  0  0  0  0  0  0  0  0  0  0
  -21.1350  -13.2620   22.1960 H   0  0  0  0  0  0  0  0  0  0  0  0
  -25.4470  -15.2890   20.2850 N   0  0  0  0  0  0  0  0  0  0  0  0
  -24.6850  -15.9480   20.4090 H   0  0  0  0  0  0  0  0  0  0  0  0
  -26.3000  -15.7280   19.9690 H   0  0  0  0  0  0  0  0  0  0  0  0
  -31.1190  -17.2640   19.0180 C   0  0  0  0  0  0  0  0  0  0  0  0
  -31.0450  -16.9310   17.7350 N   0  0  0  0  0  0  0  0  0  0  0  0
  -32.1090  -17.8220   19.4860 O   0  0  0  0  0  0  0  0  0  0  0  0
  -30.2230  -16.4730   17.3680 H   0  0  0  0  0  0  0  0  0  0  0  0
  -31.8140  -17.1220   17.1100 H   0  0  0  0  0  0  0  0  0  0  0  0
  -29.0440  -21.8070   21.0410 C   0  0  0  0  0  2  0  0  0  0  0  0
  -28.5090  -24.2530   20.6290 C   0  0  0  0  0  0  0  0  0  0  0  0
  -28.8170  -23.0060   20.2010 N   0  0  0  0  0  0  0  0  0  0  0  0
  -28.2320  -24.4880   21.8080 O   0  0  0  0  0  0  0  0  0  0  0  0
  -29.0210  -22.9110   19.2140 H   0  0  0  0  0  0  0  0  0  0  0  0
  -28.5630  -25.4090   19.5960 C   0  0  0  0  0  2  0  0  0  0  0  0
  -28.4310  -26.7200   20.2040 O   0  0  0  0  0  0  0  0  0  0  0  0
  -24.5950  -31.9010   23.2630 C   0  0  0  0  0  0  0  0  0  0  0  0
  -27.2340  -27.4220   20.1880 C   0  0  0  0  0  0  0  0  0  0  0  0
  -23.3880  -30.4960   21.6250 C   0  0  0  0  0  3  0  0  0  0  0  0
  -24.8380  -28.9520   20.2040 C   0  0  0  0  0  0  0  0  0  0  0  0
  -25.9160  -30.8460   21.4280 C   0  0  0  0  0  2  0  0  0  0  0  0
  -25.9990  -29.4710   20.7890 C   0  0  0  0  0  0  0  0  0  0  0  0
  -27.1950  -28.7130   20.7750 C   0  0  0  0  0  3  0  0  0  0  0  0
  -26.0420  -26.9190   19.6140 C   0  0  0  0  0  3  0  0  0  0  0  0
  -24.8550  -27.6760   19.6170 C   0  0  0  0  0  3  0  0  0  0  0  0
  -23.5960  -29.8140   20.2470 C   0  0  0  0  0  2  0  0  0  0  0  0
  -24.6510  -31.0970   22.1620 N   0  0  0  0  0  0  0  0  0  0  0  0
  -23.5130  -32.1740   23.8010 O   0  0  0  0  0  0  0  0  0  0  0  0
  -22.7370  -29.4780   22.5870 C   0  0  0  0  0  0  0  0  0  0  0  0
  -21.4130  -29.2940   22.4600 N   0  0  0  0  0  0  0  0  0  0  0  0
  -23.4190  -28.8540   23.4050 O   0  0  0  0  0  0  0  0  0  0  0  0
  -20.9230  -29.8480   21.7710 H   0  0  0  0  0  0  0  0  0  0  0  0
  -18.0390  -28.0930   22.9520 C   0  0  0  0  0  0  0  0  0  0  0  0
  -20.5960  -28.3580   23.2320 C   0  0  0  0  0  3  0  0  0  0  0  0
  -20.7020  -26.9240   22.6620 C   0  0  0  0  0  2  0  0  0  0  0  0
  -19.6040  -26.5950   21.6450 C   0  0  0  0  0  2  0  0  0  0  0  0
  -18.2200  -26.7410   22.2840 C   0  0  0  0  0  2  0  0  0  0  0  0
  -19.1550  -28.8580   23.3830 C   0  0  0  0  0  0  0  0  0  0  0  0
  -18.9320  -30.1250   23.9670 C   0  0  0  0  0  3  0  0  0  0  0  0
  -17.6260  -30.6250   24.1250 C   0  0  0  0  0  3  0  0  0  0  0  0
  -16.5250  -29.8570   23.7110 C   0  0  0  0  0  3  0  0  0  0  0  0
  -16.7320  -28.5930   23.1310 C   0  0  0  0  0  3  0  0  0  0  0  0
  -25.8810  -32.5340   23.8800 C   0  0  0  0  0  3  0  0  0  0  0  0
  -25.5740  -33.9340   24.2030 N   0  0  0  0  0  0  0  0  0  0  0  0
  -25.9090  -34.9810   23.4380 C   0  0  0  0  0  0  0  0  0  0  0  0
  -26.5820  -34.8710   22.4080 O   0  0  0  0  0  0  0  0  0  0  0  0
  -24.9770  -34.0940   25.0010 H   0  0  0  0  0  0  0  0  0  0  0  0
  -24.1840  -36.7730   23.0670 C   0  0  0  0  0  1  0  0  0  0  0  0
  -25.4220  -36.3730   23.8850 C   0  0  0  0  0  3  0  0  0  0  0  0
  -27.5570  -37.2580   24.7150 C   0  0  0  0  0  1  0  0  0  0  0  0
  -26.4570  -37.4240   23.7690 N   0  0  0  0  0  0  0  0  0  0  0  0
  -26.0530  -38.3450   23.9110 H   0  0  0  0  0  0  0  0  0  0  0  0
  -26.3980  -31.7670   25.1600 C   0  0  1  0  0  0  0  0  0  0  0  0
  -25.3050  -31.5370   26.2290 C   0  0  0  0  0  1  0  0  0  0  0  0
  -26.9780  -30.3880   24.7720 C   0  0  0  0  0  1  0  0  0  0  0  0
  -27.5500  -32.5640   25.8180 C   0  0  0  0  0  1  0  0  0  0  0  0
  1 48  1  0
  2  1  1  0
  2  3  1  0
  4 13  2  0
  4  3  1  0
  5 13  1  0
  6 11  1  0
  7  8  1  0
  7  6  1  0
  9  8  1  0
  9 18  1  0
  9 10  1  0
 11  5  1  0
 11 10  1  0
 12  5  2  0
 13 14  1  0
 15 16  2  0
 16 35  1  0
 17 16  1  0
 17 20  1  0
 18 15  1  0
 18 19  1  0
 19 17  2  0
 20 21  1  0
 21 22  2  0
 23 26  1  0
 23 22  1  0
 24 23  2  0
 25 24  1  0
 25 20  2  0
 26 27  1  0
 27 28  1  0
 28 29  2  0
 30 29  1  0
 30 34  1  0
 31 30  2  0
 32 27  2  0
 32 31  1  0
 33 32  1  0
 35 36  1  0
 36 39  1  0
 36 38  1  0
 37 35  2  0
 40 41  1  0
 40 15  1  0
 42 40  1  0
 43 45  2  0
 43  4  1  0
 44 43  1  0
 46 44  1  0
 47 44  1  0
 49 51  2  0
 50 49  1  0
 50 48  1  0
 52 50  1  0
 53 54  1  0
 53 49  1  0
 55 66  2  0
 56 54  1  0
 56 61  1  0
 57 65  1  0
 57 67  1  0
 58 64  1  0
 58 60  1  0
 59 65  1  0
 60 59  1  0
 61 60  2  0
 62 63  1  0
 62 56  2  0
 63 58  2  0
 64 57  1  0
 65 55  1  0
 67 69  2  0
 68 67  1  0
 70 68  1  0
 71 80  2  0
 71 76  1  0
 72 68  1  0
 72 76  1  0
 73 72  1  0
 74 75  1  0
 74 73  1  0
 75 71  1  0
 76 77  2  0
 77 78  1  0
 79 78  2  0
 80 79  1  0
 81 55  1  0
 81 82  1  0
 81 91  1  0
 82 85  1  0
 83 87  1  0
 83 82  1  0
 84 83  2  0
 87 86  1  0
 89 87  1  0
 89 90  1  0
 89 88  1  0
 91 94  1  1
 91 92  1  0
 93 91  1  0
M  ISO  4   5 100  13 100  53 101  54 101
M  END
>  <TORSDO>  (52) 
F 23

>  <SCORE>  (52) 
-12.993

>  <name>  (52) 
53

>  <ligand_id>  (52) 
53

>  <original_smiles>  (52) 
[H]c1c([H])c([H])c2c(c1[H])C([H])([H])C([H])([H])C([H])([H])C2([H])N([H])C(=O)C1([H])N(C(=O)C([H])(N([H])C(=O)C([H])(N([H])C([H])([H])[H])C([H])([H])[H])C(C([H])([H])[H])(C([H])([H])[H])C([H])([H])[H])C([H])([H])c2c([H])c(OC([H])([H])C(=O)N([H])C([H])([H])C([H])([H])C([H])([H])C([H])([H])C([H])(C(=O)N([H])[H])N([H])C(=O)N3C([H])([H])C([H])([H])C([H])([H])C([H])(n4nc(-c5c([H])c([H])c(Oc6c([H])c([H])c(F)c([H])c6F)c([H])c5[H])c(C(=O)N([H])[H])c4N([H])[H])C3([H])[H])c([H])c([H])c2C1([H])[H]

>  <smiles>  (52) 
[H]c1c([H])c([H])c2c(c1[H])C([H])([H])C([H])([H])C([H])([H])C2([H])N([H])C(=O)C1([H])N(C(=O)C([H])(N([H])C(=O)C([H])(N([H])C([H])([H])[H])C([H])([H])[H])C(C([H])([H])[H])(C([H])([H])[H])C([H])([H])[H])C([H])([H])c2c([H])c(OC([H])([H])C(=O)N([H])C([H])([H])C([H])([H])C([H])([H])C([H])([H])C([H])(C(=O)N([H])[H])N([H])C(=O)N3C([H])([H])C([H])([H])C([H])([H])C([H])(n4nc(-c5c([H])c([H])c(Oc6c([H])c([H])c(F)c([H])c6F)c([H])c5[H])c(C(=O)N([H])[H])c4N([H])[H])C3([H])[H])c([H])c([H])c2C1([H])[H]

$$$$
54:0:0
     RDKit          3D

112120  0  0  1  0  0  0  0  0999 V2000
  -21.0240  -20.2010   24.1280 C   0  0  0  0  0  3  0  0  0  0  0  0
  -21.6850  -19.3820   25.0060 C   0  0  0  0  0  3  0  0  0  0  0  0
  -23.1560  -20.4590   23.7790 C   0  0  0  0  0  0  0  0  0  0  0  0
  -21.9600  -20.8770   23.3530 N   0  0  0  0  0  0  0  0  0  0  0  0
  -23.0520  -19.5350   24.7700 N   0  0  0  0  0  0  0  0  0  0  0  0
  -24.4630  -20.9670   23.2280 C   0  0  0  0  0  0  0  0  0  0  0  0
  -24.3810  -21.3820   21.9620 N   0  0  0  0  0  0  0  0  0  0  0  0
  -25.5230  -20.9290   23.8590 O   0  0  0  0  0  0  0  0  0  0  0  0
  -23.4530  -21.3800   21.5590 H   0  0  0  0  0  0  0  0  0  0  0  0
  -25.5060  -21.8240   21.1430 C   0  0  0  0  0  2  0  0  0  0  0  0
  -25.9340  -23.2610   21.4620 C   0  0  0  0  0  0  0  0  0  0  0  0
  -27.2390  -23.5380   21.3690 N   0  0  0  0  0  0  0  0  0  0  0  0
  -25.0870  -24.1050   21.7610 O   0  0  0  0  0  0  0  0  0  0  0  0
  -27.8640  -22.7800   21.1290 H   0  0  0  0  0  0  0  0  0  0  0  0
  -27.8370  -24.8630   21.5150 C   0  0  0  0  0  2  0  0  0  0  0  0
  -28.4010  -25.3570   20.1630 C   0  0  0  0  0  2  0  0  0  0  0  0
  -28.4390  -26.7800   20.1020 O   0  0  0  0  0  0  0  0  0  0  0  0
  -24.6090  -31.8670   23.2080 C   0  0  0  0  0  0  0  0  0  0  0  0
  -27.2420  -27.4620   20.0820 C   0  0  0  0  0  0  0  0  0  0  0  0
  -23.3980  -30.4840   21.5540 C   0  0  0  0  0  3  0  0  0  0  0  0
  -24.8410  -28.9520   20.1200 C   0  0  0  0  0  0  0  0  0  0  0  0
  -25.9210  -30.8450   21.3500 C   0  0  0  0  0  2  0  0  0  0  0  0
  -26.0020  -29.4800   20.7010 C   0  0  0  0  0  0  0  0  0  0  0  0
  -27.2040  -28.7430   20.6700 C   0  0  0  0  0  3  0  0  0  0  0  0
  -26.0620  -26.9420   19.5000 C   0  0  0  0  0  3  0  0  0  0  0  0
  -24.8660  -27.6840   19.5150 C   0  0  0  0  0  3  0  0  0  0  0  0
  -23.5960  -29.8020   20.1740 C   0  0  0  0  0  2  0  0  0  0  0  0
  -24.6610  -31.0790   22.0960 N   0  0  0  0  0  0  0  0  0  0  0  0
  -23.5290  -32.1420   23.7470 O   0  0  0  0  0  0  0  0  0  0  0  0
  -22.7390  -29.4630   22.5070 C   0  0  0  0  0  0  0  0  0  0  0  0
  -21.4120  -29.2990   22.3800 N   0  0  0  0  0  0  0  0  0  0  0  0
  -23.4180  -28.8140   23.3080 O   0  0  0  0  0  0  0  0  0  0  0  0
  -20.9300  -29.8700   21.7000 H   0  0  0  0  0  0  0  0  0  0  0  0
  -18.0250  -28.1390   22.8470 C   0  0  0  0  0  0  0  0  0  0  0  0
  -20.5840  -28.3630   23.1360 C   0  0  0  0  0  3  0  0  0  0  0  0
  -20.6750  -26.9380   22.5450 C   0  0  0  0  0  2  0  0  0  0  0  0
  -19.5750  -26.6370   21.5220 C   0  0  0  0  0  2  0  0  0  0  0  0
  -18.1910  -26.7930   22.1620 C   0  0  0  0  0  2  0  0  0  0  0  0
  -19.1500  -28.8840   23.2900 C   0  0  0  0  0  0  0  0  0  0  0  0
  -18.9450  -30.1450   23.8900 C   0  0  0  0  0  3  0  0  0  0  0  0
  -17.6460  -30.6600   24.0550 C   0  0  0  0  0  3  0  0  0  0  0  0
  -16.5350  -29.9100   23.6310 C   0  0  0  0  0  3  0  0  0  0  0  0
  -16.7240  -28.6530   23.0330 C   0  0  0  0  0  3  0  0  0  0  0  0
  -25.8980  -32.4840   23.8370 C   0  0  0  0  0  3  0  0  0  0  0  0
  -25.5840  -33.8640   24.2310 N   0  0  0  0  0  0  0  0  0  0  0  0
  -25.9040  -34.9490   23.5120 C   0  0  0  0  0  0  0  0  0  0  0  0
  -26.5640  -34.8930   22.4710 O   0  0  0  0  0  0  0  0  0  0  0  0
  -24.9870  -33.9800   25.0360 H   0  0  0  0  0  0  0  0  0  0  0  0
  -24.1500  -36.7350   23.2630 C   0  0  0  0  0  1  0  0  0  0  0  0
  -25.4130  -36.3120   24.0310 C   0  0  0  0  0  3  0  0  0  0  0  0
  -27.5600  -37.1820   24.8440 C   0  0  0  0  0  1  0  0  0  0  0  0
  -26.4330  -37.3800   23.9360 N   0  0  0  0  0  0  0  0  0  0  0  0
  -26.0230  -38.2880   24.1390 H   0  0  0  0  0  0  0  0  0  0  0  0
  -26.4420  -31.6600   25.0690 C   0  0  1  0  0  0  0  0  0  0  0  0
  -25.3670  -31.3650   26.1420 C   0  0  0  0  0  1  0  0  0  0  0  0
  -27.0210  -30.3040   24.6010 C   0  0  0  0  0  1  0  0  0  0  0  0
  -27.6030  -32.4270   25.7440 C   0  0  0  0  0  1  0  0  0  0  0  0
  -24.0980  -18.7900   25.4770 C   0  0  0  0  0  2  0  0  0  0  0  0
  -24.7100  -17.7010   24.5890 C   0  0  0  0  0  0  0  0  0  0  0  0
  -25.8030  -18.0340   23.8940 N   0  0  0  0  0  0  0  0  0  0  0  0
  -24.1760  -16.5930   24.5070 O   0  0  0  0  0  0  0  0  0  0  0  0
  -26.1780  -18.9650   24.0330 H   0  0  0  0  0  0  0  0  0  0  0  0
  -26.4740  -17.2010   22.9070 C   0  0  0  0  0  2  0  0  0  0  0  0
  -27.7620  -16.6070   23.4720 C   0  0  0  0  0  0  0  0  0  0  0  0
  -28.9010  -17.2130   23.1260 N   0  0  0  0  0  0  0  0  0  0  0  0
  -27.7270  -15.6090   24.1930 O   0  0  0  0  0  0  0  0  0  0  0  0
  -28.8310  -18.0270   22.5290 H   0  0  0  0  0  0  0  0  0  0  0  0
  -30.2530  -16.8020   23.5100 C   0  0  0  0  0  2  0  0  0  0  0  0
  -31.0750  -16.2630   22.3150 C   0  0  0  0  0  3  0  0  0  0  0  0
  -30.7910  -14.3540   20.7040 C   0  0  0  0  0  0  0  0  0  0  0  0
  -30.4140  -12.2950   19.3990 C   0  0  0  0  0  2  0  0  0  0  0  0
  -29.4840  -12.5290   18.1960 C   0  0  0  0  0  2  0  0  0  0  0  0
  -28.0080  -12.3830   18.6110 C   0  0  0  0  0  2  0  0  0  0  0  0
  -27.6650  -13.2070   19.8780 C   0  0  0  0  0  3  0  0  0  0  0  0
  -28.7010  -12.9650   20.9970 C   0  0  0  0  0  2  0  0  0  0  0  0
  -30.0470  -13.2440   20.4620 N   0  0  0  0  0  0  0  0  0  0  0  0
  -31.8090  -14.6320   20.0630 O   0  0  0  0  0  0  0  0  0  0  0  0
  -30.3970  -15.0880   21.7540 N   0  0  0  0  0  0  0  0  0  0  0  0
  -29.5570  -14.7940   22.2270 H   0  0  0  0  0  0  0  0  0  0  0  0
  -25.2550  -13.8140   20.5520 C   0  0  0  0  0  0  0  0  0  0  0  0
  -24.1850  -13.0450   20.9160 C   0  0  0  0  0  0  0  0  0  0  0  0
  -24.6410  -11.6910   20.8770 C   0  0  0  0  0  0  0  0  0  0  0  0
  -26.3040  -12.9340   20.3370 N   0  0  0  0  0  0  0  0  0  0  0  0
  -25.9340  -11.6500   20.5820 N   0  0  0  0  0  0  0  0  0  0  0  0
  -23.9070  -10.4300   21.0430 C   0  0  0  0  0  0  0  0  0  0  0  0
  -24.3620   -9.4200   21.9200 C   0  0  0  0  0  3  0  0  0  0  0  0
  -23.6300   -8.2240   22.0760 C   0  0  0  0  0  3  0  0  0  0  0  0
  -22.4280   -8.0280   21.3550 C   0  0  0  0  0  0  0  0  0  0  0  0
  -21.9920   -9.0260   20.4660 C   0  0  0  0  0  3  0  0  0  0  0  0
  -22.7250  -10.2140   20.3070 C   0  0  0  0  0  3  0  0  0  0  0  0
  -21.6640   -6.8880   21.4240 O   0  0  0  0  0  0  0  0  0  0  0  0
  -21.6850   -6.0740   22.5280 C   0  0  0  0  0  0  0  0  0  0  0  0
  -21.4010   -6.5640   23.8210 C   0  0  0  0  0  3  0  0  0  0  0  0
  -21.3660   -5.6790   24.9170 C   0  0  0  0  0  3  0  0  0  0  0  0
  -21.6040   -4.3060   24.7220 C   0  0  0  0  0  0  0  0  0  0  0  0
  -21.8810   -3.8150   23.4350 C   0  0  0  0  0  3  0  0  0  0  0  0
  -21.9190   -4.6970   22.3400 C   0  0  0  0  0  0  0  0  0  0  0  0
  -22.1660   -4.2160   21.0980 F   0  0  0  0  0  0  0  0  0  0  0  0
  -21.5630   -3.4540   25.7740 F   0  0  0  0  0  0  0  0  0  0  0  0
  -22.7860  -13.5230   21.1830 C   0  0  0  0  0  0  0  0  0  0  0  0
  -22.0490  -12.8200   22.0360 N   0  0  0  0  0  0  0  0  0  0  0  0
  -22.3550  -14.5540   20.6680 O   0  0  0  0  0  0  0  0  0  0  0  0
  -22.4080  -11.9830   22.4700 H   0  0  0  0  0  0  0  0  0  0  0  0
  -21.1090  -13.1210   22.2540 H   0  0  0  0  0  0  0  0  0  0  0  0
  -25.4190  -15.1800   20.3510 N   0  0  0  0  0  0  0  0  0  0  0  0
  -24.6160  -15.7990   20.3430 H   0  0  0  0  0  0  0  0  0  0  0  0
  -26.2270  -15.5720   19.8850 H   0  0  0  0  0  0  0  0  0  0  0  0
  -31.3730  -17.3570   21.2660 C   0  0  0  0  0  0  0  0  0  0  0  0
  -32.5530  -17.9640   21.3220 N   0  0  0  0  0  0  0  0  0  0  0  0
  -30.5370  -17.6660   20.4180 O   0  0  0  0  0  0  0  0  0  0  0  0
  -33.2360  -17.7020   22.0190 H   0  0  0  0  0  0  0  0  0  0  0  0
  -32.7880  -18.6810   20.6500 H   0  0  0  0  0  0  0  0  0  0  0  0
  1  2  2  0
  3  5  1  0
  4  3  2  0
  4  1  1  0
  5  2  1  0
  5 58  1  0
  6  3  1  0
  6  8  2  0
  7  6  1  0
  9  7  1  0
 10 11  1  0
 10  7  1  0
 11 13  2  0
 12 11  1  0
 12 15  1  0
 14 12  1  0
 16 15  1  0
 17 16  1  0
 18 29  2  0
 19 17  1  0
 19 24  1  0
 20 28  1  0
 20 30  1  0
 21 27  1  0
 21 23  1  0
 22 28  1  0
 23 22  1  0
 24 23  2  0
 25 26  1  0
 25 19  2  0
 26 21  2  0
 27 20  1  0
 28 18  1  0
 30 32  2  0
 31 30  1  0
 33 31  1  0
 34 43  2  0
 34 39  1  0
 35 31  1  0
 35 39  1  0
 36 35  1  0
 37 38  1  0
 37 36  1  0
 38 34  1  0
 39 40  2  0
 40 41  1  0
 42 41  2  0
 43 42  1  0
 44 18  1  0
 44 45  1  0
 44 54  1  0
 45 48  1  0
 46 50  1  0
 46 45  1  0
 47 46  2  0
 50 49  1  0
 52 50  1  0
 52 53  1  0
 52 51  1  0
 54 57  1  1
 54 55  1  0
 56 54  1  0
 59 58  1  0
 60 62  1  0
 60 59  1  0
 61 59  2  0
 63 64  1  0
 63 60  1  0
 64 66  2  0
 65 64  1  0
 65 68  1  0
 67 65  1  0
 69 68  1  0
 70 78  1  0
 71 76  1  0
 72 73  1  0
 72 71  1  0
 74 73  1  0
 74 83  1  0
 74 75  1  0
 76 70  1  0
 76 75  1  0
 77 70  2  0
 78 79  1  0
 78 69  1  0
 80 81  2  0
 81100  1  0
 82 81  1  0
 82 85  1  0
 83 80  1  0
 83 84  1  0
 84 82  2  0
 85 86  1  0
 86 87  2  0
 88 91  1  0
 88 87  1  0
 89 88  2  0
 90 89  1  0
 90 85  2  0
 91 92  1  0
 92 93  1  0
 93 94  2  0
 95 94  1  0
 95 99  1  0
 96 95  2  0
 97 92  2  0
 97 96  1  0
 98 97  1  0
100101  1  0
101104  1  0
101103  1  0
102100  2  0
105 80  1  0
106105  1  0
107105  1  0
108109  1  0
108 69  1  0
109111  1  0
110108  2  0
112109  1  0
M  ISO  4  16 101  17 101  70 100  78 100
M  END
>  <TORSDO>  (53) 
F 28

>  <SCORE>  (53) 
79.604

>  <name>  (53) 
54

>  <ligand_id>  (53) 
54

>  <original_smiles>  (53) 
[H]c1nc(C(=O)N([H])C([H])([H])C(=O)N([H])C([H])([H])C([H])([H])Oc2c([H])c([H])c3c(c2[H])C([H])([H])N(C(=O)C([H])(N([H])C(=O)C([H])(N([H])C([H])([H])[H])C([H])([H])[H])C(C([H])([H])[H])(C([H])([H])[H])C([H])([H])[H])C([H])(C(=O)N([H])C2([H])c4c([H])c([H])c([H])c([H])c4C([H])([H])C([H])([H])C2([H])[H])C3([H])[H])n(C([H])([H])C(=O)N([H])C([H])([H])C(=O)N([H])C([H])([H])C([H])(C(=O)N([H])[H])N([H])C(=O)N2C([H])([H])C([H])([H])C([H])([H])C([H])(n3nc(-c4c([H])c([H])c(Oc5c([H])c([H])c(F)c([H])c5F)c([H])c4[H])c(C(=O)N([H])[H])c3N([H])[H])C2([H])[H])c1[H]

>  <smiles>  (53) 
[H]c1nc(C(=O)N([H])C([H])([H])C(=O)N([H])C([H])([H])C([H])([H])Oc2c([H])c([H])c3c(c2[H])C([H])([H])N(C(=O)C([H])(N([H])C(=O)C([H])(N([H])C([H])([H])[H])C([H])([H])[H])C(C([H])([H])[H])(C([H])([H])[H])C([H])([H])[H])C([H])(C(=O)N([H])C2([H])c4c([H])c([H])c([H])c([H])c4C([H])([H])C([H])([H])C2([H])[H])C3([H])[H])n(C([H])([H])C(=O)N([H])C([H])([H])C(=O)N([H])C([H])([H])C([H])(C(=O)N([H])[H])N([H])C(=O)N2C([H])([H])C([H])([H])C([H])([H])C([H])(n3nc(-c4c([H])c([H])c(Oc5c([H])c([H])c(F)c([H])c5F)c([H])c4[H])c(C(=O)N([H])[H])c3N([H])[H])C2([H])[H])c1[H]

$$$$
55:0:0
     RDKit          3D

115122  0  0  1  0  0  0  0  0999 V2000
  -28.3630  -22.5200   21.3700 C   0  0  0  0  0  0  0  0  0  0  0  0
  -27.4770  -23.0760   20.5290 N   0  0  0  0  0  0  0  0  0  0  0  0
  -28.8090  -23.1010   22.3630 O   0  0  0  0  0  0  0  0  0  0  0  0
  -27.1720  -22.5240   19.7370 H   0  0  0  0  0  0  0  0  0  0  0  0
  -28.8800  -21.1230   21.0380 C   0  0  0  0  0  2  0  0  0  0  0  0
  -30.2130  -20.9350   21.6500 N   0  0  0  0  0  4  0  0  0  0  0  0
  -30.1030  -20.3890   22.4870 H   0  0  0  0  0  0  0  0  0  0  0  0
  -30.4790  -21.8640   21.9510 H   0  0  0  0  0  0  0  0  0  0  0  0
  -31.2600  -20.3640   20.7630 C   0  0  0  0  0  3  0  0  0  0  0  0
  -31.6780  -20.0050   18.3270 C   0  0  0  0  0  0  0  0  0  0  0  0
  -30.8650  -19.9630   19.3960 N   0  0  0  0  0  0  0  0  0  0  0  0
  -32.8950  -20.1810   18.4210 O   0  0  0  0  0  0  0  0  0  0  0  0
  -29.8910  -19.7370   19.2310 H   0  0  0  0  0  0  0  0  0  0  0  0
  -31.0440  -19.8700   16.9390 C   0  0  0  0  0  2  0  0  0  0  0  0
  -28.8750  -18.9100   17.6230 C   0  0  0  0  0  0  0  0  0  0  0  0
  -27.8500  -17.8050   17.4170 C   0  0  0  0  0  1  0  0  0  0  0  0
  -30.0010  -18.8510   16.9050 N   0  0  0  0  0  0  0  0  0  0  0  0
  -28.6520  -19.8220   18.4170 O   0  0  0  0  0  0  0  0  0  0  0  0
  -30.1440  -18.0620   16.2900 H   0  0  0  0  0  0  0  0  0  0  0  0
  -32.0440  -19.2190   21.4740 C   0  0  0  0  0  0  0  0  0  0  0  0
  -33.2210  -18.9990   21.1770 O   0  0  0  0  0  0  0  0  0  0  0  0
  -31.3900  -18.2910   22.5210 C   0  0  0  0  0  2  0  0  0  0  0  0
  -31.8500  -16.2800   21.0900 C   0  0  0  0  0  0  0  0  0  0  0  0
  -31.6570  -14.6190   19.2810 C   0  0  0  0  0  2  0  0  0  0  0  0
  -30.8170  -15.2260   18.1380 C   0  0  0  0  0  2  0  0  0  0  0  0
  -29.3070  -15.0350   18.3890 C   0  0  0  0  0  2  0  0  0  0  0  0
  -28.8820  -15.4460   19.8230 C   0  0  0  0  0  3  0  0  0  0  0  0
  -29.8250  -14.8050   20.8650 C   0  0  0  0  0  2  0  0  0  0  0  0
  -31.2010  -15.2240   20.5390 N   0  0  0  0  0  0  0  0  0  0  0  0
  -32.9860  -16.6350   20.7660 O   0  0  0  0  0  0  0  0  0  0  0  0
  -31.0930  -16.9790   21.9460 N   0  0  0  0  0  0  0  0  0  0  0  0
  -30.1810  -16.5890   22.1250 H   0  0  0  0  0  0  0  0  0  0  0  0
  -26.3680  -15.9390   20.0820 C   0  0  0  0  0  0  0  0  0  0  0  0
  -25.2980  -15.1190   20.3400 C   0  0  0  0  0  0  0  0  0  0  0  0
  -25.8350  -13.8020   20.4680 C   0  0  0  0  0  0  0  0  0  0  0  0
  -27.4830  -15.1150   20.0840 N   0  0  0  0  0  0  0  0  0  0  0  0
  -27.1560  -13.8290   20.3680 N   0  0  0  0  0  0  0  0  0  0  0  0
  -25.1640  -12.5040   20.6240 C   0  0  0  0  0  0  0  0  0  0  0  0
  -25.4910  -11.6260   21.6820 C   0  0  0  0  0  3  0  0  0  0  0  0
  -24.8200  -10.3920   21.8210 C   0  0  0  0  0  3  0  0  0  0  0  0
  -23.8100  -10.0270   20.9000 C   0  0  0  0  0  0  0  0  0  0  0  0
  -23.5080  -10.8930   19.8350 C   0  0  0  0  0  3  0  0  0  0  0  0
  -24.1790  -12.1190   19.6940 C   0  0  0  0  0  3  0  0  0  0  0  0
  -23.1230   -8.8370   20.9420 O   0  0  0  0  0  0  0  0  0  0  0  0
  -22.7700   -8.2520   22.1320 C   0  0  0  0  0  0  0  0  0  0  0  0
  -22.0020   -8.9350   23.1000 C   0  0  0  0  0  3  0  0  0  0  0  0
  -21.6020   -8.2730   24.2790 C   0  0  0  0  0  3  0  0  0  0  0  0
  -21.9600   -6.9270   24.4860 C   0  0  0  0  0  0  0  0  0  0  0  0
  -22.7190   -6.2430   23.5200 C   0  0  0  0  0  3  0  0  0  0  0  0
  -23.1200   -6.9040   22.3460 C   0  0  0  0  0  0  0  0  0  0  0  0
  -23.8320   -6.2330   21.4090 F   0  0  0  0  0  0  0  0  0  0  0  0
  -21.5710   -6.2880   25.6140 F   0  0  0  0  0  0  0  0  0  0  0  0
  -23.8500  -15.5120   20.3450 C   0  0  0  0  0  0  0  0  0  0  0  0
  -23.0300  -14.8280   21.1350 N   0  0  0  0  0  0  0  0  0  0  0  0
  -23.4480  -16.4670   19.6820 O   0  0  0  0  0  0  0  0  0  0  0  0
  -23.3700  -14.0640   21.6990 H   0  0  0  0  0  0  0  0  0  0  0  0
  -22.0530  -15.0760   21.1880 H   0  0  0  0  0  0  0  0  0  0  0  0
  -26.4900  -17.2950   19.8020 N   0  0  0  0  0  0  0  0  0  0  0  0
  -25.5730  -17.7040   19.6550 H   0  0  0  0  0  0  0  0  0  0  0  0
  -27.0310  -17.3440   18.9380 H   0  0  0  0  0  0  0  0  0  0  0  0
  -27.0110  -24.4610   20.5880 C   0  0  0  0  0  2  0  0  0  0  0  0
  -27.1870  -25.2560   19.2640 C   0  0  0  0  0  2  0  0  0  0  0  0
  -27.9770  -24.6130   18.0900 C   0  0  0  0  0  2  0  0  0  0  0  0
  -29.3890  -24.1610   18.4700 C   0  0  0  0  0  0  0  0  0  0  0  0
  -30.0820  -24.9630   19.2840 N   0  0  0  0  0  0  0  0  0  0  0  0
  -29.8160  -23.0790   18.0700 O   0  0  0  0  0  0  0  0  0  0  0  0
  -29.6800  -25.8730   19.4600 H   0  0  0  0  0  0  0  0  0  0  0  0
  -31.2720  -24.6630   20.0980 C   0  0  0  0  0  3  0  0  0  0  0  0
  -32.6570  -24.6090   19.3900 C   0  0  0  0  0  0  0  0  0  0  0  0
  -32.7110  -24.5500   18.0660 N   0  0  0  0  0  0  0  0  0  0  0  0
  -33.7000  -24.6330   20.0390 O   0  0  0  0  0  0  0  0  0  0  0  0
  -31.8400  -24.4370   17.5540 H   0  0  0  0  0  0  0  0  0  0  0  0
  -33.5960  -24.5140   17.5820 H   0  0  0  0  0  0  0  0  0  0  0  0
  -31.2690  -25.6050   21.3320 C   0  0  0  0  0  2  0  0  0  0  0  0
  -31.2230  -27.0120   21.0820 O   0  0  0  0  0  0  0  0  0  0  0  0
  -26.6890  -30.9480   24.9210 C   0  0  0  0  0  0  0  0  0  0  0  0
  -30.0140  -27.6560   21.1660 C   0  0  0  0  0  0  0  0  0  0  0  0
  -25.8660  -30.1890   22.7160 C   0  0  0  0  0  3  0  0  0  0  0  0
  -27.6110  -29.1260   21.2000 C   0  0  0  0  0  0  0  0  0  0  0  0
  -28.3700  -30.5200   23.1330 C   0  0  0  0  0  2  0  0  0  0  0  0
  -28.6160  -29.4080   22.1350 C   0  0  0  0  0  0  0  0  0  0  0  0
  -29.8220  -28.6760   22.1200 C   0  0  0  0  0  3  0  0  0  0  0  0
  -29.0010  -27.4000   20.2190 C   0  0  0  0  0  3  0  0  0  0  0  0
  -27.7920  -28.1140   20.2420 C   0  0  0  0  0  3  0  0  0  0  0  0
  -26.3660  -29.9770   21.2640 C   0  0  0  0  0  2  0  0  0  0  0  0
  -26.9810  -30.5430   23.6550 N   0  0  0  0  0  0  0  0  0  0  0  0
  -25.5160  -31.0740   25.2990 O   0  0  0  0  0  0  0  0  0  0  0  0
  -25.0650  -28.9400   23.1510 C   0  0  0  0  0  0  0  0  0  0  0  0
  -23.8060  -28.8420   22.6930 N   0  0  0  0  0  0  0  0  0  0  0  0
  -25.5850  -28.0690   23.8540 O   0  0  0  0  0  0  0  0  0  0  0  0
  -23.4420  -29.6070   22.1430 H   0  0  0  0  0  0  0  0  0  0  0  0
  -20.4700  -27.6350   22.0260 C   0  0  0  0  0  0  0  0  0  0  0  0
  -22.8900  -27.7270   22.9310 C   0  0  0  0  0  3  0  0  0  0  0  0
  -23.1810  -26.5500   21.9720 C   0  0  0  0  0  2  0  0  0  0  0  0
  -22.3470  -26.6030   20.6900 C   0  0  0  0  0  2  0  0  0  0  0  0
  -20.8530  -26.5610   21.0210 C   0  0  0  0  0  2  0  0  0  0  0  0
  -21.4300  -28.1960   22.9100 C   0  0  0  0  0  0  0  0  0  0  0  0
  -21.0290  -29.2200   23.7990 C   0  0  0  0  0  3  0  0  0  0  0  0
  -19.7010  -29.6860   23.8060 C   0  0  0  0  0  3  0  0  0  0  0  0
  -18.7520  -29.1210   22.9360 C   0  0  0  0  0  3  0  0  0  0  0  0
  -19.1370  -28.0960   22.0510 C   0  0  0  0  0  3  0  0  0  0  0  0
  -27.8120  -31.2970   25.9480 C   0  0  0  0  0  3  0  0  0  0  0  0
  -27.6140  -32.6920   26.3630 N   0  0  0  0  0  0  0  0  0  0  0  0
  -28.3280  -33.7270   25.8990 C   0  0  0  0  0  0  0  0  0  0  0  0
  -29.2820  -33.5910   25.1280 O   0  0  0  0  0  0  0  0  0  0  0  0
  -26.8160  -32.8840   26.9520 H   0  0  0  0  0  0  0  0  0  0  0  0
  -27.1180  -35.8370   25.2620 C   0  0  0  0  0  1  0  0  0  0  0  0
  -27.9220  -35.1370   26.3690 C   0  0  0  0  0  3  0  0  0  0  0  0
  -29.7350  -35.5300   27.9780 C   0  0  0  0  0  1  0  0  0  0  0  0
  -29.0720  -35.9810   26.7570 N   0  0  0  0  0  0  0  0  0  0  0  0
  -28.7790  -36.9440   26.8940 H   0  0  0  0  0  0  0  0  0  0  0  0
  -27.8280  -30.3380   27.2000 C   0  0  1  0  0  0  0  0  0  0  0  0
  -26.4530  -30.1930   27.8920 C   0  0  0  0  0  1  0  0  0  0  0  0
  -28.3050  -28.9250   26.7890 C   0  0  0  0  0  1  0  0  0  0  0  0
  -28.8360  -30.8610   28.2530 C   0  0  0  0  0  1  0  0  0  0  0  0
  1  3  2  0
  2 61  1  0
  2  1  1  0
  4  2  1  0
  5  1  1  0
  5  6  1  0
  6  8  1  0
  6  7  1  0
  9 20  1  0
  9  6  1  0
 10 12  2  0
 10 11  1  0
 11  9  1  0
 13 11  1  0
 14 10  1  0
 15 18  2  0
 16 15  1  0
 17 14  1  0
 17 15  1  0
 19 17  1  0
 20 22  1  0
 21 20  2  0
 23 31  1  0
 24 29  1  0
 25 26  1  0
 25 24  1  0
 27 26  1  0
 27 36  1  0
 27 28  1  0
 29 28  1  0
 29 23  1  0
 30 23  2  0
 31 32  1  0
 31 22  1  0
 33 36  1  0
 33 34  2  0
 34 53  1  0
 34 35  1  0
 35 38  1  0
 36 37  1  0
 37 35  2  0
 38 39  1  0
 39 40  2  0
 41 44  1  0
 41 40  1  0
 42 41  2  0
 43 42  1  0
 43 38  2  0
 44 45  1  0
 45 50  2  0
 45 46  1  0
 46 47  2  0
 47 48  1  0
 48 52  1  0
 49 48  2  0
 50 49  1  0
 51 50  1  0
 53 54  1  0
 54 57  1  0
 54 56  1  0
 55 53  2  0
 58 33  1  0
 59 58  1  0
 60 58  1  0
 62 61  1  0
 63 64  1  0
 63 62  1  0
 64 65  1  0
 65 67  1  0
 65 68  1  0
 66 64  2  0
 68 74  1  0
 69 71  2  0
 69 68  1  0
 70 69  1  0
 72 70  1  0
 73 70  1  0
 75 77  1  0
 75 74  1  0
 76 87  2  0
 77 82  1  0
 78 88  1  0
 78 86  1  0
 79 85  1  0
 79 81  1  0
 80 86  1  0
 81 80  1  0
 82 81  2  0
 83 84  1  0
 83 77  2  0
 84 79  2  0
 85 78  1  0
 86 76  1  0
 88 90  2  0
 89 88  1  0
 91 89  1  0
 92101  2  0
 92 97  1  0
 93 89  1  0
 94 93  1  0
 95 96  1  0
 95 94  1  0
 96 92  1  0
 97 93  1  0
 97 98  2  0
 98 99  1  0
100 99  2  0
101100  1  0
102 76  1  0
102103  1  0
102112  1  0
103106  1  0
104103  1  0
104108  1  0
105104  2  0
108107  1  0
108110  1  0
110111  1  0
110109  1  0
112113  1  1
112115  1  0
114112  1  0
M  ISO  4  23 100  31 100  74 101  75 101
M  END
>  <TORSDO>  (54) 
F 31

>  <SCORE>  (54) 
-3.842

>  <name>  (54) 
55

>  <ligand_id>  (54) 
55

>  <original_smiles>  (54) 
[H]c1c([H])c([H])c2c(c1[H])C([H])([H])C([H])([H])C([H])([H])C2([H])N([H])C(=O)C1([H])N(C(=O)C([H])(N([H])C(=O)C([H])(N([H])C([H])([H])[H])C([H])([H])[H])C(C([H])([H])[H])(C([H])([H])[H])C([H])([H])[H])C([H])([H])c2c([H])c(OC([H])([H])C([H])(C(=O)N([H])[H])N([H])C(=O)C([H])([H])C([H])([H])C([H])([H])N([H])C(=O)C([H])([H])[N+]([H])([H])C([H])(C(=O)C([H])([H])N([H])C(=O)N3C([H])([H])C([H])([H])C([H])([H])C([H])(n4nc(-c5c([H])c([H])c(Oc6c([H])c([H])c(F)c([H])c6F)c([H])c5[H])c(C(=O)N([H])[H])c4N([H])[H])C3([H])[H])N([H])C(=O)C([H])([H])N([H])C(=O)C([H])([H])[H])c([H])c([H])c2C1([H])[H]

>  <smiles>  (54) 
[H]c1c([H])c([H])c2c(c1[H])C([H])([H])C([H])([H])C([H])([H])C2([H])N([H])C(=O)C1([H])N(C(=O)C([H])(N([H])C(=O)C([H])(N([H])C([H])([H])[H])C([H])([H])[H])C(C([H])([H])[H])(C([H])([H])[H])C([H])([H])[H])C([H])([H])c2c([H])c(OC([H])([H])C([H])(C(=O)N([H])[H])N([H])C(=O)C([H])([H])C([H])([H])C([H])([H])N([H])C(=O)C([H])([H])[N+]([H])([H])C([H])(C(=O)C([H])([H])N([H])C(=O)N3C([H])([H])C([H])([H])C([H])([H])C([H])(n4nc(-c5c([H])c([H])c(Oc6c([H])c([H])c(F)c([H])c6F)c([H])c5[H])c(C(=O)N([H])[H])c4N([H])[H])C3([H])[H])N([H])C(=O)C([H])([H])N([H])C(=O)C([H])([H])[H])c([H])c([H])c2C1([H])[H]

$$$$
56:0:0
     RDKit          3D

110118  0  0  1  0  0  0  0  0999 V2000
  -30.7280  -20.6490   22.9280 C   0  0  0  0  0  0  0  0  0  0  0  0
  -29.7520  -21.4610   23.3650 N   0  0  0  0  0  0  0  0  0  0  0  0
  -31.7220  -20.3740   23.6020 O   0  0  0  0  0  0  0  0  0  0  0  0
  -28.9870  -21.6340   22.7250 H   0  0  0  0  0  0  0  0  0  0  0  0
  -30.5460  -20.0850   21.5060 C   0  0  0  0  0  3  0  0  0  0  0  0
  -30.7440  -17.5850   21.5020 C   0  0  0  0  0  0  0  0  0  0  0  0
  -31.2530  -18.8110   21.3310 N   0  0  0  0  0  0  0  0  0  0  0  0
  -29.7680  -17.3520   22.2170 O   0  0  0  0  0  0  0  0  0  0  0  0
  -32.1160  -18.8650   20.8080 H   0  0  0  0  0  0  0  0  0  0  0  0
  -31.0920  -14.0660   20.5760 C   0  0  0  0  0  0  0  0  0  0  0  0
  -30.7000  -11.7710   19.8070 C   0  0  0  0  0  2  0  0  0  0  0  0
  -29.8670  -11.7480   18.5120 C   0  0  0  0  0  2  0  0  0  0  0  0
  -28.3620  -11.7280   18.8390 C   0  0  0  0  0  2  0  0  0  0  0  0
  -27.9490  -12.7780   19.9050 C   0  0  0  0  0  3  0  0  0  0  0  0
  -28.9280  -12.8320   21.1000 C   0  0  0  0  0  2  0  0  0  0  0  0
  -30.2920  -12.9610   20.5690 N   0  0  0  0  0  0  0  0  0  0  0  0
  -32.3120  -13.9660   20.4630 O   0  0  0  0  0  0  0  0  0  0  0  0
  -30.3630  -16.8450   18.5110 C   0  0  0  0  0  2  0  0  0  0  0  0
  -31.7010  -17.0130   19.2030 C   0  0  0  0  0  2  0  0  0  0  0  0
  -29.8480  -15.5310   19.1080 C   0  0  0  0  0  2  0  0  0  0  0  0
  -31.3900  -16.5000   20.6200 C   0  0  0  0  0  3  0  0  0  0  0  0
  -30.5380  -15.2980   20.3980 N   0  0  0  0  0  0  0  0  0  0  0  0
  -25.5740  -13.5680   20.4830 C   0  0  0  0  0  0  0  0  0  0  0  0
  -24.4330  -12.8790   20.7940 C   0  0  0  0  0  0  0  0  0  0  0  0
  -24.8030  -11.4990   20.8190 C   0  0  0  0  0  0  0  0  0  0  0  0
  -26.5620  -12.6100   20.3280 N   0  0  0  0  0  0  0  0  0  0  0  0
  -26.1020  -11.3630   20.5940 N   0  0  0  0  0  0  0  0  0  0  0  0
  -23.9840  -10.2920   20.9780 C   0  0  0  0  0  0  0  0  0  0  0  0
  -24.4090   -9.2140   21.7850 C   0  0  0  0  0  3  0  0  0  0  0  0
  -23.5950   -8.0720   21.9390 C   0  0  0  0  0  3  0  0  0  0  0  0
  -22.3420   -8.0010   21.2880 C   0  0  0  0  0  0  0  0  0  0  0  0
  -21.9330   -9.0680   20.4670 C   0  0  0  0  0  3  0  0  0  0  0  0
  -22.7470  -10.2020   20.3100 C   0  0  0  0  0  3  0  0  0  0  0  0
  -21.4950   -6.9230   21.3590 O   0  0  0  0  0  0  0  0  0  0  0  0
  -21.5740   -6.0130   22.3820 C   0  0  0  0  0  0  0  0  0  0  0  0
  -21.3550   -6.3820   23.7270 C   0  0  0  0  0  3  0  0  0  0  0  0
  -21.3770   -5.4020   24.7380 C   0  0  0  0  0  3  0  0  0  0  0  0
  -21.6080   -4.0540   24.4090 C   0  0  0  0  0  0  0  0  0  0  0  0
  -21.8230   -3.6830   23.0700 C   0  0  0  0  0  3  0  0  0  0  0  0
  -21.8030   -4.6600   22.0590 C   0  0  0  0  0  0  0  0  0  0  0  0
  -21.9870   -4.2940   20.7680 F   0  0  0  0  0  0  0  0  0  0  0  0
  -21.6240   -3.1100   25.3800 F   0  0  0  0  0  0  0  0  0  0  0  0
  -23.0570  -13.4550   20.9640 C   0  0  0  0  0  0  0  0  0  0  0  0
  -22.2420  -12.8510   21.8220 N   0  0  0  0  0  0  0  0  0  0  0  0
  -22.7100  -14.4750   20.3700 O   0  0  0  0  0  0  0  0  0  0  0  0
  -22.5330  -12.0300   22.3310 H   0  0  0  0  0  0  0  0  0  0  0  0
  -21.3130  -13.2180   21.9750 H   0  0  0  0  0  0  0  0  0  0  0  0
  -25.8430  -14.9200   20.2950 N   0  0  0  0  0  0  0  0  0  0  0  0
  -25.1250  -15.6330   20.3600 H   0  0  0  0  0  0  0  0  0  0  0  0
  -26.7550  -15.2990   20.0730 H   0  0  0  0  0  0  0  0  0  0  0  0
  -31.1730  -21.0650   20.4760 C   0  0  0  0  0  2  0  0  0  0  0  0
  -30.4390  -22.4000   20.3180 C   0  0  0  0  0  0  0  0  0  0  0  0
  -31.1690  -23.5070   20.2450 N   0  0  0  0  0  0  0  0  0  0  0  0
  -29.2100  -22.4430   20.2940 O   0  0  0  0  0  0  0  0  0  0  0  0
  -32.1800  -23.4600   20.2600 H   0  0  0  0  0  0  0  0  0  0  0  0
  -30.7200  -24.4030   20.1440 H   0  0  0  0  0  0  0  0  0  0  0  0
  -29.6730  -22.1000   24.6740 C   0  0  0  0  0  2  0  0  0  0  0  0
  -30.0430  -23.5950   24.6370 C   0  0  0  0  0  2  0  0  0  0  0  0
  -29.2320  -24.4350   23.6350 C   0  0  0  0  0  2  0  0  0  0  0  0
  -29.6560  -25.9150   23.6800 C   0  0  0  0  0  2  0  0  0  0  0  0
  -29.0620  -26.7930   22.5670 C   0  0  0  0  0  2  0  0  0  0  0  0
  -29.5530  -26.4300   21.1550 C   0  0  0  0  0  2  0  0  0  0  0  0
  -29.2400  -27.5420   20.1390 C   0  0  0  0  0  2  0  0  0  0  0  0
  -29.3110  -27.0670   18.6890 C   0  0  0  0  0  0  0  0  0  0  0  0
  -28.3780  -26.1940   18.3140 N   0  0  0  0  0  0  0  0  0  0  0  0
  -30.1410  -27.5390   17.9120 O   0  0  0  0  0  0  0  0  0  0  0  0
  -27.7330  -25.8540   19.0170 H   0  0  0  0  0  0  0  0  0  0  0  0
  -28.0090  -25.8850   16.9420 C   0  0  0  0  0  2  0  0  0  0  0  0
  -26.8300  -24.8980   16.9440 C   0  0  0  0  0  2  0  0  0  0  0  0
  -26.2170  -24.8060   18.2280 O   0  0  0  0  0  0  0  0  0  0  0  0
  -24.3700  -30.0690   22.6700 C   0  0  0  0  0  0  0  0  0  0  0  0
  -25.3370  -25.8080   18.5460 C   0  0  0  0  0  0  0  0  0  0  0  0
  -22.6520  -29.3730   21.0270 C   0  0  0  0  0  3  0  0  0  0  0  0
  -23.4580  -27.8100   19.1780 C   0  0  0  0  0  0  0  0  0  0  0  0
  -25.1420  -29.1030   20.5060 C   0  0  0  0  0  2  0  0  0  0  0  0
  -24.7710  -27.9070   19.6580 C   0  0  0  0  0  0  0  0  0  0  0  0
  -25.7150  -26.9070   19.3460 C   0  0  0  0  0  3  0  0  0  0  0  0
  -24.0100  -25.7070   18.0860 C   0  0  0  0  0  3  0  0  0  0  0  0
  -23.0680  -26.7060   18.3970 C   0  0  0  0  0  3  0  0  0  0  0  0
  -22.5170  -28.9320   19.5430 C   0  0  0  0  0  2  0  0  0  0  0  0
  -24.0830  -29.5130   21.4580 N   0  0  0  0  0  0  0  0  0  0  0  0
  -23.4730  -30.5050   23.4040 O   0  0  0  0  0  0  0  0  0  0  0  0
  -21.8430  -28.3920   21.9030 C   0  0  0  0  0  0  0  0  0  0  0  0
  -20.5120  -28.5710   21.9240 N   0  0  0  0  0  0  0  0  0  0  0  0
  -22.4050  -27.4820   22.5170 O   0  0  0  0  0  0  0  0  0  0  0  0
  -20.1320  -29.3460   21.3970 H   0  0  0  0  0  0  0  0  0  0  0  0
  -16.9910  -28.1520   22.6190 C   0  0  0  0  0  0  0  0  0  0  0  0
  -19.5440  -27.7470   22.6450 C   0  0  0  0  0  3  0  0  0  0  0  0
  -19.2390  -26.4400   21.8760 C   0  0  0  0  0  2  0  0  0  0  0  0
  -18.0200  -26.5520   20.9530 C   0  0  0  0  0  2  0  0  0  0  0  0
  -16.7710  -26.9220   21.7560 C   0  0  0  0  0  2  0  0  0  0  0  0
  -18.2930  -28.5480   23.0230 C   0  0  0  0  0  0  0  0  0  0  0  0
  -18.4440  -29.7210   23.7960 C   0  0  0  0  0  3  0  0  0  0  0  0
  -17.3220  -30.4880   24.1630 C   0  0  0  0  0  3  0  0  0  0  0  0
  -16.0350  -30.0830   23.7720 C   0  0  0  0  0  3  0  0  0  0  0  0
  -15.8710  -28.9160   23.0070 C   0  0  0  0  0  3  0  0  0  0  0  0
  -25.8380  -30.2050   23.1800 C   0  0  0  0  0  3  0  0  0  0  0  0
  -26.2760  -29.0310   24.1410 C   0  0  1  0  0  0  0  0  0  0  0  0
  -25.3210  -28.8220   25.3410 C   0  0  0  0  0  1  0  0  0  0  0  0
  -26.3690  -27.6960   23.3660 C   0  0  0  0  0  1  0  0  0  0  0  0
  -27.6910  -29.3090   24.6970 C   0  0  0  0  0  1  0  0  0  0  0  0
  -25.9520  -31.5030   23.8590 N   0  0  0  0  0  0  0  0  0  0  0  0
  -26.5300  -32.5890   23.3240 C   0  0  0  0  0  0  0  0  0  0  0  0
  -27.0950  -32.5760   22.2280 O   0  0  0  0  0  0  0  0  0  0  0  0
  -25.4580  -31.6040   24.7330 H   0  0  0  0  0  0  0  0  0  0  0  0
  -25.4180  -34.8330   23.5270 C   0  0  0  0  0  1  0  0  0  0  0  0
  -26.4750  -33.8970   24.1350 C   0  0  0  0  0  3  0  0  0  0  0  0
  -28.7640  -33.8840   25.0210 C   0  0  0  0  0  1  0  0  0  0  0  0
  -27.7760  -34.5960   24.2140 N   0  0  0  0  0  0  0  0  0  0  0  0
  -27.6630  -35.5280   24.6030 H   0  0  0  0  0  0  0  0  0  0  0  0
  1  2  1  0
  1  3  2  0
  2 57  1  0
  4  2  1  0
  5 51  1  0
  5  1  1  0
  6  8  2  0
  7  6  1  0
  7  5  1  0
  9  7  1  0
 11 16  1  0
 12 13  1  0
 12 11  1  0
 14 13  1  0
 14 26  1  0
 14 15  1  0
 16 10  1  0
 16 15  1  0
 17 10  2  0
 18 20  1  0
 18 19  1  0
 19 21  1  0
 20 22  1  0
 21  6  1  0
 22 10  1  0
 22 21  1  0
 23 24  2  0
 24 25  1  0
 24 43  1  0
 25 28  1  0
 26 23  1  0
 26 27  1  0
 27 25  2  0
 28 29  1  0
 29 30  2  0
 31 34  1  0
 31 30  1  0
 32 31  2  0
 33 32  1  0
 33 28  2  0
 34 35  1  0
 35 36  1  0
 36 37  2  0
 38 37  1  0
 38 42  1  0
 39 38  2  0
 40 35  2  0
 40 39  1  0
 41 40  1  0
 43 44  1  0
 44 47  1  0
 44 46  1  0
 45 43  2  0
 48 49  1  0
 48 23  1  0
 50 48  1  0
 52 51  1  0
 53 55  1  0
 53 52  1  0
 54 52  2  0
 56 53  1  0
 58 57  1  0
 59 60  1  0
 59 58  1  0
 61 60  1  0
 62 61  1  0
 63 62  1  0
 64 63  1  0
 65 64  1  0
 65 67  1  0
 66 64  2  0
 68 69  1  0
 68 65  1  0
 69 70  1  0
 70 72  1  0
 71 82  2  0
 72 77  1  0
 73 81  1  0
 73 83  1  0
 74 80  1  0
 74 76  1  0
 75 81  1  0
 76 75  1  0
 77 76  2  0
 78 79  1  0
 78 72  2  0
 79 74  2  0
 80 73  1  0
 81 71  1  0
 83 84  1  0
 83 85  2  0
 86 84  1  0
 87 96  2  0
 87 92  1  0
 88 84  1  0
 88 92  1  0
 89 88  1  0
 90 91  1  0
 90 89  1  0
 91 87  1  0
 92 93  2  0
 93 94  1  0
 95 94  2  0
 96 95  1  0
 97 71  1  0
 97102  1  0
 97 98  1  0
 98101  1  1
 98 99  1  0
100 98  1  0
102105  1  0
103102  1  0
103107  1  0
104103  2  0
107106  1  0
107109  1  0
109110  1  0
109108  1  0
M  ISO  4  10 100  22 100  69 101  70 101
M  END
>  <TORSDO>  (55) 
F 30

>  <SCORE>  (55) 
-7.863

>  <name>  (55) 
56

>  <ligand_id>  (55) 
56

>  <original_smiles>  (55) 
[H]c1c([H])c([H])c2c(c1[H])C([H])([H])C([H])([H])C([H])([H])C2([H])N([H])C(=O)C1([H])N(C(=O)C([H])(N([H])C(=O)C([H])(N([H])C([H])([H])[H])C([H])([H])[H])C(C([H])([H])[H])(C([H])([H])[H])C([H])([H])[H])C([H])([H])c2c([H])c(OC([H])([H])C([H])([H])N([H])C(=O)C([H])([H])C([H])([H])C([H])([H])C([H])([H])C([H])([H])C([H])([H])C([H])([H])N([H])C(=O)C([H])(N([H])C(=O)C3([H])N(C(=O)N4C([H])([H])C([H])([H])C([H])([H])C([H])(n5nc(-c6c([H])c([H])c(Oc7c([H])c([H])c(F)c([H])c7F)c([H])c6[H])c(C(=O)N([H])[H])c5N([H])[H])C4([H])[H])C([H])([H])C([H])([H])C3([H])[H])C([H])([H])C(=O)N([H])[H])c([H])c([H])c2C1([H])[H]

>  <smiles>  (55) 
[H]c1c([H])c([H])c2c(c1[H])C([H])([H])C([H])([H])C([H])([H])C2([H])N([H])C(=O)C1([H])N(C(=O)C([H])(N([H])C(=O)C([H])(N([H])C([H])([H])[H])C([H])([H])[H])C(C([H])([H])[H])(C([H])([H])[H])C([H])([H])[H])C([H])([H])c2c([H])c(OC([H])([H])C([H])([H])N([H])C(=O)C([H])([H])C([H])([H])C([H])([H])C([H])([H])C([H])([H])C([H])([H])C([H])([H])N([H])C(=O)C([H])(N([H])C(=O)C3([H])N(C(=O)N4C([H])([H])C([H])([H])C([H])([H])C([H])(n5nc(-c6c([H])c([H])c(Oc7c([H])c([H])c(F)c([H])c7F)c([H])c6[H])c(C(=O)N([H])[H])c5N([H])[H])C4([H])[H])C([H])([H])C([H])([H])C3([H])[H])C([H])([H])C(=O)N([H])[H])c([H])c([H])c2C1([H])[H]

$$$$
57:0:0
     RDKit          3D

 95102  0  0  1  0  0  0  0  0999 V2000
  -29.3600  -20.6230   21.2830 C   0  0  0  0  0  2  0  0  0  0  0  0
  -29.9860  -18.1860   21.1250 C   0  0  0  0  0  0  0  0  0  0  0  0
  -30.1330  -19.4780   20.7760 N   0  0  0  0  0  0  0  0  0  0  0  0
  -29.1980  -17.8250   22.0000 O   0  0  0  0  0  0  0  0  0  0  0  0
  -30.7810  -19.7030   20.0330 H   0  0  0  0  0  0  0  0  0  0  0  0
  -30.8270  -17.1380   20.3580 C   0  0  0  0  0  3  0  0  0  0  0  0
  -31.3210  -14.6640   20.5150 C   0  0  0  0  0  0  0  0  0  0  0  0
  -30.9560  -12.5940   19.2450 C   0  0  0  0  0  2  0  0  0  0  0  0
  -30.0540  -12.9530   18.0430 C   0  0  0  0  0  2  0  0  0  0  0  0
  -28.5650  -12.8670   18.4350 C   0  0  0  0  0  2  0  0  0  0  0  0
  -28.2440  -13.6080   19.7600 C   0  0  0  0  0  3  0  0  0  0  0  0
  -29.2670  -13.2470   20.8660 C   0  0  0  0  0  2  0  0  0  0  0  0
  -30.6150  -13.5140   20.3420 N   0  0  0  0  0  0  0  0  0  0  0  0
  -32.4990  -14.7840   20.1680 O   0  0  0  0  0  0  0  0  0  0  0  0
  -30.5710  -15.7450   20.7960 N   0  0  0  0  0  0  0  0  0  0  0  0
  -29.6430  -15.5730   21.1510 H   0  0  0  0  0  0  0  0  0  0  0  0
  -25.8400  -14.2790   20.3840 C   0  0  0  0  0  0  0  0  0  0  0  0
  -24.7380  -13.5360   20.7130 C   0  0  0  0  0  0  0  0  0  0  0  0
  -25.1650  -12.1730   20.6940 C   0  0  0  0  0  0  0  0  0  0  0  0
  -26.8690  -13.3700   20.1910 N   0  0  0  0  0  0  0  0  0  0  0  0
  -26.4640  -12.0990   20.4350 N   0  0  0  0  0  0  0  0  0  0  0  0
  -24.3980  -10.9300   20.8540 C   0  0  0  0  0  0  0  0  0  0  0  0
  -24.7740   -9.9480   21.7960 C   0  0  0  0  0  3  0  0  0  0  0  0
  -24.0120   -8.7690   21.9430 C   0  0  0  0  0  3  0  0  0  0  0  0
  -22.8600   -8.5640   21.1470 C   0  0  0  0  0  0  0  0  0  0  0  0
  -22.5030   -9.5350   20.1960 C   0  0  0  0  0  3  0  0  0  0  0  0
  -23.2650  -10.7050   20.0460 C   0  0  0  0  0  3  0  0  0  0  0  0
  -22.0740   -7.4390   21.2030 O   0  0  0  0  0  0  0  0  0  0  0  0
  -21.9400   -6.7110   22.3590 C   0  0  0  0  0  0  0  0  0  0  0  0
  -21.4980   -7.2990   23.5640 C   0  0  0  0  0  3  0  0  0  0  0  0
  -21.3090   -6.5000   24.7090 C   0  0  0  0  0  3  0  0  0  0  0  0
  -21.5510   -5.1150   24.6490 C   0  0  0  0  0  0  0  0  0  0  0  0
  -21.9870   -4.5260   23.4480 C   0  0  0  0  0  3  0  0  0  0  0  0
  -22.1780   -5.3230   22.3060 C   0  0  0  0  0  0  0  0  0  0  0  0
  -22.5770   -4.7470   21.1460 F   0  0  0  0  0  0  0  0  0  0  0  0
  -21.3630   -4.3450   25.7460 F   0  0  0  0  0  0  0  0  0  0  0  0
  -23.3450  -14.0520   20.9330 C   0  0  0  0  0  0  0  0  0  0  0  0
  -22.5770  -13.3900   21.7900 N   0  0  0  0  0  0  0  0  0  0  0  0
  -22.9470  -15.0760   20.3790 O   0  0  0  0  0  0  0  0  0  0  0  0
  -22.9100  -12.5620   22.2590 H   0  0  0  0  0  0  0  0  0  0  0  0
  -21.6410  -13.7190   21.9810 H   0  0  0  0  0  0  0  0  0  0  0  0
  -26.0440  -15.6460   20.2150 N   0  0  0  0  0  0  0  0  0  0  0  0
  -25.2800  -16.3080   20.2880 H   0  0  0  0  0  0  0  0  0  0  0  0
  -26.9060  -16.0710   19.8970 H   0  0  0  0  0  0  0  0  0  0  0  0
  -30.6310  -17.2580   18.8170 C   0  0  0  0  0  2  0  0  0  0  0  0
  -32.9020  -18.2560   18.1940 C   0  0  0  0  0  1  0  0  0  0  0  0
  -31.5410  -17.0290   16.4620 C   0  0  0  0  0  1  0  0  0  0  0  0
  -31.9030  -17.1110   17.9540 C   0  0  0  0  0  3  0  0  0  0  0  0
  -29.3710  -21.8200   20.3030 C   0  0  0  0  0  0  0  0  0  0  0  0
  -28.8280  -22.9840   20.7100 N   0  0  0  0  0  0  0  0  0  0  0  0
  -29.8720  -21.6920   19.1830 O   0  0  0  0  0  0  0  0  0  0  0  0
  -28.4390  -23.0150   21.6440 H   0  0  0  0  0  0  0  0  0  0  0  0
  -28.7540  -24.2220   19.9120 C   0  0  0  0  0  2  0  0  0  0  0  0
  -28.2850  -25.4460   20.7460 C   0  0  0  0  0  2  0  0  0  0  0  0
  -28.3240  -26.6870   20.0130 O   0  0  0  0  0  0  0  0  0  0  0  0
  -24.5980  -31.8720   23.1860 C   0  0  0  0  0  0  0  0  0  0  0  0
  -27.1650  -27.4330   20.0400 C   0  0  0  0  0  0  0  0  0  0  0  0
  -23.3540  -30.4850   21.5600 C   0  0  0  0  0  3  0  0  0  0  0  0
  -24.7760  -28.9470   20.0980 C   0  0  0  0  0  0  0  0  0  0  0  0
  -25.8760  -30.8360   21.3110 C   0  0  0  0  0  2  0  0  0  0  0  0
  -25.9470  -29.4670   20.6640 C   0  0  0  0  0  0  0  0  0  0  0  0
  -27.1470  -28.7200   20.6280 C   0  0  0  0  0  3  0  0  0  0  0  0
  -25.9800  -26.9250   19.4690 C   0  0  0  0  0  3  0  0  0  0  0  0
  -24.7870  -27.6740   19.4990 C   0  0  0  0  0  3  0  0  0  0  0  0
  -23.5340  -29.8080   20.1730 C   0  0  0  0  0  2  0  0  0  0  0  0
  -24.6290  -31.0780   22.0780 N   0  0  0  0  0  0  0  0  0  0  0  0
  -23.5280  -32.1450   23.7490 O   0  0  0  0  0  0  0  0  0  0  0  0
  -22.7160  -29.4610   22.5260 C   0  0  0  0  0  0  0  0  0  0  0  0
  -21.3890  -29.2840   22.4190 N   0  0  0  0  0  0  0  0  0  0  0  0
  -23.4110  -28.8310   23.3270 O   0  0  0  0  0  0  0  0  0  0  0  0
  -20.8890  -29.8420   21.7410 H   0  0  0  0  0  0  0  0  0  0  0  0
  -18.0230  -28.0850   22.9540 C   0  0  0  0  0  0  0  0  0  0  0  0
  -20.5830  -28.3440   23.1970 C   0  0  0  0  0  3  0  0  0  0  0  0
  -20.6810  -26.9140   22.6170 C   0  0  0  0  0  2  0  0  0  0  0  0
  -19.5670  -26.5920   21.6150 C   0  0  0  0  0  2  0  0  0  0  0  0
  -18.1930  -26.7360   22.2750 C   0  0  0  0  0  2  0  0  0  0  0  0
  -19.1470  -28.8460   23.3720 C   0  0  0  0  0  0  0  0  0  0  0  0
  -18.9360  -30.1100   23.9660 C   0  0  0  0  0  3  0  0  0  0  0  0
  -17.6340  -30.6120   24.1450 C   0  0  0  0  0  3  0  0  0  0  0  0
  -16.5240  -29.8480   23.7460 C   0  0  0  0  0  3  0  0  0  0  0  0
  -16.7190  -28.5870   23.1550 C   0  0  0  0  0  3  0  0  0  0  0  0
  -25.9000  -32.4930   23.7850 C   0  0  0  0  0  3  0  0  0  0  0  0
  -25.6010  -33.8860   24.1420 N   0  0  0  0  0  0  0  0  0  0  0  0
  -25.9290  -34.9490   23.3940 C   0  0  0  0  0  0  0  0  0  0  0  0
  -26.5870  -34.8590   22.3540 O   0  0  0  0  0  0  0  0  0  0  0  0
  -25.0160  -34.0310   24.9510 H   0  0  0  0  0  0  0  0  0  0  0  0
  -24.2080  -36.7550   23.0810 C   0  0  0  0  0  1  0  0  0  0  0  0
  -25.4510  -36.3310   23.8790 C   0  0  0  0  0  3  0  0  0  0  0  0
  -27.5960  -37.1870   24.7120 C   0  0  0  0  0  1  0  0  0  0  0  0
  -26.4890  -37.3810   23.7780 N   0  0  0  0  0  0  0  0  0  0  0  0
  -26.0900  -38.2990   23.9470 H   0  0  0  0  0  0  0  0  0  0  0  0
  -26.4480  -31.7010   25.0330 C   0  0  1  0  0  0  0  0  0  0  0  0
  -25.3830  -31.4460   26.1260 C   0  0  0  0  0  1  0  0  0  0  0  0
  -27.0190  -30.3300   24.6030 C   0  0  0  0  0  1  0  0  0  0  0  0
  -27.6150  -32.4850   25.6790 C   0  0  0  0  0  1  0  0  0  0  0  0
  2  4  2  0
  3  2  1  0
  3  1  1  0
  5  3  1  0
  6 45  1  0
  6 15  1  0
  6  2  1  0
  7 15  1  0
  8 13  1  0
  9 10  1  0
  9  8  1  0
 11 10  1  0
 11 20  1  0
 11 12  1  0
 13  7  1  0
 13 12  1  0
 14  7  2  0
 15 16  1  0
 17 18  2  0
 18 37  1  0
 19 18  1  0
 19 22  1  0
 20 17  1  0
 20 21  1  0
 21 19  2  0
 22 23  1  0
 23 24  2  0
 25 28  1  0
 25 24  1  0
 26 25  2  0
 27 26  1  0
 27 22  2  0
 28 29  1  0
 29 30  1  0
 30 31  2  0
 32 31  1  0
 32 36  1  0
 33 32  2  0
 34 29  2  0
 34 33  1  0
 35 34  1  0
 37 38  1  0
 38 41  1  0
 38 40  1  0
 39 37  2  0
 42 43  1  0
 42 17  1  0
 44 42  1  0
 47 48  1  0
 48 46  1  0
 48 45  1  0
 49 50  1  0
 49  1  1  0
 50 52  1  0
 51 49  2  0
 53 50  1  0
 53 54  1  0
 55 57  1  0
 55 54  1  0
 56 67  2  0
 57 62  1  0
 58 66  1  0
 58 68  1  0
 59 65  1  0
 59 61  1  0
 60 66  1  0
 61 60  1  0
 62 61  2  0
 63 64  1  0
 63 57  2  0
 64 59  2  0
 65 58  1  0
 66 56  1  0
 68 70  2  0
 69 68  1  0
 71 69  1  0
 72 81  2  0
 72 77  1  0
 73 69  1  0
 73 77  1  0
 74 73  1  0
 75 76  1  0
 75 74  1  0
 76 72  1  0
 77 78  2  0
 78 79  1  0
 80 79  2  0
 81 80  1  0
 82 56  1  0
 82 83  1  0
 82 92  1  0
 83 86  1  0
 84 88  1  0
 84 83  1  0
 85 84  2  0
 88 87  1  0
 90 88  1  0
 90 91  1  0
 90 89  1  0
 92 95  1  1
 92 93  1  0
 94 92  1  0
M  ISO  4   7 100  15 100  54 101  55 101
M  END
>  <TORSDO>  (56) 
F 23

>  <SCORE>  (56) 
-11.525

>  <name>  (56) 
57

>  <ligand_id>  (56) 
57

>  <original_smiles>  (56) 
[H]c1c([H])c([H])c2c(c1[H])C([H])([H])C([H])([H])C([H])([H])C2([H])N([H])C(=O)C1([H])N(C(=O)C([H])(N([H])C(=O)C([H])(N([H])C([H])([H])[H])C([H])([H])[H])C(C([H])([H])[H])(C([H])([H])[H])C([H])([H])[H])C([H])([H])c2c([H])c(OC([H])([H])C([H])([H])N([H])C(=O)C([H])([H])N([H])C(=O)C([H])(N([H])C(=O)N3C([H])([H])C([H])([H])C([H])([H])C([H])(n4nc(-c5c([H])c([H])c(Oc6c([H])c([H])c(F)c([H])c6F)c([H])c5[H])c(C(=O)N([H])[H])c4N([H])[H])C3([H])[H])C([H])([H])C([H])(C([H])([H])[H])C([H])([H])[H])c([H])c([H])c2C1([H])[H]

>  <smiles>  (56) 
[H]c1c([H])c([H])c2c(c1[H])C([H])([H])C([H])([H])C([H])([H])C2([H])N([H])C(=O)C1([H])N(C(=O)C([H])(N([H])C(=O)C([H])(N([H])C([H])([H])[H])C([H])([H])[H])C(C([H])([H])[H])(C([H])([H])[H])C([H])([H])[H])C([H])([H])c2c([H])c(OC([H])([H])C([H])([H])N([H])C(=O)C([H])([H])N([H])C(=O)C([H])(N([H])C(=O)N3C([H])([H])C([H])([H])C([H])([H])C([H])(n4nc(-c5c([H])c([H])c(Oc6c([H])c([H])c(F)c([H])c6F)c([H])c5[H])c(C(=O)N([H])[H])c4N([H])[H])C3([H])[H])C([H])([H])C([H])(C([H])([H])[H])C([H])([H])[H])c([H])c([H])c2C1([H])[H]

$$$$
58:0:0
     RDKit          3D

 92 99  0  0  1  0  0  0  0  0999 V2000
  -29.0120  -23.7560   19.7850 C   0  0  0  0  0  3  0  0  0  0  0  0
  -28.8790  -21.1120   19.9480 C   0  0  0  0  0  0  0  0  0  0  0  0
  -29.0790  -22.3800   20.4780 N   0  0  0  0  0  0  0  0  0  0  0  0
  -28.2480  -20.9900   18.8960 O   0  0  0  0  0  0  0  0  0  0  0  0
  -29.5410  -22.3930   21.3760 H   0  0  0  0  0  0  0  0  0  0  0  0
  -29.5320  -19.9340   20.6330 C   0  0  0  0  0  3  0  0  0  0  0  0
  -29.5040  -18.6140   20.1890 C   0  0  0  0  0  3  0  0  0  0  0  0
  -30.2990  -17.3570   20.7640 C   0  0  0  0  0  2  0  0  0  0  0  0
  -30.5820  -14.7680   20.3670 C   0  0  0  0  0  0  0  0  0  0  0  0
  -30.3830  -12.4950   19.3420 C   0  0  0  0  0  2  0  0  0  0  0  0
  -29.4450  -12.5650   18.1170 C   0  0  0  0  0  2  0  0  0  0  0  0
  -27.9760  -12.3850   18.5480 C   0  0  0  0  0  2  0  0  0  0  0  0
  -27.5990  -13.2720   19.7660 C   0  0  0  0  0  3  0  0  0  0  0  0
  -28.6580  -13.1880   20.8860 C   0  0  0  0  0  2  0  0  0  0  0  0
  -29.9490  -13.5480   20.2880 N   0  0  0  0  0  0  0  0  0  0  0  0
  -31.7720  -14.8590   20.0560 O   0  0  0  0  0  0  0  0  0  0  0  0
  -29.8230  -15.9090   20.6000 N   0  0  0  0  0  0  0  0  0  0  0  0
  -28.8430  -15.7440   20.7720 H   0  0  0  0  0  0  0  0  0  0  0  0
  -25.2100  -13.8550   20.4950 C   0  0  0  0  0  0  0  0  0  0  0  0
  -24.1480  -13.0770   20.8680 C   0  0  0  0  0  0  0  0  0  0  0  0
  -24.6170  -11.7260   20.8390 C   0  0  0  0  0  0  0  0  0  0  0  0
  -26.2570  -12.9780   20.2590 N   0  0  0  0  0  0  0  0  0  0  0  0
  -25.9080  -11.6940   20.5300 N   0  0  0  0  0  0  0  0  0  0  0  0
  -23.8960  -10.4620   21.0310 C   0  0  0  0  0  0  0  0  0  0  0  0
  -24.3380   -9.4920   21.9570 C   0  0  0  0  0  3  0  0  0  0  0  0
  -23.6150   -8.2920   22.1380 C   0  0  0  0  0  3  0  0  0  0  0  0
  -22.4360   -8.0550   21.3910 C   0  0  0  0  0  0  0  0  0  0  0  0
  -22.0130   -9.0130   20.4540 C   0  0  0  0  0  3  0  0  0  0  0  0
  -22.7360  -10.2040   20.2720 C   0  0  0  0  0  3  0  0  0  0  0  0
  -21.6850   -6.9080   21.4820 O   0  0  0  0  0  0  0  0  0  0  0  0
  -21.6580   -6.1540   22.6280 C   0  0  0  0  0  0  0  0  0  0  0  0
  -21.2540   -6.6970   23.8670 C   0  0  0  0  0  3  0  0  0  0  0  0
  -21.1730   -5.8690   25.0050 C   0  0  0  0  0  3  0  0  0  0  0  0
  -21.4850   -4.5000   24.9040 C   0  0  0  0  0  0  0  0  0  0  0  0
  -21.8810   -3.9580   23.6690 C   0  0  0  0  0  3  0  0  0  0  0  0
  -21.9640   -4.7810   22.5340 C   0  0  0  0  0  0  0  0  0  0  0  0
  -22.3250   -4.2490   21.3420 F   0  0  0  0  0  0  0  0  0  0  0  0
  -21.4000   -3.7040   25.9950 F   0  0  0  0  0  0  0  0  0  0  0  0
  -22.7490  -13.5490   21.1350 C   0  0  0  0  0  0  0  0  0  0  0  0
  -22.0230  -12.8520   22.0020 N   0  0  0  0  0  0  0  0  0  0  0  0
  -22.3070  -14.5700   20.6120 O   0  0  0  0  0  0  0  0  0  0  0  0
  -22.3910  -12.0260   22.4490 H   0  0  0  0  0  0  0  0  0  0  0  0
  -21.0830  -13.1510   22.2240 H   0  0  0  0  0  0  0  0  0  0  0  0
  -25.3670  -15.2250   20.3140 N   0  0  0  0  0  0  0  0  0  0  0  0
  -24.5940  -15.8740   20.4170 H   0  0  0  0  0  0  0  0  0  0  0  0
  -26.2050  -15.6660   19.9560 H   0  0  0  0  0  0  0  0  0  0  0  0
  -30.4710  -25.2850   18.2960 C   0  0  0  0  0  1  0  0  0  0  0  0
  -31.2680  -24.6650   20.6050 C   0  0  0  0  0  1  0  0  0  0  0  0
  -31.2680  -22.9980   18.7510 C   0  0  0  0  0  1  0  0  0  0  0  0
  -30.4760  -24.1750   19.3740 C   0  0  1  0  0  0  0  0  0  0  0  0
  -28.1940  -24.9570   20.5410 C   0  0  0  0  0  2  0  0  0  0  0  0
  -28.3250  -26.4180   20.1790 O   0  0  0  0  0  0  0  0  0  0  0  0
  -24.6120  -31.8780   23.2230 C   0  0  0  0  0  0  0  0  0  0  0  0
  -27.2070  -27.2790   20.1750 C   0  0  0  0  0  0  0  0  0  0  0  0
  -23.4040  -30.4770   21.5880 C   0  0  0  0  0  3  0  0  0  0  0  0
  -24.8500  -28.9190   20.1600 C   0  0  0  0  0  0  0  0  0  0  0  0
  -25.9450  -30.7890   21.3970 C   0  0  0  0  0  2  0  0  0  0  0  0
  -26.0230  -29.4050   20.7510 C   0  0  0  0  0  0  0  0  0  0  0  0
  -27.2070  -28.6000   20.7390 C   0  0  0  0  0  3  0  0  0  0  0  0
  -26.0130  -26.8550   19.5580 C   0  0  0  0  0  3  0  0  0  0  0  0
  -24.8480  -27.6520   19.5510 C   0  0  0  0  0  3  0  0  0  0  0  0
  -23.6150  -29.8000   20.2090 C   0  0  0  0  0  2  0  0  0  0  0  0
  -24.6740  -31.0670   22.1250 N   0  0  0  0  0  0  0  0  0  0  0  0
  -23.5290  -32.1560   23.7600 O   0  0  0  0  0  0  0  0  0  0  0  0
  -22.7430  -29.4640   22.5530 C   0  0  0  0  0  0  0  0  0  0  0  0
  -21.4180  -29.2820   22.4270 N   0  0  0  0  0  0  0  0  0  0  0  0
  -23.4230  -28.8450   23.3740 O   0  0  0  0  0  0  0  0  0  0  0  0
  -20.9280  -29.8340   21.7370 H   0  0  0  0  0  0  0  0  0  0  0  0
  -18.0460  -28.0620   22.9200 C   0  0  0  0  0  0  0  0  0  0  0  0
  -20.6020  -28.3440   23.2000 C   0  0  0  0  0  3  0  0  0  0  0  0
  -20.7170  -26.9090   22.6340 C   0  0  0  0  0  2  0  0  0  0  0  0
  -19.6220  -26.5710   21.6170 C   0  0  0  0  0  2  0  0  0  0  0  0
  -18.2360  -26.7090   22.2540 C   0  0  0  0  0  2  0  0  0  0  0  0
  -19.1560  -28.8350   23.3490 C   0  0  0  0  0  0  0  0  0  0  0  0
  -18.9240  -30.1000   23.9330 C   0  0  0  0  0  3  0  0  0  0  0  0
  -17.6140  -30.5910   24.0900 C   0  0  0  0  0  3  0  0  0  0  0  0
  -16.5180  -29.8140   23.6760 C   0  0  0  0  0  3  0  0  0  0  0  0
  -16.7350  -28.5510   23.0980 C   0  0  0  0  0  3  0  0  0  0  0  0
  -25.8940  -32.5130   23.8420 C   0  0  0  0  0  3  0  0  0  0  0  0
  -25.5820  -33.9110   24.1790 N   0  0  0  0  0  0  0  0  0  0  0  0
  -25.9120  -34.9680   23.4250 C   0  0  0  0  0  0  0  0  0  0  0  0
  -26.5780  -34.8710   22.3910 O   0  0  0  0  0  0  0  0  0  0  0  0
  -24.9880  -34.0600   24.9810 H   0  0  0  0  0  0  0  0  0  0  0  0
  -24.1810  -36.7630   23.0850 C   0  0  0  0  0  1  0  0  0  0  0  0
  -25.4240  -36.3540   23.8920 C   0  0  0  0  0  3  0  0  0  0  0  0
  -27.5620  -37.2350   24.7220 C   0  0  0  0  0  1  0  0  0  0  0  0
  -26.4570  -37.4080   23.7820 N   0  0  0  0  0  0  0  0  0  0  0  0
  -26.0520  -38.3280   23.9350 H   0  0  0  0  0  0  0  0  0  0  0  0
  -26.4160  -31.7420   25.1170 C   0  0  1  0  0  0  0  0  0  0  0  0
  -25.3280  -31.5040   26.1890 C   0  0  0  0  0  1  0  0  0  0  0  0
  -26.9990  -30.3640   24.7230 C   0  0  0  0  0  1  0  0  0  0  0  0
  -27.5710  -32.5350   25.7730 C   0  0  0  0  0  1  0  0  0  0  0  0
  1  3  1  0
  1 51  1  0
  2  3  1  0
  2  6  1  0
  3  5  1  0
  4  2  2  0
  7  6  2  0
  7  8  1  0
  9 17  1  0
 10 15  1  0
 11 12  1  0
 11 10  1  0
 13 12  1  0
 13 22  1  0
 13 14  1  0
 15  9  1  0
 15 14  1  0
 16  9  2  0
 17  8  1  0
 17 18  1  0
 19 20  2  0
 20 39  1  0
 21 20  1  0
 21 24  1  0
 22 19  1  0
 22 23  1  0
 23 21  2  0
 24 25  1  0
 25 26  2  0
 27 30  1  0
 27 26  1  0
 28 27  2  0
 29 28  1  0
 29 24  2  0
 30 31  1  0
 31 32  1  0
 32 33  2  0
 34 33  1  0
 34 38  1  0
 35 34  2  0
 36 31  2  0
 36 35  1  0
 37 36  1  0
 39 40  1  0
 40 43  1  0
 40 42  1  0
 41 39  2  0
 44 45  1  0
 44 19  1  0
 46 44  1  0
 50 47  1  6
 49 50  1  0
 50  1  1  0
 50 48  1  0
 52 51  1  0
 53 64  2  0
 54 52  1  0
 54 59  1  0
 55 63  1  0
 55 65  1  0
 56 62  1  0
 56 58  1  0
 57 63  1  0
 58 57  1  0
 59 58  2  0
 60 54  2  0
 61 60  1  0
 61 56  2  0
 62 55  1  0
 63 53  1  0
 65 67  2  0
 66 65  1  0
 68 66  1  0
 69 78  2  0
 69 74  1  0
 70 66  1  0
 70 74  1  0
 71 70  1  0
 72 73  1  0
 72 71  1  0
 73 69  1  0
 74 75  2  0
 75 76  1  0
 77 76  2  0
 78 77  1  0
 79 53  1  0
 79 80  1  0
 79 89  1  0
 80 83  1  0
 81 85  1  0
 81 80  1  0
 82 81  2  0
 85 84  1  0
 87 85  1  0
 87 88  1  0
 87 86  1  0
 89 92  1  1
 89 90  1  0
 91 89  1  0
M  ISO  4   9 100  17 100  51 101  52 101
M  END
>  <TORSDO>  (57) 
F 21

>  <SCORE>  (57) 
-13.467

>  <name>  (57) 
58

>  <ligand_id>  (57) 
58

>  <original_smiles>  (57) 
[H]C(C(=O)N([H])C([H])(C([H])([H])Oc1c([H])c([H])c2c(c1[H])C([H])([H])N(C(=O)C([H])(N([H])C(=O)C([H])(N([H])C([H])([H])[H])C([H])([H])[H])C(C([H])([H])[H])(C([H])([H])[H])C([H])([H])[H])C([H])(C(=O)N([H])C1([H])c3c([H])c([H])c([H])c([H])c3C([H])([H])C([H])([H])C1([H])[H])C2([H])[H])C(C([H])([H])[H])(C([H])([H])[H])C([H])([H])[H])=C([H])C([H])([H])N([H])C(=O)N1C([H])([H])C([H])([H])C([H])([H])C([H])(n2nc(-c3c([H])c([H])c(Oc4c([H])c([H])c(F)c([H])c4F)c([H])c3[H])c(C(=O)N([H])[H])c2N([H])[H])C1([H])[H]

>  <smiles>  (57) 
[H]C(C(=O)N([H])C([H])(C([H])([H])Oc1c([H])c([H])c2c(c1[H])C([H])([H])N(C(=O)C([H])(N([H])C(=O)C([H])(N([H])C([H])([H])[H])C([H])([H])[H])C(C([H])([H])[H])(C([H])([H])[H])C([H])([H])[H])C([H])(C(=O)N([H])C1([H])c3c([H])c([H])c([H])c([H])c3C([H])([H])C([H])([H])C1([H])[H])C2([H])[H])C(C([H])([H])[H])(C([H])([H])[H])C([H])([H])[H])=C([H])C([H])([H])N([H])C(=O)N1C([H])([H])C([H])([H])C([H])([H])C([H])(n2nc(-c3c([H])c([H])c(Oc4c([H])c([H])c(F)c([H])c4F)c([H])c3[H])c(C(=O)N([H])[H])c2N([H])[H])C1([H])[H]

$$$$
59:0:0
     RDKit          3D

 94101  0  0  1  0  0  0  0  0999 V2000
  -29.0010  -22.8730   20.6460 C   0  0  0  0  0  3  0  0  0  0  0  0
  -30.4400  -23.1510   20.1960 C   0  0  0  0  0  0  0  0  0  0  0  0
  -31.3400  -23.4790   21.1130 N   0  0  0  0  0  0  0  0  0  0  0  0
  -30.7560  -23.0430   19.0090 O   0  0  0  0  0  0  0  0  0  0  0  0
  -31.0860  -23.5260   22.0910 H   0  0  0  0  0  0  0  0  0  0  0  0
  -32.2990  -23.6500   20.8490 H   0  0  0  0  0  0  0  0  0  0  0  0
  -29.4750  -19.9620   20.7580 C   0  0  0  0  0  0  0  0  0  0  0  0
  -28.8470  -21.2330   20.2920 N   0  0  0  0  0  0  0  0  0  0  0  0
  -30.1890  -20.0680   21.7540 O   0  0  0  0  0  0  0  0  0  0  0  0
  -28.2680  -21.0910   19.4770 H   0  0  0  0  0  0  0  0  0  0  0  0
  -29.4240  -18.3160   20.1240 C   0  0  0  0  0  0  0  0  0  0  0  0
  -30.4410  -15.4970   20.6180 C   0  0  0  0  0  0  0  0  0  0  0  0
  -30.5270  -13.0150   19.8430 C   0  0  0  0  0  2  0  0  0  0  0  0
  -29.6870  -12.7720   18.5620 C   0  0  0  0  0  2  0  0  0  0  0  0
  -28.2240  -12.4730   18.9240 C   0  0  0  0  0  2  0  0  0  0  0  0
  -27.6900  -13.4540   19.9980 C   0  0  0  0  0  3  0  0  0  0  0  0
  -28.6640  -13.6500   21.1800 C   0  0  0  0  0  2  0  0  0  0  0  0
  -29.9250  -14.1650   20.6180 N   0  0  0  0  0  0  0  0  0  0  0  0
  -31.6580  -15.5250   20.3790 O   0  0  0  0  0  0  0  0  0  0  0  0
  -29.6050  -16.7280   20.6850 N   0  0  0  0  0  4  0  0  0  0  0  0
  -28.7160  -16.4500   21.0710 H   0  0  0  0  0  0  0  0  0  0  0  0
  -25.2810  -13.9950   20.6250 C   0  0  0  0  0  0  0  0  0  0  0  0
  -24.2090  -13.2110   20.9440 C   0  0  0  0  0  0  0  0  0  0  0  0
  -24.6870  -11.8640   20.9400 C   0  0  0  0  0  0  0  0  0  0  0  0
  -26.3420  -13.1270   20.4360 N   0  0  0  0  0  0  0  0  0  0  0  0
  -25.9930  -11.8390   20.6930 N   0  0  0  0  0  0  0  0  0  0  0  0
  -23.9600  -10.5980   21.0990 C   0  0  0  0  0  0  0  0  0  0  0  0
  -24.3500   -9.6340   22.0550 C   0  0  0  0  0  3  0  0  0  0  0  0
  -23.6200   -8.4370   22.2020 C   0  0  0  0  0  3  0  0  0  0  0  0
  -22.4850   -8.1920   21.3930 C   0  0  0  0  0  0  0  0  0  0  0  0
  -22.1150   -9.1430   20.4250 C   0  0  0  0  0  3  0  0  0  0  0  0
  -22.8460  -10.3330   20.2770 C   0  0  0  0  0  3  0  0  0  0  0  0
  -21.7330   -7.0430   21.4470 O   0  0  0  0  0  0  0  0  0  0  0  0
  -21.6370   -6.2970   22.5940 C   0  0  0  0  0  0  0  0  0  0  0  0
  -21.1300   -6.8400   23.7950 C   0  0  0  0  0  3  0  0  0  0  0  0
  -20.9860   -6.0210   24.9340 C   0  0  0  0  0  3  0  0  0  0  0  0
  -21.3370   -4.6590   24.8700 C   0  0  0  0  0  0  0  0  0  0  0  0
  -21.8330   -4.1140   23.6730 C   0  0  0  0  0  3  0  0  0  0  0  0
  -21.9820   -4.9310   22.5380 C   0  0  0  0  0  0  0  0  0  0  0  0
  -22.4430   -4.3970   21.3800 F   0  0  0  0  0  0  0  0  0  0  0  0
  -21.1890   -3.8680   25.9590 F   0  0  0  0  0  0  0  0  0  0  0  0
  -22.7970  -13.6790   21.1370 C   0  0  0  0  0  0  0  0  0  0  0  0
  -22.0310  -12.9830   21.9690 N   0  0  0  0  0  0  0  0  0  0  0  0
  -22.3790  -14.6960   20.5850 O   0  0  0  0  0  0  0  0  0  0  0  0
  -22.3810  -12.1620   22.4400 H   0  0  0  0  0  0  0  0  0  0  0  0
  -21.0770  -13.2730   22.1340 H   0  0  0  0  0  0  0  0  0  0  0  0
  -25.4400  -15.3680   20.4470 N   0  0  0  0  0  0  0  0  0  0  0  0
  -24.6630  -16.0140   20.5260 H   0  0  0  0  0  0  0  0  0  0  0  0
  -26.2750  -15.8020   20.0750 H   0  0  0  0  0  0  0  0  0  0  0  0
  -31.2320  -18.2390   18.3030 C   0  0  0  0  0  1  0  0  0  0  0  0
  -28.9070  -17.3530   17.7760 C   0  0  0  0  0  1  0  0  0  0  0  0
  -29.7310  -18.3610   18.6020 C   0  0  0  0  0  3  0  0  0  0  0  0
  -28.0450  -24.3410   20.1370 C   0  0  0  0  0  2  0  0  0  0  0  0
  -28.1960  -25.9840   20.3680 O   0  0  0  0  0  0  0  0  0  0  0  0
  -24.5900  -31.9760   23.2510 C   0  0  0  0  0  0  0  0  0  0  0  0
  -27.1730  -27.0730   20.2740 C   0  0  0  0  0  0  0  0  0  0  0  0
  -23.4020  -30.5540   21.6290 C   0  0  0  0  0  3  0  0  0  0  0  0
  -24.8590  -28.9460   20.2130 C   0  0  0  0  0  0  0  0  0  0  0  0
  -25.9660  -30.7800   21.4730 C   0  0  0  0  0  2  0  0  0  0  0  0
  -26.0450  -29.3620   20.8310 C   0  0  0  0  0  0  0  0  0  0  0  0
  -27.1920  -28.4460   20.8370 C   0  0  0  0  0  3  0  0  0  0  0  0
  -25.9560  -26.8110   19.6040 C   0  0  0  0  0  3  0  0  0  0  0  0
  -24.8400  -27.6910   19.5800 C   0  0  0  0  0  3  0  0  0  0  0  0
  -23.6330  -29.8590   20.2590 C   0  0  0  0  0  2  0  0  0  0  0  0
  -24.6750  -31.1320   22.1720 N   0  0  0  0  0  0  0  0  0  0  0  0
  -23.5000  -32.2650   23.7720 O   0  0  0  0  0  0  0  0  0  0  0  0
  -22.7170  -29.5660   22.6070 C   0  0  0  0  0  0  0  0  0  0  0  0
  -21.3920  -29.3720   22.4750 N   0  0  0  0  0  0  0  0  0  0  0  0
  -23.3860  -28.9700   23.4570 O   0  0  0  0  0  0  0  0  0  0  0  0
  -20.9060  -29.9050   21.7670 H   0  0  0  0  0  0  0  0  0  0  0  0
  -18.0300  -28.0920   22.9580 C   0  0  0  0  0  0  0  0  0  0  0  0
  -20.5790  -28.4340   23.2540 C   0  0  0  0  0  3  0  0  0  0  0  0
  -20.7270  -26.9930   22.7140 C   0  0  0  0  0  2  0  0  0  0  0  0
  -19.6490  -26.6180   21.6910 C   0  0  0  0  0  2  0  0  0  0  0  0
  -18.2540  -26.7360   22.3120 C   0  0  0  0  0  2  0  0  0  0  0  0
  -19.1210  -28.8970   23.3850 C   0  0  0  0  0  0  0  0  0  0  0  0
  -18.8570  -30.1620   23.9530 C   0  0  0  0  0  3  0  0  0  0  0  0
  -17.5360  -30.6260   24.0970 C   0  0  0  0  0  3  0  0  0  0  0  0
  -16.4600  -29.8210   23.6820 C   0  0  0  0  0  3  0  0  0  0  0  0
  -16.7080  -28.5560   23.1200 C   0  0  0  0  0  3  0  0  0  0  0  0
  -25.8580  -32.6350   23.8760 C   0  0  0  0  0  3  0  0  0  0  0  0
  -25.5380  -34.0430   24.1790 N   0  0  0  0  0  0  0  0  0  0  0  0
  -25.8880  -35.0900   23.4210 C   0  0  0  0  0  0  0  0  0  0  0  0
  -26.5760  -34.9760   22.4030 O   0  0  0  0  0  0  0  0  0  0  0  0
  -24.9290  -34.2060   24.9670 H   0  0  0  0  0  0  0  0  0  0  0  0
  -24.1840  -36.9030   23.0110 C   0  0  0  0  0  1  0  0  0  0  0  0
  -25.3980  -36.4870   23.8580 C   0  0  0  0  0  3  0  0  0  0  0  0
  -27.5100  -37.3670   24.7530 C   0  0  0  0  0  1  0  0  0  0  0  0
  -26.4420  -37.5320   23.7710 N   0  0  0  0  0  0  0  0  0  0  0  0
  -26.0380  -38.4570   23.8940 H   0  0  0  0  0  0  0  0  0  0  0  0
  -26.3580  -31.9000   25.1810 C   0  0  1  0  0  0  0  0  0  0  0  0
  -25.2510  -31.6930   26.2420 C   0  0  0  0  0  1  0  0  0  0  0  0
  -26.9470  -30.5130   24.8430 C   0  0  0  0  0  1  0  0  0  0  0  0
  -27.5010  -32.7130   25.8360 C   0  0  0  0  0  1  0  0  0  0  0  0
  1 53  1  0
  2  1  1  0
  2  3  1  0
  3  5  1  0
  4  2  2  0
  6  3  1  0
  7  9  2  0
  8  1  1  0
  8  7  1  0
 10  8  1  0
 11 20  2  0
 11  7  1  0
 12 18  1  0
 12 20  1  0
 13 18  1  0
 14 15  1  0
 14 13  1  0
 16 15  1  0
 16 25  1  0
 16 17  1  0
 18 17  1  0
 19 12  2  0
 20 21  1  0
 22 23  2  0
 23 42  1  0
 24 23  1  0
 24 27  1  0
 25 22  1  0
 25 26  1  0
 26 24  2  0
 27 28  1  0
 28 29  2  0
 30 33  1  0
 30 29  1  0
 31 30  2  0
 32 31  1  0
 32 27  2  0
 33 34  1  0
 34 35  1  0
 35 36  2  0
 37 36  1  0
 37 41  1  0
 38 37  2  0
 39 34  2  0
 39 38  1  0
 40 39  1  0
 42 43  1  0
 43 46  1  0
 43 45  1  0
 44 42  2  0
 47 48  1  0
 47 22  1  0
 49 47  1  0
 50 52  1  0
 51 52  1  0
 52 11  1  0
 53 54  1  0
 55 66  2  0
 56 54  1  0
 56 61  1  0
 57 65  1  0
 57 67  1  0
 58 64  1  0
 58 60  1  0
 59 65  1  0
 60 61  2  0
 60 59  1  0
 62 56  2  0
 63 62  1  0
 63 58  2  0
 64 57  1  0
 65 55  1  0
 67 69  2  0
 68 67  1  0
 70 68  1  0
 71 80  2  0
 71 76  1  0
 72 68  1  0
 72 76  1  0
 73 72  1  0
 74 75  1  0
 74 73  1  0
 75 71  1  0
 76 77  2  0
 77 78  1  0
 79 78  2  0
 80 79  1  0
 81 55  1  0
 81 82  1  0
 81 91  1  0
 82 85  1  0
 83 87  1  0
 83 82  1  0
 84 83  2  0
 87 86  1  0
 89 87  1  0
 89 90  1  0
 89 88  1  0
 91 94  1  1
 91 92  1  0
 93 91  1  0
M  ISO  4  12 100  20 100  53 101  54 101
M  END
>  <TORSDO>  (58) 
F 21

>  <SCORE>  (58) 
-15.798

>  <name>  (58) 
59

>  <ligand_id>  (58) 
59

>  <original_smiles>  (58) 
[H]c1c([H])c([H])c2c(c1[H])C([H])([H])C([H])([H])C([H])([H])C2([H])N([H])C(=O)C1([H])N(C(=O)C([H])(N([H])C(=O)C([H])(N([H])C([H])([H])[H])C([H])([H])[H])C(C([H])([H])[H])(C([H])([H])[H])C([H])([H])[H])C([H])([H])c2c([H])c(OC([H])([H])C([H])(C(=O)N([H])[H])N([H])C(=O)C([H])(N([H])C(=O)N3C([H])([H])C([H])([H])C([H])([H])C([H])(n4nc(-c5c([H])c([H])c(Oc6c([H])c([H])c(F)c([H])c6F)c([H])c5[H])c(C(=O)N([H])[H])c4N([H])[H])C3([H])[H])C([H])(C([H])([H])[H])C([H])([H])[H])c([H])c([H])c2C1([H])[H]

>  <smiles>  (58) 
[H]c1c([H])c([H])c2c(c1[H])C([H])([H])C([H])([H])C([H])([H])C2([H])N([H])C(=O)C1([H])N(C(=O)C([H])(N([H])C(=O)C([H])(N([H])C([H])([H])[H])C([H])([H])[H])C(C([H])([H])[H])(C([H])([H])[H])C([H])([H])[H])C([H])([H])c2c([H])c(OC([H])([H])C([H])(C(=O)N([H])[H])N([H])C(=O)C([H])(N([H])C(=O)N3C([H])([H])C([H])([H])C([H])([H])C([H])(n4nc(-c5c([H])c([H])c(Oc6c([H])c([H])c(F)c([H])c6F)c([H])c5[H])c(C(=O)N([H])[H])c4N([H])[H])C3([H])[H])C([H])(C([H])([H])[H])C([H])([H])[H])c([H])c([H])c2C1([H])[H]

$$$$
60:0:0
     RDKit          3D

 93100  0  0  1  0  0  0  0  0999 V2000
  -29.7090  -21.5450   19.9810 C   0  0  0  0  0  0  0  0  0  0  0  0
  -29.6120  -20.5110   19.1070 N   0  0  0  0  0  4  0  0  0  0  0  0
  -29.5620  -21.3980   21.1950 O   0  0  0  0  0  0  0  0  0  0  0  0
  -29.8480  -20.7460   18.1520 H   0  0  0  0  0  0  0  0  0  0  0  0
  -29.9730  -22.9640   19.3880 C   0  0  0  0  0  2  0  0  0  0  0  0
  -29.7150  -24.2310   20.2940 C   0  0  0  0  0  2  0  0  0  0  0  0
  -28.8520  -25.3450   19.6150 C   0  0  0  0  0  2  0  0  0  0  0  0
  -28.7360  -26.6210   20.3130 O   0  0  0  0  0  0  0  0  0  0  0  0
  -24.6210  -31.7110   23.2640 C   0  0  0  0  0  0  0  0  0  0  0  0
  -27.5490  -27.3560   20.2280 C   0  0  0  0  0  0  0  0  0  0  0  0
  -23.5420  -30.3070   21.5410 C   0  0  0  0  0  3  0  0  0  0  0  0
  -25.1090  -28.8370   20.1650 C   0  0  0  0  0  0  0  0  0  0  0  0
  -26.0750  -30.7120   21.5020 C   0  0  0  0  0  2  0  0  0  0  0  0
  -26.2260  -29.3600   20.8260 C   0  0  0  0  0  0  0  0  0  0  0  0
  -27.4430  -28.6280   20.8570 C   0  0  0  0  0  3  0  0  0  0  0  0
  -26.4080  -26.8770   19.5420 C   0  0  0  0  0  3  0  0  0  0  0  0
  -25.1980  -27.5930   19.5200 C   0  0  0  0  0  3  0  0  0  0  0  0
  -23.8460  -29.6690   20.1600 C   0  0  0  0  0  2  0  0  0  0  0  0
  -24.7580  -30.9280   22.1560 N   0  0  0  0  0  0  0  0  0  0  0  0
  -23.5050  -31.9450   23.7520 O   0  0  0  0  0  0  0  0  0  0  0  0
  -22.8710  -29.2480   22.4500 C   0  0  0  0  0  0  0  0  0  0  0  0
  -21.5530  -29.0430   22.2700 N   0  0  0  0  0  0  0  0  0  0  0  0
  -23.5320  -28.6150   23.2770 O   0  0  0  0  0  0  0  0  0  0  0  0
  -21.0770  -29.6070   21.5790 H   0  0  0  0  0  0  0  0  0  0  0  0
  -18.1810  -27.7990   22.6580 C   0  0  0  0  0  0  0  0  0  0  0  0
  -20.7300  -28.0710   22.9900 C   0  0  0  0  0  3  0  0  0  0  0  0
  -20.8570  -26.6610   22.3670 C   0  0  0  0  0  2  0  0  0  0  0  0
  -19.7810  -26.3670   21.3190 C   0  0  0  0  0  2  0  0  0  0  0  0
  -18.3850  -26.4760   21.9390 C   0  0  0  0  0  2  0  0  0  0  0  0
  -19.2820  -28.5550   23.1370 C   0  0  0  0  0  0  0  0  0  0  0  0
  -19.0410  -29.7950   23.7680 C   0  0  0  0  0  3  0  0  0  0  0  0
  -17.7310  -30.2800   23.9250 C   0  0  0  0  0  3  0  0  0  0  0  0
  -16.6410  -29.5190   23.4650 C   0  0  0  0  0  3  0  0  0  0  0  0
  -16.8660  -28.2830   22.8360 C   0  0  0  0  0  3  0  0  0  0  0  0
  -25.8560  -32.3690   23.9540 C   0  0  0  0  0  3  0  0  0  0  0  0
  -25.5140  -33.7720   24.2290 N   0  0  0  0  0  0  0  0  0  0  0  0
  -25.8680  -34.8080   23.4590 C   0  0  0  0  0  0  0  0  0  0  0  0
  -26.5920  -34.6880   22.4670 O   0  0  0  0  0  0  0  0  0  0  0  0
  -24.8860  -33.9380   25.0020 H   0  0  0  0  0  0  0  0  0  0  0  0
  -24.1320  -36.5600   22.9710 C   0  0  0  0  0  1  0  0  0  0  0  0
  -25.3370  -36.2000   23.8540 C   0  0  0  0  0  3  0  0  0  0  0  0
  -27.4100  -37.1480   24.7700 C   0  0  0  0  0  1  0  0  0  0  0  0
  -26.3580  -37.2670   23.7640 N   0  0  0  0  0  0  0  0  0  0  0  0
  -25.9290  -38.1840   23.8580 H   0  0  0  0  0  0  0  0  0  0  0  0
  -26.2960  -31.6350   25.2810 C   0  0  1  0  0  0  0  0  0  0  0  0
  -25.1340  -31.4070   26.2740 C   0  0  0  0  0  1  0  0  0  0  0  0
  -26.9250  -30.2560   24.9720 C   0  0  0  0  0  1  0  0  0  0  0  0
  -27.3880  -32.4610   25.9990 C   0  0  0  0  0  1  0  0  0  0  0  0
  -29.1110  -19.1120   19.2680 C   0  0  0  0  0  0  0  0  0  0  0  0
  -30.0700  -17.8740   19.3350 C   0  0  0  0  0  0  0  0  0  0  0  0
  -30.1940  -17.1860   20.4950 N   0  0  0  0  0  0  0  0  0  0  0  0
  -30.5820  -17.4530   18.2940 O   0  0  0  0  0  0  0  0  0  0  0  0
  -29.8480  -17.6130   21.3440 H   0  0  0  0  0  0  0  0  0  0  0  0
  -30.7020  -14.7560   20.1580 C   0  0  0  0  0  0  0  0  0  0  0  0
  -30.4800  -12.4950   19.1770 C   0  0  0  0  0  2  0  0  0  0  0  0
  -29.5230  -12.6290   17.9720 C   0  0  0  0  0  2  0  0  0  0  0  0
  -28.0490  -12.4960   18.4190 C   0  0  0  0  0  2  0  0  0  0  0  0
  -27.7120  -13.3700   19.6570 C   0  0  0  0  0  3  0  0  0  0  0  0
  -28.7910  -13.2190   20.7550 C   0  0  0  0  0  2  0  0  0  0  0  0
  -30.0970  -13.5330   20.1450 N   0  0  0  0  0  0  0  0  0  0  0  0
  -31.8370  -14.9500   19.7130 O   0  0  0  0  0  0  0  0  0  0  0  0
  -29.8870  -15.7700   20.5300 N   0  0  0  0  0  0  0  0  0  0  0  0
  -28.9480  -15.6030   20.8590 H   0  0  0  0  0  0  0  0  0  0  0  0
  -25.3410  -13.9840   20.4490 C   0  0  0  0  0  0  0  0  0  0  0  0
  -24.2770  -13.2180   20.8390 C   0  0  0  0  0  0  0  0  0  0  0  0
  -24.7240  -11.8610   20.7740 C   0  0  0  0  0  0  0  0  0  0  0  0
  -26.3690  -13.0980   20.1700 N   0  0  0  0  0  0  0  0  0  0  0  0
  -26.0020  -11.8140   20.4190 N   0  0  0  0  0  0  0  0  0  0  0  0
  -23.9890  -10.6040   20.9680 C   0  0  0  0  0  0  0  0  0  0  0  0
  -24.4240   -9.6300   21.8930 C   0  0  0  0  0  3  0  0  0  0  0  0
  -23.6890   -8.4390   22.0770 C   0  0  0  0  0  3  0  0  0  0  0  0
  -22.5060   -8.2120   21.3330 C   0  0  0  0  0  0  0  0  0  0  0  0
  -22.0890   -9.1770   20.3980 C   0  0  0  0  0  3  0  0  0  0  0  0
  -22.8250  -10.3600   20.2140 C   0  0  0  0  0  3  0  0  0  0  0  0
  -21.7440   -7.0730   21.4250 O   0  0  0  0  0  0  0  0  0  0  0  0
  -21.6710   -6.3480   22.5870 C   0  0  0  0  0  0  0  0  0  0  0  0
  -21.2140   -6.9200   23.7960 C   0  0  0  0  0  3  0  0  0  0  0  0
  -21.0870   -6.1230   24.9480 C   0  0  0  0  0  3  0  0  0  0  0  0
  -21.4070   -4.7520   24.8970 C   0  0  0  0  0  0  0  0  0  0  0  0
  -21.8550   -4.1780   23.6930 C   0  0  0  0  0  3  0  0  0  0  0  0
  -21.9840   -4.9750   22.5420 C   0  0  0  0  0  0  0  0  0  0  0  0
  -22.3970   -4.4130   21.3790 F   0  0  0  0  0  0  0  0  0  0  0  0
  -21.2790   -3.9820   26.0020 F   0  0  0  0  0  0  0  0  0  0  0  0
  -22.8960  -13.7060   21.1660 C   0  0  0  0  0  0  0  0  0  0  0  0
  -22.1940  -13.0150   22.0550 N   0  0  0  0  0  0  0  0  0  0  0  0
  -22.4490  -14.7380   20.6660 O   0  0  0  0  0  0  0  0  0  0  0  0
  -22.5710  -12.1840   22.4840 H   0  0  0  0  0  0  0  0  0  0  0  0
  -21.2670  -13.3240   22.3120 H   0  0  0  0  0  0  0  0  0  0  0  0
  -25.5100  -15.3580   20.2970 N   0  0  0  0  0  0  0  0  0  0  0  0
  -24.7390  -15.9990   20.4440 H   0  0  0  0  0  0  0  0  0  0  0  0
  -26.3390  -15.8100   19.9350 H   0  0  0  0  0  0  0  0  0  0  0  0
  -26.5380  -19.3240   19.0270 C   0  0  0  0  0  1  0  0  0  0  0  0
  -27.7200  -18.9590   19.9430 C   0  0  0  0  0  2  0  0  0  0  0  0
  1  3  2  0
  2 49  2  0
  2  1  1  0
  4  2  1  0
  5  1  1  0
  5  6  1  0
  7  6  1  0
  7  8  1  0
  9 20  2  0
 10  8  1  0
 10 15  1  0
 11 19  1  0
 11 21  1  0
 12 14  1  0
 13 19  1  0
 14 15  2  0
 14 13  1  0
 16 10  2  0
 17 16  1  0
 17 12  2  0
 18 12  1  0
 18 11  1  0
 19  9  1  0
 21 23  2  0
 22 21  1  0
 24 22  1  0
 25 34  2  0
 25 30  1  0
 26 22  1  0
 26 30  1  0
 27 26  1  0
 28 29  1  0
 28 27  1  0
 29 25  1  0
 30 31  2  0
 31 32  1  0
 33 32  2  0
 34 33  1  0
 35  9  1  0
 35 36  1  0
 35 45  1  0
 36 39  1  0
 37 41  1  0
 37 36  1  0
 38 37  2  0
 41 40  1  0
 43 41  1  0
 43 44  1  0
 43 42  1  0
 45 48  1  1
 45 46  1  0
 47 45  1  0
 49 50  1  0
 49 93  1  0
 50 51  1  0
 51 62  1  0
 51 53  1  0
 52 50  2  0
 54 62  1  0
 55 60  1  0
 56 57  1  0
 56 55  1  0
 58 57  1  0
 58 67  1  0
 58 59  1  0
 60 54  1  0
 60 59  1  0
 61 54  2  0
 62 63  1  0
 64 65  2  0
 65 84  1  0
 66 65  1  0
 66 69  1  0
 67 68  1  0
 67 64  1  0
 68 66  2  0
 69 70  1  0
 70 71  2  0
 72 75  1  0
 72 71  1  0
 73 72  2  0
 74 73  1  0
 74 69  2  0
 75 76  1  0
 76 77  1  0
 77 78  2  0
 79 78  1  0
 79 83  1  0
 80 79  2  0
 81 76  2  0
 81 80  1  0
 82 81  1  0
 84 85  1  0
 85 88  1  0
 85 87  1  0
 86 84  2  0
 89 90  1  0
 89 64  1  0
 91 89  1  0
 92 93  1  0
M  ISO  4   7 101   8 101  54 100  62 100
M  END
>  <TORSDO>  (59) 
F 22

>  <SCORE>  (59) 
-12.837

>  <name>  (59) 
60

>  <ligand_id>  (59) 
60

>  <original_smiles>  (59) 
[H]c1c([H])c([H])c2c(c1[H])C([H])([H])C([H])([H])C([H])([H])C2([H])N([H])C(=O)C1([H])N(C(=O)C([H])(N([H])C(=O)C([H])(N([H])C([H])([H])[H])C([H])([H])[H])C(C([H])([H])[H])(C([H])([H])[H])C([H])([H])[H])C([H])([H])c2c([H])c(OC([H])([H])C([H])([H])C([H])([H])C(=O)N([H])C([H])(C(=O)N([H])N([H])C(=O)N3C([H])([H])C([H])([H])C([H])([H])C([H])(n4nc(-c5c([H])c([H])c(Oc6c([H])c([H])c(F)c([H])c6F)c([H])c5[H])c(C(=O)N([H])[H])c4N([H])[H])C3([H])[H])C([H])([H])C([H])([H])[H])c([H])c([H])c2C1([H])[H]

>  <smiles>  (59) 
[H]c1c([H])c([H])c2c(c1[H])C([H])([H])C([H])([H])C([H])([H])C2([H])N([H])C(=O)C1([H])N(C(=O)C([H])(N([H])C(=O)C([H])(N([H])C([H])([H])[H])C([H])([H])[H])C(C([H])([H])[H])(C([H])([H])[H])C([H])([H])[H])C([H])([H])c2c([H])c(OC([H])([H])C([H])([H])C([H])([H])C(=O)N([H])C([H])(C(=O)N([H])N([H])C(=O)N3C([H])([H])C([H])([H])C([H])([H])C([H])(n4nc(-c5c([H])c([H])c(Oc6c([H])c([H])c(F)c([H])c6F)c([H])c5[H])c(C(=O)N([H])[H])c4N([H])[H])C3([H])[H])C([H])([H])C([H])([H])[H])c([H])c([H])c2C1([H])[H]

$$$$
61:0:0
     RDKit          3D

 94101  0  0  1  0  0  0  0  0999 V2000
  -28.2170  -21.7850   20.8140 C   0  0  0  0  0  3  0  0  0  0  0  0
  -29.2700  -20.6980   20.3880 C   0  0  0  0  0  0  0  0  0  0  0  0
  -29.0570  -19.4000   20.7360 N   0  0  0  0  0  0  0  0  0  0  0  0
  -30.2290  -21.0370   19.6900 O   0  0  0  0  0  0  0  0  0  0  0  0
  -28.2480  -19.2390   21.3240 H   0  0  0  0  0  0  0  0  0  0  0  0
  -29.6640  -18.1680   20.1490 C   0  0  0  0  0  2  0  0  0  0  0  0
  -30.2540  -17.1160   21.1620 C   0  0  0  0  0  2  0  0  0  0  0  0
  -30.6980  -14.6620   20.4720 C   0  0  0  0  0  0  0  0  0  0  0  0
  -30.4890  -12.4690   19.3340 C   0  0  0  0  0  2  0  0  0  0  0  0
  -29.5490  -12.6210   18.1170 C   0  0  0  0  0  2  0  0  0  0  0  0
  -28.0760  -12.4530   18.5360 C   0  0  0  0  0  2  0  0  0  0  0  0
  -27.7080  -13.3030   19.7800 C   0  0  0  0  0  3  0  0  0  0  0  0
  -28.7530  -13.1190   20.9040 C   0  0  0  0  0  2  0  0  0  0  0  0
  -30.0700  -13.4560   20.3420 N   0  0  0  0  0  0  0  0  0  0  0  0
  -31.8560  -14.8470   20.0870 O   0  0  0  0  0  0  0  0  0  0  0  0
  -29.9150  -15.6870   20.8990 N   0  0  0  0  0  0  0  0  0  0  0  0
  -28.9700  -15.4210   21.1340 H   0  0  0  0  0  0  0  0  0  0  0  0
  -25.2990  -13.9040   20.4420 C   0  0  0  0  0  0  0  0  0  0  0  0
  -24.2300  -13.1300   20.8060 C   0  0  0  0  0  0  0  0  0  0  0  0
  -24.7030  -11.7820   20.8050 C   0  0  0  0  0  0  0  0  0  0  0  0
  -26.3530  -13.0250   20.2450 N   0  0  0  0  0  0  0  0  0  0  0  0
  -25.9980  -11.7450   20.5220 N   0  0  0  0  0  0  0  0  0  0  0  0
  -23.9820  -10.5160   21.0020 C   0  0  0  0  0  0  0  0  0  0  0  0
  -24.4080   -9.5640   21.9560 C   0  0  0  0  0  3  0  0  0  0  0  0
  -23.6900   -8.3630   22.1390 C   0  0  0  0  0  3  0  0  0  0  0  0
  -22.5300   -8.1050   21.3700 C   0  0  0  0  0  0  0  0  0  0  0  0
  -22.1230   -9.0450   20.4070 C   0  0  0  0  0  3  0  0  0  0  0  0
  -22.8420  -10.2380   20.2220 C   0  0  0  0  0  3  0  0  0  0  0  0
  -21.7830   -6.9550   21.4620 O   0  0  0  0  0  0  0  0  0  0  0  0
  -21.7270   -6.2240   22.6200 C   0  0  0  0  0  0  0  0  0  0  0  0
  -21.2810   -6.7870   23.8350 C   0  0  0  0  0  3  0  0  0  0  0  0
  -21.1770   -5.9840   24.9870 C   0  0  0  0  0  3  0  0  0  0  0  0
  -21.5050   -4.6160   24.9250 C   0  0  0  0  0  0  0  0  0  0  0  0
  -21.9410   -4.0510   23.7130 C   0  0  0  0  0  3  0  0  0  0  0  0
  -22.0490   -4.8530   22.5640 C   0  0  0  0  0  0  0  0  0  0  0  0
  -22.4520   -4.2990   21.3940 F   0  0  0  0  0  0  0  0  0  0  0  0
  -21.3950   -3.8420   26.0300 F   0  0  0  0  0  0  0  0  0  0  0  0
  -22.8240  -13.5990   21.0450 C   0  0  0  0  0  0  0  0  0  0  0  0
  -22.0870  -12.9100   21.9110 N   0  0  0  0  0  0  0  0  0  0  0  0
  -22.3860  -14.6110   20.5000 O   0  0  0  0  0  0  0  0  0  0  0  0
  -22.4560  -12.0930   22.3730 H   0  0  0  0  0  0  0  0  0  0  0  0
  -21.1440  -13.2060   22.1170 H   0  0  0  0  0  0  0  0  0  0  0  0
  -25.4590  -15.2710   20.2420 N   0  0  0  0  0  0  0  0  0  0  0  0
  -24.6880  -15.9230   20.3240 H   0  0  0  0  0  0  0  0  0  0  0  0
  -26.3080  -15.7010   19.8930 H   0  0  0  0  0  0  0  0  0  0  0  0
  -28.0550  -24.3220   21.1690 C   0  0  0  0  0  0  0  0  0  0  0  0
  -28.6630  -23.2090   20.6670 N   0  0  0  0  0  0  0  0  0  0  0  0
  -26.9290  -24.2590   21.6650 O   0  0  0  0  0  0  0  0  0  0  0  0
  -29.5900  -23.3120   20.2750 H   0  0  0  0  0  0  0  0  0  0  0  0
  -28.8010  -25.7000   21.2320 C   0  0  0  0  0  2  0  0  0  0  0  0
  -28.4860  -26.6620   20.1880 O   0  0  0  0  0  0  0  0  0  0  0  0
  -24.6000  -31.9090   23.2740 C   0  0  0  0  0  0  0  0  0  0  0  0
  -27.3340  -27.4310   20.2740 C   0  0  0  0  0  0  0  0  0  0  0  0
  -23.4430  -30.5020   21.6040 C   0  0  0  0  0  3  0  0  0  0  0  0
  -24.9380  -28.9620   20.2210 C   0  0  0  0  0  0  0  0  0  0  0  0
  -25.9750  -30.8570   21.4720 C   0  0  0  0  0  2  0  0  0  0  0  0
  -26.0840  -29.4780   20.8420 C   0  0  0  0  0  0  0  0  0  0  0  0
  -27.2880  -28.7240   20.8640 C   0  0  0  0  0  3  0  0  0  0  0  0
  -26.1780  -26.9480   19.6310 C   0  0  0  0  0  3  0  0  0  0  0  0
  -24.9840  -27.6950   19.6110 C   0  0  0  0  0  3  0  0  0  0  0  0
  -23.6900  -29.8220   20.2320 C   0  0  0  0  0  2  0  0  0  0  0  0
  -24.6880  -31.1080   22.1720 N   0  0  0  0  0  0  0  0  0  0  0  0
  -23.5050  -32.1710   23.7900 O   0  0  0  0  0  0  0  0  0  0  0  0
  -22.7720  -29.4780   22.5490 C   0  0  0  0  0  0  0  0  0  0  0  0
  -21.4480  -29.2960   22.4000 N   0  0  0  0  0  0  0  0  0  0  0  0
  -23.4420  -28.8490   23.3720 O   0  0  0  0  0  0  0  0  0  0  0  0
  -20.9650  -29.8570   21.7130 H   0  0  0  0  0  0  0  0  0  0  0  0
  -18.0690  -28.0960   22.8540 C   0  0  0  0  0  0  0  0  0  0  0  0
  -20.6250  -28.3470   23.1510 C   0  0  0  0  0  3  0  0  0  0  0  0
  -20.7290  -26.9230   22.5600 C   0  0  0  0  0  2  0  0  0  0  0  0
  -19.6350  -26.6140   21.5330 C   0  0  0  0  0  2  0  0  0  0  0  0
  -18.2510  -26.7520   22.1710 C   0  0  0  0  0  2  0  0  0  0  0  0
  -19.1850  -28.8510   23.3030 C   0  0  0  0  0  0  0  0  0  0  0  0
  -18.9650  -30.1080   23.9050 C   0  0  0  0  0  3  0  0  0  0  0  0
  -17.6610  -30.6100   24.0650 C   0  0  0  0  0  3  0  0  0  0  0  0
  -16.5570  -29.8530   23.6320 C   0  0  0  0  0  3  0  0  0  0  0  0
  -16.7620  -28.5990   23.0290 C   0  0  0  0  0  3  0  0  0  0  0  0
  -25.8650  -32.5520   23.9210 C   0  0  0  0  0  3  0  0  0  0  0  0
  -25.5430  -33.9530   24.2280 N   0  0  0  0  0  0  0  0  0  0  0  0
  -25.8870  -34.9970   23.4620 C   0  0  0  0  0  0  0  0  0  0  0  0
  -26.5790  -34.8820   22.4480 O   0  0  0  0  0  0  0  0  0  0  0  0
  -24.9330  -34.1120   25.0160 H   0  0  0  0  0  0  0  0  0  0  0  0
  -24.1580  -36.7760   23.0490 C   0  0  0  0  0  1  0  0  0  0  0  0
  -25.3840  -36.3900   23.8910 C   0  0  0  0  0  3  0  0  0  0  0  0
  -27.4980  -37.2980   24.7490 C   0  0  0  0  0  1  0  0  0  0  0  0
  -26.4150  -37.4450   23.7810 N   0  0  0  0  0  0  0  0  0  0  0  0
  -26.0040  -38.3670   23.9000 H   0  0  0  0  0  0  0  0  0  0  0  0
  -26.3480  -31.7960   25.2190 C   0  0  1  0  0  0  0  0  0  0  0  0
  -25.2260  -31.5670   26.2600 C   0  0  0  0  0  1  0  0  0  0  0  0
  -26.9470  -30.4160   24.8610 C   0  0  0  0  0  1  0  0  0  0  0  0
  -27.4760  -32.6010   25.9040 C   0  0  0  0  0  1  0  0  0  0  0  0
  -26.8450  -21.5120   20.1320 C   0  0  0  0  0  2  0  0  0  0  0  0
  -26.4460  -23.0240   18.0780 C   0  0  0  0  0  1  0  0  0  0  0  0
  -26.7890  -21.6220   18.5910 C   0  0  0  0  0  2  0  0  0  0  0  0
  1 92  1  0
  2  3  1  0
  2  1  1  0
  3  5  1  0
  4  2  2  0
  6  3  1  0
  6  7  1  0
  8 16  1  0
  9 14  1  0
 10 11  1  0
 10  9  1  0
 12 11  1  0
 12 21  1  0
 12 13  1  0
 14  8  1  0
 14 13  1  0
 15  8  2  0
 16 17  1  0
 16  7  1  0
 18 19  2  0
 19 38  1  0
 20 19  1  0
 20 23  1  0
 21 18  1  0
 21 22  1  0
 22 20  2  0
 23 24  1  0
 24 25  2  0
 26 29  1  0
 26 25  1  0
 27 26  2  0
 28 27  1  0
 28 23  2  0
 29 30  1  0
 30 31  1  0
 31 32  2  0
 33 32  1  0
 33 37  1  0
 34 33  2  0
 35 30  2  0
 35 34  1  0
 36 35  1  0
 38 39  1  0
 39 42  1  0
 39 41  1  0
 40 38  2  0
 43 44  1  0
 43 18  1  0
 45 43  1  0
 46 50  1  0
 46 48  2  0
 47  1  1  0
 47 46  1  0
 49 47  1  0
 51 53  1  0
 51 50  1  0
 52 63  2  0
 53 58  1  0
 54 62  1  0
 54 64  1  0
 55 61  1  0
 55 57  1  0
 56 62  1  0
 57 58  2  0
 57 56  1  0
 59 53  2  0
 60 59  1  0
 60 55  2  0
 61 54  1  0
 62 52  1  0
 64 66  2  0
 65 64  1  0
 67 65  1  0
 68 77  2  0
 68 73  1  0
 69 65  1  0
 69 73  1  0
 70 69  1  0
 71 72  1  0
 71 70  1  0
 72 68  1  0
 73 74  2  0
 74 75  1  0
 76 75  2  0
 77 76  1  0
 78 52  1  0
 78 79  1  0
 78 88  1  0
 79 82  1  0
 80 84  1  0
 80 79  1  0
 81 80  2  0
 84 83  1  0
 86 84  1  0
 86 87  1  0
 86 85  1  0
 88 91  1  1
 88 89  1  0
 90 88  1  0
 93 94  1  0
 94 92  1  0
M  ISO  4   8 100  16 100  50 101  51 101
M  END
>  <TORSDO>  (60) 
F 23

>  <SCORE>  (60) 
-12.730

>  <name>  (60) 
61

>  <ligand_id>  (60) 
61

>  <original_smiles>  (60) 
[H]c1c([H])c([H])c2c(c1[H])C([H])([H])C([H])([H])C([H])([H])C2([H])N([H])C(=O)C1([H])N(C(=O)C([H])(N([H])C(=O)C([H])(N([H])C([H])([H])[H])C([H])([H])[H])C(C([H])([H])[H])(C([H])([H])[H])C([H])([H])[H])C([H])([H])c2c([H])c(OC([H])([H])C(=O)N([H])C([H])(C(=O)N([H])C([H])([H])C([H])([H])N([H])C(=O)N3C([H])([H])C([H])([H])C([H])([H])C([H])(n4nc(-c5c([H])c([H])c(Oc6c([H])c([H])c(F)c([H])c6F)c([H])c5[H])c(C(=O)N([H])[H])c4N([H])[H])C3([H])[H])C([H])([H])C([H])([H])C([H])([H])[H])c([H])c([H])c2C1([H])[H]

>  <smiles>  (60) 
[H]c1c([H])c([H])c2c(c1[H])C([H])([H])C([H])([H])C([H])([H])C2([H])N([H])C(=O)C1([H])N(C(=O)C([H])(N([H])C(=O)C([H])(N([H])C([H])([H])[H])C([H])([H])[H])C(C([H])([H])[H])(C([H])([H])[H])C([H])([H])[H])C([H])([H])c2c([H])c(OC([H])([H])C(=O)N([H])C([H])(C(=O)N([H])C([H])([H])C([H])([H])N([H])C(=O)N3C([H])([H])C([H])([H])C([H])([H])C([H])(n4nc(-c5c([H])c([H])c(Oc6c([H])c([H])c(F)c([H])c6F)c([H])c5[H])c(C(=O)N([H])[H])c4N([H])[H])C3([H])[H])C([H])([H])C([H])([H])C([H])([H])[H])c([H])c([H])c2C1([H])[H]

$$$$
63:0:0
     RDKit          3D

 90 97  0  0  1  0  0  0  0  0999 V2000
  -28.8360  -23.2190   20.1010 C   0  0  0  0  0  0  0  0  0  0  0  0
  -27.2470  -21.7080   21.2750 C   0  0  0  0  0  1  0  0  0  0  0  0
  -28.4810  -21.8790   20.4940 N   0  0  0  0  0  0  0  0  0  0  0  0
  -29.8770  -23.3370   19.4450 O   0  0  0  0  0  0  0  0  0  0  0  0
  -29.1790  -19.1560   20.4330 C   0  0  0  0  0  0  0  0  0  0  0  0
  -29.2860  -20.5470   20.0670 N   0  0  0  0  0  0  0  0  0  0  0  0
  -28.3290  -18.8080   21.2530 O   0  0  0  0  0  0  0  0  0  0  0  0
  -29.9790  -20.8110   19.3800 H   0  0  0  0  0  0  0  0  0  0  0  0
  -31.6060  -18.3190   20.1980 C   0  0  0  0  0  1  0  0  0  0  0  0
  -30.1470  -17.9020   19.8750 C   0  0  0  0  0  3  0  0  0  0  0  0
  -30.6390  -15.1250   19.9030 C   0  0  0  0  0  0  0  0  0  0  0  0
  -30.4480  -12.7700   18.9530 C   0  0  0  0  0  2  0  0  0  0  0  0
  -29.4510  -12.7260   17.7700 C   0  0  0  0  0  2  0  0  0  0  0  0
  -28.0240  -12.4840   18.2870 C   0  0  0  0  0  2  0  0  0  0  0  0
  -27.6730  -13.4080   19.4820 C   0  0  0  0  0  3  0  0  0  0  0  0
  -28.7870  -13.4380   20.5530 C   0  0  0  0  0  2  0  0  0  0  0  0
  -30.0280  -13.8630   19.8870 N   0  0  0  0  0  0  0  0  0  0  0  0
  -31.7970  -15.1590   19.4660 O   0  0  0  0  0  0  0  0  0  0  0  0
  -29.9410  -16.3420   20.2180 N   0  0  0  0  0  0  0  0  0  0  0  0
  -29.0540  -16.1780   20.6740 H   0  0  0  0  0  0  0  0  0  0  0  0
  -25.3380  -13.9590   20.3720 C   0  0  0  0  0  0  0  0  0  0  0  0
  -24.2980  -13.1740   20.7790 C   0  0  0  0  0  0  0  0  0  0  0  0
  -24.7590  -11.8220   20.6900 C   0  0  0  0  0  0  0  0  0  0  0  0
  -26.3680  -13.0890   20.0510 N   0  0  0  0  0  0  0  0  0  0  0  0
  -26.0330  -11.7980   20.3090 N   0  0  0  0  0  0  0  0  0  0  0  0
  -24.0480  -10.5550   20.8910 C   0  0  0  0  0  0  0  0  0  0  0  0
  -24.4750   -9.6100   21.8490 C   0  0  0  0  0  3  0  0  0  0  0  0
  -23.7600   -8.4080   22.0350 C   0  0  0  0  0  3  0  0  0  0  0  0
  -22.6030   -8.1430   21.2640 C   0  0  0  0  0  0  0  0  0  0  0  0
  -22.1970   -9.0760   20.2940 C   0  0  0  0  0  3  0  0  0  0  0  0
  -22.9130  -10.2700   20.1060 C   0  0  0  0  0  3  0  0  0  0  0  0
  -21.8590   -6.9910   21.3590 O   0  0  0  0  0  0  0  0  0  0  0  0
  -21.7160   -6.3200   22.5470 C   0  0  0  0  0  0  0  0  0  0  0  0
  -21.1690   -6.9410   23.6910 C   0  0  0  0  0  3  0  0  0  0  0  0
  -20.9760   -6.1950   24.8720 C   0  0  0  0  0  3  0  0  0  0  0  0
  -21.3230   -4.8320   24.9080 C   0  0  0  0  0  0  0  0  0  0  0  0
  -21.8630   -4.2100   23.7680 C   0  0  0  0  0  3  0  0  0  0  0  0
  -22.0560   -4.9530   22.5890 C   0  0  0  0  0  0  0  0  0  0  0  0
  -22.5580   -4.3450   21.4880 F   0  0  0  0  0  0  0  0  0  0  0  0
  -21.1300   -4.1120   26.0390 F   0  0  0  0  0  0  0  0  0  0  0  0
  -22.9170  -13.6380   21.1390 C   0  0  0  0  0  0  0  0  0  0  0  0
  -22.2390  -12.9240   22.0270 N   0  0  0  0  0  0  0  0  0  0  0  0
  -22.4510  -14.6740   20.6650 O   0  0  0  0  0  0  0  0  0  0  0  0
  -22.6310  -12.0870   22.4290 H   0  0  0  0  0  0  0  0  0  0  0  0
  -21.3160  -13.2220   22.3100 H   0  0  0  0  0  0  0  0  0  0  0  0
  -25.4890  -15.3360   20.2180 N   0  0  0  0  0  0  0  0  0  0  0  0
  -24.7310  -15.9810   20.4050 H   0  0  0  0  0  0  0  0  0  0  0  0
  -26.3050  -15.7900   19.8300 H   0  0  0  0  0  0  0  0  0  0  0  0
  -27.9590  -24.6370   20.4150 C   0  0  0  0  0  2  0  0  0  0  0  0
  -28.2850  -26.1680   20.1770 O   0  0  0  0  0  0  0  0  0  0  0  0
  -24.6070  -31.8650   23.1500 C   0  0  0  0  0  0  0  0  0  0  0  0
  -27.2410  -27.1720   20.1200 C   0  0  0  0  0  0  0  0  0  0  0  0
  -23.4300  -30.4680   21.4980 C   0  0  0  0  0  3  0  0  0  0  0  0
  -24.9020  -28.9150   20.0690 C   0  0  0  0  0  0  0  0  0  0  0  0
  -25.9810  -30.7650   21.3350 C   0  0  0  0  0  2  0  0  0  0  0  0
  -26.0780  -29.3710   20.6800 C   0  0  0  0  0  0  0  0  0  0  0  0
  -27.2520  -28.5210   20.6780 C   0  0  0  0  0  3  0  0  0  0  0  0
  -26.0380  -26.8230   19.4730 C   0  0  0  0  0  3  0  0  0  0  0  0
  -24.8980  -27.6570   19.4480 C   0  0  0  0  0  3  0  0  0  0  0  0
  -23.6630  -29.8010   20.1150 C   0  0  0  0  0  2  0  0  0  0  0  0
  -24.6940  -31.0540   22.0500 N   0  0  0  0  0  0  0  0  0  0  0  0
  -23.5150  -32.1310   23.6750 O   0  0  0  0  0  0  0  0  0  0  0  0
  -22.7620  -29.4450   22.4520 C   0  0  0  0  0  0  0  0  0  0  0  0
  -21.4350  -29.2590   22.3160 N   0  0  0  0  0  0  0  0  0  0  0  0
  -23.4400  -28.8220   23.2720 O   0  0  0  0  0  0  0  0  0  0  0  0
  -20.9410  -29.8160   21.6290 H   0  0  0  0  0  0  0  0  0  0  0  0
  -18.0680  -28.0090   22.8000 C   0  0  0  0  0  0  0  0  0  0  0  0
  -20.6240  -28.3010   23.0780 C   0  0  0  0  0  3  0  0  0  0  0  0
  -20.7460  -26.8780   22.4870 C   0  0  0  0  0  2  0  0  0  0  0  0
  -19.6520  -26.5550   21.4650 C   0  0  0  0  0  2  0  0  0  0  0  0
  -18.2660  -26.6700   22.1060 C   0  0  0  0  0  2  0  0  0  0  0  0
  -19.1760  -28.7810   23.2410 C   0  0  0  0  0  0  0  0  0  0  0  0
  -18.9370  -30.0340   23.8490 C   0  0  0  0  0  3  0  0  0  0  0  0
  -17.6260  -30.5140   24.0210 C   0  0  0  0  0  3  0  0  0  0  0  0
  -16.5330  -29.7380   23.5970 C   0  0  0  0  0  3  0  0  0  0  0  0
  -16.7550  -28.4870   22.9920 C   0  0  0  0  0  3  0  0  0  0  0  0
  -25.8750  -32.5150   23.7880 C   0  0  0  0  0  3  0  0  0  0  0  0
  -26.3960  -31.7310   25.0550 C   0  0  1  0  0  0  0  0  0  0  0  0
  -25.3020  -31.4600   26.1160 C   0  0  0  0  0  1  0  0  0  0  0  0
  -27.0040  -30.3680   24.6490 C   0  0  0  0  0  1  0  0  0  0  0  0
  -27.5330  -32.5320   25.7320 C   0  0  0  0  0  1  0  0  0  0  0  0
  -25.5360  -33.8990   24.1490 N   0  0  0  0  0  0  0  0  0  0  0  0
  -25.8380  -34.9760   23.4120 C   0  0  0  0  0  0  0  0  0  0  0  0
  -26.4980  -34.9050   22.3710 O   0  0  0  0  0  0  0  0  0  0  0  0
  -24.9440  -34.0260   24.9590 H   0  0  0  0  0  0  0  0  0  0  0  0
  -24.0710  -36.7440   23.1210 C   0  0  0  0  0  1  0  0  0  0  0  0
  -25.3320  -36.3480   23.9050 C   0  0  0  0  0  3  0  0  0  0  0  0
  -27.4560  -37.2660   24.7240 C   0  0  0  0  0  1  0  0  0  0  0  0
  -26.3440  -37.4210   23.7910 N   0  0  0  0  0  0  0  0  0  0  0  0
  -25.9240  -38.3320   23.9430 H   0  0  0  0  0  0  0  0  0  0  0  0
  1 49  1  0
  1  3  1  0
  3  2  1  0
  4  1  2  0
  5  7  2  0
  6  5  1  0
  6  3  1  0
  8  6  1  0
 10  9  1  0
 10 19  1  0
 10  5  1  0
 11 19  1  0
 12 17  1  0
 13 14  1  0
 13 12  1  0
 15 14  1  0
 15 24  1  0
 15 16  1  0
 17 11  1  0
 17 16  1  0
 18 11  2  0
 19 20  1  0
 21 22  2  0
 22 41  1  0
 23 22  1  0
 23 26  1  0
 24 25  1  0
 24 21  1  0
 25 23  2  0
 26 27  1  0
 27 28  2  0
 29 32  1  0
 29 28  1  0
 30 29  2  0
 31 30  1  0
 31 26  2  0
 32 33  1  0
 33 38  2  0
 33 34  1  0
 34 35  2  0
 35 36  1  0
 36 40  1  0
 37 36  2  0
 38 37  1  0
 39 38  1  0
 41 42  1  0
 42 45  1  0
 42 44  1  0
 43 41  2  0
 46 21  1  0
 46 47  1  0
 48 46  1  0
 50 49  1  0
 51 62  2  0
 52 50  1  0
 52 57  1  0
 53 61  1  0
 53 63  1  0
 54 60  1  0
 54 56  1  0
 55 61  1  0
 56 55  1  0
 57 56  2  0
 58 52  2  0
 59 58  1  0
 59 54  2  0
 60 53  1  0
 61 51  1  0
 63 65  2  0
 64 63  1  0
 66 64  1  0
 67 76  2  0
 67 72  1  0
 68 64  1  0
 68 72  1  0
 69 68  1  0
 70 71  1  0
 70 69  1  0
 71 67  1  0
 72 73  2  0
 73 74  1  0
 75 74  2  0
 76 75  1  0
 77 51  1  0
 77 82  1  0
 77 78  1  0
 78 81  1  1
 78 79  1  0
 80 78  1  0
 82 85  1  0
 83 87  1  0
 83 82  1  0
 84 83  2  0
 87 86  1  0
 89 87  1  0
 89 90  1  0
 89 88  1  0
M  ISO  4  11 100  19 100  49 101  50 101
M  END
>  <TORSDO>  (61) 
F 19

>  <SCORE>  (61) 
-13.585

>  <name>  (61) 
63

>  <ligand_id>  (61) 
63

>  <original_smiles>  (61) 
[H]c1c([H])c([H])c2c(c1[H])C([H])([H])C([H])([H])C([H])([H])C2([H])N([H])C(=O)C1([H])N(C(=O)C([H])(N([H])C(=O)C([H])(N([H])C([H])([H])[H])C([H])([H])[H])C(C([H])([H])[H])(C([H])([H])[H])C([H])([H])[H])C([H])([H])c2c([H])c(OC([H])([H])C(=O)N(N([H])C(=O)C([H])(N([H])C(=O)N3C([H])([H])C([H])([H])C([H])([H])C([H])(n4nc(-c5c([H])c([H])c(Oc6c([H])c([H])c(F)c([H])c6F)c([H])c5[H])c(C(=O)N([H])[H])c4N([H])[H])C3([H])[H])C([H])([H])[H])C([H])([H])[H])c([H])c([H])c2C1([H])[H]

>  <smiles>  (61) 
[H]c1c([H])c([H])c2c(c1[H])C([H])([H])C([H])([H])C([H])([H])C2([H])N([H])C(=O)C1([H])N(C(=O)C([H])(N([H])C(=O)C([H])(N([H])C([H])([H])[H])C([H])([H])[H])C(C([H])([H])[H])(C([H])([H])[H])C([H])([H])[H])C([H])([H])c2c([H])c(OC([H])([H])C(=O)N(N([H])C(=O)C([H])(N([H])C(=O)N3C([H])([H])C([H])([H])C([H])([H])C([H])(n4nc(-c5c([H])c([H])c(Oc6c([H])c([H])c(F)c([H])c6F)c([H])c5[H])c(C(=O)N([H])[H])c4N([H])[H])C3([H])[H])C([H])([H])[H])C([H])([H])[H])c([H])c([H])c2C1([H])[H]

$$$$
64:0:0
     RDKit          3D

 96103  0  0  1  0  0  0  0  0999 V2000
  -29.9320  -19.2230   20.2090 C   0  0  0  0  0  0  0  0  0  0  0  0
  -28.8660  -20.5270   20.1370 C   0  0  0  0  0  0  0  0  0  0  0  0
  -29.1530  -21.9070   20.3650 N   0  0  0  0  0  0  0  0  0  0  0  0
  -27.7320  -20.2550   19.7460 O   0  0  0  0  0  0  0  0  0  0  0  0
  -30.0950  -22.0590   20.7030 H   0  0  0  0  0  0  0  0  0  0  0  0
  -28.4580  -23.2540   19.8630 C   0  0  0  0  0  2  0  0  0  0  0  0
  -28.2130  -24.7020   20.7120 C   0  0  0  0  0  2  0  0  0  0  0  0
  -28.3100  -26.1950   20.2440 O   0  0  0  0  0  0  0  0  0  0  0  0
  -24.6000  -31.8780   23.2110 C   0  0  0  0  0  0  0  0  0  0  0  0
  -27.2250  -27.1440   20.2500 C   0  0  0  0  0  0  0  0  0  0  0  0
  -23.4240  -30.4700   21.5670 C   0  0  0  0  0  3  0  0  0  0  0  0
  -24.8900  -28.8790   20.1770 C   0  0  0  0  0  0  0  0  0  0  0  0
  -25.9790  -30.7410   21.4250 C   0  0  0  0  0  2  0  0  0  0  0  0
  -26.0630  -29.3400   20.7900 C   0  0  0  0  0  0  0  0  0  0  0  0
  -27.2340  -28.4910   20.7970 C   0  0  0  0  0  3  0  0  0  0  0  0
  -26.0220  -26.7750   19.6120 C   0  0  0  0  0  3  0  0  0  0  0  0
  -24.8810  -27.6100   19.5760 C   0  0  0  0  0  3  0  0  0  0  0  0
  -23.6660  -29.7830   20.1950 C   0  0  0  0  0  2  0  0  0  0  0  0
  -24.6890  -31.0520   22.1230 N   0  0  0  0  0  0  0  0  0  0  0  0
  -23.5060  -32.1620   23.7240 O   0  0  0  0  0  0  0  0  0  0  0  0
  -22.7360  -29.4670   22.5240 C   0  0  0  0  0  0  0  0  0  0  0  0
  -21.4090  -29.2980   22.3840 N   0  0  0  0  0  0  0  0  0  0  0  0
  -23.3990  -28.8460   23.3570 O   0  0  0  0  0  0  0  0  0  0  0  0
  -20.9300  -29.8550   21.6890 H   0  0  0  0  0  0  0  0  0  0  0  0
  -18.0200  -28.1070   22.8630 C   0  0  0  0  0  0  0  0  0  0  0  0
  -20.5780  -28.3640   23.1480 C   0  0  0  0  0  3  0  0  0  0  0  0
  -20.6810  -26.9310   22.5730 C   0  0  0  0  0  2  0  0  0  0  0  0
  -19.5850  -26.6110   21.5520 C   0  0  0  0  0  2  0  0  0  0  0  0
  -18.2000  -26.7580   22.1860 C   0  0  0  0  0  2  0  0  0  0  0  0
  -19.1390  -28.8680   23.3020 C   0  0  0  0  0  0  0  0  0  0  0  0
  -18.9190  -30.1280   23.8960 C   0  0  0  0  0  3  0  0  0  0  0  0
  -17.6130  -30.6310   24.0580 C   0  0  0  0  0  3  0  0  0  0  0  0
  -16.5100  -29.8700   23.6340 C   0  0  0  0  0  3  0  0  0  0  0  0
  -16.7150  -28.6100   23.0420 C   0  0  0  0  0  3  0  0  0  0  0  0
  -25.8680  -32.5200   23.8520 C   0  0  0  0  0  3  0  0  0  0  0  0
  -26.3600  -31.7630   25.1480 C   0  0  1  0  0  0  0  0  0  0  0  0
  -25.2460  -31.5370   26.1990 C   0  0  0  0  0  1  0  0  0  0  0  0
  -26.9490  -30.3810   24.7840 C   0  0  0  0  0  1  0  0  0  0  0  0
  -27.4980  -32.5640   25.8220 C   0  0  0  0  0  1  0  0  0  0  0  0
  -25.5510  -33.9230   24.1720 N   0  0  0  0  0  0  0  0  0  0  0  0
  -25.8960  -34.9750   23.4190 C   0  0  0  0  0  0  0  0  0  0  0  0
  -26.5830  -34.8680   22.3980 O   0  0  0  0  0  0  0  0  0  0  0  0
  -24.9480  -34.0800   24.9660 H   0  0  0  0  0  0  0  0  0  0  0  0
  -24.1850  -36.7790   23.0220 C   0  0  0  0  0  1  0  0  0  0  0  0
  -25.4060  -36.3690   23.8640 C   0  0  0  0  0  3  0  0  0  0  0  0
  -27.5230  -37.2490   24.7430 C   0  0  0  0  0  1  0  0  0  0  0  0
  -26.4450  -37.4170   23.7720 N   0  0  0  0  0  0  0  0  0  0  0  0
  -26.0410  -38.3400   23.9040 H   0  0  0  0  0  0  0  0  0  0  0  0
  -31.1100  -19.9060   18.0620 C   0  0  0  0  0  0  0  0  0  0  0  0
  -30.6390  -19.0020   18.9390 N   0  0  0  0  0  4  0  0  0  0  0  0
  -31.1370  -21.1170   18.2870 O   0  0  0  0  0  0  0  0  0  0  0  0
  -30.7380  -18.0290   18.6820 H   0  0  0  0  0  0  0  0  0  0  0  0
  -31.6840  -19.3850   16.7430 C   0  0  0  0  0  2  0  0  0  0  0  0
  -32.5760  -20.3780   16.1240 N   0  0  0  0  0  4  0  0  0  0  0  0
  -32.0500  -21.2050   15.9070 H   0  0  0  0  0  0  0  0  0  0  0  0
  -32.9960  -20.0140   15.2890 H   0  0  0  0  0  0  0  0  0  0  0  0
  -33.2920  -20.6340   16.7770 H   0  0  0  0  0  0  0  0  0  0  0  0
  -29.6500  -17.6850   20.8820 C   0  0  0  0  0  2  0  0  0  0  0  0
  -30.4940  -15.0370   20.2950 C   0  0  0  0  0  0  0  0  0  0  0  0
  -30.4090  -12.6840   19.3240 C   0  0  0  0  0  2  0  0  0  0  0  0
  -29.4530  -12.5970   18.1110 C   0  0  0  0  0  2  0  0  0  0  0  0
  -28.0060  -12.3490   18.5820 C   0  0  0  0  0  2  0  0  0  0  0  0
  -27.5880  -13.2920   19.7390 C   0  0  0  0  0  3  0  0  0  0  0  0
  -28.6600  -13.3400   20.8460 C   0  0  0  0  0  2  0  0  0  0  0  0
  -29.9090  -13.7750   20.2050 N   0  0  0  0  0  0  0  0  0  0  0  0
  -31.7200  -15.1060   20.1560 O   0  0  0  0  0  0  0  0  0  0  0  0
  -29.6730  -16.2060   20.2750 N   0  0  0  0  0  0  0  0  0  0  0  0
  -28.7270  -15.9280   20.0610 H   0  0  0  0  0  0  0  0  0  0  0  0
  -25.2170  -13.8610   20.5160 C   0  0  0  0  0  0  0  0  0  0  0  0
  -24.1580  -13.0810   20.8910 C   0  0  0  0  0  0  0  0  0  0  0  0
  -24.6290  -11.7320   20.8540 C   0  0  0  0  0  0  0  0  0  0  0  0
  -26.2600  -12.9890   20.2600 N   0  0  0  0  0  0  0  0  0  0  0  0
  -25.9190  -11.7020   20.5330 N   0  0  0  0  0  0  0  0  0  0  0  0
  -23.9110  -10.4650   21.0430 C   0  0  0  0  0  0  0  0  0  0  0  0
  -24.3550   -9.4960   21.9690 C   0  0  0  0  0  3  0  0  0  0  0  0
  -23.6350   -8.2950   22.1480 C   0  0  0  0  0  3  0  0  0  0  0  0
  -22.4580   -8.0550   21.4010 C   0  0  0  0  0  0  0  0  0  0  0  0
  -22.0320   -9.0130   20.4640 C   0  0  0  0  0  3  0  0  0  0  0  0
  -22.7520  -10.2050   20.2840 C   0  0  0  0  0  3  0  0  0  0  0  0
  -21.7070   -6.9070   21.4920 O   0  0  0  0  0  0  0  0  0  0  0  0
  -21.6710   -6.1590   22.6420 C   0  0  0  0  0  0  0  0  0  0  0  0
  -21.2510   -6.7030   23.8750 C   0  0  0  0  0  3  0  0  0  0  0  0
  -21.1660   -5.8800   25.0160 C   0  0  0  0  0  3  0  0  0  0  0  0
  -21.4910   -4.5140   24.9240 C   0  0  0  0  0  0  0  0  0  0  0  0
  -21.9050   -3.9680   23.6950 C   0  0  0  0  0  3  0  0  0  0  0  0
  -21.9940   -4.7900   22.5580 C   0  0  0  0  0  0  0  0  0  0  0  0
  -22.3730   -4.2540   21.3730 F   0  0  0  0  0  0  0  0  0  0  0  0
  -21.4010   -3.7200   26.0160 F   0  0  0  0  0  0  0  0  0  0  0  0
  -22.7600  -13.5500   21.1680 C   0  0  0  0  0  0  0  0  0  0  0  0
  -22.0330  -12.8500   22.0310 N   0  0  0  0  0  0  0  0  0  0  0  0
  -22.3200  -14.5790   20.6550 O   0  0  0  0  0  0  0  0  0  0  0  0
  -22.4010  -12.0220   22.4790 H   0  0  0  0  0  0  0  0  0  0  0  0
  -21.0920  -13.1430   22.2470 H   0  0  0  0  0  0  0  0  0  0  0  0
  -25.3670  -15.2330   20.3360 N   0  0  0  0  0  0  0  0  0  0  0  0
  -24.5910  -15.8760   20.4510 H   0  0  0  0  0  0  0  0  0  0  0  0
  -26.2030  -15.6830   19.9900 H   0  0  0  0  0  0  0  0  0  0  0  0
  1 58  1  0
  2  1  1  0
  2  3  1  0
  3  5  1  0
  4  2  2  0
  6  3  1  0
  6  7  1  0
  8 10  1  0
  8  7  1  0
  9 20  2  0
 10 15  1  0
 11 19  1  0
 11 21  1  0
 12 18  1  0
 12 14  1  0
 13 19  1  0
 14 15  2  0
 14 13  1  0
 16 10  2  0
 17 16  1  0
 17 12  2  0
 18 11  1  0
 19  9  1  0
 21 23  2  0
 22 21  1  0
 24 22  1  0
 25 34  2  0
 25 30  1  0
 26 22  1  0
 26 30  1  0
 27 26  1  0
 28 29  1  0
 28 27  1  0
 29 25  1  0
 30 31  2  0
 31 32  1  0
 33 32  2  0
 34 33  1  0
 35  9  1  0
 35 40  1  0
 35 36  1  0
 36 39  1  1
 36 37  1  0
 38 36  1  0
 40 43  1  0
 41 45  1  0
 41 40  1  0
 42 41  2  0
 45 44  1  0
 47 45  1  0
 47 48  1  0
 47 46  1  0
 49 51  2  0
 49 50  1  0
 50  1  2  0
 52 50  1  0
 53 49  1  0
 54 53  1  0
 54 57  1  0
 55 54  1  0
 56 54  1  0
 60 65  1  0
 61 62  1  0
 61 60  1  0
 63 62  1  0
 63 72  1  0
 63 64  1  0
 65 59  1  0
 65 64  1  0
 66 59  2  0
 67 59  1  0
 67 58  1  0
 68 67  1  0
 69 70  2  0
 70 89  1  0
 71 70  1  0
 71 74  1  0
 72 69  1  0
 72 73  1  0
 73 71  2  0
 74 75  1  0
 75 76  2  0
 77 80  1  0
 77 76  1  0
 78 77  2  0
 79 78  1  0
 79 74  2  0
 80 81  1  0
 81 82  1  0
 82 83  2  0
 84 83  1  0
 84 88  1  0
 85 84  2  0
 86 81  2  0
 86 85  1  0
 87 86  1  0
 89 90  1  0
 90 93  1  0
 90 92  1  0
 91 89  2  0
 94 95  1  0
 94 69  1  0
 96 94  1  0
M  ISO  4   7 101   8 101  59 100  67 100
M  END
>  <TORSDO>  (62) 
F 23

>  <SCORE>  (62) 
-14.234

>  <name>  (62) 
64

>  <ligand_id>  (62) 
64

>  <original_smiles>  (62) 
[H]c1c([H])c([H])c2c(c1[H])C([H])([H])C([H])([H])C([H])([H])C2([H])N([H])C(=O)C1([H])N(C(=O)C([H])(N([H])C(=O)C([H])(N([H])C([H])([H])[H])C([H])([H])[H])C(C([H])([H])[H])(C([H])([H])[H])C([H])([H])[H])C([H])([H])c2c([H])c(OC([H])([H])C([H])([H])N([H])C(=O)C([H])(N([H])C(=O)C([H])([H])[N+]([H])([H])[H])C([H])([H])N([H])C(=O)N3C([H])([H])C([H])([H])C([H])([H])C([H])(n4nc(-c5c([H])c([H])c(Oc6c([H])c([H])c(F)c([H])c6F)c([H])c5[H])c(C(=O)N([H])[H])c4N([H])[H])C3([H])[H])c([H])c([H])c2C1([H])[H]

>  <smiles>  (62) 
[H]c1c([H])c([H])c2c(c1[H])C([H])([H])C([H])([H])C([H])([H])C2([H])N([H])C(=O)C1([H])N(C(=O)C([H])(N([H])C(=O)C([H])(N([H])C([H])([H])[H])C([H])([H])[H])C(C([H])([H])[H])(C([H])([H])[H])C([H])([H])[H])C([H])([H])c2c([H])c(OC([H])([H])C([H])([H])N([H])C(=O)C([H])(N([H])C(=O)C([H])([H])[N+]([H])([H])[H])C([H])([H])N([H])C(=O)N3C([H])([H])C([H])([H])C([H])([H])C([H])(n4nc(-c5c([H])c([H])c(Oc6c([H])c([H])c(F)c([H])c6F)c([H])c5[H])c(C(=O)N([H])[H])c4N([H])[H])C3([H])[H])c([H])c([H])c2C1([H])[H]

$$$$
65:0:0
     RDKit          3D

 92 99  0  0  1  0  0  0  0  0999 V2000
  -29.2800  -21.8600   18.5860 C   0  0  0  0  0  0  0  0  0  0  0  0
  -28.8090  -22.8300   19.4130 N   0  0  0  0  0  0  0  0  0  0  0  0
  -29.9840  -22.1720   17.6270 O   0  0  0  0  0  0  0  0  0  0  0  0
  -28.2370  -22.5310   20.1870 H   0  0  0  0  0  0  0  0  0  0  0  0
  -28.9200  -20.3450   18.8140 C   0  0  0  0  0  2  0  0  0  0  0  0
  -30.1120  -19.3400   18.5540 C   0  0  0  0  0  2  0  0  0  0  0  0
  -29.8630  -17.7810   18.3400 C   0  0  0  0  0  2  0  0  0  0  0  0
  -31.1210  -17.0480   17.7660 C   0  0  0  0  0  0  0  0  0  0  0  0
  -31.5890  -15.7990   18.0600 N   0  0  0  0  0  0  0  0  0  0  0  0
  -31.7920  -17.6950   16.9660 O   0  0  0  0  0  0  0  0  0  0  0  0
  -32.5250  -15.5370   17.7840 H   0  0  0  0  0  0  0  0  0  0  0  0
  -31.3000  -13.9860   19.6370 C   0  0  0  0  0  0  0  0  0  0  0  0
  -30.3100  -13.1040   21.3500 C   0  0  0  0  0  2  0  0  0  0  0  0
  -29.3160  -14.3150   21.0650 C   0  0  0  0  0  2  0  0  0  0  0  0
  -28.2610  -14.2110   19.9430 C   0  0  0  0  0  2  0  0  0  0  0  0
  -27.8190  -12.9870   20.4330 C   0  0  0  0  0  3  0  0  0  0  0  0
  -29.0720  -12.2040   19.8430 C   0  0  0  0  0  2  0  0  0  0  0  0
  -30.4870  -12.8850   20.0550 N   0  0  0  0  0  0  0  0  0  0  0  0
  -32.1610  -14.5790   20.3210 O   0  0  0  0  0  0  0  0  0  0  0  0
  -30.8910  -14.6270   18.5330 N   0  0  0  0  0  0  0  0  0  0  0  0
  -30.2390  -14.2190   17.8770 H   0  0  0  0  0  0  0  0  0  0  0  0
  -25.3590  -13.7940   20.5770 C   0  0  0  0  0  0  0  0  0  0  0  0
  -24.2690  -13.0650   20.8950 C   0  0  0  0  0  0  0  0  0  0  0  0
  -24.7090  -11.7140   20.9220 C   0  0  0  0  0  0  0  0  0  0  0  0
  -26.3920  -12.8490   20.3450 N   0  0  0  0  0  0  0  0  0  0  0  0
  -25.9870  -11.6040   20.6290 N   0  0  0  0  0  0  0  0  0  0  0  0
  -23.9690  -10.4900   21.1230 C   0  0  0  0  0  0  0  0  0  0  0  0
  -24.3710   -9.5420   22.0930 C   0  0  0  0  0  3  0  0  0  0  0  0
  -23.6610   -8.3380   22.2350 C   0  0  0  0  0  3  0  0  0  0  0  0
  -22.5260   -8.0930   21.4210 C   0  0  0  0  0  0  0  0  0  0  0  0
  -22.1560   -9.0210   20.4350 C   0  0  0  0  0  3  0  0  0  0  0  0
  -22.8690  -10.2250   20.2900 C   0  0  0  0  0  3  0  0  0  0  0  0
  -21.7800   -6.9420   21.4770 O   0  0  0  0  0  0  0  0  0  0  0  0
  -21.6840   -6.2150   22.6350 C   0  0  0  0  0  0  0  0  0  0  0  0
  -21.2060   -6.7810   23.8320 C   0  0  0  0  0  3  0  0  0  0  0  0
  -21.0470   -5.9700   24.9760 C   0  0  0  0  0  3  0  0  0  0  0  0
  -21.3680   -4.6020   24.9220 C   0  0  0  0  0  0  0  0  0  0  0  0
  -21.8430   -4.0400   23.7250 C   0  0  0  0  0  3  0  0  0  0  0  0
  -22.0070   -4.8440   22.5850 C   0  0  0  0  0  0  0  0  0  0  0  0
  -22.4490   -4.3030   21.4270 F   0  0  0  0  0  0  0  0  0  0  0  0
  -21.2110   -3.8160   26.0180 F   0  0  0  0  0  0  0  0  0  0  0  0
  -22.8640  -13.5740   21.1020 C   0  0  0  0  0  0  0  0  0  0  0  0
  -22.0850  -12.9290   21.9520 N   0  0  0  0  0  0  0  0  0  0  0  0
  -22.4600  -14.5980   20.5450 O   0  0  0  0  0  0  0  0  0  0  0  0
  -22.4220  -12.1170   22.4460 H   0  0  0  0  0  0  0  0  0  0  0  0
  -21.1580  -13.2720   22.1460 H   0  0  0  0  0  0  0  0  0  0  0  0
  -25.4820  -15.1880   20.4980 N   0  0  0  0  0  0  0  0  0  0  0  0
  -24.6790  -15.7990   20.5440 H   0  0  0  0  0  0  0  0  0  0  0  0
  -26.2540  -15.6330   20.0240 H   0  0  0  0  0  0  0  0  0  0  0  0
  -29.1170  -24.2880   19.3370 C   0  0  0  0  0  2  0  0  0  0  0  0
  -28.1360  -25.1690   20.1670 C   0  0  0  0  0  2  0  0  0  0  0  0
  -28.2980  -26.6210   20.0260 O   0  0  0  0  0  0  0  0  0  0  0  0
  -24.5690  -31.9010   23.2480 C   0  0  0  0  0  0  0  0  0  0  0  0
  -27.1560  -27.4250   20.0660 C   0  0  0  0  0  0  0  0  0  0  0  0
  -23.3520  -30.5120   21.6120 C   0  0  0  0  0  3  0  0  0  0  0  0
  -24.7780  -28.9940   20.1540 C   0  0  0  0  0  0  0  0  0  0  0  0
  -25.8750  -30.8510   21.3990 C   0  0  0  0  0  2  0  0  0  0  0  0
  -25.9530  -29.4860   20.7360 C   0  0  0  0  0  0  0  0  0  0  0  0
  -27.1420  -28.7070   20.7020 C   0  0  0  0  0  3  0  0  0  0  0  0
  -25.9600  -26.9920   19.4450 C   0  0  0  0  0  3  0  0  0  0  0  0
  -24.7800  -27.7440   19.5140 C   0  0  0  0  0  3  0  0  0  0  0  0
  -23.5470  -29.8560   20.2240 C   0  0  0  0  0  2  0  0  0  0  0  0
  -24.6200  -31.1010   22.1430 N   0  0  0  0  0  0  0  0  0  0  0  0
  -23.4910  -32.1660   23.7930 O   0  0  0  0  0  0  0  0  0  0  0  0
  -22.7040  -29.4820   22.5620 C   0  0  0  0  0  0  0  0  0  0  0  0
  -21.3790  -29.2990   22.4440 N   0  0  0  0  0  0  0  0  0  0  0  0
  -23.3900  -28.8470   23.3680 O   0  0  0  0  0  0  0  0  0  0  0  0
  -20.8840  -29.8610   21.7690 H   0  0  0  0  0  0  0  0  0  0  0  0
  -18.0130  -28.0780   22.9450 C   0  0  0  0  0  0  0  0  0  0  0  0
  -20.5700  -28.3490   23.2070 C   0  0  0  0  0  3  0  0  0  0  0  0
  -20.6760  -26.9200   22.6240 C   0  0  0  0  0  2  0  0  0  0  0  0
  -19.5730  -26.5980   21.6110 C   0  0  0  0  0  2  0  0  0  0  0  0
  -18.1930  -26.7330   22.2620 C   0  0  0  0  0  2  0  0  0  0  0  0
  -19.1280  -28.8430   23.3760 C   0  0  0  0  0  0  0  0  0  0  0  0
  -18.9040  -30.1020   23.9770 C   0  0  0  0  0  3  0  0  0  0  0  0
  -17.5970  -30.5930   24.1500 C   0  0  0  0  0  3  0  0  0  0  0  0
  -16.4950  -29.8260   23.7310 C   0  0  0  0  0  3  0  0  0  0  0  0
  -16.7040  -28.5700   23.1390 C   0  0  0  0  0  3  0  0  0  0  0  0
  -25.8520  -32.5310   23.8680 C   0  0  0  0  0  3  0  0  0  0  0  0
  -25.5460  -33.9340   24.1900 N   0  0  0  0  0  0  0  0  0  0  0  0
  -25.8940  -34.9790   23.4240 C   0  0  0  0  0  0  0  0  0  0  0  0
  -26.5690  -34.8640   22.3980 O   0  0  0  0  0  0  0  0  0  0  0  0
  -24.9390  -34.1000   24.9810 H   0  0  0  0  0  0  0  0  0  0  0  0
  -24.1860  -36.7900   23.0370 C   0  0  0  0  0  1  0  0  0  0  0  0
  -25.4100  -36.3740   23.8700 C   0  0  0  0  0  3  0  0  0  0  0  0
  -27.5400  -37.2390   24.7330 C   0  0  0  0  0  1  0  0  0  0  0  0
  -26.4560  -37.4150   23.7700 N   0  0  0  0  0  0  0  0  0  0  0  0
  -26.0570  -38.3390   23.9070 H   0  0  0  0  0  0  0  0  0  0  0  0
  -26.3650  -31.7670   25.1490 C   0  0  1  0  0  0  0  0  0  0  0  0
  -25.2720  -31.5380   26.2170 C   0  0  0  0  0  1  0  0  0  0  0  0
  -26.9420  -30.3860   24.7620 C   0  0  0  0  0  1  0  0  0  0  0  0
  -27.5230  -32.5590   25.8020 C   0  0  0  0  0  1  0  0  0  0  0  0
  1  5  1  0
  1  2  1  0
  2  4  1  0
  3  1  2  0
  6  5  1  0
  7  6  1  0
  8  9  1  0
  8  7  1  0
  9 20  1  0
 10  8  2  0
 11  9  1  0
 12 18  1  0
 12 19  2  0
 14 13  1  0
 15 16  1  0
 15 14  1  0
 16 17  1  0
 17 18  1  0
 18 13  1  0
 20 12  1  0
 21 20  1  0
 22 23  2  0
 23 24  1  0
 23 42  1  0
 24 27  1  0
 25 16  1  0
 25 22  1  0
 25 26  1  0
 26 24  2  0
 27 28  1  0
 28 29  2  0
 30 33  1  0
 30 29  1  0
 31 30  2  0
 32 31  1  0
 32 27  2  0
 33 34  1  0
 34 35  1  0
 35 36  2  0
 37 36  1  0
 37 41  1  0
 38 37  2  0
 39 34  2  0
 39 38  1  0
 40 39  1  0
 42 43  1  0
 43 46  1  0
 43 45  1  0
 44 42  2  0
 47 48  1  0
 47 22  1  0
 49 47  1  0
 50  2  1  0
 50 51  1  0
 52 54  1  0
 52 51  1  0
 53 64  2  0
 54 59  1  0
 55 63  1  0
 55 65  1  0
 56 62  1  0
 56 58  1  0
 57 63  1  0
 58 57  1  0
 59 58  2  0
 60 61  1  0
 60 54  2  0
 61 56  2  0
 62 55  1  0
 63 53  1  0
 65 67  2  0
 66 65  1  0
 68 66  1  0
 69 78  2  0
 69 74  1  0
 70 66  1  0
 70 74  1  0
 71 70  1  0
 72 73  1  0
 72 71  1  0
 73 69  1  0
 74 75  2  0
 75 76  1  0
 77 76  2  0
 78 77  1  0
 79 53  1  0
 79 80  1  0
 79 89  1  0
 80 83  1  0
 81 85  1  0
 81 80  1  0
 82 81  2  0
 85 84  1  0
 87 85  1  0
 87 88  1  0
 87 86  1  0
 89 92  1  1
 89 90  1  0
 91 89  1  0
M  ISO  4  12 100  20 100  51 101  52 101
M  END
>  <TORSDO>  (63) 
F 22

>  <SCORE>  (63) 
-12.651

>  <name>  (63) 
65

>  <ligand_id>  (63) 
65

>  <original_smiles>  (63) 
[H]c1c([H])c([H])c2c(c1[H])C([H])([H])C([H])([H])C([H])([H])C2([H])N([H])C(=O)C1([H])N(C(=O)C([H])(N([H])C(=O)C([H])(N([H])C([H])([H])[H])C([H])([H])[H])C(C([H])([H])[H])(C([H])([H])[H])C([H])([H])[H])C([H])([H])c2c([H])c(OC([H])([H])C([H])([H])N([H])C(=O)C([H])([H])C([H])([H])C([H])([H])C(=O)N([H])N([H])C(=O)N3C([H])([H])C([H])([H])C([H])([H])C([H])(n4nc(-c5c([H])c([H])c(Oc6c([H])c([H])c(F)c([H])c6F)c([H])c5[H])c(C(=O)N([H])[H])c4N([H])[H])C3([H])[H])c([H])c([H])c2C1([H])[H]

>  <smiles>  (63) 
[H]c1c([H])c([H])c2c(c1[H])C([H])([H])C([H])([H])C([H])([H])C2([H])N([H])C(=O)C1([H])N(C(=O)C([H])(N([H])C(=O)C([H])(N([H])C([H])([H])[H])C([H])([H])[H])C(C([H])([H])[H])(C([H])([H])[H])C([H])([H])[H])C([H])([H])c2c([H])c(OC([H])([H])C([H])([H])N([H])C(=O)C([H])([H])C([H])([H])C([H])([H])C(=O)N([H])N([H])C(=O)N3C([H])([H])C([H])([H])C([H])([H])C([H])(n4nc(-c5c([H])c([H])c(Oc6c([H])c([H])c(F)c([H])c6F)c([H])c5[H])c(C(=O)N([H])[H])c4N([H])[H])C3([H])[H])c([H])c([H])c2C1([H])[H]

$$$$
66:0:0
     RDKit          3D

106114  0  0  1  0  0  0  0  0999 V2000
  -28.9540  -23.2130   22.2570 C   0  0  0  0  0  0  0  0  0  0  0  0
  -29.3520  -23.1030   20.9820 N   0  0  0  0  0  0  0  0  0  0  0  0
  -29.7230  -23.0790   23.2160 O   0  0  0  0  0  0  0  0  0  0  0  0
  -28.6530  -23.1740   20.2600 H   0  0  0  0  0  0  0  0  0  0  0  0
  -27.2640  -26.3560   21.4470 C   0  0  0  0  0  2  0  0  0  0  0  0
  -26.7780  -23.9930   21.1770 C   0  0  0  0  0  2  0  0  0  0  0  0
  -26.8640  -26.0170   22.9170 C   0  0  0  0  0  2  0  0  0  0  0  0
  -27.4950  -23.6280   22.5090 C   0  0  0  0  0  3  0  0  0  0  0  0
  -27.4430  -25.1660   20.5930 N   0  0  0  0  0  0  0  0  0  0  0  0
  -27.5250  -24.7900   23.4230 N   0  0  0  0  0  4  0  0  0  0  0  0
  -27.1750  -24.5280   24.3290 H   0  0  0  0  0  0  0  0  0  0  0  0
  -28.5220  -24.9520   23.5040 H   0  0  0  0  0  0  0  0  0  0  0  0
  -27.0430  -25.3580   19.2010 C   0  0  0  0  0  2  0  0  0  0  0  0
  -28.1450  -25.9560   18.2770 C   0  0  0  0  0  2  0  0  0  0  0  0
  -27.5950  -26.7010   17.1740 O   0  0  0  0  0  0  0  0  0  0  0  0
  -24.3190  -30.0600   22.4350 C   0  0  0  0  0  0  0  0  0  0  0  0
  -26.4660  -27.3810   17.5390 C   0  0  0  0  0  0  0  0  0  0  0  0
  -22.8630  -29.2170   20.6150 C   0  0  0  0  0  3  0  0  0  0  0  0
  -24.0630  -28.4830   18.4900 C   0  0  0  0  0  0  0  0  0  0  0  0
  -25.2780  -29.9180   20.1470 C   0  0  0  0  0  2  0  0  0  0  0  0
  -25.2890  -28.8940   19.0360 C   0  0  0  0  0  0  0  0  0  0  0  0
  -26.4970  -28.3450   18.5660 C   0  0  0  0  0  3  0  0  0  0  0  0
  -25.2360  -27.0000   16.9660 C   0  0  0  0  0  3  0  0  0  0  0  0
  -24.0290  -27.5340   17.4520 C   0  0  0  0  0  3  0  0  0  0  0  0
  -22.8170  -29.1080   19.0680 C   0  0  0  0  0  2  0  0  0  0  0  0
  -24.1810  -29.7260   21.1210 N   0  0  0  0  0  0  0  0  0  0  0  0
  -23.3580  -29.9980   23.2130 O   0  0  0  0  0  0  0  0  0  0  0  0
  -22.4570  -27.8560   21.2220 C   0  0  0  0  0  0  0  0  0  0  0  0
  -21.1530  -27.5380   21.1580 N   0  0  0  0  0  0  0  0  0  0  0  0
  -23.3040  -27.1020   21.7070 O   0  0  0  0  0  0  0  0  0  0  0  0
  -20.5200  -28.2140   20.7520 H   0  0  0  0  0  0  0  0  0  0  0  0
  -18.0220  -25.7640   21.4570 C   0  0  0  0  0  0  0  0  0  0  0  0
  -20.5470  -26.2940   21.6300 C   0  0  0  0  0  3  0  0  0  0  0  0
  -20.7530  -25.1510   20.6050 C   0  0  0  0  0  2  0  0  0  0  0  0
  -19.5890  -25.0160   19.6190 C   0  0  0  0  0  2  0  0  0  0  0  0
  -18.2810  -24.7400   20.3640 C   0  0  0  0  0  2  0  0  0  0  0  0
  -19.0860  -26.5030   22.0410 C   0  0  0  0  0  0  0  0  0  0  0  0
  -18.7860  -27.4680   23.0270 C   0  0  0  0  0  3  0  0  0  0  0  0
  -17.4580  -27.6970   23.4330 C   0  0  0  0  0  3  0  0  0  0  0  0
  -16.4120  -26.9510   22.8620 C   0  0  0  0  0  3  0  0  0  0  0  0
  -16.6960  -25.9860   21.8800 C   0  0  0  0  0  3  0  0  0  0  0  0
  -25.6780  -30.5600   23.0150 C   0  0  0  0  0  3  0  0  0  0  0  0
  -26.3520  -29.5270   24.0020 C   0  0  1  0  0  0  0  0  0  0  0  0
  -25.3870  -28.9780   25.0770 C   0  0  0  0  0  1  0  0  0  0  0  0
  -26.9250  -28.3200   23.2210 C   0  0  0  0  0  1  0  0  0  0  0  0
  -27.5470  -30.1950   24.7250 C   0  0  0  0  0  1  0  0  0  0  0  0
  -25.4270  -31.8410   23.6890 N   0  0  0  0  0  0  0  0  0  0  0  0
  -25.7190  -33.0430   23.1730 C   0  0  0  0  0  0  0  0  0  0  0  0
  -26.3020  -33.1860   22.0960 O   0  0  0  0  0  0  0  0  0  0  0  0
  -24.9090  -31.8030   24.5550 H   0  0  0  0  0  0  0  0  0  0  0  0
  -24.0180  -34.8820   23.3760 C   0  0  0  0  0  1  0  0  0  0  0  0
  -25.2980  -34.2840   23.9810 C   0  0  0  0  0  3  0  0  0  0  0  0
  -27.5120  -34.9130   24.8370 C   0  0  0  0  0  1  0  0  0  0  0  0
  -26.3480  -35.3220   24.0560 N   0  0  0  0  0  0  0  0  0  0  0  0
  -25.9800  -36.1790   24.4620 H   0  0  0  0  0  0  0  0  0  0  0  0
  -30.7380  -23.0460   20.5200 C   0  0  0  0  0  3  0  0  0  0  0  0
  -31.5400  -21.8810   21.1300 C   0  0  0  0  0  0  0  0  0  0  0  0
  -32.8720  -21.9990   21.0900 N   0  0  0  0  0  0  0  0  0  0  0  0
  -30.9700  -20.8930   21.6070 O   0  0  0  0  0  0  0  0  0  0  0  0
  -33.3690  -22.7690   20.6620 H   0  0  0  0  0  0  0  0  0  0  0  0
  -33.7400  -19.8970   20.4100 C   0  0  0  0  0  0  0  0  0  0  0  0
  -33.6970  -20.8810   21.3140 N   0  0  0  0  0  0  0  0  0  0  0  0
  -33.1990  -19.9990   19.3040 O   0  0  0  0  0  0  0  0  0  0  0  0
  -34.0820  -20.8530   22.2500 H   0  0  0  0  0  0  0  0  0  0  0  0
  -34.4720  -18.6150   20.8100 C   0  0  0  0  0  2  0  0  0  0  0  0
  -33.8970  -16.7140   19.2730 C   0  0  0  0  0  0  0  0  0  0  0  0
  -33.4240  -14.4700   18.3710 C   0  0  0  0  0  2  0  0  0  0  0  0
  -32.4550  -14.4640   17.1810 C   0  0  0  0  0  2  0  0  0  0  0  0
  -30.9950  -14.4280   17.6690 C   0  0  0  0  0  2  0  0  0  0  0  0
  -30.6990  -15.5200   18.7320 C   0  0  0  0  0  3  0  0  0  0  0  0
  -31.7670  -15.5070   19.8450 C   0  0  0  0  0  2  0  0  0  0  0  0
  -33.1070  -15.6170   19.2340 N   0  0  0  0  0  0  0  0  0  0  0  0
  -34.8100  -16.9430   18.4740 O   0  0  0  0  0  0  0  0  0  0  0  0
  -33.7320  -17.4290   20.3910 N   0  0  0  0  0  0  0  0  0  0  0  0
  -33.0030  -17.1090   21.0080 H   0  0  0  0  0  0  0  0  0  0  0  0
  -28.4260  -16.3540   19.6190 C   0  0  0  0  0  0  0  0  0  0  0  0
  -27.3030  -15.6850   20.0240 C   0  0  0  0  0  0  0  0  0  0  0  0
  -27.6070  -14.2940   19.9020 C   0  0  0  0  0  0  0  0  0  0  0  0
  -29.3520  -15.3760   19.2830 N   0  0  0  0  0  0  0  0  0  0  0  0
  -28.8630  -14.1300   19.5080 N   0  0  0  0  0  0  0  0  0  0  0  0
  -26.7540  -13.1110   20.0800 C   0  0  0  0  0  0  0  0  0  0  0  0
  -27.0080  -12.1640   21.0970 C   0  0  0  0  0  3  0  0  0  0  0  0
  -26.1640  -11.0460   21.2610 C   0  0  0  0  0  3  0  0  0  0  0  0
  -25.0490  -10.8670   20.4070 C   0  0  0  0  0  0  0  0  0  0  0  0
  -24.8150  -11.8000   19.3820 C   0  0  0  0  0  3  0  0  0  0  0  0
  -25.6590  -12.9100   19.2170 C   0  0  0  0  0  3  0  0  0  0  0  0
  -24.1890   -9.7970   20.4760 O   0  0  0  0  0  0  0  0  0  0  0  0
  -23.7290   -9.3180   21.6770 C   0  0  0  0  0  0  0  0  0  0  0  0
  -23.0120  -10.1340   22.5790 C   0  0  0  0  0  3  0  0  0  0  0  0
  -22.4960   -9.5830   23.7690 C   0  0  0  0  0  3  0  0  0  0  0  0
  -22.6880   -8.2180   24.0550 C   0  0  0  0  0  0  0  0  0  0  0  0
  -23.3970   -7.4030   23.1550 C   0  0  0  0  0  3  0  0  0  0  0  0
  -23.9140   -7.9530   21.9670 C   0  0  0  0  0  0  0  0  0  0  0  0
  -24.5760   -7.1570   21.0930 F   0  0  0  0  0  0  0  0  0  0  0  0
  -22.1890   -7.6870   25.1950 F   0  0  0  0  0  0  0  0  0  0  0  0
  -25.9860  -16.2970   20.4100 C   0  0  0  0  0  0  0  0  0  0  0  0
  -25.2440  -15.6480   21.3000 N   0  0  0  0  0  0  0  0  0  0  0  0
  -25.6270  -17.3830   19.9570 O   0  0  0  0  0  0  0  0  0  0  0  0
  -25.5440  -14.7660   21.6900 H   0  0  0  0  0  0  0  0  0  0  0  0
  -24.3610  -16.0390   21.5950 H   0  0  0  0  0  0  0  0  0  0  0  0
  -28.7310  -17.7070   19.4870 N   0  0  0  0  0  0  0  0  0  0  0  0
  -28.0500  -18.4350   19.6710 H   0  0  0  0  0  0  0  0  0  0  0  0
  -29.6070  -18.0640   19.1280 H   0  0  0  0  0  0  0  0  0  0  0  0
  -30.2520  -24.3470   18.3680 C   0  0  0  0  0  1  0  0  0  0  0  0
  -29.9930  -21.8230   18.3560 C   0  0  0  0  0  1  0  0  0  0  0  0
  -30.7580  -23.0180   18.9650 C   0  0  0  0  0  3  0  0  0  0  0  0
  1  3  2  0
  2  1  1  0
  4  2  1  0
  5  7  1  0
  6  8  1  0
  7 10  1  0
  8  1  1  0
  8 10  1  0
  9  6  1  0
  9  5  1  0
 10 12  1  0
 10 11  1  0
 13  9  1  0
 14 13  1  0
 15 17  1  0
 15 14  1  0
 16 27  2  0
 17 22  1  0
 18 26  1  0
 18 28  1  0
 19 21  1  0
 19 25  1  0
 20 26  1  0
 21 20  1  0
 22 21  2  0
 23 24  1  0
 23 17  2  0
 24 19  2  0
 25 18  1  0
 26 16  1  0
 28 30  2  0
 29 28  1  0
 31 29  1  0
 32 41  2  0
 32 37  1  0
 33 29  1  0
 33 37  1  0
 34 33  1  0
 35 36  1  0
 35 34  1  0
 36 32  1  0
 37 38  2  0
 38 39  1  0
 40 39  2  0
 41 40  1  0
 42 16  1  0
 42 47  1  0
 42 43  1  0
 43 46  1  1
 43 44  1  0
 45 43  1  0
 47 50  1  0
 48 47  1  0
 48 52  1  0
 49 48  2  0
 52 51  1  0
 52 54  1  0
 54 55  1  0
 54 53  1  0
 56106  1  0
 56  2  1  0
 56 57  1  0
 57 59  2  0
 58 57  1  0
 58 62  1  0
 60 58  1  0
 61 65  1  0
 61 62  1  0
 62 64  1  0
 63 61  2  0
 66 74  1  0
 67 72  1  0
 68 69  1  0
 68 67  1  0
 70 69  1  0
 70 79  1  0
 70 71  1  0
 72 66  1  0
 72 71  1  0
 73 66  2  0
 74 65  1  0
 74 75  1  0
 76 77  2  0
 77 96  1  0
 78 77  1  0
 78 81  1  0
 79 80  1  0
 79 76  1  0
 80 78  2  0
 81 82  1  0
 82 83  2  0
 84 87  1  0
 84 83  1  0
 85 84  2  0
 86 85  1  0
 86 81  2  0
 87 88  1  0
 88 93  2  0
 88 89  1  0
 89 90  2  0
 90 91  1  0
 91 95  1  0
 92 91  2  0
 93 92  1  0
 94 93  1  0
 96 97  1  0
 97100  1  0
 97 99  1  0
 98 96  2  0
101 76  1  0
101102  1  0
103101  1  0
104106  1  0
105106  1  0
M  ISO  4  14 101  15 101  66 100  74 100
M  END
>  <TORSDO>  (64) 
F 24

>  <SCORE>  (64) 
-1.983

>  <name>  (64) 
66

>  <ligand_id>  (64) 
66

>  <original_smiles>  (64) 
[H]c1c([H])c([H])c2c(c1[H])C([H])([H])C([H])([H])C([H])([H])C2([H])N([H])C(=O)C1([H])N(C(=O)C([H])(N([H])C(=O)C([H])(N([H])C([H])([H])[H])C([H])([H])[H])C(C([H])([H])[H])(C([H])([H])[H])C([H])([H])[H])C([H])([H])c2c([H])c(OC([H])([H])C([H])([H])N3C([H])([H])C([H])([H])[N+]([H])([H])C([H])(C(=O)N([H])C([H])(C(=O)N([H])N([H])C(=O)C([H])([H])N([H])C(=O)N4C([H])([H])C([H])([H])C([H])([H])C([H])(n5nc(-c6c([H])c([H])c(Oc7c([H])c([H])c(F)c([H])c7F)c([H])c6[H])c(C(=O)N([H])[H])c5N([H])[H])C4([H])[H])C([H])(C([H])([H])[H])C([H])([H])[H])C3([H])[H])c([H])c([H])c2C1([H])[H]

>  <smiles>  (64) 
[H]c1c([H])c([H])c2c(c1[H])C([H])([H])C([H])([H])C([H])([H])C2([H])N([H])C(=O)C1([H])N(C(=O)C([H])(N([H])C(=O)C([H])(N([H])C([H])([H])[H])C([H])([H])[H])C(C([H])([H])[H])(C([H])([H])[H])C([H])([H])[H])C([H])([H])c2c([H])c(OC([H])([H])C([H])([H])N3C([H])([H])C([H])([H])[N+]([H])([H])C([H])(C(=O)N([H])C([H])(C(=O)N([H])N([H])C(=O)C([H])([H])N([H])C(=O)N4C([H])([H])C([H])([H])C([H])([H])C([H])(n5nc(-c6c([H])c([H])c(Oc7c([H])c([H])c(F)c([H])c7F)c([H])c6[H])c(C(=O)N([H])[H])c5N([H])[H])C4([H])[H])C([H])(C([H])([H])[H])C([H])([H])[H])C3([H])[H])c([H])c([H])c2C1([H])[H]

$$$$
67:0:0
     RDKit          3D

 86 93  0  0  1  0  0  0  0  0999 V2000
  -28.8370  -22.7640   20.5210 C   0  0  0  0  0  3  0  0  0  0  0  0
  -29.3040  -19.8370   20.4720 C   0  0  0  0  0  0  0  0  0  0  0  0
  -29.1010  -21.2080   19.9240 N   0  0  0  0  0  0  0  0  0  0  0  0
  -29.0370  -19.7210   21.6680 O   0  0  0  0  0  0  0  0  0  0  0  0
  -29.2830  -21.2270   18.9280 H   0  0  0  0  0  0  0  0  0  0  0  0
  -29.9160  -18.3420   19.7690 C   0  0  0  0  0  2  0  0  0  0  0  0
  -30.5450  -15.4350   19.9120 C   0  0  0  0  0  0  0  0  0  0  0  0
  -30.4730  -13.0020   18.9930 C   0  0  0  0  0  2  0  0  0  0  0  0
  -29.4800  -12.8250   17.8150 C   0  0  0  0  0  2  0  0  0  0  0  0
  -28.0620  -12.5370   18.3380 C   0  0  0  0  0  2  0  0  0  0  0  0
  -27.6820  -13.4660   19.5160 C   0  0  0  0  0  3  0  0  0  0  0  0
  -28.7990  -13.5920   20.5770 C   0  0  0  0  0  2  0  0  0  0  0  0
  -29.9860  -14.1210   19.8860 N   0  0  0  0  0  0  0  0  0  0  0  0
  -31.7310  -15.4470   19.5520 O   0  0  0  0  0  0  0  0  0  0  0  0
  -29.7910  -16.7020   20.1270 N   0  0  0  0  0  0  0  0  0  0  0  0
  -28.8680  -16.4950   20.4780 H   0  0  0  0  0  0  0  0  0  0  0  0
  -25.3690  -13.9960   20.4450 C   0  0  0  0  0  0  0  0  0  0  0  0
  -24.3330  -13.2060   20.8550 C   0  0  0  0  0  0  0  0  0  0  0  0
  -24.7930  -11.8580   20.7430 C   0  0  0  0  0  0  0  0  0  0  0  0
  -26.3910  -13.1300   20.1000 N   0  0  0  0  0  0  0  0  0  0  0  0
  -26.0610  -11.8360   20.3460 N   0  0  0  0  0  0  0  0  0  0  0  0
  -24.0760  -10.5890   20.9320 C   0  0  0  0  0  0  0  0  0  0  0  0
  -24.5270   -9.6140   21.8480 C   0  0  0  0  0  3  0  0  0  0  0  0
  -23.8060   -8.4140   22.0280 C   0  0  0  0  0  3  0  0  0  0  0  0
  -22.6190   -8.1800   21.2940 C   0  0  0  0  0  0  0  0  0  0  0  0
  -22.1860   -9.1460   20.3670 C   0  0  0  0  0  3  0  0  0  0  0  0
  -22.9080  -10.3370   20.1840 C   0  0  0  0  0  3  0  0  0  0  0  0
  -21.8680   -7.0330   21.3840 O   0  0  0  0  0  0  0  0  0  0  0  0
  -21.8000   -6.3070   22.5460 C   0  0  0  0  0  0  0  0  0  0  0  0
  -21.3120   -6.8670   23.7470 C   0  0  0  0  0  3  0  0  0  0  0  0
  -21.1940   -6.0650   24.9000 C   0  0  0  0  0  3  0  0  0  0  0  0
  -21.5530   -4.7060   24.8530 C   0  0  0  0  0  0  0  0  0  0  0  0
  -22.0340   -4.1450   23.6560 C   0  0  0  0  0  3  0  0  0  0  0  0
  -22.1530   -4.9440   22.5060 C   0  0  0  0  0  0  0  0  0  0  0  0
  -22.5970   -4.3930   21.3500 F   0  0  0  0  0  0  0  0  0  0  0  0
  -21.4340   -3.9340   25.9590 F   0  0  0  0  0  0  0  0  0  0  0  0
  -22.9580  -13.6740   21.2300 C   0  0  0  0  0  0  0  0  0  0  0  0
  -22.2850  -12.9510   22.1170 N   0  0  0  0  0  0  0  0  0  0  0  0
  -22.4910  -14.7170   20.7720 O   0  0  0  0  0  0  0  0  0  0  0  0
  -22.6760  -12.1070   22.5080 H   0  0  0  0  0  0  0  0  0  0  0  0
  -21.3640  -13.2450   22.4110 H   0  0  0  0  0  0  0  0  0  0  0  0
  -25.5210  -15.3730   20.3060 N   0  0  0  0  0  0  0  0  0  0  0  0
  -24.7590  -16.0170   20.4850 H   0  0  0  0  0  0  0  0  0  0  0  0
  -26.3290  -15.8220   19.8970 H   0  0  0  0  0  0  0  0  0  0  0  0
  -28.1150  -24.3050   19.8790 C   0  0  0  0  0  3  0  0  0  0  0  0
  -28.1940  -25.9180   20.2780 O   0  0  0  0  0  0  0  0  0  0  0  0
  -24.5950  -31.8880   23.1940 C   0  0  0  0  0  0  0  0  0  0  0  0
  -27.1750  -27.0110   20.1740 C   0  0  0  0  0  0  0  0  0  0  0  0
  -23.4050  -30.4810   21.5610 C   0  0  0  0  0  3  0  0  0  0  0  0
  -24.8610  -28.8830   20.1320 C   0  0  0  0  0  0  0  0  0  0  0  0
  -25.9690  -30.7060   21.4070 C   0  0  0  0  0  2  0  0  0  0  0  0
  -26.0460  -29.2950   20.7520 C   0  0  0  0  0  0  0  0  0  0  0  0
  -27.1940  -28.3790   20.7500 C   0  0  0  0  0  3  0  0  0  0  0  0
  -25.9610  -26.7580   19.4960 C   0  0  0  0  0  3  0  0  0  0  0  0
  -24.8440  -27.6370   19.4830 C   0  0  0  0  0  3  0  0  0  0  0  0
  -23.6350  -29.7950   20.1850 C   0  0  0  0  0  2  0  0  0  0  0  0
  -24.6780  -31.0530   22.1080 N   0  0  0  0  0  0  0  0  0  0  0  0
  -23.5050  -32.1710   23.7190 O   0  0  0  0  0  0  0  0  0  0  0  0
  -22.7210  -29.4820   22.5320 C   0  0  0  0  0  0  0  0  0  0  0  0
  -21.3910  -29.3080   22.4130 N   0  0  0  0  0  0  0  0  0  0  0  0
  -23.3930  -28.8650   23.3630 O   0  0  0  0  0  0  0  0  0  0  0  0
  -20.9010  -29.8570   21.7200 H   0  0  0  0  0  0  0  0  0  0  0  0
  -18.0190  -28.0780   22.9440 C   0  0  0  0  0  0  0  0  0  0  0  0
  -20.5790  -28.3650   23.1900 C   0  0  0  0  0  3  0  0  0  0  0  0
  -20.6870  -26.9330   22.6150 C   0  0  0  0  0  2  0  0  0  0  0  0
  -19.5810  -26.6030   21.6070 C   0  0  0  0  0  2  0  0  0  0  0  0
  -18.2020  -26.7330   22.2610 C   0  0  0  0  0  2  0  0  0  0  0  0
  -19.1340  -28.8510   23.3650 C   0  0  0  0  0  0  0  0  0  0  0  0
  -18.9060  -30.1080   23.9670 C   0  0  0  0  0  3  0  0  0  0  0  0
  -17.5960  -30.5930   24.1480 C   0  0  0  0  0  3  0  0  0  0  0  0
  -16.4970  -29.8180   23.7400 C   0  0  0  0  0  3  0  0  0  0  0  0
  -16.7080  -28.5620   23.1440 C   0  0  0  0  0  3  0  0  0  0  0  0
  -25.8630  -32.5410   23.8220 C   0  0  0  0  0  3  0  0  0  0  0  0
  -26.3680  -31.7940   25.1190 C   0  0  1  0  0  0  0  0  0  0  0  0
  -25.2640  -31.5700   26.1790 C   0  0  0  0  0  1  0  0  0  0  0  0
  -26.9610  -30.4120   24.7640 C   0  0  0  0  0  1  0  0  0  0  0  0
  -27.5080  -32.6040   25.7790 C   0  0  0  0  0  1  0  0  0  0  0  0
  -25.5400  -33.9440   24.1420 N   0  0  0  0  0  0  0  0  0  0  0  0
  -25.8640  -35.0000   23.3830 C   0  0  0  0  0  0  0  0  0  0  0  0
  -26.5290  -34.8960   22.3480 O   0  0  0  0  0  0  0  0  0  0  0  0
  -24.9480  -34.0970   24.9440 H   0  0  0  0  0  0  0  0  0  0  0  0
  -24.1290  -36.7940   23.0420 C   0  0  0  0  0  1  0  0  0  0  0  0
  -25.3790  -36.3910   23.8420 C   0  0  0  0  0  3  0  0  0  0  0  0
  -27.5130  -37.2930   24.6600 C   0  0  0  0  0  1  0  0  0  0  0  0
  -26.4080  -37.4470   23.7170 N   0  0  0  0  0  0  0  0  0  0  0  0
  -25.9980  -38.3670   23.8570 H   0  0  0  0  0  0  0  0  0  0  0  0
  2  4  2  0
  3  2  1  0
  3  1  1  0
  5  3  1  0
  6 15  1  0
  6  2  1  0
  7 15  1  0
  8 13  1  0
  9 10  1  0
  9  8  1  0
 11 10  1  0
 11 20  1  0
 11 12  1  0
 13  7  1  0
 13 12  1  0
 14  7  2  0
 15 16  1  0
 17 18  2  0
 18 37  1  0
 19 18  1  0
 19 22  1  0
 20 21  1  0
 20 17  1  0
 21 19  2  0
 22 23  1  0
 23 24  2  0
 25 28  1  0
 25 24  1  0
 26 25  2  0
 27 26  1  0
 27 22  2  0
 28 29  1  0
 29 30  1  0
 30 31  2  0
 32 31  1  0
 32 36  1  0
 33 32  2  0
 34 29  2  0
 34 33  1  0
 35 34  1  0
 37 38  1  0
 38 41  1  0
 38 40  1  0
 39 37  2  0
 42 17  1  0
 42 43  1  0
 44 42  1  0
 45 46  1  0
 45  1  2  0
 47 58  2  0
 48 46  1  0
 48 53  1  0
 49 57  1  0
 49 59  1  0
 50 56  1  0
 50 52  1  0
 51 57  1  0
 52 51  1  0
 53 52  2  0
 54 48  2  0
 55 54  1  0
 55 50  2  0
 56 49  1  0
 57 47  1  0
 59 61  2  0
 60 59  1  0
 62 60  1  0
 63 72  2  0
 63 68  1  0
 64 60  1  0
 64 68  1  0
 65 64  1  0
 66 67  1  0
 66 65  1  0
 67 63  1  0
 68 69  2  0
 69 70  1  0
 71 70  2  0
 72 71  1  0
 73 47  1  0
 73 78  1  0
 73 74  1  0
 74 77  1  1
 74 75  1  0
 76 74  1  0
 78 81  1  0
 79 83  1  0
 79 78  1  0
 80 79  2  0
 83 82  1  0
 85 83  1  0
 85 86  1  0
 85 84  1  0
M  ISO  4   7 100  15 100  45 101  46 101
M  END
>  <TORSDO>  (65) 
F 19

>  <SCORE>  (65) 
-15.612

>  <name>  (65) 
67

>  <ligand_id>  (65) 
67

>  <original_smiles>  (65) 
[H]c1c([H])c([H])c2c(c1[H])C([H])([H])C([H])([H])C([H])([H])C2([H])N([H])C(=O)C1([H])N(C(=O)C([H])(N([H])C(=O)C([H])(N([H])C([H])([H])[H])C([H])([H])[H])C(C([H])([H])[H])(C([H])([H])[H])C([H])([H])[H])C([H])([H])c2c([H])c(OC([H])([H])C([H])([H])N([H])C(=O)C([H])([H])N([H])C(=O)N3C([H])([H])C([H])([H])C([H])([H])C([H])(n4nc(-c5c([H])c([H])c(Oc6c([H])c([H])c(F)c([H])c6F)c([H])c5[H])c(C(=O)N([H])[H])c4N([H])[H])C3([H])[H])c([H])c([H])c2C1([H])[H]

>  <smiles>  (65) 
[H]c1c([H])c([H])c2c(c1[H])C([H])([H])C([H])([H])C([H])([H])C2([H])N([H])C(=O)C1([H])N(C(=O)C([H])(N([H])C(=O)C([H])(N([H])C([H])([H])[H])C([H])([H])[H])C(C([H])([H])[H])(C([H])([H])[H])C([H])([H])[H])C([H])([H])c2c([H])c(OC([H])([H])C([H])([H])N([H])C(=O)C([H])([H])N([H])C(=O)N3C([H])([H])C([H])([H])C([H])([H])C([H])(n4nc(-c5c([H])c([H])c(Oc6c([H])c([H])c(F)c([H])c6F)c([H])c5[H])c(C(=O)N([H])[H])c4N([H])[H])C3([H])[H])c([H])c([H])c2C1([H])[H]

$$$$
68:0:0
     RDKit          3D

 92 99  0  0  1  0  0  0  0  0999 V2000
  -29.6460  -22.4430   21.8010 C   0  0  0  0  0  2  0  0  0  0  0  0
  -29.4250  -24.5830   20.5140 C   0  0  0  0  0  0  0  0  0  0  0  0
  -28.9420  -23.4230   20.9790 N   0  0  0  0  0  0  0  0  0  0  0  0
  -30.5680  -24.9780   20.7650 O   0  0  0  0  0  0  0  0  0  0  0  0
  -27.9890  -23.1950   20.7270 H   0  0  0  0  0  0  0  0  0  0  0  0
  -28.4770  -25.4150   19.6400 C   0  0  0  0  0  2  0  0  0  0  0  0
  -28.4090  -26.7590   20.1370 O   0  0  0  0  0  0  0  0  0  0  0  0
  -24.5590  -31.8690   23.2340 C   0  0  0  0  0  0  0  0  0  0  0  0
  -27.2100  -27.4440   20.1190 C   0  0  0  0  0  0  0  0  0  0  0  0
  -23.3540  -30.4680   21.5920 C   0  0  0  0  0  3  0  0  0  0  0  0
  -24.8050  -28.9430   20.1600 C   0  0  0  0  0  0  0  0  0  0  0  0
  -25.8800  -30.8300   21.3930 C   0  0  0  0  0  2  0  0  0  0  0  0
  -25.9640  -29.4620   20.7500 C   0  0  0  0  0  0  0  0  0  0  0  0
  -27.1630  -28.7170   20.7320 C   0  0  0  0  0  3  0  0  0  0  0  0
  -26.0270  -26.9450   19.5170 C   0  0  0  0  0  3  0  0  0  0  0  0
  -24.8320  -27.6820   19.5460 C   0  0  0  0  0  3  0  0  0  0  0  0
  -23.5620  -29.7990   20.2090 C   0  0  0  0  0  2  0  0  0  0  0  0
  -24.6160  -31.0710   22.1310 N   0  0  0  0  0  0  0  0  0  0  0  0
  -23.4780  -32.1380   23.7770 O   0  0  0  0  0  0  0  0  0  0  0  0
  -22.7100  -29.4400   22.5480 C   0  0  0  0  0  0  0  0  0  0  0  0
  -21.3870  -29.2520   22.4210 N   0  0  0  0  0  0  0  0  0  0  0  0
  -23.3970  -28.8150   23.3610 O   0  0  0  0  0  0  0  0  0  0  0  0
  -20.8960  -29.8080   21.7330 H   0  0  0  0  0  0  0  0  0  0  0  0
  -18.0160  -28.0420   22.9070 C   0  0  0  0  0  0  0  0  0  0  0  0
  -20.5720  -28.3110   23.1870 C   0  0  0  0  0  3  0  0  0  0  0  0
  -20.6830  -26.8810   22.6110 C   0  0  0  0  0  2  0  0  0  0  0  0
  -19.5860  -26.5530   21.5930 C   0  0  0  0  0  2  0  0  0  0  0  0
  -18.2010  -26.6920   22.2330 C   0  0  0  0  0  2  0  0  0  0  0  0
  -19.1300  -28.8090   23.3400 C   0  0  0  0  0  0  0  0  0  0  0  0
  -18.9040  -30.0710   23.9300 C   0  0  0  0  0  3  0  0  0  0  0  0
  -17.5960  -30.5680   24.0910 C   0  0  0  0  0  3  0  0  0  0  0  0
  -16.4980  -29.7980   23.6740 C   0  0  0  0  0  3  0  0  0  0  0  0
  -16.7080  -28.5360   23.0880 C   0  0  0  0  0  3  0  0  0  0  0  0
  -25.8450  -32.5010   23.8540 C   0  0  0  0  0  3  0  0  0  0  0  0
  -25.5310  -33.8960   24.1920 N   0  0  0  0  0  0  0  0  0  0  0  0
  -25.8580  -34.9530   23.4370 C   0  0  0  0  0  0  0  0  0  0  0  0
  -26.5270  -34.8580   22.4050 O   0  0  0  0  0  0  0  0  0  0  0  0
  -24.9370  -34.0440   24.9940 H   0  0  0  0  0  0  0  0  0  0  0  0
  -24.1190  -36.7370   23.0930 C   0  0  0  0  0  1  0  0  0  0  0  0
  -25.3640  -36.3350   23.9010 C   0  0  0  0  0  3  0  0  0  0  0  0
  -27.4960  -37.2250   24.7370 C   0  0  0  0  0  1  0  0  0  0  0  0
  -26.3920  -37.3950   23.7950 N   0  0  0  0  0  0  0  0  0  0  0  0
  -25.9810  -38.3120   23.9500 H   0  0  0  0  0  0  0  0  0  0  0  0
  -26.3720  -31.7240   25.1210 C   0  0  1  0  0  0  0  0  0  0  0  0
  -25.2870  -31.4760   26.1930 C   0  0  0  0  0  1  0  0  0  0  0  0
  -26.9570  -30.3530   24.7150 C   0  0  0  0  0  1  0  0  0  0  0  0
  -27.5230  -32.5190   25.7840 C   0  0  0  0  0  1  0  0  0  0  0  0
  -30.6010  -21.5670   20.9650 C   0  0  0  0  0  2  0  0  0  0  0  0
  -29.9000  -19.2170   21.3340 C   0  0  0  0  0  0  0  0  0  0  0  0
  -30.7640  -20.2240   21.5230 N   0  0  0  0  0  0  0  0  0  0  0  0
  -28.8110  -19.3850   20.7830 O   0  0  0  0  0  0  0  0  0  0  0  0
  -31.6310  -20.0250   22.0070 H   0  0  0  0  0  0  0  0  0  0  0  0
  -30.3100  -17.8080   21.7840 C   0  0  0  0  0  2  0  0  0  0  0  0
  -30.4500  -16.8660   20.5680 C   0  0  0  0  0  2  0  0  0  0  0  0
  -30.8050  -14.4450   20.2330 C   0  0  0  0  0  0  0  0  0  0  0  0
  -30.3990  -12.3480   19.0240 C   0  0  0  0  0  2  0  0  0  0  0  0
  -29.4310  -12.6280   17.8560 C   0  0  0  0  0  2  0  0  0  0  0  0
  -27.9680  -12.5090   18.3250 C   0  0  0  0  0  2  0  0  0  0  0  0
  -27.6870  -13.3090   19.6250 C   0  0  0  0  0  3  0  0  0  0  0  0
  -28.7690  -13.0250   20.6950 C   0  0  0  0  0  2  0  0  0  0  0  0
  -30.0910  -13.2990   20.1020 N   0  0  0  0  0  0  0  0  0  0  0  0
  -31.8900  -14.6310   19.6730 O   0  0  0  0  0  0  0  0  0  0  0  0
  -30.1810  -15.4500   20.8610 N   0  0  0  0  0  0  0  0  0  0  0  0
  -29.3070  -15.2250   21.3130 H   0  0  0  0  0  0  0  0  0  0  0  0
  -25.3100  -13.9380   20.3920 C   0  0  0  0  0  0  0  0  0  0  0  0
  -24.2430  -13.1750   20.7890 C   0  0  0  0  0  0  0  0  0  0  0  0
  -24.6920  -11.8190   20.7470 C   0  0  0  0  0  0  0  0  0  0  0  0
  -26.3410  -13.0470   20.1350 N   0  0  0  0  0  0  0  0  0  0  0  0
  -25.9730  -11.7680   20.4030 N   0  0  0  0  0  0  0  0  0  0  0  0
  -23.9610  -10.5630   20.9600 C   0  0  0  0  0  0  0  0  0  0  0  0
  -24.4100   -9.5930   21.8820 C   0  0  0  0  0  3  0  0  0  0  0  0
  -23.6800   -8.4030   22.0820 C   0  0  0  0  0  3  0  0  0  0  0  0
  -22.4860   -8.1730   21.3570 C   0  0  0  0  0  0  0  0  0  0  0  0
  -22.0550   -9.1320   20.4230 C   0  0  0  0  0  3  0  0  0  0  0  0
  -22.7870  -10.3130   20.2230 C   0  0  0  0  0  3  0  0  0  0  0  0
  -21.7290   -7.0320   21.4640 O   0  0  0  0  0  0  0  0  0  0  0  0
  -21.7000   -6.2910   22.6180 C   0  0  0  0  0  0  0  0  0  0  0  0
  -21.3180   -6.8530   23.8550 C   0  0  0  0  0  3  0  0  0  0  0  0
  -21.2350   -6.0400   25.0030 C   0  0  0  0  0  3  0  0  0  0  0  0
  -21.5260   -4.6660   24.9160 C   0  0  0  0  0  0  0  0  0  0  0  0
  -21.9020   -4.1040   23.6850 C   0  0  0  0  0  3  0  0  0  0  0  0
  -21.9860   -4.9140   22.5390 C   0  0  0  0  0  0  0  0  0  0  0  0
  -22.3290   -4.3620   21.3500 F   0  0  0  0  0  0  0  0  0  0  0  0
  -21.4380   -3.8830   26.0170 F   0  0  0  0  0  0  0  0  0  0  0  0
  -22.8590  -13.6670   21.0980 C   0  0  0  0  0  0  0  0  0  0  0  0
  -22.1480  -12.9810   21.9870 N   0  0  0  0  0  0  0  0  0  0  0  0
  -22.4160  -14.6960   20.5880 O   0  0  0  0  0  0  0  0  0  0  0  0
  -22.5200  -12.1520   22.4250 H   0  0  0  0  0  0  0  0  0  0  0  0
  -21.2220  -13.2940   22.2360 H   0  0  0  0  0  0  0  0  0  0  0  0
  -25.4830  -15.3070   20.2120 N   0  0  0  0  0  0  0  0  0  0  0  0
  -24.7270  -15.9690   20.3450 H   0  0  0  0  0  0  0  0  0  0  0  0
  -26.3330  -15.7360   19.8700 H   0  0  0  0  0  0  0  0  0  0  0  0
  2  4  2  0
  2  3  1  0
  3  1  1  0
  5  3  1  0
  6  7  1  0
  6  2  1  0
  8 19  2  0
  9  7  1  0
  9 14  1  0
 10 18  1  0
 10 20  1  0
 11 17  1  0
 11 13  1  0
 12 18  1  0
 13 12  1  0
 14 13  2  0
 15 16  1  0
 15  9  2  0
 16 11  2  0
 17 10  1  0
 18  8  1  0
 20 22  2  0
 21 20  1  0
 23 21  1  0
 24 33  2  0
 24 29  1  0
 25 21  1  0
 25 29  1  0
 26 25  1  0
 27 28  1  0
 27 26  1  0
 28 24  1  0
 29 30  2  0
 30 31  1  0
 32 31  2  0
 33 32  1  0
 34  8  1  0
 34 35  1  0
 34 44  1  0
 35 38  1  0
 36 40  1  0
 36 35  1  0
 37 36  2  0
 40 39  1  0
 42 40  1  0
 42 43  1  0
 42 41  1  0
 44 47  1  1
 44 45  1  0
 46 44  1  0
 48 50  1  0
 48  1  1  0
 49 50  1  0
 49 53  1  0
 50 52  1  0
 51 49  2  0
 54 63  1  0
 54 53  1  0
 55 63  1  0
 56 61  1  0
 57 58  1  0
 57 56  1  0
 59 58  1  0
 59 68  1  0
 59 60  1  0
 61 55  1  0
 61 60  1  0
 62 55  2  0
 63 64  1  0
 65 66  2  0
 66 85  1  0
 67 66  1  0
 67 70  1  0
 68 65  1  0
 68 69  1  0
 69 67  2  0
 70 71  1  0
 71 72  2  0
 73 76  1  0
 73 72  1  0
 74 73  2  0
 75 74  1  0
 75 70  2  0
 76 77  1  0
 77 78  1  0
 78 79  2  0
 80 79  1  0
 80 84  1  0
 81 80  2  0
 82 77  2  0
 82 81  1  0
 83 82  1  0
 85 86  1  0
 86 89  1  0
 86 88  1  0
 87 85  2  0
 90 91  1  0
 90 65  1  0
 92 90  1  0
M  ISO  4   6 101   7 101  55 100  63 100
M  END
>  <TORSDO>  (66) 
F 22

>  <SCORE>  (66) 
-12.881

>  <name>  (66) 
68

>  <ligand_id>  (66) 
68

>  <original_smiles>  (66) 
[H]c1c([H])c([H])c2c(c1[H])C([H])([H])C([H])([H])C([H])([H])C2([H])N([H])C(=O)C1([H])N(C(=O)C([H])(N([H])C(=O)C([H])(N([H])C([H])([H])[H])C([H])([H])[H])C(C([H])([H])[H])(C([H])([H])[H])C([H])([H])[H])C([H])([H])c2c([H])c(OC([H])([H])C(=O)N([H])C([H])([H])C([H])([H])N([H])C(=O)C([H])([H])C([H])([H])N([H])C(=O)N3C([H])([H])C([H])([H])C([H])([H])C([H])(n4nc(-c5c([H])c([H])c(Oc6c([H])c([H])c(F)c([H])c6F)c([H])c5[H])c(C(=O)N([H])[H])c4N([H])[H])C3([H])[H])c([H])c([H])c2C1([H])[H]

>  <smiles>  (66) 
[H]c1c([H])c([H])c2c(c1[H])C([H])([H])C([H])([H])C([H])([H])C2([H])N([H])C(=O)C1([H])N(C(=O)C([H])(N([H])C(=O)C([H])(N([H])C([H])([H])[H])C([H])([H])[H])C(C([H])([H])[H])(C([H])([H])[H])C([H])([H])[H])C([H])([H])c2c([H])c(OC([H])([H])C(=O)N([H])C([H])([H])C([H])([H])N([H])C(=O)C([H])([H])C([H])([H])N([H])C(=O)N3C([H])([H])C([H])([H])C([H])([H])C([H])(n4nc(-c5c([H])c([H])c(Oc6c([H])c([H])c(F)c([H])c6F)c([H])c5[H])c(C(=O)N([H])[H])c4N([H])[H])C3([H])[H])c([H])c([H])c2C1([H])[H]

$$$$
69:0:0
     RDKit          3D

 88 92  0  0  1  0  0  0  0  0999 V2000
  -28.6980  -21.5150   20.4820 C   0  0  0  0  0  1  0  0  0  0  0  0
  -28.1390  -23.1980   19.8800 N   0  0  0  0  0  2  0  0  0  0  0  0
  -27.3410  -23.0840   19.2590 H   0  0  0  0  0  0  0  0  0  0  0  0
  -28.1410  -25.1390   20.4110 O   0  0  0  0  0  1  0  0  0  0  0  0
  -24.6660  -31.8570   23.1260 C   0  0  0  0  0  0  0  0  0  0  0  0
  -27.1870  -26.4700   20.2610 C   0  0  0  0  0  0  0  0  0  0  0  0
  -23.4920  -30.4210   21.5150 C   0  0  0  0  0  3  0  0  0  0  0  0
  -24.9440  -28.6890   20.1480 C   0  0  0  0  0  0  0  0  0  0  0  0
  -26.0810  -30.4750   21.4350 C   0  0  0  0  0  2  0  0  0  0  0  0
  -26.1400  -28.9990   20.8040 C   0  0  0  0  0  0  0  0  0  0  0  0
  -27.2220  -27.9240   20.8260 C   0  0  0  0  0  3  0  0  0  0  0  0
  -25.9600  -26.4500   19.5250 C   0  0  0  0  0  3  0  0  0  0  0  0
  -24.9110  -27.4450   19.4840 C   0  0  0  0  0  3  0  0  0  0  0  0
  -23.7480  -29.6750   20.1680 C   0  0  0  0  0  2  0  0  0  0  0  0
  -24.7730  -30.9600   22.0750 N   0  0  0  0  0  0  0  0  0  0  0  0
  -23.5650  -32.1790   23.6130 O   0  0  0  0  0  0  0  0  0  0  0  0
  -22.7460  -29.4900   22.5130 C   0  0  0  0  0  0  0  0  0  0  0  0
  -21.4090  -29.3560   22.3970 N   0  0  0  0  0  0  0  0  0  0  0  0
  -23.3890  -28.8790   23.3700 O   0  0  0  0  0  0  0  0  0  0  0  0
  -20.9360  -29.8970   21.6870 H   0  0  0  0  0  0  0  0  0  0  0  0
  -18.0100  -28.1800   22.9600 C   0  0  0  0  0  0  0  0  0  0  0  0
  -20.5750  -28.4400   23.1890 C   0  0  0  0  0  3  0  0  0  0  0  0
  -20.6590  -26.9980   22.6350 C   0  0  0  0  0  2  0  0  0  0  0  0
  -19.5480  -26.6710   21.6330 C   0  0  0  0  0  2  0  0  0  0  0  0
  -18.1730  -26.8270   22.2880 C   0  0  0  0  0  2  0  0  0  0  0  0
  -19.1370  -28.9440   23.3670 C   0  0  0  0  0  0  0  0  0  0  0  0
  -18.9250  -30.2070   23.9620 C   0  0  0  0  0  3  0  0  0  0  0  0
  -17.6220  -30.7070   24.1490 C   0  0  0  0  0  3  0  0  0  0  0  0
  -16.5120  -29.9420   23.7530 C   0  0  0  0  0  3  0  0  0  0  0  0
  -16.7060  -28.6790   23.1640 C   0  0  0  0  0  3  0  0  0  0  0  0
  -25.9140  -32.5360   23.7680 C   0  0  0  0  0  3  0  0  0  0  0  0
  -26.4040  -31.8080   25.0820 C   0  0  1  0  0  0  0  0  0  0  0  0
  -25.2860  -31.5920   26.1310 C   0  0  0  0  0  1  0  0  0  0  0  0
  -27.0080  -30.4240   24.7620 C   0  0  0  0  0  1  0  0  0  0  0  0
  -27.5310  -32.6300   25.7490 C   0  0  0  0  0  1  0  0  0  0  0  0
  -25.5780  -33.9420   24.0850 N   0  0  0  0  0  0  0  0  0  0  0  0
  -25.9140  -35.0100   23.3470 C   0  0  0  0  0  0  0  0  0  0  0  0
  -26.5890  -34.9160   22.3200 O   0  0  0  0  0  0  0  0  0  0  0  0
  -24.9730  -34.0870   24.8800 H   0  0  0  0  0  0  0  0  0  0  0  0
  -24.1890  -36.8210   23.0130 C   0  0  0  0  0  1  0  0  0  0  0  0
  -25.4300  -36.4010   23.8180 C   0  0  0  0  0  3  0  0  0  0  0  0
  -27.5600  -37.2940   24.6600 C   0  0  0  0  0  1  0  0  0  0  0  0
  -26.4630  -37.4560   23.7090 N   0  0  0  0  0  0  0  0  0  0  0  0
  -26.0550  -38.3760   23.8510 H   0  0  0  0  0  0  0  0  0  0  0  0
  -29.4110  -19.5740   19.9130 C   0  0  0  0  0  1  0  0  0  0  0  0
  -30.1520  -16.1750   20.1130 C   0  0  0  0  0  0  0  0  0  0  0  0
  -30.3560  -13.5230   19.3290 C   0  0  0  0  0  2  0  0  0  0  0  0
  -29.4940  -12.9330   18.1590 C   0  0  0  0  0  2  0  0  0  0  0  0
  -28.1180  -12.4750   18.6520 C   0  0  0  0  0  2  0  0  0  0  0  0
  -27.5660  -13.4870   19.6760 C   0  0  0  0  0  3  0  0  0  0  0  0
  -28.5840  -13.9660   20.7520 C   0  0  0  0  0  2  0  0  0  0  0  0
  -29.6780  -14.7300   20.0670 N   0  0  0  0  0  0  0  0  0  0  0  0
  -31.3730  -16.0470   19.8540 O   0  0  0  0  0  0  0  0  0  0  0  0
  -29.4460  -17.6720   20.2870 N   0  0  0  0  0  2  0  0  0  0  0  0
  -28.5150  -17.4560   20.6110 H   0  0  0  0  0  0  0  0  0  0  0  0
  -25.2290  -13.9570   20.5150 C   0  0  0  0  0  0  0  0  0  0  0  0
  -24.1840  -13.1630   20.8870 C   0  0  0  0  0  0  0  0  0  0  0  0
  -24.6600  -11.8170   20.8110 C   0  0  0  0  0  0  0  0  0  0  0  0
  -26.2730  -13.1030   20.2260 N   0  0  0  0  0  0  0  0  0  0  0  0
  -25.9480  -11.8030   20.4670 N   0  0  0  0  0  0  0  0  0  0  0  0
  -23.9380  -10.5480   20.9890 C   0  0  0  0  0  0  0  0  0  0  0  0
  -24.3770   -9.5650   21.9030 C   0  0  0  0  0  3  0  0  0  0  0  0
  -23.6470   -8.3680   22.0740 C   0  0  0  0  0  3  0  0  0  0  0  0
  -22.4630   -8.1450   21.3320 C   0  0  0  0  0  0  0  0  0  0  0  0
  -22.0420   -9.1160   20.4080 C   0  0  0  0  0  3  0  0  0  0  0  0
  -22.7720  -10.3050   20.2340 C   0  0  0  0  0  3  0  0  0  0  0  0
  -21.7050   -7.0010   21.4130 O   0  0  0  0  0  0  0  0  0  0  0  0
  -21.6550   -6.2490   22.5600 C   0  0  0  0  0  0  0  0  0  0  0  0
  -21.2070   -6.7880   23.7850 C   0  0  0  0  0  3  0  0  0  0  0  0
  -21.1070   -5.9630   24.9230 C   0  0  0  0  0  3  0  0  0  0  0  0
  -21.4440   -4.5980   24.8360 C   0  0  0  0  0  0  0  0  0  0  0  0
  -21.8860   -4.0580   23.6150 C   0  0  0  0  0  3  0  0  0  0  0  0
  -21.9880   -4.8810   22.4800 C   0  0  0  0  0  0  0  0  0  0  0  0
  -22.3930   -4.3510   21.3010 F   0  0  0  0  0  0  0  0  0  0  0  0
  -21.3420   -3.8030   25.9260 F   0  0  0  0  0  0  0  0  0  0  0  0
  -22.7920  -13.6300   21.1930 C   0  0  0  0  0  0  0  0  0  0  0  0
  -22.0800  -12.9110   22.0530 N   0  0  0  0  0  0  0  0  0  0  0  0
  -22.3480  -14.6690   20.7070 O   0  0  0  0  0  0  0  0  0  0  0  0
  -22.4550  -12.0710   22.4670 H   0  0  0  0  0  0  0  0  0  0  0  0
  -21.1470  -13.2070   22.3010 H   0  0  0  0  0  0  0  0  0  0  0  0
  -25.3760  -15.3330   20.3620 N   0  0  0  0  0  0  0  0  0  0  0  0
  -24.6030  -15.9760   20.4990 H   0  0  0  0  0  0  0  0  0  0  0  0
  -26.2060  -15.7820   19.9980 H   0  0  0  0  0  0  0  0  0  0  0  0
  -30.7560  -19.8650   19.2270 C   0  0  0  0  0  0  0  0  0  0  0  0
  -31.6830  -18.9150   19.1990 N   0  0  0  0  0  0  0  0  0  0  0  0
  -30.9710  -20.9510   18.6950 O   0  0  0  0  0  0  0  0  0  0  0  0
  -31.5050  -18.0140   19.6330 H   0  0  0  0  0  0  0  0  0  0  0  0
  -32.5710  -19.0800   18.7500 H   0  0  0  0  0  0  0  0  0  0  0  0
  2  1  1  0
  3  2  1  0
  5 16  2  0
  6  4  1  0
  6 11  1  0
  7 15  1  0
  7 17  1  0
  8 14  1  0
  8 10  1  0
  9 15  1  0
 10 11  2  0
 10  9  1  0
 12  6  2  0
 13 12  1  0
 13  8  2  0
 14  7  1  0
 15  5  1  0
 17 19  2  0
 18 17  1  0
 20 18  1  0
 21 30  2  0
 21 26  1  0
 22 18  1  0
 22 26  1  0
 23 22  1  0
 24 25  1  0
 24 23  1  0
 25 21  1  0
 26 27  2  0
 27 28  1  0
 29 28  2  0
 30 29  1  0
 31  5  1  0
 31 36  1  0
 31 32  1  0
 32 35  1  1
 32 33  1  0
 34 32  1  0
 36 39  1  0
 37 41  1  0
 37 36  1  0
 38 37  2  0
 41 40  1  0
 43 41  1  0
 43 44  1  0
 43 42  1  0
 46 54  1  0
 47 52  1  0
 48 49  1  0
 48 47  1  0
 50 49  1  0
 50 59  1  0
 50 51  1  0
 52 46  1  0
 52 51  1  0
 53 46  2  0
 54 55  1  0
 56 57  2  0
 57 76  1  0
 58 57  1  0
 58 61  1  0
 59 60  1  0
 59 56  1  0
 60 58  2  0
 61 62  1  0
 62 63  2  0
 64 67  1  0
 64 63  1  0
 65 64  2  0
 66 65  1  0
 66 61  2  0
 67 68  1  0
 68 69  1  0
 69 70  2  0
 71 70  1  0
 71 75  1  0
 72 71  2  0
 73 68  2  0
 73 72  1  0
 74 73  1  0
 76 77  1  0
 77 80  1  0
 77 79  1  0
 78 76  2  0
 81 82  1  0
 81 56  1  0
 83 81  1  0
 84 45  1  0
 85 84  1  0
 85 87  1  0
 86 84  2  0
 88 85  1  0
M  ISO  4   2 101   4 101  46 100  54 100
M  END
>  <TORSDO>  (67) 
F 19

>  <SCORE>  (67) 
-16.046

>  <name>  (67) 
69

>  <ligand_id>  (67) 
69

>  <original_smiles>  (67) 
[H]c1c([H])c([H])c2c(c1[H])C([H])([H])C([H])([H])C([H])([H])C2([H])N([H])C(=O)C1([H])N(C(=O)C([H])(N([H])C(=O)C([H])(N([H])C([H])([H])[H])C([H])([H])[H])C(C([H])([H])[H])(C([H])([H])[H])C([H])([H])[H])C([H])([H])c2c([H])c(ON([H])C([H])([H])C([H])(C(=O)N([H])[H])N([H])C(=O)N3C([H])([H])C([H])([H])C([H])([H])C([H])(n4nc(-c5c([H])c([H])c(Oc6c([H])c([H])c(F)c([H])c6F)c([H])c5[H])c(C(=O)N([H])[H])c4N([H])[H])C3([H])[H])c([H])c([H])c2C1([H])[H]

>  <smiles>  (67) 
[H]c1c([H])c([H])c2c(c1[H])C([H])([H])C([H])([H])C([H])([H])C2([H])N([H])C(=O)C1([H])N(C(=O)C([H])(N([H])C(=O)C([H])(N([H])C([H])([H])[H])C([H])([H])[H])C(C([H])([H])[H])(C([H])([H])[H])C([H])([H])[H])C([H])([H])c2c([H])c(ON([H])C([H])([H])C([H])(C(=O)N([H])[H])N([H])C(=O)N3C([H])([H])C([H])([H])C([H])([H])C([H])(n4nc(-c5c([H])c([H])c(Oc6c([H])c([H])c(F)c([H])c6F)c([H])c5[H])c(C(=O)N([H])[H])c4N([H])[H])C3([H])[H])c([H])c([H])c2C1([H])[H]

$$$$
70:0:0
     RDKit          3D

103110  0  0  1  0  0  0  0  0999 V2000
  -29.9500  -20.4500   19.2740 C   0  0  0  0  0  3  0  0  0  0  0  0
  -30.1770  -17.9590   19.7480 C   0  0  0  0  0  0  0  0  0  0  0  0
  -30.4900  -19.2570   19.9650 N   0  0  0  0  0  0  0  0  0  0  0  0
  -29.2960  -17.6240   18.9520 O   0  0  0  0  0  0  0  0  0  0  0  0
  -31.1850  -19.4560   20.6720 H   0  0  0  0  0  0  0  0  0  0  0  0
  -30.9870  -16.8700   20.5080 C   0  0  0  0  0  3  0  0  0  0  0  0
  -31.0230  -14.4470   19.7800 C   0  0  0  0  0  0  0  0  0  0  0  0
  -30.5510  -12.3230   18.6130 C   0  0  0  0  0  2  0  0  0  0  0  0
  -29.5210  -12.5740   17.4920 C   0  0  0  0  0  2  0  0  0  0  0  0
  -28.0850  -12.4650   18.0390 C   0  0  0  0  0  2  0  0  0  0  0  0
  -27.8730  -13.2870   19.3400 C   0  0  0  0  0  3  0  0  0  0  0  0
  -29.0100  -13.0270   20.3530 C   0  0  0  0  0  2  0  0  0  0  0  0
  -30.2890  -13.3030   19.6810 N   0  0  0  0  0  0  0  0  0  0  0  0
  -32.1270  -14.5680   19.2460 O   0  0  0  0  0  0  0  0  0  0  0  0
  -30.4200  -15.5070   20.3560 N   0  0  0  0  0  0  0  0  0  0  0  0
  -29.4780  -15.3810   20.6930 H   0  0  0  0  0  0  0  0  0  0  0  0
  -25.5650  -13.9370   20.2750 C   0  0  0  0  0  0  0  0  0  0  0  0
  -24.5080  -13.1850   20.7110 C   0  0  0  0  0  0  0  0  0  0  0  0
  -24.9210  -11.8220   20.6000 C   0  0  0  0  0  0  0  0  0  0  0  0
  -26.5590  -13.0350   19.9270 N   0  0  0  0  0  0  0  0  0  0  0  0
  -26.1810  -11.7550   20.1850 N   0  0  0  0  0  0  0  0  0  0  0  0
  -24.1740  -10.5750   20.8120 C   0  0  0  0  0  0  0  0  0  0  0  0
  -24.5680   -9.6320   21.7860 C   0  0  0  0  0  3  0  0  0  0  0  0
  -23.8230   -8.4500   21.9830 C   0  0  0  0  0  3  0  0  0  0  0  0
  -22.6670   -8.2020   21.2040 C   0  0  0  0  0  0  0  0  0  0  0  0
  -22.2910   -9.1320   20.2200 C   0  0  0  0  0  3  0  0  0  0  0  0
  -23.0380  -10.3060   20.0220 C   0  0  0  0  0  3  0  0  0  0  0  0
  -21.8950   -7.0700   21.3080 O   0  0  0  0  0  0  0  0  0  0  0  0
  -21.7190   -6.4270   22.5070 C   0  0  0  0  0  0  0  0  0  0  0  0
  -21.1370   -7.0720   23.6210 C   0  0  0  0  0  3  0  0  0  0  0  0
  -20.9080   -6.3520   24.8100 C   0  0  0  0  0  3  0  0  0  0  0  0
  -21.2530   -4.9890   24.8870 C   0  0  0  0  0  0  0  0  0  0  0  0
  -21.8270   -4.3460   23.7780 C   0  0  0  0  0  3  0  0  0  0  0  0
  -22.0570   -5.0610   22.5910 C   0  0  0  0  0  0  0  0  0  0  0  0
  -22.5910   -4.4290   21.5170 F   0  0  0  0  0  0  0  0  0  0  0  0
  -21.0250   -4.2970   26.0280 F   0  0  0  0  0  0  0  0  0  0  0  0
  -23.1520  -13.6940   21.1100 C   0  0  0  0  0  0  0  0  0  0  0  0
  -22.4800  -13.0060   22.0280 N   0  0  0  0  0  0  0  0  0  0  0  0
  -22.6980  -14.7370   20.6410 O   0  0  0  0  0  0  0  0  0  0  0  0
  -22.8640  -12.1670   22.4360 H   0  0  0  0  0  0  0  0  0  0  0  0
  -21.5730  -13.3300   22.3320 H   0  0  0  0  0  0  0  0  0  0  0  0
  -25.7550  -15.3070   20.1250 N   0  0  0  0  0  0  0  0  0  0  0  0
  -25.0140  -15.9740   20.3090 H   0  0  0  0  0  0  0  0  0  0  0  0
  -26.5880  -15.7380   19.7390 H   0  0  0  0  0  0  0  0  0  0  0  0
  -29.9640  -17.7230   22.7280 C   0  0  0  0  0  1  0  0  0  0  0  0
  -31.7950  -15.9830   22.7800 C   0  0  0  0  0  1  0  0  0  0  0  0
  -31.2180  -17.1860   22.0140 C   0  0  0  0  0  3  0  0  0  0  0  0
  -29.9610  -21.7130   20.1900 C   0  0  0  0  0  0  0  0  0  0  0  0
  -29.4080  -22.8540   19.7270 N   0  0  0  0  0  0  0  0  0  0  0  0
  -30.5000  -21.6610   21.2970 O   0  0  0  0  0  0  0  0  0  0  0  0
  -28.9820  -22.8050   18.8120 H   0  0  0  0  0  0  0  0  0  0  0  0
  -29.4470  -24.1930   20.3560 C   0  0  0  0  0  2  0  0  0  0  0  0
  -28.3700  -25.1450   19.7640 C   0  0  0  0  0  2  0  0  0  0  0  0
  -28.4610  -26.5370   20.1660 O   0  0  0  0  0  0  0  0  0  0  0  0
  -24.5760  -31.8170   23.0710 C   0  0  0  0  0  0  0  0  0  0  0  0
  -27.2930  -27.2950   20.1090 C   0  0  0  0  0  0  0  0  0  0  0  0
  -23.4050  -30.3670   21.4490 C   0  0  0  0  0  3  0  0  0  0  0  0
  -24.8890  -28.8170   20.0710 C   0  0  0  0  0  0  0  0  0  0  0  0
  -25.9410  -30.7290   21.2870 C   0  0  0  0  0  2  0  0  0  0  0  0
  -26.0430  -29.3470   20.6630 C   0  0  0  0  0  0  0  0  0  0  0  0
  -27.2460  -28.5950   20.6780 C   0  0  0  0  0  3  0  0  0  0  0  0
  -26.1120  -26.7950   19.5070 C   0  0  0  0  0  3  0  0  0  0  0  0
  -24.9210  -27.5400   19.4920 C   0  0  0  0  0  3  0  0  0  0  0  0
  -23.6380  -29.6630   20.0870 C   0  0  0  0  0  2  0  0  0  0  0  0
  -24.6560  -30.9900   21.9900 N   0  0  0  0  0  0  0  0  0  0  0  0
  -23.4850  -32.0930   23.5870 O   0  0  0  0  0  0  0  0  0  0  0  0
  -22.7500  -29.3600   22.4210 C   0  0  0  0  0  0  0  0  0  0  0  0
  -21.4260  -29.1750   22.2930 N   0  0  0  0  0  0  0  0  0  0  0  0
  -23.4320  -28.7470   23.2460 O   0  0  0  0  0  0  0  0  0  0  0  0
  -20.9390  -29.7210   21.5950 H   0  0  0  0  0  0  0  0  0  0  0  0
  -18.0370  -28.0480   22.8510 C   0  0  0  0  0  0  0  0  0  0  0  0
  -20.6050  -28.2510   23.0740 C   0  0  0  0  0  3  0  0  0  0  0  0
  -20.6640  -26.8200   22.4900 C   0  0  0  0  0  2  0  0  0  0  0  0
  -19.5370  -26.5260   21.4960 C   0  0  0  0  0  2  0  0  0  0  0  0
  -18.1710  -26.6980   22.1670 C   0  0  0  0  0  2  0  0  0  0  0  0
  -19.1790  -28.7840   23.2610 C   0  0  0  0  0  0  0  0  0  0  0  0
  -18.9980  -30.0500   23.8590 C   0  0  0  0  0  3  0  0  0  0  0  0
  -17.7080  -30.5800   24.0480 C   0  0  0  0  0  3  0  0  0  0  0  0
  -16.5800  -29.8390   23.6550 C   0  0  0  0  0  3  0  0  0  0  0  0
  -16.7460  -28.5740   23.0640 C   0  0  0  0  0  3  0  0  0  0  0  0
  -25.8470  -32.4720   23.6920 C   0  0  0  0  0  3  0  0  0  0  0  0
  -25.4970  -33.8500   24.0610 N   0  0  0  0  0  0  0  0  0  0  0  0
  -25.8160  -34.9340   23.3420 C   0  0  0  0  0  0  0  0  0  0  0  0
  -26.5020  -34.8820   22.3190 O   0  0  0  0  0  0  0  0  0  0  0  0
  -24.8840  -33.9650   24.8550 H   0  0  0  0  0  0  0  0  0  0  0  0
  -24.0540  -36.6950   23.0070 C   0  0  0  0  0  1  0  0  0  0  0  0
  -25.2850  -36.2930   23.8350 C   0  0  0  0  0  3  0  0  0  0  0  0
  -27.3720  -37.1980   24.7590 C   0  0  0  0  0  1  0  0  0  0  0  0
  -26.2950  -37.3720   23.7870 N   0  0  0  0  0  0  0  0  0  0  0  0
  -25.8630  -38.2770   23.9540 H   0  0  0  0  0  0  0  0  0  0  0  0
  -26.4090  -31.6850   24.9400 C   0  0  1  0  0  0  0  0  0  0  0  0
  -25.3330  -31.3610   26.0030 C   0  0  0  0  0  1  0  0  0  0  0  0
  -27.0510  -30.3480   24.5020 C   0  0  0  0  0  1  0  0  0  0  0  0
  -27.5220  -32.5140   25.6190 C   0  0  0  0  0  1  0  0  0  0  0  0
  -30.7130  -20.6520   17.9360 C   0  0  0  0  0  2  0  0  0  0  0  0
  -30.1760  -21.7780   17.0310 C   0  0  0  0  0  2  0  0  0  0  0  0
  -31.1860  -22.2120   15.9550 C   0  0  0  0  0  2  0  0  0  0  0  0
  -30.7160  -23.4440   15.1550 C   0  0  0  0  0  2  0  0  0  0  0  0
  -31.8680  -24.1190   14.4130 C   0  0  0  0  0  0  0  0  0  0  0  0
  -31.9670  -23.9290   13.1040 N   0  0  0  0  0  0  0  0  0  0  0  0
  -32.6760  -24.8230   15.0160 O   0  0  0  0  0  0  0  0  0  0  0  0
  -31.3030  -23.3420   12.6190 H   0  0  0  0  0  0  0  0  0  0  0  0
  -32.7160  -24.3570   12.5780 H   0  0  0  0  0  0  0  0  0  0  0  0
  1 95  1  0
  1  3  1  0
  1 48  1  0
  2  3  1  0
  3  5  1  0
  4  2  2  0
  6  2  1  0
  6 47  1  0
  7 15  1  0
  8 13  1  0
  9 10  1  0
  9  8  1  0
 11 10  1  0
 11 20  1  0
 11 12  1  0
 13  7  1  0
 13 12  1  0
 14  7  2  0
 15  6  1  0
 15 16  1  0
 17 18  2  0
 18 37  1  0
 19 18  1  0
 19 22  1  0
 20 21  1  0
 20 17  1  0
 21 19  2  0
 22 23  1  0
 23 24  2  0
 25 28  1  0
 25 24  1  0
 26 25  2  0
 27 26  1  0
 27 22  2  0
 28 29  1  0
 29 34  2  0
 29 30  1  0
 30 31  2  0
 31 32  1  0
 32 36  1  0
 33 32  2  0
 34 33  1  0
 35 34  1  0
 37 38  1  0
 38 41  1  0
 38 40  1  0
 39 37  2  0
 42 17  1  0
 42 43  1  0
 44 42  1  0
 47 45  1  0
 47 46  1  0
 48 50  2  0
 49 48  1  0
 49 52  1  0
 51 49  1  0
 53 54  1  0
 53 52  1  0
 55 66  2  0
 56 54  1  0
 56 61  1  0
 57 65  1  0
 57 67  1  0
 58 64  1  0
 58 60  1  0
 59 65  1  0
 60 61  2  0
 60 59  1  0
 62 56  2  0
 63 62  1  0
 63 58  2  0
 64 57  1  0
 65 55  1  0
 67 69  2  0
 68 67  1  0
 70 68  1  0
 71 80  2  0
 71 76  1  0
 72 68  1  0
 72 76  1  0
 73 72  1  0
 74 75  1  0
 74 73  1  0
 75 71  1  0
 76 77  2  0
 77 78  1  0
 79 78  2  0
 80 79  1  0
 81 55  1  0
 81 82  1  0
 81 91  1  0
 82 85  1  0
 83 87  1  0
 83 82  1  0
 84 83  2  0
 87 86  1  0
 89 87  1  0
 89 90  1  0
 89 88  1  0
 91 94  1  1
 91 92  1  0
 93 91  1  0
 96 95  1  0
 97 96  1  0
 98 97  1  0
 99101  2  0
 99 98  1  0
100 99  1  0
102100  1  0
103100  1  0
M  ISO  4   7 100  15 100  53 101  54 101
M  END
>  <TORSDO>  (68) 
F 27

>  <SCORE>  (68) 
-9.017

>  <name>  (68) 
70

>  <ligand_id>  (68) 
70

>  <original_smiles>  (68) 
[H]c1c([H])c([H])c2c(c1[H])C([H])([H])C([H])([H])C([H])([H])C2([H])N([H])C(=O)C1([H])N(C(=O)C([H])(N([H])C(=O)C([H])(N([H])C([H])([H])[H])C([H])([H])[H])C(C([H])([H])[H])(C([H])([H])[H])C([H])([H])[H])C([H])([H])c2c([H])c(OC([H])([H])C([H])([H])N([H])C(=O)C([H])(N([H])C(=O)C([H])(N([H])C(=O)N3C([H])([H])C([H])([H])C([H])([H])C([H])(n4nc(-c5c([H])c([H])c(Oc6c([H])c([H])c(F)c([H])c6F)c([H])c5[H])c(C(=O)N([H])[H])c4N([H])[H])C3([H])[H])C([H])(C([H])([H])[H])C([H])([H])[H])C([H])([H])C([H])([H])C([H])([H])C([H])([H])C(=O)N([H])[H])c([H])c([H])c2C1([H])[H]

>  <smiles>  (68) 
[H]c1c([H])c([H])c2c(c1[H])C([H])([H])C([H])([H])C([H])([H])C2([H])N([H])C(=O)C1([H])N(C(=O)C([H])(N([H])C(=O)C([H])(N([H])C([H])([H])[H])C([H])([H])[H])C(C([H])([H])[H])(C([H])([H])[H])C([H])([H])[H])C([H])([H])c2c([H])c(OC([H])([H])C([H])([H])N([H])C(=O)C([H])(N([H])C(=O)C([H])(N([H])C(=O)N3C([H])([H])C([H])([H])C([H])([H])C([H])(n4nc(-c5c([H])c([H])c(Oc6c([H])c([H])c(F)c([H])c6F)c([H])c5[H])c(C(=O)N([H])[H])c4N([H])[H])C3([H])[H])C([H])(C([H])([H])[H])C([H])([H])[H])C([H])([H])C([H])([H])C([H])([H])C([H])([H])C(=O)N([H])[H])c([H])c([H])c2C1([H])[H]

$$$$
71:0:0
     RDKit          3D

107114  0  0  1  0  0  0  0  0999 V2000
  -28.3900  -22.4940   18.1350 C   0  0  0  0  0  3  0  0  0  0  0  0
  -29.6900  -21.6690   18.2480 C   0  0  0  0  0  0  0  0  0  0  0  0
  -30.3950  -21.4730   17.1280 N   0  0  0  0  0  0  0  0  0  0  0  0
  -30.0450  -21.2130   19.3380 O   0  0  0  0  0  0  0  0  0  0  0  0
  -30.0190  -21.8410   16.2650 H   0  0  0  0  0  0  0  0  0  0  0  0
  -31.6070  -20.6590   17.0140 C   0  0  0  0  0  2  0  0  0  0  0  0
  -31.3050  -19.2100   16.6040 C   0  0  0  0  0  0  0  0  0  0  0  0
  -32.3390  -18.3620   16.5760 N   0  0  0  0  0  0  0  0  0  0  0  0
  -30.1620  -18.8650   16.2970 O   0  0  0  0  0  0  0  0  0  0  0  0
  -33.2430  -18.7040   16.8780 H   0  0  0  0  0  0  0  0  0  0  0  0
  -32.2670  -16.9300   16.2800 C   0  0  0  0  0  2  0  0  0  0  0  0
  -32.6890  -16.1120   17.5050 C   0  0  0  0  0  0  0  0  0  0  0  0
  -32.0480  -14.9600   17.7410 N   0  0  0  0  0  0  0  0  0  0  0  0
  -33.5970  -16.5140   18.2400 O   0  0  0  0  0  0  0  0  0  0  0  0
  -31.2690  -14.5930   17.2110 H   0  0  0  0  0  0  0  0  0  0  0  0
  -31.3460  -14.3700   19.8960 C   0  0  0  0  0  0  0  0  0  0  0  0
  -30.4630  -12.3070   18.9640 C   0  0  0  0  0  2  0  0  0  0  0  0
  -29.5450  -12.6920   17.8040 C   0  0  0  0  0  2  0  0  0  0  0  0
  -28.1060  -12.6770   18.3200 C   0  0  0  0  0  2  0  0  0  0  0  0
  -27.8940  -13.5000   19.6220 C   0  0  0  0  0  3  0  0  0  0  0  0
  -29.0740  -13.3580   20.6460 C   0  0  0  0  0  2  0  0  0  0  0  0
  -30.3790  -13.4030   19.9260 N   0  0  0  0  0  0  0  0  0  0  0  0
  -31.4670  -15.3490   20.5780 O   0  0  0  0  0  0  0  0  0  0  0  0
  -32.2930  -14.2610   18.9510 N   0  0  0  0  0  0  0  0  0  0  0  0
  -33.1620  -14.6770   19.2600 H   0  0  0  0  0  0  0  0  0  0  0  0
  -25.4920  -14.0590   20.4070 C   0  0  0  0  0  0  0  0  0  0  0  0
  -24.4340  -13.2680   20.7780 C   0  0  0  0  0  0  0  0  0  0  0  0
  -24.9120  -11.9230   20.7260 C   0  0  0  0  0  0  0  0  0  0  0  0
  -26.5580  -13.2010   20.1720 N   0  0  0  0  0  0  0  0  0  0  0  0
  -26.2050  -11.9090   20.4200 N   0  0  0  0  0  0  0  0  0  0  0  0
  -24.1950  -10.6490   20.9070 C   0  0  0  0  0  0  0  0  0  0  0  0
  -24.5950   -9.7080   21.8810 C   0  0  0  0  0  3  0  0  0  0  0  0
  -23.8800   -8.5030   22.0540 C   0  0  0  0  0  3  0  0  0  0  0  0
  -22.7470   -8.2270   21.2520 C   0  0  0  0  0  0  0  0  0  0  0  0
  -22.3650   -9.1560   20.2670 C   0  0  0  0  0  3  0  0  0  0  0  0
  -23.0810  -10.3530   20.0940 C   0  0  0  0  0  3  0  0  0  0  0  0
  -22.0110   -7.0690   21.3320 O   0  0  0  0  0  0  0  0  0  0  0  0
  -21.8800   -6.3760   22.5100 C   0  0  0  0  0  0  0  0  0  0  0  0
  -21.2840   -6.9550   23.6520 C   0  0  0  0  0  3  0  0  0  0  0  0
  -21.1060   -6.1870   24.8200 C   0  0  0  0  0  3  0  0  0  0  0  0
  -21.5150   -4.8410   24.8470 C   0  0  0  0  0  0  0  0  0  0  0  0
  -22.1020   -4.2600   23.7100 C   0  0  0  0  0  3  0  0  0  0  0  0
  -22.2800   -5.0250   22.5440 C   0  0  0  0  0  0  0  0  0  0  0  0
  -22.8280   -4.4530   21.4440 F   0  0  0  0  0  0  0  0  0  0  0  0
  -21.3390   -4.1020   25.9680 F   0  0  0  0  0  0  0  0  0  0  0  0
  -23.0310  -13.7240   21.0690 C   0  0  0  0  0  0  0  0  0  0  0  0
  -22.3240  -13.0140   21.9420 N   0  0  0  0  0  0  0  0  0  0  0  0
  -22.5700  -14.7450   20.5630 O   0  0  0  0  0  0  0  0  0  0  0  0
  -22.7100  -12.1880   22.3770 H   0  0  0  0  0  0  0  0  0  0  0  0
  -21.3870  -13.3010   22.1830 H   0  0  0  0  0  0  0  0  0  0  0  0
  -25.6280  -15.4310   20.2310 N   0  0  0  0  0  0  0  0  0  0  0  0
  -24.8630  -16.0770   20.3900 H   0  0  0  0  0  0  0  0  0  0  0  0
  -26.4940  -15.8920   19.9790 H   0  0  0  0  0  0  0  0  0  0  0  0
  -28.7590  -24.7860   19.0690 C   0  0  0  0  0  0  0  0  0  0  0  0
  -28.3850  -23.5080   19.1890 N   0  0  0  0  0  0  0  0  0  0  0  0
  -29.1280  -25.2730   17.9980 O   0  0  0  0  0  0  0  0  0  0  0  0
  -28.1730  -23.1760   20.1210 H   0  0  0  0  0  0  0  0  0  0  0  0
  -28.7020  -25.6280   20.3520 C   0  0  0  0  0  2  0  0  0  0  0  0
  -28.6820  -27.0310   20.0620 O   0  0  0  0  0  0  0  0  0  0  0  0
  -24.5600  -31.9760   23.0550 C   0  0  0  0  0  0  0  0  0  0  0  0
  -27.4560  -27.6590   20.0420 C   0  0  0  0  0  0  0  0  0  0  0  0
  -23.4440  -30.5170   21.3980 C   0  0  0  0  0  3  0  0  0  0  0  0
  -24.9870  -29.0350   20.0100 C   0  0  0  0  0  0  0  0  0  0  0  0
  -25.9510  -30.9890   21.2390 C   0  0  0  0  0  2  0  0  0  0  0  0
  -26.1090  -29.6210   20.6110 C   0  0  0  0  0  0  0  0  0  0  0  0
  -27.3450  -28.9430   20.6180 C   0  0  0  0  0  3  0  0  0  0  0  0
  -26.3160  -27.0750   19.4440 C   0  0  0  0  0  3  0  0  0  0  0  0
  -25.0850  -27.7610   19.4250 C   0  0  0  0  0  3  0  0  0  0  0  0
  -23.7060  -29.8370   20.0260 C   0  0  0  0  0  2  0  0  0  0  0  0
  -24.6690  -31.1760   21.9560 N   0  0  0  0  0  0  0  0  0  0  0  0
  -23.4590  -32.2050   23.5740 O   0  0  0  0  0  0  0  0  0  0  0  0
  -22.8200  -29.4730   22.3510 C   0  0  0  0  0  0  0  0  0  0  0  0
  -21.5080  -29.2370   22.2020 N   0  0  0  0  0  0  0  0  0  0  0  0
  -23.5160  -28.8770   23.1780 O   0  0  0  0  0  0  0  0  0  0  0  0
  -21.0060  -29.7730   21.5070 H   0  0  0  0  0  0  0  0  0  0  0  0
  -18.1630  -27.9630   22.6950 C   0  0  0  0  0  0  0  0  0  0  0  0
  -20.7160  -28.2690   22.9610 C   0  0  0  0  0  3  0  0  0  0  0  0
  -20.8460  -26.8500   22.3610 C   0  0  0  0  0  2  0  0  0  0  0  0
  -19.7480  -26.5210   21.3460 C   0  0  0  0  0  2  0  0  0  0  0  0
  -18.3650  -26.6290   21.9960 C   0  0  0  0  0  2  0  0  0  0  0  0
  -19.2670  -28.7400   23.1340 C   0  0  0  0  0  0  0  0  0  0  0  0
  -19.0250  -29.9910   23.7430 C   0  0  0  0  0  3  0  0  0  0  0  0
  -17.7110  -30.4640   23.9190 C   0  0  0  0  0  3  0  0  0  0  0  0
  -16.6210  -29.6830   23.4980 C   0  0  0  0  0  3  0  0  0  0  0  0
  -16.8480  -28.4350   22.8920 C   0  0  0  0  0  3  0  0  0  0  0  0
  -25.8090  -32.6620   23.6950 C   0  0  0  0  0  3  0  0  0  0  0  0
  -26.3590  -31.8960   24.9600 C   0  0  1  0  0  0  0  0  0  0  0  0
  -25.2720  -31.5700   26.0110 C   0  0  0  0  0  1  0  0  0  0  0  0
  -27.0270  -30.5660   24.5440 C   0  0  0  0  0  1  0  0  0  0  0  0
  -27.4520  -32.7450   25.6510 C   0  0  0  0  0  1  0  0  0  0  0  0
  -25.4280  -34.0370   24.0440 N   0  0  0  0  0  0  0  0  0  0  0  0
  -25.7310  -35.1160   23.3110 C   0  0  0  0  0  0  0  0  0  0  0  0
  -26.4330  -35.0630   22.2980 O   0  0  0  0  0  0  0  0  0  0  0  0
  -24.8090  -34.1490   24.8330 H   0  0  0  0  0  0  0  0  0  0  0  0
  -23.9590  -36.8550   22.9070 C   0  0  0  0  0  1  0  0  0  0  0  0
  -25.1650  -36.4710   23.7790 C   0  0  0  0  0  3  0  0  0  0  0  0
  -27.2110  -37.4080   24.7640 C   0  0  0  0  0  1  0  0  0  0  0  0
  -26.1620  -37.5650   23.7590 N   0  0  0  0  0  0  0  0  0  0  0  0
  -25.7130  -38.4640   23.9080 H   0  0  0  0  0  0  0  0  0  0  0  0
  -27.1660  -21.5810   18.3910 C   0  0  0  0  0  2  0  0  0  0  0  0
  -26.6670  -20.7800   17.1750 C   0  0  0  0  0  2  0  0  0  0  0  0
  -25.1580  -20.5020   17.2400 C   0  0  0  0  0  2  0  0  0  0  0  0
  -24.6200  -19.8180   15.9690 C   0  0  0  0  0  2  0  0  0  0  0  0
  -23.1490  -19.8580   15.9010 N   0  0  0  0  0  4  0  0  0  0  0  0
  -22.7380  -19.4110   16.7000 H   0  0  0  0  0  0  0  0  0  0  0  0
  -22.8330  -19.3770   15.0760 H   0  0  0  0  0  0  0  0  0  0  0  0
  -22.8210  -20.8050   15.8530 H   0  0  0  0  0  0  0  0  0  0  0  0
  1  2  1  0
  1100  1  0
  1 55  1  0
  2  4  2  0
  3  2  1  0
  5  3  1  0
  6  3  1  0
  7  6  1  0
  8  7  1  0
  8 10  1  0
  9  7  2  0
 11  8  1  0
 11 12  1  0
 12 13  1  0
 12 14  2  0
 13 24  1  0
 15 13  1  0
 16 22  1  0
 16 23  2  0
 17 22  1  0
 18 19  1  0
 18 17  1  0
 20 19  1  0
 20 29  1  0
 20 21  1  0
 22 21  1  0
 24 25  1  0
 24 16  1  0
 26 27  2  0
 27 46  1  0
 28 27  1  0
 28 31  1  0
 29 26  1  0
 29 30  1  0
 30 28  2  0
 31 32  1  0
 32 33  2  0
 34 37  1  0
 34 33  1  0
 35 34  2  0
 36 35  1  0
 36 31  2  0
 37 38  1  0
 38 43  2  0
 38 39  1  0
 39 40  2  0
 40 41  1  0
 41 45  1  0
 42 41  2  0
 43 42  1  0
 44 43  1  0
 46 47  1  0
 47 50  1  0
 47 49  1  0
 48 46  2  0
 51 52  1  0
 51 26  1  0
 53 51  1  0
 54 55  1  0
 54 58  1  0
 55 57  1  0
 56 54  2  0
 59 58  1  0
 60 71  2  0
 61 59  1  0
 61 66  1  0
 62 70  1  0
 62 72  1  0
 63 69  1  0
 63 65  1  0
 64 70  1  0
 65 66  2  0
 65 64  1  0
 67 61  2  0
 68 67  1  0
 68 63  2  0
 69 62  1  0
 70 60  1  0
 72 74  2  0
 73 72  1  0
 75 73  1  0
 76 85  2  0
 76 81  1  0
 77 73  1  0
 77 81  1  0
 78 77  1  0
 79 80  1  0
 79 78  1  0
 80 76  1  0
 81 82  2  0
 82 83  1  0
 84 83  2  0
 85 84  1  0
 86 60  1  0
 86 91  1  0
 86 87  1  0
 87 90  1  1
 87 88  1  0
 89 87  1  0
 91 94  1  0
 92 96  1  0
 92 91  1  0
 93 92  2  0
 96 95  1  0
 98 96  1  0
 98 99  1  0
 98 97  1  0
101102  1  0
101100  1  0
103102  1  0
104103  1  0
104105  1  0
106104  1  0
107104  1  0
M  ISO  4  16 100  24 100  58 101  59 101
M  END
>  <TORSDO>  (69) 
F 28

>  <SCORE>  (69) 
-10.471

>  <name>  (69) 
71

>  <ligand_id>  (69) 
71

>  <original_smiles>  (69) 
[H]c1c([H])c([H])c2c(c1[H])C([H])([H])C([H])([H])C([H])([H])C2([H])N([H])C(=O)C1([H])N(C(=O)C([H])(N([H])C(=O)C([H])(N([H])C([H])([H])[H])C([H])([H])[H])C(C([H])([H])[H])(C([H])([H])[H])C([H])([H])[H])C([H])([H])c2c([H])c(OC([H])([H])C(=O)N([H])C([H])(C(=O)N([H])C([H])([H])C(=O)N([H])C([H])([H])C(=O)N([H])N([H])C(=O)N3C([H])([H])C([H])([H])C([H])([H])C([H])(n4nc(-c5c([H])c([H])c(Oc6c([H])c([H])c(F)c([H])c6F)c([H])c5[H])c(C(=O)N([H])[H])c4N([H])[H])C3([H])[H])C([H])([H])C([H])([H])C([H])([H])C([H])([H])[N+]([H])([H])[H])c([H])c([H])c2C1([H])[H]

>  <smiles>  (69) 
[H]c1c([H])c([H])c2c(c1[H])C([H])([H])C([H])([H])C([H])([H])C2([H])N([H])C(=O)C1([H])N(C(=O)C([H])(N([H])C(=O)C([H])(N([H])C([H])([H])[H])C([H])([H])[H])C(C([H])([H])[H])(C([H])([H])[H])C([H])([H])[H])C([H])([H])c2c([H])c(OC([H])([H])C(=O)N([H])C([H])(C(=O)N([H])C([H])([H])C(=O)N([H])C([H])([H])C(=O)N([H])N([H])C(=O)N3C([H])([H])C([H])([H])C([H])([H])C([H])(n4nc(-c5c([H])c([H])c(Oc6c([H])c([H])c(F)c([H])c6F)c([H])c5[H])c(C(=O)N([H])[H])c4N([H])[H])C3([H])[H])C([H])([H])C([H])([H])C([H])([H])C([H])([H])[N+]([H])([H])[H])c([H])c([H])c2C1([H])[H]

$$$$
72:0:0
     RDKit          3D

 91 98  0  0  1  0  0  0  0  0999 V2000
  -28.4960  -21.8070   20.2590 C   0  0  0  0  0  0  0  0  0  0  0  0
  -28.5380  -22.9880   20.9140 N   0  0  0  0  0  0  0  0  0  0  0  0
  -28.1330  -21.7180   19.0830 O   0  0  0  0  0  0  0  0  0  0  0  0
  -28.9290  -22.9440   21.8470 H   0  0  0  0  0  0  0  0  0  0  0  0
  -28.8320  -20.5240   21.0750 C   0  0  0  0  0  2  0  0  0  0  0  0
  -29.2490  -18.0670   20.6440 C   0  0  0  0  0  0  0  0  0  0  0  0
  -29.4360  -19.3760   20.3520 N   0  0  0  0  0  0  0  0  0  0  0  0
  -28.4070  -17.6930   21.4640 O   0  0  0  0  0  0  0  0  0  0  0  0
  -30.1100  -19.6100   19.6370 H   0  0  0  0  0  0  0  0  0  0  0  0
  -30.1410  -17.0080   19.9510 C   0  0  0  0  0  2  0  0  0  0  0  0
  -30.6560  -14.5430   20.0410 C   0  0  0  0  0  0  0  0  0  0  0  0
  -30.3410  -12.3650   18.9340 C   0  0  0  0  0  2  0  0  0  0  0  0
  -29.3500  -12.5980   17.7740 C   0  0  0  0  0  2  0  0  0  0  0  0
  -27.8950  -12.4590   18.2670 C   0  0  0  0  0  2  0  0  0  0  0  0
  -27.6190  -13.2600   19.5680 C   0  0  0  0  0  3  0  0  0  0  0  0
  -28.7280  -13.0200   20.6180 C   0  0  0  0  0  2  0  0  0  0  0  0
  -30.0150  -13.3420   19.9860 N   0  0  0  0  0  0  0  0  0  0  0  0
  -31.7900  -14.7070   19.5830 O   0  0  0  0  0  0  0  0  0  0  0  0
  -29.8890  -15.6060   20.3700 N   0  0  0  0  0  0  0  0  0  0  0  0
  -28.9790  -15.4270   20.7710 H   0  0  0  0  0  0  0  0  0  0  0  0
  -25.2580  -13.8510   20.3980 C   0  0  0  0  0  0  0  0  0  0  0  0
  -24.2070  -13.0750   20.8070 C   0  0  0  0  0  0  0  0  0  0  0  0
  -24.6660  -11.7240   20.7350 C   0  0  0  0  0  0  0  0  0  0  0  0
  -26.2900  -12.9740   20.1060 N   0  0  0  0  0  0  0  0  0  0  0  0
  -25.9400  -11.6880   20.3650 N   0  0  0  0  0  0  0  0  0  0  0  0
  -23.9480  -10.4590   20.9420 C   0  0  0  0  0  0  0  0  0  0  0  0
  -24.3990   -9.4970   21.8720 C   0  0  0  0  0  3  0  0  0  0  0  0
  -23.6810   -8.2970   22.0670 C   0  0  0  0  0  3  0  0  0  0  0  0
  -22.4980   -8.0490   21.3290 C   0  0  0  0  0  0  0  0  0  0  0  0
  -22.0670   -9.0000   20.3880 C   0  0  0  0  0  3  0  0  0  0  0  0
  -22.7860  -10.1910   20.1930 C   0  0  0  0  0  3  0  0  0  0  0  0
  -21.7520   -6.9000   21.4320 O   0  0  0  0  0  0  0  0  0  0  0  0
  -21.6910   -6.1840   22.6000 C   0  0  0  0  0  0  0  0  0  0  0  0
  -21.2530   -6.7670   23.8090 C   0  0  0  0  0  3  0  0  0  0  0  0
  -21.1400   -5.9740   24.9700 C   0  0  0  0  0  3  0  0  0  0  0  0
  -21.4540   -4.6040   24.9240 C   0  0  0  0  0  0  0  0  0  0  0  0
  -21.8870   -4.0230   23.7190 C   0  0  0  0  0  3  0  0  0  0  0  0
  -22.0020   -4.8110   22.5610 C   0  0  0  0  0  0  0  0  0  0  0  0
  -22.3980   -4.2410   21.3970 F   0  0  0  0  0  0  0  0  0  0  0  0
  -21.3380   -3.8420   26.0360 F   0  0  0  0  0  0  0  0  0  0  0  0
  -22.8260  -13.5510   21.1500 C   0  0  0  0  0  0  0  0  0  0  0  0
  -22.1380  -12.8460   22.0430 N   0  0  0  0  0  0  0  0  0  0  0  0
  -22.3640  -14.5830   20.6640 O   0  0  0  0  0  0  0  0  0  0  0  0
  -22.5230  -12.0130   22.4610 H   0  0  0  0  0  0  0  0  0  0  0  0
  -21.2130  -13.1480   22.3150 H   0  0  0  0  0  0  0  0  0  0  0  0
  -25.4140  -15.2240   20.2320 N   0  0  0  0  0  0  0  0  0  0  0  0
  -24.6560  -15.8770   20.3890 H   0  0  0  0  0  0  0  0  0  0  0  0
  -26.2530  -15.6700   19.8860 H   0  0  0  0  0  0  0  0  0  0  0  0
  -27.8310  -24.2590   20.6120 C   0  0  0  0  0  2  0  0  0  0  0  0
  -28.5580  -25.3200   19.7270 C   0  0  0  0  0  2  0  0  0  0  0  0
  -28.4480  -26.6950   20.1850 O   0  0  0  0  0  0  0  0  0  0  0  0
  -24.6030  -31.8790   23.2260 C   0  0  0  0  0  0  0  0  0  0  0  0
  -27.2540  -27.4030   20.1490 C   0  0  0  0  0  0  0  0  0  0  0  0
  -23.3970  -30.4710   21.5870 C   0  0  0  0  0  3  0  0  0  0  0  0
  -24.8510  -28.9220   20.1670 C   0  0  0  0  0  0  0  0  0  0  0  0
  -25.9240  -30.8230   21.3880 C   0  0  0  0  0  2  0  0  0  0  0  0
  -26.0090  -29.4460   20.7540 C   0  0  0  0  0  0  0  0  0  0  0  0
  -27.2080  -28.6930   20.7410 C   0  0  0  0  0  3  0  0  0  0  0  0
  -26.0770  -26.9040   19.5490 C   0  0  0  0  0  3  0  0  0  0  0  0
  -24.8810  -27.6510   19.5650 C   0  0  0  0  0  3  0  0  0  0  0  0
  -23.6060  -29.7810   20.2110 C   0  0  0  0  0  2  0  0  0  0  0  0
  -24.6600  -31.0740   22.1250 N   0  0  0  0  0  0  0  0  0  0  0  0
  -23.5190  -32.1530   23.7650 O   0  0  0  0  0  0  0  0  0  0  0  0
  -22.7440  -29.4580   22.5530 C   0  0  0  0  0  0  0  0  0  0  0  0
  -21.4220  -29.2630   22.4170 N   0  0  0  0  0  0  0  0  0  0  0  0
  -23.4250  -28.8460   23.3800 O   0  0  0  0  0  0  0  0  0  0  0  0
  -20.9340  -29.8020   21.7150 H   0  0  0  0  0  0  0  0  0  0  0  0
  -18.0620  -28.0210   22.8780 C   0  0  0  0  0  0  0  0  0  0  0  0
  -20.6090  -28.3250   23.1890 C   0  0  0  0  0  3  0  0  0  0  0  0
  -20.7450  -26.8880   22.6360 C   0  0  0  0  0  2  0  0  0  0  0  0
  -19.6680  -26.5310   21.6080 C   0  0  0  0  0  2  0  0  0  0  0  0
  -18.2720  -26.6650   22.2250 C   0  0  0  0  0  2  0  0  0  0  0  0
  -19.1610  -28.8070   23.3160 C   0  0  0  0  0  0  0  0  0  0  0  0
  -18.9130  -30.0750   23.8850 C   0  0  0  0  0  3  0  0  0  0  0  0
  -17.5990  -30.5580   24.0230 C   0  0  0  0  0  3  0  0  0  0  0  0
  -16.5130  -29.7700   23.6020 C   0  0  0  0  0  3  0  0  0  0  0  0
  -16.7460  -28.5030   23.0350 C   0  0  0  0  0  3  0  0  0  0  0  0
  -25.8870  -32.5140   23.8440 C   0  0  0  0  0  3  0  0  0  0  0  0
  -25.5770  -33.9120   24.1720 N   0  0  0  0  0  0  0  0  0  0  0  0
  -25.9100  -34.9650   23.4130 C   0  0  0  0  0  0  0  0  0  0  0  0
  -26.5820  -34.8610   22.3830 O   0  0  0  0  0  0  0  0  0  0  0  0
  -24.9820  -34.0670   24.9730 H   0  0  0  0  0  0  0  0  0  0  0  0
  -24.1820  -36.7560   23.0520 C   0  0  0  0  0  1  0  0  0  0  0  0
  -25.4200  -36.3530   23.8680 C   0  0  0  0  0  3  0  0  0  0  0  0
  -27.5520  -37.2400   24.7040 C   0  0  0  0  0  1  0  0  0  0  0  0
  -26.4520  -37.4070   23.7570 N   0  0  0  0  0  0  0  0  0  0  0  0
  -26.0440  -38.3260   23.9030 H   0  0  0  0  0  0  0  0  0  0  0  0
  -26.4090  -31.7450   25.1190 C   0  0  1  0  0  0  0  0  0  0  0  0
  -25.3220  -31.5040   26.1930 C   0  0  0  0  0  1  0  0  0  0  0  0
  -26.9940  -30.3690   24.7240 C   0  0  0  0  0  1  0  0  0  0  0  0
  -27.5580  -32.5440   25.7780 C   0  0  0  0  0  1  0  0  0  0  0  0
  1  2  1  0
  1  5  1  0
  2  4  1  0
  3  1  2  0
  6  8  2  0
  7  6  1  0
  7  5  1  0
  9  7  1  0
 10 19  1  0
 10  6  1  0
 11 19  1  0
 12 17  1  0
 13 14  1  0
 13 12  1  0
 15 14  1  0
 15 24  1  0
 15 16  1  0
 17 11  1  0
 17 16  1  0
 18 11  2  0
 19 20  1  0
 21 22  2  0
 22 41  1  0
 23 22  1  0
 23 26  1  0
 24 25  1  0
 24 21  1  0
 25 23  2  0
 26 27  1  0
 27 28  2  0
 29 32  1  0
 29 28  1  0
 30 29  2  0
 31 30  1  0
 31 26  2  0
 32 33  1  0
 33 34  1  0
 34 35  2  0
 36 35  1  0
 36 40  1  0
 37 36  2  0
 38 33  2  0
 38 37  1  0
 39 38  1  0
 41 42  1  0
 42 45  1  0
 42 44  1  0
 43 41  2  0
 46 47  1  0
 46 21  1  0
 48 46  1  0
 49  2  1  0
 50 51  1  0
 50 49  1  0
 52 63  2  0
 53 51  1  0
 53 58  1  0
 54 62  1  0
 54 64  1  0
 55 61  1  0
 55 57  1  0
 56 62  1  0
 57 56  1  0
 58 57  2  0
 59 60  1  0
 59 53  2  0
 60 55  2  0
 61 54  1  0
 62 52  1  0
 64 66  2  0
 65 64  1  0
 67 65  1  0
 68 77  2  0
 68 73  1  0
 69 65  1  0
 69 73  1  0
 70 69  1  0
 71 72  1  0
 71 70  1  0
 72 68  1  0
 73 74  2  0
 74 75  1  0
 76 75  2  0
 77 76  1  0
 78 52  1  0
 78 79  1  0
 78 88  1  0
 79 82  1  0
 80 84  1  0
 80 79  1  0
 81 80  2  0
 84 83  1  0
 86 84  1  0
 86 87  1  0
 86 85  1  0
 88 91  1  1
 88 89  1  0
 90 88  1  0
M  ISO  4  11 100  19 100  50 101  51 101
M  END
>  <TORSDO>  (70) 
F 21

>  <SCORE>  (70) 
-12.796

>  <name>  (70) 
72

>  <ligand_id>  (70) 
72

>  <original_smiles>  (70) 
[H]c1c([H])c([H])c2c(c1[H])C([H])([H])C([H])([H])C([H])([H])C2([H])N([H])C(=O)C1([H])N(C(=O)C([H])(N([H])C(=O)C([H])(N([H])C([H])([H])[H])C([H])([H])[H])C(C([H])([H])[H])(C([H])([H])[H])C([H])([H])[H])C([H])([H])c2c([H])c(OC([H])([H])C([H])([H])N([H])C(=O)C([H])([H])N([H])C(=O)C([H])([H])N([H])C(=O)N3C([H])([H])C([H])([H])C([H])([H])C([H])(n4nc(-c5c([H])c([H])c(Oc6c([H])c([H])c(F)c([H])c6F)c([H])c5[H])c(C(=O)N([H])[H])c4N([H])[H])C3([H])[H])c([H])c([H])c2C1([H])[H]

>  <smiles>  (70) 
[H]c1c([H])c([H])c2c(c1[H])C([H])([H])C([H])([H])C([H])([H])C2([H])N([H])C(=O)C1([H])N(C(=O)C([H])(N([H])C(=O)C([H])(N([H])C([H])([H])[H])C([H])([H])[H])C(C([H])([H])[H])(C([H])([H])[H])C([H])([H])[H])C([H])([H])c2c([H])c(OC([H])([H])C([H])([H])N([H])C(=O)C([H])([H])N([H])C(=O)C([H])([H])N([H])C(=O)N3C([H])([H])C([H])([H])C([H])([H])C([H])(n4nc(-c5c([H])c([H])c(Oc6c([H])c([H])c(F)c([H])c6F)c([H])c5[H])c(C(=O)N([H])[H])c4N([H])[H])C3([H])[H])c([H])c([H])c2C1([H])[H]

$$$$
73:0:0
     RDKit          3D

 91 99  0  0  1  0  0  0  0  0999 V2000
  -29.1400  -23.7450   19.8320 C   0  0  0  0  0  0  0  0  0  0  0  0
  -28.4440  -19.7730   20.6490 C   0  0  0  0  0  3  0  0  0  0  0  0
  -30.2570  -19.9850   19.0710 C   0  0  0  0  0  3  0  0  0  0  0  0
  -28.3280  -21.3950   20.7790 C   0  0  0  0  0  2  0  0  0  0  0  0
  -30.3070  -21.5660   19.2850 C   0  0  0  0  0  3  0  0  0  0  0  0
  -29.8520  -19.1540   20.3170 C   0  0  0  0  0  0  0  0  0  0  0  0
  -29.1650  -22.3170   19.9270 N   0  0  0  0  0  0  0  0  0  0  0  0
  -30.0760  -24.2970   19.2420 O   0  0  0  0  0  0  0  0  0  0  0  0
  -28.0210  -24.7970   20.3700 C   0  0  0  0  0  2  0  0  0  0  0  0
  -28.2780  -26.3150   20.2110 O   0  0  0  0  0  0  0  0  0  0  0  0
  -24.6290  -31.9350   23.2190 C   0  0  0  0  0  0  0  0  0  0  0  0
  -27.2000  -27.2570   20.1840 C   0  0  0  0  0  0  0  0  0  0  0  0
  -23.4200  -30.5330   21.5890 C   0  0  0  0  0  3  0  0  0  0  0  0
  -24.8620  -28.9630   20.1610 C   0  0  0  0  0  0  0  0  0  0  0  0
  -25.9690  -30.8160   21.4050 C   0  0  0  0  0  2  0  0  0  0  0  0
  -26.0420  -29.4250   20.7610 C   0  0  0  0  0  0  0  0  0  0  0  0
  -27.2140  -28.5870   20.7540 C   0  0  0  0  0  3  0  0  0  0  0  0
  -25.9980  -26.8890   19.5420 C   0  0  0  0  0  3  0  0  0  0  0  0
  -24.8500  -27.7090   19.5370 C   0  0  0  0  0  3  0  0  0  0  0  0
  -23.6320  -29.8540   20.2120 C   0  0  0  0  0  2  0  0  0  0  0  0
  -24.6920  -31.1160   22.1260 N   0  0  0  0  0  0  0  0  0  0  0  0
  -23.5460  -32.2180   23.7540 O   0  0  0  0  0  0  0  0  0  0  0  0
  -22.7530  -29.5250   22.5570 C   0  0  0  0  0  0  0  0  0  0  0  0
  -21.4230  -29.3560   22.4420 N   0  0  0  0  0  0  0  0  0  0  0  0
  -23.4310  -28.8970   23.3730 O   0  0  0  0  0  0  0  0  0  0  0  0
  -20.9330  -29.9130   21.7570 H   0  0  0  0  0  0  0  0  0  0  0  0
  -18.0450  -28.1600   22.9660 C   0  0  0  0  0  0  0  0  0  0  0  0
  -20.6060  -28.4220   23.2200 C   0  0  0  0  0  3  0  0  0  0  0  0
  -20.7040  -26.9870   22.6510 C   0  0  0  0  0  2  0  0  0  0  0  0
  -19.5970  -26.6610   21.6440 C   0  0  0  0  0  2  0  0  0  0  0  0
  -18.2180  -26.8080   22.2940 C   0  0  0  0  0  2  0  0  0  0  0  0
  -19.1660  -28.9240   23.3870 C   0  0  0  0  0  0  0  0  0  0  0  0
  -18.9490  -30.1880   23.9780 C   0  0  0  0  0  3  0  0  0  0  0  0
  -17.6450  -30.6880   24.1500 C   0  0  0  0  0  3  0  0  0  0  0  0
  -16.5390  -29.9210   23.7450 C   0  0  0  0  0  3  0  0  0  0  0  0
  -16.7400  -28.6600   23.1580 C   0  0  0  0  0  3  0  0  0  0  0  0
  -25.9100  -32.5730   23.8360 C   0  0  0  0  0  3  0  0  0  0  0  0
  -26.4320  -31.8040   25.1130 C   0  0  1  0  0  0  0  0  0  0  0  0
  -25.3430  -31.5660   26.1850 C   0  0  0  0  0  1  0  0  0  0  0  0
  -27.0160  -30.4250   24.7230 C   0  0  0  0  0  1  0  0  0  0  0  0
  -27.5840  -32.6000   25.7690 C   0  0  0  0  0  1  0  0  0  0  0  0
  -25.5970  -33.9700   24.1710 N   0  0  0  0  0  0  0  0  0  0  0  0
  -25.9300  -35.0290   23.4200 C   0  0  0  0  0  0  0  0  0  0  0  0
  -26.5990  -34.9310   22.3890 O   0  0  0  0  0  0  0  0  0  0  0  0
  -25.0030  -34.1200   24.9740 H   0  0  0  0  0  0  0  0  0  0  0  0
  -24.2100  -36.8330   23.0700 C   0  0  0  0  0  1  0  0  0  0  0  0
  -25.4440  -36.4160   23.8860 C   0  0  0  0  0  3  0  0  0  0  0  0
  -27.5750  -37.2880   24.7400 C   0  0  0  0  0  1  0  0  0  0  0  0
  -26.4800  -37.4660   23.7900 N   0  0  0  0  0  0  0  0  0  0  0  0
  -26.0750  -38.3860   23.9400 H   0  0  0  0  0  0  0  0  0  0  0  0
  -30.4220  -17.5820   20.5880 C   0  0  0  0  0  0  0  0  0  0  0  0
  -30.5530  -14.9460   19.9370 C   0  0  0  0  0  0  0  0  0  0  0  0
  -30.2680  -12.6440   18.9450 C   0  0  0  0  0  2  0  0  0  0  0  0
  -29.2620  -12.6540   17.7760 C   0  0  0  0  0  2  0  0  0  0  0  0
  -27.8260  -12.4650   18.3000 C   0  0  0  0  0  2  0  0  0  0  0  0
  -27.5120  -13.3710   19.5220 C   0  0  0  0  0  3  0  0  0  0  0  0
  -28.6420  -13.3540   20.5720 C   0  0  0  0  0  2  0  0  0  0  0  0
  -29.8750  -13.7370   19.8750 N   0  0  0  0  0  0  0  0  0  0  0  0
  -31.7470  -14.9240   19.6280 O   0  0  0  0  0  0  0  0  0  0  0  0
  -29.8800  -16.1830   20.1200 N   0  0  0  0  0  4  0  0  0  0  0  0
  -28.8780  -16.0950   20.1800 H   0  0  0  0  0  0  0  0  0  0  0  0
  -25.1950  -13.9470   20.4420 C   0  0  0  0  0  0  0  0  0  0  0  0
  -24.1500  -13.1710   20.8610 C   0  0  0  0  0  0  0  0  0  0  0  0
  -24.5980  -11.8180   20.7610 C   0  0  0  0  0  0  0  0  0  0  0  0
  -26.2100  -13.0690   20.1060 N   0  0  0  0  0  0  0  0  0  0  0  0
  -25.8650  -11.7790   20.3660 N   0  0  0  0  0  0  0  0  0  0  0  0
  -23.8720  -10.5560   20.9610 C   0  0  0  0  0  0  0  0  0  0  0  0
  -24.3160   -9.5850   21.8850 C   0  0  0  0  0  3  0  0  0  0  0  0
  -23.5900   -8.3900   22.0750 C   0  0  0  0  0  3  0  0  0  0  0  0
  -22.4040   -8.1560   21.3390 C   0  0  0  0  0  0  0  0  0  0  0  0
  -21.9790   -9.1160   20.4030 C   0  0  0  0  0  3  0  0  0  0  0  0
  -22.7050  -10.3020   20.2120 C   0  0  0  0  0  3  0  0  0  0  0  0
  -21.6450   -7.0160   21.4390 O   0  0  0  0  0  0  0  0  0  0  0  0
  -21.5750   -6.2980   22.6060 C   0  0  0  0  0  0  0  0  0  0  0  0
  -21.1230   -6.8780   23.8130 C   0  0  0  0  0  3  0  0  0  0  0  0
  -21.0020   -6.0850   24.9720 C   0  0  0  0  0  3  0  0  0  0  0  0
  -21.3220   -4.7150   24.9250 C   0  0  0  0  0  0  0  0  0  0  0  0
  -21.7680   -4.1350   23.7240 C   0  0  0  0  0  3  0  0  0  0  0  0
  -21.8910   -4.9250   22.5680 C   0  0  0  0  0  0  0  0  0  0  0  0
  -22.3010   -4.3570   21.4080 F   0  0  0  0  0  0  0  0  0  0  0  0
  -21.1990   -3.9510   26.0360 F   0  0  0  0  0  0  0  0  0  0  0  0
  -22.7780  -13.6520   21.2310 C   0  0  0  0  0  0  0  0  0  0  0  0
  -22.0930  -12.9360   22.1150 N   0  0  0  0  0  0  0  0  0  0  0  0
  -22.3240  -14.6990   20.7710 O   0  0  0  0  0  0  0  0  0  0  0  0
  -22.4750  -12.0900   22.5110 H   0  0  0  0  0  0  0  0  0  0  0  0
  -21.1730  -13.2400   22.4010 H   0  0  0  0  0  0  0  0  0  0  0  0
  -25.3560  -15.3210   20.2910 N   0  0  0  0  0  0  0  0  0  0  0  0
  -24.6010  -15.9740   20.4690 H   0  0  0  0  0  0  0  0  0  0  0  0
  -26.1720  -15.7620   19.8870 H   0  0  0  0  0  0  0  0  0  0  0  0
  -31.9620  -17.6380   20.6070 C   0  0  0  0  0  3  0  0  0  0  0  0
  -32.6370  -17.7270   21.6340 O   0  0  0  0  0  0  0  0  0  0  0  0
  1  7  1  0
  1  9  1  0
  2  4  1  0
  3  5  2  0
  3  6  1  0
  5  7  1  0
  6 51  1  0
  6  2  2  0
  7  4  1  0
  8  1  2  0
 10  9  1  0
 11 22  2  0
 12 10  1  0
 12 17  1  0
 13 21  1  0
 13 23  1  0
 14 20  1  0
 14 16  1  0
 15 21  1  0
 16 15  1  0
 17 16  2  0
 18 12  2  0
 19 18  1  0
 19 14  2  0
 20 13  1  0
 21 11  1  0
 23 25  2  0
 24 23  1  0
 26 24  1  0
 27 36  2  0
 27 32  1  0
 28 24  1  0
 28 32  1  0
 29 28  1  0
 30 31  1  0
 30 29  1  0
 31 27  1  0
 32 33  2  0
 33 34  1  0
 35 34  2  0
 36 35  1  0
 37 11  1  0
 37 42  1  0
 37 38  1  0
 38 41  1  1
 38 39  1  0
 40 38  1  0
 42 45  1  0
 43 47  1  0
 43 42  1  0
 44 43  2  0
 47 46  1  0
 49 47  1  0
 49 50  1  0
 49 48  1  0
 51 90  1  0
 52 60  1  0
 53 58  1  0
 54 55  1  0
 54 53  1  0
 56 55  1  0
 56 65  1  0
 56 57  1  0
 58 52  1  0
 58 57  1  0
 59 52  2  0
 60 61  1  0
 60 51  2  0
 62 63  2  0
 63 82  1  0
 64 63  1  0
 64 67  1  0
 65 66  1  0
 65 62  1  0
 66 64  2  0
 67 68  1  0
 68 69  2  0
 70 73  1  0
 70 69  1  0
 71 70  2  0
 72 71  1  0
 72 67  2  0
 73 74  1  0
 74 75  1  0
 75 76  2  0
 77 76  1  0
 77 81  1  0
 78 77  2  0
 79 74  2  0
 79 78  1  0
 80 79  1  0
 82 83  1  0
 83 86  1  0
 83 85  1  0
 84 82  2  0
 87 62  1  0
 87 88  1  0
 89 87  1  0
 90 91  2  0
M  ISO  4   9 101  10 101  52 100  60 100
M  END
>  <TORSDO>  (71) 
F 19

>  <SCORE>  (71) 
-13.788

>  <name>  (71) 
73

>  <ligand_id>  (71) 
73

>  <original_smiles>  (71) 
[H]C(=O)C([H])(N([H])C(=O)N1C([H])([H])C([H])([H])C([H])([H])C([H])(n2nc(-c3c([H])c([H])c(Oc4c([H])c([H])c(F)c([H])c4F)c([H])c3[H])c(C(=O)N([H])[H])c2N([H])[H])C1([H])[H])C1([H])C([H])([H])C([H])([H])N(C(=O)C([H])([H])Oc2c([H])c([H])c3c(c2[H])C([H])([H])N(C(=O)C([H])(N([H])C(=O)C([H])(N([H])C([H])([H])[H])C([H])([H])[H])C(C([H])([H])[H])(C([H])([H])[H])C([H])([H])[H])C([H])(C(=O)N([H])C2([H])c4c([H])c([H])c([H])c([H])c4C([H])([H])C([H])([H])C2([H])[H])C3([H])[H])C([H])([H])C1([H])[H]

>  <smiles>  (71) 
[H]C(=O)C([H])(N([H])C(=O)N1C([H])([H])C([H])([H])C([H])([H])C([H])(n2nc(-c3c([H])c([H])c(Oc4c([H])c([H])c(F)c([H])c4F)c([H])c3[H])c(C(=O)N([H])[H])c2N([H])[H])C1([H])[H])C1([H])C([H])([H])C([H])([H])N(C(=O)C([H])([H])Oc2c([H])c([H])c3c(c2[H])C([H])([H])N(C(=O)C([H])(N([H])C(=O)C([H])(N([H])C([H])([H])[H])C([H])([H])[H])C(C([H])([H])[H])(C([H])([H])[H])C([H])([H])[H])C([H])(C(=O)N([H])C2([H])c4c([H])c([H])c([H])c([H])c4C([H])([H])C([H])([H])C2([H])[H])C3([H])[H])C([H])([H])C1([H])[H]

$$$$
74:0:0
     RDKit          3D

 82 86  0  0  1  0  0  0  0  0999 V2000
  -28.2030  -25.2140   20.1870 O   0  0  0  0  0  1  0  0  0  0  0  0
  -24.6590  -31.8230   23.1160 C   0  0  0  0  0  0  0  0  0  0  0  0
  -27.2270  -26.5180   20.2190 C   0  0  0  0  0  0  0  0  0  0  0  0
  -23.5030  -30.4040   21.4840 C   0  0  0  0  0  3  0  0  0  0  0  0
  -24.9680  -28.6960   20.1210 C   0  0  0  0  0  0  0  0  0  0  0  0
  -26.0920  -30.4850   21.4080 C   0  0  0  0  0  2  0  0  0  0  0  0
  -26.1660  -29.0180   20.7700 C   0  0  0  0  0  0  0  0  0  0  0  0
  -27.2690  -27.9690   20.7710 C   0  0  0  0  0  3  0  0  0  0  0  0
  -25.9850  -26.4690   19.5130 C   0  0  0  0  0  3  0  0  0  0  0  0
  -24.9320  -27.4500   19.4670 C   0  0  0  0  0  3  0  0  0  0  0  0
  -23.7680  -29.6710   20.1330 C   0  0  0  0  0  2  0  0  0  0  0  0
  -24.7790  -30.9440   22.0540 N   0  0  0  0  0  0  0  0  0  0  0  0
  -23.5550  -32.1300   23.6020 O   0  0  0  0  0  0  0  0  0  0  0  0
  -22.7610  -29.4600   22.4680 C   0  0  0  0  0  0  0  0  0  0  0  0
  -21.4220  -29.3490   22.3610 N   0  0  0  0  0  0  0  0  0  0  0  0
  -23.4040  -28.8170   23.3000 O   0  0  0  0  0  0  0  0  0  0  0  0
  -20.9470  -29.9240   21.6780 H   0  0  0  0  0  0  0  0  0  0  0  0
  -18.0030  -28.1330   22.8590 C   0  0  0  0  0  0  0  0  0  0  0  0
  -20.5950  -28.3830   23.0970 C   0  0  0  0  0  0  0  0  0  0  0  0
  -20.7720  -26.9760   22.4620 C   0  0  0  0  0  3  0  0  0  0  0  0
  -19.5380  -26.4150   21.7220 C   0  0  0  0  0  3  0  0  0  0  0  0
  -18.0990  -26.8440   22.0560 C   0  0  0  0  0  3  0  0  0  0  0  0
  -19.1450  -28.8670   23.2920 C   0  0  0  0  0  0  0  0  0  0  0  0
  -18.9400  -30.1130   23.9270 C   0  0  0  0  0  3  0  0  0  0  0  0
  -17.6430  -30.6230   24.1300 C   0  0  0  0  0  3  0  0  0  0  0  0
  -16.5250  -29.8800   23.7210 C   0  0  0  0  0  3  0  0  0  0  0  0
  -16.7080  -28.6360   23.0960 C   0  0  0  0  0  3  0  0  0  0  0  0
  -25.9010  -32.4970   23.7720 C   0  0  0  0  0  3  0  0  0  0  0  0
  -25.5540  -33.8960   24.1020 N   0  0  0  0  0  0  0  0  0  0  0  0
  -25.8860  -34.9730   23.3740 C   0  0  0  0  0  0  0  0  0  0  0  0
  -26.5670  -34.8910   22.3500 O   0  0  0  0  0  0  0  0  0  0  0  0
  -24.9460  -34.0310   24.8960 H   0  0  0  0  0  0  0  0  0  0  0  0
  -24.1500  -36.7720   23.0460 C   0  0  0  0  0  1  0  0  0  0  0  0
  -25.3900  -36.3550   23.8530 C   0  0  0  0  0  3  0  0  0  0  0  0
  -27.5120  -37.2520   24.7100 C   0  0  0  0  0  1  0  0  0  0  0  0
  -26.4160  -37.4190   23.7590 N   0  0  0  0  0  0  0  0  0  0  0  0
  -26.0000  -38.3340   23.9110 H   0  0  0  0  0  0  0  0  0  0  0  0
  -26.3860  -31.7540   25.0790 C   0  0  1  0  0  0  0  0  0  0  0  0
  -25.2660  -31.5290   26.1240 C   0  0  0  0  0  1  0  0  0  0  0  0
  -26.9880  -30.3730   24.7440 C   0  0  0  0  0  1  0  0  0  0  0  0
  -27.5140  -32.5680   25.7560 C   0  0  0  0  0  1  0  0  0  0  0  0
  -28.2300  -23.3320   20.4390 C   0  0  0  0  0 15  0  0  0  0  0  0
  -28.7870  -21.3790   19.8640 C   0  0  0  0  0 15  0  0  0  0  0  0
  -29.3980  -19.4400   20.4120 C   0  0  0  0  0  1  0  0  0  0  0  0
  -30.1690  -16.0920   20.0360 C   0  0  0  0  0  0  0  0  0  0  0  0
  -30.3590  -13.4710   19.1990 C   0  0  0  0  0  2  0  0  0  0  0  0
  -29.4770  -12.8700   18.0550 C   0  0  0  0  0  2  0  0  0  0  0  0
  -28.1030  -12.4290   18.5740 C   0  0  0  0  0  2  0  0  0  0  0  0
  -27.5630  -13.4490   19.5940 C   0  0  0  0  0  3  0  0  0  0  0  0
  -28.6020  -13.9210   20.6470 C   0  0  0  0  0  2  0  0  0  0  0  0
  -29.6750  -14.6720   19.9180 N   0  0  0  0  0  0  0  0  0  0  0  0
  -31.4150  -15.9560   19.9590 O   0  0  0  0  0  0  0  0  0  0  0  0
  -29.4220  -17.5600   20.0550 N   0  0  0  0  0  0  0  0  0  0  0  0
  -28.4530  -17.3130   19.9040 H   0  0  0  0  0  0  0  0  0  0  0  0
  -25.2310  -13.9310   20.4500 C   0  0  0  0  0  0  0  0  0  0  0  0
  -24.1900  -13.1380   20.8360 C   0  0  0  0  0  0  0  0  0  0  0  0
  -24.6710  -11.7930   20.7770 C   0  0  0  0  0  0  0  0  0  0  0  0
  -26.2760  -13.0750   20.1660 N   0  0  0  0  0  0  0  0  0  0  0  0
  -25.9570  -11.7790   20.4270 N   0  0  0  0  0  0  0  0  0  0  0  0
  -23.9560  -10.5240   20.9740 C   0  0  0  0  0  0  0  0  0  0  0  0
  -24.4050   -9.5560   21.8990 C   0  0  0  0  0  3  0  0  0  0  0  0
  -23.6830   -8.3560   22.0890 C   0  0  0  0  0  3  0  0  0  0  0  0
  -22.4960   -8.1180   21.3550 C   0  0  0  0  0  0  0  0  0  0  0  0
  -22.0660   -9.0740   20.4200 C   0  0  0  0  0  3  0  0  0  0  0  0
  -22.7890  -10.2650   20.2280 C   0  0  0  0  0  3  0  0  0  0  0  0
  -21.7460   -6.9710   21.4550 O   0  0  0  0  0  0  0  0  0  0  0  0
  -21.7090   -6.2310   22.6100 C   0  0  0  0  0  0  0  0  0  0  0  0
  -21.2840   -6.7860   23.8360 C   0  0  0  0  0  3  0  0  0  0  0  0
  -21.1960   -5.9730   24.9840 C   0  0  0  0  0  3  0  0  0  0  0  0
  -21.5230   -4.6050   24.9060 C   0  0  0  0  0  0  0  0  0  0  0  0
  -21.9420   -4.0500   23.6840 C   0  0  0  0  0  3  0  0  0  0  0  0
  -22.0320   -4.8600   22.5390 C   0  0  0  0  0  0  0  0  0  0  0  0
  -22.4140   -4.3150   21.3590 F   0  0  0  0  0  0  0  0  0  0  0  0
  -21.4320   -3.8220   26.0060 F   0  0  0  0  0  0  0  0  0  0  0  0
  -22.7960  -13.6030   21.1400 C   0  0  0  0  0  0  0  0  0  0  0  0
  -22.0920  -12.8960   22.0160 N   0  0  0  0  0  0  0  0  0  0  0  0
  -22.3430  -14.6300   20.6380 O   0  0  0  0  0  0  0  0  0  0  0  0
  -22.4740  -12.0650   22.4440 H   0  0  0  0  0  0  0  0  0  0  0  0
  -21.1580  -13.1890   22.2630 H   0  0  0  0  0  0  0  0  0  0  0  0
  -25.3710  -15.3060   20.2780 N   0  0  0  0  0  0  0  0  0  0  0  0
  -24.5980  -15.9490   20.4140 H   0  0  0  0  0  0  0  0  0  0  0  0
  -26.2020  -15.7550   19.9170 H   0  0  0  0  0  0  0  0  0  0  0  0
  1  3  1  0
  2 13  2  0
  3  8  1  0
  4 12  1  0
  4 14  1  0
  5 11  1  0
  5  7  1  0
  6 12  1  0
  7  8  2  0
  7  6  1  0
  9  3  2  0
 10  9  1  0
 10  5  2  0
 11  4  1  0
 12  2  1  0
 14 16  2  0
 15 14  1  0
 15 19  1  0
 17 15  1  0
 18 27  2  0
 18 23  1  0
 19 23  1  0
 20 19  2  0
 21 22  2  0
 21 20  1  0
 22 18  1  0
 23 24  2  0
 24 25  1  0
 26 25  2  0
 27 26  1  0
 28  2  1  0
 28 29  1  0
 28 38  1  0
 29 32  1  0
 30 34  1  0
 30 29  1  0
 31 30  2  0
 34 33  1  0
 36 34  1  0
 36 37  1  0
 36 35  1  0
 38 41  1  1
 38 39  1  0
 40 38  1  0
 45 53  1  0
 46 51  1  0
 47 48  1  0
 47 46  1  0
 49 48  1  0
 49 58  1  0
 49 50  1  0
 51 45  1  0
 51 50  1  0
 52 45  2  0
 53 44  1  0
 54 53  1  0
 55 56  2  0
 56 75  1  0
 57 56  1  0
 57 60  1  0
 58 59  1  0
 58 55  1  0
 59 57  2  0
 60 61  1  0
 61 62  2  0
 63 66  1  0
 63 62  1  0
 64 63  2  0
 65 64  1  0
 65 60  2  0
 66 67  1  0
 67 68  1  0
 68 69  2  0
 70 69  1  0
 70 74  1  0
 71 70  2  0
 72 67  2  0
 72 71  1  0
 73 72  1  0
 75 76  1  0
 76 79  1  0
 76 78  1  0
 77 75  2  0
 80 81  1  0
 80 55  1  0
 82 80  1  0
M  ISO  4   1 101  42 101  45 100  53 100
M  END
>  <TORSDO>  (72) 
F 18

>  <SCORE>  (72) 
-16.165

>  <name>  (72) 
74

>  <ligand_id>  (72) 
74

>  <original_smiles>  (72) 
[H]c1c([H])c([H])c2c(c1[H])C([H])([H])C([H])([H])C([H])([H])C2([H])N([H])C(=O)C1([H])N(C(=O)C([H])(N([H])C(=O)C([H])(N([H])C([H])([H])[H])C([H])([H])[H])C(C([H])([H])[H])(C([H])([H])[H])C([H])([H])[H])C([H])([H])c2c([H])c(OC([H])([H])C([H])([H])C([H])([H])N([H])C(=O)N3C([H])([H])C([H])([H])C([H])([H])C([H])(n4nc(-c5c([H])c([H])c(Oc6c([H])c([H])c(F)c([H])c6F)c([H])c5[H])c(C(=O)N([H])[H])c4N([H])[H])C3([H])[H])c([H])c([H])c2C1([H])[H]

>  <smiles>  (72) 
[H]c1c([H])c([H])c2c(c1[H])C([H])([H])C([H])([H])C([H])([H])C2([H])N([H])C(=O)C1([H])N(C(=O)C([H])(N([H])C(=O)C([H])(N([H])C([H])([H])[H])C([H])([H])[H])C(C([H])([H])[H])(C([H])([H])[H])C([H])([H])[H])C([H])([H])c2c([H])c(OC([H])([H])C([H])([H])C([H])([H])N([H])C(=O)N3C([H])([H])C([H])([H])C([H])([H])C([H])(n4nc(-c5c([H])c([H])c(Oc6c([H])c([H])c(F)c([H])c6F)c([H])c5[H])c(C(=O)N([H])[H])c4N([H])[H])C3([H])[H])c([H])c([H])c2C1([H])[H]

$$$$
75:0:0
     RDKit          3D

 91 99  0  0  1  0  0  0  0  0999 V2000
  -29.7410  -18.2090   19.8450 C   0  0  0  0  0  0  0  0  0  0  0  0
  -28.3440  -23.9540   19.6100 C   0  0  0  0  0  0  0  0  0  0  0  0
  -29.2970  -20.3930   21.2010 C   0  0  0  0  0  2  0  0  0  0  0  0
  -29.3940  -20.4390   18.7660 C   0  0  0  0  0  2  0  0  0  0  0  0
  -29.2680  -21.9990   21.0710 C   0  0  0  0  0  2  0  0  0  0  0  0
  -28.3210  -21.5610   18.8690 C   0  0  0  0  0  2  0  0  0  0  0  0
  -29.4840  -19.5770   19.9650 N   0  0  0  0  0  0  0  0  0  0  0  0
  -28.6350  -22.6100   19.8650 N   0  0  0  0  0  0  0  0  0  0  0  0
  -29.8020  -17.6830   18.7290 O   0  0  0  0  0  0  0  0  0  0  0  0
  -28.0140  -24.3010   18.4710 O   0  0  0  0  0  0  0  0  0  0  0  0
  -30.0110  -17.2250   21.0450 C   0  0  0  0  0  2  0  0  0  0  0  0
  -30.5730  -14.6950   20.4670 C   0  0  0  0  0  0  0  0  0  0  0  0
  -30.3960  -12.4540   19.3780 C   0  0  0  0  0  2  0  0  0  0  0  0
  -29.4610  -12.5700   18.1520 C   0  0  0  0  0  2  0  0  0  0  0  0
  -27.9820  -12.4110   18.5630 C   0  0  0  0  0  2  0  0  0  0  0  0
  -27.6100  -13.2660   19.8030 C   0  0  0  0  0  3  0  0  0  0  0  0
  -28.6570  -13.1040   20.9260 C   0  0  0  0  0  2  0  0  0  0  0  0
  -29.9650  -13.4680   20.3610 N   0  0  0  0  0  0  0  0  0  0  0  0
  -31.7440  -14.8600   20.1130 O   0  0  0  0  0  0  0  0  0  0  0  0
  -29.7630  -15.7410   20.8360 N   0  0  0  0  0  0  0  0  0  0  0  0
  -28.8150  -15.4590   21.0260 H   0  0  0  0  0  0  0  0  0  0  0  0
  -25.2090  -13.8700   20.4840 C   0  0  0  0  0  0  0  0  0  0  0  0
  -24.1380  -13.0990   20.8490 C   0  0  0  0  0  0  0  0  0  0  0  0
  -24.6010  -11.7490   20.8360 C   0  0  0  0  0  0  0  0  0  0  0  0
  -26.2560  -12.9880   20.2720 N   0  0  0  0  0  0  0  0  0  0  0  0
  -25.8950  -11.7070   20.5430 N   0  0  0  0  0  0  0  0  0  0  0  0
  -23.8710  -10.4880   21.0280 C   0  0  0  0  0  0  0  0  0  0  0  0
  -24.2960   -9.5240   21.9690 C   0  0  0  0  0  3  0  0  0  0  0  0
  -23.5690   -8.3280   22.1470 C   0  0  0  0  0  3  0  0  0  0  0  0
  -22.4020   -8.0870   21.3840 C   0  0  0  0  0  0  0  0  0  0  0  0
  -21.9960   -9.0380   20.4310 C   0  0  0  0  0  3  0  0  0  0  0  0
  -22.7240  -10.2250   20.2510 C   0  0  0  0  0  3  0  0  0  0  0  0
  -21.6460   -6.9430   21.4720 O   0  0  0  0  0  0  0  0  0  0  0  0
  -21.5900   -6.2040   22.6280 C   0  0  0  0  0  0  0  0  0  0  0  0
  -21.1630   -6.7650   23.8510 C   0  0  0  0  0  3  0  0  0  0  0  0
  -21.0550   -5.9530   24.9970 C   0  0  0  0  0  3  0  0  0  0  0  0
  -21.3640   -4.5820   24.9220 C   0  0  0  0  0  0  0  0  0  0  0  0
  -21.7840   -4.0200   23.7030 C   0  0  0  0  0  3  0  0  0  0  0  0
  -21.8940   -4.8300   22.5580 C   0  0  0  0  0  0  0  0  0  0  0  0
  -22.2790   -4.2800   21.3810 F   0  0  0  0  0  0  0  0  0  0  0  0
  -21.2520   -3.7990   26.0200 F   0  0  0  0  0  0  0  0  0  0  0  0
  -22.7360  -13.5790   21.0970 C   0  0  0  0  0  0  0  0  0  0  0  0
  -21.9960  -12.8890   21.9590 N   0  0  0  0  0  0  0  0  0  0  0  0
  -22.3060  -14.5990   20.5630 O   0  0  0  0  0  0  0  0  0  0  0  0
  -22.3550  -12.0640   22.4150 H   0  0  0  0  0  0  0  0  0  0  0  0
  -21.0540  -13.1910   22.1670 H   0  0  0  0  0  0  0  0  0  0  0  0
  -25.3730  -15.2380   20.2930 N   0  0  0  0  0  0  0  0  0  0  0  0
  -24.5980  -15.8860   20.3780 H   0  0  0  0  0  0  0  0  0  0  0  0
  -26.2090  -15.6710   19.9210 H   0  0  0  0  0  0  0  0  0  0  0  0
  -28.3240  -25.1070   20.6950 C   0  0  0  0  0  2  0  0  0  0  0  0
  -28.3840  -26.5100   20.1830 O   0  0  0  0  0  0  0  0  0  0  0  0
  -24.6160  -31.8790   23.2360 C   0  0  0  0  0  0  0  0  0  0  0  0
  -27.2410  -27.3240   20.1950 C   0  0  0  0  0  0  0  0  0  0  0  0
  -23.4130  -30.4760   21.5970 C   0  0  0  0  0  3  0  0  0  0  0  0
  -24.8670  -28.9200   20.1760 C   0  0  0  0  0  0  0  0  0  0  0  0
  -25.9490  -30.8060   21.4040 C   0  0  0  0  0  2  0  0  0  0  0  0
  -26.0350  -29.4230   20.7650 C   0  0  0  0  0  0  0  0  0  0  0  0
  -27.2260  -28.6390   20.7550 C   0  0  0  0  0  3  0  0  0  0  0  0
  -26.0500  -26.8640   19.5950 C   0  0  0  0  0  3  0  0  0  0  0  0
  -24.8780  -27.6470   19.5810 C   0  0  0  0  0  3  0  0  0  0  0  0
  -23.6270  -29.7920   20.2200 C   0  0  0  0  0  2  0  0  0  0  0  0
  -24.6790  -31.0710   22.1360 N   0  0  0  0  0  0  0  0  0  0  0  0
  -23.5330  -32.1530   23.7730 O   0  0  0  0  0  0  0  0  0  0  0  0
  -22.7540  -29.4610   22.5610 C   0  0  0  0  0  0  0  0  0  0  0  0
  -21.4280  -29.2820   22.4360 N   0  0  0  0  0  0  0  0  0  0  0  0
  -23.4360  -28.8360   23.3790 O   0  0  0  0  0  0  0  0  0  0  0  0
  -20.9380  -29.8380   21.7490 H   0  0  0  0  0  0  0  0  0  0  0  0
  -18.0540  -28.0770   22.9410 C   0  0  0  0  0  0  0  0  0  0  0  0
  -20.6120  -28.3420   23.2080 C   0  0  0  0  0  3  0  0  0  0  0  0
  -20.7160  -26.9100   22.6330 C   0  0  0  0  0  2  0  0  0  0  0  0
  -19.6140  -26.5850   21.6200 C   0  0  0  0  0  2  0  0  0  0  0  0
  -18.2330  -26.7290   22.2660 C   0  0  0  0  0  2  0  0  0  0  0  0
  -19.1720  -28.8420   23.3700 C   0  0  0  0  0  0  0  0  0  0  0  0
  -18.9520  -30.1040   23.9620 C   0  0  0  0  0  3  0  0  0  0  0  0
  -17.6460  -30.6040   24.1300 C   0  0  0  0  0  3  0  0  0  0  0  0
  -16.5430  -29.8370   23.7170 C   0  0  0  0  0  3  0  0  0  0  0  0
  -16.7480  -28.5750   23.1300 C   0  0  0  0  0  3  0  0  0  0  0  0
  -25.8990  -32.5150   23.8570 C   0  0  0  0  0  3  0  0  0  0  0  0
  -25.5870  -33.9130   24.1890 N   0  0  0  0  0  0  0  0  0  0  0  0
  -25.9110  -34.9670   23.4280 C   0  0  0  0  0  0  0  0  0  0  0  0
  -26.5740  -34.8650   22.3940 O   0  0  0  0  0  0  0  0  0  0  0  0
  -25.0000  -34.0650   24.9960 H   0  0  0  0  0  0  0  0  0  0  0  0
  -24.1760  -36.7550   23.0830 C   0  0  0  0  0  1  0  0  0  0  0  0
  -25.4220  -36.3540   23.8890 C   0  0  0  0  0  3  0  0  0  0  0  0
  -27.5600  -37.2460   24.7060 C   0  0  0  0  0  1  0  0  0  0  0  0
  -26.4520  -37.4100   23.7690 N   0  0  0  0  0  0  0  0  0  0  0  0
  -26.0440  -38.3290   23.9190 H   0  0  0  0  0  0  0  0  0  0  0  0
  -26.4190  -31.7450   25.1330 C   0  0  1  0  0  0  0  0  0  0  0  0
  -25.3290  -31.5050   26.2030 C   0  0  0  0  0  1  0  0  0  0  0  0
  -27.0020  -30.3680   24.7400 C   0  0  0  0  0  1  0  0  0  0  0  0
  -27.5710  -32.5390   25.7920 C   0  0  0  0  0  1  0  0  0  0  0  0
  1  7  1  0
  1 11  1  0
  2  8  1  0
  2 50  1  0
  4  6  1  0
  4  7  1  0
  5  3  1  0
  6  8  1  0
  7  3  1  0
  8  5  1  0
  9  1  2  0
 10  2  2  0
 12 20  1  0
 13 18  1  0
 14 15  1  0
 14 13  1  0
 16 15  1  0
 16 25  1  0
 16 17  1  0
 18 12  1  0
 18 17  1  0
 19 12  2  0
 20 21  1  0
 20 11  1  0
 22 23  2  0
 23 42  1  0
 24 23  1  0
 24 27  1  0
 25 22  1  0
 25 26  1  0
 26 24  2  0
 27 28  1  0
 28 29  2  0
 30 33  1  0
 30 29  1  0
 31 30  2  0
 32 31  1  0
 32 27  2  0
 33 34  1  0
 34 35  1  0
 35 36  2  0
 37 36  1  0
 37 41  1  0
 38 37  2  0
 39 34  2  0
 39 38  1  0
 40 39  1  0
 42 43  1  0
 43 46  1  0
 43 45  1  0
 44 42  2  0
 47 48  1  0
 47 22  1  0
 49 47  1  0
 51 53  1  0
 51 50  1  0
 52 63  2  0
 53 58  1  0
 54 62  1  0
 54 64  1  0
 55 61  1  0
 55 57  1  0
 56 62  1  0
 57 56  1  0
 58 57  2  0
 59 53  2  0
 60 59  1  0
 60 55  2  0
 61 54  1  0
 62 52  1  0
 64 66  2  0
 65 64  1  0
 67 65  1  0
 68 77  2  0
 68 73  1  0
 69 65  1  0
 69 73  1  0
 70 69  1  0
 71 72  1  0
 71 70  1  0
 72 68  1  0
 73 74  2  0
 74 75  1  0
 76 75  2  0
 77 76  1  0
 78 52  1  0
 78 79  1  0
 78 88  1  0
 79 82  1  0
 80 84  1  0
 80 79  1  0
 81 80  2  0
 84 83  1  0
 86 84  1  0
 86 87  1  0
 86 85  1  0
 88 91  1  1
 88 89  1  0
 90 88  1  0
M  ISO  4  12 100  20 100  50 101  51 101
M  END
>  <TORSDO>  (73) 
F 18

>  <SCORE>  (73) 
-14.693

>  <name>  (73) 
75

>  <ligand_id>  (73) 
75

>  <original_smiles>  (73) 
[H]c1c([H])c([H])c2c(c1[H])C([H])([H])C([H])([H])C([H])([H])C2([H])N([H])C(=O)C1([H])N(C(=O)C([H])(N([H])C(=O)C([H])(N([H])C([H])([H])[H])C([H])([H])[H])C(C([H])([H])[H])(C([H])([H])[H])C([H])([H])[H])C([H])([H])c2c([H])c(OC([H])([H])C(=O)N3C([H])([H])C([H])([H])N(C(=O)C([H])([H])N([H])C(=O)N4C([H])([H])C([H])([H])C([H])([H])C([H])(n5nc(-c6c([H])c([H])c(Oc7c([H])c([H])c(F)c([H])c7F)c([H])c6[H])c(C(=O)N([H])[H])c5N([H])[H])C4([H])[H])C([H])([H])C3([H])[H])c([H])c([H])c2C1([H])[H]

>  <smiles>  (73) 
[H]c1c([H])c([H])c2c(c1[H])C([H])([H])C([H])([H])C([H])([H])C2([H])N([H])C(=O)C1([H])N(C(=O)C([H])(N([H])C(=O)C([H])(N([H])C([H])([H])[H])C([H])([H])[H])C(C([H])([H])[H])(C([H])([H])[H])C([H])([H])[H])C([H])([H])c2c([H])c(OC([H])([H])C(=O)N3C([H])([H])C([H])([H])N(C(=O)C([H])([H])N([H])C(=O)N4C([H])([H])C([H])([H])C([H])([H])C([H])(n5nc(-c6c([H])c([H])c(Oc7c([H])c([H])c(F)c([H])c7F)c([H])c6[H])c(C(=O)N([H])[H])c5N([H])[H])C4([H])[H])C([H])([H])C3([H])[H])c([H])c([H])c2C1([H])[H]

$$$$
76:0:0
     RDKit          3D

 88 95  0  0  1  0  0  0  0  0999 V2000
  -29.1560  -19.7520   20.6110 C   0  0  0  0  0  0  0  0  0  0  0  0
  -28.6390  -19.6090   21.7190 O   0  0  0  0  0  0  0  0  0  0  0  0
  -29.9160  -18.2820   19.8760 C   0  0  0  0  0  0  0  0  0  0  0  0
  -30.4960  -15.3900   20.1310 C   0  0  0  0  0  0  0  0  0  0  0  0
  -30.4480  -12.9540   19.2400 C   0  0  0  0  0  2  0  0  0  0  0  0
  -29.5170  -12.7820   18.0140 C   0  0  0  0  0  2  0  0  0  0  0  0
  -28.0720  -12.5090   18.4650 C   0  0  0  0  0  2  0  0  0  0  0  0
  -27.6400  -13.4470   19.6210 C   0  0  0  0  0  3  0  0  0  0  0  0
  -28.7030  -13.5730   20.7340 C   0  0  0  0  0  2  0  0  0  0  0  0
  -29.9270  -14.0840   20.0940 N   0  0  0  0  0  0  0  0  0  0  0  0
  -31.7050  -15.3880   19.8580 O   0  0  0  0  0  0  0  0  0  0  0  0
  -29.7350  -16.6570   20.2500 N   0  0  0  0  0  4  0  0  0  0  0  0
  -28.7850  -16.4710   20.5360 H   0  0  0  0  0  0  0  0  0  0  0  0
  -25.2710  -13.9780   20.4010 C   0  0  0  0  0  0  0  0  0  0  0  0
  -24.2240  -13.1900   20.7880 C   0  0  0  0  0  0  0  0  0  0  0  0
  -24.7070  -11.8450   20.7560 C   0  0  0  0  0  0  0  0  0  0  0  0
  -26.3210  -13.1150   20.1460 N   0  0  0  0  0  0  0  0  0  0  0  0
  -25.9960  -11.8260   20.4290 N   0  0  0  0  0  0  0  0  0  0  0  0
  -23.9960  -10.5750   20.9600 C   0  0  0  0  0  0  0  0  0  0  0  0
  -24.4430   -9.6220   21.9020 C   0  0  0  0  0  3  0  0  0  0  0  0
  -23.7280   -8.4200   22.0940 C   0  0  0  0  0  3  0  0  0  0  0  0
  -22.5550   -8.1640   21.3460 C   0  0  0  0  0  0  0  0  0  0  0  0
  -22.1290   -9.1060   20.3940 C   0  0  0  0  0  3  0  0  0  0  0  0
  -22.8440  -10.2990   20.1990 C   0  0  0  0  0  3  0  0  0  0  0  0
  -21.8100   -7.0120   21.4480 O   0  0  0  0  0  0  0  0  0  0  0  0
  -21.7660   -6.2840   22.6090 C   0  0  0  0  0  0  0  0  0  0  0  0
  -21.3250   -6.8470   23.8260 C   0  0  0  0  0  3  0  0  0  0  0  0
  -21.2280   -6.0440   24.9800 C   0  0  0  0  0  3  0  0  0  0  0  0
  -21.5650   -4.6780   24.9180 C   0  0  0  0  0  0  0  0  0  0  0  0
  -22.0030   -4.1150   23.7070 C   0  0  0  0  0  3  0  0  0  0  0  0
  -22.1000   -4.9150   22.5550 C   0  0  0  0  0  0  0  0  0  0  0  0
  -22.5010   -4.3620   21.3850 F   0  0  0  0  0  0  0  0  0  0  0  0
  -21.4660   -3.9040   26.0250 F   0  0  0  0  0  0  0  0  0  0  0  0
  -22.8250  -13.6530   21.0660 C   0  0  0  0  0  0  0  0  0  0  0  0
  -22.1100  -12.9540   21.9400 N   0  0  0  0  0  0  0  0  0  0  0  0
  -22.3750  -14.6730   20.5420 O   0  0  0  0  0  0  0  0  0  0  0  0
  -22.4870  -12.1320   22.3870 H   0  0  0  0  0  0  0  0  0  0  0  0
  -21.1710  -13.2490   22.1680 H   0  0  0  0  0  0  0  0  0  0  0  0
  -25.4110  -15.3500   20.2150 N   0  0  0  0  0  0  0  0  0  0  0  0
  -24.6270  -15.9820   20.3310 H   0  0  0  0  0  0  0  0  0  0  0  0
  -26.2250  -15.8010   19.8210 H   0  0  0  0  0  0  0  0  0  0  0  0
  -28.6670  -17.8000   17.6730 C   0  0  0  0  0  1  0  0  0  0  0  0
  -31.2000  -17.8960   17.6760 C   0  0  0  0  0  1  0  0  0  0  0  0
  -29.9110  -18.4250   18.3290 C   0  0  0  0  0  3  0  0  0  0  0  0
  -29.1320  -21.2920   19.9580 O   0  0  0  0  0  0  0  0  0  0  0  0
  -28.7460  -22.7780   20.5640 C   0  0  0  0  0  2  0  0  0  0  0  0
  -28.1280  -24.3510   19.9110 C   0  0  0  0  0  2  0  0  0  0  0  0
  -28.2080  -25.9530   20.3300 O   0  0  0  0  0  0  0  0  0  0  0  0
  -24.6180  -31.9220   23.2330 C   0  0  0  0  0  0  0  0  0  0  0  0
  -27.1900  -27.0420   20.2260 C   0  0  0  0  0  0  0  0  0  0  0  0
  -23.4270  -30.5160   21.6000 C   0  0  0  0  0  3  0  0  0  0  0  0
  -24.8800  -28.9120   20.1770 C   0  0  0  0  0  0  0  0  0  0  0  0
  -25.9910  -30.7360   21.4510 C   0  0  0  0  0  2  0  0  0  0  0  0
  -26.0660  -29.3230   20.7990 C   0  0  0  0  0  0  0  0  0  0  0  0
  -27.2110  -28.4060   20.8040 C   0  0  0  0  0  3  0  0  0  0  0  0
  -25.9790  -26.7880   19.5440 C   0  0  0  0  0  3  0  0  0  0  0  0
  -24.8620  -27.6640   19.5320 C   0  0  0  0  0  3  0  0  0  0  0  0
  -23.6570  -29.8280   20.2260 C   0  0  0  0  0  2  0  0  0  0  0  0
  -24.7010  -31.0850   22.1480 N   0  0  0  0  0  0  0  0  0  0  0  0
  -23.5280  -32.2120   23.7530 O   0  0  0  0  0  0  0  0  0  0  0  0
  -22.7380  -29.5230   22.5710 C   0  0  0  0  0  0  0  0  0  0  0  0
  -21.4080  -29.3530   22.4490 N   0  0  0  0  0  0  0  0  0  0  0  0
  -23.4060  -28.9040   23.4030 O   0  0  0  0  0  0  0  0  0  0  0  0
  -20.9220  -29.9030   21.7540 H   0  0  0  0  0  0  0  0  0  0  0  0
  -18.0310  -28.1300   22.9580 C   0  0  0  0  0  0  0  0  0  0  0  0
  -20.5880  -28.4160   23.2240 C   0  0  0  0  0  3  0  0  0  0  0  0
  -20.7000  -26.9810   22.6560 C   0  0  0  0  0  2  0  0  0  0  0  0
  -19.6020  -26.6460   21.6420 C   0  0  0  0  0  2  0  0  0  0  0  0
  -18.2180  -26.7810   22.2850 C   0  0  0  0  0  2  0  0  0  0  0  0
  -19.1430  -28.9040   23.3840 C   0  0  0  0  0  0  0  0  0  0  0  0
  -18.9130  -30.1650   23.9770 C   0  0  0  0  0  3  0  0  0  0  0  0
  -17.6030  -30.6520   24.1480 C   0  0  0  0  0  3  0  0  0  0  0  0
  -16.5050  -29.8760   23.7360 C   0  0  0  0  0  3  0  0  0  0  0  0
  -16.7210  -28.6170   23.1460 C   0  0  0  0  0  3  0  0  0  0  0  0
  -25.8870  -32.5710   23.8640 C   0  0  0  0  0  3  0  0  0  0  0  0
  -25.5670  -33.9750   24.1830 N   0  0  0  0  0  0  0  0  0  0  0  0
  -25.9040  -35.0310   23.4300 C   0  0  0  0  0  0  0  0  0  0  0  0
  -26.5790  -34.9260   22.4030 O   0  0  0  0  0  0  0  0  0  0  0  0
  -24.9650  -34.1270   24.9770 H   0  0  0  0  0  0  0  0  0  0  0  0
  -24.1820  -36.8340   23.0770 C   0  0  0  0  0  1  0  0  0  0  0  0
  -25.4210  -36.4230   23.8880 C   0  0  0  0  0  3  0  0  0  0  0  0
  -27.5540  -37.3100   24.7240 C   0  0  0  0  0  1  0  0  0  0  0  0
  -26.4560  -37.4740   23.7750 N   0  0  0  0  0  0  0  0  0  0  0  0
  -26.0500  -38.3960   23.9140 H   0  0  0  0  0  0  0  0  0  0  0  0
  -26.3860  -31.8200   25.1610 C   0  0  1  0  0  0  0  0  0  0  0  0
  -25.2780  -31.6030   26.2200 C   0  0  0  0  0  1  0  0  0  0  0  0
  -26.9700  -30.4340   24.8050 C   0  0  0  0  0  1  0  0  0  0  0  0
  -27.5310  -32.6230   25.8220 C   0  0  0  0  0  1  0  0  0  0  0  0
  1  2  2  0
  3 12  2  0
  3  1  1  0
  4 12  1  0
  5 10  1  0
  6  7  1  0
  6  5  1  0
  8  7  1  0
  8 17  1  0
  8  9  1  0
 10  4  1  0
 10  9  1  0
 11  4  2  0
 12 13  1  0
 14 15  2  0
 15 34  1  0
 16 15  1  0
 16 19  1  0
 17 14  1  0
 17 18  1  0
 18 16  2  0
 19 20  1  0
 20 21  2  0
 22 25  1  0
 22 21  1  0
 23 22  2  0
 24 23  1  0
 24 19  2  0
 25 26  1  0
 26 27  1  0
 27 28  2  0
 29 28  1  0
 29 33  1  0
 30 29  2  0
 31 26  2  0
 31 30  1  0
 32 31  1  0
 34 35  1  0
 35 38  1  0
 35 37  1  0
 36 34  2  0
 39 40  1  0
 39 14  1  0
 41 39  1  0
 42 44  1  0
 43 44  1  0
 44  3  1  0
 45 46  1  0
 45  1  1  0
 47 48  1  0
 47 46  1  0
 49 60  2  0
 50 48  1  0
 50 55  1  0
 51 59  1  0
 51 61  1  0
 52 58  1  0
 52 54  1  0
 53 59  1  0
 54 55  2  0
 54 53  1  0
 56 50  2  0
 57 56  1  0
 57 52  2  0
 58 51  1  0
 59 49  1  0
 61 63  2  0
 62 61  1  0
 64 62  1  0
 65 74  2  0
 65 70  1  0
 66 62  1  0
 66 70  1  0
 67 66  1  0
 68 69  1  0
 68 67  1  0
 69 65  1  0
 70 71  2  0
 71 72  1  0
 73 72  2  0
 74 73  1  0
 75 49  1  0
 75 76  1  0
 75 85  1  0
 76 79  1  0
 77 81  1  0
 77 76  1  0
 78 77  2  0
 81 80  1  0
 83 81  1  0
 83 84  1  0
 83 82  1  0
 85 88  1  1
 85 86  1  0
 87 85  1  0
M  ISO  4   4 100  12 100  47 101  48 101
M  END
>  <TORSDO>  (74) 
F 21

>  <SCORE>  (74) 
-15.149

>  <name>  (74) 
76

>  <ligand_id>  (74) 
76

>  <original_smiles>  (74) 
[H]c1c([H])c([H])c2c(c1[H])C([H])([H])C([H])([H])C([H])([H])C2([H])N([H])C(=O)C1([H])N(C(=O)C([H])(N([H])C(=O)C([H])(N([H])C([H])([H])[H])C([H])([H])[H])C(C([H])([H])[H])(C([H])([H])[H])C([H])([H])[H])C([H])([H])c2c([H])c(OC([H])([H])C([H])([H])OC(=O)C([H])(N([H])C(=O)N3C([H])([H])C([H])([H])C([H])([H])C([H])(n4nc(-c5c([H])c([H])c(Oc6c([H])c([H])c(F)c([H])c6F)c([H])c5[H])c(C(=O)N([H])[H])c4N([H])[H])C3([H])[H])C([H])(C([H])([H])[H])C([H])([H])[H])c([H])c([H])c2C1([H])[H]

>  <smiles>  (74) 
[H]c1c([H])c([H])c2c(c1[H])C([H])([H])C([H])([H])C([H])([H])C2([H])N([H])C(=O)C1([H])N(C(=O)C([H])(N([H])C(=O)C([H])(N([H])C([H])([H])[H])C([H])([H])[H])C(C([H])([H])[H])(C([H])([H])[H])C([H])([H])[H])C([H])([H])c2c([H])c(OC([H])([H])C([H])([H])OC(=O)C([H])(N([H])C(=O)N3C([H])([H])C([H])([H])C([H])([H])C([H])(n4nc(-c5c([H])c([H])c(Oc6c([H])c([H])c(F)c([H])c6F)c([H])c5[H])c(C(=O)N([H])[H])c4N([H])[H])C3([H])[H])C([H])(C([H])([H])[H])C([H])([H])[H])c([H])c([H])c2C1([H])[H]

$$$$
77:0:0
     RDKit          3D

 94102  0  0  1  0  0  0  0  0999 V2000
  -30.2850  -23.8860   20.0630 C   0  0  0  0  0  0  0  0  0  0  0  0
  -30.4870  -24.9940   20.7840 N   0  0  0  0  0  0  0  0  0  0  0  0
  -30.4480  -23.8530   18.8410 O   0  0  0  0  0  0  0  0  0  0  0  0
  -30.3490  -24.9370   21.7840 H   0  0  0  0  0  0  0  0  0  0  0  0
  -29.8210  -22.6380   20.8250 C   0  0  0  0  0  2  0  0  0  0  0  0
  -29.0950  -21.6220   19.9170 C   0  0  0  0  0  2  0  0  0  0  0  0
  -28.7000  -20.2980   20.6110 C   0  0  0  0  0  2  0  0  0  0  0  0
  -30.7570  -14.4590   20.2470 C   0  0  0  0  0  0  0  0  0  0  0  0
  -30.4490  -12.2800   19.1810 C   0  0  0  0  0  2  0  0  0  0  0  0
  -29.4910  -12.4730   17.9870 C   0  0  0  0  0  2  0  0  0  0  0  0
  -28.0140  -12.4050   18.4270 C   0  0  0  0  0  2  0  0  0  0  0  0
  -27.7020  -13.2210   19.7090 C   0  0  0  0  0  3  0  0  0  0  0  0
  -28.7800  -13.0110   20.7980 C   0  0  0  0  0  2  0  0  0  0  0  0
  -30.0920  -13.2800   20.1910 N   0  0  0  0  0  0  0  0  0  0  0  0
  -31.9490  -14.5850   19.9510 O   0  0  0  0  0  0  0  0  0  0  0  0
  -28.1890  -19.2570   19.6010 C   0  0  0  0  0  0  0  0  0  0  0  0
  -28.5380  -16.9880   18.7190 C   0  0  0  0  0  2  0  0  0  0  0  0
  -28.5520  -17.3110   21.1480 C   0  0  0  0  0  2  0  0  0  0  0  0
  -29.8730  -16.2280   18.8560 C   0  0  0  0  0  2  0  0  0  0  0  0
  -29.8580  -16.4930   21.2560 C   0  0  0  0  0  2  0  0  0  0  0  0
  -28.4320  -17.9440   19.8230 N   0  0  0  0  0  0  0  0  0  0  0  0
  -29.9420  -15.5320   20.1530 N   0  0  0  0  0  0  0  0  0  0  0  0
  -27.6630  -19.6510   18.5540 O   0  0  0  0  0  0  0  0  0  0  0  0
  -25.3080  -13.8380   20.4330 C   0  0  0  0  0  0  0  0  0  0  0  0
  -24.2410  -13.0680   20.8070 C   0  0  0  0  0  0  0  0  0  0  0  0
  -24.7030  -11.7170   20.7810 C   0  0  0  0  0  0  0  0  0  0  0  0
  -26.3530  -12.9560   20.2040 N   0  0  0  0  0  0  0  0  0  0  0  0
  -25.9910  -11.6750   20.4710 N   0  0  0  0  0  0  0  0  0  0  0  0
  -23.9770  -10.4560   20.9780 C   0  0  0  0  0  0  0  0  0  0  0  0
  -24.4100   -9.4950   21.9210 C   0  0  0  0  0  3  0  0  0  0  0  0
  -23.6870   -8.2980   22.1070 C   0  0  0  0  0  3  0  0  0  0  0  0
  -22.5180   -8.0520   21.3500 C   0  0  0  0  0  0  0  0  0  0  0  0
  -22.1030   -8.9990   20.3980 C   0  0  0  0  0  3  0  0  0  0  0  0
  -22.8260  -10.1880   20.2100 C   0  0  0  0  0  3  0  0  0  0  0  0
  -21.7670   -6.9040   21.4440 O   0  0  0  0  0  0  0  0  0  0  0  0
  -21.7090   -6.1760   22.6060 C   0  0  0  0  0  0  0  0  0  0  0  0
  -21.2740   -6.7480   23.8210 C   0  0  0  0  0  3  0  0  0  0  0  0
  -21.1630   -5.9480   24.9760 C   0  0  0  0  0  3  0  0  0  0  0  0
  -21.4770   -4.5760   24.9160 C   0  0  0  0  0  0  0  0  0  0  0  0
  -21.9050   -4.0030   23.7040 C   0  0  0  0  0  3  0  0  0  0  0  0
  -22.0170   -4.8010   22.5520 C   0  0  0  0  0  0  0  0  0  0  0  0
  -22.4090   -4.2410   21.3830 F   0  0  0  0  0  0  0  0  0  0  0  0
  -21.3630   -3.8060   26.0220 F   0  0  0  0  0  0  0  0  0  0  0  0
  -22.8440  -13.5480   21.0840 C   0  0  0  0  0  0  0  0  0  0  0  0
  -22.1240  -12.8570   21.9600 N   0  0  0  0  0  0  0  0  0  0  0  0
  -22.4000  -14.5690   20.5580 O   0  0  0  0  0  0  0  0  0  0  0  0
  -22.4960  -12.0310   22.4060 H   0  0  0  0  0  0  0  0  0  0  0  0
  -21.1880  -13.1560   22.1910 H   0  0  0  0  0  0  0  0  0  0  0  0
  -25.4700  -15.2080   20.2510 N   0  0  0  0  0  0  0  0  0  0  0  0
  -24.7130  -15.8680   20.3940 H   0  0  0  0  0  0  0  0  0  0  0  0
  -26.3330  -15.6460   19.9630 H   0  0  0  0  0  0  0  0  0  0  0  0
  -30.7590  -26.3230   20.2340 C   0  0  0  0  0  2  0  0  0  0  0  0
  -29.6150  -27.2860   20.5740 C   0  0  0  0  0  2  0  0  0  0  0  0
  -28.4040  -26.7400   20.0620 O   0  0  0  0  0  0  0  0  0  0  0  0
  -24.5780  -31.8830   23.2350 C   0  0  0  0  0  0  0  0  0  0  0  0
  -27.2550  -27.4930   20.1480 C   0  0  0  0  0  0  0  0  0  0  0  0
  -23.3670  -30.4700   21.5980 C   0  0  0  0  0  3  0  0  0  0  0  0
  -24.8260  -28.9360   20.1730 C   0  0  0  0  0  0  0  0  0  0  0  0
  -25.8800  -30.8560   21.3860 C   0  0  0  0  0  2  0  0  0  0  0  0
  -25.9740  -29.4850   20.7560 C   0  0  0  0  0  0  0  0  0  0  0  0
  -27.1870  -28.7700   20.7520 C   0  0  0  0  0  3  0  0  0  0  0  0
  -26.0870  -26.9460   19.5790 C   0  0  0  0  0  3  0  0  0  0  0  0
  -24.8730  -27.6600   19.5870 C   0  0  0  0  0  3  0  0  0  0  0  0
  -23.5720  -29.7780   20.2210 C   0  0  0  0  0  2  0  0  0  0  0  0
  -24.6250  -31.0850   22.1320 N   0  0  0  0  0  0  0  0  0  0  0  0
  -23.5010  -32.1510   23.7830 O   0  0  0  0  0  0  0  0  0  0  0  0
  -22.7270  -29.4500   22.5650 C   0  0  0  0  0  0  0  0  0  0  0  0
  -21.4030  -29.2640   22.4430 N   0  0  0  0  0  0  0  0  0  0  0  0
  -23.4170  -28.8280   23.3760 O   0  0  0  0  0  0  0  0  0  0  0  0
  -20.9100  -29.8170   21.7560 H   0  0  0  0  0  0  0  0  0  0  0  0
  -18.0340  -28.0720   22.9530 C   0  0  0  0  0  0  0  0  0  0  0  0
  -20.5910  -28.3270   23.2170 C   0  0  0  0  0  3  0  0  0  0  0  0
  -20.6940  -26.8970   22.6410 C   0  0  0  0  0  2  0  0  0  0  0  0
  -19.5880  -26.5740   21.6320 C   0  0  0  0  0  2  0  0  0  0  0  0
  -18.2080  -26.7210   22.2790 C   0  0  0  0  0  2  0  0  0  0  0  0
  -19.1540  -28.8330   23.3790 C   0  0  0  0  0  0  0  0  0  0  0  0
  -18.9390  -30.0970   23.9680 C   0  0  0  0  0  3  0  0  0  0  0  0
  -17.6360  -30.6010   24.1370 C   0  0  0  0  0  3  0  0  0  0  0  0
  -16.5300  -29.8360   23.7300 C   0  0  0  0  0  3  0  0  0  0  0  0
  -16.7290  -28.5730   23.1440 C   0  0  0  0  0  3  0  0  0  0  0  0
  -25.8690  -32.5160   23.8460 C   0  0  0  0  0  3  0  0  0  0  0  0
  -25.5600  -33.9120   24.1800 N   0  0  0  0  0  0  0  0  0  0  0  0
  -25.8950  -34.9650   23.4220 C   0  0  0  0  0  0  0  0  0  0  0  0
  -26.5680  -34.8620   22.3920 O   0  0  0  0  0  0  0  0  0  0  0  0
  -24.9670  -34.0660   24.9810 H   0  0  0  0  0  0  0  0  0  0  0  0
  -24.1700  -36.7580   23.0560 C   0  0  0  0  0  1  0  0  0  0  0  0
  -25.4050  -36.3510   23.8800 C   0  0  0  0  0  3  0  0  0  0  0  0
  -27.5350  -37.2280   24.7300 C   0  0  0  0  0  1  0  0  0  0  0  0
  -26.4380  -37.4060   23.7820 N   0  0  0  0  0  0  0  0  0  0  0  0
  -26.0300  -38.3240   23.9420 H   0  0  0  0  0  0  0  0  0  0  0  0
  -26.4040  -31.7400   25.1120 C   0  0  1  0  0  0  0  0  0  0  0  0
  -25.3250  -31.4920   26.1890 C   0  0  0  0  0  1  0  0  0  0  0  0
  -26.9880  -30.3670   24.7040 C   0  0  0  0  0  1  0  0  0  0  0  0
  -27.5570  -32.5370   25.7670 C   0  0  0  0  0  1  0  0  0  0  0  0
  1  2  1  0
  1  5  1  0
  2  4  1  0
  3  1  2  0
  6  7  1  0
  6  5  1  0
  9 14  1  0
 10 11  1  0
 10  9  1  0
 12 11  1  0
 12 27  1  0
 12 13  1  0
 14  8  1  0
 14 13  1  0
 15  8  2  0
 16 21  1  0
 16  7  1  0
 17 19  1  0
 17 21  1  0
 18 20  1  0
 19 22  1  0
 21 18  1  0
 22  8  1  0
 22 20  1  0
 23 16  2  0
 24 25  2  0
 25 44  1  0
 26 25  1  0
 26 29  1  0
 27 24  1  0
 27 28  1  0
 28 26  2  0
 29 30  1  0
 30 31  2  0
 32 35  1  0
 32 31  1  0
 33 32  2  0
 34 33  1  0
 34 29  2  0
 35 36  1  0
 36 37  1  0
 37 38  2  0
 39 38  1  0
 39 43  1  0
 40 39  2  0
 41 36  2  0
 41 40  1  0
 42 41  1  0
 44 45  1  0
 45 48  1  0
 45 47  1  0
 46 44  2  0
 49 50  1  0
 49 24  1  0
 51 49  1  0
 52 53  1  0
 52  2  1  0
 54 56  1  0
 54 53  1  0
 55 66  2  0
 56 61  1  0
 57 65  1  0
 57 67  1  0
 58 64  1  0
 58 60  1  0
 59 65  1  0
 60 59  1  0
 61 60  2  0
 62 63  1  0
 62 56  2  0
 63 58  2  0
 64 57  1  0
 65 55  1  0
 67 69  2  0
 68 67  1  0
 70 68  1  0
 71 80  2  0
 71 76  1  0
 72 68  1  0
 72 76  1  0
 73 72  1  0
 74 75  1  0
 74 73  1  0
 75 71  1  0
 76 77  2  0
 77 78  1  0
 79 78  2  0
 80 79  1  0
 81 55  1  0
 81 82  1  0
 81 91  1  0
 82 85  1  0
 83 87  1  0
 83 82  1  0
 84 83  2  0
 87 86  1  0
 89 87  1  0
 89 90  1  0
 89 88  1  0
 91 94  1  1
 91 92  1  0
 93 91  1  0
M  ISO  4   8 100  22 100  53 101  54 101
M  END
>  <TORSDO>  (75) 
F 21

>  <SCORE>  (75) 
-13.203

>  <name>  (75) 
77

>  <ligand_id>  (75) 
77

>  <original_smiles>  (75) 
[H]c1c([H])c([H])c2c(c1[H])C([H])([H])C([H])([H])C([H])([H])C2([H])N([H])C(=O)C1([H])N(C(=O)C([H])(N([H])C(=O)C([H])(N([H])C([H])([H])[H])C([H])([H])[H])C(C([H])([H])[H])(C([H])([H])[H])C([H])([H])[H])C([H])([H])c2c([H])c(OC([H])([H])C([H])([H])N([H])C(=O)C([H])([H])C([H])([H])C([H])([H])C(=O)N3C([H])([H])C([H])([H])N(C(=O)N4C([H])([H])C([H])([H])C([H])([H])C([H])(n5nc(-c6c([H])c([H])c(Oc7c([H])c([H])c(F)c([H])c7F)c([H])c6[H])c(C(=O)N([H])[H])c5N([H])[H])C4([H])[H])C([H])([H])C3([H])[H])c([H])c([H])c2C1([H])[H]

>  <smiles>  (75) 
[H]c1c([H])c([H])c2c(c1[H])C([H])([H])C([H])([H])C([H])([H])C2([H])N([H])C(=O)C1([H])N(C(=O)C([H])(N([H])C(=O)C([H])(N([H])C([H])([H])[H])C([H])([H])[H])C(C([H])([H])[H])(C([H])([H])[H])C([H])([H])[H])C([H])([H])c2c([H])c(OC([H])([H])C([H])([H])N([H])C(=O)C([H])([H])C([H])([H])C([H])([H])C(=O)N3C([H])([H])C([H])([H])N(C(=O)N4C([H])([H])C([H])([H])C([H])([H])C([H])(n5nc(-c6c([H])c([H])c(Oc7c([H])c([H])c(F)c([H])c7F)c([H])c6[H])c(C(=O)N([H])[H])c5N([H])[H])C4([H])[H])C([H])([H])C3([H])[H])c([H])c([H])c2C1([H])[H]

$$$$
78:0:0
     RDKit          3D

 92 99  0  0  1  0  0  0  0  0999 V2000
  -28.9160  -23.2400   20.2390 C   0  0  0  0  0  0  0  0  0  0  0  0
  -28.6750  -21.8800   19.8370 N   0  0  0  0  0  0  0  0  0  0  0  0
  -30.0170  -23.4980   20.7310 O   0  0  0  0  0  0  0  0  0  0  0  0
  -27.7890  -21.6180   19.4220 H   0  0  0  0  0  0  0  0  0  0  0  0
  -29.3480  -19.2190   19.6120 C   0  0  0  0  0  0  0  0  0  0  0  0
  -29.6170  -20.5950   19.9350 N   0  0  0  0  0  0  0  0  0  0  0  0
  -28.2320  -18.9510   19.1620 O   0  0  0  0  0  0  0  0  0  0  0  0
  -30.5180  -20.8680   20.3110 H   0  0  0  0  0  0  0  0  0  0  0  0
  -30.3990  -17.9070   19.7950 C   0  0  0  0  0  3  0  0  0  0  0  0
  -30.7750  -15.1150   19.6610 C   0  0  0  0  0  0  0  0  0  0  0  0
  -30.6060  -12.6680   18.9570 C   0  0  0  0  0  2  0  0  0  0  0  0
  -29.6100  -12.4740   17.7910 C   0  0  0  0  0  2  0  0  0  0  0  0
  -28.1770  -12.2990   18.3280 C   0  0  0  0  0  2  0  0  0  0  0  0
  -27.8240  -13.3470   19.4160 C   0  0  0  0  0  3  0  0  0  0  0  0
  -28.9390  -13.4980   20.4710 C   0  0  0  0  0  2  0  0  0  0  0  0
  -30.1640  -13.8580   19.7470 N   0  0  0  0  0  0  0  0  0  0  0  0
  -31.9670  -15.1150   19.3380 O   0  0  0  0  0  0  0  0  0  0  0  0
  -30.0330  -16.3410   19.7610 N   0  0  0  0  0  0  0  0  0  0  0  0
  -29.0460  -16.1860   19.8950 H   0  0  0  0  0  0  0  0  0  0  0  0
  -25.5590  -14.0240   20.3880 C   0  0  0  0  0  0  0  0  0  0  0  0
  -24.4810  -13.2960   20.8080 C   0  0  0  0  0  0  0  0  0  0  0  0
  -24.8530  -11.9230   20.6740 C   0  0  0  0  0  0  0  0  0  0  0  0
  -26.5190  -13.0980   20.0170 N   0  0  0  0  0  0  0  0  0  0  0  0
  -26.1100  -11.8250   20.2540 N   0  0  0  0  0  0  0  0  0  0  0  0
  -24.0620  -10.6980   20.8600 C   0  0  0  0  0  0  0  0  0  0  0  0
  -24.4590   -9.6930   21.7700 C   0  0  0  0  0  3  0  0  0  0  0  0
  -23.6700   -8.5350   21.9470 C   0  0  0  0  0  3  0  0  0  0  0  0
  -22.4700   -8.3760   21.2150 C   0  0  0  0  0  0  0  0  0  0  0  0
  -22.0910   -9.3680   20.2930 C   0  0  0  0  0  3  0  0  0  0  0  0
  -22.8790  -10.5170   20.1150 C   0  0  0  0  0  3  0  0  0  0  0  0
  -21.6540   -7.2750   21.3030 O   0  0  0  0  0  0  0  0  0  0  0  0
  -21.5320   -6.5600   22.4690 C   0  0  0  0  0  0  0  0  0  0  0  0
  -21.0810   -7.1600   23.6650 C   0  0  0  0  0  3  0  0  0  0  0  0
  -20.9040   -6.3740   24.8230 C   0  0  0  0  0  3  0  0  0  0  0  0
  -21.1680   -4.9920   24.7830 C   0  0  0  0  0  0  0  0  0  0  0  0
  -21.6110   -4.3930   23.5910 C   0  0  0  0  0  3  0  0  0  0  0  0
  -21.7890   -5.1750   22.4370 C   0  0  0  0  0  0  0  0  0  0  0  0
  -22.1970   -4.5890   21.2850 F   0  0  0  0  0  0  0  0  0  0  0  0
  -20.9900   -4.2360   25.8920 F   0  0  0  0  0  0  0  0  0  0  0  0
  -23.1440  -13.8420   21.2150 C   0  0  0  0  0  0  0  0  0  0  0  0
  -22.4510  -13.1560   22.1170 N   0  0  0  0  0  0  0  0  0  0  0  0
  -22.7280  -14.9120   20.7700 O   0  0  0  0  0  0  0  0  0  0  0  0
  -22.8020  -12.2880   22.4950 H   0  0  0  0  0  0  0  0  0  0  0  0
  -21.5570  -13.5020   22.4340 H   0  0  0  0  0  0  0  0  0  0  0  0
  -25.7950  -15.3890   20.2600 N   0  0  0  0  0  0  0  0  0  0  0  0
  -25.0740  -16.0780   20.4470 H   0  0  0  0  0  0  0  0  0  0  0  0
  -26.6250  -15.7920   19.8460 H   0  0  0  0  0  0  0  0  0  0  0  0
  -30.7540  -17.5040   22.3100 C   0  0  0  0  0  1  0  0  0  0  0  0
  -32.7830  -17.7440   20.8200 C   0  0  0  0  0  1  0  0  0  0  0  0
  -31.3150  -18.1560   21.0320 C   0  0  0  0  0  3  0  0  0  0  0  0
  -27.8280  -24.5210   20.1120 C   0  0  0  0  0  2  0  0  0  0  0  0
  -28.1420  -26.0480   20.4080 O   0  0  0  0  0  0  0  0  0  0  0  0
  -24.5620  -31.9030   23.2410 C   0  0  0  0  0  0  0  0  0  0  0  0
  -27.1240  -27.0850   20.3030 C   0  0  0  0  0  0  0  0  0  0  0  0
  -23.3690  -30.4940   21.6110 C   0  0  0  0  0  3  0  0  0  0  0  0
  -24.8190  -28.8870   20.2160 C   0  0  0  0  0  0  0  0  0  0  0  0
  -25.9300  -30.7260   21.4690 C   0  0  0  0  0  2  0  0  0  0  0  0
  -25.9980  -29.3200   20.8350 C   0  0  0  0  0  0  0  0  0  0  0  0
  -27.1510  -28.4360   20.8600 C   0  0  0  0  0  3  0  0  0  0  0  0
  -25.9190  -26.7730   19.6330 C   0  0  0  0  0  3  0  0  0  0  0  0
  -24.7980  -27.6300   19.5940 C   0  0  0  0  0  3  0  0  0  0  0  0
  -23.6000  -29.8000   20.2430 C   0  0  0  0  0  2  0  0  0  0  0  0
  -24.6400  -31.0650   22.1620 N   0  0  0  0  0  0  0  0  0  0  0  0
  -23.4740  -32.2020   23.7560 O   0  0  0  0  0  0  0  0  0  0  0  0
  -22.6720  -29.5050   22.5810 C   0  0  0  0  0  0  0  0  0  0  0  0
  -21.3510  -29.3080   22.4190 N   0  0  0  0  0  0  0  0  0  0  0  0
  -23.3250  -28.9200   23.4480 O   0  0  0  0  0  0  0  0  0  0  0  0
  -20.8790  -29.8320   21.6960 H   0  0  0  0  0  0  0  0  0  0  0  0
  -17.9900  -28.0140   22.8100 C   0  0  0  0  0  0  0  0  0  0  0  0
  -20.5200  -28.3820   23.1940 C   0  0  0  0  0  3  0  0  0  0  0  0
  -20.7000  -26.9280   22.7000 C   0  0  0  0  0  2  0  0  0  0  0  0
  -19.6650  -26.5170   21.6480 C   0  0  0  0  0  2  0  0  0  0  0  0
  -18.2470  -26.6410   22.2110 C   0  0  0  0  0  2  0  0  0  0  0  0
  -19.0560  -28.8370   23.2580 C   0  0  0  0  0  0  0  0  0  0  0  0
  -18.7620  -30.1160   23.7780 C   0  0  0  0  0  3  0  0  0  0  0  0
  -17.4320  -30.5740   23.8540 C   0  0  0  0  0  3  0  0  0  0  0  0
  -16.3800  -29.7490   23.4220 C   0  0  0  0  0  3  0  0  0  0  0  0
  -16.6580  -28.4710   22.9070 C   0  0  0  0  0  3  0  0  0  0  0  0
  -25.8380  -32.5430   23.8690 C   0  0  0  0  0  3  0  0  0  0  0  0
  -26.3430  -31.7790   25.1560 C   0  0  1  0  0  0  0  0  0  0  0  0
  -25.2380  -31.5330   26.2090 C   0  0  0  0  0  1  0  0  0  0  0  0
  -26.9460  -30.4070   24.7800 C   0  0  0  0  0  1  0  0  0  0  0  0
  -27.4780  -32.5860   25.8310 C   0  0  0  0  0  1  0  0  0  0  0  0
  -25.5240  -33.9430   24.1990 N   0  0  0  0  0  0  0  0  0  0  0  0
  -25.8370  -34.9970   23.4330 C   0  0  0  0  0  0  0  0  0  0  0  0
  -26.4870  -34.8940   22.3900 O   0  0  0  0  0  0  0  0  0  0  0  0
  -24.9470  -34.0960   25.0110 H   0  0  0  0  0  0  0  0  0  0  0  0
  -24.0890  -36.7810   23.1220 C   0  0  0  0  0  1  0  0  0  0  0  0
  -25.3570  -36.3860   23.8980 C   0  0  0  0  0  3  0  0  0  0  0  0
  -27.5060  -37.2920   24.6650 C   0  0  0  0  0  1  0  0  0  0  0  0
  -26.3780  -37.4470   23.7500 N   0  0  0  0  0  0  0  0  0  0  0  0
  -25.9700  -38.3650   23.9050 H   0  0  0  0  0  0  0  0  0  0  0  0
  1  3  2  0
  2  6  1  0
  2  1  1  0
  4  2  1  0
  5  6  1  0
  6  8  1  0
  7  5  2  0
  9  5  1  0
  9 50  1  0
 10 16  1  0
 10 18  1  0
 11 16  1  0
 12 13  1  0
 12 11  1  0
 14 13  1  0
 14 23  1  0
 14 15  1  0
 16 15  1  0
 17 10  2  0
 18  9  1  0
 18 19  1  0
 20 21  2  0
 21 40  1  0
 22 21  1  0
 22 25  1  0
 23 24  1  0
 23 20  1  0
 24 22  2  0
 25 26  1  0
 26 27  2  0
 28 31  1  0
 28 27  1  0
 29 28  2  0
 30 29  1  0
 30 25  2  0
 31 32  1  0
 32 33  1  0
 33 34  2  0
 35 34  1  0
 35 39  1  0
 36 35  2  0
 37 32  2  0
 37 36  1  0
 38 37  1  0
 40 41  1  0
 41 44  1  0
 41 43  1  0
 42 40  2  0
 45 20  1  0
 45 46  1  0
 47 45  1  0
 49 50  1  0
 50 48  1  0
 51  1  1  0
 51 52  1  0
 53 64  2  0
 54 52  1  0
 54 59  1  0
 55 63  1  0
 55 65  1  0
 56 62  1  0
 56 58  1  0
 57 63  1  0
 58 59  2  0
 58 57  1  0
 60 54  2  0
 61 60  1  0
 61 56  2  0
 62 55  1  0
 63 53  1  0
 65 67  2  0
 66 65  1  0
 68 66  1  0
 69 78  2  0
 69 74  1  0
 70 66  1  0
 70 74  1  0
 71 70  1  0
 72 73  1  0
 72 71  1  0
 73 69  1  0
 74 75  2  0
 75 76  1  0
 77 76  2  0
 78 77  1  0
 79 53  1  0
 79 84  1  0
 79 80  1  0
 80 83  1  1
 80 81  1  0
 82 80  1  0
 84 87  1  0
 85 89  1  0
 85 84  1  0
 86 85  2  0
 89 88  1  0
 91 89  1  0
 91 92  1  0
 91 90  1  0
M  ISO  4  10 100  18 100  51 101  52 101
M  END
>  <TORSDO>  (76) 
F 20

>  <SCORE>  (76) 
-13.194

>  <name>  (76) 
78

>  <ligand_id>  (76) 
78

>  <original_smiles>  (76) 
[H]c1c([H])c([H])c2c(c1[H])C([H])([H])C([H])([H])C([H])([H])C2([H])N([H])C(=O)C1([H])N(C(=O)C([H])(N([H])C(=O)C([H])(N([H])C([H])([H])[H])C([H])([H])[H])C(C([H])([H])[H])(C([H])([H])[H])C([H])([H])[H])C([H])([H])c2c([H])c(OC([H])([H])C(=O)N([H])N([H])C(=O)C([H])(N([H])C(=O)N3C([H])([H])C([H])([H])C([H])([H])C([H])(n4nc(-c5c([H])c([H])c(Oc6c([H])c([H])c(F)c([H])c6F)c([H])c5[H])c(C(=O)N([H])[H])c4N([H])[H])C3([H])[H])C([H])(C([H])([H])[H])C([H])([H])[H])c([H])c([H])c2C1([H])[H]

>  <smiles>  (76) 
[H]c1c([H])c([H])c2c(c1[H])C([H])([H])C([H])([H])C([H])([H])C2([H])N([H])C(=O)C1([H])N(C(=O)C([H])(N([H])C(=O)C([H])(N([H])C([H])([H])[H])C([H])([H])[H])C(C([H])([H])[H])(C([H])([H])[H])C([H])([H])[H])C([H])([H])c2c([H])c(OC([H])([H])C(=O)N([H])N([H])C(=O)C([H])(N([H])C(=O)N3C([H])([H])C([H])([H])C([H])([H])C([H])(n4nc(-c5c([H])c([H])c(Oc6c([H])c([H])c(F)c([H])c6F)c([H])c5[H])c(C(=O)N([H])[H])c4N([H])[H])C3([H])[H])C([H])(C([H])([H])[H])C([H])([H])[H])c([H])c([H])c2C1([H])[H]

$$$$
79:0:0
     RDKit          3D

 92 99  0  0  1  0  0  0  0  0999 V2000
  -29.9190  -21.8510   20.8100 C   0  0  0  0  0  2  0  0  0  0  0  0
  -29.3150  -24.2910   20.4450 C   0  0  0  0  0  0  0  0  0  0  0  0
  -29.0490  -22.9690   20.4050 N   0  0  0  0  0  0  0  0  0  0  0  0
  -30.3860  -24.7380   20.8630 O   0  0  0  0  0  0  0  0  0  0  0  0
  -28.1350  -22.6820   20.0740 H   0  0  0  0  0  0  0  0  0  0  0  0
  -28.2020  -25.2290   19.9220 C   0  0  0  0  0  2  0  0  0  0  0  0
  -28.3950  -26.6400   20.2150 O   0  0  0  0  0  0  0  0  0  0  0  0
  -24.6080  -31.8890   23.2570 C   0  0  0  0  0  0  0  0  0  0  0  0
  -27.2500  -27.4280   20.1630 C   0  0  0  0  0  0  0  0  0  0  0  0
  -23.4080  -30.4970   21.6070 C   0  0  0  0  0  3  0  0  0  0  0  0
  -24.8640  -28.9760   20.1720 C   0  0  0  0  0  0  0  0  0  0  0  0
  -25.9400  -30.8460   21.4230 C   0  0  0  0  0  2  0  0  0  0  0  0
  -26.0260  -29.4790   20.7700 C   0  0  0  0  0  0  0  0  0  0  0  0
  -27.2210  -28.7130   20.7630 C   0  0  0  0  0  3  0  0  0  0  0  0
  -26.0650  -26.9660   19.5360 C   0  0  0  0  0  3  0  0  0  0  0  0
  -24.8810  -27.7210   19.5500 C   0  0  0  0  0  3  0  0  0  0  0  0
  -23.6210  -29.8350   20.2220 C   0  0  0  0  0  2  0  0  0  0  0  0
  -24.6700  -31.0920   22.1530 N   0  0  0  0  0  0  0  0  0  0  0  0
  -23.5230  -32.1590   23.7930 O   0  0  0  0  0  0  0  0  0  0  0  0
  -22.7540  -29.4670   22.5570 C   0  0  0  0  0  0  0  0  0  0  0  0
  -21.4290  -29.2860   22.4260 N   0  0  0  0  0  0  0  0  0  0  0  0
  -23.4350  -28.8360   23.3690 O   0  0  0  0  0  0  0  0  0  0  0  0
  -20.9400  -29.8480   21.7430 H   0  0  0  0  0  0  0  0  0  0  0  0
  -18.0520  -28.0970   22.9180 C   0  0  0  0  0  0  0  0  0  0  0  0
  -20.6100  -28.3440   23.1900 C   0  0  0  0  0  3  0  0  0  0  0  0
  -20.7080  -26.9180   22.6010 C   0  0  0  0  0  2  0  0  0  0  0  0
  -19.6030  -26.6080   21.5850 C   0  0  0  0  0  2  0  0  0  0  0  0
  -18.2220  -26.7530   22.2320 C   0  0  0  0  0  2  0  0  0  0  0  0
  -19.1730  -28.8510   23.3540 C   0  0  0  0  0  0  0  0  0  0  0  0
  -18.9590  -30.1110   23.9550 C   0  0  0  0  0  3  0  0  0  0  0  0
  -17.6560  -30.6160   24.1250 C   0  0  0  0  0  3  0  0  0  0  0  0
  -16.5490  -29.8580   23.7060 C   0  0  0  0  0  3  0  0  0  0  0  0
  -16.7480  -28.6000   23.1080 C   0  0  0  0  0  3  0  0  0  0  0  0
  -25.8900  -32.5190   23.8820 C   0  0  0  0  0  3  0  0  0  0  0  0
  -26.4030  -31.7440   25.1580 C   0  0  1  0  0  0  0  0  0  0  0  0
  -25.3070  -31.5000   26.2210 C   0  0  0  0  0  1  0  0  0  0  0  0
  -26.9900  -30.3690   24.7630 C   0  0  0  0  0  1  0  0  0  0  0  0
  -27.5510  -32.5380   25.8260 C   0  0  0  0  0  1  0  0  0  0  0  0
  -25.5800  -33.9160   24.2140 N   0  0  0  0  0  0  0  0  0  0  0  0
  -25.8970  -34.9670   23.4470 C   0  0  0  0  0  0  0  0  0  0  0  0
  -26.5540  -34.8630   22.4070 O   0  0  0  0  0  0  0  0  0  0  0  0
  -24.9960  -34.0710   25.0230 H   0  0  0  0  0  0  0  0  0  0  0  0
  -24.1490  -36.7450   23.1180 C   0  0  0  0  0  1  0  0  0  0  0  0
  -25.4090  -36.3550   23.9060 C   0  0  0  0  0  3  0  0  0  0  0  0
  -27.5520  -37.2600   24.6910 C   0  0  0  0  0  1  0  0  0  0  0  0
  -26.4320  -37.4140   23.7660 N   0  0  0  0  0  0  0  0  0  0  0  0
  -26.0210  -38.3320   23.9140 H   0  0  0  0  0  0  0  0  0  0  0  0
  -29.1500  -20.5070   20.8590 C   0  0  0  0  0  0  0  0  0  0  0  0
  -29.8440  -19.3660   21.0320 N   0  0  0  0  0  0  0  0  0  0  0  0
  -27.9210  -20.5060   20.7420 O   0  0  0  0  0  0  0  0  0  0  0  0
  -30.8540  -19.4170   21.0910 H   0  0  0  0  0  0  0  0  0  0  0  0
  -29.2840  -18.0020   21.1230 C   0  0  0  0  0  2  0  0  0  0  0  0
  -30.6980  -14.5410   20.4830 C   0  0  0  0  0  0  0  0  0  0  0  0
  -30.3860  -12.3610   19.3670 C   0  0  0  0  0  2  0  0  0  0  0  0
  -29.4630  -12.5510   18.1470 C   0  0  0  0  0  2  0  0  0  0  0  0
  -27.9850  -12.4190   18.5610 C   0  0  0  0  0  2  0  0  0  0  0  0
  -27.6320  -13.2720   19.8100 C   0  0  0  0  0  3  0  0  0  0  0  0
  -28.6780  -13.0840   20.9340 C   0  0  0  0  0  2  0  0  0  0  0  0
  -30.0050  -13.3720   20.3690 N   0  0  0  0  0  0  0  0  0  0  0  0
  -31.8590  -14.6350   20.0760 O   0  0  0  0  0  0  0  0  0  0  0  0
  -30.3690  -16.9160   20.9380 C   0  0  0  0  0  0  0  0  0  0  0  0
  -29.9710  -15.6200   20.8730 N   0  0  0  0  0  0  0  0  0  0  0  0
  -31.5450  -17.2950   20.8470 O   0  0  0  0  0  0  0  0  0  0  0  0
  -29.0000  -15.4430   21.0640 H   0  0  0  0  0  0  0  0  0  0  0  0
  -25.2290  -13.8840   20.4930 C   0  0  0  0  0  0  0  0  0  0  0  0
  -24.1560  -13.1160   20.8550 C   0  0  0  0  0  0  0  0  0  0  0  0
  -24.6150  -11.7630   20.8380 C   0  0  0  0  0  0  0  0  0  0  0  0
  -26.2750  -13.0000   20.2790 N   0  0  0  0  0  0  0  0  0  0  0  0
  -25.9090  -11.7200   20.5450 N   0  0  0  0  0  0  0  0  0  0  0  0
  -23.8830  -10.5040   21.0250 C   0  0  0  0  0  0  0  0  0  0  0  0
  -24.3010   -9.5410   21.9710 C   0  0  0  0  0  3  0  0  0  0  0  0
  -23.5710   -8.3460   22.1460 C   0  0  0  0  0  3  0  0  0  0  0  0
  -22.4080   -8.1050   21.3750 C   0  0  0  0  0  0  0  0  0  0  0  0
  -22.0110   -9.0550   20.4200 C   0  0  0  0  0  3  0  0  0  0  0  0
  -22.7420  -10.2420   20.2430 C   0  0  0  0  0  3  0  0  0  0  0  0
  -21.6510   -6.9620   21.4600 O   0  0  0  0  0  0  0  0  0  0  0  0
  -21.5780   -6.2300   22.6180 C   0  0  0  0  0  0  0  0  0  0  0  0
  -21.1190   -6.7940   23.8280 C   0  0  0  0  0  3  0  0  0  0  0  0
  -20.9940   -5.9890   24.9780 C   0  0  0  0  0  3  0  0  0  0  0  0
  -21.3190   -4.6200   24.9180 C   0  0  0  0  0  0  0  0  0  0  0  0
  -21.7700   -4.0550   23.7130 C   0  0  0  0  0  3  0  0  0  0  0  0
  -21.8970   -4.8580   22.5650 C   0  0  0  0  0  0  0  0  0  0  0  0
  -22.3130   -4.3040   21.4000 F   0  0  0  0  0  0  0  0  0  0  0  0
  -21.1910   -3.8440   26.0200 F   0  0  0  0  0  0  0  0  0  0  0  0
  -22.7560  -13.5980   21.1070 C   0  0  0  0  0  0  0  0  0  0  0  0
  -22.0170  -12.9100   21.9710 N   0  0  0  0  0  0  0  0  0  0  0  0
  -22.3260  -14.6190   20.5740 O   0  0  0  0  0  0  0  0  0  0  0  0
  -22.3780  -12.0840   22.4250 H   0  0  0  0  0  0  0  0  0  0  0  0
  -21.0780  -13.2150   22.1820 H   0  0  0  0  0  0  0  0  0  0  0  0
  -25.3980  -15.2530   20.3060 N   0  0  0  0  0  0  0  0  0  0  0  0
  -24.6260  -15.9040   20.3910 H   0  0  0  0  0  0  0  0  0  0  0  0
  -26.2360  -15.6830   19.9360 H   0  0  0  0  0  0  0  0  0  0  0  0
  1 48  1  0
  2  4  2  0
  3  2  1  0
  3  1  1  0
  5  3  1  0
  6  7  1  0
  6  2  1  0
  8 19  2  0
  9  7  1  0
  9 14  1  0
 10 18  1  0
 10 20  1  0
 11 17  1  0
 11 13  1  0
 12 18  1  0
 13 12  1  0
 14 13  2  0
 15 16  1  0
 15  9  2  0
 16 11  2  0
 17 10  1  0
 18  8  1  0
 20 22  2  0
 21 20  1  0
 23 21  1  0
 24 33  2  0
 24 29  1  0
 25 21  1  0
 25 29  1  0
 26 25  1  0
 27 28  1  0
 27 26  1  0
 28 24  1  0
 29 30  2  0
 30 31  1  0
 32 31  2  0
 33 32  1  0
 34  8  1  0
 34 39  1  0
 34 35  1  0
 35 38  1  1
 35 36  1  0
 37 35  1  0
 39 42  1  0
 40 44  1  0
 40 39  1  0
 41 40  2  0
 44 43  1  0
 46 44  1  0
 46 47  1  0
 46 45  1  0
 48 49  1  0
 49 51  1  0
 49 52  1  0
 50 48  2  0
 53 62  1  0
 54 59  1  0
 55 56  1  0
 55 54  1  0
 57 56  1  0
 57 68  1  0
 57 58  1  0
 59 53  1  0
 59 58  1  0
 60 53  2  0
 61 52  1  0
 62 61  1  0
 62 64  1  0
 63 61  2  0
 65 66  2  0
 66 85  1  0
 67 66  1  0
 67 70  1  0
 68 65  1  0
 68 69  1  0
 69 67  2  0
 70 71  1  0
 71 72  2  0
 73 76  1  0
 73 72  1  0
 74 73  2  0
 75 74  1  0
 75 70  2  0
 76 77  1  0
 77 78  1  0
 78 79  2  0
 80 79  1  0
 80 84  1  0
 81 80  2  0
 82 77  2  0
 82 81  1  0
 83 82  1  0
 85 86  1  0
 86 89  1  0
 86 88  1  0
 87 85  2  0
 90 91  1  0
 90 65  1  0
 92 90  1  0
M  ISO  4   6 101   7 101  53 100  62 100
M  END
>  <TORSDO>  (77) 
F 20

>  <SCORE>  (77) 
-13.844

>  <name>  (77) 
79

>  <ligand_id>  (77) 
79

>  <original_smiles>  (77) 
[H]c1c([H])c([H])c2c(c1[H])C([H])([H])C([H])([H])C([H])([H])C2([H])N([H])C(=O)C1([H])N(C(=O)C([H])(N([H])C(=O)C([H])(N([H])C([H])([H])[H])C([H])([H])[H])C(C([H])([H])[H])(C([H])([H])[H])C([H])([H])[H])C([H])([H])c2c([H])c(OC([H])([H])C(=O)N([H])C([H])([H])C(=O)N([H])C([H])([H])C(=O)N([H])C(=O)N3C([H])([H])C([H])([H])C([H])([H])C([H])(n4nc(-c5c([H])c([H])c(Oc6c([H])c([H])c(F)c([H])c6F)c([H])c5[H])c(C(=O)N([H])[H])c4N([H])[H])C3([H])[H])c([H])c([H])c2C1([H])[H]

>  <smiles>  (77) 
[H]c1c([H])c([H])c2c(c1[H])C([H])([H])C([H])([H])C([H])([H])C2([H])N([H])C(=O)C1([H])N(C(=O)C([H])(N([H])C(=O)C([H])(N([H])C([H])([H])[H])C([H])([H])[H])C(C([H])([H])[H])(C([H])([H])[H])C([H])([H])[H])C([H])([H])c2c([H])c(OC([H])([H])C(=O)N([H])C([H])([H])C(=O)N([H])C([H])([H])C(=O)N([H])C(=O)N3C([H])([H])C([H])([H])C([H])([H])C([H])(n4nc(-c5c([H])c([H])c(Oc6c([H])c([H])c(F)c([H])c6F)c([H])c5[H])c(C(=O)N([H])[H])c4N([H])[H])C3([H])[H])c([H])c([H])c2C1([H])[H]

$$$$
80:0:0
     RDKit          3D

 91 98  0  0  1  0  0  0  0  0999 V2000
  -28.4960  -21.8070   20.2590 C   0  0  0  0  0  0  0  0  0  0  0  0
  -28.5380  -22.9880   20.9140 N   0  0  0  0  0  0  0  0  0  0  0  0
  -28.1330  -21.7180   19.0830 O   0  0  0  0  0  0  0  0  0  0  0  0
  -28.9290  -22.9440   21.8470 H   0  0  0  0  0  0  0  0  0  0  0  0
  -28.8320  -20.5240   21.0750 C   0  0  0  0  0  2  0  0  0  0  0  0
  -29.2490  -18.0670   20.6440 C   0  0  0  0  0  0  0  0  0  0  0  0
  -29.4360  -19.3760   20.3520 N   0  0  0  0  0  0  0  0  0  0  0  0
  -28.4070  -17.6930   21.4640 O   0  0  0  0  0  0  0  0  0  0  0  0
  -30.1100  -19.6100   19.6370 H   0  0  0  0  0  0  0  0  0  0  0  0
  -30.1410  -17.0080   19.9510 C   0  0  0  0  0  2  0  0  0  0  0  0
  -30.6560  -14.5430   20.0410 C   0  0  0  0  0  0  0  0  0  0  0  0
  -30.3410  -12.3650   18.9340 C   0  0  0  0  0  2  0  0  0  0  0  0
  -29.3500  -12.5980   17.7740 C   0  0  0  0  0  2  0  0  0  0  0  0
  -27.8950  -12.4590   18.2670 C   0  0  0  0  0  2  0  0  0  0  0  0
  -27.6190  -13.2600   19.5680 C   0  0  0  0  0  3  0  0  0  0  0  0
  -28.7280  -13.0200   20.6180 C   0  0  0  0  0  2  0  0  0  0  0  0
  -30.0150  -13.3420   19.9860 N   0  0  0  0  0  0  0  0  0  0  0  0
  -31.7900  -14.7070   19.5830 O   0  0  0  0  0  0  0  0  0  0  0  0
  -29.8890  -15.6060   20.3700 N   0  0  0  0  0  0  0  0  0  0  0  0
  -28.9790  -15.4270   20.7710 H   0  0  0  0  0  0  0  0  0  0  0  0
  -25.2580  -13.8510   20.3980 C   0  0  0  0  0  0  0  0  0  0  0  0
  -24.2070  -13.0750   20.8070 C   0  0  0  0  0  0  0  0  0  0  0  0
  -24.6660  -11.7240   20.7350 C   0  0  0  0  0  0  0  0  0  0  0  0
  -26.2900  -12.9740   20.1060 N   0  0  0  0  0  0  0  0  0  0  0  0
  -25.9400  -11.6880   20.3650 N   0  0  0  0  0  0  0  0  0  0  0  0
  -23.9480  -10.4590   20.9420 C   0  0  0  0  0  0  0  0  0  0  0  0
  -24.3990   -9.4970   21.8720 C   0  0  0  0  0  3  0  0  0  0  0  0
  -23.6810   -8.2970   22.0670 C   0  0  0  0  0  3  0  0  0  0  0  0
  -22.4980   -8.0490   21.3290 C   0  0  0  0  0  0  0  0  0  0  0  0
  -22.0670   -9.0000   20.3880 C   0  0  0  0  0  3  0  0  0  0  0  0
  -22.7860  -10.1910   20.1930 C   0  0  0  0  0  3  0  0  0  0  0  0
  -21.7520   -6.9000   21.4320 O   0  0  0  0  0  0  0  0  0  0  0  0
  -21.6910   -6.1840   22.6000 C   0  0  0  0  0  0  0  0  0  0  0  0
  -21.2530   -6.7670   23.8090 C   0  0  0  0  0  3  0  0  0  0  0  0
  -21.1400   -5.9740   24.9700 C   0  0  0  0  0  3  0  0  0  0  0  0
  -21.4540   -4.6040   24.9240 C   0  0  0  0  0  0  0  0  0  0  0  0
  -21.8870   -4.0230   23.7190 C   0  0  0  0  0  3  0  0  0  0  0  0
  -22.0020   -4.8110   22.5610 C   0  0  0  0  0  0  0  0  0  0  0  0
  -22.3980   -4.2410   21.3970 F   0  0  0  0  0  0  0  0  0  0  0  0
  -21.3380   -3.8420   26.0360 F   0  0  0  0  0  0  0  0  0  0  0  0
  -22.8260  -13.5510   21.1500 C   0  0  0  0  0  0  0  0  0  0  0  0
  -22.1380  -12.8460   22.0430 N   0  0  0  0  0  0  0  0  0  0  0  0
  -22.3640  -14.5830   20.6640 O   0  0  0  0  0  0  0  0  0  0  0  0
  -22.5230  -12.0130   22.4610 H   0  0  0  0  0  0  0  0  0  0  0  0
  -21.2130  -13.1480   22.3150 H   0  0  0  0  0  0  0  0  0  0  0  0
  -25.4140  -15.2240   20.2320 N   0  0  0  0  0  0  0  0  0  0  0  0
  -24.6560  -15.8770   20.3890 H   0  0  0  0  0  0  0  0  0  0  0  0
  -26.2530  -15.6700   19.8860 H   0  0  0  0  0  0  0  0  0  0  0  0
  -27.8310  -24.2590   20.6120 C   0  0  0  0  0  2  0  0  0  0  0  0
  -28.5580  -25.3200   19.7270 C   0  0  0  0  0  2  0  0  0  0  0  0
  -28.4480  -26.6950   20.1850 O   0  0  0  0  0  0  0  0  0  0  0  0
  -24.6030  -31.8790   23.2260 C   0  0  0  0  0  0  0  0  0  0  0  0
  -27.2540  -27.4030   20.1490 C   0  0  0  0  0  0  0  0  0  0  0  0
  -23.3970  -30.4710   21.5870 C   0  0  0  0  0  3  0  0  0  0  0  0
  -24.8510  -28.9220   20.1670 C   0  0  0  0  0  0  0  0  0  0  0  0
  -25.9240  -30.8230   21.3880 C   0  0  0  0  0  2  0  0  0  0  0  0
  -26.0090  -29.4460   20.7540 C   0  0  0  0  0  0  0  0  0  0  0  0
  -27.2080  -28.6930   20.7410 C   0  0  0  0  0  3  0  0  0  0  0  0
  -26.0770  -26.9040   19.5490 C   0  0  0  0  0  3  0  0  0  0  0  0
  -24.8810  -27.6510   19.5650 C   0  0  0  0  0  3  0  0  0  0  0  0
  -23.6060  -29.7810   20.2110 C   0  0  0  0  0  2  0  0  0  0  0  0
  -24.6600  -31.0740   22.1250 N   0  0  0  0  0  0  0  0  0  0  0  0
  -23.5190  -32.1530   23.7650 O   0  0  0  0  0  0  0  0  0  0  0  0
  -22.7440  -29.4580   22.5530 C   0  0  0  0  0  0  0  0  0  0  0  0
  -21.4220  -29.2630   22.4170 N   0  0  0  0  0  0  0  0  0  0  0  0
  -23.4250  -28.8460   23.3800 O   0  0  0  0  0  0  0  0  0  0  0  0
  -20.9340  -29.8020   21.7150 H   0  0  0  0  0  0  0  0  0  0  0  0
  -18.0620  -28.0210   22.8780 C   0  0  0  0  0  0  0  0  0  0  0  0
  -20.6090  -28.3250   23.1890 C   0  0  0  0  0  3  0  0  0  0  0  0
  -20.7450  -26.8880   22.6360 C   0  0  0  0  0  2  0  0  0  0  0  0
  -19.6680  -26.5310   21.6080 C   0  0  0  0  0  2  0  0  0  0  0  0
  -18.2720  -26.6650   22.2250 C   0  0  0  0  0  2  0  0  0  0  0  0
  -19.1610  -28.8070   23.3160 C   0  0  0  0  0  0  0  0  0  0  0  0
  -18.9130  -30.0750   23.8850 C   0  0  0  0  0  3  0  0  0  0  0  0
  -17.5990  -30.5580   24.0230 C   0  0  0  0  0  3  0  0  0  0  0  0
  -16.5130  -29.7700   23.6020 C   0  0  0  0  0  3  0  0  0  0  0  0
  -16.7460  -28.5030   23.0350 C   0  0  0  0  0  3  0  0  0  0  0  0
  -25.8870  -32.5140   23.8440 C   0  0  0  0  0  3  0  0  0  0  0  0
  -25.5770  -33.9120   24.1720 N   0  0  0  0  0  0  0  0  0  0  0  0
  -25.9100  -34.9650   23.4130 C   0  0  0  0  0  0  0  0  0  0  0  0
  -26.5820  -34.8610   22.3830 O   0  0  0  0  0  0  0  0  0  0  0  0
  -24.9820  -34.0670   24.9730 H   0  0  0  0  0  0  0  0  0  0  0  0
  -24.1820  -36.7560   23.0520 C   0  0  0  0  0  1  0  0  0  0  0  0
  -25.4200  -36.3530   23.8680 C   0  0  0  0  0  3  0  0  0  0  0  0
  -27.5520  -37.2400   24.7040 C   0  0  0  0  0  1  0  0  0  0  0  0
  -26.4520  -37.4070   23.7570 N   0  0  0  0  0  0  0  0  0  0  0  0
  -26.0440  -38.3260   23.9030 H   0  0  0  0  0  0  0  0  0  0  0  0
  -26.4090  -31.7450   25.1190 C   0  0  1  0  0  0  0  0  0  0  0  0
  -25.3220  -31.5040   26.1930 C   0  0  0  0  0  1  0  0  0  0  0  0
  -26.9940  -30.3690   24.7240 C   0  0  0  0  0  1  0  0  0  0  0  0
  -27.5580  -32.5440   25.7780 C   0  0  0  0  0  1  0  0  0  0  0  0
  1  2  1  0
  1  5  1  0
  2  4  1  0
  3  1  2  0
  6  8  2  0
  7  6  1  0
  7  5  1  0
  9  7  1  0
 10 19  1  0
 10  6  1  0
 11 19  1  0
 12 17  1  0
 13 14  1  0
 13 12  1  0
 15 14  1  0
 15 24  1  0
 15 16  1  0
 17 11  1  0
 17 16  1  0
 18 11  2  0
 19 20  1  0
 21 22  2  0
 22 41  1  0
 23 22  1  0
 23 26  1  0
 24 25  1  0
 24 21  1  0
 25 23  2  0
 26 27  1  0
 27 28  2  0
 29 32  1  0
 29 28  1  0
 30 29  2  0
 31 30  1  0
 31 26  2  0
 32 33  1  0
 33 34  1  0
 34 35  2  0
 36 35  1  0
 36 40  1  0
 37 36  2  0
 38 33  2  0
 38 37  1  0
 39 38  1  0
 41 42  1  0
 42 45  1  0
 42 44  1  0
 43 41  2  0
 46 47  1  0
 46 21  1  0
 48 46  1  0
 49  2  1  0
 50 51  1  0
 50 49  1  0
 52 63  2  0
 53 51  1  0
 53 58  1  0
 54 62  1  0
 54 64  1  0
 55 61  1  0
 55 57  1  0
 56 62  1  0
 57 56  1  0
 58 57  2  0
 59 60  1  0
 59 53  2  0
 60 55  2  0
 61 54  1  0
 62 52  1  0
 64 66  2  0
 65 64  1  0
 67 65  1  0
 68 77  2  0
 68 73  1  0
 69 65  1  0
 69 73  1  0
 70 69  1  0
 71 72  1  0
 71 70  1  0
 72 68  1  0
 73 74  2  0
 74 75  1  0
 76 75  2  0
 77 76  1  0
 78 52  1  0
 78 79  1  0
 78 88  1  0
 79 82  1  0
 80 84  1  0
 80 79  1  0
 81 80  2  0
 84 83  1  0
 86 84  1  0
 86 87  1  0
 86 85  1  0
 88 91  1  1
 88 89  1  0
 90 88  1  0
M  ISO  4  11 100  19 100  50 101  51 101
M  END
>  <TORSDO>  (78) 
F 21

>  <SCORE>  (78) 
-12.796

>  <name>  (78) 
80

>  <ligand_id>  (78) 
80

>  <original_smiles>  (78) 
[H]c1c([H])c([H])c2c(c1[H])C([H])([H])C([H])([H])C([H])([H])C2([H])N([H])C(=O)C1([H])N(C(=O)C([H])(N([H])C(=O)C([H])(N([H])C([H])([H])[H])C([H])([H])[H])C(C([H])([H])[H])(C([H])([H])[H])C([H])([H])[H])C([H])([H])c2c([H])c(OC([H])([H])C([H])([H])N([H])C(=O)C([H])([H])N([H])C(=O)C([H])([H])N([H])C(=O)N3C([H])([H])C([H])([H])C([H])([H])C([H])(n4nc(-c5c([H])c([H])c(Oc6c([H])c([H])c(F)c([H])c6F)c([H])c5[H])c(C(=O)N([H])[H])c4N([H])[H])C3([H])[H])c([H])c([H])c2C1([H])[H]

>  <smiles>  (78) 
[H]c1c([H])c([H])c2c(c1[H])C([H])([H])C([H])([H])C([H])([H])C2([H])N([H])C(=O)C1([H])N(C(=O)C([H])(N([H])C(=O)C([H])(N([H])C([H])([H])[H])C([H])([H])[H])C(C([H])([H])[H])(C([H])([H])[H])C([H])([H])[H])C([H])([H])c2c([H])c(OC([H])([H])C([H])([H])N([H])C(=O)C([H])([H])N([H])C(=O)C([H])([H])N([H])C(=O)N3C([H])([H])C([H])([H])C([H])([H])C([H])(n4nc(-c5c([H])c([H])c(Oc6c([H])c([H])c(F)c([H])c6F)c([H])c5[H])c(C(=O)N([H])[H])c4N([H])[H])C3([H])[H])c([H])c([H])c2C1([H])[H]

$$$$
81:0:0
     RDKit          3D

107115  0  0  1  0  0  0  0  0999 V2000
  -30.8930  -21.2740   20.7870 C   0  0  0  0  0  3  0  0  0  0  0  0
  -27.5610  -24.4310   20.0230 C   0  0  0  0  0  0  0  0  0  0  0  0
  -27.4210  -22.5240   18.3800 C   0  0  0  0  0  2  0  0  0  0  0  0
  -28.7330  -22.2090   17.6370 C   0  0  0  0  0  2  0  0  0  0  0  0
  -28.5490  -22.2150   20.4610 C   0  0  0  0  0  2  0  0  0  0  0  0
  -29.9390  -22.0380   19.7890 C   0  0  0  0  0  3  0  0  0  0  0  0
  -30.8540  -21.2170   17.6190 C   0  0  0  0  0  1  0  0  0  0  0  0
  -27.7540  -23.1410   19.6620 N   0  0  0  0  0  0  0  0  0  0  0  0
  -29.6680  -21.4110   18.4570 N   0  0  0  0  0  0  0  0  0  0  0  0
  -27.8900  -24.8510   21.1380 O   0  0  0  0  0  0  0  0  0  0  0  0
  -26.9660  -25.4190   19.0090 C   0  0  0  0  0  2  0  0  0  0  0  0
  -27.0870  -26.7550   19.5080 O   0  0  0  0  0  0  0  0  0  0  0  0
  -24.4220  -31.9860   23.4900 C   0  0  0  0  0  0  0  0  0  0  0  0
  -25.9670  -27.5110   19.7770 C   0  0  0  0  0  0  0  0  0  0  0  0
  -22.7920  -30.8370   22.0230 C   0  0  0  0  0  3  0  0  0  0  0  0
  -23.7900  -29.2330   20.3070 C   0  0  0  0  0  0  0  0  0  0  0  0
  -25.2730  -30.9220   21.4070 C   0  0  0  0  0  2  0  0  0  0  0  0
  -25.0810  -29.5940   20.7080 C   0  0  0  0  0  0  0  0  0  0  0  0
  -26.1680  -28.7330   20.4510 C   0  0  0  0  0  3  0  0  0  0  0  0
  -24.6510  -27.1430   19.4060 C   0  0  0  0  0  3  0  0  0  0  0  0
  -23.5670  -28.0040   19.6670 C   0  0  0  0  0  3  0  0  0  0  0  0
  -22.6810  -30.2190   20.6040 C   0  0  0  0  0  2  0  0  0  0  0  0
  -24.1920  -31.2560   22.3630 N   0  0  0  0  0  0  0  0  0  0  0  0
  -23.4890  -32.3480   24.2200 O   0  0  0  0  0  0  0  0  0  0  0  0
  -22.1910  -29.8390   23.0380 C   0  0  0  0  0  0  0  0  0  0  0  0
  -20.8720  -29.6110   22.9380 N   0  0  0  0  0  0  0  0  0  0  0  0
  -22.9080  -29.2690   23.8650 O   0  0  0  0  0  0  0  0  0  0  0  0
  -20.3550  -30.1230   22.2360 H   0  0  0  0  0  0  0  0  0  0  0  0
  -17.5910  -28.1710   23.3810 C   0  0  0  0  0  0  0  0  0  0  0  0
  -20.0960  -28.6820   23.7580 C   0  0  0  0  0  3  0  0  0  0  0  0
  -20.3550  -27.2180   23.3340 C   0  0  0  0  0  2  0  0  0  0  0  0
  -19.3450  -26.7020   22.3030 C   0  0  0  0  0  2  0  0  0  0  0  0
  -17.9210  -26.7830   22.8590 C   0  0  0  0  0  2  0  0  0  0  0  0
  -18.6130  -29.0680   23.7880 C   0  0  0  0  0  0  0  0  0  0  0  0
  -18.2550  -30.3610   24.2300 C   0  0  0  0  0  3  0  0  0  0  0  0
  -16.9070  -30.7570   24.2750 C   0  0  0  0  0  3  0  0  0  0  0  0
  -15.8970  -29.8590   23.8890 C   0  0  0  0  0  3  0  0  0  0  0  0
  -16.2400  -28.5700   23.4450 C   0  0  0  0  0  3  0  0  0  0  0  0
  -25.8620  -32.4210   23.9030 C   0  0  0  0  0  3  0  0  0  0  0  0
  -26.4950  -31.5000   25.0170 C   0  0  1  0  0  0  0  0  0  0  0  0
  -25.5530  -31.2430   26.2170 C   0  0  0  0  0  1  0  0  0  0  0  0
  -26.8950  -30.1270   24.4280 C   0  0  0  0  0  1  0  0  0  0  0  0
  -27.7940  -32.1460   25.5570 C   0  0  0  0  0  1  0  0  0  0  0  0
  -25.7890  -33.8150   24.3600 N   0  0  0  0  0  0  0  0  0  0  0  0
  -26.1260  -34.8770   23.6160 C   0  0  0  0  0  0  0  0  0  0  0  0
  -26.6070  -34.7780   22.4840 O   0  0  0  0  0  0  0  0  0  0  0  0
  -25.3520  -33.9750   25.2560 H   0  0  0  0  0  0  0  0  0  0  0  0
  -24.5930  -36.8670   23.6630 C   0  0  0  0  0  1  0  0  0  0  0  0
  -25.8930  -36.2730   24.2260 C   0  0  0  0  0  3  0  0  0  0  0  0
  -28.2250  -36.8530   24.7280 C   0  0  0  0  0  1  0  0  0  0  0  0
  -27.0120  -37.2120   23.9960 N   0  0  0  0  0  0  0  0  0  0  0  0
  -26.7490  -38.1570   24.2620 H   0  0  0  0  0  0  0  0  0  0  0  0
  -32.3920  -21.1270   20.4310 C   0  0  0  0  0  0  0  0  0  0  0  0
  -32.8300  -19.8850   20.1760 N   0  0  0  0  0  0  0  0  0  0  0  0
  -33.1480  -22.1040   20.3880 O   0  0  0  0  0  0  0  0  0  0  0  0
  -32.1720  -19.1130   20.2550 H   0  0  0  0  0  0  0  0  0  0  0  0
  -34.2020  -19.4910   19.8840 C   0  0  0  0  0  2  0  0  0  0  0  0
  -34.5960  -18.3100   20.7840 C   0  0  0  0  0  2  0  0  0  0  0  0
  -33.2270  -16.3000   20.2060 C   0  0  0  0  0  0  0  0  0  0  0  0
  -34.3530  -17.0200   20.1430 N   0  0  0  0  0  0  0  0  0  0  0  0
  -32.2060  -16.7160   20.7620 O   0  0  0  0  0  0  0  0  0  0  0  0
  -35.1330  -16.6050   19.6510 H   0  0  0  0  0  0  0  0  0  0  0  0
  -33.2700  -14.9140   19.5360 C   0  0  0  0  0  3  0  0  0  0  0  0
  -31.5050  -13.7650   18.2290 C   0  0  0  0  0  0  0  0  0  0  0  0
  -30.8120  -11.4530   17.7950 C   0  0  0  0  0  2  0  0  0  0  0  0
  -29.5640  -11.2540   16.9260 C   0  0  0  0  0  2  0  0  0  0  0  0
  -28.2960  -11.3050   17.7940 C   0  0  0  0  0  2  0  0  0  0  0  0
  -28.2480  -12.5660   18.6940 C   0  0  0  0  0  3  0  0  0  0  0  0
  -29.5710  -12.7570   19.4690 C   0  0  0  0  0  2  0  0  0  0  0  0
  -30.6970  -12.7230   18.5190 N   0  0  0  0  0  0  0  0  0  0  0  0
  -32.0800  -13.9210   17.1460 O   0  0  0  0  0  0  0  0  0  0  0  0
  -31.9270  -14.3670   19.3430 N   0  0  0  0  0  0  0  0  0  0  0  0
  -31.4120  -14.1610   20.1840 H   0  0  0  0  0  0  0  0  0  0  0  0
  -26.4760  -13.5640   20.2730 C   0  0  0  0  0  0  0  0  0  0  0  0
  -25.3990  -13.0060   20.9100 C   0  0  0  0  0  0  0  0  0  0  0  0
  -25.4150  -11.6190   20.5670 C   0  0  0  0  0  0  0  0  0  0  0  0
  -27.0950  -12.5280   19.5920 N   0  0  0  0  0  0  0  0  0  0  0  0
  -26.4750  -11.3420   19.8190 N   0  0  0  0  0  0  0  0  0  0  0  0
  -24.4490  -10.5510   20.8610 C   0  0  0  0  0  0  0  0  0  0  0  0
  -24.7830   -9.4660   21.7000 C   0  0  0  0  0  3  0  0  0  0  0  0
  -23.8320   -8.4600   21.9830 C   0  0  0  0  0  3  0  0  0  0  0  0
  -22.5330   -8.5360   21.4280 C   0  0  0  0  0  0  0  0  0  0  0  0
  -22.2140   -9.6080   20.5750 C   0  0  0  0  0  3  0  0  0  0  0  0
  -23.1620  -10.6030   20.2900 C   0  0  0  0  0  3  0  0  0  0  0  0
  -21.5530   -7.5940   21.6260 O   0  0  0  0  0  0  0  0  0  0  0  0
  -21.4900   -6.8530   22.7780 C   0  0  0  0  0  0  0  0  0  0  0  0
  -21.2510   -7.4480   24.0360 C   0  0  0  0  0  3  0  0  0  0  0  0
  -21.1250   -6.6420   25.1840 C   0  0  0  0  0  3  0  0  0  0  0  0
  -21.2270   -5.2430   25.0780 C   0  0  0  0  0  0  0  0  0  0  0  0
  -21.4600   -4.6470   23.8260 C   0  0  0  0  0  3  0  0  0  0  0  0
  -21.5870   -5.4490   22.6790 C   0  0  0  0  0  0  0  0  0  0  0  0
  -21.7900   -4.8690   21.4720 F   0  0  0  0  0  0  0  0  0  0  0  0
  -21.0980   -4.4670   26.1800 F   0  0  0  0  0  0  0  0  0  0  0  0
  -24.3600  -13.7320   21.7130 C   0  0  0  0  0  0  0  0  0  0  0  0
  -23.7450  -13.0550   22.6780 N   0  0  0  0  0  0  0  0  0  0  0  0
  -24.1170  -14.9230   21.5200 O   0  0  0  0  0  0  0  0  0  0  0  0
  -23.9590  -12.0840   22.8510 H   0  0  0  0  0  0  0  0  0  0  0  0
  -23.0540  -13.5150   23.2530 H   0  0  0  0  0  0  0  0  0  0  0  0
  -26.9670  -14.8630   20.2000 N   0  0  0  0  0  0  0  0  0  0  0  0
  -26.4970  -15.6480   20.6420 H   0  0  0  0  0  0  0  0  0  0  0  0
  -27.7720  -15.1410   19.6530 H   0  0  0  0  0  0  0  0  0  0  0  0
  -33.3820  -13.3920   21.6590 C   0  0  0  0  0  1  0  0  0  0  0  0
  -34.5280  -12.6870   19.5210 C   0  0  0  0  0  1  0  0  0  0  0  0
  -34.0890  -13.8890   20.3800 C   0  0  0  0  0  3  0  0  0  0  0  0
  -30.9150  -21.9070   22.1580 N   0  0  0  0  0  0  0  0  0  0  0  0
  -30.8150  -21.1710   23.1380 O   0  0  0  0  0  0  0  0  0  0  0  0
  -31.0010  -23.1330   22.2470 O   0  0  0  0  0  0  0  0  0  0  0  0
  1 53  1  0
  1105  1  0
  2 10  2  0
  3  8  1  0
  4  3  1  0
  4  9  1  0
  6  5  1  0
  6  1  1  0
  7  9  1  0
  8  2  1  0
  8  5  1  0
  9  6  1  0
 11 12  1  0
 11  2  1  0
 12 14  1  0
 13 24  2  0
 14 19  1  0
 15 23  1  0
 15 25  1  0
 16 22  1  0
 16 18  1  0
 17 23  1  0
 18 17  1  0
 19 18  2  0
 20 21  1  0
 20 14  2  0
 21 16  2  0
 22 15  1  0
 23 13  1  0
 25 27  2  0
 26 25  1  0
 28 26  1  0
 29 38  2  0
 29 34  1  0
 30 26  1  0
 30 34  1  0
 31 30  1  0
 32 33  1  0
 32 31  1  0
 33 29  1  0
 34 35  2  0
 35 36  1  0
 37 36  2  0
 38 37  1  0
 39 13  1  0
 39 44  1  0
 39 40  1  0
 40 43  1  1
 40 41  1  0
 42 40  1  0
 44 47  1  0
 45 49  1  0
 45 44  1  0
 46 45  2  0
 49 48  1  0
 51 49  1  0
 51 52  1  0
 51 50  1  0
 54 56  1  0
 54 53  1  0
 55 53  2  0
 57 54  1  0
 57 58  1  0
 59 61  2  0
 60 59  1  0
 60 58  1  0
 62 60  1  0
 63 59  1  0
 63104  1  0
 64 70  1  0
 64 72  1  0
 65 70  1  0
 66 67  1  0
 66 65  1  0
 68 67  1  0
 68 69  1  0
 68 77  1  0
 70 69  1  0
 71 64  2  0
 72 63  1  0
 72 73  1  0
 74 75  2  0
 75 94  1  0
 76 79  1  0
 76 75  1  0
 77 78  1  0
 77 74  1  0
 78 76  2  0
 79 80  1  0
 80 81  2  0
 82 85  1  0
 82 81  1  0
 83 82  2  0
 84 83  1  0
 84 79  2  0
 85 86  1  0
 86 87  1  0
 87 88  2  0
 89 88  1  0
 89 93  1  0
 90 89  2  0
 91 86  2  0
 91 90  1  0
 92 91  1  0
 94 95  1  0
 95 97  1  0
 95 98  1  0
 96 94  2  0
 99 74  1  0
 99100  1  0
101 99  1  0
103104  1  0
104102  1  0
105107  2  0
105106  2  0
M  ISO  4  11 101  12 101  64 100  72 100
M  END
>  <TORSDO>  (79) 
F 25

>  <SCORE>  (79) 
-5.326

>  <name>  (79) 
81

>  <ligand_id>  (79) 
81

>  <original_smiles>  (79) 
[H]c1c([H])c([H])c2c(c1[H])C([H])([H])C([H])([H])C([H])([H])C2([H])N([H])C(=O)C1([H])N(C(=O)C([H])(N([H])C(=O)C([H])(N([H])C([H])([H])[H])C([H])([H])[H])C(C([H])([H])[H])(C([H])([H])[H])C([H])([H])[H])C([H])([H])c2c([H])c(OC([H])([H])C(=O)N3C([H])([H])C([H])([H])N(C([H])([H])[H])C([H])(C([H])(C(=O)N([H])C([H])([H])C([H])([H])N([H])C(=O)C([H])(N([H])C(=O)N4C([H])([H])C([H])([H])C([H])([H])C([H])(n5nc(-c6c([H])c([H])c(Oc7c([H])c([H])c(F)c([H])c7F)c([H])c6[H])c(C(=O)N([H])[H])c5N([H])[H])C4([H])[H])C([H])(C([H])([H])[H])C([H])([H])[H])[N+](=O)[O-])C3([H])[H])c([H])c([H])c2C1([H])[H]

>  <smiles>  (79) 
[H]c1c([H])c([H])c2c(c1[H])C([H])([H])C([H])([H])C([H])([H])C2([H])N([H])C(=O)C1([H])N(C(=O)C([H])(N([H])C(=O)C([H])(N([H])C([H])([H])[H])C([H])([H])[H])C(C([H])([H])[H])(C([H])([H])[H])C([H])([H])[H])C([H])([H])c2c([H])c(OC([H])([H])C(=O)N3C([H])([H])C([H])([H])N(C([H])([H])[H])C([H])(C([H])(C(=O)N([H])C([H])([H])C([H])([H])N([H])C(=O)C([H])(N([H])C(=O)N4C([H])([H])C([H])([H])C([H])([H])C([H])(n5nc(-c6c([H])c([H])c(Oc7c([H])c([H])c(F)c([H])c7F)c([H])c6[H])c(C(=O)N([H])[H])c5N([H])[H])C4([H])[H])C([H])(C([H])([H])[H])C([H])([H])[H])[N+](=O)[O-])C3([H])[H])c([H])c([H])c2C1([H])[H]

$$$$
82:0:0
     RDKit          3D

105114  0  0  1  0  0  0  0  0999 V2000
  -27.4480  -21.7780   17.5780 C   0  0  0  0  0  0  0  0  0  0  0  0
  -29.9020  -24.2680   16.4660 C   0  0  0  0  0  2  0  0  0  0  0  0
  -30.0810  -24.3720   17.9680 C   0  0  0  0  0  2  0  0  0  0  0  0
  -29.1560  -22.9530   16.2710 C   0  0  0  0  0  2  0  0  0  0  0  0
  -28.8260  -23.6930   18.5560 C   0  0  0  0  0  3  0  0  0  0  0  0
  -28.4190  -22.7220   17.5160 N   0  0  0  0  0  0  0  0  0  0  0  0
  -27.2590  -20.9850   16.6510 O   0  0  0  0  0  0  0  0  0  0  0  0
  -29.1840  -23.0440   19.9180 C   0  0  0  0  0  0  0  0  0  0  0  0
  -28.7560  -23.5740   21.0730 N   0  0  0  0  0  0  0  0  0  0  0  0
  -29.8690  -22.0230   19.9360 O   0  0  0  0  0  0  0  0  0  0  0  0
  -29.0480  -23.1020   21.9180 H   0  0  0  0  0  0  0  0  0  0  0  0
  -27.9610  -24.7850   21.2850 C   0  0  0  0  0  2  0  0  0  0  0  0
  -28.8150  -26.0360   21.0500 C   0  0  0  0  0  0  0  0  0  0  0  0
  -29.8750  -26.2030   21.6560 O   0  0  0  0  0  0  0  0  0  0  0  0
  -28.4190  -26.7910   20.0140 O   0  0  0  0  0  0  0  0  0  0  0  0
  -24.6090  -31.8730   23.2120 C   0  0  0  0  0  0  0  0  0  0  0  0
  -27.2300  -27.4700   20.0960 C   0  0  0  0  0  0  0  0  0  0  0  0
  -23.3930  -30.4950   21.5530 C   0  0  0  0  0  3  0  0  0  0  0  0
  -24.8390  -28.9560   20.1220 C   0  0  0  0  0  0  0  0  0  0  0  0
  -25.9170  -30.8440   21.3630 C   0  0  0  0  0  2  0  0  0  0  0  0
  -25.9920  -29.4770   20.7230 C   0  0  0  0  0  0  0  0  0  0  0  0
  -27.1900  -28.7350   20.7160 C   0  0  0  0  0  3  0  0  0  0  0  0
  -26.0700  -26.9610   19.4770 C   0  0  0  0  0  3  0  0  0  0  0  0
  -24.8650  -27.6930   19.5060 C   0  0  0  0  0  3  0  0  0  0  0  0
  -23.6000  -29.8220   20.1690 C   0  0  0  0  0  2  0  0  0  0  0  0
  -24.6570  -31.0850   22.1020 N   0  0  0  0  0  0  0  0  0  0  0  0
  -23.5290  -32.1500   23.7540 O   0  0  0  0  0  0  0  0  0  0  0  0
  -22.7360  -29.4680   22.5010 C   0  0  0  0  0  0  0  0  0  0  0  0
  -21.4100  -29.3010   22.3750 N   0  0  0  0  0  0  0  0  0  0  0  0
  -23.4160  -28.8240   23.3040 O   0  0  0  0  0  0  0  0  0  0  0  0
  -20.9260  -29.8690   21.6940 H   0  0  0  0  0  0  0  0  0  0  0  0
  -18.0240  -28.1340   22.8550 C   0  0  0  0  0  0  0  0  0  0  0  0
  -20.5840  -28.3640   23.1360 C   0  0  0  0  0  3  0  0  0  0  0  0
  -20.6740  -26.9380   22.5460 C   0  0  0  0  0  2  0  0  0  0  0  0
  -19.5720  -26.6400   21.5230 C   0  0  0  0  0  2  0  0  0  0  0  0
  -18.1900  -26.7890   22.1650 C   0  0  0  0  0  2  0  0  0  0  0  0
  -19.1510  -28.8800   23.2950 C   0  0  0  0  0  0  0  0  0  0  0  0
  -18.9440  -30.1440   23.8900 C   0  0  0  0  0  3  0  0  0  0  0  0
  -17.6440  -30.6600   24.0530 C   0  0  0  0  0  3  0  0  0  0  0  0
  -16.5320  -29.9080   23.6320 C   0  0  0  0  0  3  0  0  0  0  0  0
  -16.7240  -28.6480   23.0390 C   0  0  0  0  0  3  0  0  0  0  0  0
  -25.9010  -32.4840   23.8400 C   0  0  0  0  0  3  0  0  0  0  0  0
  -26.4450  -31.6610   25.0710 C   0  0  1  0  0  0  0  0  0  0  0  0
  -25.3720  -31.3710   26.1460 C   0  0  0  0  0  1  0  0  0  0  0  0
  -27.0280  -30.3060   24.6050 C   0  0  0  0  0  1  0  0  0  0  0  0
  -27.6040  -32.4310   25.7470 C   0  0  0  0  0  1  0  0  0  0  0  0
  -25.5880  -33.8640   24.2330 N   0  0  0  0  0  0  0  0  0  0  0  0
  -25.9040  -34.9490   23.5140 C   0  0  0  0  0  0  0  0  0  0  0  0
  -26.5600  -34.8950   22.4690 O   0  0  0  0  0  0  0  0  0  0  0  0
  -25.0040  -33.9810   25.0480 H   0  0  0  0  0  0  0  0  0  0  0  0
  -24.1500  -36.7330   23.2640 C   0  0  0  0  0  1  0  0  0  0  0  0
  -25.4120  -36.3130   24.0330 C   0  0  0  0  0  3  0  0  0  0  0  0
  -27.5590  -37.1830   24.8460 C   0  0  0  0  0  1  0  0  0  0  0  0
  -26.4320  -37.3800   23.9390 N   0  0  0  0  0  0  0  0  0  0  0  0
  -26.0220  -38.2890   24.1350 H   0  0  0  0  0  0  0  0  0  0  0  0
  -26.5120  -21.7330   18.7980 C   0  0  0  0  0  2  0  0  0  0  0  0
  -25.3470  -20.7290   18.6810 C   0  0  0  0  0  2  0  0  0  0  0  0
  -24.3940  -20.8070   19.8930 C   0  0  0  0  0  2  0  0  0  0  0  0
  -23.9190  -19.4410   20.4250 C   0  0  0  0  0  2  0  0  0  0  0  0
  -24.7960  -18.8890   21.5710 C   0  0  0  0  0  2  0  0  0  0  0  0
  -26.2310  -18.5210   21.1360 C   0  0  0  0  0  2  0  0  0  0  0  0
  -30.7240  -14.4310   20.6410 C   0  0  0  0  0  0  0  0  0  0  0  0
  -30.4320  -12.2990   19.4330 C   0  0  0  0  0  2  0  0  0  0  0  0
  -29.5160  -12.5050   18.2080 C   0  0  0  0  0  2  0  0  0  0  0  0
  -28.0310  -12.3680   18.6050 C   0  0  0  0  0  2  0  0  0  0  0  0
  -27.6680  -13.1970   19.8660 C   0  0  0  0  0  3  0  0  0  0  0  0
  -28.6960  -12.9410   20.9840 C   0  0  0  0  0  2  0  0  0  0  0  0
  -30.0330  -13.2710   20.4650 N   0  0  0  0  0  0  0  0  0  0  0  0
  -31.8350  -14.6130   20.1260 O   0  0  0  0  0  0  0  0  0  0  0  0
  -27.1060  -17.8860   22.2340 C   0  0  0  0  0  0  0  0  0  0  0  0
  -29.3480  -17.1000   22.9560 C   0  0  0  0  0  2  0  0  0  0  0  0
  -29.0240  -17.7580   20.6300 C   0  0  0  0  0  2  0  0  0  0  0  0
  -29.8570  -15.6880   22.5880 C   0  0  0  0  0  2  0  0  0  0  0  0
  -30.1900  -16.7690   20.4010 C   0  0  0  0  0  2  0  0  0  0  0  0
  -28.4000  -17.5890   21.9490 N   0  0  0  0  0  0  0  0  0  0  0  0
  -30.0280  -15.4920   21.1290 N   0  0  0  0  0  0  0  0  0  0  0  0
  -26.6190  -17.6920   23.3510 O   0  0  0  0  0  0  0  0  0  0  0  0
  -25.2630  -13.8070   20.5600 C   0  0  0  0  0  0  0  0  0  0  0  0
  -24.1900  -13.0370   20.9170 C   0  0  0  0  0  0  0  0  0  0  0  0
  -24.6440  -11.6840   20.8740 C   0  0  0  0  0  0  0  0  0  0  0  0
  -26.3070  -12.9240   20.3260 N   0  0  0  0  0  0  0  0  0  0  0  0
  -25.9360  -11.6400   20.5700 N   0  0  0  0  0  0  0  0  0  0  0  0
  -23.9090  -10.4230   21.0420 C   0  0  0  0  0  0  0  0  0  0  0  0
  -24.3620   -9.4150   21.9200 C   0  0  0  0  0  3  0  0  0  0  0  0
  -23.6280   -8.2200   22.0760 C   0  0  0  0  0  3  0  0  0  0  0  0
  -22.4260   -8.0260   21.3550 C   0  0  0  0  0  0  0  0  0  0  0  0
  -21.9910   -9.0250   20.4660 C   0  0  0  0  0  3  0  0  0  0  0  0
  -22.7270  -10.2110   20.3060 C   0  0  0  0  0  3  0  0  0  0  0  0
  -21.6630   -6.8860   21.4240 O   0  0  0  0  0  0  0  0  0  0  0  0
  -21.6840   -6.0710   22.5290 C   0  0  0  0  0  0  0  0  0  0  0  0
  -21.3990   -6.5620   23.8210 C   0  0  0  0  0  3  0  0  0  0  0  0
  -21.3660   -5.6780   24.9200 C   0  0  0  0  0  3  0  0  0  0  0  0
  -21.6050   -4.3050   24.7260 C   0  0  0  0  0  0  0  0  0  0  0  0
  -21.8820   -3.8140   23.4390 C   0  0  0  0  0  3  0  0  0  0  0  0
  -21.9190   -4.6940   22.3430 C   0  0  0  0  0  0  0  0  0  0  0  0
  -22.1650   -4.2110   21.1010 F   0  0  0  0  0  0  0  0  0  0  0  0
  -21.5660   -3.4530   25.7780 F   0  0  0  0  0  0  0  0  0  0  0  0
  -22.7920  -13.5190   21.1870 C   0  0  0  0  0  0  0  0  0  0  0  0
  -22.0550  -12.8170   22.0410 N   0  0  0  0  0  0  0  0  0  0  0  0
  -22.3620  -14.5500   20.6760 O   0  0  0  0  0  0  0  0  0  0  0  0
  -22.4140  -11.9820   22.4800 H   0  0  0  0  0  0  0  0  0  0  0  0
  -21.1160  -13.1220   22.2600 H   0  0  0  0  0  0  0  0  0  0  0  0
  -25.4300  -15.1760   20.3930 N   0  0  0  0  0  0  0  0  0  0  0  0
  -24.6480  -15.8160   20.4760 H   0  0  0  0  0  0  0  0  0  0  0  0
  -26.2680  -15.6040   20.0240 H   0  0  0  0  0  0  0  0  0  0  0  0
  1 56  1  0
  2  3  1  0
  3  5  1  0
  4  2  1  0
  4  6  1  0
  5  8  1  0
  6  1  1  0
  6  5  1  0
  7  1  2  0
  8 10  2  0
  8  9  1  0
  9 12  1  0
  9 11  1  0
 13 12  1  0
 13 14  2  0
 15 17  1  0
 15 13  1  0
 16 27  2  0
 17 22  1  0
 18 26  1  0
 18 28  1  0
 19 25  1  0
 19 21  1  0
 20 26  1  0
 21 20  1  0
 22 21  2  0
 23 24  1  0
 23 17  2  0
 24 19  2  0
 25 18  1  0
 26 16  1  0
 28 30  2  0
 29 28  1  0
 31 29  1  0
 32 41  2  0
 32 37  1  0
 33 29  1  0
 33 37  1  0
 34 33  1  0
 35 36  1  0
 35 34  1  0
 36 32  1  0
 37 38  2  0
 38 39  1  0
 40 39  2  0
 41 40  1  0
 42 16  1  0
 42 47  1  0
 42 43  1  0
 43 46  1  1
 43 44  1  0
 45 43  1  0
 47 50  1  0
 48 52  1  0
 48 47  1  0
 49 48  2  0
 52 51  1  0
 54 52  1  0
 54 55  1  0
 54 53  1  0
 57 56  1  0
 57 58  1  0
 58 59  1  0
 59 60  1  0
 61 60  1  0
 61 70  1  0
 62 76  1  0
 63 68  1  0
 64 65  1  0
 64 63  1  0
 66 65  1  0
 66 81  1  0
 66 67  1  0
 68 62  1  0
 68 67  1  0
 69 62  2  0
 70 77  2  0
 72 75  1  0
 73 71  1  0
 74 72  1  0
 74 76  1  0
 75 70  1  0
 75 71  1  0
 76 73  1  0
 78 79  2  0
 79 98  1  0
 80 79  1  0
 80 83  1  0
 81 78  1  0
 81 82  1  0
 82 80  2  0
 83 84  1  0
 84 85  2  0
 86 89  1  0
 86 85  1  0
 87 86  2  0
 88 87  1  0
 88 83  2  0
 89 90  1  0
 90 91  1  0
 91 92  2  0
 93 92  1  0
 93 97  1  0
 94 93  2  0
 95 90  2  0
 95 94  1  0
 96 95  1  0
 98 99  1  0
 99102  1  0
 99101  1  0
100 98  2  0
103104  1  0
103 78  1  0
105103  1  0
M  ISO  4  13 101  15 101  62 100  76 100
M  END
>  <TORSDO>  (80) 
F 25

>  <SCORE>  (80) 
21.010

>  <name>  (80) 
82

>  <ligand_id>  (80) 
82

>  <original_smiles>  (80) 
[H]c1c([H])c([H])c2c(c1[H])C([H])([H])C([H])([H])C([H])([H])C2([H])N([H])C(=O)C1([H])N(C(=O)C([H])(N([H])C(=O)C([H])(N([H])C([H])([H])[H])C([H])([H])[H])C(C([H])([H])[H])(C([H])([H])[H])C([H])([H])[H])C([H])([H])c2c([H])c(OC(=O)C([H])([H])N([H])C(=O)C3([H])N(C(=O)C([H])([H])C([H])([H])C([H])([H])C([H])([H])C([H])([H])C([H])([H])C(=O)N4C([H])([H])C([H])([H])N(C(=O)N5C([H])([H])C([H])([H])C([H])([H])C([H])(n6nc(-c7c([H])c([H])c(Oc8c([H])c([H])c(F)c([H])c8F)c([H])c7[H])c(C(=O)N([H])[H])c6N([H])[H])C5([H])[H])C([H])([H])C4([H])[H])C([H])([H])C([H])([H])C3([H])[H])c([H])c([H])c2C1([H])[H]

>  <smiles>  (80) 
[H]c1c([H])c([H])c2c(c1[H])C([H])([H])C([H])([H])C([H])([H])C2([H])N([H])C(=O)C1([H])N(C(=O)C([H])(N([H])C(=O)C([H])(N([H])C([H])([H])[H])C([H])([H])[H])C(C([H])([H])[H])(C([H])([H])[H])C([H])([H])[H])C([H])([H])c2c([H])c(OC(=O)C([H])([H])N([H])C(=O)C3([H])N(C(=O)C([H])([H])C([H])([H])C([H])([H])C([H])([H])C([H])([H])C([H])([H])C(=O)N4C([H])([H])C([H])([H])N(C(=O)N5C([H])([H])C([H])([H])C([H])([H])C([H])(n6nc(-c7c([H])c([H])c(Oc8c([H])c([H])c(F)c([H])c8F)c([H])c7[H])c(C(=O)N([H])[H])c6N([H])[H])C5([H])[H])C([H])([H])C4([H])[H])C([H])([H])C([H])([H])C3([H])[H])c([H])c([H])c2C1([H])[H]

$$$$
83:0:0
     RDKit          3D

 89 96  0  0  1  0  0  0  0  0999 V2000
  -29.1290  -19.8420   20.4030 C   0  0  0  0  0  0  0  0  0  0  0  0
  -29.0930  -21.2510   19.9180 N   0  0  0  0  0  0  0  0  0  0  0  0
  -28.5030  -19.6410   21.4440 O   0  0  0  0  0  0  0  0  0  0  0  0
  -29.5610  -21.3290   19.0230 H   0  0  0  0  0  0  0  0  0  0  0  0
  -28.7070  -22.7760   20.5230 C   0  0  0  0  0  2  0  0  0  0  0  0
  -28.1280  -24.3490   19.8220 C   0  0  0  0  0  2  0  0  0  0  0  0
  -28.1790  -25.9520   20.2640 O   0  0  0  0  0  0  0  0  0  0  0  0
  -24.5810  -31.9000   23.2140 C   0  0  0  0  0  0  0  0  0  0  0  0
  -27.1650  -27.0490   20.1590 C   0  0  0  0  0  0  0  0  0  0  0  0
  -23.3980  -30.5140   21.5590 C   0  0  0  0  0  3  0  0  0  0  0  0
  -24.8590  -28.9280   20.1200 C   0  0  0  0  0  0  0  0  0  0  0  0
  -25.9640  -30.7330   21.4250 C   0  0  0  0  0  2  0  0  0  0  0  0
  -26.0410  -29.3300   20.7540 C   0  0  0  0  0  0  0  0  0  0  0  0
  -27.1840  -28.4090   20.7520 C   0  0  0  0  0  3  0  0  0  0  0  0
  -25.9560  -26.8090   19.4680 C   0  0  0  0  0  3  0  0  0  0  0  0
  -24.8420  -27.6910   19.4570 C   0  0  0  0  0  3  0  0  0  0  0  0
  -23.6350  -29.8450   20.1760 C   0  0  0  0  0  2  0  0  0  0  0  0
  -24.6700  -31.0770   22.1190 N   0  0  0  0  0  0  0  0  0  0  0  0
  -23.4890  -32.1820   23.7340 O   0  0  0  0  0  0  0  0  0  0  0  0
  -22.7050  -29.5080   22.5140 C   0  0  0  0  0  0  0  0  0  0  0  0
  -21.3770  -29.3340   22.3790 N   0  0  0  0  0  0  0  0  0  0  0  0
  -23.3690  -28.8850   23.3450 O   0  0  0  0  0  0  0  0  0  0  0  0
  -20.8940  -29.8880   21.6860 H   0  0  0  0  0  0  0  0  0  0  0  0
  -18.0010  -28.0920   22.8580 C   0  0  0  0  0  0  0  0  0  0  0  0
  -20.5570  -28.3830   23.1390 C   0  0  0  0  0  3  0  0  0  0  0  0
  -20.6770  -26.9560   22.5570 C   0  0  0  0  0  2  0  0  0  0  0  0
  -19.5840  -26.6280   21.5340 C   0  0  0  0  0  2  0  0  0  0  0  0
  -18.1970  -26.7510   22.1700 C   0  0  0  0  0  2  0  0  0  0  0  0
  -19.1090  -28.8650   23.2980 C   0  0  0  0  0  0  0  0  0  0  0  0
  -18.8700  -30.1170   23.9050 C   0  0  0  0  0  3  0  0  0  0  0  0
  -17.5570  -30.5980   24.0720 C   0  0  0  0  0  3  0  0  0  0  0  0
  -16.4650  -29.8230   23.6450 C   0  0  0  0  0  3  0  0  0  0  0  0
  -16.6870  -28.5720   23.0440 C   0  0  0  0  0  3  0  0  0  0  0  0
  -25.8470  -32.5440   23.8570 C   0  0  0  0  0  3  0  0  0  0  0  0
  -26.3230  -31.7990   25.1660 C   0  0  1  0  0  0  0  0  0  0  0  0
  -25.2000  -31.5960   26.2110 C   0  0  0  0  0  1  0  0  0  0  0  0
  -26.9040  -30.4060   24.8310 C   0  0  0  0  0  1  0  0  0  0  0  0
  -27.4630  -32.6000   25.8390 C   0  0  0  0  0  1  0  0  0  0  0  0
  -25.5360  -33.9520   24.1620 N   0  0  0  0  0  0  0  0  0  0  0  0
  -25.8930  -34.9990   23.4060 C   0  0  0  0  0  0  0  0  0  0  0  0
  -26.5810  -34.8810   22.3880 O   0  0  0  0  0  0  0  0  0  0  0  0
  -24.9270  -34.1170   24.9490 H   0  0  0  0  0  0  0  0  0  0  0  0
  -24.1960  -36.8180   23.0100 C   0  0  0  0  0  1  0  0  0  0  0  0
  -25.4160  -36.3990   23.8470 C   0  0  0  0  0  3  0  0  0  0  0  0
  -27.5380  -37.2730   24.7230 C   0  0  0  0  0  1  0  0  0  0  0  0
  -26.4640  -37.4390   23.7480 N   0  0  0  0  0  0  0  0  0  0  0  0
  -26.0650  -38.3660   23.8700 H   0  0  0  0  0  0  0  0  0  0  0  0
  -29.9600  -18.3950   19.8110 C   0  0  0  0  0  3  0  0  0  0  0  0
  -30.4580  -15.4500   19.8890 C   0  0  0  0  0  0  0  0  0  0  0  0
  -30.3550  -13.0210   18.9630 C   0  0  0  0  0  2  0  0  0  0  0  0
  -29.3670  -12.8510   17.7830 C   0  0  0  0  0  2  0  0  0  0  0  0
  -27.9480  -12.5670   18.3020 C   0  0  0  0  0  2  0  0  0  0  0  0
  -27.5690  -13.4960   19.4810 C   0  0  0  0  0  3  0  0  0  0  0  0
  -28.6840  -13.6230   20.5440 C   0  0  0  0  0  2  0  0  0  0  0  0
  -29.8730  -14.1470   19.8540 N   0  0  0  0  0  0  0  0  0  0  0  0
  -31.6460  -15.4180   19.5400 O   0  0  0  0  0  0  0  0  0  0  0  0
  -29.7480  -16.7460   20.1160 N   0  0  0  0  0  0  0  0  0  0  0  0
  -28.8090  -16.5760   20.4450 H   0  0  0  0  0  0  0  0  0  0  0  0
  -25.2450  -14.0250   20.3820 C   0  0  0  0  0  0  0  0  0  0  0  0
  -24.2110  -13.2360   20.7990 C   0  0  0  0  0  0  0  0  0  0  0  0
  -24.6820  -11.8890   20.7170 C   0  0  0  0  0  0  0  0  0  0  0  0
  -26.2770  -13.1600   20.0620 N   0  0  0  0  0  0  0  0  0  0  0  0
  -25.9540  -11.8680   20.3310 N   0  0  0  0  0  0  0  0  0  0  0  0
  -23.9720  -10.6200   20.9250 C   0  0  0  0  0  0  0  0  0  0  0  0
  -24.4370   -9.6530   21.8440 C   0  0  0  0  0  3  0  0  0  0  0  0
  -23.7230   -8.4520   22.0420 C   0  0  0  0  0  3  0  0  0  0  0  0
  -22.5290   -8.2070   21.3230 C   0  0  0  0  0  0  0  0  0  0  0  0
  -22.0830   -9.1630   20.3930 C   0  0  0  0  0  3  0  0  0  0  0  0
  -22.7980  -10.3550   20.1920 C   0  0  0  0  0  3  0  0  0  0  0  0
  -21.7840   -7.0580   21.4320 O   0  0  0  0  0  0  0  0  0  0  0  0
  -21.7550   -6.3270   22.5920 C   0  0  0  0  0  0  0  0  0  0  0  0
  -21.2990   -6.8780   23.8090 C   0  0  0  0  0  3  0  0  0  0  0  0
  -21.2200   -6.0700   24.9620 C   0  0  0  0  0  3  0  0  0  0  0  0
  -21.5870   -4.7130   24.8980 C   0  0  0  0  0  0  0  0  0  0  0  0
  -22.0350   -4.1610   23.6850 C   0  0  0  0  0  3  0  0  0  0  0  0
  -22.1150   -4.9660   22.5350 C   0  0  0  0  0  0  0  0  0  0  0  0
  -22.5280   -4.4230   21.3640 F   0  0  0  0  0  0  0  0  0  0  0  0
  -21.5030   -3.9350   26.0030 F   0  0  0  0  0  0  0  0  0  0  0  0
  -22.8300  -13.7010   21.1530 C   0  0  0  0  0  0  0  0  0  0  0  0
  -22.1510  -12.9850   22.0420 N   0  0  0  0  0  0  0  0  0  0  0  0
  -22.3640  -14.7360   20.6770 O   0  0  0  0  0  0  0  0  0  0  0  0
  -22.5430  -12.1480   22.4470 H   0  0  0  0  0  0  0  0  0  0  0  0
  -21.2260  -13.2780   22.3220 H   0  0  0  0  0  0  0  0  0  0  0  0
  -25.3890  -15.4000   20.2180 N   0  0  0  0  0  0  0  0  0  0  0  0
  -24.6220  -16.0430   20.3800 H   0  0  0  0  0  0  0  0  0  0  0  0
  -26.2010  -15.8480   19.8140 H   0  0  0  0  0  0  0  0  0  0  0  0
  -31.8640  -18.6960   21.5400 C   0  0  0  0  0  1  0  0  0  0  0  0
  -32.0780  -19.8620   19.3010 C   0  0  0  0  0  1  0  0  0  0  0  0
  -31.4850  -18.6510   20.0470 C   0  0  0  0  0  3  0  0  0  0  0  0
  1  3  2  0
  2  1  1  0
  2  5  1  0
  4  2  1  0
  6  7  1  0
  6  5  1  0
  8 19  2  0
  9  7  1  0
  9 14  1  0
 10 18  1  0
 10 20  1  0
 11 17  1  0
 11 13  1  0
 12 18  1  0
 13 12  1  0
 14 13  2  0
 15  9  2  0
 16 15  1  0
 16 11  2  0
 17 10  1  0
 18  8  1  0
 20 22  2  0
 21 20  1  0
 23 21  1  0
 24 33  2  0
 24 29  1  0
 25 21  1  0
 25 29  1  0
 26 25  1  0
 27 28  1  0
 27 26  1  0
 28 24  1  0
 29 30  2  0
 30 31  1  0
 32 31  2  0
 33 32  1  0
 34  8  1  0
 34 39  1  0
 34 35  1  0
 35 38  1  1
 35 36  1  0
 37 35  1  0
 39 42  1  0
 40 44  1  0
 40 39  1  0
 41 40  2  0
 44 43  1  0
 46 44  1  0
 46 47  1  0
 46 45  1  0
 48 89  1  0
 48 57  1  0
 48  1  1  0
 49 57  1  0
 50 55  1  0
 51 52  1  0
 51 50  1  0
 53 52  1  0
 53 62  1  0
 53 54  1  0
 55 49  1  0
 55 54  1  0
 56 49  2  0
 57 58  1  0
 59 60  2  0
 60 79  1  0
 61 60  1  0
 61 64  1  0
 62 63  1  0
 62 59  1  0
 63 61  2  0
 64 65  1  0
 65 66  2  0
 67 70  1  0
 67 66  1  0
 68 67  2  0
 69 68  1  0
 69 64  2  0
 70 71  1  0
 71 72  1  0
 72 73  2  0
 74 73  1  0
 74 78  1  0
 75 74  2  0
 76 71  2  0
 76 75  1  0
 77 76  1  0
 79 80  1  0
 80 83  1  0
 80 82  1  0
 81 79  2  0
 84 85  1  0
 84 59  1  0
 86 84  1  0
 88 89  1  0
 89 87  1  0
M  ISO  4   6 101   7 101  49 100  57 100
M  END
>  <TORSDO>  (81) 
F 20

>  <SCORE>  (81) 
-15.647

>  <name>  (81) 
83

>  <ligand_id>  (81) 
83

>  <original_smiles>  (81) 
[H]c1c([H])c([H])c2c(c1[H])C([H])([H])C([H])([H])C([H])([H])C2([H])N([H])C(=O)C1([H])N(C(=O)C([H])(N([H])C(=O)C([H])(N([H])C([H])([H])[H])C([H])([H])[H])C(C([H])([H])[H])(C([H])([H])[H])C([H])([H])[H])C([H])([H])c2c([H])c(OC([H])([H])C([H])([H])N([H])C(=O)C([H])(N([H])C(=O)N3C([H])([H])C([H])([H])C([H])([H])C([H])(n4nc(-c5c([H])c([H])c(Oc6c([H])c([H])c(F)c([H])c6F)c([H])c5[H])c(C(=O)N([H])[H])c4N([H])[H])C3([H])[H])C([H])(C([H])([H])[H])C([H])([H])[H])c([H])c([H])c2C1([H])[H]

>  <smiles>  (81) 
[H]c1c([H])c([H])c2c(c1[H])C([H])([H])C([H])([H])C([H])([H])C2([H])N([H])C(=O)C1([H])N(C(=O)C([H])(N([H])C(=O)C([H])(N([H])C([H])([H])[H])C([H])([H])[H])C(C([H])([H])[H])(C([H])([H])[H])C([H])([H])[H])C([H])([H])c2c([H])c(OC([H])([H])C([H])([H])N([H])C(=O)C([H])(N([H])C(=O)N3C([H])([H])C([H])([H])C([H])([H])C([H])(n4nc(-c5c([H])c([H])c(Oc6c([H])c([H])c(F)c([H])c6F)c([H])c5[H])c(C(=O)N([H])[H])c4N([H])[H])C3([H])[H])C([H])(C([H])([H])[H])C([H])([H])[H])c([H])c([H])c2C1([H])[H]

$$$$
84:0:0
     RDKit          3D

 99106  0  0  1  0  0  0  0  0999 V2000
  -29.6120  -20.2320   20.5640 C   0  0  0  0  0  3  0  0  0  0  0  0
  -28.5750  -21.4170   20.1970 C   0  0  0  0  0  0  0  0  0  0  0  0
  -28.9790  -22.7270   20.0070 N   0  0  0  0  0  0  0  0  0  0  0  0
  -27.3710  -21.1500   20.2140 O   0  0  0  0  0  0  0  0  0  0  0  0
  -29.9830  -22.8460   19.9740 H   0  0  0  0  0  0  0  0  0  0  0  0
  -28.2030  -24.0270   20.2380 C   0  0  0  0  0  2  0  0  0  0  0  0
  -28.3960  -25.2990   19.2690 C   0  0  0  0  0  2  0  0  0  0  0  0
  -28.3330  -26.7170   19.7390 O   0  0  0  0  0  0  0  0  0  0  0  0
  -24.5990  -31.8190   23.2190 C   0  0  0  0  0  0  0  0  0  0  0  0
  -27.1800  -27.5210   19.7580 C   0  0  0  0  0  0  0  0  0  0  0  0
  -23.3630  -30.5100   21.5240 C   0  0  0  0  0  3  0  0  0  0  0  0
  -24.7870  -29.0900   19.9390 C   0  0  0  0  0  0  0  0  0  0  0  0
  -25.8860  -30.8910   21.2760 C   0  0  0  0  0  2  0  0  0  0  0  0
  -25.9670  -29.5630   20.5270 C   0  0  0  0  0  0  0  0  0  0  0  0
  -27.1600  -28.7880   20.4270 C   0  0  0  0  0  3  0  0  0  0  0  0
  -25.9760  -27.0990   19.1550 C   0  0  0  0  0  3  0  0  0  0  0  0
  -24.7950  -27.8660   19.2460 C   0  0  0  0  0  3  0  0  0  0  0  0
  -23.5390  -29.9360   20.0930 C   0  0  0  0  0  2  0  0  0  0  0  0
  -24.6360  -31.0910   22.0630 N   0  0  0  0  0  0  0  0  0  0  0  0
  -23.5320  -32.0310   23.8140 O   0  0  0  0  0  0  0  0  0  0  0  0
  -22.7570  -29.4170   22.4350 C   0  0  0  0  0  0  0  0  0  0  0  0
  -21.4420  -29.1700   22.2960 N   0  0  0  0  0  0  0  0  0  0  0  0
  -23.4680  -28.7930   23.2270 O   0  0  0  0  0  0  0  0  0  0  0  0
  -20.9220  -29.7310   21.6350 H   0  0  0  0  0  0  0  0  0  0  0  0
  -18.1510  -27.7260   22.6860 C   0  0  0  0  0  0  0  0  0  0  0  0
  -20.6790  -28.1550   23.0210 C   0  0  0  0  0  3  0  0  0  0  0  0
  -20.8930  -26.7530   22.4080 C   0  0  0  0  0  2  0  0  0  0  0  0
  -19.8390  -26.3870   21.3570 C   0  0  0  0  0  2  0  0  0  0  0  0
  -18.4370  -26.4150   21.9720 C   0  0  0  0  0  2  0  0  0  0  0  0
  -19.2030  -28.5500   23.1650 C   0  0  0  0  0  0  0  0  0  0  0  0
  -18.8840  -29.7750   23.7900 C   0  0  0  0  0  3  0  0  0  0  0  0
  -17.5430  -30.1780   23.9410 C   0  0  0  0  0  3  0  0  0  0  0  0
  -16.5050  -29.3510   23.4800 C   0  0  0  0  0  3  0  0  0  0  0  0
  -16.8100  -28.1260   22.8590 C   0  0  0  0  0  3  0  0  0  0  0  0
  -25.8910  -32.4370   23.8370 C   0  0  0  0  0  3  0  0  0  0  0  0
  -26.4280  -31.6350   25.0860 C   0  0  1  0  0  0  0  0  0  0  0  0
  -25.3540  -31.3760   26.1680 C   0  0  0  0  0  1  0  0  0  0  0  0
  -26.9960  -30.2640   24.6520 C   0  0  0  0  0  1  0  0  0  0  0  0
  -27.5950  -32.4080   25.7440 C   0  0  0  0  0  1  0  0  0  0  0  0
  -25.5880  -33.8250   24.2130 N   0  0  0  0  0  0  0  0  0  0  0  0
  -25.9190  -34.9020   23.4880 C   0  0  0  0  0  0  0  0  0  0  0  0
  -26.5830  -34.8300   22.4510 O   0  0  0  0  0  0  0  0  0  0  0  0
  -25.0030  -33.9570   25.0250 H   0  0  0  0  0  0  0  0  0  0  0  0
  -24.1910  -36.7070   23.2040 C   0  0  0  0  0  1  0  0  0  0  0  0
  -25.4380  -36.2750   23.9940 C   0  0  0  0  0  3  0  0  0  0  0  0
  -27.5750  -37.1320   24.8430 C   0  0  0  0  0  1  0  0  0  0  0  0
  -26.4700  -37.3310   23.9090 N   0  0  0  0  0  0  0  0  0  0  0  0
  -26.0650  -38.2460   24.0890 H   0  0  0  0  0  0  0  0  0  0  0  0
  -30.5150  -21.2350   22.7380 C   0  0  0  0  0  0  0  0  0  0  0  0
  -29.9120  -20.2910   22.0030 N   0  0  0  0  0  0  0  0  0  0  0  0
  -31.1290  -22.1870   22.2490 O   0  0  0  0  0  0  0  0  0  0  0  0
  -29.4110  -19.5730   22.5140 H   0  0  0  0  0  0  0  0  0  0  0  0
  -30.4110  -21.0900   24.2580 C   0  0  0  0  0  2  0  0  0  0  0  0
  -30.2940  -22.4050   24.9020 N   0  0  0  0  0  4  0  0  0  0  0  0
  -31.0920  -22.9630   24.6550 H   0  0  0  0  0  0  0  0  0  0  0  0
  -30.2480  -22.3040   25.9000 H   0  0  0  0  0  0  0  0  0  0  0  0
  -29.4670  -22.8700   24.5750 H   0  0  0  0  0  0  0  0  0  0  0  0
  -29.2420  -18.6540   20.3700 C   0  0  0  0  0  3  0  0  0  0  0  0
  -28.0870  -18.3170   21.1370 O   0  0  0  0  0  0  0  0  0  0  0  0
  -27.3780  -18.8740   20.8300 H   0  0  0  0  0  0  0  0  0  0  0  0
  -30.3440  -17.5220   20.7250 C   0  0  0  0  0  2  0  0  0  0  0  0
  -30.8050  -14.9440   20.3860 C   0  0  0  0  0  0  0  0  0  0  0  0
  -30.6590  -12.6610   19.3860 C   0  0  0  0  0  2  0  0  0  0  0  0
  -29.7390  -12.7170   18.1490 C   0  0  0  0  0  2  0  0  0  0  0  0
  -28.2620  -12.5420   18.5560 C   0  0  0  0  0  2  0  0  0  0  0  0
  -27.8620  -13.4450   19.7530 C   0  0  0  0  0  3  0  0  0  0  0  0
  -28.8980  -13.3610   20.8930 C   0  0  0  0  0  2  0  0  0  0  0  0
  -30.2010  -13.7140   20.3170 N   0  0  0  0  0  0  0  0  0  0  0  0
  -32.0000  -15.0720   20.1110 O   0  0  0  0  0  0  0  0  0  0  0  0
  -29.9930  -16.0470   20.5690 N   0  0  0  0  0  0  0  0  0  0  0  0
  -29.0060  -15.8510   20.6540 H   0  0  0  0  0  0  0  0  0  0  0  0
  -25.4580  -14.0380   20.4270 C   0  0  0  0  0  0  0  0  0  0  0  0
  -24.3910  -13.2630   20.7900 C   0  0  0  0  0  0  0  0  0  0  0  0
  -24.8620  -11.9150   20.7930 C   0  0  0  0  0  0  0  0  0  0  0  0
  -26.5110  -13.1590   20.2240 N   0  0  0  0  0  0  0  0  0  0  0  0
  -26.1590  -11.8790   20.5110 N   0  0  0  0  0  0  0  0  0  0  0  0
  -24.1410  -10.6490   20.9930 C   0  0  0  0  0  0  0  0  0  0  0  0
  -24.5480   -9.7120   21.9670 C   0  0  0  0  0  3  0  0  0  0  0  0
  -23.8280   -8.5120   22.1510 C   0  0  0  0  0  3  0  0  0  0  0  0
  -22.6860   -8.2410   21.3620 C   0  0  0  0  0  0  0  0  0  0  0  0
  -22.2990   -9.1680   20.3770 C   0  0  0  0  0  3  0  0  0  0  0  0
  -23.0200  -10.3590   20.1910 C   0  0  0  0  0  3  0  0  0  0  0  0
  -21.9380   -7.0930   21.4550 O   0  0  0  0  0  0  0  0  0  0  0  0
  -21.8380   -6.3920   22.6300 C   0  0  0  0  0  0  0  0  0  0  0  0
  -21.3280   -6.9810   23.8070 C   0  0  0  0  0  3  0  0  0  0  0  0
  -21.1780   -6.2050   24.9740 C   0  0  0  0  0  3  0  0  0  0  0  0
  -21.5270   -4.8410   24.9640 C   0  0  0  0  0  0  0  0  0  0  0  0
  -22.0290   -4.2520   23.7890 C   0  0  0  0  0  3  0  0  0  0  0  0
  -22.1830   -5.0250   22.6260 C   0  0  0  0  0  0  0  0  0  0  0  0
  -22.6470   -4.4480   21.4910 F   0  0  0  0  0  0  0  0  0  0  0  0
  -21.3750   -4.0930   26.0810 F   0  0  0  0  0  0  0  0  0  0  0  0
  -22.9850  -13.7340   21.0250 C   0  0  0  0  0  0  0  0  0  0  0  0
  -22.2450  -13.0530   21.8940 N   0  0  0  0  0  0  0  0  0  0  0  0
  -22.5480  -14.7430   20.4710 O   0  0  0  0  0  0  0  0  0  0  0  0
  -22.6080  -12.2370   22.3640 H   0  0  0  0  0  0  0  0  0  0  0  0
  -21.3020  -13.3530   22.0930 H   0  0  0  0  0  0  0  0  0  0  0  0
  -25.6180  -15.4070   20.2300 N   0  0  0  0  0  0  0  0  0  0  0  0
  -24.8440  -16.0550   20.3240 H   0  0  0  0  0  0  0  0  0  0  0  0
  -26.4750  -15.8600   19.9370 H   0  0  0  0  0  0  0  0  0  0  0  0
  1  2  1  0
  1 50  1  0
  2  4  2  0
  3  2  1  0
  3  6  1  0
  5  3  1  0
  7  8  1  0
  7  6  1  0
  8 10  1  0
  9 20  2  0
 10 15  1  0
 11 19  1  0
 11 21  1  0
 12 18  1  0
 12 14  1  0
 13 19  1  0
 14 13  1  0
 15 14  2  0
 16 17  1  0
 16 10  2  0
 17 12  2  0
 18 11  1  0
 19  9  1  0
 21 23  2  0
 22 21  1  0
 24 22  1  0
 25 34  2  0
 25 30  1  0
 26 22  1  0
 26 30  1  0
 27 26  1  0
 28 29  1  0
 28 27  1  0
 29 25  1  0
 30 31  2  0
 31 32  1  0
 33 32  2  0
 34 33  1  0
 35  9  1  0
 35 40  1  0
 35 36  1  0
 36 39  1  1
 36 37  1  0
 38 36  1  0
 40 43  1  0
 41 45  1  0
 41 40  1  0
 42 41  2  0
 45 44  1  0
 47 45  1  0
 47 48  1  0
 47 46  1  0
 49 53  1  0
 50 52  1  0
 50 49  1  0
 51 49  2  0
 53 54  1  0
 54 56  1  0
 55 54  1  0
 57 54  1  0
 58  1  1  0
 58 61  1  0
 58 59  1  0
 60 59  1  0
 62 70  1  0
 63 68  1  0
 64 65  1  0
 64 63  1  0
 66 65  1  0
 66 75  1  0
 66 67  1  0
 68 62  1  0
 68 67  1  0
 69 62  2  0
 70 71  1  0
 70 61  1  0
 72 73  2  0
 73 74  1  0
 73 92  1  0
 74 77  1  0
 75 72  1  0
 75 76  1  0
 76 74  2  0
 77 78  1  0
 78 79  2  0
 80 83  1  0
 80 79  1  0
 81 80  2  0
 82 81  1  0
 82 77  2  0
 83 84  1  0
 84 85  1  0
 85 86  2  0
 87 86  1  0
 87 91  1  0
 88 87  2  0
 89 84  2  0
 89 88  1  0
 90 89  1  0
 92 93  1  0
 93 96  1  0
 93 95  1  0
 94 92  2  0
 97 98  1  0
 97 72  1  0
 99 97  1  0
M  ISO  4   7 101   8 101  62 100  70 100
M  END
>  <TORSDO>  (82) 
F 25

>  <SCORE>  (82) 
-12.540

>  <name>  (82) 
84

>  <ligand_id>  (82) 
84

>  <original_smiles>  (82) 
[H]OC([H])(C([H])([H])N([H])C(=O)N1C([H])([H])C([H])([H])C([H])([H])C([H])(n2nc(-c3c([H])c([H])c(Oc4c([H])c([H])c(F)c([H])c4F)c([H])c3[H])c(C(=O)N([H])[H])c2N([H])[H])C1([H])[H])C([H])(C(=O)N([H])C([H])([H])C([H])([H])Oc1c([H])c([H])c2c(c1[H])C([H])([H])N(C(=O)C([H])(N([H])C(=O)C([H])(N([H])C([H])([H])[H])C([H])([H])[H])C(C([H])([H])[H])(C([H])([H])[H])C([H])([H])[H])C([H])(C(=O)N([H])C1([H])c3c([H])c([H])c([H])c([H])c3C([H])([H])C([H])([H])C1([H])[H])C2([H])[H])N([H])C(=O)C([H])([H])[N+]([H])([H])[H]

>  <smiles>  (82) 
[H]OC([H])(C([H])([H])N([H])C(=O)N1C([H])([H])C([H])([H])C([H])([H])C([H])(n2nc(-c3c([H])c([H])c(Oc4c([H])c([H])c(F)c([H])c4F)c([H])c3[H])c(C(=O)N([H])[H])c2N([H])[H])C1([H])[H])C([H])(C(=O)N([H])C([H])([H])C([H])([H])Oc1c([H])c([H])c2c(c1[H])C([H])([H])N(C(=O)C([H])(N([H])C(=O)C([H])(N([H])C([H])([H])[H])C([H])([H])[H])C(C([H])([H])[H])(C([H])([H])[H])C([H])([H])[H])C([H])(C(=O)N([H])C1([H])c3c([H])c([H])c([H])c([H])c3C([H])([H])C([H])([H])C1([H])[H])C2([H])[H])N([H])C(=O)C([H])([H])[N+]([H])([H])[H]

$$$$
85:0:0
     RDKit          3D

 91 98  0  0  1  0  0  0  0  0999 V2000
  -28.4960  -21.8070   20.2590 C   0  0  0  0  0  0  0  0  0  0  0  0
  -28.5380  -22.9880   20.9140 N   0  0  0  0  0  0  0  0  0  0  0  0
  -28.1330  -21.7180   19.0830 O   0  0  0  0  0  0  0  0  0  0  0  0
  -28.9290  -22.9440   21.8470 H   0  0  0  0  0  0  0  0  0  0  0  0
  -28.8320  -20.5240   21.0750 C   0  0  0  0  0  2  0  0  0  0  0  0
  -29.2490  -18.0670   20.6440 C   0  0  0  0  0  0  0  0  0  0  0  0
  -29.4360  -19.3760   20.3520 N   0  0  0  0  0  0  0  0  0  0  0  0
  -28.4070  -17.6930   21.4640 O   0  0  0  0  0  0  0  0  0  0  0  0
  -30.1100  -19.6100   19.6370 H   0  0  0  0  0  0  0  0  0  0  0  0
  -30.1410  -17.0080   19.9510 C   0  0  0  0  0  2  0  0  0  0  0  0
  -30.6560  -14.5430   20.0410 C   0  0  0  0  0  0  0  0  0  0  0  0
  -30.3410  -12.3650   18.9340 C   0  0  0  0  0  2  0  0  0  0  0  0
  -29.3500  -12.5980   17.7740 C   0  0  0  0  0  2  0  0  0  0  0  0
  -27.8950  -12.4590   18.2670 C   0  0  0  0  0  2  0  0  0  0  0  0
  -27.6190  -13.2600   19.5680 C   0  0  0  0  0  3  0  0  0  0  0  0
  -28.7280  -13.0200   20.6180 C   0  0  0  0  0  2  0  0  0  0  0  0
  -30.0150  -13.3420   19.9860 N   0  0  0  0  0  0  0  0  0  0  0  0
  -31.7900  -14.7070   19.5830 O   0  0  0  0  0  0  0  0  0  0  0  0
  -29.8890  -15.6060   20.3700 N   0  0  0  0  0  0  0  0  0  0  0  0
  -28.9790  -15.4270   20.7710 H   0  0  0  0  0  0  0  0  0  0  0  0
  -25.2580  -13.8510   20.3980 C   0  0  0  0  0  0  0  0  0  0  0  0
  -24.2070  -13.0750   20.8070 C   0  0  0  0  0  0  0  0  0  0  0  0
  -24.6660  -11.7240   20.7350 C   0  0  0  0  0  0  0  0  0  0  0  0
  -26.2900  -12.9740   20.1060 N   0  0  0  0  0  0  0  0  0  0  0  0
  -25.9400  -11.6880   20.3650 N   0  0  0  0  0  0  0  0  0  0  0  0
  -23.9480  -10.4590   20.9420 C   0  0  0  0  0  0  0  0  0  0  0  0
  -24.3990   -9.4970   21.8720 C   0  0  0  0  0  3  0  0  0  0  0  0
  -23.6810   -8.2970   22.0670 C   0  0  0  0  0  3  0  0  0  0  0  0
  -22.4980   -8.0490   21.3290 C   0  0  0  0  0  0  0  0  0  0  0  0
  -22.0670   -9.0000   20.3880 C   0  0  0  0  0  3  0  0  0  0  0  0
  -22.7860  -10.1910   20.1930 C   0  0  0  0  0  3  0  0  0  0  0  0
  -21.7520   -6.9000   21.4320 O   0  0  0  0  0  0  0  0  0  0  0  0
  -21.6910   -6.1840   22.6000 C   0  0  0  0  0  0  0  0  0  0  0  0
  -21.2530   -6.7670   23.8090 C   0  0  0  0  0  3  0  0  0  0  0  0
  -21.1400   -5.9740   24.9700 C   0  0  0  0  0  3  0  0  0  0  0  0
  -21.4540   -4.6040   24.9240 C   0  0  0  0  0  0  0  0  0  0  0  0
  -21.8870   -4.0230   23.7190 C   0  0  0  0  0  3  0  0  0  0  0  0
  -22.0020   -4.8110   22.5610 C   0  0  0  0  0  0  0  0  0  0  0  0
  -22.3980   -4.2410   21.3970 F   0  0  0  0  0  0  0  0  0  0  0  0
  -21.3380   -3.8420   26.0360 F   0  0  0  0  0  0  0  0  0  0  0  0
  -22.8260  -13.5510   21.1500 C   0  0  0  0  0  0  0  0  0  0  0  0
  -22.1380  -12.8460   22.0430 N   0  0  0  0  0  0  0  0  0  0  0  0
  -22.3640  -14.5830   20.6640 O   0  0  0  0  0  0  0  0  0  0  0  0
  -22.5230  -12.0130   22.4610 H   0  0  0  0  0  0  0  0  0  0  0  0
  -21.2130  -13.1480   22.3150 H   0  0  0  0  0  0  0  0  0  0  0  0
  -25.4140  -15.2240   20.2320 N   0  0  0  0  0  0  0  0  0  0  0  0
  -24.6560  -15.8770   20.3890 H   0  0  0  0  0  0  0  0  0  0  0  0
  -26.2530  -15.6700   19.8860 H   0  0  0  0  0  0  0  0  0  0  0  0
  -27.8310  -24.2590   20.6120 C   0  0  0  0  0  2  0  0  0  0  0  0
  -28.5580  -25.3200   19.7270 C   0  0  0  0  0  2  0  0  0  0  0  0
  -28.4480  -26.6950   20.1850 O   0  0  0  0  0  0  0  0  0  0  0  0
  -24.6030  -31.8790   23.2260 C   0  0  0  0  0  0  0  0  0  0  0  0
  -27.2540  -27.4030   20.1490 C   0  0  0  0  0  0  0  0  0  0  0  0
  -23.3970  -30.4710   21.5870 C   0  0  0  0  0  3  0  0  0  0  0  0
  -24.8510  -28.9220   20.1670 C   0  0  0  0  0  0  0  0  0  0  0  0
  -25.9240  -30.8230   21.3880 C   0  0  0  0  0  2  0  0  0  0  0  0
  -26.0090  -29.4460   20.7540 C   0  0  0  0  0  0  0  0  0  0  0  0
  -27.2080  -28.6930   20.7410 C   0  0  0  0  0  3  0  0  0  0  0  0
  -26.0770  -26.9040   19.5490 C   0  0  0  0  0  3  0  0  0  0  0  0
  -24.8810  -27.6510   19.5650 C   0  0  0  0  0  3  0  0  0  0  0  0
  -23.6060  -29.7810   20.2110 C   0  0  0  0  0  2  0  0  0  0  0  0
  -24.6600  -31.0740   22.1250 N   0  0  0  0  0  0  0  0  0  0  0  0
  -23.5190  -32.1530   23.7650 O   0  0  0  0  0  0  0  0  0  0  0  0
  -22.7440  -29.4580   22.5530 C   0  0  0  0  0  0  0  0  0  0  0  0
  -21.4220  -29.2630   22.4170 N   0  0  0  0  0  0  0  0  0  0  0  0
  -23.4250  -28.8460   23.3800 O   0  0  0  0  0  0  0  0  0  0  0  0
  -20.9340  -29.8020   21.7150 H   0  0  0  0  0  0  0  0  0  0  0  0
  -18.0620  -28.0210   22.8780 C   0  0  0  0  0  0  0  0  0  0  0  0
  -20.6090  -28.3250   23.1890 C   0  0  0  0  0  3  0  0  0  0  0  0
  -20.7450  -26.8880   22.6360 C   0  0  0  0  0  2  0  0  0  0  0  0
  -19.6680  -26.5310   21.6080 C   0  0  0  0  0  2  0  0  0  0  0  0
  -18.2720  -26.6650   22.2250 C   0  0  0  0  0  2  0  0  0  0  0  0
  -19.1610  -28.8070   23.3160 C   0  0  0  0  0  0  0  0  0  0  0  0
  -18.9130  -30.0750   23.8850 C   0  0  0  0  0  3  0  0  0  0  0  0
  -17.5990  -30.5580   24.0230 C   0  0  0  0  0  3  0  0  0  0  0  0
  -16.5130  -29.7700   23.6020 C   0  0  0  0  0  3  0  0  0  0  0  0
  -16.7460  -28.5030   23.0350 C   0  0  0  0  0  3  0  0  0  0  0  0
  -25.8870  -32.5140   23.8440 C   0  0  0  0  0  3  0  0  0  0  0  0
  -25.5770  -33.9120   24.1720 N   0  0  0  0  0  0  0  0  0  0  0  0
  -25.9100  -34.9650   23.4130 C   0  0  0  0  0  0  0  0  0  0  0  0
  -26.5820  -34.8610   22.3830 O   0  0  0  0  0  0  0  0  0  0  0  0
  -24.9820  -34.0670   24.9730 H   0  0  0  0  0  0  0  0  0  0  0  0
  -24.1820  -36.7560   23.0520 C   0  0  0  0  0  1  0  0  0  0  0  0
  -25.4200  -36.3530   23.8680 C   0  0  0  0  0  3  0  0  0  0  0  0
  -27.5520  -37.2400   24.7040 C   0  0  0  0  0  1  0  0  0  0  0  0
  -26.4520  -37.4070   23.7570 N   0  0  0  0  0  0  0  0  0  0  0  0
  -26.0440  -38.3260   23.9030 H   0  0  0  0  0  0  0  0  0  0  0  0
  -26.4090  -31.7450   25.1190 C   0  0  1  0  0  0  0  0  0  0  0  0
  -25.3220  -31.5040   26.1930 C   0  0  0  0  0  1  0  0  0  0  0  0
  -26.9940  -30.3690   24.7240 C   0  0  0  0  0  1  0  0  0  0  0  0
  -27.5580  -32.5440   25.7780 C   0  0  0  0  0  1  0  0  0  0  0  0
  1  2  1  0
  1  5  1  0
  2  4  1  0
  3  1  2  0
  6  8  2  0
  7  6  1  0
  7  5  1  0
  9  7  1  0
 10 19  1  0
 10  6  1  0
 11 19  1  0
 12 17  1  0
 13 14  1  0
 13 12  1  0
 15 14  1  0
 15 24  1  0
 15 16  1  0
 17 11  1  0
 17 16  1  0
 18 11  2  0
 19 20  1  0
 21 22  2  0
 22 41  1  0
 23 22  1  0
 23 26  1  0
 24 25  1  0
 24 21  1  0
 25 23  2  0
 26 27  1  0
 27 28  2  0
 29 32  1  0
 29 28  1  0
 30 29  2  0
 31 30  1  0
 31 26  2  0
 32 33  1  0
 33 34  1  0
 34 35  2  0
 36 35  1  0
 36 40  1  0
 37 36  2  0
 38 33  2  0
 38 37  1  0
 39 38  1  0
 41 42  1  0
 42 45  1  0
 42 44  1  0
 43 41  2  0
 46 47  1  0
 46 21  1  0
 48 46  1  0
 49  2  1  0
 50 51  1  0
 50 49  1  0
 52 63  2  0
 53 51  1  0
 53 58  1  0
 54 62  1  0
 54 64  1  0
 55 61  1  0
 55 57  1  0
 56 62  1  0
 57 56  1  0
 58 57  2  0
 59 60  1  0
 59 53  2  0
 60 55  2  0
 61 54  1  0
 62 52  1  0
 64 66  2  0
 65 64  1  0
 67 65  1  0
 68 77  2  0
 68 73  1  0
 69 65  1  0
 69 73  1  0
 70 69  1  0
 71 72  1  0
 71 70  1  0
 72 68  1  0
 73 74  2  0
 74 75  1  0
 76 75  2  0
 77 76  1  0
 78 52  1  0
 78 79  1  0
 78 88  1  0
 79 82  1  0
 80 84  1  0
 80 79  1  0
 81 80  2  0
 84 83  1  0
 86 84  1  0
 86 87  1  0
 86 85  1  0
 88 91  1  1
 88 89  1  0
 90 88  1  0
M  ISO  4  11 100  19 100  50 101  51 101
M  END
>  <TORSDO>  (83) 
F 21

>  <SCORE>  (83) 
-12.796

>  <name>  (83) 
85

>  <ligand_id>  (83) 
85

>  <original_smiles>  (83) 
[H]c1c([H])c([H])c2c(c1[H])C([H])([H])C([H])([H])C([H])([H])C2([H])N([H])C(=O)C1([H])N(C(=O)C([H])(N([H])C(=O)C([H])(N([H])C([H])([H])[H])C([H])([H])[H])C(C([H])([H])[H])(C([H])([H])[H])C([H])([H])[H])C([H])([H])c2c([H])c(OC([H])([H])C([H])([H])N([H])C(=O)C([H])([H])N([H])C(=O)C([H])([H])N([H])C(=O)N3C([H])([H])C([H])([H])C([H])([H])C([H])(n4nc(-c5c([H])c([H])c(Oc6c([H])c([H])c(F)c([H])c6F)c([H])c5[H])c(C(=O)N([H])[H])c4N([H])[H])C3([H])[H])c([H])c([H])c2C1([H])[H]

>  <smiles>  (83) 
[H]c1c([H])c([H])c2c(c1[H])C([H])([H])C([H])([H])C([H])([H])C2([H])N([H])C(=O)C1([H])N(C(=O)C([H])(N([H])C(=O)C([H])(N([H])C([H])([H])[H])C([H])([H])[H])C(C([H])([H])[H])(C([H])([H])[H])C([H])([H])[H])C([H])([H])c2c([H])c(OC([H])([H])C([H])([H])N([H])C(=O)C([H])([H])N([H])C(=O)C([H])([H])N([H])C(=O)N3C([H])([H])C([H])([H])C([H])([H])C([H])(n4nc(-c5c([H])c([H])c(Oc6c([H])c([H])c(F)c([H])c6F)c([H])c5[H])c(C(=O)N([H])[H])c4N([H])[H])C3([H])[H])c([H])c([H])c2C1([H])[H]

$$$$
86:0:0
     RDKit          3D

 92100  0  0  1  0  0  0  0  0999 V2000
  -29.3580  -24.1030   19.9740 C   0  0  0  0  0  0  0  0  0  0  0  0
  -29.2180  -18.2710   20.4820 C   0  0  0  0  0  0  0  0  0  0  0  0
  -30.5330  -21.8660   19.9530 C   0  0  0  0  0  3  0  0  0  0  0  0
  -28.4310  -22.0230   21.1280 C   0  0  0  0  0  3  0  0  0  0  0  0
  -30.2020  -20.4130   19.4610 C   0  0  0  0  0  3  0  0  0  0  0  0
  -28.1350  -20.5200   20.7620 C   0  0  0  0  0  3  0  0  0  0  0  0
  -29.3650  -22.7380   20.2400 N   0  0  0  0  0  0  0  0  0  0  0  0
  -29.2620  -19.6540   20.3090 N   0  0  0  0  0  0  0  0  0  0  0  0
  -30.2900  -24.6200   19.3480 O   0  0  0  0  0  0  0  0  0  0  0  0
  -28.3360  -17.7680   21.1840 O   0  0  0  0  0  0  0  0  0  0  0  0
  -30.0470  -17.2340   18.2640 C   0  0  0  0  0  1  0  0  0  0  0  0
  -30.1960  -17.2270   19.8040 C   0  0  0  0  0  3  0  0  0  0  0  0
  -30.7880  -14.7000   19.9840 C   0  0  0  0  0  0  0  0  0  0  0  0
  -30.5150  -12.4700   18.9370 C   0  0  0  0  0  2  0  0  0  0  0  0
  -29.5060  -12.6110   17.7750 C   0  0  0  0  0  2  0  0  0  0  0  0
  -28.0620  -12.4380   18.2840 C   0  0  0  0  0  2  0  0  0  0  0  0
  -27.7700  -13.2810   19.5550 C   0  0  0  0  0  3  0  0  0  0  0  0
  -28.8930  -13.1390   20.6070 C   0  0  0  0  0  2  0  0  0  0  0  0
  -30.1640  -13.4820   19.9530 N   0  0  0  0  0  0  0  0  0  0  0  0
  -31.9300  -14.8410   19.5410 O   0  0  0  0  0  0  0  0  0  0  0  0
  -30.0100  -15.7940   20.2590 N   0  0  0  0  0  0  0  0  0  0  0  0
  -29.1100  -15.6050   20.6770 H   0  0  0  0  0  0  0  0  0  0  0  0
  -25.4290  -13.8450   20.4460 C   0  0  0  0  0  0  0  0  0  0  0  0
  -24.3880  -13.0570   20.8560 C   0  0  0  0  0  0  0  0  0  0  0  0
  -24.8480  -11.7090   20.7490 C   0  0  0  0  0  0  0  0  0  0  0  0
  -26.4560  -12.9760   20.1150 N   0  0  0  0  0  0  0  0  0  0  0  0
  -26.1160  -11.6840   20.3580 N   0  0  0  0  0  0  0  0  0  0  0  0
  -24.1350  -10.4390   20.9420 C   0  0  0  0  0  0  0  0  0  0  0  0
  -24.5720   -9.4810   21.8850 C   0  0  0  0  0  3  0  0  0  0  0  0
  -23.8580   -8.2770   22.0640 C   0  0  0  0  0  3  0  0  0  0  0  0
  -22.6950   -8.0200   21.2990 C   0  0  0  0  0  0  0  0  0  0  0  0
  -22.2780   -8.9650   20.3460 C   0  0  0  0  0  3  0  0  0  0  0  0
  -22.9920  -10.1620   20.1660 C   0  0  0  0  0  3  0  0  0  0  0  0
  -21.9540   -6.8660   21.3870 O   0  0  0  0  0  0  0  0  0  0  0  0
  -21.8290   -6.1780   22.5660 C   0  0  0  0  0  0  0  0  0  0  0  0
  -21.3000   -6.7810   23.7290 C   0  0  0  0  0  3  0  0  0  0  0  0
  -21.1240   -6.0170   24.9000 C   0  0  0  0  0  3  0  0  0  0  0  0
  -21.4680   -4.6520   24.9100 C   0  0  0  0  0  0  0  0  0  0  0  0
  -21.9890   -4.0480   23.7520 C   0  0  0  0  0  3  0  0  0  0  0  0
  -22.1660   -4.8090   22.5830 C   0  0  0  0  0  0  0  0  0  0  0  0
  -22.6480   -4.2170   21.4640 F   0  0  0  0  0  0  0  0  0  0  0  0
  -21.2920   -3.9160   26.0330 F   0  0  0  0  0  0  0  0  0  0  0  0
  -23.0110  -13.5210   21.2350 C   0  0  0  0  0  0  0  0  0  0  0  0
  -22.3420  -12.7960   22.1240 N   0  0  0  0  0  0  0  0  0  0  0  0
  -22.5400  -14.5630   20.7800 O   0  0  0  0  0  0  0  0  0  0  0  0
  -22.7360  -11.9520   22.5130 H   0  0  0  0  0  0  0  0  0  0  0  0
  -21.4230  -13.0920   22.4230 H   0  0  0  0  0  0  0  0  0  0  0  0
  -25.5830  -15.2210   20.3070 N   0  0  0  0  0  0  0  0  0  0  0  0
  -24.8270  -15.8750   20.4860 H   0  0  0  0  0  0  0  0  0  0  0  0
  -26.4230  -15.6740   19.9690 H   0  0  0  0  0  0  0  0  0  0  0  0
  -28.1970  -25.0700   20.4350 C   0  0  0  0  0  2  0  0  0  0  0  0
  -28.3940  -26.5110   20.1070 O   0  0  0  0  0  0  0  0  0  0  0  0
  -24.6300  -31.8540   23.1830 C   0  0  0  0  0  0  0  0  0  0  0  0
  -27.2660  -27.3430   20.0910 C   0  0  0  0  0  0  0  0  0  0  0  0
  -23.4330  -30.4670   21.5250 C   0  0  0  0  0  3  0  0  0  0  0  0
  -24.8910  -28.9370   20.0880 C   0  0  0  0  0  0  0  0  0  0  0  0
  -25.9690  -30.8010   21.3460 C   0  0  0  0  0  2  0  0  0  0  0  0
  -26.0560  -29.4290   20.6910 C   0  0  0  0  0  0  0  0  0  0  0  0
  -27.2480  -28.6440   20.6800 C   0  0  0  0  0  3  0  0  0  0  0  0
  -26.0810  -26.9070   19.4570 C   0  0  0  0  0  3  0  0  0  0  0  0
  -24.9050  -27.6810   19.4610 C   0  0  0  0  0  3  0  0  0  0  0  0
  -23.6510  -29.8050   20.1390 C   0  0  0  0  0  2  0  0  0  0  0  0
  -24.6970  -31.0570   22.0760 N   0  0  0  0  0  0  0  0  0  0  0  0
  -23.5460  -32.1230   23.7190 O   0  0  0  0  0  0  0  0  0  0  0  0
  -22.7730  -29.4400   22.4740 C   0  0  0  0  0  0  0  0  0  0  0  0
  -21.4460  -29.2650   22.3480 N   0  0  0  0  0  0  0  0  0  0  0  0
  -23.4520  -28.8030   23.2840 O   0  0  0  0  0  0  0  0  0  0  0  0
  -20.9580  -29.8310   21.6680 H   0  0  0  0  0  0  0  0  0  0  0  0
  -18.0670  -28.0770   22.8480 C   0  0  0  0  0  0  0  0  0  0  0  0
  -20.6280  -28.3200   23.1090 C   0  0  0  0  0  3  0  0  0  0  0  0
  -20.7190  -26.8970   22.5120 C   0  0  0  0  0  2  0  0  0  0  0  0
  -19.6120  -26.5940   21.4980 C   0  0  0  0  0  2  0  0  0  0  0  0
  -18.2340  -26.7360   22.1510 C   0  0  0  0  0  2  0  0  0  0  0  0
  -19.1910  -28.8270   23.2840 C   0  0  0  0  0  0  0  0  0  0  0  0
  -18.9810  -30.0810   23.8960 C   0  0  0  0  0  3  0  0  0  0  0  0
  -17.6800  -30.5850   24.0780 C   0  0  0  0  0  3  0  0  0  0  0  0
  -16.5700  -29.8310   23.6580 C   0  0  0  0  0  3  0  0  0  0  0  0
  -16.7640  -28.5790   23.0490 C   0  0  0  0  0  3  0  0  0  0  0  0
  -25.9120  -32.4820   23.8120 C   0  0  0  0  0  3  0  0  0  0  0  0
  -25.6020  -33.8780   24.1540 N   0  0  0  0  0  0  0  0  0  0  0  0
  -25.9370  -34.9370   23.4050 C   0  0  0  0  0  0  0  0  0  0  0  0
  -26.6100  -34.8420   22.3750 O   0  0  0  0  0  0  0  0  0  0  0  0
  -25.0050  -34.0250   24.9540 H   0  0  0  0  0  0  0  0  0  0  0  0
  -24.2130  -36.7340   23.0540 C   0  0  0  0  0  1  0  0  0  0  0  0
  -25.4480  -36.3210   23.8720 C   0  0  0  0  0  3  0  0  0  0  0  0
  -27.5760  -37.1970   24.7270 C   0  0  0  0  0  1  0  0  0  0  0  0
  -26.4830  -37.3740   23.7750 N   0  0  0  0  0  0  0  0  0  0  0  0
  -26.0760  -38.2940   23.9270 H   0  0  0  0  0  0  0  0  0  0  0  0
  -26.4260  -31.7010   25.0840 C   0  0  1  0  0  0  0  0  0  0  0  0
  -25.3310  -31.4530   26.1480 C   0  0  0  0  0  1  0  0  0  0  0  0
  -27.0110  -30.3270   24.6810 C   0  0  0  0  0  1  0  0  0  0  0  0
  -27.5750  -32.4900   25.7530 C   0  0  0  0  0  1  0  0  0  0  0  0
  1  7  1  0
  1 51  1  0
  2 10  2  0
  3  7  1  0
  5  3  2  0
  5  8  1  0
  6  4  2  0
  7  4  1  0
  8  2  1  0
  8  6  1  0
  9  1  2  0
 12 11  1  0
 12 21  1  0
 12  2  1  0
 13 21  1  0
 14 19  1  0
 15 16  1  0
 15 14  1  0
 17 16  1  0
 17 26  1  0
 17 18  1  0
 19 13  1  0
 19 18  1  0
 20 13  2  0
 21 22  1  0
 23 24  2  0
 24 43  1  0
 25 24  1  0
 25 28  1  0
 26 27  1  0
 26 23  1  0
 27 25  2  0
 28 29  1  0
 29 30  2  0
 31 34  1  0
 31 30  1  0
 32 31  2  0
 33 32  1  0
 33 28  2  0
 34 35  1  0
 35 40  2  0
 35 36  1  0
 36 37  2  0
 37 38  1  0
 38 42  1  0
 39 38  2  0
 40 39  1  0
 41 40  1  0
 43 44  1  0
 44 47  1  0
 44 46  1  0
 45 43  2  0
 48 23  1  0
 48 49  1  0
 50 48  1  0
 52 51  1  0
 53 64  2  0
 54 52  1  0
 54 59  1  0
 55 63  1  0
 55 65  1  0
 56 62  1  0
 56 58  1  0
 57 63  1  0
 58 57  1  0
 59 58  2  0
 60 61  1  0
 60 54  2  0
 61 56  2  0
 62 55  1  0
 63 53  1  0
 65 67  2  0
 66 65  1  0
 68 66  1  0
 69 78  2  0
 69 74  1  0
 70 66  1  0
 70 74  1  0
 71 70  1  0
 72 73  1  0
 72 71  1  0
 73 69  1  0
 74 75  2  0
 75 76  1  0
 77 76  2  0
 78 77  1  0
 79 53  1  0
 79 80  1  0
 79 89  1  0
 80 83  1  0
 81 85  1  0
 81 80  1  0
 82 81  2  0
 85 84  1  0
 87 85  1  0
 87 88  1  0
 87 86  1  0
 89 92  1  1
 89 90  1  0
 91 89  1  0
M  ISO  4  13 100  21 100  51 101  52 101
M  END
>  <TORSDO>  (84) 
F 18

>  <SCORE>  (84) 
-14.039

>  <name>  (84) 
86

>  <ligand_id>  (84) 
86

>  <original_smiles>  (84) 
[H]c1c([H])c([H])c2c(c1[H])C([H])([H])C([H])([H])C([H])([H])C2([H])N([H])C(=O)C1([H])N(C(=O)C([H])(N([H])C(=O)C([H])(N([H])C([H])([H])[H])C([H])([H])[H])C(C([H])([H])[H])(C([H])([H])[H])C([H])([H])[H])C([H])([H])c2c([H])c(OC([H])([H])C(=O)N3C([H])([H])C([H])([H])N(C(=O)C([H])(N([H])C(=O)N4C([H])([H])C([H])([H])C([H])([H])C([H])(n5nc(-c6c([H])c([H])c(Oc7c([H])c([H])c(F)c([H])c7F)c([H])c6[H])c(C(=O)N([H])[H])c5N([H])[H])C4([H])[H])C([H])([H])[H])C([H])([H])C3([H])[H])c([H])c([H])c2C1([H])[H]

>  <smiles>  (84) 
[H]c1c([H])c([H])c2c(c1[H])C([H])([H])C([H])([H])C([H])([H])C2([H])N([H])C(=O)C1([H])N(C(=O)C([H])(N([H])C(=O)C([H])(N([H])C([H])([H])[H])C([H])([H])[H])C(C([H])([H])[H])(C([H])([H])[H])C([H])([H])[H])C([H])([H])c2c([H])c(OC([H])([H])C(=O)N3C([H])([H])C([H])([H])N(C(=O)C([H])(N([H])C(=O)N4C([H])([H])C([H])([H])C([H])([H])C([H])(n5nc(-c6c([H])c([H])c(Oc7c([H])c([H])c(F)c([H])c7F)c([H])c6[H])c(C(=O)N([H])[H])c5N([H])[H])C4([H])[H])C([H])([H])[H])C([H])([H])C3([H])[H])c([H])c([H])c2C1([H])[H]

$$$$
87:0:0
     RDKit          3D

 97104  0  0  1  0  0  0  0  0999 V2000
  -28.7730  -21.5170   19.9290 C   0  0  0  0  0  3  0  0  0  0  0  0
  -29.9420  -20.6390   20.4700 C   0  0  0  0  0  0  0  0  0  0  0  0
  -30.1400  -19.4140   19.9330 N   0  0  0  0  0  0  0  0  0  0  0  0
  -30.6370  -21.0600   21.3990 O   0  0  0  0  0  0  0  0  0  0  0  0
  -29.5010  -19.1280   19.2040 H   0  0  0  0  0  0  0  0  0  0  0  0
  -30.9120  -18.3060   20.5390 C   0  0  0  0  0  3  0  0  0  0  0  0
  -30.1600  -17.9060   21.8260 C   0  0  0  0  0  0  0  0  0  0  0  0
  -28.9520  -17.6030   21.7260 O   0  0  0  0  0  0  0  0  0  0  0  0
  -30.7690  -17.9290   22.9150 O   0  0  0  0  0  1  0  0  0  0  0  0
  -31.0550  -17.1040   19.5280 C   0  0  0  0  0  2  0  0  0  0  0  0
  -31.5020  -14.6240   19.6690 C   0  0  0  0  0  0  0  0  0  0  0  0
  -31.0970  -12.3840   18.7350 C   0  0  0  0  0  2  0  0  0  0  0  0
  -30.1090  -12.5310   17.5590 C   0  0  0  0  0  2  0  0  0  0  0  0
  -28.6550  -12.4700   18.0630 C   0  0  0  0  0  2  0  0  0  0  0  0
  -28.4000  -13.4200   19.2640 C   0  0  0  0  0  3  0  0  0  0  0  0
  -29.4960  -13.2510   20.3420 C   0  0  0  0  0  2  0  0  0  0  0  0
  -30.8020  -13.4570   19.6980 N   0  0  0  0  0  0  0  0  0  0  0  0
  -32.6210  -14.7190   19.1580 O   0  0  0  0  0  0  0  0  0  0  0  0
  -30.8050  -15.7240   20.0210 N   0  0  0  0  0  0  0  0  0  0  0  0
  -29.8950  -15.5490   20.4240 H   0  0  0  0  0  0  0  0  0  0  0  0
  -26.0870  -14.1780   20.0980 C   0  0  0  0  0  0  0  0  0  0  0  0
  -24.9910  -13.4750   20.5220 C   0  0  0  0  0  0  0  0  0  0  0  0
  -25.3650  -12.0970   20.4780 C   0  0  0  0  0  0  0  0  0  0  0  0
  -27.0620  -13.2320   19.8200 N   0  0  0  0  0  0  0  0  0  0  0  0
  -26.6330  -11.9750   20.1040 N   0  0  0  0  0  0  0  0  0  0  0  0
  -24.5720  -10.8840   20.7190 C   0  0  0  0  0  0  0  0  0  0  0  0
  -24.9290   -9.9550   21.7210 C   0  0  0  0  0  3  0  0  0  0  0  0
  -24.1410   -8.8070   21.9450 C   0  0  0  0  0  3  0  0  0  0  0  0
  -22.9800   -8.5790   21.1670 C   0  0  0  0  0  0  0  0  0  0  0  0
  -22.6420   -9.4960   20.1560 C   0  0  0  0  0  3  0  0  0  0  0  0
  -23.4310  -10.6370   19.9300 C   0  0  0  0  0  3  0  0  0  0  0  0
  -22.1690   -7.4780   21.2960 O   0  0  0  0  0  0  0  0  0  0  0  0
  -21.9690   -6.8690   22.5080 C   0  0  0  0  0  0  0  0  0  0  0  0
  -21.4770   -7.5790   23.6260 C   0  0  0  0  0  3  0  0  0  0  0  0
  -21.2190   -6.9010   24.8330 C   0  0  0  0  0  3  0  0  0  0  0  0
  -21.4440   -5.5140   24.9250 C   0  0  0  0  0  0  0  0  0  0  0  0
  -21.9290   -4.8050   23.8120 C   0  0  0  0  0  3  0  0  0  0  0  0
  -22.1890   -5.4800   22.6070 C   0  0  0  0  0  0  0  0  0  0  0  0
  -22.6360   -4.7890   21.5310 F   0  0  0  0  0  0  0  0  0  0  0  0
  -21.1880   -4.8600   26.0820 F   0  0  0  0  0  0  0  0  0  0  0  0
  -23.6450  -14.0410   20.8730 C   0  0  0  0  0  0  0  0  0  0  0  0
  -22.9510  -13.4270   21.8230 N   0  0  0  0  0  0  0  0  0  0  0  0
  -23.2240  -15.0660   20.3380 O   0  0  0  0  0  0  0  0  0  0  0  0
  -23.3090  -12.5990   22.2770 H   0  0  0  0  0  0  0  0  0  0  0  0
  -22.0520  -13.7900   22.1050 H   0  0  0  0  0  0  0  0  0  0  0  0
  -26.3260  -15.5360   19.9200 N   0  0  0  0  0  0  0  0  0  0  0  0
  -25.6170  -16.2090   20.1920 H   0  0  0  0  0  0  0  0  0  0  0  0
  -27.2540  -15.9590   19.9490 H   0  0  0  0  0  0  0  0  0  0  0  0
  -28.5230  -24.0460   19.7790 C   0  0  0  0  0  0  0  0  0  0  0  0
  -28.8070  -22.9050   20.4450 N   0  0  0  0  0  0  0  0  0  0  0  0
  -28.3200  -24.0600   18.5630 O   0  0  0  0  0  0  0  0  0  0  0  0
  -29.0220  -22.9820   21.4300 H   0  0  0  0  0  0  0  0  0  0  0  0
  -28.4520  -25.3570   20.6040 C   0  0  0  0  0  2  0  0  0  0  0  0
  -28.4230  -26.5550   19.7920 O   0  0  0  0  0  0  0  0  0  0  0  0
  -24.7600  -31.7280   23.1010 C   0  0  0  0  0  0  0  0  0  0  0  0
  -27.2700  -27.3090   19.8660 C   0  0  0  0  0  0  0  0  0  0  0  0
  -23.4930  -30.3690   21.4670 C   0  0  0  0  0  3  0  0  0  0  0  0
  -24.8920  -28.8410   19.9750 C   0  0  0  0  0  0  0  0  0  0  0  0
  -26.0170  -30.7050   21.2040 C   0  0  0  0  0  2  0  0  0  0  0  0
  -26.0720  -29.3440   20.5360 C   0  0  0  0  0  0  0  0  0  0  0  0
  -27.2680  -28.5890   20.4700 C   0  0  0  0  0  3  0  0  0  0  0  0
  -26.0720  -26.8170   19.3080 C   0  0  0  0  0  3  0  0  0  0  0  0
  -24.8860  -27.5760   19.3580 C   0  0  0  0  0  3  0  0  0  0  0  0
  -23.6580  -29.7110   20.0710 C   0  0  0  0  0  2  0  0  0  0  0  0
  -24.7770  -30.9500   21.9810 N   0  0  0  0  0  0  0  0  0  0  0  0
  -23.6970  -31.9990   23.6770 O   0  0  0  0  0  0  0  0  0  0  0  0
  -22.8570  -29.3390   22.4280 C   0  0  0  0  0  0  0  0  0  0  0  0
  -21.5280  -29.1690   22.3300 N   0  0  0  0  0  0  0  0  0  0  0  0
  -23.5560  -28.6950   23.2160 O   0  0  0  0  0  0  0  0  0  0  0  0
  -21.0270  -29.7390   21.6640 H   0  0  0  0  0  0  0  0  0  0  0  0
  -18.1630  -27.9680   22.8730 C   0  0  0  0  0  0  0  0  0  0  0  0
  -20.7250  -28.2190   23.1020 C   0  0  0  0  0  3  0  0  0  0  0  0
  -20.8170  -26.7960   22.5060 C   0  0  0  0  0  2  0  0  0  0  0  0
  -19.6970  -26.4840   21.5090 C   0  0  0  0  0  2  0  0  0  0  0  0
  -18.3270  -26.6260   22.1780 C   0  0  0  0  0  2  0  0  0  0  0  0
  -19.2910  -28.7230   23.2920 C   0  0  0  0  0  0  0  0  0  0  0  0
  -19.0840  -29.9790   23.9020 C   0  0  0  0  0  3  0  0  0  0  0  0
  -17.7830  -30.4800   24.0960 C   0  0  0  0  0  3  0  0  0  0  0  0
  -16.6700  -29.7200   23.6950 C   0  0  0  0  0  3  0  0  0  0  0  0
  -16.8620  -28.4660   23.0890 C   0  0  0  0  0  3  0  0  0  0  0  0
  -26.0690  -32.3360   23.6950 C   0  0  0  0  0  3  0  0  0  0  0  0
  -25.7660  -33.7090   24.1180 N   0  0  0  0  0  0  0  0  0  0  0  0
  -26.0700  -34.8070   23.4130 C   0  0  0  0  0  0  0  0  0  0  0  0
  -26.7060  -34.7710   22.3560 O   0  0  0  0  0  0  0  0  0  0  0  0
  -25.1940  -33.8110   24.9440 H   0  0  0  0  0  0  0  0  0  0  0  0
  -24.3320  -36.6150   23.2140 C   0  0  0  0  0  1  0  0  0  0  0  0
  -25.5920  -36.1630   23.9700 C   0  0  0  0  0  3  0  0  0  0  0  0
  -27.7450  -36.9970   24.8050 C   0  0  0  0  0  1  0  0  0  0  0  0
  -26.6210  -37.2230   23.9000 N   0  0  0  0  0  0  0  0  0  0  0  0
  -26.2190  -38.1310   24.1140 H   0  0  0  0  0  0  0  0  0  0  0  0
  -26.6530  -31.4970   24.8970 C   0  0  1  0  0  0  0  0  0  0  0  0
  -25.6140  -31.1740   25.9940 C   0  0  0  0  0  1  0  0  0  0  0  0
  -27.2400  -30.1570   24.3930 C   0  0  0  0  0  1  0  0  0  0  0  0
  -27.8200  -32.2690   25.5560 C   0  0  0  0  0  1  0  0  0  0  0  0
  -27.3970  -20.8830   20.2620 C   0  0  0  0  0  2  0  0  0  0  0  0
  -26.3090  -21.5660   19.6560 O   0  0  0  0  0  0  0  0  0  0  0  0
  -26.4860  -21.6300   18.7210 H   0  0  0  0  0  0  0  0  0  0  0  0
  1 95  1  0
  1 50  1  0
  1  2  1  0
  2  4  2  0
  3  2  1  0
  3  6  1  0
  5  3  1  0
  6 10  1  0
  6  7  1  0
  7  9  1  0
  8  7  2  0
 10 19  1  0
 11 17  1  0
 11 19  1  0
 12 17  1  0
 13 14  1  0
 13 12  1  0
 15 14  1  0
 15 24  1  0
 15 16  1  0
 17 16  1  0
 18 11  2  0
 19 20  1  0
 21 22  2  0
 22 41  1  0
 23 22  1  0
 23 26  1  0
 24 21  1  0
 24 25  1  0
 25 23  2  0
 26 27  1  0
 27 28  2  0
 29 32  1  0
 29 28  1  0
 30 29  2  0
 31 30  1  0
 31 26  2  0
 32 33  1  0
 33 38  2  0
 33 34  1  0
 34 35  2  0
 35 36  1  0
 36 40  1  0
 37 36  2  0
 38 37  1  0
 39 38  1  0
 41 42  1  0
 42 45  1  0
 42 44  1  0
 43 41  2  0
 46 48  1  0
 46 21  1  0
 46 47  1  0
 49 50  1  0
 49 53  1  0
 50 52  1  0
 51 49  2  0
 54 56  1  0
 54 53  1  0
 55 66  2  0
 56 61  1  0
 57 65  1  0
 57 67  1  0
 58 64  1  0
 58 60  1  0
 59 65  1  0
 60 59  1  0
 61 60  2  0
 62 63  1  0
 62 56  2  0
 63 58  2  0
 64 57  1  0
 65 55  1  0
 67 69  2  0
 68 67  1  0
 70 68  1  0
 71 80  2  0
 71 76  1  0
 72 68  1  0
 72 76  1  0
 73 72  1  0
 74 75  1  0
 74 73  1  0
 75 71  1  0
 76 77  2  0
 77 78  1  0
 79 78  2  0
 80 79  1  0
 81 55  1  0
 81 82  1  0
 81 91  1  0
 82 85  1  0
 83 87  1  0
 83 82  1  0
 84 83  2  0
 87 86  1  0
 89 87  1  0
 89 90  1  0
 89 88  1  0
 91 94  1  1
 91 92  1  0
 93 91  1  0
 96 95  1  0
 97 96  1  0
M  ISO  4  11 100  19 100  53 101  54 101
M  END
>  <TORSDO>  (85) 
F 24

>  <SCORE>  (85) 
-10.545

>  <name>  (85) 
87

>  <ligand_id>  (85) 
87

>  <original_smiles>  (85) 
[H]OC([H])([H])C([H])(C(=O)N([H])C([H])(C(=O)[O-])C([H])([H])N([H])C(=O)N1C([H])([H])C([H])([H])C([H])([H])C([H])(n2nc(-c3c([H])c([H])c(Oc4c([H])c([H])c(F)c([H])c4F)c([H])c3[H])c(C(=O)N([H])[H])c2N([H])[H])C1([H])[H])N([H])C(=O)C([H])([H])Oc1c([H])c([H])c2c(c1[H])C([H])([H])N(C(=O)C([H])(N([H])C(=O)C([H])(N([H])C([H])([H])[H])C([H])([H])[H])C(C([H])([H])[H])(C([H])([H])[H])C([H])([H])[H])C([H])(C(=O)N([H])C1([H])c3c([H])c([H])c([H])c([H])c3C([H])([H])C([H])([H])C1([H])[H])C2([H])[H]

>  <smiles>  (85) 
[H]OC([H])([H])C([H])(C(=O)N([H])C([H])(C(=O)[O-])C([H])([H])N([H])C(=O)N1C([H])([H])C([H])([H])C([H])([H])C([H])(n2nc(-c3c([H])c([H])c(Oc4c([H])c([H])c(F)c([H])c4F)c([H])c3[H])c(C(=O)N([H])[H])c2N([H])[H])C1([H])[H])N([H])C(=O)C([H])([H])Oc1c([H])c([H])c2c(c1[H])C([H])([H])N(C(=O)C([H])(N([H])C(=O)C([H])(N([H])C([H])([H])[H])C([H])([H])[H])C(C([H])([H])[H])(C([H])([H])[H])C([H])([H])[H])C([H])(C(=O)N([H])C1([H])c3c([H])c([H])c([H])c([H])c3C([H])([H])C([H])([H])C1([H])[H])C2([H])[H]

$$$$
88:0:0
     RDKit          3D

 94101  0  0  1  0  0  0  0  0999 V2000
  -29.7660  -21.7540   20.0490 C   0  0  0  0  0  0  0  0  0  0  0  0
  -29.3420  -22.9270   19.5270 N   0  0  0  0  0  0  0  0  0  0  0  0
  -29.7340  -21.5440   21.2650 O   0  0  0  0  0  0  0  0  0  0  0  0
  -29.4040  -23.0340   18.5230 H   0  0  0  0  0  0  0  0  0  0  0  0
  -30.3030  -20.6370   19.1070 C   0  0  0  0  0  2  0  0  0  0  0  0
  -30.9930  -18.1970   19.4430 C   0  0  0  0  0  0  0  0  0  0  0  0
  -30.8210  -19.4730   19.8580 N   0  0  0  0  0  0  0  0  0  0  0  0
  -30.8380  -17.8640   18.2680 O   0  0  0  0  0  0  0  0  0  0  0  0
  -30.9240  -19.6580   20.8470 H   0  0  0  0  0  0  0  0  0  0  0  0
  -31.3560  -17.1360   20.5320 C   0  0  0  0  0  3  0  0  0  0  0  0
  -31.6850  -14.6720   19.8160 C   0  0  0  0  0  0  0  0  0  0  0  0
  -31.2730  -12.4530   18.7900 C   0  0  0  0  0  2  0  0  0  0  0  0
  -30.2780  -12.6180   17.6240 C   0  0  0  0  0  2  0  0  0  0  0  0
  -28.8200  -12.5780   18.1270 C   0  0  0  0  0  2  0  0  0  0  0  0
  -28.5830  -13.5040   19.3510 C   0  0  0  0  0  3  0  0  0  0  0  0
  -29.6740  -13.2810   20.4220 C   0  0  0  0  0  2  0  0  0  0  0  0
  -30.9780  -13.5060   19.7740 N   0  0  0  0  0  0  0  0  0  0  0  0
  -32.8440  -14.7690   19.3990 O   0  0  0  0  0  0  0  0  0  0  0  0
  -30.9620  -15.7410   20.2150 N   0  0  0  0  0  0  0  0  0  0  0  0
  -29.9950  -15.5330   20.4040 H   0  0  0  0  0  0  0  0  0  0  0  0
  -26.2830  -14.3020   20.1830 C   0  0  0  0  0  0  0  0  0  0  0  0
  -25.1780  -13.6240   20.6100 C   0  0  0  0  0  0  0  0  0  0  0  0
  -25.5190  -12.2370   20.5480 C   0  0  0  0  0  0  0  0  0  0  0  0
  -27.2410  -13.3400   19.9030 N   0  0  0  0  0  0  0  0  0  0  0  0
  -26.7850  -12.0910   20.1790 N   0  0  0  0  0  0  0  0  0  0  0  0
  -24.6970  -11.0400   20.7530 C   0  0  0  0  0  0  0  0  0  0  0  0
  -25.0660  -10.0400   21.6810 C   0  0  0  0  0  3  0  0  0  0  0  0
  -24.2460   -8.9060   21.8740 C   0  0  0  0  0  3  0  0  0  0  0  0
  -23.0470   -8.7650   21.1370 C   0  0  0  0  0  0  0  0  0  0  0  0
  -22.6960   -9.7510   20.2000 C   0  0  0  0  0  3  0  0  0  0  0  0
  -23.5140  -10.8760   20.0040 C   0  0  0  0  0  3  0  0  0  0  0  0
  -22.2020   -7.6860   21.2390 O   0  0  0  0  0  0  0  0  0  0  0  0
  -22.0640   -6.9920   22.4130 C   0  0  0  0  0  0  0  0  0  0  0  0
  -21.6790   -7.6290   23.6150 C   0  0  0  0  0  3  0  0  0  0  0  0
  -21.4870   -6.8660   24.7840 C   0  0  0  0  0  3  0  0  0  0  0  0
  -21.6650   -5.4700   24.7540 C   0  0  0  0  0  0  0  0  0  0  0  0
  -22.0420   -4.8360   23.5570 C   0  0  0  0  0  3  0  0  0  0  0  0
  -22.2390   -5.5930   22.3910 C   0  0  0  0  0  0  0  0  0  0  0  0
  -22.5850   -4.9730   21.2370 F   0  0  0  0  0  0  0  0  0  0  0  0
  -21.4710   -4.7380   25.8750 F   0  0  0  0  0  0  0  0  0  0  0  0
  -23.8430  -14.2180   20.9610 C   0  0  0  0  0  0  0  0  0  0  0  0
  -23.1190  -13.5910   21.8760 N   0  0  0  0  0  0  0  0  0  0  0  0
  -23.4590  -15.2710   20.4520 O   0  0  0  0  0  0  0  0  0  0  0  0
  -23.4470  -12.7350   22.2970 H   0  0  0  0  0  0  0  0  0  0  0  0
  -22.2250  -13.9690   22.1610 H   0  0  0  0  0  0  0  0  0  0  0  0
  -26.5430  -15.6520   19.9860 N   0  0  0  0  0  0  0  0  0  0  0  0
  -25.8070  -16.3460   20.0630 H   0  0  0  0  0  0  0  0  0  0  0  0
  -27.3620  -15.9900   19.4960 H   0  0  0  0  0  0  0  0  0  0  0  0
  -29.0680  -17.6430   21.7030 C   0  0  0  0  0  1  0  0  0  0  0  0
  -30.9430  -16.5660   23.0150 C   0  0  0  0  0  1  0  0  0  0  0  0
  -30.6020  -17.5160   21.8540 C   0  0  0  0  0  3  0  0  0  0  0  0
  -28.7740  -24.0630   20.3020 C   0  0  0  0  0  2  0  0  0  0  0  0
  -28.5410  -25.3740   19.4820 C   0  0  0  0  0  2  0  0  0  0  0  0
  -28.3100  -26.5590   20.2910 O   0  0  0  0  0  0  0  0  0  0  0  0
  -24.5410  -31.8740   23.2430 C   0  0  0  0  0  0  0  0  0  0  0  0
  -27.1200  -27.2840   20.2610 C   0  0  0  0  0  0  0  0  0  0  0  0
  -23.3120  -30.4530   21.6380 C   0  0  0  0  0  3  0  0  0  0  0  0
  -24.7430  -28.8590   20.2540 C   0  0  0  0  0  0  0  0  0  0  0  0
  -25.8500  -30.7550   21.4380 C   0  0  0  0  0  2  0  0  0  0  0  0
  -25.9140  -29.3670   20.8310 C   0  0  0  0  0  0  0  0  0  0  0  0
  -27.0960  -28.5850   20.8320 C   0  0  0  0  0  3  0  0  0  0  0  0
  -25.9190  -26.7940   19.6970 C   0  0  0  0  0  3  0  0  0  0  0  0
  -24.7420  -27.5700   19.6960 C   0  0  0  0  0  3  0  0  0  0  0  0
  -23.5120  -29.7410   20.2760 C   0  0  0  0  0  2  0  0  0  0  0  0
  -24.5870  -31.0460   22.1610 N   0  0  0  0  0  0  0  0  0  0  0  0
  -23.4610  -32.1780   23.7700 O   0  0  0  0  0  0  0  0  0  0  0  0
  -22.6470  -29.4640   22.6240 C   0  0  0  0  0  0  0  0  0  0  0  0
  -21.3290  -29.2560   22.4620 N   0  0  0  0  0  0  0  0  0  0  0  0
  -23.3140  -28.8870   23.4860 O   0  0  0  0  0  0  0  0  0  0  0  0
  -20.8520  -29.7740   21.7350 H   0  0  0  0  0  0  0  0  0  0  0  0
  -17.9680  -27.9910   22.8700 C   0  0  0  0  0  0  0  0  0  0  0  0
  -20.5000  -28.3410   23.2500 C   0  0  0  0  0  3  0  0  0  0  0  0
  -20.6690  -26.8820   22.7670 C   0  0  0  0  0  2  0  0  0  0  0  0
  -19.6310  -26.4680   21.7210 C   0  0  0  0  0  2  0  0  0  0  0  0
  -18.2140  -26.6110   22.2810 C   0  0  0  0  0  2  0  0  0  0  0  0
  -19.0420  -28.8100   23.3070 C   0  0  0  0  0  0  0  0  0  0  0  0
  -18.7590  -30.0980   23.8090 C   0  0  0  0  0  3  0  0  0  0  0  0
  -17.4340  -30.5650   23.8840 C   0  0  0  0  0  3  0  0  0  0  0  0
  -16.3720  -29.7450   23.4630 C   0  0  0  0  0  3  0  0  0  0  0  0
  -16.6420  -28.4590   22.9630 C   0  0  0  0  0  3  0  0  0  0  0  0
  -25.8320  -32.5020   23.8500 C   0  0  0  0  0  3  0  0  0  0  0  0
  -25.5420  -33.9130   24.1490 N   0  0  0  0  0  0  0  0  0  0  0  0
  -25.8890  -34.9430   23.3650 C   0  0  0  0  0  0  0  0  0  0  0  0
  -26.5570  -34.8070   22.3370 O   0  0  0  0  0  0  0  0  0  0  0  0
  -24.9540  -34.0990   24.9480 H   0  0  0  0  0  0  0  0  0  0  0  0
  -24.1850  -36.7470   22.9650 C   0  0  0  0  0  1  0  0  0  0  0  0
  -25.4190  -36.3470   23.7890 C   0  0  0  0  0  3  0  0  0  0  0  0
  -27.5680  -37.2170   24.5990 C   0  0  0  0  0  1  0  0  0  0  0  0
  -26.4670  -37.3820   23.6530 N   0  0  0  0  0  0  0  0  0  0  0  0
  -26.0760  -38.3100   23.7830 H   0  0  0  0  0  0  0  0  0  0  0  0
  -26.3440  -31.7510   25.1410 C   0  0  1  0  0  0  0  0  0  0  0  0
  -25.2450  -31.5230   26.2030 C   0  0  0  0  0  1  0  0  0  0  0  0
  -26.9310  -30.3690   24.7710 C   0  0  0  0  0  1  0  0  0  0  0  0
  -27.4870  -32.5610   25.7980 C   0  0  0  0  0  1  0  0  0  0  0  0
  1  3  2  0
  2  1  1  0
  2 52  1  0
  4  2  1  0
  5  7  1  0
  5  1  1  0
  6  7  1  0
  7  9  1  0
  8  6  2  0
 10  6  1  0
 10 51  1  0
 11 19  1  0
 12 17  1  0
 13 14  1  0
 13 12  1  0
 15 14  1  0
 15 24  1  0
 15 16  1  0
 17 11  1  0
 17 16  1  0
 18 11  2  0
 19 20  1  0
 19 10  1  0
 21 22  2  0
 22 41  1  0
 23 22  1  0
 23 26  1  0
 24 25  1  0
 24 21  1  0
 25 23  2  0
 26 27  1  0
 27 28  2  0
 29 32  1  0
 29 28  1  0
 30 29  2  0
 31 30  1  0
 31 26  2  0
 32 33  1  0
 33 34  1  0
 34 35  2  0
 36 35  1  0
 36 40  1  0
 37 36  2  0
 38 33  2  0
 38 37  1  0
 39 38  1  0
 41 42  1  0
 42 45  1  0
 42 44  1  0
 43 41  2  0
 46 47  1  0
 46 21  1  0
 48 46  1  0
 49 51  1  0
 51 50  1  0
 53 54  1  0
 53 52  1  0
 55 66  2  0
 56 54  1  0
 56 61  1  0
 57 65  1  0
 57 67  1  0
 58 64  1  0
 58 60  1  0
 59 65  1  0
 60 61  2  0
 60 59  1  0
 62 56  2  0
 63 62  1  0
 63 58  2  0
 64 57  1  0
 65 55  1  0
 67 69  2  0
 68 67  1  0
 70 68  1  0
 71 80  2  0
 71 76  1  0
 72 68  1  0
 72 76  1  0
 73 72  1  0
 74 75  1  0
 74 73  1  0
 75 71  1  0
 76 77  2  0
 77 78  1  0
 79 78  2  0
 80 79  1  0
 81 55  1  0
 81 82  1  0
 81 91  1  0
 82 85  1  0
 83 87  1  0
 83 82  1  0
 84 83  2  0
 87 86  1  0
 89 90  1  0
 89 87  1  0
 89 88  1  0
 91 94  1  1
 91 92  1  0
 93 91  1  0
M  ISO  4  11 100  19 100  53 101  54 101
M  END
>  <TORSDO>  (86) 
F 22

>  <SCORE>  (86) 
-10.775

>  <name>  (86) 
88

>  <ligand_id>  (86) 
88

>  <original_smiles>  (86) 
[H]c1c([H])c([H])c2c(c1[H])C([H])([H])C([H])([H])C([H])([H])C2([H])N([H])C(=O)C1([H])N(C(=O)C([H])(N([H])C(=O)C([H])(N([H])C([H])([H])[H])C([H])([H])[H])C(C([H])([H])[H])(C([H])([H])[H])C([H])([H])[H])C([H])([H])c2c([H])c(OC([H])([H])C([H])([H])N([H])C(=O)C([H])([H])N([H])C(=O)C([H])(N([H])C(=O)N3C([H])([H])C([H])([H])C([H])([H])C([H])(n4nc(-c5c([H])c([H])c(Oc6c([H])c([H])c(F)c([H])c6F)c([H])c5[H])c(C(=O)N([H])[H])c4N([H])[H])C3([H])[H])C([H])(C([H])([H])[H])C([H])([H])[H])c([H])c([H])c2C1([H])[H]

>  <smiles>  (86) 
[H]c1c([H])c([H])c2c(c1[H])C([H])([H])C([H])([H])C([H])([H])C2([H])N([H])C(=O)C1([H])N(C(=O)C([H])(N([H])C(=O)C([H])(N([H])C([H])([H])[H])C([H])([H])[H])C(C([H])([H])[H])(C([H])([H])[H])C([H])([H])[H])C([H])([H])c2c([H])c(OC([H])([H])C([H])([H])N([H])C(=O)C([H])([H])N([H])C(=O)C([H])(N([H])C(=O)N3C([H])([H])C([H])([H])C([H])([H])C([H])(n4nc(-c5c([H])c([H])c(Oc6c([H])c([H])c(F)c([H])c6F)c([H])c5[H])c(C(=O)N([H])[H])c4N([H])[H])C3([H])[H])C([H])(C([H])([H])[H])C([H])([H])[H])c([H])c([H])c2C1([H])[H]

$$$$
89:0:0
     RDKit          3D

 98106  0  0  1  0  0  0  0  0999 V2000
  -29.2910  -20.6530   20.2320 C   0  0  0  0  0  0  0  0  0  0  0  0
  -29.9000  -19.4700   20.5160 N   0  0  0  0  0  0  0  0  0  0  0  0
  -28.0710  -20.7370   20.0830 O   0  0  0  0  0  0  0  0  0  0  0  0
  -30.9030  -19.5060   20.6230 H   0  0  0  0  0  0  0  0  0  0  0  0
  -28.9820  -24.1740   20.1460 C   0  0  0  0  0  0  0  0  0  0  0  0
  -30.5720  -21.9110   17.6670 C   0  0  0  0  0  2  0  0  0  0  0  0
  -31.2670  -21.5930   18.9810 C   0  0  0  0  0  2  0  0  0  0  0  0
  -29.7960  -23.1800   18.0110 C   0  0  0  0  0  2  0  0  0  0  0  0
  -30.1960  -21.9160   20.0450 C   0  0  0  0  0  3  0  0  0  0  0  0
  -29.5480  -23.1330   19.4620 N   0  0  0  0  0  0  0  0  0  0  0  0
  -28.7830  -24.1160   21.3630 O   0  0  0  0  0  0  0  0  0  0  0  0
  -28.6360  -25.4920   19.3690 C   0  0  0  0  0  2  0  0  0  0  0  0
  -28.4210  -26.6580   20.2180 O   0  0  0  0  0  0  0  0  0  0  0  0
  -24.5890  -31.8890   23.2410 C   0  0  0  0  0  0  0  0  0  0  0  0
  -27.2440  -27.4010   20.1670 C   0  0  0  0  0  0  0  0  0  0  0  0
  -23.3910  -30.4830   21.6020 C   0  0  0  0  0  3  0  0  0  0  0  0
  -24.8510  -28.9460   20.1770 C   0  0  0  0  0  0  0  0  0  0  0  0
  -25.9220  -30.8320   21.4110 C   0  0  0  0  0  2  0  0  0  0  0  0
  -26.0100  -29.4570   20.7700 C   0  0  0  0  0  0  0  0  0  0  0  0
  -27.2050  -28.6910   20.7650 C   0  0  0  0  0  3  0  0  0  0  0  0
  -26.0520  -26.9150   19.5780 C   0  0  0  0  0  3  0  0  0  0  0  0
  -24.8690  -27.6760   19.5800 C   0  0  0  0  0  3  0  0  0  0  0  0
  -23.6060  -29.8060   20.2220 C   0  0  0  0  0  2  0  0  0  0  0  0
  -24.6530  -31.0830   22.1430 N   0  0  0  0  0  0  0  0  0  0  0  0
  -23.5060  -32.1610   23.7760 O   0  0  0  0  0  0  0  0  0  0  0  0
  -22.7390  -29.4600   22.5610 C   0  0  0  0  0  0  0  0  0  0  0  0
  -21.4130  -29.2800   22.4350 N   0  0  0  0  0  0  0  0  0  0  0  0
  -23.4200  -28.8350   23.3760 O   0  0  0  0  0  0  0  0  0  0  0  0
  -20.9210  -29.8370   21.7500 H   0  0  0  0  0  0  0  0  0  0  0  0
  -18.0380  -28.0960   22.9480 C   0  0  0  0  0  0  0  0  0  0  0  0
  -20.5980  -28.3420   23.2070 C   0  0  0  0  0  3  0  0  0  0  0  0
  -20.6920  -26.9130   22.6240 C   0  0  0  0  0  2  0  0  0  0  0  0
  -19.5840  -26.6000   21.6140 C   0  0  0  0  0  2  0  0  0  0  0  0
  -18.2060  -26.7480   22.2650 C   0  0  0  0  0  2  0  0  0  0  0  0
  -19.1610  -28.8500   23.3760 C   0  0  0  0  0  0  0  0  0  0  0  0
  -18.9520  -30.1130   23.9730 C   0  0  0  0  0  3  0  0  0  0  0  0
  -17.6500  -30.6200   24.1460 C   0  0  0  0  0  3  0  0  0  0  0  0
  -16.5410  -29.8620   23.7340 C   0  0  0  0  0  3  0  0  0  0  0  0
  -16.7350  -28.6010   23.1410 C   0  0  0  0  0  3  0  0  0  0  0  0
  -25.8710  -32.5250   23.8640 C   0  0  0  0  0  3  0  0  0  0  0  0
  -25.5580  -33.9240   24.1880 N   0  0  0  0  0  0  0  0  0  0  0  0
  -25.8950  -34.9740   23.4270 C   0  0  0  0  0  0  0  0  0  0  0  0
  -26.5700  -34.8680   22.4010 O   0  0  0  0  0  0  0  0  0  0  0  0
  -24.9560  -34.0810   24.9820 H   0  0  0  0  0  0  0  0  0  0  0  0
  -24.1680  -36.7650   23.0520 C   0  0  0  0  0  1  0  0  0  0  0  0
  -25.4010  -36.3620   23.8770 C   0  0  0  0  0  3  0  0  0  0  0  0
  -27.5270  -37.2500   24.7270 C   0  0  0  0  0  1  0  0  0  0  0  0
  -26.4340  -37.4160   23.7720 N   0  0  0  0  0  0  0  0  0  0  0  0
  -26.0260  -38.3360   23.9150 H   0  0  0  0  0  0  0  0  0  0  0  0
  -26.3880  -31.7580   25.1420 C   0  0  1  0  0  0  0  0  0  0  0  0
  -25.2930  -31.5190   26.2070 C   0  0  0  0  0  1  0  0  0  0  0  0
  -26.9750  -30.3800   24.7520 C   0  0  0  0  0  1  0  0  0  0  0  0
  -27.5360  -32.5560   25.8040 C   0  0  0  0  0  1  0  0  0  0  0  0
  -29.3240  -18.1030   20.4610 C   0  0  0  0  0  3  0  0  0  0  0  0
  -28.9620  -17.7970   18.9910 C   0  0  0  0  0  0  0  0  0  0  0  0
  -27.6850  -17.5960   18.6960 N   0  0  0  0  0  0  0  0  0  0  0  0
  -29.8330  -17.7650   18.1200 O   0  0  0  0  0  0  0  0  0  0  0  0
  -26.9750  -17.7270   19.4020 H   0  0  0  0  0  0  0  0  0  0  0  0
  -27.4030  -17.4170   17.7410 H   0  0  0  0  0  0  0  0  0  0  0  0
  -30.3490  -17.0380   21.0180 C   0  0  0  0  0  2  0  0  0  0  0  0
  -30.6490  -14.5600   20.5230 C   0  0  0  0  0  0  0  0  0  0  0  0
  -30.3810  -12.3820   19.3830 C   0  0  0  0  0  2  0  0  0  0  0  0
  -29.4500  -12.5790   18.1670 C   0  0  0  0  0  2  0  0  0  0  0  0
  -27.9720  -12.4300   18.5810 C   0  0  0  0  0  2  0  0  0  0  0  0
  -27.6180  -13.2610   19.8430 C   0  0  0  0  0  3  0  0  0  0  0  0
  -28.6660  -13.0560   20.9610 C   0  0  0  0  0  2  0  0  0  0  0  0
  -29.9870  -13.3730   20.4010 N   0  0  0  0  0  0  0  0  0  0  0  0
  -31.7940  -14.7190   20.0950 O   0  0  0  0  0  0  0  0  0  0  0  0
  -29.9230  -15.6080   20.9830 N   0  0  0  0  0  0  0  0  0  0  0  0
  -28.9930  -15.3940   21.3070 H   0  0  0  0  0  0  0  0  0  0  0  0
  -25.2120  -13.8570   20.5280 C   0  0  0  0  0  0  0  0  0  0  0  0
  -24.1420  -13.0840   20.8870 C   0  0  0  0  0  0  0  0  0  0  0  0
  -24.6080  -11.7330   20.8640 C   0  0  0  0  0  0  0  0  0  0  0  0
  -26.2620  -12.9800   20.3110 N   0  0  0  0  0  0  0  0  0  0  0  0
  -25.9030  -11.6960   20.5730 N   0  0  0  0  0  0  0  0  0  0  0  0
  -23.8840  -10.4690   21.0500 C   0  0  0  0  0  0  0  0  0  0  0  0
  -24.3160   -9.4990   21.9820 C   0  0  0  0  0  3  0  0  0  0  0  0
  -23.5910   -8.3020   22.1570 C   0  0  0  0  0  3  0  0  0  0  0  0
  -22.4200   -8.0650   21.3990 C   0  0  0  0  0  0  0  0  0  0  0  0
  -22.0080   -9.0220   20.4550 C   0  0  0  0  0  3  0  0  0  0  0  0
  -22.7330  -10.2130   20.2790 C   0  0  0  0  0  3  0  0  0  0  0  0
  -21.6650   -6.9180   21.4830 O   0  0  0  0  0  0  0  0  0  0  0  0
  -21.6210   -6.1690   22.6300 C   0  0  0  0  0  0  0  0  0  0  0  0
  -21.1970   -6.7160   23.8610 C   0  0  0  0  0  3  0  0  0  0  0  0
  -21.0990   -5.8930   25.0010 C   0  0  0  0  0  3  0  0  0  0  0  0
  -21.4140   -4.5230   24.9100 C   0  0  0  0  0  0  0  0  0  0  0  0
  -21.8310   -3.9770   23.6850 C   0  0  0  0  0  3  0  0  0  0  0  0
  -21.9320   -4.7970   22.5480 C   0  0  0  0  0  0  0  0  0  0  0  0
  -22.3140   -4.2610   21.3640 F   0  0  0  0  0  0  0  0  0  0  0  0
  -21.3130   -3.7310   26.0030 F   0  0  0  0  0  0  0  0  0  0  0  0
  -22.7400  -13.5570   21.1410 C   0  0  0  0  0  0  0  0  0  0  0  0
  -22.0050  -12.8610   22.0000 N   0  0  0  0  0  0  0  0  0  0  0  0
  -22.3040  -14.5810   20.6130 O   0  0  0  0  0  0  0  0  0  0  0  0
  -22.3710  -12.0340   22.4490 H   0  0  0  0  0  0  0  0  0  0  0  0
  -21.0630  -13.1590   22.2120 H   0  0  0  0  0  0  0  0  0  0  0  0
  -25.3750  -15.2270   20.3460 N   0  0  0  0  0  0  0  0  0  0  0  0
  -24.5940  -15.8710   20.4040 H   0  0  0  0  0  0  0  0  0  0  0  0
  -26.2180  -15.6450   19.9770 H   0  0  0  0  0  0  0  0  0  0  0  0
  1  2  1  0
  2  4  1  0
  3  1  2  0
  5 11  2  0
  6  8  1  0
  6  7  1  0
  7  9  1  0
  8 10  1  0
  9  1  1  0
 10  9  1  0
 10  5  1  0
 12  5  1  0
 12 13  1  0
 14 25  2  0
 15 13  1  0
 15 20  1  0
 16 24  1  0
 16 26  1  0
 17 23  1  0
 17 19  1  0
 18 24  1  0
 19 18  1  0
 20 19  2  0
 21 22  1  0
 21 15  2  0
 22 17  2  0
 23 16  1  0
 24 14  1  0
 26 28  2  0
 27 26  1  0
 29 27  1  0
 30 39  2  0
 30 35  1  0
 31 27  1  0
 31 35  1  0
 32 31  1  0
 33 34  1  0
 33 32  1  0
 34 30  1  0
 35 36  2  0
 36 37  1  0
 38 37  2  0
 39 38  1  0
 40 14  1  0
 40 41  1  0
 40 50  1  0
 41 44  1  0
 42 46  1  0
 42 41  1  0
 43 42  2  0
 46 45  1  0
 48 46  1  0
 48 49  1  0
 48 47  1  0
 50 53  1  1
 50 51  1  0
 52 50  1  0
 54  2  1  0
 54 60  1  0
 55 54  1  0
 56 55  1  0
 56 58  1  0
 57 55  2  0
 59 56  1  0
 61 69  1  0
 62 67  1  0
 63 64  1  0
 63 62  1  0
 65 64  1  0
 65 74  1  0
 65 66  1  0
 67 61  1  0
 67 66  1  0
 68 61  2  0
 69 60  1  0
 69 70  1  0
 71 72  2  0
 72 91  1  0
 73 72  1  0
 73 76  1  0
 74 71  1  0
 74 75  1  0
 75 73  2  0
 76 77  1  0
 77 78  2  0
 79 82  1  0
 79 78  1  0
 80 79  2  0
 81 80  1  0
 81 76  2  0
 82 83  1  0
 83 84  1  0
 84 85  2  0
 86 85  1  0
 86 90  1  0
 87 86  2  0
 88 83  2  0
 88 87  1  0
 89 88  1  0
 91 92  1  0
 92 95  1  0
 92 94  1  0
 93 91  2  0
 96 97  1  0
 96 71  1  0
 98 96  1  0
M  ISO  4  12 101  13 101  61 100  69 100
M  END
>  <TORSDO>  (87) 
F 21

>  <SCORE>  (87) 
-13.838

>  <name>  (87) 
89

>  <ligand_id>  (87) 
89

>  <original_smiles>  (87) 
[H]c1c([H])c([H])c2c(c1[H])C([H])([H])C([H])([H])C([H])([H])C2([H])N([H])C(=O)C1([H])N(C(=O)C([H])(N([H])C(=O)C([H])(N([H])C([H])([H])[H])C([H])([H])[H])C(C([H])([H])[H])(C([H])([H])[H])C([H])([H])[H])C([H])([H])c2c([H])c(OC([H])([H])C(=O)N3C([H])([H])C([H])([H])C([H])([H])C3([H])C(=O)N([H])C([H])(C(=O)N([H])[H])C([H])([H])N([H])C(=O)N3C([H])([H])C([H])([H])C([H])([H])C([H])(n4nc(-c5c([H])c([H])c(Oc6c([H])c([H])c(F)c([H])c6F)c([H])c5[H])c(C(=O)N([H])[H])c4N([H])[H])C3([H])[H])c([H])c([H])c2C1([H])[H]

>  <smiles>  (87) 
[H]c1c([H])c([H])c2c(c1[H])C([H])([H])C([H])([H])C([H])([H])C2([H])N([H])C(=O)C1([H])N(C(=O)C([H])(N([H])C(=O)C([H])(N([H])C([H])([H])[H])C([H])([H])[H])C(C([H])([H])[H])(C([H])([H])[H])C([H])([H])[H])C([H])([H])c2c([H])c(OC([H])([H])C(=O)N3C([H])([H])C([H])([H])C([H])([H])C3([H])C(=O)N([H])C([H])(C(=O)N([H])[H])C([H])([H])N([H])C(=O)N3C([H])([H])C([H])([H])C([H])([H])C([H])(n4nc(-c5c([H])c([H])c(Oc6c([H])c([H])c(F)c([H])c6F)c([H])c5[H])c(C(=O)N([H])[H])c4N([H])[H])C3([H])[H])c([H])c([H])c2C1([H])[H]

$$$$
90:0:0
     RDKit          3D

 91 98  0  0  1  0  0  0  0  0999 V2000
  -29.4950  -19.7440   19.9760 C   0  0  0  0  0  0  0  0  0  0  0  0
  -28.7820  -21.0300   20.2460 N   0  0  0  0  0  0  0  0  0  0  0  0
  -30.6260  -19.8600   19.5040 O   0  0  0  0  0  0  0  0  0  0  0  0
  -27.9010  -20.8850   20.7130 H   0  0  0  0  0  0  0  0  0  0  0  0
  -29.0830  -22.6830   20.1490 C   0  0  0  0  0  3  0  0  0  0  0  0
  -28.0380  -24.1680   20.2060 C   0  0  0  0  0  3  0  0  0  0  0  0
  -28.2950  -25.8090   20.2310 O   0  0  0  0  0  0  0  0  0  0  0  0
  -24.7360  -31.7820   23.2490 C   0  0  0  0  0  0  0  0  0  0  0  0
  -27.2880  -26.9160   20.1960 C   0  0  0  0  0  0  0  0  0  0  0  0
  -23.5560  -30.4280   21.5670 C   0  0  0  0  0  3  0  0  0  0  0  0
  -25.0100  -28.8300   20.1420 C   0  0  0  0  0  0  0  0  0  0  0  0
  -26.1270  -30.6110   21.4660 C   0  0  0  0  0  2  0  0  0  0  0  0
  -26.1940  -29.2100   20.7880 C   0  0  0  0  0  0  0  0  0  0  0  0
  -27.3280  -28.2780   20.7840 C   0  0  0  0  0  3  0  0  0  0  0  0
  -26.0760  -26.6940   19.5030 C   0  0  0  0  0  3  0  0  0  0  0  0
  -24.9790  -27.5930   19.4800 C   0  0  0  0  0  3  0  0  0  0  0  0
  -23.8010  -29.7640   20.1840 C   0  0  0  0  0  2  0  0  0  0  0  0
  -24.8270  -30.9660   22.1480 N   0  0  0  0  0  0  0  0  0  0  0  0
  -23.6410  -32.0740   23.7570 O   0  0  0  0  0  0  0  0  0  0  0  0
  -22.8340  -29.4240   22.5040 C   0  0  0  0  0  0  0  0  0  0  0  0
  -21.5050  -29.2760   22.3540 N   0  0  0  0  0  0  0  0  0  0  0  0
  -23.4790  -28.7780   23.3340 O   0  0  0  0  0  0  0  0  0  0  0  0
  -21.0390  -29.8480   21.6650 H   0  0  0  0  0  0  0  0  0  0  0  0
  -18.0930  -28.1390   22.8290 C   0  0  0  0  0  0  0  0  0  0  0  0
  -20.6590  -28.3320   23.0930 C   0  0  0  0  0  3  0  0  0  0  0  0
  -20.7230  -26.9200   22.4650 C   0  0  0  0  0  2  0  0  0  0  0  0
  -19.6100  -26.6640   21.4440 C   0  0  0  0  0  2  0  0  0  0  0  0
  -18.2340  -26.8150   22.0980 C   0  0  0  0  0  2  0  0  0  0  0  0
  -19.2310  -28.8590   23.2810 C   0  0  0  0  0  0  0  0  0  0  0  0
  -19.0400  -30.1010   23.9270 C   0  0  0  0  0  3  0  0  0  0  0  0
  -17.7470  -30.6220   24.1210 C   0  0  0  0  0  3  0  0  0  0  0  0
  -16.6250  -29.8980   23.6820 C   0  0  0  0  0  3  0  0  0  0  0  0
  -16.7980  -28.6590   23.0420 C   0  0  0  0  0  3  0  0  0  0  0  0
  -26.0020  -32.4000   23.9160 C   0  0  0  0  0  3  0  0  0  0  0  0
  -25.7060  -33.8080   24.2360 N   0  0  0  0  0  0  0  0  0  0  0  0
  -26.0490  -34.8580   23.4780 C   0  0  0  0  0  0  0  0  0  0  0  0
  -26.7130  -34.7420   22.4450 O   0  0  0  0  0  0  0  0  0  0  0  0
  -25.1150  -33.9710   25.0390 H   0  0  0  0  0  0  0  0  0  0  0  0
  -24.3330  -36.6720   23.1530 C   0  0  0  0  0  1  0  0  0  0  0  0
  -25.5890  -36.2570   23.9370 C   0  0  0  0  0  3  0  0  0  0  0  0
  -27.7430  -37.1390   24.7220 C   0  0  0  0  0  1  0  0  0  0  0  0
  -26.6290  -37.3000   23.7910 N   0  0  0  0  0  0  0  0  0  0  0  0
  -26.2320  -38.2260   23.9270 H   0  0  0  0  0  0  0  0  0  0  0  0
  -26.4510  -31.6330   25.2200 C   0  0  1  0  0  0  0  0  0  0  0  0
  -25.3140  -31.4280   26.2470 C   0  0  0  0  0  1  0  0  0  0  0  0
  -27.0200  -30.2380   24.8720 C   0  0  0  0  0  1  0  0  0  0  0  0
  -27.5920  -32.4090   25.9190 C   0  0  0  0  0  1  0  0  0  0  0  0
  -29.0090  -18.0640   20.2100 C   0  0  0  0  0  3  0  0  0  0  0  0
  -30.4860  -15.2790   20.0260 C   0  0  0  0  0  0  0  0  0  0  0  0
  -30.5650  -12.7770   19.3180 C   0  0  0  0  0  2  0  0  0  0  0  0
  -29.6380  -12.4590   18.1160 C   0  0  0  0  0  2  0  0  0  0  0  0
  -28.2060  -12.1580   18.5900 C   0  0  0  0  0  2  0  0  0  0  0  0
  -27.7320  -13.1660   19.6680 C   0  0  0  0  0  3  0  0  0  0  0  0
  -28.7880  -13.4310   20.7630 C   0  0  0  0  0  2  0  0  0  0  0  0
  -29.9860  -13.9450   20.0810 N   0  0  0  0  0  0  0  0  0  0  0  0
  -31.6910  -15.3290   19.7440 O   0  0  0  0  0  0  0  0  0  0  0  0
  -29.6640  -16.5070   20.1400 N   0  0  0  0  0  0  0  0  0  0  0  0
  -30.5500  -16.9450   19.9160 H   0  0  0  0  0  0  0  0  0  0  0  0
  -25.3900  -13.6800   20.5310 C   0  0  0  0  0  0  0  0  0  0  0  0
  -24.3510  -12.8870   20.9280 C   0  0  0  0  0  0  0  0  0  0  0  0
  -24.8210  -11.5400   20.8300 C   0  0  0  0  0  0  0  0  0  0  0  0
  -26.4270  -12.8220   20.2170 N   0  0  0  0  0  0  0  0  0  0  0  0
  -26.0990  -11.5250   20.4620 N   0  0  0  0  0  0  0  0  0  0  0  0
  -24.1060  -10.2690   21.0050 C   0  0  0  0  0  0  0  0  0  0  0  0
  -24.5340   -9.3000   21.9390 C   0  0  0  0  0  3  0  0  0  0  0  0
  -23.8140   -8.0970   22.1020 C   0  0  0  0  0  3  0  0  0  0  0  0
  -22.6510   -7.8550   21.3330 C   0  0  0  0  0  0  0  0  0  0  0  0
  -22.2430   -8.8120   20.3880 C   0  0  0  0  0  3  0  0  0  0  0  0
  -22.9640  -10.0060   20.2220 C   0  0  0  0  0  3  0  0  0  0  0  0
  -21.9030   -6.7050   21.4080 O   0  0  0  0  0  0  0  0  0  0  0  0
  -21.7730   -6.0050   22.5810 C   0  0  0  0  0  0  0  0  0  0  0  0
  -21.2070   -6.5870   23.7370 C   0  0  0  0  0  3  0  0  0  0  0  0
  -21.0300   -5.8120   24.9000 C   0  0  0  0  0  3  0  0  0  0  0  0
  -21.4070   -4.4550   24.9070 C   0  0  0  0  0  0  0  0  0  0  0  0
  -21.9660   -3.8730   23.7560 C   0  0  0  0  0  3  0  0  0  0  0  0
  -22.1450   -4.6460   22.5960 C   0  0  0  0  0  0  0  0  0  0  0  0
  -22.6640   -4.0750   21.4820 F   0  0  0  0  0  0  0  0  0  0  0  0
  -21.2300   -3.7070   26.0220 F   0  0  0  0  0  0  0  0  0  0  0  0
  -22.9640  -13.3500   21.2640 C   0  0  0  0  0  0  0  0  0  0  0  0
  -22.2760  -12.6360   22.1480 N   0  0  0  0  0  0  0  0  0  0  0  0
  -22.5050  -14.3820   20.7790 O   0  0  0  0  0  0  0  0  0  0  0  0
  -22.6650  -11.8020   22.5630 H   0  0  0  0  0  0  0  0  0  0  0  0
  -21.3460  -12.9270   22.4140 H   0  0  0  0  0  0  0  0  0  0  0  0
  -25.5220  -15.0540   20.3700 N   0  0  0  0  0  0  0  0  0  0  0  0
  -24.6480  -15.5700   20.3700 H   0  0  0  0  0  0  0  0  0  0  0  0
  -26.1450  -15.3640   19.6370 H   0  0  0  0  0  0  0  0  0  0  0  0
  -27.5720  -17.7900   19.6680 C   0  0  0  0  0  2  0  0  0  0  0  0
  -26.5950  -18.8970   19.6460 N   0  0  0  0  0  4  0  0  0  0  0  0
  -26.8410  -19.6130   18.9850 H   0  0  0  0  0  0  0  0  0  0  0  0
  -26.4520  -19.2820   20.5620 H   0  0  0  0  0  0  0  0  0  0  0  0
  -25.7070  -18.5240   19.3510 H   0  0  0  0  0  0  0  0  0  0  0  0
  1 48  1  0
  1  2  1  0
  2  4  1  0
  3  1  2  0
  5  6  2  0
  5  2  1  0
  6  7  1  0
  8 19  2  0
  9  7  1  0
  9 14  1  0
 10 18  1  0
 10 20  1  0
 11 17  1  0
 11 13  1  0
 12 18  1  0
 13 12  1  0
 14 13  2  0
 15  9  2  0
 16 15  1  0
 16 11  2  0
 17 10  1  0
 18  8  1  0
 20 22  2  0
 21 20  1  0
 23 21  1  0
 24 33  2  0
 24 29  1  0
 25 21  1  0
 25 29  1  0
 26 25  1  0
 27 28  1  0
 27 26  1  0
 28 24  1  0
 29 30  2  0
 30 31  1  0
 32 31  2  0
 33 32  1  0
 34  8  1  0
 34 35  1  0
 34 44  1  0
 35 38  1  0
 36 40  1  0
 36 35  1  0
 37 36  2  0
 40 39  1  0
 42 43  1  0
 42 40  1  0
 42 41  1  0
 44 47  1  1
 44 45  1  0
 46 44  1  0
 48 87  1  0
 49 55  1  0
 49 57  1  0
 50 55  1  0
 51 52  1  0
 51 50  1  0
 53 52  1  0
 53 62  1  0
 53 54  1  0
 55 54  1  0
 56 49  2  0
 57 48  1  0
 58 57  1  0
 59 60  2  0
 60 79  1  0
 61 60  1  0
 61 64  1  0
 62 63  1  0
 62 59  1  0
 63 61  2  0
 64 65  1  0
 65 66  2  0
 67 70  1  0
 67 66  1  0
 68 67  2  0
 69 68  1  0
 69 64  2  0
 70 71  1  0
 71 76  2  0
 71 72  1  0
 72 73  2  0
 73 74  1  0
 74 78  1  0
 75 74  2  0
 76 75  1  0
 77 76  1  0
 79 80  1  0
 80 83  1  0
 80 82  1  0
 81 79  2  0
 84 59  1  0
 85 84  1  0
 86 84  1  0
 88 87  1  0
 88 90  1  0
 89 88  1  0
 91 88  1  0
M  ISO  4   6 101   7 101  49 100  57 100
M  END
>  <TORSDO>  (88) 
F 21

>  <SCORE>  (88) 
-15.741

>  <name>  (88) 
90

>  <ligand_id>  (88) 
90

>  <original_smiles>  (88) 
[H]c1c([H])c([H])c2c(c1[H])C([H])([H])C([H])([H])C([H])([H])C2([H])N([H])C(=O)C1([H])N(C(=O)C([H])(N([H])C(=O)C([H])(N([H])C([H])([H])[H])C([H])([H])[H])C(C([H])([H])[H])(C([H])([H])[H])C([H])([H])[H])C([H])([H])c2c([H])c(OC([H])([H])C([H])([H])N([H])C(=O)C([H])(N([H])C(=O)N3C([H])([H])C([H])([H])C([H])([H])C([H])(n4nc(-c5c([H])c([H])c(Oc6c([H])c([H])c(F)c([H])c6F)c([H])c5[H])c(C(=O)N([H])[H])c4N([H])[H])C3([H])[H])C([H])([H])[N+]([H])([H])[H])c([H])c([H])c2C1([H])[H]

>  <smiles>  (88) 
[H]c1c([H])c([H])c2c(c1[H])C([H])([H])C([H])([H])C([H])([H])C2([H])N([H])C(=O)C1([H])N(C(=O)C([H])(N([H])C(=O)C([H])(N([H])C([H])([H])[H])C([H])([H])[H])C(C([H])([H])[H])(C([H])([H])[H])C([H])([H])[H])C([H])([H])c2c([H])c(OC([H])([H])C([H])([H])N([H])C(=O)C([H])(N([H])C(=O)N3C([H])([H])C([H])([H])C([H])([H])C([H])(n4nc(-c5c([H])c([H])c(Oc6c([H])c([H])c(F)c([H])c6F)c([H])c5[H])c(C(=O)N([H])[H])c4N([H])[H])C3([H])[H])C([H])([H])[N+]([H])([H])[H])c([H])c([H])c2C1([H])[H]

$$$$
92:0:0
     RDKit          3D

108116  0  0  1  0  0  0  0  0999 V2000
  -30.1470  -18.5310   20.1340 C   0  0  0  0  0  3  0  0  0  0  0  0
  -30.2150  -24.9130   20.0980 C   0  0  0  0  0  0  0  0  0  0  0  0
  -31.2150  -19.6130   20.4360 C   0  0  0  0  0  0  0  0  0  0  0  0
  -29.6180  -22.6240   19.2240 C   0  0  0  0  0  2  0  0  0  0  0  0
  -31.8870  -23.0870   19.9160 C   0  0  0  0  0  2  0  0  0  0  0  0
  -29.5160  -21.4810   20.2600 C   0  0  0  0  0  2  0  0  0  0  0  0
  -31.8140  -21.9570   20.9610 C   0  0  0  0  0  2  0  0  0  0  0  0
  -30.5420  -23.6470   19.7320 N   0  0  0  0  0  0  0  0  0  0  0  0
  -30.8570  -20.9220   20.5300 N   0  0  0  0  0  0  0  0  0  0  0  0
  -31.0510  -25.6850   20.5820 O   0  0  0  0  0  0  0  0  0  0  0  0
  -32.3870  -19.2480   20.5900 O   0  0  0  0  0  0  0  0  0  0  0  0
  -28.7730  -25.4150   19.9010 C   0  0  0  0  0  2  0  0  0  0  0  0
  -28.6630  -26.7480   20.4030 O   0  0  0  0  0  0  0  0  0  0  0  0
  -24.6820  -31.8960   23.2250 C   0  0  0  0  0  0  0  0  0  0  0  0
  -27.4430  -27.3880   20.3610 C   0  0  0  0  0  0  0  0  0  0  0  0
  -23.5220  -30.4160   21.6180 C   0  0  0  0  0  3  0  0  0  0  0  0
  -25.0180  -28.8390   20.2850 C   0  0  0  0  0  0  0  0  0  0  0  0
  -26.0430  -30.8030   21.4480 C   0  0  0  0  0  2  0  0  0  0  0  0
  -26.1560  -29.4090   20.8680 C   0  0  0  0  0  0  0  0  0  0  0  0
  -27.3670  -28.6870   20.9060 C   0  0  0  0  0  3  0  0  0  0  0  0
  -26.2800  -26.8180   19.7900 C   0  0  0  0  0  3  0  0  0  0  0  0
  -25.0730  -27.5410   19.7500 C   0  0  0  0  0  3  0  0  0  0  0  0
  -23.7640  -29.6820   20.2720 C   0  0  0  0  0  2  0  0  0  0  0  0
  -24.7650  -31.0550   22.1560 N   0  0  0  0  0  0  0  0  0  0  0  0
  -23.5890  -32.1780   23.7340 O   0  0  0  0  0  0  0  0  0  0  0  0
  -22.8650  -29.4250   22.6050 C   0  0  0  0  0  0  0  0  0  0  0  0
  -21.5450  -29.2280   22.4630 N   0  0  0  0  0  0  0  0  0  0  0  0
  -23.5410  -28.8370   23.4530 O   0  0  0  0  0  0  0  0  0  0  0  0
  -21.0620  -29.7550   21.7480 H   0  0  0  0  0  0  0  0  0  0  0  0
  -18.1660  -28.0620   22.9750 C   0  0  0  0  0  0  0  0  0  0  0  0
  -20.7230  -28.3130   23.2530 C   0  0  0  0  0  3  0  0  0  0  0  0
  -20.8220  -26.8670   22.7140 C   0  0  0  0  0  2  0  0  0  0  0  0
  -19.7230  -26.5250   21.7030 C   0  0  0  0  0  2  0  0  0  0  0  0
  -18.3390  -26.6940   22.3370 C   0  0  0  0  0  2  0  0  0  0  0  0
  -19.2860  -28.8290   23.3920 C   0  0  0  0  0  0  0  0  0  0  0  0
  -19.0720  -30.1090   23.9470 C   0  0  0  0  0  3  0  0  0  0  0  0
  -17.7690  -30.6220   24.0930 C   0  0  0  0  0  3  0  0  0  0  0  0
  -16.6630  -29.8520   23.6940 C   0  0  0  0  0  3  0  0  0  0  0  0
  -16.8620  -28.5750   23.1410 C   0  0  0  0  0  3  0  0  0  0  0  0
  -25.9510  -32.5640   23.8420 C   0  0  0  0  0  3  0  0  0  0  0  0
  -25.6060  -33.9560   24.1610 N   0  0  0  0  0  0  0  0  0  0  0  0
  -25.9280  -35.0110   23.4010 C   0  0  0  0  0  0  0  0  0  0  0  0
  -26.6180  -34.9170   22.3820 O   0  0  0  0  0  0  0  0  0  0  0  0
  -24.9960  -34.1020   24.9510 H   0  0  0  0  0  0  0  0  0  0  0  0
  -24.1730  -36.7660   22.9970 C   0  0  0  0  0  1  0  0  0  0  0  0
  -25.4010  -36.3890   23.8420 C   0  0  0  0  0  3  0  0  0  0  0  0
  -27.4960  -37.3190   24.7230 C   0  0  0  0  0  1  0  0  0  0  0  0
  -26.4150  -37.4630   23.7500 N   0  0  0  0  0  0  0  0  0  0  0  0
  -25.9870  -38.3750   23.8850 H   0  0  0  0  0  0  0  0  0  0  0  0
  -26.4900  -31.8140   25.1210 C   0  0  1  0  0  0  0  0  0  0  0  0
  -25.3930  -31.5050   26.1680 C   0  0  0  0  0  1  0  0  0  0  0  0
  -27.1590  -30.4760   24.7280 C   0  0  0  0  0  1  0  0  0  0  0  0
  -27.5790  -32.6680   25.8110 C   0  0  0  0  0  1  0  0  0  0  0  0
  -30.7680  -16.4830   21.4010 C   0  0  0  0  0  0  0  0  0  0  0  0
  -30.7310  -17.1950   20.2720 N   0  0  0  0  0  0  0  0  0  0  0  0
  -30.2900  -16.9110   22.4540 O   0  0  0  0  0  0  0  0  0  0  0  0
  -31.2260  -16.8120   19.4750 H   0  0  0  0  0  0  0  0  0  0  0  0
  -31.5800  -14.4940   22.7500 C   0  0  0  0  0  1  0  0  0  0  0  0
  -32.8170  -15.1780   20.6920 C   0  0  0  0  0  1  0  0  0  0  0  0
  -31.4110  -15.0780   21.3300 C   0  0  2  0  0  0  0  0  0  0  0  0
  -30.3330  -13.9250   19.3130 C   0  0  0  0  0  0  0  0  0  0  0  0
  -29.4400  -12.2220   17.7710 C   0  0  0  0  0  2  0  0  0  0  0  0
  -28.2240  -12.6870   16.9510 C   0  0  0  0  0  2  0  0  0  0  0  0
  -26.9210  -12.4750   17.7400 C   0  0  0  0  0  2  0  0  0  0  0  0
  -26.9990  -13.0600   19.1720 C   0  0  0  0  0  3  0  0  0  0  0  0
  -28.2820  -12.5920   19.8940 C   0  0  0  0  0  2  0  0  0  0  0  0
  -29.4530  -12.9270   19.0580 N   0  0  0  0  0  0  0  0  0  0  0  0
  -31.0120  -14.4770   18.4420 O   0  0  0  0  0  0  0  0  0  0  0  0
  -30.5120  -14.1550   20.6210 N   0  0  0  0  0  0  0  0  0  0  0  0
  -29.9180  -13.6010   21.2170 H   0  0  0  0  0  0  0  0  0  0  0  0
  -24.8490  -13.5860   20.4890 C   0  0  0  0  0  0  0  0  0  0  0  0
  -23.8910  -12.7740   21.0360 C   0  0  0  0  0  0  0  0  0  0  0  0
  -24.3180  -11.4340   20.7850 C   0  0  0  0  0  0  0  0  0  0  0  0
  -25.7980  -12.7360   19.9410 N   0  0  0  0  0  0  0  0  0  0  0  0
  -25.4940  -11.4340   20.1700 N   0  0  0  0  0  0  0  0  0  0  0  0
  -23.6530  -10.1500   21.0460 C   0  0  0  0  0  0  0  0  0  0  0  0
  -24.2070   -9.1960   21.9270 C   0  0  0  0  0  3  0  0  0  0  0  0
  -23.5400   -7.9760   22.1740 C   0  0  0  0  0  3  0  0  0  0  0  0
  -22.3050   -7.7020   21.5390 C   0  0  0  0  0  0  0  0  0  0  0  0
  -21.7690   -8.6460   20.6440 C   0  0  0  0  0  3  0  0  0  0  0  0
  -22.4370   -9.8570   20.3960 C   0  0  0  0  0  3  0  0  0  0  0  0
  -21.6000   -6.5340   21.6950 O   0  0  0  0  0  0  0  0  0  0  0  0
  -21.6030   -5.8440   22.8820 C   0  0  0  0  0  0  0  0  0  0  0  0
  -21.1580   -6.4310   24.0870 C   0  0  0  0  0  3  0  0  0  0  0  0
  -21.1130   -5.6640   25.2680 C   0  0  0  0  0  3  0  0  0  0  0  0
  -21.5030   -4.3110   25.2470 C   0  0  0  0  0  0  0  0  0  0  0  0
  -21.9420   -3.7250   24.0470 C   0  0  0  0  0  3  0  0  0  0  0  0
  -21.9890   -4.4890   22.8680 C   0  0  0  0  0  0  0  0  0  0  0  0
  -22.3930   -3.9120   21.7100 F   0  0  0  0  0  0  0  0  0  0  0  0
  -21.4540   -3.5730   26.3790 F   0  0  0  0  0  0  0  0  0  0  0  0
  -22.6110  -13.2100   21.6880 C   0  0  0  0  0  0  0  0  0  0  0  0
  -22.1400  -12.4580   22.6780 N   0  0  0  0  0  0  0  0  0  0  0  0
  -22.0470  -14.2500   21.3550 O   0  0  0  0  0  0  0  0  0  0  0  0
  -22.6180  -11.6160   22.9630 H   0  0  0  0  0  0  0  0  0  0  0  0
  -21.2920  -12.7280   23.1560 H   0  0  0  0  0  0  0  0  0  0  0  0
  -25.0010  -14.9690   20.4070 N   0  0  0  0  0  0  0  0  0  0  0  0
  -24.4290  -15.4640   21.0830 H   0  0  0  0  0  0  0  0  0  0  0  0
  -25.9680  -15.2630   20.4650 H   0  0  0  0  0  0  0  0  0  0  0  0
  -29.6620  -18.6880   18.6770 C   0  0  0  0  0  2  0  0  0  0  0  0
  -28.2490  -18.1060   18.4600 C   0  0  0  0  0  2  0  0  0  0  0  0
  -27.5560  -18.6340   17.1950 C   0  0  0  0  0  2  0  0  0  0  0  0
  -26.3660  -20.7470   17.9000 C   0  0  0  0  0  0  0  0  0  0  0  0
  -26.3870  -22.2440   17.8880 C   0  0  0  0  0  1  0  0  0  0  0  0
  -25.3640  -20.1150   18.5380 N   0  0  0  0  0  4  0  0  0  0  0  0
  -27.3600  -20.0890   17.2700 N   0  0  0  0  0  0  0  0  0  0  0  0
  -24.6210  -20.6500   18.9670 H   0  0  0  0  0  0  0  0  0  0  0  0
  -25.2790  -19.1060   18.6450 H   0  0  0  0  0  0  0  0  0  0  0  0
  -28.0670  -20.6440   16.8020 H   0  0  0  0  0  0  0  0  0  0  0  0
  1 99  1  0
  1 55  1  0
  1  3  1  0
  2 10  2  0
  3  9  1  0
  3 11  2  0
  4  8  1  0
  4  6  1  0
  5  7  1  0
  6  9  1  0
  8  5  1  0
  8  2  1  0
  9  7  1  0
 12  2  1  0
 12 13  1  0
 14 25  2  0
 15 13  1  0
 15 20  1  0
 16 24  1  0
 16 26  1  0
 17 19  1  0
 18 24  1  0
 19 20  2  0
 19 18  1  0
 21 15  2  0
 22 21  1  0
 22 17  2  0
 23 17  1  0
 23 16  1  0
 24 14  1  0
 26 28  2  0
 27 26  1  0
 29 27  1  0
 30 39  2  0
 30 35  1  0
 31 27  1  0
 31 35  1  0
 32 31  1  0
 33 34  1  0
 33 32  1  0
 34 30  1  0
 35 36  2  0
 36 37  1  0
 38 37  2  0
 39 38  1  0
 40 14  1  0
 40 41  1  0
 40 50  1  0
 41 44  1  0
 42 46  1  0
 42 41  1  0
 43 42  2  0
 46 45  1  0
 48 46  1  0
 48 49  1  0
 48 47  1  0
 50 53  1  1
 50 51  1  0
 52 50  1  0
 54 56  2  0
 55 54  1  0
 57 55  1  0
 60 59  1  6
 60 54  1  0
 60 58  1  0
 61 69  1  0
 62 67  1  0
 63 64  1  0
 63 62  1  0
 65 64  1  0
 65 66  1  0
 65 74  1  0
 67 61  1  0
 67 66  1  0
 68 61  2  0
 69 70  1  0
 69 60  1  0
 71 72  2  0
 72 91  1  0
 73 72  1  0
 73 76  1  0
 74 75  1  0
 74 71  1  0
 75 73  2  0
 76 77  1  0
 77 78  2  0
 79 82  1  0
 79 78  1  0
 80 79  2  0
 81 80  1  0
 81 76  2  0
 82 83  1  0
 83 84  1  0
 84 85  2  0
 86 85  1  0
 86 90  1  0
 87 86  2  0
 88 83  2  0
 88 87  1  0
 89 88  1  0
 91 92  1  0
 92 94  1  0
 92 95  1  0
 93 91  2  0
 96 98  1  0
 96 71  1  0
 96 97  1  0
100 99  1  0
101105  1  0
101100  1  0
102104  2  0
103102  1  0
104107  1  0
104106  1  0
105102  1  0
108105  1  0
M  ISO  4  12 101  13 101  61 100  69 100
M  END
>  <TORSDO>  (89) 
F 24

>  <SCORE>  (89) 
-8.964

>  <name>  (89) 
92

>  <ligand_id>  (89) 
92

>  <original_smiles>  (89) 
[H]c1c([H])c([H])c2c(c1[H])C([H])([H])C([H])([H])C([H])([H])C2([H])N([H])C(=O)C1([H])N(C(=O)C([H])(N([H])C(=O)C([H])(N([H])C([H])([H])[H])C([H])([H])[H])C(C([H])([H])[H])(C([H])([H])[H])C([H])([H])[H])C([H])([H])c2c([H])c(OC([H])([H])C(=O)N3C([H])([H])C([H])([H])N(C(=O)C([H])(N([H])C(=O)C(N([H])C(=O)N4C([H])([H])C([H])([H])C([H])([H])C([H])(n5nc(-c6c([H])c([H])c(Oc7c([H])c([H])c(F)c([H])c7F)c([H])c6[H])c(C(=O)N([H])[H])c5N([H])[H])C4([H])[H])(C([H])([H])[H])C([H])([H])[H])C([H])([H])C([H])([H])C([H])([H])[N+]([H])=C(N([H])[H])C([H])([H])[H])C([H])([H])C3([H])[H])c([H])c([H])c2C1([H])[H]

>  <smiles>  (89) 
[H]c1c([H])c([H])c2c(c1[H])C([H])([H])C([H])([H])C([H])([H])C2([H])N([H])C(=O)C1([H])N(C(=O)C([H])(N([H])C(=O)C([H])(N([H])C([H])([H])[H])C([H])([H])[H])C(C([H])([H])[H])(C([H])([H])[H])C([H])([H])[H])C([H])([H])c2c([H])c(OC([H])([H])C(=O)N3C([H])([H])C([H])([H])N(C(=O)C([H])(N([H])C(=O)C(N([H])C(=O)N4C([H])([H])C([H])([H])C([H])([H])C([H])(n5nc(-c6c([H])c([H])c(Oc7c([H])c([H])c(F)c([H])c7F)c([H])c6[H])c(C(=O)N([H])[H])c5N([H])[H])C4([H])[H])(C([H])([H])[H])C([H])([H])[H])C([H])([H])C([H])([H])C([H])([H])[N+]([H])=C(N([H])[H])C([H])([H])[H])C([H])([H])C3([H])[H])c([H])c([H])c2C1([H])[H]

$$$$
93:0:0
     RDKit          3D

 91 98  0  0  1  0  0  0  0  0999 V2000
  -28.8500  -22.6890   20.4490 C   0  0  0  0  0  0  0  0  0  0  0  0
  -29.3290  -21.3650   19.9470 N   0  0  0  0  0  4  0  0  0  0  0  0
  -28.8260  -22.8080   21.6780 O   0  0  0  0  0  0  0  0  0  0  0  0
  -29.4140  -21.3980   18.9380 H   0  0  0  0  0  0  0  0  0  0  0  0
  -28.2060  -24.1000   19.6060 C   0  0  0  0  0  2  0  0  0  0  0  0
  -28.2230  -25.7120   19.9760 O   0  0  0  0  0  0  0  0  0  0  0  0
  -24.6840  -31.6740   22.8960 C   0  0  0  0  0  0  0  0  0  0  0  0
  -27.2040  -26.7980   19.8460 C   0  0  0  0  0  0  0  0  0  0  0  0
  -23.4530  -30.2470   21.3090 C   0  0  0  0  0  3  0  0  0  0  0  0
  -24.8770  -28.6490   19.8480 C   0  0  0  0  0  0  0  0  0  0  0  0
  -26.0080  -30.4890   21.0800 C   0  0  0  0  0  2  0  0  0  0  0  0
  -26.0730  -29.0740   20.4340 C   0  0  0  0  0  0  0  0  0  0  0  0
  -27.2230  -28.1650   20.4200 C   0  0  0  0  0  3  0  0  0  0  0  0
  -25.9780  -26.5310   19.1960 C   0  0  0  0  0  3  0  0  0  0  0  0
  -24.8530  -27.3990   19.2080 C   0  0  0  0  0  3  0  0  0  0  0  0
  -23.6460  -29.5530   19.9300 C   0  0  0  0  0  2  0  0  0  0  0  0
  -24.7370  -30.8310   21.8130 N   0  0  0  0  0  0  0  0  0  0  0  0
  -23.6090  -31.9500   23.4530 O   0  0  0  0  0  0  0  0  0  0  0  0
  -22.8050  -29.2520   22.3100 C   0  0  0  0  0  0  0  0  0  0  0  0
  -21.4740  -29.0620   22.2300 N   0  0  0  0  0  0  0  0  0  0  0  0
  -23.5100  -28.6520   23.1270 O   0  0  0  0  0  0  0  0  0  0  0  0
  -20.9570  -29.6060   21.5550 H   0  0  0  0  0  0  0  0  0  0  0  0
  -18.1430  -27.7490   22.8210 C   0  0  0  0  0  0  0  0  0  0  0  0
  -20.6970  -28.1150   23.0380 C   0  0  0  0  0  3  0  0  0  0  0  0
  -20.8400  -26.6720   22.5070 C   0  0  0  0  0  2  0  0  0  0  0  0
  -19.7360  -26.2820   21.5160 C   0  0  0  0  0  2  0  0  0  0  0  0
  -18.3590  -26.3890   22.1760 C   0  0  0  0  0  2  0  0  0  0  0  0
  -19.2390  -28.5640   23.2120 C   0  0  0  0  0  0  0  0  0  0  0  0
  -18.9790  -29.8330   23.7790 C   0  0  0  0  0  3  0  0  0  0  0  0
  -17.6570  -30.2850   23.9570 C   0  0  0  0  0  3  0  0  0  0  0  0
  -16.5790  -29.4680   23.5800 C   0  0  0  0  0  3  0  0  0  0  0  0
  -16.8220  -28.2020   23.0180 C   0  0  0  0  0  3  0  0  0  0  0  0
  -25.9630  -32.3440   23.4760 C   0  0  0  0  0  3  0  0  0  0  0  0
  -25.5980  -33.6890   23.9590 N   0  0  0  0  0  0  0  0  0  0  0  0
  -25.8690  -34.8340   23.3200 C   0  0  0  0  0  0  0  0  0  0  0  0
  -26.5150  -34.8710   22.2700 O   0  0  0  0  0  0  0  0  0  0  0  0
  -25.0160  -33.7290   24.7830 H   0  0  0  0  0  0  0  0  0  0  0  0
  -24.0820  -36.6030   23.1900 C   0  0  0  0  0  1  0  0  0  0  0  0
  -25.3430  -36.1460   23.9390 C   0  0  0  0  0  3  0  0  0  0  0  0
  -27.4550  -37.0030   24.8520 C   0  0  0  0  0  1  0  0  0  0  0  0
  -26.3380  -37.2410   23.9420 N   0  0  0  0  0  0  0  0  0  0  0  0
  -25.9020  -38.1220   24.2010 H   0  0  0  0  0  0  0  0  0  0  0  0
  -26.6200  -31.5110   24.6510 C   0  0  1  0  0  0  0  0  0  0  0  0
  -25.6300  -31.1320   25.7790 C   0  0  0  0  0  1  0  0  0  0  0  0
  -27.2460  -30.2000   24.1230 C   0  0  0  0  0  1  0  0  0  0  0  0
  -27.7700  -32.3250   25.2890 C   0  0  0  0  0  1  0  0  0  0  0  0
  -29.4970  -19.7570   20.4560 C   0  0  0  0  0  0  0  0  0  0  0  0
  -29.8540  -19.6580   21.9650 C   0  0  0  0  0  2  0  0  0  0  0  0
  -31.3360  -19.5200   22.3330 C   0  0  0  0  0  0  0  0  0  0  0  0
  -31.6100  -19.2020   23.5950 N   0  0  0  0  0  0  0  0  0  0  0  0
  -32.2350  -19.6650   21.5040 O   0  0  0  0  0  0  0  0  0  0  0  0
  -30.8750  -19.1060   24.2880 H   0  0  0  0  0  0  0  0  0  0  0  0
  -32.5680  -19.0450   23.8770 H   0  0  0  0  0  0  0  0  0  0  0  0
  -30.0190  -18.2120   19.6620 C   0  0  0  0  0  2  0  0  0  0  0  0
  -29.8430  -16.6240   20.0680 O   0  0  0  0  0  0  0  0  0  0  0  0
  -30.7400  -15.2330   19.8200 C   0  0  0  0  0  0  0  0  0  0  0  0
  -30.6040  -12.7700   18.9430 C   0  0  0  0  0  2  0  0  0  0  0  0
  -29.6050  -12.6180   17.7690 C   0  0  0  0  0  2  0  0  0  0  0  0
  -28.1690  -12.3800   18.2800 C   0  0  0  0  0  2  0  0  0  0  0  0
  -27.8120  -13.3190   19.4620 C   0  0  0  0  0  3  0  0  0  0  0  0
  -28.9250  -13.4290   20.5200 C   0  0  0  0  0  2  0  0  0  0  0  0
  -30.1330  -13.8870   19.8330 N   0  0  0  0  0  0  0  0  0  0  0  0
  -31.9280  -15.2590   19.4780 O   0  0  0  0  0  0  0  0  0  0  0  0
  -25.5250  -13.8890   20.4210 C   0  0  0  0  0  0  0  0  0  0  0  0
  -24.4760  -13.1170   20.8450 C   0  0  0  0  0  0  0  0  0  0  0  0
  -24.9090  -11.7590   20.7280 C   0  0  0  0  0  0  0  0  0  0  0  0
  -26.5220  -13.0040   20.0570 N   0  0  0  0  0  0  0  0  0  0  0  0
  -26.1720  -11.7150   20.3100 N   0  0  0  0  0  0  0  0  0  0  0  0
  -24.1710  -10.5020   20.9200 C   0  0  0  0  0  0  0  0  0  0  0  0
  -24.5850   -9.5350   21.8620 C   0  0  0  0  0  3  0  0  0  0  0  0
  -23.8450   -8.3460   22.0400 C   0  0  0  0  0  3  0  0  0  0  0  0
  -22.6760   -8.1160   21.2790 C   0  0  0  0  0  0  0  0  0  0  0  0
  -22.2810   -9.0700   20.3230 C   0  0  0  0  0  3  0  0  0  0  0  0
  -23.0220  -10.2500   20.1440 C   0  0  0  0  0  3  0  0  0  0  0  0
  -21.9090   -6.9790   21.3690 O   0  0  0  0  0  0  0  0  0  0  0  0
  -21.7650   -6.2980   22.5510 C   0  0  0  0  0  0  0  0  0  0  0  0
  -21.2610   -6.9190   23.7150 C   0  0  0  0  0  3  0  0  0  0  0  0
  -21.0700   -6.1640   24.8890 C   0  0  0  0  0  3  0  0  0  0  0  0
  -21.3650   -4.7880   24.8970 C   0  0  0  0  0  0  0  0  0  0  0  0
  -21.8620   -4.1670   23.7380 C   0  0  0  0  0  3  0  0  0  0  0  0
  -22.0540   -4.9180   22.5670 C   0  0  0  0  0  0  0  0  0  0  0  0
  -22.5100   -4.3100   21.4460 F   0  0  0  0  0  0  0  0  0  0  0  0
  -21.1750   -4.0590   26.0220 F   0  0  0  0  0  0  0  0  0  0  0  0
  -23.1120  -13.6060   21.2360 C   0  0  0  0  0  0  0  0  0  0  0  0
  -22.4440  -12.9110   22.1530 N   0  0  0  0  0  0  0  0  0  0  0  0
  -22.6480  -14.6430   20.7620 O   0  0  0  0  0  0  0  0  0  0  0  0
  -22.8340  -12.0750   22.5620 H   0  0  0  0  0  0  0  0  0  0  0  0
  -21.5310  -13.2250   22.4580 H   0  0  0  0  0  0  0  0  0  0  0  0
  -25.7050  -15.2590   20.2870 N   0  0  0  0  0  0  0  0  0  0  0  0
  -24.9720  -15.9270   20.5020 H   0  0  0  0  0  0  0  0  0  0  0  0
  -26.5450  -15.6850   19.9160 H   0  0  0  0  0  0  0  0  0  0  0  0
  1  3  2  0
  2  1  1  0
  2 47  2  0
  4  2  1  0
  5  6  1  0
  5  1  1  0
  7 18  2  0
  8  6  1  0
  8 13  1  0
  9 17  1  0
  9 19  1  0
 10 16  1  0
 10 12  1  0
 11 17  1  0
 12 11  1  0
 13 12  2  0
 14 15  1  0
 14  8  2  0
 15 10  2  0
 16  9  1  0
 17  7  1  0
 19 21  2  0
 20 19  1  0
 22 20  1  0
 23 32  2  0
 23 28  1  0
 24 20  1  0
 24 28  1  0
 25 24  1  0
 26 27  1  0
 26 25  1  0
 27 23  1  0
 28 29  2  0
 29 30  1  0
 31 30  2  0
 32 31  1  0
 33  7  1  0
 33 34  1  0
 33 43  1  0
 34 37  1  0
 35 39  1  0
 35 34  1  0
 36 35  2  0
 39 38  1  0
 39 41  1  0
 41 42  1  0
 41 40  1  0
 43 46  1  1
 43 44  1  0
 45 43  1  0
 47 48  1  0
 48 49  1  0
 49 50  1  0
 50 53  1  0
 50 52  1  0
 51 49  2  0
 54 55  1  0
 54 47  1  0
 56 62  1  0
 56 55  1  0
 57 62  1  0
 58 59  1  0
 58 57  1  0
 60 59  1  0
 60 67  1  0
 60 61  1  0
 62 61  1  0
 63 56  2  0
 64 65  2  0
 65 84  1  0
 66 65  1  0
 66 69  1  0
 67 68  1  0
 67 64  1  0
 68 66  2  0
 69 70  1  0
 70 71  2  0
 72 75  1  0
 72 71  1  0
 73 72  2  0
 74 73  1  0
 74 69  2  0
 75 76  1  0
 76 81  2  0
 76 77  1  0
 77 78  2  0
 78 79  1  0
 79 83  1  0
 80 79  2  0
 81 80  1  0
 82 81  1  0
 84 85  1  0
 85 88  1  0
 85 87  1  0
 86 84  2  0
 89 64  1  0
 89 90  1  0
 91 89  1  0
M  ISO  4   5 101   6 101  55 100  56 100
M  END
>  <TORSDO>  (90) 
F 22

>  <SCORE>  (90) 
-14.603

>  <name>  (90) 
93

>  <ligand_id>  (90) 
93

>  <original_smiles>  (90) 
[H]c1c([H])c([H])c2c(c1[H])C([H])([H])C([H])([H])C([H])([H])C2([H])N([H])C(=O)C1([H])N(C(=O)C([H])(N([H])C(=O)C([H])(N([H])C([H])([H])[H])C([H])([H])[H])C(C([H])([H])[H])(C([H])([H])[H])C([H])([H])[H])C([H])([H])c2c([H])c(OC([H])([H])C(=O)N([H])C([H])(C([H])([H])OC(=O)N3C([H])([H])C([H])([H])C([H])([H])C([H])(n4nc(-c5c([H])c([H])c(Oc6c([H])c([H])c(F)c([H])c6F)c([H])c5[H])c(C(=O)N([H])[H])c4N([H])[H])C3([H])[H])C([H])([H])C(=O)N([H])[H])c([H])c([H])c2C1([H])[H]

>  <smiles>  (90) 
[H]c1c([H])c([H])c2c(c1[H])C([H])([H])C([H])([H])C([H])([H])C2([H])N([H])C(=O)C1([H])N(C(=O)C([H])(N([H])C(=O)C([H])(N([H])C([H])([H])[H])C([H])([H])[H])C(C([H])([H])[H])(C([H])([H])[H])C([H])([H])[H])C([H])([H])c2c([H])c(OC([H])([H])C(=O)N([H])C([H])(C([H])([H])OC(=O)N3C([H])([H])C([H])([H])C([H])([H])C([H])(n4nc(-c5c([H])c([H])c(Oc6c([H])c([H])c(F)c([H])c6F)c([H])c5[H])c(C(=O)N([H])[H])c4N([H])[H])C3([H])[H])C([H])([H])C(=O)N([H])[H])c([H])c([H])c2C1([H])[H]

$$$$
94:0:0
     RDKit          3D

106114  0  0  1  0  0  0  0  0999 V2000
  -29.7970  -20.4220   17.3550 C   0  0  0  0  0  2  0  0  0  0  0  0
  -30.5940  -20.9790   18.5410 C   0  0  0  0  0  0  0  0  0  0  0  0
  -31.2760  -22.1100   18.3380 N   0  0  0  0  0  0  0  0  0  0  0  0
  -30.5770  -20.3990   19.6310 O   0  0  0  0  0  0  0  0  0  0  0  0
  -31.2460  -22.5130   17.4120 H   0  0  0  0  0  0  0  0  0  0  0  0
  -32.1200  -22.7870   19.3230 C   0  0  0  0  0  2  0  0  0  0  0  0
  -31.3430  -23.2850   20.5640 C   0  0  0  0  0  2  0  0  0  0  0  0
  -29.9800  -25.1630   19.6510 C   0  0  0  0  0  0  0  0  0  0  0  0
  -30.0910  -23.9610   20.2260 N   0  0  0  0  0  0  0  0  0  0  0  0
  -30.9600  -25.8340   19.3140 O   0  0  0  0  0  0  0  0  0  0  0  0
  -29.2330  -23.4880   20.4810 H   0  0  0  0  0  0  0  0  0  0  0  0
  -28.5630  -25.7010   19.4400 C   0  0  0  0  0  2  0  0  0  0  0  0
  -28.4590  -26.9530   20.1100 O   0  0  0  0  0  0  0  0  0  0  0  0
  -24.5790  -31.9560   23.2970 C   0  0  0  0  0  0  0  0  0  0  0  0
  -27.2460  -27.6030   20.1200 C   0  0  0  0  0  0  0  0  0  0  0  0
  -23.3730  -30.5680   21.6420 C   0  0  0  0  0  3  0  0  0  0  0  0
  -24.8280  -29.0620   20.1880 C   0  0  0  0  0  0  0  0  0  0  0  0
  -25.8910  -30.9540   21.4330 C   0  0  0  0  0  2  0  0  0  0  0  0
  -25.9820  -29.5930   20.7760 C   0  0  0  0  0  0  0  0  0  0  0  0
  -27.1890  -28.8660   20.7480 C   0  0  0  0  0  3  0  0  0  0  0  0
  -26.0690  -27.0750   19.5360 C   0  0  0  0  0  3  0  0  0  0  0  0
  -24.8630  -27.8010   19.5710 C   0  0  0  0  0  3  0  0  0  0  0  0
  -23.5770  -29.9080   20.2510 C   0  0  0  0  0  2  0  0  0  0  0  0
  -24.6330  -31.1730   22.1820 N   0  0  0  0  0  0  0  0  0  0  0  0
  -23.5000  -32.2120   23.8470 O   0  0  0  0  0  0  0  0  0  0  0  0
  -22.7380  -29.5260   22.5910 C   0  0  0  0  0  0  0  0  0  0  0  0
  -21.4160  -29.3320   22.4660 N   0  0  0  0  0  0  0  0  0  0  0  0
  -23.4320  -28.8980   23.3950 O   0  0  0  0  0  0  0  0  0  0  0  0
  -20.9180  -29.8920   21.7880 H   0  0  0  0  0  0  0  0  0  0  0  0
  -18.0590  -28.0820   22.9360 C   0  0  0  0  0  0  0  0  0  0  0  0
  -20.6100  -28.3760   23.2260 C   0  0  0  0  0  3  0  0  0  0  0  0
  -20.7380  -26.9500   22.6420 C   0  0  0  0  0  2  0  0  0  0  0  0
  -19.6460  -26.6180   21.6190 C   0  0  0  0  0  2  0  0  0  0  0  0
  -18.2590  -26.7390   22.2560 C   0  0  0  0  0  2  0  0  0  0  0  0
  -19.1630  -28.8580   23.3770 C   0  0  0  0  0  0  0  0  0  0  0  0
  -18.9220  -30.1150   23.9730 C   0  0  0  0  0  3  0  0  0  0  0  0
  -17.6100  -30.5980   24.1310 C   0  0  0  0  0  3  0  0  0  0  0  0
  -16.5200  -29.8180   23.7070 C   0  0  0  0  0  3  0  0  0  0  0  0
  -16.7450  -28.5630   23.1150 C   0  0  0  0  0  3  0  0  0  0  0  0
  -25.8650  -32.5860   23.9160 C   0  0  0  0  0  3  0  0  0  0  0  0
  -26.3690  -31.8320   25.2070 C   0  0  1  0  0  0  0  0  0  0  0  0
  -25.2660  -31.6130   26.2690 C   0  0  0  0  0  1  0  0  0  0  0  0
  -26.9510  -30.4480   24.8370 C   0  0  0  0  0  1  0  0  0  0  0  0
  -27.5160  -32.6320   25.8670 C   0  0  0  0  0  1  0  0  0  0  0  0
  -25.5670  -33.9920   24.2180 N   0  0  0  0  0  0  0  0  0  0  0  0
  -25.9280  -35.0270   23.4480 C   0  0  0  0  0  0  0  0  0  0  0  0
  -26.6180  -34.9000   22.4320 O   0  0  0  0  0  0  0  0  0  0  0  0
  -24.9580  -34.1670   25.0030 H   0  0  0  0  0  0  0  0  0  0  0  0
  -24.2380  -36.8380   23.0130 C   0  0  0  0  0  1  0  0  0  0  0  0
  -25.4450  -36.4280   23.8720 C   0  0  0  0  0  3  0  0  0  0  0  0
  -27.5660  -37.2900   24.7590 C   0  0  0  0  0  1  0  0  0  0  0  0
  -26.4960  -37.4650   23.7800 N   0  0  0  0  0  0  0  0  0  0  0  0
  -26.0990  -38.3930   23.9070 H   0  0  0  0  0  0  0  0  0  0  0  0
  -30.6090  -18.0980   17.0560 C   0  0  0  0  0  0  0  0  0  0  0  0
  -29.6790  -18.9690   17.4560 N   0  0  0  0  0  0  0  0  0  0  0  0
  -31.5820  -18.4310   16.3730 O   0  0  0  0  0  0  0  0  0  0  0  0
  -28.9230  -18.6230   18.0310 H   0  0  0  0  0  0  0  0  0  0  0  0
  -30.4290  -16.6360   17.4950 C   0  0  0  0  0  2  0  0  0  0  0  0
  -32.6190  -16.3220   18.6700 C   0  0  0  0  0  0  0  0  0  0  0  0
  -31.6830  -15.9360   17.7920 N   0  0  0  0  0  0  0  0  0  0  0  0
  -32.6150  -17.4050   19.2600 O   0  0  0  0  0  0  0  0  0  0  0  0
  -31.8320  -15.0560   17.3190 H   0  0  0  0  0  0  0  0  0  0  0  0
  -36.0290  -14.7300   18.3020 C   0  0  0  0  0  3  0  0  0  0  0  0
  -35.9680  -13.6230   19.1620 C   0  0  0  0  0  3  0  0  0  0  0  0
  -34.9120  -15.5730   18.1830 C   0  0  0  0  0  3  0  0  0  0  0  0
  -34.7910  -13.3630   19.8880 C   0  0  0  0  0  3  0  0  0  0  0  0
  -33.7220  -15.3350   18.9090 C   0  0  0  0  0  0  0  0  0  0  0  0
  -33.6530  -14.1990   19.7930 C   0  0  0  0  0  0  0  0  0  0  0  0
  -31.3200  -14.2230   20.7950 C   0  0  0  0  0  0  0  0  0  0  0  0
  -30.4800  -12.2890   19.6400 C   0  0  0  0  0  2  0  0  0  0  0  0
  -29.6850  -12.7710   18.4300 C   0  0  0  0  0  2  0  0  0  0  0  0
  -28.2060  -12.7080   18.8020 C   0  0  0  0  0  2  0  0  0  0  0  0
  -27.8690  -13.4940   20.0930 C   0  0  0  0  0  3  0  0  0  0  0  0
  -28.9340  -13.2970   21.2270 C   0  0  0  0  0  2  0  0  0  0  0  0
  -30.3290  -13.2910   20.7040 N   0  0  0  0  0  0  0  0  0  0  0  0
  -31.2330  -15.3880   21.0800 O   0  0  0  0  0  0  0  0  0  0  0  0
  -32.5500  -13.7220   20.5880 N   0  0  0  0  0  0  0  0  0  0  0  0
  -32.5660  -12.7220   20.7290 H   0  0  0  0  0  0  0  0  0  0  0  0
  -25.3910  -14.0380   20.6160 C   0  0  0  0  0  0  0  0  0  0  0  0
  -24.3100  -13.2430   20.9000 C   0  0  0  0  0  0  0  0  0  0  0  0
  -24.8050  -11.9030   20.9330 C   0  0  0  0  0  0  0  0  0  0  0  0
  -26.4840  -13.1900   20.5050 N   0  0  0  0  0  0  0  0  0  0  0  0
  -26.1240  -11.8990   20.7510 N   0  0  0  0  0  0  0  0  0  0  0  0
  -24.0880  -10.6230   21.0820 C   0  0  0  0  0  0  0  0  0  0  0  0
  -24.4700   -9.6730   22.0550 C   0  0  0  0  0  3  0  0  0  0  0  0
  -23.7560   -8.4630   22.1950 C   0  0  0  0  0  3  0  0  0  0  0  0
  -22.6430   -8.1910   21.3650 C   0  0  0  0  0  0  0  0  0  0  0  0
  -22.2780   -9.1310   20.3840 C   0  0  0  0  0  3  0  0  0  0  0  0
  -22.9930  -10.3340   20.2390 C   0  0  0  0  0  3  0  0  0  0  0  0
  -21.9090   -7.0310   21.4130 O   0  0  0  0  0  0  0  0  0  0  0  0
  -21.7860   -6.3050   22.5730 C   0  0  0  0  0  0  0  0  0  0  0  0
  -21.2440   -6.8650   23.7490 C   0  0  0  0  0  3  0  0  0  0  0  0
  -21.0710   -6.0640   24.8960 C   0  0  0  0  0  3  0  0  0  0  0  0
  -21.4280   -4.7030   24.8660 C   0  0  0  0  0  0  0  0  0  0  0  0
  -21.9610   -4.1430   23.6950 C   0  0  0  0  0  3  0  0  0  0  0  0
  -22.1370   -4.9410   22.5490 C   0  0  0  0  0  0  0  0  0  0  0  0
  -22.6300   -4.3870   21.4150 F   0  0  0  0  0  0  0  0  0  0  0  0
  -21.2550   -3.9300   25.9650 F   0  0  0  0  0  0  0  0  0  0  0  0
  -22.8790  -13.6860   21.0400 C   0  0  0  0  0  0  0  0  0  0  0  0
  -22.1030  -12.9960   21.8720 N   0  0  0  0  0  0  0  0  0  0  0  0
  -22.4550  -14.6820   20.4550 O   0  0  0  0  0  0  0  0  0  0  0  0
  -22.4520  -12.1950   22.3760 H   0  0  0  0  0  0  0  0  0  0  0  0
  -21.1430  -13.2770   22.0120 H   0  0  0  0  0  0  0  0  0  0  0  0
  -25.5290  -15.4080   20.4160 N   0  0  0  0  0  0  0  0  0  0  0  0
  -24.7360  -16.0400   20.4320 H   0  0  0  0  0  0  0  0  0  0  0  0
  -26.4030  -15.8720   20.1960 H   0  0  0  0  0  0  0  0  0  0  0  0
  1 55  1  0
  1  2  1  0
  2  4  2  0
  3  2  1  0
  3  6  1  0
  5  3  1  0
  6  7  1  0
  8  9  1  0
  9 11  1  0
  9  7  1  0
 10  8  2  0
 12  8  1  0
 12 13  1  0
 13 15  1  0
 14 25  2  0
 15 20  1  0
 16 24  1  0
 16 26  1  0
 17 23  1  0
 17 19  1  0
 18 24  1  0
 19 18  1  0
 20 19  2  0
 21 22  1  0
 21 15  2  0
 22 17  2  0
 23 16  1  0
 24 14  1  0
 26 28  2  0
 27 26  1  0
 29 27  1  0
 30 39  2  0
 30 35  1  0
 31 27  1  0
 31 35  1  0
 32 31  1  0
 33 34  1  0
 33 32  1  0
 34 30  1  0
 35 36  2  0
 36 37  1  0
 38 37  2  0
 39 38  1  0
 40 14  1  0
 40 45  1  0
 40 41  1  0
 41 44  1  1
 41 42  1  0
 43 41  1  0
 45 48  1  0
 46 50  1  0
 46 45  1  0
 47 46  2  0
 50 49  1  0
 52 50  1  0
 52 53  1  0
 52 51  1  0
 54 55  1  0
 54 58  1  0
 55 57  1  0
 56 54  2  0
 58 60  1  0
 59 67  1  0
 59 61  2  0
 60 59  1  0
 62 60  1  0
 63 64  1  0
 64 66  2  0
 65 63  2  0
 65 67  1  0
 67 68  2  0
 68 66  1  0
 68 77  1  0
 69 76  2  0
 70 75  1  0
 71 72  1  0
 71 70  1  0
 73 72  1  0
 73 82  1  0
 73 74  1  0
 75 69  1  0
 75 74  1  0
 77 78  1  0
 77 69  1  0
 79 80  2  0
 80 81  1  0
 80 99  1  0
 81 84  1  0
 82 79  1  0
 82 83  1  0
 83 81  2  0
 84 85  1  0
 85 86  2  0
 87 90  1  0
 87 86  1  0
 88 87  2  0
 89 88  1  0
 89 84  2  0
 90 91  1  0
 91 92  1  0
 92 93  2  0
 94 93  1  0
 94 98  1  0
 95 94  2  0
 96 91  2  0
 96 95  1  0
 97 96  1  0
 99100  1  0
100103  1  0
100102  1  0
101 99  2  0
104105  1  0
104 79  1  0
106104  1  0
M  ISO  4  12 101  13 101  69 100  77 100
M  END
>  <TORSDO>  (91) 
F 25

>  <SCORE>  (91) 
-11.724

>  <name>  (91) 
94

>  <ligand_id>  (91) 
94

>  <original_smiles>  (91) 
[H]c1c([H])c([H])c(N([H])C(=O)N2C([H])([H])C([H])([H])C([H])([H])C([H])(n3nc(-c4c([H])c([H])c(Oc5c([H])c([H])c(F)c([H])c5F)c([H])c4[H])c(C(=O)N([H])[H])c3N([H])[H])C2([H])[H])c(C(=O)N([H])C([H])([H])C(=O)N([H])C([H])([H])C(=O)N([H])C([H])([H])C([H])([H])N([H])C(=O)C([H])([H])Oc2c([H])c([H])c3c(c2[H])C([H])([H])N(C(=O)C([H])(N([H])C(=O)C([H])(N([H])C([H])([H])[H])C([H])([H])[H])C(C([H])([H])[H])(C([H])([H])[H])C([H])([H])[H])C([H])(C(=O)N([H])C2([H])c4c([H])c([H])c([H])c([H])c4C([H])([H])C([H])([H])C2([H])[H])C3([H])[H])c1[H]

>  <smiles>  (91) 
[H]c1c([H])c([H])c(N([H])C(=O)N2C([H])([H])C([H])([H])C([H])([H])C([H])(n3nc(-c4c([H])c([H])c(Oc5c([H])c([H])c(F)c([H])c5F)c([H])c4[H])c(C(=O)N([H])[H])c3N([H])[H])C2([H])[H])c(C(=O)N([H])C([H])([H])C(=O)N([H])C([H])([H])C(=O)N([H])C([H])([H])C([H])([H])N([H])C(=O)C([H])([H])Oc2c([H])c([H])c3c(c2[H])C([H])([H])N(C(=O)C([H])(N([H])C(=O)C([H])(N([H])C([H])([H])[H])C([H])([H])[H])C(C([H])([H])[H])(C([H])([H])[H])C([H])([H])[H])C([H])(C(=O)N([H])C2([H])c4c([H])c([H])c([H])c([H])c4C([H])([H])C([H])([H])C2([H])[H])C3([H])[H])c1[H]

$$$$
95:0:0
     RDKit          3D

 92100  0  0  1  0  0  0  0  0999 V2000
  -30.3250  -21.6570   19.8460 C   0  0  0  0  0  0  0  0  0  0  0  0
  -29.2860  -22.5470   19.8030 N   0  0  0  0  0  0  0  0  0  0  0  0
  -31.4790  -22.0900   19.8600 O   0  0  0  0  0  0  0  0  0  0  0  0
  -28.3470  -22.1760   19.7500 H   0  0  0  0  0  0  0  0  0  0  0  0
  -31.2750  -19.2650   19.6440 C   0  0  0  0  0  3  0  0  0  0  0  0
  -31.2210  -17.8480   19.7900 C   0  0  0  0  0  3  0  0  0  0  0  0
  -28.9540  -19.4460   20.2080 C   0  0  0  0  0  3  0  0  0  0  0  0
  -30.1520  -20.1160   19.8540 C   0  0  0  0  0  0  0  0  0  0  0  0
  -28.8880  -18.0210   20.3580 C   0  0  0  0  0  0  0  0  0  0  0  0
  -30.0290  -17.1750   20.1650 C   0  0  0  0  0  0  0  0  0  0  0  0
  -27.5440  -17.4390   20.7690 C   0  0  0  0  0  1  0  0  0  0  0  0
  -30.6580  -14.6560   19.8450 C   0  0  0  0  0  0  0  0  0  0  0  0
  -30.3190  -12.4480   18.7510 C   0  0  0  0  0  2  0  0  0  0  0  0
  -29.2820  -12.6290   17.6190 C   0  0  0  0  0  2  0  0  0  0  0  0
  -27.8450  -12.4860   18.1610 C   0  0  0  0  0  2  0  0  0  0  0  0
  -27.6060  -13.3150   19.4510 C   0  0  0  0  0  3  0  0  0  0  0  0
  -28.7500  -13.1080   20.4700 C   0  0  0  0  0  2  0  0  0  0  0  0
  -30.0140  -13.4440   19.7990 N   0  0  0  0  0  0  0  0  0  0  0  0
  -31.7870  -14.7930   19.3660 O   0  0  0  0  0  0  0  0  0  0  0  0
  -29.9180  -15.7160   20.3110 N   0  0  0  0  0  0  0  0  0  0  0  0
  -29.0720  -15.4140   20.7640 H   0  0  0  0  0  0  0  0  0  0  0  0
  -25.2910  -13.9340   20.3760 C   0  0  0  0  0  0  0  0  0  0  0  0
  -24.2420  -13.1700   20.8110 C   0  0  0  0  0  0  0  0  0  0  0  0
  -24.6700  -11.8110   20.6980 C   0  0  0  0  0  0  0  0  0  0  0  0
  -26.2960  -13.0430   20.0340 N   0  0  0  0  0  0  0  0  0  0  0  0
  -25.9320  -11.7590   20.2860 N   0  0  0  0  0  0  0  0  0  0  0  0
  -23.9320  -10.5580   20.9030 C   0  0  0  0  0  0  0  0  0  0  0  0
  -24.3670   -9.5880   21.8320 C   0  0  0  0  0  3  0  0  0  0  0  0
  -23.6310   -8.3980   22.0240 C   0  0  0  0  0  3  0  0  0  0  0  0
  -22.4440   -8.1720   21.2880 C   0  0  0  0  0  0  0  0  0  0  0  0
  -22.0270   -9.1310   20.3470 C   0  0  0  0  0  3  0  0  0  0  0  0
  -22.7650  -10.3110   20.1520 C   0  0  0  0  0  3  0  0  0  0  0  0
  -21.6780   -7.0350   21.3910 O   0  0  0  0  0  0  0  0  0  0  0  0
  -21.5780   -6.3400   22.5690 C   0  0  0  0  0  0  0  0  0  0  0  0
  -21.0930   -6.9430   23.7500 C   0  0  0  0  0  3  0  0  0  0  0  0
  -20.9400   -6.1740   24.9210 C   0  0  0  0  0  3  0  0  0  0  0  0
  -21.2620   -4.8030   24.9110 C   0  0  0  0  0  0  0  0  0  0  0  0
  -21.7390   -4.2000   23.7350 C   0  0  0  0  0  3  0  0  0  0  0  0
  -21.8930   -4.9660   22.5660 C   0  0  0  0  0  0  0  0  0  0  0  0
  -22.3330   -4.3760   21.4290 F   0  0  0  0  0  0  0  0  0  0  0  0
  -21.1070   -4.0620   26.0340 F   0  0  0  0  0  0  0  0  0  0  0  0
  -22.8820  -13.6650   21.2100 C   0  0  0  0  0  0  0  0  0  0  0  0
  -22.2170  -12.9640   22.1220 N   0  0  0  0  0  0  0  0  0  0  0  0
  -22.4210  -14.7070   20.7460 O   0  0  0  0  0  0  0  0  0  0  0  0
  -22.6060  -12.1210   22.5170 H   0  0  0  0  0  0  0  0  0  0  0  0
  -21.3080  -13.2750   22.4290 H   0  0  0  0  0  0  0  0  0  0  0  0
  -25.4650  -15.3060   20.2160 N   0  0  0  0  0  0  0  0  0  0  0  0
  -24.6900  -15.9470   20.3420 H   0  0  0  0  0  0  0  0  0  0  0  0
  -26.2450  -15.7200   19.7260 H   0  0  0  0  0  0  0  0  0  0  0  0
  -29.4510  -24.0510   19.9150 C   0  0  0  0  0  3  0  0  0  0  0  0
  -28.2140  -24.9900   19.5860 C   0  0  0  0  0  3  0  0  0  0  0  0
  -28.3560  -26.4500   19.8090 O   0  0  0  0  0  0  0  0  0  0  0  0
  -24.4630  -31.6070   23.0450 C   0  0  0  0  0  0  0  0  0  0  0  0
  -27.1950  -27.2440   19.8100 C   0  0  0  0  0  0  0  0  0  0  0  0
  -23.2870  -30.2250   21.3710 C   0  0  0  0  0  3  0  0  0  0  0  0
  -24.7710  -28.7670   19.8840 C   0  0  0  0  0  0  0  0  0  0  0  0
  -25.8150  -30.6300   21.1730 C   0  0  0  0  0  2  0  0  0  0  0  0
  -25.9310  -29.2770   20.4830 C   0  0  0  0  0  0  0  0  0  0  0  0
  -27.1450  -28.5280   20.4350 C   0  0  0  0  0  3  0  0  0  0  0  0
  -26.0060  -26.7810   19.1980 C   0  0  0  0  0  3  0  0  0  0  0  0
  -24.8110  -27.5250   19.2350 C   0  0  0  0  0  3  0  0  0  0  0  0
  -23.5100  -29.6030   19.9670 C   0  0  0  0  0  2  0  0  0  0  0  0
  -24.5420  -30.8380   21.9190 N   0  0  0  0  0  0  0  0  0  0  0  0
  -23.3750  -31.8300   23.5990 O   0  0  0  0  0  0  0  0  0  0  0  0
  -22.6660  -29.1550   22.3020 C   0  0  0  0  0  0  0  0  0  0  0  0
  -21.3490  -28.9300   22.1710 N   0  0  0  0  0  0  0  0  0  0  0  0
  -23.3720  -28.5350   23.1010 O   0  0  0  0  0  0  0  0  0  0  0  0
  -20.8380  -29.4900   21.5030 H   0  0  0  0  0  0  0  0  0  0  0  0
  -18.0170  -27.6090   22.6600 C   0  0  0  0  0  0  0  0  0  0  0  0
  -20.5680  -27.9400   22.9140 C   0  0  0  0  0  3  0  0  0  0  0  0
  -20.7080  -26.5320   22.2910 C   0  0  0  0  0  2  0  0  0  0  0  0
  -19.6060  -26.2090   21.2760 C   0  0  0  0  0  2  0  0  0  0  0  0
  -18.2270  -26.2890   21.9370 C   0  0  0  0  0  2  0  0  0  0  0  0
  -19.1150  -28.3910   23.1050 C   0  0  0  0  0  0  0  0  0  0  0  0
  -18.8630  -29.6250   23.7430 C   0  0  0  0  0  3  0  0  0  0  0  0
  -17.5440  -30.0790   23.9370 C   0  0  0  0  0  3  0  0  0  0  0  0
  -16.4610  -29.2950   23.5050 C   0  0  0  0  0  3  0  0  0  0  0  0
  -16.6970  -28.0620   22.8730 C   0  0  0  0  0  3  0  0  0  0  0  0
  -25.7300  -32.2610   23.6770 C   0  0  0  0  0  3  0  0  0  0  0  0
  -26.2720  -31.4750   24.9340 C   0  0  1  0  0  0  0  0  0  0  0  0
  -25.1900  -31.1810   26.0010 C   0  0  0  0  0  1  0  0  0  0  0  0
  -26.8910  -30.1250   24.5060 C   0  0  0  0  0  1  0  0  0  0  0  0
  -27.4010  -32.2860   25.6100 C   0  0  0  0  0  1  0  0  0  0  0  0
  -25.3820  -33.6410   24.0410 N   0  0  0  0  0  0  0  0  0  0  0  0
  -25.6700  -34.7200   23.3010 C   0  0  0  0  0  0  0  0  0  0  0  0
  -26.3240  -34.6590   22.2570 O   0  0  0  0  0  0  0  0  0  0  0  0
  -24.7950  -33.7600   24.8550 H   0  0  0  0  0  0  0  0  0  0  0  0
  -23.8720  -36.4600   23.0230 C   0  0  0  0  0  1  0  0  0  0  0  0
  -25.1480  -36.0840   23.7950 C   0  0  0  0  0  3  0  0  0  0  0  0
  -27.2690  -37.0310   24.5930 C   0  0  0  0  0  1  0  0  0  0  0  0
  -26.1420  -37.1730   23.6740 N   0  0  0  0  0  0  0  0  0  0  0  0
  -25.7090  -38.0770   23.8390 H   0  0  0  0  0  0  0  0  0  0  0  0
  1  8  1  0
  1  3  2  0
  2  1  1  0
  2 50  1  0
  4  2  1  0
  5  6  2  0
  5  8  1  0
  6 10  1  0
  7  9  1  0
  8  7  2  0
  9 11  1  0
 10 20  1  0
 10  9  2  0
 12 20  1  0
 13 18  1  0
 14 15  1  0
 14 13  1  0
 16 15  1  0
 16 25  1  0
 16 17  1  0
 18 12  1  0
 18 17  1  0
 19 12  2  0
 20 21  1  0
 22 23  2  0
 23 42  1  0
 24 23  1  0
 24 27  1  0
 25 26  1  0
 25 22  1  0
 26 24  2  0
 27 28  1  0
 28 29  2  0
 30 33  1  0
 30 29  1  0
 31 30  2  0
 32 31  1  0
 32 27  2  0
 33 34  1  0
 34 35  1  0
 35 36  2  0
 37 36  1  0
 37 41  1  0
 38 37  2  0
 39 34  2  0
 39 38  1  0
 40 39  1  0
 42 43  1  0
 43 46  1  0
 43 45  1  0
 44 42  2  0
 47 48  1  0
 47 22  1  0
 49 47  1  0
 51 52  1  0
 51 50  2  0
 52 54  1  0
 53 64  2  0
 54 59  1  0
 55 63  1  0
 55 65  1  0
 56 62  1  0
 56 58  1  0
 57 63  1  0
 58 57  1  0
 59 58  2  0
 60 61  1  0
 60 54  2  0
 61 56  2  0
 62 55  1  0
 63 53  1  0
 65 67  2  0
 66 65  1  0
 68 66  1  0
 69 78  2  0
 69 74  1  0
 70 66  1  0
 70 74  1  0
 71 70  1  0
 72 73  1  0
 72 71  1  0
 73 69  1  0
 74 75  2  0
 75 76  1  0
 77 76  2  0
 78 77  1  0
 79 53  1  0
 79 84  1  0
 79 80  1  0
 80 83  1  1
 80 81  1  0
 82 80  1  0
 84 87  1  0
 85 89  1  0
 85 84  1  0
 86 85  2  0
 89 88  1  0
 91 89  1  0
 91 92  1  0
 91 90  1  0
M  ISO  4  12 100  20 100  51 101  52 101
M  END
>  <TORSDO>  (92) 
F 19

>  <SCORE>  (92) 
-13.090

>  <name>  (92) 
95

>  <ligand_id>  (92) 
95

>  <original_smiles>  (92) 
[H]c1c([H])c([H])c2c(c1[H])C([H])([H])C([H])([H])C([H])([H])C2([H])N([H])C(=O)C1([H])N(C(=O)C([H])(N([H])C(=O)C([H])(N([H])C([H])([H])[H])C([H])([H])[H])C(C([H])([H])[H])(C([H])([H])[H])C([H])([H])[H])C([H])([H])c2c([H])c(OC([H])([H])C([H])([H])N([H])C(=O)c3c([H])c([H])c(N([H])C(=O)N4C([H])([H])C([H])([H])C([H])([H])C([H])(n5nc(-c6c([H])c([H])c(Oc7c([H])c([H])c(F)c([H])c7F)c([H])c6[H])c(C(=O)N([H])[H])c5N([H])[H])C4([H])[H])c(C([H])([H])[H])c3[H])c([H])c([H])c2C1([H])[H]

>  <smiles>  (92) 
[H]c1c([H])c([H])c2c(c1[H])C([H])([H])C([H])([H])C([H])([H])C2([H])N([H])C(=O)C1([H])N(C(=O)C([H])(N([H])C(=O)C([H])(N([H])C([H])([H])[H])C([H])([H])[H])C(C([H])([H])[H])(C([H])([H])[H])C([H])([H])[H])C([H])([H])c2c([H])c(OC([H])([H])C([H])([H])N([H])C(=O)c3c([H])c([H])c(N([H])C(=O)N4C([H])([H])C([H])([H])C([H])([H])C([H])(n5nc(-c6c([H])c([H])c(Oc7c([H])c([H])c(F)c([H])c7F)c([H])c6[H])c(C(=O)N([H])[H])c5N([H])[H])C4([H])[H])c(C([H])([H])[H])c3[H])c([H])c([H])c2C1([H])[H]

$$$$
