0:0:0
     RDKit          3D

 87 94  0  0  1  0  0  0  0  0999 V2000
  -28.6070  -21.6960   20.2630 C   0  0  0  0  0  3  0  0  0  0  0  0
  -29.6290  -20.3430   20.1870 C   0  0  0  0  0  3  0  0  0  0  0  0
  -29.1930  -18.7570   20.4080 C   0  0  0  0  0  0  0  0  0  0  0  0
  -30.0440  -17.6300   20.2640 N   0  0  0  0  0  0  0  0  0  0  0  0
  -28.0230  -18.5510   20.7330 O   0  0  0  0  0  0  0  0  0  0  0  0
  -31.0140  -17.7260   19.9890 H   0  0  0  0  0  0  0  0  0  0  0  0
  -30.4950  -14.9720   20.2650 C   0  0  0  0  0  0  0  0  0  0  0  0
  -30.3840  -12.6300   19.3030 C   0  0  0  0  0  2  0  0  0  0  0  0
  -29.4320  -12.6090   18.0830 C   0  0  0  0  0  2  0  0  0  0  0  0
  -27.9760  -12.3940   18.5350 C   0  0  0  0  0  2  0  0  0  0  0  0
  -27.5870  -13.2970   19.7350 C   0  0  0  0  0  3  0  0  0  0  0  0
  -28.6580  -13.2910   20.8480 C   0  0  0  0  0  2  0  0  0  0  0  0
  -29.9210  -13.7050   20.2240 N   0  0  0  0  0  0  0  0  0  0  0  0
  -31.6890  -15.0760   19.9600 O   0  0  0  0  0  0  0  0  0  0  0  0
  -29.6830  -16.1190   20.4510 N   0  0  0  0  0  0  0  0  0  0  0  0
  -28.6960  -16.0270   20.6480 H   0  0  0  0  0  0  0  0  0  0  0  0
  -25.2090  -13.8590   20.4950 C   0  0  0  0  0  0  0  0  0  0  0  0
  -24.1520  -13.0760   20.8720 C   0  0  0  0  0  0  0  0  0  0  0  0
  -24.6260  -11.7290   20.8340 C   0  0  0  0  0  0  0  0  0  0  0  0
  -26.2570  -12.9900   20.2460 N   0  0  0  0  0  0  0  0  0  0  0  0
  -25.9160  -11.7020   20.5120 N   0  0  0  0  0  0  0  0  0  0  0  0
  -23.9090  -10.4620   21.0230 C   0  0  0  0  0  0  0  0  0  0  0  0
  -24.3480   -9.4940   21.9520 C   0  0  0  0  0  3  0  0  0  0  0  0
  -23.6280   -8.2940   22.1310 C   0  0  0  0  0  3  0  0  0  0  0  0
  -22.4530   -8.0510   21.3790 C   0  0  0  0  0  0  0  0  0  0  0  0
  -22.0340   -9.0060   20.4360 C   0  0  0  0  0  3  0  0  0  0  0  0
  -22.7560  -10.1980   20.2560 C   0  0  0  0  0  3  0  0  0  0  0  0
  -21.7060   -6.9010   21.4660 O   0  0  0  0  0  0  0  0  0  0  0  0
  -21.6600   -6.1590   22.6190 C   0  0  0  0  0  0  0  0  0  0  0  0
  -21.2330   -6.7140   23.8440 C   0  0  0  0  0  3  0  0  0  0  0  0
  -21.1330   -5.9000   24.9910 C   0  0  0  0  0  3  0  0  0  0  0  0
  -21.4510   -4.5300   24.9120 C   0  0  0  0  0  0  0  0  0  0  0  0
  -21.8700   -3.9740   23.6900 C   0  0  0  0  0  3  0  0  0  0  0  0
  -21.9710   -4.7860   22.5470 C   0  0  0  0  0  0  0  0  0  0  0  0
  -22.3560   -4.2420   21.3680 F   0  0  0  0  0  0  0  0  0  0  0  0
  -21.3480   -3.7450   26.0090 F   0  0  0  0  0  0  0  0  0  0  0  0
  -22.7550  -13.5450   21.1520 C   0  0  0  0  0  0  0  0  0  0  0  0
  -22.0380  -12.8450   22.0250 N   0  0  0  0  0  0  0  0  0  0  0  0
  -22.3080  -14.5640   20.6310 O   0  0  0  0  0  0  0  0  0  0  0  0
  -22.4140  -12.0200   22.4680 H   0  0  0  0  0  0  0  0  0  0  0  0
  -21.1010  -13.1430   22.2540 H   0  0  0  0  0  0  0  0  0  0  0  0
  -25.3580  -15.2320   20.3250 N   0  0  0  0  0  0  0  0  0  0  0  0
  -24.5800  -15.8700   20.4370 H   0  0  0  0  0  0  0  0  0  0  0  0
  -26.1900  -15.6900   19.9770 H   0  0  0  0  0  0  0  0  0  0  0  0
  -29.0430  -23.3370   20.2200 C   0  0  0  0  0  3  0  0  0  0  0  0
  -27.9740  -24.6460   20.1800 C   0  0  0  0  0  3  0  0  0  0  0  0
  -28.2580  -26.1820   20.2160 O   0  0  0  0  0  0  0  0  0  0  0  0
  -24.6560  -31.8920   23.2370 C   0  0  0  0  0  0  0  0  0  0  0  0
  -27.1930  -27.1600   20.1860 C   0  0  0  0  0  0  0  0  0  0  0  0
  -23.4380  -30.5010   21.6080 C   0  0  0  0  0  3  0  0  0  0  0  0
  -24.8670  -28.9110   20.1800 C   0  0  0  0  0  0  0  0  0  0  0  0
  -25.9940  -30.7500   21.4230 C   0  0  0  0  0  2  0  0  0  0  0  0
  -26.0550  -29.3550   20.7740 C   0  0  0  0  0  0  0  0  0  0  0  0
  -27.2180  -28.4930   20.7610 C   0  0  0  0  0  3  0  0  0  0  0  0
  -25.9720  -26.8150   19.5640 C   0  0  0  0  0  3  0  0  0  0  0  0
  -24.8350  -27.6520   19.5660 C   0  0  0  0  0  3  0  0  0  0  0  0
  -23.6480  -29.8180   20.2300 C   0  0  0  0  0  2  0  0  0  0  0  0
  -24.7180  -31.0680   22.1450 N   0  0  0  0  0  0  0  0  0  0  0  0
  -23.5760  -32.1830   23.7730 O   0  0  0  0  0  0  0  0  0  0  0  0
  -22.7610  -29.4970   22.5770 C   0  0  0  0  0  0  0  0  0  0  0  0
  -21.4320  -29.3300   22.4560 N   0  0  0  0  0  0  0  0  0  0  0  0
  -23.4330  -28.8730   23.4010 O   0  0  0  0  0  0  0  0  0  0  0  0
  -20.9450  -29.8890   21.7690 H   0  0  0  0  0  0  0  0  0  0  0  0
  -18.0510  -28.1290   22.9710 C   0  0  0  0  0  0  0  0  0  0  0  0
  -20.6100  -28.3970   23.2330 C   0  0  0  0  0  3  0  0  0  0  0  0
  -20.7140  -26.9610   22.6720 C   0  0  0  0  0  2  0  0  0  0  0  0
  -19.6120  -26.6300   21.6610 C   0  0  0  0  0  2  0  0  0  0  0  0
  -18.2300  -26.7760   22.3040 C   0  0  0  0  0  2  0  0  0  0  0  0
  -19.1690  -28.8970   23.3940 C   0  0  0  0  0  0  0  0  0  0  0  0
  -18.9470  -30.1620   23.9810 C   0  0  0  0  0  3  0  0  0  0  0  0
  -17.6400  -30.6610   24.1440 C   0  0  0  0  0  3  0  0  0  0  0  0
  -16.5370  -29.8900   23.7370 C   0  0  0  0  0  3  0  0  0  0  0  0
  -16.7430  -28.6250   23.1570 C   0  0  0  0  0  3  0  0  0  0  0  0
  -25.9430  -32.5230   23.8550 C   0  0  0  0  0  3  0  0  0  0  0  0
  -26.4680  -31.7440   25.1240 C   0  0  1  0  0  0  0  0  0  0  0  0
  -25.3850  -31.5030   26.2030 C   0  0  0  0  0  1  0  0  0  0  0  0
  -27.0440  -30.3670   24.7200 C   0  0  0  0  0  1  0  0  0  0  0  0
  -27.6270  -32.5320   25.7790 C   0  0  0  0  0  1  0  0  0  0  0  0
  -25.6340  -33.9190   24.2050 N   0  0  0  0  0  0  0  0  0  0  0  0
  -25.9350  -34.9810   23.4470 C   0  0  0  0  0  0  0  0  0  0  0  0
  -26.5700  -34.8900   22.3920 O   0  0  0  0  0  0  0  0  0  0  0  0
  -25.0730  -34.0640   25.0310 H   0  0  0  0  0  0  0  0  0  0  0  0
  -24.1780  -36.7660   23.1890 C   0  0  0  0  0  1  0  0  0  0  0  0
  -25.4610  -36.3660   23.9360 C   0  0  0  0  0  3  0  0  0  0  0  0
  -27.6280  -37.2660   24.6630 C   0  0  0  0  0  1  0  0  0  0  0  0
  -26.4790  -37.4280   23.7750 N   0  0  0  0  0  0  0  0  0  0  0  0
  -26.0730  -38.3440   23.9460 H   0  0  0  0  0  0  0  0  0  0  0  0
  2  1  2  0
  2  3  1  0
  3  5  2  0
  4  3  1  0
  4 15  1  0
  6  4  1  0
  7 15  1  0
  8 13  1  0
  9 10  1  0
  9  8  1  0
 11 10  1  0
 11 20  1  0
 11 12  1  0
 13  7  1  0
 13 12  1  0
 14  7  2  0
 15 16  1  0
 17 18  2  0
 18 37  1  0
 19 18  1  0
 19 22  1  0
 20 17  1  0
 20 21  1  0
 21 19  2  0
 22 23  1  0
 23 24  2  0
 25 28  1  0
 25 24  1  0
 26 25  2  0
 27 26  1  0
 27 22  2  0
 28 29  1  0
 29 30  1  0
 30 31  2  0
 32 31  1  0
 32 36  1  0
 33 32  2  0
 34 29  2  0
 34 33  1  0
 35 34  1  0
 37 38  1  0
 38 41  1  0
 38 40  1  0
 39 37  2  0
 42 43  1  0
 42 17  1  0
 44 42  1  0
 45  1  1  0
 46 47  1  0
 46 45  2  0
 48 59  2  0
 49 47  1  0
 49 54  1  0
 50 58  1  0
 50 60  1  0
 51 57  1  0
 51 53  1  0
 52 58  1  0
 53 52  1  0
 54 53  2  0
 55 56  1  0
 55 49  2  0
 56 51  2  0
 57 50  1  0
 58 48  1  0
 60 62  2  0
 61 60  1  0
 63 61  1  0
 64 73  2  0
 64 69  1  0
 65 61  1  0
 65 69  1  0
 66 65  1  0
 67 68  1  0
 67 66  1  0
 68 64  1  0
 69 70  2  0
 70 71  1  0
 72 71  2  0
 73 72  1  0
 74 48  1  0
 74 79  1  0
 74 75  1  0
 75 78  1  1
 75 76  1  0
 77 75  1  0
 79 82  1  0
 80 84  1  0
 80 79  1  0
 81 80  2  0
 84 83  1  0
 86 84  1  0
 86 87  1  0
 86 85  1  0
M  ISO  4   7 100  15 100  46 101  47 101
M  END
>  <TORSDO>  (1) 
F 20

>  <SCORE>  (1) 
-14.800

>  <name>  (1) 
0

>  <ligand_id>  (1) 
0

>  <original_smiles>  (1) 
[H]c1c([H])c([H])c2c(c1[H])C([H])([H])C([H])([H])C([H])([H])C2([H])N([H])C(=O)C1([H])N(C(=O)C([H])(N([H])C(=O)C([H])(N([H])C([H])([H])[H])C([H])([H])[H])C(C([H])([H])[H])(C([H])([H])[H])C([H])([H])[H])C([H])([H])c2c([H])c(OC([H])([H])C([H])([H])C([H])([H])C([H])([H])C(=O)N([H])N([H])C(=O)N3C([H])([H])C([H])([H])C([H])([H])C([H])(n4nc(-c5c([H])c([H])c(Oc6c([H])c([H])c(F)c([H])c6F)c([H])c5[H])c(C(=O)N([H])[H])c4N([H])[H])C3([H])[H])c([H])c([H])c2C1([H])[H]

>  <smiles>  (1) 
[H]c1c([H])c([H])c2c(c1[H])C([H])([H])C([H])([H])C([H])([H])C2([H])N([H])C(=O)C1([H])N(C(=O)C([H])(N([H])C(=O)C([H])(N([H])C([H])([H])[H])C([H])([H])[H])C(C([H])([H])[H])(C([H])([H])[H])C([H])([H])[H])C([H])([H])c2c([H])c(OC([H])([H])C([H])([H])C([H])([H])C([H])([H])C(=O)N([H])N([H])C(=O)N3C([H])([H])C([H])([H])C([H])([H])C([H])(n4nc(-c5c([H])c([H])c(Oc6c([H])c([H])c(F)c([H])c6F)c([H])c5[H])c(C(=O)N([H])[H])c4N([H])[H])C3([H])[H])c([H])c([H])c2C1([H])[H]

$$$$
1:0:0
     RDKit          3D

 91 99  0  0  1  0  0  0  0  0999 V2000
  -30.1790  -21.6710   20.3980 C   0  0  0  0  0  0  0  0  0  0  0  0
  -29.1730  -22.5860   20.2460 N   0  0  0  0  0  0  0  0  0  0  0  0
  -31.3280  -22.0690   20.5980 O   0  0  0  0  0  0  0  0  0  0  0  0
  -28.2420  -22.2410   20.0600 H   0  0  0  0  0  0  0  0  0  0  0  0
  -31.0220  -19.3220   19.7700 C   0  0  0  0  0  3  0  0  0  0  0  0
  -28.8810  -19.4340   20.8510 C   0  0  0  0  0  3  0  0  0  0  0  0
  -31.0010  -17.8960   19.8140 C   0  0  0  0  0  3  0  0  0  0  0  0
  -28.8560  -18.0010   20.8960 C   0  0  0  0  0  3  0  0  0  0  0  0
  -29.9810  -20.1400   20.2980 C   0  0  0  0  0  0  0  0  0  0  0  0
  -29.9200  -17.1870   20.4050 C   0  0  0  0  0  0  0  0  0  0  0  0
  -30.5960  -14.6910   20.0440 C   0  0  0  0  0  0  0  0  0  0  0  0
  -30.3130  -12.4890   18.9190 C   0  0  0  0  0  2  0  0  0  0  0  0
  -29.2970  -12.6830   17.7720 C   0  0  0  0  0  2  0  0  0  0  0  0
  -27.8510  -12.5140   18.2840 C   0  0  0  0  0  2  0  0  0  0  0  0
  -27.5820  -13.3230   19.5820 C   0  0  0  0  0  3  0  0  0  0  0  0
  -28.7050  -13.1070   20.6210 C   0  0  0  0  0  2  0  0  0  0  0  0
  -29.9790  -13.4670   19.9750 N   0  0  0  0  0  0  0  0  0  0  0  0
  -31.7270  -14.8550   19.5770 O   0  0  0  0  0  0  0  0  0  0  0  0
  -29.8260  -15.7250   20.5120 N   0  0  0  0  0  0  0  0  0  0  0  0
  -28.9720  -15.3980   20.9420 H   0  0  0  0  0  0  0  0  0  0  0  0
  -25.2420  -13.9130   20.4650 C   0  0  0  0  0  0  0  0  0  0  0  0
  -24.1930  -13.1380   20.8740 C   0  0  0  0  0  0  0  0  0  0  0  0
  -24.6380  -11.7850   20.7710 C   0  0  0  0  0  0  0  0  0  0  0  0
  -26.2610  -13.0330   20.1350 N   0  0  0  0  0  0  0  0  0  0  0  0
  -25.9070  -11.7450   20.3790 N   0  0  0  0  0  0  0  0  0  0  0  0
  -23.9130  -10.5230   20.9670 C   0  0  0  0  0  0  0  0  0  0  0  0
  -24.3600   -9.5490   21.8870 C   0  0  0  0  0  3  0  0  0  0  0  0
  -23.6350   -8.3520   22.0710 C   0  0  0  0  0  3  0  0  0  0  0  0
  -22.4500   -8.1180   21.3330 C   0  0  0  0  0  0  0  0  0  0  0  0
  -22.0230   -9.0800   20.4020 C   0  0  0  0  0  3  0  0  0  0  0  0
  -22.7480  -10.2690   20.2160 C   0  0  0  0  0  3  0  0  0  0  0  0
  -21.6980   -6.9730   21.4260 O   0  0  0  0  0  0  0  0  0  0  0  0
  -21.6200   -6.2550   22.5930 C   0  0  0  0  0  0  0  0  0  0  0  0
  -21.1390   -6.8290   23.7890 C   0  0  0  0  0  3  0  0  0  0  0  0
  -21.0120   -6.0360   24.9480 C   0  0  0  0  0  3  0  0  0  0  0  0
  -21.3520   -4.6700   24.9090 C   0  0  0  0  0  0  0  0  0  0  0  0
  -21.8260   -4.0960   23.7160 C   0  0  0  0  0  3  0  0  0  0  0  0
  -21.9560   -4.8870   22.5590 C   0  0  0  0  0  0  0  0  0  0  0  0
  -22.3930   -4.3240   21.4070 F   0  0  0  0  0  0  0  0  0  0  0  0
  -21.2220   -3.9060   26.0180 F   0  0  0  0  0  0  0  0  0  0  0  0
  -22.8200  -13.6170   21.2470 C   0  0  0  0  0  0  0  0  0  0  0  0
  -22.1420  -12.9000   22.1360 N   0  0  0  0  0  0  0  0  0  0  0  0
  -22.3600  -14.6620   20.7880 O   0  0  0  0  0  0  0  0  0  0  0  0
  -22.5270  -12.0570   22.5340 H   0  0  0  0  0  0  0  0  0  0  0  0
  -21.2220  -13.2040   22.4250 H   0  0  0  0  0  0  0  0  0  0  0  0
  -25.4090  -15.2880   20.3240 N   0  0  0  0  0  0  0  0  0  0  0  0
  -24.6500  -15.9380   20.4920 H   0  0  0  0  0  0  0  0  0  0  0  0
  -26.2290  -15.7330   19.9330 H   0  0  0  0  0  0  0  0  0  0  0  0
  -29.3780  -24.0850   20.3590 C   0  0  0  0  0  3  0  0  0  0  0  0
  -28.1920  -25.0630   19.9560 C   0  0  0  0  0  3  0  0  0  0  0  0
  -28.3730  -26.5180   20.1900 O   0  0  0  0  0  0  0  0  0  0  0  0
  -24.6130  -31.8710   23.2430 C   0  0  0  0  0  0  0  0  0  0  0  0
  -27.2450  -27.3550   20.1430 C   0  0  0  0  0  0  0  0  0  0  0  0
  -23.4170  -30.4890   21.5810 C   0  0  0  0  0  3  0  0  0  0  0  0
  -24.8730  -28.9560   20.1450 C   0  0  0  0  0  0  0  0  0  0  0  0
  -25.9550  -30.8150   21.4100 C   0  0  0  0  0  2  0  0  0  0  0  0
  -26.0380  -29.4440   20.7490 C   0  0  0  0  0  0  0  0  0  0  0  0
  -27.2270  -28.6550   20.7390 C   0  0  0  0  0  3  0  0  0  0  0  0
  -26.0540  -26.9220   19.5140 C   0  0  0  0  0  3  0  0  0  0  0  0
  -24.8820  -27.7010   19.5210 C   0  0  0  0  0  3  0  0  0  0  0  0
  -23.6340  -29.8270   20.1960 C   0  0  0  0  0  2  0  0  0  0  0  0
  -24.6810  -31.0750   22.1350 N   0  0  0  0  0  0  0  0  0  0  0  0
  -23.5260  -32.1430   23.7750 O   0  0  0  0  0  0  0  0  0  0  0  0
  -22.7510  -29.4630   22.5280 C   0  0  0  0  0  0  0  0  0  0  0  0
  -21.4260  -29.2850   22.3910 N   0  0  0  0  0  0  0  0  0  0  0  0
  -23.4260  -28.8260   23.3420 O   0  0  0  0  0  0  0  0  0  0  0  0
  -20.9430  -29.8500   21.7070 H   0  0  0  0  0  0  0  0  0  0  0  0
  -18.0420  -28.1010   22.8730 C   0  0  0  0  0  0  0  0  0  0  0  0
  -20.6020  -28.3400   23.1450 C   0  0  0  0  0  3  0  0  0  0  0  0
  -20.6960  -26.9180   22.5460 C   0  0  0  0  0  2  0  0  0  0  0  0
  -19.5890  -26.6190   21.5270 C   0  0  0  0  0  2  0  0  0  0  0  0
  -18.2090  -26.7610   22.1750 C   0  0  0  0  0  2  0  0  0  0  0  0
  -19.1660  -28.8490   23.3140 C   0  0  0  0  0  0  0  0  0  0  0  0
  -18.9550  -30.1030   23.9260 C   0  0  0  0  0  3  0  0  0  0  0  0
  -17.6540  -30.6100   24.1030 C   0  0  0  0  0  3  0  0  0  0  0  0
  -16.5450  -29.8590   23.6770 C   0  0  0  0  0  3  0  0  0  0  0  0
  -16.7390  -28.6060   23.0690 C   0  0  0  0  0  3  0  0  0  0  0  0
  -25.8930  -32.4950   23.8780 C   0  0  0  0  0  3  0  0  0  0  0  0
  -26.3930  -31.7180   25.1580 C   0  0  1  0  0  0  0  0  0  0  0  0
  -25.2870  -31.4800   26.2130 C   0  0  0  0  0  1  0  0  0  0  0  0
  -26.9790  -30.3410   24.7660 C   0  0  0  0  0  1  0  0  0  0  0  0
  -27.5370  -32.5080   25.8370 C   0  0  0  0  0  1  0  0  0  0  0  0
  -25.5860  -33.8940   24.2130 N   0  0  0  0  0  0  0  0  0  0  0  0
  -25.9070  -34.9460   23.4480 C   0  0  0  0  0  0  0  0  0  0  0  0
  -26.5640  -34.8430   22.4090 O   0  0  0  0  0  0  0  0  0  0  0  0
  -25.0030  -34.0500   25.0210 H   0  0  0  0  0  0  0  0  0  0  0  0
  -24.1630  -36.7300   23.1290 C   0  0  0  0  0  1  0  0  0  0  0  0
  -25.4260  -36.3340   23.9110 C   0  0  0  0  0  3  0  0  0  0  0  0
  -27.5720  -37.2370   24.6910 C   0  0  0  0  0  1  0  0  0  0  0  0
  -26.4490  -37.3920   23.7680 N   0  0  0  0  0  0  0  0  0  0  0  0
  -26.0410  -38.3110   23.9170 H   0  0  0  0  0  0  0  0  0  0  0  0
  1  3  2  0
  2 49  1  0
  2  1  1  0
  4  2  1  0
  5  7  2  0
  5  9  1  0
  6  8  1  0
  7 10  1  0
  9  1  1  0
  9  6  2  0
 10 19  1  0
 10  8  2  0
 11 19  1  0
 12 17  1  0
 13 14  1  0
 13 12  1  0
 15 14  1  0
 15 24  1  0
 15 16  1  0
 17 11  1  0
 17 16  1  0
 18 11  2  0
 19 20  1  0
 21 22  2  0
 22 41  1  0
 23 22  1  0
 23 26  1  0
 24 25  1  0
 24 21  1  0
 25 23  2  0
 26 27  1  0
 27 28  2  0
 29 32  1  0
 29 28  1  0
 30 29  2  0
 31 30  1  0
 31 26  2  0
 32 33  1  0
 33 34  1  0
 34 35  2  0
 36 35  1  0
 36 40  1  0
 37 36  2  0
 38 33  2  0
 38 37  1  0
 39 38  1  0
 41 42  1  0
 42 45  1  0
 42 44  1  0
 43 41  2  0
 46 21  1  0
 46 47  1  0
 48 46  1  0
 50 51  1  0
 50 49  2  0
 52 63  2  0
 53 51  1  0
 53 58  1  0
 54 62  1  0
 54 64  1  0
 55 61  1  0
 55 57  1  0
 56 62  1  0
 57 56  1  0
 58 57  2  0
 59 60  1  0
 59 53  2  0
 60 55  2  0
 61 54  1  0
 62 52  1  0
 64 66  2  0
 65 64  1  0
 67 65  1  0
 68 77  2  0
 68 73  1  0
 69 65  1  0
 69 73  1  0
 70 69  1  0
 71 72  1  0
 71 70  1  0
 72 68  1  0
 73 74  2  0
 74 75  1  0
 76 75  2  0
 77 76  1  0
 78 52  1  0
 78 83  1  0
 78 79  1  0
 79 82  1  1
 79 80  1  0
 81 79  1  0
 83 86  1  0
 84 88  1  0
 84 83  1  0
 85 84  2  0
 88 87  1  0
 90 88  1  0
 90 91  1  0
 90 89  1  0
M  ISO  4  11 100  19 100  50 101  51 101
M  END
>  <TORSDO>  (2) 
F 19

>  <SCORE>  (2) 
-13.884

>  <name>  (2) 
1

>  <ligand_id>  (2) 
1

>  <original_smiles>  (2) 
[H]c1c([H])c([H])c2c(c1[H])C([H])([H])C([H])([H])C([H])([H])C2([H])N([H])C(=O)C1([H])N(C(=O)C([H])(N([H])C(=O)C([H])(N([H])C([H])([H])[H])C([H])([H])[H])C(C([H])([H])[H])(C([H])([H])[H])C([H])([H])[H])C([H])([H])c2c([H])c(OC([H])([H])C([H])([H])N([H])C(=O)c3c([H])c([H])c(N([H])C(=O)N4C([H])([H])C([H])([H])C([H])([H])C([H])(n5nc(-c6c([H])c([H])c(Oc7c([H])c([H])c(F)c([H])c7F)c([H])c6[H])c(C(=O)N([H])[H])c5N([H])[H])C4([H])[H])c([H])c3[H])c([H])c([H])c2C1([H])[H]

>  <smiles>  (2) 
[H]c1c([H])c([H])c2c(c1[H])C([H])([H])C([H])([H])C([H])([H])C2([H])N([H])C(=O)C1([H])N(C(=O)C([H])(N([H])C(=O)C([H])(N([H])C([H])([H])[H])C([H])([H])[H])C(C([H])([H])[H])(C([H])([H])[H])C([H])([H])[H])C([H])([H])c2c([H])c(OC([H])([H])C([H])([H])N([H])C(=O)c3c([H])c([H])c(N([H])C(=O)N4C([H])([H])C([H])([H])C([H])([H])C([H])(n5nc(-c6c([H])c([H])c(Oc7c([H])c([H])c(F)c([H])c7F)c([H])c6[H])c(C(=O)N([H])[H])c5N([H])[H])C4([H])[H])c([H])c3[H])c([H])c([H])c2C1([H])[H]

$$$$
2:0:0
     RDKit          3D

 88 96  0  0  1  0  0  0  0  0999 V2000
  -29.4230  -19.8930   20.5590 C   0  0  0  0  0  0  0  0  0  0  0  0
  -29.1680  -21.2530   20.0090 N   0  0  0  0  0  0  0  0  0  0  0  0
  -29.3020  -19.7920   21.7800 O   0  0  0  0  0  0  0  0  0  0  0  0
  -29.2470  -21.2500   19.0000 H   0  0  0  0  0  0  0  0  0  0  0  0
  -30.4150  -15.4330   20.1630 C   0  0  0  0  0  0  0  0  0  0  0  0
  -30.3810  -12.9570   19.3350 C   0  0  0  0  0  2  0  0  0  0  0  0
  -29.4540  -12.6850   18.1220 C   0  0  0  0  0  2  0  0  0  0  0  0
  -28.0180  -12.3790   18.5850 C   0  0  0  0  0  2  0  0  0  0  0  0
  -27.5460  -13.3600   19.6800 C   0  0  0  0  0  3  0  0  0  0  0  0
  -28.6090  -13.6080   20.7810 C   0  0  0  0  0  2  0  0  0  0  0  0
  -29.8280  -14.1220   20.1190 N   0  0  0  0  0  0  0  0  0  0  0  0
  -31.6520  -15.3850   20.0740 O   0  0  0  0  0  0  0  0  0  0  0  0
  -28.0350  -17.8380   18.5500 C   0  0  0  0  0  2  0  0  0  0  0  0
  -29.3650  -18.5320   18.3570 C   0  0  0  0  0  2  0  0  0  0  0  0
  -28.4540  -16.5410   19.2380 C   0  0  0  0  0  2  0  0  0  0  0  0
  -29.9170  -18.3960   19.7730 C   0  0  0  0  0  3  0  0  0  0  0  0
  -29.6720  -16.7420   20.0380 N   0  0  0  0  0  0  0  0  0  0  0  0
  -25.1840  -13.9500   20.4480 C   0  0  0  0  0  0  0  0  0  0  0  0
  -24.1200  -13.1830   20.8220 C   0  0  0  0  0  0  0  0  0  0  0  0
  -24.5860  -11.8320   20.8000 C   0  0  0  0  0  0  0  0  0  0  0  0
  -26.2250  -13.0670   20.2100 N   0  0  0  0  0  0  0  0  0  0  0  0
  -25.8760  -11.7870   20.4900 N   0  0  0  0  0  0  0  0  0  0  0  0
  -23.8570  -10.5760   20.9930 C   0  0  0  0  0  0  0  0  0  0  0  0
  -24.2810   -9.6170   21.9370 C   0  0  0  0  0  3  0  0  0  0  0  0
  -23.5510   -8.4240   22.1190 C   0  0  0  0  0  3  0  0  0  0  0  0
  -22.3830   -8.1850   21.3580 C   0  0  0  0  0  0  0  0  0  0  0  0
  -21.9780   -9.1340   20.4020 C   0  0  0  0  0  3  0  0  0  0  0  0
  -22.7090  -10.3180   20.2180 C   0  0  0  0  0  3  0  0  0  0  0  0
  -21.6240   -7.0450   21.4510 O   0  0  0  0  0  0  0  0  0  0  0  0
  -21.5610   -6.3170   22.6110 C   0  0  0  0  0  0  0  0  0  0  0  0
  -21.1110   -6.8840   23.8230 C   0  0  0  0  0  3  0  0  0  0  0  0
  -20.9960   -6.0810   24.9760 C   0  0  0  0  0  3  0  0  0  0  0  0
  -21.3220   -4.7130   24.9170 C   0  0  0  0  0  0  0  0  0  0  0  0
  -21.7660   -4.1450   23.7100 C   0  0  0  0  0  3  0  0  0  0  0  0
  -21.8830   -4.9460   22.5600 C   0  0  0  0  0  0  0  0  0  0  0  0
  -22.2910   -4.3900   21.3930 F   0  0  0  0  0  0  0  0  0  0  0  0
  -21.2030   -3.9400   26.0220 F   0  0  0  0  0  0  0  0  0  0  0  0
  -22.7250  -13.6690   21.0800 C   0  0  0  0  0  0  0  0  0  0  0  0
  -21.9880  -12.9840   21.9460 N   0  0  0  0  0  0  0  0  0  0  0  0
  -22.2970  -14.6950   20.5510 O   0  0  0  0  0  0  0  0  0  0  0  0
  -22.3470  -12.1560   22.3990 H   0  0  0  0  0  0  0  0  0  0  0  0
  -21.0520  -13.2930   22.1640 H   0  0  0  0  0  0  0  0  0  0  0  0
  -25.3270  -15.3200   20.2600 N   0  0  0  0  0  0  0  0  0  0  0  0
  -24.5480  -15.9590   20.3720 H   0  0  0  0  0  0  0  0  0  0  0  0
  -26.1610  -15.7720   19.9150 H   0  0  0  0  0  0  0  0  0  0  0  0
  -28.9490  -22.8160   20.5850 C   0  0  0  0  0  3  0  0  0  0  0  0
  -28.1640  -24.3180   19.9460 C   0  0  0  0  0  3  0  0  0  0  0  0
  -28.2370  -25.9320   20.3130 O   0  0  0  0  0  0  0  0  0  0  0  0
  -24.6210  -31.8740   23.2320 C   0  0  0  0  0  0  0  0  0  0  0  0
  -27.2060  -27.0090   20.2120 C   0  0  0  0  0  0  0  0  0  0  0  0
  -23.4310  -30.4730   21.5930 C   0  0  0  0  0  3  0  0  0  0  0  0
  -24.8870  -28.8720   20.1670 C   0  0  0  0  0  0  0  0  0  0  0  0
  -25.9950  -30.6950   21.4450 C   0  0  0  0  0  2  0  0  0  0  0  0
  -26.0720  -29.2850   20.7890 C   0  0  0  0  0  0  0  0  0  0  0  0
  -27.2210  -28.3740   20.7880 C   0  0  0  0  0  3  0  0  0  0  0  0
  -25.9910  -26.7480   19.5370 C   0  0  0  0  0  3  0  0  0  0  0  0
  -24.8720  -27.6250   19.5210 C   0  0  0  0  0  3  0  0  0  0  0  0
  -23.6620  -29.7870   20.2180 C   0  0  0  0  0  2  0  0  0  0  0  0
  -24.7040  -31.0420   22.1440 N   0  0  0  0  0  0  0  0  0  0  0  0
  -23.5310  -32.1620   23.7540 O   0  0  0  0  0  0  0  0  0  0  0  0
  -22.7390  -29.4780   22.5610 C   0  0  0  0  0  0  0  0  0  0  0  0
  -21.4100  -29.3100   22.4360 N   0  0  0  0  0  0  0  0  0  0  0  0
  -23.4060  -28.8580   23.3930 O   0  0  0  0  0  0  0  0  0  0  0  0
  -20.9240  -29.8610   21.7420 H   0  0  0  0  0  0  0  0  0  0  0  0
  -18.0330  -28.0780   22.9370 C   0  0  0  0  0  0  0  0  0  0  0  0
  -20.5900  -28.3690   23.2090 C   0  0  0  0  0  3  0  0  0  0  0  0
  -20.7060  -26.9350   22.6420 C   0  0  0  0  0  2  0  0  0  0  0  0
  -19.6110  -26.5980   21.6250 C   0  0  0  0  0  2  0  0  0  0  0  0
  -18.2250  -26.7300   22.2630 C   0  0  0  0  0  2  0  0  0  0  0  0
  -19.1430  -28.8540   23.3660 C   0  0  0  0  0  0  0  0  0  0  0  0
  -18.9060  -30.1130   23.9610 C   0  0  0  0  0  3  0  0  0  0  0  0
  -17.5960  -30.5980   24.1260 C   0  0  0  0  0  3  0  0  0  0  0  0
  -16.5010  -29.8200   23.7100 C   0  0  0  0  0  3  0  0  0  0  0  0
  -16.7200  -28.5620   23.1220 C   0  0  0  0  0  3  0  0  0  0  0  0
  -25.8910  -32.5210   23.8640 C   0  0  0  0  0  3  0  0  0  0  0  0
  -25.5720  -33.9230   24.1920 N   0  0  0  0  0  0  0  0  0  0  0  0
  -25.9020  -34.9820   23.4410 C   0  0  0  0  0  0  0  0  0  0  0  0
  -26.5700  -34.8820   22.4090 O   0  0  0  0  0  0  0  0  0  0  0  0
  -24.9750  -34.0730   24.9920 H   0  0  0  0  0  0  0  0  0  0  0  0
  -24.1720  -36.7820   23.1060 C   0  0  0  0  0  1  0  0  0  0  0  0
  -25.4200  -36.3720   23.9060 C   0  0  0  0  0  3  0  0  0  0  0  0
  -27.5570  -37.2610   24.7260 C   0  0  0  0  0  1  0  0  0  0  0  0
  -26.4510  -37.4260   23.7870 N   0  0  0  0  0  0  0  0  0  0  0  0
  -26.0450  -38.3460   23.9330 H   0  0  0  0  0  0  0  0  0  0  0  0
  -26.3920  -31.7650   25.1570 C   0  0  1  0  0  0  0  0  0  0  0  0
  -25.2880  -31.5430   26.2180 C   0  0  0  0  0  1  0  0  0  0  0  0
  -26.9760  -30.3800   24.7950 C   0  0  0  0  0  1  0  0  0  0  0  0
  -27.5390  -32.5640   25.8200 C   0  0  0  0  0  1  0  0  0  0  0  0
  1  3  2  0
  2  1  1  0
  2 46  1  0
  4  2  1  0
  6 11  1  0
  7  8  1  0
  7  6  1  0
  9  8  1  0
  9 21  1  0
  9 10  1  0
 11  5  1  0
 11 10  1  0
 12  5  2  0
 13 15  1  0
 14 13  1  0
 14 16  1  0
 15 17  1  0
 16 17  1  0
 16  1  1  0
 17  5  1  0
 18 19  2  0
 19 38  1  0
 20 19  1  0
 20 23  1  0
 21 18  1  0
 21 22  1  0
 22 20  2  0
 23 24  1  0
 24 25  2  0
 26 29  1  0
 26 25  1  0
 27 26  2  0
 28 27  1  0
 28 23  2  0
 29 30  1  0
 30 31  1  0
 31 32  2  0
 33 32  1  0
 33 37  1  0
 34 33  2  0
 35 30  2  0
 35 34  1  0
 36 35  1  0
 38 39  1  0
 39 42  1  0
 39 41  1  0
 40 38  2  0
 43 44  1  0
 43 18  1  0
 45 43  1  0
 47 48  1  0
 47 46  2  0
 49 60  2  0
 50 48  1  0
 50 55  1  0
 51 59  1  0
 51 61  1  0
 52 58  1  0
 52 54  1  0
 53 59  1  0
 54 53  1  0
 55 54  2  0
 56 50  2  0
 57 56  1  0
 57 52  2  0
 58 51  1  0
 59 49  1  0
 61 63  2  0
 62 61  1  0
 64 62  1  0
 65 74  2  0
 65 70  1  0
 66 62  1  0
 66 70  1  0
 67 66  1  0
 68 69  1  0
 68 67  1  0
 69 65  1  0
 70 71  2  0
 71 72  1  0
 73 72  2  0
 74 73  1  0
 75 49  1  0
 75 76  1  0
 75 85  1  0
 76 79  1  0
 77 81  1  0
 77 76  1  0
 78 77  2  0
 81 80  1  0
 83 81  1  0
 83 84  1  0
 83 82  1  0
 85 88  1  1
 85 86  1  0
 87 85  1  0
M  ISO  4   5 100  17 100  47 101  48 101
M  END
>  <TORSDO>  (3) 
F 18

>  <SCORE>  (3) 
-16.300

>  <name>  (3) 
2

>  <ligand_id>  (3) 
2

>  <original_smiles>  (3) 
[H]c1c([H])c([H])c2c(c1[H])C([H])([H])C([H])([H])C([H])([H])C2([H])N([H])C(=O)C1([H])N(C(=O)C([H])(N([H])C(=O)C([H])(N([H])C([H])([H])[H])C([H])([H])[H])C(C([H])([H])[H])(C([H])([H])[H])C([H])([H])[H])C([H])([H])c2c([H])c(OC([H])([H])C([H])([H])N([H])C(=O)C3([H])N(C(=O)N4C([H])([H])C([H])([H])C([H])([H])C([H])(n5nc(-c6c([H])c([H])c(Oc7c([H])c([H])c(F)c([H])c7F)c([H])c6[H])c(C(=O)N([H])[H])c5N([H])[H])C4([H])[H])C([H])([H])C([H])([H])C3([H])[H])c([H])c([H])c2C1([H])[H]

>  <smiles>  (3) 
[H]c1c([H])c([H])c2c(c1[H])C([H])([H])C([H])([H])C([H])([H])C2([H])N([H])C(=O)C1([H])N(C(=O)C([H])(N([H])C(=O)C([H])(N([H])C([H])([H])[H])C([H])([H])[H])C(C([H])([H])[H])(C([H])([H])[H])C([H])([H])[H])C([H])([H])c2c([H])c(OC([H])([H])C([H])([H])N([H])C(=O)C3([H])N(C(=O)N4C([H])([H])C([H])([H])C([H])([H])C([H])(n5nc(-c6c([H])c([H])c(Oc7c([H])c([H])c(F)c([H])c7F)c([H])c6[H])c(C(=O)N([H])[H])c5N([H])[H])C4([H])[H])C([H])([H])C([H])([H])C3([H])[H])c([H])c([H])c2C1([H])[H]

$$$$
3:0:0
     RDKit          3D

 84 88  0  0  1  0  0  0  0  0999 V2000
  -28.7250  -21.2680   19.9940 C   0  0  0  0  0  2  0  0  0  0  0  0
  -29.1980  -19.7450   20.5060 N   0  0  0  0  0  2  0  0  0  0  0  0
  -28.5820  -21.2390   18.7680 O   0  0  0  0  0  1  0  0  0  0  0  0
  -29.4180  -19.7930   21.4940 H   0  0  0  0  0  0  0  0  0  0  0  0
  -30.0290  -16.2520   20.1510 C   0  0  0  0  0  0  0  0  0  0  0  0
  -30.2750  -13.5960   19.3060 C   0  0  0  0  0  2  0  0  0  0  0  0
  -29.4130  -12.9310   18.1730 C   0  0  0  0  0  2  0  0  0  0  0  0
  -28.0500  -12.4560   18.6940 C   0  0  0  0  0  2  0  0  0  0  0  0
  -27.4880  -13.4780   19.6980 C   0  0  0  0  0  3  0  0  0  0  0  0
  -28.5160  -14.0010   20.7440 C   0  0  0  0  0  2  0  0  0  0  0  0
  -29.5640  -14.8010   20.0140 N   0  0  0  0  0  0  0  0  0  0  0  0
  -31.2790  -16.1070   20.0970 O   0  0  0  0  0  0  0  0  0  0  0  0
  -29.2370  -17.7320   20.1200 N   0  0  0  0  0  2  0  0  0  0  0  0
  -28.2610  -17.5330   19.9460 H   0  0  0  0  0  0  0  0  0  0  0  0
  -25.1620  -13.9490   20.5680 C   0  0  0  0  0  0  0  0  0  0  0  0
  -24.1170  -13.1560   20.9430 C   0  0  0  0  0  0  0  0  0  0  0  0
  -24.5910  -11.8100   20.8590 C   0  0  0  0  0  0  0  0  0  0  0  0
  -26.2030  -13.0940   20.2690 N   0  0  0  0  0  0  0  0  0  0  0  0
  -25.8760  -11.7930   20.5040 N   0  0  0  0  0  0  0  0  0  0  0  0
  -23.8650  -10.5430   21.0350 C   0  0  0  0  0  0  0  0  0  0  0  0
  -24.3040   -9.5570   21.9470 C   0  0  0  0  0  3  0  0  0  0  0  0
  -23.5710   -8.3610   22.1180 C   0  0  0  0  0  3  0  0  0  0  0  0
  -22.3850   -8.1420   21.3780 C   0  0  0  0  0  0  0  0  0  0  0  0
  -21.9630   -9.1160   20.4570 C   0  0  0  0  0  3  0  0  0  0  0  0
  -22.6950  -10.3030   20.2840 C   0  0  0  0  0  3  0  0  0  0  0  0
  -21.6250   -7.0000   21.4610 O   0  0  0  0  0  0  0  0  0  0  0  0
  -21.5750   -6.2470   22.6060 C   0  0  0  0  0  0  0  0  0  0  0  0
  -21.1200   -6.7830   23.8300 C   0  0  0  0  0  3  0  0  0  0  0  0
  -21.0200   -5.9570   24.9670 C   0  0  0  0  0  3  0  0  0  0  0  0
  -21.3640   -4.5940   24.8810 C   0  0  0  0  0  0  0  0  0  0  0  0
  -21.8120   -4.0580   23.6610 C   0  0  0  0  0  3  0  0  0  0  0  0
  -21.9140   -4.8800   22.5270 C   0  0  0  0  0  0  0  0  0  0  0  0
  -22.3250   -4.3530   21.3490 F   0  0  0  0  0  0  0  0  0  0  0  0
  -21.2610   -3.7980   25.9710 F   0  0  0  0  0  0  0  0  0  0  0  0
  -22.7280  -13.6250   21.2580 C   0  0  0  0  0  0  0  0  0  0  0  0
  -22.0200  -12.9090   22.1240 N   0  0  0  0  0  0  0  0  0  0  0  0
  -22.2820  -14.6650   20.7740 O   0  0  0  0  0  0  0  0  0  0  0  0
  -22.3970  -12.0690   22.5370 H   0  0  0  0  0  0  0  0  0  0  0  0
  -21.0890  -13.2050   22.3770 H   0  0  0  0  0  0  0  0  0  0  0  0
  -25.3100  -15.3250   20.4190 N   0  0  0  0  0  0  0  0  0  0  0  0
  -24.5400  -15.9710   20.5660 H   0  0  0  0  0  0  0  0  0  0  0  0
  -26.1410  -15.7750   20.0600 H   0  0  0  0  0  0  0  0  0  0  0  0
  -28.2110  -23.1570   20.6450 C   0  0  0  0  0 15  0  0  0  0  0  0
  -28.1790  -25.0690   20.2680 O   0  0  0  0  0  1  0  0  0  0  0  0
  -24.6550  -31.8320   23.1800 C   0  0  0  0  0  0  0  0  0  0  0  0
  -27.2230  -26.4260   20.3220 C   0  0  0  0  0  0  0  0  0  0  0  0
  -23.5000  -30.3930   21.5640 C   0  0  0  0  0  3  0  0  0  0  0  0
  -24.9700  -28.6660   20.2130 C   0  0  0  0  0  0  0  0  0  0  0  0
  -26.0950  -30.4540   21.4940 C   0  0  0  0  0  2  0  0  0  0  0  0
  -26.1700  -28.9720   20.8640 C   0  0  0  0  0  0  0  0  0  0  0  0
  -27.2660  -27.8970   20.8680 C   0  0  0  0  0  3  0  0  0  0  0  0
  -25.9780  -26.4230   19.6100 C   0  0  0  0  0  3  0  0  0  0  0  0
  -24.9340  -27.4190   19.5600 C   0  0  0  0  0  3  0  0  0  0  0  0
  -23.7720  -29.6510   20.2190 C   0  0  0  0  0  2  0  0  0  0  0  0
  -24.7780  -30.9360   22.1300 N   0  0  0  0  0  0  0  0  0  0  0  0
  -23.5500  -32.1440   23.6620 O   0  0  0  0  0  0  0  0  0  0  0  0
  -22.7530  -29.4550   22.5540 C   0  0  0  0  0  0  0  0  0  0  0  0
  -21.4190  -29.3090   22.4270 N   0  0  0  0  0  0  0  0  0  0  0  0
  -23.3950  -28.8480   23.4140 O   0  0  0  0  0  0  0  0  0  0  0  0
  -20.9450  -29.8480   21.7160 H   0  0  0  0  0  0  0  0  0  0  0  0
  -18.0260  -28.0960   22.9670 C   0  0  0  0  0  0  0  0  0  0  0  0
  -20.5880  -28.3820   23.2120 C   0  0  0  0  0  3  0  0  0  0  0  0
  -20.6900  -26.9420   22.6540 C   0  0  0  0  0  2  0  0  0  0  0  0
  -19.5870  -26.6060   21.6450 C   0  0  0  0  0  2  0  0  0  0  0  0
  -18.2070  -26.7460   22.2930 C   0  0  0  0  0  2  0  0  0  0  0  0
  -19.1430  -28.8710   23.3830 C   0  0  0  0  0  0  0  0  0  0  0  0
  -18.9130  -30.1290   23.9810 C   0  0  0  0  0  3  0  0  0  0  0  0
  -17.6040  -30.6140   24.1620 C   0  0  0  0  0  3  0  0  0  0  0  0
  -16.5040  -29.8390   23.7570 C   0  0  0  0  0  3  0  0  0  0  0  0
  -16.7160  -28.5800   23.1660 C   0  0  0  0  0  3  0  0  0  0  0  0
  -25.8930  -32.5200   23.8320 C   0  0  0  0  0  3  0  0  0  0  0  0
  -25.5440  -33.9250   24.1460 N   0  0  0  0  0  0  0  0  0  0  0  0
  -25.8860  -34.9960   23.4140 C   0  0  0  0  0  0  0  0  0  0  0  0
  -26.5770  -34.9060   22.3980 O   0  0  0  0  0  0  0  0  0  0  0  0
  -24.9280  -34.0660   24.9320 H   0  0  0  0  0  0  0  0  0  0  0  0
  -24.1670  -36.8060   23.0510 C   0  0  0  0  0  1  0  0  0  0  0  0
  -25.3910  -36.3850   23.8800 C   0  0  0  0  0  3  0  0  0  0  0  0
  -27.5010  -37.2770   24.7690 C   0  0  0  0  0  1  0  0  0  0  0  0
  -26.4240  -37.4420   23.7980 N   0  0  0  0  0  0  0  0  0  0  0  0
  -26.0110  -38.3610   23.9360 H   0  0  0  0  0  0  0  0  0  0  0  0
  -26.3750  -31.7970   25.1520 C   0  0  1  0  0  0  0  0  0  0  0  0
  -25.2520  -31.5830   26.1960 C   0  0  0  0  0  1  0  0  0  0  0  0
  -26.9830  -30.4130   24.8400 C   0  0  0  0  0  1  0  0  0  0  0  0
  -27.4980  -32.6230   25.8220 C   0  0  0  0  0  1  0  0  0  0  0  0
  1  2  1  0
  2  4  1  0
  3  1  1  0
  6 11  1  0
  7  8  1  0
  7  6  1  0
  9  8  1  0
  9 18  1  0
  9 10  1  0
 11  5  1  0
 11 10  1  0
 12  5  2  0
 13  5  1  0
 14 13  1  0
 15 16  2  0
 16 35  1  0
 17 16  1  0
 17 20  1  0
 18 19  1  0
 18 15  1  0
 19 17  2  0
 20 21  1  0
 21 22  2  0
 23 26  1  0
 23 22  1  0
 24 23  2  0
 25 24  1  0
 25 20  2  0
 26 27  1  0
 27 28  1  0
 28 29  2  0
 30 29  1  0
 30 34  1  0
 31 30  2  0
 32 27  2  0
 32 31  1  0
 33 32  1  0
 35 36  1  0
 36 39  1  0
 36 38  1  0
 37 35  2  0
 40 41  1  0
 40 15  1  0
 42 40  1  0
 44 46  1  0
 45 56  2  0
 46 51  1  0
 47 55  1  0
 47 57  1  0
 48 54  1  0
 48 50  1  0
 49 55  1  0
 50 51  2  0
 50 49  1  0
 52 46  2  0
 53 52  1  0
 53 48  2  0
 54 47  1  0
 55 45  1  0
 57 59  2  0
 58 57  1  0
 60 58  1  0
 61 70  2  0
 61 66  1  0
 62 58  1  0
 62 66  1  0
 63 62  1  0
 64 65  1  0
 64 63  1  0
 65 61  1  0
 66 67  2  0
 67 68  1  0
 69 68  2  0
 70 69  1  0
 71 45  1  0
 71 72  1  0
 71 81  1  0
 72 75  1  0
 73 77  1  0
 73 72  1  0
 74 73  2  0
 77 76  1  0
 79 77  1  0
 79 80  1  0
 79 78  1  0
 81 84  1  1
 81 82  1  0
 83 81  1  0
M  ISO  4   5 100  13 100  43 101  44 101
M  END
>  <TORSDO>  (4) 
F 17

>  <SCORE>  (4) 
-16.416

>  <name>  (4) 
3

>  <ligand_id>  (4) 
3

>  <original_smiles>  (4) 
[H]c1c([H])c([H])c2c(c1[H])C([H])([H])C([H])([H])C([H])([H])C2([H])N([H])C(=O)C1([H])N(C(=O)C([H])(N([H])C(=O)C([H])(N([H])C([H])([H])[H])C([H])([H])[H])C(C([H])([H])[H])(C([H])([H])[H])C([H])([H])[H])C([H])([H])c2c([H])c(OC([H])([H])C(=O)N([H])N([H])C(=O)N3C([H])([H])C([H])([H])C([H])([H])C([H])(n4nc(-c5c([H])c([H])c(Oc6c([H])c([H])c(F)c([H])c6F)c([H])c5[H])c(C(=O)N([H])[H])c4N([H])[H])C3([H])[H])c([H])c([H])c2C1([H])[H]

>  <smiles>  (4) 
[H]c1c([H])c([H])c2c(c1[H])C([H])([H])C([H])([H])C([H])([H])C2([H])N([H])C(=O)C1([H])N(C(=O)C([H])(N([H])C(=O)C([H])(N([H])C([H])([H])[H])C([H])([H])[H])C(C([H])([H])[H])(C([H])([H])[H])C([H])([H])[H])C([H])([H])c2c([H])c(OC([H])([H])C(=O)N([H])N([H])C(=O)N3C([H])([H])C([H])([H])C([H])([H])C([H])(n4nc(-c5c([H])c([H])c(Oc6c([H])c([H])c(F)c([H])c6F)c([H])c5[H])c(C(=O)N([H])[H])c4N([H])[H])C3([H])[H])c([H])c([H])c2C1([H])[H]

$$$$
4:0:0
     RDKit          3D

 96103  0  0  1  0  0  0  0  0999 V2000
  -29.3720  -22.8040   22.9930 C   0  0  0  0  0  0  0  0  0  0  0  0
  -29.2190  -23.2240   21.7330 N   0  0  0  0  0  0  0  0  0  0  0  0
  -29.1420  -23.5280   23.9660 O   0  0  0  0  0  0  0  0  0  0  0  0
  -29.4410  -22.7010   20.8940 H   0  0  0  0  0  0  0  0  0  0  0  0
  -29.4480  -25.2870   20.5450 C   0  0  0  0  0  0  0  0  0  0  0  0
  -28.8080  -24.5450   21.4560 N   0  0  0  0  0  0  0  0  0  0  0  0
  -30.3880  -24.8440   19.8770 O   0  0  0  0  0  0  0  0  0  0  0  0
  -28.0440  -24.8520   22.0480 H   0  0  0  0  0  0  0  0  0  0  0  0
  -28.9520  -26.7210   20.3330 C   0  0  0  0  0  2  0  0  0  0  0  0
  -27.9300  -26.6920   19.3350 O   0  0  0  0  0  0  0  0  0  0  0  0
  -24.7960  -31.8110   23.1930 C   0  0  0  0  0  0  0  0  0  0  0  0
  -26.8350  -27.4800   19.5750 C   0  0  0  0  0  0  0  0  0  0  0  0
  -23.3340  -30.5750   21.6240 C   0  0  0  0  0  3  0  0  0  0  0  0
  -24.5330  -29.0640   19.9570 C   0  0  0  0  0  0  0  0  0  0  0  0
  -25.8340  -30.8320   21.1550 C   0  0  0  0  0  2  0  0  0  0  0  0
  -25.7720  -29.5010   20.4420 C   0  0  0  0  0  0  0  0  0  0  0  0
  -26.9260  -28.7120   20.2600 C   0  0  0  0  0  3  0  0  0  0  0  0
  -25.5860  -27.0540   19.0820 C   0  0  0  0  0  3  0  0  0  0  0  0
  -24.4320  -27.8360   19.2780 C   0  0  0  0  0  3  0  0  0  0  0  0
  -23.3490  -29.9740   20.1930 C   0  0  0  0  0  2  0  0  0  0  0  0
  -24.6800  -31.0840   22.0480 N   0  0  0  0  0  0  0  0  0  0  0  0
  -23.7990  -32.1030   23.8710 O   0  0  0  0  0  0  0  0  0  0  0  0
  -22.7440  -29.5280   22.5940 C   0  0  0  0  0  0  0  0  0  0  0  0
  -21.4330  -29.2690   22.4650 N   0  0  0  0  0  0  0  0  0  0  0  0
  -23.4600  -28.9480   23.4140 O   0  0  0  0  0  0  0  0  0  0  0  0
  -20.9150  -29.7850   21.7660 H   0  0  0  0  0  0  0  0  0  0  0  0
  -18.1770  -27.7440   22.8240 C   0  0  0  0  0  0  0  0  0  0  0  0
  -20.6680  -28.2960   23.2420 C   0  0  0  0  0  3  0  0  0  0  0  0
  -20.9620  -26.8540   22.7700 C   0  0  0  0  0  2  0  0  0  0  0  0
  -19.9740  -26.3530   21.7120 C   0  0  0  0  0  2  0  0  0  0  0  0
  -18.5400  -26.3850   22.2530 C   0  0  0  0  0  2  0  0  0  0  0  0
  -19.1760  -28.6480   23.2730 C   0  0  0  0  0  0  0  0  0  0  0  0
  -18.7850  -29.9150   23.7610 C   0  0  0  0  0  3  0  0  0  0  0  0
  -17.4270  -30.2800   23.8070 C   0  0  0  0  0  3  0  0  0  0  0  0
  -16.4410  -29.3760   23.3780 C   0  0  0  0  0  3  0  0  0  0  0  0
  -16.8170  -28.1110   22.8920 C   0  0  0  0  0  3  0  0  0  0  0  0
  -26.1780  -32.3360   23.6930 C   0  0  0  0  0  3  0  0  0  0  0  0
  -25.9930  -33.7270   24.1300 N   0  0  0  0  0  0  0  0  0  0  0  0
  -26.4320  -34.7990   23.4560 C   0  0  0  0  0  0  0  0  0  0  0  0
  -27.1080  -34.7120   22.4270 O   0  0  0  0  0  0  0  0  0  0  0  0
  -25.4070  -33.8760   24.9390 H   0  0  0  0  0  0  0  0  0  0  0  0
  -24.9210  -36.7870   23.1720 C   0  0  0  0  0  1  0  0  0  0  0  0
  -26.0600  -36.1870   24.0100 C   0  0  0  0  0  3  0  0  0  0  0  0
  -28.2200  -36.7550   25.0290 C   0  0  0  0  0  1  0  0  0  0  0  0
  -27.2000  -37.1280   24.0540 N   0  0  0  0  0  0  0  0  0  0  0  0
  -26.8820  -38.0680   24.2730 H   0  0  0  0  0  0  0  0  0  0  0  0
  -26.7950  -31.4640   24.8550 C   0  0  1  0  0  0  0  0  0  0  0  0
  -25.8120  -31.1880   26.0170 C   0  0  0  0  0  1  0  0  0  0  0  0
  -27.2780  -30.0980   24.3130 C   0  0  0  0  0  1  0  0  0  0  0  0
  -28.0460  -32.1680   25.4330 C   0  0  0  0  0  1  0  0  0  0  0  0
  -29.8250  -21.3630   23.2000 C   0  0  0  0  0  2  0  0  0  0  0  0
  -31.2860  -21.1420   22.7460 C   0  0  0  0  0  2  0  0  0  0  0  0
  -31.6340  -19.6590   22.5980 C   0  0  0  0  0  0  0  0  0  0  0  0
  -32.2510  -19.2890   21.4680 N   0  0  0  0  0  0  0  0  0  0  0  0
  -31.3390  -18.8590   23.4880 O   0  0  0  0  0  0  0  0  0  0  0  0
  -32.4820  -20.0150   20.8010 H   0  0  0  0  0  0  0  0  0  0  0  0
  -32.5970  -17.9170   21.0940 C   0  0  0  0  0  2  0  0  0  0  0  0
  -31.7070  -17.4240   19.9410 C   0  0  0  0  0  2  0  0  0  0  0  0
  -31.8910  -14.9750   19.4220 C   0  0  0  0  0  0  0  0  0  0  0  0
  -31.4800  -12.6460   18.7090 C   0  0  0  0  0  2  0  0  0  0  0  0
  -30.4230  -12.6030   17.5860 C   0  0  0  0  0  2  0  0  0  0  0  0
  -28.9920  -12.6030   18.1640 C   0  0  0  0  0  2  0  0  0  0  0  0
  -28.7830  -13.7020   19.2410 C   0  0  0  0  0  3  0  0  0  0  0  0
  -29.9250  -13.6560   20.2800 C   0  0  0  0  0  2  0  0  0  0  0  0
  -31.2030  -13.8110   19.5610 N   0  0  0  0  0  0  0  0  0  0  0  0
  -32.8790  -15.0980   18.6920 O   0  0  0  0  0  0  0  0  0  0  0  0
  -31.3720  -16.0110   20.0940 N   0  0  0  0  0  0  0  0  0  0  0  0
  -30.5790  -15.8000   20.6830 H   0  0  0  0  0  0  0  0  0  0  0  0
  -26.6230  -14.5720   20.3480 C   0  0  0  0  0  0  0  0  0  0  0  0
  -25.4980  -13.9260   20.7850 C   0  0  0  0  0  0  0  0  0  0  0  0
  -25.7210  -12.5380   20.5410 C   0  0  0  0  0  0  0  0  0  0  0  0
  -27.4710  -13.5820   19.8750 N   0  0  0  0  0  0  0  0  0  0  0  0
  -26.9340  -12.3460   20.0410 N   0  0  0  0  0  0  0  0  0  0  0  0
  -24.8270  -11.3840   20.7000 C   0  0  0  0  0  0  0  0  0  0  0  0
  -25.1920  -10.2670   21.4820 C   0  0  0  0  0  3  0  0  0  0  0  0
  -24.3060   -9.1790   21.6380 C   0  0  0  0  0  3  0  0  0  0  0  0
  -23.0400   -9.2010   21.0070 C   0  0  0  0  0  0  0  0  0  0  0  0
  -22.6900  -10.3050   20.2090 C   0  0  0  0  0  3  0  0  0  0  0  0
  -23.5760  -11.3840   20.0540 C   0  0  0  0  0  3  0  0  0  0  0  0
  -22.1290   -8.1760   21.0730 O   0  0  0  0  0  0  0  0  0  0  0  0
  -21.9530   -7.4410   22.2190 C   0  0  0  0  0  0  0  0  0  0  0  0
  -21.5990   -8.0480   23.4440 C   0  0  0  0  0  3  0  0  0  0  0  0
  -21.3590   -7.2520   24.5810 C   0  0  0  0  0  3  0  0  0  0  0  0
  -21.4660   -5.8510   24.4960 C   0  0  0  0  0  0  0  0  0  0  0  0
  -21.8140   -5.2460   23.2750 C   0  0  0  0  0  3  0  0  0  0  0  0
  -22.0540   -6.0380   22.1400 C   0  0  0  0  0  0  0  0  0  0  0  0
  -22.3690   -5.4470   20.9630 F   0  0  0  0  0  0  0  0  0  0  0  0
  -21.2290   -5.0840   25.5870 F   0  0  0  0  0  0  0  0  0  0  0  0
  -24.2440  -14.5680   21.3050 C   0  0  0  0  0  0  0  0  0  0  0  0
  -23.5370  -13.8930   22.2030 N   0  0  0  0  0  0  0  0  0  0  0  0
  -23.9120  -15.7010   20.9530 O   0  0  0  0  0  0  0  0  0  0  0  0
  -23.8200  -12.9740   22.5100 H   0  0  0  0  0  0  0  0  0  0  0  0
  -22.7000  -14.3030   22.5910 H   0  0  0  0  0  0  0  0  0  0  0  0
  -26.9870  -15.9160   20.2990 N   0  0  0  0  0  0  0  0  0  0  0  0
  -26.3500  -16.6570   20.5730 H   0  0  0  0  0  0  0  0  0  0  0  0
  -27.8450  -16.2640   19.8950 H   0  0  0  0  0  0  0  0  0  0  0  0
  1 51  1  0
  1  3  2  0
  2  1  1  0
  4  2  1  0
  5  6  1  0
  6  2  1  0
  6  8  1  0
  7  5  2  0
  9  5  1  0
 10 12  1  0
 10  9  1  0
 11 22  2  0
 12 17  1  0
 13 21  1  0
 13 23  1  0
 14 20  1  0
 14 16  1  0
 15 21  1  0
 16 15  1  0
 17 16  2  0
 18 19  1  0
 18 12  2  0
 19 14  2  0
 20 13  1  0
 21 11  1  0
 23 25  2  0
 24 23  1  0
 26 24  1  0
 27 36  2  0
 27 32  1  0
 28 24  1  0
 28 32  1  0
 29 28  1  0
 30 31  1  0
 30 29  1  0
 31 27  1  0
 32 33  2  0
 33 34  1  0
 35 34  2  0
 36 35  1  0
 37 11  1  0
 37 38  1  0
 37 47  1  0
 38 41  1  0
 39 43  1  0
 39 38  1  0
 40 39  2  0
 43 42  1  0
 43 45  1  0
 45 46  1  0
 45 44  1  0
 47 50  1  1
 47 48  1  0
 49 47  1  0
 52 51  1  0
 53 52  1  0
 53 55  2  0
 54 53  1  0
 56 54  1  0
 57 54  1  0
 58 67  1  0
 58 57  1  0
 59 65  1  0
 59 67  1  0
 60 65  1  0
 61 62  1  0
 61 60  1  0
 63 62  1  0
 63 72  1  0
 63 64  1  0
 65 64  1  0
 66 59  2  0
 67 68  1  0
 69 70  2  0
 70 89  1  0
 71 74  1  0
 71 70  1  0
 72 73  1  0
 72 69  1  0
 73 71  2  0
 74 75  1  0
 75 76  2  0
 77 80  1  0
 77 76  1  0
 78 77  2  0
 79 78  1  0
 79 74  2  0
 80 81  1  0
 81 82  1  0
 82 83  2  0
 84 83  1  0
 84 88  1  0
 85 84  2  0
 86 81  2  0
 86 85  1  0
 87 86  1  0
 89 90  1  0
 90 92  1  0
 90 93  1  0
 91 89  2  0
 94 69  1  0
 94 95  1  0
 96 94  1  0
M  ISO  4   9 101  10 101  59 100  67 100
M  END
>  <TORSDO>  (5) 
F 23

>  <SCORE>  (5) 
-9.527

>  <name>  (5) 
4

>  <ligand_id>  (5) 
4

>  <original_smiles>  (5) 
[H]c1c([H])c([H])c2c(c1[H])C([H])([H])C([H])([H])C([H])([H])C2([H])N([H])C(=O)C1([H])N(C(=O)C([H])(N([H])C(=O)C([H])(N([H])C([H])([H])[H])C([H])([H])[H])C(C([H])([H])[H])(C([H])([H])[H])C([H])([H])[H])C([H])([H])c2c([H])c(OC([H])([H])C(=O)N([H])N([H])C(=O)C([H])([H])C([H])([H])C(=O)N([H])C([H])([H])C([H])([H])N([H])C(=O)N3C([H])([H])C([H])([H])C([H])([H])C([H])(n4nc(-c5c([H])c([H])c(Oc6c([H])c([H])c(F)c([H])c6F)c([H])c5[H])c(C(=O)N([H])[H])c4N([H])[H])C3([H])[H])c([H])c([H])c2C1([H])[H]

>  <smiles>  (5) 
[H]c1c([H])c([H])c2c(c1[H])C([H])([H])C([H])([H])C([H])([H])C2([H])N([H])C(=O)C1([H])N(C(=O)C([H])(N([H])C(=O)C([H])(N([H])C([H])([H])[H])C([H])([H])[H])C(C([H])([H])[H])(C([H])([H])[H])C([H])([H])[H])C([H])([H])c2c([H])c(OC([H])([H])C(=O)N([H])N([H])C(=O)C([H])([H])C([H])([H])C(=O)N([H])C([H])([H])C([H])([H])N([H])C(=O)N3C([H])([H])C([H])([H])C([H])([H])C([H])(n4nc(-c5c([H])c([H])c(Oc6c([H])c([H])c(F)c([H])c6F)c([H])c5[H])c(C(=O)N([H])[H])c4N([H])[H])C3([H])[H])c([H])c([H])c2C1([H])[H]

$$$$
5:0:0
     RDKit          3D

 82 86  0  0  1  0  0  0  0  0999 V2000
  -28.2030  -25.2140   20.1870 O   0  0  0  0  0  1  0  0  0  0  0  0
  -24.6590  -31.8230   23.1160 C   0  0  0  0  0  0  0  0  0  0  0  0
  -27.2270  -26.5180   20.2190 C   0  0  0  0  0  0  0  0  0  0  0  0
  -23.5030  -30.4040   21.4840 C   0  0  0  0  0  3  0  0  0  0  0  0
  -24.9680  -28.6960   20.1210 C   0  0  0  0  0  0  0  0  0  0  0  0
  -26.0920  -30.4850   21.4080 C   0  0  0  0  0  2  0  0  0  0  0  0
  -26.1660  -29.0180   20.7700 C   0  0  0  0  0  0  0  0  0  0  0  0
  -27.2690  -27.9690   20.7710 C   0  0  0  0  0  3  0  0  0  0  0  0
  -25.9850  -26.4690   19.5130 C   0  0  0  0  0  3  0  0  0  0  0  0
  -24.9320  -27.4500   19.4670 C   0  0  0  0  0  3  0  0  0  0  0  0
  -23.7680  -29.6710   20.1330 C   0  0  0  0  0  2  0  0  0  0  0  0
  -24.7790  -30.9440   22.0540 N   0  0  0  0  0  0  0  0  0  0  0  0
  -23.5550  -32.1300   23.6020 O   0  0  0  0  0  0  0  0  0  0  0  0
  -22.7610  -29.4600   22.4680 C   0  0  0  0  0  0  0  0  0  0  0  0
  -21.4220  -29.3490   22.3610 N   0  0  0  0  0  0  0  0  0  0  0  0
  -23.4040  -28.8170   23.3000 O   0  0  0  0  0  0  0  0  0  0  0  0
  -20.9470  -29.9240   21.6780 H   0  0  0  0  0  0  0  0  0  0  0  0
  -18.0030  -28.1330   22.8590 C   0  0  0  0  0  0  0  0  0  0  0  0
  -20.5950  -28.3830   23.0970 C   0  0  0  0  0  0  0  0  0  0  0  0
  -20.7720  -26.9760   22.4620 C   0  0  0  0  0  3  0  0  0  0  0  0
  -19.5380  -26.4150   21.7220 C   0  0  0  0  0  3  0  0  0  0  0  0
  -18.0990  -26.8440   22.0560 C   0  0  0  0  0  3  0  0  0  0  0  0
  -19.1450  -28.8670   23.2920 C   0  0  0  0  0  0  0  0  0  0  0  0
  -18.9400  -30.1130   23.9270 C   0  0  0  0  0  3  0  0  0  0  0  0
  -17.6430  -30.6230   24.1300 C   0  0  0  0  0  3  0  0  0  0  0  0
  -16.5250  -29.8800   23.7210 C   0  0  0  0  0  3  0  0  0  0  0  0
  -16.7080  -28.6360   23.0960 C   0  0  0  0  0  3  0  0  0  0  0  0
  -25.9010  -32.4970   23.7720 C   0  0  0  0  0  3  0  0  0  0  0  0
  -25.5540  -33.8960   24.1020 N   0  0  0  0  0  0  0  0  0  0  0  0
  -25.8860  -34.9730   23.3740 C   0  0  0  0  0  0  0  0  0  0  0  0
  -26.5670  -34.8910   22.3500 O   0  0  0  0  0  0  0  0  0  0  0  0
  -24.9460  -34.0310   24.8960 H   0  0  0  0  0  0  0  0  0  0  0  0
  -24.1500  -36.7720   23.0460 C   0  0  0  0  0  1  0  0  0  0  0  0
  -25.3900  -36.3550   23.8530 C   0  0  0  0  0  3  0  0  0  0  0  0
  -27.5120  -37.2520   24.7100 C   0  0  0  0  0  1  0  0  0  0  0  0
  -26.4160  -37.4190   23.7590 N   0  0  0  0  0  0  0  0  0  0  0  0
  -26.0000  -38.3340   23.9110 H   0  0  0  0  0  0  0  0  0  0  0  0
  -26.3860  -31.7540   25.0790 C   0  0  1  0  0  0  0  0  0  0  0  0
  -25.2660  -31.5290   26.1240 C   0  0  0  0  0  1  0  0  0  0  0  0
  -26.9880  -30.3730   24.7440 C   0  0  0  0  0  1  0  0  0  0  0  0
  -27.5140  -32.5680   25.7560 C   0  0  0  0  0  1  0  0  0  0  0  0
  -28.2300  -23.3320   20.4390 C   0  0  0  0  0 15  0  0  0  0  0  0
  -28.7870  -21.3790   19.8640 C   0  0  0  0  0 15  0  0  0  0  0  0
  -29.3980  -19.4400   20.4120 C   0  0  0  0  0  1  0  0  0  0  0  0
  -30.1690  -16.0920   20.0360 C   0  0  0  0  0  0  0  0  0  0  0  0
  -30.3590  -13.4710   19.1990 C   0  0  0  0  0  2  0  0  0  0  0  0
  -29.4770  -12.8700   18.0550 C   0  0  0  0  0  2  0  0  0  0  0  0
  -28.1030  -12.4290   18.5740 C   0  0  0  0  0  2  0  0  0  0  0  0
  -27.5630  -13.4490   19.5940 C   0  0  0  0  0  3  0  0  0  0  0  0
  -28.6020  -13.9210   20.6470 C   0  0  0  0  0  2  0  0  0  0  0  0
  -29.6750  -14.6720   19.9180 N   0  0  0  0  0  0  0  0  0  0  0  0
  -31.4150  -15.9560   19.9590 O   0  0  0  0  0  0  0  0  0  0  0  0
  -29.4220  -17.5600   20.0550 N   0  0  0  0  0  0  0  0  0  0  0  0
  -28.4530  -17.3130   19.9040 H   0  0  0  0  0  0  0  0  0  0  0  0
  -25.2310  -13.9310   20.4500 C   0  0  0  0  0  0  0  0  0  0  0  0
  -24.1900  -13.1380   20.8360 C   0  0  0  0  0  0  0  0  0  0  0  0
  -24.6710  -11.7930   20.7770 C   0  0  0  0  0  0  0  0  0  0  0  0
  -26.2760  -13.0750   20.1660 N   0  0  0  0  0  0  0  0  0  0  0  0
  -25.9570  -11.7790   20.4270 N   0  0  0  0  0  0  0  0  0  0  0  0
  -23.9560  -10.5240   20.9740 C   0  0  0  0  0  0  0  0  0  0  0  0
  -24.4050   -9.5560   21.8990 C   0  0  0  0  0  3  0  0  0  0  0  0
  -23.6830   -8.3560   22.0890 C   0  0  0  0  0  3  0  0  0  0  0  0
  -22.4960   -8.1180   21.3550 C   0  0  0  0  0  0  0  0  0  0  0  0
  -22.0660   -9.0740   20.4200 C   0  0  0  0  0  3  0  0  0  0  0  0
  -22.7890  -10.2650   20.2280 C   0  0  0  0  0  3  0  0  0  0  0  0
  -21.7460   -6.9710   21.4550 O   0  0  0  0  0  0  0  0  0  0  0  0
  -21.7090   -6.2310   22.6100 C   0  0  0  0  0  0  0  0  0  0  0  0
  -21.2840   -6.7860   23.8360 C   0  0  0  0  0  3  0  0  0  0  0  0
  -21.1960   -5.9730   24.9840 C   0  0  0  0  0  3  0  0  0  0  0  0
  -21.5230   -4.6050   24.9060 C   0  0  0  0  0  0  0  0  0  0  0  0
  -21.9420   -4.0500   23.6840 C   0  0  0  0  0  3  0  0  0  0  0  0
  -22.0320   -4.8600   22.5390 C   0  0  0  0  0  0  0  0  0  0  0  0
  -22.4140   -4.3150   21.3590 F   0  0  0  0  0  0  0  0  0  0  0  0
  -21.4320   -3.8220   26.0060 F   0  0  0  0  0  0  0  0  0  0  0  0
  -22.7960  -13.6030   21.1400 C   0  0  0  0  0  0  0  0  0  0  0  0
  -22.0920  -12.8960   22.0160 N   0  0  0  0  0  0  0  0  0  0  0  0
  -22.3430  -14.6300   20.6380 O   0  0  0  0  0  0  0  0  0  0  0  0
  -22.4740  -12.0650   22.4440 H   0  0  0  0  0  0  0  0  0  0  0  0
  -21.1580  -13.1890   22.2630 H   0  0  0  0  0  0  0  0  0  0  0  0
  -25.3710  -15.3060   20.2780 N   0  0  0  0  0  0  0  0  0  0  0  0
  -24.5980  -15.9490   20.4140 H   0  0  0  0  0  0  0  0  0  0  0  0
  -26.2020  -15.7550   19.9170 H   0  0  0  0  0  0  0  0  0  0  0  0
  1  3  1  0
  2 13  2  0
  3  8  1  0
  4 12  1  0
  4 14  1  0
  5 11  1  0
  5  7  1  0
  6 12  1  0
  7  8  2  0
  7  6  1  0
  9  3  2  0
 10  9  1  0
 10  5  2  0
 11  4  1  0
 12  2  1  0
 14 16  2  0
 15 14  1  0
 15 19  1  0
 17 15  1  0
 18 27  2  0
 18 23  1  0
 19 23  1  0
 20 19  2  0
 21 22  2  0
 21 20  1  0
 22 18  1  0
 23 24  2  0
 24 25  1  0
 26 25  2  0
 27 26  1  0
 28  2  1  0
 28 29  1  0
 28 38  1  0
 29 32  1  0
 30 34  1  0
 30 29  1  0
 31 30  2  0
 34 33  1  0
 36 34  1  0
 36 37  1  0
 36 35  1  0
 38 41  1  1
 38 39  1  0
 40 38  1  0
 45 53  1  0
 46 51  1  0
 47 48  1  0
 47 46  1  0
 49 48  1  0
 49 58  1  0
 49 50  1  0
 51 45  1  0
 51 50  1  0
 52 45  2  0
 53 44  1  0
 54 53  1  0
 55 56  2  0
 56 75  1  0
 57 56  1  0
 57 60  1  0
 58 59  1  0
 58 55  1  0
 59 57  2  0
 60 61  1  0
 61 62  2  0
 63 66  1  0
 63 62  1  0
 64 63  2  0
 65 64  1  0
 65 60  2  0
 66 67  1  0
 67 68  1  0
 68 69  2  0
 70 69  1  0
 70 74  1  0
 71 70  2  0
 72 67  2  0
 72 71  1  0
 73 72  1  0
 75 76  1  0
 76 79  1  0
 76 78  1  0
 77 75  2  0
 80 81  1  0
 80 55  1  0
 82 80  1  0
M  ISO  4   1 101  42 101  45 100  53 100
M  END
>  <TORSDO>  (6) 
F 18

>  <SCORE>  (6) 
-16.165

>  <name>  (6) 
5

>  <ligand_id>  (6) 
5

>  <original_smiles>  (6) 
[H]c1c([H])c([H])c2c(c1[H])C([H])([H])C([H])([H])C([H])([H])C2([H])N([H])C(=O)C1([H])N(C(=O)C([H])(N([H])C(=O)C([H])(N([H])C([H])([H])[H])C([H])([H])[H])C(C([H])([H])[H])(C([H])([H])[H])C([H])([H])[H])C([H])([H])c2c([H])c(OC([H])([H])C([H])([H])C([H])([H])N([H])C(=O)N3C([H])([H])C([H])([H])C([H])([H])C([H])(n4nc(-c5c([H])c([H])c(Oc6c([H])c([H])c(F)c([H])c6F)c([H])c5[H])c(C(=O)N([H])[H])c4N([H])[H])C3([H])[H])c([H])c([H])c2C1([H])[H]

>  <smiles>  (6) 
[H]c1c([H])c([H])c2c(c1[H])C([H])([H])C([H])([H])C([H])([H])C2([H])N([H])C(=O)C1([H])N(C(=O)C([H])(N([H])C(=O)C([H])(N([H])C([H])([H])[H])C([H])([H])[H])C(C([H])([H])[H])(C([H])([H])[H])C([H])([H])[H])C([H])([H])c2c([H])c(OC([H])([H])C([H])([H])C([H])([H])N([H])C(=O)N3C([H])([H])C([H])([H])C([H])([H])C([H])(n4nc(-c5c([H])c([H])c(Oc6c([H])c([H])c(F)c([H])c6F)c([H])c5[H])c(C(=O)N([H])[H])c4N([H])[H])C3([H])[H])c([H])c([H])c2C1([H])[H]

$$$$
6:0:0
     RDKit          3D

 85 92  0  0  1  0  0  0  0  0999 V2000
  -29.1450  -22.1700   20.3550 C   0  0  0  0  0  0  0  0  0  0  0  0
  -28.7060  -23.3590   20.2590 C   0  0  0  0  0  0  0  0  0  0  0  0
  -29.8780  -20.7640   20.4540 C   0  0  0  0  0  2  0  0  0  0  0  0
  -29.3310  -19.1660   20.4070 C   0  0  0  0  0  3  0  0  0  0  0  0
  -30.3180  -17.7790   20.4460 C   0  0  0  0  0  3  0  0  0  0  0  0
  -30.5540  -15.0440   20.2430 C   0  0  0  0  0  0  0  0  0  0  0  0
  -30.3980  -12.6670   19.3640 C   0  0  0  0  0  2  0  0  0  0  0  0
  -29.4510  -12.5600   18.1480 C   0  0  0  0  0  2  0  0  0  0  0  0
  -27.9960  -12.3430   18.6100 C   0  0  0  0  0  2  0  0  0  0  0  0
  -27.5770  -13.2880   19.7670 C   0  0  0  0  0  3  0  0  0  0  0  0
  -28.6620  -13.4020   20.8630 C   0  0  0  0  0  2  0  0  0  0  0  0
  -29.9140  -13.8020   20.2020 N   0  0  0  0  0  0  0  0  0  0  0  0
  -31.7860  -15.0360   20.1440 O   0  0  0  0  0  0  0  0  0  0  0  0
  -28.9190  -16.4180   19.0170 C   0  0  0  0  0  1  0  0  0  0  0  0
  -29.8390  -16.2940   20.1540 N   0  0  0  0  0  0  0  0  0  0  0  0
  -25.2130  -13.8710   20.5370 C   0  0  0  0  0  0  0  0  0  0  0  0
  -24.1510  -13.0940   20.9050 C   0  0  0  0  0  0  0  0  0  0  0  0
  -24.6170  -11.7460   20.8680 C   0  0  0  0  0  0  0  0  0  0  0  0
  -26.2530  -12.9890   20.2920 N   0  0  0  0  0  0  0  0  0  0  0  0
  -25.9060  -11.7060   20.5570 N   0  0  0  0  0  0  0  0  0  0  0  0
  -23.8940  -10.4830   21.0500 C   0  0  0  0  0  0  0  0  0  0  0  0
  -24.3400   -9.5050   21.9640 C   0  0  0  0  0  3  0  0  0  0  0  0
  -23.6190   -8.3050   22.1370 C   0  0  0  0  0  3  0  0  0  0  0  0
  -22.4370   -8.0740   21.3940 C   0  0  0  0  0  0  0  0  0  0  0  0
  -22.0130   -9.0400   20.4640 C   0  0  0  0  0  3  0  0  0  0  0  0
  -22.7370  -10.2310   20.2890 C   0  0  0  0  0  3  0  0  0  0  0  0
  -21.6840   -6.9300   21.4810 O   0  0  0  0  0  0  0  0  0  0  0  0
  -21.6550   -6.1760   22.6250 C   0  0  0  0  0  0  0  0  0  0  0  0
  -21.2410   -6.7140   23.8630 C   0  0  0  0  0  3  0  0  0  0  0  0
  -21.1560   -5.8840   24.9990 C   0  0  0  0  0  3  0  0  0  0  0  0
  -21.4800   -4.5170   24.8990 C   0  0  0  0  0  0  0  0  0  0  0  0
  -21.8870   -3.9790   23.6660 C   0  0  0  0  0  3  0  0  0  0  0  0
  -21.9730   -4.8060   22.5310 C   0  0  0  0  0  0  0  0  0  0  0  0
  -22.3470   -4.2780   21.3410 F   0  0  0  0  0  0  0  0  0  0  0  0
  -21.3920   -3.7160   25.9870 F   0  0  0  0  0  0  0  0  0  0  0  0
  -22.7530  -13.5680   21.1790 C   0  0  0  0  0  0  0  0  0  0  0  0
  -22.0300  -12.8720   22.0490 N   0  0  0  0  0  0  0  0  0  0  0  0
  -22.3110  -14.5920   20.6610 O   0  0  0  0  0  0  0  0  0  0  0  0
  -22.4030  -12.0440   22.4920 H   0  0  0  0  0  0  0  0  0  0  0  0
  -21.0920  -13.1700   22.2740 H   0  0  0  0  0  0  0  0  0  0  0  0
  -25.3720  -15.2430   20.3650 N   0  0  0  0  0  0  0  0  0  0  0  0
  -24.6090  -15.8970   20.4980 H   0  0  0  0  0  0  0  0  0  0  0  0
  -26.2310  -15.6900   20.0730 H   0  0  0  0  0  0  0  0  0  0  0  0
  -27.8670  -24.6770   19.9880 C   0  0  0  0  0  2  0  0  0  0  0  0
  -28.2270  -26.1660   20.2840 O   0  0  0  0  0  0  0  0  0  0  0  0
  -24.6260  -31.9060   23.2350 C   0  0  0  0  0  0  0  0  0  0  0  0
  -27.1900  -27.1760   20.2040 C   0  0  0  0  0  0  0  0  0  0  0  0
  -23.4220  -30.5180   21.5930 C   0  0  0  0  0  3  0  0  0  0  0  0
  -24.8660  -28.9410   20.1740 C   0  0  0  0  0  0  0  0  0  0  0  0
  -25.9780  -30.7720   21.4320 C   0  0  0  0  0  2  0  0  0  0  0  0
  -26.0490  -29.3790   20.7800 C   0  0  0  0  0  0  0  0  0  0  0  0
  -27.2120  -28.5140   20.7790 C   0  0  0  0  0  3  0  0  0  0  0  0
  -25.9760  -26.8500   19.5540 C   0  0  0  0  0  3  0  0  0  0  0  0
  -24.8420  -27.6880   19.5460 C   0  0  0  0  0  3  0  0  0  0  0  0
  -23.6450  -29.8440   20.2150 C   0  0  0  0  0  2  0  0  0  0  0  0
  -24.6960  -31.0860   22.1420 N   0  0  0  0  0  0  0  0  0  0  0  0
  -23.5390  -32.1930   23.7620 O   0  0  0  0  0  0  0  0  0  0  0  0
  -22.7360  -29.5120   22.5520 C   0  0  0  0  0  0  0  0  0  0  0  0
  -21.4060  -29.3510   22.4260 N   0  0  0  0  0  0  0  0  0  0  0  0
  -23.4040  -28.8810   23.3740 O   0  0  0  0  0  0  0  0  0  0  0  0
  -20.9230  -29.9130   21.7400 H   0  0  0  0  0  0  0  0  0  0  0  0
  -18.0190  -28.1700   22.9300 C   0  0  0  0  0  0  0  0  0  0  0  0
  -20.5790  -28.4180   23.1970 C   0  0  0  0  0  3  0  0  0  0  0  0
  -20.6730  -26.9840   22.6230 C   0  0  0  0  0  2  0  0  0  0  0  0
  -19.5680  -26.6680   21.6080 C   0  0  0  0  0  2  0  0  0  0  0  0
  -18.1880  -26.8210   22.2530 C   0  0  0  0  0  2  0  0  0  0  0  0
  -19.1410  -28.9260   23.3590 C   0  0  0  0  0  0  0  0  0  0  0  0
  -18.9270  -30.1890   23.9540 C   0  0  0  0  0  3  0  0  0  0  0  0
  -17.6240  -30.6930   24.1230 C   0  0  0  0  0  3  0  0  0  0  0  0
  -16.5160  -29.9330   23.7100 C   0  0  0  0  0  3  0  0  0  0  0  0
  -16.7160  -28.6740   23.1170 C   0  0  0  0  0  3  0  0  0  0  0  0
  -25.9040  -32.5380   23.8640 C   0  0  0  0  0  3  0  0  0  0  0  0
  -26.4130  -31.7650   25.1430 C   0  0  1  0  0  0  0  0  0  0  0  0
  -25.3170  -31.5340   26.2110 C   0  0  0  0  0  1  0  0  0  0  0  0
  -26.9890  -30.3850   24.7560 C   0  0  0  0  0  1  0  0  0  0  0  0
  -27.5630  -32.5550   25.8110 C   0  0  0  0  0  1  0  0  0  0  0  0
  -25.5960  -33.9370   24.2020 N   0  0  0  0  0  0  0  0  0  0  0  0
  -25.9070  -34.9940   23.4400 C   0  0  0  0  0  0  0  0  0  0  0  0
  -26.5500  -34.8940   22.3910 O   0  0  0  0  0  0  0  0  0  0  0  0
  -25.0250  -34.0890   25.0210 H   0  0  0  0  0  0  0  0  0  0  0  0
  -24.1560  -36.7800   23.1540 C   0  0  0  0  0  1  0  0  0  0  0  0
  -25.4310  -36.3810   23.9160 C   0  0  0  0  0  3  0  0  0  0  0  0
  -27.5900  -37.2830   24.6640 C   0  0  0  0  0  1  0  0  0  0  0  0
  -26.4510  -37.4400   23.7630 N   0  0  0  0  0  0  0  0  0  0  0  0
  -26.0430  -38.3570   23.9240 H   0  0  0  0  0  0  0  0  0  0  0  0
  1  3  1  0
  2  1  3  0
  4  5  2  0
  4  3  1  0
  7 12  1  0
  8  9  1  0
  8  7  1  0
 10  9  1  0
 10 19  1  0
 10 11  1  0
 12  6  1  0
 12 11  1  0
 13  6  2  0
 14 15  1  0
 15  6  1  0
 15  5  1  0
 16 17  2  0
 17 36  1  0
 18 17  1  0
 18 21  1  0
 19 16  1  0
 19 20  1  0
 20 18  2  0
 21 22  1  0
 22 23  2  0
 24 27  1  0
 24 23  1  0
 25 24  2  0
 26 25  1  0
 26 21  2  0
 27 28  1  0
 28 29  1  0
 29 30  2  0
 31 30  1  0
 31 35  1  0
 32 31  2  0
 33 28  2  0
 33 32  1  0
 34 33  1  0
 36 37  1  0
 37 40  1  0
 37 39  1  0
 38 36  2  0
 41 42  1  0
 41 16  1  0
 43 41  1  0
 44  2  1  0
 44 45  1  0
 46 57  2  0
 47 45  1  0
 47 52  1  0
 48 56  1  0
 48 58  1  0
 49 55  1  0
 49 51  1  0
 50 56  1  0
 51 50  1  0
 52 51  2  0
 53 47  2  0
 54 53  1  0
 54 49  2  0
 55 48  1  0
 56 46  1  0
 58 60  2  0
 59 58  1  0
 61 59  1  0
 62 71  2  0
 62 67  1  0
 63 59  1  0
 63 67  1  0
 64 63  1  0
 65 66  1  0
 65 64  1  0
 66 62  1  0
 67 68  2  0
 68 69  1  0
 70 69  2  0
 71 70  1  0
 72 46  1  0
 72 77  1  0
 72 73  1  0
 73 76  1  1
 73 74  1  0
 75 73  1  0
 77 80  1  0
 78 82  1  0
 78 77  1  0
 79 78  2  0
 82 81  1  0
 84 82  1  0
 84 85  1  0
 84 83  1  0
M  ISO  4   6 100  15 100  44 101  45 101
M  END
>  <TORSDO>  (7) 
F 20

>  <SCORE>  (7) 
-14.312

>  <name>  (7) 
6

>  <ligand_id>  (7) 
6

>  <original_smiles>  (7) 
[H]c1c([H])c([H])c2c(c1[H])C([H])([H])C([H])([H])C([H])([H])C2([H])N([H])C(=O)C1([H])N(C(=O)C([H])(N([H])C(=O)C([H])(N([H])C([H])([H])[H])C([H])([H])[H])C(C([H])([H])[H])(C([H])([H])[H])C([H])([H])[H])C([H])([H])c2c([H])c(OC([H])([H])C#CC([H])([H])C([H])([H])C([H])([H])N(C(=O)N3C([H])([H])C([H])([H])C([H])([H])C([H])(n4nc(-c5c([H])c([H])c(Oc6c([H])c([H])c(F)c([H])c6F)c([H])c5[H])c(C(=O)N([H])[H])c4N([H])[H])C3([H])[H])C([H])([H])[H])c([H])c([H])c2C1([H])[H]

>  <smiles>  (7) 
[H]c1c([H])c([H])c2c(c1[H])C([H])([H])C([H])([H])C([H])([H])C2([H])N([H])C(=O)C1([H])N(C(=O)C([H])(N([H])C(=O)C([H])(N([H])C([H])([H])[H])C([H])([H])[H])C(C([H])([H])[H])(C([H])([H])[H])C([H])([H])[H])C([H])([H])c2c([H])c(OC([H])([H])C#CC([H])([H])C([H])([H])C([H])([H])N(C(=O)N3C([H])([H])C([H])([H])C([H])([H])C([H])(n4nc(-c5c([H])c([H])c(Oc6c([H])c([H])c(F)c([H])c6F)c([H])c5[H])c(C(=O)N([H])[H])c4N([H])[H])C3([H])[H])C([H])([H])[H])c([H])c([H])c2C1([H])[H]

$$$$
7:0:0
     RDKit          3D

 82 86  0  0  1  0  0  0  0  0999 V2000
  -28.2030  -25.2140   20.1870 O   0  0  0  0  0  1  0  0  0  0  0  0
  -24.6590  -31.8230   23.1160 C   0  0  0  0  0  0  0  0  0  0  0  0
  -27.2270  -26.5180   20.2190 C   0  0  0  0  0  0  0  0  0  0  0  0
  -23.5030  -30.4040   21.4840 C   0  0  0  0  0  3  0  0  0  0  0  0
  -24.9680  -28.6960   20.1210 C   0  0  0  0  0  0  0  0  0  0  0  0
  -26.0920  -30.4850   21.4080 C   0  0  0  0  0  2  0  0  0  0  0  0
  -26.1660  -29.0180   20.7700 C   0  0  0  0  0  0  0  0  0  0  0  0
  -27.2690  -27.9690   20.7710 C   0  0  0  0  0  3  0  0  0  0  0  0
  -25.9850  -26.4690   19.5130 C   0  0  0  0  0  3  0  0  0  0  0  0
  -24.9320  -27.4500   19.4670 C   0  0  0  0  0  3  0  0  0  0  0  0
  -23.7680  -29.6710   20.1330 C   0  0  0  0  0  2  0  0  0  0  0  0
  -24.7790  -30.9440   22.0540 N   0  0  0  0  0  0  0  0  0  0  0  0
  -23.5550  -32.1300   23.6020 O   0  0  0  0  0  0  0  0  0  0  0  0
  -22.7610  -29.4600   22.4680 C   0  0  0  0  0  0  0  0  0  0  0  0
  -21.4220  -29.3490   22.3610 N   0  0  0  0  0  0  0  0  0  0  0  0
  -23.4040  -28.8170   23.3000 O   0  0  0  0  0  0  0  0  0  0  0  0
  -20.9470  -29.9240   21.6780 H   0  0  0  0  0  0  0  0  0  0  0  0
  -18.0030  -28.1330   22.8590 C   0  0  0  0  0  0  0  0  0  0  0  0
  -20.5950  -28.3830   23.0970 C   0  0  0  0  0  0  0  0  0  0  0  0
  -20.7720  -26.9760   22.4620 C   0  0  0  0  0  3  0  0  0  0  0  0
  -19.5380  -26.4150   21.7220 C   0  0  0  0  0  3  0  0  0  0  0  0
  -18.0990  -26.8440   22.0560 C   0  0  0  0  0  3  0  0  0  0  0  0
  -19.1450  -28.8670   23.2920 C   0  0  0  0  0  0  0  0  0  0  0  0
  -18.9400  -30.1130   23.9270 C   0  0  0  0  0  3  0  0  0  0  0  0
  -17.6430  -30.6230   24.1300 C   0  0  0  0  0  3  0  0  0  0  0  0
  -16.5250  -29.8800   23.7210 C   0  0  0  0  0  3  0  0  0  0  0  0
  -16.7080  -28.6360   23.0960 C   0  0  0  0  0  3  0  0  0  0  0  0
  -25.9010  -32.4970   23.7720 C   0  0  0  0  0  3  0  0  0  0  0  0
  -25.5540  -33.8960   24.1020 N   0  0  0  0  0  0  0  0  0  0  0  0
  -25.8860  -34.9730   23.3740 C   0  0  0  0  0  0  0  0  0  0  0  0
  -26.5670  -34.8910   22.3500 O   0  0  0  0  0  0  0  0  0  0  0  0
  -24.9460  -34.0310   24.8960 H   0  0  0  0  0  0  0  0  0  0  0  0
  -24.1500  -36.7720   23.0460 C   0  0  0  0  0  1  0  0  0  0  0  0
  -25.3900  -36.3550   23.8530 C   0  0  0  0  0  3  0  0  0  0  0  0
  -27.5120  -37.2520   24.7100 C   0  0  0  0  0  1  0  0  0  0  0  0
  -26.4160  -37.4190   23.7590 N   0  0  0  0  0  0  0  0  0  0  0  0
  -26.0000  -38.3340   23.9110 H   0  0  0  0  0  0  0  0  0  0  0  0
  -26.3860  -31.7540   25.0790 C   0  0  1  0  0  0  0  0  0  0  0  0
  -25.2660  -31.5290   26.1240 C   0  0  0  0  0  1  0  0  0  0  0  0
  -26.9880  -30.3730   24.7440 C   0  0  0  0  0  1  0  0  0  0  0  0
  -27.5140  -32.5680   25.7560 C   0  0  0  0  0  1  0  0  0  0  0  0
  -28.2300  -23.3320   20.4390 C   0  0  0  0  0 15  0  0  0  0  0  0
  -28.7870  -21.3790   19.8640 C   0  0  0  0  0 15  0  0  0  0  0  0
  -29.3980  -19.4400   20.4120 C   0  0  0  0  0  1  0  0  0  0  0  0
  -30.1690  -16.0920   20.0360 C   0  0  0  0  0  0  0  0  0  0  0  0
  -30.3590  -13.4710   19.1990 C   0  0  0  0  0  2  0  0  0  0  0  0
  -29.4770  -12.8700   18.0550 C   0  0  0  0  0  2  0  0  0  0  0  0
  -28.1030  -12.4290   18.5740 C   0  0  0  0  0  2  0  0  0  0  0  0
  -27.5630  -13.4490   19.5940 C   0  0  0  0  0  3  0  0  0  0  0  0
  -28.6020  -13.9210   20.6470 C   0  0  0  0  0  2  0  0  0  0  0  0
  -29.6750  -14.6720   19.9180 N   0  0  0  0  0  0  0  0  0  0  0  0
  -31.4150  -15.9560   19.9590 O   0  0  0  0  0  0  0  0  0  0  0  0
  -29.4220  -17.5600   20.0550 N   0  0  0  0  0  0  0  0  0  0  0  0
  -28.4530  -17.3130   19.9040 H   0  0  0  0  0  0  0  0  0  0  0  0
  -25.2310  -13.9310   20.4500 C   0  0  0  0  0  0  0  0  0  0  0  0
  -24.1900  -13.1380   20.8360 C   0  0  0  0  0  0  0  0  0  0  0  0
  -24.6710  -11.7930   20.7770 C   0  0  0  0  0  0  0  0  0  0  0  0
  -26.2760  -13.0750   20.1660 N   0  0  0  0  0  0  0  0  0  0  0  0
  -25.9570  -11.7790   20.4270 N   0  0  0  0  0  0  0  0  0  0  0  0
  -23.9560  -10.5240   20.9740 C   0  0  0  0  0  0  0  0  0  0  0  0
  -24.4050   -9.5560   21.8990 C   0  0  0  0  0  3  0  0  0  0  0  0
  -23.6830   -8.3560   22.0890 C   0  0  0  0  0  3  0  0  0  0  0  0
  -22.4960   -8.1180   21.3550 C   0  0  0  0  0  0  0  0  0  0  0  0
  -22.0660   -9.0740   20.4200 C   0  0  0  0  0  3  0  0  0  0  0  0
  -22.7890  -10.2650   20.2280 C   0  0  0  0  0  3  0  0  0  0  0  0
  -21.7460   -6.9710   21.4550 O   0  0  0  0  0  0  0  0  0  0  0  0
  -21.7090   -6.2310   22.6100 C   0  0  0  0  0  0  0  0  0  0  0  0
  -21.2840   -6.7860   23.8360 C   0  0  0  0  0  3  0  0  0  0  0  0
  -21.1960   -5.9730   24.9840 C   0  0  0  0  0  3  0  0  0  0  0  0
  -21.5230   -4.6050   24.9060 C   0  0  0  0  0  0  0  0  0  0  0  0
  -21.9420   -4.0500   23.6840 C   0  0  0  0  0  3  0  0  0  0  0  0
  -22.0320   -4.8600   22.5390 C   0  0  0  0  0  0  0  0  0  0  0  0
  -22.4140   -4.3150   21.3590 F   0  0  0  0  0  0  0  0  0  0  0  0
  -21.4320   -3.8220   26.0060 F   0  0  0  0  0  0  0  0  0  0  0  0
  -22.7960  -13.6030   21.1400 C   0  0  0  0  0  0  0  0  0  0  0  0
  -22.0920  -12.8960   22.0160 N   0  0  0  0  0  0  0  0  0  0  0  0
  -22.3430  -14.6300   20.6380 O   0  0  0  0  0  0  0  0  0  0  0  0
  -22.4740  -12.0650   22.4440 H   0  0  0  0  0  0  0  0  0  0  0  0
  -21.1580  -13.1890   22.2630 H   0  0  0  0  0  0  0  0  0  0  0  0
  -25.3710  -15.3060   20.2780 N   0  0  0  0  0  0  0  0  0  0  0  0
  -24.5980  -15.9490   20.4140 H   0  0  0  0  0  0  0  0  0  0  0  0
  -26.2020  -15.7550   19.9170 H   0  0  0  0  0  0  0  0  0  0  0  0
  1  3  1  0
  2 13  2  0
  3  8  1  0
  4 12  1  0
  4 14  1  0
  5 11  1  0
  5  7  1  0
  6 12  1  0
  7  8  2  0
  7  6  1  0
  9  3  2  0
 10  9  1  0
 10  5  2  0
 11  4  1  0
 12  2  1  0
 14 16  2  0
 15 14  1  0
 15 19  1  0
 17 15  1  0
 18 27  2  0
 18 23  1  0
 19 23  1  0
 20 19  2  0
 21 22  2  0
 21 20  1  0
 22 18  1  0
 23 24  2  0
 24 25  1  0
 26 25  2  0
 27 26  1  0
 28  2  1  0
 28 29  1  0
 28 38  1  0
 29 32  1  0
 30 34  1  0
 30 29  1  0
 31 30  2  0
 34 33  1  0
 36 34  1  0
 36 37  1  0
 36 35  1  0
 38 41  1  1
 38 39  1  0
 40 38  1  0
 45 53  1  0
 46 51  1  0
 47 48  1  0
 47 46  1  0
 49 48  1  0
 49 58  1  0
 49 50  1  0
 51 45  1  0
 51 50  1  0
 52 45  2  0
 53 44  1  0
 54 53  1  0
 55 56  2  0
 56 75  1  0
 57 56  1  0
 57 60  1  0
 58 59  1  0
 58 55  1  0
 59 57  2  0
 60 61  1  0
 61 62  2  0
 63 66  1  0
 63 62  1  0
 64 63  2  0
 65 64  1  0
 65 60  2  0
 66 67  1  0
 67 68  1  0
 68 69  2  0
 70 69  1  0
 70 74  1  0
 71 70  2  0
 72 67  2  0
 72 71  1  0
 73 72  1  0
 75 76  1  0
 76 79  1  0
 76 78  1  0
 77 75  2  0
 80 81  1  0
 80 55  1  0
 82 80  1  0
M  ISO  4   1 101  42 101  45 100  53 100
M  END
>  <TORSDO>  (8) 
F 18

>  <SCORE>  (8) 
-16.165

>  <name>  (8) 
7

>  <ligand_id>  (8) 
7

>  <original_smiles>  (8) 
[H]c1c([H])c([H])c2c(c1[H])C([H])([H])C([H])([H])C([H])([H])C2([H])N([H])C(=O)C1([H])N(C(=O)C([H])(N([H])C(=O)C([H])(N([H])C([H])([H])[H])C([H])([H])[H])C(C([H])([H])[H])(C([H])([H])[H])C([H])([H])[H])C([H])([H])c2c([H])c(OC([H])([H])C([H])([H])C([H])([H])N([H])C(=O)N3C([H])([H])C([H])([H])C([H])([H])C([H])(n4nc(-c5c([H])c([H])c(Oc6c([H])c([H])c(F)c([H])c6F)c([H])c5[H])c(C(=O)N([H])[H])c4N([H])[H])C3([H])[H])c([H])c([H])c2C1([H])[H]

>  <smiles>  (8) 
[H]c1c([H])c([H])c2c(c1[H])C([H])([H])C([H])([H])C([H])([H])C2([H])N([H])C(=O)C1([H])N(C(=O)C([H])(N([H])C(=O)C([H])(N([H])C([H])([H])[H])C([H])([H])[H])C(C([H])([H])[H])(C([H])([H])[H])C([H])([H])[H])C([H])([H])c2c([H])c(OC([H])([H])C([H])([H])C([H])([H])N([H])C(=O)N3C([H])([H])C([H])([H])C([H])([H])C([H])(n4nc(-c5c([H])c([H])c(Oc6c([H])c([H])c(F)c([H])c6F)c([H])c5[H])c(C(=O)N([H])[H])c4N([H])[H])C3([H])[H])c([H])c([H])c2C1([H])[H]

$$$$
8:0:0
     RDKit          3D

 82 86  0  0  1  0  0  0  0  0999 V2000
  -28.2030  -25.2140   20.1870 O   0  0  0  0  0  1  0  0  0  0  0  0
  -24.6590  -31.8230   23.1160 C   0  0  0  0  0  0  0  0  0  0  0  0
  -27.2270  -26.5180   20.2190 C   0  0  0  0  0  0  0  0  0  0  0  0
  -23.5030  -30.4040   21.4840 C   0  0  0  0  0  3  0  0  0  0  0  0
  -24.9680  -28.6960   20.1210 C   0  0  0  0  0  0  0  0  0  0  0  0
  -26.0920  -30.4850   21.4080 C   0  0  0  0  0  2  0  0  0  0  0  0
  -26.1660  -29.0180   20.7700 C   0  0  0  0  0  0  0  0  0  0  0  0
  -27.2690  -27.9690   20.7710 C   0  0  0  0  0  3  0  0  0  0  0  0
  -25.9850  -26.4690   19.5130 C   0  0  0  0  0  3  0  0  0  0  0  0
  -24.9320  -27.4500   19.4670 C   0  0  0  0  0  3  0  0  0  0  0  0
  -23.7680  -29.6710   20.1330 C   0  0  0  0  0  2  0  0  0  0  0  0
  -24.7790  -30.9440   22.0540 N   0  0  0  0  0  0  0  0  0  0  0  0
  -23.5550  -32.1300   23.6020 O   0  0  0  0  0  0  0  0  0  0  0  0
  -22.7610  -29.4600   22.4680 C   0  0  0  0  0  0  0  0  0  0  0  0
  -21.4220  -29.3490   22.3610 N   0  0  0  0  0  0  0  0  0  0  0  0
  -23.4040  -28.8170   23.3000 O   0  0  0  0  0  0  0  0  0  0  0  0
  -20.9470  -29.9240   21.6780 H   0  0  0  0  0  0  0  0  0  0  0  0
  -18.0030  -28.1330   22.8590 C   0  0  0  0  0  0  0  0  0  0  0  0
  -20.5950  -28.3830   23.0970 C   0  0  0  0  0  0  0  0  0  0  0  0
  -20.7720  -26.9760   22.4620 C   0  0  0  0  0  3  0  0  0  0  0  0
  -19.5380  -26.4150   21.7220 C   0  0  0  0  0  3  0  0  0  0  0  0
  -18.0990  -26.8440   22.0560 C   0  0  0  0  0  3  0  0  0  0  0  0
  -19.1450  -28.8670   23.2920 C   0  0  0  0  0  0  0  0  0  0  0  0
  -18.9400  -30.1130   23.9270 C   0  0  0  0  0  3  0  0  0  0  0  0
  -17.6430  -30.6230   24.1300 C   0  0  0  0  0  3  0  0  0  0  0  0
  -16.5250  -29.8800   23.7210 C   0  0  0  0  0  3  0  0  0  0  0  0
  -16.7080  -28.6360   23.0960 C   0  0  0  0  0  3  0  0  0  0  0  0
  -25.9010  -32.4970   23.7720 C   0  0  0  0  0  3  0  0  0  0  0  0
  -25.5540  -33.8960   24.1020 N   0  0  0  0  0  0  0  0  0  0  0  0
  -25.8860  -34.9730   23.3740 C   0  0  0  0  0  0  0  0  0  0  0  0
  -26.5670  -34.8910   22.3500 O   0  0  0  0  0  0  0  0  0  0  0  0
  -24.9460  -34.0310   24.8960 H   0  0  0  0  0  0  0  0  0  0  0  0
  -24.1500  -36.7720   23.0460 C   0  0  0  0  0  1  0  0  0  0  0  0
  -25.3900  -36.3550   23.8530 C   0  0  0  0  0  3  0  0  0  0  0  0
  -27.5120  -37.2520   24.7100 C   0  0  0  0  0  1  0  0  0  0  0  0
  -26.4160  -37.4190   23.7590 N   0  0  0  0  0  0  0  0  0  0  0  0
  -26.0000  -38.3340   23.9110 H   0  0  0  0  0  0  0  0  0  0  0  0
  -26.3860  -31.7540   25.0790 C   0  0  1  0  0  0  0  0  0  0  0  0
  -25.2660  -31.5290   26.1240 C   0  0  0  0  0  1  0  0  0  0  0  0
  -26.9880  -30.3730   24.7440 C   0  0  0  0  0  1  0  0  0  0  0  0
  -27.5140  -32.5680   25.7560 C   0  0  0  0  0  1  0  0  0  0  0  0
  -28.2300  -23.3320   20.4390 C   0  0  0  0  0 15  0  0  0  0  0  0
  -28.7870  -21.3790   19.8640 C   0  0  0  0  0 15  0  0  0  0  0  0
  -29.3980  -19.4400   20.4120 C   0  0  0  0  0  1  0  0  0  0  0  0
  -30.1690  -16.0920   20.0360 C   0  0  0  0  0  0  0  0  0  0  0  0
  -30.3590  -13.4710   19.1990 C   0  0  0  0  0  2  0  0  0  0  0  0
  -29.4770  -12.8700   18.0550 C   0  0  0  0  0  2  0  0  0  0  0  0
  -28.1030  -12.4290   18.5740 C   0  0  0  0  0  2  0  0  0  0  0  0
  -27.5630  -13.4490   19.5940 C   0  0  0  0  0  3  0  0  0  0  0  0
  -28.6020  -13.9210   20.6470 C   0  0  0  0  0  2  0  0  0  0  0  0
  -29.6750  -14.6720   19.9180 N   0  0  0  0  0  0  0  0  0  0  0  0
  -31.4150  -15.9560   19.9590 O   0  0  0  0  0  0  0  0  0  0  0  0
  -29.4220  -17.5600   20.0550 N   0  0  0  0  0  0  0  0  0  0  0  0
  -28.4530  -17.3130   19.9040 H   0  0  0  0  0  0  0  0  0  0  0  0
  -25.2310  -13.9310   20.4500 C   0  0  0  0  0  0  0  0  0  0  0  0
  -24.1900  -13.1380   20.8360 C   0  0  0  0  0  0  0  0  0  0  0  0
  -24.6710  -11.7930   20.7770 C   0  0  0  0  0  0  0  0  0  0  0  0
  -26.2760  -13.0750   20.1660 N   0  0  0  0  0  0  0  0  0  0  0  0
  -25.9570  -11.7790   20.4270 N   0  0  0  0  0  0  0  0  0  0  0  0
  -23.9560  -10.5240   20.9740 C   0  0  0  0  0  0  0  0  0  0  0  0
  -24.4050   -9.5560   21.8990 C   0  0  0  0  0  3  0  0  0  0  0  0
  -23.6830   -8.3560   22.0890 C   0  0  0  0  0  3  0  0  0  0  0  0
  -22.4960   -8.1180   21.3550 C   0  0  0  0  0  0  0  0  0  0  0  0
  -22.0660   -9.0740   20.4200 C   0  0  0  0  0  3  0  0  0  0  0  0
  -22.7890  -10.2650   20.2280 C   0  0  0  0  0  3  0  0  0  0  0  0
  -21.7460   -6.9710   21.4550 O   0  0  0  0  0  0  0  0  0  0  0  0
  -21.7090   -6.2310   22.6100 C   0  0  0  0  0  0  0  0  0  0  0  0
  -21.2840   -6.7860   23.8360 C   0  0  0  0  0  3  0  0  0  0  0  0
  -21.1960   -5.9730   24.9840 C   0  0  0  0  0  3  0  0  0  0  0  0
  -21.5230   -4.6050   24.9060 C   0  0  0  0  0  0  0  0  0  0  0  0
  -21.9420   -4.0500   23.6840 C   0  0  0  0  0  3  0  0  0  0  0  0
  -22.0320   -4.8600   22.5390 C   0  0  0  0  0  0  0  0  0  0  0  0
  -22.4140   -4.3150   21.3590 F   0  0  0  0  0  0  0  0  0  0  0  0
  -21.4320   -3.8220   26.0060 F   0  0  0  0  0  0  0  0  0  0  0  0
  -22.7960  -13.6030   21.1400 C   0  0  0  0  0  0  0  0  0  0  0  0
  -22.0920  -12.8960   22.0160 N   0  0  0  0  0  0  0  0  0  0  0  0
  -22.3430  -14.6300   20.6380 O   0  0  0  0  0  0  0  0  0  0  0  0
  -22.4740  -12.0650   22.4440 H   0  0  0  0  0  0  0  0  0  0  0  0
  -21.1580  -13.1890   22.2630 H   0  0  0  0  0  0  0  0  0  0  0  0
  -25.3710  -15.3060   20.2780 N   0  0  0  0  0  0  0  0  0  0  0  0
  -24.5980  -15.9490   20.4140 H   0  0  0  0  0  0  0  0  0  0  0  0
  -26.2020  -15.7550   19.9170 H   0  0  0  0  0  0  0  0  0  0  0  0
  1  3  1  0
  2 13  2  0
  3  8  1  0
  4 12  1  0
  4 14  1  0
  5 11  1  0
  5  7  1  0
  6 12  1  0
  7  8  2  0
  7  6  1  0
  9  3  2  0
 10  9  1  0
 10  5  2  0
 11  4  1  0
 12  2  1  0
 14 16  2  0
 15 14  1  0
 15 19  1  0
 17 15  1  0
 18 27  2  0
 18 23  1  0
 19 23  1  0
 20 19  2  0
 21 22  2  0
 21 20  1  0
 22 18  1  0
 23 24  2  0
 24 25  1  0
 26 25  2  0
 27 26  1  0
 28  2  1  0
 28 29  1  0
 28 38  1  0
 29 32  1  0
 30 34  1  0
 30 29  1  0
 31 30  2  0
 34 33  1  0
 36 34  1  0
 36 37  1  0
 36 35  1  0
 38 41  1  1
 38 39  1  0
 40 38  1  0
 45 53  1  0
 46 51  1  0
 47 48  1  0
 47 46  1  0
 49 48  1  0
 49 58  1  0
 49 50  1  0
 51 45  1  0
 51 50  1  0
 52 45  2  0
 53 44  1  0
 54 53  1  0
 55 56  2  0
 56 75  1  0
 57 56  1  0
 57 60  1  0
 58 59  1  0
 58 55  1  0
 59 57  2  0
 60 61  1  0
 61 62  2  0
 63 66  1  0
 63 62  1  0
 64 63  2  0
 65 64  1  0
 65 60  2  0
 66 67  1  0
 67 68  1  0
 68 69  2  0
 70 69  1  0
 70 74  1  0
 71 70  2  0
 72 67  2  0
 72 71  1  0
 73 72  1  0
 75 76  1  0
 76 79  1  0
 76 78  1  0
 77 75  2  0
 80 81  1  0
 80 55  1  0
 82 80  1  0
M  ISO  4   1 101  42 101  45 100  53 100
M  END
>  <TORSDO>  (9) 
F 18

>  <SCORE>  (9) 
-16.165

>  <name>  (9) 
8

>  <ligand_id>  (9) 
8

>  <original_smiles>  (9) 
[H]c1c([H])c([H])c2c(c1[H])C([H])([H])C([H])([H])C([H])([H])C2([H])N([H])C(=O)C1([H])N(C(=O)C([H])(N([H])C(=O)C([H])(N([H])C([H])([H])[H])C([H])([H])[H])C(C([H])([H])[H])(C([H])([H])[H])C([H])([H])[H])C([H])([H])c2c([H])c(OC([H])([H])C([H])([H])C([H])([H])N([H])C(=O)N3C([H])([H])C([H])([H])C([H])([H])C([H])(n4nc(-c5c([H])c([H])c(Oc6c([H])c([H])c(F)c([H])c6F)c([H])c5[H])c(C(=O)N([H])[H])c4N([H])[H])C3([H])[H])c([H])c([H])c2C1([H])[H]

>  <smiles>  (9) 
[H]c1c([H])c([H])c2c(c1[H])C([H])([H])C([H])([H])C([H])([H])C2([H])N([H])C(=O)C1([H])N(C(=O)C([H])(N([H])C(=O)C([H])(N([H])C([H])([H])[H])C([H])([H])[H])C(C([H])([H])[H])(C([H])([H])[H])C([H])([H])[H])C([H])([H])c2c([H])c(OC([H])([H])C([H])([H])C([H])([H])N([H])C(=O)N3C([H])([H])C([H])([H])C([H])([H])C([H])(n4nc(-c5c([H])c([H])c(Oc6c([H])c([H])c(F)c([H])c6F)c([H])c5[H])c(C(=O)N([H])[H])c4N([H])[H])C3([H])[H])c([H])c([H])c2C1([H])[H]

$$$$
9:0:0
     RDKit          3D

 84 91  0  0  1  0  0  0  0  0999 V2000
  -28.0360  -24.2690   20.5090 C   0  0  0  0  0  2  0  0  0  0  0  0
  -28.2220  -25.8810   20.2090 O   0  0  0  0  0  0  0  0  0  0  0  0
  -24.6160  -31.8370   23.1800 C   0  0  0  0  0  0  0  0  0  0  0  0
  -27.1870  -26.9520   20.2070 C   0  0  0  0  0  0  0  0  0  0  0  0
  -23.4240  -30.4230   21.5540 C   0  0  0  0  0  3  0  0  0  0  0  0
  -24.8760  -28.8110   20.1480 C   0  0  0  0  0  0  0  0  0  0  0  0
  -25.9900  -30.6480   21.3990 C   0  0  0  0  0  2  0  0  0  0  0  0
  -26.0650  -29.2330   20.7580 C   0  0  0  0  0  0  0  0  0  0  0  0
  -27.2180  -28.3250   20.7560 C   0  0  0  0  0  3  0  0  0  0  0  0
  -25.9650  -26.6750   19.5560 C   0  0  0  0  0  3  0  0  0  0  0  0
  -24.8500  -27.5530   19.5260 C   0  0  0  0  0  3  0  0  0  0  0  0
  -23.6540  -29.7270   20.1840 C   0  0  0  0  0  2  0  0  0  0  0  0
  -24.6980  -30.9970   22.0980 N   0  0  0  0  0  0  0  0  0  0  0  0
  -23.5260  -32.1260   23.7010 O   0  0  0  0  0  0  0  0  0  0  0  0
  -22.7360  -29.4330   22.5290 C   0  0  0  0  0  0  0  0  0  0  0  0
  -21.4040  -29.2710   22.4160 N   0  0  0  0  0  0  0  0  0  0  0  0
  -23.4070  -28.8080   23.3540 O   0  0  0  0  0  0  0  0  0  0  0  0
  -20.9170  -29.8260   21.7270 H   0  0  0  0  0  0  0  0  0  0  0  0
  -18.0230  -28.0690   22.9520 C   0  0  0  0  0  0  0  0  0  0  0  0
  -20.5850  -28.3390   23.1970 C   0  0  0  0  0  3  0  0  0  0  0  0
  -20.6840  -26.9040   22.6300 C   0  0  0  0  0  2  0  0  0  0  0  0
  -19.5750  -26.5740   21.6240 C   0  0  0  0  0  2  0  0  0  0  0  0
  -18.1970  -26.7180   22.2770 C   0  0  0  0  0  2  0  0  0  0  0  0
  -19.1440  -28.8370   23.3690 C   0  0  0  0  0  0  0  0  0  0  0  0
  -18.9240  -30.0980   23.9630 C   0  0  0  0  0  3  0  0  0  0  0  0
  -17.6200  -30.5940   24.1420 C   0  0  0  0  0  3  0  0  0  0  0  0
  -16.5140  -29.8250   23.7380 C   0  0  0  0  0  3  0  0  0  0  0  0
  -16.7170  -28.5640   23.1490 C   0  0  0  0  0  3  0  0  0  0  0  0
  -25.8860  -32.4890   23.8060 C   0  0  0  0  0  3  0  0  0  0  0  0
  -26.4090  -31.7230   25.0840 C   0  0  1  0  0  0  0  0  0  0  0  0
  -25.3200  -31.4800   26.1550 C   0  0  0  0  0  1  0  0  0  0  0  0
  -27.0000  -30.3470   24.6990 C   0  0  0  0  0  1  0  0  0  0  0  0
  -27.5570  -32.5240   25.7410 C   0  0  0  0  0  1  0  0  0  0  0  0
  -25.5550  -33.8830   24.1530 N   0  0  0  0  0  0  0  0  0  0  0  0
  -25.8660  -34.9530   23.4100 C   0  0  0  0  0  0  0  0  0  0  0  0
  -26.5250  -34.8730   22.3700 O   0  0  0  0  0  0  0  0  0  0  0  0
  -24.9660  -34.0180   24.9610 H   0  0  0  0  0  0  0  0  0  0  0  0
  -24.1090  -36.7340   23.1180 C   0  0  0  0  0  1  0  0  0  0  0  0
  -25.3720  -36.3320   23.8960 C   0  0  0  0  0  3  0  0  0  0  0  0
  -27.5150  -37.2360   24.6870 C   0  0  0  0  0  1  0  0  0  0  0  0
  -26.3890  -37.4000   23.7720 N   0  0  0  0  0  0  0  0  0  0  0  0
  -25.9750  -38.3130   23.9390 H   0  0  0  0  0  0  0  0  0  0  0  0
  -28.7190  -22.6990   19.9240 C   0  0  0  0  0  2  0  0  0  0  0  0
  -28.9900  -21.2170   20.5850 O   0  0  0  0  0  0  0  0  0  0  0  0
  -29.0780  -19.6810   19.9990 C   0  0  0  0  0  2  0  0  0  0  0  0
  -29.8810  -18.1670   20.5600 C   0  0  0  0  0  2  0  0  0  0  0  0
  -30.3820  -15.2640   20.2540 C   0  0  0  0  0  0  0  0  0  0  0  0
  -30.3490  -12.8260   19.3660 C   0  0  0  0  0  2  0  0  0  0  0  0
  -29.4210  -12.6110   18.1440 C   0  0  0  0  0  2  0  0  0  0  0  0
  -27.9740  -12.3490   18.5940 C   0  0  0  0  0  2  0  0  0  0  0  0
  -27.5290  -13.3180   19.7180 C   0  0  0  0  0  3  0  0  0  0  0  0
  -28.5830  -13.4670   20.8330 C   0  0  0  0  0  2  0  0  0  0  0  0
  -29.8060  -13.9670   20.1860 N   0  0  0  0  0  0  0  0  0  0  0  0
  -31.6080  -15.2630   20.0800 O   0  0  0  0  0  0  0  0  0  0  0  0
  -29.6180  -16.5330   20.3180 N   0  0  0  0  0  0  0  0  0  0  0  0
  -28.6290  -16.3280   20.3210 H   0  0  0  0  0  0  0  0  0  0  0  0
  -25.1610  -13.8840   20.4750 C   0  0  0  0  0  0  0  0  0  0  0  0
  -24.0990  -13.1090   20.8510 C   0  0  0  0  0  0  0  0  0  0  0  0
  -24.5680  -11.7590   20.8280 C   0  0  0  0  0  0  0  0  0  0  0  0
  -26.2030  -13.0060   20.2350 N   0  0  0  0  0  0  0  0  0  0  0  0
  -25.8590  -11.7220   20.5170 N   0  0  0  0  0  0  0  0  0  0  0  0
  -23.8400  -10.4970   21.0260 C   0  0  0  0  0  0  0  0  0  0  0  0
  -24.2820   -9.5240   21.9500 C   0  0  0  0  0  3  0  0  0  0  0  0
  -23.5520   -8.3310   22.1370 C   0  0  0  0  0  3  0  0  0  0  0  0
  -22.3660   -8.1010   21.4000 C   0  0  0  0  0  0  0  0  0  0  0  0
  -21.9430   -9.0620   20.4650 C   0  0  0  0  0  3  0  0  0  0  0  0
  -22.6730  -10.2470   20.2760 C   0  0  0  0  0  3  0  0  0  0  0  0
  -21.6060   -6.9600   21.4960 O   0  0  0  0  0  0  0  0  0  0  0  0
  -21.5890   -6.2020   22.6400 C   0  0  0  0  0  0  0  0  0  0  0  0
  -21.2240   -6.7480   23.8900 C   0  0  0  0  0  3  0  0  0  0  0  0
  -21.1520   -5.9180   25.0260 C   0  0  0  0  0  3  0  0  0  0  0  0
  -21.4340   -4.5440   24.9150 C   0  0  0  0  0  0  0  0  0  0  0  0
  -21.7920   -3.9970   23.6700 C   0  0  0  0  0  3  0  0  0  0  0  0
  -21.8660   -4.8250   22.5350 C   0  0  0  0  0  0  0  0  0  0  0  0
  -22.1910   -4.2890   21.3340 F   0  0  0  0  0  0  0  0  0  0  0  0
  -21.3580   -3.7440   26.0040 F   0  0  0  0  0  0  0  0  0  0  0  0
  -22.7020  -13.5880   21.1150 C   0  0  0  0  0  0  0  0  0  0  0  0
  -21.9740  -12.9020   21.9880 N   0  0  0  0  0  0  0  0  0  0  0  0
  -22.2660  -14.6070   20.5800 O   0  0  0  0  0  0  0  0  0  0  0  0
  -22.3410  -12.0790   22.4420 H   0  0  0  0  0  0  0  0  0  0  0  0
  -21.0360  -13.2060   22.2080 H   0  0  0  0  0  0  0  0  0  0  0  0
  -25.3200  -15.2530   20.2870 N   0  0  0  0  0  0  0  0  0  0  0  0
  -24.5470  -15.9020   20.3920 H   0  0  0  0  0  0  0  0  0  0  0  0
  -26.1550  -15.6900   19.9190 H   0  0  0  0  0  0  0  0  0  0  0  0
  2  1  1  0
  3 14  2  0
  4  2  1  0
  4  9  1  0
  5 13  1  0
  5 15  1  0
  6 12  1  0
  6  8  1  0
  7 13  1  0
  8  7  1  0
  9  8  2  0
 10  4  2  0
 11 10  1  0
 11  6  2  0
 12  5  1  0
 13  3  1  0
 15 17  2  0
 16 15  1  0
 18 16  1  0
 19 28  2  0
 19 24  1  0
 20 16  1  0
 20 24  1  0
 21 20  1  0
 22 23  1  0
 22 21  1  0
 23 19  1  0
 24 25  2  0
 25 26  1  0
 27 26  2  0
 28 27  1  0
 29  3  1  0
 29 34  1  0
 29 30  1  0
 30 33  1  1
 30 31  1  0
 32 30  1  0
 34 37  1  0
 35 39  1  0
 35 34  1  0
 36 35  2  0
 39 38  1  0
 41 39  1  0
 41 42  1  0
 41 40  1  0
 43  1  1  0
 43 44  1  0
 45 46  1  0
 45 44  1  0
 47 55  1  0
 48 53  1  0
 49 50  1  0
 49 48  1  0
 51 50  1  0
 51 60  1  0
 51 52  1  0
 53 47  1  0
 53 52  1  0
 54 47  2  0
 55 56  1  0
 55 46  1  0
 57 58  2  0
 58 77  1  0
 59 58  1  0
 59 62  1  0
 60 57  1  0
 60 61  1  0
 61 59  2  0
 62 63  1  0
 63 64  2  0
 65 68  1  0
 65 64  1  0
 66 65  2  0
 67 66  1  0
 67 62  2  0
 68 69  1  0
 69 70  1  0
 70 71  2  0
 72 71  1  0
 72 76  1  0
 73 72  2  0
 74 69  2  0
 74 73  1  0
 75 74  1  0
 77 78  1  0
 78 81  1  0
 78 80  1  0
 79 77  2  0
 82 83  1  0
 82 57  1  0
 84 82  1  0
M  ISO  4   1 101   2 101  47 100  55 100
M  END
>  <TORSDO>  (10) 
F 20

>  <SCORE>  (10) 
-15.761

>  <name>  (10) 
9

>  <ligand_id>  (10) 
9

>  <original_smiles>  (10) 
[H]c1c([H])c([H])c2c(c1[H])C([H])([H])C([H])([H])C([H])([H])C2([H])N([H])C(=O)C1([H])N(C(=O)C([H])(N([H])C(=O)C([H])(N([H])C([H])([H])[H])C([H])([H])[H])C(C([H])([H])[H])(C([H])([H])[H])C([H])([H])[H])C([H])([H])c2c([H])c(OC([H])([H])C([H])([H])OC([H])([H])C([H])([H])N([H])C(=O)N3C([H])([H])C([H])([H])C([H])([H])C([H])(n4nc(-c5c([H])c([H])c(Oc6c([H])c([H])c(F)c([H])c6F)c([H])c5[H])c(C(=O)N([H])[H])c4N([H])[H])C3([H])[H])c([H])c([H])c2C1([H])[H]

>  <smiles>  (10) 
[H]c1c([H])c([H])c2c(c1[H])C([H])([H])C([H])([H])C([H])([H])C2([H])N([H])C(=O)C1([H])N(C(=O)C([H])(N([H])C(=O)C([H])(N([H])C([H])([H])[H])C([H])([H])[H])C(C([H])([H])[H])(C([H])([H])[H])C([H])([H])[H])C([H])([H])c2c([H])c(OC([H])([H])C([H])([H])OC([H])([H])C([H])([H])N([H])C(=O)N3C([H])([H])C([H])([H])C([H])([H])C([H])(n4nc(-c5c([H])c([H])c(Oc6c([H])c([H])c(F)c([H])c6F)c([H])c5[H])c(C(=O)N([H])[H])c4N([H])[H])C3([H])[H])c([H])c([H])c2C1([H])[H]

$$$$
10:0:0
     RDKit          3D

 96104  0  0  1  0  0  0  0  0999 V2000
  -28.3960  -20.8080   18.5270 C   0  0  0  0  0  0  0  0  0  0  0  0
  -27.7150  -23.0550   17.7970 C   0  0  0  0  0  2  0  0  0  0  0  0
  -26.3350  -21.9580   19.4260 C   0  0  0  0  0  2  0  0  0  0  0  0
  -28.2140  -24.1420   18.7680 C   0  0  0  0  0  2  0  0  0  0  0  0
  -26.3840  -23.2790   20.2510 C   0  0  0  0  0  3  0  0  0  0  0  0
  -25.9010  -23.0210   21.6960 C   0  0  0  0  0  1  0  0  0  0  0  0
  -27.5020  -21.8220   18.5480 N   0  0  0  0  0  0  0  0  0  0  0  0
  -27.7130  -23.9780   20.1740 N   0  0  2  0  0  4  0  0  0  0  0  0
  -29.3050  -20.7670   17.6930 O   0  0  0  0  0  0  0  0  0  0  0  0
  -28.3750  -23.3340   20.5850 H   0  0  0  0  0  0  0  0  0  0  0  0
  -28.3380  -19.7220   19.6110 C   0  0  0  0  0  2  0  0  0  0  0  0
  -29.7090  -19.0790   19.8720 C   0  0  0  0  0  2  0  0  0  0  0  0
  -29.6540  -18.0040   20.9620 C   0  0  0  0  0  2  0  0  0  0  0  0
  -31.0620  -17.5560   21.3790 C   0  0  0  0  0  2  0  0  0  0  0  0
  -31.0790  -16.3040   22.2730 C   0  0  0  0  0  2  0  0  0  0  0  0
  -30.7440  -14.5380   20.5350 C   0  0  0  0  0  0  0  0  0  0  0  0
  -30.3420  -12.5550   19.1270 C   0  0  0  0  0  2  0  0  0  0  0  0
  -29.3830  -12.8490   17.9610 C   0  0  0  0  0  2  0  0  0  0  0  0
  -27.9200  -12.6750   18.4040 C   0  0  0  0  0  2  0  0  0  0  0  0
  -27.6030  -13.4430   19.7130 C   0  0  0  0  0  3  0  0  0  0  0  0
  -28.6620  -13.1390   20.7950 C   0  0  0  0  0  2  0  0  0  0  0  0
  -29.9990  -13.4420   20.2470 N   0  0  0  0  0  0  0  0  0  0  0  0
  -31.7180  -14.8940   19.8640 O   0  0  0  0  0  0  0  0  0  0  0  0
  -30.4000  -15.1610   21.6670 N   0  0  0  0  0  0  0  0  0  0  0  0
  -29.6160  -14.7700   22.1710 H   0  0  0  0  0  0  0  0  0  0  0  0
  -25.1900  -14.0130   20.4120 C   0  0  0  0  0  0  0  0  0  0  0  0
  -24.1350  -13.2220   20.7830 C   0  0  0  0  0  0  0  0  0  0  0  0
  -24.6220  -11.8790   20.7580 C   0  0  0  0  0  0  0  0  0  0  0  0
  -26.2520  -13.1500   20.1880 N   0  0  0  0  0  0  0  0  0  0  0  0
  -25.9120  -11.8620   20.4490 N   0  0  0  0  0  0  0  0  0  0  0  0
  -23.9190  -10.6040   20.9540 C   0  0  0  0  0  0  0  0  0  0  0  0
  -24.3600   -9.6560   21.9040 C   0  0  0  0  0  3  0  0  0  0  0  0
  -23.6580   -8.4460   22.0850 C   0  0  0  0  0  3  0  0  0  0  0  0
  -22.5010   -8.1730   21.3170 C   0  0  0  0  0  0  0  0  0  0  0  0
  -22.0800   -9.1100   20.3570 C   0  0  0  0  0  3  0  0  0  0  0  0
  -22.7820  -10.3120   20.1730 C   0  0  0  0  0  3  0  0  0  0  0  0
  -21.7710   -7.0130   21.4070 O   0  0  0  0  0  0  0  0  0  0  0  0
  -21.7090   -6.2890   22.5710 C   0  0  0  0  0  0  0  0  0  0  0  0
  -21.2350   -6.8540   23.7750 C   0  0  0  0  0  3  0  0  0  0  0  0
  -21.1220   -6.0560   24.9310 C   0  0  0  0  0  3  0  0  0  0  0  0
  -21.4750   -4.6930   24.8840 C   0  0  0  0  0  0  0  0  0  0  0  0
  -21.9430   -4.1280   23.6840 C   0  0  0  0  0  3  0  0  0  0  0  0
  -22.0560   -4.9240   22.5300 C   0  0  0  0  0  0  0  0  0  0  0  0
  -22.4880   -4.3700   21.3720 F   0  0  0  0  0  0  0  0  0  0  0  0
  -21.3600   -3.9240   25.9910 F   0  0  0  0  0  0  0  0  0  0  0  0
  -22.7300  -13.6740   21.0560 C   0  0  0  0  0  0  0  0  0  0  0  0
  -22.0140  -12.9640   21.9210 N   0  0  0  0  0  0  0  0  0  0  0  0
  -22.2730  -14.6930   20.5380 O   0  0  0  0  0  0  0  0  0  0  0  0
  -22.3960  -12.1400   22.3630 H   0  0  0  0  0  0  0  0  0  0  0  0
  -21.0710  -13.2470   22.1470 H   0  0  0  0  0  0  0  0  0  0  0  0
  -25.3310  -15.3850   20.2310 N   0  0  0  0  0  0  0  0  0  0  0  0
  -24.5560  -16.0300   20.3410 H   0  0  0  0  0  0  0  0  0  0  0  0
  -26.1830  -15.8370   19.9230 H   0  0  0  0  0  0  0  0  0  0  0  0
  -27.7750  -25.2020   21.0380 C   0  0  0  0  0  2  0  0  0  0  0  0
  -28.8290  -26.2780   20.6770 C   0  0  0  0  0  2  0  0  0  0  0  0
  -28.4690  -27.0830   19.5520 O   0  0  0  0  0  0  0  0  0  0  0  0
  -24.5270  -31.8180   23.1250 C   0  0  0  0  0  0  0  0  0  0  0  0
  -27.2830  -27.7610   19.6710 C   0  0  0  0  0  0  0  0  0  0  0  0
  -23.3440  -30.4960   21.4020 C   0  0  0  0  0  3  0  0  0  0  0  0
  -24.8290  -29.1370   19.8440 C   0  0  0  0  0  0  0  0  0  0  0  0
  -25.8480  -30.9770   21.1910 C   0  0  0  0  0  2  0  0  0  0  0  0
  -25.9750  -29.6630   20.4560 C   0  0  0  0  0  0  0  0  0  0  0  0
  -27.2060  -28.9780   20.3770 C   0  0  0  0  0  3  0  0  0  0  0  0
  -26.1240  -27.2500   19.0450 C   0  0  0  0  0  3  0  0  0  0  0  0
  -24.8960  -27.9240   19.1420 C   0  0  0  0  0  3  0  0  0  0  0  0
  -23.5510  -29.9330   19.9720 C   0  0  0  0  0  2  0  0  0  0  0  0
  -24.5920  -31.1070   21.9650 N   0  0  0  0  0  0  0  0  0  0  0  0
  -23.4460  -32.0040   23.7020 O   0  0  0  0  0  0  0  0  0  0  0  0
  -22.7560  -29.3770   22.2890 C   0  0  0  0  0  0  0  0  0  0  0  0
  -21.4360  -29.1560   22.1750 N   0  0  0  0  0  0  0  0  0  0  0  0
  -23.4820  -28.7120   23.0340 O   0  0  0  0  0  0  0  0  0  0  0  0
  -20.9110  -29.7480   21.5470 H   0  0  0  0  0  0  0  0  0  0  0  0
  -18.1210  -27.7970   22.6270 C   0  0  0  0  0  0  0  0  0  0  0  0
  -20.6700  -28.1340   22.8860 C   0  0  0  0  0  3  0  0  0  0  0  0
  -20.8190  -26.7540   22.2050 C   0  0  0  0  0  2  0  0  0  0  0  0
  -19.7150  -26.4630   21.1840 C   0  0  0  0  0  2  0  0  0  0  0  0
  -18.3390  -26.5080   21.8550 C   0  0  0  0  0  2  0  0  0  0  0  0
  -19.2150  -28.5700   23.0970 C   0  0  0  0  0  0  0  0  0  0  0  0
  -18.9580  -29.7810   23.7770 C   0  0  0  0  0  3  0  0  0  0  0  0
  -17.6370  -30.2170   23.9930 C   0  0  0  0  0  3  0  0  0  0  0  0
  -16.5570  -29.4400   23.5390 C   0  0  0  0  0  3  0  0  0  0  0  0
  -16.8000  -28.2330   22.8610 C   0  0  0  0  0  3  0  0  0  0  0  0
  -25.7990  -32.4500   23.7690 C   0  0  0  0  0  3  0  0  0  0  0  0
  -25.4520  -33.8150   24.1830 N   0  0  0  0  0  0  0  0  0  0  0  0
  -25.7380  -34.9190   23.4810 C   0  0  0  0  0  0  0  0  0  0  0  0
  -26.3970  -34.8960   22.4360 O   0  0  0  0  0  0  0  0  0  0  0  0
  -24.8640  -33.9060   24.9990 H   0  0  0  0  0  0  0  0  0  0  0  0
  -23.9450  -36.6650   23.2520 C   0  0  0  0  0  1  0  0  0  0  0  0
  -25.2120  -36.2610   24.0210 C   0  0  0  0  0  3  0  0  0  0  0  0
  -27.3280  -37.1740   24.8690 C   0  0  0  0  0  1  0  0  0  0  0  0
  -26.2050  -37.3540   23.9520 N   0  0  0  0  0  0  0  0  0  0  0  0
  -25.7700  -38.2500   24.1570 H   0  0  0  0  0  0  0  0  0  0  0  0
  -26.3590  -31.6180   24.9890 C   0  0  1  0  0  0  0  0  0  0  0  0
  -25.2930  -31.2970   26.0620 C   0  0  0  0  0  1  0  0  0  0  0  0
  -26.9600  -30.2790   24.5040 C   0  0  0  0  0  1  0  0  0  0  0  0
  -27.5080  -32.3970   25.6710 C   0  0  0  0  0  1  0  0  0  0  0  0
  1  7  1  0
  1 11  1  0
  2  7  1  0
  2  4  1  0
  3  5  1  0
  4  8  1  0
  5  6  1  0
  7  3  1  0
  8  5  1  0
  8 10  1  1
  8 54  1  0
  9  1  2  0
 11 12  1  0
 12 13  1  0
 13 14  1  0
 14 15  1  0
 16 24  1  0
 17 22  1  0
 18 19  1  0
 18 17  1  0
 20 19  1  0
 20 29  1  0
 20 21  1  0
 22 16  1  0
 22 21  1  0
 23 16  2  0
 24 25  1  0
 24 15  1  0
 26 27  2  0
 27 46  1  0
 28 27  1  0
 28 31  1  0
 29 26  1  0
 29 30  1  0
 30 28  2  0
 31 32  1  0
 32 33  2  0
 34 37  1  0
 34 33  1  0
 35 34  2  0
 36 35  1  0
 36 31  2  0
 37 38  1  0
 38 39  1  0
 39 40  2  0
 41 40  1  0
 41 45  1  0
 42 41  2  0
 43 38  2  0
 43 42  1  0
 44 43  1  0
 46 47  1  0
 47 50  1  0
 47 49  1  0
 48 46  2  0
 51 52  1  0
 51 26  1  0
 53 51  1  0
 55 54  1  0
 56 58  1  0
 56 55  1  0
 57 68  2  0
 58 63  1  0
 59 67  1  0
 59 69  1  0
 60 66  1  0
 60 62  1  0
 61 67  1  0
 62 61  1  0
 63 62  2  0
 64 65  1  0
 64 58  2  0
 65 60  2  0
 66 59  1  0
 67 57  1  0
 69 71  2  0
 70 69  1  0
 72 70  1  0
 73 82  2  0
 73 78  1  0
 74 70  1  0
 74 78  1  0
 75 74  1  0
 76 77  1  0
 76 75  1  0
 77 73  1  0
 78 79  2  0
 79 80  1  0
 81 80  2  0
 82 81  1  0
 83 57  1  0
 83 84  1  0
 83 93  1  0
 84 87  1  0
 85 89  1  0
 85 84  1  0
 86 85  2  0
 89 88  1  0
 91 89  1  0
 91 92  1  0
 91 90  1  0
 93 96  1  1
 93 94  1  0
 95 93  1  0
M  ISO  4  16 100  24 100  55 101  56 101
M  END
>  <TORSDO>  (11) 
F 23

>  <SCORE>  (11) 
-12.093

>  <name>  (11) 
10

>  <ligand_id>  (11) 
10

>  <original_smiles>  (11) 
[H]c1c([H])c([H])c2c(c1[H])C([H])([H])C([H])([H])C([H])([H])C2([H])N([H])C(=O)C1([H])N(C(=O)C([H])(N([H])C(=O)C([H])(N([H])C([H])([H])[H])C([H])([H])[H])C(C([H])([H])[H])(C([H])([H])[H])C([H])([H])[H])C([H])([H])c2c([H])c(OC([H])([H])C([H])([H])[N+]3([H])C([H])([H])C([H])([H])N(C(=O)C([H])([H])C([H])([H])C([H])([H])C([H])([H])C([H])([H])N([H])C(=O)N4C([H])([H])C([H])([H])C([H])([H])C([H])(n5nc(-c6c([H])c([H])c(Oc7c([H])c([H])c(F)c([H])c7F)c([H])c6[H])c(C(=O)N([H])[H])c5N([H])[H])C4([H])[H])C([H])([H])C3([H])C([H])([H])[H])c([H])c([H])c2C1([H])[H]

>  <smiles>  (11) 
[H]c1c([H])c([H])c2c(c1[H])C([H])([H])C([H])([H])C([H])([H])C2([H])N([H])C(=O)C1([H])N(C(=O)C([H])(N([H])C(=O)C([H])(N([H])C([H])([H])[H])C([H])([H])[H])C(C([H])([H])[H])(C([H])([H])[H])C([H])([H])[H])C([H])([H])c2c([H])c(OC([H])([H])C([H])([H])[N+]3([H])C([H])([H])C([H])([H])N(C(=O)C([H])([H])C([H])([H])C([H])([H])C([H])([H])C([H])([H])N([H])C(=O)N4C([H])([H])C([H])([H])C([H])([H])C([H])(n5nc(-c6c([H])c([H])c(Oc7c([H])c([H])c(F)c([H])c7F)c([H])c6[H])c(C(=O)N([H])[H])c5N([H])[H])C4([H])[H])C([H])([H])C3([H])C([H])([H])[H])c([H])c([H])c2C1([H])[H]

$$$$
11:0:0
     RDKit          3D

 94 99  0  0  1  0  0  0  0  0999 V2000
  -29.0280  -12.4490   19.5150 C   0  0  0  0  0  3  0  0  0  0  0  0
  -30.1210  -10.8350   21.2390 C   0  0  0  0  0  0  0  0  0  0  0  0
  -30.0770  -11.4980   20.0720 N   0  0  0  0  0  0  0  0  0  0  0  0
  -29.1710  -10.7380   22.0160 O   0  0  0  0  0  0  0  0  0  0  0  0
  -30.9070  -11.4080   19.5040 H   0  0  0  0  0  0  0  0  0  0  0  0
  -31.4770  -10.2260   21.5970 C   0  0  0  0  0  2  0  0  0  0  0  0
  -32.0060  -10.5540   23.0170 C   0  0  0  0  0  2  0  0  0  0  0  0
  -32.3170  -12.0280   23.3790 C   0  0  0  0  0  2  0  0  0  0  0  0
  -33.2170  -12.8090   22.3950 C   0  0  0  0  0  2  0  0  0  0  0  0
  -32.4150  -13.6780   20.1930 C   0  0  0  0  0  0  0  0  0  0  0  0
  -31.4020  -13.4490   17.9450 C   0  0  0  0  0  3  0  0  0  0  0  0
  -29.9140  -13.3980   16.8960 C   0  0  0  0  0  3  0  0  0  0  0  0
  -28.2460  -13.4920   17.6210 C   0  0  0  0  0  2  0  0  0  0  0  0
  -28.1000  -13.8610   19.4260 C   0  0  1  0  0  0  0  0  0  0  0  0
  -29.6970  -13.9820   20.5160 C   0  0  0  0  0  2  0  0  0  0  0  0
  -31.2560  -13.8280   19.6480 N   0  0  0  0  0  0  0  0  0  0  0  0
  -33.4030  -13.5410   19.4830 O   0  0  0  0  0  0  0  0  0  0  0  0
  -32.3540  -13.5870   21.5190 N   0  0  0  0  0  0  0  0  0  0  0  0
  -31.4550  -13.8320   21.9060 H   0  0  0  0  0  0  0  0  0  0  0  0
  -26.0570  -13.8810   20.6610 C   0  0  0  0  0  0  0  0  0  0  0  0
  -25.0400  -13.0750   20.9950 C   0  0  0  0  0  0  0  0  0  0  0  0
  -25.3880  -11.7350   20.6450 C   0  0  0  0  0  0  0  0  0  0  0  0
  -26.9760  -13.1210   20.0480 N   0  0  0  0  0  0  0  0  0  0  0  0
  -26.6060  -11.7650   20.0600 N   0  0  0  0  0  0  0  0  0  0  0  0
  -24.5390  -10.5200   20.8060 C   0  0  0  0  0  0  0  0  0  0  0  0
  -24.8650   -9.4460   21.6690 C   0  0  0  0  0  3  0  0  0  0  0  0
  -23.9610   -8.3700   21.8710 C   0  0  0  0  0  3  0  0  0  0  0  0
  -22.7030   -8.3570   21.2150 C   0  0  0  0  0  0  0  0  0  0  0  0
  -22.3890   -9.4160   20.3460 C   0  0  0  0  0  3  0  0  0  0  0  0
  -23.2920  -10.4760   20.1440 C   0  0  0  0  0  3  0  0  0  0  0  0
  -21.7740   -7.3450   21.3200 O   0  0  0  0  0  0  0  0  0  0  0  0
  -21.6240   -6.6040   22.4670 C   0  0  0  0  0  0  0  0  0  0  0  0
  -21.2890   -7.2020   23.7020 C   0  0  0  0  0  3  0  0  0  0  0  0
  -21.0760   -6.3990   24.8400 C   0  0  0  0  0  3  0  0  0  0  0  0
  -21.1880   -4.9990   24.7470 C   0  0  0  0  0  0  0  0  0  0  0  0
  -21.5100   -4.3990   23.5180 C   0  0  0  0  0  3  0  0  0  0  0  0
  -21.7230   -5.1990   22.3800 C   0  0  0  0  0  0  0  0  0  0  0  0
  -22.0100   -4.6120   21.1940 F   0  0  0  0  0  0  0  0  0  0  0  0
  -20.9800   -4.2280   25.8400 F   0  0  0  0  0  0  0  0  0  0  0  0
  -23.7790  -13.6320   21.5360 C   0  0  0  0  0  0  0  0  0  0  0  0
  -23.1580  -12.9360   22.4730 N   0  0  0  0  0  0  0  0  0  0  0  0
  -23.3930  -14.7460   21.1800 O   0  0  0  0  0  0  0  0  0  0  0  0
  -23.5140  -12.0420   22.7790 H   0  0  0  0  0  0  0  0  0  0  0  0
  -22.3160  -13.3000   22.8940 H   0  0  0  0  0  0  0  0  0  0  0  0
  -26.2300  -15.2550   20.8140 N   0  0  0  0  0  0  0  0  0  0  0  0
  -25.4810  -15.8370   21.1700 H   0  0  0  0  0  0  0  0  0  0  0  0
  -27.0360  -15.7850   20.5130 H   0  0  0  0  0  0  0  0  0  0  0  0
  -28.9560  -15.5690   19.2760 C   0  0  0  0  0  1  0  0  0  0  0  0
  -28.6630  -19.4560   19.9010 C   0  0  0  0  0  2  0  0  0  0  0  0
  -28.5160  -17.6220   19.9220 N   0  0  0  0  0  2  0  0  0  0  0  0
  -29.6350  -19.6680   19.1710 O   0  0  0  0  0  1  0  0  0  0  0  0
  -27.7540  -17.5080   20.5760 H   0  0  0  0  0  0  0  0  0  0  0  0
  -27.9570  -21.5740   20.4840 C   0  0  0  0  0 15  0  0  0  0  0  0
  -28.1690  -23.7560   20.5630 O   0  0  0  0  0  1  0  0  0  0  0  0
  -24.8960  -31.2650   23.2910 C   0  0  0  0  0  0  0  0  0  0  0  0
  -27.3920  -25.3740   20.5790 C   0  0  0  0  0  0  0  0  0  0  0  0
  -23.8300  -29.8150   21.6420 C   0  0  0  0  0  3  0  0  0  0  0  0
  -25.3150  -27.9670   20.3920 C   0  0  0  0  0  0  0  0  0  0  0  0
  -26.4270  -29.6740   21.7740 C   0  0  0  0  0  2  0  0  0  0  0  0
  -26.4860  -28.1450   21.1340 C   0  0  0  0  0  0  0  0  0  0  0  0
  -27.4830  -26.9060   21.1710 C   0  0  0  0  0  3  0  0  0  0  0  0
  -26.2090  -25.6250   19.7850 C   0  0  0  0  0  3  0  0  0  0  0  0
  -25.2670  -26.7380   19.6980 C   0  0  0  0  0  3  0  0  0  0  0  0
  -24.1700  -29.0340   20.3300 C   0  0  0  0  0  2  0  0  0  0  0  0
  -25.0880  -30.3070   22.2870 N   0  0  0  0  0  0  0  0  0  0  0  0
  -23.7610  -31.6150   23.6770 O   0  0  0  0  0  0  0  0  0  0  0  0
  -22.9840  -28.9290   22.6000 C   0  0  0  0  0  0  0  0  0  0  0  0
  -21.6600  -28.7880   22.3760 N   0  0  0  0  0  0  0  0  0  0  0  0
  -23.5450  -28.3580   23.5360 O   0  0  0  0  0  0  0  0  0  0  0  0
  -21.2420  -29.2960   21.6080 H   0  0  0  0  0  0  0  0  0  0  0  0
  -18.2450  -27.5530   22.6910 C   0  0  0  0  0  0  0  0  0  0  0  0
  -20.7750  -27.8810   23.1260 C   0  0  0  0  0  3  0  0  0  0  0  0
  -20.9340  -26.4250   22.6310 C   0  0  0  0  0  2  0  0  0  0  0  0
  -19.9220  -26.0450   21.5460 C   0  0  0  0  0  2  0  0  0  0  0  0
  -18.4930  -26.1870   22.0740 C   0  0  0  0  0  2  0  0  0  0  0  0
  -19.3150  -28.3570   23.1680 C   0  0  0  0  0  0  0  0  0  0  0  0
  -19.0250  -29.6270   23.7090 C   0  0  0  0  0  3  0  0  0  0  0  0
  -17.6990  -30.0980   23.7740 C   0  0  0  0  0  3  0  0  0  0  0  0
  -16.6430  -29.2950   23.3080 C   0  0  0  0  0  3  0  0  0  0  0  0
  -16.9170  -28.0240   22.7720 C   0  0  0  0  0  3  0  0  0  0  0  0
  -26.0760  -31.9850   24.0200 C   0  0  0  0  0  3  0  0  0  0  0  0
  -25.7170  -33.4090   24.2510 N   0  0  0  0  0  0  0  0  0  0  0  0
  -26.1110  -34.4550   23.5100 C   0  0  0  0  0  0  0  0  0  0  0  0
  -26.8530  -34.3220   22.5340 O   0  0  0  0  0  0  0  0  0  0  0  0
  -25.0610  -33.5820   24.9980 H   0  0  0  0  0  0  0  0  0  0  0  0
  -24.4200  -36.2700   23.0220 C   0  0  0  0  0  1  0  0  0  0  0  0
  -25.6150  -35.8680   23.9020 C   0  0  0  0  0  3  0  0  0  0  0  0
  -27.7080  -36.7880   24.8130 C   0  0  0  0  0  1  0  0  0  0  0  0
  -26.6580  -36.9160   23.8070 N   0  0  0  0  0  0  0  0  0  0  0  0
  -26.2470  -37.8410   23.8940 H   0  0  0  0  0  0  0  0  0  0  0  0
  -26.4240  -31.3230   25.4120 C   0  0  1  0  0  0  0  0  0  0  0  0
  -25.2100  -31.1720   26.3600 C   0  0  0  0  0  1  0  0  0  0  0  0
  -27.0360  -29.9210   25.2260 C   0  0  0  0  0  1  0  0  0  0  0  0
  -27.4950  -32.1680   26.1450 C   0  0  0  0  0  1  0  0  0  0  0  0
  1  3  1  0
  1 15  1  0
  2  6  1  0
  2  4  2  0
  3  2  1  0
  5  3  1  0
  6  7  1  0
  7  8  1  0
  9  8  1  0
 10 18  1  0
 11 16  1  0
 12 13  1  0
 12 11  2  0
 13 14  1  0
 14 48  1  6
 14  1  1  0
 14 23  1  0
 16 10  1  0
 16 15  1  0
 17 10  2  0
 18 19  1  0
 18  9  1  0
 20 45  1  0
 20 21  2  0
 21 40  1  0
 22 25  1  0
 22 21  1  0
 23 24  1  0
 23 20  1  0
 24 22  2  0
 25 26  1  0
 26 27  2  0
 28 31  1  0
 28 27  1  0
 29 28  2  0
 30 29  1  0
 30 25  2  0
 31 32  1  0
 32 33  1  0
 33 34  2  0
 35 34  1  0
 35 39  1  0
 36 35  2  0
 37 32  2  0
 37 36  1  0
 38 37  1  0
 40 41  1  0
 41 43  1  0
 41 44  1  0
 42 40  2  0
 45 46  1  0
 47 45  1  0
 49 50  1  0
 50 52  1  0
 51 49  1  0
 54 56  1  0
 55 66  2  0
 56 61  1  0
 57 65  1  0
 57 67  1  0
 58 60  1  0
 59 65  1  0
 60 61  2  0
 60 59  1  0
 62 56  2  0
 63 62  1  0
 63 58  2  0
 64 58  1  0
 64 57  1  0
 65 55  1  0
 67 69  2  0
 68 67  1  0
 70 68  1  0
 71 80  2  0
 71 76  1  0
 72 68  1  0
 72 76  1  0
 73 72  1  0
 74 75  1  0
 74 73  1  0
 75 71  1  0
 76 77  2  0
 77 78  1  0
 79 78  2  0
 80 79  1  0
 81 55  1  0
 81 82  1  0
 81 91  1  0
 82 85  1  0
 83 87  1  0
 83 82  1  0
 84 83  2  0
 87 86  1  0
 89 90  1  0
 89 87  1  0
 89 88  1  0
 91 94  1  1
 91 92  1  0
 93 91  1  0
M  ISO  4  10 100  18 100  53 101  54 101
M  END
>  <TORSDO>  (12) 
F 24

>  <SCORE>  (12) 
-7.293

>  <name>  (12) 
11

>  <ligand_id>  (12) 
11

>  <original_smiles>  (12) 
[H]c1c([H])c([H])c2c(c1[H])C([H])([H])C([H])([H])C([H])([H])C2([H])N([H])C(=O)C1([H])N(C(=O)C([H])(N([H])C(=O)C([H])(N([H])C([H])([H])[H])C([H])([H])[H])C(C([H])([H])[H])(C([H])([H])[H])C([H])([H])[H])C([H])([H])c2c([H])c(OC([H])([H])C(=O)N([H])C([H])([H])C([H])([H])N([H])C(=O)C([H])([H])C([H])([H])C([H])([H])C([H])([H])N([H])C(=O)N3C([H])([H])C([H])([H])C([H])([H])C([H])(n4nc(-c5c([H])c([H])c(Oc6c([H])c([H])c(F)c([H])c6F)c([H])c5[H])c(C(=O)N([H])[H])c4N([H])[H])C3([H])[H])c([H])c([H])c2C1([H])[H]

>  <smiles>  (12) 
[H]c1c([H])c([H])c2c(c1[H])C([H])([H])C([H])([H])C([H])([H])C2([H])N([H])C(=O)C1([H])N(C(=O)C([H])(N([H])C(=O)C([H])(N([H])C([H])([H])[H])C([H])([H])[H])C(C([H])([H])[H])(C([H])([H])[H])C([H])([H])[H])C([H])([H])c2c([H])c(OC([H])([H])C(=O)N([H])C([H])([H])C([H])([H])N([H])C(=O)C([H])([H])C([H])([H])C([H])([H])C([H])([H])N([H])C(=O)N3C([H])([H])C([H])([H])C([H])([H])C([H])(n4nc(-c5c([H])c([H])c(Oc6c([H])c([H])c(F)c([H])c6F)c([H])c5[H])c(C(=O)N([H])[H])c4N([H])[H])C3([H])[H])c([H])c([H])c2C1([H])[H]

$$$$
12:0:0
     RDKit          3D

 91 99  0  0  1  0  0  0  0  0999 V2000
  -30.1790  -21.6710   20.3980 C   0  0  0  0  0  0  0  0  0  0  0  0
  -29.1730  -22.5860   20.2460 N   0  0  0  0  0  0  0  0  0  0  0  0
  -31.3280  -22.0690   20.5980 O   0  0  0  0  0  0  0  0  0  0  0  0
  -28.2420  -22.2410   20.0600 H   0  0  0  0  0  0  0  0  0  0  0  0
  -31.0220  -19.3220   19.7700 C   0  0  0  0  0  3  0  0  0  0  0  0
  -28.8810  -19.4340   20.8510 C   0  0  0  0  0  3  0  0  0  0  0  0
  -31.0010  -17.8960   19.8140 C   0  0  0  0  0  3  0  0  0  0  0  0
  -28.8560  -18.0010   20.8960 C   0  0  0  0  0  3  0  0  0  0  0  0
  -29.9810  -20.1400   20.2980 C   0  0  0  0  0  0  0  0  0  0  0  0
  -29.9200  -17.1870   20.4050 C   0  0  0  0  0  0  0  0  0  0  0  0
  -30.5960  -14.6910   20.0440 C   0  0  0  0  0  0  0  0  0  0  0  0
  -30.3130  -12.4890   18.9190 C   0  0  0  0  0  2  0  0  0  0  0  0
  -29.2970  -12.6830   17.7720 C   0  0  0  0  0  2  0  0  0  0  0  0
  -27.8510  -12.5140   18.2840 C   0  0  0  0  0  2  0  0  0  0  0  0
  -27.5820  -13.3230   19.5820 C   0  0  0  0  0  3  0  0  0  0  0  0
  -28.7050  -13.1070   20.6210 C   0  0  0  0  0  2  0  0  0  0  0  0
  -29.9790  -13.4670   19.9750 N   0  0  0  0  0  0  0  0  0  0  0  0
  -31.7270  -14.8550   19.5770 O   0  0  0  0  0  0  0  0  0  0  0  0
  -29.8260  -15.7250   20.5120 N   0  0  0  0  0  0  0  0  0  0  0  0
  -28.9720  -15.3980   20.9420 H   0  0  0  0  0  0  0  0  0  0  0  0
  -25.2420  -13.9130   20.4650 C   0  0  0  0  0  0  0  0  0  0  0  0
  -24.1930  -13.1380   20.8740 C   0  0  0  0  0  0  0  0  0  0  0  0
  -24.6380  -11.7850   20.7710 C   0  0  0  0  0  0  0  0  0  0  0  0
  -26.2610  -13.0330   20.1350 N   0  0  0  0  0  0  0  0  0  0  0  0
  -25.9070  -11.7450   20.3790 N   0  0  0  0  0  0  0  0  0  0  0  0
  -23.9130  -10.5230   20.9670 C   0  0  0  0  0  0  0  0  0  0  0  0
  -24.3600   -9.5490   21.8870 C   0  0  0  0  0  3  0  0  0  0  0  0
  -23.6350   -8.3520   22.0710 C   0  0  0  0  0  3  0  0  0  0  0  0
  -22.4500   -8.1180   21.3330 C   0  0  0  0  0  0  0  0  0  0  0  0
  -22.0230   -9.0800   20.4020 C   0  0  0  0  0  3  0  0  0  0  0  0
  -22.7480  -10.2690   20.2160 C   0  0  0  0  0  3  0  0  0  0  0  0
  -21.6980   -6.9730   21.4260 O   0  0  0  0  0  0  0  0  0  0  0  0
  -21.6200   -6.2550   22.5930 C   0  0  0  0  0  0  0  0  0  0  0  0
  -21.1390   -6.8290   23.7890 C   0  0  0  0  0  3  0  0  0  0  0  0
  -21.0120   -6.0360   24.9480 C   0  0  0  0  0  3  0  0  0  0  0  0
  -21.3520   -4.6700   24.9090 C   0  0  0  0  0  0  0  0  0  0  0  0
  -21.8260   -4.0960   23.7160 C   0  0  0  0  0  3  0  0  0  0  0  0
  -21.9560   -4.8870   22.5590 C   0  0  0  0  0  0  0  0  0  0  0  0
  -22.3930   -4.3240   21.4070 F   0  0  0  0  0  0  0  0  0  0  0  0
  -21.2220   -3.9060   26.0180 F   0  0  0  0  0  0  0  0  0  0  0  0
  -22.8200  -13.6170   21.2470 C   0  0  0  0  0  0  0  0  0  0  0  0
  -22.1420  -12.9000   22.1360 N   0  0  0  0  0  0  0  0  0  0  0  0
  -22.3600  -14.6620   20.7880 O   0  0  0  0  0  0  0  0  0  0  0  0
  -22.5270  -12.0570   22.5340 H   0  0  0  0  0  0  0  0  0  0  0  0
  -21.2220  -13.2040   22.4250 H   0  0  0  0  0  0  0  0  0  0  0  0
  -25.4090  -15.2880   20.3240 N   0  0  0  0  0  0  0  0  0  0  0  0
  -24.6500  -15.9380   20.4920 H   0  0  0  0  0  0  0  0  0  0  0  0
  -26.2290  -15.7330   19.9330 H   0  0  0  0  0  0  0  0  0  0  0  0
  -29.3780  -24.0850   20.3590 C   0  0  0  0  0  3  0  0  0  0  0  0
  -28.1920  -25.0630   19.9560 C   0  0  0  0  0  3  0  0  0  0  0  0
  -28.3730  -26.5180   20.1900 O   0  0  0  0  0  0  0  0  0  0  0  0
  -24.6130  -31.8710   23.2430 C   0  0  0  0  0  0  0  0  0  0  0  0
  -27.2450  -27.3550   20.1430 C   0  0  0  0  0  0  0  0  0  0  0  0
  -23.4170  -30.4890   21.5810 C   0  0  0  0  0  3  0  0  0  0  0  0
  -24.8730  -28.9560   20.1450 C   0  0  0  0  0  0  0  0  0  0  0  0
  -25.9550  -30.8150   21.4100 C   0  0  0  0  0  2  0  0  0  0  0  0
  -26.0380  -29.4440   20.7490 C   0  0  0  0  0  0  0  0  0  0  0  0
  -27.2270  -28.6550   20.7390 C   0  0  0  0  0  3  0  0  0  0  0  0
  -26.0540  -26.9220   19.5140 C   0  0  0  0  0  3  0  0  0  0  0  0
  -24.8820  -27.7010   19.5210 C   0  0  0  0  0  3  0  0  0  0  0  0
  -23.6340  -29.8270   20.1960 C   0  0  0  0  0  2  0  0  0  0  0  0
  -24.6810  -31.0750   22.1350 N   0  0  0  0  0  0  0  0  0  0  0  0
  -23.5260  -32.1430   23.7750 O   0  0  0  0  0  0  0  0  0  0  0  0
  -22.7510  -29.4630   22.5280 C   0  0  0  0  0  0  0  0  0  0  0  0
  -21.4260  -29.2850   22.3910 N   0  0  0  0  0  0  0  0  0  0  0  0
  -23.4260  -28.8260   23.3420 O   0  0  0  0  0  0  0  0  0  0  0  0
  -20.9430  -29.8500   21.7070 H   0  0  0  0  0  0  0  0  0  0  0  0
  -18.0420  -28.1010   22.8730 C   0  0  0  0  0  0  0  0  0  0  0  0
  -20.6020  -28.3400   23.1450 C   0  0  0  0  0  3  0  0  0  0  0  0
  -20.6960  -26.9180   22.5460 C   0  0  0  0  0  2  0  0  0  0  0  0
  -19.5890  -26.6190   21.5270 C   0  0  0  0  0  2  0  0  0  0  0  0
  -18.2090  -26.7610   22.1750 C   0  0  0  0  0  2  0  0  0  0  0  0
  -19.1660  -28.8490   23.3140 C   0  0  0  0  0  0  0  0  0  0  0  0
  -18.9550  -30.1030   23.9260 C   0  0  0  0  0  3  0  0  0  0  0  0
  -17.6540  -30.6100   24.1030 C   0  0  0  0  0  3  0  0  0  0  0  0
  -16.5450  -29.8590   23.6770 C   0  0  0  0  0  3  0  0  0  0  0  0
  -16.7390  -28.6060   23.0690 C   0  0  0  0  0  3  0  0  0  0  0  0
  -25.8930  -32.4950   23.8780 C   0  0  0  0  0  3  0  0  0  0  0  0
  -26.3930  -31.7180   25.1580 C   0  0  1  0  0  0  0  0  0  0  0  0
  -25.2870  -31.4800   26.2130 C   0  0  0  0  0  1  0  0  0  0  0  0
  -26.9790  -30.3410   24.7660 C   0  0  0  0  0  1  0  0  0  0  0  0
  -27.5370  -32.5080   25.8370 C   0  0  0  0  0  1  0  0  0  0  0  0
  -25.5860  -33.8940   24.2130 N   0  0  0  0  0  0  0  0  0  0  0  0
  -25.9070  -34.9460   23.4480 C   0  0  0  0  0  0  0  0  0  0  0  0
  -26.5640  -34.8430   22.4090 O   0  0  0  0  0  0  0  0  0  0  0  0
  -25.0030  -34.0500   25.0210 H   0  0  0  0  0  0  0  0  0  0  0  0
  -24.1630  -36.7300   23.1290 C   0  0  0  0  0  1  0  0  0  0  0  0
  -25.4260  -36.3340   23.9110 C   0  0  0  0  0  3  0  0  0  0  0  0
  -27.5720  -37.2370   24.6910 C   0  0  0  0  0  1  0  0  0  0  0  0
  -26.4490  -37.3920   23.7680 N   0  0  0  0  0  0  0  0  0  0  0  0
  -26.0410  -38.3110   23.9170 H   0  0  0  0  0  0  0  0  0  0  0  0
  1  3  2  0
  2 49  1  0
  2  1  1  0
  4  2  1  0
  5  7  2  0
  5  9  1  0
  6  8  1  0
  7 10  1  0
  9  1  1  0
  9  6  2  0
 10 19  1  0
 10  8  2  0
 11 19  1  0
 12 17  1  0
 13 14  1  0
 13 12  1  0
 15 14  1  0
 15 24  1  0
 15 16  1  0
 17 11  1  0
 17 16  1  0
 18 11  2  0
 19 20  1  0
 21 22  2  0
 22 41  1  0
 23 22  1  0
 23 26  1  0
 24 25  1  0
 24 21  1  0
 25 23  2  0
 26 27  1  0
 27 28  2  0
 29 32  1  0
 29 28  1  0
 30 29  2  0
 31 30  1  0
 31 26  2  0
 32 33  1  0
 33 34  1  0
 34 35  2  0
 36 35  1  0
 36 40  1  0
 37 36  2  0
 38 33  2  0
 38 37  1  0
 39 38  1  0
 41 42  1  0
 42 45  1  0
 42 44  1  0
 43 41  2  0
 46 21  1  0
 46 47  1  0
 48 46  1  0
 50 51  1  0
 50 49  2  0
 52 63  2  0
 53 51  1  0
 53 58  1  0
 54 62  1  0
 54 64  1  0
 55 61  1  0
 55 57  1  0
 56 62  1  0
 57 56  1  0
 58 57  2  0
 59 60  1  0
 59 53  2  0
 60 55  2  0
 61 54  1  0
 62 52  1  0
 64 66  2  0
 65 64  1  0
 67 65  1  0
 68 77  2  0
 68 73  1  0
 69 65  1  0
 69 73  1  0
 70 69  1  0
 71 72  1  0
 71 70  1  0
 72 68  1  0
 73 74  2  0
 74 75  1  0
 76 75  2  0
 77 76  1  0
 78 52  1  0
 78 83  1  0
 78 79  1  0
 79 82  1  1
 79 80  1  0
 81 79  1  0
 83 86  1  0
 84 88  1  0
 84 83  1  0
 85 84  2  0
 88 87  1  0
 90 88  1  0
 90 91  1  0
 90 89  1  0
M  ISO  4  11 100  19 100  50 101  51 101
M  END
>  <TORSDO>  (13) 
F 19

>  <SCORE>  (13) 
-13.884

>  <name>  (13) 
12

>  <ligand_id>  (13) 
12

>  <original_smiles>  (13) 
[H]c1c([H])c([H])c2c(c1[H])C([H])([H])C([H])([H])C([H])([H])C2([H])N([H])C(=O)C1([H])N(C(=O)C([H])(N([H])C(=O)C([H])(N([H])C([H])([H])[H])C([H])([H])[H])C(C([H])([H])[H])(C([H])([H])[H])C([H])([H])[H])C([H])([H])c2c([H])c(OC([H])([H])C([H])([H])N([H])C(=O)c3c([H])c([H])c(N([H])C(=O)N4C([H])([H])C([H])([H])C([H])([H])C([H])(n5nc(-c6c([H])c([H])c(Oc7c([H])c([H])c(F)c([H])c7F)c([H])c6[H])c(C(=O)N([H])[H])c5N([H])[H])C4([H])[H])c([H])c3[H])c([H])c([H])c2C1([H])[H]

>  <smiles>  (13) 
[H]c1c([H])c([H])c2c(c1[H])C([H])([H])C([H])([H])C([H])([H])C2([H])N([H])C(=O)C1([H])N(C(=O)C([H])(N([H])C(=O)C([H])(N([H])C([H])([H])[H])C([H])([H])[H])C(C([H])([H])[H])(C([H])([H])[H])C([H])([H])[H])C([H])([H])c2c([H])c(OC([H])([H])C([H])([H])N([H])C(=O)c3c([H])c([H])c(N([H])C(=O)N4C([H])([H])C([H])([H])C([H])([H])C([H])(n5nc(-c6c([H])c([H])c(Oc7c([H])c([H])c(F)c([H])c7F)c([H])c6[H])c(C(=O)N([H])[H])c5N([H])[H])C4([H])[H])c([H])c3[H])c([H])c([H])c2C1([H])[H]

$$$$
13:0:0
     RDKit          3D

 94101  0  0  1  0  0  0  0  0999 V2000
  -28.9100  -19.3180   20.6520 C   0  0  0  0  0  0  0  0  0  0  0  0
  -27.9290  -18.9810   21.5550 C   0  0  0  0  0  0  0  0  0  0  0  0
  -30.4200  -15.3080   20.3480 C   0  0  0  0  0  0  0  0  0  0  0  0
  -30.4350  -12.8320   19.5440 C   0  0  0  0  0  2  0  0  0  0  0  0
  -29.5380  -12.5890   18.3020 C   0  0  0  0  0  2  0  0  0  0  0  0
  -28.0870  -12.3080   18.7240 C   0  0  0  0  0  2  0  0  0  0  0  0
  -27.6100  -13.2830   19.8290 C   0  0  0  0  0  3  0  0  0  0  0  0
  -28.6390  -13.4740   20.9650 C   0  0  0  0  0  2  0  0  0  0  0  0
  -29.8720  -13.9860   20.3450 N   0  0  0  0  0  0  0  0  0  0  0  0
  -31.6330  -15.2930   20.0890 O   0  0  0  0  0  0  0  0  0  0  0  0
  -29.8640  -18.0440   20.2350 C   0  0  0  0  0  0  0  0  0  0  0  0
  -29.6500  -16.5810   20.4840 N   0  0  0  0  0  0  0  0  0  0  0  0
  -30.9060  -18.3250   19.6340 O   0  0  0  0  0  0  0  0  0  0  0  0
  -28.7250  -16.4330   20.8640 H   0  0  0  0  0  0  0  0  0  0  0  0
  -25.2370  -13.8280   20.5750 C   0  0  0  0  0  0  0  0  0  0  0  0
  -24.1730  -13.0450   20.9260 C   0  0  0  0  0  0  0  0  0  0  0  0
  -24.6400  -11.6950   20.8770 C   0  0  0  0  0  0  0  0  0  0  0  0
  -26.2810  -12.9560   20.3260 N   0  0  0  0  0  0  0  0  0  0  0  0
  -25.9340  -11.6650   20.5740 N   0  0  0  0  0  0  0  0  0  0  0  0
  -23.9100  -10.4300   21.0400 C   0  0  0  0  0  0  0  0  0  0  0  0
  -24.3640   -9.4210   21.9180 C   0  0  0  0  0  3  0  0  0  0  0  0
  -23.6300   -8.2250   22.0750 C   0  0  0  0  0  3  0  0  0  0  0  0
  -22.4290   -8.0290   21.3550 C   0  0  0  0  0  0  0  0  0  0  0  0
  -21.9930   -9.0260   20.4650 C   0  0  0  0  0  3  0  0  0  0  0  0
  -22.7260  -10.2130   20.3060 C   0  0  0  0  0  3  0  0  0  0  0  0
  -21.6650   -6.8880   21.4240 O   0  0  0  0  0  0  0  0  0  0  0  0
  -21.6860   -6.0740   22.5280 C   0  0  0  0  0  0  0  0  0  0  0  0
  -21.4010   -6.5640   23.8210 C   0  0  0  0  0  3  0  0  0  0  0  0
  -21.3660   -5.6790   24.9180 C   0  0  0  0  0  3  0  0  0  0  0  0
  -21.6050   -4.3060   24.7220 C   0  0  0  0  0  0  0  0  0  0  0  0
  -21.8820   -3.8150   23.4350 C   0  0  0  0  0  3  0  0  0  0  0  0
  -21.9190   -4.6960   22.3400 C   0  0  0  0  0  0  0  0  0  0  0  0
  -22.1660   -4.2150   21.0980 F   0  0  0  0  0  0  0  0  0  0  0  0
  -21.5630   -3.4540   25.7740 F   0  0  0  0  0  0  0  0  0  0  0  0
  -22.7750  -13.5190   21.1910 C   0  0  0  0  0  0  0  0  0  0  0  0
  -22.0410  -12.8180   22.0460 N   0  0  0  0  0  0  0  0  0  0  0  0
  -22.3430  -14.5500   20.6750 O   0  0  0  0  0  0  0  0  0  0  0  0
  -22.4040  -11.9850   22.4850 H   0  0  0  0  0  0  0  0  0  0  0  0
  -21.1030  -13.1190   22.2680 H   0  0  0  0  0  0  0  0  0  0  0  0
  -25.3980  -15.2000   20.4160 N   0  0  0  0  0  0  0  0  0  0  0  0
  -24.6190  -15.8420   20.5090 H   0  0  0  0  0  0  0  0  0  0  0  0
  -26.2380  -15.6430   20.0700 H   0  0  0  0  0  0  0  0  0  0  0  0
  -28.9700  -21.0200   20.1130 N   0  0  0  0  0  4  0  0  0  0  0  0
  -28.6420  -20.9780   19.1630 H   0  0  0  0  0  0  0  0  0  0  0  0
  -29.9550  -21.1960   19.9970 H   0  0  0  0  0  0  0  0  0  0  0  0
  -28.3920  -22.5340   20.6390 C   0  0  0  0  0  2  0  0  0  0  0  0
  -28.2970  -24.1830   19.8630 C   0  0  0  0  0  2  0  0  0  0  0  0
  -28.2240  -25.7900   20.3290 O   0  0  0  0  0  0  0  0  0  0  0  0
  -24.6660  -31.8170   23.1660 C   0  0  0  0  0  0  0  0  0  0  0  0
  -27.2190  -26.8950   20.1840 C   0  0  0  0  0  0  0  0  0  0  0  0
  -23.4830  -30.4280   21.5140 C   0  0  0  0  0  3  0  0  0  0  0  0
  -24.9360  -28.8070   20.1040 C   0  0  0  0  0  0  0  0  0  0  0  0
  -26.0520  -30.6130   21.4000 C   0  0  0  0  0  2  0  0  0  0  0  0
  -26.1170  -29.2010   20.7440 C   0  0  0  0  0  0  0  0  0  0  0  0
  -27.2460  -28.2630   20.7630 C   0  0  0  0  0  3  0  0  0  0  0  0
  -26.0140  -26.6630   19.4810 C   0  0  0  0  0  3  0  0  0  0  0  0
  -24.9110  -27.5600   19.4540 C   0  0  0  0  0  3  0  0  0  0  0  0
  -23.7240  -29.7410   20.1390 C   0  0  0  0  0  2  0  0  0  0  0  0
  -24.7550  -30.9810   22.0800 N   0  0  0  0  0  0  0  0  0  0  0  0
  -23.5730  -32.1150   23.6740 O   0  0  0  0  0  0  0  0  0  0  0  0
  -22.7680  -29.4400   22.4740 C   0  0  0  0  0  0  0  0  0  0  0  0
  -21.4340  -29.3030   22.3500 N   0  0  0  0  0  0  0  0  0  0  0  0
  -23.4200  -28.7970   23.2990 O   0  0  0  0  0  0  0  0  0  0  0  0
  -20.9600  -29.8740   21.6630 H   0  0  0  0  0  0  0  0  0  0  0  0
  -18.0320  -28.1430   22.8450 C   0  0  0  0  0  0  0  0  0  0  0  0
  -20.5940  -28.3770   23.1160 C   0  0  0  0  0  3  0  0  0  0  0  0
  -20.6800  -26.9450   22.5400 C   0  0  0  0  0  2  0  0  0  0  0  0
  -19.5780  -26.6380   21.5210 C   0  0  0  0  0  2  0  0  0  0  0  0
  -18.1960  -26.7950   22.1610 C   0  0  0  0  0  2  0  0  0  0  0  0
  -19.1580  -28.8920   23.2790 C   0  0  0  0  0  0  0  0  0  0  0  0
  -18.9500  -30.1500   23.8840 C   0  0  0  0  0  3  0  0  0  0  0  0
  -17.6500  -30.6610   24.0560 C   0  0  0  0  0  3  0  0  0  0  0  0
  -16.5380  -29.9100   23.6350 C   0  0  0  0  0  3  0  0  0  0  0  0
  -16.7300  -28.6530   23.0350 C   0  0  0  0  0  3  0  0  0  0  0  0
  -25.9320  -32.4550   23.8140 C   0  0  0  0  0  3  0  0  0  0  0  0
  -25.5980  -33.8370   24.2040 N   0  0  0  0  0  0  0  0  0  0  0  0
  -25.9110  -34.9320   23.4990 C   0  0  0  0  0  0  0  0  0  0  0  0
  -26.5730  -34.8870   22.4590 O   0  0  0  0  0  0  0  0  0  0  0  0
  -25.0080  -33.9440   25.0150 H   0  0  0  0  0  0  0  0  0  0  0  0
  -24.1490  -36.7200   23.2650 C   0  0  0  0  0  1  0  0  0  0  0  0
  -25.4140  -36.2940   24.0290 C   0  0  0  0  0  3  0  0  0  0  0  0
  -27.5560  -37.1760   24.8470 C   0  0  0  0  0  1  0  0  0  0  0  0
  -26.4270  -37.3690   23.9410 N   0  0  0  0  0  0  0  0  0  0  0  0
  -26.0110  -38.2740   24.1430 H   0  0  0  0  0  0  0  0  0  0  0  0
  -26.4570  -31.6530   25.0700 C   0  0  1  0  0  0  0  0  0  0  0  0
  -25.3690  -31.3790   26.1360 C   0  0  0  0  0  1  0  0  0  0  0  0
  -27.0470  -30.2880   24.6470 C   0  0  0  0  0  1  0  0  0  0  0  0
  -27.6050  -32.4360   25.7510 C   0  0  0  0  0  1  0  0  0  0  0  0
  -27.0190  -19.8000   23.7790 C   0  0  0  0  0  1  0  0  0  0  0  0
  -26.8660  -19.8380   22.2450 C   0  0  0  0  0  3  0  0  0  0  0  0
  -25.1530  -19.5430   20.3240 C   0  0  0  0  0  1  0  0  0  0  0  0
  -25.4250  -19.4560   21.8330 C   0  0  0  0  0  2  0  0  0  0  0  0
  -27.7350  -17.7380   22.0310 O   0  0  0  0  0  0  0  0  0  0  0  0
  -27.0070  -17.7880   22.6390 H   0  0  0  0  0  0  0  0  0  0  0  0
  1  2  2  0
  2 93  1  0
  2 90  1  0
  3 12  1  0
  4  9  1  0
  5  6  1  0
  5  4  1  0
  7  6  1  0
  7 18  1  0
  7  8  1  0
  9  3  1  0
  9  8  1  0
 10  3  2  0
 11 12  1  0
 11  1  1  0
 12 14  1  0
 13 11  2  0
 15 16  2  0
 16 35  1  0
 17 16  1  0
 17 20  1  0
 18 19  1  0
 18 15  1  0
 19 17  2  0
 20 21  1  0
 21 22  2  0
 23 26  1  0
 23 22  1  0
 24 23  2  0
 25 24  1  0
 25 20  2  0
 26 27  1  0
 27 28  1  0
 28 29  2  0
 30 29  1  0
 30 34  1  0
 31 30  2  0
 32 27  2  0
 32 31  1  0
 33 32  1  0
 35 36  1  0
 36 39  1  0
 36 38  1  0
 37 35  2  0
 40 41  1  0
 40 15  1  0
 42 40  1  0
 43 46  1  0
 43  1  1  0
 44 43  1  0
 45 43  1  0
 47 48  1  0
 47 46  1  0
 49 60  2  0
 50 48  1  0
 50 55  1  0
 51 59  1  0
 51 61  1  0
 52 58  1  0
 52 54  1  0
 53 59  1  0
 54 55  2  0
 54 53  1  0
 56 50  2  0
 57 56  1  0
 57 52  2  0
 58 51  1  0
 59 49  1  0
 61 63  2  0
 62 61  1  0
 64 62  1  0
 65 74  2  0
 65 70  1  0
 66 62  1  0
 66 70  1  0
 67 66  1  0
 68 69  1  0
 68 67  1  0
 69 65  1  0
 70 71  2  0
 71 72  1  0
 73 72  2  0
 74 73  1  0
 75 49  1  0
 75 76  1  0
 75 85  1  0
 76 79  1  0
 77 81  1  0
 77 76  1  0
 78 77  2  0
 81 80  1  0
 83 81  1  0
 83 84  1  0
 83 82  1  0
 85 88  1  1
 85 86  1  0
 87 85  1  0
 90 89  1  0
 91 92  1  0
 92 90  1  0
 93 94  1  0
M  ISO  4   3 100  12 100  47 101  48 101
M  END
>  <TORSDO>  (14) 
F 22

>  <SCORE>  (14) 
22.816

>  <name>  (14) 
13

>  <ligand_id>  (14) 
13

>  <original_smiles>  (14) 
[H]OC(=C(C(=O)N([H])C(=O)N1C([H])([H])C([H])([H])C([H])([H])C([H])(n2nc(-c3c([H])c([H])c(Oc4c([H])c([H])c(F)c([H])c4F)c([H])c3[H])c(C(=O)N([H])[H])c2N([H])[H])C1([H])[H])[N+]([H])([H])C([H])([H])C([H])([H])Oc1c([H])c([H])c2c(c1[H])C([H])([H])N(C(=O)C([H])(N([H])C(=O)C([H])(N([H])C([H])([H])[H])C([H])([H])[H])C(C([H])([H])[H])(C([H])([H])[H])C([H])([H])[H])C([H])(C(=O)N([H])C1([H])c3c([H])c([H])c([H])c([H])c3C([H])([H])C([H])([H])C1([H])[H])C2([H])[H])C([H])(C([H])([H])[H])C([H])([H])C([H])([H])[H]

>  <smiles>  (14) 
[H]OC(=C(C(=O)N([H])C(=O)N1C([H])([H])C([H])([H])C([H])([H])C([H])(n2nc(-c3c([H])c([H])c(Oc4c([H])c([H])c(F)c([H])c4F)c([H])c3[H])c(C(=O)N([H])[H])c2N([H])[H])C1([H])[H])[N+]([H])([H])C([H])([H])C([H])([H])Oc1c([H])c([H])c2c(c1[H])C([H])([H])N(C(=O)C([H])(N([H])C(=O)C([H])(N([H])C([H])([H])[H])C([H])([H])[H])C(C([H])([H])[H])(C([H])([H])[H])C([H])([H])[H])C([H])(C(=O)N([H])C1([H])c3c([H])c([H])c([H])c([H])c3C([H])([H])C([H])([H])C1([H])[H])C2([H])[H])C([H])(C([H])([H])[H])C([H])([H])C([H])([H])[H]

$$$$
14:0:0
     RDKit          3D

 82 86  0  0  1  0  0  0  0  0999 V2000
  -28.1370  -24.6640   20.2800 O   0  0  0  0  0  1  0  0  0  0  0  0
  -24.7340  -31.8030   23.1520 C   0  0  0  0  0  0  0  0  0  0  0  0
  -27.2260  -26.1590   20.2530 C   0  0  0  0  0  0  0  0  0  0  0  0
  -23.5690  -30.3790   21.5310 C   0  0  0  0  0  3  0  0  0  0  0  0
  -25.0170  -28.5910   20.1720 C   0  0  0  0  0  0  0  0  0  0  0  0
  -26.1690  -30.3340   21.4840 C   0  0  0  0  0  2  0  0  0  0  0  0
  -26.2240  -28.8290   20.8370 C   0  0  0  0  0  0  0  0  0  0  0  0
  -27.2770  -27.6660   20.8260 C   0  0  0  0  0  3  0  0  0  0  0  0
  -25.9790  -26.2970   19.5260 C   0  0  0  0  0  3  0  0  0  0  0  0
  -24.9720  -27.3550   19.4890 C   0  0  0  0  0  3  0  0  0  0  0  0
  -23.8390  -29.6200   20.1890 C   0  0  0  0  0  2  0  0  0  0  0  0
  -24.8570  -30.8880   22.1070 N   0  0  0  0  0  0  0  0  0  0  0  0
  -23.6280  -32.1340   23.6250 O   0  0  0  0  0  0  0  0  0  0  0  0
  -22.7900  -29.4690   22.5260 C   0  0  0  0  0  0  0  0  0  0  0  0
  -21.4500  -29.3540   22.4040 N   0  0  0  0  0  0  0  0  0  0  0  0
  -23.4170  -28.8550   23.3910 O   0  0  0  0  0  0  0  0  0  0  0  0
  -20.9850  -29.8980   21.6910 H   0  0  0  0  0  0  0  0  0  0  0  0
  -18.0430  -28.1630   22.9450 C   0  0  0  0  0  0  0  0  0  0  0  0
  -20.6080  -28.4320   23.1860 C   0  0  0  0  0  3  0  0  0  0  0  0
  -20.6980  -26.9930   22.6240 C   0  0  0  0  0  2  0  0  0  0  0  0
  -19.5930  -26.6710   21.6130 C   0  0  0  0  0  2  0  0  0  0  0  0
  -18.2140  -26.8160   22.2620 C   0  0  0  0  0  2  0  0  0  0  0  0
  -19.1660  -28.9300   23.3620 C   0  0  0  0  0  0  0  0  0  0  0  0
  -18.9450  -30.1830   23.9710 C   0  0  0  0  0  3  0  0  0  0  0  0
  -17.6390  -30.6750   24.1590 C   0  0  0  0  0  3  0  0  0  0  0  0
  -16.5340  -29.9080   23.7510 C   0  0  0  0  0  3  0  0  0  0  0  0
  -16.7360  -28.6540   23.1500 C   0  0  0  0  0  3  0  0  0  0  0  0
  -25.9690  -32.4900   23.8170 C   0  0  0  0  0  3  0  0  0  0  0  0
  -25.6220  -33.8950   24.1490 N   0  0  0  0  0  0  0  0  0  0  0  0
  -25.9300  -34.9760   23.4180 C   0  0  0  0  0  0  0  0  0  0  0  0
  -26.5750  -34.8970   22.3700 O   0  0  0  0  0  0  0  0  0  0  0  0
  -25.0380  -34.0270   24.9630 H   0  0  0  0  0  0  0  0  0  0  0  0
  -24.1650  -36.7690   23.1870 C   0  0  0  0  0  1  0  0  0  0  0  0
  -25.4550  -36.3610   23.9170 C   0  0  0  0  0  3  0  0  0  0  0  0
  -27.6170  -37.2890   24.6380 C   0  0  0  0  0  1  0  0  0  0  0  0
  -26.4650  -37.4330   23.7520 N   0  0  0  0  0  0  0  0  0  0  0  0
  -26.0520  -38.3460   23.9150 H   0  0  0  0  0  0  0  0  0  0  0  0
  -26.4440  -31.7560   25.1340 C   0  0  1  0  0  0  0  0  0  0  0  0
  -25.3190  -31.5450   26.1760 C   0  0  0  0  0  1  0  0  0  0  0  0
  -27.0410  -30.3700   24.8160 C   0  0  0  0  0  1  0  0  0  0  0  0
  -27.5740  -32.5690   25.8090 C   0  0  0  0  0  1  0  0  0  0  0  0
  -28.1770  -22.5590   20.1660 C   0  0  0  0  0 15  0  0  0  0  0  0
  -30.1260  -20.6340   21.3760 C   0  0  0  0  0  1  0  0  0  0  0  0
  -29.1990  -20.4320   20.1740 C   0  0  0  0  0  1  0  0  0  0  0  0
  -29.9420  -16.6970   20.0440 C   0  0  0  0  0  0  0  0  0  0  0  0
  -30.3010  -13.9350   19.2580 C   0  0  0  0  0  2  0  0  0  0  0  0
  -29.5130  -13.0880   18.1740 C   0  0  0  0  0  2  0  0  0  0  0  0
  -28.2060  -12.5100   18.7180 C   0  0  0  0  0  2  0  0  0  0  0  0
  -27.5770  -13.5390   19.6670 C   0  0  0  0  0  3  0  0  0  0  0  0
  -28.5580  -14.2410   20.6770 C   0  0  0  0  0  2  0  0  0  0  0  0
  -29.5240  -15.1680   19.9320 N   0  0  0  0  0  0  0  0  0  0  0  0
  -31.1900  -16.4790   19.9460 O   0  0  0  0  0  0  0  0  0  0  0  0
  -29.2060  -18.3230   20.0940 N   0  0  0  0  0  2  0  0  0  0  0  0
  -28.2220  -18.0840   20.0790 H   0  0  0  0  0  0  0  0  0  0  0  0
  -25.2470  -13.9380   20.5380 C   0  0  0  0  0  0  0  0  0  0  0  0
  -24.2200  -13.1270   20.9200 C   0  0  0  0  0  0  0  0  0  0  0  0
  -24.7160  -11.7890   20.8410 C   0  0  0  0  0  0  0  0  0  0  0  0
  -26.3080  -13.1070   20.2470 N   0  0  0  0  0  0  0  0  0  0  0  0
  -26.0040  -11.7970   20.4800 N   0  0  0  0  0  0  0  0  0  0  0  0
  -24.0070  -10.5110   21.0280 C   0  0  0  0  0  0  0  0  0  0  0  0
  -24.4480   -9.5440   21.9600 C   0  0  0  0  0  3  0  0  0  0  0  0
  -23.7280   -8.3430   22.1460 C   0  0  0  0  0  3  0  0  0  0  0  0
  -22.5510   -8.0970   21.4000 C   0  0  0  0  0  0  0  0  0  0  0  0
  -22.1250   -9.0510   20.4590 C   0  0  0  0  0  3  0  0  0  0  0  0
  -22.8460  -10.2440   20.2730 C   0  0  0  0  0  3  0  0  0  0  0  0
  -21.8040   -6.9470   21.4930 O   0  0  0  0  0  0  0  0  0  0  0  0
  -21.7380   -6.2200   22.6560 C   0  0  0  0  0  0  0  0  0  0  0  0
  -21.2500   -6.7810   23.8570 C   0  0  0  0  0  3  0  0  0  0  0  0
  -21.1340   -5.9820   25.0120 C   0  0  0  0  0  3  0  0  0  0  0  0
  -21.4950   -4.6220   24.9670 C   0  0  0  0  0  0  0  0  0  0  0  0
  -21.9760   -4.0600   23.7710 C   0  0  0  0  0  3  0  0  0  0  0  0
  -22.0930   -4.8570   22.6180 C   0  0  0  0  0  0  0  0  0  0  0  0
  -22.5350   -4.3050   21.4630 F   0  0  0  0  0  0  0  0  0  0  0  0
  -21.3780   -3.8520   26.0750 F   0  0  0  0  0  0  0  0  0  0  0  0
  -22.8250  -13.5770   21.2360 C   0  0  0  0  0  0  0  0  0  0  0  0
  -22.1350  -12.8630   22.1170 N   0  0  0  0  0  0  0  0  0  0  0  0
  -22.3590  -14.6020   20.7400 O   0  0  0  0  0  0  0  0  0  0  0  0
  -22.5290  -12.0350   22.5410 H   0  0  0  0  0  0  0  0  0  0  0  0
  -21.2000  -13.1480   22.3730 H   0  0  0  0  0  0  0  0  0  0  0  0
  -25.3640  -15.3150   20.3750 N   0  0  0  0  0  0  0  0  0  0  0  0
  -24.5810  -15.9440   20.5150 H   0  0  0  0  0  0  0  0  0  0  0  0
  -26.1870  -15.7810   20.0160 H   0  0  0  0  0  0  0  0  0  0  0  0
  2 13  2  0
  3  1  1  0
  3  8  1  0
  4 12  1  0
  4 14  1  0
  5 11  1  0
  5  7  1  0
  6 12  1  0
  7  6  1  0
  8  7  2  0
  9  3  2  0
 10  9  1  0
 10  5  2  0
 11  4  1  0
 12  2  1  0
 14 16  2  0
 15 14  1  0
 17 15  1  0
 18 27  2  0
 18 23  1  0
 19 15  1  0
 19 23  1  0
 20 19  1  0
 21 22  1  0
 21 20  1  0
 22 18  1  0
 23 24  2  0
 24 25  1  0
 26 25  2  0
 27 26  1  0
 28  2  1  0
 28 29  1  0
 28 38  1  0
 29 32  1  0
 30 34  1  0
 30 29  1  0
 31 30  2  0
 34 33  1  0
 36 37  1  0
 36 34  1  0
 36 35  1  0
 38 41  1  1
 38 39  1  0
 40 38  1  0
 44 43  1  0
 45 53  1  0
 46 51  1  0
 47 48  1  0
 47 46  1  0
 49 48  1  0
 49 58  1  0
 49 50  1  0
 51 45  1  0
 51 50  1  0
 52 45  2  0
 54 53  1  0
 55 56  2  0
 56 75  1  0
 57 56  1  0
 57 60  1  0
 58 59  1  0
 58 55  1  0
 59 57  2  0
 60 61  1  0
 61 62  2  0
 63 66  1  0
 63 62  1  0
 64 63  2  0
 65 64  1  0
 65 60  2  0
 66 67  1  0
 67 68  1  0
 68 69  2  0
 70 69  1  0
 70 74  1  0
 71 70  2  0
 72 67  2  0
 72 71  1  0
 73 72  1  0
 75 76  1  0
 76 79  1  0
 76 78  1  0
 77 75  2  0
 80 81  1  0
 80 55  1  0
 82 80  1  0
M  ISO  4   1 101  42 101  45 100  53 100
M  END
>  <TORSDO>  (15) 
F 17

>  <SCORE>  (15) 
-16.272

>  <name>  (15) 
14

>  <ligand_id>  (15) 
14

>  <original_smiles>  (15) 
[H]c1c([H])c([H])c2c(c1[H])C([H])([H])C([H])([H])C([H])([H])C2([H])N([H])C(=O)C1([H])N(C(=O)C([H])(N([H])C(=O)C([H])(N([H])C([H])([H])[H])C([H])([H])[H])C(C([H])([H])[H])(C([H])([H])[H])C([H])([H])[H])C([H])([H])c2c([H])c(OC([H])([H])C([H])(N([H])C(=O)N3C([H])([H])C([H])([H])C([H])([H])C([H])(n4nc(-c5c([H])c([H])c(Oc6c([H])c([H])c(F)c([H])c6F)c([H])c5[H])c(C(=O)N([H])[H])c4N([H])[H])C3([H])[H])C([H])([H])[H])c([H])c([H])c2C1([H])[H]

>  <smiles>  (15) 
[H]c1c([H])c([H])c2c(c1[H])C([H])([H])C([H])([H])C([H])([H])C2([H])N([H])C(=O)C1([H])N(C(=O)C([H])(N([H])C(=O)C([H])(N([H])C([H])([H])[H])C([H])([H])[H])C(C([H])([H])[H])(C([H])([H])[H])C([H])([H])[H])C([H])([H])c2c([H])c(OC([H])([H])C([H])(N([H])C(=O)N3C([H])([H])C([H])([H])C([H])([H])C([H])(n4nc(-c5c([H])c([H])c(Oc6c([H])c([H])c(F)c([H])c6F)c([H])c5[H])c(C(=O)N([H])[H])c4N([H])[H])C3([H])[H])C([H])([H])[H])c([H])c([H])c2C1([H])[H]

$$$$
15:0:0
     RDKit          3D

 91 99  0  0  1  0  0  0  0  0999 V2000
  -30.1790  -21.6710   20.3980 C   0  0  0  0  0  0  0  0  0  0  0  0
  -29.1730  -22.5860   20.2460 N   0  0  0  0  0  0  0  0  0  0  0  0
  -31.3280  -22.0690   20.5980 O   0  0  0  0  0  0  0  0  0  0  0  0
  -28.2420  -22.2410   20.0600 H   0  0  0  0  0  0  0  0  0  0  0  0
  -31.0220  -19.3220   19.7700 C   0  0  0  0  0  3  0  0  0  0  0  0
  -28.8810  -19.4340   20.8510 C   0  0  0  0  0  3  0  0  0  0  0  0
  -31.0010  -17.8960   19.8140 C   0  0  0  0  0  3  0  0  0  0  0  0
  -28.8560  -18.0010   20.8960 C   0  0  0  0  0  3  0  0  0  0  0  0
  -29.9810  -20.1400   20.2980 C   0  0  0  0  0  0  0  0  0  0  0  0
  -29.9200  -17.1870   20.4050 C   0  0  0  0  0  0  0  0  0  0  0  0
  -30.5960  -14.6910   20.0440 C   0  0  0  0  0  0  0  0  0  0  0  0
  -30.3130  -12.4890   18.9190 C   0  0  0  0  0  2  0  0  0  0  0  0
  -29.2970  -12.6830   17.7720 C   0  0  0  0  0  2  0  0  0  0  0  0
  -27.8510  -12.5140   18.2840 C   0  0  0  0  0  2  0  0  0  0  0  0
  -27.5820  -13.3230   19.5820 C   0  0  0  0  0  3  0  0  0  0  0  0
  -28.7050  -13.1070   20.6210 C   0  0  0  0  0  2  0  0  0  0  0  0
  -29.9790  -13.4670   19.9750 N   0  0  0  0  0  0  0  0  0  0  0  0
  -31.7270  -14.8550   19.5770 O   0  0  0  0  0  0  0  0  0  0  0  0
  -29.8260  -15.7250   20.5120 N   0  0  0  0  0  0  0  0  0  0  0  0
  -28.9720  -15.3980   20.9420 H   0  0  0  0  0  0  0  0  0  0  0  0
  -25.2420  -13.9130   20.4650 C   0  0  0  0  0  0  0  0  0  0  0  0
  -24.1930  -13.1380   20.8740 C   0  0  0  0  0  0  0  0  0  0  0  0
  -24.6380  -11.7850   20.7710 C   0  0  0  0  0  0  0  0  0  0  0  0
  -26.2610  -13.0330   20.1350 N   0  0  0  0  0  0  0  0  0  0  0  0
  -25.9070  -11.7450   20.3790 N   0  0  0  0  0  0  0  0  0  0  0  0
  -23.9130  -10.5230   20.9670 C   0  0  0  0  0  0  0  0  0  0  0  0
  -24.3600   -9.5490   21.8870 C   0  0  0  0  0  3  0  0  0  0  0  0
  -23.6350   -8.3520   22.0710 C   0  0  0  0  0  3  0  0  0  0  0  0
  -22.4500   -8.1180   21.3330 C   0  0  0  0  0  0  0  0  0  0  0  0
  -22.0230   -9.0800   20.4020 C   0  0  0  0  0  3  0  0  0  0  0  0
  -22.7480  -10.2690   20.2160 C   0  0  0  0  0  3  0  0  0  0  0  0
  -21.6980   -6.9730   21.4260 O   0  0  0  0  0  0  0  0  0  0  0  0
  -21.6200   -6.2550   22.5930 C   0  0  0  0  0  0  0  0  0  0  0  0
  -21.1390   -6.8290   23.7890 C   0  0  0  0  0  3  0  0  0  0  0  0
  -21.0120   -6.0360   24.9480 C   0  0  0  0  0  3  0  0  0  0  0  0
  -21.3520   -4.6700   24.9090 C   0  0  0  0  0  0  0  0  0  0  0  0
  -21.8260   -4.0960   23.7160 C   0  0  0  0  0  3  0  0  0  0  0  0
  -21.9560   -4.8870   22.5590 C   0  0  0  0  0  0  0  0  0  0  0  0
  -22.3930   -4.3240   21.4070 F   0  0  0  0  0  0  0  0  0  0  0  0
  -21.2220   -3.9060   26.0180 F   0  0  0  0  0  0  0  0  0  0  0  0
  -22.8200  -13.6170   21.2470 C   0  0  0  0  0  0  0  0  0  0  0  0
  -22.1420  -12.9000   22.1360 N   0  0  0  0  0  0  0  0  0  0  0  0
  -22.3600  -14.6620   20.7880 O   0  0  0  0  0  0  0  0  0  0  0  0
  -22.5270  -12.0570   22.5340 H   0  0  0  0  0  0  0  0  0  0  0  0
  -21.2220  -13.2040   22.4250 H   0  0  0  0  0  0  0  0  0  0  0  0
  -25.4090  -15.2880   20.3240 N   0  0  0  0  0  0  0  0  0  0  0  0
  -24.6500  -15.9380   20.4920 H   0  0  0  0  0  0  0  0  0  0  0  0
  -26.2290  -15.7330   19.9330 H   0  0  0  0  0  0  0  0  0  0  0  0
  -29.3780  -24.0850   20.3590 C   0  0  0  0  0  3  0  0  0  0  0  0
  -28.1920  -25.0630   19.9560 C   0  0  0  0  0  3  0  0  0  0  0  0
  -28.3730  -26.5180   20.1900 O   0  0  0  0  0  0  0  0  0  0  0  0
  -24.6130  -31.8710   23.2430 C   0  0  0  0  0  0  0  0  0  0  0  0
  -27.2450  -27.3550   20.1430 C   0  0  0  0  0  0  0  0  0  0  0  0
  -23.4170  -30.4890   21.5810 C   0  0  0  0  0  3  0  0  0  0  0  0
  -24.8730  -28.9560   20.1450 C   0  0  0  0  0  0  0  0  0  0  0  0
  -25.9550  -30.8150   21.4100 C   0  0  0  0  0  2  0  0  0  0  0  0
  -26.0380  -29.4440   20.7490 C   0  0  0  0  0  0  0  0  0  0  0  0
  -27.2270  -28.6550   20.7390 C   0  0  0  0  0  3  0  0  0  0  0  0
  -26.0540  -26.9220   19.5140 C   0  0  0  0  0  3  0  0  0  0  0  0
  -24.8820  -27.7010   19.5210 C   0  0  0  0  0  3  0  0  0  0  0  0
  -23.6340  -29.8270   20.1960 C   0  0  0  0  0  2  0  0  0  0  0  0
  -24.6810  -31.0750   22.1350 N   0  0  0  0  0  0  0  0  0  0  0  0
  -23.5260  -32.1430   23.7750 O   0  0  0  0  0  0  0  0  0  0  0  0
  -22.7510  -29.4630   22.5280 C   0  0  0  0  0  0  0  0  0  0  0  0
  -21.4260  -29.2850   22.3910 N   0  0  0  0  0  0  0  0  0  0  0  0
  -23.4260  -28.8260   23.3420 O   0  0  0  0  0  0  0  0  0  0  0  0
  -20.9430  -29.8500   21.7070 H   0  0  0  0  0  0  0  0  0  0  0  0
  -18.0420  -28.1010   22.8730 C   0  0  0  0  0  0  0  0  0  0  0  0
  -20.6020  -28.3400   23.1450 C   0  0  0  0  0  3  0  0  0  0  0  0
  -20.6960  -26.9180   22.5460 C   0  0  0  0  0  2  0  0  0  0  0  0
  -19.5890  -26.6190   21.5270 C   0  0  0  0  0  2  0  0  0  0  0  0
  -18.2090  -26.7610   22.1750 C   0  0  0  0  0  2  0  0  0  0  0  0
  -19.1660  -28.8490   23.3140 C   0  0  0  0  0  0  0  0  0  0  0  0
  -18.9550  -30.1030   23.9260 C   0  0  0  0  0  3  0  0  0  0  0  0
  -17.6540  -30.6100   24.1030 C   0  0  0  0  0  3  0  0  0  0  0  0
  -16.5450  -29.8590   23.6770 C   0  0  0  0  0  3  0  0  0  0  0  0
  -16.7390  -28.6060   23.0690 C   0  0  0  0  0  3  0  0  0  0  0  0
  -25.8930  -32.4950   23.8780 C   0  0  0  0  0  3  0  0  0  0  0  0
  -26.3930  -31.7180   25.1580 C   0  0  1  0  0  0  0  0  0  0  0  0
  -25.2870  -31.4800   26.2130 C   0  0  0  0  0  1  0  0  0  0  0  0
  -26.9790  -30.3410   24.7660 C   0  0  0  0  0  1  0  0  0  0  0  0
  -27.5370  -32.5080   25.8370 C   0  0  0  0  0  1  0  0  0  0  0  0
  -25.5860  -33.8940   24.2130 N   0  0  0  0  0  0  0  0  0  0  0  0
  -25.9070  -34.9460   23.4480 C   0  0  0  0  0  0  0  0  0  0  0  0
  -26.5640  -34.8430   22.4090 O   0  0  0  0  0  0  0  0  0  0  0  0
  -25.0030  -34.0500   25.0210 H   0  0  0  0  0  0  0  0  0  0  0  0
  -24.1630  -36.7300   23.1290 C   0  0  0  0  0  1  0  0  0  0  0  0
  -25.4260  -36.3340   23.9110 C   0  0  0  0  0  3  0  0  0  0  0  0
  -27.5720  -37.2370   24.6910 C   0  0  0  0  0  1  0  0  0  0  0  0
  -26.4490  -37.3920   23.7680 N   0  0  0  0  0  0  0  0  0  0  0  0
  -26.0410  -38.3110   23.9170 H   0  0  0  0  0  0  0  0  0  0  0  0
  1  3  2  0
  2 49  1  0
  2  1  1  0
  4  2  1  0
  5  7  2  0
  5  9  1  0
  6  8  1  0
  7 10  1  0
  9  1  1  0
  9  6  2  0
 10 19  1  0
 10  8  2  0
 11 19  1  0
 12 17  1  0
 13 14  1  0
 13 12  1  0
 15 14  1  0
 15 24  1  0
 15 16  1  0
 17 11  1  0
 17 16  1  0
 18 11  2  0
 19 20  1  0
 21 22  2  0
 22 41  1  0
 23 22  1  0
 23 26  1  0
 24 25  1  0
 24 21  1  0
 25 23  2  0
 26 27  1  0
 27 28  2  0
 29 32  1  0
 29 28  1  0
 30 29  2  0
 31 30  1  0
 31 26  2  0
 32 33  1  0
 33 34  1  0
 34 35  2  0
 36 35  1  0
 36 40  1  0
 37 36  2  0
 38 33  2  0
 38 37  1  0
 39 38  1  0
 41 42  1  0
 42 45  1  0
 42 44  1  0
 43 41  2  0
 46 21  1  0
 46 47  1  0
 48 46  1  0
 50 51  1  0
 50 49  2  0
 52 63  2  0
 53 51  1  0
 53 58  1  0
 54 62  1  0
 54 64  1  0
 55 61  1  0
 55 57  1  0
 56 62  1  0
 57 56  1  0
 58 57  2  0
 59 60  1  0
 59 53  2  0
 60 55  2  0
 61 54  1  0
 62 52  1  0
 64 66  2  0
 65 64  1  0
 67 65  1  0
 68 77  2  0
 68 73  1  0
 69 65  1  0
 69 73  1  0
 70 69  1  0
 71 72  1  0
 71 70  1  0
 72 68  1  0
 73 74  2  0
 74 75  1  0
 76 75  2  0
 77 76  1  0
 78 52  1  0
 78 83  1  0
 78 79  1  0
 79 82  1  1
 79 80  1  0
 81 79  1  0
 83 86  1  0
 84 88  1  0
 84 83  1  0
 85 84  2  0
 88 87  1  0
 90 88  1  0
 90 91  1  0
 90 89  1  0
M  ISO  4  11 100  19 100  50 101  51 101
M  END
>  <TORSDO>  (16) 
F 19

>  <SCORE>  (16) 
-13.884

>  <name>  (16) 
15

>  <ligand_id>  (16) 
15

>  <original_smiles>  (16) 
[H]c1c([H])c([H])c2c(c1[H])C([H])([H])C([H])([H])C([H])([H])C2([H])N([H])C(=O)C1([H])N(C(=O)C([H])(N([H])C(=O)C([H])(N([H])C([H])([H])[H])C([H])([H])[H])C(C([H])([H])[H])(C([H])([H])[H])C([H])([H])[H])C([H])([H])c2c([H])c(OC([H])([H])C([H])([H])N([H])C(=O)c3c([H])c([H])c(N([H])C(=O)N4C([H])([H])C([H])([H])C([H])([H])C([H])(n5nc(-c6c([H])c([H])c(Oc7c([H])c([H])c(F)c([H])c7F)c([H])c6[H])c(C(=O)N([H])[H])c5N([H])[H])C4([H])[H])c([H])c3[H])c([H])c([H])c2C1([H])[H]

>  <smiles>  (16) 
[H]c1c([H])c([H])c2c(c1[H])C([H])([H])C([H])([H])C([H])([H])C2([H])N([H])C(=O)C1([H])N(C(=O)C([H])(N([H])C(=O)C([H])(N([H])C([H])([H])[H])C([H])([H])[H])C(C([H])([H])[H])(C([H])([H])[H])C([H])([H])[H])C([H])([H])c2c([H])c(OC([H])([H])C([H])([H])N([H])C(=O)c3c([H])c([H])c(N([H])C(=O)N4C([H])([H])C([H])([H])C([H])([H])C([H])(n5nc(-c6c([H])c([H])c(Oc7c([H])c([H])c(F)c([H])c7F)c([H])c6[H])c(C(=O)N([H])[H])c5N([H])[H])C4([H])[H])c([H])c3[H])c([H])c([H])c2C1([H])[H]

$$$$
16:0:0
     RDKit          3D

 94101  0  0  1  0  0  0  0  0999 V2000
  -28.0350  -23.1830   17.2930 C   0  0  0  0  0  2  0  0  0  0  0  0
  -29.1460  -22.1040   17.1980 C   0  0  0  0  0  2  0  0  0  0  0  0
  -28.9700  -20.9480   18.2540 C   0  0  0  0  0  2  0  0  0  0  0  0
  -29.3900  -19.5050   17.8050 C   0  0  0  0  0  2  0  0  0  0  0  0
  -29.9090  -18.5830   18.9500 C   0  0  0  0  0  2  0  0  0  0  0  0
  -29.3350  -17.2920   19.4250 C   0  0  0  0  0  0  0  0  0  0  0  0
  -30.0990  -16.7180   20.3850 N   0  0  0  0  0  0  0  0  0  0  0  0
  -28.2510  -16.8970   19.0020 O   0  0  0  0  0  0  0  0  0  0  0  0
  -31.0450  -17.0080   20.5630 H   0  0  0  0  0  0  0  0  0  0  0  0
  -30.5870  -14.4420   20.4680 C   0  0  0  0  0  0  0  0  0  0  0  0
  -30.3650  -12.2840   19.3830 C   0  0  0  0  0  2  0  0  0  0  0  0
  -29.4510  -12.5130   18.1620 C   0  0  0  0  0  2  0  0  0  0  0  0
  -27.9770  -12.3530   18.5930 C   0  0  0  0  0  2  0  0  0  0  0  0
  -27.6280  -13.2000   19.8470 C   0  0  0  0  0  3  0  0  0  0  0  0
  -28.6550  -12.9420   20.9760 C   0  0  0  0  0  2  0  0  0  0  0  0
  -29.9790  -13.2390   20.4280 N   0  0  0  0  0  0  0  0  0  0  0  0
  -31.7340  -14.6490   20.1030 O   0  0  0  0  0  0  0  0  0  0  0  0
  -29.8410  -15.4620   20.8310 N   0  0  0  0  0  0  0  0  0  0  0  0
  -28.9340  -15.4080   21.2270 H   0  0  0  0  0  0  0  0  0  0  0  0
  -25.2210  -13.8320   20.5130 C   0  0  0  0  0  0  0  0  0  0  0  0
  -24.1360  -13.0680   20.8600 C   0  0  0  0  0  0  0  0  0  0  0  0
  -24.5820  -11.7110   20.8580 C   0  0  0  0  0  0  0  0  0  0  0  0
  -26.2620  -12.9440   20.3080 N   0  0  0  0  0  0  0  0  0  0  0  0
  -25.8800  -11.6710   20.5860 N   0  0  0  0  0  0  0  0  0  0  0  0
  -23.8610  -10.4450   21.0510 C   0  0  0  0  0  0  0  0  0  0  0  0
  -24.2840   -9.4820   21.9920 C   0  0  0  0  0  3  0  0  0  0  0  0
  -23.5470   -8.2940   22.1730 C   0  0  0  0  0  3  0  0  0  0  0  0
  -22.3890   -8.0500   21.4010 C   0  0  0  0  0  0  0  0  0  0  0  0
  -21.9790   -9.0120   20.4590 C   0  0  0  0  0  3  0  0  0  0  0  0
  -22.7160  -10.1920   20.2750 C   0  0  0  0  0  3  0  0  0  0  0  0
  -21.6320   -6.9090   21.4940 O   0  0  0  0  0  0  0  0  0  0  0  0
  -21.5750   -6.1660   22.6480 C   0  0  0  0  0  0  0  0  0  0  0  0
  -21.1530   -6.7160   23.8780 C   0  0  0  0  0  3  0  0  0  0  0  0
  -21.0590   -5.8940   25.0160 C   0  0  0  0  0  3  0  0  0  0  0  0
  -21.3670   -4.5250   24.9240 C   0  0  0  0  0  0  0  0  0  0  0  0
  -21.7820   -3.9760   23.6980 C   0  0  0  0  0  3  0  0  0  0  0  0
  -21.8820   -4.7920   22.5610 C   0  0  0  0  0  0  0  0  0  0  0  0
  -22.2620   -4.2420   21.3800 F   0  0  0  0  0  0  0  0  0  0  0  0
  -21.2590   -3.7430   26.0230 F   0  0  0  0  0  0  0  0  0  0  0  0
  -22.7350  -13.5490   21.1020 C   0  0  0  0  0  0  0  0  0  0  0  0
  -21.9840  -12.8620   21.9590 N   0  0  0  0  0  0  0  0  0  0  0  0
  -22.3120  -14.5640   20.5570 O   0  0  0  0  0  0  0  0  0  0  0  0
  -22.3480  -12.0430   22.4230 H   0  0  0  0  0  0  0  0  0  0  0  0
  -21.0430  -13.1750   22.1530 H   0  0  0  0  0  0  0  0  0  0  0  0
  -25.3780  -15.1950   20.3010 N   0  0  0  0  0  0  0  0  0  0  0  0
  -24.5930  -15.8270   20.3530 H   0  0  0  0  0  0  0  0  0  0  0  0
  -26.2090  -15.6240   19.9110 H   0  0  0  0  0  0  0  0  0  0  0  0
  -28.3500  -24.5490   16.6290 C   0  0  0  0  0  2  0  0  0  0  0  0
  -29.5180  -26.1540   18.1590 C   0  0  0  0  0  0  0  0  0  0  0  0
  -28.4250  -25.6260   17.6120 N   0  0  0  0  0  0  0  0  0  0  0  0
  -30.6380  -25.8150   17.7850 O   0  0  0  0  0  0  0  0  0  0  0  0
  -27.5780  -26.0540   17.9620 H   0  0  0  0  0  0  0  0  0  0  0  0
  -29.3500  -27.1720   19.2800 C   0  0  0  0  0  2  0  0  0  0  0  0
  -28.3330  -26.7010   20.1700 O   0  0  0  0  0  0  0  0  0  0  0  0
  -24.5120  -31.8880   23.2570 C   0  0  0  0  0  0  0  0  0  0  0  0
  -27.1780  -27.4430   20.1830 C   0  0  0  0  0  0  0  0  0  0  0  0
  -23.4410  -30.2240   21.7550 C   0  0  0  0  0  3  0  0  0  0  0  0
  -24.7730  -28.9420   20.1390 C   0  0  0  0  0  0  0  0  0  0  0  0
  -25.8500  -30.8890   21.3620 C   0  0  0  0  0  2  0  0  0  0  0  0
  -25.9490  -29.4970   20.6910 C   0  0  0  0  0  0  0  0  0  0  0  0
  -27.1500  -28.7540   20.7060 C   0  0  0  0  0  3  0  0  0  0  0  0
  -25.9850  -26.8830   19.6800 C   0  0  0  0  0  3  0  0  0  0  0  0
  -24.7910  -27.6340   19.6320 C   0  0  0  0  0  3  0  0  0  0  0  0
  -23.4960  -29.7480   20.3050 C   0  0  0  0  0  2  0  0  0  0  0  0
  -24.5780  -31.1120   22.1360 N   0  0  0  0  0  0  0  0  0  0  0  0
  -23.4330  -32.1550   23.8060 O   0  0  0  0  0  0  0  0  0  0  0  0
  -22.5650  -29.4330   22.7450 C   0  0  0  0  0  0  0  0  0  0  0  0
  -21.2540  -29.3380   22.4760 N   0  0  0  0  0  0  0  0  0  0  0  0
  -23.0810  -28.9330   23.7670 O   0  0  0  0  0  0  0  0  0  0  0  0
  -20.8640  -29.7740   21.6380 H   0  0  0  0  0  0  0  0  0  0  0  0
  -17.8640  -28.2210   22.9720 C   0  0  0  0  0  0  0  0  0  0  0  0
  -20.4040  -28.4310   23.2420 C   0  0  0  0  0  3  0  0  0  0  0  0
  -20.5060  -26.9950   22.6790 C   0  0  0  0  0  2  0  0  0  0  0  0
  -19.4030  -26.6880   21.6540 C   0  0  0  0  0  2  0  0  0  0  0  0
  -18.0210  -26.8650   22.3010 C   0  0  0  0  0  2  0  0  0  0  0  0
  -18.9910  -28.9580   23.4060 C   0  0  0  0  0  0  0  0  0  0  0  0
  -18.8240  -30.2340   23.9840 C   0  0  0  0  0  3  0  0  0  0  0  0
  -17.5360  -30.7750   24.1470 C   0  0  0  0  0  3  0  0  0  0  0  0
  -16.4080  -30.0290   23.7520 C   0  0  0  0  0  3  0  0  0  0  0  0
  -16.5730  -28.7600   23.1480 C   0  0  0  0  0  3  0  0  0  0  0  0
  -25.8000  -32.5070   23.8830 C   0  0  0  0  0  3  0  0  0  0  0  0
  -25.4880  -33.9130   24.1950 N   0  0  0  0  0  0  0  0  0  0  0  0
  -25.8580  -34.9420   23.4290 C   0  0  0  0  0  0  0  0  0  0  0  0
  -26.5440  -34.8210   22.4090 O   0  0  0  0  0  0  0  0  0  0  0  0
  -24.8930  -34.0890   24.9990 H   0  0  0  0  0  0  0  0  0  0  0  0
  -24.1830  -36.7640   23.0230 C   0  0  0  0  0  1  0  0  0  0  0  0
  -25.3880  -36.3440   23.8700 C   0  0  0  0  0  3  0  0  0  0  0  0
  -27.5200  -37.1980   24.7360 C   0  0  0  0  0  1  0  0  0  0  0  0
  -26.4390  -37.3710   23.7720 N   0  0  0  0  0  0  0  0  0  0  0  0
  -26.0420  -38.2950   23.9030 H   0  0  0  0  0  0  0  0  0  0  0  0
  -26.2980  -31.7300   25.1680 C   0  0  1  0  0  0  0  0  0  0  0  0
  -25.1960  -31.5280   26.2440 C   0  0  0  0  0  1  0  0  0  0  0  0
  -26.8570  -30.3390   24.7610 C   0  0  0  0  0  1  0  0  0  0  0  0
  -27.4580  -32.5100   25.8340 C   0  0  0  0  0  1  0  0  0  0  0  0
  2  1  1  0
  2  3  1  0
  4  3  1  0
  4  5  1  0
  5  6  1  0
  6  7  1  0
  7  9  1  0
  7 18  1  0
  8  6  2  0
 10 18  1  0
 11 16  1  0
 12 13  1  0
 12 11  1  0
 14 13  1  0
 14 23  1  0
 14 15  1  0
 16 10  1  0
 16 15  1  0
 17 10  2  0
 18 19  1  0
 20 21  2  0
 21 40  1  0
 22 21  1  0
 22 25  1  0
 23 20  1  0
 23 24  1  0
 24 22  2  0
 25 26  1  0
 26 27  2  0
 28 31  1  0
 28 27  1  0
 29 28  2  0
 30 29  1  0
 30 25  2  0
 31 32  1  0
 32 33  1  0
 33 34  2  0
 35 34  1  0
 35 39  1  0
 36 35  2  0
 37 32  2  0
 37 36  1  0
 38 37  1  0
 40 41  1  0
 41 44  1  0
 41 43  1  0
 42 40  2  0
 45 46  1  0
 45 20  1  0
 47 45  1  0
 48  1  1  0
 48 50  1  0
 49 53  1  0
 50 52  1  0
 50 49  1  0
 51 49  2  0
 53 54  1  0
 54 56  1  0
 55 66  2  0
 56 61  1  0
 57 65  1  0
 57 67  1  0
 58 64  1  0
 58 60  1  0
 59 65  1  0
 60 61  2  0
 60 59  1  0
 62 56  2  0
 63 62  1  0
 63 58  2  0
 64 57  1  0
 65 55  1  0
 67 69  2  0
 68 67  1  0
 70 68  1  0
 71 80  2  0
 71 76  1  0
 72 68  1  0
 72 76  1  0
 73 72  1  0
 74 75  1  0
 74 73  1  0
 75 71  1  0
 76 77  2  0
 77 78  1  0
 79 78  2  0
 80 79  1  0
 81 55  1  0
 81 82  1  0
 81 91  1  0
 82 85  1  0
 83 87  1  0
 83 82  1  0
 84 83  2  0
 87 86  1  0
 89 87  1  0
 89 90  1  0
 89 88  1  0
 91 94  1  1
 91 92  1  0
 93 91  1  0
M  ISO  4  10 100  18 100  53 101  54 101
M  END
>  <TORSDO>  (17) 
F 24

>  <SCORE>  (17) 
-12.123

>  <name>  (17) 
16

>  <ligand_id>  (17) 
16

>  <original_smiles>  (17) 
[H]c1c([H])c([H])c2c(c1[H])C([H])([H])C([H])([H])C([H])([H])C2([H])N([H])C(=O)C1([H])N(C(=O)C([H])(N([H])C(=O)C([H])(N([H])C([H])([H])[H])C([H])([H])[H])C(C([H])([H])[H])(C([H])([H])[H])C([H])([H])[H])C([H])([H])c2c([H])c(OC([H])([H])C(=O)N([H])C([H])([H])C([H])([H])C([H])([H])C([H])([H])C([H])([H])C([H])([H])C(=O)N([H])N([H])C(=O)N3C([H])([H])C([H])([H])C([H])([H])C([H])(n4nc(-c5c([H])c([H])c(Oc6c([H])c([H])c(F)c([H])c6F)c([H])c5[H])c(C(=O)N([H])[H])c4N([H])[H])C3([H])[H])c([H])c([H])c2C1([H])[H]

>  <smiles>  (17) 
[H]c1c([H])c([H])c2c(c1[H])C([H])([H])C([H])([H])C([H])([H])C2([H])N([H])C(=O)C1([H])N(C(=O)C([H])(N([H])C(=O)C([H])(N([H])C([H])([H])[H])C([H])([H])[H])C(C([H])([H])[H])(C([H])([H])[H])C([H])([H])[H])C([H])([H])c2c([H])c(OC([H])([H])C(=O)N([H])C([H])([H])C([H])([H])C([H])([H])C([H])([H])C([H])([H])C([H])([H])C(=O)N([H])N([H])C(=O)N3C([H])([H])C([H])([H])C([H])([H])C([H])(n4nc(-c5c([H])c([H])c(Oc6c([H])c([H])c(F)c([H])c6F)c([H])c5[H])c(C(=O)N([H])[H])c4N([H])[H])C3([H])[H])c([H])c([H])c2C1([H])[H]

$$$$
17:0:0
     RDKit          3D

 81 85  0  0  1  0  0  0  0  0999 V2000
  -28.1090  -24.6470   20.3000 O   0  0  0  0  0  1  0  0  0  0  0  0
  -24.7100  -31.7810   23.1610 C   0  0  0  0  0  0  0  0  0  0  0  0
  -27.2070  -26.1440   20.2640 C   0  0  0  0  0  0  0  0  0  0  0  0
  -23.5560  -30.3680   21.5220 C   0  0  0  0  0  3  0  0  0  0  0  0
  -25.0090  -28.5810   20.1690 C   0  0  0  0  0  0  0  0  0  0  0  0
  -26.1560  -30.3130   21.5020 C   0  0  0  0  0  2  0  0  0  0  0  0
  -26.2110  -28.8120   20.8490 C   0  0  0  0  0  0  0  0  0  0  0  0
  -27.2590  -27.6460   20.8460 C   0  0  0  0  0  3  0  0  0  0  0  0
  -25.9680  -26.2870   19.5230 C   0  0  0  0  0  3  0  0  0  0  0  0
  -24.9660  -27.3480   19.4800 C   0  0  0  0  0  3  0  0  0  0  0  0
  -23.8360  -29.6140   20.1780 C   0  0  0  0  0  2  0  0  0  0  0  0
  -24.8390  -30.8700   22.1140 N   0  0  0  0  0  0  0  0  0  0  0  0
  -23.6010  -32.1150   23.6230 O   0  0  0  0  0  0  0  0  0  0  0  0
  -22.7620  -29.4580   22.5040 C   0  0  0  0  0  0  0  0  0  0  0  0
  -21.4220  -29.3560   22.3730 N   0  0  0  0  0  0  0  0  0  0  0  0
  -23.3780  -28.8290   23.3670 O   0  0  0  0  0  0  0  0  0  0  0  0
  -20.9670  -29.9120   21.6630 H   0  0  0  0  0  0  0  0  0  0  0  0
  -17.9970  -28.2130   22.9010 C   0  0  0  0  0  0  0  0  0  0  0  0
  -20.5670  -28.4380   23.1430 C   0  0  0  0  0  3  0  0  0  0  0  0
  -20.6330  -27.0060   22.5600 C   0  0  0  0  0  2  0  0  0  0  0  0
  -19.5210  -26.7160   21.5460 C   0  0  0  0  0  2  0  0  0  0  0  0
  -18.1460  -26.8740   22.1990 C   0  0  0  0  0  2  0  0  0  0  0  0
  -19.1320  -28.9550   23.3290 C   0  0  0  0  0  0  0  0  0  0  0  0
  -18.9320  -30.2040   23.9560 C   0  0  0  0  0  3  0  0  0  0  0  0
  -17.6350  -30.7130   24.1530 C   0  0  0  0  0  3  0  0  0  0  0  0
  -16.5160  -29.9710   23.7350 C   0  0  0  0  0  3  0  0  0  0  0  0
  -16.6980  -28.7220   23.1160 C   0  0  0  0  0  3  0  0  0  0  0  0
  -25.9400  -32.4590   23.8420 C   0  0  0  0  0  3  0  0  0  0  0  0
  -25.5980  -33.8650   24.1720 N   0  0  0  0  0  0  0  0  0  0  0  0
  -25.9200  -34.9450   23.4450 C   0  0  0  0  0  0  0  0  0  0  0  0
  -26.5760  -34.8640   22.4040 O   0  0  0  0  0  0  0  0  0  0  0  0
  -25.0070  -33.9990   24.9800 H   0  0  0  0  0  0  0  0  0  0  0  0
  -24.1680  -36.7480   23.1980 C   0  0  0  0  0  1  0  0  0  0  0  0
  -25.4480  -36.3330   23.9420 C   0  0  0  0  0  3  0  0  0  0  0  0
  -27.6060  -37.2470   24.6880 C   0  0  0  0  0  1  0  0  0  0  0  0
  -26.4650  -37.3980   23.7880 N   0  0  0  0  0  0  0  0  0  0  0  0
  -26.0550  -38.3150   23.9480 H   0  0  0  0  0  0  0  0  0  0  0  0
  -26.3960  -31.7200   25.1620 C   0  0  1  0  0  0  0  0  0  0  0  0
  -25.2580  -31.5140   26.1910 C   0  0  0  0  0  1  0  0  0  0  0  0
  -26.9880  -30.3300   24.8490 C   0  0  0  0  0  1  0  0  0  0  0  0
  -27.5230  -32.5250   25.8520 C   0  0  0  0  0  1  0  0  0  0  0  0
  -28.1400  -22.5480   20.1630 C   0  0  0  0  0 15  0  0  0  0  0  0
  -29.1420  -20.4180   20.2160 C   0  0  0  0  0 15  0  0  0  0  0  0
  -29.9010  -16.6470   20.0860 C   0  0  0  0  0  0  0  0  0  0  0  0
  -30.2300  -13.8900   19.2940 C   0  0  0  0  0  2  0  0  0  0  0  0
  -29.4480  -13.0530   18.1990 C   0  0  0  0  0  2  0  0  0  0  0  0
  -28.1340  -12.4820   18.7300 C   0  0  0  0  0  2  0  0  0  0  0  0
  -27.5010  -13.5140   19.6750 C   0  0  0  0  0  3  0  0  0  0  0  0
  -28.4750  -14.2100   20.6950 C   0  0  0  0  0  2  0  0  0  0  0  0
  -29.4550  -15.1290   19.9600 N   0  0  0  0  0  0  0  0  0  0  0  0
  -31.1430  -16.3980   20.0040 O   0  0  0  0  0  0  0  0  0  0  0  0
  -29.2570  -18.3100   20.1340 N   0  0  0  0  0  2  0  0  0  0  0  0
  -30.2580  -18.4710   20.1320 H   0  0  0  0  0  0  0  0  0  0  0  0
  -25.1600  -13.9200   20.5080 C   0  0  0  0  0  0  0  0  0  0  0  0
  -24.1280  -13.1120   20.8810 C   0  0  0  0  0  0  0  0  0  0  0  0
  -24.6260  -11.7720   20.8220 C   0  0  0  0  0  0  0  0  0  0  0  0
  -26.2240  -13.0860   20.2420 N   0  0  0  0  0  0  0  0  0  0  0  0
  -25.9190  -11.7780   20.4820 N   0  0  0  0  0  0  0  0  0  0  0  0
  -23.9140  -10.4950   21.0120 C   0  0  0  0  0  0  0  0  0  0  0  0
  -24.3570   -9.5290   21.9420 C   0  0  0  0  0  3  0  0  0  0  0  0
  -23.6350   -8.3280   22.1300 C   0  0  0  0  0  3  0  0  0  0  0  0
  -22.4560   -8.0830   21.3870 C   0  0  0  0  0  0  0  0  0  0  0  0
  -22.0290   -9.0390   20.4470 C   0  0  0  0  0  3  0  0  0  0  0  0
  -22.7510  -10.2310   20.2590 C   0  0  0  0  0  3  0  0  0  0  0  0
  -21.7070   -6.9350   21.4820 O   0  0  0  0  0  0  0  0  0  0  0  0
  -21.6700   -6.1910   22.6350 C   0  0  0  0  0  0  0  0  0  0  0  0
  -21.2140   -6.7320   23.8560 C   0  0  0  0  0  3  0  0  0  0  0  0
  -21.1260   -5.9140   25.0000 C   0  0  0  0  0  3  0  0  0  0  0  0
  -21.4850   -4.5540   24.9250 C   0  0  0  0  0  0  0  0  0  0  0  0
  -21.9340   -4.0110   23.7070 C   0  0  0  0  0  3  0  0  0  0  0  0
  -22.0220   -4.8270   22.5660 C   0  0  0  0  0  0  0  0  0  0  0  0
  -22.4340   -4.2930   21.3900 F   0  0  0  0  0  0  0  0  0  0  0  0
  -21.3950   -3.7660   26.0220 F   0  0  0  0  0  0  0  0  0  0  0  0
  -22.7270  -13.5620   21.1730 C   0  0  0  0  0  0  0  0  0  0  0  0
  -22.0260  -12.8570   22.0520 N   0  0  0  0  0  0  0  0  0  0  0  0
  -22.2670  -14.5820   20.6590 O   0  0  0  0  0  0  0  0  0  0  0  0
  -22.4140  -12.0340   22.4890 H   0  0  0  0  0  0  0  0  0  0  0  0
  -21.0880  -13.1430   22.2910 H   0  0  0  0  0  0  0  0  0  0  0  0
  -25.2790  -15.2960   20.3350 N   0  0  0  0  0  0  0  0  0  0  0  0
  -24.4980  -15.9290   20.4650 H   0  0  0  0  0  0  0  0  0  0  0  0
  -26.1180  -15.7610   20.0090 H   0  0  0  0  0  0  0  0  0  0  0  0
  2 13  2  0
  3  1  1  0
  3  8  1  0
  4 12  1  0
  4 14  1  0
  5 11  1  0
  5  7  1  0
  6 12  1  0
  7  6  1  0
  8  7  2  0
  9  3  2  0
 10  9  1  0
 10  5  2  0
 11  4  1  0
 12  2  1  0
 14 16  2  0
 15 14  1  0
 17 15  1  0
 18 27  2  0
 18 23  1  0
 19 15  1  0
 19 23  1  0
 20 19  1  0
 21 22  1  0
 21 20  1  0
 22 18  1  0
 23 24  2  0
 24 25  1  0
 26 25  2  0
 27 26  1  0
 28  2  1  0
 28 29  1  0
 28 38  1  0
 29 32  1  0
 30 34  1  0
 30 29  1  0
 31 30  2  0
 34 33  1  0
 36 34  1  0
 36 37  1  0
 36 35  1  0
 38 41  1  1
 38 39  1  0
 40 38  1  0
 44 52  1  0
 45 50  1  0
 46 47  1  0
 46 45  1  0
 48 47  1  0
 48 57  1  0
 48 49  1  0
 50 44  1  0
 50 49  1  0
 51 44  2  0
 53 52  1  0
 54 55  2  0
 55 74  1  0
 56 55  1  0
 56 59  1  0
 57 58  1  0
 57 54  1  0
 58 56  2  0
 59 60  1  0
 60 61  2  0
 62 65  1  0
 62 61  1  0
 63 62  2  0
 64 63  1  0
 64 59  2  0
 65 66  1  0
 66 67  1  0
 67 68  2  0
 69 68  1  0
 69 73  1  0
 70 69  2  0
 71 66  2  0
 71 70  1  0
 72 71  1  0
 74 75  1  0
 75 78  1  0
 75 77  1  0
 76 74  2  0
 79 80  1  0
 79 54  1  0
 81 79  1  0
M  ISO  4   1 101  42 101  44 100  52 100
M  END
>  <TORSDO>  (18) 
F 17

>  <SCORE>  (18) 
-16.141

>  <name>  (18) 
17

>  <ligand_id>  (18) 
17

>  <original_smiles>  (18) 
[H]c1c([H])c([H])c2c(c1[H])C([H])([H])C([H])([H])C([H])([H])C2([H])N([H])C(=O)C1([H])N(C(=O)C([H])(N([H])C(=O)C([H])(N([H])C([H])([H])[H])C([H])([H])[H])C(C([H])([H])[H])(C([H])([H])[H])C([H])([H])[H])C([H])([H])c2c([H])c(OC([H])([H])C([H])([H])N([H])C(=O)N3C([H])([H])C([H])([H])C([H])([H])C([H])(n4nc(-c5c([H])c([H])c(Oc6c([H])c([H])c(F)c([H])c6F)c([H])c5[H])c(C(=O)N([H])[H])c4N([H])[H])C3([H])[H])c([H])c([H])c2C1([H])[H]

>  <smiles>  (18) 
[H]c1c([H])c([H])c2c(c1[H])C([H])([H])C([H])([H])C([H])([H])C2([H])N([H])C(=O)C1([H])N(C(=O)C([H])(N([H])C(=O)C([H])(N([H])C([H])([H])[H])C([H])([H])[H])C(C([H])([H])[H])(C([H])([H])[H])C([H])([H])[H])C([H])([H])c2c([H])c(OC([H])([H])C([H])([H])N([H])C(=O)N3C([H])([H])C([H])([H])C([H])([H])C([H])(n4nc(-c5c([H])c([H])c(Oc6c([H])c([H])c(F)c([H])c6F)c([H])c5[H])c(C(=O)N([H])[H])c4N([H])[H])C3([H])[H])c([H])c([H])c2C1([H])[H]

$$$$
18:0:0
     RDKit          3D

 90 97  0  0  1  0  0  0  0  0999 V2000
  -27.5220  -21.9990   18.7630 C   0  0  0  0  0  2  0  0  0  0  0  0
  -29.0810  -20.2440   19.5670 C   0  0  0  0  0  0  0  0  0  0  0  0
  -27.5160  -21.4090   21.1540 C   0  0  0  0  0  1  0  0  0  0  0  0
  -28.1900  -21.2470   19.8560 N   0  0  0  0  0  0  0  0  0  0  0  0
  -29.4520  -20.0380   18.4090 O   0  0  0  0  0  0  0  0  0  0  0  0
  -29.6980  -19.3210   20.6520 C   0  0  0  0  0  2  0  0  0  0  0  0
  -29.6680  -17.7970   20.3080 C   0  0  0  0  0  2  0  0  0  0  0  0
  -30.7130  -16.9170   21.0570 C   0  0  0  0  0  2  0  0  0  0  0  0
  -31.1720  -14.5430   20.1980 C   0  0  0  0  0  0  0  0  0  0  0  0
  -30.8730  -12.3710   19.0420 C   0  0  0  0  0  2  0  0  0  0  0  0
  -29.9170  -12.5630   17.8460 C   0  0  0  0  0  2  0  0  0  0  0  0
  -28.4420  -12.4700   18.2880 C   0  0  0  0  0  2  0  0  0  0  0  0
  -28.1410  -13.3430   19.5320 C   0  0  0  0  0  3  0  0  0  0  0  0
  -29.1850  -13.0690   20.6360 C   0  0  0  0  0  2  0  0  0  0  0  0
  -30.5160  -13.3570   20.0730 N   0  0  0  0  0  0  0  0  0  0  0  0
  -32.2540  -14.7760   19.6500 O   0  0  0  0  0  0  0  0  0  0  0  0
  -30.4750  -15.4740   20.8840 N   0  0  0  0  0  0  0  0  0  0  0  0
  -29.6330  -15.1230   21.3150 H   0  0  0  0  0  0  0  0  0  0  0  0
  -25.7770  -14.0630   20.2560 C   0  0  0  0  0  0  0  0  0  0  0  0
  -24.6840  -13.3420   20.6540 C   0  0  0  0  0  0  0  0  0  0  0  0
  -25.0870  -11.9710   20.6330 C   0  0  0  0  0  0  0  0  0  0  0  0
  -26.7820  -13.1330   20.0240 N   0  0  0  0  0  0  0  0  0  0  0  0
  -26.3690  -11.8710   20.3060 N   0  0  0  0  0  0  0  0  0  0  0  0
  -24.3120  -10.7460   20.8540 C   0  0  0  0  0  0  0  0  0  0  0  0
  -24.6950   -9.7970   21.8290 C   0  0  0  0  0  3  0  0  0  0  0  0
  -23.9250   -8.6310   22.0310 C   0  0  0  0  0  3  0  0  0  0  0  0
  -22.7610   -8.4060   21.2600 C   0  0  0  0  0  0  0  0  0  0  0  0
  -22.3960   -9.3410   20.2770 C   0  0  0  0  0  3  0  0  0  0  0  0
  -23.1640  -10.4990   20.0730 C   0  0  0  0  0  3  0  0  0  0  0  0
  -21.9640   -7.2940   21.3740 O   0  0  0  0  0  0  0  0  0  0  0  0
  -21.8380   -6.6190   22.5610 C   0  0  0  0  0  0  0  0  0  0  0  0
  -21.3510   -7.2490   23.7270 C   0  0  0  0  0  3  0  0  0  0  0  0
  -21.1660   -6.4970   24.9070 C   0  0  0  0  0  3  0  0  0  0  0  0
  -21.4600   -5.1210   24.9160 C   0  0  0  0  0  0  0  0  0  0  0  0
  -21.9350   -4.4910   23.7530 C   0  0  0  0  0  3  0  0  0  0  0  0
  -22.1210   -5.2390   22.5780 C   0  0  0  0  0  0  0  0  0  0  0  0
  -22.5620   -4.6230   21.4540 F   0  0  0  0  0  0  0  0  0  0  0  0
  -21.2730   -4.3980   26.0460 F   0  0  0  0  0  0  0  0  0  0  0  0
  -23.3150  -13.8820   20.9380 C   0  0  0  0  0  0  0  0  0  0  0  0
  -22.5730  -13.2380   21.8330 N   0  0  0  0  0  0  0  0  0  0  0  0
  -22.9110  -14.9150   20.4060 O   0  0  0  0  0  0  0  0  0  0  0  0
  -22.9080  -12.4010   22.2870 H   0  0  0  0  0  0  0  0  0  0  0  0
  -21.6580  -13.5930   22.0630 H   0  0  0  0  0  0  0  0  0  0  0  0
  -25.9940  -15.4230   20.0640 N   0  0  0  0  0  0  0  0  0  0  0  0
  -25.2450  -16.0970   20.1740 H   0  0  0  0  0  0  0  0  0  0  0  0
  -26.8530  -15.8290   19.7180 H   0  0  0  0  0  0  0  0  0  0  0  0
  -27.3460  -23.5330   18.9400 C   0  0  0  0  0  2  0  0  0  0  0  0
  -28.6190  -24.3410   19.2920 C   0  0  0  0  0  2  0  0  0  0  0  0
  -28.6280  -25.8180   18.7900 C   0  0  0  0  0  2  0  0  0  0  0  0
  -28.4250  -26.8430   19.7810 O   0  0  0  0  0  0  0  0  0  0  0  0
  -24.6230  -31.8840   23.1040 C   0  0  0  0  0  0  0  0  0  0  0  0
  -27.2370  -27.5540   19.8100 C   0  0  0  0  0  0  0  0  0  0  0  0
  -23.3960  -30.5290   21.4400 C   0  0  0  0  0  3  0  0  0  0  0  0
  -24.8300  -29.0480   19.9330 C   0  0  0  0  0  0  0  0  0  0  0  0
  -25.9170  -30.9060   21.2070 C   0  0  0  0  0  2  0  0  0  0  0  0
  -25.9940  -29.5560   20.5190 C   0  0  0  0  0  0  0  0  0  0  0  0
  -27.1980  -28.8110   20.4620 C   0  0  0  0  0  3  0  0  0  0  0  0
  -26.0470  -27.0640   19.2270 C   0  0  0  0  0  3  0  0  0  0  0  0
  -24.8510  -27.7990   19.2870 C   0  0  0  0  0  3  0  0  0  0  0  0
  -23.5810  -29.8950   20.0340 C   0  0  0  0  0  2  0  0  0  0  0  0
  -24.6650  -31.1210   21.9740 N   0  0  0  0  0  0  0  0  0  0  0  0
  -23.5510  -32.1320   23.6730 O   0  0  0  0  0  0  0  0  0  0  0  0
  -22.7750  -29.4690   22.3780 C   0  0  0  0  0  0  0  0  0  0  0  0
  -21.4520  -29.2640   22.2560 N   0  0  0  0  0  0  0  0  0  0  0  0
  -23.4770  -28.8390   23.1710 O   0  0  0  0  0  0  0  0  0  0  0  0
  -20.9440  -29.8200   21.5840 H   0  0  0  0  0  0  0  0  0  0  0  0
  -18.1110  -27.9850   22.7390 C   0  0  0  0  0  0  0  0  0  0  0  0
  -20.6630  -28.2930   23.0120 C   0  0  0  0  0  3  0  0  0  0  0  0
  -20.7970  -26.8810   22.4030 C   0  0  0  0  0  2  0  0  0  0  0  0
  -19.6980  -26.5560   21.3830 C   0  0  0  0  0  2  0  0  0  0  0  0
  -18.3170  -26.6550   22.0370 C   0  0  0  0  0  2  0  0  0  0  0  0
  -19.2140  -28.7620   23.1860 C   0  0  0  0  0  0  0  0  0  0  0  0
  -18.9680  -30.0080   23.8030 C   0  0  0  0  0  3  0  0  0  0  0  0
  -17.6540  -30.4740   23.9830 C   0  0  0  0  0  3  0  0  0  0  0  0
  -16.5660  -29.6920   23.5540 C   0  0  0  0  0  3  0  0  0  0  0  0
  -16.7950  -28.4500   22.9370 C   0  0  0  0  0  3  0  0  0  0  0  0
  -25.9180  -32.5040   23.7140 C   0  0  0  0  0  3  0  0  0  0  0  0
  -25.6050  -33.8890   24.0930 N   0  0  0  0  0  0  0  0  0  0  0  0
  -25.9200  -34.9670   23.3640 C   0  0  0  0  0  0  0  0  0  0  0  0
  -26.5790  -34.9030   22.3230 O   0  0  0  0  0  0  0  0  0  0  0  0
  -25.0170  -34.0130   24.9040 H   0  0  0  0  0  0  0  0  0  0  0  0
  -24.1800  -36.7590   23.0820 C   0  0  0  0  0  1  0  0  0  0  0  0
  -25.4280  -36.3350   23.8720 C   0  0  0  0  0  3  0  0  0  0  0  0
  -27.5590  -37.2050   24.7260 C   0  0  0  0  0  1  0  0  0  0  0  0
  -26.4530  -37.3970   23.7910 N   0  0  0  0  0  0  0  0  0  0  0  0
  -26.0420  -38.3080   23.9700 H   0  0  0  0  0  0  0  0  0  0  0  0
  -26.4690  -31.6970   24.9520 C   0  0  1  0  0  0  0  0  0  0  0  0
  -25.4040  -31.4130   26.0350 C   0  0  0  0  0  1  0  0  0  0  0  0
  -27.0530  -30.3390   24.4980 C   0  0  0  0  0  1  0  0  0  0  0  0
  -27.6250  -32.4820   25.6150 C   0  0  0  0  0  1  0  0  0  0  0  0
  1 47  1  0
  1  4  1  0
  2  4  1  0
  2  6  1  0
  4  3  1  0
  5  2  2  0
  7  6  1  0
  7  8  1  0
  9 17  1  0
 10 15  1  0
 11 12  1  0
 11 10  1  0
 13 12  1  0
 13 22  1  0
 13 14  1  0
 15  9  1  0
 15 14  1  0
 16  9  2  0
 17  8  1  0
 17 18  1  0
 19 20  2  0
 20 39  1  0
 21 20  1  0
 21 24  1  0
 22 19  1  0
 22 23  1  0
 23 21  2  0
 24 25  1  0
 25 26  2  0
 27 30  1  0
 27 26  1  0
 28 27  2  0
 29 28  1  0
 29 24  2  0
 30 31  1  0
 31 36  2  0
 31 32  1  0
 32 33  2  0
 33 34  1  0
 34 38  1  0
 35 34  2  0
 36 35  1  0
 37 36  1  0
 39 40  1  0
 40 43  1  0
 40 42  1  0
 41 39  2  0
 44 45  1  0
 44 19  1  0
 46 44  1  0
 47 48  1  0
 49 48  1  0
 49 50  1  0
 50 52  1  0
 51 62  2  0
 52 57  1  0
 53 61  1  0
 53 63  1  0
 54 60  1  0
 54 56  1  0
 55 61  1  0
 56 55  1  0
 57 56  2  0
 58 59  1  0
 58 52  2  0
 59 54  2  0
 60 53  1  0
 61 51  1  0
 63 65  2  0
 64 63  1  0
 66 64  1  0
 67 76  2  0
 67 72  1  0
 68 64  1  0
 68 72  1  0
 69 68  1  0
 70 71  1  0
 70 69  1  0
 71 67  1  0
 72 73  2  0
 73 74  1  0
 75 74  2  0
 76 75  1  0
 77 51  1  0
 77 78  1  0
 77 87  1  0
 78 81  1  0
 79 83  1  0
 79 78  1  0
 80 79  2  0
 83 82  1  0
 85 83  1  0
 85 86  1  0
 85 84  1  0
 87 90  1  1
 87 88  1  0
 89 87  1  0
M  ISO  4   9 100  17 100  49 101  50 101
M  END
>  <TORSDO>  (19) 
F 23

>  <SCORE>  (19) 
-11.952

>  <name>  (19) 
18

>  <ligand_id>  (19) 
18

>  <original_smiles>  (19) 
[H]c1c([H])c([H])c2c(c1[H])C([H])([H])C([H])([H])C([H])([H])C2([H])N([H])C(=O)C1([H])N(C(=O)C([H])(N([H])C(=O)C([H])(N([H])C([H])([H])[H])C([H])([H])[H])C(C([H])([H])[H])(C([H])([H])[H])C([H])([H])[H])C([H])([H])c2c([H])c(OC([H])([H])C([H])([H])C([H])([H])C([H])([H])N(C(=O)C([H])([H])C([H])([H])C([H])([H])N([H])C(=O)N3C([H])([H])C([H])([H])C([H])([H])C([H])(n4nc(-c5c([H])c([H])c(Oc6c([H])c([H])c(F)c([H])c6F)c([H])c5[H])c(C(=O)N([H])[H])c4N([H])[H])C3([H])[H])C([H])([H])[H])c([H])c([H])c2C1([H])[H]

>  <smiles>  (19) 
[H]c1c([H])c([H])c2c(c1[H])C([H])([H])C([H])([H])C([H])([H])C2([H])N([H])C(=O)C1([H])N(C(=O)C([H])(N([H])C(=O)C([H])(N([H])C([H])([H])[H])C([H])([H])[H])C(C([H])([H])[H])(C([H])([H])[H])C([H])([H])[H])C([H])([H])c2c([H])c(OC([H])([H])C([H])([H])C([H])([H])C([H])([H])N(C(=O)C([H])([H])C([H])([H])C([H])([H])N([H])C(=O)N3C([H])([H])C([H])([H])C([H])([H])C([H])(n4nc(-c5c([H])c([H])c(Oc6c([H])c([H])c(F)c([H])c6F)c([H])c5[H])c(C(=O)N([H])[H])c4N([H])[H])C3([H])[H])C([H])([H])[H])c([H])c([H])c2C1([H])[H]

$$$$
19:0:0
     RDKit          3D

 90 97  0  0  1  0  0  0  0  0999 V2000
  -29.8580  -22.5300   22.1900 C   0  0  0  0  0  2  0  0  0  0  0  0
  -30.6430  -20.1720   22.3250 C   0  0  0  0  0  0  0  0  0  0  0  0
  -29.6710  -21.0920   22.3410 N   0  0  0  0  0  0  0  0  0  0  0  0
  -31.8130  -20.4490   22.0590 O   0  0  0  0  0  0  0  0  0  0  0  0
  -28.7370  -20.7710   22.5670 H   0  0  0  0  0  0  0  0  0  0  0  0
  -30.2470  -18.7370   22.7210 C   0  0  0  0  0  2  0  0  0  0  0  0
  -30.5930  -17.6310   21.6700 C   0  0  0  0  0  2  0  0  0  0  0  0
  -31.3300  -16.2700   21.8770 C   0  0  0  0  0  2  0  0  0  0  0  0
  -30.9800  -14.4060   20.2320 C   0  0  0  0  0  0  0  0  0  0  0  0
  -30.5280  -12.3590   18.9380 C   0  0  0  0  0  2  0  0  0  0  0  0
  -29.5420  -12.6010   17.7790 C   0  0  0  0  0  2  0  0  0  0  0  0
  -28.0840  -12.4920   18.2620 C   0  0  0  0  0  2  0  0  0  0  0  0
  -27.8170  -13.3190   19.5490 C   0  0  0  0  0  3  0  0  0  0  0  0
  -28.8980  -13.0320   20.6140 C   0  0  0  0  0  2  0  0  0  0  0  0
  -30.2210  -13.3040   20.0180 N   0  0  0  0  0  0  0  0  0  0  0  0
  -31.9810  -14.6860   19.5630 O   0  0  0  0  0  0  0  0  0  0  0  0
  -30.6030  -15.1470   21.2790 N   0  0  0  0  0  0  0  0  0  0  0  0
  -29.7610  -14.8450   21.7480 H   0  0  0  0  0  0  0  0  0  0  0  0
  -25.4570  -13.9880   20.3360 C   0  0  0  0  0  0  0  0  0  0  0  0
  -24.3830  -13.2410   20.7440 C   0  0  0  0  0  0  0  0  0  0  0  0
  -24.8090  -11.8790   20.6950 C   0  0  0  0  0  0  0  0  0  0  0  0
  -26.4720  -13.0820   20.0700 N   0  0  0  0  0  0  0  0  0  0  0  0
  -26.0860  -11.8070   20.3380 N   0  0  0  0  0  0  0  0  0  0  0  0
  -24.0600  -10.6330   20.9080 C   0  0  0  0  0  0  0  0  0  0  0  0
  -24.4980   -9.6590   21.8320 C   0  0  0  0  0  3  0  0  0  0  0  0
  -23.7510   -8.4780   22.0340 C   0  0  0  0  0  3  0  0  0  0  0  0
  -22.5520   -8.2640   21.3130 C   0  0  0  0  0  0  0  0  0  0  0  0
  -22.1330   -9.2260   20.3780 C   0  0  0  0  0  3  0  0  0  0  0  0
  -22.8810  -10.3980   20.1750 C   0  0  0  0  0  3  0  0  0  0  0  0
  -21.7770   -7.1350   21.4250 O   0  0  0  0  0  0  0  0  0  0  0  0
  -21.7370   -6.4020   22.5830 C   0  0  0  0  0  0  0  0  0  0  0  0
  -21.3670   -6.9790   23.8190 C   0  0  0  0  0  3  0  0  0  0  0  0
  -21.2710   -6.1730   24.9710 C   0  0  0  0  0  3  0  0  0  0  0  0
  -21.5320   -4.7920   24.8900 C   0  0  0  0  0  0  0  0  0  0  0  0
  -21.8950   -4.2160   23.6610 C   0  0  0  0  0  3  0  0  0  0  0  0
  -21.9930   -5.0180   22.5100 C   0  0  0  0  0  0  0  0  0  0  0  0
  -22.3210   -4.4540   21.3230 F   0  0  0  0  0  0  0  0  0  0  0  0
  -21.4330   -4.0170   25.9940 F   0  0  0  0  0  0  0  0  0  0  0  0
  -23.0080  -13.7510   21.0630 C   0  0  0  0  0  0  0  0  0  0  0  0
  -22.2970  -13.0810   21.9640 N   0  0  0  0  0  0  0  0  0  0  0  0
  -22.5730  -14.7780   20.5470 O   0  0  0  0  0  0  0  0  0  0  0  0
  -22.6650  -12.2510   22.4070 H   0  0  0  0  0  0  0  0  0  0  0  0
  -21.3720  -13.4010   22.2110 H   0  0  0  0  0  0  0  0  0  0  0  0
  -25.6460  -15.3550   20.1540 N   0  0  0  0  0  0  0  0  0  0  0  0
  -24.8960  -16.0250   20.2860 H   0  0  0  0  0  0  0  0  0  0  0  0
  -26.4950  -15.7780   19.7970 H   0  0  0  0  0  0  0  0  0  0  0  0
  -29.0560  -23.0920   21.0080 C   0  0  0  0  0  2  0  0  0  0  0  0
  -29.2310  -24.6190   20.9040 C   0  0  0  0  0  2  0  0  0  0  0  0
  -28.2500  -25.2890   19.9400 C   0  0  0  0  0  2  0  0  0  0  0  0
  -28.3420  -26.7110   20.1020 O   0  0  0  0  0  0  0  0  0  0  0  0
  -24.5900  -31.8980   23.2110 C   0  0  0  0  0  0  0  0  0  0  0  0
  -27.1670  -27.4360   20.0980 C   0  0  0  0  0  0  0  0  0  0  0  0
  -23.3570  -30.5020   21.5870 C   0  0  0  0  0  3  0  0  0  0  0  0
  -24.7820  -28.9580   20.1470 C   0  0  0  0  0  0  0  0  0  0  0  0
  -25.8840  -30.8410   21.3650 C   0  0  0  0  0  2  0  0  0  0  0  0
  -25.9510  -29.4710   20.7230 C   0  0  0  0  0  0  0  0  0  0  0  0
  -27.1450  -28.7150   20.7040 C   0  0  0  0  0  3  0  0  0  0  0  0
  -25.9820  -26.9520   19.4950 C   0  0  0  0  0  3  0  0  0  0  0  0
  -24.7900  -27.6950   19.5360 C   0  0  0  0  0  3  0  0  0  0  0  0
  -23.5470  -29.8250   20.2050 C   0  0  0  0  0  2  0  0  0  0  0  0
  -24.6300  -31.0930   22.1120 N   0  0  0  0  0  0  0  0  0  0  0  0
  -23.5170  -32.1780   23.7600 O   0  0  0  0  0  0  0  0  0  0  0  0
  -22.7150  -29.4800   22.5530 C   0  0  0  0  0  0  0  0  0  0  0  0
  -21.3900  -29.2980   22.4370 N   0  0  0  0  0  0  0  0  0  0  0  0
  -23.4060  -28.8580   23.3650 O   0  0  0  0  0  0  0  0  0  0  0  0
  -20.8910  -29.8550   21.7580 H   0  0  0  0  0  0  0  0  0  0  0  0
  -18.0220  -28.1020   22.9570 C   0  0  0  0  0  0  0  0  0  0  0  0
  -20.5800  -28.3650   23.2200 C   0  0  0  0  0  3  0  0  0  0  0  0
  -20.6830  -26.9280   22.6560 C   0  0  0  0  0  2  0  0  0  0  0  0
  -19.5790  -26.5950   21.6480 C   0  0  0  0  0  2  0  0  0  0  0  0
  -18.1990  -26.7460   22.2940 C   0  0  0  0  0  2  0  0  0  0  0  0
  -19.1410  -28.8690   23.3770 C   0  0  0  0  0  0  0  0  0  0  0  0
  -18.9230  -30.1390   23.9540 C   0  0  0  0  0  3  0  0  0  0  0  0
  -17.6180  -30.6420   24.1170 C   0  0  0  0  0  3  0  0  0  0  0  0
  -16.5140  -29.8710   23.7130 C   0  0  0  0  0  3  0  0  0  0  0  0
  -16.7160  -28.6040   23.1380 C   0  0  0  0  0  3  0  0  0  0  0  0
  -25.8870  -32.5250   23.8110 C   0  0  0  0  0  3  0  0  0  0  0  0
  -25.5840  -33.9190   24.1570 N   0  0  0  0  0  0  0  0  0  0  0  0
  -25.9040  -34.9770   23.4000 C   0  0  0  0  0  0  0  0  0  0  0  0
  -26.5560  -34.8820   22.3560 O   0  0  0  0  0  0  0  0  0  0  0  0
  -25.0030  -34.0680   24.9690 H   0  0  0  0  0  0  0  0  0  0  0  0
  -24.1650  -36.7660   23.0840 C   0  0  0  0  0  1  0  0  0  0  0  0
  -25.4200  -36.3610   23.8730 C   0  0  0  0  0  3  0  0  0  0  0  0
  -27.5670  -37.2430   24.6730 C   0  0  0  0  0  1  0  0  0  0  0  0
  -26.4480  -37.4180   23.7520 N   0  0  0  0  0  0  0  0  0  0  0  0
  -26.0410  -38.3350   23.9130 H   0  0  0  0  0  0  0  0  0  0  0  0
  -26.4310  -31.7420   25.0690 C   0  0  1  0  0  0  0  0  0  0  0  0
  -25.3610  -31.4910   26.1560 C   0  0  0  0  0  1  0  0  0  0  0  0
  -27.0100  -30.3690   24.6520 C   0  0  0  0  0  1  0  0  0  0  0  0
  -27.5920  -32.5310   25.7180 C   0  0  0  0  0  1  0  0  0  0  0  0
  1  3  1  0
  2  3  1  0
  2  6  1  0
  3  5  1  0
  4  2  2  0
  7  8  1  0
  7  6  1  0
  9 17  1  0
 10 15  1  0
 11 12  1  0
 11 10  1  0
 13 12  1  0
 13 22  1  0
 13 14  1  0
 15  9  1  0
 15 14  1  0
 16  9  2  0
 17 18  1  0
 17  8  1  0
 19 20  2  0
 20 39  1  0
 21 20  1  0
 21 24  1  0
 22 19  1  0
 22 23  1  0
 23 21  2  0
 24 25  1  0
 25 26  2  0
 27 30  1  0
 27 26  1  0
 28 27  2  0
 29 28  1  0
 29 24  2  0
 30 31  1  0
 31 32  1  0
 32 33  2  0
 34 33  1  0
 34 38  1  0
 35 34  2  0
 36 31  2  0
 36 35  1  0
 37 36  1  0
 39 40  1  0
 40 43  1  0
 40 42  1  0
 41 39  2  0
 44 45  1  0
 44 19  1  0
 46 44  1  0
 47  1  1  0
 48 47  1  0
 49 50  1  0
 49 48  1  0
 51 62  2  0
 52 50  1  0
 52 57  1  0
 53 61  1  0
 53 63  1  0
 54 60  1  0
 54 56  1  0
 55 61  1  0
 56 55  1  0
 57 56  2  0
 58 59  1  0
 58 52  2  0
 59 54  2  0
 60 53  1  0
 61 51  1  0
 63 65  2  0
 64 63  1  0
 66 64  1  0
 67 76  2  0
 67 72  1  0
 68 64  1  0
 68 72  1  0
 69 68  1  0
 70 71  1  0
 70 69  1  0
 71 67  1  0
 72 73  2  0
 73 74  1  0
 75 74  2  0
 76 75  1  0
 77 51  1  0
 77 78  1  0
 77 87  1  0
 78 81  1  0
 79 83  1  0
 79 78  1  0
 80 79  2  0
 83 82  1  0
 85 83  1  0
 85 86  1  0
 85 84  1  0
 87 90  1  1
 87 88  1  0
 89 87  1  0
M  ISO  4   9 100  17 100  49 101  50 101
M  END
>  <TORSDO>  (20) 
F 23

>  <SCORE>  (20) 
-11.938

>  <name>  (20) 
19

>  <ligand_id>  (20) 
19

>  <original_smiles>  (20) 
[H]c1c([H])c([H])c2c(c1[H])C([H])([H])C([H])([H])C([H])([H])C2([H])N([H])C(=O)C1([H])N(C(=O)C([H])(N([H])C(=O)C([H])(N([H])C([H])([H])[H])C([H])([H])[H])C(C([H])([H])[H])(C([H])([H])[H])C([H])([H])[H])C([H])([H])c2c([H])c(OC([H])([H])C([H])([H])C([H])([H])C([H])([H])N([H])C(=O)C([H])([H])C([H])([H])C([H])([H])N([H])C(=O)N3C([H])([H])C([H])([H])C([H])([H])C([H])(n4nc(-c5c([H])c([H])c(Oc6c([H])c([H])c(F)c([H])c6F)c([H])c5[H])c(C(=O)N([H])[H])c4N([H])[H])C3([H])[H])c([H])c([H])c2C1([H])[H]

>  <smiles>  (20) 
[H]c1c([H])c([H])c2c(c1[H])C([H])([H])C([H])([H])C([H])([H])C2([H])N([H])C(=O)C1([H])N(C(=O)C([H])(N([H])C(=O)C([H])(N([H])C([H])([H])[H])C([H])([H])[H])C(C([H])([H])[H])(C([H])([H])[H])C([H])([H])[H])C([H])([H])c2c([H])c(OC([H])([H])C([H])([H])C([H])([H])C([H])([H])N([H])C(=O)C([H])([H])C([H])([H])C([H])([H])N([H])C(=O)N3C([H])([H])C([H])([H])C([H])([H])C([H])(n4nc(-c5c([H])c([H])c(Oc6c([H])c([H])c(F)c([H])c6F)c([H])c5[H])c(C(=O)N([H])[H])c4N([H])[H])C3([H])[H])c([H])c([H])c2C1([H])[H]

$$$$
20:0:0
     RDKit          3D

 93100  0  0  1  0  0  0  0  0999 V2000
  -31.8750  -23.6780   18.8280 C   0  0  0  0  0  2  0  0  0  0  0  0
  -29.9750  -25.0030   19.7420 C   0  0  0  0  0  0  0  0  0  0  0  0
  -30.5080  -24.1980   18.8130 N   0  0  0  0  0  0  0  0  0  0  0  0
  -30.5970  -25.3400   20.7530 O   0  0  0  0  0  0  0  0  0  0  0  0
  -29.9370  -23.9780   18.0060 H   0  0  0  0  0  0  0  0  0  0  0  0
  -28.5500  -25.5180   19.5000 C   0  0  0  0  0  2  0  0  0  0  0  0
  -28.4360  -26.8080   20.0960 O   0  0  0  0  0  0  0  0  0  0  0  0
  -24.6050  -31.8780   23.2230 C   0  0  0  0  0  0  0  0  0  0  0  0
  -27.2220  -27.4560   20.1010 C   0  0  0  0  0  0  0  0  0  0  0  0
  -23.3790  -30.4760   21.5950 C   0  0  0  0  0  3  0  0  0  0  0  0
  -24.8150  -28.9350   20.1560 C   0  0  0  0  0  0  0  0  0  0  0  0
  -25.8980  -30.8380   21.3670 C   0  0  0  0  0  2  0  0  0  0  0  0
  -25.9750  -29.4670   20.7300 C   0  0  0  0  0  0  0  0  0  0  0  0
  -27.1770  -28.7310   20.7040 C   0  0  0  0  0  3  0  0  0  0  0  0
  -26.0400  -26.9240   19.5330 C   0  0  0  0  0  3  0  0  0  0  0  0
  -24.8390  -27.6610   19.5610 C   0  0  0  0  0  3  0  0  0  0  0  0
  -23.5710  -29.7940   20.2140 C   0  0  0  0  0  2  0  0  0  0  0  0
  -24.6470  -31.0790   22.1200 N   0  0  0  0  0  0  0  0  0  0  0  0
  -23.5310  -32.1520   23.7750 O   0  0  0  0  0  0  0  0  0  0  0  0
  -22.7390  -29.4550   22.5620 C   0  0  0  0  0  0  0  0  0  0  0  0
  -21.4130  -29.2750   22.4460 N   0  0  0  0  0  0  0  0  0  0  0  0
  -23.4300  -28.8300   23.3700 O   0  0  0  0  0  0  0  0  0  0  0  0
  -20.9190  -29.8300   21.7630 H   0  0  0  0  0  0  0  0  0  0  0  0
  -18.0430  -28.0810   22.9620 C   0  0  0  0  0  0  0  0  0  0  0  0
  -20.6010  -28.3380   23.2230 C   0  0  0  0  0  3  0  0  0  0  0  0
  -20.7020  -26.9060   22.6500 C   0  0  0  0  0  2  0  0  0  0  0  0
  -19.5950  -26.5810   21.6410 C   0  0  0  0  0  2  0  0  0  0  0  0
  -18.2160  -26.7290   22.2900 C   0  0  0  0  0  2  0  0  0  0  0  0
  -19.1640  -28.8440   23.3860 C   0  0  0  0  0  0  0  0  0  0  0  0
  -18.9480  -30.1100   23.9710 C   0  0  0  0  0  3  0  0  0  0  0  0
  -17.6440  -30.6140   24.1400 C   0  0  0  0  0  3  0  0  0  0  0  0
  -16.5380  -29.8470   23.7330 C   0  0  0  0  0  3  0  0  0  0  0  0
  -16.7390  -28.5840   23.1500 C   0  0  0  0  0  3  0  0  0  0  0  0
  -25.9000  -32.5050   23.8300 C   0  0  0  0  0  3  0  0  0  0  0  0
  -25.5960  -33.9000   24.1750 N   0  0  0  0  0  0  0  0  0  0  0  0
  -25.9140  -34.9570   23.4160 C   0  0  0  0  0  0  0  0  0  0  0  0
  -26.5690  -34.8610   22.3730 O   0  0  0  0  0  0  0  0  0  0  0  0
  -25.0140  -34.0490   24.9870 H   0  0  0  0  0  0  0  0  0  0  0  0
  -24.1750  -36.7450   23.1000 C   0  0  0  0  0  1  0  0  0  0  0  0
  -25.4310  -36.3410   23.8880 C   0  0  0  0  0  3  0  0  0  0  0  0
  -27.5800  -37.2230   24.6840 C   0  0  0  0  0  1  0  0  0  0  0  0
  -26.4590  -37.3970   23.7640 N   0  0  0  0  0  0  0  0  0  0  0  0
  -26.0530  -38.3150   23.9290 H   0  0  0  0  0  0  0  0  0  0  0  0
  -26.4400  -31.7230   25.0890 C   0  0  1  0  0  0  0  0  0  0  0  0
  -25.3660  -31.4730   26.1740 C   0  0  0  0  0  1  0  0  0  0  0  0
  -27.0160  -30.3500   24.6700 C   0  0  0  0  0  1  0  0  0  0  0  0
  -27.6030  -32.5100   25.7370 C   0  0  0  0  0  1  0  0  0  0  0  0
  -32.0600  -22.5000   19.8050 C   0  0  0  0  0  2  0  0  0  0  0  0
  -31.1580  -21.2970   19.4900 C   0  0  0  0  0  2  0  0  0  0  0  0
  -31.3610  -20.1170   20.4550 C   0  0  0  0  0  2  0  0  0  0  0  0
  -30.4120  -18.9530   20.1240 C   0  0  0  0  0  2  0  0  0  0  0  0
  -30.5690  -17.7060   20.9990 C   0  0  0  0  0  0  0  0  0  0  0  0
  -29.8830  -16.6410   20.5770 N   0  0  0  0  0  0  0  0  0  0  0  0
  -31.2750  -17.7030   22.0100 O   0  0  0  0  0  0  0  0  0  0  0  0
  -29.3410  -16.6210   19.7220 H   0  0  0  0  0  0  0  0  0  0  0  0
  -30.6490  -14.4160   20.5500 C   0  0  0  0  0  0  0  0  0  0  0  0
  -30.3480  -12.2950   19.3470 C   0  0  0  0  0  2  0  0  0  0  0  0
  -29.4140  -12.5430   18.1430 C   0  0  0  0  0  2  0  0  0  0  0  0
  -27.9340  -12.4230   18.5560 C   0  0  0  0  0  2  0  0  0  0  0  0
  -27.5980  -13.2340   19.8360 C   0  0  0  0  0  3  0  0  0  0  0  0
  -28.6390  -12.9490   20.9450 C   0  0  0  0  0  2  0  0  0  0  0  0
  -29.9810  -13.2430   20.4080 N   0  0  0  0  0  0  0  0  0  0  0  0
  -31.7310  -14.6610   20.0040 O   0  0  0  0  0  0  0  0  0  0  0  0
  -29.9650  -15.3690   21.1940 N   0  0  0  0  0  0  0  0  0  0  0  0
  -29.0880  -15.1410   21.6380 H   0  0  0  0  0  0  0  0  0  0  0  0
  -25.1860  -13.8590   20.4900 C   0  0  0  0  0  0  0  0  0  0  0  0
  -24.1100  -13.0920   20.8540 C   0  0  0  0  0  0  0  0  0  0  0  0
  -24.5700  -11.7390   20.8470 C   0  0  0  0  0  0  0  0  0  0  0  0
  -26.2340  -12.9720   20.2910 N   0  0  0  0  0  0  0  0  0  0  0  0
  -25.8640  -11.6940   20.5600 N   0  0  0  0  0  0  0  0  0  0  0  0
  -23.8400  -10.4800   21.0430 C   0  0  0  0  0  0  0  0  0  0  0  0
  -24.2740   -9.5140   21.9770 C   0  0  0  0  0  3  0  0  0  0  0  0
  -23.5450   -8.3190   22.1610 C   0  0  0  0  0  3  0  0  0  0  0  0
  -22.3700   -8.0810   21.4100 C   0  0  0  0  0  0  0  0  0  0  0  0
  -21.9550   -9.0370   20.4640 C   0  0  0  0  0  3  0  0  0  0  0  0
  -22.6840  -10.2230   20.2770 C   0  0  0  0  0  3  0  0  0  0  0  0
  -21.6140   -6.9380   21.5020 O   0  0  0  0  0  0  0  0  0  0  0  0
  -21.5850   -6.1850   22.6480 C   0  0  0  0  0  0  0  0  0  0  0  0
  -21.1990   -6.7340   23.8900 C   0  0  0  0  0  3  0  0  0  0  0  0
  -21.1160   -5.9080   25.0290 C   0  0  0  0  0  3  0  0  0  0  0  0
  -21.4080   -4.5340   24.9270 C   0  0  0  0  0  0  0  0  0  0  0  0
  -21.7870   -3.9850   23.6900 C   0  0  0  0  0  3  0  0  0  0  0  0
  -21.8730   -4.8080   22.5530 C   0  0  0  0  0  0  0  0  0  0  0  0
  -22.2170   -4.2690   21.3580 F   0  0  0  0  0  0  0  0  0  0  0  0
  -21.3210   -3.7400   26.0190 F   0  0  0  0  0  0  0  0  0  0  0  0
  -22.7090  -13.5740   21.1010 C   0  0  0  0  0  0  0  0  0  0  0  0
  -21.9700  -12.8890   21.9660 N   0  0  0  0  0  0  0  0  0  0  0  0
  -22.2770  -14.5930   20.5630 O   0  0  0  0  0  0  0  0  0  0  0  0
  -22.3320  -12.0660   22.4240 H   0  0  0  0  0  0  0  0  0  0  0  0
  -21.0300  -13.1930   22.1770 H   0  0  0  0  0  0  0  0  0  0  0  0
  -25.3570  -15.2260   20.2960 N   0  0  0  0  0  0  0  0  0  0  0  0
  -24.5930  -15.8880   20.3790 H   0  0  0  0  0  0  0  0  0  0  0  0
  -26.2180  -15.6540   19.9820 H   0  0  0  0  0  0  0  0  0  0  0  0
  1 48  1  0
  2  4  2  0
  3  1  1  0
  3  2  1  0
  5  3  1  0
  6  2  1  0
  6  7  1  0
  7  9  1  0
  8 19  2  0
  9 14  1  0
 10 18  1  0
 10 20  1  0
 11 17  1  0
 11 13  1  0
 12 18  1  0
 13 12  1  0
 14 13  2  0
 15 16  1  0
 15  9  2  0
 16 11  2  0
 17 10  1  0
 18  8  1  0
 20 22  2  0
 21 20  1  0
 23 21  1  0
 24 33  2  0
 24 29  1  0
 25 21  1  0
 25 29  1  0
 26 25  1  0
 27 28  1  0
 27 26  1  0
 28 24  1  0
 29 30  2  0
 30 31  1  0
 32 31  2  0
 33 32  1  0
 34  8  1  0
 34 35  1  0
 34 44  1  0
 35 38  1  0
 36 40  1  0
 36 35  1  0
 37 36  2  0
 40 39  1  0
 42 40  1  0
 42 43  1  0
 42 41  1  0
 44 47  1  1
 44 45  1  0
 46 44  1  0
 49 48  1  0
 49 50  1  0
 51 50  1  0
 51 52  1  0
 52 54  2  0
 53 52  1  0
 53 64  1  0
 55 53  1  0
 56 64  1  0
 57 62  1  0
 58 59  1  0
 58 57  1  0
 60 59  1  0
 60 69  1  0
 60 61  1  0
 62 56  1  0
 62 61  1  0
 63 56  2  0
 64 65  1  0
 66 67  2  0
 67 86  1  0
 68 67  1  0
 68 71  1  0
 69 66  1  0
 69 70  1  0
 70 68  2  0
 71 72  1  0
 72 73  2  0
 74 77  1  0
 74 73  1  0
 75 74  2  0
 76 75  1  0
 76 71  2  0
 77 78  1  0
 78 79  1  0
 79 80  2  0
 81 80  1  0
 81 85  1  0
 82 81  2  0
 83 78  2  0
 83 82  1  0
 84 83  1  0
 86 87  1  0
 87 90  1  0
 87 89  1  0
 88 86  2  0
 91 92  1  0
 91 66  1  0
 93 91  1  0
M  ISO  4   6 101   7 101  56 100  64 100
M  END
>  <TORSDO>  (21) 
F 23

>  <SCORE>  (21) 
-12.680

>  <name>  (21) 
20

>  <ligand_id>  (21) 
20

>  <original_smiles>  (21) 
[H]c1c([H])c([H])c2c(c1[H])C([H])([H])C([H])([H])C([H])([H])C2([H])N([H])C(=O)C1([H])N(C(=O)C([H])(N([H])C(=O)C([H])(N([H])C([H])([H])[H])C([H])([H])[H])C(C([H])([H])[H])(C([H])([H])[H])C([H])([H])[H])C([H])([H])c2c([H])c(OC([H])([H])C(=O)N([H])C([H])([H])C([H])([H])C([H])([H])C([H])([H])C([H])([H])C(=O)N([H])N([H])C(=O)N3C([H])([H])C([H])([H])C([H])([H])C([H])(n4nc(-c5c([H])c([H])c(Oc6c([H])c([H])c(F)c([H])c6F)c([H])c5[H])c(C(=O)N([H])[H])c4N([H])[H])C3([H])[H])c([H])c([H])c2C1([H])[H]

>  <smiles>  (21) 
[H]c1c([H])c([H])c2c(c1[H])C([H])([H])C([H])([H])C([H])([H])C2([H])N([H])C(=O)C1([H])N(C(=O)C([H])(N([H])C(=O)C([H])(N([H])C([H])([H])[H])C([H])([H])[H])C(C([H])([H])[H])(C([H])([H])[H])C([H])([H])[H])C([H])([H])c2c([H])c(OC([H])([H])C(=O)N([H])C([H])([H])C([H])([H])C([H])([H])C([H])([H])C([H])([H])C(=O)N([H])N([H])C(=O)N3C([H])([H])C([H])([H])C([H])([H])C([H])(n4nc(-c5c([H])c([H])c(Oc6c([H])c([H])c(F)c([H])c6F)c([H])c5[H])c(C(=O)N([H])[H])c4N([H])[H])C3([H])[H])c([H])c([H])c2C1([H])[H]

$$$$
21:0:0
     RDKit          3D

 95103  0  0  1  0  0  0  0  0999 V2000
  -29.2350  -24.0830   20.3950 C   0  0  0  0  0  0  0  0  0  0  0  0
  -29.4640  -18.2510   19.5850 C   0  0  0  0  0  0  0  0  0  0  0  0
  -28.3030  -21.9800   19.2670 C   0  0  0  0  0  2  0  0  0  0  0  0
  -30.4300  -21.8500   20.4780 C   0  0  0  0  0  2  0  0  0  0  0  0
  -28.2210  -20.4260   19.5560 C   0  0  0  0  0  2  0  0  0  0  0  0
  -30.6540  -20.5540   19.6030 C   0  0  0  0  0  2  0  0  0  0  0  0
  -29.2960  -22.7300   20.0640 N   0  0  0  0  0  0  0  0  0  0  0  0
  -29.4910  -19.6450   19.5880 N   0  0  0  0  0  0  0  0  0  0  0  0
  -30.1490  -24.5960   21.0480 O   0  0  0  0  0  0  0  0  0  0  0  0
  -28.3840  -17.6690   19.4270 O   0  0  0  0  0  0  0  0  0  0  0  0
  -28.0330  -25.0370   19.9880 C   0  0  0  0  0  2  0  0  0  0  0  0
  -28.2030  -26.4860   20.3250 O   0  0  0  0  0  0  0  0  0  0  0  0
  -24.5480  -31.9430   23.3470 C   0  0  0  0  0  0  0  0  0  0  0  0
  -27.0900  -27.3470   20.2650 C   0  0  0  0  0  0  0  0  0  0  0  0
  -23.3160  -30.5510   21.7200 C   0  0  0  0  0  3  0  0  0  0  0  0
  -24.7400  -28.9900   20.2750 C   0  0  0  0  0  0  0  0  0  0  0  0
  -25.8580  -30.8410   21.5180 C   0  0  0  0  0  2  0  0  0  0  0  0
  -25.9170  -29.4630   20.8670 C   0  0  0  0  0  0  0  0  0  0  0  0
  -27.0940  -28.6540   20.8510 C   0  0  0  0  0  3  0  0  0  0  0  0
  -25.8900  -26.9360   19.6370 C   0  0  0  0  0  3  0  0  0  0  0  0
  -24.7310  -27.7360   19.6440 C   0  0  0  0  0  3  0  0  0  0  0  0
  -23.5100  -29.8710   20.3390 C   0  0  0  0  0  2  0  0  0  0  0  0
  -24.5930  -31.1320   22.2490 N   0  0  0  0  0  0  0  0  0  0  0  0
  -23.4730  -32.2330   23.8920 O   0  0  0  0  0  0  0  0  0  0  0  0
  -22.6560  -29.5420   22.6910 C   0  0  0  0  0  0  0  0  0  0  0  0
  -21.3380  -29.3280   22.5350 N   0  0  0  0  0  0  0  0  0  0  0  0
  -23.3280  -28.9550   23.5430 O   0  0  0  0  0  0  0  0  0  0  0  0
  -20.8570  -29.8500   21.8180 H   0  0  0  0  0  0  0  0  0  0  0  0
  -17.9910  -28.0100   22.9290 C   0  0  0  0  0  0  0  0  0  0  0  0
  -20.5210  -28.3920   23.3100 C   0  0  0  0  0  3  0  0  0  0  0  0
  -20.7070  -26.9420   22.8050 C   0  0  0  0  0  2  0  0  0  0  0  0
  -19.6710  -26.5300   21.7530 C   0  0  0  0  0  2  0  0  0  0  0  0
  -18.2550  -26.6410   22.3250 C   0  0  0  0  0  2  0  0  0  0  0  0
  -19.0550  -28.8390   23.3760 C   0  0  0  0  0  0  0  0  0  0  0  0
  -18.7530  -30.1160   23.8980 C   0  0  0  0  0  3  0  0  0  0  0  0
  -17.4210  -30.5640   23.9810 C   0  0  0  0  0  3  0  0  0  0  0  0
  -16.3720  -29.7340   23.5500 C   0  0  0  0  0  3  0  0  0  0  0  0
  -16.6580  -28.4590   23.0290 C   0  0  0  0  0  3  0  0  0  0  0  0
  -25.8430  -32.5640   23.9560 C   0  0  0  0  0  3  0  0  0  0  0  0
  -26.3470  -31.8080   25.2470 C   0  0  1  0  0  0  0  0  0  0  0  0
  -25.2470  -31.6010   26.3150 C   0  0  0  0  0  1  0  0  0  0  0  0
  -26.9140  -30.4150   24.8850 C   0  0  0  0  0  1  0  0  0  0  0  0
  -27.5050  -32.6000   25.8990 C   0  0  0  0  0  1  0  0  0  0  0  0
  -25.5580  -33.9740   24.2610 N   0  0  0  0  0  0  0  0  0  0  0  0
  -25.8900  -35.0060   23.4740 C   0  0  0  0  0  0  0  0  0  0  0  0
  -26.5400  -34.8710   22.4340 O   0  0  0  0  0  0  0  0  0  0  0  0
  -24.9730  -34.1520   25.0650 H   0  0  0  0  0  0  0  0  0  0  0  0
  -24.1770  -36.8130   23.1130 C   0  0  0  0  0  1  0  0  0  0  0  0
  -25.4300  -36.4110   23.9100 C   0  0  0  0  0  3  0  0  0  0  0  0
  -27.5930  -37.2850   24.6760 C   0  0  0  0  0  1  0  0  0  0  0  0
  -26.4730  -37.4480   23.7530 N   0  0  0  0  0  0  0  0  0  0  0  0
  -26.0820  -38.3760   23.8880 H   0  0  0  0  0  0  0  0  0  0  0  0
  -30.7080  -17.2850   19.8060 C   0  0  0  0  0  3  0  0  0  0  0  0
  -30.9790  -14.7020   19.3190 C   0  0  0  0  0  0  0  0  0  0  0  0
  -30.5910  -12.3720   18.5250 C   0  0  0  0  0  2  0  0  0  0  0  0
  -29.5320  -12.3770   17.4010 C   0  0  0  0  0  2  0  0  0  0  0  0
  -28.1100  -12.3040   17.9920 C   0  0  0  0  0  2  0  0  0  0  0  0
  -27.8880  -13.3130   19.1490 C   0  0  0  0  0  3  0  0  0  0  0  0
  -29.0540  -13.2790   20.1620 C   0  0  0  0  0  2  0  0  0  0  0  0
  -30.3010  -13.5130   19.4150 N   0  0  0  0  0  0  0  0  0  0  0  0
  -32.0850  -14.7680   18.7840 O   0  0  0  0  0  0  0  0  0  0  0  0
  -30.3060  -15.8280   19.7020 N   0  0  0  0  0  0  0  0  0  0  0  0
  -29.3640  -15.6600   20.0220 H   0  0  0  0  0  0  0  0  0  0  0  0
  -25.6650  -14.0690   20.1920 C   0  0  0  0  0  0  0  0  0  0  0  0
  -24.5840  -13.3700   20.6590 C   0  0  0  0  0  0  0  0  0  0  0  0
  -24.9180  -11.9890   20.5220 C   0  0  0  0  0  0  0  0  0  0  0  0
  -26.5900  -13.1160   19.7940 N   0  0  0  0  0  0  0  0  0  0  0  0
  -26.1520  -11.8570   20.0510 N   0  0  0  0  0  0  0  0  0  0  0  0
  -24.1140  -10.7830   20.7640 C   0  0  0  0  0  0  0  0  0  0  0  0
  -24.5330   -9.7810   21.6660 C   0  0  0  0  0  3  0  0  0  0  0  0
  -23.7350   -8.6390   21.8920 C   0  0  0  0  0  3  0  0  0  0  0  0
  -22.5010   -8.4920   21.2170 C   0  0  0  0  0  0  0  0  0  0  0  0
  -22.0990   -9.4790   20.2990 C   0  0  0  0  0  3  0  0  0  0  0  0
  -22.8980  -10.6130   20.0720 C   0  0  0  0  0  3  0  0  0  0  0  0
  -21.6700   -7.4070   21.3550 O   0  0  0  0  0  0  0  0  0  0  0  0
  -21.5870   -6.7080   22.5320 C   0  0  0  0  0  0  0  0  0  0  0  0
  -21.2180   -7.3310   23.7440 C   0  0  0  0  0  3  0  0  0  0  0  0
  -21.0810   -6.5620   24.9170 C   0  0  0  0  0  3  0  0  0  0  0  0
  -21.3000   -5.1730   24.8780 C   0  0  0  0  0  0  0  0  0  0  0  0
  -21.6590   -4.5490   23.6700 C   0  0  0  0  0  3  0  0  0  0  0  0
  -21.7990   -5.3150   22.5000 C   0  0  0  0  0  0  0  0  0  0  0  0
  -22.1260   -4.7060   21.3340 F   0  0  0  0  0  0  0  0  0  0  0  0
  -21.1590   -4.4330   26.0020 F   0  0  0  0  0  0  0  0  0  0  0  0
  -23.2780  -13.9490   21.1270 C   0  0  0  0  0  0  0  0  0  0  0  0
  -22.6160  -13.2840   22.0660 N   0  0  0  0  0  0  0  0  0  0  0  0
  -22.8610  -15.0220   20.6920 O   0  0  0  0  0  0  0  0  0  0  0  0
  -22.9730  -12.4160   22.4370 H   0  0  0  0  0  0  0  0  0  0  0  0
  -21.7430  -13.6470   22.4220 H   0  0  0  0  0  0  0  0  0  0  0  0
  -25.9320  -15.4280   20.0600 N   0  0  0  0  0  0  0  0  0  0  0  0
  -25.2640  -16.1430   20.3250 H   0  0  0  0  0  0  0  0  0  0  0  0
  -26.8290  -15.8170   19.7950 H   0  0  0  0  0  0  0  0  0  0  0  0
  -31.5300  -18.9230   21.7120 C   0  0  0  0  0  1  0  0  0  0  0  0
  -30.9310  -16.6220   22.3210 C   0  0  0  0  0  1  0  0  0  0  0  0
  -32.9970  -17.0840   20.9630 C   0  0  0  0  0  1  0  0  0  0  0  0
  -31.5170  -17.4740   21.1650 C   0  0  1  0  0  0  0  0  0  0  0  0
  1  9  2  0
  2  8  1  0
  3  5  1  0
  3  7  1  0
  5  8  1  0
  6  4  1  0
  7  1  1  0
  7  4  1  0
  8  6  1  0
 10  2  2  0
 11 12  1  0
 11  1  1  0
 13 24  2  0
 14 12  1  0
 14 19  1  0
 15 23  1  0
 15 25  1  0
 16 22  1  0
 16 18  1  0
 17 23  1  0
 18 17  1  0
 19 18  2  0
 20 21  1  0
 20 14  2  0
 21 16  2  0
 22 15  1  0
 23 13  1  0
 25 27  2  0
 26 25  1  0
 28 26  1  0
 29 38  2  0
 29 34  1  0
 30 26  1  0
 30 34  1  0
 31 30  1  0
 32 33  1  0
 32 31  1  0
 33 29  1  0
 34 35  2  0
 35 36  1  0
 37 36  2  0
 38 37  1  0
 39 13  1  0
 39 44  1  0
 39 40  1  0
 40 43  1  1
 40 41  1  0
 42 40  1  0
 44 47  1  0
 45 49  1  0
 45 44  1  0
 46 45  2  0
 49 48  1  0
 51 52  1  0
 51 49  1  0
 51 50  1  0
 53  2  1  0
 53 95  1  0
 54 60  1  0
 54 62  1  0
 55 60  1  0
 56 57  1  0
 56 55  1  0
 58 57  1  0
 58 67  1  0
 58 59  1  0
 60 59  1  0
 61 54  2  0
 62 53  1  0
 62 63  1  0
 64 65  2  0
 65 84  1  0
 66 65  1  0
 66 69  1  0
 67 68  1  0
 67 64  1  0
 68 66  2  0
 69 70  1  0
 70 71  2  0
 72 75  1  0
 72 71  1  0
 73 72  2  0
 74 73  1  0
 74 69  2  0
 75 76  1  0
 76 77  1  0
 77 78  2  0
 79 78  1  0
 79 83  1  0
 80 79  2  0
 81 76  2  0
 81 80  1  0
 82 81  1  0
 84 85  1  0
 85 88  1  0
 85 87  1  0
 86 84  2  0
 89 64  1  0
 89 90  1  0
 91 89  1  0
 95 94  1  6
 95 92  1  0
 95 93  1  0
M  ISO  4  11 101  12 101  54 100  62 100
M  END
>  <TORSDO>  (22) 
F 19

>  <SCORE>  (22) 
-12.737

>  <name>  (22) 
21

>  <ligand_id>  (22) 
21

>  <original_smiles>  (22) 
[H]c1c([H])c([H])c2c(c1[H])C([H])([H])C([H])([H])C([H])([H])C2([H])N([H])C(=O)C1([H])N(C(=O)C([H])(N([H])C(=O)C([H])(N([H])C([H])([H])[H])C([H])([H])[H])C(C([H])([H])[H])(C([H])([H])[H])C([H])([H])[H])C([H])([H])c2c([H])c(OC([H])([H])C(=O)N3C([H])([H])C([H])([H])N(C(=O)C([H])(N([H])C(=O)N4C([H])([H])C([H])([H])C([H])([H])C([H])(n5nc(-c6c([H])c([H])c(Oc7c([H])c([H])c(F)c([H])c7F)c([H])c6[H])c(C(=O)N([H])[H])c5N([H])[H])C4([H])[H])C(C([H])([H])[H])(C([H])([H])[H])C([H])([H])[H])C([H])([H])C3([H])[H])c([H])c([H])c2C1([H])[H]

>  <smiles>  (22) 
[H]c1c([H])c([H])c2c(c1[H])C([H])([H])C([H])([H])C([H])([H])C2([H])N([H])C(=O)C1([H])N(C(=O)C([H])(N([H])C(=O)C([H])(N([H])C([H])([H])[H])C([H])([H])[H])C(C([H])([H])[H])(C([H])([H])[H])C([H])([H])[H])C([H])([H])c2c([H])c(OC([H])([H])C(=O)N3C([H])([H])C([H])([H])N(C(=O)C([H])(N([H])C(=O)N4C([H])([H])C([H])([H])C([H])([H])C([H])(n5nc(-c6c([H])c([H])c(Oc7c([H])c([H])c(F)c([H])c7F)c([H])c6[H])c(C(=O)N([H])[H])c5N([H])[H])C4([H])[H])C(C([H])([H])[H])(C([H])([H])[H])C([H])([H])[H])C([H])([H])C3([H])[H])c([H])c([H])c2C1([H])[H]

$$$$
22:0:0
     RDKit          3D

 89 96  0  0  1  0  0  0  0  0999 V2000
  -28.4170  -22.8740   20.6230 C   0  0  0  0  0  0  0  0  0  0  0  0
  -29.2810  -21.8370   20.5850 N   0  0  0  0  0  0  0  0  0  0  0  0
  -27.2670  -22.7250   21.0420 O   0  0  0  0  0  0  0  0  0  0  0  0
  -30.2110  -22.0010   20.2200 H   0  0  0  0  0  0  0  0  0  0  0  0
  -28.8760  -24.2560   20.1020 C   0  0  0  0  0  2  0  0  0  0  0  0
  -28.2940  -25.4620   20.8940 C   0  0  0  0  0  2  0  0  0  0  0  0
  -28.4110  -26.7180   20.1950 O   0  0  0  0  0  0  0  0  0  0  0  0
  -24.5890  -31.8880   23.2580 C   0  0  0  0  0  0  0  0  0  0  0  0
  -27.2560  -27.4690   20.1770 C   0  0  0  0  0  0  0  0  0  0  0  0
  -23.3880  -30.4850   21.6100 C   0  0  0  0  0  3  0  0  0  0  0  0
  -24.8520  -28.9570   20.1820 C   0  0  0  0  0  0  0  0  0  0  0  0
  -25.9110  -30.8590   21.4120 C   0  0  0  0  0  2  0  0  0  0  0  0
  -26.0050  -29.4900   20.7700 C   0  0  0  0  0  0  0  0  0  0  0  0
  -27.2140  -28.7560   20.7600 C   0  0  0  0  0  3  0  0  0  0  0  0
  -26.0880  -26.9510   19.5750 C   0  0  0  0  0  3  0  0  0  0  0  0
  -24.8880  -27.6870   19.5750 C   0  0  0  0  0  3  0  0  0  0  0  0
  -23.6010  -29.8060   20.2290 C   0  0  0  0  0  2  0  0  0  0  0  0
  -24.6480  -31.0920   22.1530 N   0  0  0  0  0  0  0  0  0  0  0  0
  -23.5090  -32.1540   23.8000 O   0  0  0  0  0  0  0  0  0  0  0  0
  -22.7390  -29.4620   22.5700 C   0  0  0  0  0  0  0  0  0  0  0  0
  -21.4140  -29.2790   22.4450 N   0  0  0  0  0  0  0  0  0  0  0  0
  -23.4250  -28.8350   23.3810 O   0  0  0  0  0  0  0  0  0  0  0  0
  -20.9200  -29.8420   21.7680 H   0  0  0  0  0  0  0  0  0  0  0  0
  -18.0440  -28.0770   22.9490 C   0  0  0  0  0  0  0  0  0  0  0  0
  -20.6010  -28.3340   23.2110 C   0  0  0  0  0  3  0  0  0  0  0  0
  -20.7040  -26.9080   22.6240 C   0  0  0  0  0  2  0  0  0  0  0  0
  -19.5960  -26.5880   21.6160 C   0  0  0  0  0  2  0  0  0  0  0  0
  -18.2200  -26.7270   22.2720 C   0  0  0  0  0  2  0  0  0  0  0  0
  -19.1630  -28.8380   23.3760 C   0  0  0  0  0  0  0  0  0  0  0  0
  -18.9470  -30.1000   23.9720 C   0  0  0  0  0  3  0  0  0  0  0  0
  -17.6420  -30.6010   24.1420 C   0  0  0  0  0  3  0  0  0  0  0  0
  -16.5370  -29.8380   23.7300 C   0  0  0  0  0  3  0  0  0  0  0  0
  -16.7380  -28.5790   23.1370 C   0  0  0  0  0  3  0  0  0  0  0  0
  -25.8740  -32.5200   23.8800 C   0  0  0  0  0  3  0  0  0  0  0  0
  -25.5680  -33.9190   24.2030 N   0  0  0  0  0  0  0  0  0  0  0  0
  -25.9060  -34.9690   23.4400 C   0  0  0  0  0  0  0  0  0  0  0  0
  -26.5810  -34.8600   22.4130 O   0  0  0  0  0  0  0  0  0  0  0  0
  -24.9710  -34.0810   25.0010 H   0  0  0  0  0  0  0  0  0  0  0  0
  -24.1860  -36.7640   23.0610 C   0  0  0  0  0  1  0  0  0  0  0  0
  -25.4170  -36.3590   23.8890 C   0  0  0  0  0  3  0  0  0  0  0  0
  -27.5450  -37.2400   24.7400 C   0  0  0  0  0  1  0  0  0  0  0  0
  -26.4530  -37.4100   23.7860 N   0  0  0  0  0  0  0  0  0  0  0  0
  -26.0450  -38.3300   23.9290 H   0  0  0  0  0  0  0  0  0  0  0  0
  -26.3920  -31.7520   25.1570 C   0  0  1  0  0  0  0  0  0  0  0  0
  -25.3000  -31.5200   26.2250 C   0  0  0  0  0  1  0  0  0  0  0  0
  -26.9740  -30.3750   24.7670 C   0  0  0  0  0  1  0  0  0  0  0  0
  -27.5420  -32.5490   25.8180 C   0  0  0  0  0  1  0  0  0  0  0  0
  -28.9360  -20.4690   21.0090 C   0  0  0  0  0  2  0  0  0  0  0  0
  -30.0560  -19.4220   20.7740 C   0  0  0  0  0  2  0  0  0  0  0  0
  -29.6060  -17.9700   21.0900 C   0  0  0  0  0  2  0  0  0  0  0  0
  -30.6950  -16.8910   20.8770 C   0  0  0  0  0  2  0  0  0  0  0  0
  -30.7530  -14.4720   20.2840 C   0  0  0  0  0  0  0  0  0  0  0  0
  -30.3730  -12.3220   19.1450 C   0  0  0  0  0  2  0  0  0  0  0  0
  -29.4240  -12.5340   17.9500 C   0  0  0  0  0  2  0  0  0  0  0  0
  -27.9570  -12.4030   18.3990 C   0  0  0  0  0  2  0  0  0  0  0  0
  -27.6380  -13.2430   19.6640 C   0  0  0  0  0  3  0  0  0  0  0  0
  -28.7120  -13.0460   20.7610 C   0  0  0  0  0  2  0  0  0  0  0  0
  -30.0320  -13.3220   20.1700 N   0  0  0  0  0  0  0  0  0  0  0  0
  -31.8550  -14.6220   19.7520 O   0  0  0  0  0  0  0  0  0  0  0  0
  -30.1570  -15.5150   20.8880 N   0  0  0  0  0  0  0  0  0  0  0  0
  -29.2540  -15.3570   21.3110 H   0  0  0  0  0  0  0  0  0  0  0  0
  -25.2460  -13.8380   20.4000 C   0  0  0  0  0  0  0  0  0  0  0  0
  -24.1860  -13.0620   20.7820 C   0  0  0  0  0  0  0  0  0  0  0  0
  -24.6510  -11.7130   20.7530 C   0  0  0  0  0  0  0  0  0  0  0  0
  -26.2920  -12.9600   20.1610 N   0  0  0  0  0  0  0  0  0  0  0  0
  -25.9380  -11.6760   20.4300 N   0  0  0  0  0  0  0  0  0  0  0  0
  -23.9280  -10.4490   20.9570 C   0  0  0  0  0  0  0  0  0  0  0  0
  -24.3680   -9.4890   21.8960 C   0  0  0  0  0  3  0  0  0  0  0  0
  -23.6470   -8.2910   22.0860 C   0  0  0  0  0  3  0  0  0  0  0  0
  -22.4730   -8.0410   21.3380 C   0  0  0  0  0  0  0  0  0  0  0  0
  -22.0530   -8.9870   20.3870 C   0  0  0  0  0  3  0  0  0  0  0  0
  -22.7740  -10.1770   20.1950 C   0  0  0  0  0  3  0  0  0  0  0  0
  -21.7240   -6.8930   21.4390 O   0  0  0  0  0  0  0  0  0  0  0  0
  -21.6710   -6.1660   22.6010 C   0  0  0  0  0  0  0  0  0  0  0  0
  -21.2320   -6.7360   23.8160 C   0  0  0  0  0  3  0  0  0  0  0  0
  -21.1290   -5.9360   24.9710 C   0  0  0  0  0  3  0  0  0  0  0  0
  -21.4500   -4.5670   24.9120 C   0  0  0  0  0  0  0  0  0  0  0  0
  -21.8820   -3.9970   23.7020 C   0  0  0  0  0  3  0  0  0  0  0  0
  -21.9870   -4.7940   22.5480 C   0  0  0  0  0  0  0  0  0  0  0  0
  -22.3840   -4.2350   21.3800 F   0  0  0  0  0  0  0  0  0  0  0  0
  -21.3410   -3.7960   26.0190 F   0  0  0  0  0  0  0  0  0  0  0  0
  -22.7890  -13.5360   21.0670 C   0  0  0  0  0  0  0  0  0  0  0  0
  -22.0710  -12.8430   21.9460 N   0  0  0  0  0  0  0  0  0  0  0  0
  -22.3430  -14.5570   20.5490 O   0  0  0  0  0  0  0  0  0  0  0  0
  -22.4420  -12.0150   22.3900 H   0  0  0  0  0  0  0  0  0  0  0  0
  -21.1360  -13.1440   22.1770 H   0  0  0  0  0  0  0  0  0  0  0  0
  -25.4060  -15.2090   20.2190 N   0  0  0  0  0  0  0  0  0  0  0  0
  -24.6440  -15.8640   20.3570 H   0  0  0  0  0  0  0  0  0  0  0  0
  -26.2580  -15.6540   19.9010 H   0  0  0  0  0  0  0  0  0  0  0  0
  1  3  2  0
  2  1  1  0
  2 48  1  0
  4  2  1  0
  5  1  1  0
  5  6  1  0
  7  6  1  0
  8 19  2  0
  9  7  1  0
  9 14  1  0
 10 18  1  0
 10 20  1  0
 11 17  1  0
 11 13  1  0
 12 18  1  0
 13 12  1  0
 14 13  2  0
 15  9  2  0
 16 15  1  0
 16 11  2  0
 17 10  1  0
 18  8  1  0
 20 22  2  0
 21 20  1  0
 23 21  1  0
 24 33  2  0
 24 29  1  0
 25 21  1  0
 25 29  1  0
 26 25  1  0
 27 28  1  0
 27 26  1  0
 28 24  1  0
 29 30  2  0
 30 31  1  0
 32 31  2  0
 33 32  1  0
 34  8  1  0
 34 35  1  0
 34 44  1  0
 35 38  1  0
 36 40  1  0
 36 35  1  0
 37 36  2  0
 40 39  1  0
 42 40  1  0
 42 43  1  0
 42 41  1  0
 44 47  1  1
 44 45  1  0
 46 44  1  0
 49 48  1  0
 49 50  1  0
 51 60  1  0
 51 50  1  0
 52 60  1  0
 53 58  1  0
 54 55  1  0
 54 53  1  0
 56 55  1  0
 56 65  1  0
 56 57  1  0
 58 52  1  0
 58 57  1  0
 59 52  2  0
 60 61  1  0
 62 63  2  0
 63 82  1  0
 64 63  1  0
 64 67  1  0
 65 62  1  0
 65 66  1  0
 66 64  2  0
 67 68  1  0
 68 69  2  0
 70 73  1  0
 70 69  1  0
 71 70  2  0
 72 71  1  0
 72 67  2  0
 73 74  1  0
 74 75  1  0
 75 76  2  0
 77 76  1  0
 77 81  1  0
 78 77  2  0
 79 74  2  0
 79 78  1  0
 80 79  1  0
 82 83  1  0
 83 86  1  0
 83 85  1  0
 84 82  2  0
 87 88  1  0
 87 62  1  0
 89 87  1  0
M  ISO  4   6 101   7 101  52 100  60 100
M  END
>  <TORSDO>  (23) 
F 22

>  <SCORE>  (23) 
-12.918

>  <name>  (23) 
22

>  <ligand_id>  (23) 
22

>  <original_smiles>  (23) 
[H]c1c([H])c([H])c2c(c1[H])C([H])([H])C([H])([H])C([H])([H])C2([H])N([H])C(=O)C1([H])N(C(=O)C([H])(N([H])C(=O)C([H])(N([H])C([H])([H])[H])C([H])([H])[H])C(C([H])([H])[H])(C([H])([H])[H])C([H])([H])[H])C([H])([H])c2c([H])c(OC([H])([H])C([H])([H])C(=O)N([H])C([H])([H])C([H])([H])C([H])([H])C([H])([H])N([H])C(=O)N3C([H])([H])C([H])([H])C([H])([H])C([H])(n4nc(-c5c([H])c([H])c(Oc6c([H])c([H])c(F)c([H])c6F)c([H])c5[H])c(C(=O)N([H])[H])c4N([H])[H])C3([H])[H])c([H])c([H])c2C1([H])[H]

>  <smiles>  (23) 
[H]c1c([H])c([H])c2c(c1[H])C([H])([H])C([H])([H])C([H])([H])C2([H])N([H])C(=O)C1([H])N(C(=O)C([H])(N([H])C(=O)C([H])(N([H])C([H])([H])[H])C([H])([H])[H])C(C([H])([H])[H])(C([H])([H])[H])C([H])([H])[H])C([H])([H])c2c([H])c(OC([H])([H])C([H])([H])C(=O)N([H])C([H])([H])C([H])([H])C([H])([H])C([H])([H])N([H])C(=O)N3C([H])([H])C([H])([H])C([H])([H])C([H])(n4nc(-c5c([H])c([H])c(Oc6c([H])c([H])c(F)c([H])c6F)c([H])c5[H])c(C(=O)N([H])[H])c4N([H])[H])C3([H])[H])c([H])c([H])c2C1([H])[H]

$$$$
23:0:0
     RDKit          3D

 89 96  0  0  1  0  0  0  0  0999 V2000
  -29.8750  -21.9400   20.7550 C   0  0  0  0  0  0  0  0  0  0  0  0
  -29.1220  -22.9660   20.3210 N   0  0  0  0  0  0  0  0  0  0  0  0
  -30.9590  -22.1180   21.3120 O   0  0  0  0  0  0  0  0  0  0  0  0
  -28.2480  -22.7340   19.8690 H   0  0  0  0  0  0  0  0  0  0  0  0
  -29.3240  -20.5130   20.5340 C   0  0  0  0  0  2  0  0  0  0  0  0
  -30.2340  -19.3600   21.0460 C   0  0  0  0  0  2  0  0  0  0  0  0
  -29.6410  -17.9360   20.8630 C   0  0  0  0  0  2  0  0  0  0  0  0
  -30.5820  -16.8130   21.3720 C   0  0  0  0  0  2  0  0  0  0  0  0
  -30.6980  -14.4500   20.5160 C   0  0  0  0  0  0  0  0  0  0  0  0
  -30.3810  -12.2970   19.3550 C   0  0  0  0  0  2  0  0  0  0  0  0
  -29.4530  -12.4980   18.1410 C   0  0  0  0  0  2  0  0  0  0  0  0
  -27.9750  -12.3730   18.5560 C   0  0  0  0  0  2  0  0  0  0  0  0
  -27.6310  -13.2250   19.8070 C   0  0  0  0  0  3  0  0  0  0  0  0
  -28.6700  -13.0050   20.9290 C   0  0  0  0  0  2  0  0  0  0  0  0
  -30.0040  -13.2890   20.3760 N   0  0  0  0  0  0  0  0  0  0  0  0
  -31.8100  -14.6270   20.0100 O   0  0  0  0  0  0  0  0  0  0  0  0
  -30.0590  -15.4510   21.1550 N   0  0  0  0  0  0  0  0  0  0  0  0
  -29.1490  -15.2340   21.5340 H   0  0  0  0  0  0  0  0  0  0  0  0
  -25.2300  -13.8590   20.4830 C   0  0  0  0  0  0  0  0  0  0  0  0
  -24.1520  -13.1000   20.8500 C   0  0  0  0  0  0  0  0  0  0  0  0
  -24.6000  -11.7430   20.8330 C   0  0  0  0  0  0  0  0  0  0  0  0
  -26.2700  -12.9670   20.2720 N   0  0  0  0  0  0  0  0  0  0  0  0
  -25.8940  -11.6900   20.5390 N   0  0  0  0  0  0  0  0  0  0  0  0
  -23.8600  -10.4900   21.0250 C   0  0  0  0  0  0  0  0  0  0  0  0
  -24.2820   -9.5220   21.9640 C   0  0  0  0  0  3  0  0  0  0  0  0
  -23.5440   -8.3320   22.1440 C   0  0  0  0  0  3  0  0  0  0  0  0
  -22.3720   -8.1010   21.3860 C   0  0  0  0  0  0  0  0  0  0  0  0
  -21.9700   -9.0570   20.4380 C   0  0  0  0  0  3  0  0  0  0  0  0
  -22.7080  -10.2390   20.2550 C   0  0  0  0  0  3  0  0  0  0  0  0
  -21.6070   -6.9630   21.4760 O   0  0  0  0  0  0  0  0  0  0  0  0
  -21.5500   -6.2230   22.6300 C   0  0  0  0  0  0  0  0  0  0  0  0
  -21.1330   -6.7850   23.8560 C   0  0  0  0  0  3  0  0  0  0  0  0
  -21.0230   -5.9730   25.0020 C   0  0  0  0  0  3  0  0  0  0  0  0
  -21.3180   -4.5990   24.9220 C   0  0  0  0  0  0  0  0  0  0  0  0
  -21.7270   -4.0360   23.7010 C   0  0  0  0  0  3  0  0  0  0  0  0
  -21.8410   -4.8450   22.5580 C   0  0  0  0  0  0  0  0  0  0  0  0
  -22.2150   -4.2940   21.3780 F   0  0  0  0  0  0  0  0  0  0  0  0
  -21.2040   -3.8150   26.0210 F   0  0  0  0  0  0  0  0  0  0  0  0
  -22.7570  -13.5920   21.1040 C   0  0  0  0  0  0  0  0  0  0  0  0
  -22.0160  -12.9130   21.9730 N   0  0  0  0  0  0  0  0  0  0  0  0
  -22.3320  -14.6140   20.5690 O   0  0  0  0  0  0  0  0  0  0  0  0
  -22.3720  -12.0870   22.4310 H   0  0  0  0  0  0  0  0  0  0  0  0
  -21.0790  -13.2240   22.1840 H   0  0  0  0  0  0  0  0  0  0  0  0
  -25.4100  -15.2250   20.2920 N   0  0  0  0  0  0  0  0  0  0  0  0
  -24.6470  -15.8890   20.3760 H   0  0  0  0  0  0  0  0  0  0  0  0
  -26.2640  -15.6500   19.9560 H   0  0  0  0  0  0  0  0  0  0  0  0
  -29.4290  -24.3990   20.4630 C   0  0  0  0  0  2  0  0  0  0  0  0
  -28.2400  -25.2620   19.9760 C   0  0  0  0  0  2  0  0  0  0  0  0
  -28.3780  -26.6780   20.2060 O   0  0  0  0  0  0  0  0  0  0  0  0
  -24.5830  -31.8990   23.2390 C   0  0  0  0  0  0  0  0  0  0  0  0
  -27.2120  -27.4310   20.1650 C   0  0  0  0  0  0  0  0  0  0  0  0
  -23.3720  -30.5010   21.5990 C   0  0  0  0  0  3  0  0  0  0  0  0
  -24.8220  -28.9620   20.1720 C   0  0  0  0  0  0  0  0  0  0  0  0
  -25.9020  -30.8490   21.4010 C   0  0  0  0  0  2  0  0  0  0  0  0
  -25.9830  -29.4760   20.7610 C   0  0  0  0  0  0  0  0  0  0  0  0
  -27.1810  -28.7200   20.7530 C   0  0  0  0  0  3  0  0  0  0  0  0
  -26.0270  -26.9450   19.5590 C   0  0  0  0  0  3  0  0  0  0  0  0
  -24.8390  -27.6970   19.5670 C   0  0  0  0  0  3  0  0  0  0  0  0
  -23.5800  -29.8240   20.2190 C   0  0  0  0  0  2  0  0  0  0  0  0
  -24.6380  -31.0970   22.1390 N   0  0  0  0  0  0  0  0  0  0  0  0
  -23.5020  -32.1750   23.7790 O   0  0  0  0  0  0  0  0  0  0  0  0
  -22.7170  -29.4800   22.5580 C   0  0  0  0  0  0  0  0  0  0  0  0
  -21.3920  -29.3080   22.4350 N   0  0  0  0  0  0  0  0  0  0  0  0
  -23.3990  -28.8490   23.3700 O   0  0  0  0  0  0  0  0  0  0  0  0
  -20.9040  -29.8690   21.7520 H   0  0  0  0  0  0  0  0  0  0  0  0
  -18.0090  -28.1430   22.9460 C   0  0  0  0  0  0  0  0  0  0  0  0
  -20.5690  -28.3740   23.2050 C   0  0  0  0  0  3  0  0  0  0  0  0
  -20.6550  -26.9440   22.6220 C   0  0  0  0  0  2  0  0  0  0  0  0
  -19.5450  -26.6380   21.6130 C   0  0  0  0  0  2  0  0  0  0  0  0
  -18.1680  -26.7930   22.2650 C   0  0  0  0  0  2  0  0  0  0  0  0
  -19.1360  -28.8920   23.3730 C   0  0  0  0  0  0  0  0  0  0  0  0
  -18.9340  -30.1550   23.9700 C   0  0  0  0  0  3  0  0  0  0  0  0
  -17.6350  -30.6700   24.1420 C   0  0  0  0  0  3  0  0  0  0  0  0
  -16.5220  -29.9180   23.7310 C   0  0  0  0  0  3  0  0  0  0  0  0
  -16.7090  -28.6560   23.1390 C   0  0  0  0  0  3  0  0  0  0  0  0
  -25.8710  -32.5270   23.8590 C   0  0  0  0  0  3  0  0  0  0  0  0
  -25.5620  -33.9220   24.1960 N   0  0  0  0  0  0  0  0  0  0  0  0
  -25.8820  -34.9770   23.4350 C   0  0  0  0  0  0  0  0  0  0  0  0
  -26.5390  -34.8770   22.3950 O   0  0  0  0  0  0  0  0  0  0  0  0
  -24.9770  -34.0730   25.0050 H   0  0  0  0  0  0  0  0  0  0  0  0
  -24.1390  -36.7600   23.1110 C   0  0  0  0  0  1  0  0  0  0  0  0
  -25.3970  -36.3620   23.9010 C   0  0  0  0  0  3  0  0  0  0  0  0
  -27.5430  -37.2540   24.6900 C   0  0  0  0  0  1  0  0  0  0  0  0
  -26.4220  -37.4200   23.7700 N   0  0  0  0  0  0  0  0  0  0  0  0
  -26.0140  -38.3380   23.9280 H   0  0  0  0  0  0  0  0  0  0  0  0
  -26.3940  -31.7460   25.1270 C   0  0  1  0  0  0  0  0  0  0  0  0
  -25.3070  -31.5030   26.1990 C   0  0  0  0  0  1  0  0  0  0  0  0
  -26.9760  -30.3730   24.7220 C   0  0  0  0  0  1  0  0  0  0  0  0
  -27.5480  -32.5370   25.7870 C   0  0  0  0  0  1  0  0  0  0  0  0
  1  3  2  0
  2 47  1  0
  2  1  1  0
  4  2  1  0
  5  1  1  0
  5  6  1  0
  7  6  1  0
  7  8  1  0
  9 17  1  0
 10 15  1  0
 11 12  1  0
 11 10  1  0
 13 12  1  0
 13 22  1  0
 13 14  1  0
 15  9  1  0
 15 14  1  0
 16  9  2  0
 17  8  1  0
 17 18  1  0
 19 20  2  0
 20 39  1  0
 21 20  1  0
 21 24  1  0
 22 19  1  0
 22 23  1  0
 23 21  2  0
 24 25  1  0
 25 26  2  0
 27 30  1  0
 27 26  1  0
 28 27  2  0
 29 28  1  0
 29 24  2  0
 30 31  1  0
 31 32  1  0
 32 33  2  0
 34 33  1  0
 34 38  1  0
 35 34  2  0
 36 31  2  0
 36 35  1  0
 37 36  1  0
 39 40  1  0
 40 43  1  0
 40 42  1  0
 41 39  2  0
 44 45  1  0
 44 19  1  0
 46 44  1  0
 48 49  1  0
 48 47  1  0
 50 61  2  0
 51 49  1  0
 51 56  1  0
 52 60  1  0
 52 62  1  0
 53 59  1  0
 53 55  1  0
 54 60  1  0
 55 54  1  0
 56 55  2  0
 57 58  1  0
 57 51  2  0
 58 53  2  0
 59 52  1  0
 60 50  1  0
 62 64  2  0
 63 62  1  0
 65 63  1  0
 66 75  2  0
 66 71  1  0
 67 63  1  0
 67 71  1  0
 68 67  1  0
 69 70  1  0
 69 68  1  0
 70 66  1  0
 71 72  2  0
 72 73  1  0
 74 73  2  0
 75 74  1  0
 76 50  1  0
 76 77  1  0
 76 86  1  0
 77 80  1  0
 78 82  1  0
 78 77  1  0
 79 78  2  0
 82 81  1  0
 84 82  1  0
 84 85  1  0
 84 83  1  0
 86 89  1  1
 86 87  1  0
 88 86  1  0
M  ISO  4   9 100  17 100  48 101  49 101
M  END
>  <TORSDO>  (24) 
F 22

>  <SCORE>  (24) 
-13.051

>  <name>  (24) 
23

>  <ligand_id>  (24) 
23

>  <original_smiles>  (24) 
[H]c1c([H])c([H])c2c(c1[H])C([H])([H])C([H])([H])C([H])([H])C2([H])N([H])C(=O)C1([H])N(C(=O)C([H])(N([H])C(=O)C([H])(N([H])C([H])([H])[H])C([H])([H])[H])C(C([H])([H])[H])(C([H])([H])[H])C([H])([H])[H])C([H])([H])c2c([H])c(OC([H])([H])C([H])([H])N([H])C(=O)C([H])([H])C([H])([H])C([H])([H])C([H])([H])N([H])C(=O)N3C([H])([H])C([H])([H])C([H])([H])C([H])(n4nc(-c5c([H])c([H])c(Oc6c([H])c([H])c(F)c([H])c6F)c([H])c5[H])c(C(=O)N([H])[H])c4N([H])[H])C3([H])[H])c([H])c([H])c2C1([H])[H]

>  <smiles>  (24) 
[H]c1c([H])c([H])c2c(c1[H])C([H])([H])C([H])([H])C([H])([H])C2([H])N([H])C(=O)C1([H])N(C(=O)C([H])(N([H])C(=O)C([H])(N([H])C([H])([H])[H])C([H])([H])[H])C(C([H])([H])[H])(C([H])([H])[H])C([H])([H])[H])C([H])([H])c2c([H])c(OC([H])([H])C([H])([H])N([H])C(=O)C([H])([H])C([H])([H])C([H])([H])C([H])([H])N([H])C(=O)N3C([H])([H])C([H])([H])C([H])([H])C([H])(n4nc(-c5c([H])c([H])c(Oc6c([H])c([H])c(F)c([H])c6F)c([H])c5[H])c(C(=O)N([H])[H])c4N([H])[H])C3([H])[H])c([H])c([H])c2C1([H])[H]

$$$$
24:0:0
     RDKit          3D

 82 86  0  0  1  0  0  0  0  0999 V2000
  -28.2030  -25.2140   20.1870 O   0  0  0  0  0  1  0  0  0  0  0  0
  -24.6590  -31.8230   23.1160 C   0  0  0  0  0  0  0  0  0  0  0  0
  -27.2270  -26.5180   20.2190 C   0  0  0  0  0  0  0  0  0  0  0  0
  -23.5030  -30.4040   21.4840 C   0  0  0  0  0  3  0  0  0  0  0  0
  -24.9680  -28.6960   20.1210 C   0  0  0  0  0  0  0  0  0  0  0  0
  -26.0920  -30.4850   21.4080 C   0  0  0  0  0  2  0  0  0  0  0  0
  -26.1660  -29.0180   20.7700 C   0  0  0  0  0  0  0  0  0  0  0  0
  -27.2690  -27.9690   20.7710 C   0  0  0  0  0  3  0  0  0  0  0  0
  -25.9850  -26.4690   19.5130 C   0  0  0  0  0  3  0  0  0  0  0  0
  -24.9320  -27.4500   19.4670 C   0  0  0  0  0  3  0  0  0  0  0  0
  -23.7680  -29.6710   20.1330 C   0  0  0  0  0  2  0  0  0  0  0  0
  -24.7790  -30.9440   22.0540 N   0  0  0  0  0  0  0  0  0  0  0  0
  -23.5550  -32.1300   23.6020 O   0  0  0  0  0  0  0  0  0  0  0  0
  -22.7610  -29.4600   22.4680 C   0  0  0  0  0  0  0  0  0  0  0  0
  -21.4220  -29.3490   22.3610 N   0  0  0  0  0  0  0  0  0  0  0  0
  -23.4040  -28.8170   23.3000 O   0  0  0  0  0  0  0  0  0  0  0  0
  -20.9470  -29.9240   21.6780 H   0  0  0  0  0  0  0  0  0  0  0  0
  -18.0030  -28.1330   22.8590 C   0  0  0  0  0  0  0  0  0  0  0  0
  -20.5950  -28.3830   23.0970 C   0  0  0  0  0  0  0  0  0  0  0  0
  -20.7720  -26.9760   22.4620 C   0  0  0  0  0  3  0  0  0  0  0  0
  -19.5380  -26.4150   21.7220 C   0  0  0  0  0  3  0  0  0  0  0  0
  -18.0990  -26.8440   22.0560 C   0  0  0  0  0  3  0  0  0  0  0  0
  -19.1450  -28.8670   23.2920 C   0  0  0  0  0  0  0  0  0  0  0  0
  -18.9400  -30.1130   23.9270 C   0  0  0  0  0  3  0  0  0  0  0  0
  -17.6430  -30.6230   24.1300 C   0  0  0  0  0  3  0  0  0  0  0  0
  -16.5250  -29.8800   23.7210 C   0  0  0  0  0  3  0  0  0  0  0  0
  -16.7080  -28.6360   23.0960 C   0  0  0  0  0  3  0  0  0  0  0  0
  -25.9010  -32.4970   23.7720 C   0  0  0  0  0  3  0  0  0  0  0  0
  -25.5540  -33.8960   24.1020 N   0  0  0  0  0  0  0  0  0  0  0  0
  -25.8860  -34.9730   23.3740 C   0  0  0  0  0  0  0  0  0  0  0  0
  -26.5670  -34.8910   22.3500 O   0  0  0  0  0  0  0  0  0  0  0  0
  -24.9460  -34.0310   24.8960 H   0  0  0  0  0  0  0  0  0  0  0  0
  -24.1500  -36.7720   23.0460 C   0  0  0  0  0  1  0  0  0  0  0  0
  -25.3900  -36.3550   23.8530 C   0  0  0  0  0  3  0  0  0  0  0  0
  -27.5120  -37.2520   24.7100 C   0  0  0  0  0  1  0  0  0  0  0  0
  -26.4160  -37.4190   23.7590 N   0  0  0  0  0  0  0  0  0  0  0  0
  -26.0000  -38.3340   23.9110 H   0  0  0  0  0  0  0  0  0  0  0  0
  -26.3860  -31.7540   25.0790 C   0  0  1  0  0  0  0  0  0  0  0  0
  -25.2660  -31.5290   26.1240 C   0  0  0  0  0  1  0  0  0  0  0  0
  -26.9880  -30.3730   24.7440 C   0  0  0  0  0  1  0  0  0  0  0  0
  -27.5140  -32.5680   25.7560 C   0  0  0  0  0  1  0  0  0  0  0  0
  -28.2300  -23.3320   20.4390 C   0  0  0  0  0 15  0  0  0  0  0  0
  -28.7870  -21.3790   19.8640 C   0  0  0  0  0 15  0  0  0  0  0  0
  -29.3980  -19.4400   20.4120 C   0  0  0  0  0  1  0  0  0  0  0  0
  -30.1690  -16.0920   20.0360 C   0  0  0  0  0  0  0  0  0  0  0  0
  -30.3590  -13.4710   19.1990 C   0  0  0  0  0  2  0  0  0  0  0  0
  -29.4770  -12.8700   18.0550 C   0  0  0  0  0  2  0  0  0  0  0  0
  -28.1030  -12.4290   18.5740 C   0  0  0  0  0  2  0  0  0  0  0  0
  -27.5630  -13.4490   19.5940 C   0  0  0  0  0  3  0  0  0  0  0  0
  -28.6020  -13.9210   20.6470 C   0  0  0  0  0  2  0  0  0  0  0  0
  -29.6750  -14.6720   19.9180 N   0  0  0  0  0  0  0  0  0  0  0  0
  -31.4150  -15.9560   19.9590 O   0  0  0  0  0  0  0  0  0  0  0  0
  -29.4220  -17.5600   20.0550 N   0  0  0  0  0  0  0  0  0  0  0  0
  -28.4530  -17.3130   19.9040 H   0  0  0  0  0  0  0  0  0  0  0  0
  -25.2310  -13.9310   20.4500 C   0  0  0  0  0  0  0  0  0  0  0  0
  -24.1900  -13.1380   20.8360 C   0  0  0  0  0  0  0  0  0  0  0  0
  -24.6710  -11.7930   20.7770 C   0  0  0  0  0  0  0  0  0  0  0  0
  -26.2760  -13.0750   20.1660 N   0  0  0  0  0  0  0  0  0  0  0  0
  -25.9570  -11.7790   20.4270 N   0  0  0  0  0  0  0  0  0  0  0  0
  -23.9560  -10.5240   20.9740 C   0  0  0  0  0  0  0  0  0  0  0  0
  -24.4050   -9.5560   21.8990 C   0  0  0  0  0  3  0  0  0  0  0  0
  -23.6830   -8.3560   22.0890 C   0  0  0  0  0  3  0  0  0  0  0  0
  -22.4960   -8.1180   21.3550 C   0  0  0  0  0  0  0  0  0  0  0  0
  -22.0660   -9.0740   20.4200 C   0  0  0  0  0  3  0  0  0  0  0  0
  -22.7890  -10.2650   20.2280 C   0  0  0  0  0  3  0  0  0  0  0  0
  -21.7460   -6.9710   21.4550 O   0  0  0  0  0  0  0  0  0  0  0  0
  -21.7090   -6.2310   22.6100 C   0  0  0  0  0  0  0  0  0  0  0  0
  -21.2840   -6.7860   23.8360 C   0  0  0  0  0  3  0  0  0  0  0  0
  -21.1960   -5.9730   24.9840 C   0  0  0  0  0  3  0  0  0  0  0  0
  -21.5230   -4.6050   24.9060 C   0  0  0  0  0  0  0  0  0  0  0  0
  -21.9420   -4.0500   23.6840 C   0  0  0  0  0  3  0  0  0  0  0  0
  -22.0320   -4.8600   22.5390 C   0  0  0  0  0  0  0  0  0  0  0  0
  -22.4140   -4.3150   21.3590 F   0  0  0  0  0  0  0  0  0  0  0  0
  -21.4320   -3.8220   26.0060 F   0  0  0  0  0  0  0  0  0  0  0  0
  -22.7960  -13.6030   21.1400 C   0  0  0  0  0  0  0  0  0  0  0  0
  -22.0920  -12.8960   22.0160 N   0  0  0  0  0  0  0  0  0  0  0  0
  -22.3430  -14.6300   20.6380 O   0  0  0  0  0  0  0  0  0  0  0  0
  -22.4740  -12.0650   22.4440 H   0  0  0  0  0  0  0  0  0  0  0  0
  -21.1580  -13.1890   22.2630 H   0  0  0  0  0  0  0  0  0  0  0  0
  -25.3710  -15.3060   20.2780 N   0  0  0  0  0  0  0  0  0  0  0  0
  -24.5980  -15.9490   20.4140 H   0  0  0  0  0  0  0  0  0  0  0  0
  -26.2020  -15.7550   19.9170 H   0  0  0  0  0  0  0  0  0  0  0  0
  1  3  1  0
  2 13  2  0
  3  8  1  0
  4 12  1  0
  4 14  1  0
  5 11  1  0
  5  7  1  0
  6 12  1  0
  7  8  2  0
  7  6  1  0
  9  3  2  0
 10  9  1  0
 10  5  2  0
 11  4  1  0
 12  2  1  0
 14 16  2  0
 15 14  1  0
 15 19  1  0
 17 15  1  0
 18 27  2  0
 18 23  1  0
 19 23  1  0
 20 19  2  0
 21 22  2  0
 21 20  1  0
 22 18  1  0
 23 24  2  0
 24 25  1  0
 26 25  2  0
 27 26  1  0
 28  2  1  0
 28 29  1  0
 28 38  1  0
 29 32  1  0
 30 34  1  0
 30 29  1  0
 31 30  2  0
 34 33  1  0
 36 34  1  0
 36 37  1  0
 36 35  1  0
 38 41  1  1
 38 39  1  0
 40 38  1  0
 45 53  1  0
 46 51  1  0
 47 48  1  0
 47 46  1  0
 49 48  1  0
 49 58  1  0
 49 50  1  0
 51 45  1  0
 51 50  1  0
 52 45  2  0
 53 44  1  0
 54 53  1  0
 55 56  2  0
 56 75  1  0
 57 56  1  0
 57 60  1  0
 58 59  1  0
 58 55  1  0
 59 57  2  0
 60 61  1  0
 61 62  2  0
 63 66  1  0
 63 62  1  0
 64 63  2  0
 65 64  1  0
 65 60  2  0
 66 67  1  0
 67 68  1  0
 68 69  2  0
 70 69  1  0
 70 74  1  0
 71 70  2  0
 72 67  2  0
 72 71  1  0
 73 72  1  0
 75 76  1  0
 76 79  1  0
 76 78  1  0
 77 75  2  0
 80 81  1  0
 80 55  1  0
 82 80  1  0
M  ISO  4   1 101  42 101  45 100  53 100
M  END
>  <TORSDO>  (25) 
F 18

>  <SCORE>  (25) 
-16.165

>  <name>  (25) 
24

>  <ligand_id>  (25) 
24

>  <original_smiles>  (25) 
[H]c1c([H])c([H])c2c(c1[H])C([H])([H])C([H])([H])C([H])([H])C2([H])N([H])C(=O)C1([H])N(C(=O)C([H])(N([H])C(=O)C([H])(N([H])C([H])([H])[H])C([H])([H])[H])C(C([H])([H])[H])(C([H])([H])[H])C([H])([H])[H])C([H])([H])c2c([H])c(OC([H])([H])C([H])([H])C([H])([H])N([H])C(=O)N3C([H])([H])C([H])([H])C([H])([H])C([H])(n4nc(-c5c([H])c([H])c(Oc6c([H])c([H])c(F)c([H])c6F)c([H])c5[H])c(C(=O)N([H])[H])c4N([H])[H])C3([H])[H])c([H])c([H])c2C1([H])[H]

>  <smiles>  (25) 
[H]c1c([H])c([H])c2c(c1[H])C([H])([H])C([H])([H])C([H])([H])C2([H])N([H])C(=O)C1([H])N(C(=O)C([H])(N([H])C(=O)C([H])(N([H])C([H])([H])[H])C([H])([H])[H])C(C([H])([H])[H])(C([H])([H])[H])C([H])([H])[H])C([H])([H])c2c([H])c(OC([H])([H])C([H])([H])C([H])([H])N([H])C(=O)N3C([H])([H])C([H])([H])C([H])([H])C([H])(n4nc(-c5c([H])c([H])c(Oc6c([H])c([H])c(F)c([H])c6F)c([H])c5[H])c(C(=O)N([H])[H])c4N([H])[H])C3([H])[H])c([H])c([H])c2C1([H])[H]

$$$$
25:0:0
     RDKit          3D

 87 94  0  0  1  0  0  0  0  0999 V2000
  -29.5180  -20.6770   20.4400 C   0  0  0  0  0  0  0  0  0  0  0  0
  -28.6900  -21.8310   20.3180 N   0  0  0  0  0  0  0  0  0  0  0  0
  -30.7210  -20.8720   20.6110 O   0  0  0  0  0  0  0  0  0  0  0  0
  -27.7090  -21.6290   20.1700 H   0  0  0  0  0  0  0  0  0  0  0  0
  -29.0570  -19.0770   20.3940 C   0  0  0  0  0  3  0  0  0  0  0  0
  -30.1170  -17.7490   20.4550 C   0  0  0  0  0  3  0  0  0  0  0  0
  -30.4940  -15.0150   20.3560 C   0  0  0  0  0  0  0  0  0  0  0  0
  -30.3730  -12.6720   19.3940 C   0  0  0  0  0  2  0  0  0  0  0  0
  -29.4420  -12.6350   18.1600 C   0  0  0  0  0  2  0  0  0  0  0  0
  -27.9790  -12.4180   18.5910 C   0  0  0  0  0  2  0  0  0  0  0  0
  -27.5680  -13.3310   19.7770 C   0  0  0  0  0  3  0  0  0  0  0  0
  -28.6240  -13.3390   20.9020 C   0  0  0  0  0  2  0  0  0  0  0  0
  -29.8920  -13.7590   20.2940 N   0  0  0  0  0  0  0  0  0  0  0  0
  -31.6980  -15.0750   20.0830 O   0  0  0  0  0  0  0  0  0  0  0  0
  -29.7290  -16.2080   20.5140 N   0  0  0  0  0  0  0  0  0  0  0  0
  -28.7500  -16.0310   20.6840 H   0  0  0  0  0  0  0  0  0  0  0  0
  -25.1840  -13.8910   20.5140 C   0  0  0  0  0  0  0  0  0  0  0  0
  -24.1240  -13.1070   20.8790 C   0  0  0  0  0  0  0  0  0  0  0  0
  -24.5970  -11.7600   20.8440 C   0  0  0  0  0  0  0  0  0  0  0  0
  -26.2330  -13.0200   20.2720 N   0  0  0  0  0  0  0  0  0  0  0  0
  -25.8900  -11.7330   20.5380 N   0  0  0  0  0  0  0  0  0  0  0  0
  -23.8780  -10.4910   21.0270 C   0  0  0  0  0  0  0  0  0  0  0  0
  -24.2990   -9.5320   21.9740 C   0  0  0  0  0  3  0  0  0  0  0  0
  -23.5780   -8.3300   22.1440 C   0  0  0  0  0  3  0  0  0  0  0  0
  -22.4220   -8.0800   21.3690 C   0  0  0  0  0  0  0  0  0  0  0  0
  -22.0200   -9.0290   20.4110 C   0  0  0  0  0  3  0  0  0  0  0  0
  -22.7420  -10.2210   20.2390 C   0  0  0  0  0  3  0  0  0  0  0  0
  -21.6730   -6.9300   21.4480 O   0  0  0  0  0  0  0  0  0  0  0  0
  -21.5920   -6.2040   22.6090 C   0  0  0  0  0  0  0  0  0  0  0  0
  -21.0880   -6.7620   23.8030 C   0  0  0  0  0  3  0  0  0  0  0  0
  -20.9560   -5.9600   24.9540 C   0  0  0  0  0  3  0  0  0  0  0  0
  -21.3170   -4.6010   24.9110 C   0  0  0  0  0  0  0  0  0  0  0  0
  -21.8140   -4.0410   23.7200 C   0  0  0  0  0  3  0  0  0  0  0  0
  -21.9470   -4.8400   22.5720 C   0  0  0  0  0  0  0  0  0  0  0  0
  -22.4060   -4.2910   21.4220 F   0  0  0  0  0  0  0  0  0  0  0  0
  -21.1840   -3.8280   26.0150 F   0  0  0  0  0  0  0  0  0  0  0  0
  -22.7220  -13.5750   21.1440 C   0  0  0  0  0  0  0  0  0  0  0  0
  -21.9960  -12.8730   22.0070 N   0  0  0  0  0  0  0  0  0  0  0  0
  -22.2810  -14.5970   20.6220 O   0  0  0  0  0  0  0  0  0  0  0  0
  -22.3660  -12.0460   22.4510 H   0  0  0  0  0  0  0  0  0  0  0  0
  -21.0550  -13.1690   22.2280 H   0  0  0  0  0  0  0  0  0  0  0  0
  -25.3370  -15.2630   20.3400 N   0  0  0  0  0  0  0  0  0  0  0  0
  -24.5600  -15.9060   20.4450 H   0  0  0  0  0  0  0  0  0  0  0  0
  -26.1690  -15.7080   19.9750 H   0  0  0  0  0  0  0  0  0  0  0  0
  -29.0290  -23.3820   20.4160 C   0  0  0  0  0  3  0  0  0  0  0  0
  -27.9630  -24.6690   20.1410 C   0  0  0  0  0  3  0  0  0  0  0  0
  -28.2330  -26.2020   20.3050 O   0  0  0  0  0  0  0  0  0  0  0  0
  -24.6270  -31.9210   23.2680 C   0  0  0  0  0  0  0  0  0  0  0  0
  -27.1820  -27.1920   20.2370 C   0  0  0  0  0  0  0  0  0  0  0  0
  -23.4220  -30.5340   21.6260 C   0  0  0  0  0  3  0  0  0  0  0  0
  -24.8630  -28.9530   20.2010 C   0  0  0  0  0  0  0  0  0  0  0  0
  -25.9780  -30.7850   21.4650 C   0  0  0  0  0  2  0  0  0  0  0  0
  -26.0440  -29.3920   20.8100 C   0  0  0  0  0  0  0  0  0  0  0  0
  -27.2050  -28.5280   20.8090 C   0  0  0  0  0  3  0  0  0  0  0  0
  -25.9720  -26.8550   19.5890 C   0  0  0  0  0  3  0  0  0  0  0  0
  -24.8400  -27.6980   19.5740 C   0  0  0  0  0  3  0  0  0  0  0  0
  -23.6410  -29.8570   20.2470 C   0  0  0  0  0  2  0  0  0  0  0  0
  -24.6960  -31.1010   22.1750 N   0  0  0  0  0  0  0  0  0  0  0  0
  -23.5410  -32.2110   23.7940 O   0  0  0  0  0  0  0  0  0  0  0  0
  -22.7350  -29.5300   22.5850 C   0  0  0  0  0  0  0  0  0  0  0  0
  -21.4070  -29.3610   22.4510 N   0  0  0  0  0  0  0  0  0  0  0  0
  -23.4000  -28.9050   23.4160 O   0  0  0  0  0  0  0  0  0  0  0  0
  -20.9280  -29.9160   21.7570 H   0  0  0  0  0  0  0  0  0  0  0  0
  -18.0210  -28.1710   22.9390 C   0  0  0  0  0  0  0  0  0  0  0  0
  -20.5790  -28.4270   23.2190 C   0  0  0  0  0  3  0  0  0  0  0  0
  -20.6800  -26.9940   22.6470 C   0  0  0  0  0  2  0  0  0  0  0  0
  -19.5820  -26.6720   21.6280 C   0  0  0  0  0  2  0  0  0  0  0  0
  -18.1970  -26.8200   22.2650 C   0  0  0  0  0  2  0  0  0  0  0  0
  -19.1380  -28.9320   23.3730 C   0  0  0  0  0  0  0  0  0  0  0  0
  -18.9180  -30.1940   23.9650 C   0  0  0  0  0  3  0  0  0  0  0  0
  -17.6120  -30.6960   24.1260 C   0  0  0  0  0  3  0  0  0  0  0  0
  -16.5100  -29.9340   23.7070 C   0  0  0  0  0  3  0  0  0  0  0  0
  -16.7140  -28.6720   23.1200 C   0  0  0  0  0  3  0  0  0  0  0  0
  -25.9060  -32.5490   23.8980 C   0  0  0  0  0  3  0  0  0  0  0  0
  -26.4050  -31.7810   25.1850 C   0  0  1  0  0  0  0  0  0  0  0  0
  -25.3000  -31.5580   26.2440 C   0  0  0  0  0  1  0  0  0  0  0  0
  -26.9810  -30.3970   24.8110 C   0  0  0  0  0  1  0  0  0  0  0  0
  -27.5540  -32.5710   25.8530 C   0  0  0  0  0  1  0  0  0  0  0  0
  -25.6030  -33.9510   24.2250 N   0  0  0  0  0  0  0  0  0  0  0  0
  -25.9210  -35.0010   23.4550 C   0  0  0  0  0  0  0  0  0  0  0  0
  -26.5650  -34.8910   22.4090 O   0  0  0  0  0  0  0  0  0  0  0  0
  -25.0270  -34.1110   25.0380 H   0  0  0  0  0  0  0  0  0  0  0  0
  -24.1770  -36.7920   23.1520 C   0  0  0  0  0  1  0  0  0  0  0  0
  -25.4500  -36.3950   23.9180 C   0  0  0  0  0  3  0  0  0  0  0  0
  -27.6090  -37.2980   24.6640 C   0  0  0  0  0  1  0  0  0  0  0  0
  -26.4750  -37.4480   23.7550 N   0  0  0  0  0  0  0  0  0  0  0  0
  -26.0720  -38.3700   23.9000 H   0  0  0  0  0  0  0  0  0  0  0  0
  1  3  2  0
  2 45  1  0
  2  1  1  0
  4  2  1  0
  5  1  1  0
  5  6  2  0
  6 15  1  0
  7 15  1  0
  8 13  1  0
  9 10  1  0
  9  8  1  0
 11 10  1  0
 11 20  1  0
 11 12  1  0
 13  7  1  0
 13 12  1  0
 14  7  2  0
 15 16  1  0
 17 18  2  0
 18 37  1  0
 19 18  1  0
 19 22  1  0
 20 17  1  0
 20 21  1  0
 21 19  2  0
 22 23  1  0
 23 24  2  0
 25 28  1  0
 25 24  1  0
 26 25  2  0
 27 26  1  0
 27 22  2  0
 28 29  1  0
 29 30  1  0
 30 31  2  0
 32 31  1  0
 32 36  1  0
 33 32  2  0
 34 29  2  0
 34 33  1  0
 35 34  1  0
 37 38  1  0
 38 41  1  0
 38 40  1  0
 39 37  2  0
 42 43  1  0
 42 17  1  0
 44 42  1  0
 46 47  1  0
 46 45  2  0
 48 59  2  0
 49 47  1  0
 49 54  1  0
 50 58  1  0
 50 60  1  0
 51 57  1  0
 51 53  1  0
 52 58  1  0
 53 52  1  0
 54 53  2  0
 55 49  2  0
 56 55  1  0
 56 51  2  0
 57 50  1  0
 58 48  1  0
 60 62  2  0
 61 60  1  0
 63 61  1  0
 64 73  2  0
 64 69  1  0
 65 61  1  0
 65 69  1  0
 66 65  1  0
 67 68  1  0
 67 66  1  0
 68 64  1  0
 69 70  2  0
 70 71  1  0
 72 71  2  0
 73 72  1  0
 74 48  1  0
 74 79  1  0
 74 75  1  0
 75 78  1  1
 75 76  1  0
 77 75  1  0
 79 82  1  0
 80 84  1  0
 80 79  1  0
 81 80  2  0
 84 83  1  0
 86 87  1  0
 86 84  1  0
 86 85  1  0
M  ISO  4   7 100  15 100  46 101  47 101
M  END
>  <TORSDO>  (26) 
F 20

>  <SCORE>  (26) 
-14.390

>  <name>  (26) 
25

>  <ligand_id>  (26) 
25

>  <original_smiles>  (26) 
[H]c1c([H])c([H])c2c(c1[H])C([H])([H])C([H])([H])C([H])([H])C2([H])N([H])C(=O)C1([H])N(C(=O)C([H])(N([H])C(=O)C([H])(N([H])C([H])([H])[H])C([H])([H])[H])C(C([H])([H])[H])(C([H])([H])[H])C([H])([H])[H])C([H])([H])c2c([H])c(OC([H])([H])C([H])([H])N([H])C(=O)C([H])([H])C([H])([H])N([H])C(=O)N3C([H])([H])C([H])([H])C([H])([H])C([H])(n4nc(-c5c([H])c([H])c(Oc6c([H])c([H])c(F)c([H])c6F)c([H])c5[H])c(C(=O)N([H])[H])c4N([H])[H])C3([H])[H])c([H])c([H])c2C1([H])[H]

>  <smiles>  (26) 
[H]c1c([H])c([H])c2c(c1[H])C([H])([H])C([H])([H])C([H])([H])C2([H])N([H])C(=O)C1([H])N(C(=O)C([H])(N([H])C(=O)C([H])(N([H])C([H])([H])[H])C([H])([H])[H])C(C([H])([H])[H])(C([H])([H])[H])C([H])([H])[H])C([H])([H])c2c([H])c(OC([H])([H])C([H])([H])N([H])C(=O)C([H])([H])C([H])([H])N([H])C(=O)N3C([H])([H])C([H])([H])C([H])([H])C([H])(n4nc(-c5c([H])c([H])c(Oc6c([H])c([H])c(F)c([H])c6F)c([H])c5[H])c(C(=O)N([H])[H])c4N([H])[H])C3([H])[H])c([H])c([H])c2C1([H])[H]

$$$$
26:0:0
     RDKit          3D

 86 93  0  0  1  0  0  0  0  0999 V2000
  -28.8370  -22.7640   20.5210 C   0  0  0  0  0  3  0  0  0  0  0  0
  -29.3040  -19.8370   20.4720 C   0  0  0  0  0  0  0  0  0  0  0  0
  -29.1010  -21.2080   19.9240 N   0  0  0  0  0  0  0  0  0  0  0  0
  -29.0370  -19.7210   21.6680 O   0  0  0  0  0  0  0  0  0  0  0  0
  -29.2830  -21.2270   18.9280 H   0  0  0  0  0  0  0  0  0  0  0  0
  -29.9160  -18.3420   19.7690 C   0  0  0  0  0  2  0  0  0  0  0  0
  -30.5450  -15.4350   19.9120 C   0  0  0  0  0  0  0  0  0  0  0  0
  -30.4730  -13.0020   18.9930 C   0  0  0  0  0  2  0  0  0  0  0  0
  -29.4800  -12.8250   17.8150 C   0  0  0  0  0  2  0  0  0  0  0  0
  -28.0620  -12.5370   18.3380 C   0  0  0  0  0  2  0  0  0  0  0  0
  -27.6820  -13.4660   19.5160 C   0  0  0  0  0  3  0  0  0  0  0  0
  -28.7990  -13.5920   20.5770 C   0  0  0  0  0  2  0  0  0  0  0  0
  -29.9860  -14.1210   19.8860 N   0  0  0  0  0  0  0  0  0  0  0  0
  -31.7310  -15.4470   19.5520 O   0  0  0  0  0  0  0  0  0  0  0  0
  -29.7910  -16.7020   20.1270 N   0  0  0  0  0  0  0  0  0  0  0  0
  -28.8680  -16.4950   20.4780 H   0  0  0  0  0  0  0  0  0  0  0  0
  -25.3690  -13.9960   20.4450 C   0  0  0  0  0  0  0  0  0  0  0  0
  -24.3330  -13.2060   20.8550 C   0  0  0  0  0  0  0  0  0  0  0  0
  -24.7930  -11.8580   20.7430 C   0  0  0  0  0  0  0  0  0  0  0  0
  -26.3910  -13.1300   20.1000 N   0  0  0  0  0  0  0  0  0  0  0  0
  -26.0610  -11.8360   20.3460 N   0  0  0  0  0  0  0  0  0  0  0  0
  -24.0760  -10.5890   20.9320 C   0  0  0  0  0  0  0  0  0  0  0  0
  -24.5270   -9.6140   21.8480 C   0  0  0  0  0  3  0  0  0  0  0  0
  -23.8060   -8.4140   22.0280 C   0  0  0  0  0  3  0  0  0  0  0  0
  -22.6190   -8.1800   21.2940 C   0  0  0  0  0  0  0  0  0  0  0  0
  -22.1860   -9.1460   20.3670 C   0  0  0  0  0  3  0  0  0  0  0  0
  -22.9080  -10.3370   20.1840 C   0  0  0  0  0  3  0  0  0  0  0  0
  -21.8680   -7.0330   21.3840 O   0  0  0  0  0  0  0  0  0  0  0  0
  -21.8000   -6.3070   22.5460 C   0  0  0  0  0  0  0  0  0  0  0  0
  -21.3120   -6.8670   23.7470 C   0  0  0  0  0  3  0  0  0  0  0  0
  -21.1940   -6.0650   24.9000 C   0  0  0  0  0  3  0  0  0  0  0  0
  -21.5530   -4.7060   24.8530 C   0  0  0  0  0  0  0  0  0  0  0  0
  -22.0340   -4.1450   23.6560 C   0  0  0  0  0  3  0  0  0  0  0  0
  -22.1530   -4.9440   22.5060 C   0  0  0  0  0  0  0  0  0  0  0  0
  -22.5970   -4.3930   21.3500 F   0  0  0  0  0  0  0  0  0  0  0  0
  -21.4340   -3.9340   25.9590 F   0  0  0  0  0  0  0  0  0  0  0  0
  -22.9580  -13.6740   21.2300 C   0  0  0  0  0  0  0  0  0  0  0  0
  -22.2850  -12.9510   22.1170 N   0  0  0  0  0  0  0  0  0  0  0  0
  -22.4910  -14.7170   20.7720 O   0  0  0  0  0  0  0  0  0  0  0  0
  -22.6760  -12.1070   22.5080 H   0  0  0  0  0  0  0  0  0  0  0  0
  -21.3640  -13.2450   22.4110 H   0  0  0  0  0  0  0  0  0  0  0  0
  -25.5210  -15.3730   20.3060 N   0  0  0  0  0  0  0  0  0  0  0  0
  -24.7590  -16.0170   20.4850 H   0  0  0  0  0  0  0  0  0  0  0  0
  -26.3290  -15.8220   19.8970 H   0  0  0  0  0  0  0  0  0  0  0  0
  -28.1150  -24.3050   19.8790 C   0  0  0  0  0  3  0  0  0  0  0  0
  -28.1940  -25.9180   20.2780 O   0  0  0  0  0  0  0  0  0  0  0  0
  -24.5950  -31.8880   23.1940 C   0  0  0  0  0  0  0  0  0  0  0  0
  -27.1750  -27.0110   20.1740 C   0  0  0  0  0  0  0  0  0  0  0  0
  -23.4050  -30.4810   21.5610 C   0  0  0  0  0  3  0  0  0  0  0  0
  -24.8610  -28.8830   20.1320 C   0  0  0  0  0  0  0  0  0  0  0  0
  -25.9690  -30.7060   21.4070 C   0  0  0  0  0  2  0  0  0  0  0  0
  -26.0460  -29.2950   20.7520 C   0  0  0  0  0  0  0  0  0  0  0  0
  -27.1940  -28.3790   20.7500 C   0  0  0  0  0  3  0  0  0  0  0  0
  -25.9610  -26.7580   19.4960 C   0  0  0  0  0  3  0  0  0  0  0  0
  -24.8440  -27.6370   19.4830 C   0  0  0  0  0  3  0  0  0  0  0  0
  -23.6350  -29.7950   20.1850 C   0  0  0  0  0  2  0  0  0  0  0  0
  -24.6780  -31.0530   22.1080 N   0  0  0  0  0  0  0  0  0  0  0  0
  -23.5050  -32.1710   23.7190 O   0  0  0  0  0  0  0  0  0  0  0  0
  -22.7210  -29.4820   22.5320 C   0  0  0  0  0  0  0  0  0  0  0  0
  -21.3910  -29.3080   22.4130 N   0  0  0  0  0  0  0  0  0  0  0  0
  -23.3930  -28.8650   23.3630 O   0  0  0  0  0  0  0  0  0  0  0  0
  -20.9010  -29.8570   21.7200 H   0  0  0  0  0  0  0  0  0  0  0  0
  -18.0190  -28.0780   22.9440 C   0  0  0  0  0  0  0  0  0  0  0  0
  -20.5790  -28.3650   23.1900 C   0  0  0  0  0  3  0  0  0  0  0  0
  -20.6870  -26.9330   22.6150 C   0  0  0  0  0  2  0  0  0  0  0  0
  -19.5810  -26.6030   21.6070 C   0  0  0  0  0  2  0  0  0  0  0  0
  -18.2020  -26.7330   22.2610 C   0  0  0  0  0  2  0  0  0  0  0  0
  -19.1340  -28.8510   23.3650 C   0  0  0  0  0  0  0  0  0  0  0  0
  -18.9060  -30.1080   23.9670 C   0  0  0  0  0  3  0  0  0  0  0  0
  -17.5960  -30.5930   24.1480 C   0  0  0  0  0  3  0  0  0  0  0  0
  -16.4970  -29.8180   23.7400 C   0  0  0  0  0  3  0  0  0  0  0  0
  -16.7080  -28.5620   23.1440 C   0  0  0  0  0  3  0  0  0  0  0  0
  -25.8630  -32.5410   23.8220 C   0  0  0  0  0  3  0  0  0  0  0  0
  -26.3680  -31.7940   25.1190 C   0  0  1  0  0  0  0  0  0  0  0  0
  -25.2640  -31.5700   26.1790 C   0  0  0  0  0  1  0  0  0  0  0  0
  -26.9610  -30.4120   24.7640 C   0  0  0  0  0  1  0  0  0  0  0  0
  -27.5080  -32.6040   25.7790 C   0  0  0  0  0  1  0  0  0  0  0  0
  -25.5400  -33.9440   24.1420 N   0  0  0  0  0  0  0  0  0  0  0  0
  -25.8640  -35.0000   23.3830 C   0  0  0  0  0  0  0  0  0  0  0  0
  -26.5290  -34.8960   22.3480 O   0  0  0  0  0  0  0  0  0  0  0  0
  -24.9480  -34.0970   24.9440 H   0  0  0  0  0  0  0  0  0  0  0  0
  -24.1290  -36.7940   23.0420 C   0  0  0  0  0  1  0  0  0  0  0  0
  -25.3790  -36.3910   23.8420 C   0  0  0  0  0  3  0  0  0  0  0  0
  -27.5130  -37.2930   24.6600 C   0  0  0  0  0  1  0  0  0  0  0  0
  -26.4080  -37.4470   23.7170 N   0  0  0  0  0  0  0  0  0  0  0  0
  -25.9980  -38.3670   23.8570 H   0  0  0  0  0  0  0  0  0  0  0  0
  2  4  2  0
  3  2  1  0
  3  1  1  0
  5  3  1  0
  6 15  1  0
  6  2  1  0
  7 15  1  0
  8 13  1  0
  9 10  1  0
  9  8  1  0
 11 10  1  0
 11 20  1  0
 11 12  1  0
 13  7  1  0
 13 12  1  0
 14  7  2  0
 15 16  1  0
 17 18  2  0
 18 37  1  0
 19 18  1  0
 19 22  1  0
 20 21  1  0
 20 17  1  0
 21 19  2  0
 22 23  1  0
 23 24  2  0
 25 28  1  0
 25 24  1  0
 26 25  2  0
 27 26  1  0
 27 22  2  0
 28 29  1  0
 29 30  1  0
 30 31  2  0
 32 31  1  0
 32 36  1  0
 33 32  2  0
 34 29  2  0
 34 33  1  0
 35 34  1  0
 37 38  1  0
 38 41  1  0
 38 40  1  0
 39 37  2  0
 42 17  1  0
 42 43  1  0
 44 42  1  0
 45 46  1  0
 45  1  2  0
 47 58  2  0
 48 46  1  0
 48 53  1  0
 49 57  1  0
 49 59  1  0
 50 56  1  0
 50 52  1  0
 51 57  1  0
 52 51  1  0
 53 52  2  0
 54 48  2  0
 55 54  1  0
 55 50  2  0
 56 49  1  0
 57 47  1  0
 59 61  2  0
 60 59  1  0
 62 60  1  0
 63 72  2  0
 63 68  1  0
 64 60  1  0
 64 68  1  0
 65 64  1  0
 66 67  1  0
 66 65  1  0
 67 63  1  0
 68 69  2  0
 69 70  1  0
 71 70  2  0
 72 71  1  0
 73 47  1  0
 73 78  1  0
 73 74  1  0
 74 77  1  1
 74 75  1  0
 76 74  1  0
 78 81  1  0
 79 83  1  0
 79 78  1  0
 80 79  2  0
 83 82  1  0
 85 83  1  0
 85 86  1  0
 85 84  1  0
M  ISO  4   7 100  15 100  45 101  46 101
M  END
>  <TORSDO>  (27) 
F 19

>  <SCORE>  (27) 
-15.612

>  <name>  (27) 
26

>  <ligand_id>  (27) 
26

>  <original_smiles>  (27) 
[H]c1c([H])c([H])c2c(c1[H])C([H])([H])C([H])([H])C([H])([H])C2([H])N([H])C(=O)C1([H])N(C(=O)C([H])(N([H])C(=O)C([H])(N([H])C([H])([H])[H])C([H])([H])[H])C(C([H])([H])[H])(C([H])([H])[H])C([H])([H])[H])C([H])([H])c2c([H])c(OC([H])([H])C([H])([H])N([H])C(=O)C([H])([H])N([H])C(=O)N3C([H])([H])C([H])([H])C([H])([H])C([H])(n4nc(-c5c([H])c([H])c(Oc6c([H])c([H])c(F)c([H])c6F)c([H])c5[H])c(C(=O)N([H])[H])c4N([H])[H])C3([H])[H])c([H])c([H])c2C1([H])[H]

>  <smiles>  (27) 
[H]c1c([H])c([H])c2c(c1[H])C([H])([H])C([H])([H])C([H])([H])C2([H])N([H])C(=O)C1([H])N(C(=O)C([H])(N([H])C(=O)C([H])(N([H])C([H])([H])[H])C([H])([H])[H])C(C([H])([H])[H])(C([H])([H])[H])C([H])([H])[H])C([H])([H])c2c([H])c(OC([H])([H])C([H])([H])N([H])C(=O)C([H])([H])N([H])C(=O)N3C([H])([H])C([H])([H])C([H])([H])C([H])(n4nc(-c5c([H])c([H])c(Oc6c([H])c([H])c(F)c([H])c6F)c([H])c5[H])c(C(=O)N([H])[H])c4N([H])[H])C3([H])[H])c([H])c([H])c2C1([H])[H]

$$$$
27:0:0
     RDKit          3D

 93101  0  0  1  0  0  0  0  0999 V2000
  -29.1110  -21.6690   20.7490 C   0  0  0  0  0  0  0  0  0  0  0  0
  -29.1970  -22.9560   20.3180 N   0  0  0  0  0  0  0  0  0  0  0  0
  -28.0740  -21.1820   21.1990 O   0  0  0  0  0  0  0  0  0  0  0  0
  -30.1050  -23.2110   19.9510 H   0  0  0  0  0  0  0  0  0  0  0  0
  -30.0430  -18.3080   20.7740 C   0  0  0  0  0  0  0  0  0  0  0  0
  -32.2960  -20.7470   22.4210 C   0  0  0  0  0  2  0  0  0  0  0  0
  -31.3170  -21.7060   21.7950 C   0  0  0  0  0  2  0  0  0  0  0  0
  -31.6180  -19.3880   22.3340 C   0  0  0  0  0  2  0  0  0  0  0  0
  -30.4660  -20.8870   20.7910 C   0  0  0  0  0  3  0  0  0  0  0  0
  -30.5740  -19.4670   21.2900 N   0  0  0  0  0  0  0  0  0  0  0  0
  -29.2140  -18.3060   19.8600 O   0  0  0  0  0  0  0  0  0  0  0  0
  -30.5790  -16.9360   21.3250 C   0  0  0  0  0  2  0  0  0  0  0  0
  -30.6520  -14.5750   20.4150 C   0  0  0  0  0  0  0  0  0  0  0  0
  -30.3530  -12.3800   19.2930 C   0  0  0  0  0  2  0  0  0  0  0  0
  -29.4080  -12.5450   18.0840 C   0  0  0  0  0  2  0  0  0  0  0  0
  -27.9370  -12.4030   18.5200 C   0  0  0  0  0  2  0  0  0  0  0  0
  -27.5990  -13.2540   19.7720 C   0  0  0  0  0  3  0  0  0  0  0  0
  -28.6620  -13.0840   20.8780 C   0  0  0  0  0  2  0  0  0  0  0  0
  -29.9720  -13.3970   20.2880 N   0  0  0  0  0  0  0  0  0  0  0  0
  -31.8090  -14.7000   20.0000 O   0  0  0  0  0  0  0  0  0  0  0  0
  -29.9720  -15.6420   20.9050 N   0  0  0  0  0  0  0  0  0  0  0  0
  -28.9960  -15.5050   21.1280 H   0  0  0  0  0  0  0  0  0  0  0  0
  -25.2100  -13.8520   20.5060 C   0  0  0  0  0  0  0  0  0  0  0  0
  -24.1480  -13.0760   20.8820 C   0  0  0  0  0  0  0  0  0  0  0  0
  -24.6120  -11.7260   20.8500 C   0  0  0  0  0  0  0  0  0  0  0  0
  -26.2550  -12.9730   20.2660 N   0  0  0  0  0  0  0  0  0  0  0  0
  -25.9010  -11.6900   20.5360 N   0  0  0  0  0  0  0  0  0  0  0  0
  -23.8910  -10.4600   21.0430 C   0  0  0  0  0  0  0  0  0  0  0  0
  -24.3320   -9.4930   21.9730 C   0  0  0  0  0  3  0  0  0  0  0  0
  -23.6110   -8.2930   22.1560 C   0  0  0  0  0  3  0  0  0  0  0  0
  -22.4340   -8.0530   21.4060 C   0  0  0  0  0  0  0  0  0  0  0  0
  -22.0120   -9.0090   20.4640 C   0  0  0  0  0  3  0  0  0  0  0  0
  -22.7350  -10.2000   20.2810 C   0  0  0  0  0  3  0  0  0  0  0  0
  -21.6840   -6.9050   21.4960 O   0  0  0  0  0  0  0  0  0  0  0  0
  -21.6500   -6.1570   22.6460 C   0  0  0  0  0  0  0  0  0  0  0  0
  -21.2250   -6.7030   23.8770 C   0  0  0  0  0  3  0  0  0  0  0  0
  -21.1370   -5.8820   25.0180 C   0  0  0  0  0  3  0  0  0  0  0  0
  -21.4630   -4.5160   24.9300 C   0  0  0  0  0  0  0  0  0  0  0  0
  -21.8790   -3.9680   23.7030 C   0  0  0  0  0  3  0  0  0  0  0  0
  -21.9680   -4.7860   22.5640 C   0  0  0  0  0  0  0  0  0  0  0  0
  -22.3500   -4.2510   21.3800 F   0  0  0  0  0  0  0  0  0  0  0  0
  -21.3700   -3.7230   26.0230 F   0  0  0  0  0  0  0  0  0  0  0  0
  -22.7500  -13.5480   21.1590 C   0  0  0  0  0  0  0  0  0  0  0  0
  -22.0270  -12.8450   22.0250 N   0  0  0  0  0  0  0  0  0  0  0  0
  -22.3050  -14.5740   20.6440 O   0  0  0  0  0  0  0  0  0  0  0  0
  -22.3980  -12.0140   22.4570 H   0  0  0  0  0  0  0  0  0  0  0  0
  -21.0890  -13.1420   22.2550 H   0  0  0  0  0  0  0  0  0  0  0  0
  -25.3750  -15.2230   20.3260 N   0  0  0  0  0  0  0  0  0  0  0  0
  -24.6090  -15.8820   20.4310 H   0  0  0  0  0  0  0  0  0  0  0  0
  -26.2180  -15.6540   19.9670 H   0  0  0  0  0  0  0  0  0  0  0  0
  -28.2840  -24.1020   20.5570 C   0  0  0  0  0  2  0  0  0  0  0  0
  -28.5960  -25.3570   19.6610 C   0  0  0  0  0  2  0  0  0  0  0  0
  -28.4230  -26.6730   20.2530 O   0  0  0  0  0  0  0  0  0  0  0  0
  -24.5710  -31.8740   23.2380 C   0  0  0  0  0  0  0  0  0  0  0  0
  -27.2390  -27.3940   20.1820 C   0  0  0  0  0  0  0  0  0  0  0  0
  -23.3810  -30.4750   21.5800 C   0  0  0  0  0  3  0  0  0  0  0  0
  -24.8450  -28.9350   20.1600 C   0  0  0  0  0  0  0  0  0  0  0  0
  -25.9060  -30.8270   21.4020 C   0  0  0  0  0  2  0  0  0  0  0  0
  -25.9980  -29.4500   20.7640 C   0  0  0  0  0  0  0  0  0  0  0  0
  -27.1900  -28.6850   20.7740 C   0  0  0  0  0  3  0  0  0  0  0  0
  -26.0670  -26.9040   19.5610 C   0  0  0  0  0  3  0  0  0  0  0  0
  -24.8780  -27.6640   19.5530 C   0  0  0  0  0  3  0  0  0  0  0  0
  -23.6030  -29.7970   20.1990 C   0  0  0  0  0  2  0  0  0  0  0  0
  -24.6380  -31.0750   22.1320 N   0  0  0  0  0  0  0  0  0  0  0  0
  -23.4870  -32.1390   23.7720 O   0  0  0  0  0  0  0  0  0  0  0  0
  -22.7170  -29.4540   22.5350 C   0  0  0  0  0  0  0  0  0  0  0  0
  -21.3910  -29.2860   22.4100 N   0  0  0  0  0  0  0  0  0  0  0  0
  -23.3950  -28.8120   23.3440 O   0  0  0  0  0  0  0  0  0  0  0  0
  -20.9050  -29.8590   21.7340 H   0  0  0  0  0  0  0  0  0  0  0  0
  -18.0050  -28.1290   22.9130 C   0  0  0  0  0  0  0  0  0  0  0  0
  -20.5670  -28.3480   23.1720 C   0  0  0  0  0  3  0  0  0  0  0  0
  -20.6460  -26.9220   22.5750 C   0  0  0  0  0  2  0  0  0  0  0  0
  -19.5350  -26.6350   21.5610 C   0  0  0  0  0  2  0  0  0  0  0  0
  -18.1600  -26.7870   22.2180 C   0  0  0  0  0  2  0  0  0  0  0  0
  -19.1360  -28.8680   23.3470 C   0  0  0  0  0  0  0  0  0  0  0  0
  -18.9390  -30.1250   23.9590 C   0  0  0  0  0  3  0  0  0  0  0  0
  -17.6440  -30.6400   24.1450 C   0  0  0  0  0  3  0  0  0  0  0  0
  -16.5250  -29.8970   23.7280 C   0  0  0  0  0  3  0  0  0  0  0  0
  -16.7070  -28.6440   23.1150 C   0  0  0  0  0  3  0  0  0  0  0  0
  -25.8500  -32.5040   23.8710 C   0  0  0  0  0  3  0  0  0  0  0  0
  -26.3450  -31.7400   25.1580 C   0  0  1  0  0  0  0  0  0  0  0  0
  -25.2400  -31.5120   26.2160 C   0  0  0  0  0  1  0  0  0  0  0  0
  -26.9270  -30.3600   24.7740 C   0  0  0  0  0  1  0  0  0  0  0  0
  -27.4920  -32.5320   25.8280 C   0  0  0  0  0  1  0  0  0  0  0  0
  -25.5410  -33.9060   24.1890 N   0  0  0  0  0  0  0  0  0  0  0  0
  -25.8930  -34.9530   23.4310 C   0  0  0  0  0  0  0  0  0  0  0  0
  -26.5790  -34.8400   22.4100 O   0  0  0  0  0  0  0  0  0  0  0  0
  -24.9270  -34.0660   24.9740 H   0  0  0  0  0  0  0  0  0  0  0  0
  -24.1850  -36.7560   23.0270 C   0  0  0  0  0  1  0  0  0  0  0  0
  -25.4040  -36.3470   23.8700 C   0  0  0  0  0  3  0  0  0  0  0  0
  -27.5270  -37.2220   24.7370 C   0  0  0  0  0  1  0  0  0  0  0  0
  -26.4460  -37.3920   23.7720 N   0  0  0  0  0  0  0  0  0  0  0  0
  -26.0460  -38.3170   23.9040 H   0  0  0  0  0  0  0  0  0  0  0  0
  1  3  2  0
  2 51  1  0
  2  1  1  0
  4  2  1  0
  5 10  1  0
  5 12  1  0
  7  6  1  0
  8  6  1  0
  9  1  1  0
  9 10  1  0
  9  7  1  0
 10  8  1  0
 11  5  2  0
 13 21  1  0
 14 19  1  0
 15 16  1  0
 15 14  1  0
 17 16  1  0
 17 26  1  0
 17 18  1  0
 19 13  1  0
 19 18  1  0
 20 13  2  0
 21 22  1  0
 21 12  1  0
 23 24  2  0
 24 43  1  0
 25 24  1  0
 25 28  1  0
 26 23  1  0
 26 27  1  0
 27 25  2  0
 28 29  1  0
 29 30  2  0
 31 34  1  0
 31 30  1  0
 32 31  2  0
 33 32  1  0
 33 28  2  0
 34 35  1  0
 35 36  1  0
 36 37  2  0
 38 37  1  0
 38 42  1  0
 39 38  2  0
 40 35  2  0
 40 39  1  0
 41 40  1  0
 43 44  1  0
 44 47  1  0
 44 46  1  0
 45 43  2  0
 48 49  1  0
 48 23  1  0
 50 48  1  0
 52 53  1  0
 52 51  1  0
 54 65  2  0
 55 53  1  0
 55 60  1  0
 56 64  1  0
 56 66  1  0
 57 63  1  0
 57 59  1  0
 58 64  1  0
 59 60  2  0
 59 58  1  0
 61 55  2  0
 62 61  1  0
 62 57  2  0
 63 56  1  0
 64 54  1  0
 66 68  2  0
 67 66  1  0
 69 67  1  0
 70 79  2  0
 70 75  1  0
 71 67  1  0
 71 75  1  0
 72 71  1  0
 73 74  1  0
 73 72  1  0
 74 70  1  0
 75 76  2  0
 76 77  1  0
 78 77  2  0
 79 78  1  0
 80 54  1  0
 80 85  1  0
 80 81  1  0
 81 84  1  1
 81 82  1  0
 83 81  1  0
 85 88  1  0
 86 90  1  0
 86 85  1  0
 87 86  2  0
 90 89  1  0
 92 90  1  0
 92 93  1  0
 92 91  1  0
M  ISO  4  13 100  21 100  52 101  53 101
M  END
>  <TORSDO>  (28) 
F 20

>  <SCORE>  (28) 
-14.254

>  <name>  (28) 
27

>  <ligand_id>  (28) 
27

>  <original_smiles>  (28) 
[H]c1c([H])c([H])c2c(c1[H])C([H])([H])C([H])([H])C([H])([H])C2([H])N([H])C(=O)C1([H])N(C(=O)C([H])(N([H])C(=O)C([H])(N([H])C([H])([H])[H])C([H])([H])[H])C(C([H])([H])[H])(C([H])([H])[H])C([H])([H])[H])C([H])([H])c2c([H])c(OC([H])([H])C([H])([H])N([H])C(=O)C3([H])N(C(=O)C([H])([H])N([H])C(=O)N4C([H])([H])C([H])([H])C([H])([H])C([H])(n5nc(-c6c([H])c([H])c(Oc7c([H])c([H])c(F)c([H])c7F)c([H])c6[H])c(C(=O)N([H])[H])c5N([H])[H])C4([H])[H])C([H])([H])C([H])([H])C3([H])[H])c([H])c([H])c2C1([H])[H]

>  <smiles>  (28) 
[H]c1c([H])c([H])c2c(c1[H])C([H])([H])C([H])([H])C([H])([H])C2([H])N([H])C(=O)C1([H])N(C(=O)C([H])(N([H])C(=O)C([H])(N([H])C([H])([H])[H])C([H])([H])[H])C(C([H])([H])[H])(C([H])([H])[H])C([H])([H])[H])C([H])([H])c2c([H])c(OC([H])([H])C([H])([H])N([H])C(=O)C3([H])N(C(=O)C([H])([H])N([H])C(=O)N4C([H])([H])C([H])([H])C([H])([H])C([H])(n5nc(-c6c([H])c([H])c(Oc7c([H])c([H])c(F)c([H])c7F)c([H])c6[H])c(C(=O)N([H])[H])c5N([H])[H])C4([H])[H])C([H])([H])C([H])([H])C3([H])[H])c([H])c([H])c2C1([H])[H]

$$$$
28:0:0
     RDKit          3D

 88 96  0  0  1  0  0  0  0  0999 V2000
  -29.3850  -21.1440   19.2440 C   0  0  0  0  0  3  0  0  0  0  0  0
  -28.7050  -21.2690   21.5070 C   0  0  0  0  0  3  0  0  0  0  0  0
  -29.1440  -22.5680   19.1060 C   0  0  0  0  0  3  0  0  0  0  0  0
  -28.4610  -22.6910   21.3670 C   0  0  0  0  0  3  0  0  0  0  0  0
  -29.1350  -20.4060   20.4440 C   0  0  0  0  0  0  0  0  0  0  0  0
  -28.6260  -23.4140   20.1450 C   0  0  0  0  0  0  0  0  0  0  0  0
  -29.0180  -18.7780   20.5470 C   0  0  0  0  0  3  0  0  0  0  0  0
  -30.1910  -17.6240   20.4280 C   0  0  0  0  0  3  0  0  0  0  0  0
  -30.5890  -14.9470   20.3050 C   0  0  0  0  0  0  0  0  0  0  0  0
  -30.4070  -12.6490   19.2940 C   0  0  0  0  0  2  0  0  0  0  0  0
  -29.4600  -12.6850   18.0730 C   0  0  0  0  0  2  0  0  0  0  0  0
  -27.9970  -12.4890   18.5150 C   0  0  0  0  0  2  0  0  0  0  0  0
  -27.6180  -13.3780   19.7290 C   0  0  0  0  0  3  0  0  0  0  0  0
  -28.6870  -13.3230   20.8430 C   0  0  0  0  0  2  0  0  0  0  0  0
  -29.9670  -13.7100   20.2370 N   0  0  0  0  0  0  0  0  0  0  0  0
  -31.7760  -15.0310   19.9770 O   0  0  0  0  0  0  0  0  0  0  0  0
  -29.8290  -16.1070   20.5310 N   0  0  0  0  0  0  0  0  0  0  0  0
  -28.8640  -15.9180   20.7570 H   0  0  0  0  0  0  0  0  0  0  0  0
  -25.2360  -13.9500   20.4780 C   0  0  0  0  0  0  0  0  0  0  0  0
  -24.1760  -13.1690   20.8530 C   0  0  0  0  0  0  0  0  0  0  0  0
  -24.6450  -11.8210   20.8140 C   0  0  0  0  0  0  0  0  0  0  0  0
  -26.2820  -13.0760   20.2310 N   0  0  0  0  0  0  0  0  0  0  0  0
  -25.9340  -11.7900   20.4970 N   0  0  0  0  0  0  0  0  0  0  0  0
  -23.9240  -10.5550   21.0030 C   0  0  0  0  0  0  0  0  0  0  0  0
  -24.3490   -9.5960   21.9500 C   0  0  0  0  0  3  0  0  0  0  0  0
  -23.6260   -8.3960   22.1270 C   0  0  0  0  0  3  0  0  0  0  0  0
  -22.4660   -8.1450   21.3560 C   0  0  0  0  0  0  0  0  0  0  0  0
  -22.0620   -9.0920   20.3990 C   0  0  0  0  0  3  0  0  0  0  0  0
  -22.7840  -10.2840   20.2200 C   0  0  0  0  0  3  0  0  0  0  0  0
  -21.7170   -6.9960   21.4420 O   0  0  0  0  0  0  0  0  0  0  0  0
  -21.6390   -6.2730   22.6050 C   0  0  0  0  0  0  0  0  0  0  0  0
  -21.1390   -6.8350   23.8000 C   0  0  0  0  0  3  0  0  0  0  0  0
  -21.0100   -6.0360   24.9540 C   0  0  0  0  0  3  0  0  0  0  0  0
  -21.3720   -4.6760   24.9130 C   0  0  0  0  0  0  0  0  0  0  0  0
  -21.8660   -4.1130   23.7230 C   0  0  0  0  0  3  0  0  0  0  0  0
  -21.9950   -4.9090   22.5720 C   0  0  0  0  0  0  0  0  0  0  0  0
  -22.4510   -4.3580   21.4210 F   0  0  0  0  0  0  0  0  0  0  0  0
  -21.2420   -3.9070   26.0200 F   0  0  0  0  0  0  0  0  0  0  0  0
  -22.7780  -13.6400   21.1310 C   0  0  0  0  0  0  0  0  0  0  0  0
  -22.0550  -12.9370   21.9960 N   0  0  0  0  0  0  0  0  0  0  0  0
  -22.3360  -14.6670   20.6180 O   0  0  0  0  0  0  0  0  0  0  0  0
  -22.4250  -12.1070   22.4340 H   0  0  0  0  0  0  0  0  0  0  0  0
  -21.1170  -13.2340   22.2240 H   0  0  0  0  0  0  0  0  0  0  0  0
  -25.3910  -15.3210   20.3020 N   0  0  0  0  0  0  0  0  0  0  0  0
  -24.6160  -15.9670   20.4100 H   0  0  0  0  0  0  0  0  0  0  0  0
  -26.2220  -15.7620   19.9280 H   0  0  0  0  0  0  0  0  0  0  0  0
  -27.8920  -24.8370   19.8280 C   0  0  0  0  0  2  0  0  0  0  0  0
  -28.2500  -26.2820   20.2100 O   0  0  0  0  0  0  0  0  0  0  0  0
  -24.6220  -31.8970   23.2520 C   0  0  0  0  0  0  0  0  0  0  0  0
  -27.2060  -27.2710   20.1340 C   0  0  0  0  0  0  0  0  0  0  0  0
  -23.4190  -30.5190   21.6030 C   0  0  0  0  0  3  0  0  0  0  0  0
  -24.8670  -28.9870   20.1450 C   0  0  0  0  0  0  0  0  0  0  0  0
  -25.9710  -30.8060   21.4290 C   0  0  0  0  0  2  0  0  0  0  0  0
  -26.0470  -29.4290   20.7570 C   0  0  0  0  0  0  0  0  0  0  0  0
  -27.2170  -28.5850   20.7430 C   0  0  0  0  0  3  0  0  0  0  0  0
  -26.0010  -26.9410   19.4660 C   0  0  0  0  0  3  0  0  0  0  0  0
  -24.8540  -27.7540   19.4870 C   0  0  0  0  0  3  0  0  0  0  0  0
  -23.6340  -29.8710   20.2120 C   0  0  0  0  0  2  0  0  0  0  0  0
  -24.6910  -31.0940   22.1490 N   0  0  0  0  0  0  0  0  0  0  0  0
  -23.5380  -32.1700   23.7900 O   0  0  0  0  0  0  0  0  0  0  0  0
  -22.7550  -29.4900   22.5530 C   0  0  0  0  0  0  0  0  0  0  0  0
  -21.4290  -29.3080   22.4270 N   0  0  0  0  0  0  0  0  0  0  0  0
  -23.4360  -28.8590   23.3660 O   0  0  0  0  0  0  0  0  0  0  0  0
  -20.9370  -29.8690   21.7460 H   0  0  0  0  0  0  0  0  0  0  0  0
  -18.0570  -28.0830   22.9260 C   0  0  0  0  0  0  0  0  0  0  0  0
  -20.6150  -28.3600   23.1910 C   0  0  0  0  0  3  0  0  0  0  0  0
  -20.7250  -26.9330   22.6040 C   0  0  0  0  0  2  0  0  0  0  0  0
  -19.6230  -26.6120   21.5890 C   0  0  0  0  0  2  0  0  0  0  0  0
  -18.2410  -26.7410   22.2370 C   0  0  0  0  0  2  0  0  0  0  0  0
  -19.1720  -28.8490   23.3590 C   0  0  0  0  0  0  0  0  0  0  0  0
  -18.9440  -30.1040   23.9640 C   0  0  0  0  0  3  0  0  0  0  0  0
  -17.6360  -30.5930   24.1400 C   0  0  0  0  0  3  0  0  0  0  0  0
  -16.5360  -29.8240   23.7220 C   0  0  0  0  0  3  0  0  0  0  0  0
  -16.7480  -28.5710   23.1210 C   0  0  0  0  0  3  0  0  0  0  0  0
  -25.9030  -32.5310   23.8770 C   0  0  0  0  0  3  0  0  0  0  0  0
  -26.4140  -31.7590   25.1550 C   0  0  1  0  0  0  0  0  0  0  0  0
  -25.3170  -31.5210   26.2200 C   0  0  0  0  0  1  0  0  0  0  0  0
  -27.0000  -30.3810   24.7710 C   0  0  0  0  0  1  0  0  0  0  0  0
  -27.5610  -32.5550   25.8210 C   0  0  0  0  0  1  0  0  0  0  0  0
  -25.5920  -33.9290   24.2100 N   0  0  0  0  0  0  0  0  0  0  0  0
  -25.9020  -34.9840   23.4460 C   0  0  0  0  0  0  0  0  0  0  0  0
  -26.5500  -34.8840   22.4010 O   0  0  0  0  0  0  0  0  0  0  0  0
  -25.0130  -34.0810   25.0240 H   0  0  0  0  0  0  0  0  0  0  0  0
  -24.1560  -36.7690   23.1360 C   0  0  0  0  0  1  0  0  0  0  0  0
  -25.4200  -36.3720   23.9140 C   0  0  0  0  0  3  0  0  0  0  0  0
  -27.5660  -37.2750   24.6950 C   0  0  0  0  0  1  0  0  0  0  0  0
  -26.4440  -37.4290   23.7730 N   0  0  0  0  0  0  0  0  0  0  0  0
  -26.0360  -38.3480   23.9220 H   0  0  0  0  0  0  0  0  0  0  0  0
  1  5  1  0
  3  1  2  0
  3  6  1  0
  4  2  1  0
  5  7  1  0
  5  2  2  0
  6  4  2  0
  8 17  1  0
  8  7  2  0
  9 17  1  0
 10 15  1  0
 11 12  1  0
 11 10  1  0
 13 12  1  0
 13 22  1  0
 13 14  1  0
 15  9  1  0
 15 14  1  0
 16  9  2  0
 17 18  1  0
 19 20  2  0
 20 39  1  0
 21 20  1  0
 21 24  1  0
 22 19  1  0
 22 23  1  0
 23 21  2  0
 24 25  1  0
 25 26  2  0
 27 30  1  0
 27 26  1  0
 28 27  2  0
 29 28  1  0
 29 24  2  0
 30 31  1  0
 31 32  1  0
 32 33  2  0
 34 33  1  0
 34 38  1  0
 35 34  2  0
 36 31  2  0
 36 35  1  0
 37 36  1  0
 39 40  1  0
 40 43  1  0
 40 42  1  0
 41 39  2  0
 44 45  1  0
 44 19  1  0
 46 44  1  0
 47  6  1  0
 47 48  1  0
 49 60  2  0
 50 48  1  0
 50 55  1  0
 51 59  1  0
 51 61  1  0
 52 58  1  0
 52 54  1  0
 53 59  1  0
 54 53  1  0
 55 54  2  0
 56 57  1  0
 56 50  2  0
 57 52  2  0
 58 51  1  0
 59 49  1  0
 61 63  2  0
 62 61  1  0
 64 62  1  0
 65 74  2  0
 65 70  1  0
 66 62  1  0
 66 70  1  0
 67 66  1  0
 68 69  1  0
 68 67  1  0
 69 65  1  0
 70 71  2  0
 71 72  1  0
 73 72  2  0
 74 73  1  0
 75 49  1  0
 75 80  1  0
 75 76  1  0
 76 79  1  1
 76 77  1  0
 78 76  1  0
 80 83  1  0
 81 85  1  0
 81 80  1  0
 82 81  2  0
 85 84  1  0
 87 85  1  0
 87 88  1  0
 87 86  1  0
M  ISO  4   9 100  17 100  47 101  48 101
M  END
>  <TORSDO>  (29) 
F 19

>  <SCORE>  (29) 
-14.193

>  <name>  (29) 
28

>  <ligand_id>  (29) 
28

>  <original_smiles>  (29) 
[H]c1c([H])c([H])c2c(c1[H])C([H])([H])C([H])([H])C([H])([H])C2([H])N([H])C(=O)C1([H])N(C(=O)C([H])(N([H])C(=O)C([H])(N([H])C([H])([H])[H])C([H])([H])[H])C(C([H])([H])[H])(C([H])([H])[H])C([H])([H])[H])C([H])([H])c2c([H])c(OC([H])([H])c3c([H])c([H])c(C([H])([H])C([H])([H])N([H])C(=O)N4C([H])([H])C([H])([H])C([H])([H])C([H])(n5nc(-c6c([H])c([H])c(Oc7c([H])c([H])c(F)c([H])c7F)c([H])c6[H])c(C(=O)N([H])[H])c5N([H])[H])C4([H])[H])c([H])c3[H])c([H])c([H])c2C1([H])[H]

>  <smiles>  (29) 
[H]c1c([H])c([H])c2c(c1[H])C([H])([H])C([H])([H])C([H])([H])C2([H])N([H])C(=O)C1([H])N(C(=O)C([H])(N([H])C(=O)C([H])(N([H])C([H])([H])[H])C([H])([H])[H])C(C([H])([H])[H])(C([H])([H])[H])C([H])([H])[H])C([H])([H])c2c([H])c(OC([H])([H])c3c([H])c([H])c(C([H])([H])C([H])([H])N([H])C(=O)N4C([H])([H])C([H])([H])C([H])([H])C([H])(n5nc(-c6c([H])c([H])c(Oc7c([H])c([H])c(F)c([H])c7F)c([H])c6[H])c(C(=O)N([H])[H])c5N([H])[H])C4([H])[H])c([H])c3[H])c([H])c([H])c2C1([H])[H]

$$$$
29:0:0
     RDKit          3D

100109  0  0  1  0  0  0  0  0999 V2000
  -30.7390  -21.4150   25.5850 C   0  0  0  0  0  0  0  0  0  0  0  0
  -27.8180  -23.6710   26.0640 C   0  0  0  0  0  2  0  0  0  0  0  0
  -27.5450  -23.0760   24.6880 C   0  0  0  0  0  2  0  0  0  0  0  0
  -28.9600  -22.8210   26.6200 C   0  0  0  0  0  2  0  0  0  0  0  0
  -28.9080  -22.5470   24.2050 C   0  0  0  0  0  3  0  0  0  0  0  0
  -29.6160  -22.2260   25.4550 N   0  0  0  0  0  0  0  0  0  0  0  0
  -31.3120  -21.1620   26.6460 O   0  0  0  0  0  0  0  0  0  0  0  0
  -29.6360  -23.6150   23.3640 C   0  0  0  0  0  0  0  0  0  0  0  0
  -29.1480  -23.8350   22.1380 N   0  0  0  0  0  0  0  0  0  0  0  0
  -30.5870  -24.2520   23.8240 O   0  0  0  0  0  0  0  0  0  0  0  0
  -28.3870  -23.2430   21.8310 H   0  0  0  0  0  0  0  0  0  0  0  0
  -29.5020  -24.9610   21.2800 C   0  0  0  0  0  2  0  0  0  0  0  0
  -28.2950  -25.3810   20.4260 C   0  0  0  0  0  2  0  0  0  0  0  0
  -28.4130  -26.7630   20.0940 O   0  0  0  0  0  0  0  0  0  0  0  0
  -24.6120  -31.8730   23.2130 C   0  0  0  0  0  0  0  0  0  0  0  0
  -27.2360  -27.4730   20.0870 C   0  0  0  0  0  0  0  0  0  0  0  0
  -23.3980  -30.4980   21.5530 C   0  0  0  0  0  3  0  0  0  0  0  0
  -24.8420  -28.9670   20.1140 C   0  0  0  0  0  0  0  0  0  0  0  0
  -25.9230  -30.8520   21.3580 C   0  0  0  0  0  2  0  0  0  0  0  0
  -26.0000  -29.4900   20.7020 C   0  0  0  0  0  0  0  0  0  0  0  0
  -27.2010  -28.7510   20.6810 C   0  0  0  0  0  3  0  0  0  0  0  0
  -26.0610  -26.9560   19.4930 C   0  0  0  0  0  3  0  0  0  0  0  0
  -24.8650  -27.6990   19.5060 C   0  0  0  0  0  3  0  0  0  0  0  0
  -23.6030  -29.8310   20.1670 C   0  0  0  0  0  2  0  0  0  0  0  0
  -24.6620  -31.0870   22.1000 N   0  0  0  0  0  0  0  0  0  0  0  0
  -23.5310  -32.1430   23.7560 O   0  0  0  0  0  0  0  0  0  0  0  0
  -22.7400  -29.4680   22.5000 C   0  0  0  0  0  0  0  0  0  0  0  0
  -21.4130  -29.3030   22.3760 N   0  0  0  0  0  0  0  0  0  0  0  0
  -23.4200  -28.8230   23.3040 O   0  0  0  0  0  0  0  0  0  0  0  0
  -20.9280  -29.8740   21.6980 H   0  0  0  0  0  0  0  0  0  0  0  0
  -18.0280  -28.1370   22.8520 C   0  0  0  0  0  0  0  0  0  0  0  0
  -20.5870  -28.3640   23.1350 C   0  0  0  0  0  3  0  0  0  0  0  0
  -20.6770  -26.9390   22.5430 C   0  0  0  0  0  2  0  0  0  0  0  0
  -19.5740  -26.6390   21.5220 C   0  0  0  0  0  2  0  0  0  0  0  0
  -18.1920  -26.7920   22.1640 C   0  0  0  0  0  2  0  0  0  0  0  0
  -19.1530  -28.8820   23.2940 C   0  0  0  0  0  0  0  0  0  0  0  0
  -18.9450  -30.1430   23.8940 C   0  0  0  0  0  3  0  0  0  0  0  0
  -17.6450  -30.6570   24.0570 C   0  0  0  0  0  3  0  0  0  0  0  0
  -16.5340  -29.9080   23.6310 C   0  0  0  0  0  3  0  0  0  0  0  0
  -16.7270  -28.6490   23.0350 C   0  0  0  0  0  3  0  0  0  0  0  0
  -25.9020  -32.4860   23.8420 C   0  0  0  0  0  3  0  0  0  0  0  0
  -25.5890  -33.8650   24.2350 N   0  0  0  0  0  0  0  0  0  0  0  0
  -25.9040  -34.9500   23.5160 C   0  0  0  0  0  0  0  0  0  0  0  0
  -26.5610  -34.8950   22.4720 O   0  0  0  0  0  0  0  0  0  0  0  0
  -25.0020  -33.9820   25.0480 H   0  0  0  0  0  0  0  0  0  0  0  0
  -24.1490  -36.7310   23.2630 C   0  0  0  0  0  1  0  0  0  0  0  0
  -25.4100  -36.3130   24.0360 C   0  0  0  0  0  3  0  0  0  0  0  0
  -27.5620  -37.1760   24.8430 C   0  0  0  0  0  1  0  0  0  0  0  0
  -26.4270  -37.3840   23.9470 N   0  0  0  0  0  0  0  0  0  0  0  0
  -26.0150  -38.2890   24.1600 H   0  0  0  0  0  0  0  0  0  0  0  0
  -26.4450  -31.6630   25.0730 C   0  0  1  0  0  0  0  0  0  0  0  0
  -25.3710  -31.3730   26.1490 C   0  0  0  0  0  1  0  0  0  0  0  0
  -27.0230  -30.3070   24.6090 C   0  0  0  0  0  1  0  0  0  0  0  0
  -27.6090  -32.4290   25.7440 C   0  0  0  0  0  1  0  0  0  0  0  0
  -31.0890  -20.9100   24.3910 O   0  0  0  0  0  0  0  0  0  0  0  0
  -32.1100  -19.9250   24.2880 C   0  0  0  0  0  2  0  0  0  0  0  0
  -30.3020  -18.2210   23.7110 C   0  0  0  0  0  3  0  0  0  0  0  0
  -32.5450  -17.9160   22.8140 C   0  0  0  0  0  3  0  0  0  0  0  0
  -29.8910  -17.0280   23.0850 C   0  0  0  0  0  3  0  0  0  0  0  0
  -32.1360  -16.7240   22.1870 C   0  0  0  0  0  3  0  0  0  0  0  0
  -31.6320  -18.6720   23.5750 C   0  0  0  0  0  0  0  0  0  0  0  0
  -30.8000  -16.2710   22.3150 C   0  0  0  0  0  0  0  0  0  0  0  0
  -30.7740  -14.3450   20.7100 C   0  0  0  0  0  0  0  0  0  0  0  0
  -30.4250  -12.2970   19.3770 C   0  0  0  0  0  2  0  0  0  0  0  0
  -29.4850  -12.5350   18.1810 C   0  0  0  0  0  2  0  0  0  0  0  0
  -28.0080  -12.4010   18.6000 C   0  0  0  0  0  2  0  0  0  0  0  0
  -27.6720  -13.2050   19.8830 C   0  0  0  0  0  3  0  0  0  0  0  0
  -28.7100  -12.9160   20.9880 C   0  0  0  0  0  2  0  0  0  0  0  0
  -30.0530  -13.2220   20.4570 N   0  0  0  0  0  0  0  0  0  0  0  0
  -31.7750  -14.6600   20.0590 O   0  0  0  0  0  0  0  0  0  0  0  0
  -30.3200  -15.0570   21.7560 N   0  0  0  0  0  0  0  0  0  0  0  0
  -29.4750  -14.6890   22.1620 H   0  0  0  0  0  0  0  0  0  0  0  0
  -25.2630  -13.8150   20.5670 C   0  0  0  0  0  0  0  0  0  0  0  0
  -24.1870  -13.0430   20.9150 C   0  0  0  0  0  0  0  0  0  0  0  0
  -24.6410  -11.6890   20.8720 C   0  0  0  0  0  0  0  0  0  0  0  0
  -26.3080  -12.9320   20.3380 N   0  0  0  0  0  0  0  0  0  0  0  0
  -25.9340  -11.6480   20.5740 N   0  0  0  0  0  0  0  0  0  0  0  0
  -23.9060  -10.4280   21.0420 C   0  0  0  0  0  0  0  0  0  0  0  0
  -24.3610   -9.4180   21.9190 C   0  0  0  0  0  3  0  0  0  0  0  0
  -23.6280   -8.2220   22.0750 C   0  0  0  0  0  3  0  0  0  0  0  0
  -22.4260   -8.0250   21.3540 C   0  0  0  0  0  0  0  0  0  0  0  0
  -21.9900   -9.0240   20.4660 C   0  0  0  0  0  3  0  0  0  0  0  0
  -22.7240  -10.2120   20.3060 C   0  0  0  0  0  3  0  0  0  0  0  0
  -21.6630   -6.8850   21.4240 O   0  0  0  0  0  0  0  0  0  0  0  0
  -21.6840   -6.0700   22.5290 C   0  0  0  0  0  0  0  0  0  0  0  0
  -21.4010   -6.5610   23.8220 C   0  0  0  0  0  3  0  0  0  0  0  0
  -21.3670   -5.6770   24.9180 C   0  0  0  0  0  3  0  0  0  0  0  0
  -21.6050   -4.3030   24.7230 C   0  0  0  0  0  0  0  0  0  0  0  0
  -21.8830   -3.8110   23.4350 C   0  0  0  0  0  3  0  0  0  0  0  0
  -21.9200   -4.6930   22.3410 C   0  0  0  0  0  0  0  0  0  0  0  0
  -22.1670   -4.2120   21.0990 F   0  0  0  0  0  0  0  0  0  0  0  0
  -21.5640   -3.4510   25.7730 F   0  0  0  0  0  0  0  0  0  0  0  0
  -22.7890  -13.5250   21.1820 C   0  0  0  0  0  0  0  0  0  0  0  0
  -22.0520  -12.8270   22.0380 N   0  0  0  0  0  0  0  0  0  0  0  0
  -22.3590  -14.5550   20.6650 O   0  0  0  0  0  0  0  0  0  0  0  0
  -22.4130  -11.9970   22.4850 H   0  0  0  0  0  0  0  0  0  0  0  0
  -21.1140  -13.1320   22.2570 H   0  0  0  0  0  0  0  0  0  0  0  0
  -25.4330  -15.1870   20.4110 N   0  0  0  0  0  0  0  0  0  0  0  0
  -24.6630  -15.8380   20.5140 H   0  0  0  0  0  0  0  0  0  0  0  0
  -26.2910  -15.6290   20.1050 H   0  0  0  0  0  0  0  0  0  0  0  0
  1  7  2  0
  2  4  1  0
  3  2  1  0
  5  8  1  0
  5  3  1  0
  5  6  1  0
  6  1  1  0
  6  4  1  0
  8 10  2  0
  9  8  1  0
 11  9  1  0
 12  9  1  0
 13 12  1  0
 14 13  1  0
 15 26  2  0
 16 14  1  0
 16 21  1  0
 17 25  1  0
 17 27  1  0
 18 24  1  0
 18 20  1  0
 19 25  1  0
 20 19  1  0
 21 20  2  0
 22 23  1  0
 22 16  2  0
 23 18  2  0
 24 17  1  0
 25 15  1  0
 27 29  2  0
 28 27  1  0
 30 28  1  0
 31 40  2  0
 31 36  1  0
 32 28  1  0
 32 36  1  0
 33 32  1  0
 34 35  1  0
 34 33  1  0
 35 31  1  0
 36 37  2  0
 37 38  1  0
 39 38  2  0
 40 39  1  0
 41 15  1  0
 41 42  1  0
 41 51  1  0
 42 45  1  0
 43 47  1  0
 43 42  1  0
 44 43  2  0
 47 46  1  0
 49 47  1  0
 49 50  1  0
 49 48  1  0
 51 54  1  1
 51 52  1  0
 53 51  1  0
 55  1  1  0
 56 55  1  0
 58 61  2  0
 59 57  2  0
 60 62  2  0
 60 58  1  0
 61 57  1  0
 61 56  1  0
 62 59  1  0
 63 71  1  0
 64 69  1  0
 65 66  1  0
 65 64  1  0
 67 66  1  0
 67 76  1  0
 67 68  1  0
 69 63  1  0
 69 68  1  0
 70 63  2  0
 71 72  1  0
 71 62  1  0
 73 74  2  0
 74 93  1  0
 75 74  1  0
 75 78  1  0
 76 73  1  0
 76 77  1  0
 77 75  2  0
 78 79  1  0
 79 80  2  0
 81 84  1  0
 81 80  1  0
 82 81  2  0
 83 82  1  0
 83 78  2  0
 84 85  1  0
 85 86  1  0
 86 87  2  0
 88 87  1  0
 88 92  1  0
 89 88  2  0
 90 85  2  0
 90 89  1  0
 91 90  1  0
 93 94  1  0
 94 97  1  0
 94 96  1  0
 95 93  2  0
 98 99  1  0
 98 73  1  0
100 98  1  0
M  ISO  4  13 101  14 101  63 100  71 100
M  END
>  <TORSDO>  (30) 
F 22

>  <SCORE>  (30) 
15.558

>  <name>  (30) 
29

>  <ligand_id>  (30) 
29

>  <original_smiles>  (30) 
[H]c1c([H])c([H])c2c(c1[H])C([H])([H])C([H])([H])C([H])([H])C2([H])N([H])C(=O)C1([H])N(C(=O)C([H])(N([H])C(=O)C([H])(N([H])C([H])([H])[H])C([H])([H])[H])C(C([H])([H])[H])(C([H])([H])[H])C([H])([H])[H])C([H])([H])c2c([H])c(OC([H])([H])C([H])([H])N([H])C(=O)C3([H])N(C(=O)OC([H])([H])c4c([H])c([H])c(N([H])C(=O)N5C([H])([H])C([H])([H])C([H])([H])C([H])(n6nc(-c7c([H])c([H])c(Oc8c([H])c([H])c(F)c([H])c8F)c([H])c7[H])c(C(=O)N([H])[H])c6N([H])[H])C5([H])[H])c([H])c4[H])C([H])([H])C([H])([H])C3([H])[H])c([H])c([H])c2C1([H])[H]

>  <smiles>  (30) 
[H]c1c([H])c([H])c2c(c1[H])C([H])([H])C([H])([H])C([H])([H])C2([H])N([H])C(=O)C1([H])N(C(=O)C([H])(N([H])C(=O)C([H])(N([H])C([H])([H])[H])C([H])([H])[H])C(C([H])([H])[H])(C([H])([H])[H])C([H])([H])[H])C([H])([H])c2c([H])c(OC([H])([H])C([H])([H])N([H])C(=O)C3([H])N(C(=O)OC([H])([H])c4c([H])c([H])c(N([H])C(=O)N5C([H])([H])C([H])([H])C([H])([H])C([H])(n6nc(-c7c([H])c([H])c(Oc8c([H])c([H])c(F)c([H])c8F)c([H])c7[H])c(C(=O)N([H])[H])c6N([H])[H])C5([H])[H])c([H])c4[H])C([H])([H])C([H])([H])C3([H])[H])c([H])c([H])c2C1([H])[H]

$$$$
30:0:0
     RDKit          3D

 87 94  0  0  1  0  0  0  0  0999 V2000
  -29.5180  -20.6770   20.4400 C   0  0  0  0  0  0  0  0  0  0  0  0
  -28.6900  -21.8310   20.3180 N   0  0  0  0  0  0  0  0  0  0  0  0
  -30.7210  -20.8720   20.6110 O   0  0  0  0  0  0  0  0  0  0  0  0
  -27.7090  -21.6290   20.1700 H   0  0  0  0  0  0  0  0  0  0  0  0
  -29.0570  -19.0770   20.3940 C   0  0  0  0  0  3  0  0  0  0  0  0
  -30.1170  -17.7490   20.4550 C   0  0  0  0  0  3  0  0  0  0  0  0
  -30.4940  -15.0150   20.3560 C   0  0  0  0  0  0  0  0  0  0  0  0
  -30.3730  -12.6720   19.3940 C   0  0  0  0  0  2  0  0  0  0  0  0
  -29.4420  -12.6350   18.1600 C   0  0  0  0  0  2  0  0  0  0  0  0
  -27.9790  -12.4180   18.5910 C   0  0  0  0  0  2  0  0  0  0  0  0
  -27.5680  -13.3310   19.7770 C   0  0  0  0  0  3  0  0  0  0  0  0
  -28.6240  -13.3390   20.9020 C   0  0  0  0  0  2  0  0  0  0  0  0
  -29.8920  -13.7590   20.2940 N   0  0  0  0  0  0  0  0  0  0  0  0
  -31.6980  -15.0750   20.0830 O   0  0  0  0  0  0  0  0  0  0  0  0
  -29.7290  -16.2080   20.5140 N   0  0  0  0  0  0  0  0  0  0  0  0
  -28.7500  -16.0310   20.6840 H   0  0  0  0  0  0  0  0  0  0  0  0
  -25.1840  -13.8910   20.5140 C   0  0  0  0  0  0  0  0  0  0  0  0
  -24.1240  -13.1070   20.8790 C   0  0  0  0  0  0  0  0  0  0  0  0
  -24.5970  -11.7600   20.8440 C   0  0  0  0  0  0  0  0  0  0  0  0
  -26.2330  -13.0200   20.2720 N   0  0  0  0  0  0  0  0  0  0  0  0
  -25.8900  -11.7330   20.5380 N   0  0  0  0  0  0  0  0  0  0  0  0
  -23.8780  -10.4910   21.0270 C   0  0  0  0  0  0  0  0  0  0  0  0
  -24.2990   -9.5320   21.9740 C   0  0  0  0  0  3  0  0  0  0  0  0
  -23.5780   -8.3300   22.1440 C   0  0  0  0  0  3  0  0  0  0  0  0
  -22.4220   -8.0800   21.3690 C   0  0  0  0  0  0  0  0  0  0  0  0
  -22.0200   -9.0290   20.4110 C   0  0  0  0  0  3  0  0  0  0  0  0
  -22.7420  -10.2210   20.2390 C   0  0  0  0  0  3  0  0  0  0  0  0
  -21.6730   -6.9300   21.4480 O   0  0  0  0  0  0  0  0  0  0  0  0
  -21.5920   -6.2040   22.6090 C   0  0  0  0  0  0  0  0  0  0  0  0
  -21.0880   -6.7620   23.8030 C   0  0  0  0  0  3  0  0  0  0  0  0
  -20.9560   -5.9600   24.9540 C   0  0  0  0  0  3  0  0  0  0  0  0
  -21.3170   -4.6010   24.9110 C   0  0  0  0  0  0  0  0  0  0  0  0
  -21.8140   -4.0410   23.7200 C   0  0  0  0  0  3  0  0  0  0  0  0
  -21.9470   -4.8400   22.5720 C   0  0  0  0  0  0  0  0  0  0  0  0
  -22.4060   -4.2910   21.4220 F   0  0  0  0  0  0  0  0  0  0  0  0
  -21.1840   -3.8280   26.0150 F   0  0  0  0  0  0  0  0  0  0  0  0
  -22.7220  -13.5750   21.1440 C   0  0  0  0  0  0  0  0  0  0  0  0
  -21.9960  -12.8730   22.0070 N   0  0  0  0  0  0  0  0  0  0  0  0
  -22.2810  -14.5970   20.6220 O   0  0  0  0  0  0  0  0  0  0  0  0
  -22.3660  -12.0460   22.4510 H   0  0  0  0  0  0  0  0  0  0  0  0
  -21.0550  -13.1690   22.2280 H   0  0  0  0  0  0  0  0  0  0  0  0
  -25.3370  -15.2630   20.3400 N   0  0  0  0  0  0  0  0  0  0  0  0
  -24.5600  -15.9060   20.4450 H   0  0  0  0  0  0  0  0  0  0  0  0
  -26.1690  -15.7080   19.9750 H   0  0  0  0  0  0  0  0  0  0  0  0
  -29.0290  -23.3820   20.4160 C   0  0  0  0  0  3  0  0  0  0  0  0
  -27.9630  -24.6690   20.1410 C   0  0  0  0  0  3  0  0  0  0  0  0
  -28.2330  -26.2020   20.3050 O   0  0  0  0  0  0  0  0  0  0  0  0
  -24.6270  -31.9210   23.2680 C   0  0  0  0  0  0  0  0  0  0  0  0
  -27.1820  -27.1920   20.2370 C   0  0  0  0  0  0  0  0  0  0  0  0
  -23.4220  -30.5340   21.6260 C   0  0  0  0  0  3  0  0  0  0  0  0
  -24.8630  -28.9530   20.2010 C   0  0  0  0  0  0  0  0  0  0  0  0
  -25.9780  -30.7850   21.4650 C   0  0  0  0  0  2  0  0  0  0  0  0
  -26.0440  -29.3920   20.8100 C   0  0  0  0  0  0  0  0  0  0  0  0
  -27.2050  -28.5280   20.8090 C   0  0  0  0  0  3  0  0  0  0  0  0
  -25.9720  -26.8550   19.5890 C   0  0  0  0  0  3  0  0  0  0  0  0
  -24.8400  -27.6980   19.5740 C   0  0  0  0  0  3  0  0  0  0  0  0
  -23.6410  -29.8570   20.2470 C   0  0  0  0  0  2  0  0  0  0  0  0
  -24.6960  -31.1010   22.1750 N   0  0  0  0  0  0  0  0  0  0  0  0
  -23.5410  -32.2110   23.7940 O   0  0  0  0  0  0  0  0  0  0  0  0
  -22.7350  -29.5300   22.5850 C   0  0  0  0  0  0  0  0  0  0  0  0
  -21.4070  -29.3610   22.4510 N   0  0  0  0  0  0  0  0  0  0  0  0
  -23.4000  -28.9050   23.4160 O   0  0  0  0  0  0  0  0  0  0  0  0
  -20.9280  -29.9160   21.7570 H   0  0  0  0  0  0  0  0  0  0  0  0
  -18.0210  -28.1710   22.9390 C   0  0  0  0  0  0  0  0  0  0  0  0
  -20.5790  -28.4270   23.2190 C   0  0  0  0  0  3  0  0  0  0  0  0
  -20.6800  -26.9940   22.6470 C   0  0  0  0  0  2  0  0  0  0  0  0
  -19.5820  -26.6720   21.6280 C   0  0  0  0  0  2  0  0  0  0  0  0
  -18.1970  -26.8200   22.2650 C   0  0  0  0  0  2  0  0  0  0  0  0
  -19.1380  -28.9320   23.3730 C   0  0  0  0  0  0  0  0  0  0  0  0
  -18.9180  -30.1940   23.9650 C   0  0  0  0  0  3  0  0  0  0  0  0
  -17.6120  -30.6960   24.1260 C   0  0  0  0  0  3  0  0  0  0  0  0
  -16.5100  -29.9340   23.7070 C   0  0  0  0  0  3  0  0  0  0  0  0
  -16.7140  -28.6720   23.1200 C   0  0  0  0  0  3  0  0  0  0  0  0
  -25.9060  -32.5490   23.8980 C   0  0  0  0  0  3  0  0  0  0  0  0
  -26.4050  -31.7810   25.1850 C   0  0  1  0  0  0  0  0  0  0  0  0
  -25.3000  -31.5580   26.2440 C   0  0  0  0  0  1  0  0  0  0  0  0
  -26.9810  -30.3970   24.8110 C   0  0  0  0  0  1  0  0  0  0  0  0
  -27.5540  -32.5710   25.8530 C   0  0  0  0  0  1  0  0  0  0  0  0
  -25.6030  -33.9510   24.2250 N   0  0  0  0  0  0  0  0  0  0  0  0
  -25.9210  -35.0010   23.4550 C   0  0  0  0  0  0  0  0  0  0  0  0
  -26.5650  -34.8910   22.4090 O   0  0  0  0  0  0  0  0  0  0  0  0
  -25.0270  -34.1110   25.0380 H   0  0  0  0  0  0  0  0  0  0  0  0
  -24.1770  -36.7920   23.1520 C   0  0  0  0  0  1  0  0  0  0  0  0
  -25.4500  -36.3950   23.9180 C   0  0  0  0  0  3  0  0  0  0  0  0
  -27.6090  -37.2980   24.6640 C   0  0  0  0  0  1  0  0  0  0  0  0
  -26.4750  -37.4480   23.7550 N   0  0  0  0  0  0  0  0  0  0  0  0
  -26.0720  -38.3700   23.9000 H   0  0  0  0  0  0  0  0  0  0  0  0
  1  3  2  0
  2 45  1  0
  2  1  1  0
  4  2  1  0
  5  1  1  0
  5  6  2  0
  6 15  1  0
  7 15  1  0
  8 13  1  0
  9 10  1  0
  9  8  1  0
 11 10  1  0
 11 20  1  0
 11 12  1  0
 13  7  1  0
 13 12  1  0
 14  7  2  0
 15 16  1  0
 17 18  2  0
 18 37  1  0
 19 18  1  0
 19 22  1  0
 20 17  1  0
 20 21  1  0
 21 19  2  0
 22 23  1  0
 23 24  2  0
 25 28  1  0
 25 24  1  0
 26 25  2  0
 27 26  1  0
 27 22  2  0
 28 29  1  0
 29 30  1  0
 30 31  2  0
 32 31  1  0
 32 36  1  0
 33 32  2  0
 34 29  2  0
 34 33  1  0
 35 34  1  0
 37 38  1  0
 38 41  1  0
 38 40  1  0
 39 37  2  0
 42 43  1  0
 42 17  1  0
 44 42  1  0
 46 47  1  0
 46 45  2  0
 48 59  2  0
 49 47  1  0
 49 54  1  0
 50 58  1  0
 50 60  1  0
 51 57  1  0
 51 53  1  0
 52 58  1  0
 53 52  1  0
 54 53  2  0
 55 49  2  0
 56 55  1  0
 56 51  2  0
 57 50  1  0
 58 48  1  0
 60 62  2  0
 61 60  1  0
 63 61  1  0
 64 73  2  0
 64 69  1  0
 65 61  1  0
 65 69  1  0
 66 65  1  0
 67 68  1  0
 67 66  1  0
 68 64  1  0
 69 70  2  0
 70 71  1  0
 72 71  2  0
 73 72  1  0
 74 48  1  0
 74 79  1  0
 74 75  1  0
 75 78  1  1
 75 76  1  0
 77 75  1  0
 79 82  1  0
 80 84  1  0
 80 79  1  0
 81 80  2  0
 84 83  1  0
 86 87  1  0
 86 84  1  0
 86 85  1  0
M  ISO  4   7 100  15 100  46 101  47 101
M  END
>  <TORSDO>  (31) 
F 20

>  <SCORE>  (31) 
-14.390

>  <name>  (31) 
30

>  <ligand_id>  (31) 
30

>  <original_smiles>  (31) 
[H]c1c([H])c([H])c2c(c1[H])C([H])([H])C([H])([H])C([H])([H])C2([H])N([H])C(=O)C1([H])N(C(=O)C([H])(N([H])C(=O)C([H])(N([H])C([H])([H])[H])C([H])([H])[H])C(C([H])([H])[H])(C([H])([H])[H])C([H])([H])[H])C([H])([H])c2c([H])c(OC([H])([H])C([H])([H])N([H])C(=O)C([H])([H])C([H])([H])N([H])C(=O)N3C([H])([H])C([H])([H])C([H])([H])C([H])(n4nc(-c5c([H])c([H])c(Oc6c([H])c([H])c(F)c([H])c6F)c([H])c5[H])c(C(=O)N([H])[H])c4N([H])[H])C3([H])[H])c([H])c([H])c2C1([H])[H]

>  <smiles>  (31) 
[H]c1c([H])c([H])c2c(c1[H])C([H])([H])C([H])([H])C([H])([H])C2([H])N([H])C(=O)C1([H])N(C(=O)C([H])(N([H])C(=O)C([H])(N([H])C([H])([H])[H])C([H])([H])[H])C(C([H])([H])[H])(C([H])([H])[H])C([H])([H])[H])C([H])([H])c2c([H])c(OC([H])([H])C([H])([H])N([H])C(=O)C([H])([H])C([H])([H])N([H])C(=O)N3C([H])([H])C([H])([H])C([H])([H])C([H])(n4nc(-c5c([H])c([H])c(Oc6c([H])c([H])c(F)c([H])c6F)c([H])c5[H])c(C(=O)N([H])[H])c4N([H])[H])C3([H])[H])c([H])c([H])c2C1([H])[H]

$$$$
31:0:0
     RDKit          3D

 86 94  0  0  1  0  0  0  0  0999 V2000
  -29.1870  -21.3180   21.2240 C   0  0  0  0  0  3  0  0  0  0  0  0
  -28.3800  -21.1180   19.1690 C   0  0  0  0  0  3  0  0  0  0  0  0
  -29.5320  -19.8170   21.2250 C   0  0  0  0  0  3  0  0  0  0  0  0
  -28.7130  -19.6270   19.1720 C   0  0  0  0  0  3  0  0  0  0  0  0
  -28.5590  -22.1940   20.1860 C   0  0  0  0  0  0  0  0  0  0  0  0
  -29.3450  -18.7470   20.1930 C   0  0  0  0  0  0  0  0  0  0  0  0
  -30.2600  -15.7190   20.1520 C   0  0  0  0  0  0  0  0  0  0  0  0
  -30.3680  -13.1860   19.3140 C   0  0  0  0  0  2  0  0  0  0  0  0
  -29.4450  -12.7990   18.1230 C   0  0  0  0  0  2  0  0  0  0  0  0
  -28.0320  -12.4420   18.6110 C   0  0  0  0  0  2  0  0  0  0  0  0
  -27.5460  -13.4280   19.6970 C   0  0  0  0  0  3  0  0  0  0  0  0
  -28.6050  -13.7230   20.7850 C   0  0  0  0  0  2  0  0  0  0  0  0
  -29.7610  -14.3480   20.1030 N   0  0  0  0  0  0  0  0  0  0  0  0
  -31.4880  -15.6960   19.9420 O   0  0  0  0  0  0  0  0  0  0  0  0
  -29.4300  -17.0280   20.2420 N   0  0  0  0  0  0  0  0  0  0  0  0
  -28.4830  -16.6860   20.3090 H   0  0  0  0  0  0  0  0  0  0  0  0
  -25.2060  -13.9340   20.5460 C   0  0  0  0  0  0  0  0  0  0  0  0
  -24.1600  -13.1410   20.9260 C   0  0  0  0  0  0  0  0  0  0  0  0
  -24.6350  -11.7950   20.8480 C   0  0  0  0  0  0  0  0  0  0  0  0
  -26.2460  -13.0750   20.2480 N   0  0  0  0  0  0  0  0  0  0  0  0
  -25.9180  -11.7780   20.4970 N   0  0  0  0  0  0  0  0  0  0  0  0
  -23.9180  -10.5250   21.0260 C   0  0  0  0  0  0  0  0  0  0  0  0
  -24.3490   -9.5550   21.9580 C   0  0  0  0  0  3  0  0  0  0  0  0
  -23.6270   -8.3540   22.1270 C   0  0  0  0  0  3  0  0  0  0  0  0
  -22.4590   -8.1140   21.3660 C   0  0  0  0  0  0  0  0  0  0  0  0
  -22.0470   -9.0720   20.4240 C   0  0  0  0  0  3  0  0  0  0  0  0
  -22.7690  -10.2640   20.2520 C   0  0  0  0  0  3  0  0  0  0  0  0
  -21.7100   -6.9650   21.4440 O   0  0  0  0  0  0  0  0  0  0  0  0
  -21.6210   -6.2410   22.6070 C   0  0  0  0  0  0  0  0  0  0  0  0
  -21.1120   -6.8040   23.7970 C   0  0  0  0  0  3  0  0  0  0  0  0
  -20.9720   -6.0060   24.9500 C   0  0  0  0  0  3  0  0  0  0  0  0
  -21.3310   -4.6460   24.9130 C   0  0  0  0  0  0  0  0  0  0  0  0
  -21.8340   -4.0820   23.7270 C   0  0  0  0  0  3  0  0  0  0  0  0
  -21.9740   -4.8770   22.5770 C   0  0  0  0  0  0  0  0  0  0  0  0
  -22.4380   -4.3230   21.4310 F   0  0  0  0  0  0  0  0  0  0  0  0
  -21.1910   -3.8770   26.0190 F   0  0  0  0  0  0  0  0  0  0  0  0
  -22.7690  -13.6060   21.2420 C   0  0  0  0  0  0  0  0  0  0  0  0
  -22.0680  -12.8890   22.1130 N   0  0  0  0  0  0  0  0  0  0  0  0
  -22.3150  -14.6380   20.7530 O   0  0  0  0  0  0  0  0  0  0  0  0
  -22.4500  -12.0540   22.5310 H   0  0  0  0  0  0  0  0  0  0  0  0
  -21.1340  -13.1820   22.3670 H   0  0  0  0  0  0  0  0  0  0  0  0
  -25.3510  -15.3100   20.3950 N   0  0  0  0  0  0  0  0  0  0  0  0
  -24.5750  -15.9490   20.5370 H   0  0  0  0  0  0  0  0  0  0  0  0
  -26.1650  -15.7610   20.0010 H   0  0  0  0  0  0  0  0  0  0  0  0
  -27.7930  -23.9010   20.1770 C   0  0  0  0  0  2  0  0  0  0  0  0
  -28.1150  -25.6130   20.3110 O   0  0  0  0  0  0  0  0  0  0  0  0
  -24.6620  -31.9150   23.2510 C   0  0  0  0  0  0  0  0  0  0  0  0
  -27.1570  -26.8350   20.2600 C   0  0  0  0  0  0  0  0  0  0  0  0
  -23.4600  -30.5190   21.6230 C   0  0  0  0  0  3  0  0  0  0  0  0
  -24.8950  -28.8660   20.2080 C   0  0  0  0  0  0  0  0  0  0  0  0
  -26.0380  -30.6560   21.4870 C   0  0  0  0  0  2  0  0  0  0  0  0
  -26.0950  -29.2230   20.8340 C   0  0  0  0  0  0  0  0  0  0  0  0
  -27.2120  -28.2350   20.8280 C   0  0  0  0  0  3  0  0  0  0  0  0
  -25.9230  -26.6850   19.5790 C   0  0  0  0  0  3  0  0  0  0  0  0
  -24.8460  -27.6220   19.5560 C   0  0  0  0  0  3  0  0  0  0  0  0
  -23.6900  -29.8190   20.2540 C   0  0  0  0  0  2  0  0  0  0  0  0
  -24.7450  -31.0630   22.1720 N   0  0  0  0  0  0  0  0  0  0  0  0
  -23.5730  -32.2210   23.7660 O   0  0  0  0  0  0  0  0  0  0  0  0
  -22.7450  -29.5460   22.5990 C   0  0  0  0  0  0  0  0  0  0  0  0
  -21.4140  -29.3860   22.4710 N   0  0  0  0  0  0  0  0  0  0  0  0
  -23.4000  -28.9330   23.4470 O   0  0  0  0  0  0  0  0  0  0  0  0
  -20.9350  -29.9310   21.7680 H   0  0  0  0  0  0  0  0  0  0  0  0
  -18.0320  -28.1550   22.9720 C   0  0  0  0  0  0  0  0  0  0  0  0
  -20.5870  -28.4540   23.2490 C   0  0  0  0  0  3  0  0  0  0  0  0
  -20.7060  -27.0130   22.6990 C   0  0  0  0  0  2  0  0  0  0  0  0
  -19.6170  -26.6650   21.6810 C   0  0  0  0  0  2  0  0  0  0  0  0
  -18.2280  -26.8010   22.3110 C   0  0  0  0  0  2  0  0  0  0  0  0
  -19.1380  -28.9370   23.3980 C   0  0  0  0  0  0  0  0  0  0  0  0
  -18.8970  -30.2000   23.9820 C   0  0  0  0  0  3  0  0  0  0  0  0
  -17.5830  -30.6820   24.1390 C   0  0  0  0  0  3  0  0  0  0  0  0
  -16.4920  -29.8990   23.7250 C   0  0  0  0  0  3  0  0  0  0  0  0
  -16.7170  -28.6360   23.1490 C   0  0  0  0  0  3  0  0  0  0  0  0
  -25.9320  -32.5610   23.8830 C   0  0  0  0  0  3  0  0  0  0  0  0
  -25.6160  -33.9640   24.2200 N   0  0  0  0  0  0  0  0  0  0  0  0
  -25.9160  -35.0270   23.4620 C   0  0  0  0  0  0  0  0  0  0  0  0
  -26.5470  -34.9310   22.4070 O   0  0  0  0  0  0  0  0  0  0  0  0
  -25.0470  -34.1100   25.0410 H   0  0  0  0  0  0  0  0  0  0  0  0
  -24.1590  -36.8170   23.2140 C   0  0  0  0  0  1  0  0  0  0  0  0
  -25.4490  -36.4160   23.9480 C   0  0  0  0  0  3  0  0  0  0  0  0
  -27.6160  -37.3300   24.6580 C   0  0  0  0  0  1  0  0  0  0  0  0
  -26.4640  -37.4780   23.7730 N   0  0  0  0  0  0  0  0  0  0  0  0
  -26.0580  -38.3960   23.9330 H   0  0  0  0  0  0  0  0  0  0  0  0
  -26.4320  -31.8030   25.1750 C   0  0  1  0  0  0  0  0  0  0  0  0
  -25.3290  -31.5820   26.2370 C   0  0  0  0  0  1  0  0  0  0  0  0
  -27.0120  -30.4160   24.8140 C   0  0  0  0  0  1  0  0  0  0  0  0
  -27.5810  -32.5990   25.8380 C   0  0  0  0  0  1  0  0  0  0  0  0
  1  3  1  0
  2  4  2  0
  2  5  1  0
  4  6  1  0
  5  1  2  0
  6 15  1  0
  6  3  2  0
  7 15  1  0
  8 13  1  0
  9 10  1  0
  9  8  1  0
 11 10  1  0
 11 20  1  0
 11 12  1  0
 13  7  1  0
 13 12  1  0
 14  7  2  0
 15 16  1  0
 17 18  2  0
 18 37  1  0
 19 18  1  0
 19 22  1  0
 20 21  1  0
 20 17  1  0
 21 19  2  0
 22 23  1  0
 23 24  2  0
 25 28  1  0
 25 24  1  0
 26 25  2  0
 27 26  1  0
 27 22  2  0
 28 29  1  0
 29 30  1  0
 30 31  2  0
 32 31  1  0
 32 36  1  0
 33 32  2  0
 34 29  2  0
 34 33  1  0
 35 34  1  0
 37 38  1  0
 38 41  1  0
 38 40  1  0
 39 37  2  0
 42 43  1  0
 42 17  1  0
 44 42  1  0
 45  5  1  0
 45 46  1  0
 47 58  2  0
 48 46  1  0
 48 53  1  0
 49 57  1  0
 49 59  1  0
 50 56  1  0
 50 52  1  0
 51 57  1  0
 52 51  1  0
 53 52  2  0
 54 48  2  0
 55 54  1  0
 55 50  2  0
 56 49  1  0
 57 47  1  0
 59 61  2  0
 60 59  1  0
 62 60  1  0
 63 72  2  0
 63 68  1  0
 64 60  1  0
 64 68  1  0
 65 64  1  0
 66 67  1  0
 66 65  1  0
 67 63  1  0
 68 69  2  0
 69 70  1  0
 71 70  2  0
 72 71  1  0
 73 47  1  0
 73 74  1  0
 73 83  1  0
 74 77  1  0
 75 79  1  0
 75 74  1  0
 76 75  2  0
 79 78  1  0
 81 82  1  0
 81 79  1  0
 81 80  1  0
 83 86  1  1
 83 84  1  0
 85 83  1  0
M  ISO  4   7 100  15 100  45 101  46 101
M  END
>  <TORSDO>  (32) 
F 17

>  <SCORE>  (32) 
-16.448

>  <name>  (32) 
31

>  <ligand_id>  (32) 
31

>  <original_smiles>  (32) 
[H]c1c([H])c([H])c2c(c1[H])C([H])([H])C([H])([H])C([H])([H])C2([H])N([H])C(=O)C1([H])N(C(=O)C([H])(N([H])C(=O)C([H])(N([H])C([H])([H])[H])C([H])([H])[H])C(C([H])([H])[H])(C([H])([H])[H])C([H])([H])[H])C([H])([H])c2c([H])c(OC([H])([H])c3c([H])c([H])c(N([H])C(=O)N4C([H])([H])C([H])([H])C([H])([H])C([H])(n5nc(-c6c([H])c([H])c(Oc7c([H])c([H])c(F)c([H])c7F)c([H])c6[H])c(C(=O)N([H])[H])c5N([H])[H])C4([H])[H])c([H])c3[H])c([H])c([H])c2C1([H])[H]

>  <smiles>  (32) 
[H]c1c([H])c([H])c2c(c1[H])C([H])([H])C([H])([H])C([H])([H])C2([H])N([H])C(=O)C1([H])N(C(=O)C([H])(N([H])C(=O)C([H])(N([H])C([H])([H])[H])C([H])([H])[H])C(C([H])([H])[H])(C([H])([H])[H])C([H])([H])[H])C([H])([H])c2c([H])c(OC([H])([H])c3c([H])c([H])c(N([H])C(=O)N4C([H])([H])C([H])([H])C([H])([H])C([H])(n5nc(-c6c([H])c([H])c(Oc7c([H])c([H])c(F)c([H])c7F)c([H])c6[H])c(C(=O)N([H])[H])c5N([H])[H])C4([H])[H])c([H])c3[H])c([H])c([H])c2C1([H])[H]

$$$$
32:0:0
     RDKit          3D

 82 86  0  0  1  0  0  0  0  0999 V2000
  -28.2030  -25.2140   20.1870 O   0  0  0  0  0  1  0  0  0  0  0  0
  -24.6590  -31.8230   23.1160 C   0  0  0  0  0  0  0  0  0  0  0  0
  -27.2270  -26.5180   20.2190 C   0  0  0  0  0  0  0  0  0  0  0  0
  -23.5030  -30.4040   21.4840 C   0  0  0  0  0  3  0  0  0  0  0  0
  -24.9680  -28.6960   20.1210 C   0  0  0  0  0  0  0  0  0  0  0  0
  -26.0920  -30.4850   21.4080 C   0  0  0  0  0  2  0  0  0  0  0  0
  -26.1660  -29.0180   20.7700 C   0  0  0  0  0  0  0  0  0  0  0  0
  -27.2690  -27.9690   20.7710 C   0  0  0  0  0  3  0  0  0  0  0  0
  -25.9850  -26.4690   19.5130 C   0  0  0  0  0  3  0  0  0  0  0  0
  -24.9320  -27.4500   19.4670 C   0  0  0  0  0  3  0  0  0  0  0  0
  -23.7680  -29.6710   20.1330 C   0  0  0  0  0  2  0  0  0  0  0  0
  -24.7790  -30.9440   22.0540 N   0  0  0  0  0  0  0  0  0  0  0  0
  -23.5550  -32.1300   23.6020 O   0  0  0  0  0  0  0  0  0  0  0  0
  -22.7610  -29.4600   22.4680 C   0  0  0  0  0  0  0  0  0  0  0  0
  -21.4220  -29.3490   22.3610 N   0  0  0  0  0  0  0  0  0  0  0  0
  -23.4040  -28.8170   23.3000 O   0  0  0  0  0  0  0  0  0  0  0  0
  -20.9470  -29.9240   21.6780 H   0  0  0  0  0  0  0  0  0  0  0  0
  -18.0030  -28.1330   22.8590 C   0  0  0  0  0  0  0  0  0  0  0  0
  -20.5950  -28.3830   23.0970 C   0  0  0  0  0  0  0  0  0  0  0  0
  -20.7720  -26.9760   22.4620 C   0  0  0  0  0  3  0  0  0  0  0  0
  -19.5380  -26.4150   21.7220 C   0  0  0  0  0  3  0  0  0  0  0  0
  -18.0990  -26.8440   22.0560 C   0  0  0  0  0  3  0  0  0  0  0  0
  -19.1450  -28.8670   23.2920 C   0  0  0  0  0  0  0  0  0  0  0  0
  -18.9400  -30.1130   23.9270 C   0  0  0  0  0  3  0  0  0  0  0  0
  -17.6430  -30.6230   24.1300 C   0  0  0  0  0  3  0  0  0  0  0  0
  -16.5250  -29.8800   23.7210 C   0  0  0  0  0  3  0  0  0  0  0  0
  -16.7080  -28.6360   23.0960 C   0  0  0  0  0  3  0  0  0  0  0  0
  -25.9010  -32.4970   23.7720 C   0  0  0  0  0  3  0  0  0  0  0  0
  -25.5540  -33.8960   24.1020 N   0  0  0  0  0  0  0  0  0  0  0  0
  -25.8860  -34.9730   23.3740 C   0  0  0  0  0  0  0  0  0  0  0  0
  -26.5670  -34.8910   22.3500 O   0  0  0  0  0  0  0  0  0  0  0  0
  -24.9460  -34.0310   24.8960 H   0  0  0  0  0  0  0  0  0  0  0  0
  -24.1500  -36.7720   23.0460 C   0  0  0  0  0  1  0  0  0  0  0  0
  -25.3900  -36.3550   23.8530 C   0  0  0  0  0  3  0  0  0  0  0  0
  -27.5120  -37.2520   24.7100 C   0  0  0  0  0  1  0  0  0  0  0  0
  -26.4160  -37.4190   23.7590 N   0  0  0  0  0  0  0  0  0  0  0  0
  -26.0000  -38.3340   23.9110 H   0  0  0  0  0  0  0  0  0  0  0  0
  -26.3860  -31.7540   25.0790 C   0  0  1  0  0  0  0  0  0  0  0  0
  -25.2660  -31.5290   26.1240 C   0  0  0  0  0  1  0  0  0  0  0  0
  -26.9880  -30.3730   24.7440 C   0  0  0  0  0  1  0  0  0  0  0  0
  -27.5140  -32.5680   25.7560 C   0  0  0  0  0  1  0  0  0  0  0  0
  -28.2300  -23.3320   20.4390 C   0  0  0  0  0 15  0  0  0  0  0  0
  -28.7870  -21.3790   19.8640 C   0  0  0  0  0 15  0  0  0  0  0  0
  -29.3980  -19.4400   20.4120 C   0  0  0  0  0  1  0  0  0  0  0  0
  -30.1690  -16.0920   20.0360 C   0  0  0  0  0  0  0  0  0  0  0  0
  -30.3590  -13.4710   19.1990 C   0  0  0  0  0  2  0  0  0  0  0  0
  -29.4770  -12.8700   18.0550 C   0  0  0  0  0  2  0  0  0  0  0  0
  -28.1030  -12.4290   18.5740 C   0  0  0  0  0  2  0  0  0  0  0  0
  -27.5630  -13.4490   19.5940 C   0  0  0  0  0  3  0  0  0  0  0  0
  -28.6020  -13.9210   20.6470 C   0  0  0  0  0  2  0  0  0  0  0  0
  -29.6750  -14.6720   19.9180 N   0  0  0  0  0  0  0  0  0  0  0  0
  -31.4150  -15.9560   19.9590 O   0  0  0  0  0  0  0  0  0  0  0  0
  -29.4220  -17.5600   20.0550 N   0  0  0  0  0  0  0  0  0  0  0  0
  -28.4530  -17.3130   19.9040 H   0  0  0  0  0  0  0  0  0  0  0  0
  -25.2310  -13.9310   20.4500 C   0  0  0  0  0  0  0  0  0  0  0  0
  -24.1900  -13.1380   20.8360 C   0  0  0  0  0  0  0  0  0  0  0  0
  -24.6710  -11.7930   20.7770 C   0  0  0  0  0  0  0  0  0  0  0  0
  -26.2760  -13.0750   20.1660 N   0  0  0  0  0  0  0  0  0  0  0  0
  -25.9570  -11.7790   20.4270 N   0  0  0  0  0  0  0  0  0  0  0  0
  -23.9560  -10.5240   20.9740 C   0  0  0  0  0  0  0  0  0  0  0  0
  -24.4050   -9.5560   21.8990 C   0  0  0  0  0  3  0  0  0  0  0  0
  -23.6830   -8.3560   22.0890 C   0  0  0  0  0  3  0  0  0  0  0  0
  -22.4960   -8.1180   21.3550 C   0  0  0  0  0  0  0  0  0  0  0  0
  -22.0660   -9.0740   20.4200 C   0  0  0  0  0  3  0  0  0  0  0  0
  -22.7890  -10.2650   20.2280 C   0  0  0  0  0  3  0  0  0  0  0  0
  -21.7460   -6.9710   21.4550 O   0  0  0  0  0  0  0  0  0  0  0  0
  -21.7090   -6.2310   22.6100 C   0  0  0  0  0  0  0  0  0  0  0  0
  -21.2840   -6.7860   23.8360 C   0  0  0  0  0  3  0  0  0  0  0  0
  -21.1960   -5.9730   24.9840 C   0  0  0  0  0  3  0  0  0  0  0  0
  -21.5230   -4.6050   24.9060 C   0  0  0  0  0  0  0  0  0  0  0  0
  -21.9420   -4.0500   23.6840 C   0  0  0  0  0  3  0  0  0  0  0  0
  -22.0320   -4.8600   22.5390 C   0  0  0  0  0  0  0  0  0  0  0  0
  -22.4140   -4.3150   21.3590 F   0  0  0  0  0  0  0  0  0  0  0  0
  -21.4320   -3.8220   26.0060 F   0  0  0  0  0  0  0  0  0  0  0  0
  -22.7960  -13.6030   21.1400 C   0  0  0  0  0  0  0  0  0  0  0  0
  -22.0920  -12.8960   22.0160 N   0  0  0  0  0  0  0  0  0  0  0  0
  -22.3430  -14.6300   20.6380 O   0  0  0  0  0  0  0  0  0  0  0  0
  -22.4740  -12.0650   22.4440 H   0  0  0  0  0  0  0  0  0  0  0  0
  -21.1580  -13.1890   22.2630 H   0  0  0  0  0  0  0  0  0  0  0  0
  -25.3710  -15.3060   20.2780 N   0  0  0  0  0  0  0  0  0  0  0  0
  -24.5980  -15.9490   20.4140 H   0  0  0  0  0  0  0  0  0  0  0  0
  -26.2020  -15.7550   19.9170 H   0  0  0  0  0  0  0  0  0  0  0  0
  1  3  1  0
  2 13  2  0
  3  8  1  0
  4 12  1  0
  4 14  1  0
  5 11  1  0
  5  7  1  0
  6 12  1  0
  7  8  2  0
  7  6  1  0
  9  3  2  0
 10  9  1  0
 10  5  2  0
 11  4  1  0
 12  2  1  0
 14 16  2  0
 15 14  1  0
 15 19  1  0
 17 15  1  0
 18 27  2  0
 18 23  1  0
 19 23  1  0
 20 19  2  0
 21 22  2  0
 21 20  1  0
 22 18  1  0
 23 24  2  0
 24 25  1  0
 26 25  2  0
 27 26  1  0
 28  2  1  0
 28 29  1  0
 28 38  1  0
 29 32  1  0
 30 34  1  0
 30 29  1  0
 31 30  2  0
 34 33  1  0
 36 34  1  0
 36 37  1  0
 36 35  1  0
 38 41  1  1
 38 39  1  0
 40 38  1  0
 45 53  1  0
 46 51  1  0
 47 48  1  0
 47 46  1  0
 49 48  1  0
 49 58  1  0
 49 50  1  0
 51 45  1  0
 51 50  1  0
 52 45  2  0
 53 44  1  0
 54 53  1  0
 55 56  2  0
 56 75  1  0
 57 56  1  0
 57 60  1  0
 58 59  1  0
 58 55  1  0
 59 57  2  0
 60 61  1  0
 61 62  2  0
 63 66  1  0
 63 62  1  0
 64 63  2  0
 65 64  1  0
 65 60  2  0
 66 67  1  0
 67 68  1  0
 68 69  2  0
 70 69  1  0
 70 74  1  0
 71 70  2  0
 72 67  2  0
 72 71  1  0
 73 72  1  0
 75 76  1  0
 76 79  1  0
 76 78  1  0
 77 75  2  0
 80 81  1  0
 80 55  1  0
 82 80  1  0
M  ISO  4   1 101  42 101  45 100  53 100
M  END
>  <TORSDO>  (33) 
F 18

>  <SCORE>  (33) 
-16.165

>  <name>  (33) 
32

>  <ligand_id>  (33) 
32

>  <original_smiles>  (33) 
[H]c1c([H])c([H])c2c(c1[H])C([H])([H])C([H])([H])C([H])([H])C2([H])N([H])C(=O)C1([H])N(C(=O)C([H])(N([H])C(=O)C([H])(N([H])C([H])([H])[H])C([H])([H])[H])C(C([H])([H])[H])(C([H])([H])[H])C([H])([H])[H])C([H])([H])c2c([H])c(OC([H])([H])C([H])([H])C([H])([H])N([H])C(=O)N3C([H])([H])C([H])([H])C([H])([H])C([H])(n4nc(-c5c([H])c([H])c(Oc6c([H])c([H])c(F)c([H])c6F)c([H])c5[H])c(C(=O)N([H])[H])c4N([H])[H])C3([H])[H])c([H])c([H])c2C1([H])[H]

>  <smiles>  (33) 
[H]c1c([H])c([H])c2c(c1[H])C([H])([H])C([H])([H])C([H])([H])C2([H])N([H])C(=O)C1([H])N(C(=O)C([H])(N([H])C(=O)C([H])(N([H])C([H])([H])[H])C([H])([H])[H])C(C([H])([H])[H])(C([H])([H])[H])C([H])([H])[H])C([H])([H])c2c([H])c(OC([H])([H])C([H])([H])C([H])([H])N([H])C(=O)N3C([H])([H])C([H])([H])C([H])([H])C([H])(n4nc(-c5c([H])c([H])c(Oc6c([H])c([H])c(F)c([H])c6F)c([H])c5[H])c(C(=O)N([H])[H])c4N([H])[H])C3([H])[H])c([H])c([H])c2C1([H])[H]

$$$$
33:0:0
     RDKit          3D

 91 99  0  0  1  0  0  0  0  0999 V2000
  -30.1790  -21.6710   20.3980 C   0  0  0  0  0  0  0  0  0  0  0  0
  -29.1730  -22.5860   20.2460 N   0  0  0  0  0  0  0  0  0  0  0  0
  -31.3280  -22.0690   20.5980 O   0  0  0  0  0  0  0  0  0  0  0  0
  -28.2420  -22.2410   20.0600 H   0  0  0  0  0  0  0  0  0  0  0  0
  -31.0220  -19.3220   19.7700 C   0  0  0  0  0  3  0  0  0  0  0  0
  -28.8810  -19.4340   20.8510 C   0  0  0  0  0  3  0  0  0  0  0  0
  -31.0010  -17.8960   19.8140 C   0  0  0  0  0  3  0  0  0  0  0  0
  -28.8560  -18.0010   20.8960 C   0  0  0  0  0  3  0  0  0  0  0  0
  -29.9810  -20.1400   20.2980 C   0  0  0  0  0  0  0  0  0  0  0  0
  -29.9200  -17.1870   20.4050 C   0  0  0  0  0  0  0  0  0  0  0  0
  -30.5960  -14.6910   20.0440 C   0  0  0  0  0  0  0  0  0  0  0  0
  -30.3130  -12.4890   18.9190 C   0  0  0  0  0  2  0  0  0  0  0  0
  -29.2970  -12.6830   17.7720 C   0  0  0  0  0  2  0  0  0  0  0  0
  -27.8510  -12.5140   18.2840 C   0  0  0  0  0  2  0  0  0  0  0  0
  -27.5820  -13.3230   19.5820 C   0  0  0  0  0  3  0  0  0  0  0  0
  -28.7050  -13.1070   20.6210 C   0  0  0  0  0  2  0  0  0  0  0  0
  -29.9790  -13.4670   19.9750 N   0  0  0  0  0  0  0  0  0  0  0  0
  -31.7270  -14.8550   19.5770 O   0  0  0  0  0  0  0  0  0  0  0  0
  -29.8260  -15.7250   20.5120 N   0  0  0  0  0  0  0  0  0  0  0  0
  -28.9720  -15.3980   20.9420 H   0  0  0  0  0  0  0  0  0  0  0  0
  -25.2420  -13.9130   20.4650 C   0  0  0  0  0  0  0  0  0  0  0  0
  -24.1930  -13.1380   20.8740 C   0  0  0  0  0  0  0  0  0  0  0  0
  -24.6380  -11.7850   20.7710 C   0  0  0  0  0  0  0  0  0  0  0  0
  -26.2610  -13.0330   20.1350 N   0  0  0  0  0  0  0  0  0  0  0  0
  -25.9070  -11.7450   20.3790 N   0  0  0  0  0  0  0  0  0  0  0  0
  -23.9130  -10.5230   20.9670 C   0  0  0  0  0  0  0  0  0  0  0  0
  -24.3600   -9.5490   21.8870 C   0  0  0  0  0  3  0  0  0  0  0  0
  -23.6350   -8.3520   22.0710 C   0  0  0  0  0  3  0  0  0  0  0  0
  -22.4500   -8.1180   21.3330 C   0  0  0  0  0  0  0  0  0  0  0  0
  -22.0230   -9.0800   20.4020 C   0  0  0  0  0  3  0  0  0  0  0  0
  -22.7480  -10.2690   20.2160 C   0  0  0  0  0  3  0  0  0  0  0  0
  -21.6980   -6.9730   21.4260 O   0  0  0  0  0  0  0  0  0  0  0  0
  -21.6200   -6.2550   22.5930 C   0  0  0  0  0  0  0  0  0  0  0  0
  -21.1390   -6.8290   23.7890 C   0  0  0  0  0  3  0  0  0  0  0  0
  -21.0120   -6.0360   24.9480 C   0  0  0  0  0  3  0  0  0  0  0  0
  -21.3520   -4.6700   24.9090 C   0  0  0  0  0  0  0  0  0  0  0  0
  -21.8260   -4.0960   23.7160 C   0  0  0  0  0  3  0  0  0  0  0  0
  -21.9560   -4.8870   22.5590 C   0  0  0  0  0  0  0  0  0  0  0  0
  -22.3930   -4.3240   21.4070 F   0  0  0  0  0  0  0  0  0  0  0  0
  -21.2220   -3.9060   26.0180 F   0  0  0  0  0  0  0  0  0  0  0  0
  -22.8200  -13.6170   21.2470 C   0  0  0  0  0  0  0  0  0  0  0  0
  -22.1420  -12.9000   22.1360 N   0  0  0  0  0  0  0  0  0  0  0  0
  -22.3600  -14.6620   20.7880 O   0  0  0  0  0  0  0  0  0  0  0  0
  -22.5270  -12.0570   22.5340 H   0  0  0  0  0  0  0  0  0  0  0  0
  -21.2220  -13.2040   22.4250 H   0  0  0  0  0  0  0  0  0  0  0  0
  -25.4090  -15.2880   20.3240 N   0  0  0  0  0  0  0  0  0  0  0  0
  -24.6500  -15.9380   20.4920 H   0  0  0  0  0  0  0  0  0  0  0  0
  -26.2290  -15.7330   19.9330 H   0  0  0  0  0  0  0  0  0  0  0  0
  -29.3780  -24.0850   20.3590 C   0  0  0  0  0  3  0  0  0  0  0  0
  -28.1920  -25.0630   19.9560 C   0  0  0  0  0  3  0  0  0  0  0  0
  -28.3730  -26.5180   20.1900 O   0  0  0  0  0  0  0  0  0  0  0  0
  -24.6130  -31.8710   23.2430 C   0  0  0  0  0  0  0  0  0  0  0  0
  -27.2450  -27.3550   20.1430 C   0  0  0  0  0  0  0  0  0  0  0  0
  -23.4170  -30.4890   21.5810 C   0  0  0  0  0  3  0  0  0  0  0  0
  -24.8730  -28.9560   20.1450 C   0  0  0  0  0  0  0  0  0  0  0  0
  -25.9550  -30.8150   21.4100 C   0  0  0  0  0  2  0  0  0  0  0  0
  -26.0380  -29.4440   20.7490 C   0  0  0  0  0  0  0  0  0  0  0  0
  -27.2270  -28.6550   20.7390 C   0  0  0  0  0  3  0  0  0  0  0  0
  -26.0540  -26.9220   19.5140 C   0  0  0  0  0  3  0  0  0  0  0  0
  -24.8820  -27.7010   19.5210 C   0  0  0  0  0  3  0  0  0  0  0  0
  -23.6340  -29.8270   20.1960 C   0  0  0  0  0  2  0  0  0  0  0  0
  -24.6810  -31.0750   22.1350 N   0  0  0  0  0  0  0  0  0  0  0  0
  -23.5260  -32.1430   23.7750 O   0  0  0  0  0  0  0  0  0  0  0  0
  -22.7510  -29.4630   22.5280 C   0  0  0  0  0  0  0  0  0  0  0  0
  -21.4260  -29.2850   22.3910 N   0  0  0  0  0  0  0  0  0  0  0  0
  -23.4260  -28.8260   23.3420 O   0  0  0  0  0  0  0  0  0  0  0  0
  -20.9430  -29.8500   21.7070 H   0  0  0  0  0  0  0  0  0  0  0  0
  -18.0420  -28.1010   22.8730 C   0  0  0  0  0  0  0  0  0  0  0  0
  -20.6020  -28.3400   23.1450 C   0  0  0  0  0  3  0  0  0  0  0  0
  -20.6960  -26.9180   22.5460 C   0  0  0  0  0  2  0  0  0  0  0  0
  -19.5890  -26.6190   21.5270 C   0  0  0  0  0  2  0  0  0  0  0  0
  -18.2090  -26.7610   22.1750 C   0  0  0  0  0  2  0  0  0  0  0  0
  -19.1660  -28.8490   23.3140 C   0  0  0  0  0  0  0  0  0  0  0  0
  -18.9550  -30.1030   23.9260 C   0  0  0  0  0  3  0  0  0  0  0  0
  -17.6540  -30.6100   24.1030 C   0  0  0  0  0  3  0  0  0  0  0  0
  -16.5450  -29.8590   23.6770 C   0  0  0  0  0  3  0  0  0  0  0  0
  -16.7390  -28.6060   23.0690 C   0  0  0  0  0  3  0  0  0  0  0  0
  -25.8930  -32.4950   23.8780 C   0  0  0  0  0  3  0  0  0  0  0  0
  -26.3930  -31.7180   25.1580 C   0  0  1  0  0  0  0  0  0  0  0  0
  -25.2870  -31.4800   26.2130 C   0  0  0  0  0  1  0  0  0  0  0  0
  -26.9790  -30.3410   24.7660 C   0  0  0  0  0  1  0  0  0  0  0  0
  -27.5370  -32.5080   25.8370 C   0  0  0  0  0  1  0  0  0  0  0  0
  -25.5860  -33.8940   24.2130 N   0  0  0  0  0  0  0  0  0  0  0  0
  -25.9070  -34.9460   23.4480 C   0  0  0  0  0  0  0  0  0  0  0  0
  -26.5640  -34.8430   22.4090 O   0  0  0  0  0  0  0  0  0  0  0  0
  -25.0030  -34.0500   25.0210 H   0  0  0  0  0  0  0  0  0  0  0  0
  -24.1630  -36.7300   23.1290 C   0  0  0  0  0  1  0  0  0  0  0  0
  -25.4260  -36.3340   23.9110 C   0  0  0  0  0  3  0  0  0  0  0  0
  -27.5720  -37.2370   24.6910 C   0  0  0  0  0  1  0  0  0  0  0  0
  -26.4490  -37.3920   23.7680 N   0  0  0  0  0  0  0  0  0  0  0  0
  -26.0410  -38.3110   23.9170 H   0  0  0  0  0  0  0  0  0  0  0  0
  1  3  2  0
  2 49  1  0
  2  1  1  0
  4  2  1  0
  5  7  2  0
  5  9  1  0
  6  8  1  0
  7 10  1  0
  9  1  1  0
  9  6  2  0
 10 19  1  0
 10  8  2  0
 11 19  1  0
 12 17  1  0
 13 14  1  0
 13 12  1  0
 15 14  1  0
 15 24  1  0
 15 16  1  0
 17 11  1  0
 17 16  1  0
 18 11  2  0
 19 20  1  0
 21 22  2  0
 22 41  1  0
 23 22  1  0
 23 26  1  0
 24 25  1  0
 24 21  1  0
 25 23  2  0
 26 27  1  0
 27 28  2  0
 29 32  1  0
 29 28  1  0
 30 29  2  0
 31 30  1  0
 31 26  2  0
 32 33  1  0
 33 34  1  0
 34 35  2  0
 36 35  1  0
 36 40  1  0
 37 36  2  0
 38 33  2  0
 38 37  1  0
 39 38  1  0
 41 42  1  0
 42 45  1  0
 42 44  1  0
 43 41  2  0
 46 21  1  0
 46 47  1  0
 48 46  1  0
 50 51  1  0
 50 49  2  0
 52 63  2  0
 53 51  1  0
 53 58  1  0
 54 62  1  0
 54 64  1  0
 55 61  1  0
 55 57  1  0
 56 62  1  0
 57 56  1  0
 58 57  2  0
 59 60  1  0
 59 53  2  0
 60 55  2  0
 61 54  1  0
 62 52  1  0
 64 66  2  0
 65 64  1  0
 67 65  1  0
 68 77  2  0
 68 73  1  0
 69 65  1  0
 69 73  1  0
 70 69  1  0
 71 72  1  0
 71 70  1  0
 72 68  1  0
 73 74  2  0
 74 75  1  0
 76 75  2  0
 77 76  1  0
 78 52  1  0
 78 83  1  0
 78 79  1  0
 79 82  1  1
 79 80  1  0
 81 79  1  0
 83 86  1  0
 84 88  1  0
 84 83  1  0
 85 84  2  0
 88 87  1  0
 90 88  1  0
 90 91  1  0
 90 89  1  0
M  ISO  4  11 100  19 100  50 101  51 101
M  END
>  <TORSDO>  (34) 
F 19

>  <SCORE>  (34) 
-13.884

>  <name>  (34) 
33

>  <ligand_id>  (34) 
33

>  <original_smiles>  (34) 
[H]c1c([H])c([H])c2c(c1[H])C([H])([H])C([H])([H])C([H])([H])C2([H])N([H])C(=O)C1([H])N(C(=O)C([H])(N([H])C(=O)C([H])(N([H])C([H])([H])[H])C([H])([H])[H])C(C([H])([H])[H])(C([H])([H])[H])C([H])([H])[H])C([H])([H])c2c([H])c(OC([H])([H])C([H])([H])N([H])C(=O)c3c([H])c([H])c(N([H])C(=O)N4C([H])([H])C([H])([H])C([H])([H])C([H])(n5nc(-c6c([H])c([H])c(Oc7c([H])c([H])c(F)c([H])c7F)c([H])c6[H])c(C(=O)N([H])[H])c5N([H])[H])C4([H])[H])c([H])c3[H])c([H])c([H])c2C1([H])[H]

>  <smiles>  (34) 
[H]c1c([H])c([H])c2c(c1[H])C([H])([H])C([H])([H])C([H])([H])C2([H])N([H])C(=O)C1([H])N(C(=O)C([H])(N([H])C(=O)C([H])(N([H])C([H])([H])[H])C([H])([H])[H])C(C([H])([H])[H])(C([H])([H])[H])C([H])([H])[H])C([H])([H])c2c([H])c(OC([H])([H])C([H])([H])N([H])C(=O)c3c([H])c([H])c(N([H])C(=O)N4C([H])([H])C([H])([H])C([H])([H])C([H])(n5nc(-c6c([H])c([H])c(Oc7c([H])c([H])c(F)c([H])c7F)c([H])c6[H])c(C(=O)N([H])[H])c5N([H])[H])C4([H])[H])c([H])c3[H])c([H])c([H])c2C1([H])[H]

$$$$
34:0:0
     RDKit          3D

 87 94  0  0  1  0  0  0  0  0999 V2000
  -28.1420  -24.4190   20.6620 C   0  0  0  0  0  3  0  0  0  0  0  0
  -28.2630  -25.9830   20.2150 O   0  0  0  0  0  0  0  0  0  0  0  0
  -24.6320  -31.8750   23.1930 C   0  0  0  0  0  0  0  0  0  0  0  0
  -27.2150  -27.0250   20.2310 C   0  0  0  0  0  0  0  0  0  0  0  0
  -23.4470  -30.4640   21.5610 C   0  0  0  0  0  3  0  0  0  0  0  0
  -24.9010  -28.8560   20.1600 C   0  0  0  0  0  0  0  0  0  0  0  0
  -26.0080  -30.6990   21.4100 C   0  0  0  0  0  2  0  0  0  0  0  0
  -26.0850  -29.2850   20.7750 C   0  0  0  0  0  0  0  0  0  0  0  0
  -27.2410  -28.3900   20.7820 C   0  0  0  0  0  3  0  0  0  0  0  0
  -26.0000  -26.7290   19.5760 C   0  0  0  0  0  3  0  0  0  0  0  0
  -24.8800  -27.5960   19.5420 C   0  0  0  0  0  3  0  0  0  0  0  0
  -23.6800  -29.7710   20.1910 C   0  0  0  0  0  2  0  0  0  0  0  0
  -24.7180  -31.0400   22.1090 N   0  0  0  0  0  0  0  0  0  0  0  0
  -23.5410  -32.1640   23.7110 O   0  0  0  0  0  0  0  0  0  0  0  0
  -22.7550  -29.4710   22.5310 C   0  0  0  0  0  0  0  0  0  0  0  0
  -21.4260  -29.3060   22.4060 N   0  0  0  0  0  0  0  0  0  0  0  0
  -23.4220  -28.8490   23.3620 O   0  0  0  0  0  0  0  0  0  0  0  0
  -20.9410  -29.8570   21.7110 H   0  0  0  0  0  0  0  0  0  0  0  0
  -18.0430  -28.1040   22.9210 C   0  0  0  0  0  0  0  0  0  0  0  0
  -20.6030  -28.3710   23.1790 C   0  0  0  0  0  3  0  0  0  0  0  0
  -20.7040  -26.9380   22.6050 C   0  0  0  0  0  2  0  0  0  0  0  0
  -19.5990  -26.6140   21.5940 C   0  0  0  0  0  2  0  0  0  0  0  0
  -18.2190  -26.7560   22.2420 C   0  0  0  0  0  2  0  0  0  0  0  0
  -19.1620  -28.8680   23.3460 C   0  0  0  0  0  0  0  0  0  0  0  0
  -18.9420  -30.1280   23.9440 C   0  0  0  0  0  3  0  0  0  0  0  0
  -17.6370  -30.6260   24.1170 C   0  0  0  0  0  3  0  0  0  0  0  0
  -16.5330  -29.8590   23.7050 C   0  0  0  0  0  3  0  0  0  0  0  0
  -16.7370  -28.5990   23.1160 C   0  0  0  0  0  3  0  0  0  0  0  0
  -25.9020  -32.5250   23.8260 C   0  0  0  0  0  3  0  0  0  0  0  0
  -26.4080  -31.7620   25.1130 C   0  0  1  0  0  0  0  0  0  0  0  0
  -25.3060  -31.5300   26.1740 C   0  0  0  0  0  1  0  0  0  0  0  0
  -26.9950  -30.3820   24.7390 C   0  0  0  0  0  1  0  0  0  0  0  0
  -27.5520  -32.5620   25.7790 C   0  0  0  0  0  1  0  0  0  0  0  0
  -25.5790  -33.9220   24.1570 N   0  0  0  0  0  0  0  0  0  0  0  0
  -25.9100  -34.9840   23.4100 C   0  0  0  0  0  0  0  0  0  0  0  0
  -26.5830  -34.8890   22.3800 O   0  0  0  0  0  0  0  0  0  0  0  0
  -24.9810  -34.0700   24.9580 H   0  0  0  0  0  0  0  0  0  0  0  0
  -24.1800  -36.7810   23.0630 C   0  0  0  0  0  1  0  0  0  0  0  0
  -25.4200  -36.3720   23.8750 C   0  0  0  0  0  3  0  0  0  0  0  0
  -27.5510  -37.2570   24.7190 C   0  0  0  0  0  1  0  0  0  0  0  0
  -26.4530  -37.4270   23.7720 N   0  0  0  0  0  0  0  0  0  0  0  0
  -26.0460  -38.3460   23.9200 H   0  0  0  0  0  0  0  0  0  0  0  0
  -28.7190  -22.8640   19.9970 C   0  0  0  0  0  2  0  0  0  0  0  0
  -29.0180  -21.2500   20.7080 C   0  0  0  0  0  2  0  0  0  0  0  0
  -29.1480  -19.5930   20.0440 C   0  0  0  0  0  2  0  0  0  0  0  0
  -29.9220  -18.1040   20.6440 C   0  0  0  0  0  2  0  0  0  0  0  0
  -30.4670  -15.2550   20.2010 C   0  0  0  0  0  0  0  0  0  0  0  0
  -30.4300  -12.8470   19.2570 C   0  0  0  0  0  2  0  0  0  0  0  0
  -29.4930  -12.6830   18.0360 C   0  0  0  0  0  2  0  0  0  0  0  0
  -28.0530  -12.3950   18.4970 C   0  0  0  0  0  2  0  0  0  0  0  0
  -27.6150  -13.3350   19.6480 C   0  0  0  0  0  3  0  0  0  0  0  0
  -28.6750  -13.4600   20.7600 C   0  0  0  0  0  2  0  0  0  0  0  0
  -29.8990  -13.9620   20.1160 N   0  0  0  0  0  0  0  0  0  0  0  0
  -31.6870  -15.2800   19.9870 O   0  0  0  0  0  0  0  0  0  0  0  0
  -29.6830  -16.4940   20.3340 N   0  0  0  0  0  0  0  0  0  0  0  0
  -28.7000  -16.2650   20.3700 H   0  0  0  0  0  0  0  0  0  0  0  0
  -25.2450  -13.8710   20.4230 C   0  0  0  0  0  0  0  0  0  0  0  0
  -24.1980  -13.0830   20.8070 C   0  0  0  0  0  0  0  0  0  0  0  0
  -24.6830  -11.7400   20.7790 C   0  0  0  0  0  0  0  0  0  0  0  0
  -26.2960  -13.0080   20.1700 N   0  0  0  0  0  0  0  0  0  0  0  0
  -25.9710  -11.7200   20.4520 N   0  0  0  0  0  0  0  0  0  0  0  0
  -23.9770  -10.4670   20.9810 C   0  0  0  0  0  0  0  0  0  0  0  0
  -24.4230   -9.5130   21.9220 C   0  0  0  0  0  3  0  0  0  0  0  0
  -23.7090   -8.3100   22.1130 C   0  0  0  0  0  3  0  0  0  0  0  0
  -22.5370   -8.0510   21.3620 C   0  0  0  0  0  0  0  0  0  0  0  0
  -22.1110   -8.9950   20.4100 C   0  0  0  0  0  3  0  0  0  0  0  0
  -22.8260  -10.1890   20.2170 C   0  0  0  0  0  3  0  0  0  0  0  0
  -21.7980   -6.8970   21.4600 O   0  0  0  0  0  0  0  0  0  0  0  0
  -21.7530   -6.1680   22.6220 C   0  0  0  0  0  0  0  0  0  0  0  0
  -21.3060   -6.7310   23.8370 C   0  0  0  0  0  3  0  0  0  0  0  0
  -21.2080   -5.9280   24.9910 C   0  0  0  0  0  3  0  0  0  0  0  0
  -21.5480   -4.5630   24.9310 C   0  0  0  0  0  0  0  0  0  0  0  0
  -21.9890   -3.9990   23.7210 C   0  0  0  0  0  3  0  0  0  0  0  0
  -22.0880   -4.7990   22.5690 C   0  0  0  0  0  0  0  0  0  0  0  0
  -22.4930   -4.2460   21.3990 F   0  0  0  0  0  0  0  0  0  0  0  0
  -21.4480   -3.7890   26.0380 F   0  0  0  0  0  0  0  0  0  0  0  0
  -22.7980  -13.5440   21.0870 C   0  0  0  0  0  0  0  0  0  0  0  0
  -22.0870  -12.8420   21.9610 N   0  0  0  0  0  0  0  0  0  0  0  0
  -22.3440  -14.5620   20.5650 O   0  0  0  0  0  0  0  0  0  0  0  0
  -22.4710  -12.0210   22.4030 H   0  0  0  0  0  0  0  0  0  0  0  0
  -21.1490  -13.1320   22.1960 H   0  0  0  0  0  0  0  0  0  0  0  0
  -25.3860  -15.2450   20.2370 N   0  0  0  0  0  0  0  0  0  0  0  0
  -24.6050  -15.8810   20.3490 H   0  0  0  0  0  0  0  0  0  0  0  0
  -26.2100  -15.6950   19.8600 H   0  0  0  0  0  0  0  0  0  0  0  0
  -28.6040  -24.4890   22.1280 C   0  0  0  0  0  2  0  0  0  0  0  0
  -30.0220  -24.5420   22.1880 O   0  0  0  0  0  0  0  0  0  0  0  0
  -30.3580  -23.7850   21.7210 H   0  0  0  0  0  0  0  0  0  0  0  0
  1 43  1  0
  1 85  1  0
  2  4  1  0
  2  1  1  0
  3 14  2  0
  4  9  1  0
  5 13  1  0
  5 15  1  0
  6 12  1  0
  6  8  1  0
  7 13  1  0
  8  9  2  0
  8  7  1  0
 10  4  2  0
 11 10  1  0
 11  6  2  0
 12  5  1  0
 13  3  1  0
 15 17  2  0
 16 15  1  0
 18 16  1  0
 19 28  2  0
 19 24  1  0
 20 16  1  0
 20 24  1  0
 21 20  1  0
 22 23  1  0
 22 21  1  0
 23 19  1  0
 24 25  2  0
 25 26  1  0
 27 26  2  0
 28 27  1  0
 29  3  1  0
 29 34  1  0
 29 30  1  0
 30 33  1  1
 30 31  1  0
 32 30  1  0
 34 37  1  0
 35 39  1  0
 35 34  1  0
 36 35  2  0
 39 38  1  0
 41 39  1  0
 41 42  1  0
 41 40  1  0
 43 44  1  0
 45 46  1  0
 45 44  1  0
 47 55  1  0
 48 53  1  0
 49 50  1  0
 49 48  1  0
 51 50  1  0
 51 60  1  0
 51 52  1  0
 53 47  1  0
 53 52  1  0
 54 47  2  0
 55 56  1  0
 55 46  1  0
 57 58  2  0
 58 77  1  0
 59 58  1  0
 59 62  1  0
 60 57  1  0
 60 61  1  0
 61 59  2  0
 62 63  1  0
 63 64  2  0
 65 68  1  0
 65 64  1  0
 66 65  2  0
 67 66  1  0
 67 62  2  0
 68 69  1  0
 69 70  1  0
 70 71  2  0
 72 71  1  0
 72 76  1  0
 73 72  2  0
 74 69  2  0
 74 73  1  0
 75 74  1  0
 77 78  1  0
 78 81  1  0
 78 80  1  0
 79 77  2  0
 82 83  1  0
 82 57  1  0
 84 82  1  0
 85 86  1  0
 87 86  1  0
M  ISO  4   1 101   2 101  47 100  55 100
M  END
>  <TORSDO>  (35) 
F 22

>  <SCORE>  (35) 
-14.922

>  <name>  (35) 
34

>  <ligand_id>  (35) 
34

>  <original_smiles>  (35) 
[H]OC([H])([H])C([H])(Oc1c([H])c([H])c2c(c1[H])C([H])([H])N(C(=O)C([H])(N([H])C(=O)C([H])(N([H])C([H])([H])[H])C([H])([H])[H])C(C([H])([H])[H])(C([H])([H])[H])C([H])([H])[H])C([H])(C(=O)N([H])C1([H])c3c([H])c([H])c([H])c([H])c3C([H])([H])C([H])([H])C1([H])[H])C2([H])[H])C([H])([H])C([H])([H])C([H])([H])C([H])([H])N([H])C(=O)N1C([H])([H])C([H])([H])C([H])([H])C([H])(n2nc(-c3c([H])c([H])c(Oc4c([H])c([H])c(F)c([H])c4F)c([H])c3[H])c(C(=O)N([H])[H])c2N([H])[H])C1([H])[H]

>  <smiles>  (35) 
[H]OC([H])([H])C([H])(Oc1c([H])c([H])c2c(c1[H])C([H])([H])N(C(=O)C([H])(N([H])C(=O)C([H])(N([H])C([H])([H])[H])C([H])([H])[H])C(C([H])([H])[H])(C([H])([H])[H])C([H])([H])[H])C([H])(C(=O)N([H])C1([H])c3c([H])c([H])c([H])c([H])c3C([H])([H])C([H])([H])C1([H])[H])C2([H])[H])C([H])([H])C([H])([H])C([H])([H])C([H])([H])N([H])C(=O)N1C([H])([H])C([H])([H])C([H])([H])C([H])(n2nc(-c3c([H])c([H])c(Oc4c([H])c([H])c(F)c([H])c4F)c([H])c3[H])c(C(=O)N([H])[H])c2N([H])[H])C1([H])[H]

$$$$
35:0:0
     RDKit          3D

 91 99  0  0  1  0  0  0  0  0999 V2000
  -29.3480  -19.8220   20.5000 C   0  0  0  0  0  0  0  0  0  0  0  0
  -28.5830  -21.1040   18.4820 C   0  0  0  0  0  2  0  0  0  0  0  0
  -29.8100  -21.5970   17.6860 C   0  0  0  0  0  2  0  0  0  0  0  0
  -30.3480  -23.1370   19.5980 C   0  0  0  0  0  2  0  0  0  0  0  0
  -29.0300  -22.7610   20.3110 C   0  0  0  0  0  3  0  0  0  0  0  0
  -28.9020  -21.1260   19.9070 N   0  0  0  0  0  0  0  0  0  0  0  0
  -30.2540  -22.9440   18.1260 N   0  0  0  0  0  4  0  0  0  0  0  0
  -29.6150  -19.8580   21.7020 O   0  0  0  0  0  0  0  0  0  0  0  0
  -29.6210  -23.6280   17.7430 H   0  0  0  0  0  0  0  0  0  0  0  0
  -31.1530  -23.1330   17.7110 H   0  0  0  0  0  0  0  0  0  0  0  0
  -29.6670  -18.2340   19.7930 C   0  0  0  0  0  2  0  0  0  0  0  0
  -30.4410  -15.3710   20.1280 C   0  0  0  0  0  0  0  0  0  0  0  0
  -30.4200  -12.9190   19.2700 C   0  0  0  0  0  2  0  0  0  0  0  0
  -29.4870  -12.7330   18.0460 C   0  0  0  0  0  2  0  0  0  0  0  0
  -28.0420  -12.4610   18.5010 C   0  0  0  0  0  2  0  0  0  0  0  0
  -27.6090  -13.4050   19.6480 C   0  0  0  0  0  3  0  0  0  0  0  0
  -28.6730  -13.5390   20.7610 C   0  0  0  0  0  2  0  0  0  0  0  0
  -29.8950  -14.0530   20.1210 N   0  0  0  0  0  0  0  0  0  0  0  0
  -31.6370  -15.3900   19.8030 O   0  0  0  0  0  0  0  0  0  0  0  0
  -29.6650  -16.6260   20.2980 N   0  0  0  0  0  0  0  0  0  0  0  0
  -28.7600  -16.3990   20.6860 H   0  0  0  0  0  0  0  0  0  0  0  0
  -25.2420  -13.9480   20.4260 C   0  0  0  0  0  0  0  0  0  0  0  0
  -24.1900  -13.1670   20.8090 C   0  0  0  0  0  0  0  0  0  0  0  0
  -24.6650  -11.8190   20.7780 C   0  0  0  0  0  0  0  0  0  0  0  0
  -26.2880  -13.0800   20.1720 N   0  0  0  0  0  0  0  0  0  0  0  0
  -25.9540  -11.7920   20.4490 N   0  0  0  0  0  0  0  0  0  0  0  0
  -23.9470  -10.5520   20.9780 C   0  0  0  0  0  0  0  0  0  0  0  0
  -24.3890   -9.5910   21.9130 C   0  0  0  0  0  3  0  0  0  0  0  0
  -23.6680   -8.3920   22.1040 C   0  0  0  0  0  3  0  0  0  0  0  0
  -22.4900   -8.1450   21.3600 C   0  0  0  0  0  0  0  0  0  0  0  0
  -22.0670   -9.0940   20.4130 C   0  0  0  0  0  3  0  0  0  0  0  0
  -22.7880  -10.2850   20.2210 C   0  0  0  0  0  3  0  0  0  0  0  0
  -21.7420   -6.9980   21.4600 O   0  0  0  0  0  0  0  0  0  0  0  0
  -21.7040   -6.2600   22.6160 C   0  0  0  0  0  0  0  0  0  0  0  0
  -21.2700   -6.8140   23.8390 C   0  0  0  0  0  3  0  0  0  0  0  0
  -21.1820   -6.0030   24.9880 C   0  0  0  0  0  3  0  0  0  0  0  0
  -21.5170   -4.6370   24.9140 C   0  0  0  0  0  0  0  0  0  0  0  0
  -21.9430   -4.0810   23.6940 C   0  0  0  0  0  3  0  0  0  0  0  0
  -22.0330   -4.8900   22.5480 C   0  0  0  0  0  0  0  0  0  0  0  0
  -22.4240   -4.3460   21.3710 F   0  0  0  0  0  0  0  0  0  0  0  0
  -21.4240   -3.8550   26.0150 F   0  0  0  0  0  0  0  0  0  0  0  0
  -22.7930  -13.6360   21.0890 C   0  0  0  0  0  0  0  0  0  0  0  0
  -22.0750  -12.9400   21.9630 N   0  0  0  0  0  0  0  0  0  0  0  0
  -22.3470  -14.6580   20.5690 O   0  0  0  0  0  0  0  0  0  0  0  0
  -22.4480  -12.1140   22.4070 H   0  0  0  0  0  0  0  0  0  0  0  0
  -21.1380  -13.2400   22.1920 H   0  0  0  0  0  0  0  0  0  0  0  0
  -25.3930  -15.3210   20.2410 N   0  0  0  0  0  0  0  0  0  0  0  0
  -24.6180  -15.9660   20.3520 H   0  0  0  0  0  0  0  0  0  0  0  0
  -26.2140  -15.7550   19.8410 H   0  0  0  0  0  0  0  0  0  0  0  0
  -27.9670  -24.2280   20.1060 C   0  0  0  0  0  2  0  0  0  0  0  0
  -28.1740  -25.8710   20.3070 O   0  0  0  0  0  0  0  0  0  0  0  0
  -24.6200  -31.8930   23.2390 C   0  0  0  0  0  0  0  0  0  0  0  0
  -27.1640  -26.9770   20.2430 C   0  0  0  0  0  0  0  0  0  0  0  0
  -23.4230  -30.4900   21.6080 C   0  0  0  0  0  3  0  0  0  0  0  0
  -24.8680  -28.8720   20.1910 C   0  0  0  0  0  0  0  0  0  0  0  0
  -25.9910  -30.6900   21.4610 C   0  0  0  0  0  2  0  0  0  0  0  0
  -26.0580  -29.2750   20.8110 C   0  0  0  0  0  0  0  0  0  0  0  0
  -27.1990  -28.3490   20.8110 C   0  0  0  0  0  3  0  0  0  0  0  0
  -25.9430  -26.7290   19.5770 C   0  0  0  0  0  3  0  0  0  0  0  0
  -24.8370  -27.6190   19.5560 C   0  0  0  0  0  3  0  0  0  0  0  0
  -23.6520  -29.7980   20.2350 C   0  0  0  0  0  2  0  0  0  0  0  0
  -24.6990  -31.0530   22.1550 N   0  0  0  0  0  0  0  0  0  0  0  0
  -23.5300  -32.1870   23.7590 O   0  0  0  0  0  0  0  0  0  0  0  0
  -22.7270  -29.5020   22.5800 C   0  0  0  0  0  0  0  0  0  0  0  0
  -21.3970  -29.3340   22.4550 N   0  0  0  0  0  0  0  0  0  0  0  0
  -23.3910  -28.8850   23.4170 O   0  0  0  0  0  0  0  0  0  0  0  0
  -20.9130  -29.8840   21.7570 H   0  0  0  0  0  0  0  0  0  0  0  0
  -18.0180  -28.1130   22.9600 C   0  0  0  0  0  0  0  0  0  0  0  0
  -20.5750  -28.3980   23.2310 C   0  0  0  0  0  3  0  0  0  0  0  0
  -20.6870  -26.9610   22.6710 C   0  0  0  0  0  2  0  0  0  0  0  0
  -19.5920  -26.6220   21.6550 C   0  0  0  0  0  2  0  0  0  0  0  0
  -18.2060  -26.7610   22.2930 C   0  0  0  0  0  2  0  0  0  0  0  0
  -19.1290  -28.8890   23.3860 C   0  0  0  0  0  0  0  0  0  0  0  0
  -18.8960  -30.1510   23.9740 C   0  0  0  0  0  3  0  0  0  0  0  0
  -17.5850  -30.6390   24.1370 C   0  0  0  0  0  3  0  0  0  0  0  0
  -16.4890  -29.8610   23.7260 C   0  0  0  0  0  3  0  0  0  0  0  0
  -16.7060  -28.6010   23.1430 C   0  0  0  0  0  3  0  0  0  0  0  0
  -25.8890  -32.5400   23.8680 C   0  0  0  0  0  3  0  0  0  0  0  0
  -25.5770  -33.9460   24.1810 N   0  0  0  0  0  0  0  0  0  0  0  0
  -25.9190  -34.9970   23.4240 C   0  0  0  0  0  0  0  0  0  0  0  0
  -26.5930  -34.8860   22.3980 O   0  0  0  0  0  0  0  0  0  0  0  0
  -24.9780  -34.1050   24.9780 H   0  0  0  0  0  0  0  0  0  0  0  0
  -24.2090  -36.8110   23.0570 C   0  0  0  0  0  1  0  0  0  0  0  0
  -25.4410  -36.3930   23.8770 C   0  0  0  0  0  3  0  0  0  0  0  0
  -27.5730  -37.2720   24.7240 C   0  0  0  0  0  1  0  0  0  0  0  0
  -26.4820  -37.4380   23.7680 N   0  0  0  0  0  0  0  0  0  0  0  0
  -26.0800  -38.3610   23.9030 H   0  0  0  0  0  0  0  0  0  0  0  0
  -26.3830  -31.7930   25.1700 C   0  0  1  0  0  0  0  0  0  0  0  0
  -25.2750  -31.5880   26.2300 C   0  0  0  0  0  1  0  0  0  0  0  0
  -26.9620  -30.4030   24.8250 C   0  0  0  0  0  1  0  0  0  0  0  0
  -27.5290  -32.5960   25.8310 C   0  0  0  0  0  1  0  0  0  0  0  0
  1  8  2  0
  2  6  1  0
  3  7  1  0
  3  2  1  0
  4  5  1  0
  5 50  1  0
  6  5  1  0
  6  1  1  0
  7  4  1  0
  9  7  1  0
 10  7  1  0
 11 20  1  0
 11  1  1  0
 12 20  1  0
 13 18  1  0
 14 15  1  0
 14 13  1  0
 16 15  1  0
 16 25  1  0
 16 17  1  0
 18 12  1  0
 18 17  1  0
 19 12  2  0
 20 21  1  0
 22 23  2  0
 23 42  1  0
 24 23  1  0
 24 27  1  0
 25 22  1  0
 25 26  1  0
 26 24  2  0
 27 28  1  0
 28 29  2  0
 30 33  1  0
 30 29  1  0
 31 30  2  0
 32 31  1  0
 32 27  2  0
 33 34  1  0
 34 35  1  0
 35 36  2  0
 37 36  1  0
 37 41  1  0
 38 37  2  0
 39 34  2  0
 39 38  1  0
 40 39  1  0
 42 43  1  0
 43 46  1  0
 43 45  1  0
 44 42  2  0
 47 48  1  0
 47 22  1  0
 49 47  1  0
 50 51  1  0
 52 63  2  0
 53 51  1  0
 53 58  1  0
 54 62  1  0
 54 64  1  0
 55 61  1  0
 55 57  1  0
 56 62  1  0
 57 56  1  0
 58 57  2  0
 59 53  2  0
 60 59  1  0
 60 55  2  0
 61 54  1  0
 62 52  1  0
 64 66  2  0
 65 64  1  0
 67 65  1  0
 68 77  2  0
 68 73  1  0
 69 65  1  0
 69 73  1  0
 70 69  1  0
 71 72  1  0
 71 70  1  0
 72 68  1  0
 73 74  2  0
 74 75  1  0
 76 75  2  0
 77 76  1  0
 78 52  1  0
 78 79  1  0
 78 88  1  0
 79 82  1  0
 80 84  1  0
 80 79  1  0
 81 80  2  0
 84 83  1  0
 86 84  1  0
 86 87  1  0
 86 85  1  0
 88 91  1  1
 88 89  1  0
 90 88  1  0
M  ISO  4  12 100  20 100  50 101  51 101
M  END
>  <TORSDO>  (36) 
F 18

>  <SCORE>  (36) 
-16.386

>  <name>  (36) 
35

>  <ligand_id>  (36) 
35

>  <original_smiles>  (36) 
[H]c1c([H])c([H])c2c(c1[H])C([H])([H])C([H])([H])C([H])([H])C2([H])N([H])C(=O)C1([H])N(C(=O)C([H])(N([H])C(=O)C([H])(N([H])C([H])([H])[H])C([H])([H])[H])C(C([H])([H])[H])(C([H])([H])[H])C([H])([H])[H])C([H])([H])c2c([H])c(OC([H])([H])C3([H])N(C(=O)C([H])([H])N([H])C(=O)N4C([H])([H])C([H])([H])C([H])([H])C([H])(n5nc(-c6c([H])c([H])c(Oc7c([H])c([H])c(F)c([H])c7F)c([H])c6[H])c(C(=O)N([H])[H])c5N([H])[H])C4([H])[H])C([H])([H])C([H])([H])[N+]([H])([H])C3([H])[H])c([H])c([H])c2C1([H])[H]

>  <smiles>  (36) 
[H]c1c([H])c([H])c2c(c1[H])C([H])([H])C([H])([H])C([H])([H])C2([H])N([H])C(=O)C1([H])N(C(=O)C([H])(N([H])C(=O)C([H])(N([H])C([H])([H])[H])C([H])([H])[H])C(C([H])([H])[H])(C([H])([H])[H])C([H])([H])[H])C([H])([H])c2c([H])c(OC([H])([H])C3([H])N(C(=O)C([H])([H])N([H])C(=O)N4C([H])([H])C([H])([H])C([H])([H])C([H])(n5nc(-c6c([H])c([H])c(Oc7c([H])c([H])c(F)c([H])c7F)c([H])c6[H])c(C(=O)N([H])[H])c5N([H])[H])C4([H])[H])C([H])([H])C([H])([H])[N+]([H])([H])C3([H])[H])c([H])c([H])c2C1([H])[H]

$$$$
36:0:0
     RDKit          3D

 92 99  0  0  1  0  0  0  0  0999 V2000
  -29.0770  -19.7310   18.7460 C   0  0  0  0  0  1  0  0  0  0  0  0
  -29.8130  -19.8560   20.0920 C   0  0  2  0  0  0  0  0  0  0  0  0
  -31.2520  -20.0320   19.8320 N   0  0  0  0  0  0  0  0  0  0  0  0
  -31.7270  -20.2340   20.7170 H   0  0  0  0  0  0  0  0  0  0  0  0
  -31.3710  -20.9040   19.3100 H   0  0  0  0  0  0  0  0  0  0  0  0
  -29.6180  -18.4680   20.9080 C   0  0  0  0  0  2  0  0  0  0  0  0
  -30.2680  -17.2040   20.3340 N   0  0  0  0  0  4  0  0  0  0  0  0
  -31.2630  -17.2730   20.4830 H   0  0  0  0  0  0  0  0  0  0  0  0
  -30.1500  -17.2400   19.3340 H   0  0  0  0  0  0  0  0  0  0  0  0
  -30.5760  -14.7140   20.4210 C   0  0  0  0  0  0  0  0  0  0  0  0
  -30.3870  -12.4650   19.3480 C   0  0  0  0  0  2  0  0  0  0  0  0
  -29.4440  -12.5770   18.1280 C   0  0  0  0  0  2  0  0  0  0  0  0
  -27.9680  -12.4190   18.5490 C   0  0  0  0  0  2  0  0  0  0  0  0
  -27.6070  -13.2780   19.7900 C   0  0  0  0  0  3  0  0  0  0  0  0
  -28.6620  -13.1180   20.9080 C   0  0  0  0  0  2  0  0  0  0  0  0
  -29.9700  -13.4810   20.3400 N   0  0  0  0  0  0  0  0  0  0  0  0
  -31.7250  -14.8870   20.0040 O   0  0  0  0  0  0  0  0  0  0  0  0
  -29.7870  -15.7630   20.8370 N   0  0  0  0  0  0  0  0  0  0  0  0
  -28.8220  -15.6560   21.1040 H   0  0  0  0  0  0  0  0  0  0  0  0
  -25.2110  -13.8900   20.4890 C   0  0  0  0  0  0  0  0  0  0  0  0
  -24.1400  -13.1240   20.8590 C   0  0  0  0  0  0  0  0  0  0  0  0
  -24.5970  -11.7700   20.8380 C   0  0  0  0  0  0  0  0  0  0  0  0
  -26.2540  -13.0030   20.2660 N   0  0  0  0  0  0  0  0  0  0  0  0
  -25.8890  -11.7240   20.5380 N   0  0  0  0  0  0  0  0  0  0  0  0
  -23.8630  -10.5130   21.0320 C   0  0  0  0  0  0  0  0  0  0  0  0
  -24.2890   -9.5470   21.9690 C   0  0  0  0  0  3  0  0  0  0  0  0
  -23.5590   -8.3530   22.1510 C   0  0  0  0  0  3  0  0  0  0  0  0
  -22.3870   -8.1170   21.3950 C   0  0  0  0  0  0  0  0  0  0  0  0
  -21.9780   -9.0710   20.4460 C   0  0  0  0  0  3  0  0  0  0  0  0
  -22.7090  -10.2570   20.2630 C   0  0  0  0  0  3  0  0  0  0  0  0
  -21.6260   -6.9760   21.4860 O   0  0  0  0  0  0  0  0  0  0  0  0
  -21.5760   -6.2350   22.6380 C   0  0  0  0  0  0  0  0  0  0  0  0
  -21.1570   -6.7930   23.8660 C   0  0  0  0  0  3  0  0  0  0  0  0
  -21.0540   -5.9780   25.0110 C   0  0  0  0  0  3  0  0  0  0  0  0
  -21.3590   -4.6060   24.9300 C   0  0  0  0  0  0  0  0  0  0  0  0
  -21.7720   -4.0480   23.7080 C   0  0  0  0  0  3  0  0  0  0  0  0
  -21.8780   -4.8600   22.5650 C   0  0  0  0  0  0  0  0  0  0  0  0
  -22.2550   -4.3120   21.3830 F   0  0  0  0  0  0  0  0  0  0  0  0
  -21.2540   -3.8210   26.0280 F   0  0  0  0  0  0  0  0  0  0  0  0
  -22.7420  -13.6090   21.1170 C   0  0  0  0  0  0  0  0  0  0  0  0
  -22.0030  -12.9210   21.9810 N   0  0  0  0  0  0  0  0  0  0  0  0
  -22.3140  -14.6340   20.5870 O   0  0  0  0  0  0  0  0  0  0  0  0
  -22.3620  -12.0920   22.4320 H   0  0  0  0  0  0  0  0  0  0  0  0
  -21.0650  -13.2290   22.1940 H   0  0  0  0  0  0  0  0  0  0  0  0
  -25.3810  -15.2580   20.3000 N   0  0  0  0  0  0  0  0  0  0  0  0
  -24.6070  -15.9070   20.3930 H   0  0  0  0  0  0  0  0  0  0  0  0
  -26.2050  -15.6840   19.8970 H   0  0  0  0  0  0  0  0  0  0  0  0
  -29.2790  -21.2110   20.8130 C   0  0  0  0  0  2  0  0  0  0  0  0
  -29.1070  -22.4450   20.0000 O   0  0  0  0  0  0  0  0  0  0  0  0
  -29.0190  -23.7820   20.6500 C   0  0  0  0  0  3  0  0  0  0  0  0
  -28.1870  -24.9500   19.9070 C   0  0  0  0  0  3  0  0  0  0  0  0
  -28.3250  -26.4070   20.2580 O   0  0  0  0  0  0  0  0  0  0  0  0
  -24.6110  -31.8740   23.2280 C   0  0  0  0  0  0  0  0  0  0  0  0
  -27.2170  -27.2840   20.1690 C   0  0  0  0  0  0  0  0  0  0  0  0
  -23.4070  -30.4790   21.5860 C   0  0  0  0  0  3  0  0  0  0  0  0
  -24.8560  -28.9300   20.1520 C   0  0  0  0  0  0  0  0  0  0  0  0
  -25.9490  -30.7840   21.4090 C   0  0  0  0  0  2  0  0  0  0  0  0
  -26.0260  -29.4040   20.7600 C   0  0  0  0  0  0  0  0  0  0  0  0
  -27.2030  -28.5910   20.7640 C   0  0  0  0  0  3  0  0  0  0  0  0
  -26.0290  -26.8890   19.5110 C   0  0  0  0  0  3  0  0  0  0  0  0
  -24.8640  -27.6800   19.5160 C   0  0  0  0  0  3  0  0  0  0  0  0
  -23.6220  -29.8070   20.2040 C   0  0  0  0  0  2  0  0  0  0  0  0
  -24.6740  -31.0640   22.1310 N   0  0  0  0  0  0  0  0  0  0  0  0
  -23.5270  -32.1530   23.7620 O   0  0  0  0  0  0  0  0  0  0  0  0
  -22.7410  -29.4620   22.5450 C   0  0  0  0  0  0  0  0  0  0  0  0
  -21.4130  -29.2920   22.4200 N   0  0  0  0  0  0  0  0  0  0  0  0
  -23.4180  -28.8320   23.3610 O   0  0  0  0  0  0  0  0  0  0  0  0
  -20.9270  -29.8520   21.7330 H   0  0  0  0  0  0  0  0  0  0  0  0
  -18.0300  -28.1130   22.9290 C   0  0  0  0  0  0  0  0  0  0  0  0
  -20.5920  -28.3570   23.1900 C   0  0  0  0  0  3  0  0  0  0  0  0
  -20.6840  -26.9270   22.6080 C   0  0  0  0  0  2  0  0  0  0  0  0
  -19.5760  -26.6140   21.5980 C   0  0  0  0  0  2  0  0  0  0  0  0
  -18.1970  -26.7650   22.2460 C   0  0  0  0  0  2  0  0  0  0  0  0
  -19.1550  -28.8670   23.3570 C   0  0  0  0  0  0  0  0  0  0  0  0
  -18.9440  -30.1280   23.9550 C   0  0  0  0  0  3  0  0  0  0  0  0
  -17.6430  -30.6360   24.1280 C   0  0  0  0  0  3  0  0  0  0  0  0
  -16.5330  -29.8780   23.7150 C   0  0  0  0  0  3  0  0  0  0  0  0
  -16.7280  -28.6190   23.1210 C   0  0  0  0  0  3  0  0  0  0  0  0
  -25.8950  -32.5040   23.8510 C   0  0  0  0  0  3  0  0  0  0  0  0
  -25.5860  -33.9010   24.1870 N   0  0  0  0  0  0  0  0  0  0  0  0
  -25.9140  -34.9570   23.4310 C   0  0  0  0  0  0  0  0  0  0  0  0
  -26.5780  -34.8570   22.3950 O   0  0  0  0  0  0  0  0  0  0  0  0
  -24.9960  -34.0530   24.9920 H   0  0  0  0  0  0  0  0  0  0  0  0
  -24.1840  -36.7510   23.0930 C   0  0  0  0  0  1  0  0  0  0  0  0
  -25.4300  -36.3450   23.8950 C   0  0  0  0  0  3  0  0  0  0  0  0
  -27.5690  -37.2270   24.7150 C   0  0  0  0  0  1  0  0  0  0  0  0
  -26.4630  -37.3980   23.7780 N   0  0  0  0  0  0  0  0  0  0  0  0
  -26.0580  -38.3170   23.9300 H   0  0  0  0  0  0  0  0  0  0  0  0
  -26.4090  -31.7290   25.1260 C   0  0  1  0  0  0  0  0  0  0  0  0
  -25.3150  -31.4890   26.1930 C   0  0  0  0  0  1  0  0  0  0  0  0
  -26.9910  -30.3510   24.7320 C   0  0  0  0  0  1  0  0  0  0  0  0
  -27.5630  -32.5190   25.7890 C   0  0  0  0  0  1  0  0  0  0  0  0
  2  1  1  6
  2 48  1  0
  2  6  1  0
  3  2  1  0
  3  4  1  0
  5  3  1  0
  7  8  1  0
  7 18  1  0
  7  6  1  0
  9  7  1  0
 10 18  1  0
 11 16  1  0
 12 13  1  0
 12 11  1  0
 14 13  1  0
 14 23  1  0
 14 15  1  0
 16 10  1  0
 16 15  1  0
 17 10  2  0
 18 19  1  0
 20 21  2  0
 21 40  1  0
 22 21  1  0
 22 25  1  0
 23 20  1  0
 23 24  1  0
 24 22  2  0
 25 26  1  0
 26 27  2  0
 28 31  1  0
 28 27  1  0
 29 28  2  0
 30 29  1  0
 30 25  2  0
 31 32  1  0
 32 33  1  0
 33 34  2  0
 35 34  1  0
 35 39  1  0
 36 35  2  0
 37 32  2  0
 37 36  1  0
 38 37  1  0
 40 41  1  0
 41 44  1  0
 41 43  1  0
 42 40  2  0
 45 46  1  0
 45 20  1  0
 47 45  1  0
 49 50  1  0
 49 48  1  0
 51 52  1  0
 51 50  2  0
 53 64  2  0
 54 52  1  0
 54 59  1  0
 55 63  1  0
 55 65  1  0
 56 62  1  0
 56 58  1  0
 57 63  1  0
 58 59  2  0
 58 57  1  0
 60 61  1  0
 60 54  2  0
 61 56  2  0
 62 55  1  0
 63 53  1  0
 65 67  2  0
 66 65  1  0
 68 66  1  0
 69 78  2  0
 69 74  1  0
 70 66  1  0
 70 74  1  0
 71 70  1  0
 72 73  1  0
 72 71  1  0
 73 69  1  0
 74 75  2  0
 75 76  1  0
 77 76  2  0
 78 77  1  0
 79 53  1  0
 79 80  1  0
 79 89  1  0
 80 83  1  0
 81 85  1  0
 81 80  1  0
 82 81  2  0
 85 84  1  0
 87 85  1  0
 87 88  1  0
 87 86  1  0
 89 92  1  1
 89 90  1  0
 91 89  1  0
M  ISO  4  10 100  18 100  51 101  52 101
M  END
>  <TORSDO>  (37) 
F 23

>  <SCORE>  (37) 
-12.799

>  <name>  (37) 
36

>  <ligand_id>  (37) 
36

>  <original_smiles>  (37) 
[H]c1c([H])c([H])c2c(c1[H])C([H])([H])C([H])([H])C([H])([H])C2([H])N([H])C(=O)C1([H])N(C(=O)C([H])(N([H])C(=O)C([H])(N([H])C([H])([H])[H])C([H])([H])[H])C(C([H])([H])[H])(C([H])([H])[H])C([H])([H])[H])C([H])([H])c2c([H])c(OC([H])([H])C([H])([H])OC([H])([H])C(N([H])[H])(C([H])([H])[H])C([H])([H])[N+]([H])([H])N([H])C(=O)N3C([H])([H])C([H])([H])C([H])([H])C([H])(n4nc(-c5c([H])c([H])c(Oc6c([H])c([H])c(F)c([H])c6F)c([H])c5[H])c(C(=O)N([H])[H])c4N([H])[H])C3([H])[H])c([H])c([H])c2C1([H])[H]

>  <smiles>  (37) 
[H]c1c([H])c([H])c2c(c1[H])C([H])([H])C([H])([H])C([H])([H])C2([H])N([H])C(=O)C1([H])N(C(=O)C([H])(N([H])C(=O)C([H])(N([H])C([H])([H])[H])C([H])([H])[H])C(C([H])([H])[H])(C([H])([H])[H])C([H])([H])[H])C([H])([H])c2c([H])c(OC([H])([H])C([H])([H])OC([H])([H])C(N([H])[H])(C([H])([H])[H])C([H])([H])[N+]([H])([H])N([H])C(=O)N3C([H])([H])C([H])([H])C([H])([H])C([H])(n4nc(-c5c([H])c([H])c(Oc6c([H])c([H])c(F)c([H])c6F)c([H])c5[H])c(C(=O)N([H])[H])c4N([H])[H])C3([H])[H])c([H])c([H])c2C1([H])[H]

$$$$
37:0:0
     RDKit          3D

 89 96  0  0  1  0  0  0  0  0999 V2000
  -29.5930  -21.6440   21.1960 C   0  0  0  0  0  0  0  0  0  0  0  0
  -29.5320  -20.3390   20.8330 N   0  0  0  0  0  0  0  0  0  0  0  0
  -30.0150  -21.9910   22.3000 O   0  0  0  0  0  0  0  0  0  0  0  0
  -29.1980  -20.1440   19.8980 H   0  0  0  0  0  0  0  0  0  0  0  0
  -29.0530  -22.7180   20.2110 C   0  0  0  0  0  2  0  0  0  0  0  0
  -29.2090  -24.2270   20.6320 C   0  0  0  0  0  2  0  0  0  0  0  0
  -28.1790  -25.1810   19.9560 C   0  0  0  0  0  2  0  0  0  0  0  0
  -28.3230  -26.6020   20.2420 O   0  0  0  0  0  0  0  0  0  0  0  0
  -24.5870  -31.9140   23.2410 C   0  0  0  0  0  0  0  0  0  0  0  0
  -27.1790  -27.3940   20.1800 C   0  0  0  0  0  0  0  0  0  0  0  0
  -23.3690  -30.5150   21.6100 C   0  0  0  0  0  3  0  0  0  0  0  0
  -24.8060  -28.9640   20.1830 C   0  0  0  0  0  0  0  0  0  0  0  0
  -25.9010  -30.8420   21.4090 C   0  0  0  0  0  2  0  0  0  0  0  0
  -25.9730  -29.4650   20.7720 C   0  0  0  0  0  0  0  0  0  0  0  0
  -27.1610  -28.6870   20.7700 C   0  0  0  0  0  3  0  0  0  0  0  0
  -25.9930  -26.9390   19.5550 C   0  0  0  0  0  3  0  0  0  0  0  0
  -24.8140  -27.7040   19.5700 C   0  0  0  0  0  3  0  0  0  0  0  0
  -23.5700  -29.8340   20.2310 C   0  0  0  0  0  2  0  0  0  0  0  0
  -24.6380  -31.1060   22.1450 N   0  0  0  0  0  0  0  0  0  0  0  0
  -23.5090  -32.1970   23.7820 O   0  0  0  0  0  0  0  0  0  0  0  0
  -22.7100  -29.5010   22.5750 C   0  0  0  0  0  0  0  0  0  0  0  0
  -21.3850  -29.3240   22.4480 N   0  0  0  0  0  0  0  0  0  0  0  0
  -23.3910  -28.8770   23.3940 O   0  0  0  0  0  0  0  0  0  0  0  0
  -20.8980  -29.8770   21.7570 H   0  0  0  0  0  0  0  0  0  0  0  0
  -18.0080  -28.1350   22.9440 C   0  0  0  0  0  0  0  0  0  0  0  0
  -20.5640  -28.3940   23.2250 C   0  0  0  0  0  3  0  0  0  0  0  0
  -20.6690  -26.9570   22.6640 C   0  0  0  0  0  2  0  0  0  0  0  0
  -19.5710  -26.6250   21.6480 C   0  0  0  0  0  2  0  0  0  0  0  0
  -18.1870  -26.7780   22.2840 C   0  0  0  0  0  2  0  0  0  0  0  0
  -19.1250  -28.9000   23.3710 C   0  0  0  0  0  0  0  0  0  0  0  0
  -18.9040  -30.1700   23.9480 C   0  0  0  0  0  3  0  0  0  0  0  0
  -17.6000  -30.6740   24.1010 C   0  0  0  0  0  3  0  0  0  0  0  0
  -16.4970  -29.9060   23.6910 C   0  0  0  0  0  3  0  0  0  0  0  0
  -16.7020  -28.6390   23.1180 C   0  0  0  0  0  3  0  0  0  0  0  0
  -25.8780  -32.5400   23.8540 C   0  0  0  0  0  3  0  0  0  0  0  0
  -25.5770  -33.9390   24.1850 N   0  0  0  0  0  0  0  0  0  0  0  0
  -25.9110  -34.9900   23.4240 C   0  0  0  0  0  0  0  0  0  0  0  0
  -26.5770  -34.8840   22.3900 O   0  0  0  0  0  0  0  0  0  0  0  0
  -24.9850  -34.0950   24.9880 H   0  0  0  0  0  0  0  0  0  0  0  0
  -24.1900  -36.7910   23.0730 C   0  0  0  0  0  1  0  0  0  0  0  0
  -25.4310  -36.3810   23.8830 C   0  0  0  0  0  3  0  0  0  0  0  0
  -27.5720  -37.2540   24.7090 C   0  0  0  0  0  1  0  0  0  0  0  0
  -26.4680  -37.4290   23.7690 N   0  0  0  0  0  0  0  0  0  0  0  0
  -26.0670  -38.3500   23.9200 H   0  0  0  0  0  0  0  0  0  0  0  0
  -26.4010  -31.7660   25.1260 C   0  0  1  0  0  0  0  0  0  0  0  0
  -25.3140  -31.5330   26.2010 C   0  0  0  0  0  1  0  0  0  0  0  0
  -26.9750  -30.3850   24.7290 C   0  0  0  0  0  1  0  0  0  0  0  0
  -27.5590  -32.5550   25.7820 C   0  0  0  0  0  1  0  0  0  0  0  0
  -29.6260  -19.1820   21.7580 C   0  0  0  0  0  2  0  0  0  0  0  0
  -30.5600  -17.9930   21.3600 C   0  0  0  0  0  2  0  0  0  0  0  0
  -30.0410  -16.9890   20.2880 C   0  0  0  0  0  2  0  0  0  0  0  0
  -30.7080  -14.5370   20.2690 C   0  0  0  0  0  0  0  0  0  0  0  0
  -30.3980  -12.3610   19.1430 C   0  0  0  0  0  2  0  0  0  0  0  0
  -29.4300  -12.5780   17.9600 C   0  0  0  0  0  2  0  0  0  0  0  0
  -27.9630  -12.4490   18.4200 C   0  0  0  0  0  2  0  0  0  0  0  0
  -27.6610  -13.2800   19.6960 C   0  0  0  0  0  3  0  0  0  0  0  0
  -28.7390  -13.0420   20.7800 C   0  0  0  0  0  2  0  0  0  0  0  0
  -30.0540  -13.3430   20.1870 N   0  0  0  0  0  0  0  0  0  0  0  0
  -31.8250  -14.7210   19.7760 O   0  0  0  0  0  0  0  0  0  0  0  0
  -29.9590  -15.5700   20.7170 N   0  0  0  0  0  0  0  0  0  0  0  0
  -29.0860  -15.2960   21.1420 H   0  0  0  0  0  0  0  0  0  0  0  0
  -25.2820  -13.9090   20.4480 C   0  0  0  0  0  0  0  0  0  0  0  0
  -24.2140  -13.1470   20.8400 C   0  0  0  0  0  0  0  0  0  0  0  0
  -24.6640  -11.7920   20.8040 C   0  0  0  0  0  0  0  0  0  0  0  0
  -26.3150  -13.0190   20.2000 N   0  0  0  0  0  0  0  0  0  0  0  0
  -25.9460  -11.7400   20.4710 N   0  0  0  0  0  0  0  0  0  0  0  0
  -23.9290  -10.5370   21.0110 C   0  0  0  0  0  0  0  0  0  0  0  0
  -24.3790   -9.5630   21.9300 C   0  0  0  0  0  3  0  0  0  0  0  0
  -23.6470   -8.3710   22.1240 C   0  0  0  0  0  3  0  0  0  0  0  0
  -22.4520   -8.1460   21.4000 C   0  0  0  0  0  0  0  0  0  0  0  0
  -22.0230   -9.1090   20.4710 C   0  0  0  0  0  3  0  0  0  0  0  0
  -22.7540  -10.2910   20.2730 C   0  0  0  0  0  3  0  0  0  0  0  0
  -21.6890   -7.0080   21.5060 O   0  0  0  0  0  0  0  0  0  0  0  0
  -21.6690   -6.2580   22.6550 C   0  0  0  0  0  0  0  0  0  0  0  0
  -21.2980   -6.8130   23.8990 C   0  0  0  0  0  3  0  0  0  0  0  0
  -21.2230   -5.9920   25.0420 C   0  0  0  0  0  3  0  0  0  0  0  0
  -21.5100   -4.6170   24.9420 C   0  0  0  0  0  0  0  0  0  0  0  0
  -21.8750   -4.0630   23.7020 C   0  0  0  0  0  3  0  0  0  0  0  0
  -21.9510   -4.8810   22.5620 C   0  0  0  0  0  0  0  0  0  0  0  0
  -22.2830   -4.3380   21.3660 F   0  0  0  0  0  0  0  0  0  0  0  0
  -21.4310   -3.8260   26.0370 F   0  0  0  0  0  0  0  0  0  0  0  0
  -22.8270  -13.6380   21.1410 C   0  0  0  0  0  0  0  0  0  0  0  0
  -22.1120  -12.9500   22.0240 N   0  0  0  0  0  0  0  0  0  0  0  0
  -22.3880  -14.6660   20.6270 O   0  0  0  0  0  0  0  0  0  0  0  0
  -22.4810  -12.1180   22.4610 H   0  0  0  0  0  0  0  0  0  0  0  0
  -21.1830  -13.2600   22.2680 H   0  0  0  0  0  0  0  0  0  0  0  0
  -25.4550  -15.2780   20.2630 N   0  0  0  0  0  0  0  0  0  0  0  0
  -24.6950  -15.9390   20.3800 H   0  0  0  0  0  0  0  0  0  0  0  0
  -26.2990  -15.7070   19.9030 H   0  0  0  0  0  0  0  0  0  0  0  0
  1  3  2  0
  2  1  1  0
  2 49  1  0
  4  2  1  0
  5  6  1  0
  5  1  1  0
  7  8  1  0
  7  6  1  0
  9 20  2  0
 10  8  1  0
 10 15  1  0
 11 19  1  0
 11 21  1  0
 12 18  1  0
 12 14  1  0
 13 19  1  0
 14 13  1  0
 15 14  2  0
 16 17  1  0
 16 10  2  0
 17 12  2  0
 18 11  1  0
 19  9  1  0
 21 23  2  0
 22 21  1  0
 24 22  1  0
 25 34  2  0
 25 30  1  0
 26 22  1  0
 26 30  1  0
 27 26  1  0
 28 29  1  0
 28 27  1  0
 29 25  1  0
 30 31  2  0
 31 32  1  0
 33 32  2  0
 34 33  1  0
 35  9  1  0
 35 36  1  0
 35 45  1  0
 36 39  1  0
 37 41  1  0
 37 36  1  0
 38 37  2  0
 41 40  1  0
 43 41  1  0
 43 44  1  0
 43 42  1  0
 45 48  1  1
 45 46  1  0
 47 45  1  0
 50 49  1  0
 51 60  1  0
 51 50  1  0
 52 60  1  0
 53 58  1  0
 54 55  1  0
 54 53  1  0
 56 55  1  0
 56 65  1  0
 56 57  1  0
 58 52  1  0
 58 57  1  0
 59 52  2  0
 60 61  1  0
 62 63  2  0
 63 82  1  0
 64 63  1  0
 64 67  1  0
 65 62  1  0
 65 66  1  0
 66 64  2  0
 67 68  1  0
 68 69  2  0
 70 73  1  0
 70 69  1  0
 71 70  2  0
 72 71  1  0
 72 67  2  0
 73 74  1  0
 74 75  1  0
 75 76  2  0
 77 76  1  0
 77 81  1  0
 78 77  2  0
 79 74  2  0
 79 78  1  0
 80 79  1  0
 82 83  1  0
 83 86  1  0
 83 85  1  0
 84 82  2  0
 87 88  1  0
 87 62  1  0
 89 87  1  0
M  ISO  4   7 101   8 101  52 100  60 100
M  END
>  <TORSDO>  (38) 
F 22

>  <SCORE>  (38) 
-12.508

>  <name>  (38) 
37

>  <ligand_id>  (38) 
37

>  <original_smiles>  (38) 
[H]c1c([H])c([H])c2c(c1[H])C([H])([H])C([H])([H])C([H])([H])C2([H])N([H])C(=O)C1([H])N(C(=O)C([H])(N([H])C(=O)C([H])(N([H])C([H])([H])[H])C([H])([H])[H])C(C([H])([H])[H])(C([H])([H])[H])C([H])([H])[H])C([H])([H])c2c([H])c(OC([H])([H])C([H])([H])C([H])([H])C(=O)N([H])C([H])([H])C([H])([H])C([H])([H])N([H])C(=O)N3C([H])([H])C([H])([H])C([H])([H])C([H])(n4nc(-c5c([H])c([H])c(Oc6c([H])c([H])c(F)c([H])c6F)c([H])c5[H])c(C(=O)N([H])[H])c4N([H])[H])C3([H])[H])c([H])c([H])c2C1([H])[H]

>  <smiles>  (38) 
[H]c1c([H])c([H])c2c(c1[H])C([H])([H])C([H])([H])C([H])([H])C2([H])N([H])C(=O)C1([H])N(C(=O)C([H])(N([H])C(=O)C([H])(N([H])C([H])([H])[H])C([H])([H])[H])C(C([H])([H])[H])(C([H])([H])[H])C([H])([H])[H])C([H])([H])c2c([H])c(OC([H])([H])C([H])([H])C([H])([H])C(=O)N([H])C([H])([H])C([H])([H])C([H])([H])N([H])C(=O)N3C([H])([H])C([H])([H])C([H])([H])C([H])(n4nc(-c5c([H])c([H])c(Oc6c([H])c([H])c(F)c([H])c6F)c([H])c5[H])c(C(=O)N([H])[H])c4N([H])[H])C3([H])[H])c([H])c([H])c2C1([H])[H]

$$$$
38:0:0
     RDKit          3D

 93101  0  0  1  0  0  0  0  0999 V2000
  -28.6580  -24.1150   20.1480 C   0  0  0  0  0  0  0  0  0  0  0  0
  -31.3500  -22.3150   21.9320 C   0  0  0  0  0  2  0  0  0  0  0  0
  -31.3960  -21.8160   20.4980 C   0  0  0  0  0  2  0  0  0  0  0  0
  -30.2810  -23.4070   21.8970 C   0  0  0  0  0  2  0  0  0  0  0  0
  -29.9290  -21.9090   20.0400 C   0  0  0  0  0  3  0  0  0  0  0  0
  -29.4590  -23.1580   20.7050 N   0  0  0  0  0  0  0  0  0  0  0  0
  -28.1930  -23.9800   19.0110 O   0  0  0  0  0  0  0  0  0  0  0  0
  -28.2570  -25.3870   20.9620 C   0  0  0  0  0  2  0  0  0  0  0  0
  -28.3790  -26.6230   20.2110 O   0  0  0  0  0  0  0  0  0  0  0  0
  -24.5920  -31.8710   23.2600 C   0  0  0  0  0  0  0  0  0  0  0  0
  -27.2380  -27.4030   20.2020 C   0  0  0  0  0  0  0  0  0  0  0  0
  -23.3900  -30.4610   21.6220 C   0  0  0  0  0  3  0  0  0  0  0  0
  -24.8470  -28.9200   20.2010 C   0  0  0  0  0  0  0  0  0  0  0  0
  -25.9180  -30.8200   21.4250 C   0  0  0  0  0  2  0  0  0  0  0  0
  -26.0070  -29.4460   20.7870 C   0  0  0  0  0  0  0  0  0  0  0  0
  -27.2090  -28.6950   20.7810 C   0  0  0  0  0  3  0  0  0  0  0  0
  -26.0650  -26.8970   19.6070 C   0  0  0  0  0  3  0  0  0  0  0  0
  -24.8730  -27.6470   19.6060 C   0  0  0  0  0  3  0  0  0  0  0  0
  -23.6020  -29.7780   20.2450 C   0  0  0  0  0  2  0  0  0  0  0  0
  -24.6510  -31.0670   22.1600 N   0  0  0  0  0  0  0  0  0  0  0  0
  -23.5100  -32.1420   23.7980 O   0  0  0  0  0  0  0  0  0  0  0  0
  -22.7390  -29.4430   22.5860 C   0  0  0  0  0  0  0  0  0  0  0  0
  -21.4160  -29.2530   22.4550 N   0  0  0  0  0  0  0  0  0  0  0  0
  -23.4220  -28.8250   23.4070 O   0  0  0  0  0  0  0  0  0  0  0  0
  -20.9250  -29.8020   21.7620 H   0  0  0  0  0  0  0  0  0  0  0  0
  -18.0470  -28.0380   22.9410 C   0  0  0  0  0  0  0  0  0  0  0  0
  -20.6010  -28.3160   23.2270 C   0  0  0  0  0  3  0  0  0  0  0  0
  -20.7170  -26.8810   22.6620 C   0  0  0  0  0  2  0  0  0  0  0  0
  -19.6230  -26.5440   21.6430 C   0  0  0  0  0  2  0  0  0  0  0  0
  -18.2360  -26.6840   22.2770 C   0  0  0  0  0  2  0  0  0  0  0  0
  -19.1570  -28.8100   23.3730 C   0  0  0  0  0  0  0  0  0  0  0  0
  -18.9260  -30.0760   23.9540 C   0  0  0  0  0  3  0  0  0  0  0  0
  -17.6180  -30.5700   24.1070 C   0  0  0  0  0  3  0  0  0  0  0  0
  -16.5210  -29.7950   23.6910 C   0  0  0  0  0  3  0  0  0  0  0  0
  -16.7370  -28.5310   23.1140 C   0  0  0  0  0  3  0  0  0  0  0  0
  -25.8760  -32.5070   23.8780 C   0  0  0  0  0  3  0  0  0  0  0  0
  -26.3830  -31.7550   25.1690 C   0  0  1  0  0  0  0  0  0  0  0  0
  -25.2830  -31.5420   26.2360 C   0  0  0  0  0  1  0  0  0  0  0  0
  -26.9620  -30.3690   24.8030 C   0  0  0  0  0  1  0  0  0  0  0  0
  -27.5340  -32.5570   25.8240 C   0  0  0  0  0  1  0  0  0  0  0  0
  -25.5720  -33.9120   24.1810 N   0  0  0  0  0  0  0  0  0  0  0  0
  -25.9060  -34.9480   23.3990 C   0  0  0  0  0  0  0  0  0  0  0  0
  -26.5730  -34.8210   22.3690 O   0  0  0  0  0  0  0  0  0  0  0  0
  -24.9800  -34.0850   24.9800 H   0  0  0  0  0  0  0  0  0  0  0  0
  -24.1740  -36.7310   23.0220 C   0  0  0  0  0  1  0  0  0  0  0  0
  -25.4230  -36.3460   23.8300 C   0  0  0  0  0  3  0  0  0  0  0  0
  -27.5660  -37.2490   24.6180 C   0  0  0  0  0  1  0  0  0  0  0  0
  -26.4550  -37.3960   23.6820 N   0  0  0  0  0  0  0  0  0  0  0  0
  -26.0500  -38.3200   23.8130 H   0  0  0  0  0  0  0  0  0  0  0  0
  -29.0940  -20.6290   20.4180 C   0  0  0  0  0  2  0  0  0  0  0  0
  -29.4030  -18.0950   20.4400 C   0  0  0  0  0  0  0  0  0  0  0  0
  -29.8320  -19.3580   20.2270 N   0  0  0  0  0  0  0  0  0  0  0  0
  -28.2420  -17.8300   20.7530 O   0  0  0  0  0  0  0  0  0  0  0  0
  -30.8020  -19.4550   19.9590 H   0  0  0  0  0  0  0  0  0  0  0  0
  -30.4460  -16.9610   20.3030 C   0  0  0  0  0  2  0  0  0  0  0  0
  -30.6160  -14.4860   20.0520 C   0  0  0  0  0  0  0  0  0  0  0  0
  -30.2790  -12.2880   18.9880 C   0  0  0  0  0  2  0  0  0  0  0  0
  -29.3000  -12.4560   17.8080 C   0  0  0  0  0  2  0  0  0  0  0  0
  -27.8430  -12.3200   18.2920 C   0  0  0  0  0  2  0  0  0  0  0  0
  -27.5420  -13.1790   19.5500 C   0  0  0  0  0  3  0  0  0  0  0  0
  -28.6410  -13.0150   20.6250 C   0  0  0  0  0  2  0  0  0  0  0  0
  -29.9340  -13.3090   19.9920 N   0  0  0  0  0  0  0  0  0  0  0  0
  -31.7500  -14.6120   19.5850 O   0  0  0  0  0  0  0  0  0  0  0  0
  -29.9340  -15.5780   20.4610 N   0  0  0  0  0  0  0  0  0  0  0  0
  -28.9870  -15.4760   20.7940 H   0  0  0  0  0  0  0  0  0  0  0  0
  -25.1730  -13.7730   20.3520 C   0  0  0  0  0  0  0  0  0  0  0  0
  -24.1230  -12.9960   20.7650 C   0  0  0  0  0  0  0  0  0  0  0  0
  -24.5920  -11.6470   20.7270 C   0  0  0  0  0  0  0  0  0  0  0  0
  -26.2130  -12.8960   20.0860 N   0  0  0  0  0  0  0  0  0  0  0  0
  -25.8700  -11.6130   20.3710 N   0  0  0  0  0  0  0  0  0  0  0  0
  -23.8790  -10.3830   20.9530 C   0  0  0  0  0  0  0  0  0  0  0  0
  -24.3430   -9.4300   21.8880 C   0  0  0  0  0  3  0  0  0  0  0  0
  -23.6290   -8.2310   22.1020 C   0  0  0  0  0  3  0  0  0  0  0  0
  -22.4380   -7.9750   21.3810 C   0  0  0  0  0  0  0  0  0  0  0  0
  -21.9930   -8.9160   20.4370 C   0  0  0  0  0  3  0  0  0  0  0  0
  -22.7070  -10.1070   20.2200 C   0  0  0  0  0  3  0  0  0  0  0  0
  -21.6960   -6.8250   21.5030 O   0  0  0  0  0  0  0  0  0  0  0  0
  -21.6760   -6.1010   22.6670 C   0  0  0  0  0  0  0  0  0  0  0  0
  -21.2690   -6.6720   23.8930 C   0  0  0  0  0  3  0  0  0  0  0  0
  -21.1960   -5.8730   25.0520 C   0  0  0  0  0  3  0  0  0  0  0  0
  -21.5230   -4.5050   24.9870 C   0  0  0  0  0  0  0  0  0  0  0  0
  -21.9250   -3.9340   23.7670 C   0  0  0  0  0  3  0  0  0  0  0  0
  -21.9990   -4.7300   22.6100 C   0  0  0  0  0  0  0  0  0  0  0  0
  -22.3650   -4.1700   21.4320 F   0  0  0  0  0  0  0  0  0  0  0  0
  -21.4460   -3.7360   26.0980 F   0  0  0  0  0  0  0  0  0  0  0  0
  -22.7340  -13.4690   21.0860 C   0  0  0  0  0  0  0  0  0  0  0  0
  -22.0440  -12.7790   21.9860 N   0  0  0  0  0  0  0  0  0  0  0  0
  -22.2720  -14.4880   20.5740 O   0  0  0  0  0  0  0  0  0  0  0  0
  -22.4310  -11.9580   22.4250 H   0  0  0  0  0  0  0  0  0  0  0  0
  -21.1140  -13.0800   22.2410 H   0  0  0  0  0  0  0  0  0  0  0  0
  -25.3220  -15.1430   20.1620 N   0  0  0  0  0  0  0  0  0  0  0  0
  -24.5570  -15.7930   20.3070 H   0  0  0  0  0  0  0  0  0  0  0  0
  -26.1660  -15.5940   19.8300 H   0  0  0  0  0  0  0  0  0  0  0  0
  1  6  1  0
  1  8  1  0
  3  2  1  0
  4  2  1  0
  5 50  1  0
  5  3  1  0
  5  6  1  0
  6  4  1  0
  7  1  2  0
  9  8  1  0
 10 21  2  0
 11  9  1  0
 11 16  1  0
 12 20  1  0
 12 22  1  0
 13 19  1  0
 13 15  1  0
 14 20  1  0
 15 14  1  0
 16 15  2  0
 17 11  2  0
 18 17  1  0
 18 13  2  0
 19 12  1  0
 20 10  1  0
 22 24  2  0
 23 22  1  0
 25 23  1  0
 26 35  2  0
 26 31  1  0
 27 23  1  0
 27 31  1  0
 28 27  1  0
 29 30  1  0
 29 28  1  0
 30 26  1  0
 31 32  2  0
 32 33  1  0
 34 33  2  0
 35 34  1  0
 36 10  1  0
 36 41  1  0
 36 37  1  0
 37 40  1  1
 37 38  1  0
 39 37  1  0
 41 44  1  0
 42 46  1  0
 42 41  1  0
 43 42  2  0
 46 45  1  0
 48 49  1  0
 48 46  1  0
 48 47  1  0
 51 53  2  0
 52 50  1  0
 52 51  1  0
 54 52  1  0
 55 51  1  0
 55 64  1  0
 56 64  1  0
 57 62  1  0
 58 59  1  0
 58 57  1  0
 60 59  1  0
 60 69  1  0
 60 61  1  0
 62 56  1  0
 62 61  1  0
 63 56  2  0
 64 65  1  0
 66 67  2  0
 67 86  1  0
 68 67  1  0
 68 71  1  0
 69 66  1  0
 69 70  1  0
 70 68  2  0
 71 72  1  0
 72 73  2  0
 74 77  1  0
 74 73  1  0
 75 74  2  0
 76 75  1  0
 76 71  2  0
 77 78  1  0
 78 79  1  0
 79 80  2  0
 81 80  1  0
 81 85  1  0
 82 81  2  0
 83 78  2  0
 83 82  1  0
 84 83  1  0
 86 87  1  0
 87 90  1  0
 87 89  1  0
 88 86  2  0
 91 92  1  0
 91 66  1  0
 93 91  1  0
M  ISO  4   8 101   9 101  56 100  64 100
M  END
>  <TORSDO>  (39) 
F 20

>  <SCORE>  (39) 
-13.683

>  <name>  (39) 
38

>  <ligand_id>  (39) 
38

>  <original_smiles>  (39) 
[H]c1c([H])c([H])c2c(c1[H])C([H])([H])C([H])([H])C([H])([H])C2([H])N([H])C(=O)C1([H])N(C(=O)C([H])(N([H])C(=O)C([H])(N([H])C([H])([H])[H])C([H])([H])[H])C(C([H])([H])[H])(C([H])([H])[H])C([H])([H])[H])C([H])([H])c2c([H])c(OC([H])([H])C(=O)N3C([H])([H])C([H])([H])C([H])([H])C3([H])C([H])([H])N([H])C(=O)C([H])([H])N([H])C(=O)N3C([H])([H])C([H])([H])C([H])([H])C([H])(n4nc(-c5c([H])c([H])c(Oc6c([H])c([H])c(F)c([H])c6F)c([H])c5[H])c(C(=O)N([H])[H])c4N([H])[H])C3([H])[H])c([H])c([H])c2C1([H])[H]

>  <smiles>  (39) 
[H]c1c([H])c([H])c2c(c1[H])C([H])([H])C([H])([H])C([H])([H])C2([H])N([H])C(=O)C1([H])N(C(=O)C([H])(N([H])C(=O)C([H])(N([H])C([H])([H])[H])C([H])([H])[H])C(C([H])([H])[H])(C([H])([H])[H])C([H])([H])[H])C([H])([H])c2c([H])c(OC([H])([H])C(=O)N3C([H])([H])C([H])([H])C([H])([H])C3([H])C([H])([H])N([H])C(=O)C([H])([H])N([H])C(=O)N3C([H])([H])C([H])([H])C([H])([H])C([H])(n4nc(-c5c([H])c([H])c(Oc6c([H])c([H])c(F)c([H])c6F)c([H])c5[H])c(C(=O)N([H])[H])c4N([H])[H])C3([H])[H])c([H])c([H])c2C1([H])[H]

$$$$
39:0:0
     RDKit          3D

102109  0  0  1  0  0  0  0  0999 V2000
  -28.3810  -23.7250   21.0510 C   0  0  0  0  0  0  0  0  0  0  0  0
  -28.5230  -23.1190   22.2400 N   0  0  0  0  0  0  0  0  0  0  0  0
  -28.6360  -23.1520   19.9900 O   0  0  0  0  0  0  0  0  0  0  0  0
  -28.3150  -23.6820   23.0590 H   0  0  0  0  0  0  0  0  0  0  0  0
  -28.8370  -21.7140   22.4520 C   0  0  0  0  0  2  0  0  0  0  0  0
  -30.3340  -21.4380   22.2400 C   0  0  0  0  0  2  0  0  0  0  0  0
  -30.5580  -20.1080   21.5170 C   0  0  0  0  0  2  0  0  0  0  0  0
  -30.3420  -20.2500   20.0020 C   0  0  0  0  0  2  0  0  0  0  0  0
  -29.5540  -19.0950   19.3610 C   0  0  0  0  0  2  0  0  0  0  0  0
  -30.1160  -18.6980   17.9750 C   0  0  0  0  0  2  0  0  0  0  0  0
  -31.5020  -18.0470   18.0220 C   0  0  0  0  0  0  0  0  0  0  0  0
  -31.8620  -17.5090   19.1910 N   0  0  0  0  0  0  0  0  0  0  0  0
  -32.2180  -18.0280   17.0220 O   0  0  0  0  0  0  0  0  0  0  0  0
  -31.1950  -17.5920   19.9460 H   0  0  0  0  0  0  0  0  0  0  0  0
  -33.0320  -16.6930   19.4660 C   0  0  0  0  0  2  0  0  0  0  0  0
  -32.6880  -15.6070   20.5080 C   0  0  0  0  0  2  0  0  0  0  0  0
  -31.4680  -13.9470   19.0790 C   0  0  0  0  0  0  0  0  0  0  0  0
  -30.9370  -11.6100   18.5590 C   0  0  0  0  0  2  0  0  0  0  0  0
  -29.8500  -11.4100   17.4940 C   0  0  0  0  0  2  0  0  0  0  0  0
  -28.4610  -11.4040   18.1480 C   0  0  0  0  0  2  0  0  0  0  0  0
  -28.2370  -12.6380   19.0590 C   0  0  0  0  0  3  0  0  0  0  0  0
  -29.4190  -12.8450   20.0350 C   0  0  0  0  0  2  0  0  0  0  0  0
  -30.6800  -12.8660   19.2720 N   0  0  0  0  0  0  0  0  0  0  0  0
  -32.2340  -14.0670   18.1180 O   0  0  0  0  0  0  0  0  0  0  0  0
  -31.5590  -14.7330   20.1600 N   0  0  0  0  0  0  0  0  0  0  0  0
  -30.9280  -14.4990   20.9130 H   0  0  0  0  0  0  0  0  0  0  0  0
  -26.1420  -13.5540   20.2460 C   0  0  0  0  0  0  0  0  0  0  0  0
  -25.0350  -12.9290   20.7590 C   0  0  0  0  0  0  0  0  0  0  0  0
  -25.2420  -11.5310   20.5550 C   0  0  0  0  0  0  0  0  0  0  0  0
  -26.9610  -12.5430   19.7690 N   0  0  0  0  0  0  0  0  0  0  0  0
  -26.4300  -11.3160   20.0080 N   0  0  0  0  0  0  0  0  0  0  0  0
  -24.3510  -10.3880   20.7980 C   0  0  0  0  0  0  0  0  0  0  0  0
  -24.7080   -9.3470   21.6820 C   0  0  0  0  0  3  0  0  0  0  0  0
  -23.8280   -8.2680   21.9120 C   0  0  0  0  0  3  0  0  0  0  0  0
  -22.5740   -8.2240   21.2580 C   0  0  0  0  0  0  0  0  0  0  0  0
  -22.2320   -9.2510   20.3610 C   0  0  0  0  0  3  0  0  0  0  0  0
  -23.1120  -10.3210   20.1300 C   0  0  0  0  0  3  0  0  0  0  0  0
  -21.6650   -7.2030   21.4000 O   0  0  0  0  0  0  0  0  0  0  0  0
  -21.5390   -6.5100   22.5780 C   0  0  0  0  0  0  0  0  0  0  0  0
  -21.2110   -7.1550   23.7900 C   0  0  0  0  0  3  0  0  0  0  0  0
  -21.0220   -6.3970   24.9620 C   0  0  0  0  0  3  0  0  0  0  0  0
  -21.1530   -4.9960   24.9250 C   0  0  0  0  0  0  0  0  0  0  0  0
  -21.4750   -4.3510   23.7170 C   0  0  0  0  0  3  0  0  0  0  0  0
  -21.6640   -5.1070   22.5460 C   0  0  0  0  0  0  0  0  0  0  0  0
  -21.9540   -4.4790   21.3810 F   0  0  0  0  0  0  0  0  0  0  0  0
  -20.9640   -4.2650   26.0490 F   0  0  0  0  0  0  0  0  0  0  0  0
  -23.8120  -13.5950   21.3210 C   0  0  0  0  0  0  0  0  0  0  0  0
  -23.1590  -12.9610   22.2880 N   0  0  0  0  0  0  0  0  0  0  0  0
  -23.4560  -14.7080   20.9370 O   0  0  0  0  0  0  0  0  0  0  0  0
  -23.4620  -12.0560   22.6170 H   0  0  0  0  0  0  0  0  0  0  0  0
  -22.3430  -13.3870   22.7060 H   0  0  0  0  0  0  0  0  0  0  0  0
  -26.5090  -14.8910   20.1280 N   0  0  0  0  0  0  0  0  0  0  0  0
  -25.9040  -15.6480   20.4230 H   0  0  0  0  0  0  0  0  0  0  0  0
  -27.3620  -15.2130   19.6880 H   0  0  0  0  0  0  0  0  0  0  0  0
  -27.7920  -25.1560   21.0620 C   0  0  0  0  0  3  0  0  0  0  0  0
  -25.7780  -25.0770   22.5630 C   0  0  0  0  0  0  0  0  0  0  0  0
  -24.2910  -24.7750   22.5980 C   0  0  0  0  0  1  0  0  0  0  0  0
  -26.3600  -25.0300   21.3620 N   0  0  0  0  0  0  0  0  0  0  0  0
  -26.4040  -25.2870   23.6010 O   0  0  0  0  0  0  0  0  0  0  0  0
  -25.7650  -24.8470   20.5690 H   0  0  0  0  0  0  0  0  0  0  0  0
  -27.9950  -25.8190   19.6590 C   0  0  0  0  0  2  0  0  0  0  0  0
  -28.1230  -27.2480   19.6700 O   0  0  0  0  0  0  0  0  0  0  0  0
  -24.6090  -32.0840   23.4380 C   0  0  0  0  0  0  0  0  0  0  0  0
  -26.9630  -27.9860   19.7440 C   0  0  0  0  0  0  0  0  0  0  0  0
  -23.2670  -30.8650   21.7550 C   0  0  0  0  0  3  0  0  0  0  0  0
  -24.5920  -29.4770   20.0790 C   0  0  0  0  0  0  0  0  0  0  0  0
  -25.7710  -31.2340   21.4090 C   0  0  0  0  0  2  0  0  0  0  0  0
  -25.7940  -29.9370   20.6310 C   0  0  0  0  0  0  0  0  0  0  0  0
  -26.9820  -29.1970   20.4650 C   0  0  0  0  0  3  0  0  0  0  0  0
  -25.7500  -27.5520   19.1580 C   0  0  0  0  0  3  0  0  0  0  0  0
  -24.5630  -28.2820   19.3410 C   0  0  0  0  0  3  0  0  0  0  0  0
  -23.3640  -30.3270   20.3050 C   0  0  0  0  0  2  0  0  0  0  0  0
  -24.5720  -31.4050   22.2580 N   0  0  0  0  0  0  0  0  0  0  0  0
  -23.5740  -32.3080   24.0820 O   0  0  0  0  0  0  0  0  0  0  0  0
  -22.6750  -29.7660   22.6610 C   0  0  0  0  0  0  0  0  0  0  0  0
  -21.3630  -29.5170   22.5220 N   0  0  0  0  0  0  0  0  0  0  0  0
  -23.3870  -29.1490   23.4550 O   0  0  0  0  0  0  0  0  0  0  0  0
  -20.8430  -30.0790   21.8610 H   0  0  0  0  0  0  0  0  0  0  0  0
  -18.0820  -28.0510   22.8840 C   0  0  0  0  0  0  0  0  0  0  0  0
  -20.6010  -28.5000   23.2460 C   0  0  0  0  0  3  0  0  0  0  0  0
  -20.8320  -27.1000   22.6340 C   0  0  0  0  0  2  0  0  0  0  0  0
  -19.7930  -26.7290   21.5730 C   0  0  0  0  0  2  0  0  0  0  0  0
  -18.3850  -26.7410   22.1760 C   0  0  0  0  0  2  0  0  0  0  0  0
  -19.1240  -28.8850   23.3720 C   0  0  0  0  0  0  0  0  0  0  0  0
  -18.7910  -30.1090   23.9910 C   0  0  0  0  0  3  0  0  0  0  0  0
  -17.4480  -30.5050   24.1290 C   0  0  0  0  0  3  0  0  0  0  0  0
  -16.4190  -29.6670   23.6620 C   0  0  0  0  0  3  0  0  0  0  0  0
  -16.7360  -28.4420   23.0460 C   0  0  0  0  0  3  0  0  0  0  0  0
  -25.9460  -32.6360   24.0210 C   0  0  0  0  0  3  0  0  0  0  0  0
  -25.7030  -34.0250   24.4330 N   0  0  0  0  0  0  0  0  0  0  0  0
  -26.0660  -35.1020   23.7210 C   0  0  0  0  0  0  0  0  0  0  0  0
  -26.7140  -35.0250   22.6740 O   0  0  0  0  0  0  0  0  0  0  0  0
  -25.1210  -34.1600   25.2460 H   0  0  0  0  0  0  0  0  0  0  0  0
  -24.4090  -36.9800   23.4850 C   0  0  0  0  0  1  0  0  0  0  0  0
  -25.6400  -36.4800   24.2580 C   0  0  0  0  0  3  0  0  0  0  0  0
  -27.8200  -37.2270   25.1020 C   0  0  0  0  0  1  0  0  0  0  0  0
  -26.7130  -37.4950   24.1880 N   0  0  0  0  0  0  0  0  0  0  0  0
  -26.3480  -38.4200   24.3960 H   0  0  0  0  0  0  0  0  0  0  0  0
  -26.5000  -31.7800   25.2270 C   0  0  1  0  0  0  0  0  0  0  0  0
  -25.4490  -31.5010   26.3280 C   0  0  0  0  0  1  0  0  0  0  0  0
  -27.0350  -30.4170   24.7270 C   0  0  0  0  0  1  0  0  0  0  0  0
  -27.6950  -32.5140   25.8800 C   0  0  0  0  0  1  0  0  0  0  0  0
  1 55  1  0
  1  2  1  0
  2  5  1  0
  2  4  1  0
  3  1  2  0
  6  5  1  0
  7  6  1  0
  8  7  1  0
  9  8  1  0
 10 11  1  0
 10  9  1  0
 11 12  1  0
 12 15  1  0
 12 14  1  0
 13 11  2  0
 15 16  1  0
 17 23  1  0
 17 25  1  0
 18 23  1  0
 19 20  1  0
 19 18  1  0
 21 20  1  0
 21 30  1  0
 21 22  1  0
 23 22  1  0
 24 17  2  0
 25 16  1  0
 25 26  1  0
 27 28  2  0
 28 47  1  0
 29 28  1  0
 29 32  1  0
 30 31  1  0
 30 27  1  0
 31 29  2  0
 32 33  1  0
 33 34  2  0
 35 38  1  0
 35 34  1  0
 36 35  2  0
 37 36  1  0
 37 32  2  0
 38 39  1  0
 39 40  1  0
 40 41  2  0
 42 41  1  0
 42 46  1  0
 43 42  2  0
 44 39  2  0
 44 43  1  0
 45 44  1  0
 47 48  1  0
 48 50  1  0
 48 51  1  0
 49 47  2  0
 52 27  1  0
 52 53  1  0
 54 52  1  0
 55 61  1  0
 55 58  1  0
 56 57  1  0
 56 59  2  0
 58 56  1  0
 60 58  1  0
 61 62  1  0
 62 64  1  0
 63 74  2  0
 64 69  1  0
 65 73  1  0
 65 75  1  0
 66 72  1  0
 66 68  1  0
 67 73  1  0
 68 67  1  0
 69 68  2  0
 70 71  1  0
 70 64  2  0
 71 66  2  0
 72 65  1  0
 73 63  1  0
 75 77  2  0
 76 75  1  0
 78 76  1  0
 79 88  2  0
 79 84  1  0
 80 76  1  0
 80 84  1  0
 81 80  1  0
 82 83  1  0
 82 81  1  0
 83 79  1  0
 84 85  2  0
 85 86  1  0
 87 86  2  0
 88 87  1  0
 89 63  1  0
 89 90  1  0
 89 99  1  0
 90 93  1  0
 91 95  1  0
 91 90  1  0
 92 91  2  0
 95 94  1  0
 97 95  1  0
 97 98  1  0
 97 96  1  0
 99102  1  1
 99100  1  0
101 99  1  0
M  ISO  4  17 100  25 100  61 101  62 101
M  END
>  <TORSDO>  (40) 
F 28

>  <SCORE>  (40) 
-9.688

>  <name>  (40) 
39

>  <ligand_id>  (40) 
39

>  <original_smiles>  (40) 
[H]c1c([H])c([H])c2c(c1[H])C([H])([H])C([H])([H])C([H])([H])C2([H])N([H])C(=O)C1([H])N(C(=O)C([H])(N([H])C(=O)C([H])(N([H])C([H])([H])[H])C([H])([H])[H])C(C([H])([H])[H])(C([H])([H])[H])C([H])([H])[H])C([H])([H])c2c([H])c(OC([H])([H])C([H])(C(=O)N([H])C([H])([H])C([H])([H])C([H])([H])C([H])([H])C([H])([H])C([H])([H])C(=O)N([H])C([H])([H])C([H])([H])N([H])C(=O)N3C([H])([H])C([H])([H])C([H])([H])C([H])(n4nc(-c5c([H])c([H])c(Oc6c([H])c([H])c(F)c([H])c6F)c([H])c5[H])c(C(=O)N([H])[H])c4N([H])[H])C3([H])[H])N([H])C(=O)C([H])([H])[H])c([H])c([H])c2C1([H])[H]

>  <smiles>  (40) 
[H]c1c([H])c([H])c2c(c1[H])C([H])([H])C([H])([H])C([H])([H])C2([H])N([H])C(=O)C1([H])N(C(=O)C([H])(N([H])C(=O)C([H])(N([H])C([H])([H])[H])C([H])([H])[H])C(C([H])([H])[H])(C([H])([H])[H])C([H])([H])[H])C([H])([H])c2c([H])c(OC([H])([H])C([H])(C(=O)N([H])C([H])([H])C([H])([H])C([H])([H])C([H])([H])C([H])([H])C([H])([H])C(=O)N([H])C([H])([H])C([H])([H])N([H])C(=O)N3C([H])([H])C([H])([H])C([H])([H])C([H])(n4nc(-c5c([H])c([H])c(Oc6c([H])c([H])c(F)c([H])c6F)c([H])c5[H])c(C(=O)N([H])[H])c4N([H])[H])C3([H])[H])N([H])C(=O)C([H])([H])[H])c([H])c([H])c2C1([H])[H]

$$$$
40:0:0
     RDKit          3D

 88 95  0  0  1  0  0  0  0  0999 V2000
  -29.7550  -21.0400   20.6190 C   0  0  0  0  0  0  0  0  0  0  0  0
  -29.3290  -19.7510   20.8590 N   0  0  0  0  0  0  0  0  0  0  0  0
  -30.9490  -21.2810   20.4300 O   0  0  0  0  0  0  0  0  0  0  0  0
  -28.3320  -19.6660   21.0090 H   0  0  0  0  0  0  0  0  0  0  0  0
  -28.7190  -22.2500   20.6130 C   0  0  0  0  0  2  0  0  0  0  0  0
  -29.1690  -23.7760   20.3070 C   0  0  0  0  0  3  0  0  0  0  0  0
  -28.0500  -24.9290   20.4570 C   0  0  0  0  0  3  0  0  0  0  0  0
  -28.3160  -26.3930   20.2330 O   0  0  0  0  0  0  0  0  0  0  0  0
  -24.6260  -31.8910   23.2290 C   0  0  0  0  0  0  0  0  0  0  0  0
  -27.2100  -27.2750   20.1890 C   0  0  0  0  0  0  0  0  0  0  0  0
  -23.4120  -30.4880   21.5970 C   0  0  0  0  0  3  0  0  0  0  0  0
  -24.8540  -28.9240   20.1710 C   0  0  0  0  0  0  0  0  0  0  0  0
  -25.9560  -30.7800   21.4170 C   0  0  0  0  0  2  0  0  0  0  0  0
  -26.0260  -29.3960   20.7770 C   0  0  0  0  0  0  0  0  0  0  0  0
  -27.2020  -28.5800   20.7840 C   0  0  0  0  0  3  0  0  0  0  0  0
  -26.0150  -26.8750   19.5470 C   0  0  0  0  0  3  0  0  0  0  0  0
  -24.8510  -27.6680   19.5480 C   0  0  0  0  0  3  0  0  0  0  0  0
  -23.6200  -29.8020   20.2210 C   0  0  0  0  0  2  0  0  0  0  0  0
  -24.6820  -31.0730   22.1350 N   0  0  0  0  0  0  0  0  0  0  0  0
  -23.5450  -32.1770   23.7650 O   0  0  0  0  0  0  0  0  0  0  0  0
  -22.7490  -29.4810   22.5690 C   0  0  0  0  0  0  0  0  0  0  0  0
  -21.4200  -29.3090   22.4510 N   0  0  0  0  0  0  0  0  0  0  0  0
  -23.4270  -28.8580   23.3890 O   0  0  0  0  0  0  0  0  0  0  0  0
  -20.9340  -29.8580   21.7570 H   0  0  0  0  0  0  0  0  0  0  0  0
  -18.0460  -28.1100   22.9730 C   0  0  0  0  0  0  0  0  0  0  0  0
  -20.6050  -28.3790   23.2320 C   0  0  0  0  0  3  0  0  0  0  0  0
  -20.7070  -26.9420   22.6700 C   0  0  0  0  0  2  0  0  0  0  0  0
  -19.6020  -26.6080   21.6610 C   0  0  0  0  0  2  0  0  0  0  0  0
  -18.2210  -26.7570   22.3060 C   0  0  0  0  0  2  0  0  0  0  0  0
  -19.1640  -28.8790   23.3930 C   0  0  0  0  0  0  0  0  0  0  0  0
  -18.9430  -30.1460   23.9800 C   0  0  0  0  0  3  0  0  0  0  0  0
  -17.6370  -30.6450   24.1460 C   0  0  0  0  0  3  0  0  0  0  0  0
  -16.5350  -29.8740   23.7360 C   0  0  0  0  0  3  0  0  0  0  0  0
  -16.7410  -28.6090   23.1570 C   0  0  0  0  0  3  0  0  0  0  0  0
  -25.9150  -32.5260   23.8390 C   0  0  0  0  0  3  0  0  0  0  0  0
  -25.6060  -33.9230   24.1740 N   0  0  0  0  0  0  0  0  0  0  0  0
  -25.9270  -34.9790   23.4140 C   0  0  0  0  0  0  0  0  0  0  0  0
  -26.5830  -34.8790   22.3740 O   0  0  0  0  0  0  0  0  0  0  0  0
  -25.0270  -34.0740   24.9870 H   0  0  0  0  0  0  0  0  0  0  0  0
  -24.1900  -36.7690   23.0890 C   0  0  0  0  0  1  0  0  0  0  0  0
  -25.4420  -36.3630   23.8830 C   0  0  0  0  0  3  0  0  0  0  0  0
  -27.5860  -37.2500   24.6850 C   0  0  0  0  0  1  0  0  0  0  0  0
  -26.4710  -37.4190   23.7580 N   0  0  0  0  0  0  0  0  0  0  0  0
  -26.0620  -38.3370   23.9160 H   0  0  0  0  0  0  0  0  0  0  0  0
  -26.4410  -31.7540   25.1100 C   0  0  1  0  0  0  0  0  0  0  0  0
  -25.3600  -31.5170   26.1910 C   0  0  0  0  0  1  0  0  0  0  0  0
  -27.0210  -30.3750   24.7170 C   0  0  0  0  0  1  0  0  0  0  0  0
  -27.6000  -32.5490   25.7580 C   0  0  0  0  0  1  0  0  0  0  0  0
  -30.1050  -18.4740   21.1480 C   0  0  0  0  0  2  0  0  0  0  0  0
  -29.8440  -17.2010   20.2120 C   0  0  0  0  0  2  0  0  0  0  0  0
  -30.6000  -14.6960   20.4020 C   0  0  0  0  0  0  0  0  0  0  0  0
  -30.3800  -12.4400   19.3680 C   0  0  0  0  0  2  0  0  0  0  0  0
  -29.4380  -12.5540   18.1470 C   0  0  0  0  0  2  0  0  0  0  0  0
  -27.9680  -12.3860   18.5710 C   0  0  0  0  0  2  0  0  0  0  0  0
  -27.6070  -13.2660   19.7960 C   0  0  0  0  0  3  0  0  0  0  0  0
  -28.6590  -13.1490   20.9240 C   0  0  0  0  0  2  0  0  0  0  0  0
  -29.9740  -13.4720   20.3490 N   0  0  0  0  0  0  0  0  0  0  0  0
  -31.7420  -14.8400   19.9590 O   0  0  0  0  0  0  0  0  0  0  0  0
  -29.8330  -15.7800   20.7590 N   0  0  0  0  0  0  0  0  0  0  0  0
  -28.9490  -15.4990   21.1580 H   0  0  0  0  0  0  0  0  0  0  0  0
  -25.2160  -13.8690   20.5060 C   0  0  0  0  0  0  0  0  0  0  0  0
  -24.1440  -13.1000   20.8760 C   0  0  0  0  0  0  0  0  0  0  0  0
  -24.6070  -11.7480   20.8580 C   0  0  0  0  0  0  0  0  0  0  0  0
  -26.2580  -12.9830   20.2800 N   0  0  0  0  0  0  0  0  0  0  0  0
  -25.8980  -11.7050   20.5550 N   0  0  0  0  0  0  0  0  0  0  0  0
  -23.8790  -10.4870   21.0560 C   0  0  0  0  0  0  0  0  0  0  0  0
  -24.3190   -9.5170   21.9830 C   0  0  0  0  0  3  0  0  0  0  0  0
  -23.5910   -8.3220   22.1680 C   0  0  0  0  0  3  0  0  0  0  0  0
  -22.4110   -8.0860   21.4240 C   0  0  0  0  0  0  0  0  0  0  0  0
  -21.9890   -9.0450   20.4860 C   0  0  0  0  0  3  0  0  0  0  0  0
  -22.7180  -10.2320   20.3000 C   0  0  0  0  0  3  0  0  0  0  0  0
  -21.6530   -6.9430   21.5200 O   0  0  0  0  0  0  0  0  0  0  0  0
  -21.6250   -6.1920   22.6680 C   0  0  0  0  0  0  0  0  0  0  0  0
  -21.2430   -6.7440   23.9100 C   0  0  0  0  0  3  0  0  0  0  0  0
  -21.1580   -5.9200   25.0490 C   0  0  0  0  0  3  0  0  0  0  0  0
  -21.4490   -4.5470   24.9500 C   0  0  0  0  0  0  0  0  0  0  0  0
  -21.8260   -3.9950   23.7140 C   0  0  0  0  0  3  0  0  0  0  0  0
  -21.9110   -4.8150   22.5750 C   0  0  0  0  0  0  0  0  0  0  0  0
  -22.2540   -4.2750   21.3800 F   0  0  0  0  0  0  0  0  0  0  0  0
  -21.3620   -3.7530   26.0440 F   0  0  0  0  0  0  0  0  0  0  0  0
  -22.7490  -13.5820   21.1390 C   0  0  0  0  0  0  0  0  0  0  0  0
  -22.0200  -12.8930   22.0120 N   0  0  0  0  0  0  0  0  0  0  0  0
  -22.3130  -14.6020   20.6120 O   0  0  0  0  0  0  0  0  0  0  0  0
  -22.3850  -12.0590   22.4510 H   0  0  0  0  0  0  0  0  0  0  0  0
  -21.0870  -13.2000   22.2470 H   0  0  0  0  0  0  0  0  0  0  0  0
  -25.3900  -15.2370   20.3250 N   0  0  0  0  0  0  0  0  0  0  0  0
  -24.6420  -15.9130   20.4470 H   0  0  0  0  0  0  0  0  0  0  0  0
  -26.2560  -15.6620   20.0130 H   0  0  0  0  0  0  0  0  0  0  0  0
  1  2  1  0
  2  4  1  0
  2 49  1  0
  3  1  2  0
  5  1  1  0
  6  7  2  0
  6  5  1  0
  8  7  1  0
  9 20  2  0
 10  8  1  0
 10 15  1  0
 11 19  1  0
 11 21  1  0
 12 18  1  0
 12 14  1  0
 13 19  1  0
 14 15  2  0
 14 13  1  0
 16 17  1  0
 16 10  2  0
 17 12  2  0
 18 11  1  0
 19  9  1  0
 21 23  2  0
 22 21  1  0
 24 22  1  0
 25 34  2  0
 25 30  1  0
 26 22  1  0
 26 30  1  0
 27 26  1  0
 28 29  1  0
 28 27  1  0
 29 25  1  0
 30 31  2  0
 31 32  1  0
 33 32  2  0
 34 33  1  0
 35  9  1  0
 35 36  1  0
 35 45  1  0
 36 39  1  0
 37 41  1  0
 37 36  1  0
 38 37  2  0
 41 40  1  0
 43 41  1  0
 43 44  1  0
 43 42  1  0
 45 48  1  1
 45 46  1  0
 47 45  1  0
 50 59  1  0
 50 49  1  0
 51 59  1  0
 52 57  1  0
 53 54  1  0
 53 52  1  0
 55 54  1  0
 55 64  1  0
 55 56  1  0
 57 51  1  0
 57 56  1  0
 58 51  2  0
 59 60  1  0
 61 62  2  0
 62 81  1  0
 63 62  1  0
 63 66  1  0
 64 61  1  0
 64 65  1  0
 65 63  2  0
 66 67  1  0
 67 68  2  0
 69 72  1  0
 69 68  1  0
 70 69  2  0
 71 70  1  0
 71 66  2  0
 72 73  1  0
 73 74  1  0
 74 75  2  0
 76 75  1  0
 76 80  1  0
 77 76  2  0
 78 73  2  0
 78 77  1  0
 79 78  1  0
 81 82  1  0
 82 85  1  0
 82 84  1  0
 83 81  2  0
 86 87  1  0
 86 61  1  0
 88 86  1  0
M  ISO  4   7 101   8 101  51 100  59 100
M  END
>  <TORSDO>  (41) 
F 21

>  <SCORE>  (41) 
-13.336

>  <name>  (41) 
40

>  <ligand_id>  (41) 
40

>  <original_smiles>  (41) 
[H]c1c([H])c([H])c2c(c1[H])C([H])([H])C([H])([H])C([H])([H])C2([H])N([H])C(=O)C1([H])N(C(=O)C([H])(N([H])C(=O)C([H])(N([H])C([H])([H])[H])C([H])([H])[H])C(C([H])([H])[H])(C([H])([H])[H])C([H])([H])[H])C([H])([H])c2c([H])c(OC([H])([H])C([H])([H])C([H])([H])C(=O)N([H])C([H])([H])C([H])([H])N([H])C(=O)N3C([H])([H])C([H])([H])C([H])([H])C([H])(n4nc(-c5c([H])c([H])c(Oc6c([H])c([H])c(F)c([H])c6F)c([H])c5[H])c(C(=O)N([H])[H])c4N([H])[H])C3([H])[H])c([H])c([H])c2C1([H])[H]

>  <smiles>  (41) 
[H]c1c([H])c([H])c2c(c1[H])C([H])([H])C([H])([H])C([H])([H])C2([H])N([H])C(=O)C1([H])N(C(=O)C([H])(N([H])C(=O)C([H])(N([H])C([H])([H])[H])C([H])([H])[H])C(C([H])([H])[H])(C([H])([H])[H])C([H])([H])[H])C([H])([H])c2c([H])c(OC([H])([H])C([H])([H])C([H])([H])C(=O)N([H])C([H])([H])C([H])([H])N([H])C(=O)N3C([H])([H])C([H])([H])C([H])([H])C([H])(n4nc(-c5c([H])c([H])c(Oc6c([H])c([H])c(F)c([H])c6F)c([H])c5[H])c(C(=O)N([H])[H])c4N([H])[H])C3([H])[H])c([H])c([H])c2C1([H])[H]

$$$$
41:0:0
     RDKit          3D

 86 94  0  0  1  0  0  0  0  0999 V2000
  -30.3770  -15.6070   20.3200 C   0  0  0  0  0  0  0  0  0  0  0  0
  -30.4040  -13.0870   19.5010 C   0  0  0  0  0  2  0  0  0  0  0  0
  -29.5420  -12.6800   18.2760 C   0  0  0  0  0  2  0  0  0  0  0  0
  -28.1100  -12.3420   18.7120 C   0  0  0  0  0  2  0  0  0  0  0  0
  -27.5810  -13.3570   19.7520 C   0  0  0  0  0  3  0  0  0  0  0  0
  -28.5890  -13.6960   20.8740 C   0  0  0  0  0  2  0  0  0  0  0  0
  -29.7730  -14.2880   20.2120 N   0  0  0  0  0  0  0  0  0  0  0  0
  -31.6120  -15.4520   20.2450 O   0  0  0  0  0  0  0  0  0  0  0  0
  -29.0160  -22.4350   20.1040 C   0  0  0  0  0  0  0  0  0  0  0  0
  -30.2580  -19.9360   19.8540 C   0  0  0  0  0  3  0  0  0  0  0  0
  -28.1710  -19.6040   20.5510 C   0  0  0  0  0  3  0  0  0  0  0  0
  -30.6200  -18.3960   20.5240 C   0  0  0  0  0  3  0  0  0  0  0  0
  -28.4800  -17.8990   20.1820 C   0  0  0  0  0  3  0  0  0  0  0  0
  -29.0490  -20.8750   20.2000 N   0  0  0  0  0  0  0  0  0  0  0  0
  -29.8180  -17.0650   20.3390 N   0  0  0  0  0  0  0  0  0  0  0  0
  -30.1380  -22.8730   19.8290 O   0  0  0  0  0  0  0  0  0  0  0  0
  -25.2020  -13.8750   20.4690 C   0  0  0  0  0  0  0  0  0  0  0  0
  -24.1430  -13.0870   20.8200 C   0  0  0  0  0  0  0  0  0  0  0  0
  -24.6280  -11.7430   20.8120 C   0  0  0  0  0  0  0  0  0  0  0  0
  -26.2590  -13.0130   20.2550 N   0  0  0  0  0  0  0  0  0  0  0  0
  -25.9280  -11.7230   20.5310 N   0  0  0  0  0  0  0  0  0  0  0  0
  -23.9100  -10.4750   20.9960 C   0  0  0  0  0  0  0  0  0  0  0  0
  -24.3230   -9.5220   21.9540 C   0  0  0  0  0  3  0  0  0  0  0  0
  -23.5990   -8.3220   22.1280 C   0  0  0  0  0  3  0  0  0  0  0  0
  -22.4490   -8.0660   21.3450 C   0  0  0  0  0  0  0  0  0  0  0  0
  -22.0560   -9.0060   20.3770 C   0  0  0  0  0  3  0  0  0  0  0  0
  -22.7790  -10.1980   20.2010 C   0  0  0  0  0  3  0  0  0  0  0  0
  -21.7000   -6.9160   21.4270 O   0  0  0  0  0  0  0  0  0  0  0  0
  -21.6150   -6.1930   22.5900 C   0  0  0  0  0  0  0  0  0  0  0  0
  -21.1420   -6.7670   23.7900 C   0  0  0  0  0  3  0  0  0  0  0  0
  -21.0050   -5.9700   24.9450 C   0  0  0  0  0  3  0  0  0  0  0  0
  -21.3310   -4.6020   24.8990 C   0  0  0  0  0  0  0  0  0  0  0  0
  -21.7970   -4.0280   23.7030 C   0  0  0  0  0  3  0  0  0  0  0  0
  -21.9350   -4.8220   22.5510 C   0  0  0  0  0  0  0  0  0  0  0  0
  -22.3640   -4.2580   21.3960 F   0  0  0  0  0  0  0  0  0  0  0  0
  -21.1930   -3.8340   26.0060 F   0  0  0  0  0  0  0  0  0  0  0  0
  -22.7350  -13.5510   21.0430 C   0  0  0  0  0  0  0  0  0  0  0  0
  -21.9930  -12.8650   21.9050 N   0  0  0  0  0  0  0  0  0  0  0  0
  -22.3000  -14.5610   20.4900 O   0  0  0  0  0  0  0  0  0  0  0  0
  -22.3590  -12.0500   22.3750 H   0  0  0  0  0  0  0  0  0  0  0  0
  -21.0470  -13.1590   22.0990 H   0  0  0  0  0  0  0  0  0  0  0  0
  -25.3520  -15.2460   20.2810 N   0  0  0  0  0  0  0  0  0  0  0  0
  -24.5760  -15.8920   20.3690 H   0  0  0  0  0  0  0  0  0  0  0  0
  -26.2040  -15.6890   19.9600 H   0  0  0  0  0  0  0  0  0  0  0  0
  -27.8850  -23.8800   20.2170 C   0  0  0  0  0  2  0  0  0  0  0  0
  -28.1520  -25.6010   20.1730 O   0  0  0  0  0  0  0  0  0  0  0  0
  -24.6680  -31.8490   23.1160 C   0  0  0  0  0  0  0  0  0  0  0  0
  -27.1780  -26.7950   20.1360 C   0  0  0  0  0  0  0  0  0  0  0  0
  -23.4740  -30.4520   21.4830 C   0  0  0  0  0  3  0  0  0  0  0  0
  -24.9130  -28.8050   20.0740 C   0  0  0  0  0  0  0  0  0  0  0  0
  -26.0510  -30.6010   21.3540 C   0  0  0  0  0  2  0  0  0  0  0  0
  -26.1110  -29.1700   20.7020 C   0  0  0  0  0  0  0  0  0  0  0  0
  -27.2310  -28.1930   20.6990 C   0  0  0  0  0  3  0  0  0  0  0  0
  -25.9470  -26.6280   19.4560 C   0  0  0  0  0  3  0  0  0  0  0  0
  -24.8680  -27.5590   19.4270 C   0  0  0  0  0  3  0  0  0  0  0  0
  -23.7080  -29.7550   20.1140 C   0  0  0  0  0  2  0  0  0  0  0  0
  -24.7550  -30.9990   22.0360 N   0  0  0  0  0  0  0  0  0  0  0  0
  -23.5770  -32.1510   23.6290 O   0  0  0  0  0  0  0  0  0  0  0  0
  -22.7590  -29.4750   22.4560 C   0  0  0  0  0  0  0  0  0  0  0  0
  -21.4240  -29.3360   22.3430 N   0  0  0  0  0  0  0  0  0  0  0  0
  -23.4170  -28.8400   23.2830 O   0  0  0  0  0  0  0  0  0  0  0  0
  -20.9440  -29.8980   21.6530 H   0  0  0  0  0  0  0  0  0  0  0  0
  -18.0240  -28.1880   22.9060 C   0  0  0  0  0  0  0  0  0  0  0  0
  -20.5940  -28.4060   23.1190 C   0  0  0  0  0  3  0  0  0  0  0  0
  -20.6550  -26.9790   22.5290 C   0  0  0  0  0  2  0  0  0  0  0  0
  -19.5290  -26.6890   21.5320 C   0  0  0  0  0  2  0  0  0  0  0  0
  -18.1620  -26.8480   22.2050 C   0  0  0  0  0  2  0  0  0  0  0  0
  -19.1640  -28.9280   23.3210 C   0  0  0  0  0  0  0  0  0  0  0  0
  -18.9760  -30.1800   23.9430 C   0  0  0  0  0  3  0  0  0  0  0  0
  -17.6820  -30.6950   24.1500 C   0  0  0  0  0  3  0  0  0  0  0  0
  -16.5560  -29.9540   23.7480 C   0  0  0  0  0  3  0  0  0  0  0  0
  -16.7290  -28.7020   23.1320 C   0  0  0  0  0  3  0  0  0  0  0  0
  -25.9350  -32.4950   23.7540 C   0  0  0  0  0  3  0  0  0  0  0  0
  -25.6090  -33.8890   24.1120 N   0  0  0  0  0  0  0  0  0  0  0  0
  -25.9230  -34.9680   23.3820 C   0  0  0  0  0  0  0  0  0  0  0  0
  -26.5770  -34.8950   22.3400 O   0  0  0  0  0  0  0  0  0  0  0  0
  -25.0240  -34.0180   24.9250 H   0  0  0  0  0  0  0  0  0  0  0  0
  -24.1740  -36.7640   23.1200 C   0  0  0  0  0  1  0  0  0  0  0  0
  -25.4400  -36.3450   23.8860 C   0  0  0  0  0  3  0  0  0  0  0  0
  -27.5910  -37.2330   24.6780 C   0  0  0  0  0  1  0  0  0  0  0  0
  -26.4620  -37.4100   23.7680 N   0  0  0  0  0  0  0  0  0  0  0  0
  -26.0520  -38.3240   23.9450 H   0  0  0  0  0  0  0  0  0  0  0  0
  -26.4480  -31.7200   25.0310 C   0  0  1  0  0  0  0  0  0  0  0  0
  -25.3530  -31.4830   26.0980 C   0  0  0  0  0  1  0  0  0  0  0  0
  -27.0300  -30.3420   24.6480 C   0  0  0  0  0  1  0  0  0  0  0  0
  -27.5990  -32.5110   25.6960 C   0  0  0  0  0  1  0  0  0  0  0  0
  1 15  1  0
  2  7  1  0
  3  4  1  0
  3  2  1  0
  5  4  1  0
  5 20  1  0
  5  6  1  0
  7  1  1  0
  7  6  1  0
  8  1  2  0
  9 14  1  0
  9 45  1  0
 10 14  1  0
 10 12  2  0
 13 15  1  0
 13 11  2  0
 14 11  1  0
 15 12  1  0
 16  9  2  0
 17 18  2  0
 18 37  1  0
 19 18  1  0
 19 22  1  0
 20 17  1  0
 20 21  1  0
 21 19  2  0
 22 23  1  0
 23 24  2  0
 25 28  1  0
 25 24  1  0
 26 25  2  0
 27 26  1  0
 27 22  2  0
 28 29  1  0
 29 30  1  0
 30 31  2  0
 32 31  1  0
 32 36  1  0
 33 32  2  0
 34 29  2  0
 34 33  1  0
 35 34  1  0
 37 38  1  0
 38 41  1  0
 38 40  1  0
 39 37  2  0
 42 43  1  0
 42 17  1  0
 44 42  1  0
 46 45  1  0
 47 58  2  0
 48 46  1  0
 48 53  1  0
 49 57  1  0
 49 59  1  0
 50 56  1  0
 50 52  1  0
 51 57  1  0
 52 51  1  0
 53 52  2  0
 54 48  2  0
 55 54  1  0
 55 50  2  0
 56 49  1  0
 57 47  1  0
 59 61  2  0
 60 59  1  0
 62 60  1  0
 63 72  2  0
 63 68  1  0
 64 60  1  0
 64 68  1  0
 65 64  1  0
 66 67  1  0
 66 65  1  0
 67 63  1  0
 68 69  2  0
 69 70  1  0
 71 70  2  0
 72 71  1  0
 73 47  1  0
 73 74  1  0
 73 83  1  0
 74 77  1  0
 75 79  1  0
 75 74  1  0
 76 75  2  0
 79 78  1  0
 81 79  1  0
 81 82  1  0
 81 80  1  0
 83 86  1  1
 83 84  1  0
 85 83  1  0
M  ISO  4   1 100  15 100  45 101  46 101
M  END
>  <TORSDO>  (42) 
F 16

>  <SCORE>  (42) 
-16.399

>  <name>  (42) 
41

>  <ligand_id>  (42) 
41

>  <original_smiles>  (42) 
[H]c1c([H])c([H])c2c(c1[H])C([H])([H])C([H])([H])C([H])([H])C2([H])N([H])C(=O)C1([H])N(C(=O)C([H])(N([H])C(=O)C([H])(N([H])C([H])([H])[H])C([H])([H])[H])C(C([H])([H])[H])(C([H])([H])[H])C([H])([H])[H])C([H])([H])c2c([H])c(OC([H])([H])C(=O)N3C([H])([H])C([H])([H])N(C(=O)N4C([H])([H])C([H])([H])C([H])([H])C([H])(n5nc(-c6c([H])c([H])c(Oc7c([H])c([H])c(F)c([H])c7F)c([H])c6[H])c(C(=O)N([H])[H])c5N([H])[H])C4([H])[H])C([H])([H])C3([H])[H])c([H])c([H])c2C1([H])[H]

>  <smiles>  (42) 
[H]c1c([H])c([H])c2c(c1[H])C([H])([H])C([H])([H])C([H])([H])C2([H])N([H])C(=O)C1([H])N(C(=O)C([H])(N([H])C(=O)C([H])(N([H])C([H])([H])[H])C([H])([H])[H])C(C([H])([H])[H])(C([H])([H])[H])C([H])([H])[H])C([H])([H])c2c([H])c(OC([H])([H])C(=O)N3C([H])([H])C([H])([H])N(C(=O)N4C([H])([H])C([H])([H])C([H])([H])C([H])(n5nc(-c6c([H])c([H])c(Oc7c([H])c([H])c(F)c([H])c7F)c([H])c6[H])c(C(=O)N([H])[H])c5N([H])[H])C4([H])[H])C([H])([H])C3([H])[H])c([H])c([H])c2C1([H])[H]

$$$$
42:0:0
     RDKit          3D

 84 91  0  0  1  0  0  0  0  0999 V2000
  -28.7120  -22.7710   19.9440 C   0  0  0  0  0  2  0  0  0  0  0  0
  -29.0450  -21.1510   20.6540 C   0  0  0  0  0  2  0  0  0  0  0  0
  -28.9560  -19.5200   20.0400 C   0  0  0  0  0  0  0  0  0  0  0  0
  -28.0870  -19.3530   19.1860 O   0  0  0  0  0  0  0  0  0  0  0  0
  -29.8480  -18.0510   20.4250 N   0  0  0  0  0  0  0  0  0  0  0  0
  -29.4560  -16.7570   20.2470 N   0  0  0  0  0  0  0  0  0  0  0  0
  -30.3770  -15.2490   20.2190 C   0  0  0  0  0  0  0  0  0  0  0  0
  -30.3530  -12.8110   19.3620 C   0  0  0  0  0  2  0  0  0  0  0  0
  -29.4260  -12.6390   18.1310 C   0  0  0  0  0  2  0  0  0  0  0  0
  -27.9740  -12.3760   18.5710 C   0  0  0  0  0  2  0  0  0  0  0  0
  -27.5310  -13.3320   19.7050 C   0  0  0  0  0  3  0  0  0  0  0  0
  -28.5810  -13.4620   20.8230 C   0  0  0  0  0  2  0  0  0  0  0  0
  -29.8270  -13.9400   20.2070 N   0  0  0  0  0  0  0  0  0  0  0  0
  -31.5930  -15.2820   19.9970 O   0  0  0  0  0  0  0  0  0  0  0  0
  -25.1660  -13.8820   20.4830 C   0  0  0  0  0  0  0  0  0  0  0  0
  -24.1110  -13.1010   20.8630 C   0  0  0  0  0  0  0  0  0  0  0  0
  -24.5830  -11.7530   20.8310 C   0  0  0  0  0  0  0  0  0  0  0  0
  -26.2090  -13.0110   20.2280 N   0  0  0  0  0  0  0  0  0  0  0  0
  -25.8720  -11.7240   20.5080 N   0  0  0  0  0  0  0  0  0  0  0  0
  -23.8630  -10.4880   21.0300 C   0  0  0  0  0  0  0  0  0  0  0  0
  -24.3030   -9.5230   21.9640 C   0  0  0  0  0  3  0  0  0  0  0  0
  -23.5800   -8.3260   22.1510 C   0  0  0  0  0  3  0  0  0  0  0  0
  -22.4020   -8.0840   21.4060 C   0  0  0  0  0  0  0  0  0  0  0  0
  -21.9800   -9.0370   20.4620 C   0  0  0  0  0  3  0  0  0  0  0  0
  -22.7040  -10.2250   20.2730 C   0  0  0  0  0  3  0  0  0  0  0  0
  -21.6490   -6.9370   21.5020 O   0  0  0  0  0  0  0  0  0  0  0  0
  -21.6110   -6.1960   22.6560 C   0  0  0  0  0  0  0  0  0  0  0  0
  -21.1950   -6.7510   23.8850 C   0  0  0  0  0  3  0  0  0  0  0  0
  -21.1040   -5.9360   25.0310 C   0  0  0  0  0  3  0  0  0  0  0  0
  -21.4190   -4.5670   24.9480 C   0  0  0  0  0  0  0  0  0  0  0  0
  -21.8290   -4.0110   23.7230 C   0  0  0  0  0  3  0  0  0  0  0  0
  -21.9210   -4.8240   22.5800 C   0  0  0  0  0  0  0  0  0  0  0  0
  -22.2960   -4.2780   21.3980 F   0  0  0  0  0  0  0  0  0  0  0  0
  -21.3260   -3.7820   26.0480 F   0  0  0  0  0  0  0  0  0  0  0  0
  -22.7130  -13.5740   21.1400 C   0  0  0  0  0  0  0  0  0  0  0  0
  -21.9930  -12.8770   22.0120 N   0  0  0  0  0  0  0  0  0  0  0  0
  -22.2700  -14.5960   20.6170 O   0  0  0  0  0  0  0  0  0  0  0  0
  -22.3650  -12.0510   22.4550 H   0  0  0  0  0  0  0  0  0  0  0  0
  -21.0550  -13.1760   22.2390 H   0  0  0  0  0  0  0  0  0  0  0  0
  -25.3240  -15.2540   20.3060 N   0  0  0  0  0  0  0  0  0  0  0  0
  -24.5620  -15.9110   20.4370 H   0  0  0  0  0  0  0  0  0  0  0  0
  -26.1810  -15.6960   19.9990 H   0  0  0  0  0  0  0  0  0  0  0  0
  -28.0780  -24.3270   20.5810 C   0  0  0  0  0  2  0  0  0  0  0  0
  -28.2440  -25.9240   20.2350 O   0  0  0  0  0  0  0  0  0  0  0  0
  -24.6410  -31.8690   23.1990 C   0  0  0  0  0  0  0  0  0  0  0  0
  -27.2070  -26.9870   20.2380 C   0  0  0  0  0  0  0  0  0  0  0  0
  -23.4500  -30.4610   21.5680 C   0  0  0  0  0  3  0  0  0  0  0  0
  -24.9020  -28.8450   20.1680 C   0  0  0  0  0  0  0  0  0  0  0  0
  -26.0150  -30.6800   21.4220 C   0  0  0  0  0  2  0  0  0  0  0  0
  -26.0880  -29.2650   20.7820 C   0  0  0  0  0  0  0  0  0  0  0  0
  -27.2400  -28.3590   20.7850 C   0  0  0  0  0  3  0  0  0  0  0  0
  -25.9870  -26.7060   19.5840 C   0  0  0  0  0  3  0  0  0  0  0  0
  -24.8740  -27.5850   19.5490 C   0  0  0  0  0  3  0  0  0  0  0  0
  -23.6820  -29.7650   20.1990 C   0  0  0  0  0  2  0  0  0  0  0  0
  -24.7240  -31.0300   22.1170 N   0  0  0  0  0  0  0  0  0  0  0  0
  -23.5500  -32.1620   23.7160 O   0  0  0  0  0  0  0  0  0  0  0  0
  -22.7550  -29.4720   22.5400 C   0  0  0  0  0  0  0  0  0  0  0  0
  -21.4250  -29.3130   22.4200 N   0  0  0  0  0  0  0  0  0  0  0  0
  -23.4210  -28.8460   23.3700 O   0  0  0  0  0  0  0  0  0  0  0  0
  -20.9420  -29.8680   21.7270 H   0  0  0  0  0  0  0  0  0  0  0  0
  -18.0360  -28.1280   22.9450 C   0  0  0  0  0  0  0  0  0  0  0  0
  -20.5980  -28.3830   23.1970 C   0  0  0  0  0  3  0  0  0  0  0  0
  -20.6910  -26.9480   22.6260 C   0  0  0  0  0  2  0  0  0  0  0  0
  -19.5830  -26.6270   21.6180 C   0  0  0  0  0  2  0  0  0  0  0  0
  -18.2040  -26.7780   22.2680 C   0  0  0  0  0  2  0  0  0  0  0  0
  -19.1600  -28.8880   23.3660 C   0  0  0  0  0  0  0  0  0  0  0  0
  -18.9460  -30.1500   23.9620 C   0  0  0  0  0  3  0  0  0  0  0  0
  -17.6420  -30.6520   24.1380 C   0  0  0  0  0  3  0  0  0  0  0  0
  -16.5350  -29.8890   23.7300 C   0  0  0  0  0  3  0  0  0  0  0  0
  -16.7320  -28.6300   23.1400 C   0  0  0  0  0  3  0  0  0  0  0  0
  -25.9110  -32.5160   23.8310 C   0  0  0  0  0  3  0  0  0  0  0  0
  -26.4170  -31.7570   25.1200 C   0  0  1  0  0  0  0  0  0  0  0  0
  -25.3160  -31.5310   26.1830 C   0  0  0  0  0  1  0  0  0  0  0  0
  -27.0010  -30.3740   24.7520 C   0  0  0  0  0  1  0  0  0  0  0  0
  -27.5630  -32.5560   25.7820 C   0  0  0  0  0  1  0  0  0  0  0  0
  -25.5890  -33.9150   24.1610 N   0  0  0  0  0  0  0  0  0  0  0  0
  -25.9210  -34.9770   23.4120 C   0  0  0  0  0  0  0  0  0  0  0  0
  -26.5920  -34.8800   22.3820 O   0  0  0  0  0  0  0  0  0  0  0  0
  -24.9920  -34.0640   24.9610 H   0  0  0  0  0  0  0  0  0  0  0  0
  -24.1910  -36.7750   23.0750 C   0  0  0  0  0  1  0  0  0  0  0  0
  -25.4340  -36.3640   23.8800 C   0  0  0  0  0  3  0  0  0  0  0  0
  -27.5700  -37.2500   24.7100 C   0  0  0  0  0  1  0  0  0  0  0  0
  -26.4660  -37.4200   23.7690 N   0  0  0  0  0  0  0  0  0  0  0  0
  -26.0590  -38.3390   23.9210 H   0  0  0  0  0  0  0  0  0  0  0  0
  1 43  1  0
  1  2  1  0
  3  5  1  0
  3  2  1  0
  4  3  2  0
  6  5  2  0
  7  6  1  0
  8 13  1  0
  9 10  1  0
  9  8  1  0
 11 10  1  0
 11 18  1  0
 11 12  1  0
 13  7  1  0
 13 12  1  0
 14  7  2  0
 15 16  2  0
 16 35  1  0
 17 16  1  0
 17 20  1  0
 18 15  1  0
 18 19  1  0
 19 17  2  0
 20 21  1  0
 21 22  2  0
 23 26  1  0
 23 22  1  0
 24 23  2  0
 25 24  1  0
 25 20  2  0
 26 27  1  0
 27 28  1  0
 28 29  2  0
 30 29  1  0
 30 34  1  0
 31 30  2  0
 32 27  2  0
 32 31  1  0
 33 32  1  0
 35 36  1  0
 36 39  1  0
 36 38  1  0
 37 35  2  0
 40 41  1  0
 40 15  1  0
 42 40  1  0
 44 46  1  0
 44 43  1  0
 45 56  2  0
 46 51  1  0
 47 55  1  0
 47 57  1  0
 48 54  1  0
 48 50  1  0
 49 55  1  0
 50 51  2  0
 50 49  1  0
 52 46  2  0
 53 52  1  0
 53 48  2  0
 54 47  1  0
 55 45  1  0
 57 59  2  0
 58 57  1  0
 60 58  1  0
 61 70  2  0
 61 66  1  0
 62 58  1  0
 62 66  1  0
 63 62  1  0
 64 65  1  0
 64 63  1  0
 65 61  1  0
 66 67  2  0
 67 68  1  0
 69 68  2  0
 70 69  1  0
 71 45  1  0
 71 76  1  0
 71 72  1  0
 72 75  1  1
 72 73  1  0
 74 72  1  0
 76 79  1  0
 77 81  1  0
 77 76  1  0
 78 77  2  0
 81 80  1  0
 83 81  1  0
 83 84  1  0
 83 82  1  0
M  ISO  4   6 100   7 100  43 101  44 101
M  END
>  <TORSDO>  (43) 
F 20

>  <SCORE>  (43) 
-15.979

>  <name>  (43) 
42

>  <ligand_id>  (43) 
42

>  <original_smiles>  (43) 
[H]c1c([H])c([H])c2c(c1[H])C([H])([H])C([H])([H])C([H])([H])C2([H])N([H])C(=O)C1([H])N(C(=O)C([H])(N([H])C(=O)C([H])(N([H])C([H])([H])[H])C([H])([H])[H])C(C([H])([H])[H])(C([H])([H])[H])C([H])([H])[H])C([H])([H])c2c([H])c(OC([H])([H])C([H])([H])C([H])([H])C(=O)N=NC(=O)N3C([H])([H])C([H])([H])C([H])([H])C([H])(n4nc(-c5c([H])c([H])c(Oc6c([H])c([H])c(F)c([H])c6F)c([H])c5[H])c(C(=O)N([H])[H])c4N([H])[H])C3([H])[H])c([H])c([H])c2C1([H])[H]

>  <smiles>  (43) 
[H]c1c([H])c([H])c2c(c1[H])C([H])([H])C([H])([H])C([H])([H])C2([H])N([H])C(=O)C1([H])N(C(=O)C([H])(N([H])C(=O)C([H])(N([H])C([H])([H])[H])C([H])([H])[H])C(C([H])([H])[H])(C([H])([H])[H])C([H])([H])[H])C([H])([H])c2c([H])c(OC([H])([H])C([H])([H])C([H])([H])C(=O)N=NC(=O)N3C([H])([H])C([H])([H])C([H])([H])C([H])(n4nc(-c5c([H])c([H])c(Oc6c([H])c([H])c(F)c([H])c6F)c([H])c5[H])c(C(=O)N([H])[H])c4N([H])[H])C3([H])[H])c([H])c([H])c2C1([H])[H]

$$$$
43:0:0
     RDKit          3D

 86 93  0  0  1  0  0  0  0  0999 V2000
  -28.8370  -22.7640   20.5210 C   0  0  0  0  0  3  0  0  0  0  0  0
  -29.3040  -19.8370   20.4720 C   0  0  0  0  0  0  0  0  0  0  0  0
  -29.1010  -21.2080   19.9240 N   0  0  0  0  0  0  0  0  0  0  0  0
  -29.0370  -19.7210   21.6680 O   0  0  0  0  0  0  0  0  0  0  0  0
  -29.2830  -21.2270   18.9280 H   0  0  0  0  0  0  0  0  0  0  0  0
  -29.9160  -18.3420   19.7690 C   0  0  0  0  0  2  0  0  0  0  0  0
  -30.5450  -15.4350   19.9120 C   0  0  0  0  0  0  0  0  0  0  0  0
  -30.4730  -13.0020   18.9930 C   0  0  0  0  0  2  0  0  0  0  0  0
  -29.4800  -12.8250   17.8150 C   0  0  0  0  0  2  0  0  0  0  0  0
  -28.0620  -12.5370   18.3380 C   0  0  0  0  0  2  0  0  0  0  0  0
  -27.6820  -13.4660   19.5160 C   0  0  0  0  0  3  0  0  0  0  0  0
  -28.7990  -13.5920   20.5770 C   0  0  0  0  0  2  0  0  0  0  0  0
  -29.9860  -14.1210   19.8860 N   0  0  0  0  0  0  0  0  0  0  0  0
  -31.7310  -15.4470   19.5520 O   0  0  0  0  0  0  0  0  0  0  0  0
  -29.7910  -16.7020   20.1270 N   0  0  0  0  0  0  0  0  0  0  0  0
  -28.8680  -16.4950   20.4780 H   0  0  0  0  0  0  0  0  0  0  0  0
  -25.3690  -13.9960   20.4450 C   0  0  0  0  0  0  0  0  0  0  0  0
  -24.3330  -13.2060   20.8550 C   0  0  0  0  0  0  0  0  0  0  0  0
  -24.7930  -11.8580   20.7430 C   0  0  0  0  0  0  0  0  0  0  0  0
  -26.3910  -13.1300   20.1000 N   0  0  0  0  0  0  0  0  0  0  0  0
  -26.0610  -11.8360   20.3460 N   0  0  0  0  0  0  0  0  0  0  0  0
  -24.0760  -10.5890   20.9320 C   0  0  0  0  0  0  0  0  0  0  0  0
  -24.5270   -9.6140   21.8480 C   0  0  0  0  0  3  0  0  0  0  0  0
  -23.8060   -8.4140   22.0280 C   0  0  0  0  0  3  0  0  0  0  0  0
  -22.6190   -8.1800   21.2940 C   0  0  0  0  0  0  0  0  0  0  0  0
  -22.1860   -9.1460   20.3670 C   0  0  0  0  0  3  0  0  0  0  0  0
  -22.9080  -10.3370   20.1840 C   0  0  0  0  0  3  0  0  0  0  0  0
  -21.8680   -7.0330   21.3840 O   0  0  0  0  0  0  0  0  0  0  0  0
  -21.8000   -6.3070   22.5460 C   0  0  0  0  0  0  0  0  0  0  0  0
  -21.3120   -6.8670   23.7470 C   0  0  0  0  0  3  0  0  0  0  0  0
  -21.1940   -6.0650   24.9000 C   0  0  0  0  0  3  0  0  0  0  0  0
  -21.5530   -4.7060   24.8530 C   0  0  0  0  0  0  0  0  0  0  0  0
  -22.0340   -4.1450   23.6560 C   0  0  0  0  0  3  0  0  0  0  0  0
  -22.1530   -4.9440   22.5060 C   0  0  0  0  0  0  0  0  0  0  0  0
  -22.5970   -4.3930   21.3500 F   0  0  0  0  0  0  0  0  0  0  0  0
  -21.4340   -3.9340   25.9590 F   0  0  0  0  0  0  0  0  0  0  0  0
  -22.9580  -13.6740   21.2300 C   0  0  0  0  0  0  0  0  0  0  0  0
  -22.2850  -12.9510   22.1170 N   0  0  0  0  0  0  0  0  0  0  0  0
  -22.4910  -14.7170   20.7720 O   0  0  0  0  0  0  0  0  0  0  0  0
  -22.6760  -12.1070   22.5080 H   0  0  0  0  0  0  0  0  0  0  0  0
  -21.3640  -13.2450   22.4110 H   0  0  0  0  0  0  0  0  0  0  0  0
  -25.5210  -15.3730   20.3060 N   0  0  0  0  0  0  0  0  0  0  0  0
  -24.7590  -16.0170   20.4850 H   0  0  0  0  0  0  0  0  0  0  0  0
  -26.3290  -15.8220   19.8970 H   0  0  0  0  0  0  0  0  0  0  0  0
  -28.1150  -24.3050   19.8790 C   0  0  0  0  0  3  0  0  0  0  0  0
  -28.1940  -25.9180   20.2780 O   0  0  0  0  0  0  0  0  0  0  0  0
  -24.5950  -31.8880   23.1940 C   0  0  0  0  0  0  0  0  0  0  0  0
  -27.1750  -27.0110   20.1740 C   0  0  0  0  0  0  0  0  0  0  0  0
  -23.4050  -30.4810   21.5610 C   0  0  0  0  0  3  0  0  0  0  0  0
  -24.8610  -28.8830   20.1320 C   0  0  0  0  0  0  0  0  0  0  0  0
  -25.9690  -30.7060   21.4070 C   0  0  0  0  0  2  0  0  0  0  0  0
  -26.0460  -29.2950   20.7520 C   0  0  0  0  0  0  0  0  0  0  0  0
  -27.1940  -28.3790   20.7500 C   0  0  0  0  0  3  0  0  0  0  0  0
  -25.9610  -26.7580   19.4960 C   0  0  0  0  0  3  0  0  0  0  0  0
  -24.8440  -27.6370   19.4830 C   0  0  0  0  0  3  0  0  0  0  0  0
  -23.6350  -29.7950   20.1850 C   0  0  0  0  0  2  0  0  0  0  0  0
  -24.6780  -31.0530   22.1080 N   0  0  0  0  0  0  0  0  0  0  0  0
  -23.5050  -32.1710   23.7190 O   0  0  0  0  0  0  0  0  0  0  0  0
  -22.7210  -29.4820   22.5320 C   0  0  0  0  0  0  0  0  0  0  0  0
  -21.3910  -29.3080   22.4130 N   0  0  0  0  0  0  0  0  0  0  0  0
  -23.3930  -28.8650   23.3630 O   0  0  0  0  0  0  0  0  0  0  0  0
  -20.9010  -29.8570   21.7200 H   0  0  0  0  0  0  0  0  0  0  0  0
  -18.0190  -28.0780   22.9440 C   0  0  0  0  0  0  0  0  0  0  0  0
  -20.5790  -28.3650   23.1900 C   0  0  0  0  0  3  0  0  0  0  0  0
  -20.6870  -26.9330   22.6150 C   0  0  0  0  0  2  0  0  0  0  0  0
  -19.5810  -26.6030   21.6070 C   0  0  0  0  0  2  0  0  0  0  0  0
  -18.2020  -26.7330   22.2610 C   0  0  0  0  0  2  0  0  0  0  0  0
  -19.1340  -28.8510   23.3650 C   0  0  0  0  0  0  0  0  0  0  0  0
  -18.9060  -30.1080   23.9670 C   0  0  0  0  0  3  0  0  0  0  0  0
  -17.5960  -30.5930   24.1480 C   0  0  0  0  0  3  0  0  0  0  0  0
  -16.4970  -29.8180   23.7400 C   0  0  0  0  0  3  0  0  0  0  0  0
  -16.7080  -28.5620   23.1440 C   0  0  0  0  0  3  0  0  0  0  0  0
  -25.8630  -32.5410   23.8220 C   0  0  0  0  0  3  0  0  0  0  0  0
  -26.3680  -31.7940   25.1190 C   0  0  1  0  0  0  0  0  0  0  0  0
  -25.2640  -31.5700   26.1790 C   0  0  0  0  0  1  0  0  0  0  0  0
  -26.9610  -30.4120   24.7640 C   0  0  0  0  0  1  0  0  0  0  0  0
  -27.5080  -32.6040   25.7790 C   0  0  0  0  0  1  0  0  0  0  0  0
  -25.5400  -33.9440   24.1420 N   0  0  0  0  0  0  0  0  0  0  0  0
  -25.8640  -35.0000   23.3830 C   0  0  0  0  0  0  0  0  0  0  0  0
  -26.5290  -34.8960   22.3480 O   0  0  0  0  0  0  0  0  0  0  0  0
  -24.9480  -34.0970   24.9440 H   0  0  0  0  0  0  0  0  0  0  0  0
  -24.1290  -36.7940   23.0420 C   0  0  0  0  0  1  0  0  0  0  0  0
  -25.3790  -36.3910   23.8420 C   0  0  0  0  0  3  0  0  0  0  0  0
  -27.5130  -37.2930   24.6600 C   0  0  0  0  0  1  0  0  0  0  0  0
  -26.4080  -37.4470   23.7170 N   0  0  0  0  0  0  0  0  0  0  0  0
  -25.9980  -38.3670   23.8570 H   0  0  0  0  0  0  0  0  0  0  0  0
  2  4  2  0
  3  2  1  0
  3  1  1  0
  5  3  1  0
  6 15  1  0
  6  2  1  0
  7 15  1  0
  8 13  1  0
  9 10  1  0
  9  8  1  0
 11 10  1  0
 11 20  1  0
 11 12  1  0
 13  7  1  0
 13 12  1  0
 14  7  2  0
 15 16  1  0
 17 18  2  0
 18 37  1  0
 19 18  1  0
 19 22  1  0
 20 21  1  0
 20 17  1  0
 21 19  2  0
 22 23  1  0
 23 24  2  0
 25 28  1  0
 25 24  1  0
 26 25  2  0
 27 26  1  0
 27 22  2  0
 28 29  1  0
 29 30  1  0
 30 31  2  0
 32 31  1  0
 32 36  1  0
 33 32  2  0
 34 29  2  0
 34 33  1  0
 35 34  1  0
 37 38  1  0
 38 41  1  0
 38 40  1  0
 39 37  2  0
 42 17  1  0
 42 43  1  0
 44 42  1  0
 45 46  1  0
 45  1  2  0
 47 58  2  0
 48 46  1  0
 48 53  1  0
 49 57  1  0
 49 59  1  0
 50 56  1  0
 50 52  1  0
 51 57  1  0
 52 51  1  0
 53 52  2  0
 54 48  2  0
 55 54  1  0
 55 50  2  0
 56 49  1  0
 57 47  1  0
 59 61  2  0
 60 59  1  0
 62 60  1  0
 63 72  2  0
 63 68  1  0
 64 60  1  0
 64 68  1  0
 65 64  1  0
 66 67  1  0
 66 65  1  0
 67 63  1  0
 68 69  2  0
 69 70  1  0
 71 70  2  0
 72 71  1  0
 73 47  1  0
 73 78  1  0
 73 74  1  0
 74 77  1  1
 74 75  1  0
 76 74  1  0
 78 81  1  0
 79 83  1  0
 79 78  1  0
 80 79  2  0
 83 82  1  0
 85 83  1  0
 85 86  1  0
 85 84  1  0
M  ISO  4   7 100  15 100  45 101  46 101
M  END
>  <TORSDO>  (44) 
F 19

>  <SCORE>  (44) 
-15.612

>  <name>  (44) 
43

>  <ligand_id>  (44) 
43

>  <original_smiles>  (44) 
[H]c1c([H])c([H])c2c(c1[H])C([H])([H])C([H])([H])C([H])([H])C2([H])N([H])C(=O)C1([H])N(C(=O)C([H])(N([H])C(=O)C([H])(N([H])C([H])([H])[H])C([H])([H])[H])C(C([H])([H])[H])(C([H])([H])[H])C([H])([H])[H])C([H])([H])c2c([H])c(OC([H])([H])C([H])([H])N([H])C(=O)C([H])([H])N([H])C(=O)N3C([H])([H])C([H])([H])C([H])([H])C([H])(n4nc(-c5c([H])c([H])c(Oc6c([H])c([H])c(F)c([H])c6F)c([H])c5[H])c(C(=O)N([H])[H])c4N([H])[H])C3([H])[H])c([H])c([H])c2C1([H])[H]

>  <smiles>  (44) 
[H]c1c([H])c([H])c2c(c1[H])C([H])([H])C([H])([H])C([H])([H])C2([H])N([H])C(=O)C1([H])N(C(=O)C([H])(N([H])C(=O)C([H])(N([H])C([H])([H])[H])C([H])([H])[H])C(C([H])([H])[H])(C([H])([H])[H])C([H])([H])[H])C([H])([H])c2c([H])c(OC([H])([H])C([H])([H])N([H])C(=O)C([H])([H])N([H])C(=O)N3C([H])([H])C([H])([H])C([H])([H])C([H])(n4nc(-c5c([H])c([H])c(Oc6c([H])c([H])c(F)c([H])c6F)c([H])c5[H])c(C(=O)N([H])[H])c4N([H])[H])C3([H])[H])c([H])c([H])c2C1([H])[H]

$$$$
44:0:0
     RDKit          3D

 91 90  0  0  1  0  0  0  0  0999 V2000
  -22.3780  -26.5670   20.0390 C   0  0  0  0  0 15  0  0  0  0  0  0
  -21.4470  -28.4600   20.6240 C   0  0  0  0  0 15  0  0  0  0  0  0
  -21.7110  -29.8330   22.2970 C   0  0  0  0  0 15  0  0  0  0  0  0
  -23.1170  -29.5580   23.8760 C   0  0  0  0  0 15  0  0  0  0  0  0
  -25.1180  -28.8580   23.7590 C   0  0  0  0  0  1  0  0  0  0  0  0
  -26.2690  -27.7470   22.8560 O   0  0  0  0  0  0  0  0  0  0  0  0
  -24.5520  -31.7480   23.0620 C   0  0  0  0  0  0  0  0  0  0  0  0
  -26.8640  -27.6110   21.5550 C   0  0  0  0  0  3  0  0  0  0  0  0
  -23.8700  -29.4880   21.4300 C   0  0  0  0  0  3  0  0  0  0  0  0
  -25.3380  -28.8320   19.9160 C   0  0  0  0  0  3  0  0  0  0  0  0
  -25.9870  -30.8560   21.3160 C   0  0  0  0  0  2  0  0  0  0  0  0
  -26.3140  -29.5350   20.6620 C   0  0  0  0  0  3  0  0  0  0  0  0
  -27.3780  -28.8190   21.1750 C   0  0  0  0  0  2  0  0  0  0  0  0
  -26.2800  -26.7870   20.5390 C   0  0  0  0  0  2  0  0  0  0  0  0
  -25.4470  -27.4620   19.6490 C   0  0  0  0  0  2  0  0  0  0  0  0
  -24.0370  -29.4010   19.9290 C   0  0  0  0  0  2  0  0  0  0  0  0
  -24.7050  -30.7800   22.0080 N   0  0  0  0  0  0  0  0  0  0  0  0
  -23.4320  -32.1770   23.3970 O   0  0  0  0  0  0  0  0  0  0  0  0
  -23.3740  -27.8270   22.2310 C   0  0  0  0  0  0  0  0  0  0  0  0
  -22.1560  -27.3970   22.9820 N   0  0  0  0  0  0  0  0  0  0  0  0
  -24.0510  -26.9820   22.6760 O   0  0  0  0  0  0  0  0  0  0  0  0
  -22.5140  -26.5830   23.4580 H   0  0  0  0  0  0  0  0  0  0  0  0
  -17.9920  -27.7810   22.6020 C   0  0  0  0  0  0  0  0  0  0  0  0
  -20.5780  -27.4690   23.3550 C   0  0  0  0  0  3  0  0  0  0  0  0
  -20.2680  -26.0540   22.9250 C   0  0  0  0  0  2  0  0  0  0  0  0
  -19.3610  -25.8340   21.7190 C   0  0  0  0  0  2  0  0  0  0  0  0
  -17.9980  -26.4170   21.9670 C   0  0  0  0  0  2  0  0  0  0  0  0
  -19.1700  -28.3700   23.1820 C   0  0  0  0  0  0  0  0  0  0  0  0
  -18.8650  -29.6310   23.8230 C   0  0  0  0  0  3  0  0  0  0  0  0
  -17.5980  -30.2800   23.7740 C   0  0  0  0  0  3  0  0  0  0  0  0
  -16.4950  -29.6370   23.2010 C   0  0  0  0  0  3  0  0  0  0  0  0
  -16.7040  -28.3740   22.6410 C   0  0  0  0  0  3  0  0  0  0  0  0
  -25.7530  -32.3490   23.9640 C   0  0  0  0  0  3  0  0  0  0  0  0
  -25.3910  -33.7520   24.2340 N   0  0  0  0  0  0  0  0  0  0  0  0
  -25.8100  -34.7960   23.5170 C   0  0  0  0  0  0  0  0  0  0  0  0
  -26.5610  -34.6690   22.5490 O   0  0  0  0  0  0  0  0  0  0  0  0
  -24.7320  -33.9180   24.9810 H   0  0  0  0  0  0  0  0  0  0  0  0
  -24.1130  -36.5930   23.0590 C   0  0  0  0  0  1  0  0  0  0  0  0
  -25.3180  -36.1970   23.9270 C   0  0  0  0  0  3  0  0  0  0  0  0
  -27.4290  -37.0970   24.8100 C   0  0  0  0  0  1  0  0  0  0  0  0
  -26.3640  -37.2400   23.8210 N   0  0  0  0  0  0  0  0  0  0  0  0
  -25.9550  -38.1660   23.9260 H   0  0  0  0  0  0  0  0  0  0  0  0
  -26.1640  -31.7120   25.4030 C   0  0  1  0  0  0  0  0  0  0  0  0
  -24.9550  -31.4260   26.3290 C   0  0  0  0  0  1  0  0  0  0  0  0
  -27.1140  -30.4720   25.3530 C   0  0  0  0  0  1  0  0  0  0  0  0
  -27.0740  -32.7050   26.1850 C   0  0  0  0  0  1  0  0  0  0  0  0
  -23.4520  -24.7930   20.4810 C   0  0  0  0  0 15  0  0  0  0  0  0
  -24.8210  -23.3170   19.8700 C   0  0  0  0  0  1  0  0  0  0  0  0
  -26.7470  -20.5030   19.8120 C   0  0  0  0  0  2  0  0  0  0  0  0
  -25.5350  -21.5650   20.1240 N   0  0  0  0  0  0  0  0  0  0  0  0
  -27.6860  -21.1010   19.2840 O   0  0  0  0  0  1  0  0  0  0  0  0
  -24.8370  -21.0290   20.6240 H   0  0  0  0  0  0  0  0  0  0  0  0
  -27.2520  -18.5840   19.9810 C   0  0  0  0  0 15  0  0  0  0  0  0
  -29.5710  -15.9090   19.6390 C   0  0  0  0  0  0  0  0  0  0  0  0
  -30.2020  -13.3440   18.8830 C   0  0  0  0  0  2  0  0  0  0  0  0
  -29.2920  -12.7480   17.7650 C   0  0  0  0  0  2  0  0  0  0  0  0
  -27.9210  -12.3310   18.3300 C   0  0  0  0  0  2  0  0  0  0  0  0
  -27.4450  -13.3480   19.3890 C   0  0  0  0  0  3  0  0  0  0  0  0
  -28.4980  -13.6700   20.4440 C   0  0  0  0  0  2  0  0  0  0  0  0
  -29.4480  -14.4430   19.6730 N   0  0  0  0  0  0  0  0  0  0  0  0
  -30.7920  -16.0500   19.3350 O   0  0  0  0  0  0  0  0  0  0  0  0
  -28.4170  -17.0670   19.8140 N   0  0  0  0  0  2  0  0  0  0  0  0
  -29.1840  -17.7130   19.6860 H   0  0  0  0  0  0  0  0  0  0  0  0
  -25.2730  -13.9470   20.4760 C   0  0  0  0  0  0  0  0  0  0  0  0
  -24.2360  -13.1890   20.9280 C   0  0  0  0  0  0  0  0  0  0  0  0
  -24.6360  -11.8270   20.7570 C   0  0  0  0  0  0  0  0  0  0  0  0
  -26.2070  -13.0380   20.0300 N   0  0  0  0  0  0  0  0  0  0  0  0
  -25.8670  -11.7540   20.2750 N   0  0  0  0  0  0  0  0  0  0  0  0
  -23.8890  -10.5850   20.9560 C   0  0  0  0  0  0  0  0  0  0  0  0
  -24.3640   -9.5670   21.8100 C   0  0  0  0  0  3  0  0  0  0  0  0
  -23.6120   -8.3880   21.9970 C   0  0  0  0  0  3  0  0  0  0  0  0
  -22.3750   -8.2240   21.3300 C   0  0  0  0  0  0  0  0  0  0  0  0
  -21.9220   -9.2310   20.4600 C   0  0  0  0  0  3  0  0  0  0  0  0
  -22.6730  -10.4000   20.2700 C   0  0  0  0  0  3  0  0  0  0  0  0
  -21.5860   -7.1050   21.4340 O   0  0  0  0  0  0  0  0  0  0  0  0
  -21.5610   -6.3490   22.5770 C   0  0  0  0  0  0  0  0  0  0  0  0
  -21.2180   -6.9020   23.8290 C   0  0  0  0  0  3  0  0  0  0  0  0
  -21.1370   -6.0730   24.9660 C   0  0  0  0  0  3  0  0  0  0  0  0
  -21.3870   -4.6930   24.8500 C   0  0  0  0  0  0  0  0  0  0  0  0
  -21.7220   -4.1390   23.6020 C   0  0  0  0  0  3  0  0  0  0  0  0
  -21.8070   -4.9650   22.4680 C   0  0  0  0  0  0  0  0  0  0  0  0
  -22.1100   -4.4250   21.2640 F   0  0  0  0  0  0  0  0  0  0  0  0
  -21.3000   -3.8940   25.9390 F   0  0  0  0  0  0  0  0  0  0  0  0
  -22.9100  -13.7050   21.3900 C   0  0  0  0  0  0  0  0  0  0  0  0
  -22.2660  -12.9960   22.3080 N   0  0  0  0  0  0  0  0  0  0  0  0
  -22.4620  -14.7730   20.9720 O   0  0  0  0  0  0  0  0  0  0  0  0
  -22.6470  -12.1300   22.6620 H   0  0  0  0  0  0  0  0  0  0  0  0
  -21.3810  -13.3220   22.6660 H   0  0  0  0  0  0  0  0  0  0  0  0
  -25.4920  -15.3200   20.3780 N   0  0  0  0  0  0  0  0  0  0  0  0
  -24.7950  -16.0010   20.6570 H   0  0  0  0  0  0  0  0  0  0  0  0
  -26.3480  -15.7430   20.0340 H   0  0  0  0  0  0  0  0  0  0  0  0
  6  5  1  0
  7 18  2  0
  8  6  1  0
  9 17  1  0
  9 19  1  0
 10 15  1  0
 10 16  1  0
 10 12  1  0
 11 17  1  0
 12 13  1  0
 12 11  1  0
 13  8  1  0
 14  8  1  0
 15 14  1  0
 16  9  1  0
 17  7  1  0
 19 21  2  0
 19 20  1  0
 20 22  1  0
 23 32  2  0
 23 28  1  0
 24 20  1  0
 25 24  1  0
 26 27  1  0
 26 25  1  0
 27 23  1  0
 28 24  1  0
 28 29  2  0
 30 29  1  0
 31 30  2  0
 32 31  1  0
 33  7  1  0
 33 34  1  0
 33 43  1  0
 34 37  1  0
 35 39  1  0
 35 34  1  0
 36 35  2  0
 39 38  1  0
 41 42  1  0
 41 39  1  0
 41 40  1  0
 43 46  1  1
 43 44  1  0
 45 43  1  0
 48 50  1  0
 49 50  1  0
 50 52  1  0
 51 49  1  0
 54 60  1  0
 54 62  1  0
 55 60  1  0
 56 57  1  0
 56 55  1  0
 58 57  1  0
 58 67  1  0
 58 59  1  0
 60 59  1  0
 61 54  2  0
 63 62  1  0
 64 65  2  0
 65 84  1  0
 66 65  1  0
 66 69  1  0
 67 68  1  0
 67 64  1  0
 68 66  2  0
 69 70  1  0
 70 71  2  0
 72 75  1  0
 72 71  1  0
 73 72  2  0
 74 73  1  0
 74 69  2  0
 75 76  1  0
 76 77  1  0
 77 78  2  0
 79 78  1  0
 79 83  1  0
 80 79  2  0
 81 76  2  0
 81 80  1  0
 82 81  1  0
 84 85  1  0
 85 87  1  0
 85 88  1  0
 86 84  2  0
 89 64  1  0
 89 90  1  0
 91 89  1  0
M  ISO  4   5 101   6 101  54 100  62 100
M  END
>  <TORSDO>  (45) 
F 24

>  <SCORE>  (45) 
-13.504

>  <name>  (45) 
44

>  <ligand_id>  (45) 
44

>  <original_smiles>  (45) 
[H]c1c([H])c([H])c2c(c1[H])C([H])([H])C([H])([H])C([H])([H])C2([H])N([H])C(=O)C1([H])N(C(=O)C([H])(N([H])C(=O)C([H])(N([H])C([H])([H])[H])C([H])([H])[H])C(C([H])([H])[H])(C([H])([H])[H])C([H])([H])[H])C([H])([H])c2c([H])c(OC([H])([H])C([H])([H])C([H])([H])C([H])([H])C([H])([H])C([H])([H])C([H])([H])N([H])C(=O)C([H])([H])N([H])C(=O)N3C([H])([H])C([H])([H])C([H])([H])C([H])(n4nc(-c5c([H])c([H])c(Oc6c([H])c([H])c(F)c([H])c6F)c([H])c5[H])c(C(=O)N([H])[H])c4N([H])[H])C3([H])[H])c([H])c([H])c2C1([H])[H]

>  <smiles>  (45) 
[H]c1c([H])c([H])c2c(c1[H])C([H])([H])C([H])([H])C([H])([H])C2([H])N([H])C(=O)C1([H])N(C(=O)C([H])(N([H])C(=O)C([H])(N([H])C([H])([H])[H])C([H])([H])[H])C(C([H])([H])[H])(C([H])([H])[H])C([H])([H])[H])C([H])([H])c2c([H])c(OC([H])([H])C([H])([H])C([H])([H])C([H])([H])C([H])([H])C([H])([H])C([H])([H])N([H])C(=O)C([H])([H])N([H])C(=O)N3C([H])([H])C([H])([H])C([H])([H])C([H])(n4nc(-c5c([H])c([H])c(Oc6c([H])c([H])c(F)c([H])c6F)c([H])c5[H])c(C(=O)N([H])[H])c4N([H])[H])C3([H])[H])c([H])c([H])c2C1([H])[H]

$$$$
45:0:0
     RDKit          3D

 90 97  0  0  1  0  0  0  0  0999 V2000
  -29.4640  -21.7560   20.3750 C   0  0  0  0  0  0  0  0  0  0  0  0
  -28.7420  -22.8750   20.6210 N   0  0  0  0  0  0  0  0  0  0  0  0
  -30.5120  -21.7980   19.7260 O   0  0  0  0  0  0  0  0  0  0  0  0
  -27.9040  -22.7550   21.1730 H   0  0  0  0  0  0  0  0  0  0  0  0
  -28.9290  -20.3970   20.9030 C   0  0  0  0  0  2  0  0  0  0  0  0
  -29.8020  -19.2980   20.5510 O   0  0  0  0  0  0  0  0  0  0  0  0
  -29.3740  -18.0020   20.6450 C   0  0  0  0  0  0  0  0  0  0  0  0
  -28.2170  -17.6570   20.8960 O   0  0  0  0  0  0  0  0  0  0  0  0
  -30.4850  -16.9570   20.4060 C   0  0  0  0  0  2  0  0  0  0  0  0
  -30.7200  -14.4950   20.1210 C   0  0  0  0  0  0  0  0  0  0  0  0
  -30.4150  -12.2850   19.0690 C   0  0  0  0  0  2  0  0  0  0  0  0
  -29.4430  -12.4320   17.8810 C   0  0  0  0  0  2  0  0  0  0  0  0
  -27.9810  -12.2900   18.3520 C   0  0  0  0  0  2  0  0  0  0  0  0
  -27.6650  -13.1700   19.5910 C   0  0  0  0  0  3  0  0  0  0  0  0
  -28.7490  -13.0160   20.6800 C   0  0  0  0  0  2  0  0  0  0  0  0
  -30.0520  -13.3080   20.0650 N   0  0  0  0  0  0  0  0  0  0  0  0
  -31.8410  -14.6520   19.6320 O   0  0  0  0  0  0  0  0  0  0  0  0
  -30.0260  -15.5590   20.5720 N   0  0  0  0  0  0  0  0  0  0  0  0
  -29.0920  -15.4240   20.9300 H   0  0  0  0  0  0  0  0  0  0  0  0
  -25.2970  -13.7800   20.3870 C   0  0  0  0  0  0  0  0  0  0  0  0
  -24.2390  -13.0100   20.7860 C   0  0  0  0  0  0  0  0  0  0  0  0
  -24.6920  -11.6550   20.7270 C   0  0  0  0  0  0  0  0  0  0  0  0
  -26.3280  -12.8960   20.1130 N   0  0  0  0  0  0  0  0  0  0  0  0
  -25.9700  -11.6130   20.3740 N   0  0  0  0  0  0  0  0  0  0  0  0
  -23.9660  -10.3930   20.9280 C   0  0  0  0  0  0  0  0  0  0  0  0
  -24.3900   -9.4430   21.8830 C   0  0  0  0  0  3  0  0  0  0  0  0
  -23.6650   -8.2460   22.0680 C   0  0  0  0  0  3  0  0  0  0  0  0
  -22.5040   -7.9920   21.3010 C   0  0  0  0  0  0  0  0  0  0  0  0
  -22.1010   -8.9310   20.3360 C   0  0  0  0  0  3  0  0  0  0  0  0
  -22.8250  -10.1190   20.1470 C   0  0  0  0  0  3  0  0  0  0  0  0
  -21.7490   -6.8470   21.3990 O   0  0  0  0  0  0  0  0  0  0  0  0
  -21.6400   -6.1550   22.5790 C   0  0  0  0  0  0  0  0  0  0  0  0
  -21.1240   -6.7530   23.7490 C   0  0  0  0  0  3  0  0  0  0  0  0
  -20.9670   -5.9850   24.9200 C   0  0  0  0  0  3  0  0  0  0  0  0
  -21.3110   -4.6200   24.9200 C   0  0  0  0  0  0  0  0  0  0  0  0
  -21.8180   -4.0220   23.7530 C   0  0  0  0  0  3  0  0  0  0  0  0
  -21.9800   -4.7870   22.5860 C   0  0  0  0  0  0  0  0  0  0  0  0
  -22.4490   -4.2010   21.4580 F   0  0  0  0  0  0  0  0  0  0  0  0
  -21.1520   -3.8800   26.0420 F   0  0  0  0  0  0  0  0  0  0  0  0
  -22.8540  -13.4900   21.1110 C   0  0  0  0  0  0  0  0  0  0  0  0
  -22.1530  -12.7880   21.9960 N   0  0  0  0  0  0  0  0  0  0  0  0
  -22.4020  -14.5210   20.6150 O   0  0  0  0  0  0  0  0  0  0  0  0
  -22.5350  -11.9580   22.4250 H   0  0  0  0  0  0  0  0  0  0  0  0
  -21.2240  -13.0870   22.2500 H   0  0  0  0  0  0  0  0  0  0  0  0
  -25.4640  -15.1520   20.2180 N   0  0  0  0  0  0  0  0  0  0  0  0
  -24.7080  -15.8110   20.3650 H   0  0  0  0  0  0  0  0  0  0  0  0
  -26.3160  -15.5950   19.8960 H   0  0  0  0  0  0  0  0  0  0  0  0
  -28.9900  -24.2250   20.0590 C   0  0  0  0  0  2  0  0  0  0  0  0
  -28.3810  -25.3820   20.9050 C   0  0  0  0  0  2  0  0  0  0  0  0
  -28.5130  -26.6970   20.3080 O   0  0  0  0  0  0  0  0  0  0  0  0
  -24.6610  -31.8850   23.3380 C   0  0  0  0  0  0  0  0  0  0  0  0
  -27.3600  -27.4580   20.2770 C   0  0  0  0  0  0  0  0  0  0  0  0
  -23.4800  -30.4780   21.6820 C   0  0  0  0  0  3  0  0  0  0  0  0
  -24.9580  -28.9600   20.2580 C   0  0  0  0  0  0  0  0  0  0  0  0
  -26.0050  -30.8580   21.5030 C   0  0  0  0  0  2  0  0  0  0  0  0
  -26.1080  -29.4900   20.8560 C   0  0  0  0  0  0  0  0  0  0  0  0
  -27.3160  -28.7500   20.8550 C   0  0  0  0  0  3  0  0  0  0  0  0
  -26.1960  -26.9500   19.6620 C   0  0  0  0  0  3  0  0  0  0  0  0
  -24.9990  -27.6920   19.6520 C   0  0  0  0  0  3  0  0  0  0  0  0
  -23.7040  -29.8070   20.3020 C   0  0  0  0  0  2  0  0  0  0  0  0
  -24.7340  -31.0890   22.2330 N   0  0  0  0  0  0  0  0  0  0  0  0
  -23.5740  -32.1450   23.8720 O   0  0  0  0  0  0  0  0  0  0  0  0
  -22.8310  -29.4480   22.6340 C   0  0  0  0  0  0  0  0  0  0  0  0
  -21.5110  -29.2450   22.4890 N   0  0  0  0  0  0  0  0  0  0  0  0
  -23.5130  -28.8360   23.4610 O   0  0  0  0  0  0  0  0  0  0  0  0
  -21.0210  -29.7930   21.7960 H   0  0  0  0  0  0  0  0  0  0  0  0
  -18.1510  -27.9900   22.9280 C   0  0  0  0  0  0  0  0  0  0  0  0
  -20.6990  -28.2940   23.2490 C   0  0  0  0  0  3  0  0  0  0  0  0
  -20.8380  -26.8630   22.6790 C   0  0  0  0  0  2  0  0  0  0  0  0
  -19.7610  -26.5170   21.6460 C   0  0  0  0  0  2  0  0  0  0  0  0
  -18.3650  -26.6400   22.2620 C   0  0  0  0  0  2  0  0  0  0  0  0
  -19.2470  -28.7730   23.3770 C   0  0  0  0  0  0  0  0  0  0  0  0
  -18.9950  -30.0370   23.9560 C   0  0  0  0  0  3  0  0  0  0  0  0
  -17.6780  -30.5130   24.0960 C   0  0  0  0  0  3  0  0  0  0  0  0
  -16.5960  -29.7260   23.6640 C   0  0  0  0  0  3  0  0  0  0  0  0
  -16.8330  -28.4670   23.0860 C   0  0  0  0  0  3  0  0  0  0  0  0
  -25.9380  -32.5260   23.9690 C   0  0  0  0  0  3  0  0  0  0  0  0
  -25.6170  -33.9210   24.2950 N   0  0  0  0  0  0  0  0  0  0  0  0
  -25.9470  -34.9750   23.5350 C   0  0  0  0  0  0  0  0  0  0  0  0
  -26.6230  -34.8740   22.5070 O   0  0  0  0  0  0  0  0  0  0  0  0
  -25.0190  -34.0740   25.0940 H   0  0  0  0  0  0  0  0  0  0  0  0
  -24.2060  -36.7510   23.1670 C   0  0  0  0  0  1  0  0  0  0  0  0
  -25.4480  -36.3600   23.9850 C   0  0  0  0  0  3  0  0  0  0  0  0
  -27.5680  -37.2670   24.8270 C   0  0  0  0  0  1  0  0  0  0  0  0
  -26.4720  -37.4210   23.8730 N   0  0  0  0  0  0  0  0  0  0  0  0
  -26.0570  -38.3380   24.0130 H   0  0  0  0  0  0  0  0  0  0  0  0
  -26.4510  -31.7580   25.2490 C   0  0  1  0  0  0  0  0  0  0  0  0
  -25.3510  -31.5060   26.3070 C   0  0  0  0  0  1  0  0  0  0  0  0
  -27.0520  -30.3880   24.8570 C   0  0  0  0  0  1  0  0  0  0  0  0
  -27.5880  -32.5610   25.9220 C   0  0  0  0  0  1  0  0  0  0  0  0
  1  2  1  0
  1  5  1  0
  2  4  1  0
  3  1  2  0
  6  7  1  0
  6  5  1  0
  7  8  2  0
  9 18  1  0
  9  7  1  0
 10 18  1  0
 11 16  1  0
 12 13  1  0
 12 11  1  0
 14 13  1  0
 14 23  1  0
 14 15  1  0
 16 10  1  0
 16 15  1  0
 17 10  2  0
 18 19  1  0
 20 21  2  0
 21 40  1  0
 22 21  1  0
 22 25  1  0
 23 24  1  0
 23 20  1  0
 24 22  2  0
 25 26  1  0
 26 27  2  0
 28 31  1  0
 28 27  1  0
 29 28  2  0
 30 29  1  0
 30 25  2  0
 31 32  1  0
 32 37  2  0
 32 33  1  0
 33 34  2  0
 35 34  1  0
 35 39  1  0
 36 35  2  0
 37 36  1  0
 38 37  1  0
 40 41  1  0
 41 44  1  0
 41 43  1  0
 42 40  2  0
 45 46  1  0
 45 20  1  0
 47 45  1  0
 48  2  1  0
 48 49  1  0
 50 49  1  0
 51 62  2  0
 52 50  1  0
 52 57  1  0
 53 61  1  0
 53 63  1  0
 54 60  1  0
 54 56  1  0
 55 61  1  0
 56 55  1  0
 57 56  2  0
 58 52  2  0
 59 58  1  0
 59 54  2  0
 60 53  1  0
 61 51  1  0
 63 65  2  0
 64 63  1  0
 66 64  1  0
 67 76  2  0
 67 72  1  0
 68 64  1  0
 68 72  1  0
 69 68  1  0
 70 71  1  0
 70 69  1  0
 71 67  1  0
 72 73  2  0
 73 74  1  0
 75 74  2  0
 76 75  1  0
 77 51  1  0
 77 78  1  0
 77 87  1  0
 78 81  1  0
 79 83  1  0
 79 78  1  0
 80 79  2  0
 83 82  1  0
 85 83  1  0
 85 86  1  0
 85 84  1  0
 87 90  1  1
 87 88  1  0
 89 87  1  0
M  ISO  4  10 100  18 100  49 101  50 101
M  END
>  <TORSDO>  (46) 
F 22

>  <SCORE>  (46) 
-12.866

>  <name>  (46) 
45

>  <ligand_id>  (46) 
45

>  <original_smiles>  (46) 
[H]c1c([H])c([H])c2c(c1[H])C([H])([H])C([H])([H])C([H])([H])C2([H])N([H])C(=O)C1([H])N(C(=O)C([H])(N([H])C(=O)C([H])(N([H])C([H])([H])[H])C([H])([H])[H])C(C([H])([H])[H])(C([H])([H])[H])C([H])([H])[H])C([H])([H])c2c([H])c(OC([H])([H])C([H])([H])N([H])C(=O)C([H])([H])OC(=O)C([H])([H])N([H])C(=O)N3C([H])([H])C([H])([H])C([H])([H])C([H])(n4nc(-c5c([H])c([H])c(Oc6c([H])c([H])c(F)c([H])c6F)c([H])c5[H])c(C(=O)N([H])[H])c4N([H])[H])C3([H])[H])c([H])c([H])c2C1([H])[H]

>  <smiles>  (46) 
[H]c1c([H])c([H])c2c(c1[H])C([H])([H])C([H])([H])C([H])([H])C2([H])N([H])C(=O)C1([H])N(C(=O)C([H])(N([H])C(=O)C([H])(N([H])C([H])([H])[H])C([H])([H])[H])C(C([H])([H])[H])(C([H])([H])[H])C([H])([H])[H])C([H])([H])c2c([H])c(OC([H])([H])C([H])([H])N([H])C(=O)C([H])([H])OC(=O)C([H])([H])N([H])C(=O)N3C([H])([H])C([H])([H])C([H])([H])C([H])(n4nc(-c5c([H])c([H])c(Oc6c([H])c([H])c(F)c([H])c6F)c([H])c5[H])c(C(=O)N([H])[H])c4N([H])[H])C3([H])[H])c([H])c([H])c2C1([H])[H]

$$$$
46:0:0
     RDKit          3D

 83 87  0  0  1  0  0  0  0  0999 V2000
  -28.0550  -23.1800   20.1890 C   0  0  0  0  0 15  0  0  0  0  0  0
  -28.1320  -25.1070   20.3120 O   0  0  0  0  0  1  0  0  0  0  0  0
  -24.6910  -31.8390   23.1610 C   0  0  0  0  0  0  0  0  0  0  0  0
  -27.2010  -26.4650   20.2560 C   0  0  0  0  0  0  0  0  0  0  0  0
  -23.5230  -30.4300   21.5250 C   0  0  0  0  0  3  0  0  0  0  0  0
  -24.9770  -28.7060   20.1560 C   0  0  0  0  0  0  0  0  0  0  0  0
  -26.1160  -30.4710   21.4630 C   0  0  0  0  0  2  0  0  0  0  0  0
  -26.1740  -29.0000   20.8170 C   0  0  0  0  0  0  0  0  0  0  0  0
  -27.2550  -27.9190   20.8240 C   0  0  0  0  0  3  0  0  0  0  0  0
  -25.9670  -26.4630   19.5330 C   0  0  0  0  0  3  0  0  0  0  0  0
  -24.9310  -27.4660   19.4880 C   0  0  0  0  0  3  0  0  0  0  0  0
  -23.7890  -29.7000   20.1720 C   0  0  0  0  0  2  0  0  0  0  0  0
  -24.8050  -30.9550   22.1020 N   0  0  0  0  0  0  0  0  0  0  0  0
  -23.5880  -32.1610   23.6430 O   0  0  0  0  0  0  0  0  0  0  0  0
  -22.7650  -29.4900   22.5040 C   0  0  0  0  0  0  0  0  0  0  0  0
  -21.4270  -29.3700   22.3790 N   0  0  0  0  0  0  0  0  0  0  0  0
  -23.3980  -28.8590   23.3540 O   0  0  0  0  0  0  0  0  0  0  0  0
  -20.9620  -29.9280   21.6770 H   0  0  0  0  0  0  0  0  0  0  0  0
  -18.0130  -28.2240   22.9140 C   0  0  0  0  0  0  0  0  0  0  0  0
  -20.5810  -28.4490   23.1520 C   0  0  0  0  0  3  0  0  0  0  0  0
  -20.6500  -27.0170   22.5730 C   0  0  0  0  0  2  0  0  0  0  0  0
  -19.5360  -26.7210   21.5640 C   0  0  0  0  0  2  0  0  0  0  0  0
  -18.1610  -26.8810   22.2190 C   0  0  0  0  0  2  0  0  0  0  0  0
  -19.1470  -28.9670   23.3370 C   0  0  0  0  0  0  0  0  0  0  0  0
  -18.9480  -30.2210   23.9550 C   0  0  0  0  0  3  0  0  0  0  0  0
  -17.6510  -30.7320   24.1480 C   0  0  0  0  0  3  0  0  0  0  0  0
  -16.5330  -29.9880   23.7360 C   0  0  0  0  0  3  0  0  0  0  0  0
  -16.7150  -28.7340   23.1250 C   0  0  0  0  0  3  0  0  0  0  0  0
  -25.9370  -32.5050   23.8220 C   0  0  0  0  0  3  0  0  0  0  0  0
  -25.6040  -33.9100   24.1510 N   0  0  0  0  0  0  0  0  0  0  0  0
  -25.9320  -34.9810   23.4150 C   0  0  0  0  0  0  0  0  0  0  0  0
  -26.5950  -34.8920   22.3800 O   0  0  0  0  0  0  0  0  0  0  0  0
  -25.0090  -34.0500   24.9550 H   0  0  0  0  0  0  0  0  0  0  0  0
  -24.1910  -36.7840   23.1290 C   0  0  0  0  0  1  0  0  0  0  0  0
  -25.4550  -36.3700   23.8990 C   0  0  0  0  0  3  0  0  0  0  0  0
  -27.6050  -37.2700   24.6800 C   0  0  0  0  0  1  0  0  0  0  0  0
  -26.4800  -37.4290   23.7630 N   0  0  0  0  0  0  0  0  0  0  0  0
  -26.0720  -38.3480   23.9190 H   0  0  0  0  0  0  0  0  0  0  0  0
  -26.4080  -31.7600   25.1340 C   0  0  1  0  0  0  0  0  0  0  0  0
  -25.2830  -31.5480   26.1740 C   0  0  0  0  0  1  0  0  0  0  0  0
  -26.9990  -30.3710   24.8050 C   0  0  0  0  0  1  0  0  0  0  0  0
  -27.5420  -32.5640   25.8150 C   0  0  0  0  0  1  0  0  0  0  0  0
  -29.0250  -21.2640   20.2590 C   0  0  0  0  0 15  0  0  0  0  0  0
  -30.1790  -16.1910   20.1390 C   0  0  0  0  0  0  0  0  0  0  0  0
  -30.3390  -13.5550   19.3110 C   0  0  0  0  0  2  0  0  0  0  0  0
  -29.5010  -12.9040   18.1610 C   0  0  0  0  0  2  0  0  0  0  0  0
  -28.1360  -12.4290   18.6650 C   0  0  0  0  0  2  0  0  0  0  0  0
  -27.5600  -13.4540   19.6610 C   0  0  0  0  0  3  0  0  0  0  0  0
  -28.5670  -13.9940   20.7210 C   0  0  0  0  0  2  0  0  0  0  0  0
  -29.6280  -14.7790   19.9980 N   0  0  0  0  0  0  0  0  0  0  0  0
  -31.4100  -15.9430   20.0690 O   0  0  0  0  0  0  0  0  0  0  0  0
  -28.8690  -19.2340   20.1720 C   0  0  0  0  0  2  0  0  0  0  0  0
  -29.7090  -17.8000   20.1790 N   0  0  0  0  0  0  0  0  0  0  0  0
  -27.6690  -18.9690   20.0750 O   0  0  0  0  0  1  0  0  0  0  0  0
  -28.7770  -17.4140   20.1280 H   0  0  0  0  0  0  0  0  0  0  0  0
  -25.2080  -13.9040   20.4640 C   0  0  0  0  0  0  0  0  0  0  0  0
  -24.1700  -13.1000   20.8330 C   0  0  0  0  0  0  0  0  0  0  0  0
  -24.6690  -11.7600   20.7920 C   0  0  0  0  0  0  0  0  0  0  0  0
  -26.2710  -13.0600   20.2120 N   0  0  0  0  0  0  0  0  0  0  0  0
  -25.9620  -11.7600   20.4700 N   0  0  0  0  0  0  0  0  0  0  0  0
  -23.9630  -10.4830   20.9820 C   0  0  0  0  0  0  0  0  0  0  0  0
  -24.3970   -9.5280   21.9280 C   0  0  0  0  0  3  0  0  0  0  0  0
  -23.6840   -8.3240   22.1110 C   0  0  0  0  0  3  0  0  0  0  0  0
  -22.5200   -8.0640   21.3480 C   0  0  0  0  0  0  0  0  0  0  0  0
  -22.1040   -9.0080   20.3930 C   0  0  0  0  0  3  0  0  0  0  0  0
  -22.8190  -10.2030   20.2080 C   0  0  0  0  0  3  0  0  0  0  0  0
  -21.7790   -6.9100   21.4400 O   0  0  0  0  0  0  0  0  0  0  0  0
  -21.7110   -6.1880   22.6050 C   0  0  0  0  0  0  0  0  0  0  0  0
  -21.2250   -6.7530   23.8040 C   0  0  0  0  0  3  0  0  0  0  0  0
  -21.1060   -5.9570   24.9600 C   0  0  0  0  0  3  0  0  0  0  0  0
  -21.4620   -4.5950   24.9180 C   0  0  0  0  0  0  0  0  0  0  0  0
  -21.9410   -4.0290   23.7230 C   0  0  0  0  0  3  0  0  0  0  0  0
  -22.0620   -4.8230   22.5700 C   0  0  0  0  0  0  0  0  0  0  0  0
  -22.5020   -4.2670   21.4150 F   0  0  0  0  0  0  0  0  0  0  0  0
  -21.3420   -3.8270   26.0260 F   0  0  0  0  0  0  0  0  0  0  0  0
  -22.7650  -13.5490   21.1040 C   0  0  0  0  0  0  0  0  0  0  0  0
  -22.0550  -12.8470   21.9790 N   0  0  0  0  0  0  0  0  0  0  0  0
  -22.3080  -14.5630   20.5760 O   0  0  0  0  0  0  0  0  0  0  0  0
  -22.4400  -12.0300   22.4270 H   0  0  0  0  0  0  0  0  0  0  0  0
  -21.1130  -13.1330   22.2050 H   0  0  0  0  0  0  0  0  0  0  0  0
  -25.3350  -15.2790   20.2860 N   0  0  0  0  0  0  0  0  0  0  0  0
  -24.5530  -15.9130   20.4050 H   0  0  0  0  0  0  0  0  0  0  0  0
  -26.1720  -15.7400   19.9540 H   0  0  0  0  0  0  0  0  0  0  0  0
  3 14  2  0
  4  2  1  0
  4  9  1  0
  5 13  1  0
  5 15  1  0
  6 12  1  0
  6  8  1  0
  7 13  1  0
  8  9  2  0
  8  7  1  0
 10  4  2  0
 11 10  1  0
 11  6  2  0
 12  5  1  0
 13  3  1  0
 15 17  2  0
 16 15  1  0
 18 16  1  0
 19 28  2  0
 19 24  1  0
 20 16  1  0
 20 24  1  0
 21 20  1  0
 22 23  1  0
 22 21  1  0
 23 19  1  0
 24 25  2  0
 25 26  1  0
 27 26  2  0
 28 27  1  0
 29  3  1  0
 29 30  1  0
 29 39  1  0
 30 33  1  0
 31 35  1  0
 31 30  1  0
 32 31  2  0
 35 34  1  0
 37 35  1  0
 37 38  1  0
 37 36  1  0
 39 42  1  1
 39 40  1  0
 41 39  1  0
 44 53  1  0
 45 50  1  0
 46 47  1  0
 46 45  1  0
 48 47  1  0
 48 59  1  0
 48 49  1  0
 50 44  1  0
 50 49  1  0
 51 44  2  0
 52 53  1  0
 54 52  1  0
 55 53  1  0
 56 57  2  0
 57 76  1  0
 58 57  1  0
 58 61  1  0
 59 56  1  0
 59 60  1  0
 60 58  2  0
 61 62  1  0
 62 63  2  0
 64 67  1  0
 64 63  1  0
 65 64  2  0
 66 65  1  0
 66 61  2  0
 67 68  1  0
 68 69  1  0
 69 70  2  0
 71 70  1  0
 71 75  1  0
 72 71  2  0
 73 68  2  0
 73 72  1  0
 74 73  1  0
 76 77  1  0
 77 80  1  0
 77 79  1  0
 78 76  2  0
 81 82  1  0
 81 56  1  0
 83 81  1  0
M  ISO  4   1 101   2 101  44 100  53 100
M  END
>  <TORSDO>  (47) 
F 17

>  <SCORE>  (47) 
-16.243

>  <name>  (47) 
46

>  <ligand_id>  (47) 
46

>  <original_smiles>  (47) 
[H]c1c([H])c([H])c2c(c1[H])C([H])([H])C([H])([H])C([H])([H])C2([H])N([H])C(=O)C1([H])N(C(=O)C([H])(N([H])C(=O)C([H])(N([H])C([H])([H])[H])C([H])([H])[H])C(C([H])([H])[H])(C([H])([H])[H])C([H])([H])[H])C([H])([H])c2c([H])c(OC([H])([H])C([H])([H])C(=O)N([H])C(=O)N3C([H])([H])C([H])([H])C([H])([H])C([H])(n4nc(-c5c([H])c([H])c(Oc6c([H])c([H])c(F)c([H])c6F)c([H])c5[H])c(C(=O)N([H])[H])c4N([H])[H])C3([H])[H])c([H])c([H])c2C1([H])[H]

>  <smiles>  (47) 
[H]c1c([H])c([H])c2c(c1[H])C([H])([H])C([H])([H])C([H])([H])C2([H])N([H])C(=O)C1([H])N(C(=O)C([H])(N([H])C(=O)C([H])(N([H])C([H])([H])[H])C([H])([H])[H])C(C([H])([H])[H])(C([H])([H])[H])C([H])([H])[H])C([H])([H])c2c([H])c(OC([H])([H])C([H])([H])C(=O)N([H])C(=O)N3C([H])([H])C([H])([H])C([H])([H])C([H])(n4nc(-c5c([H])c([H])c(Oc6c([H])c([H])c(F)c([H])c6F)c([H])c5[H])c(C(=O)N([H])[H])c4N([H])[H])C3([H])[H])c([H])c([H])c2C1([H])[H]

$$$$
47:0:0
     RDKit          3D

 86 93  0  0  1  0  0  0  0  0999 V2000
  -28.8370  -22.7640   20.5210 C   0  0  0  0  0  3  0  0  0  0  0  0
  -29.3040  -19.8370   20.4720 C   0  0  0  0  0  0  0  0  0  0  0  0
  -29.1010  -21.2080   19.9240 N   0  0  0  0  0  0  0  0  0  0  0  0
  -29.0370  -19.7210   21.6680 O   0  0  0  0  0  0  0  0  0  0  0  0
  -29.2830  -21.2270   18.9280 H   0  0  0  0  0  0  0  0  0  0  0  0
  -29.9160  -18.3420   19.7690 C   0  0  0  0  0  2  0  0  0  0  0  0
  -30.5450  -15.4350   19.9120 C   0  0  0  0  0  0  0  0  0  0  0  0
  -30.4730  -13.0020   18.9930 C   0  0  0  0  0  2  0  0  0  0  0  0
  -29.4800  -12.8250   17.8150 C   0  0  0  0  0  2  0  0  0  0  0  0
  -28.0620  -12.5370   18.3380 C   0  0  0  0  0  2  0  0  0  0  0  0
  -27.6820  -13.4660   19.5160 C   0  0  0  0  0  3  0  0  0  0  0  0
  -28.7990  -13.5920   20.5770 C   0  0  0  0  0  2  0  0  0  0  0  0
  -29.9860  -14.1210   19.8860 N   0  0  0  0  0  0  0  0  0  0  0  0
  -31.7310  -15.4470   19.5520 O   0  0  0  0  0  0  0  0  0  0  0  0
  -29.7910  -16.7020   20.1270 N   0  0  0  0  0  0  0  0  0  0  0  0
  -28.8680  -16.4950   20.4780 H   0  0  0  0  0  0  0  0  0  0  0  0
  -25.3690  -13.9960   20.4450 C   0  0  0  0  0  0  0  0  0  0  0  0
  -24.3330  -13.2060   20.8550 C   0  0  0  0  0  0  0  0  0  0  0  0
  -24.7930  -11.8580   20.7430 C   0  0  0  0  0  0  0  0  0  0  0  0
  -26.3910  -13.1300   20.1000 N   0  0  0  0  0  0  0  0  0  0  0  0
  -26.0610  -11.8360   20.3460 N   0  0  0  0  0  0  0  0  0  0  0  0
  -24.0760  -10.5890   20.9320 C   0  0  0  0  0  0  0  0  0  0  0  0
  -24.5270   -9.6140   21.8480 C   0  0  0  0  0  3  0  0  0  0  0  0
  -23.8060   -8.4140   22.0280 C   0  0  0  0  0  3  0  0  0  0  0  0
  -22.6190   -8.1800   21.2940 C   0  0  0  0  0  0  0  0  0  0  0  0
  -22.1860   -9.1460   20.3670 C   0  0  0  0  0  3  0  0  0  0  0  0
  -22.9080  -10.3370   20.1840 C   0  0  0  0  0  3  0  0  0  0  0  0
  -21.8680   -7.0330   21.3840 O   0  0  0  0  0  0  0  0  0  0  0  0
  -21.8000   -6.3070   22.5460 C   0  0  0  0  0  0  0  0  0  0  0  0
  -21.3120   -6.8670   23.7470 C   0  0  0  0  0  3  0  0  0  0  0  0
  -21.1940   -6.0650   24.9000 C   0  0  0  0  0  3  0  0  0  0  0  0
  -21.5530   -4.7060   24.8530 C   0  0  0  0  0  0  0  0  0  0  0  0
  -22.0340   -4.1450   23.6560 C   0  0  0  0  0  3  0  0  0  0  0  0
  -22.1530   -4.9440   22.5060 C   0  0  0  0  0  0  0  0  0  0  0  0
  -22.5970   -4.3930   21.3500 F   0  0  0  0  0  0  0  0  0  0  0  0
  -21.4340   -3.9340   25.9590 F   0  0  0  0  0  0  0  0  0  0  0  0
  -22.9580  -13.6740   21.2300 C   0  0  0  0  0  0  0  0  0  0  0  0
  -22.2850  -12.9510   22.1170 N   0  0  0  0  0  0  0  0  0  0  0  0
  -22.4910  -14.7170   20.7720 O   0  0  0  0  0  0  0  0  0  0  0  0
  -22.6760  -12.1070   22.5080 H   0  0  0  0  0  0  0  0  0  0  0  0
  -21.3640  -13.2450   22.4110 H   0  0  0  0  0  0  0  0  0  0  0  0
  -25.5210  -15.3730   20.3060 N   0  0  0  0  0  0  0  0  0  0  0  0
  -24.7590  -16.0170   20.4850 H   0  0  0  0  0  0  0  0  0  0  0  0
  -26.3290  -15.8220   19.8970 H   0  0  0  0  0  0  0  0  0  0  0  0
  -28.1150  -24.3050   19.8790 C   0  0  0  0  0  3  0  0  0  0  0  0
  -28.1940  -25.9180   20.2780 O   0  0  0  0  0  0  0  0  0  0  0  0
  -24.5950  -31.8880   23.1940 C   0  0  0  0  0  0  0  0  0  0  0  0
  -27.1750  -27.0110   20.1740 C   0  0  0  0  0  0  0  0  0  0  0  0
  -23.4050  -30.4810   21.5610 C   0  0  0  0  0  3  0  0  0  0  0  0
  -24.8610  -28.8830   20.1320 C   0  0  0  0  0  0  0  0  0  0  0  0
  -25.9690  -30.7060   21.4070 C   0  0  0  0  0  2  0  0  0  0  0  0
  -26.0460  -29.2950   20.7520 C   0  0  0  0  0  0  0  0  0  0  0  0
  -27.1940  -28.3790   20.7500 C   0  0  0  0  0  3  0  0  0  0  0  0
  -25.9610  -26.7580   19.4960 C   0  0  0  0  0  3  0  0  0  0  0  0
  -24.8440  -27.6370   19.4830 C   0  0  0  0  0  3  0  0  0  0  0  0
  -23.6350  -29.7950   20.1850 C   0  0  0  0  0  2  0  0  0  0  0  0
  -24.6780  -31.0530   22.1080 N   0  0  0  0  0  0  0  0  0  0  0  0
  -23.5050  -32.1710   23.7190 O   0  0  0  0  0  0  0  0  0  0  0  0
  -22.7210  -29.4820   22.5320 C   0  0  0  0  0  0  0  0  0  0  0  0
  -21.3910  -29.3080   22.4130 N   0  0  0  0  0  0  0  0  0  0  0  0
  -23.3930  -28.8650   23.3630 O   0  0  0  0  0  0  0  0  0  0  0  0
  -20.9010  -29.8570   21.7200 H   0  0  0  0  0  0  0  0  0  0  0  0
  -18.0190  -28.0780   22.9440 C   0  0  0  0  0  0  0  0  0  0  0  0
  -20.5790  -28.3650   23.1900 C   0  0  0  0  0  3  0  0  0  0  0  0
  -20.6870  -26.9330   22.6150 C   0  0  0  0  0  2  0  0  0  0  0  0
  -19.5810  -26.6030   21.6070 C   0  0  0  0  0  2  0  0  0  0  0  0
  -18.2020  -26.7330   22.2610 C   0  0  0  0  0  2  0  0  0  0  0  0
  -19.1340  -28.8510   23.3650 C   0  0  0  0  0  0  0  0  0  0  0  0
  -18.9060  -30.1080   23.9670 C   0  0  0  0  0  3  0  0  0  0  0  0
  -17.5960  -30.5930   24.1480 C   0  0  0  0  0  3  0  0  0  0  0  0
  -16.4970  -29.8180   23.7400 C   0  0  0  0  0  3  0  0  0  0  0  0
  -16.7080  -28.5620   23.1440 C   0  0  0  0  0  3  0  0  0  0  0  0
  -25.8630  -32.5410   23.8220 C   0  0  0  0  0  3  0  0  0  0  0  0
  -26.3680  -31.7940   25.1190 C   0  0  1  0  0  0  0  0  0  0  0  0
  -25.2640  -31.5700   26.1790 C   0  0  0  0  0  1  0  0  0  0  0  0
  -26.9610  -30.4120   24.7640 C   0  0  0  0  0  1  0  0  0  0  0  0
  -27.5080  -32.6040   25.7790 C   0  0  0  0  0  1  0  0  0  0  0  0
  -25.5400  -33.9440   24.1420 N   0  0  0  0  0  0  0  0  0  0  0  0
  -25.8640  -35.0000   23.3830 C   0  0  0  0  0  0  0  0  0  0  0  0
  -26.5290  -34.8960   22.3480 O   0  0  0  0  0  0  0  0  0  0  0  0
  -24.9480  -34.0970   24.9440 H   0  0  0  0  0  0  0  0  0  0  0  0
  -24.1290  -36.7940   23.0420 C   0  0  0  0  0  1  0  0  0  0  0  0
  -25.3790  -36.3910   23.8420 C   0  0  0  0  0  3  0  0  0  0  0  0
  -27.5130  -37.2930   24.6600 C   0  0  0  0  0  1  0  0  0  0  0  0
  -26.4080  -37.4470   23.7170 N   0  0  0  0  0  0  0  0  0  0  0  0
  -25.9980  -38.3670   23.8570 H   0  0  0  0  0  0  0  0  0  0  0  0
  2  4  2  0
  3  2  1  0
  3  1  1  0
  5  3  1  0
  6 15  1  0
  6  2  1  0
  7 15  1  0
  8 13  1  0
  9 10  1  0
  9  8  1  0
 11 10  1  0
 11 20  1  0
 11 12  1  0
 13  7  1  0
 13 12  1  0
 14  7  2  0
 15 16  1  0
 17 18  2  0
 18 37  1  0
 19 18  1  0
 19 22  1  0
 20 21  1  0
 20 17  1  0
 21 19  2  0
 22 23  1  0
 23 24  2  0
 25 28  1  0
 25 24  1  0
 26 25  2  0
 27 26  1  0
 27 22  2  0
 28 29  1  0
 29 30  1  0
 30 31  2  0
 32 31  1  0
 32 36  1  0
 33 32  2  0
 34 29  2  0
 34 33  1  0
 35 34  1  0
 37 38  1  0
 38 41  1  0
 38 40  1  0
 39 37  2  0
 42 17  1  0
 42 43  1  0
 44 42  1  0
 45 46  1  0
 45  1  2  0
 47 58  2  0
 48 46  1  0
 48 53  1  0
 49 57  1  0
 49 59  1  0
 50 56  1  0
 50 52  1  0
 51 57  1  0
 52 51  1  0
 53 52  2  0
 54 48  2  0
 55 54  1  0
 55 50  2  0
 56 49  1  0
 57 47  1  0
 59 61  2  0
 60 59  1  0
 62 60  1  0
 63 72  2  0
 63 68  1  0
 64 60  1  0
 64 68  1  0
 65 64  1  0
 66 67  1  0
 66 65  1  0
 67 63  1  0
 68 69  2  0
 69 70  1  0
 71 70  2  0
 72 71  1  0
 73 47  1  0
 73 78  1  0
 73 74  1  0
 74 77  1  1
 74 75  1  0
 76 74  1  0
 78 81  1  0
 79 83  1  0
 79 78  1  0
 80 79  2  0
 83 82  1  0
 85 83  1  0
 85 86  1  0
 85 84  1  0
M  ISO  4   7 100  15 100  45 101  46 101
M  END
>  <TORSDO>  (48) 
F 19

>  <SCORE>  (48) 
-15.612

>  <name>  (48) 
47

>  <ligand_id>  (48) 
47

>  <original_smiles>  (48) 
[H]c1c([H])c([H])c2c(c1[H])C([H])([H])C([H])([H])C([H])([H])C2([H])N([H])C(=O)C1([H])N(C(=O)C([H])(N([H])C(=O)C([H])(N([H])C([H])([H])[H])C([H])([H])[H])C(C([H])([H])[H])(C([H])([H])[H])C([H])([H])[H])C([H])([H])c2c([H])c(OC([H])([H])C([H])([H])N([H])C(=O)C([H])([H])N([H])C(=O)N3C([H])([H])C([H])([H])C([H])([H])C([H])(n4nc(-c5c([H])c([H])c(Oc6c([H])c([H])c(F)c([H])c6F)c([H])c5[H])c(C(=O)N([H])[H])c4N([H])[H])C3([H])[H])c([H])c([H])c2C1([H])[H]

>  <smiles>  (48) 
[H]c1c([H])c([H])c2c(c1[H])C([H])([H])C([H])([H])C([H])([H])C2([H])N([H])C(=O)C1([H])N(C(=O)C([H])(N([H])C(=O)C([H])(N([H])C([H])([H])[H])C([H])([H])[H])C(C([H])([H])[H])(C([H])([H])[H])C([H])([H])[H])C([H])([H])c2c([H])c(OC([H])([H])C([H])([H])N([H])C(=O)C([H])([H])N([H])C(=O)N3C([H])([H])C([H])([H])C([H])([H])C([H])(n4nc(-c5c([H])c([H])c(Oc6c([H])c([H])c(F)c([H])c6F)c([H])c5[H])c(C(=O)N([H])[H])c4N([H])[H])C3([H])[H])c([H])c([H])c2C1([H])[H]

$$$$
48:0:0
     RDKit          3D

103111  0  0  1  0  0  0  0  0999 V2000
  -24.2890  -20.6400   20.1050 C   0  0  0  0  0  0  0  0  0  0  0  0
  -24.3320  -20.1130   21.3400 N   0  0  0  0  0  0  0  0  0  0  0  0
  -23.6880  -20.1010   19.1730 O   0  0  0  0  0  0  0  0  0  0  0  0
  -23.8840  -19.2170   21.4660 H   0  0  0  0  0  0  0  0  0  0  0  0
  -26.4320  -21.7130   19.3450 C   0  0  0  0  0  3  0  0  0  0  0  0
  -24.7060  -23.1650   20.3030 C   0  0  0  0  0  3  0  0  0  0  0  0
  -27.3110  -22.8090   19.2960 C   0  0  0  0  0  3  0  0  0  0  0  0
  -25.6230  -24.2550   20.2660 C   0  0  0  0  0  3  0  0  0  0  0  0
  -25.1230  -21.8730   19.8640 C   0  0  0  0  0  0  0  0  0  0  0  0
  -26.9340  -24.1030   19.7130 C   0  0  0  0  0  0  0  0  0  0  0  0
  -27.9710  -25.2200   19.3640 C   0  0  0  0  0  2  0  0  0  0  0  0
  -28.1130  -26.4590   20.1210 O   0  0  0  0  0  0  0  0  0  0  0  0
  -24.6190  -31.8720   23.2230 C   0  0  0  0  0  0  0  0  0  0  0  0
  -27.0830  -27.3760   20.0260 C   0  0  0  0  0  0  0  0  0  0  0  0
  -23.4050  -30.5130   21.5820 C   0  0  0  0  0  3  0  0  0  0  0  0
  -24.8030  -29.0410   20.0780 C   0  0  0  0  0  0  0  0  0  0  0  0
  -25.9500  -30.8080   21.4020 C   0  0  0  0  0  2  0  0  0  0  0  0
  -25.9900  -29.4620   20.7010 C   0  0  0  0  0  0  0  0  0  0  0  0
  -27.1420  -28.6310   20.6880 C   0  0  0  0  0  3  0  0  0  0  0  0
  -25.9180  -27.0760   19.2960 C   0  0  0  0  0  3  0  0  0  0  0  0
  -24.7570  -27.8500   19.3740 C   0  0  0  0  0  3  0  0  0  0  0  0
  -23.5920  -29.9190   20.1760 C   0  0  0  0  0  2  0  0  0  0  0  0
  -24.6790  -31.0820   22.1170 N   0  0  0  0  0  0  0  0  0  0  0  0
  -23.5420  -32.1400   23.7600 O   0  0  0  0  0  0  0  0  0  0  0  0
  -22.7610  -29.4460   22.5110 C   0  0  0  0  0  0  0  0  0  0  0  0
  -21.4350  -29.2870   22.4080 N   0  0  0  0  0  0  0  0  0  0  0  0
  -23.4490  -28.7820   23.2910 O   0  0  0  0  0  0  0  0  0  0  0  0
  -20.9420  -29.9460   21.8300 H   0  0  0  0  0  0  0  0  0  0  0  0
  -18.0460  -28.1410   22.8270 C   0  0  0  0  0  0  0  0  0  0  0  0
  -20.5900  -28.3440   23.1520 C   0  0  0  0  0  3  0  0  0  0  0  0
  -20.6470  -26.8860   22.6160 C   0  0  0  0  0  2  0  0  0  0  0  0
  -19.6090  -26.6140   21.5240 C   0  0  0  0  0  2  0  0  0  0  0  0
  -18.1900  -26.8280   22.0550 C   0  0  0  0  0  2  0  0  0  0  0  0
  -19.1630  -28.8780   23.2920 C   0  0  0  0  0  0  0  0  0  0  0  0
  -18.9610  -30.1390   23.9150 C   0  0  0  0  0  3  0  0  0  0  0  0
  -17.6680  -30.6580   24.0740 C   0  0  0  0  0  3  0  0  0  0  0  0
  -16.5640  -29.9060   23.6500 C   0  0  0  0  0  3  0  0  0  0  0  0
  -16.7420  -28.6520   23.0310 C   0  0  0  0  0  3  0  0  0  0  0  0
  -25.9100  -32.4870   23.8480 C   0  0  0  0  0  3  0  0  0  0  0  0
  -26.4480  -31.6590   25.0800 C   0  0  1  0  0  0  0  0  0  0  0  0
  -25.3720  -31.3480   26.1530 C   0  0  0  0  0  1  0  0  0  0  0  0
  -27.0290  -30.3030   24.6140 C   0  0  0  0  0  1  0  0  0  0  0  0
  -27.6160  -32.4230   25.7520 C   0  0  0  0  0  1  0  0  0  0  0  0
  -25.5900  -33.8620   24.2500 N   0  0  0  0  0  0  0  0  0  0  0  0
  -25.9030  -34.9500   23.5300 C   0  0  0  0  0  0  0  0  0  0  0  0
  -26.5610  -34.8880   22.4830 O   0  0  0  0  0  0  0  0  0  0  0  0
  -24.9990  -33.9770   25.0620 H   0  0  0  0  0  0  0  0  0  0  0  0
  -24.1480  -36.7350   23.2630 C   0  0  0  0  0  1  0  0  0  0  0  0
  -25.4100  -36.3220   24.0410 C   0  0  0  0  0  3  0  0  0  0  0  0
  -27.5640  -37.1830   24.8500 C   0  0  0  0  0  1  0  0  0  0  0  0
  -26.4360  -37.3900   23.9450 N   0  0  0  0  0  0  0  0  0  0  0  0
  -26.0310  -38.3040   24.1370 H   0  0  0  0  0  0  0  0  0  0  0  0
  -24.7980  -20.7560   22.5860 C   0  0  0  0  0  2  0  0  0  0  0  0
  -26.2830  -21.1950   22.6160 C   0  0  0  0  0  2  0  0  0  0  0  0
  -27.3800  -20.1250   22.6560 C   0  0  0  0  0  2  0  0  0  0  0  0
  -27.3660  -18.9820   21.6510 C   0  0  0  0  0  2  0  0  0  0  0  0
  -28.9990  -17.1100   21.3040 C   0  0  0  0  0  0  0  0  0  0  0  0
  -28.4820  -18.1150   21.9940 N   0  0  0  0  0  0  0  0  0  0  0  0
  -28.5840  -16.8040   20.1840 O   0  0  0  0  0  0  0  0  0  0  0  0
  -28.8450  -18.2200   22.9250 H   0  0  0  0  0  0  0  0  0  0  0  0
  -30.1380  -16.3270   22.0000 C   0  0  0  0  0  3  0  0  0  0  0  0
  -30.6680  -14.2820   20.6530 C   0  0  0  0  0  0  0  0  0  0  0  0
  -30.4080  -12.2410   19.2870 C   0  0  0  0  0  2  0  0  0  0  0  0
  -29.4540  -12.5760   18.1220 C   0  0  0  0  0  2  0  0  0  0  0  0
  -27.9680  -12.4720   18.5400 C   0  0  0  0  0  2  0  0  0  0  0  0
  -27.6700  -13.1780   19.8900 C   0  0  0  0  0  3  0  0  0  0  0  0
  -28.7090  -12.7200   20.9280 C   0  0  0  0  0  2  0  0  0  0  0  0
  -30.0430  -13.0990   20.4120 N   0  0  0  0  0  0  0  0  0  0  0  0
  -31.6930  -14.6710   20.1060 O   0  0  0  0  0  0  0  0  0  0  0  0
  -29.9820  -14.9760   21.5460 N   0  0  0  0  0  0  0  0  0  0  0  0
  -29.1110  -14.5560   21.8280 H   0  0  0  0  0  0  0  0  0  0  0  0
  -25.2730  -13.8180   20.5670 C   0  0  0  0  0  0  0  0  0  0  0  0
  -24.1920  -13.0490   20.9120 C   0  0  0  0  0  0  0  0  0  0  0  0
  -24.6390  -11.6940   20.8670 C   0  0  0  0  0  0  0  0  0  0  0  0
  -26.3080  -12.9220   20.3470 N   0  0  0  0  0  0  0  0  0  0  0  0
  -25.9290  -11.6390   20.5710 N   0  0  0  0  0  0  0  0  0  0  0  0
  -23.9070  -10.4310   21.0400 C   0  0  0  0  0  0  0  0  0  0  0  0
  -24.3640   -9.4210   21.9150 C   0  0  0  0  0  3  0  0  0  0  0  0
  -23.6300   -8.2260   22.0720 C   0  0  0  0  0  3  0  0  0  0  0  0
  -22.4250   -8.0330   21.3550 C   0  0  0  0  0  0  0  0  0  0  0  0
  -21.9930   -9.0300   20.4640 C   0  0  0  0  0  3  0  0  0  0  0  0
  -22.7260  -10.2150   20.3030 C   0  0  0  0  0  3  0  0  0  0  0  0
  -21.6640   -6.8910   21.4230 O   0  0  0  0  0  0  0  0  0  0  0  0
  -21.6830   -6.0750   22.5280 C   0  0  0  0  0  0  0  0  0  0  0  0
  -21.4020   -6.5650   23.8220 C   0  0  0  0  0  3  0  0  0  0  0  0
  -21.3670   -5.6790   24.9180 C   0  0  0  0  0  3  0  0  0  0  0  0
  -21.6050   -4.3060   24.7220 C   0  0  0  0  0  0  0  0  0  0  0  0
  -21.8830   -3.8150   23.4350 C   0  0  0  0  0  3  0  0  0  0  0  0
  -21.9200   -4.6970   22.3400 C   0  0  0  0  0  0  0  0  0  0  0  0
  -22.1650   -4.2160   21.0980 F   0  0  0  0  0  0  0  0  0  0  0  0
  -21.5640   -3.4540   25.7730 F   0  0  0  0  0  0  0  0  0  0  0  0
  -22.7960  -13.5320   21.1800 C   0  0  0  0  0  0  0  0  0  0  0  0
  -22.0630  -12.8270   22.0390 N   0  0  0  0  0  0  0  0  0  0  0  0
  -22.3710  -14.5660   20.6730 O   0  0  0  0  0  0  0  0  0  0  0  0
  -22.4300  -11.9950   22.4750 H   0  0  0  0  0  0  0  0  0  0  0  0
  -21.1220  -13.1210   22.2520 H   0  0  0  0  0  0  0  0  0  0  0  0
  -25.4750  -15.1870   20.4160 N   0  0  0  0  0  0  0  0  0  0  0  0
  -24.7430  -15.8710   20.5630 H   0  0  0  0  0  0  0  0  0  0  0  0
  -26.3780  -15.6020   20.2160 H   0  0  0  0  0  0  0  0  0  0  0  0
  -28.6610  -15.5270   24.0140 C   0  0  0  0  0  1  0  0  0  0  0  0
  -29.9890  -16.2120   23.5530 C   0  0  0  0  0  3  0  0  0  0  0  0
  -29.3460  -18.0500   25.3250 C   0  0  0  0  0  1  0  0  0  0  0  0
  -30.3760  -17.5290   24.3030 C   0  0  0  0  0  2  0  0  0  0  0  0
  1  2  1  0
  2  4  1  0
  2 53  1  0
  3  1  2  0
  5  9  1  0
  7  5  2  0
  7 10  1  0
  8  6  1  0
  9  1  1  0
  9  6  2  0
 10  8  2  0
 11 10  1  0
 11 12  1  0
 13 24  2  0
 14 12  1  0
 14 19  1  0
 15 23  1  0
 15 25  1  0
 16 22  1  0
 16 18  1  0
 17 23  1  0
 18 17  1  0
 19 18  2  0
 20 21  1  0
 20 14  2  0
 21 16  2  0
 22 15  1  0
 23 13  1  0
 25 27  2  0
 26 25  1  0
 28 26  1  0
 29 38  2  0
 29 34  1  0
 30 26  1  0
 30 34  1  0
 31 30  1  0
 32 33  1  0
 32 31  1  0
 33 29  1  0
 34 35  2  0
 35 36  1  0
 37 36  2  0
 38 37  1  0
 39 13  1  0
 39 44  1  0
 39 40  1  0
 40 43  1  1
 40 41  1  0
 42 40  1  0
 44 47  1  0
 45 49  1  0
 45 44  1  0
 46 45  2  0
 49 48  1  0
 51 49  1  0
 51 52  1  0
 51 50  1  0
 53 54  1  0
 54 55  1  0
 56 58  1  0
 56 55  1  0
 57 58  1  0
 58 60  1  0
 59 57  2  0
 61 57  1  0
 61101  1  0
 62 70  1  0
 63 68  1  0
 64 65  1  0
 64 63  1  0
 66 65  1  0
 66 75  1  0
 66 67  1  0
 68 62  1  0
 68 67  1  0
 69 62  2  0
 70 71  1  0
 70 61  1  0
 72 73  2  0
 73 92  1  0
 74 73  1  0
 74 77  1  0
 75 72  1  0
 75 76  1  0
 76 74  2  0
 77 78  1  0
 78 79  2  0
 80 83  1  0
 80 79  1  0
 81 80  2  0
 82 81  1  0
 82 77  2  0
 83 84  1  0
 84 85  1  0
 85 86  2  0
 87 86  1  0
 87 91  1  0
 88 87  2  0
 89 84  2  0
 89 88  1  0
 90 89  1  0
 92 93  1  0
 93 96  1  0
 93 95  1  0
 94 92  2  0
 97 98  1  0
 97 72  1  0
 99 97  1  0
101100  1  0
101103  1  0
103102  1  0
M  ISO  4  11 101  12 101  62 100  70 100
M  END
>  <TORSDO>  (49) 
F 26

>  <SCORE>  (49) 
39.860

>  <name>  (49) 
48

>  <ligand_id>  (49) 
48

>  <original_smiles>  (49) 
[H]c1c([H])c([H])c2c(c1[H])C([H])([H])C([H])([H])C([H])([H])C2([H])N([H])C(=O)C1([H])N(C(=O)C([H])(N([H])C(=O)C([H])(N([H])C([H])([H])[H])C([H])([H])[H])C(C([H])([H])[H])(C([H])([H])[H])C([H])([H])[H])C([H])([H])c2c([H])c(OC([H])([H])c3c([H])c([H])c(C(=O)N([H])C([H])([H])C([H])([H])C([H])([H])C([H])([H])N([H])C(=O)C([H])(N([H])C(=O)N4C([H])([H])C([H])([H])C([H])([H])C([H])(n5nc(-c6c([H])c([H])c(Oc7c([H])c([H])c(F)c([H])c7F)c([H])c6[H])c(C(=O)N([H])[H])c5N([H])[H])C4([H])[H])C([H])(C([H])([H])[H])C([H])([H])C([H])([H])[H])c([H])c3[H])c([H])c([H])c2C1([H])[H]

>  <smiles>  (49) 
[H]c1c([H])c([H])c2c(c1[H])C([H])([H])C([H])([H])C([H])([H])C2([H])N([H])C(=O)C1([H])N(C(=O)C([H])(N([H])C(=O)C([H])(N([H])C([H])([H])[H])C([H])([H])[H])C(C([H])([H])[H])(C([H])([H])[H])C([H])([H])[H])C([H])([H])c2c([H])c(OC([H])([H])c3c([H])c([H])c(C(=O)N([H])C([H])([H])C([H])([H])C([H])([H])C([H])([H])N([H])C(=O)C([H])(N([H])C(=O)N4C([H])([H])C([H])([H])C([H])([H])C([H])(n5nc(-c6c([H])c([H])c(Oc7c([H])c([H])c(F)c([H])c7F)c([H])c6[H])c(C(=O)N([H])[H])c5N([H])[H])C4([H])[H])C([H])(C([H])([H])[H])C([H])([H])C([H])([H])[H])c([H])c3[H])c([H])c([H])c2C1([H])[H]

$$$$
49:0:0
     RDKit          3D

 92 99  0  0  1  0  0  0  0  0999 V2000
  -29.3180  -24.3590   20.2430 C   0  0  0  0  0  0  0  0  0  0  0  0
  -30.4500  -24.8960   20.7130 N   0  0  0  0  0  4  0  0  0  0  0  0
  -29.1070  -23.0240   20.1650 N   0  0  0  0  0  0  0  0  0  0  0  0
  -30.5200  -25.9040   20.7430 H   0  0  0  0  0  0  0  0  0  0  0  0
  -31.2200  -24.3520   21.0630 H   0  0  0  0  0  0  0  0  0  0  0  0
  -28.2260  -22.7410   19.7570 H   0  0  0  0  0  0  0  0  0  0  0  0
  -28.2150  -25.2740   19.7820 C   0  0  0  0  0  2  0  0  0  0  0  0
  -28.3650  -26.6640   20.1500 O   0  0  0  0  0  0  0  0  0  0  0  0
  -24.6000  -31.8810   23.2470 C   0  0  0  0  0  0  0  0  0  0  0  0
  -27.2060  -27.4270   20.1220 C   0  0  0  0  0  0  0  0  0  0  0  0
  -23.3800  -30.4900   21.6080 C   0  0  0  0  0  3  0  0  0  0  0  0
  -24.8180  -28.9630   20.1640 C   0  0  0  0  0  0  0  0  0  0  0  0
  -25.9090  -30.8360   21.3980 C   0  0  0  0  0  2  0  0  0  0  0  0
  -25.9860  -29.4680   20.7510 C   0  0  0  0  0  0  0  0  0  0  0  0
  -27.1810  -28.7060   20.7320 C   0  0  0  0  0  3  0  0  0  0  0  0
  -26.0150  -26.9580   19.5120 C   0  0  0  0  0  3  0  0  0  0  0  0
  -24.8290  -27.7060   19.5450 C   0  0  0  0  0  3  0  0  0  0  0  0
  -23.5780  -29.8240   20.2240 C   0  0  0  0  0  2  0  0  0  0  0  0
  -24.6490  -31.0840   22.1410 N   0  0  0  0  0  0  0  0  0  0  0  0
  -23.5220  -32.1530   23.7950 O   0  0  0  0  0  0  0  0  0  0  0  0
  -22.7360  -29.4620   22.5670 C   0  0  0  0  0  0  0  0  0  0  0  0
  -21.4100  -29.2800   22.4480 N   0  0  0  0  0  0  0  0  0  0  0  0
  -23.4250  -28.8320   23.3730 O   0  0  0  0  0  0  0  0  0  0  0  0
  -20.9150  -29.8410   21.7690 H   0  0  0  0  0  0  0  0  0  0  0  0
  -18.0390  -28.0810   22.9580 C   0  0  0  0  0  0  0  0  0  0  0  0
  -20.5980  -28.3400   23.2210 C   0  0  0  0  0  3  0  0  0  0  0  0
  -20.6980  -26.9090   22.6420 C   0  0  0  0  0  2  0  0  0  0  0  0
  -19.5930  -26.5870   21.6320 C   0  0  0  0  0  2  0  0  0  0  0  0
  -18.2130  -26.7330   22.2810 C   0  0  0  0  0  2  0  0  0  0  0  0
  -19.1590  -28.8430   23.3850 C   0  0  0  0  0  0  0  0  0  0  0  0
  -18.9420  -30.1060   23.9770 C   0  0  0  0  0  3  0  0  0  0  0  0
  -17.6380  -30.6080   24.1470 C   0  0  0  0  0  3  0  0  0  0  0  0
  -16.5330  -29.8430   23.7360 C   0  0  0  0  0  3  0  0  0  0  0  0
  -16.7340  -28.5810   23.1490 C   0  0  0  0  0  3  0  0  0  0  0  0
  -25.8910  -32.5090   23.8580 C   0  0  0  0  0  3  0  0  0  0  0  0
  -25.5830  -33.9020   24.2060 N   0  0  0  0  0  0  0  0  0  0  0  0
  -25.8860  -34.9600   23.4420 C   0  0  0  0  0  0  0  0  0  0  0  0
  -26.5270  -34.8680   22.3920 O   0  0  0  0  0  0  0  0  0  0  0  0
  -25.0100  -34.0470   25.0240 H   0  0  0  0  0  0  0  0  0  0  0  0
  -24.1270  -36.7340   23.1570 C   0  0  0  0  0  1  0  0  0  0  0  0
  -25.4020  -36.3430   23.9210 C   0  0  0  0  0  3  0  0  0  0  0  0
  -27.5580  -37.2470   24.6710 C   0  0  0  0  0  1  0  0  0  0  0  0
  -26.4190  -37.4060   23.7710 N   0  0  0  0  0  0  0  0  0  0  0  0
  -26.0090  -38.3220   23.9380 H   0  0  0  0  0  0  0  0  0  0  0  0
  -26.4260  -31.7230   25.1170 C   0  0  1  0  0  0  0  0  0  0  0  0
  -25.3490  -31.4700   26.1960 C   0  0  0  0  0  1  0  0  0  0  0  0
  -27.0070  -30.3530   24.6990 C   0  0  0  0  0  1  0  0  0  0  0  0
  -27.5840  -32.5120   25.7730 C   0  0  0  0  0  1  0  0  0  0  0  0
  -30.0270  -21.9170   20.4950 C   0  0  0  0  0  2  0  0  0  0  0  0
  -29.2850  -20.5680   20.6970 C   0  0  0  0  0  2  0  0  0  0  0  0
  -30.2420  -19.3600   20.8540 C   0  0  0  0  0  2  0  0  0  0  0  0
  -29.5630  -17.9810   21.1200 C   0  0  0  0  0  2  0  0  0  0  0  0
  -30.7200  -14.4750   20.3740 C   0  0  0  0  0  0  0  0  0  0  0  0
  -30.3440  -12.3240   19.2290 C   0  0  0  0  0  2  0  0  0  0  0  0
  -29.4010  -12.5390   18.0300 C   0  0  0  0  0  2  0  0  0  0  0  0
  -27.9300  -12.4130   18.4730 C   0  0  0  0  0  2  0  0  0  0  0  0
  -27.6090  -13.2480   19.7450 C   0  0  0  0  0  3  0  0  0  0  0  0
  -28.6800  -13.0470   20.8430 C   0  0  0  0  0  2  0  0  0  0  0  0
  -29.9950  -13.3290   20.2470 N   0  0  0  0  0  0  0  0  0  0  0  0
  -31.8620  -14.5600   19.9170 O   0  0  0  0  0  0  0  0  0  0  0  0
  -30.5510  -16.7970   21.0340 C   0  0  0  0  0  0  0  0  0  0  0  0
  -30.0500  -15.5530   20.8410 N   0  0  0  0  0  0  0  0  0  0  0  0
  -31.7590  -17.0440   21.1380 O   0  0  0  0  0  0  0  0  0  0  0  0
  -29.0610  -15.4360   20.9760 H   0  0  0  0  0  0  0  0  0  0  0  0
  -25.2190  -13.8470   20.4810 C   0  0  0  0  0  0  0  0  0  0  0  0
  -24.1560  -13.0730   20.8610 C   0  0  0  0  0  0  0  0  0  0  0  0
  -24.6190  -11.7220   20.8250 C   0  0  0  0  0  0  0  0  0  0  0  0
  -26.2620  -12.9680   20.2390 N   0  0  0  0  0  0  0  0  0  0  0  0
  -25.9070  -11.6850   20.5050 N   0  0  0  0  0  0  0  0  0  0  0  0
  -23.8960  -10.4580   21.0190 C   0  0  0  0  0  0  0  0  0  0  0  0
  -24.3370   -9.4900   21.9480 C   0  0  0  0  0  3  0  0  0  0  0  0
  -23.6140   -8.2920   22.1320 C   0  0  0  0  0  3  0  0  0  0  0  0
  -22.4360   -8.0520   21.3850 C   0  0  0  0  0  0  0  0  0  0  0  0
  -22.0150   -9.0090   20.4450 C   0  0  0  0  0  3  0  0  0  0  0  0
  -22.7380  -10.1980   20.2590 C   0  0  0  0  0  3  0  0  0  0  0  0
  -21.6840   -6.9050   21.4790 O   0  0  0  0  0  0  0  0  0  0  0  0
  -21.6410   -6.1640   22.6330 C   0  0  0  0  0  0  0  0  0  0  0  0
  -21.2260   -6.7220   23.8620 C   0  0  0  0  0  3  0  0  0  0  0  0
  -21.1290   -5.9060   25.0080 C   0  0  0  0  0  3  0  0  0  0  0  0
  -21.4380   -4.5360   24.9260 C   0  0  0  0  0  0  0  0  0  0  0  0
  -21.8460   -3.9770   23.7010 C   0  0  0  0  0  3  0  0  0  0  0  0
  -21.9450   -4.7890   22.5580 C   0  0  0  0  0  0  0  0  0  0  0  0
  -22.3170   -4.2420   21.3760 F   0  0  0  0  0  0  0  0  0  0  0  0
  -21.3380   -3.7500   26.0230 F   0  0  0  0  0  0  0  0  0  0  0  0
  -22.7600  -13.5470   21.1450 C   0  0  0  0  0  0  0  0  0  0  0  0
  -22.0410  -12.8500   22.0190 N   0  0  0  0  0  0  0  0  0  0  0  0
  -22.3150  -14.5720   20.6300 O   0  0  0  0  0  0  0  0  0  0  0  0
  -22.4140  -12.0230   22.4630 H   0  0  0  0  0  0  0  0  0  0  0  0
  -21.1050  -13.1500   22.2500 H   0  0  0  0  0  0  0  0  0  0  0  0
  -25.3800  -15.2180   20.3010 N   0  0  0  0  0  0  0  0  0  0  0  0
  -24.6100  -15.8690   20.4120 H   0  0  0  0  0  0  0  0  0  0  0  0
  -26.2160  -15.6570   19.9360 H   0  0  0  0  0  0  0  0  0  0  0  0
  1  2  2  0
  2  4  1  0
  2  5  1  0
  3  1  1  0
  3 49  1  0
  6  3  1  0
  7  8  1  0
  7  1  1  0
  9 20  2  0
 10  8  1  0
 10 15  1  0
 11 19  1  0
 11 21  1  0
 12 18  1  0
 12 14  1  0
 13 19  1  0
 14 13  1  0
 15 14  2  0
 16 17  1  0
 16 10  2  0
 17 12  2  0
 18 11  1  0
 19  9  1  0
 21 23  2  0
 22 21  1  0
 24 22  1  0
 25 34  2  0
 25 30  1  0
 26 22  1  0
 26 30  1  0
 27 26  1  0
 28 29  1  0
 28 27  1  0
 29 25  1  0
 30 31  2  0
 31 32  1  0
 33 32  2  0
 34 33  1  0
 35  9  1  0
 35 36  1  0
 35 45  1  0
 36 39  1  0
 37 41  1  0
 37 36  1  0
 38 37  2  0
 41 40  1  0
 43 41  1  0
 43 44  1  0
 43 42  1  0
 45 48  1  1
 45 46  1  0
 47 45  1  0
 49 50  1  0
 50 51  1  0
 51 52  1  0
 53 62  1  0
 54 59  1  0
 55 56  1  0
 55 54  1  0
 57 56  1  0
 57 68  1  0
 57 58  1  0
 59 53  1  0
 59 58  1  0
 60 53  2  0
 61 52  1  0
 61 63  2  0
 62 64  1  0
 62 61  1  0
 65 66  2  0
 66 85  1  0
 67 66  1  0
 67 70  1  0
 68 65  1  0
 68 69  1  0
 69 67  2  0
 70 71  1  0
 71 72  2  0
 73 76  1  0
 73 72  1  0
 74 73  2  0
 75 74  1  0
 75 70  2  0
 76 77  1  0
 77 78  1  0
 78 79  2  0
 80 79  1  0
 80 84  1  0
 81 80  2  0
 82 77  2  0
 82 81  1  0
 83 82  1  0
 85 86  1  0
 86 89  1  0
 86 88  1  0
 87 85  2  0
 90 91  1  0
 90 65  1  0
 92 90  1  0
M  ISO  4   7 101   8 101  53 100  62 100
M  END
>  <TORSDO>  (50) 
F 21

>  <SCORE>  (50) 
-13.406

>  <name>  (50) 
49

>  <ligand_id>  (50) 
49

>  <original_smiles>  (50) 
[H]c1c([H])c([H])c2c(c1[H])C([H])([H])C([H])([H])C([H])([H])C2([H])N([H])C(=O)C1([H])N(C(=O)C([H])(N([H])C(=O)C([H])(N([H])C([H])([H])[H])C([H])([H])[H])C(C([H])([H])[H])(C([H])([H])[H])C([H])([H])[H])C([H])([H])c2c([H])c(OC([H])([H])C(N([H])[H])=[N+]([H])C([H])([H])C([H])([H])C([H])([H])C([H])([H])C(=O)N([H])C(=O)N3C([H])([H])C([H])([H])C([H])([H])C([H])(n4nc(-c5c([H])c([H])c(Oc6c([H])c([H])c(F)c([H])c6F)c([H])c5[H])c(C(=O)N([H])[H])c4N([H])[H])C3([H])[H])c([H])c([H])c2C1([H])[H]

>  <smiles>  (50) 
[H]c1c([H])c([H])c2c(c1[H])C([H])([H])C([H])([H])C([H])([H])C2([H])N([H])C(=O)C1([H])N(C(=O)C([H])(N([H])C(=O)C([H])(N([H])C([H])([H])[H])C([H])([H])[H])C(C([H])([H])[H])(C([H])([H])[H])C([H])([H])[H])C([H])([H])c2c([H])c(OC([H])([H])C(N([H])[H])=[N+]([H])C([H])([H])C([H])([H])C([H])([H])C([H])([H])C(=O)N([H])C(=O)N3C([H])([H])C([H])([H])C([H])([H])C([H])(n4nc(-c5c([H])c([H])c(Oc6c([H])c([H])c(F)c([H])c6F)c([H])c5[H])c(C(=O)N([H])[H])c4N([H])[H])C3([H])[H])c([H])c([H])c2C1([H])[H]

$$$$
50:0:0
     RDKit          3D

 94102  0  0  1  0  0  0  0  0999 V2000
  -29.8840  -24.8670   19.9160 C   0  0  0  0  0  0  0  0  0  0  0  0
  -31.7740  -22.6310   22.1890 C   0  0  0  0  0  2  0  0  0  0  0  0
  -30.3550  -22.5990   22.7430 C   0  0  0  0  0  2  0  0  0  0  0  0
  -31.7020  -23.7640   21.1590 C   0  0  0  0  0  2  0  0  0  0  0  0
  -29.4730  -22.9000   21.5110 C   0  0  0  0  0  3  0  0  0  0  0  0
  -30.2820  -23.9040   20.7870 N   0  0  0  0  0  0  0  0  0  0  0  0
  -30.7160  -25.4860   19.2420 O   0  0  0  0  0  0  0  0  0  0  0  0
  -29.2890  -21.6610   20.5940 C   0  0  0  0  0  0  0  0  0  0  0  0
  -29.4150  -20.4250   21.1180 N   0  0  0  0  0  0  0  0  0  0  0  0
  -29.0800  -21.8310   19.3890 O   0  0  0  0  0  0  0  0  0  0  0  0
  -29.5530  -20.3580   22.1190 H   0  0  0  0  0  0  0  0  0  0  0  0
  -29.7190  -19.2470   20.3010 C   0  0  0  0  0  2  0  0  0  0  0  0
  -29.4780  -17.8840   20.9860 C   0  0  0  0  0  2  0  0  0  0  0  0
  -30.1360  -16.7670   20.1430 C   0  0  0  0  0  2  0  0  0  0  0  0
  -30.5380  -14.3440   20.0560 C   0  0  0  0  0  0  0  0  0  0  0  0
  -30.1320  -12.2150   18.8980 C   0  0  0  0  0  2  0  0  0  0  0  0
  -29.1030  -12.4810   17.7800 C   0  0  0  0  0  2  0  0  0  0  0  0
  -27.6690  -12.3280   18.3190 C   0  0  0  0  0  2  0  0  0  0  0  0
  -27.4370  -13.1120   19.6380 C   0  0  0  0  0  3  0  0  0  0  0  0
  -28.5790  -12.8620   20.6540 C   0  0  0  0  0  2  0  0  0  0  0  0
  -29.8550  -13.1710   19.9850 N   0  0  0  0  0  0  0  0  0  0  0  0
  -31.6200  -14.5230   19.4900 O   0  0  0  0  0  0  0  0  0  0  0  0
  -29.8670  -15.3870   20.5760 N   0  0  0  0  0  0  0  0  0  0  0  0
  -28.9990  -15.1890   21.0480 H   0  0  0  0  0  0  0  0  0  0  0  0
  -25.0750  -13.6710   20.4960 C   0  0  0  0  0  0  0  0  0  0  0  0
  -24.0520  -12.8790   20.9380 C   0  0  0  0  0  0  0  0  0  0  0  0
  -24.5370  -11.5350   20.8780 C   0  0  0  0  0  0  0  0  0  0  0  0
  -26.1250  -12.8120   20.2080 N   0  0  0  0  0  0  0  0  0  0  0  0
  -25.8060  -11.5210   20.4860 N   0  0  0  0  0  0  0  0  0  0  0  0
  -23.8480  -10.2600   21.1180 C   0  0  0  0  0  0  0  0  0  0  0  0
  -24.3310   -9.3280   22.0620 C   0  0  0  0  0  3  0  0  0  0  0  0
  -23.6400   -8.1180   22.2920 C   0  0  0  0  0  3  0  0  0  0  0  0
  -22.4510   -7.8330   21.5800 C   0  0  0  0  0  0  0  0  0  0  0  0
  -21.9840   -8.7560   20.6280 C   0  0  0  0  0  3  0  0  0  0  0  0
  -22.6770   -9.9570   20.3960 C   0  0  0  0  0  3  0  0  0  0  0  0
  -21.7300   -6.6720   21.7160 O   0  0  0  0  0  0  0  0  0  0  0  0
  -21.7040   -5.9780   22.8980 C   0  0  0  0  0  0  0  0  0  0  0  0
  -21.2620   -6.5680   24.1020 C   0  0  0  0  0  3  0  0  0  0  0  0
  -21.1860   -5.7990   25.2800 C   0  0  0  0  0  3  0  0  0  0  0  0
  -21.5420   -4.4380   25.2560 C   0  0  0  0  0  0  0  0  0  0  0  0
  -21.9710   -3.8450   24.0570 C   0  0  0  0  0  3  0  0  0  0  0  0
  -22.0510   -4.6110   22.8800 C   0  0  0  0  0  0  0  0  0  0  0  0
  -22.4470   -4.0290   21.7230 F   0  0  0  0  0  0  0  0  0  0  0  0
  -21.4630   -3.6950   26.3850 F   0  0  0  0  0  0  0  0  0  0  0  0
  -22.6660  -13.3260   21.3080 C   0  0  0  0  0  0  0  0  0  0  0  0
  -22.0160  -12.6200   22.2260 N   0  0  0  0  0  0  0  0  0  0  0  0
  -22.1690  -14.3410   20.8170 O   0  0  0  0  0  0  0  0  0  0  0  0
  -22.4350  -11.7970   22.6350 H   0  0  0  0  0  0  0  0  0  0  0  0
  -21.0920  -12.9050   22.5180 H   0  0  0  0  0  0  0  0  0  0  0  0
  -25.1970  -15.0430   20.2940 N   0  0  0  0  0  0  0  0  0  0  0  0
  -24.4160  -15.6760   20.4290 H   0  0  0  0  0  0  0  0  0  0  0  0
  -26.0070  -15.5000   19.8930 H   0  0  0  0  0  0  0  0  0  0  0  0
  -28.4040  -25.2930   19.7840 C   0  0  0  0  0  2  0  0  0  0  0  0
  -28.3520  -26.7070   20.0230 O   0  0  0  0  0  0  0  0  0  0  0  0
  -24.5830  -31.8160   23.1980 C   0  0  0  0  0  0  0  0  0  0  0  0
  -27.1480  -27.3780   20.0420 C   0  0  0  0  0  0  0  0  0  0  0  0
  -23.3400  -30.4520   21.5490 C   0  0  0  0  0  3  0  0  0  0  0  0
  -24.7590  -28.9000   20.0980 C   0  0  0  0  0  0  0  0  0  0  0  0
  -25.8660  -30.7750   21.3340 C   0  0  0  0  0  2  0  0  0  0  0  0
  -25.9270  -29.4090   20.6810 C   0  0  0  0  0  0  0  0  0  0  0  0
  -27.1190  -28.6560   20.6460 C   0  0  0  0  0  3  0  0  0  0  0  0
  -25.9600  -26.8700   19.4700 C   0  0  0  0  0  3  0  0  0  0  0  0
  -24.7710  -27.6290   19.4950 C   0  0  0  0  0  3  0  0  0  0  0  0
  -23.5280  -29.7750   20.1620 C   0  0  0  0  0  2  0  0  0  0  0  0
  -24.6150  -31.0280   22.0850 N   0  0  0  0  0  0  0  0  0  0  0  0
  -23.5120  -32.0990   23.7520 O   0  0  0  0  0  0  0  0  0  0  0  0
  -22.6800  -29.4330   22.5050 C   0  0  0  0  0  0  0  0  0  0  0  0
  -21.3550  -29.2560   22.3700 N   0  0  0  0  0  0  0  0  0  0  0  0
  -23.3590  -28.8040   23.3210 O   0  0  0  0  0  0  0  0  0  0  0  0
  -20.8680  -29.8150   21.6840 H   0  0  0  0  0  0  0  0  0  0  0  0
  -17.9840  -28.0430   22.8270 C   0  0  0  0  0  0  0  0  0  0  0  0
  -20.5350  -28.3170   23.1350 C   0  0  0  0  0  3  0  0  0  0  0  0
  -20.6540  -26.8820   22.5710 C   0  0  0  0  0  2  0  0  0  0  0  0
  -19.5710  -26.5470   21.5410 C   0  0  0  0  0  2  0  0  0  0  0  0
  -18.1780  -26.6900   22.1620 C   0  0  0  0  0  2  0  0  0  0  0  0
  -19.0920  -28.8140   23.2700 C   0  0  0  0  0  0  0  0  0  0  0  0
  -18.8570  -30.0790   23.8490 C   0  0  0  0  0  3  0  0  0  0  0  0
  -17.5480  -30.5770   23.9890 C   0  0  0  0  0  3  0  0  0  0  0  0
  -16.4540  -29.8030   23.5620 C   0  0  0  0  0  3  0  0  0  0  0  0
  -16.6730  -28.5390   22.9870 C   0  0  0  0  0  3  0  0  0  0  0  0
  -25.8850  -32.4180   23.8130 C   0  0  0  0  0  3  0  0  0  0  0  0
  -25.6050  -33.8170   24.1600 N   0  0  0  0  0  0  0  0  0  0  0  0
  -25.9300  -34.8700   23.3980 C   0  0  0  0  0  0  0  0  0  0  0  0
  -26.5700  -34.7660   22.3480 O   0  0  0  0  0  0  0  0  0  0  0  0
  -25.0370  -33.9760   24.9790 H   0  0  0  0  0  0  0  0  0  0  0  0
  -24.2020  -36.6740   23.1150 C   0  0  0  0  0  1  0  0  0  0  0  0
  -25.4730  -36.2610   23.8770 C   0  0  0  0  0  3  0  0  0  0  0  0
  -27.6420  -37.1290   24.6270 C   0  0  0  0  0  1  0  0  0  0  0  0
  -26.5080  -37.3060   23.7250 N   0  0  0  0  0  0  0  0  0  0  0  0
  -26.1150  -38.2290   23.8870 H   0  0  0  0  0  0  0  0  0  0  0  0
  -26.4050  -31.6240   25.0750 C   0  0  1  0  0  0  0  0  0  0  0  0
  -25.3170  -31.3920   26.1490 C   0  0  0  0  0  1  0  0  0  0  0  0
  -26.9650  -30.2430   24.6610 C   0  0  0  0  0  1  0  0  0  0  0  0
  -27.5750  -32.3930   25.7340 C   0  0  0  0  0  1  0  0  0  0  0  0
  1  6  1  0
  2  3  1  0
  4  2  1  0
  5  8  1  0
  5  3  1  0
  6  4  1  0
  6  5  1  0
  7  1  2  0
  8  9  1  0
  9 11  1  0
 10  8  2  0
 12 13  1  0
 12  9  1  0
 14 23  1  0
 14 13  1  0
 15 23  1  0
 16 21  1  0
 17 18  1  0
 17 16  1  0
 19 18  1  0
 19 28  1  0
 19 20  1  0
 21 15  1  0
 21 20  1  0
 22 15  2  0
 23 24  1  0
 25 26  2  0
 26 45  1  0
 27 26  1  0
 27 30  1  0
 28 29  1  0
 28 25  1  0
 29 27  2  0
 30 31  1  0
 31 32  2  0
 33 36  1  0
 33 32  1  0
 34 33  2  0
 35 34  1  0
 35 30  2  0
 36 37  1  0
 37 38  1  0
 38 39  2  0
 40 39  1  0
 40 44  1  0
 41 40  2  0
 42 37  2  0
 42 41  1  0
 43 42  1  0
 45 46  1  0
 46 49  1  0
 46 48  1  0
 47 45  2  0
 50 51  1  0
 50 25  1  0
 52 50  1  0
 53  1  1  0
 53 54  1  0
 54 56  1  0
 55 66  2  0
 56 61  1  0
 57 65  1  0
 57 67  1  0
 58 64  1  0
 58 60  1  0
 59 65  1  0
 60 59  1  0
 61 60  2  0
 62 63  1  0
 62 56  2  0
 63 58  2  0
 64 57  1  0
 65 55  1  0
 67 69  2  0
 68 67  1  0
 70 68  1  0
 71 80  2  0
 71 76  1  0
 72 68  1  0
 72 76  1  0
 73 72  1  0
 74 75  1  0
 74 73  1  0
 75 71  1  0
 76 77  2  0
 77 78  1  0
 79 78  2  0
 80 79  1  0
 81 55  1  0
 81 82  1  0
 81 91  1  0
 82 85  1  0
 83 87  1  0
 83 82  1  0
 84 83  2  0
 87 86  1  0
 89 87  1  0
 89 90  1  0
 89 88  1  0
 91 94  1  1
 91 92  1  0
 93 91  1  0
M  ISO  4  15 100  23 100  53 101  54 101
M  END
>  <TORSDO>  (51) 
F 21

>  <SCORE>  (51) 
-12.100

>  <name>  (51) 
50

>  <ligand_id>  (51) 
50

>  <original_smiles>  (51) 
[H]c1c([H])c([H])c2c(c1[H])C([H])([H])C([H])([H])C([H])([H])C2([H])N([H])C(=O)C1([H])N(C(=O)C([H])(N([H])C(=O)C([H])(N([H])C([H])([H])[H])C([H])([H])[H])C(C([H])([H])[H])(C([H])([H])[H])C([H])([H])[H])C([H])([H])c2c([H])c(OC([H])([H])C(=O)N3C([H])([H])C([H])([H])C([H])([H])C3([H])C(=O)N([H])C([H])([H])C([H])([H])C([H])([H])N([H])C(=O)N3C([H])([H])C([H])([H])C([H])([H])C([H])(n4nc(-c5c([H])c([H])c(Oc6c([H])c([H])c(F)c([H])c6F)c([H])c5[H])c(C(=O)N([H])[H])c4N([H])[H])C3([H])[H])c([H])c([H])c2C1([H])[H]

>  <smiles>  (51) 
[H]c1c([H])c([H])c2c(c1[H])C([H])([H])C([H])([H])C([H])([H])C2([H])N([H])C(=O)C1([H])N(C(=O)C([H])(N([H])C(=O)C([H])(N([H])C([H])([H])[H])C([H])([H])[H])C(C([H])([H])[H])(C([H])([H])[H])C([H])([H])[H])C([H])([H])c2c([H])c(OC([H])([H])C(=O)N3C([H])([H])C([H])([H])C([H])([H])C3([H])C(=O)N([H])C([H])([H])C([H])([H])C([H])([H])N([H])C(=O)N3C([H])([H])C([H])([H])C([H])([H])C([H])(n4nc(-c5c([H])c([H])c(Oc6c([H])c([H])c(F)c([H])c6F)c([H])c5[H])c(C(=O)N([H])[H])c4N([H])[H])C3([H])[H])c([H])c([H])c2C1([H])[H]

$$$$
51:0:0
     RDKit          3D

103111  0  0  1  0  0  0  0  0999 V2000
  -31.5820  -17.0600   20.5450 C   0  0  0  0  0  0  0  0  0  0  0  0
  -30.7800  -17.4330   19.5440 N   0  0  0  0  0  0  0  0  0  0  0  0
  -32.7880  -17.3280   20.5690 O   0  0  0  0  0  0  0  0  0  0  0  0
  -29.8090  -17.1520   19.5880 H   0  0  0  0  0  0  0  0  0  0  0  0
  -30.9360  -16.3090   21.7080 C   0  0  0  0  0  2  0  0  0  0  0  0
  -31.6870  -14.0410   22.3780 C   0  0  0  0  0  0  0  0  0  0  0  0
  -31.8940  -15.3470   22.2240 N   0  0  0  0  0  0  0  0  0  0  0  0
  -30.5960  -13.5080   22.1870 O   0  0  0  0  0  0  0  0  0  0  0  0
  -32.8080  -15.7360   22.4280 H   0  0  0  0  0  0  0  0  0  0  0  0
  -32.9080  -13.2180   22.7800 C   0  0  0  0  0  2  0  0  0  0  0  0
  -33.6680  -12.6860   21.5470 C   0  0  0  0  0  2  0  0  0  0  0  0
  -33.4650  -11.1810   21.2790 C   0  0  0  0  0  2  0  0  0  0  0  0
  -32.3270  -10.8360   20.2980 C   0  0  0  0  0  2  0  0  0  0  0  0
  -30.9810  -11.5400   20.5740 C   0  0  0  0  0  2  0  0  0  0  0  0
  -30.2820  -13.3000   18.8830 C   0  0  0  0  0  0  0  0  0  0  0  0
  -28.8820  -12.3720   17.0930 C   0  0  0  0  0  2  0  0  0  0  0  0
  -27.6550  -13.2000   16.6850 C   0  0  0  0  0  2  0  0  0  0  0  0
  -26.4500  -12.8530   17.5730 C   0  0  0  0  0  2  0  0  0  0  0  0
  -26.7910  -12.9530   19.0770 C   0  0  0  0  0  3  0  0  0  0  0  0
  -28.0880  -12.1860   19.4110 C   0  0  0  0  0  2  0  0  0  0  0  0
  -29.1850  -12.5960   18.5110 N   0  0  0  0  0  0  0  0  0  0  0  0
  -30.8160  -14.1520   18.1720 O   0  0  0  0  0  0  0  0  0  0  0  0
  -30.9110  -12.8930   20.0020 N   0  0  0  0  0  0  0  0  0  0  0  0
  -31.6780  -13.4940   20.2660 H   0  0  0  0  0  0  0  0  0  0  0  0
  -24.6890  -13.2420   20.5420 C   0  0  0  0  0  0  0  0  0  0  0  0
  -23.8420  -12.3330   21.1190 C   0  0  0  0  0  0  0  0  0  0  0  0
  -24.3660  -11.0440   20.7930 C   0  0  0  0  0  0  0  0  0  0  0  0
  -25.6720  -12.4990   19.9060 N   0  0  0  0  0  0  0  0  0  0  0  0
  -25.4960  -11.1670   20.1090 N   0  0  0  0  0  0  0  0  0  0  0  0
  -23.8230   -9.7020   21.0410 C   0  0  0  0  0  0  0  0  0  0  0  0
  -24.0320   -9.0360   22.2700 C   0  0  0  0  0  3  0  0  0  0  0  0
  -23.4860   -7.7530   22.4930 C   0  0  0  0  0  3  0  0  0  0  0  0
  -22.7190   -7.1240   21.4830 C   0  0  0  0  0  0  0  0  0  0  0  0
  -22.5320   -7.7810   20.2540 C   0  0  0  0  0  3  0  0  0  0  0  0
  -23.0800   -9.0550   20.0330 C   0  0  0  0  0  3  0  0  0  0  0  0
  -22.1710   -5.8690   21.6000 O   0  0  0  0  0  0  0  0  0  0  0  0
  -21.4010   -5.5190   22.6800 C   0  0  0  0  0  0  0  0  0  0  0  0
  -20.1300   -6.0940   22.9080 C   0  0  0  0  0  3  0  0  0  0  0  0
  -19.3440   -5.6520   23.9900 C   0  0  0  0  0  3  0  0  0  0  0  0
  -19.8180   -4.6350   24.8390 C   0  0  0  0  0  0  0  0  0  0  0  0
  -21.0800   -4.0580   24.6090 C   0  0  0  0  0  3  0  0  0  0  0  0
  -21.8670   -4.4970   23.5310 C   0  0  0  0  0  0  0  0  0  0  0  0
  -23.0730   -3.9240   23.3020 F   0  0  0  0  0  0  0  0  0  0  0  0
  -19.0590   -4.2050   25.8740 F   0  0  0  0  0  0  0  0  0  0  0  0
  -22.5670  -12.6360   21.8520 C   0  0  0  0  0  0  0  0  0  0  0  0
  -22.1940  -11.7910   22.8080 N   0  0  0  0  0  0  0  0  0  0  0  0
  -21.9160  -13.6520   21.6130 O   0  0  0  0  0  0  0  0  0  0  0  0
  -22.7380  -10.9670   23.0160 H   0  0  0  0  0  0  0  0  0  0  0  0
  -21.3540  -11.9710   23.3370 H   0  0  0  0  0  0  0  0  0  0  0  0
  -24.6960  -14.6320   20.4880 N   0  0  0  0  0  0  0  0  0  0  0  0
  -23.9630  -15.1980   20.9030 H   0  0  0  0  0  0  0  0  0  0  0  0
  -25.3830  -15.1810   19.9870 H   0  0  0  0  0  0  0  0  0  0  0  0
  -31.1550  -18.3610   18.4820 C   0  0  0  0  0  2  0  0  0  0  0  0
  -31.1010  -23.9080   19.0420 C   0  0  0  0  0  0  0  0  0  0  0  0
  -30.3670  -20.4630   19.7220 C   0  0  0  0  0  2  0  0  0  0  0  0
  -32.2360  -20.6500   18.0520 C   0  0  0  0  0  2  0  0  0  0  0  0
  -30.8170  -21.7880   20.3470 C   0  0  0  0  0  2  0  0  0  0  0  0
  -32.6310  -21.9890   18.7030 C   0  0  0  0  0  2  0  0  0  0  0  0
  -31.5570  -19.7280   19.0770 C   0  0  0  0  0  3  0  0  0  0  0  0
  -31.4650  -22.6350   19.3330 N   0  0  0  0  0  0  0  0  0  0  0  0
  -31.6390  -24.5540   18.1340 O   0  0  0  0  0  0  0  0  0  0  0  0
  -30.0160  -24.6000   19.8870 C   0  0  0  0  0  2  0  0  0  0  0  0
  -29.8610  -25.9410   19.4400 O   0  0  0  0  0  0  0  0  0  0  0  0
  -25.2670  -30.3570   22.5270 C   0  0  0  0  0  0  0  0  0  0  0  0
  -28.6000  -26.4740   19.4000 C   0  0  0  0  0  0  0  0  0  0  0  0
  -24.3640  -29.0340   20.6390 C   0  0  0  0  0  3  0  0  0  0  0  0
  -26.0860  -27.7450   19.2700 C   0  0  0  0  0  0  0  0  0  0  0  0
  -26.8510  -29.6060   20.7610 C   0  0  0  0  0  2  0  0  0  0  0  0
  -27.1200  -28.3110   20.0250 C   0  0  0  0  0  0  0  0  0  0  0  0
  -28.3780  -27.6830   20.0860 C   0  0  0  0  0  3  0  0  0  0  0  0
  -27.5510  -25.9040   18.6440 C   0  0  0  0  0  3  0  0  0  0  0  0
  -26.2940  -26.5360   18.5800 C   0  0  0  0  0  3  0  0  0  0  0  0
  -24.7760  -28.4990   19.2400 C   0  0  0  0  0  2  0  0  0  0  0  0
  -25.5040  -29.6750   21.3720 N   0  0  0  0  0  0  0  0  0  0  0  0
  -24.1160  -30.4960   22.9620 O   0  0  0  0  0  0  0  0  0  0  0  0
  -23.7020  -27.8820   21.4260 C   0  0  0  0  0  0  0  0  0  0  0  0
  -22.4420  -27.5730   21.0820 N   0  0  0  0  0  0  0  0  0  0  0  0
  -24.3260  -27.2690   22.2980 O   0  0  0  0  0  0  0  0  0  0  0  0
  -22.0000  -28.1260   20.3610 H   0  0  0  0  0  0  0  0  0  0  0  0
  -19.1490  -26.0920   21.0700 C   0  0  0  0  0  0  0  0  0  0  0  0
  -21.6320  -26.5010   21.6570 C   0  0  0  0  0  3  0  0  0  0  0  0
  -21.9140  -25.1520   20.9560 C   0  0  0  0  0  2  0  0  0  0  0  0
  -20.9570  -24.8630   19.7950 C   0  0  0  0  0  2  0  0  0  0  0  0
  -19.5080  -24.8390   20.2900 C   0  0  0  0  0  2  0  0  0  0  0  0
  -20.1480  -26.8810   21.6990 C   0  0  0  0  0  0  0  0  0  0  0  0
  -19.7640  -28.0560   22.3820 C   0  0  0  0  0  3  0  0  0  0  0  0
  -18.4120  -28.4430   22.4440 C   0  0  0  0  0  3  0  0  0  0  0  0
  -17.4260  -27.6500   21.8330 C   0  0  0  0  0  3  0  0  0  0  0  0
  -17.7950  -26.4760   21.1530 C   0  0  0  0  0  3  0  0  0  0  0  0
  -26.4240  -31.0130   23.3430 C   0  0  0  0  0  3  0  0  0  0  0  0
  -26.9670  -30.0920   24.5050 C   0  0  1  0  0  0  0  0  0  0  0  0
  -25.8570  -29.3320   25.2660 C   0  0  0  0  0  1  0  0  0  0  0  0
  -27.9620  -29.0470   23.9490 C   0  0  0  0  0  1  0  0  0  0  0  0
  -27.7500  -30.9480   25.5290 C   0  0  0  0  0  1  0  0  0  0  0  0
  -25.9200  -32.2840   23.8790 N   0  0  0  0  0  0  0  0  0  0  0  0
  -26.1220  -33.4810   23.3120 C   0  0  0  0  0  0  0  0  0  0  0  0
  -26.8230  -33.6370   22.3080 O   0  0  0  0  0  0  0  0  0  0  0  0
  -25.2910  -32.2260   24.6670 H   0  0  0  0  0  0  0  0  0  0  0  0
  -24.1670  -35.0560   23.1710 C   0  0  0  0  0  1  0  0  0  0  0  0
  -25.4360  -34.6990   23.9600 C   0  0  0  0  0  3  0  0  0  0  0  0
  -27.4290  -35.7050   24.9820 C   0  0  0  0  0  1  0  0  0  0  0  0
  -26.3130  -35.8850   24.0560 N   0  0  0  0  0  0  0  0  0  0  0  0
  -25.7850  -36.7020   24.3520 H   0  0  0  0  0  0  0  0  0  0  0  0
  1  3  2  0
  1  5  1  0
  2  4  1  0
  2  1  1  0
  5  7  1  0
  6 10  1  0
  7  6  1  0
  7  9  1  0
  8  6  2  0
 11 10  1  0
 12 11  1  0
 13 14  1  0
 13 12  1  0
 15 23  1  0
 16 21  1  0
 17 16  1  0
 17 18  1  0
 19 18  1  0
 19 20  1  0
 19 28  1  0
 21 15  1  0
 21 20  1  0
 22 15  2  0
 23 24  1  0
 23 14  1  0
 25 26  2  0
 26 45  1  0
 27 30  1  0
 27 26  1  0
 28 29  1  0
 28 25  1  0
 29 27  2  0
 30 31  1  0
 31 32  2  0
 33 36  1  0
 33 32  1  0
 34 33  2  0
 35 34  1  0
 35 30  2  0
 36 37  1  0
 37 38  2  0
 37 42  1  0
 38 39  1  0
 39 40  2  0
 40 44  1  0
 41 40  1  0
 42 41  2  0
 43 42  1  0
 45 46  1  0
 46 48  1  0
 46 49  1  0
 47 45  2  0
 50 25  1  0
 50 51  1  0
 52 50  1  0
 53  2  1  0
 54 60  1  0
 54 62  1  0
 55 57  1  0
 56 58  1  0
 56 59  1  0
 58 60  1  0
 59 53  1  0
 59 55  1  0
 60 57  1  0
 61 54  2  0
 63 62  1  0
 64 75  2  0
 65 63  1  0
 65 70  1  0
 66 74  1  0
 66 76  1  0
 67 69  1  0
 68 74  1  0
 69 70  2  0
 69 68  1  0
 71 65  2  0
 72 71  1  0
 72 67  2  0
 73 67  1  0
 73 66  1  0
 74 64  1  0
 76 78  2  0
 77 76  1  0
 79 77  1  0
 80 89  2  0
 80 85  1  0
 81 77  1  0
 81 85  1  0
 82 81  1  0
 83 84  1  0
 83 82  1  0
 84 80  1  0
 85 86  2  0
 86 87  1  0
 88 87  2  0
 89 88  1  0
 90 64  1  0
 90 95  1  0
 90 91  1  0
 91 92  1  1
 91 94  1  0
 93 91  1  0
 95 98  1  0
 96 95  1  0
 96100  1  0
 97 96  2  0
100 99  1  0
100102  1  0
102103  1  0
102101  1  0
M  ISO  4  15 100  23 100  62 101  63 101
M  END
>  <TORSDO>  (52) 
F 26

>  <SCORE>  (52) 
0.589

>  <name>  (52) 
51

>  <ligand_id>  (52) 
51

>  <original_smiles>  (52) 
[H]c1c([H])c([H])c2c(c1[H])C([H])([H])C([H])([H])C([H])([H])C2([H])N([H])C(=O)C1([H])N(C(=O)C([H])(N([H])C(=O)C([H])(N([H])C([H])([H])[H])C([H])([H])[H])C(C([H])([H])[H])(C([H])([H])[H])C([H])([H])[H])C([H])([H])c2c([H])c(OC([H])([H])C(=O)N3C([H])([H])C([H])([H])C([H])(C([H])([H])N([H])C(=O)C([H])([H])N([H])C(=O)C([H])([H])C([H])([H])C([H])([H])C([H])([H])C([H])([H])N([H])C(=O)N4C([H])([H])C([H])([H])C([H])([H])C([H])(n5nc(-c6c([H])c([H])c(Oc7c([H])c([H])c(F)c([H])c7F)c([H])c6[H])c(C(=O)N([H])[H])c5N([H])[H])C4([H])[H])C([H])([H])C3([H])[H])c([H])c([H])c2C1([H])[H]

>  <smiles>  (52) 
[H]c1c([H])c([H])c2c(c1[H])C([H])([H])C([H])([H])C([H])([H])C2([H])N([H])C(=O)C1([H])N(C(=O)C([H])(N([H])C(=O)C([H])(N([H])C([H])([H])[H])C([H])([H])[H])C(C([H])([H])[H])(C([H])([H])[H])C([H])([H])[H])C([H])([H])c2c([H])c(OC([H])([H])C(=O)N3C([H])([H])C([H])([H])C([H])(C([H])([H])N([H])C(=O)C([H])([H])N([H])C(=O)C([H])([H])C([H])([H])C([H])([H])C([H])([H])C([H])([H])N([H])C(=O)N4C([H])([H])C([H])([H])C([H])([H])C([H])(n5nc(-c6c([H])c([H])c(Oc7c([H])c([H])c(F)c([H])c7F)c([H])c6[H])c(C(=O)N([H])[H])c5N([H])[H])C4([H])[H])C([H])([H])C3([H])[H])c([H])c([H])c2C1([H])[H]

$$$$
52:0:0
     RDKit          3D

 95102  0  0  1  0  0  0  0  0999 V2000
  -31.3970  -23.4580   17.3180 C   0  0  0  0  0  0  0  0  0  0  0  0
  -30.9760  -24.7280   17.2800 N   0  0  0  0  0  0  0  0  0  0  0  0
  -32.3850  -23.1000   17.9640 O   0  0  0  0  0  0  0  0  0  0  0  0
  -30.2030  -24.9340   16.6610 H   0  0  0  0  0  0  0  0  0  0  0  0
  -30.5570  -22.4520   16.5210 C   0  0  0  0  0  2  0  0  0  0  0  0
  -30.6190  -20.9810   16.9940 C   0  0  0  0  0  2  0  0  0  0  0  0
  -30.1780  -20.7420   18.4530 C   0  0  0  0  0  2  0  0  0  0  0  0
  -29.9310  -19.2540   18.7640 C   0  0  0  0  0  2  0  0  0  0  0  0
  -29.7260  -18.9830   20.2680 C   0  0  0  0  0  2  0  0  0  0  0  0
  -29.3470  -17.5280   20.5550 C   0  0  0  0  0  0  0  0  0  0  0  0
  -30.2830  -16.7280   21.0830 N   0  0  0  0  0  0  0  0  0  0  0  0
  -28.2090  -17.1230   20.3060 O   0  0  0  0  0  0  0  0  0  0  0  0
  -31.2610  -16.9610   21.2210 H   0  0  0  0  0  0  0  0  0  0  0  0
  -30.6450  -14.4260   20.5620 C   0  0  0  0  0  0  0  0  0  0  0  0
  -30.3360  -12.3100   19.3410 C   0  0  0  0  0  2  0  0  0  0  0  0
  -29.3870  -12.5350   18.1450 C   0  0  0  0  0  2  0  0  0  0  0  0
  -27.9080  -12.4310   18.5710 C   0  0  0  0  0  2  0  0  0  0  0  0
  -27.5870  -13.2340   19.8630 C   0  0  0  0  0  3  0  0  0  0  0  0
  -28.6390  -12.9480   20.9560 C   0  0  0  0  0  2  0  0  0  0  0  0
  -29.9700  -13.2590   20.4010 N   0  0  0  0  0  0  0  0  0  0  0  0
  -31.7240  -14.6770   20.0150 O   0  0  0  0  0  0  0  0  0  0  0  0
  -30.0040  -15.3530   21.2830 N   0  0  0  0  0  0  0  0  0  0  0  0
  -29.0790  -15.2090   21.6600 H   0  0  0  0  0  0  0  0  0  0  0  0
  -25.1830  -13.8570   20.5520 C   0  0  0  0  0  0  0  0  0  0  0  0
  -24.1090  -13.0900   20.9160 C   0  0  0  0  0  0  0  0  0  0  0  0
  -24.5640  -11.7360   20.8910 C   0  0  0  0  0  0  0  0  0  0  0  0
  -26.2280  -12.9710   20.3330 N   0  0  0  0  0  0  0  0  0  0  0  0
  -25.8550  -11.6910   20.5900 N   0  0  0  0  0  0  0  0  0  0  0  0
  -23.8320  -10.4750   21.0790 C   0  0  0  0  0  0  0  0  0  0  0  0
  -24.2810   -9.4930   21.9920 C   0  0  0  0  0  3  0  0  0  0  0  0
  -23.5520   -8.2980   22.1700 C   0  0  0  0  0  3  0  0  0  0  0  0
  -22.3620   -8.0750   21.4340 C   0  0  0  0  0  0  0  0  0  0  0  0
  -21.9350   -9.0440   20.5110 C   0  0  0  0  0  3  0  0  0  0  0  0
  -22.6610  -10.2320   20.3310 C   0  0  0  0  0  3  0  0  0  0  0  0
  -21.6070   -6.9290   21.5170 O   0  0  0  0  0  0  0  0  0  0  0  0
  -21.5940   -6.1570   22.6520 C   0  0  0  0  0  0  0  0  0  0  0  0
  -21.2340   -6.6870   23.9080 C   0  0  0  0  0  3  0  0  0  0  0  0
  -21.1730   -5.8440   25.0360 C   0  0  0  0  0  3  0  0  0  0  0  0
  -21.4570   -4.4710   24.9060 C   0  0  0  0  0  0  0  0  0  0  0  0
  -21.8050   -3.9400   23.6500 C   0  0  0  0  0  3  0  0  0  0  0  0
  -21.8700   -4.7810   22.5270 C   0  0  0  0  0  0  0  0  0  0  0  0
  -22.1880   -4.2620   21.3150 F   0  0  0  0  0  0  0  0  0  0  0  0
  -21.3880   -3.6580   25.9850 F   0  0  0  0  0  0  0  0  0  0  0  0
  -22.7120  -13.5730   21.1840 C   0  0  0  0  0  0  0  0  0  0  0  0
  -21.9780  -12.8830   22.0490 N   0  0  0  0  0  0  0  0  0  0  0  0
  -22.2780  -14.5970   20.6560 O   0  0  0  0  0  0  0  0  0  0  0  0
  -22.3390  -12.0590   22.5060 H   0  0  0  0  0  0  0  0  0  0  0  0
  -21.0380  -13.1840   22.2560 H   0  0  0  0  0  0  0  0  0  0  0  0
  -25.3620  -15.2250   20.3740 N   0  0  0  0  0  0  0  0  0  0  0  0
  -24.6140  -15.9000   20.4940 H   0  0  0  0  0  0  0  0  0  0  0  0
  -26.2440  -15.6590   20.1200 H   0  0  0  0  0  0  0  0  0  0  0  0
  -31.4680  -25.8300   18.1020 C   0  0  0  0  0  2  0  0  0  0  0  0
  -30.5490  -26.0740   19.3080 C   0  0  0  0  0  2  0  0  0  0  0  0
  -29.1090  -26.4920   18.9510 C   0  0  0  0  0  2  0  0  0  0  0  0
  -28.4680  -26.7820   20.1830 O   0  0  0  0  0  0  0  0  0  0  0  0
  -24.6390  -31.8870   23.2320 C   0  0  0  0  0  0  0  0  0  0  0  0
  -27.2930  -27.4860   20.1310 C   0  0  0  0  0  0  0  0  0  0  0  0
  -23.4220  -30.4760   21.5980 C   0  0  0  0  0  3  0  0  0  0  0  0
  -24.8740  -28.9380   20.1630 C   0  0  0  0  0  0  0  0  0  0  0  0
  -25.9370  -30.8530   21.3800 C   0  0  0  0  0  2  0  0  0  0  0  0
  -26.0260  -29.4800   20.7480 C   0  0  0  0  0  0  0  0  0  0  0  0
  -27.2310  -28.7520   20.7500 C   0  0  0  0  0  3  0  0  0  0  0  0
  -26.1340  -26.9490   19.5330 C   0  0  0  0  0  3  0  0  0  0  0  0
  -24.9200  -27.6680   19.5590 C   0  0  0  0  0  3  0  0  0  0  0  0
  -23.6220  -29.7870   20.2180 C   0  0  0  0  0  2  0  0  0  0  0  0
  -24.6840  -31.0860   22.1300 N   0  0  0  0  0  0  0  0  0  0  0  0
  -23.5640  -32.1560   23.7840 O   0  0  0  0  0  0  0  0  0  0  0  0
  -22.7840  -29.4590   22.5690 C   0  0  0  0  0  0  0  0  0  0  0  0
  -21.4590  -29.2740   22.4540 N   0  0  0  0  0  0  0  0  0  0  0  0
  -23.4750  -28.8390   23.3820 O   0  0  0  0  0  0  0  0  0  0  0  0
  -20.9630  -29.8250   21.7650 H   0  0  0  0  0  0  0  0  0  0  0  0
  -18.0940  -28.0710   22.9730 C   0  0  0  0  0  0  0  0  0  0  0  0
  -20.6510  -28.3380   23.2340 C   0  0  0  0  0  3  0  0  0  0  0  0
  -20.7580  -26.9050   22.6670 C   0  0  0  0  0  2  0  0  0  0  0  0
  -19.6530  -26.5710   21.6600 C   0  0  0  0  0  2  0  0  0  0  0  0
  -18.2720  -26.7170   22.3060 C   0  0  0  0  0  2  0  0  0  0  0  0
  -19.2110  -28.8380   23.3950 C   0  0  0  0  0  0  0  0  0  0  0  0
  -18.9910  -30.1050   23.9790 C   0  0  0  0  0  3  0  0  0  0  0  0
  -17.6880  -30.6040   24.1450 C   0  0  0  0  0  3  0  0  0  0  0  0
  -16.5830  -29.8340   23.7410 C   0  0  0  0  0  3  0  0  0  0  0  0
  -16.7870  -28.5690   23.1590 C   0  0  0  0  0  3  0  0  0  0  0  0
  -25.9330  -32.5190   23.8390 C   0  0  0  0  0  3  0  0  0  0  0  0
  -26.4760  -31.7400   25.1000 C   0  0  1  0  0  0  0  0  0  0  0  0
  -25.4030  -31.4870   26.1850 C   0  0  0  0  0  1  0  0  0  0  0  0
  -27.0580  -30.3690   24.6820 C   0  0  0  0  0  1  0  0  0  0  0  0
  -27.6370  -32.5310   25.7450 C   0  0  0  0  0  1  0  0  0  0  0  0
  -25.6240  -33.9140   24.1810 N   0  0  0  0  0  0  0  0  0  0  0  0
  -25.9490  -34.9700   23.4260 C   0  0  0  0  0  0  0  0  0  0  0  0
  -26.6080  -34.8740   22.3870 O   0  0  0  0  0  0  0  0  0  0  0  0
  -25.0370  -34.0610   24.9880 H   0  0  0  0  0  0  0  0  0  0  0  0
  -24.2090  -36.7540   23.0980 C   0  0  0  0  0  1  0  0  0  0  0  0
  -25.4610  -36.3540   23.8940 C   0  0  0  0  0  3  0  0  0  0  0  0
  -27.6050  -37.2370   24.7010 C   0  0  0  0  0  1  0  0  0  0  0  0
  -26.4890  -37.4100   23.7740 N   0  0  0  0  0  0  0  0  0  0  0  0
  -26.0830  -38.3280   23.9350 H   0  0  0  0  0  0  0  0  0  0  0  0
  1  3  2  0
  2  1  1  0
  2 52  1  0
  4  2  1  0
  5  6  1  0
  5  1  1  0
  6  7  1  0
  7  8  1  0
  8  9  1  0
  9 10  1  0
 10 11  1  0
 11 13  1  0
 11 22  1  0
 12 10  2  0
 14 22  1  0
 15 20  1  0
 16 17  1  0
 16 15  1  0
 18 17  1  0
 18 27  1  0
 18 19  1  0
 20 14  1  0
 20 19  1  0
 21 14  2  0
 22 23  1  0
 24 25  2  0
 25 44  1  0
 26 25  1  0
 26 29  1  0
 27 24  1  0
 27 28  1  0
 28 26  2  0
 29 30  1  0
 30 31  2  0
 32 35  1  0
 32 31  1  0
 33 32  2  0
 34 33  1  0
 34 29  2  0
 35 36  1  0
 36 37  1  0
 37 38  2  0
 39 38  1  0
 39 43  1  0
 40 39  2  0
 41 36  2  0
 41 40  1  0
 42 41  1  0
 44 45  1  0
 45 48  1  0
 45 47  1  0
 46 44  2  0
 49 50  1  0
 49 24  1  0
 51 49  1  0
 52 53  1  0
 54 53  1  0
 54 55  1  0
 56 67  2  0
 57 55  1  0
 57 62  1  0
 58 66  1  0
 58 68  1  0
 59 65  1  0
 59 61  1  0
 60 66  1  0
 61 62  2  0
 61 60  1  0
 63 64  1  0
 63 57  2  0
 64 59  2  0
 65 58  1  0
 66 56  1  0
 68 70  2  0
 69 68  1  0
 71 69  1  0
 72 81  2  0
 72 77  1  0
 73 69  1  0
 73 77  1  0
 74 73  1  0
 75 76  1  0
 75 74  1  0
 76 72  1  0
 77 78  2  0
 78 79  1  0
 80 79  2  0
 81 80  1  0
 82 56  1  0
 82 87  1  0
 82 83  1  0
 83 86  1  1
 83 84  1  0
 85 83  1  0
 87 90  1  0
 88 92  1  0
 88 87  1  0
 89 88  2  0
 92 91  1  0
 94 92  1  0
 94 95  1  0
 94 93  1  0
M  ISO  4  14 100  22 100  54 101  55 101
M  END
>  <TORSDO>  (53) 
F 25

>  <SCORE>  (53) 
-12.135

>  <name>  (53) 
52

>  <ligand_id>  (53) 
52

>  <original_smiles>  (53) 
[H]c1c([H])c([H])c2c(c1[H])C([H])([H])C([H])([H])C([H])([H])C2([H])N([H])C(=O)C1([H])N(C(=O)C([H])(N([H])C(=O)C([H])(N([H])C([H])([H])[H])C([H])([H])[H])C(C([H])([H])[H])(C([H])([H])[H])C([H])([H])[H])C([H])([H])c2c([H])c(OC([H])([H])C([H])([H])C([H])([H])N([H])C(=O)C([H])([H])C([H])([H])C([H])([H])C([H])([H])C([H])([H])C(=O)N([H])N([H])C(=O)N3C([H])([H])C([H])([H])C([H])([H])C([H])(n4nc(-c5c([H])c([H])c(Oc6c([H])c([H])c(F)c([H])c6F)c([H])c5[H])c(C(=O)N([H])[H])c4N([H])[H])C3([H])[H])c([H])c([H])c2C1([H])[H]

>  <smiles>  (53) 
[H]c1c([H])c([H])c2c(c1[H])C([H])([H])C([H])([H])C([H])([H])C2([H])N([H])C(=O)C1([H])N(C(=O)C([H])(N([H])C(=O)C([H])(N([H])C([H])([H])[H])C([H])([H])[H])C(C([H])([H])[H])(C([H])([H])[H])C([H])([H])[H])C([H])([H])c2c([H])c(OC([H])([H])C([H])([H])C([H])([H])N([H])C(=O)C([H])([H])C([H])([H])C([H])([H])C([H])([H])C([H])([H])C(=O)N([H])N([H])C(=O)N3C([H])([H])C([H])([H])C([H])([H])C([H])(n4nc(-c5c([H])c([H])c(Oc6c([H])c([H])c(F)c([H])c6F)c([H])c5[H])c(C(=O)N([H])[H])c4N([H])[H])C3([H])[H])c([H])c([H])c2C1([H])[H]

$$$$
53:0:0
     RDKit          3D

 95103  0  0  1  0  0  0  0  0999 V2000
  -27.0250  -22.7960   22.6740 C   0  0  0  0  0  2  0  0  0  0  0  0
  -26.8640  -24.2400   23.1810 C   0  0  0  0  0  2  0  0  0  0  0  0
  -28.3520  -26.0600   22.2960 C   0  0  0  0  0  0  0  0  0  0  0  0
  -27.2960  -25.2400   22.2040 N   0  0  0  0  0  0  0  0  0  0  0  0
  -29.1740  -25.9820   23.2120 O   0  0  0  0  0  0  0  0  0  0  0  0
  -26.6820  -25.3870   21.4160 H   0  0  0  0  0  0  0  0  0  0  0  0
  -28.4990  -27.1400   21.2070 C   0  0  0  0  0  2  0  0  0  0  0  0
  -27.5260  -28.1750   21.3930 O   0  0  0  0  0  0  0  0  0  0  0  0
  -20.7990  -27.4230   19.2980 C   0  0  0  0  0  0  0  0  0  0  0  0
  -26.6030  -28.4920   20.4170 C   0  0  0  0  0  0  0  0  0  0  0  0
  -22.2990  -28.5260   17.6630 C   0  0  0  0  0  3  0  0  0  0  0  0
  -24.5940  -29.1900   18.5500 C   0  0  0  0  0  0  0  0  0  0  0  0
  -22.7610  -28.6780   20.1750 C   0  0  0  0  0  2  0  0  0  0  0  0
  -24.2360  -28.7680   19.8350 C   0  0  0  0  0  0  0  0  0  0  0  0
  -25.2370  -28.4280   20.7700 C   0  0  0  0  0  3  0  0  0  0  0  0
  -26.9480  -28.9180   19.1150 C   0  0  0  0  0  3  0  0  0  0  0  0
  -25.9500  -29.2690   18.1850 C   0  0  0  0  0  3  0  0  0  0  0  0
  -23.4670  -29.5450   17.6060 C   0  0  0  0  0  2  0  0  0  0  0  0
  -21.9250  -28.1560   19.0680 N   0  0  0  0  0  0  0  0  0  0  0  0
  -20.0530  -27.0900   18.3650 O   0  0  0  0  0  0  0  0  0  0  0  0
  -22.6600  -27.3090   16.7800 C   0  0  0  0  0  0  0  0  0  0  0  0
  -22.5330  -27.4710   15.4510 N   0  0  0  0  0  0  0  0  0  0  0  0
  -23.0720  -26.2630   17.2860 O   0  0  0  0  0  0  0  0  0  0  0  0
  -22.2280  -28.3700   15.1000 H   0  0  0  0  0  0  0  0  0  0  0  0
  -22.4480  -26.7970   11.9080 C   0  0  0  0  0  0  0  0  0  0  0  0
  -22.8350  -26.4620   14.4380 C   0  0  0  0  0  3  0  0  0  0  0  0
  -24.3440  -26.4480   14.1000 C   0  0  0  0  0  2  0  0  0  0  0  0
  -24.7010  -27.3420   12.9080 C   0  0  0  0  0  2  0  0  0  0  0  0
  -23.9470  -26.8690   11.6620 C   0  0  0  0  0  2  0  0  0  0  0  0
  -21.9290  -26.6070   13.2150 C   0  0  0  0  0  0  0  0  0  0  0  0
  -20.5300  -26.5440   13.3910 C   0  0  0  0  0  3  0  0  0  0  0  0
  -19.6580  -26.6710   12.2920 C   0  0  0  0  0  3  0  0  0  0  0  0
  -20.1810  -26.8500   10.9990 C   0  0  0  0  0  3  0  0  0  0  0  0
  -21.5730  -26.9060   10.8110 C   0  0  0  0  0  3  0  0  0  0  0  0
  -20.3800  -26.9890   20.7370 C   0  0  0  0  0  3  0  0  0  0  0  0
  -18.9110  -26.9690   20.7880 N   0  0  0  0  0  0  0  0  0  0  0  0
  -18.1650  -27.8400   21.4800 C   0  0  0  0  0  0  0  0  0  0  0  0
  -18.6500  -28.7130   22.2060 O   0  0  0  0  0  0  0  0  0  0  0  0
  -18.4450  -26.3070   20.1850 H   0  0  0  0  0  0  0  0  0  0  0  0
  -16.1280  -28.8010   20.3670 C   0  0  0  0  0  1  0  0  0  0  0  0
  -16.6350  -27.7260   21.3420 C   0  0  0  0  0  3  0  0  0  0  0  0
  -16.1340  -26.7030   23.5170 C   0  0  0  0  0  1  0  0  0  0  0  0
  -15.9160  -27.8440   22.6300 N   0  0  0  0  0  0  0  0  0  0  0  0
  -14.9150  -27.9420   22.4800 H   0  0  0  0  0  0  0  0  0  0  0  0
  -20.9730  -25.5910   21.1650 C   0  0  1  0  0  0  0  0  0  0  0  0
  -20.6680  -24.4570   20.1610 C   0  0  0  0  0  1  0  0  0  0  0  0
  -22.5080  -25.6740   21.3350 C   0  0  0  0  0  1  0  0  0  0  0  0
  -20.3970  -25.1780   22.5410 C   0  0  0  0  0  1  0  0  0  0  0  0
  -28.3270  -22.3540   23.0410 O   0  0  0  0  0  0  0  0  0  0  0  0
  -28.8480  -21.2700   22.2810 C   0  0  0  0  0  2  0  0  0  0  0  0
  -29.1950  -21.7070   20.8440 C   0  0  0  0  0  2  0  0  0  0  0  0
  -30.9070  -23.2750   19.8150 C   0  0  0  0  0  3  0  0  0  0  0  0
  -31.7110  -21.4810   21.2510 C   0  0  0  0  0  3  0  0  0  0  0  0
  -32.2340  -23.6950   19.5900 C   0  0  0  0  0  3  0  0  0  0  0  0
  -33.0370  -21.9010   21.0300 C   0  0  0  0  0  3  0  0  0  0  0  0
  -30.6350  -22.1640   20.6410 C   0  0  0  0  0  0  0  0  0  0  0  0
  -33.3080  -22.9970   20.1850 C   0  0  0  0  0  0  0  0  0  0  0  0
  -35.1670  -23.6180   18.7330 C   0  0  0  0  0  0  0  0  0  0  0  0
  -36.8310  -22.8780   17.0590 C   0  0  0  0  0  2  0  0  0  0  0  0
  -36.1470  -22.2660   15.8230 C   0  0  0  0  0  2  0  0  0  0  0  0
  -35.8350  -20.7720   16.0420 C   0  0  0  0  0  2  0  0  0  0  0  0
  -35.1060  -20.5100   17.3840 C   0  0  0  0  0  3  0  0  0  0  0  0
  -35.8450  -21.2130   18.5430 C   0  0  0  0  0  2  0  0  0  0  0  0
  -35.9790  -22.6510   18.2340 N   0  0  0  0  0  0  0  0  0  0  0  0
  -35.0230  -24.7330   18.2200 O   0  0  0  0  0  0  0  0  0  0  0  0
  -34.6680  -23.3170   19.9390 N   0  0  0  0  0  0  0  0  0  0  0  0
  -35.3000  -22.7140   20.4420 H   0  0  0  0  0  0  0  0  0  0  0  0
  -33.7940  -18.3220   17.7780 C   0  0  0  0  0  0  0  0  0  0  0  0
  -34.2050  -17.0250   17.9250 C   0  0  0  0  0  0  0  0  0  0  0  0
  -35.6320  -17.0510   17.8550 C   0  0  0  0  0  0  0  0  0  0  0  0
  -34.9500  -19.0760   17.6330 N   0  0  0  0  0  0  0  0  0  0  0  0
  -36.0620  -18.2990   17.7310 N   0  0  0  0  0  0  0  0  0  0  0  0
  -36.6070  -15.9550   17.8390 C   0  0  0  0  0  0  0  0  0  0  0  0
  -37.7350  -15.9610   18.6870 C   0  0  0  0  0  3  0  0  0  0  0  0
  -38.6520  -14.8880   18.6680 C   0  0  0  0  0  3  0  0  0  0  0  0
  -38.4450  -13.7940   17.7940 C   0  0  0  0  0  0  0  0  0  0  0  0
  -37.3320  -13.8030   16.9350 C   0  0  0  0  0  3  0  0  0  0  0  0
  -36.4230  -14.8730   16.9530 C   0  0  0  0  0  3  0  0  0  0  0  0
  -39.2940  -12.7190   17.6890 O   0  0  0  0  0  0  0  0  0  0  0  0
  -40.1070  -12.3400   18.7280 C   0  0  0  0  0  0  0  0  0  0  0  0
  -39.5900  -12.0410   20.0080 C   0  0  0  0  0  3  0  0  0  0  0  0
  -40.4520  -11.5840   21.0250 C   0  0  0  0  0  3  0  0  0  0  0  0
  -41.8250  -11.4180   20.7630 C   0  0  0  0  0  0  0  0  0  0  0  0
  -42.3410  -11.7110   19.4890 C   0  0  0  0  0  3  0  0  0  0  0  0
  -41.4820  -12.1670   18.4730 C   0  0  0  0  0  0  0  0  0  0  0  0
  -41.9810  -12.4260   17.2390 F   0  0  0  0  0  0  0  0  0  0  0  0
  -42.6510  -10.9740   21.7400 F   0  0  0  0  0  0  0  0  0  0  0  0
  -33.3250  -15.8130   18.0360 C   0  0  0  0  0  0  0  0  0  0  0  0
  -33.7790  -14.7840   18.7430 N   0  0  0  0  0  0  0  0  0  0  0  0
  -32.2020  -15.7890   17.5320 O   0  0  0  0  0  0  0  0  0  0  0  0
  -34.6910  -14.8100   19.1780 H   0  0  0  0  0  0  0  0  0  0  0  0
  -33.2070  -13.9570   18.8520 H   0  0  0  0  0  0  0  0  0  0  0  0
  -32.5350  -18.9160   17.7350 N   0  0  0  0  0  0  0  0  0  0  0  0
  -31.6870  -18.3640   17.7680 H   0  0  0  0  0  0  0  0  0  0  0  0
  -32.3610  -19.9050   17.6160 H   0  0  0  0  0  0  0  0  0  0  0  0
  1 49  1  0
  1  2  1  0
  3  5  2  0
  4  3  1  0
  4  2  1  0
  6  4  1  0
  7  8  1  0
  7  3  1  0
 10 15  1  0
 10  8  1  0
 11 21  1  0
 11 19  1  0
 12 14  1  0
 14 13  1  0
 14 15  2  0
 16 10  2  0
 17 12  2  0
 17 16  1  0
 18 11  1  0
 18 12  1  0
 19  9  1  0
 19 13  1  0
 20  9  2  0
 21 23  2  0
 22 21  1  0
 24 22  1  0
 25 30  1  0
 26 22  1  0
 27 26  1  0
 28 27  1  0
 29 25  1  0
 29 28  1  0
 30 31  2  0
 30 26  1  0
 32 31  1  0
 33 32  2  0
 34 33  1  0
 34 25  2  0
 35  9  1  0
 35 36  1  0
 35 45  1  0
 36 37  1  0
 37 38  2  0
 39 36  1  0
 41 40  1  0
 41 37  1  0
 41 43  1  0
 43 42  1  0
 44 43  1  0
 45 47  1  1
 45 48  1  0
 46 45  1  0
 50 49  1  0
 51 50  1  0
 52 56  1  0
 54 52  2  0
 54 57  1  0
 55 53  1  0
 56 51  1  0
 56 53  2  0
 57 55  2  0
 58 66  1  0
 59 64  1  0
 60 61  1  0
 60 59  1  0
 62 61  1  0
 62 71  1  0
 62 63  1  0
 64 63  1  0
 64 58  1  0
 65 58  2  0
 66 57  1  0
 66 67  1  0
 68 69  2  0
 69 88  1  0
 70 69  1  0
 71 72  1  0
 71 68  1  0
 72 70  2  0
 73 70  1  0
 73 74  1  0
 75 74  2  0
 76 75  1  0
 77 78  1  0
 77 76  2  0
 78 73  2  0
 79 76  1  0
 79 80  1  0
 80 81  1  0
 81 82  2  0
 83 82  1  0
 83 87  1  0
 84 83  2  0
 85 80  2  0
 85 84  1  0
 86 85  1  0
 88 89  1  0
 89 92  1  0
 89 91  1  0
 90 88  2  0
 93 94  1  0
 93 68  1  0
 95 93  1  0
M  ISO  4   7 101   8 101  58 100  66 100
M  END
>  <TORSDO>  (54) 
F 23

>  <SCORE>  (54) 
4.651

>  <name>  (54) 
53

>  <ligand_id>  (54) 
53

>  <original_smiles>  (54) 
[H]c1c([H])c([H])c2c(c1[H])C([H])([H])C([H])([H])C([H])([H])C2([H])N([H])C(=O)C1([H])N(C(=O)C([H])(N([H])C(=O)C([H])(N([H])C([H])([H])[H])C([H])([H])[H])C(C([H])([H])[H])(C([H])([H])[H])C([H])([H])[H])C([H])([H])c2c([H])c(OC([H])([H])C(=O)N([H])C([H])([H])C([H])([H])OC([H])([H])C([H])([H])c3c([H])c([H])c(N([H])C(=O)N4C([H])([H])C([H])([H])C([H])([H])C([H])(n5nc(-c6c([H])c([H])c(Oc7c([H])c([H])c(F)c([H])c7F)c([H])c6[H])c(C(=O)N([H])[H])c5N([H])[H])C4([H])[H])c([H])c3[H])c([H])c([H])c2C1([H])[H]

>  <smiles>  (54) 
[H]c1c([H])c([H])c2c(c1[H])C([H])([H])C([H])([H])C([H])([H])C2([H])N([H])C(=O)C1([H])N(C(=O)C([H])(N([H])C(=O)C([H])(N([H])C([H])([H])[H])C([H])([H])[H])C(C([H])([H])[H])(C([H])([H])[H])C([H])([H])[H])C([H])([H])c2c([H])c(OC([H])([H])C(=O)N([H])C([H])([H])C([H])([H])OC([H])([H])C([H])([H])c3c([H])c([H])c(N([H])C(=O)N4C([H])([H])C([H])([H])C([H])([H])C([H])(n5nc(-c6c([H])c([H])c(Oc7c([H])c([H])c(F)c([H])c7F)c([H])c6[H])c(C(=O)N([H])[H])c5N([H])[H])C4([H])[H])c([H])c3[H])c([H])c([H])c2C1([H])[H]

$$$$
54:0:0
     RDKit          3D

 95103  0  0  1  0  0  0  0  0999 V2000
  -32.7010  -20.1580   20.4590 C   0  0  0  0  0  3  0  0  0  0  0  0
  -31.9920  -21.3620   20.6120 C   0  0  0  0  0  3  0  0  0  0  0  0
  -32.0360  -18.9260   20.5950 C   0  0  0  0  0  3  0  0  0  0  0  0
  -29.9470  -20.1060   21.0440 C   0  0  0  0  0  3  0  0  0  0  0  0
  -30.6050  -21.3480   20.8880 C   0  0  0  0  0  0  0  0  0  0  0  0
  -30.6560  -18.8890   20.9070 C   0  0  0  0  0  0  0  0  0  0  0  0
  -29.9390  -17.5740   21.0410 C   0  0  0  0  0  0  0  0  0  0  0  0
  -30.6580  -16.5660   21.5490 N   0  0  0  0  0  0  0  0  0  0  0  0
  -28.7510  -17.4550   20.7280 O   0  0  0  0  0  0  0  0  0  0  0  0
  -31.6470  -16.6160   21.7520 H   0  0  0  0  0  0  0  0  0  0  0  0
  -30.7080  -14.4040   20.5490 C   0  0  0  0  0  0  0  0  0  0  0  0
  -30.3530  -12.3430   19.2450 C   0  0  0  0  0  2  0  0  0  0  0  0
  -29.4020  -12.6140   18.0640 C   0  0  0  0  0  2  0  0  0  0  0  0
  -27.9300  -12.4700   18.4990 C   0  0  0  0  0  2  0  0  0  0  0  0
  -27.6140  -13.2610   19.7950 C   0  0  0  0  0  3  0  0  0  0  0  0
  -28.6670  -12.9650   20.8860 C   0  0  0  0  0  2  0  0  0  0  0  0
  -30.0020  -13.2660   20.3340 N   0  0  0  0  0  0  0  0  0  0  0  0
  -31.7510  -14.6890   19.9470 O   0  0  0  0  0  0  0  0  0  0  0  0
  -30.1860  -15.2390   21.4540 N   0  0  0  0  0  0  0  0  0  0  0  0
  -29.2960  -15.1040   21.9130 H   0  0  0  0  0  0  0  0  0  0  0  0
  -25.2110  -13.8700   20.4990 C   0  0  0  0  0  0  0  0  0  0  0  0
  -24.1430  -13.0950   20.8680 C   0  0  0  0  0  0  0  0  0  0  0  0
  -24.6050  -11.7450   20.8340 C   0  0  0  0  0  0  0  0  0  0  0  0
  -26.2580  -12.9890   20.2690 N   0  0  0  0  0  0  0  0  0  0  0  0
  -25.8950  -11.7060   20.5240 N   0  0  0  0  0  0  0  0  0  0  0  0
  -23.8800  -10.4810   21.0240 C   0  0  0  0  0  0  0  0  0  0  0  0
  -24.3080   -9.5190   21.9650 C   0  0  0  0  0  3  0  0  0  0  0  0
  -23.5850   -8.3190   22.1410 C   0  0  0  0  0  3  0  0  0  0  0  0
  -22.4200   -8.0730   21.3760 C   0  0  0  0  0  0  0  0  0  0  0  0
  -22.0130   -9.0240   20.4240 C   0  0  0  0  0  3  0  0  0  0  0  0
  -22.7360  -10.2140   20.2450 C   0  0  0  0  0  3  0  0  0  0  0  0
  -21.6700   -6.9250   21.4610 O   0  0  0  0  0  0  0  0  0  0  0  0
  -21.6000   -6.1960   22.6210 C   0  0  0  0  0  0  0  0  0  0  0  0
  -21.1290   -6.7580   23.8270 C   0  0  0  0  0  3  0  0  0  0  0  0
  -21.0050   -5.9540   24.9770 C   0  0  0  0  0  3  0  0  0  0  0  0
  -21.3440   -4.5880   24.9220 C   0  0  0  0  0  0  0  0  0  0  0  0
  -21.8090   -4.0250   23.7200 C   0  0  0  0  0  3  0  0  0  0  0  0
  -21.9340   -4.8270   22.5730 C   0  0  0  0  0  0  0  0  0  0  0  0
  -22.3610   -4.2740   21.4120 F   0  0  0  0  0  0  0  0  0  0  0  0
  -21.2190   -3.8140   26.0250 F   0  0  0  0  0  0  0  0  0  0  0  0
  -22.7450  -13.5710   21.1450 C   0  0  0  0  0  0  0  0  0  0  0  0
  -22.0190  -12.8700   22.0080 N   0  0  0  0  0  0  0  0  0  0  0  0
  -22.3060  -14.5980   20.6300 O   0  0  0  0  0  0  0  0  0  0  0  0
  -22.3870  -12.0390   22.4480 H   0  0  0  0  0  0  0  0  0  0  0  0
  -21.0810  -13.1700   22.2350 H   0  0  0  0  0  0  0  0  0  0  0  0
  -25.3760  -15.2400   20.3260 N   0  0  0  0  0  0  0  0  0  0  0  0
  -24.6090  -15.8950   20.4370 H   0  0  0  0  0  0  0  0  0  0  0  0
  -26.2390  -15.6880   20.0420 H   0  0  0  0  0  0  0  0  0  0  0  0
  -29.8580  -22.6400   21.0720 C   0  0  0  0  0  0  0  0  0  0  0  0
  -30.2270  -23.6260   20.2490 N   0  0  0  0  0  0  0  0  0  0  0  0
  -28.9770  -22.7590   21.9250 O   0  0  0  0  0  0  0  0  0  0  0  0
  -30.9200  -23.3920   19.5520 H   0  0  0  0  0  0  0  0  0  0  0  0
  -29.9110  -25.0390   20.4160 C   0  0  0  0  0  2  0  0  0  0  0  0
  -28.5130  -25.4420   19.9190 C   0  0  0  0  0  2  0  0  0  0  0  0
  -28.4490  -26.8410   20.1500 O   0  0  0  0  0  0  0  0  0  0  0  0
  -24.5760  -31.8870   23.2470 C   0  0  0  0  0  0  0  0  0  0  0  0
  -27.2340  -27.4840   20.1480 C   0  0  0  0  0  0  0  0  0  0  0  0
  -23.3720  -30.4970   21.5900 C   0  0  0  0  0  3  0  0  0  0  0  0
  -24.8270  -28.9610   20.1670 C   0  0  0  0  0  0  0  0  0  0  0  0
  -25.8940  -30.8600   21.4010 C   0  0  0  0  0  2  0  0  0  0  0  0
  -25.9780  -29.4920   20.7590 C   0  0  0  0  0  0  0  0  0  0  0  0
  -27.1820  -28.7600   20.7440 C   0  0  0  0  0  3  0  0  0  0  0  0
  -26.0630  -26.9490   19.5630 C   0  0  0  0  0  3  0  0  0  0  0  0
  -24.8630  -27.6860   19.5700 C   0  0  0  0  0  3  0  0  0  0  0  0
  -23.5850  -29.8190   20.2080 C   0  0  0  0  0  2  0  0  0  0  0  0
  -24.6320  -31.0960   22.1390 N   0  0  0  0  0  0  0  0  0  0  0  0
  -23.4940  -32.1590   23.7860 O   0  0  0  0  0  0  0  0  0  0  0  0
  -22.7170  -29.4730   22.5430 C   0  0  0  0  0  0  0  0  0  0  0  0
  -21.3930  -29.2940   22.4070 N   0  0  0  0  0  0  0  0  0  0  0  0
  -23.3960  -28.8430   23.3580 O   0  0  0  0  0  0  0  0  0  0  0  0
  -20.9080  -29.8540   21.7200 H   0  0  0  0  0  0  0  0  0  0  0  0
  -18.0130  -28.1190   22.8870 C   0  0  0  0  0  0  0  0  0  0  0  0
  -20.5700  -28.3540   23.1670 C   0  0  0  0  0  3  0  0  0  0  0  0
  -20.6640  -26.9280   22.5760 C   0  0  0  0  0  2  0  0  0  0  0  0
  -19.5630  -26.6240   21.5560 C   0  0  0  0  0  2  0  0  0  0  0  0
  -18.1800  -26.7740   22.1990 C   0  0  0  0  0  2  0  0  0  0  0  0
  -19.1360  -28.8670   23.3280 C   0  0  0  0  0  0  0  0  0  0  0  0
  -18.9260  -30.1270   23.9290 C   0  0  0  0  0  3  0  0  0  0  0  0
  -17.6250  -30.6390   24.0950 C   0  0  0  0  0  3  0  0  0  0  0  0
  -16.5160  -29.8870   23.6710 C   0  0  0  0  0  3  0  0  0  0  0  0
  -16.7100  -28.6280   23.0740 C   0  0  0  0  0  3  0  0  0  0  0  0
  -25.8630  -32.5100   23.8750 C   0  0  0  0  0  3  0  0  0  0  0  0
  -26.3710  -31.7340   25.1520 C   0  0  1  0  0  0  0  0  0  0  0  0
  -25.2720  -31.4980   26.2130 C   0  0  0  0  0  1  0  0  0  0  0  0
  -26.9500  -30.3550   24.7570 C   0  0  0  0  0  1  0  0  0  0  0  0
  -27.5220  -32.5210   25.8210 C   0  0  0  0  0  1  0  0  0  0  0  0
  -25.5630  -33.9090   24.2030 N   0  0  0  0  0  0  0  0  0  0  0  0
  -25.8940  -34.9570   23.4350 C   0  0  0  0  0  0  0  0  0  0  0  0
  -26.5560  -34.8460   22.4000 O   0  0  0  0  0  0  0  0  0  0  0  0
  -24.9750  -34.0700   25.0070 H   0  0  0  0  0  0  0  0  0  0  0  0
  -24.1640  -36.7470   23.0880 C   0  0  0  0  0  1  0  0  0  0  0  0
  -25.4130  -36.3480   23.8890 C   0  0  0  0  0  3  0  0  0  0  0  0
  -27.5550  -37.2360   24.6960 C   0  0  0  0  0  1  0  0  0  0  0  0
  -26.4460  -37.3990   23.7590 N   0  0  0  0  0  0  0  0  0  0  0  0
  -26.0420  -38.3200   23.9030 H   0  0  0  0  0  0  0  0  0  0  0  0
  1  3  2  0
  1  2  1  0
  2  5  2  0
  3  6  1  0
  5  4  1  0
  5 49  1  0
  6  7  1  0
  6  4  2  0
  7  8  1  0
  8 10  1  0
  9  7  2  0
 11 19  1  0
 12 17  1  0
 13 14  1  0
 13 12  1  0
 15 14  1  0
 15 24  1  0
 15 16  1  0
 17 11  1  0
 17 16  1  0
 18 11  2  0
 19  8  1  0
 19 20  1  0
 21 22  2  0
 22 41  1  0
 23 22  1  0
 23 26  1  0
 24 21  1  0
 24 25  1  0
 25 23  2  0
 26 27  1  0
 27 28  2  0
 29 32  1  0
 29 28  1  0
 30 29  2  0
 31 30  1  0
 31 26  2  0
 32 33  1  0
 33 34  1  0
 34 35  2  0
 36 35  1  0
 36 40  1  0
 37 36  2  0
 38 33  2  0
 38 37  1  0
 39 38  1  0
 41 42  1  0
 42 45  1  0
 42 44  1  0
 43 41  2  0
 46 47  1  0
 46 21  1  0
 48 46  1  0
 49 51  2  0
 50 53  1  0
 50 49  1  0
 52 50  1  0
 54 55  1  0
 54 53  1  0
 56 67  2  0
 57 55  1  0
 57 62  1  0
 58 66  1  0
 58 68  1  0
 59 65  1  0
 59 61  1  0
 60 66  1  0
 61 60  1  0
 62 61  2  0
 63 64  1  0
 63 57  2  0
 64 59  2  0
 65 58  1  0
 66 56  1  0
 68 70  2  0
 69 68  1  0
 71 69  1  0
 72 81  2  0
 72 77  1  0
 73 69  1  0
 73 77  1  0
 74 73  1  0
 75 76  1  0
 75 74  1  0
 76 72  1  0
 77 78  2  0
 78 79  1  0
 80 79  2  0
 81 80  1  0
 82 56  1  0
 82 87  1  0
 82 83  1  0
 83 86  1  1
 83 84  1  0
 85 83  1  0
 87 90  1  0
 88 92  1  0
 88 87  1  0
 89 88  2  0
 92 91  1  0
 94 92  1  0
 94 95  1  0
 94 93  1  0
M  ISO  4  11 100  19 100  54 101  55 101
M  END
>  <TORSDO>  (55) 
F 20

>  <SCORE>  (55) 
-14.288

>  <name>  (55) 
54

>  <ligand_id>  (55) 
54

>  <original_smiles>  (55) 
[H]c1c([H])c(C(=O)N([H])N([H])C(=O)N2C([H])([H])C([H])([H])C([H])([H])C([H])(n3nc(-c4c([H])c([H])c(Oc5c([H])c([H])c(F)c([H])c5F)c([H])c4[H])c(C(=O)N([H])[H])c3N([H])[H])C2([H])[H])c([H])c(C(=O)N([H])C([H])([H])C([H])([H])Oc2c([H])c([H])c3c(c2[H])C([H])([H])N(C(=O)C([H])(N([H])C(=O)C([H])(N([H])C([H])([H])[H])C([H])([H])[H])C(C([H])([H])[H])(C([H])([H])[H])C([H])([H])[H])C([H])(C(=O)N([H])C2([H])c4c([H])c([H])c([H])c([H])c4C([H])([H])C([H])([H])C2([H])[H])C3([H])[H])c1[H]

>  <smiles>  (55) 
[H]c1c([H])c(C(=O)N([H])N([H])C(=O)N2C([H])([H])C([H])([H])C([H])([H])C([H])(n3nc(-c4c([H])c([H])c(Oc5c([H])c([H])c(F)c([H])c5F)c([H])c4[H])c(C(=O)N([H])[H])c3N([H])[H])C2([H])[H])c([H])c(C(=O)N([H])C([H])([H])C([H])([H])Oc2c([H])c([H])c3c(c2[H])C([H])([H])N(C(=O)C([H])(N([H])C(=O)C([H])(N([H])C([H])([H])[H])C([H])([H])[H])C(C([H])([H])[H])(C([H])([H])[H])C([H])([H])[H])C([H])(C(=O)N([H])C2([H])c4c([H])c([H])c([H])c([H])c4C([H])([H])C([H])([H])C2([H])[H])C3([H])[H])c1[H]

$$$$
55:0:0
     RDKit          3D

 88 95  0  0  1  0  0  0  0  0999 V2000
  -28.9110  -21.2120   20.0080 C   0  0  0  0  0  0  0  0  0  0  0  0
  -28.9910  -22.4940   20.5120 N   0  0  0  0  0  0  0  0  0  0  0  0
  -28.3240  -21.0030   18.9460 O   0  0  0  0  0  0  0  0  0  0  0  0
  -29.4620  -22.5830   21.4030 H   0  0  0  0  0  0  0  0  0  0  0  0
  -29.6120  -19.9780   20.7310 C   0  0  0  0  0  2  0  0  0  0  0  0
  -29.2490  -18.4560   20.3270 C   0  0  0  0  0  3  0  0  0  0  0  0
  -30.2460  -17.2720   20.7760 C   0  0  0  0  0  3  0  0  0  0  0  0
  -30.5860  -14.7030   20.3810 C   0  0  0  0  0  0  0  0  0  0  0  0
  -30.3730  -12.4530   19.3310 C   0  0  0  0  0  2  0  0  0  0  0  0
  -29.4250  -12.5500   18.1160 C   0  0  0  0  0  2  0  0  0  0  0  0
  -27.9570  -12.3790   18.5550 C   0  0  0  0  0  2  0  0  0  0  0  0
  -27.5940  -13.2540   19.7850 C   0  0  0  0  0  3  0  0  0  0  0  0
  -28.6580  -13.1390   20.8970 C   0  0  0  0  0  2  0  0  0  0  0  0
  -29.9530  -13.4870   20.3000 N   0  0  0  0  0  0  0  0  0  0  0  0
  -31.7690  -14.8170   20.0500 O   0  0  0  0  0  0  0  0  0  0  0  0
  -29.8170  -15.8180   20.6470 N   0  0  0  0  0  0  0  0  0  0  0  0
  -28.8460  -15.6250   20.8430 H   0  0  0  0  0  0  0  0  0  0  0  0
  -25.2050  -13.8410   20.5180 C   0  0  0  0  0  0  0  0  0  0  0  0
  -24.1440  -13.0630   20.8930 C   0  0  0  0  0  0  0  0  0  0  0  0
  -24.6120  -11.7130   20.8640 C   0  0  0  0  0  0  0  0  0  0  0  0
  -26.2510  -12.9640   20.2800 N   0  0  0  0  0  0  0  0  0  0  0  0
  -25.9010  -11.6800   20.5510 N   0  0  0  0  0  0  0  0  0  0  0  0
  -23.8910  -10.4480   21.0570 C   0  0  0  0  0  0  0  0  0  0  0  0
  -24.3380   -9.4770   21.9800 C   0  0  0  0  0  3  0  0  0  0  0  0
  -23.6170   -8.2770   22.1610 C   0  0  0  0  0  3  0  0  0  0  0  0
  -22.4340   -8.0410   21.4210 C   0  0  0  0  0  0  0  0  0  0  0  0
  -22.0070   -9.0010   20.4870 C   0  0  0  0  0  3  0  0  0  0  0  0
  -22.7290  -10.1920   20.3030 C   0  0  0  0  0  3  0  0  0  0  0  0
  -21.6840   -6.8940   21.5130 O   0  0  0  0  0  0  0  0  0  0  0  0
  -21.6620   -6.1370   22.6570 C   0  0  0  0  0  0  0  0  0  0  0  0
  -21.2710   -6.6800   23.9010 C   0  0  0  0  0  3  0  0  0  0  0  0
  -21.1970   -5.8500   25.0390 C   0  0  0  0  0  3  0  0  0  0  0  0
  -21.5010   -4.4800   24.9330 C   0  0  0  0  0  0  0  0  0  0  0  0
  -21.8850   -3.9370   23.6940 C   0  0  0  0  0  3  0  0  0  0  0  0
  -21.9620   -4.7640   22.5580 C   0  0  0  0  0  0  0  0  0  0  0  0
  -22.3110   -4.2320   21.3620 F   0  0  0  0  0  0  0  0  0  0  0  0
  -21.4220   -3.6820   26.0220 F   0  0  0  0  0  0  0  0  0  0  0  0
  -22.7450  -13.5350   21.1670 C   0  0  0  0  0  0  0  0  0  0  0  0
  -22.0210  -12.8380   22.0360 N   0  0  0  0  0  0  0  0  0  0  0  0
  -22.3030  -14.5570   20.6440 O   0  0  0  0  0  0  0  0  0  0  0  0
  -22.3920  -12.0110   22.4800 H   0  0  0  0  0  0  0  0  0  0  0  0
  -21.0830  -13.1360   22.2610 H   0  0  0  0  0  0  0  0  0  0  0  0
  -25.3610  -15.2110   20.3360 N   0  0  0  0  0  0  0  0  0  0  0  0
  -24.5870  -15.8580   20.4410 H   0  0  0  0  0  0  0  0  0  0  0  0
  -26.1950  -15.6520   19.9690 H   0  0  0  0  0  0  0  0  0  0  0  0
  -28.6520  -23.8120   19.8260 C   0  0  0  0  0  2  0  0  0  0  0  0
  -28.2250  -25.0760   20.7210 C   0  0  0  0  0  2  0  0  0  0  0  0
  -28.3520  -26.4670   20.2010 O   0  0  0  0  0  0  0  0  0  0  0  0
  -24.6120  -31.8750   23.2380 C   0  0  0  0  0  0  0  0  0  0  0  0
  -27.2280  -27.3070   20.2010 C   0  0  0  0  0  0  0  0  0  0  0  0
  -23.4080  -30.4700   21.6010 C   0  0  0  0  0  3  0  0  0  0  0  0
  -24.8600  -28.9120   20.1820 C   0  0  0  0  0  0  0  0  0  0  0  0
  -25.9460  -30.7940   21.4120 C   0  0  0  0  0  2  0  0  0  0  0  0
  -26.0290  -29.4120   20.7710 C   0  0  0  0  0  0  0  0  0  0  0  0
  -27.2190  -28.6220   20.7640 C   0  0  0  0  0  3  0  0  0  0  0  0
  -26.0390  -26.8570   19.5930 C   0  0  0  0  0  3  0  0  0  0  0  0
  -24.8670  -27.6410   19.5820 C   0  0  0  0  0  3  0  0  0  0  0  0
  -23.6220  -29.7860   20.2250 C   0  0  0  0  0  2  0  0  0  0  0  0
  -24.6740  -31.0650   22.1400 N   0  0  0  0  0  0  0  0  0  0  0  0
  -23.5290  -32.1520   23.7730 O   0  0  0  0  0  0  0  0  0  0  0  0
  -22.7480  -29.4570   22.5660 C   0  0  0  0  0  0  0  0  0  0  0  0
  -21.4210  -29.2800   22.4420 N   0  0  0  0  0  0  0  0  0  0  0  0
  -23.4280  -28.8330   23.3840 O   0  0  0  0  0  0  0  0  0  0  0  0
  -20.9310  -29.8350   21.7560 H   0  0  0  0  0  0  0  0  0  0  0  0
  -18.0460  -28.0820   22.9480 C   0  0  0  0  0  0  0  0  0  0  0  0
  -20.6040  -28.3440   23.2160 C   0  0  0  0  0  3  0  0  0  0  0  0
  -20.7080  -26.9110   22.6450 C   0  0  0  0  0  2  0  0  0  0  0  0
  -19.6050  -26.5840   21.6320 C   0  0  0  0  0  2  0  0  0  0  0  0
  -18.2240  -26.7300   22.2760 C   0  0  0  0  0  2  0  0  0  0  0  0
  -19.1640  -28.8460   23.3750 C   0  0  0  0  0  0  0  0  0  0  0  0
  -18.9430  -30.1100   23.9640 C   0  0  0  0  0  3  0  0  0  0  0  0
  -17.6380  -30.6100   24.1280 C   0  0  0  0  0  3  0  0  0  0  0  0
  -16.5340  -29.8430   23.7170 C   0  0  0  0  0  3  0  0  0  0  0  0
  -16.7390  -28.5800   23.1320 C   0  0  0  0  0  3  0  0  0  0  0  0
  -25.8940  -32.5120   23.8580 C   0  0  0  0  0  3  0  0  0  0  0  0
  -25.5820  -33.9100   24.1870 N   0  0  0  0  0  0  0  0  0  0  0  0
  -25.9130  -34.9640   23.4290 C   0  0  0  0  0  0  0  0  0  0  0  0
  -26.5820  -34.8600   22.3970 O   0  0  0  0  0  0  0  0  0  0  0  0
  -24.9880  -34.0630   24.9890 H   0  0  0  0  0  0  0  0  0  0  0  0
  -24.1820  -36.7550   23.0770 C   0  0  0  0  0  1  0  0  0  0  0  0
  -25.4260  -36.3520   23.8870 C   0  0  0  0  0  3  0  0  0  0  0  0
  -27.5610  -37.2380   24.7130 C   0  0  0  0  0  1  0  0  0  0  0  0
  -26.4560  -37.4050   23.7710 N   0  0  0  0  0  0  0  0  0  0  0  0
  -26.0500  -38.3260   23.9190 H   0  0  0  0  0  0  0  0  0  0  0  0
  -26.4130  -31.7430   25.1360 C   0  0  1  0  0  0  0  0  0  0  0  0
  -25.3210  -31.5090   26.2060 C   0  0  0  0  0  1  0  0  0  0  0  0
  -26.9940  -30.3640   24.7470 C   0  0  0  0  0  1  0  0  0  0  0  0
  -27.5640  -32.5390   25.7940 C   0  0  0  0  0  1  0  0  0  0  0  0
  1  2  1  0
  1  5  1  0
  2  4  1  0
  3  1  2  0
  6  5  1  0
  6  7  2  0
  8 16  1  0
  9 14  1  0
 10 11  1  0
 10  9  1  0
 12 11  1  0
 12 21  1  0
 12 13  1  0
 14  8  1  0
 14 13  1  0
 15  8  2  0
 16  7  1  0
 16 17  1  0
 18 19  2  0
 19 38  1  0
 20 19  1  0
 20 23  1  0
 21 18  1  0
 21 22  1  0
 22 20  2  0
 23 24  1  0
 24 25  2  0
 26 29  1  0
 26 25  1  0
 27 26  2  0
 28 27  1  0
 28 23  2  0
 29 30  1  0
 30 31  1  0
 31 32  2  0
 33 32  1  0
 33 37  1  0
 34 33  2  0
 35 30  2  0
 35 34  1  0
 36 35  1  0
 38 39  1  0
 39 42  1  0
 39 41  1  0
 40 38  2  0
 43 44  1  0
 43 18  1  0
 45 43  1  0
 46  2  1  0
 46 47  1  0
 48 47  1  0
 49 60  2  0
 50 48  1  0
 50 55  1  0
 51 59  1  0
 51 61  1  0
 52 58  1  0
 52 54  1  0
 53 59  1  0
 54 53  1  0
 55 54  2  0
 56 50  2  0
 57 56  1  0
 57 52  2  0
 58 51  1  0
 59 49  1  0
 61 63  2  0
 62 61  1  0
 64 62  1  0
 65 74  2  0
 65 70  1  0
 66 62  1  0
 66 70  1  0
 67 66  1  0
 68 69  1  0
 68 67  1  0
 69 65  1  0
 70 71  2  0
 71 72  1  0
 73 72  2  0
 74 73  1  0
 75 49  1  0
 75 76  1  0
 75 85  1  0
 76 79  1  0
 77 81  1  0
 77 76  1  0
 78 77  2  0
 81 80  1  0
 83 81  1  0
 83 84  1  0
 83 82  1  0
 85 88  1  1
 85 86  1  0
 87 85  1  0
M  ISO  4   8 100  16 100  47 101  48 101
M  END
>  <TORSDO>  (56) 
F 21

>  <SCORE>  (56) 
-13.303

>  <name>  (56) 
55

>  <ligand_id>  (56) 
55

>  <original_smiles>  (56) 
[H]c1c([H])c([H])c2c(c1[H])C([H])([H])C([H])([H])C([H])([H])C2([H])N([H])C(=O)C1([H])N(C(=O)C([H])(N([H])C(=O)C([H])(N([H])C([H])([H])[H])C([H])([H])[H])C(C([H])([H])[H])(C([H])([H])[H])C([H])([H])[H])C([H])([H])c2c([H])c(OC([H])([H])C([H])([H])N([H])C(=O)C([H])([H])C([H])([H])C([H])([H])N([H])C(=O)N3C([H])([H])C([H])([H])C([H])([H])C([H])(n4nc(-c5c([H])c([H])c(Oc6c([H])c([H])c(F)c([H])c6F)c([H])c5[H])c(C(=O)N([H])[H])c4N([H])[H])C3([H])[H])c([H])c([H])c2C1([H])[H]

>  <smiles>  (56) 
[H]c1c([H])c([H])c2c(c1[H])C([H])([H])C([H])([H])C([H])([H])C2([H])N([H])C(=O)C1([H])N(C(=O)C([H])(N([H])C(=O)C([H])(N([H])C([H])([H])[H])C([H])([H])[H])C(C([H])([H])[H])(C([H])([H])[H])C([H])([H])[H])C([H])([H])c2c([H])c(OC([H])([H])C([H])([H])N([H])C(=O)C([H])([H])C([H])([H])C([H])([H])N([H])C(=O)N3C([H])([H])C([H])([H])C([H])([H])C([H])(n4nc(-c5c([H])c([H])c(Oc6c([H])c([H])c(F)c([H])c6F)c([H])c5[H])c(C(=O)N([H])[H])c4N([H])[H])C3([H])[H])c([H])c([H])c2C1([H])[H]

$$$$
56:0:0
     RDKit          3D

 94102  0  0  1  0  0  0  0  0999 V2000
  -28.3060  -21.6920   20.3910 C   0  0  0  0  0  0  0  0  0  0  0  0
  -28.0210  -23.0180   20.3910 N   0  0  0  0  0  0  0  0  0  0  0  0
  -27.5250  -20.9420   20.9760 O   0  0  0  0  0  0  0  0  0  0  0  0
  -27.1590  -23.2110   20.8820 H   0  0  0  0  0  0  0  0  0  0  0  0
  -29.5460  -21.0620   19.7120 C   0  0  0  0  0  2  0  0  0  0  0  0
  -29.8480  -18.5510   19.9300 C   0  0  0  0  0  0  0  0  0  0  0  0
  -32.7600  -18.5710   21.3420 C   0  0  0  0  0  2  0  0  0  0  0  0
  -32.2330  -19.9590   21.7180 C   0  0  0  0  0  2  0  0  0  0  0  0
  -31.7360  -17.4390   21.5220 C   0  0  0  0  0  2  0  0  0  0  0  0
  -30.7050  -20.1100   21.6850 C   0  0  0  0  0  2  0  0  0  0  0  0
  -30.7550  -17.3270   20.3320 C   0  0  0  0  0  3  0  0  0  0  0  0
  -30.0730  -19.8310   20.3880 N   0  0  0  0  0  0  0  0  0  0  0  0
  -28.9800  -18.3330   19.0810 O   0  0  0  0  0  0  0  0  0  0  0  0
  -30.8530  -14.8380   19.9150 C   0  0  0  0  0  0  0  0  0  0  0  0
  -30.5630  -12.5800   18.9590 C   0  0  0  0  0  2  0  0  0  0  0  0
  -29.5740  -12.6520   17.7770 C   0  0  0  0  0  2  0  0  0  0  0  0
  -28.1290  -12.4860   18.2810 C   0  0  0  0  0  2  0  0  0  0  0  0
  -27.8010  -13.4120   19.4830 C   0  0  0  0  0  3  0  0  0  0  0  0
  -28.9070  -13.3570   20.5620 C   0  0  0  0  0  2  0  0  0  0  0  0
  -30.1870  -13.6490   19.9050 N   0  0  0  0  0  0  0  0  0  0  0  0
  -31.9960  -14.9350   19.4680 O   0  0  0  0  0  0  0  0  0  0  0  0
  -30.1680  -15.9520   20.2810 N   0  0  0  0  0  0  0  0  0  0  0  0
  -29.1990  -15.8510   20.5380 H   0  0  0  0  0  0  0  0  0  0  0  0
  -25.4570  -14.0020   20.3540 C   0  0  0  0  0  0  0  0  0  0  0  0
  -24.4090  -13.2220   20.7650 C   0  0  0  0  0  0  0  0  0  0  0  0
  -24.8610  -11.8690   20.6730 C   0  0  0  0  0  0  0  0  0  0  0  0
  -26.4810  -13.1230   20.0390 N   0  0  0  0  0  0  0  0  0  0  0  0
  -26.1320  -11.8340   20.2920 N   0  0  0  0  0  0  0  0  0  0  0  0
  -24.1400  -10.6060   20.8720 C   0  0  0  0  0  0  0  0  0  0  0  0
  -24.5360   -9.6800   21.8620 C   0  0  0  0  0  3  0  0  0  0  0  0
  -23.8160   -8.4800   22.0490 C   0  0  0  0  0  3  0  0  0  0  0  0
  -22.6860   -8.1980   21.2450 C   0  0  0  0  0  0  0  0  0  0  0  0
  -22.3110   -9.1130   20.2450 C   0  0  0  0  0  3  0  0  0  0  0  0
  -23.0320  -10.3030   20.0580 C   0  0  0  0  0  3  0  0  0  0  0  0
  -21.9410   -7.0460   21.3350 O   0  0  0  0  0  0  0  0  0  0  0  0
  -21.7580   -6.4020   22.5330 C   0  0  0  0  0  0  0  0  0  0  0  0
  -21.1110   -7.0260   23.6220 C   0  0  0  0  0  3  0  0  0  0  0  0
  -20.8800   -6.3050   24.8100 C   0  0  0  0  0  3  0  0  0  0  0  0
  -21.2840   -4.9600   24.9090 C   0  0  0  0  0  0  0  0  0  0  0  0
  -21.9220   -4.3350   23.8240 C   0  0  0  0  0  3  0  0  0  0  0  0
  -22.1550   -5.0530   22.6380 C   0  0  0  0  0  0  0  0  0  0  0  0
  -22.7520   -4.4420   21.5870 F   0  0  0  0  0  0  0  0  0  0  0  0
  -21.0560   -4.2640   26.0480 F   0  0  0  0  0  0  0  0  0  0  0  0
  -23.0330  -13.6960   21.1310 C   0  0  0  0  0  0  0  0  0  0  0  0
  -22.3460  -12.9650   22.0020 N   0  0  0  0  0  0  0  0  0  0  0  0
  -22.5770  -14.7440   20.6790 O   0  0  0  0  0  0  0  0  0  0  0  0
  -22.7300  -12.1100   22.3820 H   0  0  0  0  0  0  0  0  0  0  0  0
  -21.4250  -13.2600   22.2930 H   0  0  0  0  0  0  0  0  0  0  0  0
  -25.6200  -15.3760   20.2030 N   0  0  0  0  0  0  0  0  0  0  0  0
  -24.8650  -16.0330   20.3680 H   0  0  0  0  0  0  0  0  0  0  0  0
  -26.4530  -15.8140   19.8290 H   0  0  0  0  0  0  0  0  0  0  0  0
  -28.6450  -24.2540   19.8560 C   0  0  0  0  0  2  0  0  0  0  0  0
  -28.1060  -25.5110   20.6390 C   0  0  0  0  0  2  0  0  0  0  0  0
  -28.2810  -26.8510   20.0820 O   0  0  0  0  0  0  0  0  0  0  0  0
  -24.5610  -32.0200   23.4060 C   0  0  0  0  0  0  0  0  0  0  0  0
  -27.1480  -27.6580   20.1180 C   0  0  0  0  0  0  0  0  0  0  0  0
  -23.3290  -30.6770   21.7370 C   0  0  0  0  0  3  0  0  0  0  0  0
  -24.7610  -29.1950   20.2240 C   0  0  0  0  0  0  0  0  0  0  0  0
  -25.8560  -31.0360   21.5110 C   0  0  0  0  0  2  0  0  0  0  0  0
  -25.9350  -29.6890   20.8120 C   0  0  0  0  0  0  0  0  0  0  0  0
  -27.1330  -28.9310   20.7520 C   0  0  0  0  0  3  0  0  0  0  0  0
  -25.9600  -27.2020   19.5100 C   0  0  0  0  0  3  0  0  0  0  0  0
  -24.7710  -27.9530   19.5680 C   0  0  0  0  0  3  0  0  0  0  0  0
  -23.5170  -30.0510   20.3270 C   0  0  0  0  0  2  0  0  0  0  0  0
  -24.6010  -31.2590   22.2760 N   0  0  0  0  0  0  0  0  0  0  0  0
  -23.4890  -32.2750   23.9750 O   0  0  0  0  0  0  0  0  0  0  0  0
  -22.6920  -29.6210   22.6700 C   0  0  0  0  0  0  0  0  0  0  0  0
  -21.3770  -29.3990   22.5200 N   0  0  0  0  0  0  0  0  0  0  0  0
  -23.3830  -29.0070   23.4890 O   0  0  0  0  0  0  0  0  0  0  0  0
  -20.8760  -29.9480   21.8360 H   0  0  0  0  0  0  0  0  0  0  0  0
  -18.0480  -28.0510   22.9250 C   0  0  0  0  0  0  0  0  0  0  0  0
  -20.5830  -28.4220   23.2640 C   0  0  0  0  0  3  0  0  0  0  0  0
  -20.7660  -27.0000   22.6860 C   0  0  0  0  0  2  0  0  0  0  0  0
  -19.7070  -26.6330   21.6430 C   0  0  0  0  0  2  0  0  0  0  0  0
  -18.3040  -26.7130   22.2510 C   0  0  0  0  0  2  0  0  0  0  0  0
  -19.1210  -28.8600   23.3860 C   0  0  0  0  0  0  0  0  0  0  0  0
  -18.8290  -30.1100   23.9740 C   0  0  0  0  0  3  0  0  0  0  0  0
  -17.4990  -30.5510   24.1080 C   0  0  0  0  0  3  0  0  0  0  0  0
  -16.4430  -29.7410   23.6600 C   0  0  0  0  0  3  0  0  0  0  0  0
  -16.7180  -28.4930   23.0750 C   0  0  0  0  0  3  0  0  0  0  0  0
  -25.8570  -32.6340   24.0210 C   0  0  0  0  0  3  0  0  0  0  0  0
  -26.3700  -31.8490   25.2920 C   0  0  1  0  0  0  0  0  0  0  0  0
  -25.2760  -31.6130   26.3590 C   0  0  0  0  0  1  0  0  0  0  0  0
  -26.9420  -30.4700   24.8910 C   0  0  0  0  0  1  0  0  0  0  0  0
  -27.5260  -32.6300   25.9550 C   0  0  0  0  0  1  0  0  0  0  0  0
  -25.5690  -34.0350   24.3550 N   0  0  0  0  0  0  0  0  0  0  0  0
  -25.9320  -35.0850   23.6040 C   0  0  0  0  0  0  0  0  0  0  0  0
  -26.6120  -34.9720   22.5810 O   0  0  0  0  0  0  0  0  0  0  0  0
  -24.9670  -34.1970   25.1490 H   0  0  0  0  0  0  0  0  0  0  0  0
  -24.2600  -36.9220   23.2150 C   0  0  0  0  0  1  0  0  0  0  0  0
  -25.4640  -36.4790   24.0610 C   0  0  0  0  0  3  0  0  0  0  0  0
  -27.5860  -37.3120   24.9730 C   0  0  0  0  0  1  0  0  0  0  0  0
  -26.5230  -37.5080   23.9890 N   0  0  0  0  0  0  0  0  0  0  0  0
  -26.1340  -38.4360   24.1270 H   0  0  0  0  0  0  0  0  0  0  0  0
  1  2  1  0
  1  3  2  0
  2  4  1  0
  5 12  1  0
  5  1  1  0
  6 11  1  0
  6 12  1  0
  7  9  1  0
  7  8  1  0
 10  8  1  0
 11 22  1  0
 11  9  1  0
 12 10  1  0
 13  6  2  0
 14 22  1  0
 15 20  1  0
 16 17  1  0
 16 15  1  0
 18 17  1  0
 18 27  1  0
 18 19  1  0
 20 14  1  0
 20 19  1  0
 21 14  2  0
 22 23  1  0
 24 25  2  0
 25 44  1  0
 26 25  1  0
 26 29  1  0
 27 28  1  0
 27 24  1  0
 28 26  2  0
 29 30  1  0
 30 31  2  0
 32 35  1  0
 32 31  1  0
 33 32  2  0
 34 33  1  0
 34 29  2  0
 35 36  1  0
 36 41  2  0
 36 37  1  0
 37 38  2  0
 38 39  1  0
 39 43  1  0
 40 39  2  0
 41 40  1  0
 42 41  1  0
 44 45  1  0
 45 48  1  0
 45 47  1  0
 46 44  2  0
 49 24  1  0
 49 50  1  0
 51 49  1  0
 52  2  1  0
 52 53  1  0
 54 56  1  0
 54 53  1  0
 55 66  2  0
 56 61  1  0
 57 65  1  0
 57 67  1  0
 58 64  1  0
 58 60  1  0
 59 65  1  0
 60 59  1  0
 61 60  2  0
 62 63  1  0
 62 56  2  0
 63 58  2  0
 64 57  1  0
 65 55  1  0
 67 69  2  0
 68 67  1  0
 70 68  1  0
 71 80  2  0
 71 76  1  0
 72 68  1  0
 72 76  1  0
 73 72  1  0
 74 75  1  0
 74 73  1  0
 75 71  1  0
 76 77  2  0
 77 78  1  0
 79 78  2  0
 80 79  1  0
 81 55  1  0
 81 86  1  0
 81 82  1  0
 82 85  1  1
 82 83  1  0
 84 82  1  0
 86 89  1  0
 87 91  1  0
 87 86  1  0
 88 87  2  0
 91 90  1  0
 93 91  1  0
 93 94  1  0
 93 92  1  0
M  ISO  4  14 100  22 100  53 101  54 101
M  END
>  <TORSDO>  (57) 
F 20

>  <SCORE>  (57) 
-13.037

>  <name>  (57) 
56

>  <ligand_id>  (57) 
56

>  <original_smiles>  (57) 
[H]c1c([H])c([H])c2c(c1[H])C([H])([H])C([H])([H])C([H])([H])C2([H])N([H])C(=O)C1([H])N(C(=O)C([H])(N([H])C(=O)C([H])(N([H])C([H])([H])[H])C([H])([H])[H])C(C([H])([H])[H])(C([H])([H])[H])C([H])([H])[H])C([H])([H])c2c([H])c(OC([H])([H])C([H])([H])N([H])C(=O)C([H])([H])N3C(=O)C([H])(N([H])C(=O)N4C([H])([H])C([H])([H])C([H])([H])C([H])(n5nc(-c6c([H])c([H])c(Oc7c([H])c([H])c(F)c([H])c7F)c([H])c6[H])c(C(=O)N([H])[H])c5N([H])[H])C4([H])[H])C([H])([H])C([H])([H])C([H])([H])C3([H])[H])c([H])c([H])c2C1([H])[H]

>  <smiles>  (57) 
[H]c1c([H])c([H])c2c(c1[H])C([H])([H])C([H])([H])C([H])([H])C2([H])N([H])C(=O)C1([H])N(C(=O)C([H])(N([H])C(=O)C([H])(N([H])C([H])([H])[H])C([H])([H])[H])C(C([H])([H])[H])(C([H])([H])[H])C([H])([H])[H])C([H])([H])c2c([H])c(OC([H])([H])C([H])([H])N([H])C(=O)C([H])([H])N3C(=O)C([H])(N([H])C(=O)N4C([H])([H])C([H])([H])C([H])([H])C([H])(n5nc(-c6c([H])c([H])c(Oc7c([H])c([H])c(F)c([H])c7F)c([H])c6[H])c(C(=O)N([H])[H])c5N([H])[H])C4([H])[H])C([H])([H])C([H])([H])C([H])([H])C3([H])[H])c([H])c([H])c2C1([H])[H]

$$$$
57:0:0
     RDKit          3D

102111  0  0  1  0  0  0  0  0999 V2000
  -29.4910  -21.8750   20.2890 C   0  0  0  0  0  3  0  0  0  0  0  0
  -30.5590  -21.8960   21.4150 C   0  0  0  0  0  0  0  0  0  0  0  0
  -31.3570  -22.3620   23.6630 C   0  0  0  0  0  2  0  0  0  0  0  0
  -28.8820  -22.7090   23.0660 C   0  0  0  0  0  2  0  0  0  0  0  0
  -30.9880  -22.7760   25.1000 C   0  0  0  0  0  2  0  0  0  0  0  0
  -28.6690  -23.1340   24.5310 C   0  0  0  0  0  2  0  0  0  0  0  0
  -30.2440  -22.2650   22.6870 N   0  0  0  0  0  0  0  0  0  0  0  0
  -29.8760  -23.7320   25.1170 N   0  0  0  0  0  4  0  0  0  0  0  0
  -31.7230  -21.6170   21.1020 O   0  0  0  0  0  0  0  0  0  0  0  0
  -30.1300  -24.5680   24.6160 H   0  0  0  0  0  0  0  0  0  0  0  0
  -29.6830  -23.9950   26.0710 H   0  0  0  0  0  0  0  0  0  0  0  0
  -28.6650  -24.1800   19.7240 C   0  0  0  0  0  0  0  0  0  0  0  0
  -29.5450  -23.1780   19.6140 N   0  0  0  0  0  0  0  0  0  0  0  0
  -27.6790  -24.1100   20.4590 O   0  0  0  0  0  0  0  0  0  0  0  0
  -30.3550  -23.3410   19.0310 H   0  0  0  0  0  0  0  0  0  0  0  0
  -28.9210  -25.4330   18.8670 C   0  0  0  0  0  2  0  0  0  0  0  0
  -28.7600  -26.6280   19.6350 O   0  0  0  0  0  0  0  0  0  0  0  0
  -24.9590  -31.5450   23.0400 C   0  0  0  0  0  0  0  0  0  0  0  0
  -27.5440  -27.2820   19.6780 C   0  0  0  0  0  0  0  0  0  0  0  0
  -23.7120  -30.2170   21.3670 C   0  0  0  0  0  3  0  0  0  0  0  0
  -25.1300  -28.7540   19.8340 C   0  0  0  0  0  0  0  0  0  0  0  0
  -26.2260  -30.6020   21.1150 C   0  0  0  0  0  2  0  0  0  0  0  0
  -26.2980  -29.2620   20.4130 C   0  0  0  0  0  0  0  0  0  0  0  0
  -27.5030  -28.5310   20.3360 C   0  0  0  0  0  3  0  0  0  0  0  0
  -26.3510  -26.7790   19.1070 C   0  0  0  0  0  3  0  0  0  0  0  0
  -25.1500  -27.5070   19.1850 C   0  0  0  0  0  3  0  0  0  0  0  0
  -23.8840  -29.6000   19.9510 C   0  0  0  0  0  2  0  0  0  0  0  0
  -24.9860  -30.8000   21.8990 N   0  0  0  0  0  0  0  0  0  0  0  0
  -23.8950  -31.7850   23.6230 O   0  0  0  0  0  0  0  0  0  0  0  0
  -23.0940  -29.1490   22.2950 C   0  0  0  0  0  0  0  0  0  0  0  0
  -21.7670  -28.9590   22.1870 N   0  0  0  0  0  0  0  0  0  0  0  0
  -23.8010  -28.4930   23.0660 O   0  0  0  0  0  0  0  0  0  0  0  0
  -21.2590  -29.5420   21.5360 H   0  0  0  0  0  0  0  0  0  0  0  0
  -18.4150  -27.7170   22.6990 C   0  0  0  0  0  0  0  0  0  0  0  0
  -20.9760  -27.9820   22.9320 C   0  0  0  0  0  3  0  0  0  0  0  0
  -21.0760  -26.5780   22.2940 C   0  0  0  0  0  2  0  0  0  0  0  0
  -19.9580  -26.2890   21.2880 C   0  0  0  0  0  2  0  0  0  0  0  0
  -18.5870  -26.3970   21.9630 C   0  0  0  0  0  2  0  0  0  0  0  0
  -19.5370  -28.4680   23.1380 C   0  0  0  0  0  0  0  0  0  0  0  0
  -19.3220  -29.7040   23.7860 C   0  0  0  0  0  3  0  0  0  0  0  0
  -18.0170  -30.1900   23.9960 C   0  0  0  0  0  3  0  0  0  0  0  0
  -16.9100  -29.4360   23.5700 C   0  0  0  0  0  3  0  0  0  0  0  0
  -17.1100  -28.2000   22.9290 C   0  0  0  0  0  3  0  0  0  0  0  0
  -26.2630  -32.1490   23.6520 C   0  0  0  0  0  3  0  0  0  0  0  0
  -25.9660  -33.5330   24.0460 N   0  0  0  0  0  0  0  0  0  0  0  0
  -26.2520  -34.6120   23.3050 C   0  0  0  0  0  0  0  0  0  0  0  0
  -26.8670  -34.5480   22.2370 O   0  0  0  0  0  0  0  0  0  0  0  0
  -25.4230  -33.6590   24.8870 H   0  0  0  0  0  0  0  0  0  0  0  0
  -24.4820  -36.3870   23.1160 C   0  0  0  0  0  1  0  0  0  0  0  0
  -25.7790  -35.9790   23.8330 C   0  0  0  0  0  3  0  0  0  0  0  0
  -27.9450  -36.8750   24.5590 C   0  0  0  0  0  1  0  0  0  0  0  0
  -26.7880  -37.0500   23.6850 N   0  0  0  0  0  0  0  0  0  0  0  0
  -26.3780  -37.9590   23.8810 H   0  0  0  0  0  0  0  0  0  0  0  0
  -26.8130  -31.3280   24.8810 C   0  0  1  0  0  0  0  0  0  0  0  0
  -25.7500  -31.0480   25.9680 C   0  0  0  0  0  1  0  0  0  0  0  0
  -27.3830  -29.9680   24.4130 C   0  0  0  0  0  1  0  0  0  0  0  0
  -27.9820  -32.0940   25.5450 C   0  0  0  0  0  1  0  0  0  0  0  0
  -29.8740  -20.8320   19.1990 C   0  0  0  0  0  2  0  0  0  0  0  0
  -29.5070  -18.7420   20.7020 C   0  0  0  0  0  3  0  0  0  0  0  0
  -30.4300  -18.5010   18.4720 C   0  0  0  0  0  3  0  0  0  0  0  0
  -29.5570  -17.3390   20.8670 C   0  0  0  0  0  3  0  0  0  0  0  0
  -30.4760  -17.1060   18.6320 C   0  0  0  0  0  3  0  0  0  0  0  0
  -29.9400  -19.3350   19.4960 C   0  0  0  0  0  0  0  0  0  0  0  0
  -30.0420  -16.5010   19.8360 C   0  0  0  0  0  0  0  0  0  0  0  0
  -30.5630  -14.1130   19.2920 C   0  0  0  0  0  0  0  0  0  0  0  0
  -30.0500  -11.9670   18.2010 C   0  0  0  0  0  2  0  0  0  0  0  0
  -28.8930  -12.1820   17.2020 C   0  0  0  0  0  2  0  0  0  0  0  0
  -27.5260  -12.0600   17.9040 C   0  0  0  0  0  2  0  0  0  0  0  0
  -27.4440  -12.8900   19.2120 C   0  0  0  0  0  3  0  0  0  0  0  0
  -28.6860  -12.6360   20.0960 C   0  0  0  0  0  2  0  0  0  0  0  0
  -29.8850  -12.9360   19.2950 N   0  0  0  0  0  0  0  0  0  0  0  0
  -31.5660  -14.2970   18.5960 O   0  0  0  0  0  0  0  0  0  0  0  0
  -30.0110  -15.0870   20.0420 N   0  0  0  0  0  0  0  0  0  0  0  0
  -29.3190  -14.7600   20.6980 H   0  0  0  0  0  0  0  0  0  0  0  0
  -25.2580  -13.5190   20.4210 C   0  0  0  0  0  0  0  0  0  0  0  0
  -24.2560  -12.7530   20.9530 C   0  0  0  0  0  0  0  0  0  0  0  0
  -24.6470  -11.3950   20.7490 C   0  0  0  0  0  0  0  0  0  0  0  0
  -26.2010  -12.6260   19.9350 N   0  0  0  0  0  0  0  0  0  0  0  0
  -25.8460  -11.3400   20.1840 N   0  0  0  0  0  0  0  0  0  0  0  0
  -23.9230  -10.1420   21.0070 C   0  0  0  0  0  0  0  0  0  0  0  0
  -24.4330   -9.1630   21.8860 C   0  0  0  0  0  3  0  0  0  0  0  0
  -23.7110   -7.9740   22.1300 C   0  0  0  0  0  3  0  0  0  0  0  0
  -22.4630   -7.7590   21.4980 C   0  0  0  0  0  0  0  0  0  0  0  0
  -21.9710   -8.7280   20.6060 C   0  0  0  0  0  3  0  0  0  0  0  0
  -22.6930   -9.9070   20.3580 C   0  0  0  0  0  3  0  0  0  0  0  0
  -21.7040   -6.6260   21.6560 O   0  0  0  0  0  0  0  0  0  0  0  0
  -21.6820   -5.9330   22.8400 C   0  0  0  0  0  0  0  0  0  0  0  0
  -21.2430   -6.5280   24.0440 C   0  0  0  0  0  3  0  0  0  0  0  0
  -21.1710   -5.7600   25.2230 C   0  0  0  0  0  3  0  0  0  0  0  0
  -21.5280   -4.3980   25.2000 C   0  0  0  0  0  0  0  0  0  0  0  0
  -21.9610   -3.8030   24.0020 C   0  0  0  0  0  3  0  0  0  0  0  0
  -22.0340   -4.5690   22.8240 C   0  0  0  0  0  0  0  0  0  0  0  0
  -22.4310   -3.9850   21.6680 F   0  0  0  0  0  0  0  0  0  0  0  0
  -21.4530   -3.6580   26.3310 F   0  0  0  0  0  0  0  0  0  0  0  0
  -22.9610  -13.2490   21.5300 C   0  0  0  0  0  0  0  0  0  0  0  0
  -22.4010  -12.5240   22.4920 N   0  0  0  0  0  0  0  0  0  0  0  0
  -22.4630  -14.3130   21.1640 O   0  0  0  0  0  0  0  0  0  0  0  0
  -22.8200  -11.6620   22.8090 H   0  0  0  0  0  0  0  0  0  0  0  0
  -21.5390  -12.8350   22.9190 H   0  0  0  0  0  0  0  0  0  0  0  0
  -25.4420  -14.8940   20.2960 N   0  0  0  0  0  0  0  0  0  0  0  0
  -24.7420  -15.5620   20.6000 H   0  0  0  0  0  0  0  0  0  0  0  0
  -26.2270  -15.3270   19.8280 H   0  0  0  0  0  0  0  0  0  0  0  0
  1 58  1  0
  1  2  1  0
  2  7  1  0
  3  5  1  0
  4  6  1  0
  5  8  1  0
  6  8  1  0
  7  4  1  0
  7  3  1  0
  8 11  1  0
  9  2  2  0
 10  8  1  0
 12 14  2  0
 13 12  1  0
 13  1  1  0
 15 13  1  0
 16 17  1  0
 16 12  1  0
 17 19  1  0
 18 29  2  0
 19 24  1  0
 20 28  1  0
 20 30  1  0
 21 27  1  0
 21 23  1  0
 22 28  1  0
 23 22  1  0
 24 23  2  0
 25 26  1  0
 25 19  2  0
 26 21  2  0
 27 20  1  0
 28 18  1  0
 30 32  2  0
 31 30  1  0
 33 31  1  0
 34 43  2  0
 34 39  1  0
 35 31  1  0
 35 39  1  0
 36 35  1  0
 37 38  1  0
 37 36  1  0
 38 34  1  0
 39 40  2  0
 40 41  1  0
 42 41  2  0
 43 42  1  0
 44 18  1  0
 44 45  1  0
 44 54  1  0
 45 48  1  0
 46 50  1  0
 46 45  1  0
 47 46  2  0
 50 49  1  0
 52 50  1  0
 52 53  1  0
 52 51  1  0
 54 57  1  1
 54 55  1  0
 56 54  1  0
 58 63  1  0
 59 61  1  0
 60 62  2  0
 60 63  1  0
 62 64  1  0
 63 59  2  0
 64 73  1  0
 64 61  2  0
 65 71  1  0
 65 73  1  0
 66 71  1  0
 67 68  1  0
 67 66  1  0
 69 68  1  0
 69 78  1  0
 69 70  1  0
 71 70  1  0
 72 65  2  0
 73 74  1  0
 75 76  2  0
 76 95  1  0
 77 76  1  0
 77 80  1  0
 78 79  1  0
 78 75  1  0
 79 77  2  0
 80 81  1  0
 81 82  2  0
 83 86  1  0
 83 82  1  0
 84 83  2  0
 85 84  1  0
 85 80  2  0
 86 87  1  0
 87 88  1  0
 88 89  2  0
 90 89  1  0
 90 94  1  0
 91 90  2  0
 92 87  2  0
 92 91  1  0
 93 92  1  0
 95 96  1  0
 96 98  1  0
 96 99  1  0
 97 95  2  0
100 75  1  0
100101  1  0
102100  1  0
M  ISO  4  16 101  17 101  65 100  73 100
M  END
>  <TORSDO>  (58) 
F 21

>  <SCORE>  (58) 
-6.647

>  <name>  (58) 
57

>  <ligand_id>  (58) 
57

>  <original_smiles>  (58) 
[H]c1c([H])c([H])c2c(c1[H])C([H])([H])C([H])([H])C([H])([H])C2([H])N([H])C(=O)C1([H])N(C(=O)C([H])(N([H])C(=O)C([H])(N([H])C([H])([H])[H])C([H])([H])[H])C(C([H])([H])[H])(C([H])([H])[H])C([H])([H])[H])C([H])([H])c2c([H])c(OC([H])([H])C(=O)N([H])C([H])(C(=O)N3C([H])([H])C([H])([H])[N+]([H])([H])C([H])([H])C3([H])[H])C([H])([H])c3c([H])c([H])c(N([H])C(=O)N4C([H])([H])C([H])([H])C([H])([H])C([H])(n5nc(-c6c([H])c([H])c(Oc7c([H])c([H])c(F)c([H])c7F)c([H])c6[H])c(C(=O)N([H])[H])c5N([H])[H])C4([H])[H])c([H])c3[H])c([H])c([H])c2C1([H])[H]

>  <smiles>  (58) 
[H]c1c([H])c([H])c2c(c1[H])C([H])([H])C([H])([H])C([H])([H])C2([H])N([H])C(=O)C1([H])N(C(=O)C([H])(N([H])C(=O)C([H])(N([H])C([H])([H])[H])C([H])([H])[H])C(C([H])([H])[H])(C([H])([H])[H])C([H])([H])[H])C([H])([H])c2c([H])c(OC([H])([H])C(=O)N([H])C([H])(C(=O)N3C([H])([H])C([H])([H])[N+]([H])([H])C([H])([H])C3([H])[H])C([H])([H])c3c([H])c([H])c(N([H])C(=O)N4C([H])([H])C([H])([H])C([H])([H])C([H])(n5nc(-c6c([H])c([H])c(Oc7c([H])c([H])c(F)c([H])c7F)c([H])c6[H])c(C(=O)N([H])[H])c5N([H])[H])C4([H])[H])c([H])c3[H])c([H])c([H])c2C1([H])[H]

$$$$
58:0:0
     RDKit          3D

 83 90  0  0  1  0  0  0  0  0999 V2000
  -27.9490  -23.9120   20.2000 C   0  0  0  0  0  3  0  0  0  0  0  0
  -28.1500  -25.6420   20.2980 O   0  0  0  0  0  0  0  0  0  0  0  0
  -24.6720  -31.8880   23.2420 C   0  0  0  0  0  0  0  0  0  0  0  0
  -27.1710  -26.8340   20.2470 C   0  0  0  0  0  0  0  0  0  0  0  0
  -23.4710  -30.4970   21.6080 C   0  0  0  0  0  3  0  0  0  0  0  0
  -24.9060  -28.8480   20.1930 C   0  0  0  0  0  0  0  0  0  0  0  0
  -26.0490  -30.6390   21.4750 C   0  0  0  0  0  2  0  0  0  0  0  0
  -26.1040  -29.2100   20.8200 C   0  0  0  0  0  0  0  0  0  0  0  0
  -27.2230  -28.2300   20.8150 C   0  0  0  0  0  3  0  0  0  0  0  0
  -25.9390  -26.6690   19.5680 C   0  0  0  0  0  3  0  0  0  0  0  0
  -24.8600  -27.6020   19.5430 C   0  0  0  0  0  3  0  0  0  0  0  0
  -23.7020  -29.8000   20.2370 C   0  0  0  0  0  2  0  0  0  0  0  0
  -24.7550  -31.0400   22.1610 N   0  0  0  0  0  0  0  0  0  0  0  0
  -23.5830  -32.1920   23.7560 O   0  0  0  0  0  0  0  0  0  0  0  0
  -22.7560  -29.5220   22.5800 C   0  0  0  0  0  0  0  0  0  0  0  0
  -21.4230  -29.3690   22.4550 N   0  0  0  0  0  0  0  0  0  0  0  0
  -23.4110  -28.8980   23.4200 O   0  0  0  0  0  0  0  0  0  0  0  0
  -20.9460  -29.9220   21.7570 H   0  0  0  0  0  0  0  0  0  0  0  0
  -18.0330  -28.1690   22.9680 C   0  0  0  0  0  0  0  0  0  0  0  0
  -20.5930  -28.4390   23.2300 C   0  0  0  0  0  3  0  0  0  0  0  0
  -20.6940  -27.0020   22.6640 C   0  0  0  0  0  2  0  0  0  0  0  0
  -19.5940  -26.6750   21.6500 C   0  0  0  0  0  2  0  0  0  0  0  0
  -18.2110  -26.8200   22.2910 C   0  0  0  0  0  2  0  0  0  0  0  0
  -19.1500  -28.9350   23.3940 C   0  0  0  0  0  0  0  0  0  0  0  0
  -18.9270  -30.1950   23.9910 C   0  0  0  0  0  3  0  0  0  0  0  0
  -17.6200  -30.6890   24.1620 C   0  0  0  0  0  3  0  0  0  0  0  0
  -16.5170  -29.9210   23.7490 C   0  0  0  0  0  3  0  0  0  0  0  0
  -16.7250  -28.6620   23.1580 C   0  0  0  0  0  3  0  0  0  0  0  0
  -25.9420  -32.5310   23.8780 C   0  0  0  0  0  3  0  0  0  0  0  0
  -26.4400  -31.7670   25.1680 C   0  0  1  0  0  0  0  0  0  0  0  0
  -25.3350  -31.5460   26.2290 C   0  0  0  0  0  1  0  0  0  0  0  0
  -27.0170  -30.3800   24.8050 C   0  0  0  0  0  1  0  0  0  0  0  0
  -27.5910  -32.5580   25.8350 C   0  0  0  0  0  1  0  0  0  0  0  0
  -25.6270  -33.9320   24.2180 N   0  0  0  0  0  0  0  0  0  0  0  0
  -25.9330  -34.9970   23.4640 C   0  0  0  0  0  0  0  0  0  0  0  0
  -26.5690  -34.9020   22.4100 O   0  0  0  0  0  0  0  0  0  0  0  0
  -25.0570  -34.0770   25.0370 H   0  0  0  0  0  0  0  0  0  0  0  0
  -24.1800  -36.7890   23.2110 C   0  0  0  0  0  1  0  0  0  0  0  0
  -25.4650  -36.3850   23.9520 C   0  0  0  0  0  3  0  0  0  0  0  0
  -27.6320  -37.2910   24.6730 C   0  0  0  0  0  1  0  0  0  0  0  0
  -26.4840  -37.4450   23.7830 N   0  0  0  0  0  0  0  0  0  0  0  0
  -26.0790  -38.3630   23.9460 H   0  0  0  0  0  0  0  0  0  0  0  0
  -28.9470  -22.2690   20.2790 C   0  0  0  0  0  3  0  0  0  0  0  0
  -28.7110  -20.3580   20.2370 C   0  0  0  0  0  3  0  0  0  0  0  0
  -29.7530  -18.7430   20.2450 C   0  0  0  0  0  3  0  0  0  0  0  0
  -30.2820  -15.6460   20.1480 C   0  0  0  0  0  0  0  0  0  0  0  0
  -30.3500  -13.1330   19.2860 C   0  0  0  0  0  2  0  0  0  0  0  0
  -29.4300  -12.7740   18.0850 C   0  0  0  0  0  2  0  0  0  0  0  0
  -28.0130  -12.4240   18.5630 C   0  0  0  0  0  2  0  0  0  0  0  0
  -27.5300  -13.4030   19.6600 C   0  0  0  0  0  3  0  0  0  0  0  0
  -28.5860  -13.6800   20.7550 C   0  0  0  0  0  2  0  0  0  0  0  0
  -29.7510  -14.2930   20.0790 N   0  0  0  0  0  0  0  0  0  0  0  0
  -31.5110  -15.5990   19.9480 O   0  0  0  0  0  0  0  0  0  0  0  0
  -29.5270  -16.9940   20.2480 N   0  0  0  0  0  0  0  0  0  0  0  0
  -28.5450  -16.7820   20.3500 H   0  0  0  0  0  0  0  0  0  0  0  0
  -25.1770  -13.9060   20.4730 C   0  0  0  0  0  0  0  0  0  0  0  0
  -24.1340  -13.1120   20.8550 C   0  0  0  0  0  0  0  0  0  0  0  0
  -24.6200  -11.7680   20.8040 C   0  0  0  0  0  0  0  0  0  0  0  0
  -26.2270  -13.0500   20.2020 N   0  0  0  0  0  0  0  0  0  0  0  0
  -25.9070  -11.7560   20.4690 N   0  0  0  0  0  0  0  0  0  0  0  0
  -23.9110  -10.4960   20.9970 C   0  0  0  0  0  0  0  0  0  0  0  0
  -24.3510   -9.5380   21.9370 C   0  0  0  0  0  3  0  0  0  0  0  0
  -23.6360   -8.3340   22.1190 C   0  0  0  0  0  3  0  0  0  0  0  0
  -22.4690   -8.0770   21.3610 C   0  0  0  0  0  0  0  0  0  0  0  0
  -22.0480   -9.0240   20.4100 C   0  0  0  0  0  3  0  0  0  0  0  0
  -22.7630  -10.2200   20.2260 C   0  0  0  0  0  3  0  0  0  0  0  0
  -21.7270   -6.9240   21.4530 O   0  0  0  0  0  0  0  0  0  0  0  0
  -21.6590   -6.2030   22.6170 C   0  0  0  0  0  0  0  0  0  0  0  0
  -21.1670   -6.7650   23.8150 C   0  0  0  0  0  3  0  0  0  0  0  0
  -21.0490   -5.9670   24.9700 C   0  0  0  0  0  3  0  0  0  0  0  0
  -21.4130   -4.6090   24.9290 C   0  0  0  0  0  0  0  0  0  0  0  0
  -21.8990   -4.0450   23.7360 C   0  0  0  0  0  3  0  0  0  0  0  0
  -22.0180   -4.8400   22.5820 C   0  0  0  0  0  0  0  0  0  0  0  0
  -22.4660   -4.2870   21.4300 F   0  0  0  0  0  0  0  0  0  0  0  0
  -21.2940   -3.8400   26.0380 F   0  0  0  0  0  0  0  0  0  0  0  0
  -22.7360  -13.5700   21.1460 C   0  0  0  0  0  0  0  0  0  0  0  0
  -22.0320  -12.8660   22.0240 N   0  0  0  0  0  0  0  0  0  0  0  0
  -22.2780  -14.5880   20.6300 O   0  0  0  0  0  0  0  0  0  0  0  0
  -22.4170  -12.0420   22.4630 H   0  0  0  0  0  0  0  0  0  0  0  0
  -21.0930  -13.1550   22.2630 H   0  0  0  0  0  0  0  0  0  0  0  0
  -25.3150  -15.2810   20.3020 N   0  0  0  0  0  0  0  0  0  0  0  0
  -24.5370  -15.9190   20.4270 H   0  0  0  0  0  0  0  0  0  0  0  0
  -26.1390  -15.7310   19.9280 H   0  0  0  0  0  0  0  0  0  0  0  0
  1 43  2  0
  1  2  1  0
  3 14  2  0
  4  2  1  0
  4  9  1  0
  5 13  1  0
  5 15  1  0
  6 12  1  0
  6  8  1  0
  7 13  1  0
  8  7  1  0
  9  8  2  0
 10  4  2  0
 11 10  1  0
 11  6  2  0
 12  5  1  0
 13  3  1  0
 15 17  2  0
 16 15  1  0
 18 16  1  0
 19 28  2  0
 19 24  1  0
 20 16  1  0
 20 24  1  0
 21 20  1  0
 22 23  1  0
 22 21  1  0
 23 19  1  0
 24 25  2  0
 25 26  1  0
 27 26  2  0
 28 27  1  0
 29  3  1  0
 29 34  1  0
 29 30  1  0
 30 33  1  1
 30 31  1  0
 32 30  1  0
 34 37  1  0
 35 39  1  0
 35 34  1  0
 36 35  2  0
 39 38  1  0
 41 42  1  0
 41 39  1  0
 41 40  1  0
 44 45  2  0
 44 43  1  0
 45 54  1  0
 46 54  1  0
 47 52  1  0
 48 49  1  0
 48 47  1  0
 50 49  1  0
 50 59  1  0
 50 51  1  0
 52 46  1  0
 52 51  1  0
 53 46  2  0
 54 55  1  0
 56 57  2  0
 57 76  1  0
 58 57  1  0
 58 61  1  0
 59 60  1  0
 59 56  1  0
 60 58  2  0
 61 62  1  0
 62 63  2  0
 64 67  1  0
 64 63  1  0
 65 64  2  0
 66 65  1  0
 66 61  2  0
 67 68  1  0
 68 69  1  0
 69 70  2  0
 71 70  1  0
 71 75  1  0
 72 71  2  0
 73 68  2  0
 73 72  1  0
 74 73  1  0
 76 77  1  0
 77 80  1  0
 77 79  1  0
 78 76  2  0
 81 82  1  0
 81 56  1  0
 83 81  1  0
M  ISO  4   1 101   2 101  46 100  54 100
M  END
>  <TORSDO>  (59) 
F 19

>  <SCORE>  (59) 
-16.287

>  <name>  (59) 
58

>  <ligand_id>  (59) 
58

>  <original_smiles>  (59) 
[H]c1c([H])c([H])c2c(c1[H])C([H])([H])C([H])([H])C([H])([H])C2([H])N([H])C(=O)C1([H])N(C(=O)C([H])(N([H])C(=O)C([H])(N([H])C([H])([H])[H])C([H])([H])[H])C(C([H])([H])[H])(C([H])([H])[H])C([H])([H])[H])C([H])([H])c2c([H])c(OC([H])([H])C([H])([H])C([H])([H])C([H])([H])N([H])C(=O)N3C([H])([H])C([H])([H])C([H])([H])C([H])(n4nc(-c5c([H])c([H])c(Oc6c([H])c([H])c(F)c([H])c6F)c([H])c5[H])c(C(=O)N([H])[H])c4N([H])[H])C3([H])[H])c([H])c([H])c2C1([H])[H]

>  <smiles>  (59) 
[H]c1c([H])c([H])c2c(c1[H])C([H])([H])C([H])([H])C([H])([H])C2([H])N([H])C(=O)C1([H])N(C(=O)C([H])(N([H])C(=O)C([H])(N([H])C([H])([H])[H])C([H])([H])[H])C(C([H])([H])[H])(C([H])([H])[H])C([H])([H])[H])C([H])([H])c2c([H])c(OC([H])([H])C([H])([H])C([H])([H])C([H])([H])N([H])C(=O)N3C([H])([H])C([H])([H])C([H])([H])C([H])(n4nc(-c5c([H])c([H])c(Oc6c([H])c([H])c(F)c([H])c6F)c([H])c5[H])c(C(=O)N([H])[H])c4N([H])[H])C3([H])[H])c([H])c([H])c2C1([H])[H]

$$$$
59:0:0
     RDKit          3D

 96104  0  0  1  0  0  0  0  0999 V2000
  -27.3990  -21.5280   19.3470 C   0  0  0  0  0  0  0  0  0  0  0  0
  -28.0580  -20.9410   20.3540 N   0  0  0  0  0  0  0  0  0  0  0  0
  -26.1730  -21.6360   19.3870 O   0  0  0  0  0  0  0  0  0  0  0  0
  -27.4860  -20.5920   21.1090 H   0  0  0  0  0  0  0  0  0  0  0  0
  -29.4960  -20.7890   20.5460 C   0  0  0  0  0  2  0  0  0  0  0  0
  -29.8570  -18.6500   21.8300 C   0  0  0  0  0  3  0  0  0  0  0  0
  -30.2080  -18.6150   19.4190 C   0  0  0  0  0  3  0  0  0  0  0  0
  -30.1450  -17.2760   21.8950 C   0  0  0  0  0  3  0  0  0  0  0  0
  -30.4920  -17.2330   19.4820 C   0  0  0  0  0  3  0  0  0  0  0  0
  -29.8810  -19.3230   20.5950 C   0  0  0  0  0  0  0  0  0  0  0  0
  -30.4560  -16.5540   20.7260 C   0  0  0  0  0  0  0  0  0  0  0  0
  -31.1130  -14.2790   19.9730 C   0  0  0  0  0  0  0  0  0  0  0  0
  -30.6900  -12.1240   18.8490 C   0  0  0  0  0  2  0  0  0  0  0  0
  -29.7060  -12.3500   17.6850 C   0  0  0  0  0  2  0  0  0  0  0  0
  -28.2480  -12.2650   18.1770 C   0  0  0  0  0  2  0  0  0  0  0  0
  -27.9940  -13.1370   19.4360 C   0  0  0  0  0  3  0  0  0  0  0  0
  -29.0820  -12.8830   20.5020 C   0  0  0  0  0  2  0  0  0  0  0  0
  -30.4060  -13.1210   19.8920 N   0  0  0  0  0  0  0  0  0  0  0  0
  -32.1270  -14.5060   19.3070 O   0  0  0  0  0  0  0  0  0  0  0  0
  -30.6430  -15.1530   20.8740 N   0  0  0  0  0  0  0  0  0  0  0  0
  -30.0620  -14.7310   21.5830 H   0  0  0  0  0  0  0  0  0  0  0  0
  -25.6570  -13.8490   20.2550 C   0  0  0  0  0  0  0  0  0  0  0  0
  -24.5720  -13.1210   20.6710 C   0  0  0  0  0  0  0  0  0  0  0  0
  -24.9700  -11.7510   20.6080 C   0  0  0  0  0  0  0  0  0  0  0  0
  -26.6510  -12.9240   19.9730 N   0  0  0  0  0  0  0  0  0  0  0  0
  -26.2400  -11.6580   20.2380 N   0  0  0  0  0  0  0  0  0  0  0  0
  -24.1990  -10.5200   20.8250 C   0  0  0  0  0  0  0  0  0  0  0  0
  -24.5820   -9.5710   21.8000 C   0  0  0  0  0  3  0  0  0  0  0  0
  -23.8140   -8.4040   22.0050 C   0  0  0  0  0  3  0  0  0  0  0  0
  -22.6490   -8.1780   21.2340 C   0  0  0  0  0  0  0  0  0  0  0  0
  -22.2840   -9.1140   20.2520 C   0  0  0  0  0  3  0  0  0  0  0  0
  -23.0510  -10.2730   20.0460 C   0  0  0  0  0  3  0  0  0  0  0  0
  -21.8570   -7.0610   21.3460 O   0  0  0  0  0  0  0  0  0  0  0  0
  -21.7010   -6.4050   22.5400 C   0  0  0  0  0  0  0  0  0  0  0  0
  -21.2040   -7.0580   23.6900 C   0  0  0  0  0  3  0  0  0  0  0  0
  -20.9940   -6.3290   24.8770 C   0  0  0  0  0  3  0  0  0  0  0  0
  -21.2660   -4.9490   24.9160 C   0  0  0  0  0  0  0  0  0  0  0  0
  -21.7570   -4.2960   23.7710 C   0  0  0  0  0  3  0  0  0  0  0  0
  -21.9690   -5.0210   22.5850 C   0  0  0  0  0  0  0  0  0  0  0  0
  -22.4210   -4.3830   21.4790 F   0  0  0  0  0  0  0  0  0  0  0  0
  -21.0570   -4.2480   26.0540 F   0  0  0  0  0  0  0  0  0  0  0  0
  -23.2120  -13.6560   21.0130 C   0  0  0  0  0  0  0  0  0  0  0  0
  -22.5060  -12.9970   21.9250 N   0  0  0  0  0  0  0  0  0  0  0  0
  -22.7860  -14.6960   20.5090 O   0  0  0  0  0  0  0  0  0  0  0  0
  -22.8640  -12.1550   22.3530 H   0  0  0  0  0  0  0  0  0  0  0  0
  -21.5960  -13.3380   22.2000 H   0  0  0  0  0  0  0  0  0  0  0  0
  -25.8740  -15.2110   20.0790 N   0  0  0  0  0  0  0  0  0  0  0  0
  -25.1450  -15.9010   20.2270 H   0  0  0  0  0  0  0  0  0  0  0  0
  -26.7430  -15.6140   19.7450 H   0  0  0  0  0  0  0  0  0  0  0  0
  -28.1610  -22.0730   18.1270 C   0  0  0  0  0  2  0  0  0  0  0  0
  -28.4160  -24.4380   18.9910 C   0  0  0  0  0  0  0  0  0  0  0  0
  -28.1840  -23.5370   18.0250 N   0  0  0  0  0  0  0  0  0  0  0  0
  -28.5810  -24.1350   20.1750 O   0  0  0  0  0  0  0  0  0  0  0  0
  -28.0650  -23.9100   17.0930 H   0  0  0  0  0  0  0  0  0  0  0  0
  -28.5190  -25.9020   18.5300 C   0  0  0  0  0  2  0  0  0  0  0  0
  -28.3180  -26.8230   19.6100 O   0  0  0  0  0  0  0  0  0  0  0  0
  -24.5310  -31.7430   23.0900 C   0  0  0  0  0  0  0  0  0  0  0  0
  -27.1150  -27.4920   19.6960 C   0  0  0  0  0  0  0  0  0  0  0  0
  -23.2830  -30.4090   21.4240 C   0  0  0  0  0  3  0  0  0  0  0  0
  -24.7020  -28.9560   19.8810 C   0  0  0  0  0  0  0  0  0  0  0  0
  -25.7960  -30.8060   21.1560 C   0  0  0  0  0  2  0  0  0  0  0  0
  -25.8720  -29.4630   20.4560 C   0  0  0  0  0  0  0  0  0  0  0  0
  -27.0760  -28.7300   20.3770 C   0  0  0  0  0  3  0  0  0  0  0  0
  -25.9190  -26.9870   19.1330 C   0  0  0  0  0  3  0  0  0  0  0  0
  -24.7160  -27.7130   19.2240 C   0  0  0  0  0  3  0  0  0  0  0  0
  -23.4510  -29.7960   20.0090 C   0  0  0  0  0  2  0  0  0  0  0  0
  -24.5590  -30.9980   21.9500 N   0  0  0  0  0  0  0  0  0  0  0  0
  -23.4670  -31.9780   23.6800 O   0  0  0  0  0  0  0  0  0  0  0  0
  -22.6780  -29.3360   22.3540 C   0  0  0  0  0  0  0  0  0  0  0  0
  -21.3540  -29.1320   22.2480 N   0  0  0  0  0  0  0  0  0  0  0  0
  -23.3930  -28.6890   23.1240 O   0  0  0  0  0  0  0  0  0  0  0  0
  -20.8360  -29.7170   21.6060 H   0  0  0  0  0  0  0  0  0  0  0  0
  -18.0280  -27.8040   22.7230 C   0  0  0  0  0  0  0  0  0  0  0  0
  -20.5780  -28.1370   22.9850 C   0  0  0  0  0  3  0  0  0  0  0  0
  -20.7290  -26.7340   22.3520 C   0  0  0  0  0  2  0  0  0  0  0  0
  -19.6190  -26.3890   21.3520 C   0  0  0  0  0  2  0  0  0  0  0  0
  -18.2410  -26.4730   22.0190 C   0  0  0  0  0  2  0  0  0  0  0  0
  -19.1250  -28.5900   23.1660 C   0  0  0  0  0  0  0  0  0  0  0  0
  -18.8710  -29.8320   23.7860 C   0  0  0  0  0  3  0  0  0  0  0  0
  -17.5530  -30.2900   23.9700 C   0  0  0  0  0  3  0  0  0  0  0  0
  -16.4700  -29.5000   23.5440 C   0  0  0  0  0  3  0  0  0  0  0  0
  -16.7100  -28.2620   22.9240 C   0  0  0  0  0  3  0  0  0  0  0  0
  -25.8320  -32.3610   23.6950 C   0  0  0  0  0  3  0  0  0  0  0  0
  -25.5200  -33.7350   24.1100 N   0  0  0  0  0  0  0  0  0  0  0  0
  -25.8120  -34.8280   23.3930 C   0  0  0  0  0  0  0  0  0  0  0  0
  -26.4460  -34.7860   22.3350 O   0  0  0  0  0  0  0  0  0  0  0  0
  -24.9480  -33.8400   24.9350 H   0  0  0  0  0  0  0  0  0  0  0  0
  -24.0460  -36.6050   23.1910 C   0  0  0  0  0  1  0  0  0  0  0  0
  -25.3220  -36.1840   23.9350 C   0  0  0  0  0  3  0  0  0  0  0  0
  -27.4740  -37.0570   24.7290 C   0  0  0  0  0  1  0  0  0  0  0  0
  -26.3350  -37.2560   23.8370 N   0  0  0  0  0  0  0  0  0  0  0  0
  -25.9230  -38.1610   24.0490 H   0  0  0  0  0  0  0  0  0  0  0  0
  -26.4070  -31.5270   24.9050 C   0  0  1  0  0  0  0  0  0  0  0  0
  -25.3600  -31.2150   25.9990 C   0  0  0  0  0  1  0  0  0  0  0  0
  -26.9850  -30.1820   24.4070 C   0  0  0  0  0  1  0  0  0  0  0  0
  -27.5800  -32.2950   25.5600 C   0  0  0  0  0  1  0  0  0  0  0  0
  1  3  2  0
  1  2  1  0
  2  5  1  0
  2  4  1  0
  5 10  1  0
  6  8  1  0
  7  9  2  0
  7 10  1  0
  9 11  1  0
 10  6  2  0
 11 20  1  0
 11  8  2  0
 12 20  1  0
 13 18  1  0
 14 15  1  0
 14 13  1  0
 16 15  1  0
 16 25  1  0
 16 17  1  0
 18 12  1  0
 18 17  1  0
 19 12  2  0
 20 21  1  0
 22 23  2  0
 23 42  1  0
 24 23  1  0
 24 27  1  0
 25 26  1  0
 25 22  1  0
 26 24  2  0
 27 28  1  0
 28 29  2  0
 30 33  1  0
 30 29  1  0
 31 30  2  0
 32 31  1  0
 32 27  2  0
 33 34  1  0
 34 39  2  0
 34 35  1  0
 35 36  2  0
 36 37  1  0
 37 41  1  0
 38 37  2  0
 39 38  1  0
 40 39  1  0
 42 43  1  0
 43 46  1  0
 43 45  1  0
 44 42  2  0
 47 48  1  0
 47 22  1  0
 49 47  1  0
 50  1  1  0
 51 53  2  0
 52 50  1  0
 52 51  1  0
 54 52  1  0
 55 51  1  0
 55 56  1  0
 56 58  1  0
 57 68  2  0
 58 63  1  0
 59 67  1  0
 59 69  1  0
 60 66  1  0
 60 62  1  0
 61 67  1  0
 62 61  1  0
 63 62  2  0
 64 65  1  0
 64 58  2  0
 65 60  2  0
 66 59  1  0
 67 57  1  0
 69 71  2  0
 70 69  1  0
 72 70  1  0
 73 82  2  0
 73 78  1  0
 74 70  1  0
 74 78  1  0
 75 74  1  0
 76 77  1  0
 76 75  1  0
 77 73  1  0
 78 79  2  0
 79 80  1  0
 81 80  2  0
 82 81  1  0
 83 57  1  0
 83 84  1  0
 83 93  1  0
 84 87  1  0
 85 89  1  0
 85 84  1  0
 86 85  2  0
 89 88  1  0
 91 89  1  0
 91 92  1  0
 91 90  1  0
 93 96  1  1
 93 94  1  0
 95 93  1  0
M  ISO  4  12 100  20 100  55 101  56 101
M  END
>  <TORSDO>  (60) 
F 21

>  <SCORE>  (60) 
-12.550

>  <name>  (60) 
59

>  <ligand_id>  (60) 
59

>  <original_smiles>  (60) 
[H]c1c([H])c([H])c2c(c1[H])C([H])([H])C([H])([H])C([H])([H])C2([H])N([H])C(=O)C1([H])N(C(=O)C([H])(N([H])C(=O)C([H])(N([H])C([H])([H])[H])C([H])([H])[H])C(C([H])([H])[H])(C([H])([H])[H])C([H])([H])[H])C([H])([H])c2c([H])c(OC([H])([H])C(=O)N([H])C([H])([H])C(=O)N([H])C([H])([H])c3c([H])c([H])c(N([H])C(=O)N4C([H])([H])C([H])([H])C([H])([H])C([H])(n5nc(-c6c([H])c([H])c(Oc7c([H])c([H])c(F)c([H])c7F)c([H])c6[H])c(C(=O)N([H])[H])c5N([H])[H])C4([H])[H])c([H])c3[H])c([H])c([H])c2C1([H])[H]

>  <smiles>  (60) 
[H]c1c([H])c([H])c2c(c1[H])C([H])([H])C([H])([H])C([H])([H])C2([H])N([H])C(=O)C1([H])N(C(=O)C([H])(N([H])C(=O)C([H])(N([H])C([H])([H])[H])C([H])([H])[H])C(C([H])([H])[H])(C([H])([H])[H])C([H])([H])[H])C([H])([H])c2c([H])c(OC([H])([H])C(=O)N([H])C([H])([H])C(=O)N([H])C([H])([H])c3c([H])c([H])c(N([H])C(=O)N4C([H])([H])C([H])([H])C([H])([H])C([H])(n5nc(-c6c([H])c([H])c(Oc7c([H])c([H])c(F)c([H])c7F)c([H])c6[H])c(C(=O)N([H])[H])c5N([H])[H])C4([H])[H])c([H])c3[H])c([H])c([H])c2C1([H])[H]

$$$$
60:0:0
     RDKit          3D

 81 85  0  0  1  0  0  0  0  0999 V2000
  -28.1090  -24.6470   20.3000 O   0  0  0  0  0  1  0  0  0  0  0  0
  -24.7100  -31.7810   23.1610 C   0  0  0  0  0  0  0  0  0  0  0  0
  -27.2070  -26.1440   20.2640 C   0  0  0  0  0  0  0  0  0  0  0  0
  -23.5560  -30.3680   21.5220 C   0  0  0  0  0  3  0  0  0  0  0  0
  -25.0090  -28.5810   20.1690 C   0  0  0  0  0  0  0  0  0  0  0  0
  -26.1560  -30.3130   21.5020 C   0  0  0  0  0  2  0  0  0  0  0  0
  -26.2110  -28.8120   20.8490 C   0  0  0  0  0  0  0  0  0  0  0  0
  -27.2590  -27.6460   20.8460 C   0  0  0  0  0  3  0  0  0  0  0  0
  -25.9680  -26.2870   19.5230 C   0  0  0  0  0  3  0  0  0  0  0  0
  -24.9660  -27.3480   19.4800 C   0  0  0  0  0  3  0  0  0  0  0  0
  -23.8360  -29.6140   20.1780 C   0  0  0  0  0  2  0  0  0  0  0  0
  -24.8390  -30.8700   22.1140 N   0  0  0  0  0  0  0  0  0  0  0  0
  -23.6010  -32.1150   23.6230 O   0  0  0  0  0  0  0  0  0  0  0  0
  -22.7620  -29.4580   22.5040 C   0  0  0  0  0  0  0  0  0  0  0  0
  -21.4220  -29.3560   22.3730 N   0  0  0  0  0  0  0  0  0  0  0  0
  -23.3780  -28.8290   23.3670 O   0  0  0  0  0  0  0  0  0  0  0  0
  -20.9670  -29.9120   21.6630 H   0  0  0  0  0  0  0  0  0  0  0  0
  -17.9970  -28.2130   22.9010 C   0  0  0  0  0  0  0  0  0  0  0  0
  -20.5670  -28.4380   23.1430 C   0  0  0  0  0  3  0  0  0  0  0  0
  -20.6330  -27.0060   22.5600 C   0  0  0  0  0  2  0  0  0  0  0  0
  -19.5210  -26.7160   21.5460 C   0  0  0  0  0  2  0  0  0  0  0  0
  -18.1460  -26.8740   22.1990 C   0  0  0  0  0  2  0  0  0  0  0  0
  -19.1320  -28.9550   23.3290 C   0  0  0  0  0  0  0  0  0  0  0  0
  -18.9320  -30.2040   23.9560 C   0  0  0  0  0  3  0  0  0  0  0  0
  -17.6350  -30.7130   24.1530 C   0  0  0  0  0  3  0  0  0  0  0  0
  -16.5160  -29.9710   23.7350 C   0  0  0  0  0  3  0  0  0  0  0  0
  -16.6980  -28.7220   23.1160 C   0  0  0  0  0  3  0  0  0  0  0  0
  -25.9400  -32.4590   23.8420 C   0  0  0  0  0  3  0  0  0  0  0  0
  -25.5980  -33.8650   24.1720 N   0  0  0  0  0  0  0  0  0  0  0  0
  -25.9200  -34.9450   23.4450 C   0  0  0  0  0  0  0  0  0  0  0  0
  -26.5760  -34.8640   22.4040 O   0  0  0  0  0  0  0  0  0  0  0  0
  -25.0070  -33.9990   24.9800 H   0  0  0  0  0  0  0  0  0  0  0  0
  -24.1680  -36.7480   23.1980 C   0  0  0  0  0  1  0  0  0  0  0  0
  -25.4480  -36.3330   23.9420 C   0  0  0  0  0  3  0  0  0  0  0  0
  -27.6060  -37.2470   24.6880 C   0  0  0  0  0  1  0  0  0  0  0  0
  -26.4650  -37.3980   23.7880 N   0  0  0  0  0  0  0  0  0  0  0  0
  -26.0550  -38.3150   23.9480 H   0  0  0  0  0  0  0  0  0  0  0  0
  -26.3960  -31.7200   25.1620 C   0  0  1  0  0  0  0  0  0  0  0  0
  -25.2580  -31.5140   26.1910 C   0  0  0  0  0  1  0  0  0  0  0  0
  -26.9880  -30.3300   24.8490 C   0  0  0  0  0  1  0  0  0  0  0  0
  -27.5230  -32.5250   25.8520 C   0  0  0  0  0  1  0  0  0  0  0  0
  -28.1400  -22.5480   20.1630 C   0  0  0  0  0 15  0  0  0  0  0  0
  -29.1420  -20.4180   20.2160 C   0  0  0  0  0 15  0  0  0  0  0  0
  -29.9010  -16.6470   20.0860 C   0  0  0  0  0  0  0  0  0  0  0  0
  -30.2300  -13.8900   19.2940 C   0  0  0  0  0  2  0  0  0  0  0  0
  -29.4480  -13.0530   18.1990 C   0  0  0  0  0  2  0  0  0  0  0  0
  -28.1340  -12.4820   18.7300 C   0  0  0  0  0  2  0  0  0  0  0  0
  -27.5010  -13.5140   19.6750 C   0  0  0  0  0  3  0  0  0  0  0  0
  -28.4750  -14.2100   20.6950 C   0  0  0  0  0  2  0  0  0  0  0  0
  -29.4550  -15.1290   19.9600 N   0  0  0  0  0  0  0  0  0  0  0  0
  -31.1430  -16.3980   20.0040 O   0  0  0  0  0  0  0  0  0  0  0  0
  -29.2570  -18.3100   20.1340 N   0  0  0  0  0  2  0  0  0  0  0  0
  -30.2580  -18.4710   20.1320 H   0  0  0  0  0  0  0  0  0  0  0  0
  -25.1600  -13.9200   20.5080 C   0  0  0  0  0  0  0  0  0  0  0  0
  -24.1280  -13.1120   20.8810 C   0  0  0  0  0  0  0  0  0  0  0  0
  -24.6260  -11.7720   20.8220 C   0  0  0  0  0  0  0  0  0  0  0  0
  -26.2240  -13.0860   20.2420 N   0  0  0  0  0  0  0  0  0  0  0  0
  -25.9190  -11.7780   20.4820 N   0  0  0  0  0  0  0  0  0  0  0  0
  -23.9140  -10.4950   21.0120 C   0  0  0  0  0  0  0  0  0  0  0  0
  -24.3570   -9.5290   21.9420 C   0  0  0  0  0  3  0  0  0  0  0  0
  -23.6350   -8.3280   22.1300 C   0  0  0  0  0  3  0  0  0  0  0  0
  -22.4560   -8.0830   21.3870 C   0  0  0  0  0  0  0  0  0  0  0  0
  -22.0290   -9.0390   20.4470 C   0  0  0  0  0  3  0  0  0  0  0  0
  -22.7510  -10.2310   20.2590 C   0  0  0  0  0  3  0  0  0  0  0  0
  -21.7070   -6.9350   21.4820 O   0  0  0  0  0  0  0  0  0  0  0  0
  -21.6700   -6.1910   22.6350 C   0  0  0  0  0  0  0  0  0  0  0  0
  -21.2140   -6.7320   23.8560 C   0  0  0  0  0  3  0  0  0  0  0  0
  -21.1260   -5.9140   25.0000 C   0  0  0  0  0  3  0  0  0  0  0  0
  -21.4850   -4.5540   24.9250 C   0  0  0  0  0  0  0  0  0  0  0  0
  -21.9340   -4.0110   23.7070 C   0  0  0  0  0  3  0  0  0  0  0  0
  -22.0220   -4.8270   22.5660 C   0  0  0  0  0  0  0  0  0  0  0  0
  -22.4340   -4.2930   21.3900 F   0  0  0  0  0  0  0  0  0  0  0  0
  -21.3950   -3.7660   26.0220 F   0  0  0  0  0  0  0  0  0  0  0  0
  -22.7270  -13.5620   21.1730 C   0  0  0  0  0  0  0  0  0  0  0  0
  -22.0260  -12.8570   22.0520 N   0  0  0  0  0  0  0  0  0  0  0  0
  -22.2670  -14.5820   20.6590 O   0  0  0  0  0  0  0  0  0  0  0  0
  -22.4140  -12.0340   22.4890 H   0  0  0  0  0  0  0  0  0  0  0  0
  -21.0880  -13.1430   22.2910 H   0  0  0  0  0  0  0  0  0  0  0  0
  -25.2790  -15.2960   20.3350 N   0  0  0  0  0  0  0  0  0  0  0  0
  -24.4980  -15.9290   20.4650 H   0  0  0  0  0  0  0  0  0  0  0  0
  -26.1180  -15.7610   20.0090 H   0  0  0  0  0  0  0  0  0  0  0  0
  2 13  2  0
  3  1  1  0
  3  8  1  0
  4 12  1  0
  4 14  1  0
  5 11  1  0
  5  7  1  0
  6 12  1  0
  7  6  1  0
  8  7  2  0
  9  3  2  0
 10  9  1  0
 10  5  2  0
 11  4  1  0
 12  2  1  0
 14 16  2  0
 15 14  1  0
 17 15  1  0
 18 27  2  0
 18 23  1  0
 19 15  1  0
 19 23  1  0
 20 19  1  0
 21 22  1  0
 21 20  1  0
 22 18  1  0
 23 24  2  0
 24 25  1  0
 26 25  2  0
 27 26  1  0
 28  2  1  0
 28 29  1  0
 28 38  1  0
 29 32  1  0
 30 34  1  0
 30 29  1  0
 31 30  2  0
 34 33  1  0
 36 34  1  0
 36 37  1  0
 36 35  1  0
 38 41  1  1
 38 39  1  0
 40 38  1  0
 44 52  1  0
 45 50  1  0
 46 47  1  0
 46 45  1  0
 48 47  1  0
 48 57  1  0
 48 49  1  0
 50 44  1  0
 50 49  1  0
 51 44  2  0
 53 52  1  0
 54 55  2  0
 55 74  1  0
 56 55  1  0
 56 59  1  0
 57 58  1  0
 57 54  1  0
 58 56  2  0
 59 60  1  0
 60 61  2  0
 62 65  1  0
 62 61  1  0
 63 62  2  0
 64 63  1  0
 64 59  2  0
 65 66  1  0
 66 67  1  0
 67 68  2  0
 69 68  1  0
 69 73  1  0
 70 69  2  0
 71 66  2  0
 71 70  1  0
 72 71  1  0
 74 75  1  0
 75 78  1  0
 75 77  1  0
 76 74  2  0
 79 80  1  0
 79 54  1  0
 81 79  1  0
M  ISO  4   1 101  42 101  44 100  52 100
M  END
>  <TORSDO>  (61) 
F 17

>  <SCORE>  (61) 
-16.141

>  <name>  (61) 
60

>  <ligand_id>  (61) 
60

>  <original_smiles>  (61) 
[H]c1c([H])c([H])c2c(c1[H])C([H])([H])C([H])([H])C([H])([H])C2([H])N([H])C(=O)C1([H])N(C(=O)C([H])(N([H])C(=O)C([H])(N([H])C([H])([H])[H])C([H])([H])[H])C(C([H])([H])[H])(C([H])([H])[H])C([H])([H])[H])C([H])([H])c2c([H])c(OC([H])([H])C([H])([H])N([H])C(=O)N3C([H])([H])C([H])([H])C([H])([H])C([H])(n4nc(-c5c([H])c([H])c(Oc6c([H])c([H])c(F)c([H])c6F)c([H])c5[H])c(C(=O)N([H])[H])c4N([H])[H])C3([H])[H])c([H])c([H])c2C1([H])[H]

>  <smiles>  (61) 
[H]c1c([H])c([H])c2c(c1[H])C([H])([H])C([H])([H])C([H])([H])C2([H])N([H])C(=O)C1([H])N(C(=O)C([H])(N([H])C(=O)C([H])(N([H])C([H])([H])[H])C([H])([H])[H])C(C([H])([H])[H])(C([H])([H])[H])C([H])([H])[H])C([H])([H])c2c([H])c(OC([H])([H])C([H])([H])N([H])C(=O)N3C([H])([H])C([H])([H])C([H])([H])C([H])(n4nc(-c5c([H])c([H])c(Oc6c([H])c([H])c(F)c([H])c6F)c([H])c5[H])c(C(=O)N([H])[H])c4N([H])[H])C3([H])[H])c([H])c([H])c2C1([H])[H]

$$$$
61:0:0
     RDKit          3D

108115  0  0  1  0  0  0  0  0999 V2000
  -32.4540  -19.2640   19.3680 C   0  0  0  0  0  3  0  0  0  0  0  0
  -31.8410  -20.6760   19.3080 C   0  0  0  0  0  0  0  0  0  0  0  0
  -32.4200  -21.6360   20.0360 N   0  0  0  0  0  0  0  0  0  0  0  0
  -30.8580  -20.8910   18.5950 O   0  0  0  0  0  0  0  0  0  0  0  0
  -33.1760  -21.3770   20.6540 H   0  0  0  0  0  0  0  0  0  0  0  0
  -32.0280  -23.0460   20.0230 C   0  0  0  0  0  2  0  0  0  0  0  0
  -30.8960  -23.3880   21.0000 C   0  0  0  0  0  0  0  0  0  0  0  0
  -30.3120  -24.5810   20.8390 N   0  0  0  0  0  0  0  0  0  0  0  0
  -30.5820  -22.6120   21.9080 O   0  0  0  0  0  0  0  0  0  0  0  0
  -30.6100  -25.1470   20.0570 H   0  0  0  0  0  0  0  0  0  0  0  0
  -29.3310  -25.1720   21.7410 C   0  0  0  0  0  2  0  0  0  0  0  0
  -29.0930  -26.6500   21.3990 C   0  0  0  0  0  2  0  0  0  0  0  0
  -28.3700  -26.7310   20.1680 O   0  0  0  0  0  0  0  0  0  0  0  0
  -24.5240  -31.8970   23.2250 C   0  0  0  0  0  0  0  0  0  0  0  0
  -27.2230  -27.4850   20.1860 C   0  0  0  0  0  0  0  0  0  0  0  0
  -23.3340  -30.4870   21.5720 C   0  0  0  0  0  3  0  0  0  0  0  0
  -24.8080  -28.9510   20.1660 C   0  0  0  0  0  0  0  0  0  0  0  0
  -25.8540  -30.8660   21.3920 C   0  0  0  0  0  2  0  0  0  0  0  0
  -25.9530  -29.4930   20.7640 C   0  0  0  0  0  0  0  0  0  0  0  0
  -27.1620  -28.7700   20.7740 C   0  0  0  0  0  3  0  0  0  0  0  0
  -26.0680  -26.9560   19.5750 C   0  0  0  0  0  3  0  0  0  0  0  0
  -24.8590  -27.6780   19.5700 C   0  0  0  0  0  3  0  0  0  0  0  0
  -23.5590  -29.8000   20.1960 C   0  0  0  0  0  2  0  0  0  0  0  0
  -24.5880  -31.0980   22.1210 N   0  0  0  0  0  0  0  0  0  0  0  0
  -23.4390  -32.1650   23.7580 O   0  0  0  0  0  0  0  0  0  0  0  0
  -22.6800  -29.4680   22.5300 C   0  0  0  0  0  0  0  0  0  0  0  0
  -21.3540  -29.2930   22.4010 N   0  0  0  0  0  0  0  0  0  0  0  0
  -23.3590  -28.8360   23.3440 O   0  0  0  0  0  0  0  0  0  0  0  0
  -20.8700  -29.8540   21.7140 H   0  0  0  0  0  0  0  0  0  0  0  0
  -17.9660  -28.1500   22.9150 C   0  0  0  0  0  0  0  0  0  0  0  0
  -20.5300  -28.3590   23.1670 C   0  0  0  0  0  3  0  0  0  0  0  0
  -20.6020  -26.9350   22.5680 C   0  0  0  0  0  2  0  0  0  0  0  0
  -19.4850  -26.6450   21.5620 C   0  0  0  0  0  2  0  0  0  0  0  0
  -18.1130  -26.8060   22.2220 C   0  0  0  0  0  2  0  0  0  0  0  0
  -19.1010  -28.8860   23.3440 C   0  0  0  0  0  0  0  0  0  0  0  0
  -18.9100  -30.1470   23.9510 C   0  0  0  0  0  3  0  0  0  0  0  0
  -17.6150  -30.6680   24.1350 C   0  0  0  0  0  3  0  0  0  0  0  0
  -16.4950  -29.9270   23.7210 C   0  0  0  0  0  3  0  0  0  0  0  0
  -16.6710  -28.6710   23.1160 C   0  0  0  0  0  3  0  0  0  0  0  0
  -25.8050  -32.5290   23.8540 C   0  0  0  0  0  3  0  0  0  0  0  0
  -25.4940  -33.9270   24.1760 N   0  0  0  0  0  0  0  0  0  0  0  0
  -25.8450  -34.9770   23.4210 C   0  0  0  0  0  0  0  0  0  0  0  0
  -26.5360  -34.8690   22.4040 O   0  0  0  0  0  0  0  0  0  0  0  0
  -24.8800  -34.0860   24.9620 H   0  0  0  0  0  0  0  0  0  0  0  0
  -24.1430  -36.7820   23.0110 C   0  0  0  0  0  1  0  0  0  0  0  0
  -25.3510  -36.3670   23.8640 C   0  0  0  0  0  3  0  0  0  0  0  0
  -27.4600  -37.2370   24.7730 C   0  0  0  0  0  1  0  0  0  0  0  0
  -26.3950  -37.4120   23.7900 N   0  0  0  0  0  0  0  0  0  0  0  0
  -25.9900  -38.3360   23.9220 H   0  0  0  0  0  0  0  0  0  0  0  0
  -26.3160  -31.7580   25.1340 C   0  0  1  0  0  0  0  0  0  0  0  0
  -25.2160  -31.5100   26.1920 C   0  0  0  0  0  1  0  0  0  0  0  0
  -26.9110  -30.3860   24.7430 C   0  0  0  0  0  1  0  0  0  0  0  0
  -27.4580  -32.5580   25.8050 C   0  0  0  0  0  1  0  0  0  0  0  0
  -31.2370  -17.5520   20.7200 C   0  0  0  0  0  0  0  0  0  0  0  0
  -31.3450  -18.3560   19.6570 N   0  0  0  0  0  0  0  0  0  0  0  0
  -32.1290  -17.4130   21.5600 O   0  0  0  0  0  0  0  0  0  0  0  0
  -30.5450  -18.4480   19.0440 H   0  0  0  0  0  0  0  0  0  0  0  0
  -29.8960  -16.8290   20.8930 C   0  0  0  0  0  2  0  0  0  0  0  0
  -30.6220  -14.4520   20.4180 C   0  0  0  0  0  0  0  0  0  0  0  0
  -30.3080  -12.3290   19.2130 C   0  0  0  0  0  2  0  0  0  0  0  0
  -29.3360  -12.5860   18.0420 C   0  0  0  0  0  2  0  0  0  0  0  0
  -27.8690  -12.4570   18.4980 C   0  0  0  0  0  2  0  0  0  0  0  0
  -27.5700  -13.2470   19.8000 C   0  0  0  0  0  3  0  0  0  0  0  0
  -28.6460  -12.9510   20.8710 C   0  0  0  0  0  2  0  0  0  0  0  0
  -29.9680  -13.2660   20.2950 N   0  0  0  0  0  0  0  0  0  0  0  0
  -31.6750  -14.7040   19.8290 O   0  0  0  0  0  0  0  0  0  0  0  0
  -29.9300  -15.3770   21.1040 N   0  0  0  0  0  0  0  0  0  0  0  0
  -29.1380  -15.0080   21.6030 H   0  0  0  0  0  0  0  0  0  0  0  0
  -25.1830  -13.8550   20.5580 C   0  0  0  0  0  0  0  0  0  0  0  0
  -24.1210  -13.0800   20.9400 C   0  0  0  0  0  0  0  0  0  0  0  0
  -24.5780  -11.7280   20.8790 C   0  0  0  0  0  0  0  0  0  0  0  0
  -26.2230  -12.9740   20.2950 N   0  0  0  0  0  0  0  0  0  0  0  0
  -25.8610  -11.6880   20.5410 N   0  0  0  0  0  0  0  0  0  0  0  0
  -23.8540  -10.4630   21.0680 C   0  0  0  0  0  0  0  0  0  0  0  0
  -24.2970   -9.4890   21.9890 C   0  0  0  0  0  3  0  0  0  0  0  0
  -23.5730   -8.2900   22.1660 C   0  0  0  0  0  3  0  0  0  0  0  0
  -22.3930   -8.0560   21.4200 C   0  0  0  0  0  0  0  0  0  0  0  0
  -21.9690   -9.0200   20.4890 C   0  0  0  0  0  3  0  0  0  0  0  0
  -22.6940  -10.2100   20.3100 C   0  0  0  0  0  3  0  0  0  0  0  0
  -21.6430   -6.9090   21.5050 O   0  0  0  0  0  0  0  0  0  0  0  0
  -21.6030   -6.1570   22.6510 C   0  0  0  0  0  0  0  0  0  0  0  0
  -21.1630   -6.6960   23.8800 C   0  0  0  0  0  3  0  0  0  0  0  0
  -21.0720   -5.8710   25.0170 C   0  0  0  0  0  3  0  0  0  0  0  0
  -21.4120   -4.5090   24.9290 C   0  0  0  0  0  0  0  0  0  0  0  0
  -21.8440   -3.9680   23.7050 C   0  0  0  0  0  3  0  0  0  0  0  0
  -21.9360   -4.7900   22.5670 C   0  0  0  0  0  0  0  0  0  0  0  0
  -22.3350   -4.2610   21.3870 F   0  0  0  0  0  0  0  0  0  0  0  0
  -21.3160   -3.7130   26.0200 F   0  0  0  0  0  0  0  0  0  0  0  0
  -22.7310  -13.5570   21.2550 C   0  0  0  0  0  0  0  0  0  0  0  0
  -22.0150  -12.8400   22.1140 N   0  0  0  0  0  0  0  0  0  0  0  0
  -22.2870  -14.5970   20.7720 O   0  0  0  0  0  0  0  0  0  0  0  0
  -22.3860  -11.9980   22.5290 H   0  0  0  0  0  0  0  0  0  0  0  0
  -21.0840  -13.1400   22.3650 H   0  0  0  0  0  0  0  0  0  0  0  0
  -25.3490  -15.2260   20.3970 N   0  0  0  0  0  0  0  0  0  0  0  0
  -24.5900  -15.8860   20.5280 H   0  0  0  0  0  0  0  0  0  0  0  0
  -26.1970  -15.6610   20.0540 H   0  0  0  0  0  0  0  0  0  0  0  0
  -33.0990  -18.8690   18.0090 C   0  0  0  0  0  2  0  0  0  0  0  0
  -34.6380  -18.9890   17.9390 C   0  0  0  0  0  2  0  0  0  0  0  0
  -35.2400  -20.3870   18.1650 C   0  0  0  0  0  2  0  0  0  0  0  0
  -35.7770  -22.2160   16.5090 C   0  0  0  0  0  0  0  0  0  0  0  0
  -35.3210  -23.0410   15.5680 N   0  0  0  0  0  4  0  0  0  0  0  0
  -37.0560  -22.2970   16.8850 N   0  0  0  0  0  0  0  0  0  0  0  0
  -34.9450  -21.3200   17.0600 N   0  0  0  0  0  0  0  0  0  0  0  0
  -35.9020  -23.7440   15.1280 H   0  0  0  0  0  0  0  0  0  0  0  0
  -34.3600  -23.0230   15.2510 H   0  0  0  0  0  0  0  0  0  0  0  0
  -37.7060  -22.9550   16.4770 H   0  0  0  0  0  0  0  0  0  0  0  0
  -37.4420  -21.6740   17.5790 H   0  0  0  0  0  0  0  0  0  0  0  0
  -33.9830  -21.2960   16.7400 H   0  0  0  0  0  0  0  0  0  0  0  0
  1 97  1  0
  1 55  1  0
  2  1  1  0
  2  3  1  0
  3  5  1  0
  4  2  2  0
  6  3  1  0
  6  7  1  0
  7  9  2  0
  8  7  1  0
  8 11  1  0
 10  8  1  0
 12 11  1  0
 13 15  1  0
 13 12  1  0
 14 25  2  0
 15 20  1  0
 16 24  1  0
 16 26  1  0
 17 23  1  0
 17 19  1  0
 18 24  1  0
 19 20  2  0
 19 18  1  0
 21 15  2  0
 22 21  1  0
 22 17  2  0
 23 16  1  0
 24 14  1  0
 26 28  2  0
 27 26  1  0
 29 27  1  0
 30 39  2  0
 30 35  1  0
 31 27  1  0
 31 35  1  0
 32 31  1  0
 33 34  1  0
 33 32  1  0
 34 30  1  0
 35 36  2  0
 36 37  1  0
 38 37  2  0
 39 38  1  0
 40 14  1  0
 40 41  1  0
 40 50  1  0
 41 44  1  0
 42 46  1  0
 42 41  1  0
 43 42  2  0
 46 45  1  0
 48 46  1  0
 48 49  1  0
 48 47  1  0
 50 53  1  1
 50 51  1  0
 52 50  1  0
 54 58  1  0
 54 56  2  0
 55 54  1  0
 57 55  1  0
 58 67  1  0
 59 67  1  0
 60 65  1  0
 61 62  1  0
 61 60  1  0
 63 62  1  0
 63 72  1  0
 63 64  1  0
 65 59  1  0
 65 64  1  0
 66 59  2  0
 67 68  1  0
 69 70  2  0
 70 89  1  0
 71 70  1  0
 71 74  1  0
 72 73  1  0
 72 69  1  0
 73 71  2  0
 74 75  1  0
 75 76  2  0
 77 80  1  0
 77 76  1  0
 78 77  2  0
 79 78  1  0
 79 74  2  0
 80 81  1  0
 81 82  1  0
 82 83  2  0
 84 83  1  0
 84 88  1  0
 85 84  2  0
 86 81  2  0
 86 85  1  0
 87 86  1  0
 89 90  1  0
 90 93  1  0
 90 92  1  0
 91 89  2  0
 94 95  1  0
 94 69  1  0
 96 94  1  0
 98 97  1  0
 98 99  1  0
100102  1  0
100103  1  0
101100  2  0
102107  1  0
103 99  1  0
104101  1  0
105101  1  0
106102  1  0
108103  1  0
M  ISO  4  12 101  13 101  59 100  67 100
M  END
>  <TORSDO>  (62) 
F 27

>  <SCORE>  (62) 
-11.748

>  <name>  (62) 
61

>  <ligand_id>  (62) 
61

>  <original_smiles>  (62) 
[H]c1c([H])c([H])c2c(c1[H])C([H])([H])C([H])([H])C([H])([H])C2([H])N([H])C(=O)C1([H])N(C(=O)C([H])(N([H])C(=O)C([H])(N([H])C([H])([H])[H])C([H])([H])[H])C(C([H])([H])[H])(C([H])([H])[H])C([H])([H])[H])C([H])([H])c2c([H])c(OC([H])([H])C([H])([H])N([H])C(=O)C([H])([H])N([H])C(=O)C([H])(N([H])C(=O)C([H])([H])N([H])C(=O)N3C([H])([H])C([H])([H])C([H])([H])C([H])(n4nc(-c5c([H])c([H])c(Oc6c([H])c([H])c(F)c([H])c6F)c([H])c5[H])c(C(=O)N([H])[H])c4N([H])[H])C3([H])[H])C([H])([H])C([H])([H])C([H])([H])N([H])C(N([H])[H])=[N+]([H])[H])c([H])c([H])c2C1([H])[H]

>  <smiles>  (62) 
[H]c1c([H])c([H])c2c(c1[H])C([H])([H])C([H])([H])C([H])([H])C2([H])N([H])C(=O)C1([H])N(C(=O)C([H])(N([H])C(=O)C([H])(N([H])C([H])([H])[H])C([H])([H])[H])C(C([H])([H])[H])(C([H])([H])[H])C([H])([H])[H])C([H])([H])c2c([H])c(OC([H])([H])C([H])([H])N([H])C(=O)C([H])([H])N([H])C(=O)C([H])(N([H])C(=O)C([H])([H])N([H])C(=O)N3C([H])([H])C([H])([H])C([H])([H])C([H])(n4nc(-c5c([H])c([H])c(Oc6c([H])c([H])c(F)c([H])c6F)c([H])c5[H])c(C(=O)N([H])[H])c4N([H])[H])C3([H])[H])C([H])([H])C([H])([H])C([H])([H])N([H])C(N([H])[H])=[N+]([H])[H])c([H])c([H])c2C1([H])[H]

$$$$
62:0:0
     RDKit          3D

 89 96  0  0  1  0  0  0  0  0999 V2000
  -29.8460  -21.9270   20.8240 C   0  0  0  0  0  2  0  0  0  0  0  0
  -29.1770  -20.5250   20.7390 C   0  0  0  0  0  0  0  0  0  0  0  0
  -29.9180  -19.4190   20.9640 N   0  0  0  0  0  0  0  0  0  0  0  0
  -27.9790  -20.4380   20.4550 O   0  0  0  0  0  0  0  0  0  0  0  0
  -30.8920  -19.5490   21.2080 H   0  0  0  0  0  0  0  0  0  0  0  0
  -29.4140  -18.0360   20.8360 C   0  0  0  0  0  2  0  0  0  0  0  0
  -30.5020  -16.9520   21.0740 C   0  0  0  0  0  2  0  0  0  0  0  0
  -30.6660  -14.5130   20.4770 C   0  0  0  0  0  0  0  0  0  0  0  0
  -30.3400  -12.3560   19.3310 C   0  0  0  0  0  2  0  0  0  0  0  0
  -29.3990  -12.5650   18.1270 C   0  0  0  0  0  2  0  0  0  0  0  0
  -27.9230  -12.4380   18.5530 C   0  0  0  0  0  2  0  0  0  0  0  0
  -27.5930  -13.2680   19.8240 C   0  0  0  0  0  3  0  0  0  0  0  0
  -28.6520  -13.0560   20.9320 C   0  0  0  0  0  2  0  0  0  0  0  0
  -29.9730  -13.3480   20.3550 N   0  0  0  0  0  0  0  0  0  0  0  0
  -31.7960  -14.6640   20.0130 O   0  0  0  0  0  0  0  0  0  0  0  0
  -29.9940  -15.5640   20.9960 N   0  0  0  0  0  0  0  0  0  0  0  0
  -29.0620  -15.3830   21.3360 H   0  0  0  0  0  0  0  0  0  0  0  0
  -25.1980  -13.8810   20.5380 C   0  0  0  0  0  0  0  0  0  0  0  0
  -24.1250  -13.1120   20.9030 C   0  0  0  0  0  0  0  0  0  0  0  0
  -24.5790  -11.7580   20.8660 C   0  0  0  0  0  0  0  0  0  0  0  0
  -26.2400  -12.9950   20.3040 N   0  0  0  0  0  0  0  0  0  0  0  0
  -25.8700  -11.7130   20.5590 N   0  0  0  0  0  0  0  0  0  0  0  0
  -23.8460  -10.4980   21.0480 C   0  0  0  0  0  0  0  0  0  0  0  0
  -24.2700   -9.5250   21.9800 C   0  0  0  0  0  3  0  0  0  0  0  0
  -23.5380   -8.3310   22.1530 C   0  0  0  0  0  3  0  0  0  0  0  0
  -22.3650   -8.1010   21.3930 C   0  0  0  0  0  0  0  0  0  0  0  0
  -21.9600   -9.0630   20.4510 C   0  0  0  0  0  3  0  0  0  0  0  0
  -22.6930  -10.2500   20.2770 C   0  0  0  0  0  3  0  0  0  0  0  0
  -21.6050   -6.9590   21.4740 O   0  0  0  0  0  0  0  0  0  0  0  0
  -21.5400   -6.2160   22.6250 C   0  0  0  0  0  0  0  0  0  0  0  0
  -21.0790   -6.7660   23.8420 C   0  0  0  0  0  3  0  0  0  0  0  0
  -20.9640   -5.9490   24.9840 C   0  0  0  0  0  3  0  0  0  0  0  0
  -21.3000   -4.5830   24.9110 C   0  0  0  0  0  0  0  0  0  0  0  0
  -21.7530   -4.0330   23.6990 C   0  0  0  0  0  3  0  0  0  0  0  0
  -21.8690   -4.8470   22.5590 C   0  0  0  0  0  0  0  0  0  0  0  0
  -22.2870   -4.3070   21.3890 F   0  0  0  0  0  0  0  0  0  0  0  0
  -21.1820   -3.7970   26.0070 F   0  0  0  0  0  0  0  0  0  0  0  0
  -22.7310  -13.5950   21.1790 C   0  0  0  0  0  0  0  0  0  0  0  0
  -21.9960  -12.8970   22.0370 N   0  0  0  0  0  0  0  0  0  0  0  0
  -22.3010  -14.6270   20.6650 O   0  0  0  0  0  0  0  0  0  0  0  0
  -22.3560  -12.0630   22.4770 H   0  0  0  0  0  0  0  0  0  0  0  0
  -21.0590  -13.2030   22.2600 H   0  0  0  0  0  0  0  0  0  0  0  0
  -25.3690  -15.2500   20.3660 N   0  0  0  0  0  0  0  0  0  0  0  0
  -24.6020  -15.9050   20.4730 H   0  0  0  0  0  0  0  0  0  0  0  0
  -26.2100  -15.6860   20.0080 H   0  0  0  0  0  0  0  0  0  0  0  0
  -28.9190  -22.9550   20.4190 O   0  0  0  0  0  0  0  0  0  0  0  0
  -29.3720  -24.3170   20.5080 C   0  0  0  0  0  2  0  0  0  0  0  0
  -28.2580  -25.2550   19.9690 C   0  0  0  0  0  2  0  0  0  0  0  0
  -28.4010  -26.6700   20.2460 O   0  0  0  0  0  0  0  0  0  0  0  0
  -24.5970  -31.9100   23.2630 C   0  0  0  0  0  0  0  0  0  0  0  0
  -27.2430  -27.4380   20.1930 C   0  0  0  0  0  0  0  0  0  0  0  0
  -23.3960  -30.5090   21.6190 C   0  0  0  0  0  3  0  0  0  0  0  0
  -24.8530  -28.9760   20.1920 C   0  0  0  0  0  0  0  0  0  0  0  0
  -25.9270  -30.8540   21.4380 C   0  0  0  0  0  2  0  0  0  0  0  0
  -26.0110  -29.4830   20.7930 C   0  0  0  0  0  0  0  0  0  0  0  0
  -27.2050  -28.7210   20.7960 C   0  0  0  0  0  3  0  0  0  0  0  0
  -26.0650  -26.9670   19.5620 C   0  0  0  0  0  3  0  0  0  0  0  0
  -24.8770  -27.7170   19.5720 C   0  0  0  0  0  3  0  0  0  0  0  0
  -23.6080  -29.8340   20.2390 C   0  0  0  0  0  2  0  0  0  0  0  0
  -24.6570  -31.1070   22.1630 N   0  0  0  0  0  0  0  0  0  0  0  0
  -23.5140  -32.1860   23.7990 O   0  0  0  0  0  0  0  0  0  0  0  0
  -22.7420  -29.4890   22.5790 C   0  0  0  0  0  0  0  0  0  0  0  0
  -21.4180  -29.3060   22.4450 N   0  0  0  0  0  0  0  0  0  0  0  0
  -23.4210  -28.8640   23.3970 O   0  0  0  0  0  0  0  0  0  0  0  0
  -20.9330  -29.8570   21.7530 H   0  0  0  0  0  0  0  0  0  0  0  0
  -18.0380  -28.1280   22.9500 C   0  0  0  0  0  0  0  0  0  0  0  0
  -20.5980  -28.3670   23.2130 C   0  0  0  0  0  3  0  0  0  0  0  0
  -20.6900  -26.9400   22.6250 C   0  0  0  0  0  2  0  0  0  0  0  0
  -19.5810  -26.6310   21.6140 C   0  0  0  0  0  2  0  0  0  0  0  0
  -18.2030  -26.7830   22.2640 C   0  0  0  0  0  2  0  0  0  0  0  0
  -19.1640  -28.8790   23.3800 C   0  0  0  0  0  0  0  0  0  0  0  0
  -18.9560  -30.1410   23.9780 C   0  0  0  0  0  3  0  0  0  0  0  0
  -17.6550  -30.6500   24.1520 C   0  0  0  0  0  3  0  0  0  0  0  0
  -16.5440  -29.8950   23.7370 C   0  0  0  0  0  3  0  0  0  0  0  0
  -16.7360  -28.6350   23.1420 C   0  0  0  0  0  3  0  0  0  0  0  0
  -25.8840  -32.5380   23.8870 C   0  0  0  0  0  3  0  0  0  0  0  0
  -25.5780  -33.9370   24.2120 N   0  0  0  0  0  0  0  0  0  0  0  0
  -25.9080  -34.9860   23.4470 C   0  0  0  0  0  0  0  0  0  0  0  0
  -26.5760  -34.8790   22.4140 O   0  0  0  0  0  0  0  0  0  0  0  0
  -24.9850  -34.0950   25.0150 H   0  0  0  0  0  0  0  0  0  0  0  0
  -24.1840  -36.7790   23.0840 C   0  0  0  0  0  1  0  0  0  0  0  0
  -25.4230  -36.3770   23.8980 C   0  0  0  0  0  3  0  0  0  0  0  0
  -27.5570  -37.2630   24.7320 C   0  0  0  0  0  1  0  0  0  0  0  0
  -26.4590  -37.4270   23.7830 N   0  0  0  0  0  0  0  0  0  0  0  0
  -26.0560  -38.3520   23.9150 H   0  0  0  0  0  0  0  0  0  0  0  0
  -26.3940  -31.7680   25.1660 C   0  0  1  0  0  0  0  0  0  0  0  0
  -25.2940  -31.5350   26.2270 C   0  0  0  0  0  1  0  0  0  0  0  0
  -26.9860  -30.3920   24.7820 C   0  0  0  0  0  1  0  0  0  0  0  0
  -27.5420  -32.5630   25.8310 C   0  0  0  0  0  1  0  0  0  0  0  0
  2  1  1  0
  2  3  1  0
  3  5  1  0
  4  2  2  0
  6  3  1  0
  6  7  1  0
  8 16  1  0
  9 14  1  0
 10 11  1  0
 10  9  1  0
 12 11  1  0
 12 21  1  0
 12 13  1  0
 14  8  1  0
 14 13  1  0
 15  8  2  0
 16  7  1  0
 16 17  1  0
 18 19  2  0
 19 38  1  0
 20 19  1  0
 20 23  1  0
 21 18  1  0
 21 22  1  0
 22 20  2  0
 23 24  1  0
 24 25  2  0
 26 29  1  0
 26 25  1  0
 27 26  2  0
 28 27  1  0
 28 23  2  0
 29 30  1  0
 30 31  1  0
 31 32  2  0
 33 32  1  0
 33 37  1  0
 34 33  2  0
 35 30  2  0
 35 34  1  0
 36 35  1  0
 38 39  1  0
 39 42  1  0
 39 41  1  0
 40 38  2  0
 43 44  1  0
 43 18  1  0
 45 43  1  0
 46 47  1  0
 46  1  1  0
 48 49  1  0
 48 47  1  0
 50 61  2  0
 51 49  1  0
 51 56  1  0
 52 60  1  0
 52 62  1  0
 53 59  1  0
 53 55  1  0
 54 60  1  0
 55 56  2  0
 55 54  1  0
 57 58  1  0
 57 51  2  0
 58 53  2  0
 59 52  1  0
 60 50  1  0
 62 64  2  0
 63 62  1  0
 65 63  1  0
 66 75  2  0
 66 71  1  0
 67 63  1  0
 67 71  1  0
 68 67  1  0
 69 70  1  0
 69 68  1  0
 70 66  1  0
 71 72  2  0
 72 73  1  0
 74 73  2  0
 75 74  1  0
 76 50  1  0
 76 77  1  0
 76 86  1  0
 77 80  1  0
 78 82  1  0
 78 77  1  0
 79 78  2  0
 82 81  1  0
 84 82  1  0
 84 85  1  0
 84 83  1  0
 86 89  1  1
 86 87  1  0
 88 86  1  0
M  ISO  4   8 100  16 100  48 101  49 101
M  END
>  <TORSDO>  (63) 
F 22

>  <SCORE>  (63) 
-13.136

>  <name>  (63) 
62

>  <ligand_id>  (63) 
62

>  <original_smiles>  (63) 
[H]c1c([H])c([H])c2c(c1[H])C([H])([H])C([H])([H])C([H])([H])C2([H])N([H])C(=O)C1([H])N(C(=O)C([H])(N([H])C(=O)C([H])(N([H])C([H])([H])[H])C([H])([H])[H])C(C([H])([H])[H])(C([H])([H])[H])C([H])([H])[H])C([H])([H])c2c([H])c(OC([H])([H])C([H])([H])OC([H])([H])C(=O)N([H])C([H])([H])C([H])([H])N([H])C(=O)N3C([H])([H])C([H])([H])C([H])([H])C([H])(n4nc(-c5c([H])c([H])c(Oc6c([H])c([H])c(F)c([H])c6F)c([H])c5[H])c(C(=O)N([H])[H])c4N([H])[H])C3([H])[H])c([H])c([H])c2C1([H])[H]

>  <smiles>  (63) 
[H]c1c([H])c([H])c2c(c1[H])C([H])([H])C([H])([H])C([H])([H])C2([H])N([H])C(=O)C1([H])N(C(=O)C([H])(N([H])C(=O)C([H])(N([H])C([H])([H])[H])C([H])([H])[H])C(C([H])([H])[H])(C([H])([H])[H])C([H])([H])[H])C([H])([H])c2c([H])c(OC([H])([H])C([H])([H])OC([H])([H])C(=O)N([H])C([H])([H])C([H])([H])N([H])C(=O)N3C([H])([H])C([H])([H])C([H])([H])C([H])(n4nc(-c5c([H])c([H])c(Oc6c([H])c([H])c(F)c([H])c6F)c([H])c5[H])c(C(=O)N([H])[H])c4N([H])[H])C3([H])[H])c([H])c([H])c2C1([H])[H]

$$$$
63:0:0
     RDKit          3D

 94101  0  0  1  0  0  0  0  0999 V2000
  -27.9360  -23.7880   17.0330 C   0  0  0  0  0  0  0  0  0  0  0  0
  -28.9710  -24.3350   17.6790 N   0  0  0  0  0  0  0  0  0  0  0  0
  -27.0440  -24.4610   16.5130 O   0  0  0  0  0  0  0  0  0  0  0  0
  -29.6940  -23.7130   18.0210 H   0  0  0  0  0  0  0  0  0  0  0  0
  -27.8640  -22.2580   17.0330 C   0  0  0  0  0  2  0  0  0  0  0  0
  -26.4270  -21.7230   17.2190 C   0  0  0  0  0  2  0  0  0  0  0  0
  -26.3180  -20.2870   17.7730 C   0  0  0  0  0  2  0  0  0  0  0  0
  -26.5670  -20.1710   19.2970 C   0  0  0  0  0  2  0  0  0  0  0  0
  -27.9850  -19.7420   19.7310 C   0  0  0  0  0  2  0  0  0  0  0  0
  -28.3070  -18.2550   19.5220 C   0  0  0  0  0  2  0  0  0  0  0  0
  -29.6960  -17.9030   20.1160 C   0  0  0  0  0  2  0  0  0  0  0  0
  -30.0780  -16.3960   20.1360 C   0  0  0  0  0  2  0  0  0  0  0  0
  -30.1320  -15.4730   21.3960 C   0  0  0  0  0  2  0  0  0  0  0  0
  -31.6100  -13.7660   20.3300 C   0  0  0  0  0  0  0  0  0  0  0  0
  -31.0480  -11.8330   18.9030 C   0  0  0  0  0  2  0  0  0  0  0  0
  -30.1030  -12.2670   17.7660 C   0  0  0  0  0  2  0  0  0  0  0  0
  -28.6330  -12.2680   18.2310 C   0  0  0  0  0  2  0  0  0  0  0  0
  -28.4310  -12.9890   19.5870 C   0  0  0  0  0  3  0  0  0  0  0  0
  -29.4580  -12.4580   20.6130 C   0  0  0  0  0  2  0  0  0  0  0  0
  -30.7990  -12.7090   20.0600 N   0  0  0  0  0  0  0  0  0  0  0  0
  -32.6850  -13.9550   19.7530 O   0  0  0  0  0  0  0  0  0  0  0  0
  -31.2740  -14.5480   21.3660 N   0  0  0  0  0  0  0  0  0  0  0  0
  -32.0910  -14.9850   21.7680 H   0  0  0  0  0  0  0  0  0  0  0  0
  -26.0940  -13.8380   20.2830 C   0  0  0  0  0  0  0  0  0  0  0  0
  -24.9620  -13.1760   20.6680 C   0  0  0  0  0  0  0  0  0  0  0  0
  -25.2940  -11.7850   20.6450 C   0  0  0  0  0  0  0  0  0  0  0  0
  -27.0530  -12.8590   20.0660 N   0  0  0  0  0  0  0  0  0  0  0  0
  -26.5710  -11.6190   20.3310 N   0  0  0  0  0  0  0  0  0  0  0  0
  -24.4560  -10.6010   20.8540 C   0  0  0  0  0  0  0  0  0  0  0  0
  -24.7700   -9.6440   21.8420 C   0  0  0  0  0  3  0  0  0  0  0  0
  -23.9440   -8.5150   22.0340 C   0  0  0  0  0  3  0  0  0  0  0  0
  -22.7880   -8.3420   21.2390 C   0  0  0  0  0  0  0  0  0  0  0  0
  -22.4900   -9.2870   20.2430 C   0  0  0  0  0  3  0  0  0  0  0  0
  -23.3160  -10.4060   20.0490 C   0  0  0  0  0  3  0  0  0  0  0  0
  -21.9400   -7.2630   21.3360 O   0  0  0  0  0  0  0  0  0  0  0  0
  -21.7260   -6.6240   22.5310 C   0  0  0  0  0  0  0  0  0  0  0  0
  -21.2300   -7.3080   23.6630 C   0  0  0  0  0  3  0  0  0  0  0  0
  -20.9540   -6.5980   24.8490 C   0  0  0  0  0  3  0  0  0  0  0  0
  -21.1640   -5.2070   24.9040 C   0  0  0  0  0  0  0  0  0  0  0  0
  -21.6510   -4.5250   23.7760 C   0  0  0  0  0  3  0  0  0  0  0  0
  -21.9270   -5.2310   22.5920 C   0  0  0  0  0  0  0  0  0  0  0  0
  -22.3720   -4.5640   21.5010 F   0  0  0  0  0  0  0  0  0  0  0  0
  -20.8950   -4.5240   26.0410 F   0  0  0  0  0  0  0  0  0  0  0  0
  -23.6170  -13.7840   20.9450 C   0  0  0  0  0  0  0  0  0  0  0  0
  -22.8460  -13.1820   21.8450 N   0  0  0  0  0  0  0  0  0  0  0  0
  -23.2610  -14.8260   20.3960 O   0  0  0  0  0  0  0  0  0  0  0  0
  -23.1490  -12.3370   22.3090 H   0  0  0  0  0  0  0  0  0  0  0  0
  -21.9390  -13.5660   22.0670 H   0  0  0  0  0  0  0  0  0  0  0  0
  -26.3790  -15.1830   20.0760 N   0  0  0  0  0  0  0  0  0  0  0  0
  -25.6650  -15.8980   20.1650 H   0  0  0  0  0  0  0  0  0  0  0  0
  -27.2250  -15.5170   19.6370 H   0  0  0  0  0  0  0  0  0  0  0  0
  -29.0200  -25.7120   18.1620 C   0  0  0  0  0  2  0  0  0  0  0  0
  -28.7320  -25.7190   19.6730 C   0  0  0  0  0  2  0  0  0  0  0  0
  -28.6180  -27.0450   20.1780 O   0  0  0  0  0  0  0  0  0  0  0  0
  -24.6060  -31.9470   23.3610 C   0  0  0  0  0  0  0  0  0  0  0  0
  -27.3970  -27.6870   20.1580 C   0  0  0  0  0  0  0  0  0  0  0  0
  -23.4600  -30.5990   21.6330 C   0  0  0  0  0  3  0  0  0  0  0  0
  -24.9700  -29.1390   20.1880 C   0  0  0  0  0  0  0  0  0  0  0  0
  -25.9840  -30.9980   21.5170 C   0  0  0  0  0  2  0  0  0  0  0  0
  -26.1020  -29.6560   20.8280 C   0  0  0  0  0  0  0  0  0  0  0  0
  -27.3130  -28.9330   20.8170 C   0  0  0  0  0  3  0  0  0  0  0  0
  -26.2420  -27.1760   19.5190 C   0  0  0  0  0  3  0  0  0  0  0  0
  -25.0320  -27.8940   19.5400 C   0  0  0  0  0  3  0  0  0  0  0  0
  -23.7150  -29.9810   20.2320 C   0  0  0  0  0  2  0  0  0  0  0  0
  -24.6990  -31.1940   22.2280 N   0  0  0  0  0  0  0  0  0  0  0  0
  -23.5090  -32.1840   23.8830 O   0  0  0  0  0  0  0  0  0  0  0  0
  -22.8000  -29.5300   22.5320 C   0  0  0  0  0  0  0  0  0  0  0  0
  -21.4810  -29.3430   22.3670 N   0  0  0  0  0  0  0  0  0  0  0  0
  -23.4710  -28.8750   23.3340 O   0  0  0  0  0  0  0  0  0  0  0  0
  -21.0020  -29.9280   21.6960 H   0  0  0  0  0  0  0  0  0  0  0  0
  -18.1050  -28.1090   22.7340 C   0  0  0  0  0  0  0  0  0  0  0  0
  -20.6540  -28.3700   23.0780 C   0  0  0  0  0  3  0  0  0  0  0  0
  -20.7810  -26.9660   22.4450 C   0  0  0  0  0  2  0  0  0  0  0  0
  -19.7060  -26.6800   21.3910 C   0  0  0  0  0  2  0  0  0  0  0  0
  -18.3070  -26.7900   22.0080 C   0  0  0  0  0  2  0  0  0  0  0  0
  -19.2080  -28.8580   23.2220 C   0  0  0  0  0  0  0  0  0  0  0  0
  -18.9700  -30.0940   23.8590 C   0  0  0  0  0  3  0  0  0  0  0  0
  -17.6580  -30.5820   24.0160 C   0  0  0  0  0  3  0  0  0  0  0  0
  -16.5690  -29.8300   23.5420 C   0  0  0  0  0  3  0  0  0  0  0  0
  -16.7920  -28.5950   22.9070 C   0  0  0  0  0  3  0  0  0  0  0  0
  -25.8700  -32.5650   24.0380 C   0  0  0  0  0  3  0  0  0  0  0  0
  -26.3540  -31.7580   25.3050 C   0  0  1  0  0  0  0  0  0  0  0  0
  -25.2310  -31.4820   26.3310 C   0  0  0  0  0  1  0  0  0  0  0  0
  -26.9580  -30.3980   24.8860 C   0  0  0  0  0  1  0  0  0  0  0  0
  -27.4780  -32.5400   26.0260 C   0  0  0  0  0  1  0  0  0  0  0  0
  -25.5430  -33.9520   24.3970 N   0  0  0  0  0  0  0  0  0  0  0  0
  -25.9010  -35.0260   23.6820 C   0  0  0  0  0  0  0  0  0  0  0  0
  -26.6150  -34.9560   22.6770 O   0  0  0  0  0  0  0  0  0  0  0  0
  -24.9150  -34.0810   25.1770 H   0  0  0  0  0  0  0  0  0  0  0  0
  -24.1840  -36.8240   23.3050 C   0  0  0  0  0  1  0  0  0  0  0  0
  -25.3880  -36.3980   24.1600 C   0  0  0  0  0  3  0  0  0  0  0  0
  -27.4780  -37.2630   25.1150 C   0  0  0  0  0  1  0  0  0  0  0  0
  -26.4200  -37.4570   24.1260 N   0  0  0  0  0  0  0  0  0  0  0  0
  -26.0030  -38.3710   24.2850 H   0  0  0  0  0  0  0  0  0  0  0  0
  1  5  1  0
  1  2  1  0
  2  4  1  0
  2 52  1  0
  3  1  2  0
  5  6  1  0
  6  7  1  0
  7  8  1  0
  8  9  1  0
 10  9  1  0
 10 11  1  0
 11 12  1  0
 12 13  1  0
 14 22  1  0
 15 20  1  0
 16 17  1  0
 16 15  1  0
 18 17  1  0
 18 27  1  0
 18 19  1  0
 20 14  1  0
 20 19  1  0
 21 14  2  0
 22 13  1  0
 22 23  1  0
 24 25  2  0
 25 44  1  0
 26 25  1  0
 26 29  1  0
 27 24  1  0
 27 28  1  0
 28 26  2  0
 29 30  1  0
 30 31  2  0
 32 35  1  0
 32 31  1  0
 33 32  2  0
 34 33  1  0
 34 29  2  0
 35 36  1  0
 36 41  2  0
 36 37  1  0
 37 38  2  0
 38 39  1  0
 39 43  1  0
 40 39  2  0
 41 40  1  0
 42 41  1  0
 44 45  1  0
 45 48  1  0
 45 47  1  0
 46 44  2  0
 49 50  1  0
 49 24  1  0
 51 49  1  0
 52 53  1  0
 53 54  1  0
 55 66  2  0
 56 54  1  0
 56 61  1  0
 57 65  1  0
 57 67  1  0
 58 64  1  0
 58 60  1  0
 59 65  1  0
 60 59  1  0
 61 60  2  0
 62 63  1  0
 62 56  2  0
 63 58  2  0
 64 57  1  0
 65 55  1  0
 67 69  2  0
 68 67  1  0
 70 68  1  0
 71 80  2  0
 71 76  1  0
 72 68  1  0
 72 76  1  0
 73 72  1  0
 74 75  1  0
 74 73  1  0
 75 71  1  0
 76 77  2  0
 77 78  1  0
 79 78  2  0
 80 79  1  0
 81 55  1  0
 81 86  1  0
 81 82  1  0
 82 85  1  1
 82 83  1  0
 84 82  1  0
 86 89  1  0
 87 91  1  0
 87 86  1  0
 88 87  2  0
 91 90  1  0
 93 91  1  0
 93 94  1  0
 93 92  1  0
M  ISO  4  14 100  22 100  53 101  54 101
M  END
>  <TORSDO>  (64) 
F 27

>  <SCORE>  (64) 
-9.783

>  <name>  (64) 
63

>  <ligand_id>  (64) 
63

>  <original_smiles>  (64) 
[H]c1c([H])c([H])c2c(c1[H])C([H])([H])C([H])([H])C([H])([H])C2([H])N([H])C(=O)C1([H])N(C(=O)C([H])(N([H])C(=O)C([H])(N([H])C([H])([H])[H])C([H])([H])[H])C(C([H])([H])[H])(C([H])([H])[H])C([H])([H])[H])C([H])([H])c2c([H])c(OC([H])([H])C([H])([H])N([H])C(=O)C([H])([H])C([H])([H])C([H])([H])C([H])([H])C([H])([H])C([H])([H])C([H])([H])C([H])([H])C([H])([H])N([H])C(=O)N3C([H])([H])C([H])([H])C([H])([H])C([H])(n4nc(-c5c([H])c([H])c(Oc6c([H])c([H])c(F)c([H])c6F)c([H])c5[H])c(C(=O)N([H])[H])c4N([H])[H])C3([H])[H])c([H])c([H])c2C1([H])[H]

>  <smiles>  (64) 
[H]c1c([H])c([H])c2c(c1[H])C([H])([H])C([H])([H])C([H])([H])C2([H])N([H])C(=O)C1([H])N(C(=O)C([H])(N([H])C(=O)C([H])(N([H])C([H])([H])[H])C([H])([H])[H])C(C([H])([H])[H])(C([H])([H])[H])C([H])([H])[H])C([H])([H])c2c([H])c(OC([H])([H])C([H])([H])N([H])C(=O)C([H])([H])C([H])([H])C([H])([H])C([H])([H])C([H])([H])C([H])([H])C([H])([H])C([H])([H])C([H])([H])N([H])C(=O)N3C([H])([H])C([H])([H])C([H])([H])C([H])(n4nc(-c5c([H])c([H])c(Oc6c([H])c([H])c(F)c([H])c6F)c([H])c5[H])c(C(=O)N([H])[H])c4N([H])[H])C3([H])[H])c([H])c([H])c2C1([H])[H]

$$$$
64:0:0
     RDKit          3D

 85 92  0  0  1  0  0  0  0  0999 V2000
  -28.8460  -22.7980   20.3310 C   0  0  0  0  0  3  0  0  0  0  0  0
  -28.4950  -21.0350   20.1880 C   0  0  0  0  0  3  0  0  0  0  0  0
  -29.5000  -19.5490   20.3440 C   0  0  0  0  0  3  0  0  0  0  0  0
  -30.5520  -15.3130   20.2580 C   0  0  0  0  0  0  0  0  0  0  0  0
  -30.3660  -12.9050   19.3610 C   0  0  0  0  0  2  0  0  0  0  0  0
  -29.4450  -12.6650   18.1460 C   0  0  0  0  0  2  0  0  0  0  0  0
  -28.0130  -12.3900   18.6230 C   0  0  0  0  0  2  0  0  0  0  0  0
  -27.5700  -13.3720   19.7360 C   0  0  0  0  0  3  0  0  0  0  0  0
  -28.6340  -13.5990   20.8330 C   0  0  0  0  0  2  0  0  0  0  0  0
  -29.8340  -14.0910   20.1390 N   0  0  0  0  0  0  0  0  0  0  0  0
  -31.7640  -15.1260   20.1070 O   0  0  0  0  0  0  0  0  0  0  0  0
  -29.1930  -17.8230   20.2610 C   0  0  0  0  0  0  0  0  0  0  0  0
  -30.1920  -16.7540   20.3260 N   0  0  0  0  0  0  0  0  0  0  0  0
  -28.0100  -17.4980   20.1300 O   0  0  0  0  0  0  0  0  0  0  0  0
  -31.0800  -17.2250   20.4040 H   0  0  0  0  0  0  0  0  0  0  0  0
  -25.2200  -13.9010   20.5530 C   0  0  0  0  0  0  0  0  0  0  0  0
  -24.1690  -13.1110   20.9230 C   0  0  0  0  0  0  0  0  0  0  0  0
  -24.6440  -11.7640   20.8680 C   0  0  0  0  0  0  0  0  0  0  0  0
  -26.2620  -13.0370   20.2800 N   0  0  0  0  0  0  0  0  0  0  0  0
  -25.9320  -11.7430   20.5390 N   0  0  0  0  0  0  0  0  0  0  0  0
  -23.9270  -10.4940   21.0500 C   0  0  0  0  0  0  0  0  0  0  0  0
  -24.3650   -9.5220   21.9750 C   0  0  0  0  0  3  0  0  0  0  0  0
  -23.6440   -8.3200   22.1480 C   0  0  0  0  0  3  0  0  0  0  0  0
  -22.4700   -8.0810   21.3950 C   0  0  0  0  0  0  0  0  0  0  0  0
  -22.0510   -9.0420   20.4570 C   0  0  0  0  0  3  0  0  0  0  0  0
  -22.7730  -10.2350   20.2820 C   0  0  0  0  0  3  0  0  0  0  0  0
  -21.7200   -6.9330   21.4780 O   0  0  0  0  0  0  0  0  0  0  0  0
  -21.6600   -6.1940   22.6320 C   0  0  0  0  0  0  0  0  0  0  0  0
  -21.1890   -6.7410   23.8440 C   0  0  0  0  0  3  0  0  0  0  0  0
  -21.0780   -5.9270   24.9890 C   0  0  0  0  0  3  0  0  0  0  0  0
  -21.4310   -4.5660   24.9220 C   0  0  0  0  0  0  0  0  0  0  0  0
  -21.8950   -4.0170   23.7140 C   0  0  0  0  0  3  0  0  0  0  0  0
  -22.0060   -4.8280   22.5710 C   0  0  0  0  0  0  0  0  0  0  0  0
  -22.4350   -4.2900   21.4050 F   0  0  0  0  0  0  0  0  0  0  0  0
  -21.3180   -3.7810   26.0200 F   0  0  0  0  0  0  0  0  0  0  0  0
  -22.7720  -13.5750   21.2140 C   0  0  0  0  0  0  0  0  0  0  0  0
  -22.0600  -12.8680   22.0830 N   0  0  0  0  0  0  0  0  0  0  0  0
  -22.3230  -14.6020   20.7060 O   0  0  0  0  0  0  0  0  0  0  0  0
  -22.4390  -12.0380   22.5150 H   0  0  0  0  0  0  0  0  0  0  0  0
  -21.1230  -13.1600   22.3210 H   0  0  0  0  0  0  0  0  0  0  0  0
  -25.3750  -15.2760   20.3960 N   0  0  0  0  0  0  0  0  0  0  0  0
  -24.6160  -15.9290   20.5550 H   0  0  0  0  0  0  0  0  0  0  0  0
  -26.2430  -15.7360   20.1380 H   0  0  0  0  0  0  0  0  0  0  0  0
  -27.8730  -24.3010   20.1440 C   0  0  0  0  0  3  0  0  0  0  0  0
  -28.1530  -25.9150   20.3080 O   0  0  0  0  0  0  0  0  0  0  0  0
  -24.6370  -31.9030   23.2560 C   0  0  0  0  0  0  0  0  0  0  0  0
  -27.1530  -27.0160   20.2440 C   0  0  0  0  0  0  0  0  0  0  0  0
  -23.4330  -30.5110   21.6220 C   0  0  0  0  0  3  0  0  0  0  0  0
  -24.8690  -28.9010   20.1970 C   0  0  0  0  0  0  0  0  0  0  0  0
  -25.9990  -30.7130   21.4690 C   0  0  0  0  0  2  0  0  0  0  0  0
  -26.0600  -29.3030   20.8140 C   0  0  0  0  0  0  0  0  0  0  0  0
  -27.2000  -28.3820   20.8120 C   0  0  0  0  0  3  0  0  0  0  0  0
  -25.9340  -26.7630   19.5800 C   0  0  0  0  0  3  0  0  0  0  0  0
  -24.8300  -27.6520   19.5600 C   0  0  0  0  0  3  0  0  0  0  0  0
  -23.6560  -29.8270   20.2460 C   0  0  0  0  0  2  0  0  0  0  0  0
  -24.7120  -31.0690   22.1690 N   0  0  0  0  0  0  0  0  0  0  0  0
  -23.5500  -32.1980   23.7790 O   0  0  0  0  0  0  0  0  0  0  0  0
  -22.7380  -29.5180   22.5900 C   0  0  0  0  0  0  0  0  0  0  0  0
  -21.4090  -29.3520   22.4610 N   0  0  0  0  0  0  0  0  0  0  0  0
  -23.4010  -28.8970   23.4240 O   0  0  0  0  0  0  0  0  0  0  0  0
  -20.9260  -29.9030   21.7670 H   0  0  0  0  0  0  0  0  0  0  0  0
  -18.0250  -28.1440   22.9650 C   0  0  0  0  0  0  0  0  0  0  0  0
  -20.5840  -28.4170   23.2350 C   0  0  0  0  0  3  0  0  0  0  0  0
  -20.6900  -26.9820   22.6710 C   0  0  0  0  0  2  0  0  0  0  0  0
  -19.5910  -26.6510   21.6550 C   0  0  0  0  0  2  0  0  0  0  0  0
  -18.2070  -26.7940   22.2930 C   0  0  0  0  0  2  0  0  0  0  0  0
  -19.1400  -28.9140   23.3930 C   0  0  0  0  0  0  0  0  0  0  0  0
  -18.9130  -30.1750   23.9850 C   0  0  0  0  0  3  0  0  0  0  0  0
  -17.6060  -30.6690   24.1490 C   0  0  0  0  0  3  0  0  0  0  0  0
  -16.5050  -29.8980   23.7350 C   0  0  0  0  0  3  0  0  0  0  0  0
  -16.7150  -28.6370   23.1500 C   0  0  0  0  0  3  0  0  0  0  0  0
  -25.9130  -32.5420   23.8840 C   0  0  0  0  0  3  0  0  0  0  0  0
  -26.4090  -31.7850   25.1800 C   0  0  1  0  0  0  0  0  0  0  0  0
  -25.3030  -31.5720   26.2400 C   0  0  0  0  0  1  0  0  0  0  0  0
  -26.9840  -30.3960   24.8210 C   0  0  0  0  0  1  0  0  0  0  0  0
  -27.5590  -32.5780   25.8420 C   0  0  0  0  0  1  0  0  0  0  0  0
  -25.6050  -33.9460   24.2070 N   0  0  0  0  0  0  0  0  0  0  0  0
  -25.9150  -34.9960   23.4350 C   0  0  0  0  0  0  0  0  0  0  0  0
  -26.5530  -34.8840   22.3840 O   0  0  0  0  0  0  0  0  0  0  0  0
  -25.0350  -34.1050   25.0240 H   0  0  0  0  0  0  0  0  0  0  0  0
  -24.1630  -36.7840   23.1490 C   0  0  0  0  0  1  0  0  0  0  0  0
  -25.4460  -36.3910   23.8990 C   0  0  0  0  0  3  0  0  0  0  0  0
  -27.6130  -37.3030   24.6130 C   0  0  0  0  0  1  0  0  0  0  0  0
  -26.4670  -37.4470   23.7190 N   0  0  0  0  0  0  0  0  0  0  0  0
  -26.0630  -38.3670   23.8670 H   0  0  0  0  0  0  0  0  0  0  0  0
  2  1  1  0
  2  3  2  0
  4 13  1  0
  5 10  1  0
  6  7  1  0
  6  5  1  0
  8  7  1  0
  8 19  1  0
  8  9  1  0
 10  4  1  0
 10  9  1  0
 11  4  2  0
 12 13  1  0
 12  3  1  0
 13 15  1  0
 14 12  2  0
 16 17  2  0
 17 36  1  0
 18 17  1  0
 18 21  1  0
 19 20  1  0
 19 16  1  0
 20 18  2  0
 21 22  1  0
 22 23  2  0
 24 27  1  0
 24 23  1  0
 25 24  2  0
 26 25  1  0
 26 21  2  0
 27 28  1  0
 28 29  1  0
 29 30  2  0
 31 30  1  0
 31 35  1  0
 32 31  2  0
 33 28  2  0
 33 32  1  0
 34 33  1  0
 36 37  1  0
 37 40  1  0
 37 39  1  0
 38 36  2  0
 41 16  1  0
 41 42  1  0
 43 41  1  0
 44 45  1  0
 44  1  2  0
 46 57  2  0
 47 45  1  0
 47 52  1  0
 48 56  1  0
 48 58  1  0
 49 55  1  0
 49 51  1  0
 50 56  1  0
 51 50  1  0
 52 51  2  0
 53 47  2  0
 54 53  1  0
 54 49  2  0
 55 48  1  0
 56 46  1  0
 58 60  2  0
 59 58  1  0
 61 59  1  0
 62 71  2  0
 62 67  1  0
 63 59  1  0
 63 67  1  0
 64 63  1  0
 65 66  1  0
 65 64  1  0
 66 62  1  0
 67 68  2  0
 68 69  1  0
 70 69  2  0
 71 70  1  0
 72 46  1  0
 72 77  1  0
 72 73  1  0
 73 76  1  1
 73 74  1  0
 75 73  1  0
 77 80  1  0
 78 82  1  0
 78 77  1  0
 79 78  2  0
 82 81  1  0
 84 85  1  0
 84 82  1  0
 84 83  1  0
M  ISO  4   4 100  13 100  44 101  45 101
M  END
>  <TORSDO>  (65) 
F 19

>  <SCORE>  (65) 
-16.043

>  <name>  (65) 
64

>  <ligand_id>  (65) 
64

>  <original_smiles>  (65) 
[H]c1c([H])c([H])c2c(c1[H])C([H])([H])C([H])([H])C([H])([H])C2([H])N([H])C(=O)C1([H])N(C(=O)C([H])(N([H])C(=O)C([H])(N([H])C([H])([H])[H])C([H])([H])[H])C(C([H])([H])[H])(C([H])([H])[H])C([H])([H])[H])C([H])([H])c2c([H])c(OC([H])([H])C([H])([H])C([H])([H])C([H])([H])C(=O)N([H])C(=O)N3C([H])([H])C([H])([H])C([H])([H])C([H])(n4nc(-c5c([H])c([H])c(Oc6c([H])c([H])c(F)c([H])c6F)c([H])c5[H])c(C(=O)N([H])[H])c4N([H])[H])C3([H])[H])c([H])c([H])c2C1([H])[H]

>  <smiles>  (65) 
[H]c1c([H])c([H])c2c(c1[H])C([H])([H])C([H])([H])C([H])([H])C2([H])N([H])C(=O)C1([H])N(C(=O)C([H])(N([H])C(=O)C([H])(N([H])C([H])([H])[H])C([H])([H])[H])C(C([H])([H])[H])(C([H])([H])[H])C([H])([H])[H])C([H])([H])c2c([H])c(OC([H])([H])C([H])([H])C([H])([H])C([H])([H])C(=O)N([H])C(=O)N3C([H])([H])C([H])([H])C([H])([H])C([H])(n4nc(-c5c([H])c([H])c(Oc6c([H])c([H])c(F)c([H])c6F)c([H])c5[H])c(C(=O)N([H])[H])c4N([H])[H])C3([H])[H])c([H])c([H])c2C1([H])[H]

$$$$
65:0:0
     RDKit          3D

 92 99  0  0  1  0  0  0  0  0999 V2000
  -29.9450  -21.9660   20.6080 C   0  0  0  0  0  0  0  0  0  0  0  0
  -29.2340  -23.0980   20.7790 N   0  0  0  0  0  0  0  0  0  0  0  0
  -30.9720  -21.9310   19.9230 O   0  0  0  0  0  0  0  0  0  0  0  0
  -28.4190  -23.0170   21.3710 H   0  0  0  0  0  0  0  0  0  0  0  0
  -29.3340  -20.8350   22.8540 C   0  0  0  0  0  1  0  0  0  0  0  0
  -29.4390  -20.6810   21.3220 C   0  0  0  0  0  3  0  0  0  0  0  0
  -29.7910  -18.2200   20.8110 C   0  0  0  0  0  0  0  0  0  0  0  0
  -30.2370  -19.4800   20.9890 N   0  0  0  0  0  0  0  0  0  0  0  0
  -28.5950  -17.9250   20.8850 O   0  0  0  0  0  0  0  0  0  0  0  0
  -31.2260  -19.6510   20.8610 H   0  0  0  0  0  0  0  0  0  0  0  0
  -30.8330  -17.1240   20.5070 C   0  0  0  0  0  2  0  0  0  0  0  0
  -30.9670  -14.6740   20.0850 C   0  0  0  0  0  0  0  0  0  0  0  0
  -30.6280  -12.4850   18.9910 C   0  0  0  0  0  2  0  0  0  0  0  0
  -29.6730  -12.6650   17.7950 C   0  0  0  0  0  2  0  0  0  0  0  0
  -28.2060  -12.5410   18.2500 C   0  0  0  0  0  2  0  0  0  0  0  0
  -27.8880  -13.3970   19.5060 C   0  0  0  0  0  3  0  0  0  0  0  0
  -28.9650  -13.2100   20.5990 C   0  0  0  0  0  2  0  0  0  0  0  0
  -30.2780  -13.5010   20.0000 N   0  0  0  0  0  0  0  0  0  0  0  0
  -32.0820  -14.8180   19.5760 O   0  0  0  0  0  0  0  0  0  0  0  0
  -30.3260  -15.7370   20.6110 N   0  0  0  0  0  0  0  0  0  0  0  0
  -29.3990  -15.6110   20.9950 H   0  0  0  0  0  0  0  0  0  0  0  0
  -25.5000  -13.9990   20.2570 C   0  0  0  0  0  0  0  0  0  0  0  0
  -24.4410  -13.2260   20.6480 C   0  0  0  0  0  0  0  0  0  0  0  0
  -24.9050  -11.8740   20.6160 C   0  0  0  0  0  0  0  0  0  0  0  0
  -26.5450  -13.1220   20.0150 N   0  0  0  0  0  0  0  0  0  0  0  0
  -26.1910  -11.8390   20.2880 N   0  0  0  0  0  0  0  0  0  0  0  0
  -24.1850  -10.6110   20.8290 C   0  0  0  0  0  0  0  0  0  0  0  0
  -24.5880   -9.6890   21.8220 C   0  0  0  0  0  3  0  0  0  0  0  0
  -23.8690   -8.4900   22.0200 C   0  0  0  0  0  3  0  0  0  0  0  0
  -22.7340   -8.2040   21.2250 C   0  0  0  0  0  0  0  0  0  0  0  0
  -22.3490   -9.1160   20.2250 C   0  0  0  0  0  3  0  0  0  0  0  0
  -23.0680  -10.3060   20.0260 C   0  0  0  0  0  3  0  0  0  0  0  0
  -21.9890   -7.0540   21.3270 O   0  0  0  0  0  0  0  0  0  0  0  0
  -21.8400   -6.3980   22.5220 C   0  0  0  0  0  0  0  0  0  0  0  0
  -21.2710   -7.0270   23.6510 C   0  0  0  0  0  3  0  0  0  0  0  0
  -21.0680   -6.2950   24.8380 C   0  0  0  0  0  3  0  0  0  0  0  0
  -21.4270   -4.9360   24.8980 C   0  0  0  0  0  0  0  0  0  0  0  0
  -21.9910   -4.3050   23.7740 C   0  0  0  0  0  3  0  0  0  0  0  0
  -22.1940   -5.0340   22.5890 C   0  0  0  0  0  0  0  0  0  0  0  0
  -22.7160   -4.4170   21.5010 F   0  0  0  0  0  0  0  0  0  0  0  0
  -21.2290   -4.2310   26.0370 F   0  0  0  0  0  0  0  0  0  0  0  0
  -23.0450  -13.7000   20.9490 C   0  0  0  0  0  0  0  0  0  0  0  0
  -22.3400  -13.0110   21.8380 N   0  0  0  0  0  0  0  0  0  0  0  0
  -22.5900  -14.7170   20.4280 O   0  0  0  0  0  0  0  0  0  0  0  0
  -22.7250  -12.1900   22.2830 H   0  0  0  0  0  0  0  0  0  0  0  0
  -21.4050  -13.3120   22.0810 H   0  0  0  0  0  0  0  0  0  0  0  0
  -25.6540  -15.3690   20.0640 N   0  0  0  0  0  0  0  0  0  0  0  0
  -24.8860  -16.0240   20.1870 H   0  0  0  0  0  0  0  0  0  0  0  0
  -26.5040  -15.8180   19.7450 H   0  0  0  0  0  0  0  0  0  0  0  0
  -29.5600  -24.4560   20.2960 C   0  0  0  0  0  2  0  0  0  0  0  0
  -28.2840  -25.3190   20.1010 C   0  0  0  0  0  2  0  0  0  0  0  0
  -28.4730  -26.7540   20.0190 O   0  0  0  0  0  0  0  0  0  0  0  0
  -24.6460  -31.9050   23.1780 C   0  0  0  0  0  0  0  0  0  0  0  0
  -27.3080  -27.5120   20.0070 C   0  0  0  0  0  0  0  0  0  0  0  0
  -23.4400  -30.5090   21.5340 C   0  0  0  0  0  3  0  0  0  0  0  0
  -24.8970  -29.0150   20.0680 C   0  0  0  0  0  0  0  0  0  0  0  0
  -25.9630  -30.8950   21.3160 C   0  0  0  0  0  2  0  0  0  0  0  0
  -26.0600  -29.5370   20.6460 C   0  0  0  0  0  0  0  0  0  0  0  0
  -27.2690  -28.7980   20.6070 C   0  0  0  0  0  3  0  0  0  0  0  0
  -26.1180  -27.0210   19.4180 C   0  0  0  0  0  3  0  0  0  0  0  0
  -24.9220  -27.7600   19.4440 C   0  0  0  0  0  3  0  0  0  0  0  0
  -23.6420  -29.8560   20.1430 C   0  0  0  0  0  2  0  0  0  0  0  0
  -24.7000  -31.1190   22.0650 N   0  0  0  0  0  0  0  0  0  0  0  0
  -23.5680  -32.1540   23.7360 O   0  0  0  0  0  0  0  0  0  0  0  0
  -22.8200  -29.4610   22.4870 C   0  0  0  0  0  0  0  0  0  0  0  0
  -21.4980  -29.2480   22.3690 N   0  0  0  0  0  0  0  0  0  0  0  0
  -23.5250  -28.8420   23.2880 O   0  0  0  0  0  0  0  0  0  0  0  0
  -20.9850  -29.8050   21.7000 H   0  0  0  0  0  0  0  0  0  0  0  0
  -18.1620  -27.9560   22.8670 C   0  0  0  0  0  0  0  0  0  0  0  0
  -20.7110  -28.2850   23.1370 C   0  0  0  0  0  3  0  0  0  0  0  0
  -20.8510  -26.8580   22.5580 C   0  0  0  0  0  2  0  0  0  0  0  0
  -19.7600  -26.5090   21.5410 C   0  0  0  0  0  2  0  0  0  0  0  0
  -18.3750  -26.6130   22.1870 C   0  0  0  0  0  2  0  0  0  0  0  0
  -19.2600  -28.7490   23.2980 C   0  0  0  0  0  0  0  0  0  0  0  0
  -19.0070  -30.0050   23.8890 C   0  0  0  0  0  3  0  0  0  0  0  0
  -17.6890  -30.4700   24.0590 C   0  0  0  0  0  3  0  0  0  0  0  0
  -16.6060  -29.6740   23.6440 C   0  0  0  0  0  3  0  0  0  0  0  0
  -16.8440  -28.4200   23.0540 C   0  0  0  0  0  3  0  0  0  0  0  0
  -25.9300  -32.5490   23.7830 C   0  0  0  0  0  3  0  0  0  0  0  0
  -25.6100  -33.9430   24.1150 N   0  0  0  0  0  0  0  0  0  0  0  0
  -25.9330  -34.9990   23.3590 C   0  0  0  0  0  0  0  0  0  0  0  0
  -26.6070  -34.9070   22.3300 O   0  0  0  0  0  0  0  0  0  0  0  0
  -25.0170  -34.0890   24.9170 H   0  0  0  0  0  0  0  0  0  0  0  0
  -24.1950  -36.7830   23.0000 C   0  0  0  0  0  1  0  0  0  0  0  0
  -25.4300  -36.3820   23.8200 C   0  0  0  0  0  3  0  0  0  0  0  0
  -27.5470  -37.2810   24.6830 C   0  0  0  0  0  1  0  0  0  0  0  0
  -26.4560  -37.4420   23.7250 N   0  0  0  0  0  0  0  0  0  0  0  0
  -26.0420  -38.3590   23.8690 H   0  0  0  0  0  0  0  0  0  0  0  0
  -26.4690  -31.7830   25.0530 C   0  0  1  0  0  0  0  0  0  0  0  0
  -25.3860  -31.5360   26.1300 C   0  0  0  0  0  1  0  0  0  0  0  0
  -27.0680  -30.4130   24.6570 C   0  0  0  0  0  1  0  0  0  0  0  0
  -27.6130  -32.5960   25.7070 C   0  0  0  0  0  1  0  0  0  0  0  0
  1  2  1  0
  1  6  1  0
  2  4  1  0
  3  1  2  0
  6  5  1  0
  7  9  2  0
  7  8  1  0
  8  6  1  0
 10  8  1  0
 11 20  1  0
 11  7  1  0
 12 20  1  0
 13 18  1  0
 14 15  1  0
 14 13  1  0
 16 15  1  0
 16 25  1  0
 16 17  1  0
 18 12  1  0
 18 17  1  0
 19 12  2  0
 20 21  1  0
 22 23  2  0
 23 42  1  0
 24 23  1  0
 24 27  1  0
 25 22  1  0
 25 26  1  0
 26 24  2  0
 27 28  1  0
 28 29  2  0
 30 33  1  0
 30 29  1  0
 31 30  2  0
 32 31  1  0
 32 27  2  0
 33 34  1  0
 34 39  2  0
 34 35  1  0
 35 36  2  0
 36 37  1  0
 37 41  1  0
 38 37  2  0
 39 38  1  0
 40 39  1  0
 42 43  1  0
 43 46  1  0
 43 45  1  0
 44 42  2  0
 47 48  1  0
 47 22  1  0
 49 47  1  0
 50  2  1  0
 51 50  1  0
 52 51  1  0
 53 64  2  0
 54 52  1  0
 54 59  1  0
 55 63  1  0
 55 65  1  0
 56 62  1  0
 56 58  1  0
 57 63  1  0
 58 57  1  0
 59 58  2  0
 60 61  1  0
 60 54  2  0
 61 56  2  0
 62 55  1  0
 63 53  1  0
 65 67  2  0
 66 65  1  0
 68 66  1  0
 69 78  2  0
 69 74  1  0
 70 66  1  0
 70 74  1  0
 71 70  1  0
 72 73  1  0
 72 71  1  0
 73 69  1  0
 74 75  2  0
 75 76  1  0
 77 76  2  0
 78 77  1  0
 79 53  1  0
 79 80  1  0
 79 89  1  0
 80 83  1  0
 81 85  1  0
 81 80  1  0
 82 81  2  0
 85 84  1  0
 87 85  1  0
 87 88  1  0
 87 86  1  0
 89 92  1  1
 89 90  1  0
 91 89  1  0
M  ISO  4  12 100  20 100  51 101  52 101
M  END
>  <TORSDO>  (66) 
F 21

>  <SCORE>  (66) 
-12.340

>  <name>  (66) 
65

>  <ligand_id>  (66) 
65

>  <original_smiles>  (66) 
[H]c1c([H])c([H])c2c(c1[H])C([H])([H])C([H])([H])C([H])([H])C2([H])N([H])C(=O)C1([H])N(C(=O)C([H])(N([H])C(=O)C([H])(N([H])C([H])([H])[H])C([H])([H])[H])C(C([H])([H])[H])(C([H])([H])[H])C([H])([H])[H])C([H])([H])c2c([H])c(OC([H])([H])C([H])([H])N([H])C(=O)C([H])(N([H])C(=O)C([H])([H])N([H])C(=O)N3C([H])([H])C([H])([H])C([H])([H])C([H])(n4nc(-c5c([H])c([H])c(Oc6c([H])c([H])c(F)c([H])c6F)c([H])c5[H])c(C(=O)N([H])[H])c4N([H])[H])C3([H])[H])C([H])([H])[H])c([H])c([H])c2C1([H])[H]

>  <smiles>  (66) 
[H]c1c([H])c([H])c2c(c1[H])C([H])([H])C([H])([H])C([H])([H])C2([H])N([H])C(=O)C1([H])N(C(=O)C([H])(N([H])C(=O)C([H])(N([H])C([H])([H])[H])C([H])([H])[H])C(C([H])([H])[H])(C([H])([H])[H])C([H])([H])[H])C([H])([H])c2c([H])c(OC([H])([H])C([H])([H])N([H])C(=O)C([H])(N([H])C(=O)C([H])([H])N([H])C(=O)N3C([H])([H])C([H])([H])C([H])([H])C([H])(n4nc(-c5c([H])c([H])c(Oc6c([H])c([H])c(F)c([H])c6F)c([H])c5[H])c(C(=O)N([H])[H])c4N([H])[H])C3([H])[H])C([H])([H])[H])c([H])c([H])c2C1([H])[H]

$$$$
66:0:0
     RDKit          3D

113121  0  0  1  0  0  0  0  0999 V2000
  -30.3470  -19.9600   19.0370 C   0  0  0  0  0  0  0  0  0  0  0  0
  -29.8860  -21.1180   19.3480 N   0  0  0  0  0  0  0  0  0  0  0  0
  -28.2970  -21.9150   17.4960 O   0  0  0  0  0  0  0  0  0  0  0  0
  -30.7380  -22.5910   17.4140 O   0  0  0  0  0  0  0  0  0  0  0  0
  -29.5350  -22.2790   18.2020 S   0  0  2  0  0  0  0  0  0  0  0  0
  -29.1890  -23.7430   19.2500 C   0  0  0  0  0  2  0  0  0  0  0  0
  -28.5810  -24.8640   18.3780 C   0  0  0  0  0  2  0  0  0  0  0  0
  -28.9020  -26.3160   18.7980 C   0  0  0  0  0  2  0  0  0  0  0  0
  -28.4000  -26.7170   20.0740 O   0  0  0  0  0  0  0  0  0  0  0  0
  -24.6130  -31.8690   23.2120 C   0  0  0  0  0  0  0  0  0  0  0  0
  -27.2340  -27.4500   20.0760 C   0  0  0  0  0  0  0  0  0  0  0  0
  -23.4000  -30.4930   21.5520 C   0  0  0  0  0  3  0  0  0  0  0  0
  -24.8460  -28.9610   20.1150 C   0  0  0  0  0  0  0  0  0  0  0  0
  -25.9290  -30.8340   21.3670 C   0  0  0  0  0  2  0  0  0  0  0  0
  -26.0040  -29.4690   20.7160 C   0  0  0  0  0  0  0  0  0  0  0  0
  -27.1980  -28.7130   20.7090 C   0  0  0  0  0  3  0  0  0  0  0  0
  -26.0550  -26.9490   19.4850 C   0  0  0  0  0  3  0  0  0  0  0  0
  -24.8640  -27.6970   19.5030 C   0  0  0  0  0  3  0  0  0  0  0  0
  -23.6070  -29.8260   20.1660 C   0  0  0  0  0  2  0  0  0  0  0  0
  -24.6650  -31.0800   22.1020 N   0  0  0  0  0  0  0  0  0  0  0  0
  -23.5320  -32.1450   23.7520 O   0  0  0  0  0  0  0  0  0  0  0  0
  -22.7400  -29.4660   22.5000 C   0  0  0  0  0  0  0  0  0  0  0  0
  -21.4130  -29.3030   22.3740 N   0  0  0  0  0  0  0  0  0  0  0  0
  -23.4180  -28.8210   23.3040 O   0  0  0  0  0  0  0  0  0  0  0  0
  -20.9290  -29.8760   21.6970 H   0  0  0  0  0  0  0  0  0  0  0  0
  -18.0270  -28.1370   22.8490 C   0  0  0  0  0  0  0  0  0  0  0  0
  -20.5860  -28.3660   23.1320 C   0  0  0  0  0  3  0  0  0  0  0  0
  -20.6760  -26.9400   22.5420 C   0  0  0  0  0  2  0  0  0  0  0  0
  -19.5740  -26.6380   21.5210 C   0  0  0  0  0  2  0  0  0  0  0  0
  -18.1920  -26.7920   22.1620 C   0  0  0  0  0  2  0  0  0  0  0  0
  -19.1520  -28.8830   23.2910 C   0  0  0  0  0  0  0  0  0  0  0  0
  -18.9450  -30.1440   23.8920 C   0  0  0  0  0  3  0  0  0  0  0  0
  -17.6450  -30.6580   24.0570 C   0  0  0  0  0  3  0  0  0  0  0  0
  -16.5340  -29.9080   23.6330 C   0  0  0  0  0  3  0  0  0  0  0  0
  -16.7260  -28.6500   23.0350 C   0  0  0  0  0  3  0  0  0  0  0  0
  -25.9030  -32.4830   23.8410 C   0  0  0  0  0  3  0  0  0  0  0  0
  -25.5890  -33.8630   24.2340 N   0  0  0  0  0  0  0  0  0  0  0  0
  -25.9040  -34.9480   23.5130 C   0  0  0  0  0  0  0  0  0  0  0  0
  -26.5600  -34.8930   22.4700 O   0  0  0  0  0  0  0  0  0  0  0  0
  -25.0050  -33.9800   25.0480 H   0  0  0  0  0  0  0  0  0  0  0  0
  -24.1490  -36.7320   23.2640 C   0  0  0  0  0  1  0  0  0  0  0  0
  -25.4110  -36.3120   24.0340 C   0  0  0  0  0  3  0  0  0  0  0  0
  -27.5580  -37.1810   24.8460 C   0  0  0  0  0  1  0  0  0  0  0  0
  -26.4300  -37.3800   23.9400 N   0  0  0  0  0  0  0  0  0  0  0  0
  -26.0190  -38.2880   24.1400 H   0  0  0  0  0  0  0  0  0  0  0  0
  -26.4460  -31.6600   25.0730 C   0  0  1  0  0  0  0  0  0  0  0  0
  -25.3730  -31.3700   26.1480 C   0  0  0  0  0  1  0  0  0  0  0  0
  -27.0280  -30.3040   24.6100 C   0  0  0  0  0  1  0  0  0  0  0  0
  -27.6040  -32.4310   25.7480 C   0  0  0  0  0  1  0  0  0  0  0  0
  -30.6430  -19.4670   17.5840 C   0  0  0  0  0  3  0  0  0  0  0  0
  -29.7980  -18.2770   17.1130 C   0  0  0  0  0  3  0  0  0  0  0  0
  -28.3140  -18.3760   17.0890 C   0  0  0  0  0  2  0  0  0  0  0  0
  -27.9710  -17.1120   16.3120 C   0  0  0  0  0  3  0  0  0  0  0  0
  -30.2420  -17.1570   16.7220 N   0  0  0  0  0  2  0  0  0  0  0  0
  -29.1470  -16.3070   16.4340 O   0  0  0  0  0  0  0  0  0  0  0  0
  -26.7440  -16.3550   16.8470 C   0  0  0  0  0  2  0  0  0  0  0  0
  -26.4190  -15.0860   16.0410 C   0  0  0  0  0  2  0  0  0  0  0  0
  -25.1540  -14.3710   16.5440 C   0  0  0  0  0  2  0  0  0  0  0  0
  -24.8540  -13.0790   15.7680 C   0  0  0  0  0  2  0  0  0  0  0  0
  -23.1470  -11.2440   15.8950 C   0  0  0  0  0  0  0  0  0  0  0  0
  -21.9580  -10.8440   16.3340 N   0  0  0  0  0  0  0  0  0  0  0  0
  -23.8840  -10.4130   15.1620 N   0  0  0  0  0  4  0  0  0  0  0  0
  -23.5820  -12.4750   16.1960 N   0  0  0  0  0  0  0  0  0  0  0  0
  -21.5860   -9.9280   16.1270 H   0  0  0  0  0  0  0  0  0  0  0  0
  -21.3580  -11.4610   16.8630 H   0  0  0  0  0  0  0  0  0  0  0  0
  -23.5720   -9.4830   14.9220 H   0  0  0  0  0  0  0  0  0  0  0  0
  -24.7860  -10.6970   14.8100 H   0  0  0  0  0  0  0  0  0  0  0  0
  -22.9700  -13.0870   16.7160 H   0  0  0  0  0  0  0  0  0  0  0  0
  -32.0880  -19.2090   17.4100 N   0  0  0  0  0  4  0  0  0  0  0  0
  -32.3890  -18.4220   17.9550 H   0  0  0  0  0  0  0  0  0  0  0  0
  -32.6270  -20.0170   17.6680 H   0  0  0  0  0  0  0  0  0  0  0  0
  -32.2760  -19.0010   16.4450 H   0  0  0  0  0  0  0  0  0  0  0  0
  -30.7420  -19.0200   20.2030 C   0  0  0  0  0  2  0  0  0  0  0  0
  -30.1090  -17.6060   20.2370 C   0  0  0  0  0  2  0  0  0  0  0  0
  -30.5130  -16.7640   21.4680 C   0  0  0  0  0  2  0  0  0  0  0  0
  -30.7240  -14.4210   20.6200 C   0  0  0  0  0  0  0  0  0  0  0  0
  -30.4210  -12.2960   19.4080 C   0  0  0  0  0  2  0  0  0  0  0  0
  -29.4880  -12.5190   18.2000 C   0  0  0  0  0  2  0  0  0  0  0  0
  -28.0120  -12.3730   18.6160 C   0  0  0  0  0  2  0  0  0  0  0  0
  -27.6650  -13.2040   19.8790 C   0  0  0  0  0  3  0  0  0  0  0  0
  -28.7040  -12.9580   20.9970 C   0  0  0  0  0  2  0  0  0  0  0  0
  -30.0410  -13.2580   20.4530 N   0  0  0  0  0  0  0  0  0  0  0  0
  -31.8130  -14.6490   20.0860 O   0  0  0  0  0  0  0  0  0  0  0  0
  -30.0860  -15.3680   21.3270 N   0  0  0  0  0  0  0  0  0  0  0  0
  -29.2040  -15.1050   21.7430 H   0  0  0  0  0  0  0  0  0  0  0  0
  -25.2610  -13.8160   20.5690 C   0  0  0  0  0  0  0  0  0  0  0  0
  -24.1840  -13.0430   20.9150 C   0  0  0  0  0  0  0  0  0  0  0  0
  -24.6400  -11.6900   20.8710 C   0  0  0  0  0  0  0  0  0  0  0  0
  -26.3040  -12.9330   20.3380 N   0  0  0  0  0  0  0  0  0  0  0  0
  -25.9320  -11.6490   20.5750 N   0  0  0  0  0  0  0  0  0  0  0  0
  -23.9060  -10.4290   21.0380 C   0  0  0  0  0  0  0  0  0  0  0  0
  -24.3610   -9.4210   21.9170 C   0  0  0  0  0  3  0  0  0  0  0  0
  -23.6290   -8.2250   22.0750 C   0  0  0  0  0  3  0  0  0  0  0  0
  -22.4270   -8.0280   21.3540 C   0  0  0  0  0  0  0  0  0  0  0  0
  -21.9910   -9.0240   20.4620 C   0  0  0  0  0  3  0  0  0  0  0  0
  -22.7250  -10.2120   20.3020 C   0  0  0  0  0  3  0  0  0  0  0  0
  -21.6640   -6.8870   21.4230 O   0  0  0  0  0  0  0  0  0  0  0  0
  -21.6860   -6.0730   22.5270 C   0  0  0  0  0  0  0  0  0  0  0  0
  -21.4010   -6.5630   23.8210 C   0  0  0  0  0  3  0  0  0  0  0  0
  -21.3660   -5.6780   24.9170 C   0  0  0  0  0  3  0  0  0  0  0  0
  -21.6050   -4.3050   24.7220 C   0  0  0  0  0  0  0  0  0  0  0  0
  -21.8820   -3.8140   23.4340 C   0  0  0  0  0  3  0  0  0  0  0  0
  -21.9190   -4.6960   22.3400 C   0  0  0  0  0  0  0  0  0  0  0  0
  -22.1660   -4.2140   21.0980 F   0  0  0  0  0  0  0  0  0  0  0  0
  -21.5640   -3.4530   25.7730 F   0  0  0  0  0  0  0  0  0  0  0  0
  -22.7870  -13.5230   21.1830 C   0  0  0  0  0  0  0  0  0  0  0  0
  -22.0520  -12.8220   22.0400 N   0  0  0  0  0  0  0  0  0  0  0  0
  -22.3550  -14.5530   20.6680 O   0  0  0  0  0  0  0  0  0  0  0  0
  -22.4140  -11.9890   22.4790 H   0  0  0  0  0  0  0  0  0  0  0  0
  -21.1140  -13.1240   22.2620 H   0  0  0  0  0  0  0  0  0  0  0  0
  -25.4340  -15.1870   20.4130 N   0  0  0  0  0  0  0  0  0  0  0  0
  -24.6760  -15.8470   20.5460 H   0  0  0  0  0  0  0  0  0  0  0  0
  -26.3050  -15.6320   20.1570 H   0  0  0  0  0  0  0  0  0  0  0  0
  1  2  2  0
  1 73  1  0
  3  5  2  0
  4  5  2  0
  5  6  1  1
  5  2  1  0
  7  8  1  0
  7  6  1  0
  8  9  1  0
  9 11  1  0
 10 21  2  0
 11 16  1  0
 12 20  1  0
 12 22  1  0
 13 19  1  0
 13 15  1  0
 14 20  1  0
 15 14  1  0
 16 15  2  0
 17 18  1  0
 17 11  2  0
 18 13  2  0
 19 12  1  0
 20 10  1  0
 22 24  2  0
 23 22  1  0
 25 23  1  0
 26 35  2  0
 26 31  1  0
 27 23  1  0
 27 31  1  0
 28 27  1  0
 29 30  1  0
 29 28  1  0
 30 26  1  0
 31 32  2  0
 32 33  1  0
 34 33  2  0
 35 34  1  0
 36 10  1  0
 36 37  1  0
 36 46  1  0
 37 40  1  0
 38 42  1  0
 38 37  1  0
 39 38  2  0
 42 41  1  0
 44 42  1  0
 44 45  1  0
 44 43  1  0
 46 49  1  1
 46 47  1  0
 48 46  1  0
 50  1  1  0
 51 50  1  0
 52 51  1  0
 53 55  1  0
 53 56  1  0
 53 52  1  0
 54 51  1  0
 55 54  1  0
 57 58  1  0
 57 56  1  0
 59 63  1  0
 59 58  1  0
 60 63  1  0
 60 61  1  0
 61 65  1  0
 62 60  2  0
 63 68  1  0
 64 61  1  0
 66 62  1  0
 67 62  1  0
 69 50  1  0
 69 71  1  0
 69 70  1  0
 72 69  1  0
 73 74  1  0
 74 75  1  0
 76 84  1  0
 77 82  1  0
 78 79  1  0
 78 77  1  0
 80 79  1  0
 80 89  1  0
 80 81  1  0
 82 76  1  0
 82 81  1  0
 83 76  2  0
 84 75  1  0
 84 85  1  0
 86 87  2  0
 87106  1  0
 88 87  1  0
 88 91  1  0
 89 86  1  0
 89 90  1  0
 90 88  2  0
 91 92  1  0
 92 93  2  0
 94 97  1  0
 94 93  1  0
 95 94  2  0
 96 95  1  0
 96 91  2  0
 97 98  1  0
 98 99  1  0
 99100  2  0
101100  1  0
101105  1  0
102101  2  0
103 98  2  0
103102  1  0
104103  1  0
106107  1  0
107110  1  0
107109  1  0
108106  2  0
111112  1  0
111 86  1  0
113111  1  0
M  ISO  4   8 101   9 101  76 100  84 100
M  END
>  <TORSDO>  (67) 
F 31

>  <SCORE>  (67) 
35.739

>  <name>  (67) 
66

>  <ligand_id>  (67) 
66

>  <original_smiles>  (67) 
[H]c1c([H])c([H])c2c(c1[H])C([H])([H])C([H])([H])C([H])([H])C2([H])N([H])C(=O)C1([H])N(C(=O)C([H])(N([H])C(=O)C([H])(N([H])C([H])([H])[H])C([H])([H])[H])C(C([H])([H])[H])(C([H])([H])[H])C([H])([H])[H])C([H])([H])c2c([H])c(OC([H])([H])C([H])([H])C([H])([H])S(=O)(=O)N=C(C([H])([H])C([H])([H])C([H])([H])N([H])C(=O)N3C([H])([H])C([H])([H])C([H])([H])C([H])(n4nc(-c5c([H])c([H])c(Oc6c([H])c([H])c(F)c([H])c6F)c([H])c5[H])c(C(=O)N([H])[H])c4N([H])[H])C3([H])[H])C([H])(C3=NOC([H])(C([H])([H])C([H])([H])C([H])([H])C([H])([H])N([H])C(N([H])[H])=[N+]([H])[H])C3([H])[H])[N+]([H])([H])[H])c([H])c([H])c2C1([H])[H]

>  <smiles>  (67) 
[H]c1c([H])c([H])c2c(c1[H])C([H])([H])C([H])([H])C([H])([H])C2([H])N([H])C(=O)C1([H])N(C(=O)C([H])(N([H])C(=O)C([H])(N([H])C([H])([H])[H])C([H])([H])[H])C(C([H])([H])[H])(C([H])([H])[H])C([H])([H])[H])C([H])([H])c2c([H])c(OC([H])([H])C([H])([H])C([H])([H])S(=O)(=O)N=C(C([H])([H])C([H])([H])C([H])([H])N([H])C(=O)N3C([H])([H])C([H])([H])C([H])([H])C([H])(n4nc(-c5c([H])c([H])c(Oc6c([H])c([H])c(F)c([H])c6F)c([H])c5[H])c(C(=O)N([H])[H])c4N([H])[H])C3([H])[H])C([H])(C3=NOC([H])(C([H])([H])C([H])([H])C([H])([H])C([H])([H])N([H])C(N([H])[H])=[N+]([H])[H])C3([H])[H])[N+]([H])([H])[H])c([H])c([H])c2C1([H])[H]

$$$$
67:0:0
     RDKit          3D

 84 91  0  0  1  0  0  0  0  0999 V2000
  -28.9520  -22.1190   20.3010 C   0  0  0  0  0  3  0  0  0  0  0  0
  -28.7230  -20.1800   20.2690 C   0  0  0  0  0  2  0  0  0  0  0  0
  -30.2630  -15.7060   20.2050 C   0  0  0  0  0  0  0  0  0  0  0  0
  -30.3670  -13.1670   19.3690 C   0  0  0  0  0  2  0  0  0  0  0  0
  -29.4740  -12.7650   18.1610 C   0  0  0  0  0  2  0  0  0  0  0  0
  -28.0550  -12.4010   18.6220 C   0  0  0  0  0  2  0  0  0  0  0  0
  -27.5430  -13.3920   19.6920 C   0  0  0  0  0  3  0  0  0  0  0  0
  -28.5770  -13.7080   20.7990 C   0  0  0  0  0  2  0  0  0  0  0  0
  -29.7410  -14.3400   20.1330 N   0  0  0  0  0  0  0  0  0  0  0  0
  -31.4960  -15.6340   20.0390 O   0  0  0  0  0  0  0  0  0  0  0  0
  -29.7400  -18.6060   20.2540 C   0  0  0  0  0  0  0  0  0  0  0  0
  -29.4950  -17.0660   20.2690 N   0  0  0  0  0  0  0  0  0  0  0  0
  -30.9380  -18.8980   20.2140 O   0  0  0  0  0  0  0  0  0  0  0  0
  -28.5050  -16.8880   20.3260 H   0  0  0  0  0  0  0  0  0  0  0  0
  -25.1770  -13.8910   20.4650 C   0  0  0  0  0  0  0  0  0  0  0  0
  -24.1300  -13.0970   20.8350 C   0  0  0  0  0  0  0  0  0  0  0  0
  -24.6200  -11.7550   20.8050 C   0  0  0  0  0  0  0  0  0  0  0  0
  -26.2340  -13.0360   20.2180 N   0  0  0  0  0  0  0  0  0  0  0  0
  -25.9140  -11.7420   20.4910 N   0  0  0  0  0  0  0  0  0  0  0  0
  -23.9110  -10.4820   20.9960 C   0  0  0  0  0  0  0  0  0  0  0  0
  -24.3450   -9.5270   21.9400 C   0  0  0  0  0  3  0  0  0  0  0  0
  -23.6300   -8.3230   22.1220 C   0  0  0  0  0  3  0  0  0  0  0  0
  -22.4660   -8.0660   21.3590 C   0  0  0  0  0  0  0  0  0  0  0  0
  -22.0510   -9.0100   20.4040 C   0  0  0  0  0  3  0  0  0  0  0  0
  -22.7660  -10.2050   20.2210 C   0  0  0  0  0  3  0  0  0  0  0  0
  -21.7240   -6.9130   21.4490 O   0  0  0  0  0  0  0  0  0  0  0  0
  -21.6620   -6.1860   22.6110 C   0  0  0  0  0  0  0  0  0  0  0  0
  -21.1890   -6.7470   23.8170 C   0  0  0  0  0  3  0  0  0  0  0  0
  -21.0760   -5.9450   24.9700 C   0  0  0  0  0  3  0  0  0  0  0  0
  -21.4250   -4.5830   24.9180 C   0  0  0  0  0  0  0  0  0  0  0  0
  -21.8910   -4.0200   23.7170 C   0  0  0  0  0  3  0  0  0  0  0  0
  -22.0050   -4.8200   22.5660 C   0  0  0  0  0  0  0  0  0  0  0  0
  -22.4340   -4.2670   21.4050 F   0  0  0  0  0  0  0  0  0  0  0  0
  -21.3100   -3.8100   26.0240 F   0  0  0  0  0  0  0  0  0  0  0  0
  -22.7260  -13.5540   21.0980 C   0  0  0  0  0  0  0  0  0  0  0  0
  -22.0090  -12.8580   21.9710 N   0  0  0  0  0  0  0  0  0  0  0  0
  -22.2750  -14.5680   20.5650 O   0  0  0  0  0  0  0  0  0  0  0  0
  -22.3880  -12.0400   22.4240 H   0  0  0  0  0  0  0  0  0  0  0  0
  -21.0660  -13.1470   22.1910 H   0  0  0  0  0  0  0  0  0  0  0  0
  -25.3150  -15.2660   20.2830 N   0  0  0  0  0  0  0  0  0  0  0  0
  -24.5330  -15.9020   20.3840 H   0  0  0  0  0  0  0  0  0  0  0  0
  -26.1430  -15.7110   19.9090 H   0  0  0  0  0  0  0  0  0  0  0  0
  -27.9620  -23.8010   20.2170 C   0  0  0  0  0  3  0  0  0  0  0  0
  -28.1470  -25.5560   20.3110 O   0  0  0  0  0  0  0  0  0  0  0  0
  -24.6710  -31.8840   23.2040 C   0  0  0  0  0  0  0  0  0  0  0  0
  -27.1750  -26.7700   20.2530 C   0  0  0  0  0  0  0  0  0  0  0  0
  -23.4770  -30.4810   21.5770 C   0  0  0  0  0  3  0  0  0  0  0  0
  -24.9160  -28.8140   20.1770 C   0  0  0  0  0  0  0  0  0  0  0  0
  -26.0560  -30.6090   21.4550 C   0  0  0  0  0  2  0  0  0  0  0  0
  -26.1130  -29.1710   20.8090 C   0  0  0  0  0  0  0  0  0  0  0  0
  -27.2280  -28.1780   20.8120 C   0  0  0  0  0  3  0  0  0  0  0  0
  -25.9430  -26.6230   19.5650 C   0  0  0  0  0  3  0  0  0  0  0  0
  -24.8700  -27.5670   19.5320 C   0  0  0  0  0  3  0  0  0  0  0  0
  -23.7140  -29.7730   20.2110 C   0  0  0  0  0  2  0  0  0  0  0  0
  -24.7590  -31.0240   22.1310 N   0  0  0  0  0  0  0  0  0  0  0  0
  -23.5780  -32.1920   23.7110 O   0  0  0  0  0  0  0  0  0  0  0  0
  -22.7540  -29.5150   22.5540 C   0  0  0  0  0  0  0  0  0  0  0  0
  -21.4200  -29.3710   22.4320 N   0  0  0  0  0  0  0  0  0  0  0  0
  -23.4060  -28.8910   23.3950 O   0  0  0  0  0  0  0  0  0  0  0  0
  -20.9440  -29.9240   21.7320 H   0  0  0  0  0  0  0  0  0  0  0  0
  -18.0240  -28.1870   22.9540 C   0  0  0  0  0  0  0  0  0  0  0  0
  -20.5870  -28.4450   23.2100 C   0  0  0  0  0  3  0  0  0  0  0  0
  -20.6780  -27.0080   22.6470 C   0  0  0  0  0  2  0  0  0  0  0  0
  -19.5740  -26.6840   21.6370 C   0  0  0  0  0  2  0  0  0  0  0  0
  -18.1940  -26.8360   22.2810 C   0  0  0  0  0  2  0  0  0  0  0  0
  -19.1460  -28.9500   23.3770 C   0  0  0  0  0  0  0  0  0  0  0  0
  -18.9290  -30.2110   23.9720 C   0  0  0  0  0  3  0  0  0  0  0  0
  -17.6250  -30.7110   24.1460 C   0  0  0  0  0  3  0  0  0  0  0  0
  -16.5180  -29.9480   23.7370 C   0  0  0  0  0  3  0  0  0  0  0  0
  -16.7190  -28.6870   23.1480 C   0  0  0  0  0  3  0  0  0  0  0  0
  -25.9360  -32.5320   23.8420 C   0  0  0  0  0  3  0  0  0  0  0  0
  -25.6160  -33.9330   24.1810 N   0  0  0  0  0  0  0  0  0  0  0  0
  -25.9260  -34.9990   23.4310 C   0  0  0  0  0  0  0  0  0  0  0  0
  -26.5690  -34.9070   22.3830 O   0  0  0  0  0  0  0  0  0  0  0  0
  -25.0390  -34.0750   24.9970 H   0  0  0  0  0  0  0  0  0  0  0  0
  -24.1730  -36.7910   23.1690 C   0  0  0  0  0  1  0  0  0  0  0  0
  -25.4530  -36.3860   23.9180 C   0  0  0  0  0  3  0  0  0  0  0  0
  -27.6150  -37.2920   24.6560 C   0  0  0  0  0  1  0  0  0  0  0  0
  -26.4720  -37.4480   23.7600 N   0  0  0  0  0  0  0  0  0  0  0  0
  -26.0650  -38.3650   23.9210 H   0  0  0  0  0  0  0  0  0  0  0  0
  -26.4350  -31.7720   25.1350 C   0  0  1  0  0  0  0  0  0  0  0  0
  -25.3300  -31.5520   26.1960 C   0  0  0  0  0  1  0  0  0  0  0  0
  -27.0140  -30.3860   24.7760 C   0  0  0  0  0  1  0  0  0  0  0  0
  -27.5830  -32.5670   25.7990 C   0  0  0  0  0  1  0  0  0  0  0  0
  2  1  1  0
  3 12  1  0
  4  9  1  0
  5  6  1  0
  5  4  1  0
  7  6  1  0
  7 18  1  0
  7  8  1  0
  9  3  1  0
  9  8  1  0
 10  3  2  0
 11  2  1  0
 11 12  1  0
 12 14  1  0
 13 11  2  0
 15 16  2  0
 16 35  1  0
 17 16  1  0
 17 20  1  0
 18 15  1  0
 18 19  1  0
 19 17  2  0
 20 21  1  0
 21 22  2  0
 23 26  1  0
 23 22  1  0
 24 23  2  0
 25 24  1  0
 25 20  2  0
 26 27  1  0
 27 28  1  0
 28 29  2  0
 30 29  1  0
 30 34  1  0
 31 30  2  0
 32 27  2  0
 32 31  1  0
 33 32  1  0
 35 36  1  0
 36 39  1  0
 36 38  1  0
 37 35  2  0
 40 41  1  0
 40 15  1  0
 42 40  1  0
 43  1  2  0
 43 44  1  0
 45 56  2  0
 46 44  1  0
 46 51  1  0
 47 55  1  0
 47 57  1  0
 48 54  1  0
 48 50  1  0
 49 55  1  0
 50 51  2  0
 50 49  1  0
 52 46  2  0
 53 52  1  0
 53 48  2  0
 54 47  1  0
 55 45  1  0
 57 59  2  0
 58 57  1  0
 60 58  1  0
 61 70  2  0
 61 66  1  0
 62 58  1  0
 62 66  1  0
 63 62  1  0
 64 65  1  0
 64 63  1  0
 65 61  1  0
 66 67  2  0
 67 68  1  0
 69 68  2  0
 70 69  1  0
 71 45  1  0
 71 72  1  0
 71 81  1  0
 72 75  1  0
 73 77  1  0
 73 72  1  0
 74 73  2  0
 77 76  1  0
 79 77  1  0
 79 80  1  0
 79 78  1  0
 81 84  1  1
 81 82  1  0
 83 81  1  0
M  ISO  4   3 100  12 100  43 101  44 101
M  END
>  <TORSDO>  (68) 
F 18

>  <SCORE>  (68) 
-16.356

>  <name>  (68) 
67

>  <ligand_id>  (68) 
67

>  <original_smiles>  (68) 
[H]c1c([H])c([H])c2c(c1[H])C([H])([H])C([H])([H])C([H])([H])C2([H])N([H])C(=O)C1([H])N(C(=O)C([H])(N([H])C(=O)C([H])(N([H])C([H])([H])[H])C([H])([H])[H])C(C([H])([H])[H])(C([H])([H])[H])C([H])([H])[H])C([H])([H])c2c([H])c(OC([H])([H])C([H])([H])C([H])([H])C(=O)N([H])C(=O)N3C([H])([H])C([H])([H])C([H])([H])C([H])(n4nc(-c5c([H])c([H])c(Oc6c([H])c([H])c(F)c([H])c6F)c([H])c5[H])c(C(=O)N([H])[H])c4N([H])[H])C3([H])[H])c([H])c([H])c2C1([H])[H]

>  <smiles>  (68) 
[H]c1c([H])c([H])c2c(c1[H])C([H])([H])C([H])([H])C([H])([H])C2([H])N([H])C(=O)C1([H])N(C(=O)C([H])(N([H])C(=O)C([H])(N([H])C([H])([H])[H])C([H])([H])[H])C(C([H])([H])[H])(C([H])([H])[H])C([H])([H])[H])C([H])([H])c2c([H])c(OC([H])([H])C([H])([H])C([H])([H])C(=O)N([H])C(=O)N3C([H])([H])C([H])([H])C([H])([H])C([H])(n4nc(-c5c([H])c([H])c(Oc6c([H])c([H])c(F)c([H])c6F)c([H])c5[H])c(C(=O)N([H])[H])c4N([H])[H])C3([H])[H])c([H])c([H])c2C1([H])[H]

$$$$
68:0:0
     RDKit          3D

 88 95  0  0  1  0  0  0  0  0999 V2000
  -28.7940  -22.4290   20.6580 C   0  0  0  0  0  3  0  0  0  0  0  0
  -28.4740  -23.6630   20.0920 C   0  0  0  0  0  3  0  0  0  0  0  0
  -29.0060  -21.1370   19.9030 C   0  0  0  0  0  0  0  0  0  0  0  0
  -29.2790  -19.9760   20.6120 N   0  0  0  0  0  0  0  0  0  0  0  0
  -28.8930  -21.0770   18.6780 O   0  0  0  0  0  0  0  0  0  0  0  0
  -29.3790  -20.0880   21.6130 H   0  0  0  0  0  0  0  0  0  0  0  0
  -29.2600  -18.5250   20.1020 C   0  0  0  0  0  2  0  0  0  0  0  0
  -30.1400  -17.3610   20.8180 C   0  0  0  0  0  2  0  0  0  0  0  0
  -30.5430  -14.7600   20.4020 C   0  0  0  0  0  0  0  0  0  0  0  0
  -30.3560  -12.4850   19.3730 C   0  0  0  0  0  2  0  0  0  0  0  0
  -29.4120  -12.5470   18.1510 C   0  0  0  0  0  2  0  0  0  0  0  0
  -27.9440  -12.3670   18.5850 C   0  0  0  0  0  2  0  0  0  0  0  0
  -27.5680  -13.2590   19.7970 C   0  0  0  0  0  3  0  0  0  0  0  0
  -28.6250  -13.1750   20.9180 C   0  0  0  0  0  2  0  0  0  0  0  0
  -29.9180  -13.5340   20.3220 N   0  0  0  0  0  0  0  0  0  0  0  0
  -31.7310  -14.8660   20.0890 O   0  0  0  0  0  0  0  0  0  0  0  0
  -29.7640  -15.8820   20.6470 N   0  0  0  0  0  0  0  0  0  0  0  0
  -28.7910  -15.6740   20.8160 H   0  0  0  0  0  0  0  0  0  0  0  0
  -25.1780  -13.8530   20.5160 C   0  0  0  0  0  0  0  0  0  0  0  0
  -24.1110  -13.0800   20.8880 C   0  0  0  0  0  0  0  0  0  0  0  0
  -24.5770  -11.7290   20.8670 C   0  0  0  0  0  0  0  0  0  0  0  0
  -26.2230  -12.9730   20.2880 N   0  0  0  0  0  0  0  0  0  0  0  0
  -25.8690  -11.6910   20.5620 N   0  0  0  0  0  0  0  0  0  0  0  0
  -23.8500  -10.4670   21.0630 C   0  0  0  0  0  0  0  0  0  0  0  0
  -24.2970   -9.4940   21.9830 C   0  0  0  0  0  3  0  0  0  0  0  0
  -23.5710   -8.2980   22.1670 C   0  0  0  0  0  3  0  0  0  0  0  0
  -22.3840   -8.0660   21.4320 C   0  0  0  0  0  0  0  0  0  0  0  0
  -21.9570   -9.0290   20.4990 C   0  0  0  0  0  3  0  0  0  0  0  0
  -22.6850  -10.2160   20.3140 C   0  0  0  0  0  3  0  0  0  0  0  0
  -21.6290   -6.9220   21.5250 O   0  0  0  0  0  0  0  0  0  0  0  0
  -21.6160   -6.1590   22.6650 C   0  0  0  0  0  0  0  0  0  0  0  0
  -21.2550   -6.7000   23.9190 C   0  0  0  0  0  3  0  0  0  0  0  0
  -21.1880   -5.8640   25.0530 C   0  0  0  0  0  3  0  0  0  0  0  0
  -21.4730   -4.4920   24.9340 C   0  0  0  0  0  0  0  0  0  0  0  0
  -21.8280   -3.9500   23.6850 C   0  0  0  0  0  3  0  0  0  0  0  0
  -21.8960   -4.7820   22.5540 C   0  0  0  0  0  0  0  0  0  0  0  0
  -22.2190   -4.2520   21.3490 F   0  0  0  0  0  0  0  0  0  0  0  0
  -21.4010   -3.6880   26.0200 F   0  0  0  0  0  0  0  0  0  0  0  0
  -22.7120  -13.5570   21.1490 C   0  0  0  0  0  0  0  0  0  0  0  0
  -21.9810  -12.8680   22.0180 N   0  0  0  0  0  0  0  0  0  0  0  0
  -22.2740  -14.5770   20.6170 O   0  0  0  0  0  0  0  0  0  0  0  0
  -22.3470  -12.0430   22.4700 H   0  0  0  0  0  0  0  0  0  0  0  0
  -21.0430  -13.1710   22.2380 H   0  0  0  0  0  0  0  0  0  0  0  0
  -25.3400  -15.2230   20.3330 N   0  0  0  0  0  0  0  0  0  0  0  0
  -24.5700  -15.8740   20.4440 H   0  0  0  0  0  0  0  0  0  0  0  0
  -26.1820  -15.6630   19.9850 H   0  0  0  0  0  0  0  0  0  0  0  0
  -28.1000  -25.0250   20.8310 C   0  0  0  0  0  2  0  0  0  0  0  0
  -28.3050  -26.3760   20.1990 O   0  0  0  0  0  0  0  0  0  0  0  0
  -24.6300  -31.8780   23.2340 C   0  0  0  0  0  0  0  0  0  0  0  0
  -27.2150  -27.2740   20.1870 C   0  0  0  0  0  0  0  0  0  0  0  0
  -23.4160  -30.4760   21.6050 C   0  0  0  0  0  3  0  0  0  0  0  0
  -24.8590  -28.9150   20.1740 C   0  0  0  0  0  0  0  0  0  0  0  0
  -25.9570  -30.7850   21.4060 C   0  0  0  0  0  2  0  0  0  0  0  0
  -26.0350  -29.3990   20.7640 C   0  0  0  0  0  0  0  0  0  0  0  0
  -27.2190  -28.5930   20.7530 C   0  0  0  0  0  3  0  0  0  0  0  0
  -26.0190  -26.8530   19.5710 C   0  0  0  0  0  3  0  0  0  0  0  0
  -24.8560  -27.6490   19.5650 C   0  0  0  0  0  3  0  0  0  0  0  0
  -23.6250  -29.7950   20.2260 C   0  0  0  0  0  2  0  0  0  0  0  0
  -24.6880  -31.0640   22.1380 N   0  0  0  0  0  0  0  0  0  0  0  0
  -23.5490  -32.1580   23.7740 O   0  0  0  0  0  0  0  0  0  0  0  0
  -22.7560  -29.4640   22.5730 C   0  0  0  0  0  0  0  0  0  0  0  0
  -21.4280  -29.2880   22.4550 N   0  0  0  0  0  0  0  0  0  0  0  0
  -23.4370  -28.8400   23.3900 O   0  0  0  0  0  0  0  0  0  0  0  0
  -20.9380  -29.8440   21.7680 H   0  0  0  0  0  0  0  0  0  0  0  0
  -18.0560  -28.0780   22.9650 C   0  0  0  0  0  0  0  0  0  0  0  0
  -20.6130  -28.3520   23.2320 C   0  0  0  0  0  3  0  0  0  0  0  0
  -20.7210  -26.9170   22.6670 C   0  0  0  0  0  2  0  0  0  0  0  0
  -19.6210  -26.5810   21.6550 C   0  0  0  0  0  2  0  0  0  0  0  0
  -18.2390  -26.7240   22.2980 C   0  0  0  0  0  2  0  0  0  0  0  0
  -19.1710  -28.8480   23.3890 C   0  0  0  0  0  0  0  0  0  0  0  0
  -18.9460  -30.1140   23.9740 C   0  0  0  0  0  3  0  0  0  0  0  0
  -17.6380  -30.6100   24.1360 C   0  0  0  0  0  3  0  0  0  0  0  0
  -16.5390  -29.8370   23.7280 C   0  0  0  0  0  3  0  0  0  0  0  0
  -16.7480  -28.5720   23.1480 C   0  0  0  0  0  3  0  0  0  0  0  0
  -25.9150  -32.5130   23.8490 C   0  0  0  0  0  3  0  0  0  0  0  0
  -26.4410  -31.7400   25.1210 C   0  0  1  0  0  0  0  0  0  0  0  0
  -25.3570  -31.5030   26.1980 C   0  0  0  0  0  1  0  0  0  0  0  0
  -27.0190  -30.3610   24.7240 C   0  0  0  0  0  1  0  0  0  0  0  0
  -27.5980  -32.5310   25.7730 C   0  0  0  0  0  1  0  0  0  0  0  0
  -25.6040  -33.9100   24.1860 N   0  0  0  0  0  0  0  0  0  0  0  0
  -25.9230  -34.9660   23.4270 C   0  0  0  0  0  0  0  0  0  0  0  0
  -26.5810  -34.8670   22.3880 O   0  0  0  0  0  0  0  0  0  0  0  0
  -25.0190  -34.0590   24.9950 H   0  0  0  0  0  0  0  0  0  0  0  0
  -24.1840  -36.7550   23.1070 C   0  0  0  0  0  1  0  0  0  0  0  0
  -25.4400  -36.3520   23.8950 C   0  0  0  0  0  3  0  0  0  0  0  0
  -27.5880  -37.2410   24.6890 C   0  0  0  0  0  1  0  0  0  0  0  0
  -26.4680  -37.4090   23.7670 N   0  0  0  0  0  0  0  0  0  0  0  0
  -26.0620  -38.3270   23.9250 H   0  0  0  0  0  0  0  0  0  0  0  0
  2  1  2  0
  2 47  1  0
  3  4  1  0
  3  1  1  0
  4  6  1  0
  5  3  2  0
  7  4  1  0
  7  8  1  0
  9 17  1  0
 10 15  1  0
 11 12  1  0
 11 10  1  0
 13 12  1  0
 13 22  1  0
 13 14  1  0
 15  9  1  0
 15 14  1  0
 16  9  2  0
 17 18  1  0
 17  8  1  0
 19 20  2  0
 20 39  1  0
 21 20  1  0
 21 24  1  0
 22 19  1  0
 22 23  1  0
 23 21  2  0
 24 25  1  0
 25 26  2  0
 27 30  1  0
 27 26  1  0
 28 27  2  0
 29 28  1  0
 29 24  2  0
 30 31  1  0
 31 32  1  0
 32 33  2  0
 34 33  1  0
 34 38  1  0
 35 34  2  0
 36 31  2  0
 36 35  1  0
 37 36  1  0
 39 40  1  0
 40 43  1  0
 40 42  1  0
 41 39  2  0
 44 45  1  0
 44 19  1  0
 46 44  1  0
 48 47  1  0
 49 60  2  0
 50 48  1  0
 50 55  1  0
 51 59  1  0
 51 61  1  0
 52 58  1  0
 52 54  1  0
 53 59  1  0
 54 53  1  0
 55 54  2  0
 56 50  2  0
 57 56  1  0
 57 52  2  0
 58 51  1  0
 59 49  1  0
 61 63  2  0
 62 61  1  0
 64 62  1  0
 65 74  2  0
 65 70  1  0
 66 62  1  0
 66 70  1  0
 67 66  1  0
 68 69  1  0
 68 67  1  0
 69 65  1  0
 70 71  2  0
 71 72  1  0
 73 72  2  0
 74 73  1  0
 75 49  1  0
 75 80  1  0
 75 76  1  0
 76 79  1  1
 76 77  1  0
 78 76  1  0
 80 83  1  0
 81 85  1  0
 81 80  1  0
 82 81  2  0
 85 84  1  0
 87 85  1  0
 87 88  1  0
 87 86  1  0
M  ISO  4   9 100  17 100  47 101  48 101
M  END
>  <TORSDO>  (69) 
F 20

>  <SCORE>  (69) 
-13.664

>  <name>  (69) 
68

>  <ligand_id>  (69) 
68

>  <original_smiles>  (69) 
[H]C(C(=O)N([H])C([H])([H])C([H])([H])N([H])C(=O)N1C([H])([H])C([H])([H])C([H])([H])C([H])(n2nc(-c3c([H])c([H])c(Oc4c([H])c([H])c(F)c([H])c4F)c([H])c3[H])c(C(=O)N([H])[H])c2N([H])[H])C1([H])[H])=C([H])C([H])([H])Oc1c([H])c([H])c2c(c1[H])C([H])([H])N(C(=O)C([H])(N([H])C(=O)C([H])(N([H])C([H])([H])[H])C([H])([H])[H])C(C([H])([H])[H])(C([H])([H])[H])C([H])([H])[H])C([H])(C(=O)N([H])C1([H])c3c([H])c([H])c([H])c([H])c3C([H])([H])C([H])([H])C1([H])[H])C2([H])[H]

>  <smiles>  (69) 
[H]C(C(=O)N([H])C([H])([H])C([H])([H])N([H])C(=O)N1C([H])([H])C([H])([H])C([H])([H])C([H])(n2nc(-c3c([H])c([H])c(Oc4c([H])c([H])c(F)c([H])c4F)c([H])c3[H])c(C(=O)N([H])[H])c2N([H])[H])C1([H])[H])=C([H])C([H])([H])Oc1c([H])c([H])c2c(c1[H])C([H])([H])N(C(=O)C([H])(N([H])C(=O)C([H])(N([H])C([H])([H])[H])C([H])([H])[H])C(C([H])([H])[H])(C([H])([H])[H])C([H])([H])[H])C([H])(C(=O)N([H])C1([H])c3c([H])c([H])c([H])c([H])c3C([H])([H])C([H])([H])C1([H])[H])C2([H])[H]

$$$$
69:0:0
     RDKit          3D

 95103  0  0  1  0  0  0  0  0999 V2000
  -29.1960  -21.5990   20.0150 O   0  0  0  0  0  0  0  0  0  0  0  0
  -29.3120  -19.2000   20.8510 C   0  0  0  0  0  2  0  0  0  0  0  0
  -30.4280  -19.8370   18.8280 C   0  0  0  0  0  2  0  0  0  0  0  0
  -29.7350  -17.9150   20.0980 C   0  0  0  0  0  3  0  0  0  0  0  0
  -29.2140  -20.1990   19.6910 C   0  0  0  0  0  3  0  0  0  0  0  0
  -30.7460  -17.5920   17.8210 C   0  0  0  0  0  1  0  0  0  0  0  0
  -30.6880  -18.3960   19.0640 N   0  0  1  0  0  4  0  0  0  0  0  0
  -31.5960  -18.3230   19.5090 H   0  0  0  0  0  0  0  0  0  0  0  0
  -30.7420  -14.4890   20.5230 C   0  0  0  0  0  0  0  0  0  0  0  0
  -30.4130  -12.3360   19.3690 C   0  0  0  0  0  2  0  0  0  0  0  0
  -29.5030  -12.5450   18.1430 C   0  0  0  0  0  2  0  0  0  0  0  0
  -28.0220  -12.4110   18.5490 C   0  0  0  0  0  2  0  0  0  0  0  0
  -27.6600  -13.2680   19.7930 C   0  0  0  0  0  3  0  0  0  0  0  0
  -28.6950  -13.0660   20.9260 C   0  0  0  0  0  2  0  0  0  0  0  0
  -30.0320  -13.3380   20.3740 N   0  0  0  0  0  0  0  0  0  0  0  0
  -31.9100  -14.5910   20.1410 O   0  0  0  0  0  0  0  0  0  0  0  0
  -30.4690  -16.8430   20.9250 C   0  0  0  0  0  0  0  0  0  0  0  0
  -30.0070  -15.5760   20.8450 N   0  0  0  0  0  0  0  0  0  0  0  0
  -31.5170  -17.1630   21.4950 O   0  0  0  0  0  0  0  0  0  0  0  0
  -29.0120  -15.4460   20.7890 H   0  0  0  0  0  0  0  0  0  0  0  0
  -25.2480  -13.8960   20.4440 C   0  0  0  0  0  0  0  0  0  0  0  0
  -24.1710  -13.1360   20.8080 C   0  0  0  0  0  0  0  0  0  0  0  0
  -24.6250  -11.7830   20.8060 C   0  0  0  0  0  0  0  0  0  0  0  0
  -26.2950  -13.0070   20.2470 N   0  0  0  0  0  0  0  0  0  0  0  0
  -25.9220  -11.7330   20.5280 N   0  0  0  0  0  0  0  0  0  0  0  0
  -23.8910  -10.5260   20.9970 C   0  0  0  0  0  0  0  0  0  0  0  0
  -24.3030   -9.5700   21.9510 C   0  0  0  0  0  3  0  0  0  0  0  0
  -23.5680   -8.3770   22.1320 C   0  0  0  0  0  3  0  0  0  0  0  0
  -22.4070   -8.1340   21.3610 C   0  0  0  0  0  0  0  0  0  0  0  0
  -22.0160   -9.0790   20.3970 C   0  0  0  0  0  3  0  0  0  0  0  0
  -22.7500  -10.2630   20.2130 C   0  0  0  0  0  3  0  0  0  0  0  0
  -21.6420   -6.9950   21.4490 O   0  0  0  0  0  0  0  0  0  0  0  0
  -21.5690   -6.2670   22.6100 C   0  0  0  0  0  0  0  0  0  0  0  0
  -21.1280   -6.8360   23.8250 C   0  0  0  0  0  3  0  0  0  0  0  0
  -21.0050   -6.0320   24.9750 C   0  0  0  0  0  3  0  0  0  0  0  0
  -21.3100   -4.6590   24.9120 C   0  0  0  0  0  0  0  0  0  0  0  0
  -21.7430   -4.0900   23.7010 C   0  0  0  0  0  3  0  0  0  0  0  0
  -21.8700   -4.8920   22.5540 C   0  0  0  0  0  0  0  0  0  0  0  0
  -22.2650   -4.3310   21.3870 F   0  0  0  0  0  0  0  0  0  0  0  0
  -21.1830   -3.8870   26.0150 F   0  0  0  0  0  0  0  0  0  0  0  0
  -22.7690  -13.6230   21.0420 C   0  0  0  0  0  0  0  0  0  0  0  0
  -22.0170  -12.9450   21.9010 N   0  0  0  0  0  0  0  0  0  0  0  0
  -22.3510  -14.6420   20.4930 O   0  0  0  0  0  0  0  0  0  0  0  0
  -22.3670  -12.1210   22.3700 H   0  0  0  0  0  0  0  0  0  0  0  0
  -21.0730  -13.2520   22.0930 H   0  0  0  0  0  0  0  0  0  0  0  0
  -25.4230  -15.2610   20.2450 N   0  0  0  0  0  0  0  0  0  0  0  0
  -24.6470  -15.9110   20.3140 H   0  0  0  0  0  0  0  0  0  0  0  0
  -26.2600  -15.6920   19.8780 H   0  0  0  0  0  0  0  0  0  0  0  0
  -28.6310  -22.4540   19.1240 C   0  0  0  0  0  0  0  0  0  0  0  0
  -28.9570  -23.7690   19.4150 N   0  0  0  0  0  0  0  0  0  0  0  0
  -27.9600  -22.0960   18.1560 O   0  0  0  0  0  0  0  0  0  0  0  0
  -29.5270  -23.9500   20.2300 H   0  0  0  0  0  0  0  0  0  0  0  0
  -28.5880  -24.8490   18.4890 C   0  0  0  0  0  2  0  0  0  0  0  0
  -28.9630  -26.2820   18.9380 C   0  0  0  0  0  2  0  0  0  0  0  0
  -28.3990  -26.7310   20.1700 O   0  0  0  0  0  0  0  0  0  0  0  0
  -24.5710  -31.8920   23.2170 C   0  0  0  0  0  0  0  0  0  0  0  0
  -27.2290  -27.4600   20.1270 C   0  0  0  0  0  0  0  0  0  0  0  0
  -23.3630  -30.4810   21.5800 C   0  0  0  0  0  3  0  0  0  0  0  0
  -24.8200  -28.9460   20.1550 C   0  0  0  0  0  0  0  0  0  0  0  0
  -25.8870  -30.8470   21.3780 C   0  0  0  0  0  2  0  0  0  0  0  0
  -25.9750  -29.4750   20.7430 C   0  0  0  0  0  0  0  0  0  0  0  0
  -27.1780  -28.7310   20.7410 C   0  0  0  0  0  3  0  0  0  0  0  0
  -26.0540  -26.9420   19.5400 C   0  0  0  0  0  3  0  0  0  0  0  0
  -24.8530  -27.6740   19.5560 C   0  0  0  0  0  3  0  0  0  0  0  0
  -23.5700  -29.7920   20.2030 C   0  0  0  0  0  2  0  0  0  0  0  0
  -24.6240  -31.0910   22.1150 N   0  0  0  0  0  0  0  0  0  0  0  0
  -23.4900  -32.1640   23.7600 O   0  0  0  0  0  0  0  0  0  0  0  0
  -22.7190  -29.4630   22.5490 C   0  0  0  0  0  0  0  0  0  0  0  0
  -21.3940  -29.2800   22.4300 N   0  0  0  0  0  0  0  0  0  0  0  0
  -23.4070  -28.8390   23.3610 O   0  0  0  0  0  0  0  0  0  0  0  0
  -20.9000  -29.8360   21.7480 H   0  0  0  0  0  0  0  0  0  0  0  0
  -18.0210  -28.0950   22.9510 C   0  0  0  0  0  0  0  0  0  0  0  0
  -20.5820  -28.3430   23.2060 C   0  0  0  0  0  3  0  0  0  0  0  0
  -20.6750  -26.9130   22.6240 C   0  0  0  0  0  2  0  0  0  0  0  0
  -19.5640  -26.5970   21.6170 C   0  0  0  0  0  2  0  0  0  0  0  0
  -18.1880  -26.7460   22.2720 C   0  0  0  0  0  2  0  0  0  0  0  0
  -19.1450  -28.8510   23.3750 C   0  0  0  0  0  0  0  0  0  0  0  0
  -18.9360  -30.1150   23.9690 C   0  0  0  0  0  3  0  0  0  0  0  0
  -17.6350  -30.6220   24.1430 C   0  0  0  0  0  3  0  0  0  0  0  0
  -16.5250  -29.8610   23.7380 C   0  0  0  0  0  3  0  0  0  0  0  0
  -16.7190  -28.5990   23.1480 C   0  0  0  0  0  3  0  0  0  0  0  0
  -25.8580  -32.5270   23.8300 C   0  0  0  0  0  3  0  0  0  0  0  0
  -26.3860  -31.7590   25.1030 C   0  0  1  0  0  0  0  0  0  0  0  0
  -25.3000  -31.5190   26.1790 C   0  0  0  0  0  1  0  0  0  0  0  0
  -26.9720  -30.3830   24.7060 C   0  0  0  0  0  1  0  0  0  0  0  0
  -27.5360  -32.5570   25.7590 C   0  0  0  0  0  1  0  0  0  0  0  0
  -25.5480  -33.9260   24.1600 N   0  0  0  0  0  0  0  0  0  0  0  0
  -25.8810  -34.9780   23.4020 C   0  0  0  0  0  0  0  0  0  0  0  0
  -26.5530  -34.8750   22.3710 O   0  0  0  0  0  0  0  0  0  0  0  0
  -24.9530  -34.0780   24.9610 H   0  0  0  0  0  0  0  0  0  0  0  0
  -24.1550  -36.7700   23.0350 C   0  0  0  0  0  1  0  0  0  0  0  0
  -25.3890  -36.3650   23.8570 C   0  0  0  0  0  3  0  0  0  0  0  0
  -27.5180  -37.2470   24.7080 C   0  0  0  0  0  1  0  0  0  0  0  0
  -26.4230  -37.4180   23.7560 N   0  0  0  0  0  0  0  0  0  0  0  0
  -26.0160  -38.3370   23.9020 H   0  0  0  0  0  0  0  0  0  0  0  0
  3  7  1  0
  3  5  1  0
  4  2  1  0
  4 17  1  0
  5  1  1  0
  5  2  1  0
  6  7  1  0
  7  8  1  1
  7  4  1  0
  9 18  1  0
 10 15  1  0
 11 12  1  0
 11 10  1  0
 13 12  1  0
 13 24  1  0
 13 14  1  0
 15  9  1  0
 15 14  1  0
 16  9  2  0
 17 19  2  0
 18 17  1  0
 20 18  1  0
 21 22  2  0
 22 41  1  0
 23 22  1  0
 23 26  1  0
 24 21  1  0
 24 25  1  0
 25 23  2  0
 26 27  1  0
 27 28  2  0
 29 32  1  0
 29 28  1  0
 30 29  2  0
 31 30  1  0
 31 26  2  0
 32 33  1  0
 33 34  1  0
 34 35  2  0
 36 35  1  0
 36 40  1  0
 37 36  2  0
 38 33  2  0
 38 37  1  0
 39 38  1  0
 41 42  1  0
 42 45  1  0
 42 44  1  0
 43 41  2  0
 46 47  1  0
 46 21  1  0
 48 46  1  0
 49 50  1  0
 49  1  1  0
 50 52  1  0
 51 49  2  0
 53 54  1  0
 53 50  1  0
 54 55  1  0
 56 67  2  0
 57 55  1  0
 57 62  1  0
 58 66  1  0
 58 68  1  0
 59 65  1  0
 59 61  1  0
 60 66  1  0
 61 60  1  0
 62 61  2  0
 63 64  1  0
 63 57  2  0
 64 59  2  0
 65 58  1  0
 66 56  1  0
 68 70  2  0
 69 68  1  0
 71 69  1  0
 72 81  2  0
 72 77  1  0
 73 69  1  0
 73 77  1  0
 74 73  1  0
 75 76  1  0
 75 74  1  0
 76 72  1  0
 77 78  2  0
 78 79  1  0
 80 79  2  0
 81 80  1  0
 82 56  1  0
 82 87  1  0
 82 83  1  0
 83 86  1  1
 83 84  1  0
 85 83  1  0
 87 90  1  0
 88 92  1  0
 88 87  1  0
 89 88  2  0
 92 91  1  0
 94 92  1  0
 94 95  1  0
 94 93  1  0
M  ISO  4   9 100  18 100  54 101  55 101
M  END
>  <TORSDO>  (70) 
F 20

>  <SCORE>  (70) 
-13.787

>  <name>  (70) 
69

>  <ligand_id>  (70) 
69

>  <original_smiles>  (70) 
[H]c1c([H])c([H])c2c(c1[H])C([H])([H])C([H])([H])C([H])([H])C2([H])N([H])C(=O)C1([H])N(C(=O)C([H])(N([H])C(=O)C([H])(N([H])C([H])([H])[H])C([H])([H])[H])C(C([H])([H])[H])(C([H])([H])[H])C([H])([H])[H])C([H])([H])c2c([H])c(OC([H])([H])C([H])([H])N([H])C(=O)OC3([H])C([H])([H])C([H])(C(=O)N([H])C(=O)N4C([H])([H])C([H])([H])C([H])([H])C([H])(n5nc(-c6c([H])c([H])c(Oc7c([H])c([H])c(F)c([H])c7F)c([H])c6[H])c(C(=O)N([H])[H])c5N([H])[H])C4([H])[H])[N+]([H])(C([H])([H])[H])C3([H])[H])c([H])c([H])c2C1([H])[H]

>  <smiles>  (70) 
[H]c1c([H])c([H])c2c(c1[H])C([H])([H])C([H])([H])C([H])([H])C2([H])N([H])C(=O)C1([H])N(C(=O)C([H])(N([H])C(=O)C([H])(N([H])C([H])([H])[H])C([H])([H])[H])C(C([H])([H])[H])(C([H])([H])[H])C([H])([H])[H])C([H])([H])c2c([H])c(OC([H])([H])C([H])([H])N([H])C(=O)OC3([H])C([H])([H])C([H])(C(=O)N([H])C(=O)N4C([H])([H])C([H])([H])C([H])([H])C([H])(n5nc(-c6c([H])c([H])c(Oc7c([H])c([H])c(F)c([H])c7F)c([H])c6[H])c(C(=O)N([H])[H])c5N([H])[H])C4([H])[H])[N+]([H])(C([H])([H])[H])C3([H])[H])c([H])c([H])c2C1([H])[H]

$$$$
70:0:0
     RDKit          3D

 85 92  0  0  1  0  0  0  0  0999 V2000
  -28.5670  -22.5530   20.6590 C   0  0  0  0  0  2  0  0  0  0  0  0
  -29.0780  -19.6910   20.4480 C   0  0  0  0  0  3  0  0  0  0  0  0
  -29.1510  -21.0710   20.0480 N   0  0  0  0  0  0  0  0  0  0  0  0
  -30.3760  -15.4080   20.1860 C   0  0  0  0  0  0  0  0  0  0  0  0
  -30.3730  -12.9310   19.3570 C   0  0  0  0  0  2  0  0  0  0  0  0
  -29.4640  -12.6890   18.1240 C   0  0  0  0  0  2  0  0  0  0  0  0
  -28.0210  -12.3960   18.5640 C   0  0  0  0  0  2  0  0  0  0  0  0
  -27.5560  -13.3620   19.6800 C   0  0  0  0  0  3  0  0  0  0  0  0
  -28.5990  -13.5550   20.8050 C   0  0  0  0  0  2  0  0  0  0  0  0
  -29.8200  -14.0850   20.1720 N   0  0  0  0  0  0  0  0  0  0  0  0
  -31.5870  -15.3690   19.9140 O   0  0  0  0  0  0  0  0  0  0  0  0
  -29.9280  -18.1500   20.0350 C   0  0  0  0  0  0  0  0  0  0  0  0
  -29.6390  -16.7100   20.3470 N   0  0  0  0  0  0  0  0  0  0  0  0
  -30.9520  -18.3500   19.3700 O   0  0  0  0  0  0  0  0  0  0  0  0
  -28.7160  -16.5910   20.7300 H   0  0  0  0  0  0  0  0  0  0  0  0
  -25.1840  -13.8960   20.4340 C   0  0  0  0  0  0  0  0  0  0  0  0
  -24.1300  -13.1110   20.8070 C   0  0  0  0  0  0  0  0  0  0  0  0
  -24.6090  -11.7640   20.7800 C   0  0  0  0  0  0  0  0  0  0  0  0
  -26.2340  -13.0300   20.1920 N   0  0  0  0  0  0  0  0  0  0  0  0
  -25.9020  -11.7410   20.4690 N   0  0  0  0  0  0  0  0  0  0  0  0
  -23.8920  -10.4970   20.9730 C   0  0  0  0  0  0  0  0  0  0  0  0
  -24.3250   -9.5370   21.9150 C   0  0  0  0  0  3  0  0  0  0  0  0
  -23.6040   -8.3380   22.0980 C   0  0  0  0  0  3  0  0  0  0  0  0
  -22.4350   -8.0880   21.3400 C   0  0  0  0  0  0  0  0  0  0  0  0
  -22.0210   -9.0370   20.3890 C   0  0  0  0  0  3  0  0  0  0  0  0
  -22.7430  -10.2270   20.2030 C   0  0  0  0  0  3  0  0  0  0  0  0
  -21.6860   -6.9400   21.4320 O   0  0  0  0  0  0  0  0  0  0  0  0
  -21.6310   -6.2070   22.5910 C   0  0  0  0  0  0  0  0  0  0  0  0
  -21.1790   -6.7660   23.8060 C   0  0  0  0  0  3  0  0  0  0  0  0
  -21.0730   -5.9590   24.9550 C   0  0  0  0  0  3  0  0  0  0  0  0
  -21.4080   -4.5940   24.8910 C   0  0  0  0  0  0  0  0  0  0  0  0
  -21.8540   -4.0340   23.6810 C   0  0  0  0  0  3  0  0  0  0  0  0
  -21.9610   -4.8380   22.5330 C   0  0  0  0  0  0  0  0  0  0  0  0
  -22.3700   -4.2880   21.3650 F   0  0  0  0  0  0  0  0  0  0  0  0
  -21.3000   -3.8160   25.9950 F   0  0  0  0  0  0  0  0  0  0  0  0
  -22.7280  -13.5770   21.0690 C   0  0  0  0  0  0  0  0  0  0  0  0
  -22.0030  -12.8790   21.9330 N   0  0  0  0  0  0  0  0  0  0  0  0
  -22.2870  -14.5990   20.5440 O   0  0  0  0  0  0  0  0  0  0  0  0
  -22.3730  -12.0530   22.3800 H   0  0  0  0  0  0  0  0  0  0  0  0
  -21.0620  -13.1740   22.1530 H   0  0  0  0  0  0  0  0  0  0  0  0
  -25.3330  -15.2670   20.2490 N   0  0  0  0  0  0  0  0  0  0  0  0
  -24.5550  -15.9100   20.3470 H   0  0  0  0  0  0  0  0  0  0  0  0
  -26.1630  -15.7060   19.8710 H   0  0  0  0  0  0  0  0  0  0  0  0
  -28.2070  -24.1920   19.9000 C   0  0  0  0  0  2  0  0  0  0  0  0
  -28.1760  -25.8090   20.3600 O   0  0  0  0  0  0  0  0  0  0  0  0
  -24.5840  -31.8450   23.2130 C   0  0  0  0  0  0  0  0  0  0  0  0
  -27.1680  -26.9210   20.2280 C   0  0  0  0  0  0  0  0  0  0  0  0
  -23.4060  -30.4420   21.5690 C   0  0  0  0  0  3  0  0  0  0  0  0
  -24.8680  -28.8300   20.1560 C   0  0  0  0  0  0  0  0  0  0  0  0
  -25.9750  -30.6440   21.4470 C   0  0  0  0  0  2  0  0  0  0  0  0
  -26.0500  -29.2280   20.7920 C   0  0  0  0  0  0  0  0  0  0  0  0
  -27.1880  -28.2940   20.8060 C   0  0  0  0  0  3  0  0  0  0  0  0
  -25.9590  -26.6910   19.5310 C   0  0  0  0  0  3  0  0  0  0  0  0
  -24.8520  -27.5850   19.5040 C   0  0  0  0  0  3  0  0  0  0  0  0
  -23.6480  -29.7520   20.1960 C   0  0  0  0  0  2  0  0  0  0  0  0
  -24.6760  -31.0060   22.1290 N   0  0  0  0  0  0  0  0  0  0  0  0
  -23.4900  -32.1360   23.7250 O   0  0  0  0  0  0  0  0  0  0  0  0
  -22.7040  -29.4510   22.5350 C   0  0  0  0  0  0  0  0  0  0  0  0
  -21.3720  -29.2930   22.4090 N   0  0  0  0  0  0  0  0  0  0  0  0
  -23.3640  -28.8230   23.3660 O   0  0  0  0  0  0  0  0  0  0  0  0
  -20.8910  -29.8510   21.7170 H   0  0  0  0  0  0  0  0  0  0  0  0
  -17.9820  -28.1010   22.9240 C   0  0  0  0  0  0  0  0  0  0  0  0
  -20.5450  -28.3580   23.1800 C   0  0  0  0  0  3  0  0  0  0  0  0
  -20.6390  -26.9270   22.5980 C   0  0  0  0  0  2  0  0  0  0  0  0
  -19.5320  -26.6130   21.5860 C   0  0  0  0  0  2  0  0  0  0  0  0
  -18.1530  -26.7570   22.2360 C   0  0  0  0  0  2  0  0  0  0  0  0
  -19.1060  -28.8600   23.3530 C   0  0  0  0  0  0  0  0  0  0  0  0
  -18.8900  -30.1150   23.9590 C   0  0  0  0  0  3  0  0  0  0  0  0
  -17.5850  -30.6140   24.1400 C   0  0  0  0  0  3  0  0  0  0  0  0
  -16.4780  -29.8550   23.7240 C   0  0  0  0  0  3  0  0  0  0  0  0
  -16.6780  -28.5990   23.1230 C   0  0  0  0  0  3  0  0  0  0  0  0
  -25.8470  -32.4950   23.8550 C   0  0  0  0  0  3  0  0  0  0  0  0
  -25.5270  -33.8990   24.1710 N   0  0  0  0  0  0  0  0  0  0  0  0
  -25.8670  -34.9540   23.4200 C   0  0  0  0  0  0  0  0  0  0  0  0
  -26.5450  -34.8490   22.3950 O   0  0  0  0  0  0  0  0  0  0  0  0
  -24.9240  -34.0530   24.9670 H   0  0  0  0  0  0  0  0  0  0  0  0
  -24.1440  -36.7570   23.0620 C   0  0  0  0  0  1  0  0  0  0  0  0
  -25.3820  -36.3480   23.8750 C   0  0  0  0  0  3  0  0  0  0  0  0
  -27.5150  -37.2350   24.7120 C   0  0  0  0  0  1  0  0  0  0  0  0
  -26.4170  -37.3990   23.7630 N   0  0  0  0  0  0  0  0  0  0  0  0
  -26.0110  -38.3200   23.9040 H   0  0  0  0  0  0  0  0  0  0  0  0
  -26.3340  -31.7450   25.1580 C   0  0  1  0  0  0  0  0  0  0  0  0
  -25.2200  -31.5320   26.2090 C   0  0  0  0  0  1  0  0  0  0  0  0
  -26.9210  -30.3580   24.8120 C   0  0  0  0  0  1  0  0  0  0  0  0
  -27.4750  -32.5480   25.8280 C   0  0  0  0  0  1  0  0  0  0  0  0
  3  2  2  0
  3  1  1  0
  4 13  1  0
  5 10  1  0
  6  7  1  0
  6  5  1  0
  8  7  1  0
  8 19  1  0
  8  9  1  0
 10  4  1  0
 10  9  1  0
 11  4  2  0
 12 13  1  0
 12  2  1  0
 13 15  1  0
 14 12  2  0
 16 17  2  0
 17 36  1  0
 18 17  1  0
 18 21  1  0
 19 16  1  0
 19 20  1  0
 20 18  2  0
 21 22  1  0
 22 23  2  0
 24 27  1  0
 24 23  1  0
 25 24  2  0
 26 25  1  0
 26 21  2  0
 27 28  1  0
 28 29  1  0
 29 30  2  0
 31 30  1  0
 31 35  1  0
 32 31  2  0
 33 28  2  0
 33 32  1  0
 34 33  1  0
 36 37  1  0
 37 40  1  0
 37 39  1  0
 38 36  2  0
 41 42  1  0
 41 16  1  0
 43 41  1  0
 44 45  1  0
 44  1  1  0
 46 57  2  0
 47 45  1  0
 47 52  1  0
 48 56  1  0
 48 58  1  0
 49 55  1  0
 49 51  1  0
 50 56  1  0
 51 52  2  0
 51 50  1  0
 53 47  2  0
 54 53  1  0
 54 49  2  0
 55 48  1  0
 56 46  1  0
 58 60  2  0
 59 58  1  0
 61 59  1  0
 62 71  2  0
 62 67  1  0
 63 59  1  0
 63 67  1  0
 64 63  1  0
 65 66  1  0
 65 64  1  0
 66 62  1  0
 67 68  2  0
 68 69  1  0
 70 69  2  0
 71 70  1  0
 72 46  1  0
 72 73  1  0
 72 82  1  0
 73 76  1  0
 74 78  1  0
 74 73  1  0
 75 74  2  0
 78 77  1  0
 80 78  1  0
 80 81  1  0
 80 79  1  0
 82 85  1  1
 82 83  1  0
 84 82  1  0
M  ISO  4   4 100  13 100  44 101  45 101
M  END
>  <TORSDO>  (71) 
F 18

>  <SCORE>  (71) 
-16.385

>  <name>  (71) 
70

>  <ligand_id>  (71) 
70

>  <original_smiles>  (71) 
[H]C(=NC([H])([H])C([H])([H])Oc1c([H])c([H])c2c(c1[H])C([H])([H])N(C(=O)C([H])(N([H])C(=O)C([H])(N([H])C([H])([H])[H])C([H])([H])[H])C(C([H])([H])[H])(C([H])([H])[H])C([H])([H])[H])C([H])(C(=O)N([H])C1([H])c3c([H])c([H])c([H])c([H])c3C([H])([H])C([H])([H])C1([H])[H])C2([H])[H])C(=O)N([H])C(=O)N1C([H])([H])C([H])([H])C([H])([H])C([H])(n2nc(-c3c([H])c([H])c(Oc4c([H])c([H])c(F)c([H])c4F)c([H])c3[H])c(C(=O)N([H])[H])c2N([H])[H])C1([H])[H]

>  <smiles>  (71) 
[H]C(=NC([H])([H])C([H])([H])Oc1c([H])c([H])c2c(c1[H])C([H])([H])N(C(=O)C([H])(N([H])C(=O)C([H])(N([H])C([H])([H])[H])C([H])([H])[H])C(C([H])([H])[H])(C([H])([H])[H])C([H])([H])[H])C([H])(C(=O)N([H])C1([H])c3c([H])c([H])c([H])c([H])c3C([H])([H])C([H])([H])C1([H])[H])C2([H])[H])C(=O)N([H])C(=O)N1C([H])([H])C([H])([H])C([H])([H])C([H])(n2nc(-c3c([H])c([H])c(Oc4c([H])c([H])c(F)c([H])c4F)c([H])c3[H])c(C(=O)N([H])[H])c2N([H])[H])C1([H])[H]

$$$$
71:0:0
     RDKit          3D

 96103  0  0  1  0  0  0  0  0999 V2000
  -25.1070  -22.8770   18.2250 C   0  0  0  0  0  2  0  0  0  0  0  0
  -26.5370  -23.2130   18.6660 C   0  0  0  0  0  0  0  0  0  0  0  0
  -26.6960  -23.8290   19.8420 N   0  0  0  0  0  0  0  0  0  0  0  0
  -27.4860  -22.9650   17.9190 O   0  0  0  0  0  0  0  0  0  0  0  0
  -25.8740  -23.9940   20.4080 H   0  0  0  0  0  0  0  0  0  0  0  0
  -27.9710  -24.3350   20.3480 C   0  0  0  0  0  2  0  0  0  0  0  0
  -28.5470  -25.5030   19.5080 C   0  0  0  0  0  2  0  0  0  0  0  0
  -28.4430  -26.7720   20.1550 O   0  0  0  0  0  0  0  0  0  0  0  0
  -24.6390  -31.8390   23.3570 C   0  0  0  0  0  0  0  0  0  0  0  0
  -27.2490  -27.4640   20.1530 C   0  0  0  0  0  0  0  0  0  0  0  0
  -23.4230  -30.4930   21.6760 C   0  0  0  0  0  3  0  0  0  0  0  0
  -24.8610  -28.9820   20.2140 C   0  0  0  0  0  0  0  0  0  0  0  0
  -25.9510  -30.8280   21.4970 C   0  0  0  0  0  2  0  0  0  0  0  0
  -26.0200  -29.4750   20.8250 C   0  0  0  0  0  0  0  0  0  0  0  0
  -27.2110  -28.7180   20.8030 C   0  0  0  0  0  3  0  0  0  0  0  0
  -26.0730  -26.9950   19.5220 C   0  0  0  0  0  3  0  0  0  0  0  0
  -24.8800  -27.7380   19.5640 C   0  0  0  0  0  3  0  0  0  0  0  0
  -23.6260  -29.8520   20.2790 C   0  0  0  0  0  2  0  0  0  0  0  0
  -24.6890  -31.0660   22.2350 N   0  0  0  0  0  0  0  0  0  0  0  0
  -23.5610  -32.1100   23.9020 O   0  0  0  0  0  0  0  0  0  0  0  0
  -22.7610  -29.4510   22.6050 C   0  0  0  0  0  0  0  0  0  0  0  0
  -21.4370  -29.2840   22.4650 N   0  0  0  0  0  0  0  0  0  0  0  0
  -23.4360  -28.7980   23.4040 O   0  0  0  0  0  0  0  0  0  0  0  0
  -20.9550  -29.8610   21.7890 H   0  0  0  0  0  0  0  0  0  0  0  0
  -18.0480  -28.1140   22.9110 C   0  0  0  0  0  0  0  0  0  0  0  0
  -20.6060  -28.3370   23.2080 C   0  0  0  0  0  3  0  0  0  0  0  0
  -20.7000  -26.9200   22.5970 C   0  0  0  0  0  2  0  0  0  0  0  0
  -19.6020  -26.6330   21.5690 C   0  0  0  0  0  2  0  0  0  0  0  0
  -18.2160  -26.7790   22.2050 C   0  0  0  0  0  2  0  0  0  0  0  0
  -19.1720  -28.8530   23.3670 C   0  0  0  0  0  0  0  0  0  0  0  0
  -18.9640  -30.1060   23.9840 C   0  0  0  0  0  3  0  0  0  0  0  0
  -17.6640  -30.6180   24.1530 C   0  0  0  0  0  3  0  0  0  0  0  0
  -16.5540  -29.8750   23.7140 C   0  0  0  0  0  3  0  0  0  0  0  0
  -16.7470  -28.6260   23.0980 C   0  0  0  0  0  3  0  0  0  0  0  0
  -25.9310  -32.4380   23.9960 C   0  0  0  0  0  3  0  0  0  0  0  0
  -25.6480  -33.8380   24.3350 N   0  0  0  0  0  0  0  0  0  0  0  0
  -26.0100  -34.8890   23.5880 C   0  0  0  0  0  0  0  0  0  0  0  0
  -26.6900  -34.7820   22.5640 O   0  0  0  0  0  0  0  0  0  0  0  0
  -25.0510  -34.0010   25.1320 H   0  0  0  0  0  0  0  0  0  0  0  0
  -24.3180  -36.7150   23.2250 C   0  0  0  0  0  1  0  0  0  0  0  0
  -25.5400  -36.2810   24.0510 C   0  0  0  0  0  3  0  0  0  0  0  0
  -27.6770  -37.1200   24.9200 C   0  0  0  0  0  1  0  0  0  0  0  0
  -26.5920  -37.3170   23.9630 N   0  0  0  0  0  0  0  0  0  0  0  0
  -26.2000  -38.2430   24.1130 H   0  0  0  0  0  0  0  0  0  0  0  0
  -26.4250  -31.6440   25.2650 C   0  0  1  0  0  0  0  0  0  0  0  0
  -25.3200  -31.4140   26.3230 C   0  0  0  0  0  1  0  0  0  0  0  0
  -26.9870  -30.2600   24.8600 C   0  0  0  0  0  1  0  0  0  0  0  0
  -27.5830  -32.4110   25.9480 C   0  0  0  0  0  1  0  0  0  0  0  0
  -24.3770  -21.8080   19.0710 C   0  0  0  0  0  2  0  0  0  0  0  0
  -25.1660  -20.5320   19.4050 C   0  0  0  0  0  2  0  0  0  0  0  0
  -25.8790  -19.9050   18.1930 C   0  0  0  0  0  2  0  0  0  0  0  0
  -26.6190  -18.5980   18.5100 C   0  0  0  0  0  2  0  0  0  0  0  0
  -27.5990  -18.6490   19.7030 C   0  0  0  0  0  2  0  0  0  0  0  0
  -28.6910  -19.7420   19.6550 C   0  0  0  0  0  2  0  0  0  0  0  0
  -29.7330  -19.6240   18.5290 C   0  0  0  0  0  2  0  0  0  0  0  0
  -31.0030  -18.8500   18.9100 C   0  0  0  0  0  2  0  0  0  0  0  0
  -30.7730  -17.3620   19.2100 C   0  0  0  0  0  2  0  0  0  0  0  0
  -30.8260  -17.0130   20.7140 C   0  0  0  0  0  2  0  0  0  0  0  0
  -31.1450  -14.5650   20.5460 C   0  0  0  0  0  0  0  0  0  0  0  0
  -30.8270  -12.3690   19.5040 C   0  0  0  0  0  2  0  0  0  0  0  0
  -29.9460  -12.5460   18.2530 C   0  0  0  0  0  2  0  0  0  0  0  0
  -28.4470  -12.4860   18.6140 C   0  0  0  0  0  2  0  0  0  0  0  0
  -28.0830  -13.3930   19.8210 C   0  0  0  0  0  3  0  0  0  0  0  0
  -29.0820  -13.1880   20.9850 C   0  0  0  0  0  2  0  0  0  0  0  0
  -30.4410  -13.4100   20.4630 N   0  0  0  0  0  0  0  0  0  0  0  0
  -32.2940  -14.6970   20.1140 O   0  0  0  0  0  0  0  0  0  0  0  0
  -30.4340  -15.6250   20.9430 N   0  0  0  0  0  0  0  0  0  0  0  0
  -29.4930  -15.4540   21.2620 H   0  0  0  0  0  0  0  0  0  0  0  0
  -25.6850  -14.1100   20.4250 C   0  0  0  0  0  0  0  0  0  0  0  0
  -24.5730  -13.3870   20.7650 C   0  0  0  0  0  0  0  0  0  0  0  0
  -24.9790  -12.0180   20.7680 C   0  0  0  0  0  0  0  0  0  0  0  0
  -26.7010  -13.1830   20.2480 N   0  0  0  0  0  0  0  0  0  0  0  0
  -26.2770  -11.9210   20.5120 N   0  0  0  0  0  0  0  0  0  0  0  0
  -24.1960  -10.7890   20.9500 C   0  0  0  0  0  0  0  0  0  0  0  0
  -24.5510   -9.8250   21.9200 C   0  0  0  0  0  3  0  0  0  0  0  0
  -23.7730   -8.6590   22.0890 C   0  0  0  0  0  3  0  0  0  0  0  0
  -22.6270   -8.4480   21.2880 C   0  0  0  0  0  0  0  0  0  0  0  0
  -22.2910   -9.4000   20.3080 C   0  0  0  0  0  3  0  0  0  0  0  0
  -23.0670  -10.5580   20.1380 C   0  0  0  0  0  3  0  0  0  0  0  0
  -21.8280   -7.3320   21.3630 O   0  0  0  0  0  0  0  0  0  0  0  0
  -21.6890   -6.6240   22.5290 C   0  0  0  0  0  0  0  0  0  0  0  0
  -21.2170   -7.2270   23.7170 C   0  0  0  0  0  3  0  0  0  0  0  0
  -21.0230   -6.4470   24.8730 C   0  0  0  0  0  3  0  0  0  0  0  0
  -21.2910   -5.0650   24.8450 C   0  0  0  0  0  0  0  0  0  0  0  0
  -21.7550   -4.4610   23.6630 C   0  0  0  0  0  3  0  0  0  0  0  0
  -21.9500   -5.2390   22.5070 C   0  0  0  0  0  0  0  0  0  0  0  0
  -22.3780   -4.6490   21.3650 F   0  0  0  0  0  0  0  0  0  0  0  0
  -21.0970   -4.3130   25.9540 F   0  0  0  0  0  0  0  0  0  0  0  0
  -23.1870  -13.9240   20.9780 C   0  0  0  0  0  0  0  0  0  0  0  0
  -22.4050  -13.2760   21.8350 N   0  0  0  0  0  0  0  0  0  0  0  0
  -22.8050  -14.9510   20.4190 O   0  0  0  0  0  0  0  0  0  0  0  0
  -22.7270  -12.4450   22.3090 H   0  0  0  0  0  0  0  0  0  0  0  0
  -21.4720  -13.6150   22.0190 H   0  0  0  0  0  0  0  0  0  0  0  0
  -25.9120  -15.4670   20.2390 N   0  0  0  0  0  0  0  0  0  0  0  0
  -25.1710  -16.1540   20.3230 H   0  0  0  0  0  0  0  0  0  0  0  0
  -26.7930  -15.8690   19.9430 H   0  0  0  0  0  0  0  0  0  0  0  0
  1  2  1  0
  1 49  1  0
  2  3  1  0
  3  6  1  0
  3  5  1  0
  4  2  2  0
  7  8  1  0
  7  6  1  0
  9 20  2  0
 10  8  1  0
 10 15  1  0
 11 19  1  0
 11 21  1  0
 12 18  1  0
 12 14  1  0
 13 19  1  0
 14 13  1  0
 15 14  2  0
 16 17  1  0
 16 10  2  0
 17 12  2  0
 18 11  1  0
 19  9  1  0
 21 23  2  0
 22 21  1  0
 24 22  1  0
 25 34  2  0
 25 30  1  0
 26 22  1  0
 26 30  1  0
 27 26  1  0
 28 29  1  0
 28 27  1  0
 29 25  1  0
 30 31  2  0
 31 32  1  0
 33 32  2  0
 34 33  1  0
 35  9  1  0
 35 36  1  0
 35 45  1  0
 36 39  1  0
 37 41  1  0
 37 36  1  0
 38 37  2  0
 41 40  1  0
 43 41  1  0
 43 44  1  0
 43 42  1  0
 45 48  1  1
 45 46  1  0
 47 45  1  0
 49 50  1  0
 51 52  1  0
 51 50  1  0
 52 53  1  0
 54 53  1  0
 55 56  1  0
 55 54  1  0
 56 57  1  0
 57 58  1  0
 58 67  1  0
 59 67  1  0
 60 65  1  0
 61 62  1  0
 61 60  1  0
 63 62  1  0
 63 72  1  0
 63 64  1  0
 65 59  1  0
 65 64  1  0
 66 59  2  0
 67 68  1  0
 69 70  2  0
 70 71  1  0
 70 89  1  0
 71 74  1  0
 72 69  1  0
 72 73  1  0
 73 71  2  0
 74 75  1  0
 75 76  2  0
 77 80  1  0
 77 76  1  0
 78 77  2  0
 79 78  1  0
 79 74  2  0
 80 81  1  0
 81 82  1  0
 82 83  2  0
 84 83  1  0
 84 88  1  0
 85 84  2  0
 86 81  2  0
 86 85  1  0
 87 86  1  0
 89 90  1  0
 90 93  1  0
 90 92  1  0
 91 89  2  0
 94 95  1  0
 94 69  1  0
 96 94  1  0
M  ISO  4   7 101   8 101  59 100  67 100
M  END
>  <TORSDO>  (72) 
F 29

>  <SCORE>  (72) 
-9.483

>  <name>  (72) 
71

>  <ligand_id>  (72) 
71

>  <original_smiles>  (72) 
[H]c1c([H])c([H])c2c(c1[H])C([H])([H])C([H])([H])C([H])([H])C2([H])N([H])C(=O)C1([H])N(C(=O)C([H])(N([H])C(=O)C([H])(N([H])C([H])([H])[H])C([H])([H])[H])C(C([H])([H])[H])(C([H])([H])[H])C([H])([H])[H])C([H])([H])c2c([H])c(OC([H])([H])C([H])([H])N([H])C(=O)C([H])([H])C([H])([H])C([H])([H])C([H])([H])C([H])([H])C([H])([H])C([H])([H])C([H])([H])C([H])([H])C([H])([H])C([H])([H])N([H])C(=O)N3C([H])([H])C([H])([H])C([H])([H])C([H])(n4nc(-c5c([H])c([H])c(Oc6c([H])c([H])c(F)c([H])c6F)c([H])c5[H])c(C(=O)N([H])[H])c4N([H])[H])C3([H])[H])c([H])c([H])c2C1([H])[H]

>  <smiles>  (72) 
[H]c1c([H])c([H])c2c(c1[H])C([H])([H])C([H])([H])C([H])([H])C2([H])N([H])C(=O)C1([H])N(C(=O)C([H])(N([H])C(=O)C([H])(N([H])C([H])([H])[H])C([H])([H])[H])C(C([H])([H])[H])(C([H])([H])[H])C([H])([H])[H])C([H])([H])c2c([H])c(OC([H])([H])C([H])([H])N([H])C(=O)C([H])([H])C([H])([H])C([H])([H])C([H])([H])C([H])([H])C([H])([H])C([H])([H])C([H])([H])C([H])([H])C([H])([H])C([H])([H])N([H])C(=O)N3C([H])([H])C([H])([H])C([H])([H])C([H])(n4nc(-c5c([H])c([H])c(Oc6c([H])c([H])c(F)c([H])c6F)c([H])c5[H])c(C(=O)N([H])[H])c4N([H])[H])C3([H])[H])c([H])c([H])c2C1([H])[H]

$$$$
72:0:0
     RDKit          3D

104112  0  0  1  0  0  0  0  0999 V2000
  -30.5020  -20.1340   14.9720 C   0  0  0  0  0  2  0  0  0  0  0  0
  -30.4300  -22.5470   15.5860 C   0  0  0  0  0  0  0  0  0  0  0  0
  -30.8170  -21.2870   15.8120 N   0  0  0  0  0  0  0  0  0  0  0  0
  -29.7470  -22.8880   14.6190 O   0  0  0  0  0  0  0  0  0  0  0  0
  -31.3600  -21.1220   16.6490 H   0  0  0  0  0  0  0  0  0  0  0  0
  -32.5400  -24.8240   17.8340 C   0  0  0  0  0  3  0  0  0  0  0  0
  -32.1900  -23.8620   16.8630 C   0  0  0  0  0  3  0  0  0  0  0  0
  -31.5420  -25.4630   18.5940 C   0  0  0  0  0  3  0  0  0  0  0  0
  -29.8400  -24.1790   17.4040 C   0  0  0  0  0  3  0  0  0  0  0  0
  -30.8320  -23.5370   16.6390 C   0  0  0  0  0  0  0  0  0  0  0  0
  -30.1860  -25.1410   18.3790 C   0  0  0  0  0  0  0  0  0  0  0  0
  -29.0470  -25.7450   19.1780 C   0  0  0  0  0  2  0  0  0  0  0  0
  -29.0600  -27.0010   19.8530 O   0  0  0  0  0  0  0  0  0  0  0  0
  -24.5880  -31.4140   23.2620 C   0  0  0  0  0  0  0  0  0  0  0  0
  -27.8110  -27.5970   19.9040 C   0  0  0  0  0  0  0  0  0  0  0  0
  -23.6160  -30.0860   21.4200 C   0  0  0  0  0  3  0  0  0  0  0  0
  -25.2830  -28.8610   19.9450 C   0  0  0  0  0  0  0  0  0  0  0  0
  -26.1040  -30.7010   21.4170 C   0  0  0  0  0  2  0  0  0  0  0  0
  -26.3560  -29.4190   20.6500 C   0  0  0  0  0  0  0  0  0  0  0  0
  -27.6240  -28.7930   20.6340 C   0  0  0  0  0  3  0  0  0  0  0  0
  -26.6980  -27.0470   19.2150 C   0  0  0  0  0  3  0  0  0  0  0  0
  -25.4440  -27.6700   19.2300 C   0  0  0  0  0  3  0  0  0  0  0  0
  -23.9650  -29.5930   19.9950 C   0  0  0  0  0  2  0  0  0  0  0  0
  -24.7830  -30.7450   22.0930 N   0  0  0  0  0  0  0  0  0  0  0  0
  -23.4570  -31.5240   23.7590 O   0  0  0  0  0  0  0  0  0  0  0  0
  -23.0280  -28.9050   22.2260 C   0  0  0  0  0  0  0  0  0  0  0  0
  -21.7550  -28.5670   21.9570 N   0  0  0  0  0  0  0  0  0  0  0  0
  -23.7140  -28.3020   23.0550 O   0  0  0  0  0  0  0  0  0  0  0  0
  -21.2570  -29.1200   21.2720 H   0  0  0  0  0  0  0  0  0  0  0  0
  -18.5610  -26.8800   21.9670 C   0  0  0  0  0  0  0  0  0  0  0  0
  -21.0060  -27.4710   22.5690 C   0  0  0  0  0  3  0  0  0  0  0  0
  -21.3840  -26.1140   21.9310 C   0  0  0  0  0  2  0  0  0  0  0  0
  -20.4640  -25.7150   20.7720 C   0  0  0  0  0  2  0  0  0  0  0  0
  -19.0120  -25.6200   21.2490 C   0  0  0  0  0  2  0  0  0  0  0  0
  -19.4990  -27.7570   22.5740 C   0  0  0  0  0  0  0  0  0  0  0  0
  -19.0310  -28.9340   23.1990 C   0  0  0  0  0  3  0  0  0  0  0  0
  -17.6560  -29.2370   23.2230 C   0  0  0  0  0  3  0  0  0  0  0  0
  -16.7320  -28.3570   22.6360 C   0  0  0  0  0  3  0  0  0  0  0  0
  -17.1850  -27.1800   22.0160 C   0  0  0  0  0  3  0  0  0  0  0  0
  -25.7690  -32.0980   24.0170 C   0  0  0  0  0  3  0  0  0  0  0  0
  -25.3720  -33.4840   24.2980 N   0  0  0  0  0  0  0  0  0  0  0  0
  -25.7100  -34.5370   23.5440 C   0  0  0  0  0  0  0  0  0  0  0  0
  -26.4660  -34.4510   22.5710 O   0  0  0  0  0  0  0  0  0  0  0  0
  -24.7140  -33.6240   25.0510 H   0  0  0  0  0  0  0  0  0  0  0  0
  -23.9170  -36.2190   23.0320 C   0  0  0  0  0  1  0  0  0  0  0  0
  -25.1210  -35.9060   23.9330 C   0  0  0  0  0  3  0  0  0  0  0  0
  -27.1410  -36.9300   24.8820 C   0  0  0  0  0  1  0  0  0  0  0  0
  -26.1030  -37.0120   23.8570 N   0  0  0  0  0  0  0  0  0  0  0  0
  -25.6380  -37.9110   23.9480 H   0  0  0  0  0  0  0  0  0  0  0  0
  -26.1690  -31.3510   25.3470 C   0  0  1  0  0  0  0  0  0  0  0  0
  -24.9740  -31.0750   26.2890 C   0  0  0  0  0  1  0  0  0  0  0  0
  -26.8400  -29.9960   25.0260 C   0  0  0  0  0  1  0  0  0  0  0  0
  -27.2100  -32.1900   26.1280 C   0  0  0  0  0  1  0  0  0  0  0  0
  -29.0670  -19.6060   15.1890 C   0  0  0  0  0  2  0  0  0  0  0  0
  -28.5910  -19.6750   16.6490 C   0  0  0  0  0  2  0  0  0  0  0  0
  -27.0900  -20.0120   16.7690 C   0  0  0  0  0  2  0  0  0  0  0  0
  -26.5270  -19.9510   18.2070 C   0  0  0  0  0  2  0  0  0  0  0  0
  -27.4990  -20.4640   19.2740 C   0  0  0  0  0  0  0  0  0  0  0  0
  -28.4240  -19.5980   19.7030 N   0  0  0  0  0  0  0  0  0  0  0  0
  -27.4080  -21.6160   19.7010 O   0  0  0  0  0  0  0  0  0  0  0  0
  -28.4440  -18.6870   19.2650 H   0  0  0  0  0  0  0  0  0  0  0  0
  -29.4670  -19.8910   20.6790 C   0  0  0  0  0  2  0  0  0  0  0  0
  -30.7060  -19.0170   20.4310 C   0  0  0  0  0  2  0  0  0  0  0  0
  -30.5200  -17.5330   20.8000 C   0  0  0  0  0  2  0  0  0  0  0  0
  -31.7970  -16.7130   20.5370 C   0  0  0  0  0  2  0  0  0  0  0  0
  -32.0230  -15.5440   21.5120 C   0  0  0  0  0  2  0  0  0  0  0  0
  -31.5220  -13.4990   20.1680 C   0  0  0  0  0  0  0  0  0  0  0  0
  -30.8520  -11.3830   19.0890 C   0  0  0  0  0  2  0  0  0  0  0  0
  -29.8960  -11.6190   17.9060 C   0  0  0  0  0  2  0  0  0  0  0  0
  -28.4360  -11.7060   18.3870 C   0  0  0  0  0  2  0  0  0  0  0  0
  -28.2610  -12.6830   19.5780 C   0  0  0  0  0  3  0  0  0  0  0  0
  -29.3090  -12.4000   20.6750 C   0  0  0  0  0  2  0  0  0  0  0  0
  -30.6540  -12.4610   20.0690 N   0  0  0  0  0  0  0  0  0  0  0  0
  -32.5190  -13.6270   19.4510 O   0  0  0  0  0  0  0  0  0  0  0  0
  -31.2490  -14.3600   21.1550 N   0  0  0  0  0  0  0  0  0  0  0  0
  -30.4400  -14.1510   21.7210 H   0  0  0  0  0  0  0  0  0  0  0  0
  -26.0400  -13.6760   20.4260 C   0  0  0  0  0  0  0  0  0  0  0  0
  -24.8650  -13.0900   20.8140 C   0  0  0  0  0  0  0  0  0  0  0  0
  -25.0720  -11.6810   20.7030 C   0  0  0  0  0  0  0  0  0  0  0  0
  -26.8990  -12.6350   20.1080 N   0  0  0  0  0  0  0  0  0  0  0  0
  -26.3200  -11.4270   20.3280 N   0  0  0  0  0  0  0  0  0  0  0  0
  -24.1390  -10.5610   20.8770 C   0  0  0  0  0  0  0  0  0  0  0  0
  -24.4270   -9.4880   21.7490 C   0  0  0  0  0  3  0  0  0  0  0  0
  -23.5070   -8.4310   21.9130 C   0  0  0  0  0  3  0  0  0  0  0  0
  -22.2820   -8.4400   21.2050 C   0  0  0  0  0  0  0  0  0  0  0  0
  -22.0110   -9.4990   20.3200 C   0  0  0  0  0  3  0  0  0  0  0  0
  -22.9300  -10.5480   20.1540 C   0  0  0  0  0  3  0  0  0  0  0  0
  -21.3390   -7.4440   21.2800 O   0  0  0  0  0  0  0  0  0  0  0  0
  -21.1890   -6.6790   22.4100 C   0  0  0  0  0  0  0  0  0  0  0  0
  -20.8660   -7.2500   23.6590 C   0  0  0  0  0  3  0  0  0  0  0  0
  -20.6520   -6.4210   24.7780 C   0  0  0  0  0  3  0  0  0  0  0  0
  -20.7520   -5.0230   24.6500 C   0  0  0  0  0  0  0  0  0  0  0  0
  -21.0690   -4.4520   23.4050 C   0  0  0  0  0  3  0  0  0  0  0  0
  -21.2850   -5.2770   22.2870 C   0  0  0  0  0  0  0  0  0  0  0  0
  -21.5680   -4.7220   21.0850 F   0  0  0  0  0  0  0  0  0  0  0  0
  -20.5400   -4.2260   25.7220 F   0  0  0  0  0  0  0  0  0  0  0  0
  -23.5910  -13.7950   21.1790 C   0  0  0  0  0  0  0  0  0  0  0  0
  -22.8160  -13.2230   22.0950 N   0  0  0  0  0  0  0  0  0  0  0  0
  -23.2980  -14.8840   20.6870 O   0  0  0  0  0  0  0  0  0  0  0  0
  -23.0670  -12.3400   22.5140 H   0  0  0  0  0  0  0  0  0  0  0  0
  -21.9610  -13.6780   22.3810 H   0  0  0  0  0  0  0  0  0  0  0  0
  -26.4460  -15.0010   20.3030 N   0  0  0  0  0  0  0  0  0  0  0  0
  -25.8260  -15.7790   20.5010 H   0  0  0  0  0  0  0  0  0  0  0  0
  -27.3750  -15.2910   20.0280 H   0  0  0  0  0  0  0  0  0  0  0  0
  1 54  1  0
  1  3  1  0
  2  3  1  0
  2 10  1  0
  3  5  1  0
  4  2  2  0
  6  8  1  0
  7  6  2  0
  9 11  1  0
 10  7  1  0
 10  9  2  0
 11  8  2  0
 11 12  1  0
 12 13  1  0
 13 15  1  0
 14 25  2  0
 15 20  1  0
 16 24  1  0
 16 26  1  0
 17 23  1  0
 17 19  1  0
 18 24  1  0
 19 18  1  0
 20 19  2  0
 21 22  1  0
 21 15  2  0
 22 17  2  0
 23 16  1  0
 24 14  1  0
 26 28  2  0
 27 26  1  0
 29 27  1  0
 30 39  2  0
 30 35  1  0
 31 27  1  0
 31 35  1  0
 32 31  1  0
 33 34  1  0
 33 32  1  0
 34 30  1  0
 35 36  2  0
 36 37  1  0
 38 37  2  0
 39 38  1  0
 40 14  1  0
 40 41  1  0
 40 50  1  0
 41 44  1  0
 42 46  1  0
 42 41  1  0
 43 42  2  0
 46 45  1  0
 48 46  1  0
 48 49  1  0
 48 47  1  0
 50 53  1  1
 50 51  1  0
 52 50  1  0
 54 55  1  0
 55 56  1  0
 56 57  1  0
 57 58  1  0
 58 60  2  0
 58 59  1  0
 59 62  1  0
 61 59  1  0
 63 62  1  0
 63 64  1  0
 65 64  1  0
 65 66  1  0
 67 75  1  0
 68 73  1  0
 69 70  1  0
 69 68  1  0
 71 70  1  0
 71 80  1  0
 71 72  1  0
 73 67  1  0
 73 72  1  0
 74 67  2  0
 75 66  1  0
 75 76  1  0
 77 78  2  0
 78 97  1  0
 79 78  1  0
 79 82  1  0
 80 81  1  0
 80 77  1  0
 81 79  2  0
 82 83  1  0
 83 84  2  0
 85 88  1  0
 85 84  1  0
 86 85  2  0
 87 86  1  0
 87 82  2  0
 88 89  1  0
 89 90  1  0
 90 91  2  0
 92 91  1  0
 92 96  1  0
 93 92  2  0
 94 89  2  0
 94 93  1  0
 95 94  1  0
 97 98  1  0
 98101  1  0
 98100  1  0
 99 97  2  0
102 77  1  0
102103  1  0
104102  1  0
M  ISO  4  12 101  13 101  67 100  75 100
M  END
>  <TORSDO>  (73) 
F 29

>  <SCORE>  (73) 
-9.098

>  <name>  (73) 
72

>  <ligand_id>  (73) 
72

>  <original_smiles>  (73) 
[H]c1c([H])c(C(=O)N([H])C([H])([H])C([H])([H])C([H])([H])C([H])([H])C([H])([H])C(=O)N([H])C([H])([H])C([H])([H])C([H])([H])C([H])([H])C([H])([H])N([H])C(=O)N2C([H])([H])C([H])([H])C([H])([H])C([H])(n3nc(-c4c([H])c([H])c(Oc5c([H])c([H])c(F)c([H])c5F)c([H])c4[H])c(C(=O)N([H])[H])c3N([H])[H])C2([H])[H])c([H])c(C([H])([H])Oc2c([H])c([H])c3c(c2[H])C([H])([H])N(C(=O)C([H])(N([H])C(=O)C([H])(N([H])C([H])([H])[H])C([H])([H])[H])C(C([H])([H])[H])(C([H])([H])[H])C([H])([H])[H])C([H])(C(=O)N([H])C2([H])c4c([H])c([H])c([H])c([H])c4C([H])([H])C([H])([H])C2([H])[H])C3([H])[H])c1[H]

>  <smiles>  (73) 
[H]c1c([H])c(C(=O)N([H])C([H])([H])C([H])([H])C([H])([H])C([H])([H])C([H])([H])C(=O)N([H])C([H])([H])C([H])([H])C([H])([H])C([H])([H])C([H])([H])N([H])C(=O)N2C([H])([H])C([H])([H])C([H])([H])C([H])(n3nc(-c4c([H])c([H])c(Oc5c([H])c([H])c(F)c([H])c5F)c([H])c4[H])c(C(=O)N([H])[H])c3N([H])[H])C2([H])[H])c([H])c(C([H])([H])Oc2c([H])c([H])c3c(c2[H])C([H])([H])N(C(=O)C([H])(N([H])C(=O)C([H])(N([H])C([H])([H])[H])C([H])([H])[H])C(C([H])([H])[H])(C([H])([H])[H])C([H])([H])[H])C([H])(C(=O)N([H])C2([H])c4c([H])c([H])c([H])c([H])c4C([H])([H])C([H])([H])C2([H])[H])C3([H])[H])c1[H]

$$$$
73:0:0
     RDKit          3D

 98106  0  0  1  0  0  0  0  0999 V2000
  -27.7310  -17.0890   18.5850 C   0  0  0  0  0  3  0  0  0  0  0  0
  -29.1200  -16.8040   18.6900 C   0  0  0  0  0  3  0  0  0  0  0  0
  -27.8830  -18.4760   20.5630 C   0  0  0  0  0  3  0  0  0  0  0  0
  -27.0900  -17.8310   19.6030 C   0  0  0  0  0  0  0  0  0  0  0  0
  -29.2800  -18.4610   20.4230 C   0  0  0  0  0  3  0  0  0  0  0  0
  -29.8510  -17.2260   19.8310 C   0  0  0  0  0  3  0  0  0  0  0  0
  -30.8300  -14.7980   20.2070 C   0  0  0  0  0  0  0  0  0  0  0  0
  -30.6480  -12.4290   19.3750 C   0  0  0  0  0  2  0  0  0  0  0  0
  -29.7150  -12.3990   18.1420 C   0  0  0  0  0  2  0  0  0  0  0  0
  -28.2420  -12.2330   18.5710 C   0  0  0  0  0  2  0  0  0  0  0  0
  -27.8540  -13.1950   19.7230 C   0  0  0  0  0  3  0  0  0  0  0  0
  -28.9110  -13.2290   20.8510 C   0  0  0  0  0  2  0  0  0  0  0  0
  -30.2130  -13.5550   20.2510 N   0  0  0  0  0  0  0  0  0  0  0  0
  -31.9710  -14.8800   19.7490 O   0  0  0  0  0  0  0  0  0  0  0  0
  -30.1290  -15.9530   20.5880 N   0  0  0  0  0  0  0  0  0  0  0  0
  -29.3840  -15.7350   21.2300 H   0  0  0  0  0  0  0  0  0  0  0  0
  -25.5010  -13.8270   20.5110 C   0  0  0  0  0  0  0  0  0  0  0  0
  -24.4170  -13.0900   20.8910 C   0  0  0  0  0  0  0  0  0  0  0  0
  -24.8380  -11.7290   20.8310 C   0  0  0  0  0  0  0  0  0  0  0  0
  -26.5130  -12.9270   20.2340 N   0  0  0  0  0  0  0  0  0  0  0  0
  -26.1200  -11.6500   20.4880 N   0  0  0  0  0  0  0  0  0  0  0  0
  -24.0740  -10.4910   21.0180 C   0  0  0  0  0  0  0  0  0  0  0  0
  -24.4860   -9.4990   21.9340 C   0  0  0  0  0  3  0  0  0  0  0  0
  -23.7210   -8.3270   22.1080 C   0  0  0  0  0  3  0  0  0  0  0  0
  -22.5280   -8.1420   21.3660 C   0  0  0  0  0  0  0  0  0  0  0  0
  -22.1380   -9.1230   20.4380 C   0  0  0  0  0  3  0  0  0  0  0  0
  -22.9050  -10.2840   20.2610 C   0  0  0  0  0  3  0  0  0  0  0  0
  -21.7340   -7.0220   21.4550 O   0  0  0  0  0  0  0  0  0  0  0  0
  -21.6640   -6.2820   22.6070 C   0  0  0  0  0  0  0  0  0  0  0  0
  -21.2430   -6.8440   23.8320 C   0  0  0  0  0  3  0  0  0  0  0  0
  -21.1130   -6.0290   24.9750 C   0  0  0  0  0  3  0  0  0  0  0  0
  -21.3990   -4.6530   24.8950 C   0  0  0  0  0  0  0  0  0  0  0  0
  -21.8170   -4.0890   23.6750 C   0  0  0  0  0  3  0  0  0  0  0  0
  -21.9460   -4.9010   22.5350 C   0  0  0  0  0  0  0  0  0  0  0  0
  -22.3260   -4.3500   21.3570 F   0  0  0  0  0  0  0  0  0  0  0  0
  -21.2700   -3.8670   25.9890 F   0  0  0  0  0  0  0  0  0  0  0  0
  -23.0450  -13.6160   21.2000 C   0  0  0  0  0  0  0  0  0  0  0  0
  -22.3140  -12.9430   22.0830 N   0  0  0  0  0  0  0  0  0  0  0  0
  -22.6260  -14.6590   20.6950 O   0  0  0  0  0  0  0  0  0  0  0  0
  -22.6560  -12.0960   22.5120 H   0  0  0  0  0  0  0  0  0  0  0  0
  -21.3930  -13.2780   22.3300 H   0  0  0  0  0  0  0  0  0  0  0  0
  -25.7020  -15.1850   20.3530 N   0  0  0  0  0  0  0  0  0  0  0  0
  -24.9540  -15.8530   20.5020 H   0  0  0  0  0  0  0  0  0  0  0  0
  -26.5400  -15.5780   19.9470 H   0  0  0  0  0  0  0  0  0  0  0  0
  -25.6420  -18.0410   19.6820 C   0  0  0  0  0  0  0  0  0  0  0  0
  -24.9770  -17.6400   20.7600 N   0  0  0  0  0  0  0  0  0  0  0  0
  -24.9660  -18.6120   18.6950 N   0  0  0  0  0  4  0  0  0  0  0  0
  -24.0220  -17.9030   20.9540 H   0  0  0  0  0  0  0  0  0  0  0  0
  -25.4420  -17.0360   21.4220 H   0  0  0  0  0  0  0  0  0  0  0  0
  -25.4680  -18.9840   17.9010 H   0  0  0  0  0  0  0  0  0  0  0  0
  -23.9700  -18.7560   18.7590 H   0  0  0  0  0  0  0  0  0  0  0  0
  -29.7510  -19.9730   20.4350 C   0  0  0  0  0  0  0  0  0  0  0  0
  -31.0340  -20.2280   21.2110 C   0  0  0  0  0  1  0  0  0  0  0  0
  -29.0290  -20.9920   19.9600 N   0  0  0  0  0  0  0  0  0  0  0  0
  -29.3120  -22.3970   20.3810 O   0  0  0  0  0  0  0  0  0  0  0  0
  -28.6480  -23.4830   19.5560 C   0  0  0  0  0  2  0  0  0  0  0  0
  -27.9390  -24.8270   20.2050 C   0  0  0  0  0  2  0  0  0  0  0  0
  -28.0620  -26.2540   19.6820 O   0  0  0  0  0  0  0  0  0  0  0  0
  -24.4940  -31.6590   23.0630 C   0  0  0  0  0  0  0  0  0  0  0  0
  -26.9610  -27.1540   19.7510 C   0  0  0  0  0  0  0  0  0  0  0  0
  -23.2260  -30.3450   21.4060 C   0  0  0  0  0  3  0  0  0  0  0  0
  -24.6170  -28.8330   19.8650 C   0  0  0  0  0  0  0  0  0  0  0  0
  -25.7650  -30.6370   21.1530 C   0  0  0  0  0  2  0  0  0  0  0  0
  -25.8130  -29.2790   20.4460 C   0  0  0  0  0  0  0  0  0  0  0  0
  -26.9870  -28.4580   20.3680 C   0  0  0  0  0  3  0  0  0  0  0  0
  -25.7420  -26.7840   19.1430 C   0  0  0  0  0  3  0  0  0  0  0  0
  -24.5870  -27.5960   19.2020 C   0  0  0  0  0  3  0  0  0  0  0  0
  -23.3920  -29.7220   19.9930 C   0  0  0  0  0  2  0  0  0  0  0  0
  -24.5170  -30.8950   21.9320 N   0  0  0  0  0  0  0  0  0  0  0  0
  -23.4320  -31.9260   23.6470 O   0  0  0  0  0  0  0  0  0  0  0  0
  -22.5770  -29.3000   22.3470 C   0  0  0  0  0  0  0  0  0  0  0  0
  -21.2450  -29.1470   22.2580 N   0  0  0  0  0  0  0  0  0  0  0  0
  -23.2760  -28.6380   23.1200 O   0  0  0  0  0  0  0  0  0  0  0  0
  -20.7430  -29.7620   21.6330 H   0  0  0  0  0  0  0  0  0  0  0  0
  -17.8740  -27.9040   22.8190 C   0  0  0  0  0  0  0  0  0  0  0  0
  -20.4390  -28.1760   23.0000 C   0  0  0  0  0  3  0  0  0  0  0  0
  -20.5340  -26.7710   22.3600 C   0  0  0  0  0  2  0  0  0  0  0  0
  -19.3890  -26.4710   21.3890 C   0  0  0  0  0  2  0  0  0  0  0  0
  -18.0380  -26.5740   22.0980 C   0  0  0  0  0  2  0  0  0  0  0  0
  -19.0010  -28.6640   23.2210 C   0  0  0  0  0  0  0  0  0  0  0  0
  -18.7980  -29.9140   23.8460 C   0  0  0  0  0  3  0  0  0  0  0  0
  -17.4950  -30.4010   24.0740 C   0  0  0  0  0  3  0  0  0  0  0  0
  -16.3840  -29.6310   23.6970 C   0  0  0  0  0  3  0  0  0  0  0  0
  -16.5710  -28.3850   23.0720 C   0  0  0  0  0  3  0  0  0  0  0  0
  -25.7970  -32.2540   23.6740 C   0  0  0  0  0  3  0  0  0  0  0  0
  -25.5140  -33.6440   24.0590 N   0  0  0  0  0  0  0  0  0  0  0  0
  -25.8630  -34.7220   23.3440 C   0  0  0  0  0  0  0  0  0  0  0  0
  -26.5230  -34.6520   22.3040 O   0  0  0  0  0  0  0  0  0  0  0  0
  -24.9270  -33.7790   24.8690 H   0  0  0  0  0  0  0  0  0  0  0  0
  -24.1670  -36.5650   23.0840 C   0  0  0  0  0  1  0  0  0  0  0  0
  -25.4080  -36.1010   23.8630 C   0  0  0  0  0  3  0  0  0  0  0  0
  -27.5660  -36.9150   24.7080 C   0  0  0  0  0  1  0  0  0  0  0  0
  -26.4590  -37.1380   23.7820 N   0  0  0  0  0  0  0  0  0  0  0  0
  -26.0720  -38.0600   23.9680 H   0  0  0  0  0  0  0  0  0  0  0  0
  -26.3370  -31.4360   24.9100 C   0  0  1  0  0  0  0  0  0  0  0  0
  -25.2720  -31.1850   26.0020 C   0  0  0  0  0  1  0  0  0  0  0  0
  -26.8820  -30.0600   24.4610 C   0  0  0  0  0  1  0  0  0  0  0  0
  -27.5180  -32.1920   25.5640 C   0  0  0  0  0  1  0  0  0  0  0  0
  1  2  2  0
  1  4  1  0
  2  6  1  0
  4 45  1  0
  4  3  2  0
  5 52  1  0
  5  3  1  0
  6  5  1  0
  6 15  1  0
  7 13  1  0
  7 15  1  0
  8 13  1  0
  9 10  1  0
  9  8  1  0
 11 10  1  0
 11 20  1  0
 11 12  1  0
 13 12  1  0
 14  7  2  0
 15 16  1  0
 17 18  2  0
 18 37  1  0
 19 18  1  0
 19 22  1  0
 20 21  1  0
 20 17  1  0
 21 19  2  0
 22 23  1  0
 23 24  2  0
 25 28  1  0
 25 24  1  0
 26 25  2  0
 27 26  1  0
 27 22  2  0
 28 29  1  0
 29 30  1  0
 30 31  2  0
 32 31  1  0
 32 36  1  0
 33 32  2  0
 34 29  2  0
 34 33  1  0
 35 34  1  0
 37 38  1  0
 38 41  1  0
 38 40  1  0
 39 37  2  0
 42 43  1  0
 42 17  1  0
 44 42  1  0
 45 46  1  0
 46 48  1  0
 46 49  1  0
 47 51  1  0
 47 45  2  0
 50 47  1  0
 52 53  1  0
 54 55  1  0
 54 52  2  0
 56 57  1  0
 56 55  1  0
 58 60  1  0
 58 57  1  0
 59 70  2  0
 60 65  1  0
 61 69  1  0
 61 71  1  0
 62 68  1  0
 62 64  1  0
 63 69  1  0
 64 63  1  0
 65 64  2  0
 66 67  1  0
 66 60  2  0
 67 62  2  0
 68 61  1  0
 69 59  1  0
 71 73  2  0
 72 71  1  0
 74 72  1  0
 75 84  2  0
 75 80  1  0
 76 72  1  0
 76 80  1  0
 77 76  1  0
 78 79  1  0
 78 77  1  0
 79 75  1  0
 80 81  2  0
 81 82  1  0
 83 82  2  0
 84 83  1  0
 85 59  1  0
 85 86  1  0
 85 95  1  0
 86 89  1  0
 87 91  1  0
 87 86  1  0
 88 87  2  0
 91 90  1  0
 93 91  1  0
 93 94  1  0
 93 92  1  0
 95 98  1  1
 95 96  1  0
 97 95  1  0
M  ISO  4   7 100  15 100  57 101  58 101
M  END
>  <TORSDO>  (74) 
F 21

>  <SCORE>  (74) 
-11.678

>  <name>  (74) 
73

>  <ligand_id>  (74) 
73

>  <original_smiles>  (74) 
[H]c1c([H])c([H])c2c(c1[H])C([H])([H])C([H])([H])C([H])([H])C2([H])N([H])C(=O)C1([H])N(C(=O)C([H])(N([H])C(=O)C([H])(N([H])C([H])([H])[H])C([H])([H])[H])C(C([H])([H])[H])(C([H])([H])[H])C([H])([H])[H])C([H])([H])c2c([H])c(OC([H])([H])C([H])([H])ON=C(c3c([H])c(C(N([H])[H])=[N+]([H])[H])c([H])c([H])c3N([H])C(=O)N3C([H])([H])C([H])([H])C([H])([H])C([H])(n4nc(-c5c([H])c([H])c(Oc6c([H])c([H])c(F)c([H])c6F)c([H])c5[H])c(C(=O)N([H])[H])c4N([H])[H])C3([H])[H])C([H])([H])[H])c([H])c([H])c2C1([H])[H]

>  <smiles>  (74) 
[H]c1c([H])c([H])c2c(c1[H])C([H])([H])C([H])([H])C([H])([H])C2([H])N([H])C(=O)C1([H])N(C(=O)C([H])(N([H])C(=O)C([H])(N([H])C([H])([H])[H])C([H])([H])[H])C(C([H])([H])[H])(C([H])([H])[H])C([H])([H])[H])C([H])([H])c2c([H])c(OC([H])([H])C([H])([H])ON=C(c3c([H])c(C(N([H])[H])=[N+]([H])[H])c([H])c([H])c3N([H])C(=O)N3C([H])([H])C([H])([H])C([H])([H])C([H])(n4nc(-c5c([H])c([H])c(Oc6c([H])c([H])c(F)c([H])c6F)c([H])c5[H])c(C(=O)N([H])[H])c4N([H])[H])C3([H])[H])C([H])([H])[H])c([H])c([H])c2C1([H])[H]

$$$$
74:0:0
     RDKit          3D

 95103  0  0  1  0  0  0  0  0999 V2000
  -29.1390  -24.3330   19.9800 C   0  0  0  0  0  0  0  0  0  0  0  0
  -29.6740  -24.4410   21.2080 N   0  0  0  0  0  4  0  0  0  0  0  0
  -28.8790  -23.1540   19.3560 N   0  0  0  0  0  0  0  0  0  0  0  0
  -29.8520  -25.3640   21.5770 H   0  0  0  0  0  0  0  0  0  0  0  0
  -29.9670  -23.6510   21.7600 H   0  0  0  0  0  0  0  0  0  0  0  0
  -28.5950  -23.2800   18.3950 H   0  0  0  0  0  0  0  0  0  0  0  0
  -29.7740  -19.5000   19.1170 C   0  0  0  0  0  3  0  0  0  0  0  0
  -29.8740  -20.1460   21.4490 C   0  0  0  0  0  3  0  0  0  0  0  0
  -29.4510  -20.8320   18.7640 C   0  0  0  0  0  3  0  0  0  0  0  0
  -29.5450  -21.4790   21.1080 C   0  0  0  0  0  3  0  0  0  0  0  0
  -29.9720  -19.1180   20.4680 C   0  0  0  0  0  0  0  0  0  0  0  0
  -29.3230  -21.8290   19.7580 C   0  0  0  0  0  0  0  0  0  0  0  0
  -30.2090  -17.6820   20.8540 C   0  0  0  0  0  0  0  0  0  0  0  0
  -30.1110  -17.3210   22.3290 C   0  0  0  0  0  1  0  0  0  0  0  0
  -30.4360  -16.7810   19.9450 N   0  0  0  0  0  0  0  0  0  0  0  0
  -30.9800  -14.4540   19.5440 C   0  0  0  0  0  0  0  0  0  0  0  0
  -30.5490  -12.2470   18.5140 C   0  0  0  0  0  2  0  0  0  0  0  0
  -29.4690  -12.4250   17.4230 C   0  0  0  0  0  2  0  0  0  0  0  0
  -28.0500  -12.3360   18.0250 C   0  0  0  0  0  2  0  0  0  0  0  0
  -27.8820  -13.1960   19.3080 C   0  0  0  0  0  3  0  0  0  0  0  0
  -29.0640  -12.9860   20.2820 C   0  0  0  0  0  2  0  0  0  0  0  0
  -30.3170  -13.2640   19.5530 N   0  0  0  0  0  0  0  0  0  0  0  0
  -31.9860  -14.6590   18.8540 O   0  0  0  0  0  0  0  0  0  0  0  0
  -30.4110  -15.4390   20.2660 N   0  0  0  0  0  0  0  0  0  0  0  0
  -29.6880  -15.1740   20.9210 H   0  0  0  0  0  0  0  0  0  0  0  0
  -25.6580  -13.8450   20.4300 C   0  0  0  0  0  0  0  0  0  0  0  0
  -24.6130  -13.0920   20.8940 C   0  0  0  0  0  0  0  0  0  0  0  0
  -24.9800  -11.7270   20.6720 C   0  0  0  0  0  0  0  0  0  0  0  0
  -26.5980  -12.9410   19.9600 N   0  0  0  0  0  0  0  0  0  0  0  0
  -26.2020  -11.6560   20.1600 N   0  0  0  0  0  0  0  0  0  0  0  0
  -24.2130  -10.4910   20.8650 C   0  0  0  0  0  0  0  0  0  0  0  0
  -24.6060   -9.5130   21.8060 C   0  0  0  0  0  3  0  0  0  0  0  0
  -23.8400   -8.3400   21.9810 C   0  0  0  0  0  3  0  0  0  0  0  0
  -22.6670   -8.1360   21.2150 C   0  0  0  0  0  0  0  0  0  0  0  0
  -22.2930   -9.1030   20.2640 C   0  0  0  0  0  3  0  0  0  0  0  0
  -23.0580  -10.2680   20.0880 C   0  0  0  0  0  3  0  0  0  0  0  0
  -21.8770   -7.0150   21.2950 O   0  0  0  0  0  0  0  0  0  0  0  0
  -21.6360   -6.3890   22.4910 C   0  0  0  0  0  0  0  0  0  0  0  0
  -21.0290   -7.0630   23.5730 C   0  0  0  0  0  3  0  0  0  0  0  0
  -20.7370   -6.3640   24.7620 C   0  0  0  0  0  3  0  0  0  0  0  0
  -21.0400   -4.9940   24.8680 C   0  0  0  0  0  0  0  0  0  0  0  0
  -21.6360   -4.3180   23.7890 C   0  0  0  0  0  3  0  0  0  0  0  0
  -21.9290   -5.0140   22.6020 C   0  0  0  0  0  0  0  0  0  0  0  0
  -22.4840   -4.3540   21.5580 F   0  0  0  0  0  0  0  0  0  0  0  0
  -20.7530   -4.3220   26.0080 F   0  0  0  0  0  0  0  0  0  0  0  0
  -23.3080  -13.6070   21.4260 C   0  0  0  0  0  0  0  0  0  0  0  0
  -22.7020  -12.8980   22.3730 N   0  0  0  0  0  0  0  0  0  0  0  0
  -22.8370  -14.6750   21.0370 O   0  0  0  0  0  0  0  0  0  0  0  0
  -23.0930  -12.0330   22.7110 H   0  0  0  0  0  0  0  0  0  0  0  0
  -21.8380  -13.2370   22.7720 H   0  0  0  0  0  0  0  0  0  0  0  0
  -25.8750  -15.2180   20.3550 N   0  0  0  0  0  0  0  0  0  0  0  0
  -25.1660  -15.8910   20.6210 H   0  0  0  0  0  0  0  0  0  0  0  0
  -26.6770  -15.6460   19.9020 H   0  0  0  0  0  0  0  0  0  0  0  0
  -28.8620  -25.6110   19.2140 C   0  0  0  0  0  2  0  0  0  0  0  0
  -28.5760  -26.7550   20.0430 O   0  0  0  0  0  0  0  0  0  0  0  0
  -24.5410  -31.7470   23.0960 C   0  0  0  0  0  0  0  0  0  0  0  0
  -27.3540  -27.4080   19.9980 C   0  0  0  0  0  0  0  0  0  0  0  0
  -23.3950  -30.3300   21.4230 C   0  0  0  0  0  3  0  0  0  0  0  0
  -24.9060  -28.8530   19.9950 C   0  0  0  0  0  0  0  0  0  0  0  0
  -25.9090  -30.7650   21.2510 C   0  0  0  0  0  2  0  0  0  0  0  0
  -26.0410  -29.4020   20.6010 C   0  0  0  0  0  0  0  0  0  0  0  0
  -27.2630  -28.6870   20.6000 C   0  0  0  0  0  3  0  0  0  0  0  0
  -26.1890  -26.8690   19.3980 C   0  0  0  0  0  3  0  0  0  0  0  0
  -24.9750  -27.5830   19.3940 C   0  0  0  0  0  3  0  0  0  0  0  0
  -23.6360  -29.6780   20.0370 C   0  0  0  0  0  2  0  0  0  0  0  0
  -24.6340  -30.9620   21.9840 N   0  0  0  0  0  0  0  0  0  0  0  0
  -23.4470  -31.9800   23.6260 O   0  0  0  0  0  0  0  0  0  0  0  0
  -22.7630  -29.2770   22.3620 C   0  0  0  0  0  0  0  0  0  0  0  0
  -21.4480  -29.0530   22.2080 N   0  0  0  0  0  0  0  0  0  0  0  0
  -23.4520  -28.6700   23.1850 O   0  0  0  0  0  0  0  0  0  0  0  0
  -20.9530  -29.5990   21.5160 H   0  0  0  0  0  0  0  0  0  0  0  0
  -18.1060  -27.7520   22.6360 C   0  0  0  0  0  0  0  0  0  0  0  0
  -20.6490  -28.0830   22.9550 C   0  0  0  0  0  3  0  0  0  0  0  0
  -20.8040  -26.6620   22.3660 C   0  0  0  0  0  2  0  0  0  0  0  0
  -19.7310  -26.3210   21.3260 C   0  0  0  0  0  2  0  0  0  0  0  0
  -18.3360  -26.4140   21.9490 C   0  0  0  0  0  2  0  0  0  0  0  0
  -19.1930  -28.5410   23.0940 C   0  0  0  0  0  0  0  0  0  0  0  0
  -18.9270  -29.7900   23.6970 C   0  0  0  0  0  3  0  0  0  0  0  0
  -17.6040  -30.2490   23.8460 C   0  0  0  0  0  3  0  0  0  0  0  0
  -16.5310  -29.4580   23.4030 C   0  0  0  0  0  3  0  0  0  0  0  0
  -16.7820  -28.2100   22.8040 C   0  0  0  0  0  3  0  0  0  0  0  0
  -25.8030  -32.4030   23.7380 C   0  0  0  0  0  3  0  0  0  0  0  0
  -26.3640  -31.5960   24.9720 C   0  0  1  0  0  0  0  0  0  0  0  0
  -25.2890  -31.2470   26.0280 C   0  0  0  0  0  1  0  0  0  0  0  0
  -27.0160  -30.2760   24.5020 C   0  0  0  0  0  1  0  0  0  0  0  0
  -27.4740  -32.4160   25.6730 C   0  0  0  0  0  1  0  0  0  0  0  0
  -25.4350  -33.7700   24.1330 N   0  0  0  0  0  0  0  0  0  0  0  0
  -25.6980  -34.8670   23.4100 C   0  0  0  0  0  0  0  0  0  0  0  0
  -26.3480  -34.8390   22.3610 O   0  0  0  0  0  0  0  0  0  0  0  0
  -24.8460  -33.8620   24.9460 H   0  0  0  0  0  0  0  0  0  0  0  0
  -23.8740  -36.5800   23.1650 C   0  0  0  0  0  1  0  0  0  0  0  0
  -25.1520  -36.2080   23.9340 C   0  0  0  0  0  3  0  0  0  0  0  0
  -27.2590  -37.1630   24.7560 C   0  0  0  0  0  1  0  0  0  0  0  0
  -26.1250  -37.3190   23.8480 N   0  0  0  0  0  0  0  0  0  0  0  0
  -25.6740  -38.2060   24.0580 H   0  0  0  0  0  0  0  0  0  0  0  0
  1  2  2  0
  2  4  1  0
  2  5  1  0
  3 12  1  0
  3  1  1  0
  6  3  1  0
  7 11  1  0
  9  7  2  0
  9 12  1  0
 10  8  1  0
 11 13  1  0
 11  8  2  0
 12 10  2  0
 13 14  1  0
 15 24  1  0
 15 13  2  0
 16 22  1  0
 16 24  1  0
 17 22  1  0
 18 19  1  0
 18 17  1  0
 20 19  1  0
 20 29  1  0
 20 21  1  0
 22 21  1  0
 23 16  2  0
 24 25  1  0
 26 27  2  0
 27 46  1  0
 28 31  1  0
 28 27  1  0
 29 30  1  0
 29 26  1  0
 30 28  2  0
 31 32  1  0
 32 33  2  0
 34 37  1  0
 34 33  1  0
 35 34  2  0
 36 35  1  0
 36 31  2  0
 37 38  1  0
 38 43  2  0
 38 39  1  0
 39 40  2  0
 40 41  1  0
 41 45  1  0
 42 41  2  0
 43 42  1  0
 44 43  1  0
 46 47  1  0
 47 49  1  0
 47 50  1  0
 48 46  2  0
 51 26  1  0
 51 52  1  0
 53 51  1  0
 54  1  1  0
 54 55  1  0
 56 67  2  0
 57 55  1  0
 57 62  1  0
 58 66  1  0
 58 68  1  0
 59 65  1  0
 59 61  1  0
 60 66  1  0
 61 60  1  0
 62 61  2  0
 63 57  2  0
 64 63  1  0
 64 59  2  0
 65 58  1  0
 66 56  1  0
 68 70  2  0
 69 68  1  0
 71 69  1  0
 72 81  2  0
 72 77  1  0
 73 69  1  0
 73 77  1  0
 74 73  1  0
 75 76  1  0
 75 74  1  0
 76 72  1  0
 77 78  2  0
 78 79  1  0
 80 79  2  0
 81 80  1  0
 82 56  1  0
 82 87  1  0
 82 83  1  0
 83 86  1  1
 83 84  1  0
 85 83  1  0
 87 90  1  0
 88 92  1  0
 88 87  1  0
 89 88  2  0
 92 91  1  0
 94 92  1  0
 94 95  1  0
 94 93  1  0
M  ISO  4  16 100  24 100  54 101  55 101
M  END
>  <TORSDO>  (75) 
F 19

>  <SCORE>  (75) 
-12.695

>  <name>  (75) 
74

>  <ligand_id>  (75) 
74

>  <original_smiles>  (75) 
[H]c1c([H])c([H])c2c(c1[H])C([H])([H])C([H])([H])C([H])([H])C2([H])N([H])C(=O)C1([H])N(C(=O)C([H])(N([H])C(=O)C([H])(N([H])C([H])([H])[H])C([H])([H])[H])C(C([H])([H])[H])(C([H])([H])[H])C([H])([H])[H])C([H])([H])c2c([H])c(OC([H])([H])C(N([H])[H])=[N+]([H])c3c([H])c([H])c(C(=NN([H])C(=O)N4C([H])([H])C([H])([H])C([H])([H])C([H])(n5nc(-c6c([H])c([H])c(Oc7c([H])c([H])c(F)c([H])c7F)c([H])c6[H])c(C(=O)N([H])[H])c5N([H])[H])C4([H])[H])C([H])([H])[H])c([H])c3[H])c([H])c([H])c2C1([H])[H]

>  <smiles>  (75) 
[H]c1c([H])c([H])c2c(c1[H])C([H])([H])C([H])([H])C([H])([H])C2([H])N([H])C(=O)C1([H])N(C(=O)C([H])(N([H])C(=O)C([H])(N([H])C([H])([H])[H])C([H])([H])[H])C(C([H])([H])[H])(C([H])([H])[H])C([H])([H])[H])C([H])([H])c2c([H])c(OC([H])([H])C(N([H])[H])=[N+]([H])c3c([H])c([H])c(C(=NN([H])C(=O)N4C([H])([H])C([H])([H])C([H])([H])C([H])(n5nc(-c6c([H])c([H])c(Oc7c([H])c([H])c(F)c([H])c7F)c([H])c6[H])c(C(=O)N([H])[H])c5N([H])[H])C4([H])[H])C([H])([H])[H])c([H])c3[H])c([H])c([H])c2C1([H])[H]

$$$$
75:0:0
     RDKit          3D

 90 97  0  0  1  0  0  0  0  0999 V2000
  -28.7600  -24.4870   20.7740 C   0  0  0  0  0  0  0  0  0  0  0  0
  -28.8400  -23.1890   20.4400 N   0  0  0  0  0  0  0  0  0  0  0  0
  -28.9070  -24.8760   21.9360 O   0  0  0  0  0  0  0  0  0  0  0  0
  -28.6860  -22.9500   19.4690 H   0  0  0  0  0  0  0  0  0  0  0  0
  -28.5590  -25.4920   19.6270 C   0  0  0  0  0  2  0  0  0  0  0  0
  -28.4220  -26.8280   20.1370 O   0  0  0  0  0  0  0  0  0  0  0  0
  -24.5720  -31.9090   23.2700 C   0  0  0  0  0  0  0  0  0  0  0  0
  -27.2050  -27.4800   20.1550 C   0  0  0  0  0  0  0  0  0  0  0  0
  -23.3580  -30.5160   21.6250 C   0  0  0  0  0  3  0  0  0  0  0  0
  -24.8030  -28.9820   20.1940 C   0  0  0  0  0  0  0  0  0  0  0  0
  -25.8830  -30.8740   21.4190 C   0  0  0  0  0  2  0  0  0  0  0  0
  -25.9630  -29.5040   20.7770 C   0  0  0  0  0  0  0  0  0  0  0  0
  -27.1630  -28.7590   20.7570 C   0  0  0  0  0  3  0  0  0  0  0  0
  -26.0150  -26.9630   19.5850 C   0  0  0  0  0  3  0  0  0  0  0  0
  -24.8230  -27.7100   19.6000 C   0  0  0  0  0  3  0  0  0  0  0  0
  -23.5620  -29.8440   20.2420 C   0  0  0  0  0  2  0  0  0  0  0  0
  -24.6230  -31.1150   22.1630 N   0  0  0  0  0  0  0  0  0  0  0  0
  -23.4910  -32.1800   23.8140 O   0  0  0  0  0  0  0  0  0  0  0  0
  -22.7120  -29.4900   22.5830 C   0  0  0  0  0  0  0  0  0  0  0  0
  -21.3880  -29.3050   22.4550 N   0  0  0  0  0  0  0  0  0  0  0  0
  -23.3970  -28.8630   23.3960 O   0  0  0  0  0  0  0  0  0  0  0  0
  -20.8960  -29.8610   21.7710 H   0  0  0  0  0  0  0  0  0  0  0  0
  -18.0170  -28.0980   22.9390 C   0  0  0  0  0  0  0  0  0  0  0  0
  -20.5720  -28.3620   23.2220 C   0  0  0  0  0  3  0  0  0  0  0  0
  -20.6830  -26.9330   22.6450 C   0  0  0  0  0  2  0  0  0  0  0  0
  -19.5860  -26.6070   21.6260 C   0  0  0  0  0  2  0  0  0  0  0  0
  -18.2010  -26.7490   22.2650 C   0  0  0  0  0  2  0  0  0  0  0  0
  -19.1310  -28.8630   23.3740 C   0  0  0  0  0  0  0  0  0  0  0  0
  -18.9060  -30.1280   23.9610 C   0  0  0  0  0  3  0  0  0  0  0  0
  -17.6000  -30.6260   24.1200 C   0  0  0  0  0  3  0  0  0  0  0  0
  -16.5000  -29.8580   23.7010 C   0  0  0  0  0  3  0  0  0  0  0  0
  -16.7090  -28.5950   23.1160 C   0  0  0  0  0  3  0  0  0  0  0  0
  -25.8590  -32.5360   23.8890 C   0  0  0  0  0  3  0  0  0  0  0  0
  -25.5590  -33.9370   24.2110 N   0  0  0  0  0  0  0  0  0  0  0  0
  -25.8990  -34.9830   23.4480 C   0  0  0  0  0  0  0  0  0  0  0  0
  -26.5710  -34.8710   22.4180 O   0  0  0  0  0  0  0  0  0  0  0  0
  -24.9660  -34.1000   25.0120 H   0  0  0  0  0  0  0  0  0  0  0  0
  -24.1760  -36.7770   23.0820 C   0  0  0  0  0  1  0  0  0  0  0  0
  -25.4150  -36.3750   23.8960 C   0  0  0  0  0  3  0  0  0  0  0  0
  -27.5550  -37.2540   24.7210 C   0  0  0  0  0  1  0  0  0  0  0  0
  -26.4520  -37.4240   23.7790 N   0  0  0  0  0  0  0  0  0  0  0  0
  -26.0500  -38.3460   23.9230 H   0  0  0  0  0  0  0  0  0  0  0  0
  -26.3740  -31.7670   25.1650 C   0  0  1  0  0  0  0  0  0  0  0  0
  -25.2830  -31.5360   26.2360 C   0  0  0  0  0  1  0  0  0  0  0  0
  -26.9500  -30.3870   24.7720 C   0  0  0  0  0  1  0  0  0  0  0  0
  -27.5290  -32.5580   25.8250 C   0  0  0  0  0  1  0  0  0  0  0  0
  -29.3690  -22.1490   21.3200 C   0  0  0  0  0  2  0  0  0  0  0  0
  -29.1820  -20.7220   20.7580 C   0  0  0  0  0  2  0  0  0  0  0  0
  -30.2840  -19.7780   21.2770 C   0  0  0  0  0  2  0  0  0  0  0  0
  -30.0640  -18.2720   21.0230 C   0  0  0  0  0  2  0  0  0  0  0  0
  -31.3710  -17.4790   21.2410 C   0  0  0  0  0  2  0  0  0  0  0  0
  -31.2260  -16.1090   21.9340 C   0  0  0  0  0  2  0  0  0  0  0  0
  -30.7900  -14.3600   20.2000 C   0  0  0  0  0  0  0  0  0  0  0  0
  -30.3380  -12.2880   18.9310 C   0  0  0  0  0  2  0  0  0  0  0  0
  -29.3430  -12.5170   17.7800 C   0  0  0  0  0  2  0  0  0  0  0  0
  -27.8900  -12.3970   18.2800 C   0  0  0  0  0  2  0  0  0  0  0  0
  -27.6280  -13.2380   19.5570 C   0  0  0  0  0  3  0  0  0  0  0  0
  -28.7200  -12.9750   20.6150 C   0  0  0  0  0  2  0  0  0  0  0  0
  -30.0330  -13.2500   20.0010 N   0  0  0  0  0  0  0  0  0  0  0  0
  -31.8000  -14.6210   19.5400 O   0  0  0  0  0  0  0  0  0  0  0  0
  -30.4030  -15.1280   21.2290 N   0  0  0  0  0  0  0  0  0  0  0  0
  -29.5530  -14.8390   21.6890 H   0  0  0  0  0  0  0  0  0  0  0  0
  -25.2750  -13.8960   20.3720 C   0  0  0  0  0  0  0  0  0  0  0  0
  -24.2080  -13.1450   20.7870 C   0  0  0  0  0  0  0  0  0  0  0  0
  -24.6380  -11.7830   20.7310 C   0  0  0  0  0  0  0  0  0  0  0  0
  -26.2900  -12.9930   20.0930 N   0  0  0  0  0  0  0  0  0  0  0  0
  -25.9110  -11.7180   20.3640 N   0  0  0  0  0  0  0  0  0  0  0  0
  -23.8950  -10.5360   20.9490 C   0  0  0  0  0  0  0  0  0  0  0  0
  -24.3430   -9.5610   21.8670 C   0  0  0  0  0  3  0  0  0  0  0  0
  -23.6010   -8.3780   22.0720 C   0  0  0  0  0  3  0  0  0  0  0  0
  -22.3970   -8.1630   21.3620 C   0  0  0  0  0  0  0  0  0  0  0  0
  -21.9680   -9.1260   20.4310 C   0  0  0  0  0  3  0  0  0  0  0  0
  -22.7100  -10.3010   20.2240 C   0  0  0  0  0  3  0  0  0  0  0  0
  -21.6240   -7.0320   21.4770 O   0  0  0  0  0  0  0  0  0  0  0  0
  -21.5990   -6.2930   22.6330 C   0  0  0  0  0  0  0  0  0  0  0  0
  -21.2400   -6.8620   23.8740 C   0  0  0  0  0  3  0  0  0  0  0  0
  -21.1600   -6.0510   25.0240 C   0  0  0  0  0  3  0  0  0  0  0  0
  -21.4270   -4.6720   24.9330 C   0  0  0  0  0  0  0  0  0  0  0  0
  -21.7800   -4.1030   23.6970 C   0  0  0  0  0  3  0  0  0  0  0  0
  -21.8620   -4.9110   22.5500 C   0  0  0  0  0  0  0  0  0  0  0  0
  -22.1820   -4.3530   21.3570 F   0  0  0  0  0  0  0  0  0  0  0  0
  -21.3420   -3.8920   26.0350 F   0  0  0  0  0  0  0  0  0  0  0  0
  -22.8340  -13.6500   21.1220 C   0  0  0  0  0  0  0  0  0  0  0  0
  -22.1300  -12.9660   22.0170 N   0  0  0  0  0  0  0  0  0  0  0  0
  -22.3950  -14.6870   20.6260 O   0  0  0  0  0  0  0  0  0  0  0  0
  -22.4970  -12.1270   22.4410 H   0  0  0  0  0  0  0  0  0  0  0  0
  -21.2090  -13.2860   22.2820 H   0  0  0  0  0  0  0  0  0  0  0  0
  -25.4620  -15.2640   20.1920 N   0  0  0  0  0  0  0  0  0  0  0  0
  -24.7180  -15.9370   20.3440 H   0  0  0  0  0  0  0  0  0  0  0  0
  -26.3130  -15.6850   19.8390 H   0  0  0  0  0  0  0  0  0  0  0  0
  1  3  2  0
  2  1  1  0
  2 47  1  0
  4  2  1  0
  5  6  1  0
  5  1  1  0
  6  8  1  0
  7 18  2  0
  8 13  1  0
  9 17  1  0
  9 19  1  0
 10 16  1  0
 10 12  1  0
 11 17  1  0
 12 11  1  0
 13 12  2  0
 14 15  1  0
 14  8  2  0
 15 10  2  0
 16  9  1  0
 17  7  1  0
 19 21  2  0
 20 19  1  0
 22 20  1  0
 23 32  2  0
 23 28  1  0
 24 20  1  0
 24 28  1  0
 25 24  1  0
 26 27  1  0
 26 25  1  0
 27 23  1  0
 28 29  2  0
 29 30  1  0
 31 30  2  0
 32 31  1  0
 33  7  1  0
 33 34  1  0
 33 43  1  0
 34 37  1  0
 35 39  1  0
 35 34  1  0
 36 35  2  0
 39 38  1  0
 41 39  1  0
 41 42  1  0
 41 40  1  0
 43 46  1  1
 43 44  1  0
 45 43  1  0
 48 49  1  0
 48 47  1  0
 50 51  1  0
 50 49  1  0
 51 52  1  0
 53 61  1  0
 54 59  1  0
 55 56  1  0
 55 54  1  0
 57 56  1  0
 57 66  1  0
 57 58  1  0
 59 53  1  0
 59 58  1  0
 60 53  2  0
 61 62  1  0
 61 52  1  0
 63 64  2  0
 64 83  1  0
 65 64  1  0
 65 68  1  0
 66 67  1  0
 66 63  1  0
 67 65  2  0
 68 69  1  0
 69 70  2  0
 71 74  1  0
 71 70  1  0
 72 71  2  0
 73 72  1  0
 73 68  2  0
 74 75  1  0
 75 76  1  0
 76 77  2  0
 78 77  1  0
 78 82  1  0
 79 78  2  0
 80 75  2  0
 80 79  1  0
 81 80  1  0
 83 84  1  0
 84 87  1  0
 84 86  1  0
 85 83  2  0
 88 89  1  0
 88 63  1  0
 90 88  1  0
M  ISO  4   5 101   6 101  53 100  61 100
M  END
>  <TORSDO>  (76) 
F 23

>  <SCORE>  (76) 
-12.625

>  <name>  (76) 
75

>  <ligand_id>  (76) 
75

>  <original_smiles>  (76) 
[H]c1c([H])c([H])c2c(c1[H])C([H])([H])C([H])([H])C([H])([H])C2([H])N([H])C(=O)C1([H])N(C(=O)C([H])(N([H])C(=O)C([H])(N([H])C([H])([H])[H])C([H])([H])[H])C(C([H])([H])[H])(C([H])([H])[H])C([H])([H])[H])C([H])([H])c2c([H])c(OC([H])([H])C(=O)N([H])C([H])([H])C([H])([H])C([H])([H])C([H])([H])C([H])([H])C([H])([H])N([H])C(=O)N3C([H])([H])C([H])([H])C([H])([H])C([H])(n4nc(-c5c([H])c([H])c(Oc6c([H])c([H])c(F)c([H])c6F)c([H])c5[H])c(C(=O)N([H])[H])c4N([H])[H])C3([H])[H])c([H])c([H])c2C1([H])[H]

>  <smiles>  (76) 
[H]c1c([H])c([H])c2c(c1[H])C([H])([H])C([H])([H])C([H])([H])C2([H])N([H])C(=O)C1([H])N(C(=O)C([H])(N([H])C(=O)C([H])(N([H])C([H])([H])[H])C([H])([H])[H])C(C([H])([H])[H])(C([H])([H])[H])C([H])([H])[H])C([H])([H])c2c([H])c(OC([H])([H])C(=O)N([H])C([H])([H])C([H])([H])C([H])([H])C([H])([H])C([H])([H])C([H])([H])N([H])C(=O)N3C([H])([H])C([H])([H])C([H])([H])C([H])(n4nc(-c5c([H])c([H])c(Oc6c([H])c([H])c(F)c([H])c6F)c([H])c5[H])c(C(=O)N([H])[H])c4N([H])[H])C3([H])[H])c([H])c([H])c2C1([H])[H]

$$$$
76:0:0
     RDKit          3D

 86 93  0  0  1  0  0  0  0  0999 V2000
  -28.7250  -22.7500   20.5790 C   0  0  0  0  0  0  0  0  0  0  0  0
  -28.8410  -21.3510   20.0620 N   0  0  0  0  0  0  0  0  0  0  0  0
  -29.1550  -22.9050   21.7240 O   0  0  0  0  0  0  0  0  0  0  0  0
  -28.5310  -21.3120   19.0990 H   0  0  0  0  0  0  0  0  0  0  0  0
  -28.0220  -24.2200   19.8880 C   0  0  0  0  0  2  0  0  0  0  0  0
  -28.1810  -25.8160   20.3270 O   0  0  0  0  0  0  0  0  0  0  0  0
  -24.6460  -31.8650   23.1900 C   0  0  0  0  0  0  0  0  0  0  0  0
  -27.1910  -26.9380   20.2110 C   0  0  0  0  0  0  0  0  0  0  0  0
  -23.4510  -30.4600   21.5590 C   0  0  0  0  0  3  0  0  0  0  0  0
  -24.9000  -28.8410   20.1460 C   0  0  0  0  0  0  0  0  0  0  0  0
  -26.0200  -30.6560   21.4210 C   0  0  0  0  0  2  0  0  0  0  0  0
  -26.0860  -29.2400   20.7720 C   0  0  0  0  0  0  0  0  0  0  0  0
  -27.2230  -28.3080   20.7840 C   0  0  0  0  0  3  0  0  0  0  0  0
  -25.9790  -26.7040   19.5210 C   0  0  0  0  0  3  0  0  0  0  0  0
  -24.8730  -27.5950   19.4990 C   0  0  0  0  0  3  0  0  0  0  0  0
  -23.6830  -29.7660   20.1870 C   0  0  0  0  0  2  0  0  0  0  0  0
  -24.7280  -31.0220   22.1090 N   0  0  0  0  0  0  0  0  0  0  0  0
  -23.5560  -32.1610   23.7070 O   0  0  0  0  0  0  0  0  0  0  0  0
  -22.7510  -29.4750   22.5310 C   0  0  0  0  0  0  0  0  0  0  0  0
  -21.4200  -29.3200   22.4100 N   0  0  0  0  0  0  0  0  0  0  0  0
  -23.4130  -28.8500   23.3630 O   0  0  0  0  0  0  0  0  0  0  0  0
  -20.9380  -29.8750   21.7160 H   0  0  0  0  0  0  0  0  0  0  0  0
  -18.0300  -28.1280   22.9270 C   0  0  0  0  0  0  0  0  0  0  0  0
  -20.5920  -28.3910   23.1880 C   0  0  0  0  0  3  0  0  0  0  0  0
  -20.6890  -26.9540   22.6240 C   0  0  0  0  0  2  0  0  0  0  0  0
  -19.5860  -26.6270   21.6110 C   0  0  0  0  0  2  0  0  0  0  0  0
  -18.2040  -26.7760   22.2560 C   0  0  0  0  0  2  0  0  0  0  0  0
  -19.1510  -28.8920   23.3510 C   0  0  0  0  0  0  0  0  0  0  0  0
  -18.9320  -30.1550   23.9430 C   0  0  0  0  0  3  0  0  0  0  0  0
  -17.6260  -30.6550   24.1130 C   0  0  0  0  0  3  0  0  0  0  0  0
  -16.5220  -29.8880   23.7040 C   0  0  0  0  0  3  0  0  0  0  0  0
  -16.7240  -28.6260   23.1170 C   0  0  0  0  0  3  0  0  0  0  0  0
  -25.9170  -32.5090   23.8220 C   0  0  0  0  0  3  0  0  0  0  0  0
  -26.4230  -31.7460   25.1090 C   0  0  1  0  0  0  0  0  0  0  0  0
  -25.3230  -31.5200   26.1740 C   0  0  0  0  0  1  0  0  0  0  0  0
  -27.0050  -30.3630   24.7410 C   0  0  0  0  0  1  0  0  0  0  0  0
  -27.5730  -32.5420   25.7720 C   0  0  0  0  0  1  0  0  0  0  0  0
  -25.5980  -33.9090   24.1570 N   0  0  0  0  0  0  0  0  0  0  0  0
  -25.9300  -34.9720   23.4130 C   0  0  0  0  0  0  0  0  0  0  0  0
  -26.5990  -34.8790   22.3820 O   0  0  0  0  0  0  0  0  0  0  0  0
  -25.0020  -34.0540   24.9580 H   0  0  0  0  0  0  0  0  0  0  0  0
  -24.2010  -36.7750   23.0900 C   0  0  0  0  0  1  0  0  0  0  0  0
  -25.4470  -36.3590   23.8880 C   0  0  0  0  0  3  0  0  0  0  0  0
  -27.5870  -37.2400   24.7120 C   0  0  0  0  0  1  0  0  0  0  0  0
  -26.4790  -37.4140   23.7760 N   0  0  0  0  0  0  0  0  0  0  0  0
  -26.0740  -38.3320   23.9320 H   0  0  0  0  0  0  0  0  0  0  0  0
  -29.1200  -19.7980   20.6660 C   0  0  0  0  0  2  0  0  0  0  0  0
  -29.8280  -18.2610   19.9970 C   0  0  0  0  0  2  0  0  0  0  0  0
  -30.4160  -15.3400   20.2120 C   0  0  0  0  0  0  0  0  0  0  0  0
  -30.3850  -12.8860   19.3430 C   0  0  0  0  0  2  0  0  0  0  0  0
  -29.4590  -12.6810   18.1170 C   0  0  0  0  0  2  0  0  0  0  0  0
  -28.0130  -12.4050   18.5670 C   0  0  0  0  0  2  0  0  0  0  0  0
  -27.5720  -13.3620   19.7030 C   0  0  0  0  0  3  0  0  0  0  0  0
  -28.6280  -13.5140   20.8190 C   0  0  0  0  0  2  0  0  0  0  0  0
  -29.8530  -14.0280   20.1810 N   0  0  0  0  0  0  0  0  0  0  0  0
  -31.6220  -15.3370   19.9210 O   0  0  0  0  0  0  0  0  0  0  0  0
  -29.6630  -16.6220   20.3640 N   0  0  0  0  0  0  0  0  0  0  0  0
  -28.7150  -16.4170   20.6450 H   0  0  0  0  0  0  0  0  0  0  0  0
  -25.2070  -13.9120   20.4730 C   0  0  0  0  0  0  0  0  0  0  0  0
  -24.1500  -13.1320   20.8510 C   0  0  0  0  0  0  0  0  0  0  0  0
  -24.6210  -11.7830   20.8200 C   0  0  0  0  0  0  0  0  0  0  0  0
  -26.2500  -13.0390   20.2220 N   0  0  0  0  0  0  0  0  0  0  0  0
  -25.9100  -11.7530   20.5000 N   0  0  0  0  0  0  0  0  0  0  0  0
  -23.8980  -10.5200   21.0170 C   0  0  0  0  0  0  0  0  0  0  0  0
  -24.3420   -9.5490   21.9430 C   0  0  0  0  0  3  0  0  0  0  0  0
  -23.6160   -8.3540   22.1300 C   0  0  0  0  0  3  0  0  0  0  0  0
  -22.4320   -8.1180   21.3930 C   0  0  0  0  0  0  0  0  0  0  0  0
  -22.0070   -9.0770   20.4550 C   0  0  0  0  0  3  0  0  0  0  0  0
  -22.7330  -10.2640   20.2660 C   0  0  0  0  0  3  0  0  0  0  0  0
  -21.6760   -6.9750   21.4890 O   0  0  0  0  0  0  0  0  0  0  0  0
  -21.6500   -6.2250   22.6370 C   0  0  0  0  0  0  0  0  0  0  0  0
  -21.2600   -6.7740   23.8780 C   0  0  0  0  0  3  0  0  0  0  0  0
  -21.1810   -5.9500   25.0190 C   0  0  0  0  0  3  0  0  0  0  0  0
  -21.4810   -4.5790   24.9200 C   0  0  0  0  0  0  0  0  0  0  0  0
  -21.8640   -4.0290   23.6840 C   0  0  0  0  0  3  0  0  0  0  0  0
  -21.9440   -4.8490   22.5460 C   0  0  0  0  0  0  0  0  0  0  0  0
  -22.2930   -4.3090   21.3530 F   0  0  0  0  0  0  0  0  0  0  0  0
  -21.3980   -3.7860   26.0150 F   0  0  0  0  0  0  0  0  0  0  0  0
  -22.7530  -13.6070   21.1260 C   0  0  0  0  0  0  0  0  0  0  0  0
  -22.0320  -12.9140   22.0000 N   0  0  0  0  0  0  0  0  0  0  0  0
  -22.3120  -14.6280   20.6000 O   0  0  0  0  0  0  0  0  0  0  0  0
  -22.4040  -12.0890   22.4460 H   0  0  0  0  0  0  0  0  0  0  0  0
  -21.0950  -13.2140   22.2270 H   0  0  0  0  0  0  0  0  0  0  0  0
  -25.3620  -15.2830   20.2890 N   0  0  0  0  0  0  0  0  0  0  0  0
  -24.5880  -15.9300   20.3980 H   0  0  0  0  0  0  0  0  0  0  0  0
  -26.1930  -15.7200   19.9130 H   0  0  0  0  0  0  0  0  0  0  0  0
  1  3  2  0
  2  1  1  0
  2 47  1  0
  4  2  1  0
  5  6  1  0
  5  1  1  0
  7 18  2  0
  8  6  1  0
  8 13  1  0
  9 17  1  0
  9 19  1  0
 10 16  1  0
 10 12  1  0
 11 17  1  0
 12 13  2  0
 12 11  1  0
 14  8  2  0
 15 14  1  0
 15 10  2  0
 16  9  1  0
 17  7  1  0
 19 21  2  0
 20 19  1  0
 22 20  1  0
 23 32  2  0
 23 28  1  0
 24 20  1  0
 24 28  1  0
 25 24  1  0
 26 27  1  0
 26 25  1  0
 27 23  1  0
 28 29  2  0
 29 30  1  0
 31 30  2  0
 32 31  1  0
 33  7  1  0
 33 38  1  0
 33 34  1  0
 34 37  1  1
 34 35  1  0
 36 34  1  0
 38 41  1  0
 39 43  1  0
 39 38  1  0
 40 39  2  0
 43 42  1  0
 45 43  1  0
 45 46  1  0
 45 44  1  0
 48 57  1  0
 48 47  1  0
 49 57  1  0
 50 55  1  0
 51 52  1  0
 51 50  1  0
 53 52  1  0
 53 62  1  0
 53 54  1  0
 55 49  1  0
 55 54  1  0
 56 49  2  0
 57 58  1  0
 59 60  2  0
 60 79  1  0
 61 60  1  0
 61 64  1  0
 62 59  1  0
 62 63  1  0
 63 61  2  0
 64 65  1  0
 65 66  2  0
 67 70  1  0
 67 66  1  0
 68 67  2  0
 69 68  1  0
 69 64  2  0
 70 71  1  0
 71 72  1  0
 72 73  2  0
 74 73  1  0
 74 78  1  0
 75 74  2  0
 76 71  2  0
 76 75  1  0
 77 76  1  0
 79 80  1  0
 80 83  1  0
 80 82  1  0
 81 79  2  0
 84 85  1  0
 84 59  1  0
 86 84  1  0
M  ISO  4   5 101   6 101  49 100  57 100
M  END
>  <TORSDO>  (77) 
F 19

>  <SCORE>  (77) 
-16.442

>  <name>  (77) 
76

>  <ligand_id>  (77) 
76

>  <original_smiles>  (77) 
[H]c1c([H])c([H])c2c(c1[H])C([H])([H])C([H])([H])C([H])([H])C2([H])N([H])C(=O)C1([H])N(C(=O)C([H])(N([H])C(=O)C([H])(N([H])C([H])([H])[H])C([H])([H])[H])C(C([H])([H])[H])(C([H])([H])[H])C([H])([H])[H])C([H])([H])c2c([H])c(OC([H])([H])C(=O)N([H])C([H])([H])C([H])([H])N([H])C(=O)N3C([H])([H])C([H])([H])C([H])([H])C([H])(n4nc(-c5c([H])c([H])c(Oc6c([H])c([H])c(F)c([H])c6F)c([H])c5[H])c(C(=O)N([H])[H])c4N([H])[H])C3([H])[H])c([H])c([H])c2C1([H])[H]

>  <smiles>  (77) 
[H]c1c([H])c([H])c2c(c1[H])C([H])([H])C([H])([H])C([H])([H])C2([H])N([H])C(=O)C1([H])N(C(=O)C([H])(N([H])C(=O)C([H])(N([H])C([H])([H])[H])C([H])([H])[H])C(C([H])([H])[H])(C([H])([H])[H])C([H])([H])[H])C([H])([H])c2c([H])c(OC([H])([H])C(=O)N([H])C([H])([H])C([H])([H])N([H])C(=O)N3C([H])([H])C([H])([H])C([H])([H])C([H])(n4nc(-c5c([H])c([H])c(Oc6c([H])c([H])c(F)c([H])c6F)c([H])c5[H])c(C(=O)N([H])[H])c4N([H])[H])C3([H])[H])c([H])c([H])c2C1([H])[H]

$$$$
77:0:0
     RDKit          3D

100107  0  0  1  0  0  0  0  0999 V2000
  -31.2040  -22.4340   18.4500 C   0  0  0  0  0  3  0  0  0  0  0  0
  -32.1420  -21.4400   18.9990 N   0  0  0  0  0  4  0  0  0  0  0  0
  -31.8480  -21.1550   19.9170 H   0  0  0  0  0  0  0  0  0  0  0  0
  -33.0390  -21.8790   19.1040 H   0  0  0  0  0  0  0  0  0  0  0  0
  -32.2400  -20.6430   18.3970 H   0  0  0  0  0  0  0  0  0  0  0  0
  -31.1470  -23.6690   19.3670 C   0  0  0  0  0  0  0  0  0  0  0  0
  -30.6030  -24.7830   18.8700 N   0  0  0  0  0  0  0  0  0  0  0  0
  -31.6110  -23.6140   20.5100 O   0  0  0  0  0  0  0  0  0  0  0  0
  -30.2280  -24.7640   17.9300 H   0  0  0  0  0  0  0  0  0  0  0  0
  -30.5530  -26.0570   19.5810 C   0  0  0  0  0  2  0  0  0  0  0  0
  -29.2810  -26.8220   19.2290 C   0  0  0  0  0  0  0  0  0  0  0  0
  -29.2250  -27.5580   18.2400 O   0  0  0  0  0  0  0  0  0  0  0  0
  -28.2810  -26.5760   20.0980 O   0  0  0  0  0  0  0  0  0  0  0  0
  -24.6090  -31.8170   23.1890 C   0  0  0  0  0  0  0  0  0  0  0  0
  -27.1480  -27.3480   20.0820 C   0  0  0  0  0  0  0  0  0  0  0  0
  -23.3660  -30.4520   21.5380 C   0  0  0  0  0  3  0  0  0  0  0  0
  -24.7820  -28.8790   20.1140 C   0  0  0  0  0  0  0  0  0  0  0  0
  -25.8970  -30.7510   21.3460 C   0  0  0  0  0  2  0  0  0  0  0  0
  -25.9480  -29.3810   20.7060 C   0  0  0  0  0  0  0  0  0  0  0  0
  -27.1320  -28.6150   20.7030 C   0  0  0  0  0  3  0  0  0  0  0  0
  -25.9640  -26.8390   19.5100 C   0  0  0  0  0  3  0  0  0  0  0  0
  -24.7810  -27.6050   19.5180 C   0  0  0  0  0  3  0  0  0  0  0  0
  -23.5580  -29.7670   20.1580 C   0  0  0  0  0  2  0  0  0  0  0  0
  -24.6420  -31.0200   22.0830 N   0  0  0  0  0  0  0  0  0  0  0  0
  -23.5340  -32.1190   23.7280 O   0  0  0  0  0  0  0  0  0  0  0  0
  -22.6850  -29.4490   22.4950 C   0  0  0  0  0  0  0  0  0  0  0  0
  -21.3520  -29.3330   22.3850 N   0  0  0  0  0  0  0  0  0  0  0  0
  -23.3510  -28.7780   23.2870 O   0  0  0  0  0  0  0  0  0  0  0  0
  -20.8790  -29.9220   21.7140 H   0  0  0  0  0  0  0  0  0  0  0  0
  -17.9280  -28.3190   22.9320 C   0  0  0  0  0  0  0  0  0  0  0  0
  -20.5020  -28.4240   23.1520 C   0  0  0  0  0  3  0  0  0  0  0  0
  -20.5100  -27.0050   22.5380 C   0  0  0  0  0  2  0  0  0  0  0  0
  -19.3690  -26.7710   21.5430 C   0  0  0  0  0  2  0  0  0  0  0  0
  -18.0130  -26.9790   22.2230 C   0  0  0  0  0  2  0  0  0  0  0  0
  -19.0980  -29.0060   23.3540 C   0  0  0  0  0  0  0  0  0  0  0  0
  -18.9660  -30.2660   23.9770 C   0  0  0  0  0  3  0  0  0  0  0  0
  -17.6970  -30.8370   24.1830 C   0  0  0  0  0  3  0  0  0  0  0  0
  -16.5420  -30.1460   23.7800 C   0  0  0  0  0  3  0  0  0  0  0  0
  -16.6580  -28.8890   23.1600 C   0  0  0  0  0  3  0  0  0  0  0  0
  -25.9120  -32.4050   23.8150 C   0  0  0  0  0  3  0  0  0  0  0  0
  -26.4060  -31.6110   25.0860 C   0  0  1  0  0  0  0  0  0  0  0  0
  -25.3060  -31.3990   26.1520 C   0  0  0  0  0  1  0  0  0  0  0  0
  -26.9480  -30.2200   24.6820 C   0  0  0  0  0  1  0  0  0  0  0  0
  -27.5800  -32.3670   25.7530 C   0  0  0  0  0  1  0  0  0  0  0  0
  -25.6460  -33.8110   24.1480 N   0  0  0  0  0  0  0  0  0  0  0  0
  -26.0200  -34.8540   23.3950 C   0  0  0  0  0  0  0  0  0  0  0  0
  -26.6950  -34.7320   22.3690 O   0  0  0  0  0  0  0  0  0  0  0  0
  -25.0510  -33.9820   24.9450 H   0  0  0  0  0  0  0  0  0  0  0  0
  -24.3540  -36.7000   23.0270 C   0  0  0  0  0  1  0  0  0  0  0  0
  -25.5710  -36.2540   23.8520 C   0  0  0  0  0  3  0  0  0  0  0  0
  -27.7230  -37.0670   24.7110 C   0  0  0  0  0  1  0  0  0  0  0  0
  -26.6380  -37.2740   23.7550 N   0  0  0  0  0  0  0  0  0  0  0  0
  -26.2600  -38.2060   23.9010 H   0  0  0  0  0  0  0  0  0  0  0  0
  -29.8090  -21.8200   18.1550 C   0  0  0  0  0  2  0  0  0  0  0  0
  -29.0170  -21.3150   19.3830 C   0  0  0  0  0  2  0  0  0  0  0  0
  -27.9410  -20.2660   19.0130 C   0  0  0  0  0  2  0  0  0  0  0  0
  -27.8520  -19.1320   20.0360 C   0  0  0  0  0  0  0  0  0  0  0  0
  -28.8690  -18.2630   20.0510 N   0  0  0  0  0  0  0  0  0  0  0  0
  -26.8820  -19.0460   20.7900 O   0  0  0  0  0  0  0  0  0  0  0  0
  -29.6020  -18.3980   19.3670 H   0  0  0  0  0  0  0  0  0  0  0  0
  -28.9920  -17.1240   20.9520 C   0  0  0  0  0  2  0  0  0  0  0  0
  -30.3760  -16.4500   20.8200 C   0  0  0  0  0  2  0  0  0  0  0  0
  -30.8990  -14.0660   20.2840 C   0  0  0  0  0  0  0  0  0  0  0  0
  -30.6770  -11.7890   19.3570 C   0  0  0  0  0  2  0  0  0  0  0  0
  -29.7420  -11.8130   18.1300 C   0  0  0  0  0  2  0  0  0  0  0  0
  -28.2600  -11.7150   18.5490 C   0  0  0  0  0  2  0  0  0  0  0  0
  -27.8910  -12.7100   19.6830 C   0  0  0  0  0  3  0  0  0  0  0  0
  -28.9230  -12.6080   20.8300 C   0  0  0  0  0  2  0  0  0  0  0  0
  -30.2640  -12.8660   20.2670 N   0  0  0  0  0  0  0  0  0  0  0  0
  -31.9500  -14.2980   19.6760 O   0  0  0  0  0  0  0  0  0  0  0  0
  -30.2330  -15.0100   20.9550 N   0  0  0  0  0  0  0  0  0  0  0  0
  -29.4170  -14.6840   21.4500 H   0  0  0  0  0  0  0  0  0  0  0  0
  -25.5120  -13.4120   20.3800 C   0  0  0  0  0  0  0  0  0  0  0  0
  -24.4190  -12.6810   20.7620 C   0  0  0  0  0  0  0  0  0  0  0  0
  -24.8340  -11.3140   20.7470 C   0  0  0  0  0  0  0  0  0  0  0  0
  -26.5260  -12.4930   20.1590 N   0  0  0  0  0  0  0  0  0  0  0  0
  -26.1190  -11.2260   20.4320 N   0  0  0  0  0  0  0  0  0  0  0  0
  -24.0700  -10.0790   20.9580 C   0  0  0  0  0  0  0  0  0  0  0  0
  -24.4560   -9.1310   21.9310 C   0  0  0  0  0  3  0  0  0  0  0  0
  -23.6970   -7.9580   22.1280 C   0  0  0  0  0  3  0  0  0  0  0  0
  -22.5370   -7.7250   21.3530 C   0  0  0  0  0  0  0  0  0  0  0  0
  -22.1690   -8.6600   20.3690 C   0  0  0  0  0  3  0  0  0  0  0  0
  -22.9290   -9.8250   20.1710 C   0  0  0  0  0  3  0  0  0  0  0  0
  -21.7530   -6.6020   21.4580 O   0  0  0  0  0  0  0  0  0  0  0  0
  -21.6420   -5.9090   22.6370 C   0  0  0  0  0  0  0  0  0  0  0  0
  -21.1780   -6.5210   23.8230 C   0  0  0  0  0  3  0  0  0  0  0  0
  -21.0160   -5.7550   24.9930 C   0  0  0  0  0  3  0  0  0  0  0  0
  -21.3040   -4.3770   24.9790 C   0  0  0  0  0  0  0  0  0  0  0  0
  -21.7590   -3.7640   23.7970 C   0  0  0  0  0  3  0  0  0  0  0  0
  -21.9230   -4.5290   22.6300 C   0  0  0  0  0  0  0  0  0  0  0  0
  -22.3410   -3.9300   21.4880 F   0  0  0  0  0  0  0  0  0  0  0  0
  -21.1390   -3.6360   26.1000 F   0  0  0  0  0  0  0  0  0  0  0  0
  -23.0400  -13.2070   21.0370 C   0  0  0  0  0  0  0  0  0  0  0  0
  -22.2980  -12.5530   21.9240 N   0  0  0  0  0  0  0  0  0  0  0  0
  -22.6290  -14.2340   20.4990 O   0  0  0  0  0  0  0  0  0  0  0  0
  -22.6410  -11.7220   22.3860 H   0  0  0  0  0  0  0  0  0  0  0  0
  -21.3710  -12.8890   22.1460 H   0  0  0  0  0  0  0  0  0  0  0  0
  -25.7240  -14.7740   20.1870 N   0  0  0  0  0  0  0  0  0  0  0  0
  -24.9890  -15.4620   20.3140 H   0  0  0  0  0  0  0  0  0  0  0  0
  -26.5950  -15.1800   19.8680 H   0  0  0  0  0  0  0  0  0  0  0  0
  1 54  1  0
  1  2  1  0
  1  6  1  0
  2  4  1  0
  2  3  1  0
  5  2  1  0
  6  8  2  0
  7  6  1  0
  7 10  1  0
  9  7  1  0
 11 10  1  0
 11 13  1  0
 12 11  2  0
 14 25  2  0
 15 13  1  0
 15 20  1  0
 16 24  1  0
 16 26  1  0
 17 23  1  0
 17 19  1  0
 18 24  1  0
 19 18  1  0
 20 19  2  0
 21 22  1  0
 21 15  2  0
 22 17  2  0
 23 16  1  0
 24 14  1  0
 26 28  2  0
 27 26  1  0
 29 27  1  0
 30 39  2  0
 30 35  1  0
 31 27  1  0
 31 35  1  0
 32 31  1  0
 33 34  1  0
 33 32  1  0
 34 30  1  0
 35 36  2  0
 36 37  1  0
 38 37  2  0
 39 38  1  0
 40 14  1  0
 40 45  1  0
 40 41  1  0
 41 44  1  1
 41 42  1  0
 43 41  1  0
 45 48  1  0
 46 50  1  0
 46 45  1  0
 47 46  2  0
 50 49  1  0
 52 50  1  0
 52 53  1  0
 52 51  1  0
 54 55  1  0
 56 55  1  0
 56 57  1  0
 57 58  1  0
 57 59  2  0
 58 61  1  0
 60 58  1  0
 62 61  1  0
 62 71  1  0
 63 71  1  0
 64 69  1  0
 65 66  1  0
 65 64  1  0
 67 66  1  0
 67 76  1  0
 67 68  1  0
 69 63  1  0
 69 68  1  0
 70 63  2  0
 71 72  1  0
 73 74  2  0
 74 93  1  0
 75 74  1  0
 75 78  1  0
 76 73  1  0
 76 77  1  0
 77 75  2  0
 78 79  1  0
 79 80  2  0
 81 84  1  0
 81 80  1  0
 82 81  2  0
 83 82  1  0
 83 78  2  0
 84 85  1  0
 85 86  1  0
 86 87  2  0
 88 87  1  0
 88 92  1  0
 89 88  2  0
 90 85  2  0
 90 89  1  0
 91 90  1  0
 93 94  1  0
 94 97  1  0
 94 96  1  0
 95 93  2  0
 98 99  1  0
 98 73  1  0
100 98  1  0
M  ISO  4  11 101  13 101  63 100  71 100
M  END
>  <TORSDO>  (78) 
F 26

>  <SCORE>  (78) 
-10.924

>  <name>  (78) 
77

>  <ligand_id>  (78) 
77

>  <original_smiles>  (78) 
[H]c1c([H])c([H])c2c(c1[H])C([H])([H])C([H])([H])C([H])([H])C2([H])N([H])C(=O)C1([H])N(C(=O)C([H])(N([H])C(=O)C([H])(N([H])C([H])([H])[H])C([H])([H])[H])C(C([H])([H])[H])(C([H])([H])[H])C([H])([H])[H])C([H])([H])c2c([H])c(OC(=O)C([H])([H])N([H])C(=O)C([H])(C([H])([H])C([H])([H])C([H])([H])C(=O)N([H])C([H])([H])C([H])([H])N([H])C(=O)N3C([H])([H])C([H])([H])C([H])([H])C([H])(n4nc(-c5c([H])c([H])c(Oc6c([H])c([H])c(F)c([H])c6F)c([H])c5[H])c(C(=O)N([H])[H])c4N([H])[H])C3([H])[H])[N+]([H])([H])[H])c([H])c([H])c2C1([H])[H]

>  <smiles>  (78) 
[H]c1c([H])c([H])c2c(c1[H])C([H])([H])C([H])([H])C([H])([H])C2([H])N([H])C(=O)C1([H])N(C(=O)C([H])(N([H])C(=O)C([H])(N([H])C([H])([H])[H])C([H])([H])[H])C(C([H])([H])[H])(C([H])([H])[H])C([H])([H])[H])C([H])([H])c2c([H])c(OC(=O)C([H])([H])N([H])C(=O)C([H])(C([H])([H])C([H])([H])C([H])([H])C(=O)N([H])C([H])([H])C([H])([H])N([H])C(=O)N3C([H])([H])C([H])([H])C([H])([H])C([H])(n4nc(-c5c([H])c([H])c(Oc6c([H])c([H])c(F)c([H])c6F)c([H])c5[H])c(C(=O)N([H])[H])c4N([H])[H])C3([H])[H])[N+]([H])([H])[H])c([H])c([H])c2C1([H])[H]

$$$$
78:0:0
     RDKit          3D

 91 99  0  0  1  0  0  0  0  0999 V2000
  -30.1770  -18.4110   20.5010 C   0  0  0  0  0  0  0  0  0  0  0  0
  -29.8180  -20.5060   21.7770 C   0  0  0  0  0  0  0  0  0  0  0  0
  -31.6880  -17.3310   22.0370 C   0  0  0  0  0  2  0  0  0  0  0  0
  -30.9490  -18.5150   22.6690 C   0  0  0  0  0  2  0  0  0  0  0  0
  -31.0670  -17.1480   20.6520 C   0  0  0  0  0  3  0  0  0  0  0  0
  -30.2690  -19.2260   21.5800 N   0  0  0  0  0  0  0  0  0  0  0  0
  -29.5070  -18.6110   19.4840 O   0  0  0  0  0  0  0  0  0  0  0  0
  -29.7390  -20.9310   22.9380 O   0  0  0  0  0  0  0  0  0  0  0  0
  -31.0480  -14.7000   20.0700 C   0  0  0  0  0  0  0  0  0  0  0  0
  -30.6830  -12.4780   19.0470 C   0  0  0  0  0  2  0  0  0  0  0  0
  -29.7210  -12.6100   17.8480 C   0  0  0  0  0  2  0  0  0  0  0  0
  -28.2580  -12.5010   18.3190 C   0  0  0  0  0  2  0  0  0  0  0  0
  -27.9490  -13.4130   19.5370 C   0  0  0  0  0  3  0  0  0  0  0  0
  -29.0290  -13.2750   20.6350 C   0  0  0  0  0  2  0  0  0  0  0  0
  -30.3350  -13.5380   20.0130 N   0  0  0  0  0  0  0  0  0  0  0  0
  -32.1890  -14.7790   19.6110 O   0  0  0  0  0  0  0  0  0  0  0  0
  -30.4150  -15.8130   20.5200 N   0  0  0  0  0  0  0  0  0  0  0  0
  -29.4540  -15.7290   20.8120 H   0  0  0  0  0  0  0  0  0  0  0  0
  -25.5920  -14.0800   20.3160 C   0  0  0  0  0  0  0  0  0  0  0  0
  -24.5150  -13.3360   20.7180 C   0  0  0  0  0  0  0  0  0  0  0  0
  -24.9420  -11.9740   20.6840 C   0  0  0  0  0  0  0  0  0  0  0  0
  -26.6070  -13.1710   20.0600 N   0  0  0  0  0  0  0  0  0  0  0  0
  -26.2220  -11.9000   20.3420 N   0  0  0  0  0  0  0  0  0  0  0  0
  -24.1870  -10.7320   20.9000 C   0  0  0  0  0  0  0  0  0  0  0  0
  -24.5900   -9.7830   21.8650 C   0  0  0  0  0  3  0  0  0  0  0  0
  -23.8380   -8.6050   22.0680 C   0  0  0  0  0  3  0  0  0  0  0  0
  -22.6690   -8.3690   21.3060 C   0  0  0  0  0  0  0  0  0  0  0  0
  -22.2850   -9.3080   20.3310 C   0  0  0  0  0  3  0  0  0  0  0  0
  -23.0370  -10.4760   20.1270 C   0  0  0  0  0  3  0  0  0  0  0  0
  -21.8900   -7.2430   21.4160 O   0  0  0  0  0  0  0  0  0  0  0  0
  -21.7950   -6.5450   22.5940 C   0  0  0  0  0  0  0  0  0  0  0  0
  -21.3070   -7.1430   23.7760 C   0  0  0  0  0  3  0  0  0  0  0  0
  -21.1620   -6.3720   24.9460 C   0  0  0  0  0  3  0  0  0  0  0  0
  -21.4950   -5.0040   24.9350 C   0  0  0  0  0  0  0  0  0  0  0  0
  -21.9760   -4.4050   23.7570 C   0  0  0  0  0  3  0  0  0  0  0  0
  -22.1230   -5.1740   22.5890 C   0  0  0  0  0  0  0  0  0  0  0  0
  -22.5670   -4.5880   21.4510 F   0  0  0  0  0  0  0  0  0  0  0  0
  -21.3470   -4.2610   26.0560 F   0  0  0  0  0  0  0  0  0  0  0  0
  -23.1400  -13.8520   21.0250 C   0  0  0  0  0  0  0  0  0  0  0  0
  -22.4170  -13.1800   21.9140 N   0  0  0  0  0  0  0  0  0  0  0  0
  -22.7160  -14.8860   20.5110 O   0  0  0  0  0  0  0  0  0  0  0  0
  -22.7730  -12.3420   22.3500 H   0  0  0  0  0  0  0  0  0  0  0  0
  -21.4940  -13.5080   22.1630 H   0  0  0  0  0  0  0  0  0  0  0  0
  -25.7880  -15.4450   20.1230 N   0  0  0  0  0  0  0  0  0  0  0  0
  -25.0390  -16.1190   20.2370 H   0  0  0  0  0  0  0  0  0  0  0  0
  -26.6330  -15.8540   19.7410 H   0  0  0  0  0  0  0  0  0  0  0  0
  -29.4720  -21.5280   20.6430 C   0  0  0  0  0  2  0  0  0  0  0  0
  -29.0850  -22.9640   21.1920 C   0  0  0  0  0  2  0  0  0  0  0  0
  -29.0350  -24.2090   20.2310 C   0  0  0  0  0  2  0  0  0  0  0  0
  -28.5580  -25.5220   20.9520 C   0  0  0  0  0  2  0  0  0  0  0  0
  -28.6690  -26.7790   20.2260 O   0  0  0  0  0  0  0  0  0  0  0  0
  -24.6710  -31.8440   23.3420 C   0  0  0  0  0  0  0  0  0  0  0  0
  -27.5170  -27.5480   20.2060 C   0  0  0  0  0  0  0  0  0  0  0  0
  -23.5530  -30.4650   21.6220 C   0  0  0  0  0  3  0  0  0  0  0  0
  -25.0910  -29.0170   20.1860 C   0  0  0  0  0  0  0  0  0  0  0  0
  -26.0750  -30.8950   21.5080 C   0  0  0  0  0  2  0  0  0  0  0  0
  -26.2200  -29.5470   20.8230 C   0  0  0  0  0  0  0  0  0  0  0  0
  -27.4430  -28.8250   20.8230 C   0  0  0  0  0  3  0  0  0  0  0  0
  -26.3710  -27.0430   19.5590 C   0  0  0  0  0  3  0  0  0  0  0  0
  -25.1630  -27.7660   19.5480 C   0  0  0  0  0  3  0  0  0  0  0  0
  -23.8210  -29.8410   20.2270 C   0  0  0  0  0  2  0  0  0  0  0  0
  -24.7830  -31.0820   22.2170 N   0  0  0  0  0  0  0  0  0  0  0  0
  -23.5670  -32.0670   23.8590 O   0  0  0  0  0  0  0  0  0  0  0  0
  -22.9020  -29.3950   22.5300 C   0  0  0  0  0  0  0  0  0  0  0  0
  -21.5910  -29.1680   22.3460 N   0  0  0  0  0  0  0  0  0  0  0  0
  -23.5770  -28.7740   23.3560 O   0  0  0  0  0  0  0  0  0  0  0  0
  -21.1060  -29.7250   21.6570 H   0  0  0  0  0  0  0  0  0  0  0  0
  -18.2490  -27.8250   22.6750 C   0  0  0  0  0  0  0  0  0  0  0  0
  -20.7820  -28.1780   23.0570 C   0  0  0  0  0  3  0  0  0  0  0  0
  -20.9660  -26.7680   22.4510 C   0  0  0  0  0  2  0  0  0  0  0  0
  -19.9200  -26.4280   21.3840 C   0  0  0  0  0  2  0  0  0  0  0  0
  -18.5080  -26.5020   21.9730 C   0  0  0  0  0  2  0  0  0  0  0  0
  -19.3190  -28.6200   23.1690 C   0  0  0  0  0  0  0  0  0  0  0  0
  -19.0240  -29.8560   23.7820 C   0  0  0  0  0  3  0  0  0  0  0  0
  -17.6950  -30.3030   23.9030 C   0  0  0  0  0  3  0  0  0  0  0  0
  -16.6400  -29.5060   23.4250 C   0  0  0  0  0  3  0  0  0  0  0  0
  -16.9180  -28.2680   22.8190 C   0  0  0  0  0  3  0  0  0  0  0  0
  -25.9190  -32.4910   24.0190 C   0  0  0  0  0  3  0  0  0  0  0  0
  -26.3780  -31.7380   25.3280 C   0  0  1  0  0  0  0  0  0  0  0  0
  -25.2350  -31.5000   26.3420 C   0  0  0  0  0  1  0  0  0  0  0  0
  -26.9910  -30.3610   24.9790 C   0  0  0  0  0  1  0  0  0  0  0  0
  -27.4890  -32.5480   26.0380 C   0  0  0  0  0  1  0  0  0  0  0  0
  -25.5860  -33.8910   24.3170 N   0  0  0  0  0  0  0  0  0  0  0  0
  -25.9520  -34.9370   23.5640 C   0  0  0  0  0  0  0  0  0  0  0  0
  -26.6750  -34.8250   22.5700 O   0  0  0  0  0  0  0  0  0  0  0  0
  -24.9500  -34.0520   25.0840 H   0  0  0  0  0  0  0  0  0  0  0  0
  -24.2420  -36.7190   23.0920 C   0  0  0  0  0  1  0  0  0  0  0  0
  -25.4340  -36.3270   23.9780 C   0  0  0  0  0  3  0  0  0  0  0  0
  -27.5080  -37.2300   24.9310 C   0  0  0  0  0  1  0  0  0  0  0  0
  -26.4680  -37.3820   23.9170 N   0  0  0  0  0  0  0  0  0  0  0  0
  -26.0510  -38.3020   24.0270 H   0  0  0  0  0  0  0  0  0  0  0  0
  1  5  1  0
  1  6  1  0
  2  8  2  0
  3  4  1  0
  5 17  1  0
  5  3  1  0
  6  2  1  0
  6  4  1  0
  7  1  2  0
  9 17  1  0
 10 15  1  0
 11 12  1  0
 11 10  1  0
 13 12  1  0
 13 22  1  0
 13 14  1  0
 15  9  1  0
 15 14  1  0
 16  9  2  0
 17 18  1  0
 19 20  2  0
 20 39  1  0
 21 20  1  0
 21 24  1  0
 22 19  1  0
 22 23  1  0
 23 21  2  0
 24 25  1  0
 25 26  2  0
 27 30  1  0
 27 26  1  0
 28 27  2  0
 29 28  1  0
 29 24  2  0
 30 31  1  0
 31 32  1  0
 32 33  2  0
 34 33  1  0
 34 38  1  0
 35 34  2  0
 36 31  2  0
 36 35  1  0
 37 36  1  0
 39 40  1  0
 40 43  1  0
 40 42  1  0
 41 39  2  0
 44 45  1  0
 44 19  1  0
 46 44  1  0
 47 48  1  0
 47  2  1  0
 49 50  1  0
 49 48  1  0
 51 50  1  0
 52 63  2  0
 53 51  1  0
 53 58  1  0
 54 62  1  0
 54 64  1  0
 55 61  1  0
 55 57  1  0
 56 62  1  0
 57 56  1  0
 58 57  2  0
 59 53  2  0
 60 59  1  0
 60 55  2  0
 61 54  1  0
 62 52  1  0
 64 66  2  0
 65 64  1  0
 67 65  1  0
 68 77  2  0
 68 73  1  0
 69 65  1  0
 69 73  1  0
 70 69  1  0
 71 72  1  0
 71 70  1  0
 72 68  1  0
 73 74  2  0
 74 75  1  0
 76 75  2  0
 77 76  1  0
 78 52  1  0
 78 83  1  0
 78 79  1  0
 79 82  1  1
 79 80  1  0
 81 79  1  0
 83 86  1  0
 84 88  1  0
 84 83  1  0
 85 84  2  0
 88 87  1  0
 90 88  1  0
 90 91  1  0
 90 89  1  0
M  ISO  4   9 100  17 100  50 101  51 101
M  END
>  <TORSDO>  (79) 
F 20

>  <SCORE>  (79) 
-12.495

>  <name>  (79) 
78

>  <ligand_id>  (79) 
78

>  <original_smiles>  (79) 
[H]c1c([H])c([H])c2c(c1[H])C([H])([H])C([H])([H])C([H])([H])C2([H])N([H])C(=O)C1([H])N(C(=O)C([H])(N([H])C(=O)C([H])(N([H])C([H])([H])[H])C([H])([H])[H])C(C([H])([H])[H])(C([H])([H])[H])C([H])([H])[H])C([H])([H])c2c([H])c(OC([H])([H])C([H])([H])C([H])([H])C([H])([H])C(=O)N3C(=O)C([H])(N([H])C(=O)N4C([H])([H])C([H])([H])C([H])([H])C([H])(n5nc(-c6c([H])c([H])c(Oc7c([H])c([H])c(F)c([H])c7F)c([H])c6[H])c(C(=O)N([H])[H])c5N([H])[H])C4([H])[H])C([H])([H])C3([H])[H])c([H])c([H])c2C1([H])[H]

>  <smiles>  (79) 
[H]c1c([H])c([H])c2c(c1[H])C([H])([H])C([H])([H])C([H])([H])C2([H])N([H])C(=O)C1([H])N(C(=O)C([H])(N([H])C(=O)C([H])(N([H])C([H])([H])[H])C([H])([H])[H])C(C([H])([H])[H])(C([H])([H])[H])C([H])([H])[H])C([H])([H])c2c([H])c(OC([H])([H])C([H])([H])C([H])([H])C([H])([H])C(=O)N3C(=O)C([H])(N([H])C(=O)N4C([H])([H])C([H])([H])C([H])([H])C([H])(n5nc(-c6c([H])c([H])c(Oc7c([H])c([H])c(F)c([H])c7F)c([H])c6[H])c(C(=O)N([H])[H])c5N([H])[H])C4([H])[H])C([H])([H])C3([H])[H])c([H])c([H])c2C1([H])[H]

$$$$
79:0:0
     RDKit          3D

 83 87  0  0  1  0  0  0  0  0999 V2000
  -28.0550  -23.1800   20.1890 C   0  0  0  0  0 15  0  0  0  0  0  0
  -28.1320  -25.1070   20.3120 O   0  0  0  0  0  1  0  0  0  0  0  0
  -24.6910  -31.8390   23.1610 C   0  0  0  0  0  0  0  0  0  0  0  0
  -27.2010  -26.4650   20.2560 C   0  0  0  0  0  0  0  0  0  0  0  0
  -23.5230  -30.4300   21.5250 C   0  0  0  0  0  3  0  0  0  0  0  0
  -24.9770  -28.7060   20.1560 C   0  0  0  0  0  0  0  0  0  0  0  0
  -26.1160  -30.4710   21.4630 C   0  0  0  0  0  2  0  0  0  0  0  0
  -26.1740  -29.0000   20.8170 C   0  0  0  0  0  0  0  0  0  0  0  0
  -27.2550  -27.9190   20.8240 C   0  0  0  0  0  3  0  0  0  0  0  0
  -25.9670  -26.4630   19.5330 C   0  0  0  0  0  3  0  0  0  0  0  0
  -24.9310  -27.4660   19.4880 C   0  0  0  0  0  3  0  0  0  0  0  0
  -23.7890  -29.7000   20.1720 C   0  0  0  0  0  2  0  0  0  0  0  0
  -24.8050  -30.9550   22.1020 N   0  0  0  0  0  0  0  0  0  0  0  0
  -23.5880  -32.1610   23.6430 O   0  0  0  0  0  0  0  0  0  0  0  0
  -22.7650  -29.4900   22.5040 C   0  0  0  0  0  0  0  0  0  0  0  0
  -21.4270  -29.3700   22.3790 N   0  0  0  0  0  0  0  0  0  0  0  0
  -23.3980  -28.8590   23.3540 O   0  0  0  0  0  0  0  0  0  0  0  0
  -20.9620  -29.9280   21.6770 H   0  0  0  0  0  0  0  0  0  0  0  0
  -18.0130  -28.2240   22.9140 C   0  0  0  0  0  0  0  0  0  0  0  0
  -20.5810  -28.4490   23.1520 C   0  0  0  0  0  3  0  0  0  0  0  0
  -20.6500  -27.0170   22.5730 C   0  0  0  0  0  2  0  0  0  0  0  0
  -19.5360  -26.7210   21.5640 C   0  0  0  0  0  2  0  0  0  0  0  0
  -18.1610  -26.8810   22.2190 C   0  0  0  0  0  2  0  0  0  0  0  0
  -19.1470  -28.9670   23.3370 C   0  0  0  0  0  0  0  0  0  0  0  0
  -18.9480  -30.2210   23.9550 C   0  0  0  0  0  3  0  0  0  0  0  0
  -17.6510  -30.7320   24.1480 C   0  0  0  0  0  3  0  0  0  0  0  0
  -16.5330  -29.9880   23.7360 C   0  0  0  0  0  3  0  0  0  0  0  0
  -16.7150  -28.7340   23.1250 C   0  0  0  0  0  3  0  0  0  0  0  0
  -25.9370  -32.5050   23.8220 C   0  0  0  0  0  3  0  0  0  0  0  0
  -25.6040  -33.9100   24.1510 N   0  0  0  0  0  0  0  0  0  0  0  0
  -25.9320  -34.9810   23.4150 C   0  0  0  0  0  0  0  0  0  0  0  0
  -26.5950  -34.8920   22.3800 O   0  0  0  0  0  0  0  0  0  0  0  0
  -25.0090  -34.0500   24.9550 H   0  0  0  0  0  0  0  0  0  0  0  0
  -24.1910  -36.7840   23.1290 C   0  0  0  0  0  1  0  0  0  0  0  0
  -25.4550  -36.3700   23.8990 C   0  0  0  0  0  3  0  0  0  0  0  0
  -27.6050  -37.2700   24.6800 C   0  0  0  0  0  1  0  0  0  0  0  0
  -26.4800  -37.4290   23.7630 N   0  0  0  0  0  0  0  0  0  0  0  0
  -26.0720  -38.3480   23.9190 H   0  0  0  0  0  0  0  0  0  0  0  0
  -26.4080  -31.7600   25.1340 C   0  0  1  0  0  0  0  0  0  0  0  0
  -25.2830  -31.5480   26.1740 C   0  0  0  0  0  1  0  0  0  0  0  0
  -26.9990  -30.3710   24.8050 C   0  0  0  0  0  1  0  0  0  0  0  0
  -27.5420  -32.5640   25.8150 C   0  0  0  0  0  1  0  0  0  0  0  0
  -29.0250  -21.2640   20.2590 C   0  0  0  0  0 15  0  0  0  0  0  0
  -30.1790  -16.1910   20.1390 C   0  0  0  0  0  0  0  0  0  0  0  0
  -30.3390  -13.5550   19.3110 C   0  0  0  0  0  2  0  0  0  0  0  0
  -29.5010  -12.9040   18.1610 C   0  0  0  0  0  2  0  0  0  0  0  0
  -28.1360  -12.4290   18.6650 C   0  0  0  0  0  2  0  0  0  0  0  0
  -27.5600  -13.4540   19.6610 C   0  0  0  0  0  3  0  0  0  0  0  0
  -28.5670  -13.9940   20.7210 C   0  0  0  0  0  2  0  0  0  0  0  0
  -29.6280  -14.7790   19.9980 N   0  0  0  0  0  0  0  0  0  0  0  0
  -31.4100  -15.9430   20.0690 O   0  0  0  0  0  0  0  0  0  0  0  0
  -28.8690  -19.2340   20.1720 C   0  0  0  0  0  2  0  0  0  0  0  0
  -29.7090  -17.8000   20.1790 N   0  0  0  0  0  0  0  0  0  0  0  0
  -27.6690  -18.9690   20.0750 O   0  0  0  0  0  1  0  0  0  0  0  0
  -28.7770  -17.4140   20.1280 H   0  0  0  0  0  0  0  0  0  0  0  0
  -25.2080  -13.9040   20.4640 C   0  0  0  0  0  0  0  0  0  0  0  0
  -24.1700  -13.1000   20.8330 C   0  0  0  0  0  0  0  0  0  0  0  0
  -24.6690  -11.7600   20.7920 C   0  0  0  0  0  0  0  0  0  0  0  0
  -26.2710  -13.0600   20.2120 N   0  0  0  0  0  0  0  0  0  0  0  0
  -25.9620  -11.7600   20.4700 N   0  0  0  0  0  0  0  0  0  0  0  0
  -23.9630  -10.4830   20.9820 C   0  0  0  0  0  0  0  0  0  0  0  0
  -24.3970   -9.5280   21.9280 C   0  0  0  0  0  3  0  0  0  0  0  0
  -23.6840   -8.3240   22.1110 C   0  0  0  0  0  3  0  0  0  0  0  0
  -22.5200   -8.0640   21.3480 C   0  0  0  0  0  0  0  0  0  0  0  0
  -22.1040   -9.0080   20.3930 C   0  0  0  0  0  3  0  0  0  0  0  0
  -22.8190  -10.2030   20.2080 C   0  0  0  0  0  3  0  0  0  0  0  0
  -21.7790   -6.9100   21.4400 O   0  0  0  0  0  0  0  0  0  0  0  0
  -21.7110   -6.1880   22.6050 C   0  0  0  0  0  0  0  0  0  0  0  0
  -21.2250   -6.7530   23.8040 C   0  0  0  0  0  3  0  0  0  0  0  0
  -21.1060   -5.9570   24.9600 C   0  0  0  0  0  3  0  0  0  0  0  0
  -21.4620   -4.5950   24.9180 C   0  0  0  0  0  0  0  0  0  0  0  0
  -21.9410   -4.0290   23.7230 C   0  0  0  0  0  3  0  0  0  0  0  0
  -22.0620   -4.8230   22.5700 C   0  0  0  0  0  0  0  0  0  0  0  0
  -22.5020   -4.2670   21.4150 F   0  0  0  0  0  0  0  0  0  0  0  0
  -21.3420   -3.8270   26.0260 F   0  0  0  0  0  0  0  0  0  0  0  0
  -22.7650  -13.5490   21.1040 C   0  0  0  0  0  0  0  0  0  0  0  0
  -22.0550  -12.8470   21.9790 N   0  0  0  0  0  0  0  0  0  0  0  0
  -22.3080  -14.5630   20.5760 O   0  0  0  0  0  0  0  0  0  0  0  0
  -22.4400  -12.0300   22.4270 H   0  0  0  0  0  0  0  0  0  0  0  0
  -21.1130  -13.1330   22.2050 H   0  0  0  0  0  0  0  0  0  0  0  0
  -25.3350  -15.2790   20.2860 N   0  0  0  0  0  0  0  0  0  0  0  0
  -24.5530  -15.9130   20.4050 H   0  0  0  0  0  0  0  0  0  0  0  0
  -26.1720  -15.7400   19.9540 H   0  0  0  0  0  0  0  0  0  0  0  0
  3 14  2  0
  4  2  1  0
  4  9  1  0
  5 13  1  0
  5 15  1  0
  6 12  1  0
  6  8  1  0
  7 13  1  0
  8  9  2  0
  8  7  1  0
 10  4  2  0
 11 10  1  0
 11  6  2  0
 12  5  1  0
 13  3  1  0
 15 17  2  0
 16 15  1  0
 18 16  1  0
 19 28  2  0
 19 24  1  0
 20 16  1  0
 20 24  1  0
 21 20  1  0
 22 23  1  0
 22 21  1  0
 23 19  1  0
 24 25  2  0
 25 26  1  0
 27 26  2  0
 28 27  1  0
 29  3  1  0
 29 30  1  0
 29 39  1  0
 30 33  1  0
 31 35  1  0
 31 30  1  0
 32 31  2  0
 35 34  1  0
 37 35  1  0
 37 38  1  0
 37 36  1  0
 39 42  1  1
 39 40  1  0
 41 39  1  0
 44 53  1  0
 45 50  1  0
 46 47  1  0
 46 45  1  0
 48 47  1  0
 48 59  1  0
 48 49  1  0
 50 44  1  0
 50 49  1  0
 51 44  2  0
 52 53  1  0
 54 52  1  0
 55 53  1  0
 56 57  2  0
 57 76  1  0
 58 57  1  0
 58 61  1  0
 59 56  1  0
 59 60  1  0
 60 58  2  0
 61 62  1  0
 62 63  2  0
 64 67  1  0
 64 63  1  0
 65 64  2  0
 66 65  1  0
 66 61  2  0
 67 68  1  0
 68 69  1  0
 69 70  2  0
 71 70  1  0
 71 75  1  0
 72 71  2  0
 73 68  2  0
 73 72  1  0
 74 73  1  0
 76 77  1  0
 77 80  1  0
 77 79  1  0
 78 76  2  0
 81 82  1  0
 81 56  1  0
 83 81  1  0
M  ISO  4   1 101   2 101  44 100  53 100
M  END
>  <TORSDO>  (80) 
F 17

>  <SCORE>  (80) 
-16.243

>  <name>  (80) 
79

>  <ligand_id>  (80) 
79

>  <original_smiles>  (80) 
[H]c1c([H])c([H])c2c(c1[H])C([H])([H])C([H])([H])C([H])([H])C2([H])N([H])C(=O)C1([H])N(C(=O)C([H])(N([H])C(=O)C([H])(N([H])C([H])([H])[H])C([H])([H])[H])C(C([H])([H])[H])(C([H])([H])[H])C([H])([H])[H])C([H])([H])c2c([H])c(OC([H])([H])C([H])([H])C(=O)N([H])C(=O)N3C([H])([H])C([H])([H])C([H])([H])C([H])(n4nc(-c5c([H])c([H])c(Oc6c([H])c([H])c(F)c([H])c6F)c([H])c5[H])c(C(=O)N([H])[H])c4N([H])[H])C3([H])[H])c([H])c([H])c2C1([H])[H]

>  <smiles>  (80) 
[H]c1c([H])c([H])c2c(c1[H])C([H])([H])C([H])([H])C([H])([H])C2([H])N([H])C(=O)C1([H])N(C(=O)C([H])(N([H])C(=O)C([H])(N([H])C([H])([H])[H])C([H])([H])[H])C(C([H])([H])[H])(C([H])([H])[H])C([H])([H])[H])C([H])([H])c2c([H])c(OC([H])([H])C([H])([H])C(=O)N([H])C(=O)N3C([H])([H])C([H])([H])C([H])([H])C([H])(n4nc(-c5c([H])c([H])c(Oc6c([H])c([H])c(F)c([H])c6F)c([H])c5[H])c(C(=O)N([H])[H])c4N([H])[H])C3([H])[H])c([H])c([H])c2C1([H])[H]

$$$$
80:0:0
     RDKit          3D

 85 93  0  0  1  0  0  0  0  0999 V2000
  -27.8690  -20.5330   20.2500 C   0  0  0  0  0  3  0  0  0  0  0  0
  -29.9410  -20.9170   20.2420 C   0  0  0  0  0  3  0  0  0  0  0  0
  -27.5530  -22.1030   20.2650 C   0  0  0  0  0  3  0  0  0  0  0  0
  -29.6220  -22.4840   20.2590 C   0  0  0  0  0  3  0  0  0  0  0  0
  -29.1170  -19.6110   20.2350 C   0  0  0  0  0  0  0  0  0  0  0  0
  -28.3750  -23.4100   20.2720 C   0  0  0  0  0  0  0  0  0  0  0  0
  -30.1350  -16.2720   20.1640 C   0  0  0  0  0  0  0  0  0  0  0  0
  -30.4150  -13.6120   19.3740 C   0  0  0  0  0  2  0  0  0  0  0  0
  -29.5800  -12.9620   18.2160 C   0  0  0  0  0  2  0  0  0  0  0  0
  -28.2080  -12.4820   18.7050 C   0  0  0  0  0  2  0  0  0  0  0  0
  -27.6220  -13.4990   19.7000 C   0  0  0  0  0  3  0  0  0  0  0  0
  -28.6220  -14.0210   20.7740 C   0  0  0  0  0  2  0  0  0  0  0  0
  -29.6930  -14.8130   20.0790 N   0  0  0  0  0  0  0  0  0  0  0  0
  -31.3800  -16.1530   20.0280 O   0  0  0  0  0  0  0  0  0  0  0  0
  -29.3210  -17.7340   20.2220 N   0  0  0  0  0  0  0  0  0  0  0  0
  -28.3760  -17.3810   20.2740 H   0  0  0  0  0  0  0  0  0  0  0  0
  -25.2700  -13.9480   20.5120 C   0  0  0  0  0  0  0  0  0  0  0  0
  -24.2310  -13.1450   20.8780 C   0  0  0  0  0  0  0  0  0  0  0  0
  -24.7240  -11.8040   20.8200 C   0  0  0  0  0  0  0  0  0  0  0  0
  -26.3290  -13.1030   20.2440 N   0  0  0  0  0  0  0  0  0  0  0  0
  -26.0170  -11.8020   20.4920 N   0  0  0  0  0  0  0  0  0  0  0  0
  -24.0140  -10.5290   21.0000 C   0  0  0  0  0  0  0  0  0  0  0  0
  -24.4420   -9.5660   21.9410 C   0  0  0  0  0  3  0  0  0  0  0  0
  -23.7250   -8.3630   22.1140 C   0  0  0  0  0  3  0  0  0  0  0  0
  -22.5630   -8.1110   21.3470 C   0  0  0  0  0  0  0  0  0  0  0  0
  -22.1520   -9.0620   20.3960 C   0  0  0  0  0  3  0  0  0  0  0  0
  -22.8690  -10.2570   20.2220 C   0  0  0  0  0  3  0  0  0  0  0  0
  -21.8180   -6.9590   21.4280 O   0  0  0  0  0  0  0  0  0  0  0  0
  -21.7340   -6.2350   22.5910 C   0  0  0  0  0  0  0  0  0  0  0  0
  -21.2190   -6.7950   23.7800 C   0  0  0  0  0  3  0  0  0  0  0  0
  -21.0870   -5.9970   24.9340 C   0  0  0  0  0  3  0  0  0  0  0  0
  -21.4570   -4.6390   24.8980 C   0  0  0  0  0  0  0  0  0  0  0  0
  -21.9650   -4.0790   23.7130 C   0  0  0  0  0  3  0  0  0  0  0  0
  -22.1000   -4.8740   22.5620 C   0  0  0  0  0  0  0  0  0  0  0  0
  -22.5680   -4.3230   21.4150 F   0  0  0  0  0  0  0  0  0  0  0  0
  -21.3240   -3.8690   26.0030 F   0  0  0  0  0  0  0  0  0  0  0  0
  -22.8300  -13.5980   21.1600 C   0  0  0  0  0  0  0  0  0  0  0  0
  -22.1210  -12.8920   22.0330 N   0  0  0  0  0  0  0  0  0  0  0  0
  -22.3730  -14.6170   20.6430 O   0  0  0  0  0  0  0  0  0  0  0  0
  -22.5050  -12.0690   22.4740 H   0  0  0  0  0  0  0  0  0  0  0  0
  -21.1810  -13.1790   22.2660 H   0  0  0  0  0  0  0  0  0  0  0  0
  -25.4000  -15.3240   20.3460 N   0  0  0  0  0  0  0  0  0  0  0  0
  -24.6150  -15.9550   20.4640 H   0  0  0  0  0  0  0  0  0  0  0  0
  -26.2250  -15.7790   19.9790 H   0  0  0  0  0  0  0  0  0  0  0  0
  -28.2040  -25.1520   20.3060 O   0  0  0  0  0  0  0  0  0  0  0  0
  -24.6990  -31.8750   23.1860 C   0  0  0  0  0  0  0  0  0  0  0  0
  -27.2260  -26.4850   20.2890 C   0  0  0  0  0  0  0  0  0  0  0  0
  -23.5350  -30.4560   21.5570 C   0  0  0  0  0  3  0  0  0  0  0  0
  -24.9910  -28.7300   20.1880 C   0  0  0  0  0  0  0  0  0  0  0  0
  -26.1260  -30.4990   21.4920 C   0  0  0  0  0  2  0  0  0  0  0  0
  -26.1870  -29.0250   20.8520 C   0  0  0  0  0  0  0  0  0  0  0  0
  -27.2670  -27.9420   20.8620 C   0  0  0  0  0  3  0  0  0  0  0  0
  -25.9970  -26.4900   19.5550 C   0  0  0  0  0  3  0  0  0  0  0  0
  -24.9550  -27.4910   19.5150 C   0  0  0  0  0  3  0  0  0  0  0  0
  -23.8000  -29.7230   20.2050 C   0  0  0  0  0  2  0  0  0  0  0  0
  -24.8140  -30.9850   22.1290 N   0  0  0  0  0  0  0  0  0  0  0  0
  -23.5970  -32.1920   23.6700 O   0  0  0  0  0  0  0  0  0  0  0  0
  -22.7800  -29.5160   22.5370 C   0  0  0  0  0  0  0  0  0  0  0  0
  -21.4440  -29.3840   22.4100 N   0  0  0  0  0  0  0  0  0  0  0  0
  -23.4160  -28.8980   23.3940 O   0  0  0  0  0  0  0  0  0  0  0  0
  -20.9760  -29.9330   21.7010 H   0  0  0  0  0  0  0  0  0  0  0  0
  -18.0400  -28.2000   22.9360 C   0  0  0  0  0  0  0  0  0  0  0  0
  -20.6050  -28.4590   23.1850 C   0  0  0  0  0  3  0  0  0  0  0  0
  -20.6930  -27.0230   22.6170 C   0  0  0  0  0  2  0  0  0  0  0  0
  -19.5880  -26.7060   21.6050 C   0  0  0  0  0  2  0  0  0  0  0  0
  -18.2090  -26.8540   22.2510 C   0  0  0  0  0  2  0  0  0  0  0  0
  -19.1640  -28.9620   23.3590 C   0  0  0  0  0  0  0  0  0  0  0  0
  -18.9470  -30.2160   23.9670 C   0  0  0  0  0  3  0  0  0  0  0  0
  -17.6430  -30.7140   24.1500 C   0  0  0  0  0  3  0  0  0  0  0  0
  -16.5350  -29.9530   23.7380 C   0  0  0  0  0  3  0  0  0  0  0  0
  -16.7340  -28.6970   23.1370 C   0  0  0  0  0  3  0  0  0  0  0  0
  -25.9420  -32.5460   23.8440 C   0  0  0  0  0  3  0  0  0  0  0  0
  -25.6070  -33.9530   24.1650 N   0  0  0  0  0  0  0  0  0  0  0  0
  -25.9340  -35.0200   23.4240 C   0  0  0  0  0  0  0  0  0  0  0  0
  -26.5960  -34.9260   22.3880 O   0  0  0  0  0  0  0  0  0  0  0  0
  -25.0120  -34.0970   24.9680 H   0  0  0  0  0  0  0  0  0  0  0  0
  -24.1920  -36.8230   23.1260 C   0  0  0  0  0  1  0  0  0  0  0  0
  -25.4560  -36.4120   23.9000 C   0  0  0  0  0  3  0  0  0  0  0  0
  -27.5990  -37.3240   24.6860 C   0  0  0  0  0  1  0  0  0  0  0  0
  -26.4820  -37.4700   23.7570 N   0  0  0  0  0  0  0  0  0  0  0  0
  -26.0730  -38.3910   23.8940 H   0  0  0  0  0  0  0  0  0  0  0  0
  -26.4160  -31.8110   25.1610 C   0  0  1  0  0  0  0  0  0  0  0  0
  -25.2890  -31.6010   26.2010 C   0  0  0  0  0  1  0  0  0  0  0  0
  -27.0110  -30.4230   24.8420 C   0  0  0  0  0  1  0  0  0  0  0  0
  -27.5460  -32.6230   25.8390 C   0  0  0  0  0  1  0  0  0  0  0  0
  1  3  1  0
  2  4  2  0
  3  6  2  0
  4  6  1  0
  5  2  1  0
  5  1  2  0
  6 45  1  0
  7 15  1  0
  8 13  1  0
  9 10  1  0
  9  8  1  0
 11 10  1  0
 11 20  1  0
 11 12  1  0
 13  7  1  0
 13 12  1  0
 14  7  2  0
 15  5  1  0
 15 16  1  0
 17 18  2  0
 18 37  1  0
 19 18  1  0
 19 22  1  0
 20 21  1  0
 20 17  1  0
 21 19  2  0
 22 23  1  0
 23 24  2  0
 25 28  1  0
 25 24  1  0
 26 25  2  0
 27 26  1  0
 27 22  2  0
 28 29  1  0
 29 30  1  0
 30 31  2  0
 32 31  1  0
 32 36  1  0
 33 32  2  0
 34 29  2  0
 34 33  1  0
 35 34  1  0
 37 38  1  0
 38 41  1  0
 38 40  1  0
 39 37  2  0
 42 43  1  0
 42 17  1  0
 44 42  1  0
 46 57  2  0
 47 45  1  0
 47 52  1  0
 48 56  1  0
 48 58  1  0
 49 55  1  0
 49 51  1  0
 50 56  1  0
 51 52  2  0
 51 50  1  0
 53 47  2  0
 54 53  1  0
 54 49  2  0
 55 48  1  0
 56 46  1  0
 58 60  2  0
 59 58  1  0
 61 59  1  0
 62 71  2  0
 62 67  1  0
 63 59  1  0
 63 67  1  0
 64 63  1  0
 65 66  1  0
 65 64  1  0
 66 62  1  0
 67 68  2  0
 68 69  1  0
 70 69  2  0
 71 70  1  0
 72 46  1  0
 72 73  1  0
 72 82  1  0
 73 76  1  0
 74 78  1  0
 74 73  1  0
 75 74  2  0
 78 77  1  0
 80 81  1  0
 80 78  1  0
 80 79  1  0
 82 85  1  1
 82 83  1  0
 84 82  1  0
M  ISO  4   6 101   7 100  15 100  45 101
M  END
>  <TORSDO>  (81) 
F 16

>  <SCORE>  (81) 
-16.478

>  <name>  (81) 
80

>  <ligand_id>  (81) 
80

>  <original_smiles>  (81) 
[H]c1c([H])c([H])c2c(c1[H])C([H])([H])C([H])([H])C([H])([H])C2([H])N([H])C(=O)C1([H])N(C(=O)C([H])(N([H])C(=O)C([H])(N([H])C([H])([H])[H])C([H])([H])[H])C(C([H])([H])[H])(C([H])([H])[H])C([H])([H])[H])C([H])([H])c2c([H])c(Oc3c([H])c([H])c(N([H])C(=O)N4C([H])([H])C([H])([H])C([H])([H])C([H])(n5nc(-c6c([H])c([H])c(Oc7c([H])c([H])c(F)c([H])c7F)c([H])c6[H])c(C(=O)N([H])[H])c5N([H])[H])C4([H])[H])c([H])c3[H])c([H])c([H])c2C1([H])[H]

>  <smiles>  (81) 
[H]c1c([H])c([H])c2c(c1[H])C([H])([H])C([H])([H])C([H])([H])C2([H])N([H])C(=O)C1([H])N(C(=O)C([H])(N([H])C(=O)C([H])(N([H])C([H])([H])[H])C([H])([H])[H])C(C([H])([H])[H])(C([H])([H])[H])C([H])([H])[H])C([H])([H])c2c([H])c(Oc3c([H])c([H])c(N([H])C(=O)N4C([H])([H])C([H])([H])C([H])([H])C([H])(n5nc(-c6c([H])c([H])c(Oc7c([H])c([H])c(F)c([H])c7F)c([H])c6[H])c(C(=O)N([H])[H])c5N([H])[H])C4([H])[H])c([H])c3[H])c([H])c([H])c2C1([H])[H]

$$$$
81:0:0
     RDKit          3D

 92100  0  0  1  0  0  0  0  0999 V2000
  -29.7460  -17.6580   20.4100 C   0  0  0  0  0  0  0  0  0  0  0  0
  -29.4880  -19.8620   19.2910 C   0  0  0  0  0  2  0  0  0  0  0  0
  -30.9480  -19.7070   21.2440 C   0  0  0  0  0  2  0  0  0  0  0  0
  -28.8350  -21.1430   19.8610 C   0  0  0  0  0  2  0  0  0  0  0  0
  -30.3010  -20.9850   21.8260 C   0  0  0  0  0  2  0  0  0  0  0  0
  -30.0200  -18.9910   20.3540 N   0  0  0  0  0  0  0  0  0  0  0  0
  -29.7440  -21.8830   20.7760 N   0  0  2  0  0  4  0  0  0  0  0  0
  -28.9500  -17.1230   19.6310 O   0  0  0  0  0  0  0  0  0  0  0  0
  -30.5350  -22.1870   20.2280 H   0  0  0  0  0  0  0  0  0  0  0  0
  -30.4330  -16.7670   21.4700 C   0  0  0  0  0  2  0  0  0  0  0  0
  -30.6810  -14.4420   20.5660 C   0  0  0  0  0  0  0  0  0  0  0  0
  -30.3610  -12.3390   19.3150 C   0  0  0  0  0  2  0  0  0  0  0  0
  -29.4170  -12.5850   18.1210 C   0  0  0  0  0  2  0  0  0  0  0  0
  -27.9430  -12.4500   18.5460 C   0  0  0  0  0  2  0  0  0  0  0  0
  -27.6150  -13.2550   19.8310 C   0  0  0  0  0  3  0  0  0  0  0  0
  -28.6630  -12.9740   20.9310 C   0  0  0  0  0  2  0  0  0  0  0  0
  -29.9970  -13.2820   20.3820 N   0  0  0  0  0  0  0  0  0  0  0  0
  -31.7530  -14.6930   20.0080 O   0  0  0  0  0  0  0  0  0  0  0  0
  -30.0700  -15.3470   21.3440 N   0  0  0  0  0  0  0  0  0  0  0  0
  -29.1850  -15.0710   21.7400 H   0  0  0  0  0  0  0  0  0  0  0  0
  -25.2110  -13.8720   20.5160 C   0  0  0  0  0  0  0  0  0  0  0  0
  -24.1390  -13.1030   20.8820 C   0  0  0  0  0  0  0  0  0  0  0  0
  -24.5970  -11.7510   20.8610 C   0  0  0  0  0  0  0  0  0  0  0  0
  -26.2560  -12.9880   20.2990 N   0  0  0  0  0  0  0  0  0  0  0  0
  -25.8890  -11.7070   20.5600 N   0  0  0  0  0  0  0  0  0  0  0  0
  -23.8680  -10.4890   21.0540 C   0  0  0  0  0  0  0  0  0  0  0  0
  -24.3040   -9.5190   21.9830 C   0  0  0  0  0  3  0  0  0  0  0  0
  -23.5770   -8.3240   22.1630 C   0  0  0  0  0  3  0  0  0  0  0  0
  -22.4000   -8.0890   21.4130 C   0  0  0  0  0  0  0  0  0  0  0  0
  -21.9840   -9.0470   20.4730 C   0  0  0  0  0  3  0  0  0  0  0  0
  -22.7120  -10.2350   20.2910 C   0  0  0  0  0  3  0  0  0  0  0  0
  -21.6440   -6.9440   21.5020 O   0  0  0  0  0  0  0  0  0  0  0  0
  -21.6080   -6.1930   22.6490 C   0  0  0  0  0  0  0  0  0  0  0  0
  -21.2120   -6.7420   23.8880 C   0  0  0  0  0  3  0  0  0  0  0  0
  -21.1230   -5.9180   25.0270 C   0  0  0  0  0  3  0  0  0  0  0  0
  -21.4190   -4.5450   24.9290 C   0  0  0  0  0  0  0  0  0  0  0  0
  -21.8080   -3.9950   23.6950 C   0  0  0  0  0  3  0  0  0  0  0  0
  -21.8990   -4.8170   22.5580 C   0  0  0  0  0  0  0  0  0  0  0  0
  -22.2540   -4.2780   21.3660 F   0  0  0  0  0  0  0  0  0  0  0  0
  -21.3260   -3.7500   26.0210 F   0  0  0  0  0  0  0  0  0  0  0  0
  -22.7400  -13.5830   21.1460 C   0  0  0  0  0  0  0  0  0  0  0  0
  -22.0070  -12.8910   22.0120 N   0  0  0  0  0  0  0  0  0  0  0  0
  -22.3050  -14.6070   20.6200 O   0  0  0  0  0  0  0  0  0  0  0  0
  -22.3710  -12.0640   22.4600 H   0  0  0  0  0  0  0  0  0  0  0  0
  -21.0690  -13.1950   22.2310 H   0  0  0  0  0  0  0  0  0  0  0  0
  -25.3800  -15.2420   20.3330 N   0  0  0  0  0  0  0  0  0  0  0  0
  -24.6150  -15.9000   20.4310 H   0  0  0  0  0  0  0  0  0  0  0  0
  -26.2390  -15.6740   20.0130 H   0  0  0  0  0  0  0  0  0  0  0  0
  -29.1340  -23.1190   21.3560 C   0  0  0  0  0  2  0  0  0  0  0  0
  -29.0680  -24.3330   20.3920 C   0  0  0  0  0  2  0  0  0  0  0  0
  -28.4450  -25.5790   21.0650 C   0  0  0  0  0  2  0  0  0  0  0  0
  -28.4820  -26.7380   20.2200 O   0  0  0  0  0  0  0  0  0  0  0  0
  -24.6160  -31.9010   23.2470 C   0  0  0  0  0  0  0  0  0  0  0  0
  -27.3190  -27.4710   20.2170 C   0  0  0  0  0  0  0  0  0  0  0  0
  -23.4350  -30.4860   21.5970 C   0  0  0  0  0  3  0  0  0  0  0  0
  -24.9130  -28.9490   20.1960 C   0  0  0  0  0  0  0  0  0  0  0  0
  -25.9590  -30.8630   21.4210 C   0  0  0  0  0  2  0  0  0  0  0  0
  -26.0610  -29.4890   20.7910 C   0  0  0  0  0  0  0  0  0  0  0  0
  -27.2700  -28.7580   20.7970 C   0  0  0  0  0  3  0  0  0  0  0  0
  -26.1580  -26.9390   19.6190 C   0  0  0  0  0  3  0  0  0  0  0  0
  -24.9550  -27.6720   19.6070 C   0  0  0  0  0  3  0  0  0  0  0  0
  -23.6620  -29.7990   20.2240 C   0  0  0  0  0  2  0  0  0  0  0  0
  -24.6870  -31.0990   22.1470 N   0  0  0  0  0  0  0  0  0  0  0  0
  -23.5290  -32.1700   23.7740 O   0  0  0  0  0  0  0  0  0  0  0  0
  -22.7790  -29.4670   22.5560 C   0  0  0  0  0  0  0  0  0  0  0  0
  -21.4560  -29.2780   22.4140 N   0  0  0  0  0  0  0  0  0  0  0  0
  -23.4560  -28.8470   23.3810 O   0  0  0  0  0  0  0  0  0  0  0  0
  -20.9710  -29.8290   21.7210 H   0  0  0  0  0  0  0  0  0  0  0  0
  -18.0830  -28.0680   22.8730 C   0  0  0  0  0  0  0  0  0  0  0  0
  -20.6350  -28.3400   23.1790 C   0  0  0  0  0  3  0  0  0  0  0  0
  -20.7530  -26.9070   22.6120 C   0  0  0  0  0  2  0  0  0  0  0  0
  -19.6670  -26.5730   21.5840 C   0  0  0  0  0  2  0  0  0  0  0  0
  -18.2760  -26.7160   22.2080 C   0  0  0  0  0  2  0  0  0  0  0  0
  -19.1920  -28.8380   23.3150 C   0  0  0  0  0  0  0  0  0  0  0  0
  -18.9590  -30.1040   23.8940 C   0  0  0  0  0  3  0  0  0  0  0  0
  -17.6500  -30.6000   24.0380 C   0  0  0  0  0  3  0  0  0  0  0  0
  -16.5550  -29.8280   23.6130 C   0  0  0  0  0  3  0  0  0  0  0  0
  -16.7730  -28.5630   23.0370 C   0  0  0  0  0  3  0  0  0  0  0  0
  -25.8930  -32.5410   23.8780 C   0  0  0  0  0  3  0  0  0  0  0  0
  -26.4030  -31.7750   25.1600 C   0  0  1  0  0  0  0  0  0  0  0  0
  -25.3040  -31.5370   26.2200 C   0  0  0  0  0  1  0  0  0  0  0  0
  -26.9940  -30.3990   24.7740 C   0  0  0  0  0  1  0  0  0  0  0  0
  -27.5460  -32.5750   25.8280 C   0  0  0  0  0  1  0  0  0  0  0  0
  -25.5760  -33.9380   24.1980 N   0  0  0  0  0  0  0  0  0  0  0  0
  -25.9130  -34.9880   23.4350 C   0  0  0  0  0  0  0  0  0  0  0  0
  -26.5940  -34.8810   22.4130 O   0  0  0  0  0  0  0  0  0  0  0  0
  -24.9730  -34.0950   24.9920 H   0  0  0  0  0  0  0  0  0  0  0  0
  -24.1790  -36.7690   23.0520 C   0  0  0  0  0  1  0  0  0  0  0  0
  -25.4140  -36.3760   23.8800 C   0  0  0  0  0  3  0  0  0  0  0  0
  -27.5390  -37.2730   24.7240 C   0  0  0  0  0  1  0  0  0  0  0  0
  -26.4420  -37.4340   23.7720 N   0  0  0  0  0  0  0  0  0  0  0  0
  -26.0300  -38.3520   23.9160 H   0  0  0  0  0  0  0  0  0  0  0  0
  1 10  1  0
  2  4  1  0
  2  6  1  0
  3  5  1  0
  4  7  1  0
  6  1  1  0
  6  3  1  0
  7 49  1  0
  7  5  1  0
  8  1  2  0
  7  9  1  6
 11 19  1  0
 12 17  1  0
 13 14  1  0
 13 12  1  0
 15 14  1  0
 15 24  1  0
 15 16  1  0
 17 11  1  0
 17 16  1  0
 18 11  2  0
 19 10  1  0
 19 20  1  0
 21 22  2  0
 22 41  1  0
 23 22  1  0
 23 26  1  0
 24 21  1  0
 24 25  1  0
 25 23  2  0
 26 27  1  0
 27 28  2  0
 29 32  1  0
 29 28  1  0
 30 29  2  0
 31 30  1  0
 31 26  2  0
 32 33  1  0
 33 34  1  0
 34 35  2  0
 36 35  1  0
 36 40  1  0
 37 36  2  0
 38 33  2  0
 38 37  1  0
 39 38  1  0
 41 42  1  0
 42 45  1  0
 42 44  1  0
 43 41  2  0
 46 47  1  0
 46 21  1  0
 48 46  1  0
 50 51  1  0
 50 49  1  0
 52 51  1  0
 53 64  2  0
 54 52  1  0
 54 59  1  0
 55 63  1  0
 55 65  1  0
 56 62  1  0
 56 58  1  0
 57 63  1  0
 58 59  2  0
 58 57  1  0
 60 54  2  0
 61 60  1  0
 61 56  2  0
 62 55  1  0
 63 53  1  0
 65 67  2  0
 66 65  1  0
 68 66  1  0
 69 78  2  0
 69 74  1  0
 70 66  1  0
 70 74  1  0
 71 70  1  0
 72 73  1  0
 72 71  1  0
 73 69  1  0
 74 75  2  0
 75 76  1  0
 77 76  2  0
 78 77  1  0
 79 53  1  0
 79 84  1  0
 79 80  1  0
 80 83  1  1
 80 81  1  0
 82 80  1  0
 84 87  1  0
 85 89  1  0
 85 84  1  0
 86 85  2  0
 89 88  1  0
 91 89  1  0
 91 92  1  0
 91 90  1  0
M  ISO  4  11 100  19 100  51 101  52 101
M  END
>  <TORSDO>  (82) 
F 20

>  <SCORE>  (82) 
-14.142

>  <name>  (82) 
81

>  <ligand_id>  (82) 
81

>  <original_smiles>  (82) 
[H]c1c([H])c([H])c2c(c1[H])C([H])([H])C([H])([H])C([H])([H])C2([H])N([H])C(=O)C1([H])N(C(=O)C([H])(N([H])C(=O)C([H])(N([H])C([H])([H])[H])C([H])([H])[H])C(C([H])([H])[H])(C([H])([H])[H])C([H])([H])[H])C([H])([H])c2c([H])c(OC([H])([H])C([H])([H])C([H])([H])[N+]3([H])C([H])([H])C([H])([H])N(C(=O)C([H])([H])N([H])C(=O)N4C([H])([H])C([H])([H])C([H])([H])C([H])(n5nc(-c6c([H])c([H])c(Oc7c([H])c([H])c(F)c([H])c7F)c([H])c6[H])c(C(=O)N([H])[H])c5N([H])[H])C4([H])[H])C([H])([H])C3([H])[H])c([H])c([H])c2C1([H])[H]

>  <smiles>  (82) 
[H]c1c([H])c([H])c2c(c1[H])C([H])([H])C([H])([H])C([H])([H])C2([H])N([H])C(=O)C1([H])N(C(=O)C([H])(N([H])C(=O)C([H])(N([H])C([H])([H])[H])C([H])([H])[H])C(C([H])([H])[H])(C([H])([H])[H])C([H])([H])[H])C([H])([H])c2c([H])c(OC([H])([H])C([H])([H])C([H])([H])[N+]3([H])C([H])([H])C([H])([H])N(C(=O)C([H])([H])N([H])C(=O)N4C([H])([H])C([H])([H])C([H])([H])C([H])(n5nc(-c6c([H])c([H])c(Oc7c([H])c([H])c(F)c([H])c7F)c([H])c6[H])c(C(=O)N([H])[H])c5N([H])[H])C4([H])[H])C([H])([H])C3([H])[H])c([H])c([H])c2C1([H])[H]

$$$$
82:0:0
     RDKit          3D

100107  0  0  1  0  0  0  0  0999 V2000
  -29.5070  -22.6430   23.5680 C   0  0  0  0  0  0  0  0  0  0  0  0
  -29.6790  -23.7020   24.3660 N   0  0  0  0  0  0  0  0  0  0  0  0
  -28.9450  -22.7320   22.4740 O   0  0  0  0  0  0  0  0  0  0  0  0
  -30.1750  -23.5650   25.2360 H   0  0  0  0  0  0  0  0  0  0  0  0
  -30.0290  -21.2980   24.0860 C   0  0  0  0  0  2  0  0  0  0  0  0
  -30.1960  -20.2240   22.9890 C   0  0  0  0  0  2  0  0  0  0  0  0
  -30.8140  -18.9090   23.5110 C   0  0  0  0  0  2  0  0  0  0  0  0
  -30.6920  -17.7380   22.5190 C   0  0  0  0  0  2  0  0  0  0  0  0
  -31.9470  -14.5470   19.7150 C   0  0  0  0  0  0  0  0  0  0  0  0
  -31.2540  -12.4730   18.5860 C   0  0  0  0  0  2  0  0  0  0  0  0
  -30.2260  -12.7840   17.4810 C   0  0  0  0  0  2  0  0  0  0  0  0
  -28.7990  -12.7960   18.0600 C   0  0  0  0  0  2  0  0  0  0  0  0
  -28.6820  -13.6700   19.3390 C   0  0  0  0  0  3  0  0  0  0  0  0
  -29.8140  -13.3450   20.3410 C   0  0  0  0  0  2  0  0  0  0  0  0
  -31.1040  -13.4830   19.6460 N   0  0  0  0  0  0  0  0  0  0  0  0
  -32.9630  -14.6490   19.0160 O   0  0  0  0  0  0  0  0  0  0  0  0
  -32.2080  -16.8340   20.6790 C   0  0  0  0  0  0  0  0  0  0  0  0
  -33.2610  -17.1880   19.9250 N   0  0  0  0  0  4  0  0  0  0  0  0
  -31.5810  -15.6290   20.5930 N   0  0  0  0  0  0  0  0  0  0  0  0
  -31.7950  -17.7790   21.5440 N   0  0  0  0  0  0  0  0  0  0  0  0
  -33.6210  -16.5060   19.2610 H   0  0  0  0  0  0  0  0  0  0  0  0
  -33.7290  -18.0800   19.9830 H   0  0  0  0  0  0  0  0  0  0  0  0
  -30.7740  -15.5420   21.1820 H   0  0  0  0  0  0  0  0  0  0  0  0
  -32.2660  -18.6710   21.5130 H   0  0  0  0  0  0  0  0  0  0  0  0
  -26.4700  -14.5290   20.3400 C   0  0  0  0  0  0  0  0  0  0  0  0
  -25.3580  -13.8730   20.7970 C   0  0  0  0  0  0  0  0  0  0  0  0
  -25.6360  -12.4780   20.6550 C   0  0  0  0  0  0  0  0  0  0  0  0
  -27.3630  -13.5400   19.9550 N   0  0  0  0  0  0  0  0  0  0  0  0
  -26.8700  -12.3000   20.2000 N   0  0  0  0  0  0  0  0  0  0  0  0
  -24.7800  -11.3040   20.8740 C   0  0  0  0  0  0  0  0  0  0  0  0
  -25.1570  -10.2690   21.7580 C   0  0  0  0  0  3  0  0  0  0  0  0
  -24.3070   -9.1620   21.9640 C   0  0  0  0  0  3  0  0  0  0  0  0
  -23.0690   -9.0800   21.2850 C   0  0  0  0  0  0  0  0  0  0  0  0
  -22.7110  -10.1010   20.3870 C   0  0  0  0  0  3  0  0  0  0  0  0
  -23.5590  -11.2000   20.1790 C   0  0  0  0  0  3  0  0  0  0  0  0
  -22.1920   -8.0280   21.4030 O   0  0  0  0  0  0  0  0  0  0  0  0
  -22.0120   -7.3710   22.5930 C   0  0  0  0  0  0  0  0  0  0  0  0
  -21.6270   -8.0510   23.7680 C   0  0  0  0  0  3  0  0  0  0  0  0
  -21.3840   -7.3270   24.9530 C   0  0  0  0  0  3  0  0  0  0  0  0
  -21.5180   -5.9260   24.9640 C   0  0  0  0  0  0  0  0  0  0  0  0
  -21.8950   -5.2470   23.7920 C   0  0  0  0  0  3  0  0  0  0  0  0
  -22.1400   -5.9670   22.6110 C   0  0  0  0  0  0  0  0  0  0  0  0
  -22.4820   -5.3060   21.4780 F   0  0  0  0  0  0  0  0  0  0  0  0
  -21.2790   -5.2290   26.0980 F   0  0  0  0  0  0  0  0  0  0  0  0
  -24.0690  -14.5010   21.2470 C   0  0  0  0  0  0  0  0  0  0  0  0
  -23.3850  -13.8800   22.2020 N   0  0  0  0  0  0  0  0  0  0  0  0
  -23.6860  -15.5750   20.7850 O   0  0  0  0  0  0  0  0  0  0  0  0
  -23.7100  -13.0100   22.5990 H   0  0  0  0  0  0  0  0  0  0  0  0
  -22.5230  -14.2800   22.5430 H   0  0  0  0  0  0  0  0  0  0  0  0
  -26.7900  -15.8750   20.2020 N   0  0  0  0  0  0  0  0  0  0  0  0
  -26.1270  -16.6100   20.4210 H   0  0  0  0  0  0  0  0  0  0  0  0
  -27.6300  -16.2230   19.7600 H   0  0  0  0  0  0  0  0  0  0  0  0
  -29.1670  -25.0480   24.1180 C   0  0  0  0  0  2  0  0  0  0  0  0
  -30.1100  -25.9150   23.2770 C   0  0  0  0  0  0  0  0  0  0  0  0
  -30.3000  -25.5520   22.0040 N   0  0  0  0  0  0  0  0  0  0  0  0
  -30.6340  -26.9150   23.7700 O   0  0  0  0  0  0  0  0  0  0  0  0
  -29.8770  -24.6790   21.7070 H   0  0  0  0  0  0  0  0  0  0  0  0
  -30.9670  -26.3660   20.9910 C   0  0  0  0  0  2  0  0  0  0  0  0
  -30.0830  -27.5650   20.6000 C   0  0  0  0  0  2  0  0  0  0  0  0
  -28.9050  -27.0760   19.9540 O   0  0  0  0  0  0  0  0  0  0  0  0
  -24.7330  -31.8550   23.2590 C   0  0  0  0  0  0  0  0  0  0  0  0
  -27.7230  -27.7850   20.0240 C   0  0  0  0  0  0  0  0  0  0  0  0
  -23.6330  -30.4510   21.5410 C   0  0  0  0  0  3  0  0  0  0  0  0
  -25.2030  -29.0810   20.0710 C   0  0  0  0  0  0  0  0  0  0  0  0
  -26.1210  -31.0070   21.3740 C   0  0  0  0  0  2  0  0  0  0  0  0
  -26.3120  -29.6750   20.6850 C   0  0  0  0  0  0  0  0  0  0  0  0
  -27.5710  -29.0440   20.6570 C   0  0  0  0  0  3  0  0  0  0  0  0
  -26.5960  -27.1990   19.4100 C   0  0  0  0  0  3  0  0  0  0  0  0
  -25.3380  -27.8380   19.4270 C   0  0  0  0  0  3  0  0  0  0  0  0
  -23.8980  -29.8410   20.1380 C   0  0  0  0  0  2  0  0  0  0  0  0
  -24.8460  -31.1160   22.1190 N   0  0  0  0  0  0  0  0  0  0  0  0
  -23.6340  -32.0260   23.8030 O   0  0  0  0  0  0  0  0  0  0  0  0
  -23.0460  -29.3490   22.4510 C   0  0  0  0  0  0  0  0  0  0  0  0
  -21.7580  -29.0280   22.2450 N   0  0  0  0  0  0  0  0  0  0  0  0
  -23.7500  -28.7820   23.2910 O   0  0  0  0  0  0  0  0  0  0  0  0
  -21.2490  -29.5430   21.5410 H   0  0  0  0  0  0  0  0  0  0  0  0
  -18.5430  -27.3980   22.4510 C   0  0  0  0  0  0  0  0  0  0  0  0
  -21.0070  -27.9930   22.9530 C   0  0  0  0  0  3  0  0  0  0  0  0
  -21.3510  -26.5860   22.4110 C   0  0  0  0  0  2  0  0  0  0  0  0
  -20.4010  -26.1160   21.3050 C   0  0  0  0  0  2  0  0  0  0  0  0
  -18.9580  -26.0800   21.8170 C   0  0  0  0  0  2  0  0  0  0  0  0
  -19.5060  -28.3020   22.9700 C   0  0  0  0  0  0  0  0  0  0  0  0
  -19.0690  -29.5290   23.5160 C   0  0  0  0  0  3  0  0  0  0  0  0
  -17.7010  -29.8540   23.5510 C   0  0  0  0  0  3  0  0  0  0  0  0
  -16.7500  -28.9480   23.0520 C   0  0  0  0  0  3  0  0  0  0  0  0
  -17.1710  -27.7220   22.5060 C   0  0  0  0  0  3  0  0  0  0  0  0
  -25.9710  -32.5370   23.9210 C   0  0  0  0  0  3  0  0  0  0  0  0
  -25.6000  -33.9250   24.2250 N   0  0  0  0  0  0  0  0  0  0  0  0
  -25.9720  -34.9870   23.4990 C   0  0  0  0  0  0  0  0  0  0  0  0
  -26.7350  -34.9050   22.5320 O   0  0  0  0  0  0  0  0  0  0  0  0
  -24.9340  -34.0640   24.9720 H   0  0  0  0  0  0  0  0  0  0  0  0
  -24.2330  -36.7340   22.9970 C   0  0  0  0  0  1  0  0  0  0  0  0
  -25.4110  -36.3620   23.9120 C   0  0  0  0  0  3  0  0  0  0  0  0
  -27.4530  -37.2930   24.9080 C   0  0  0  0  0  1  0  0  0  0  0  0
  -26.4210  -37.4420   23.8850 N   0  0  0  0  0  0  0  0  0  0  0  0
  -25.9800  -38.3500   24.0090 H   0  0  0  0  0  0  0  0  0  0  0  0
  -26.4720  -31.7940   25.2200 C   0  0  1  0  0  0  0  0  0  0  0  0
  -25.3470  -31.4910   26.2360 C   0  0  0  0  0  1  0  0  0  0  0  0
  -27.1480  -30.4520   24.8510 C   0  0  0  0  0  1  0  0  0  0  0  0
  -27.5440  -32.6470   25.9370 C   0  0  0  0  0  1  0  0  0  0  0  0
  1  5  1  0
  1  2  1  0
  2  4  1  0
  3  1  2  0
  6  7  1  0
  6  5  1  0
  8  7  1  0
  9 19  1  0
 10 15  1  0
 11 12  1  0
 11 10  1  0
 13 12  1  0
 13 28  1  0
 13 14  1  0
 15  9  1  0
 15 14  1  0
 16  9  2  0
 17 20  1  0
 18 22  1  0
 18 17  2  0
 19 17  1  0
 19 23  1  0
 20  8  1  0
 21 18  1  0
 24 20  1  0
 25 26  2  0
 26 45  1  0
 27 26  1  0
 27 30  1  0
 28 29  1  0
 28 25  1  0
 29 27  2  0
 30 31  1  0
 31 32  2  0
 33 36  1  0
 33 32  1  0
 34 33  2  0
 35 34  1  0
 35 30  2  0
 36 37  1  0
 37 42  2  0
 37 38  1  0
 38 39  2  0
 39 40  1  0
 40 44  1  0
 41 40  2  0
 42 41  1  0
 43 42  1  0
 45 46  1  0
 46 49  1  0
 46 48  1  0
 47 45  2  0
 50 25  1  0
 50 51  1  0
 52 50  1  0
 53  2  1  0
 54 56  2  0
 54 53  1  0
 55 54  1  0
 57 55  1  0
 58 55  1  0
 59 58  1  0
 60 62  1  0
 60 59  1  0
 61 72  2  0
 62 67  1  0
 63 71  1  0
 63 73  1  0
 64 70  1  0
 64 66  1  0
 65 71  1  0
 66 65  1  0
 67 66  2  0
 68 69  1  0
 68 62  2  0
 69 64  2  0
 70 63  1  0
 71 61  1  0
 73 75  2  0
 74 73  1  0
 76 74  1  0
 77 86  2  0
 77 82  1  0
 78 74  1  0
 78 82  1  0
 79 78  1  0
 80 81  1  0
 80 79  1  0
 81 77  1  0
 82 83  2  0
 83 84  1  0
 85 84  2  0
 86 85  1  0
 87 61  1  0
 87 88  1  0
 87 97  1  0
 88 91  1  0
 89 93  1  0
 89 88  1  0
 90 89  2  0
 93 92  1  0
 95 93  1  0
 95 96  1  0
 95 94  1  0
 97100  1  1
 97 98  1  0
 99 97  1  0
M  ISO  4   9 100  19 100  59 101  60 101
M  END
>  <TORSDO>  (83) 
F 24

>  <SCORE>  (83) 
-8.287

>  <name>  (83) 
82

>  <ligand_id>  (83) 
82

>  <original_smiles>  (83) 
[H]c1c([H])c([H])c2c(c1[H])C([H])([H])C([H])([H])C([H])([H])C2([H])N([H])C(=O)C1([H])N(C(=O)C([H])(N([H])C(=O)C([H])(N([H])C([H])([H])[H])C([H])([H])[H])C(C([H])([H])[H])(C([H])([H])[H])C([H])([H])[H])C([H])([H])c2c([H])c(OC([H])([H])C([H])([H])N([H])C(=O)C([H])([H])N([H])C(=O)C([H])([H])C([H])([H])C([H])([H])C([H])([H])[N+]([H])=C(N([H])[H])N([H])C(=O)N3C([H])([H])C([H])([H])C([H])([H])C([H])(n4nc(-c5c([H])c([H])c(Oc6c([H])c([H])c(F)c([H])c6F)c([H])c5[H])c(C(=O)N([H])[H])c4N([H])[H])C3([H])[H])c([H])c([H])c2C1([H])[H]

>  <smiles>  (83) 
[H]c1c([H])c([H])c2c(c1[H])C([H])([H])C([H])([H])C([H])([H])C2([H])N([H])C(=O)C1([H])N(C(=O)C([H])(N([H])C(=O)C([H])(N([H])C([H])([H])[H])C([H])([H])[H])C(C([H])([H])[H])(C([H])([H])[H])C([H])([H])[H])C([H])([H])c2c([H])c(OC([H])([H])C([H])([H])N([H])C(=O)C([H])([H])N([H])C(=O)C([H])([H])C([H])([H])C([H])([H])C([H])([H])[N+]([H])=C(N([H])[H])N([H])C(=O)N3C([H])([H])C([H])([H])C([H])([H])C([H])(n4nc(-c5c([H])c([H])c(Oc6c([H])c([H])c(F)c([H])c6F)c([H])c5[H])c(C(=O)N([H])[H])c4N([H])[H])C3([H])[H])c([H])c([H])c2C1([H])[H]

$$$$
83:0:0
     RDKit          3D

 88 96  0  0  1  0  0  0  0  0999 V2000
  -29.4230  -19.8930   20.5590 C   0  0  0  0  0  0  0  0  0  0  0  0
  -29.1680  -21.2530   20.0090 N   0  0  0  0  0  0  0  0  0  0  0  0
  -29.3020  -19.7920   21.7800 O   0  0  0  0  0  0  0  0  0  0  0  0
  -29.2470  -21.2500   19.0000 H   0  0  0  0  0  0  0  0  0  0  0  0
  -30.4150  -15.4330   20.1630 C   0  0  0  0  0  0  0  0  0  0  0  0
  -30.3810  -12.9570   19.3350 C   0  0  0  0  0  2  0  0  0  0  0  0
  -29.4540  -12.6850   18.1220 C   0  0  0  0  0  2  0  0  0  0  0  0
  -28.0180  -12.3790   18.5850 C   0  0  0  0  0  2  0  0  0  0  0  0
  -27.5460  -13.3600   19.6800 C   0  0  0  0  0  3  0  0  0  0  0  0
  -28.6090  -13.6080   20.7810 C   0  0  0  0  0  2  0  0  0  0  0  0
  -29.8280  -14.1220   20.1190 N   0  0  0  0  0  0  0  0  0  0  0  0
  -31.6520  -15.3850   20.0740 O   0  0  0  0  0  0  0  0  0  0  0  0
  -28.0350  -17.8380   18.5500 C   0  0  0  0  0  2  0  0  0  0  0  0
  -29.3650  -18.5320   18.3570 C   0  0  0  0  0  2  0  0  0  0  0  0
  -28.4540  -16.5410   19.2380 C   0  0  0  0  0  2  0  0  0  0  0  0
  -29.9170  -18.3960   19.7730 C   0  0  0  0  0  3  0  0  0  0  0  0
  -29.6720  -16.7420   20.0380 N   0  0  0  0  0  0  0  0  0  0  0  0
  -25.1840  -13.9500   20.4480 C   0  0  0  0  0  0  0  0  0  0  0  0
  -24.1200  -13.1830   20.8220 C   0  0  0  0  0  0  0  0  0  0  0  0
  -24.5860  -11.8320   20.8000 C   0  0  0  0  0  0  0  0  0  0  0  0
  -26.2250  -13.0670   20.2100 N   0  0  0  0  0  0  0  0  0  0  0  0
  -25.8760  -11.7870   20.4900 N   0  0  0  0  0  0  0  0  0  0  0  0
  -23.8570  -10.5760   20.9930 C   0  0  0  0  0  0  0  0  0  0  0  0
  -24.2810   -9.6170   21.9370 C   0  0  0  0  0  3  0  0  0  0  0  0
  -23.5510   -8.4240   22.1190 C   0  0  0  0  0  3  0  0  0  0  0  0
  -22.3830   -8.1850   21.3580 C   0  0  0  0  0  0  0  0  0  0  0  0
  -21.9780   -9.1340   20.4020 C   0  0  0  0  0  3  0  0  0  0  0  0
  -22.7090  -10.3180   20.2180 C   0  0  0  0  0  3  0  0  0  0  0  0
  -21.6240   -7.0450   21.4510 O   0  0  0  0  0  0  0  0  0  0  0  0
  -21.5610   -6.3170   22.6110 C   0  0  0  0  0  0  0  0  0  0  0  0
  -21.1110   -6.8840   23.8230 C   0  0  0  0  0  3  0  0  0  0  0  0
  -20.9960   -6.0810   24.9760 C   0  0  0  0  0  3  0  0  0  0  0  0
  -21.3220   -4.7130   24.9170 C   0  0  0  0  0  0  0  0  0  0  0  0
  -21.7660   -4.1450   23.7100 C   0  0  0  0  0  3  0  0  0  0  0  0
  -21.8830   -4.9460   22.5600 C   0  0  0  0  0  0  0  0  0  0  0  0
  -22.2910   -4.3900   21.3930 F   0  0  0  0  0  0  0  0  0  0  0  0
  -21.2030   -3.9400   26.0220 F   0  0  0  0  0  0  0  0  0  0  0  0
  -22.7250  -13.6690   21.0800 C   0  0  0  0  0  0  0  0  0  0  0  0
  -21.9880  -12.9840   21.9460 N   0  0  0  0  0  0  0  0  0  0  0  0
  -22.2970  -14.6950   20.5510 O   0  0  0  0  0  0  0  0  0  0  0  0
  -22.3470  -12.1560   22.3990 H   0  0  0  0  0  0  0  0  0  0  0  0
  -21.0520  -13.2930   22.1640 H   0  0  0  0  0  0  0  0  0  0  0  0
  -25.3270  -15.3200   20.2600 N   0  0  0  0  0  0  0  0  0  0  0  0
  -24.5480  -15.9590   20.3720 H   0  0  0  0  0  0  0  0  0  0  0  0
  -26.1610  -15.7720   19.9150 H   0  0  0  0  0  0  0  0  0  0  0  0
  -28.9490  -22.8160   20.5850 C   0  0  0  0  0  3  0  0  0  0  0  0
  -28.1640  -24.3180   19.9460 C   0  0  0  0  0  3  0  0  0  0  0  0
  -28.2370  -25.9320   20.3130 O   0  0  0  0  0  0  0  0  0  0  0  0
  -24.6210  -31.8740   23.2320 C   0  0  0  0  0  0  0  0  0  0  0  0
  -27.2060  -27.0090   20.2120 C   0  0  0  0  0  0  0  0  0  0  0  0
  -23.4310  -30.4730   21.5930 C   0  0  0  0  0  3  0  0  0  0  0  0
  -24.8870  -28.8720   20.1670 C   0  0  0  0  0  0  0  0  0  0  0  0
  -25.9950  -30.6950   21.4450 C   0  0  0  0  0  2  0  0  0  0  0  0
  -26.0720  -29.2850   20.7890 C   0  0  0  0  0  0  0  0  0  0  0  0
  -27.2210  -28.3740   20.7880 C   0  0  0  0  0  3  0  0  0  0  0  0
  -25.9910  -26.7480   19.5370 C   0  0  0  0  0  3  0  0  0  0  0  0
  -24.8720  -27.6250   19.5210 C   0  0  0  0  0  3  0  0  0  0  0  0
  -23.6620  -29.7870   20.2180 C   0  0  0  0  0  2  0  0  0  0  0  0
  -24.7040  -31.0420   22.1440 N   0  0  0  0  0  0  0  0  0  0  0  0
  -23.5310  -32.1620   23.7540 O   0  0  0  0  0  0  0  0  0  0  0  0
  -22.7390  -29.4780   22.5610 C   0  0  0  0  0  0  0  0  0  0  0  0
  -21.4100  -29.3100   22.4360 N   0  0  0  0  0  0  0  0  0  0  0  0
  -23.4060  -28.8580   23.3930 O   0  0  0  0  0  0  0  0  0  0  0  0
  -20.9240  -29.8610   21.7420 H   0  0  0  0  0  0  0  0  0  0  0  0
  -18.0330  -28.0780   22.9370 C   0  0  0  0  0  0  0  0  0  0  0  0
  -20.5900  -28.3690   23.2090 C   0  0  0  0  0  3  0  0  0  0  0  0
  -20.7060  -26.9350   22.6420 C   0  0  0  0  0  2  0  0  0  0  0  0
  -19.6110  -26.5980   21.6250 C   0  0  0  0  0  2  0  0  0  0  0  0
  -18.2250  -26.7300   22.2630 C   0  0  0  0  0  2  0  0  0  0  0  0
  -19.1430  -28.8540   23.3660 C   0  0  0  0  0  0  0  0  0  0  0  0
  -18.9060  -30.1130   23.9610 C   0  0  0  0  0  3  0  0  0  0  0  0
  -17.5960  -30.5980   24.1260 C   0  0  0  0  0  3  0  0  0  0  0  0
  -16.5010  -29.8200   23.7100 C   0  0  0  0  0  3  0  0  0  0  0  0
  -16.7200  -28.5620   23.1220 C   0  0  0  0  0  3  0  0  0  0  0  0
  -25.8910  -32.5210   23.8640 C   0  0  0  0  0  3  0  0  0  0  0  0
  -25.5720  -33.9230   24.1920 N   0  0  0  0  0  0  0  0  0  0  0  0
  -25.9020  -34.9820   23.4410 C   0  0  0  0  0  0  0  0  0  0  0  0
  -26.5700  -34.8820   22.4090 O   0  0  0  0  0  0  0  0  0  0  0  0
  -24.9750  -34.0730   24.9920 H   0  0  0  0  0  0  0  0  0  0  0  0
  -24.1720  -36.7820   23.1060 C   0  0  0  0  0  1  0  0  0  0  0  0
  -25.4200  -36.3720   23.9060 C   0  0  0  0  0  3  0  0  0  0  0  0
  -27.5570  -37.2610   24.7260 C   0  0  0  0  0  1  0  0  0  0  0  0
  -26.4510  -37.4260   23.7870 N   0  0  0  0  0  0  0  0  0  0  0  0
  -26.0450  -38.3460   23.9330 H   0  0  0  0  0  0  0  0  0  0  0  0
  -26.3920  -31.7650   25.1570 C   0  0  1  0  0  0  0  0  0  0  0  0
  -25.2880  -31.5430   26.2180 C   0  0  0  0  0  1  0  0  0  0  0  0
  -26.9760  -30.3800   24.7950 C   0  0  0  0  0  1  0  0  0  0  0  0
  -27.5390  -32.5640   25.8200 C   0  0  0  0  0  1  0  0  0  0  0  0
  1  3  2  0
  2  1  1  0
  2 46  1  0
  4  2  1  0
  6 11  1  0
  7  8  1  0
  7  6  1  0
  9  8  1  0
  9 21  1  0
  9 10  1  0
 11  5  1  0
 11 10  1  0
 12  5  2  0
 13 15  1  0
 14 13  1  0
 14 16  1  0
 15 17  1  0
 16 17  1  0
 16  1  1  0
 17  5  1  0
 18 19  2  0
 19 38  1  0
 20 19  1  0
 20 23  1  0
 21 18  1  0
 21 22  1  0
 22 20  2  0
 23 24  1  0
 24 25  2  0
 26 29  1  0
 26 25  1  0
 27 26  2  0
 28 27  1  0
 28 23  2  0
 29 30  1  0
 30 31  1  0
 31 32  2  0
 33 32  1  0
 33 37  1  0
 34 33  2  0
 35 30  2  0
 35 34  1  0
 36 35  1  0
 38 39  1  0
 39 42  1  0
 39 41  1  0
 40 38  2  0
 43 44  1  0
 43 18  1  0
 45 43  1  0
 47 48  1  0
 47 46  2  0
 49 60  2  0
 50 48  1  0
 50 55  1  0
 51 59  1  0
 51 61  1  0
 52 58  1  0
 52 54  1  0
 53 59  1  0
 54 53  1  0
 55 54  2  0
 56 50  2  0
 57 56  1  0
 57 52  2  0
 58 51  1  0
 59 49  1  0
 61 63  2  0
 62 61  1  0
 64 62  1  0
 65 74  2  0
 65 70  1  0
 66 62  1  0
 66 70  1  0
 67 66  1  0
 68 69  1  0
 68 67  1  0
 69 65  1  0
 70 71  2  0
 71 72  1  0
 73 72  2  0
 74 73  1  0
 75 49  1  0
 75 76  1  0
 75 85  1  0
 76 79  1  0
 77 81  1  0
 77 76  1  0
 78 77  2  0
 81 80  1  0
 83 81  1  0
 83 84  1  0
 83 82  1  0
 85 88  1  1
 85 86  1  0
 87 85  1  0
M  ISO  4   5 100  17 100  47 101  48 101
M  END
>  <TORSDO>  (84) 
F 18

>  <SCORE>  (84) 
-16.300

>  <name>  (84) 
83

>  <ligand_id>  (84) 
83

>  <original_smiles>  (84) 
[H]c1c([H])c([H])c2c(c1[H])C([H])([H])C([H])([H])C([H])([H])C2([H])N([H])C(=O)C1([H])N(C(=O)C([H])(N([H])C(=O)C([H])(N([H])C([H])([H])[H])C([H])([H])[H])C(C([H])([H])[H])(C([H])([H])[H])C([H])([H])[H])C([H])([H])c2c([H])c(OC([H])([H])C([H])([H])N([H])C(=O)C3([H])N(C(=O)N4C([H])([H])C([H])([H])C([H])([H])C([H])(n5nc(-c6c([H])c([H])c(Oc7c([H])c([H])c(F)c([H])c7F)c([H])c6[H])c(C(=O)N([H])[H])c5N([H])[H])C4([H])[H])C([H])([H])C([H])([H])C3([H])[H])c([H])c([H])c2C1([H])[H]

>  <smiles>  (84) 
[H]c1c([H])c([H])c2c(c1[H])C([H])([H])C([H])([H])C([H])([H])C2([H])N([H])C(=O)C1([H])N(C(=O)C([H])(N([H])C(=O)C([H])(N([H])C([H])([H])[H])C([H])([H])[H])C(C([H])([H])[H])(C([H])([H])[H])C([H])([H])[H])C([H])([H])c2c([H])c(OC([H])([H])C([H])([H])N([H])C(=O)C3([H])N(C(=O)N4C([H])([H])C([H])([H])C([H])([H])C([H])(n5nc(-c6c([H])c([H])c(Oc7c([H])c([H])c(F)c([H])c7F)c([H])c6[H])c(C(=O)N([H])[H])c5N([H])[H])C4([H])[H])C([H])([H])C([H])([H])C3([H])[H])c([H])c([H])c2C1([H])[H]

$$$$
84:0:0
     RDKit          3D

 87 94  0  0  1  0  0  0  0  0999 V2000
  -29.3160  -21.8620   20.2400 C   0  0  0  0  0  2  0  0  0  0  0  0
  -29.6540  -19.1110   20.5450 C   0  0  0  0  0  0  0  0  0  0  0  0
  -29.0180  -20.3000   20.0670 N   0  0  0  0  0  0  0  0  0  0  0  0
  -30.3690  -19.2000   21.5440 O   0  0  0  0  0  0  0  0  0  0  0  0
  -28.3870  -20.1120   19.2960 H   0  0  0  0  0  0  0  0  0  0  0  0
  -29.6220  -17.6140   19.8180 C   0  0  0  0  0  2  0  0  0  0  0  0
  -30.4920  -14.9930   20.1800 C   0  0  0  0  0  0  0  0  0  0  0  0
  -30.3790  -12.6440   19.2290 C   0  0  0  0  0  2  0  0  0  0  0  0
  -29.4270  -12.6400   18.0080 C   0  0  0  0  0  2  0  0  0  0  0  0
  -27.9650  -12.4380   18.4520 C   0  0  0  0  0  2  0  0  0  0  0  0
  -27.5890  -13.3240   19.6700 C   0  0  0  0  0  3  0  0  0  0  0  0
  -28.6630  -13.2900   20.7790 C   0  0  0  0  0  2  0  0  0  0  0  0
  -29.9270  -13.7160   20.1670 N   0  0  0  0  0  0  0  0  0  0  0  0
  -31.6580  -15.0910   19.7790 O   0  0  0  0  0  0  0  0  0  0  0  0
  -29.6940  -16.1470   20.4300 N   0  0  0  0  0  0  0  0  0  0  0  0
  -28.8300  -15.9000   20.8910 H   0  0  0  0  0  0  0  0  0  0  0  0
  -25.2170  -13.8930   20.4430 C   0  0  0  0  0  0  0  0  0  0  0  0
  -24.1610  -13.1140   20.8270 C   0  0  0  0  0  0  0  0  0  0  0  0
  -24.6270  -11.7650   20.7820 C   0  0  0  0  0  0  0  0  0  0  0  0
  -26.2580  -13.0190   20.1830 N   0  0  0  0  0  0  0  0  0  0  0  0
  -25.9140  -11.7330   20.4520 N   0  0  0  0  0  0  0  0  0  0  0  0
  -23.9050  -10.5010   20.9800 C   0  0  0  0  0  0  0  0  0  0  0  0
  -24.3440   -9.5350   21.9130 C   0  0  0  0  0  3  0  0  0  0  0  0
  -23.6210   -8.3380   22.0990 C   0  0  0  0  0  3  0  0  0  0  0  0
  -22.4430   -8.0960   21.3510 C   0  0  0  0  0  0  0  0  0  0  0  0
  -22.0230   -9.0500   20.4070 C   0  0  0  0  0  3  0  0  0  0  0  0
  -22.7470  -10.2390   20.2200 C   0  0  0  0  0  3  0  0  0  0  0  0
  -21.6910   -6.9510   21.4460 O   0  0  0  0  0  0  0  0  0  0  0  0
  -21.6400   -6.2160   22.6030 C   0  0  0  0  0  0  0  0  0  0  0  0
  -21.1990   -6.7760   23.8230 C   0  0  0  0  0  3  0  0  0  0  0  0
  -21.0960   -5.9680   24.9730 C   0  0  0  0  0  3  0  0  0  0  0  0
  -21.4240   -4.6000   24.9050 C   0  0  0  0  0  0  0  0  0  0  0  0
  -21.8570   -4.0400   23.6900 C   0  0  0  0  0  3  0  0  0  0  0  0
  -21.9620   -4.8460   22.5430 C   0  0  0  0  0  0  0  0  0  0  0  0
  -22.3600   -4.2950   21.3700 F   0  0  0  0  0  0  0  0  0  0  0  0
  -21.3190   -3.8210   26.0070 F   0  0  0  0  0  0  0  0  0  0  0  0
  -22.7660  -13.5890   21.1200 C   0  0  0  0  0  0  0  0  0  0  0  0
  -22.0500  -12.8860   21.9910 N   0  0  0  0  0  0  0  0  0  0  0  0
  -22.3220  -14.6180   20.6120 O   0  0  0  0  0  0  0  0  0  0  0  0
  -22.4240  -12.0580   22.4280 H   0  0  0  0  0  0  0  0  0  0  0  0
  -21.1150  -13.1860   22.2290 H   0  0  0  0  0  0  0  0  0  0  0  0
  -25.3720  -15.2650   20.2680 N   0  0  0  0  0  0  0  0  0  0  0  0
  -24.5960  -15.9080   20.3890 H   0  0  0  0  0  0  0  0  0  0  0  0
  -26.1950  -15.7090   19.8830 H   0  0  0  0  0  0  0  0  0  0  0  0
  -28.2400  -23.1730   20.4170 C   0  0  0  0  0  2  0  0  0  0  0  0
  -28.4100  -24.7420   19.7630 C   0  0  0  0  0  2  0  0  0  0  0  0
  -28.2740  -26.1910   20.3450 O   0  0  0  0  0  0  0  0  0  0  0  0
  -24.6200  -31.8820   23.2200 C   0  0  0  0  0  0  0  0  0  0  0  0
  -27.2020  -27.1500   20.2080 C   0  0  0  0  0  0  0  0  0  0  0  0
  -23.4210  -30.4800   21.5830 C   0  0  0  0  0  3  0  0  0  0  0  0
  -24.8710  -28.8970   20.1610 C   0  0  0  0  0  0  0  0  0  0  0  0
  -25.9730  -30.7430   21.4230 C   0  0  0  0  0  2  0  0  0  0  0  0
  -26.0460  -29.3480   20.7720 C   0  0  0  0  0  0  0  0  0  0  0  0
  -27.2070  -28.4890   20.7820 C   0  0  0  0  0  3  0  0  0  0  0  0
  -26.0030  -26.7990   19.5530 C   0  0  0  0  0  3  0  0  0  0  0  0
  -24.8620  -27.6380   19.5370 C   0  0  0  0  0  3  0  0  0  0  0  0
  -23.6420  -29.7970   20.2060 C   0  0  0  0  0  2  0  0  0  0  0  0
  -24.6910  -31.0590   22.1290 N   0  0  0  0  0  0  0  0  0  0  0  0
  -23.5330  -32.1680   23.7480 O   0  0  0  0  0  0  0  0  0  0  0  0
  -22.7420  -29.4780   22.5490 C   0  0  0  0  0  0  0  0  0  0  0  0
  -21.4130  -29.3130   22.4290 N   0  0  0  0  0  0  0  0  0  0  0  0
  -23.4150  -28.8520   23.3730 O   0  0  0  0  0  0  0  0  0  0  0  0
  -20.9280  -29.8670   21.7380 H   0  0  0  0  0  0  0  0  0  0  0  0
  -18.0290  -28.1290   22.9490 C   0  0  0  0  0  0  0  0  0  0  0  0
  -20.5920  -28.3790   23.2050 C   0  0  0  0  0  3  0  0  0  0  0  0
  -20.6840  -26.9470   22.6290 C   0  0  0  0  0  2  0  0  0  0  0  0
  -19.5760  -26.6300   21.6190 C   0  0  0  0  0  2  0  0  0  0  0  0
  -18.1970  -26.7800   22.2690 C   0  0  0  0  0  2  0  0  0  0  0  0
  -19.1530  -28.8870   23.3730 C   0  0  0  0  0  0  0  0  0  0  0  0
  -18.9400  -30.1480   23.9710 C   0  0  0  0  0  3  0  0  0  0  0  0
  -17.6380  -30.6530   24.1450 C   0  0  0  0  0  3  0  0  0  0  0  0
  -16.5290  -29.8920   23.7350 C   0  0  0  0  0  3  0  0  0  0  0  0
  -16.7260  -28.6310   23.1440 C   0  0  0  0  0  3  0  0  0  0  0  0
  -25.8980  -32.5200   23.8480 C   0  0  0  0  0  3  0  0  0  0  0  0
  -26.4070  -31.7550   25.1320 C   0  0  1  0  0  0  0  0  0  0  0  0
  -25.3080  -31.5260   26.1950 C   0  0  0  0  0  1  0  0  0  0  0  0
  -26.9920  -30.3750   24.7530 C   0  0  0  0  0  1  0  0  0  0  0  0
  -27.5560  -32.5520   25.7940 C   0  0  0  0  0  1  0  0  0  0  0  0
  -25.5830  -33.9180   24.1800 N   0  0  0  0  0  0  0  0  0  0  0  0
  -25.9100  -34.9770   23.4260 C   0  0  0  0  0  0  0  0  0  0  0  0
  -26.5720  -34.8780   22.3900 O   0  0  0  0  0  0  0  0  0  0  0  0
  -24.9930  -34.0680   24.9860 H   0  0  0  0  0  0  0  0  0  0  0  0
  -24.1760  -36.7710   23.0920 C   0  0  0  0  0  1  0  0  0  0  0  0
  -25.4240  -36.3640   23.8920 C   0  0  0  0  0  3  0  0  0  0  0  0
  -27.5630  -37.2520   24.7120 C   0  0  0  0  0  1  0  0  0  0  0  0
  -26.4540  -37.4190   23.7750 N   0  0  0  0  0  0  0  0  0  0  0  0
  -26.0480  -38.3380   23.9260 H   0  0  0  0  0  0  0  0  0  0  0  0
  1 45  1  0
  2  4  2  0
  3  1  1  0
  3  2  1  0
  5  3  1  0
  6 15  1  0
  6  2  1  0
  7 15  1  0
  8 13  1  0
  9 10  1  0
  9  8  1  0
 11 10  1  0
 11 20  1  0
 11 12  1  0
 13  7  1  0
 13 12  1  0
 14  7  2  0
 15 16  1  0
 17 18  2  0
 18 37  1  0
 19 18  1  0
 19 22  1  0
 20 17  1  0
 20 21  1  0
 21 19  2  0
 22 23  1  0
 23 24  2  0
 25 28  1  0
 25 24  1  0
 26 25  2  0
 27 26  1  0
 27 22  2  0
 28 29  1  0
 29 30  1  0
 30 31  2  0
 32 31  1  0
 32 36  1  0
 33 32  2  0
 34 29  2  0
 34 33  1  0
 35 34  1  0
 37 38  1  0
 38 41  1  0
 38 40  1  0
 39 37  2  0
 42 43  1  0
 42 17  1  0
 44 42  1  0
 46 47  1  0
 46 45  1  0
 48 59  2  0
 49 47  1  0
 49 54  1  0
 50 58  1  0
 50 60  1  0
 51 57  1  0
 51 53  1  0
 52 58  1  0
 53 54  2  0
 53 52  1  0
 55 49  2  0
 56 55  1  0
 56 51  2  0
 57 50  1  0
 58 48  1  0
 60 62  2  0
 61 60  1  0
 63 61  1  0
 64 73  2  0
 64 69  1  0
 65 61  1  0
 65 69  1  0
 66 65  1  0
 67 68  1  0
 67 66  1  0
 68 64  1  0
 69 70  2  0
 70 71  1  0
 72 71  2  0
 73 72  1  0
 74 48  1  0
 74 79  1  0
 74 75  1  0
 75 78  1  1
 75 76  1  0
 77 75  1  0
 79 82  1  0
 80 84  1  0
 80 79  1  0
 81 80  2  0
 84 83  1  0
 86 84  1  0
 86 87  1  0
 86 85  1  0
M  ISO  4   7 100  15 100  46 101  47 101
M  END
>  <TORSDO>  (85) 
F 20

>  <SCORE>  (85) 
-14.809

>  <name>  (85) 
84

>  <ligand_id>  (85) 
84

>  <original_smiles>  (85) 
[H]c1c([H])c([H])c2c(c1[H])C([H])([H])C([H])([H])C([H])([H])C2([H])N([H])C(=O)C1([H])N(C(=O)C([H])(N([H])C(=O)C([H])(N([H])C([H])([H])[H])C([H])([H])[H])C(C([H])([H])[H])(C([H])([H])[H])C([H])([H])[H])C([H])([H])c2c([H])c(OC([H])([H])C([H])([H])C([H])([H])N([H])C(=O)C([H])([H])N([H])C(=O)N3C([H])([H])C([H])([H])C([H])([H])C([H])(n4nc(-c5c([H])c([H])c(Oc6c([H])c([H])c(F)c([H])c6F)c([H])c5[H])c(C(=O)N([H])[H])c4N([H])[H])C3([H])[H])c([H])c([H])c2C1([H])[H]

>  <smiles>  (85) 
[H]c1c([H])c([H])c2c(c1[H])C([H])([H])C([H])([H])C([H])([H])C2([H])N([H])C(=O)C1([H])N(C(=O)C([H])(N([H])C(=O)C([H])(N([H])C([H])([H])[H])C([H])([H])[H])C(C([H])([H])[H])(C([H])([H])[H])C([H])([H])[H])C([H])([H])c2c([H])c(OC([H])([H])C([H])([H])C([H])([H])N([H])C(=O)C([H])([H])N([H])C(=O)N3C([H])([H])C([H])([H])C([H])([H])C([H])(n4nc(-c5c([H])c([H])c(Oc6c([H])c([H])c(F)c([H])c6F)c([H])c5[H])c(C(=O)N([H])[H])c4N([H])[H])C3([H])[H])c([H])c([H])c2C1([H])[H]

$$$$
85:0:0
     RDKit          3D

103112  0  0  1  0  0  0  0  0999 V2000
  -25.3860  -16.8960   20.2820 C   0  0  0  0  0  0  0  0  0  0  0  0
  -26.1300  -17.7380   19.4200 N   0  0  0  0  0  0  0  0  0  0  0  0
  -24.1570  -16.9630   20.2120 O   0  0  0  0  0  0  0  0  0  0  0  0
  -27.1390  -17.6680   19.4510 H   0  0  0  0  0  0  0  0  0  0  0  0
  -25.8950  -15.7650   21.4150 C   0  0  0  0  0  3  0  0  0  0  0  0
  -26.9810  -14.5600   23.1950 C   0  0  0  0  0  2  0  0  0  0  0  0
  -25.6700  -13.7200   22.9660 C   0  0  0  0  0  3  0  0  0  0  0  0
  -25.1710  -14.6720   21.8620 N   0  0  0  0  0  0  0  0  0  0  0  0
  -27.0070  -15.6790   22.1700 N   0  0  0  0  0  0  0  0  0  0  0  0
  -24.2170  -14.5920   21.5490 H   0  0  0  0  0  0  0  0  0  0  0  0
  -27.7310  -16.3830   22.1610 H   0  0  0  0  0  0  0  0  0  0  0  0
  -26.0110   -8.5890   21.4580 C   0  0  0  0  0  2  0  0  0  0  0  0
  -24.5980  -10.7770   22.2630 C   0  0  0  0  0  1  0  0  0  0  0  0
  -27.7600   -8.9520   21.6380 C   0  0  0  0  0  2  0  0  0  0  0  0
  -27.5020  -11.7460   22.7310 C   0  0  0  0  0  3  0  0  0  0  0  0
  -25.8170  -12.0700   22.7480 C   0  0  0  0  0  0  0  0  0  0  0  0
  -28.4660  -10.4440   22.2200 C   0  0  0  0  0  3  0  0  0  0  0  0
  -31.4340  -11.7070   21.4400 C   0  0  1  0  0  0  0  0  0  0  0  0
  -32.3360  -10.2450   21.6470 C   0  0  0  0  0  2  0  0  0  0  0  0
  -32.0390   -9.9070   19.9530 C   0  0  0  0  0  2  0  0  0  0  0  0
  -30.6320  -10.4690   19.2850 C   0  0  0  0  0  2  0  0  0  0  0  0
  -30.0080  -12.0320   19.6450 C   0  0  0  0  0  3  0  0  0  0  0  0
  -30.5050  -12.7570   21.2700 C   0  0  0  0  0  2  0  0  0  0  0  0
  -31.5920  -11.6880   22.3500 N   0  0  0  0  0  2  0  0  0  0  0  0
  -32.6810  -12.4100   21.3280 O   0  0  0  0  0  1  0  0  0  0  0  0
  -30.1420  -10.7650   22.1750 N   0  0  0  0  0  0  0  0  0  0  0  0
  -30.5350  -10.4670   23.0530 H   0  0  0  0  0  0  0  0  0  0  0  0
  -27.6670  -13.0110   19.4080 C   0  0  0  0  0  0  0  0  0  0  0  0
  -26.4510  -12.4130   19.4890 C   0  0  0  0  0  0  0  0  0  0  0  0
  -26.8760  -11.1280   19.7530 C   0  0  0  0  0  3  0  0  0  0  0  0
  -28.6000  -12.0240   19.5450 N   0  0  0  0  0  0  0  0  0  0  0  0
  -28.0490  -10.8620   19.4510 N   0  0  0  0  0  2  0  0  0  0  0  0
  -26.3160  -10.1290   20.3790 C   0  0  0  0  0  3  0  0  0  0  0  0
  -26.3100   -8.9490   22.6050 C   0  0  0  0  0  3  0  0  0  0  0  0
  -24.8560   -7.9370   22.6830 C   0  0  0  0  0  2  0  0  0  0  0  0
  -23.7460   -7.8550   21.3890 C   0  0  0  0  0  0  0  0  0  0  0  0
  -23.8060   -8.6720   19.9720 C   0  0  0  0  0  3  0  0  0  0  0  0
  -24.9450   -9.7170   19.4440 C   0  0  0  0  0  2  0  0  0  0  0  0
  -22.7210   -6.9320   21.2900 O   0  0  0  0  0  0  0  0  0  0  0  0
  -22.0220   -6.5630   22.3920 C   0  0  0  0  0  0  0  0  0  0  0  0
  -21.3250   -7.5340   23.1340 C   0  0  0  0  0  3  0  0  0  0  0  0
  -20.6450   -7.1620   24.3030 C   0  0  0  0  0  3  0  0  0  0  0  0
  -20.6490   -5.8180   24.7210 C   0  0  0  0  0  0  0  0  0  0  0  0
  -21.3050   -4.8370   23.9540 C   0  0  0  0  0  3  0  0  0  0  0  0
  -21.9850   -5.2060   22.7800 C   0  0  0  0  0  0  0  0  0  0  0  0
  -22.6050   -4.2550   22.0350 F   0  0  0  0  0  0  0  0  0  0  0  0
  -20.0180   -5.4700   25.8650 F   0  0  0  0  0  0  0  0  0  0  0  0
  -25.0610  -12.9460   19.2930 C   0  0  0  0  0  0  0  0  0  0  0  0
  -24.0400  -12.4250   19.9710 N   0  0  0  0  0  0  0  0  0  0  0  0
  -24.9060  -13.9300   18.5930 O   0  0  0  0  0  0  0  0  0  0  0  0
  -24.1590  -11.5800   20.5130 H   0  0  0  0  0  0  0  0  0  0  0  0
  -23.1120  -12.8090   19.8410 H   0  0  0  0  0  0  0  0  0  0  0  0
  -28.1090  -14.2820   19.1980 N   0  0  0  0  0  0  0  0  0  0  0  0
  -27.4790  -15.0510   19.0030 H   0  0  0  0  0  0  0  0  0  0  0  0
  -29.0700  -14.4950   18.9620 H   0  0  0  0  0  0  0  0  0  0  0  0
  -25.5500  -18.8260   18.4220 C   0  0  0  0  0  2  0  0  0  0  0  0
  -26.3660  -20.0070   17.6040 C   0  0  0  0  0  0  0  0  0  0  0  0
  -26.0230  -21.3870   17.5820 N   0  0  0  0  0  0  0  0  0  0  0  0
  -27.3450  -19.6370   16.9560 O   0  0  0  0  0  0  0  0  0  0  0  0
  -25.2150  -21.6090   18.1480 H   0  0  0  0  0  0  0  0  0  0  0  0
  -26.6280  -22.6420   16.8230 C   0  0  0  0  0  3  0  0  0  0  0  0
  -26.3150  -24.2380   17.2510 C   0  0  0  0  0  3  0  0  0  0  0  0
  -27.0280  -25.5890   16.8790 O   0  0  0  0  0  0  0  0  0  0  0  0
  -25.1440  -28.7190   23.1070 C   0  0  0  0  0  0  0  0  0  0  0  0
  -26.5050  -26.7560   17.5130 C   0  0  0  0  0  0  0  0  0  0  0  0
  -23.7300  -29.0950   21.1270 C   0  0  0  0  0  3  0  0  0  0  0  0
  -24.8210  -28.6480   18.8550 C   0  0  0  0  0  0  0  0  0  0  0  0
  -26.2730  -28.8200   20.8630 C   0  0  0  0  0  2  0  0  0  0  0  0
  -26.0200  -28.2530   19.4630 C   0  0  0  0  0  0  0  0  0  0  0  0
  -26.8820  -27.3150   18.7910 C   0  0  0  0  0  3  0  0  0  0  0  0
  -25.3930  -27.3450   16.8840 C   0  0  0  0  0  3  0  0  0  0  0  0
  -24.5320  -28.2270   17.5520 C   0  0  0  0  0  3  0  0  0  0  0  0
  -23.8580  -29.5180   19.6400 C   0  0  0  0  0  2  0  0  0  0  0  0
  -25.0700  -28.8540   21.7510 N   0  0  0  0  0  0  0  0  0  0  0  0
  -24.1340  -28.8040   23.8220 O   0  0  0  0  0  0  0  0  0  0  0  0
  -22.7750  -27.8790   21.2430 C   0  0  0  0  0  0  0  0  0  0  0  0
  -21.4590  -28.1220   21.1140 N   0  0  0  0  0  0  0  0  0  0  0  0
  -23.2230  -26.7450   21.4270 O   0  0  0  0  0  0  0  0  0  0  0  0
  -21.1650  -29.0790   20.9760 H   0  0  0  0  0  0  0  0  0  0  0  0
  -17.8700  -27.6570   20.9630 C   0  0  0  0  0  0  0  0  0  0  0  0
  -20.3930  -27.1170   21.1590 C   0  0  0  0  0  3  0  0  0  0  0  0
  -20.2400  -26.4050   19.7960 C   0  0  0  0  0  2  0  0  0  0  0  0
  -19.1920  -27.0560   18.8900 C   0  0  0  0  0  2  0  0  0  0  0  0
  -17.8190  -27.0560   19.5690 C   0  0  0  0  0  2  0  0  0  0  0  0
  -19.0820  -27.6990   21.7050 C   0  0  0  0  0  0  0  0  0  0  0  0
  -19.0810  -28.2960   22.9840 C   0  0  0  0  0  3  0  0  0  0  0  0
  -17.9020  -28.8420   23.5230 C   0  0  0  0  0  3  0  0  0  0  0  0
  -16.7020  -28.7850   22.7930 C   0  0  0  0  0  3  0  0  0  0  0  0
  -16.6870  -28.1910   21.5180 C   0  0  0  0  0  3  0  0  0  0  0  0
  -26.5040  -28.4700   23.8270 C   0  0  0  0  0  3  0  0  0  0  0  0
  -26.4800  -29.2140   25.0960 N   0  0  0  0  0  0  0  0  0  0  0  0
  -27.0430  -30.4140   25.2890 C   0  0  0  0  0  0  0  0  0  0  0  0
  -27.7030  -30.9890   24.4190 O   0  0  0  0  0  0  0  0  0  0  0  0
  -25.9110  -28.8290   25.8350 H   0  0  0  0  0  0  0  0  0  0  0  0
  -25.7360  -32.1490   26.5590 C   0  0  0  0  0  1  0  0  0  0  0  0
  -26.8410  -31.0850   26.6630 C   0  0  0  0  0  3  0  0  0  0  0  0
  -29.0770  -30.7160   27.6080 C   0  0  0  0  0  1  0  0  0  0  0  0
  -28.0730  -31.6970   27.2040 N   0  0  0  0  0  0  0  0  0  0  0  0
  -27.8630  -32.2830   28.0080 H   0  0  0  0  0  0  0  0  0  0  0  0
  -26.7960  -26.9420   24.0910 C   0  0  1  0  0  0  0  0  0  0  0  0
  -25.6370  -26.2000   24.7970 C   0  0  0  0  0  1  0  0  0  0  0  0
  -27.0880  -26.1980   22.7670 C   0  0  0  0  0  1  0  0  0  0  0  0
  -28.0650  -26.7950   24.9610 C   0  0  0  0  0  1  0  0  0  0  0  0
  2  4  1  0
  2  1  1  0
  3  1  2  0
  5  1  1  0
  5  8  1  0
  5  9  1  0
  7 16  1  0
  7  6  1  0
  8  7  1  0
  9  6  1  0
 10  8  1  0
 11  9  1  0
 13 16  1  0
 14 17  1  0
 14 34  1  0
 15 16  2  0
 17 15  1  0
 18 25  1  6
 18 19  1  0
 18 24  1  0
 20 19  1  0
 21 20  1  0
 22 21  1  0
 22 23  1  0
 23 18  1  0
 26 17  1  0
 26 24  1  0
 26 27  1  0
 28 29  2  0
 28 31  1  0
 29 30  1  0
 30 32  1  0
 30 33  1  0
 31 22  1  0
 32 31  1  0
 33 38  1  0
 33 12  1  0
 34 12  1  0
 34 35  1  0
 36 35  1  0
 37 36  2  0
 38 37  1  0
 39 36  1  0
 39 40  1  0
 40 45  2  0
 40 41  1  0
 41 42  2  0
 42 43  1  0
 43 47  1  0
 44 43  2  0
 45 44  1  0
 46 45  1  0
 48 29  1  0
 48 49  1  0
 49 51  1  0
 50 48  2  0
 52 49  1  0
 53 28  1  0
 54 53  1  0
 55 53  1  0
 56  2  1  0
 57 56  1  0
 58 57  1  0
 58 60  1  0
 59 57  2  0
 61 62  2  0
 61 58  1  0
 63 62  1  0
 63 65  1  0
 64 75  2  0
 65 70  1  0
 66 76  1  0
 66 74  1  0
 67 69  1  0
 67 73  1  0
 68 74  1  0
 69 68  1  0
 70 69  2  0
 71 65  2  0
 71 72  1  0
 72 67  2  0
 73 66  1  0
 74 64  1  0
 76 78  2  0
 77 76  1  0
 79 77  1  0
 80 89  2  0
 80 85  1  0
 81 77  1  0
 81 85  1  0
 82 81  1  0
 83 84  1  0
 83 82  1  0
 84 80  1  0
 85 86  2  0
 86 87  1  0
 88 87  2  0
 89 88  1  0
 90 64  1  0
 90100  1  0
 90 91  1  0
 91 92  1  0
 91 94  1  0
 92 96  1  0
 93 92  2  0
 96 95  1  0
 96 98  1  0
 98 97  1  0
 98 99  1  0
100101  1  1
100103  1  0
102100  1  0
M  ISO  4  18 100  26 100  62 101  63 101
M  END
>  <TORSDO>  (86) 
F 22

>  <SCORE>  (86) 
11.314

>  <name>  (86) 
85

>  <ligand_id>  (86) 
85

>  <original_smiles>  (86) 
[H]c1c([H])c([H])c2c(c1[H])C([H])([H])C([H])([H])C([H])([H])C2([H])N([H])C(=O)C1([H])N(C(=O)C([H])(N([H])C(=O)C([H])(N([H])C([H])([H])[H])C([H])([H])[H])C(C([H])([H])[H])(C([H])([H])[H])C([H])([H])[H])C([H])([H])c2c([H])c(OC([H])([H])C([H])([H])N([H])C(=O)C([H])([H])N([H])C(=O)C3=[N+]([H])C([H])([H])C([H])(c4c([H])c([H])c([H])c(N([H])C(=O)N5C([H])([H])C([H])([H])C([H])([H])C([H])(n6nc(-c7c([H])c([H])c(Oc8c([H])c([H])c(F)c([H])c8F)c([H])c7[H])c(C(=O)N([H])[H])c6N([H])[H])C5([H])[H])c4[H])N3[H])c([H])c([H])c2C1([H])[H]

>  <smiles>  (86) 
[H]c1c([H])c([H])c2c(c1[H])C([H])([H])C([H])([H])C([H])([H])C2([H])N([H])C(=O)C1([H])N(C(=O)C([H])(N([H])C(=O)C([H])(N([H])C([H])([H])[H])C([H])([H])[H])C(C([H])([H])[H])(C([H])([H])[H])C([H])([H])[H])C([H])([H])c2c([H])c(OC([H])([H])C([H])([H])N([H])C(=O)C([H])([H])N([H])C(=O)C3=[N+]([H])C([H])([H])C([H])(c4c([H])c([H])c([H])c(N([H])C(=O)N5C([H])([H])C([H])([H])C([H])([H])C([H])(n6nc(-c7c([H])c([H])c(Oc8c([H])c([H])c(F)c([H])c8F)c([H])c7[H])c(C(=O)N([H])[H])c6N([H])[H])C5([H])[H])c4[H])N3[H])c([H])c([H])c2C1([H])[H]

$$$$
86:0:0
     RDKit          3D

 92 99  0  0  1  0  0  0  0  0999 V2000
  -29.0990  -22.6420   20.4770 C   0  0  0  0  0  0  0  0  0  0  0  0
  -29.7370  -23.6050   21.1640 N   0  0  0  0  0  0  0  0  0  0  0  0
  -28.7560  -22.7930   19.2990 O   0  0  0  0  0  0  0  0  0  0  0  0
  -29.9810  -23.4040   22.1260 H   0  0  0  0  0  0  0  0  0  0  0  0
  -28.7630  -21.3340   21.2260 C   0  0  0  0  0  2  0  0  0  0  0  0
  -29.1280  -20.1900   20.4420 O   0  0  0  0  0  0  0  0  0  0  0  0
  -28.7330  -18.9640   21.0600 C   0  0  0  0  0  2  0  0  0  0  0  0
  -29.0740  -17.7250   20.2120 C   0  0  0  0  0  2  0  0  0  0  0  0
  -30.3950  -17.2410   20.4720 O   0  0  0  0  0  0  0  0  0  0  0  0
  -30.3930  -15.8970   20.9570 C   0  0  0  0  0  2  0  0  0  0  0  0
  -31.8340  -15.3820   21.1650 C   0  0  0  0  0  2  0  0  0  0  0  0
  -32.6860  -13.3560   19.8520 C   0  0  0  0  0  0  0  0  0  0  0  0
  -32.1000  -10.9560   19.8840 C   0  0  0  0  0  2  0  0  0  0  0  0
  -31.1850  -10.5870   18.6940 C   0  0  0  0  0  2  0  0  0  0  0  0
  -29.7030  -10.8180   19.0500 C   0  0  0  0  0  2  0  0  0  0  0  0
  -29.4600  -12.2140   19.6710 C   0  0  0  0  0  3  0  0  0  0  0  0
  -30.4820  -12.4880   20.7970 C   0  0  0  0  0  2  0  0  0  0  0  0
  -31.8430  -12.3590   20.2500 N   0  0  0  0  0  0  0  0  0  0  0  0
  -33.7190  -13.1240   19.2180 O   0  0  0  0  0  0  0  0  0  0  0  0
  -32.3160  -14.6400   19.9920 N   0  0  0  0  0  0  0  0  0  0  0  0
  -32.8900  -15.2340   19.4100 H   0  0  0  0  0  0  0  0  0  0  0  0
  -27.3920  -13.5330   20.4570 C   0  0  0  0  0  0  0  0  0  0  0  0
  -26.1280  -13.1320   20.8030 C   0  0  0  0  0  0  0  0  0  0  0  0
  -26.1240  -11.7090   20.6910 C   0  0  0  0  0  0  0  0  0  0  0  0
  -28.0910  -12.3730   20.1560 N   0  0  0  0  0  0  0  0  0  0  0  0
  -27.3300  -11.2660   20.3540 N   0  0  0  0  0  0  0  0  0  0  0  0
  -25.0260  -10.7460   20.8330 C   0  0  0  0  0  0  0  0  0  0  0  0
  -25.1610   -9.5900   21.6320 C   0  0  0  0  0  3  0  0  0  0  0  0
  -24.0880   -8.6810   21.7650 C   0  0  0  0  0  3  0  0  0  0  0  0
  -22.8640   -8.9320   21.1010 C   0  0  0  0  0  0  0  0  0  0  0  0
  -22.7400  -10.0750   20.2920 C   0  0  0  0  0  3  0  0  0  0  0  0
  -23.8130  -10.9700   20.1520 C   0  0  0  0  0  3  0  0  0  0  0  0
  -21.7770   -8.0940   21.1480 O   0  0  0  0  0  0  0  0  0  0  0  0
  -21.5390   -7.2860   22.2320 C   0  0  0  0  0  0  0  0  0  0  0  0
  -21.4110   -7.8050   23.5380 C   0  0  0  0  0  3  0  0  0  0  0  0
  -21.1040   -6.9450   24.6100 C   0  0  0  0  0  3  0  0  0  0  0  0
  -20.9050   -5.5700   24.3750 C   0  0  0  0  0  0  0  0  0  0  0  0
  -21.0170   -5.0520   23.0720 C   0  0  0  0  0  3  0  0  0  0  0  0
  -21.3300   -5.9110   22.0040 C   0  0  0  0  0  0  0  0  0  0  0  0
  -21.4230   -5.4110   20.7460 F   0  0  0  0  0  0  0  0  0  0  0  0
  -20.6010   -4.7400   25.3990 F   0  0  0  0  0  0  0  0  0  0  0  0
  -24.9680  -14.0270   21.1330 C   0  0  0  0  0  0  0  0  0  0  0  0
  -24.0840  -13.5880   22.0210 N   0  0  0  0  0  0  0  0  0  0  0  0
  -24.8630  -15.1500   20.6420 O   0  0  0  0  0  0  0  0  0  0  0  0
  -24.1760  -12.6740   22.4410 H   0  0  0  0  0  0  0  0  0  0  0  0
  -23.3070  -14.1730   22.2830 H   0  0  0  0  0  0  0  0  0  0  0  0
  -27.9830  -14.7820   20.3630 N   0  0  0  0  0  0  0  0  0  0  0  0
  -27.4480  -15.6300   20.5200 H   0  0  0  0  0  0  0  0  0  0  0  0
  -28.9290  -14.9540   20.0450 H   0  0  0  0  0  0  0  0  0  0  0  0
  -29.9690  -24.9760   20.6970 C   0  0  0  0  0  2  0  0  0  0  0  0
  -28.7750  -25.8760   21.0760 C   0  0  0  0  0  2  0  0  0  0  0  0
  -28.7140  -26.9950   20.2080 O   0  0  0  0  0  0  0  0  0  0  0  0
  -24.6090  -31.9790   23.2320 C   0  0  0  0  0  0  0  0  0  0  0  0
  -27.5130  -27.6500   20.2540 C   0  0  0  0  0  0  0  0  0  0  0  0
  -23.4960  -30.5130   21.5730 C   0  0  0  0  0  3  0  0  0  0  0  0
  -25.0490  -29.0120   20.2180 C   0  0  0  0  0  0  0  0  0  0  0  0
  -26.0050  -30.9790   21.4310 C   0  0  0  0  0  2  0  0  0  0  0  0
  -26.1650  -29.6010   20.8240 C   0  0  0  0  0  0  0  0  0  0  0  0
  -27.4030  -28.9230   20.8500 C   0  0  0  0  0  3  0  0  0  0  0  0
  -26.3820  -27.0520   19.6640 C   0  0  0  0  0  3  0  0  0  0  0  0
  -25.1460  -27.7290   19.6480 C   0  0  0  0  0  3  0  0  0  0  0  0
  -23.7700  -29.8160   20.2120 C   0  0  0  0  0  2  0  0  0  0  0  0
  -24.7190  -31.1720   22.1390 N   0  0  0  0  0  0  0  0  0  0  0  0
  -23.5080  -32.2200   23.7430 O   0  0  0  0  0  0  0  0  0  0  0  0
  -22.8610  -29.4830   22.5310 C   0  0  0  0  0  0  0  0  0  0  0  0
  -21.5450  -29.2620   22.3780 N   0  0  0  0  0  0  0  0  0  0  0  0
  -23.5470  -28.8800   23.3610 O   0  0  0  0  0  0  0  0  0  0  0  0
  -21.0560  -29.7970   21.6760 H   0  0  0  0  0  0  0  0  0  0  0  0
  -18.1870  -28.0290   22.8580 C   0  0  0  0  0  0  0  0  0  0  0  0
  -20.7400  -28.3090   23.1400 C   0  0  0  0  0  3  0  0  0  0  0  0
  -20.8620  -26.8850   22.5480 C   0  0  0  0  0  2  0  0  0  0  0  0
  -19.7650  -26.5610   21.5290 C   0  0  0  0  0  2  0  0  0  0  0  0
  -18.3800  -26.6870   22.1690 C   0  0  0  0  0  2  0  0  0  0  0  0
  -19.2970  -28.7970   23.2980 C   0  0  0  0  0  0  0  0  0  0  0  0
  -19.0670  -30.0560   23.8970 C   0  0  0  0  0  3  0  0  0  0  0  0
  -17.7560  -30.5430   24.0640 C   0  0  0  0  0  3  0  0  0  0  0  0
  -16.6610  -29.7700   23.6430 C   0  0  0  0  0  3  0  0  0  0  0  0
  -16.8770  -28.5150   23.0440 C   0  0  0  0  0  3  0  0  0  0  0  0
  -25.8590  -32.6630   23.8740 C   0  0  0  0  0  3  0  0  0  0  0  0
  -26.4090  -31.8910   25.1360 C   0  0  1  0  0  0  0  0  0  0  0  0
  -25.3100  -31.4880   26.1450 C   0  0  0  0  0  1  0  0  0  0  0  0
  -27.1540  -30.6040   24.7080 C   0  0  0  0  0  1  0  0  0  0  0  0
  -27.4320  -32.7730   25.8920 C   0  0  0  0  0  1  0  0  0  0  0  0
  -25.4800  -34.0350   24.2300 N   0  0  0  0  0  0  0  0  0  0  0  0
  -25.7280  -35.1130   23.4710 C   0  0  0  0  0  0  0  0  0  0  0  0
  -26.3740  -35.0570   22.4210 O   0  0  0  0  0  0  0  0  0  0  0  0
  -24.9030  -34.1460   25.0510 H   0  0  0  0  0  0  0  0  0  0  0  0
  -23.8670  -36.7830   23.2000 C   0  0  0  0  0  1  0  0  0  0  0  0
  -25.1670  -36.4630   23.9550 C   0  0  0  0  0  3  0  0  0  0  0  0
  -27.2790  -37.4820   24.6850 C   0  0  0  0  0  1  0  0  0  0  0  0
  -26.1200  -37.5840   23.8020 N   0  0  0  0  0  0  0  0  0  0  0  0
  -25.6600  -38.4720   23.9850 H   0  0  0  0  0  0  0  0  0  0  0  0
  1  2  1  0
  1  5  1  0
  2  4  1  0
  3  1  2  0
  6  7  1  0
  6  5  1  0
  8  9  1  0
  8  7  1  0
  9 10  1  0
 10 11  1  0
 12 20  1  0
 12 18  1  0
 13 18  1  0
 14 15  1  0
 14 13  1  0
 16 15  1  0
 16 25  1  0
 16 17  1  0
 18 17  1  0
 19 12  2  0
 20 11  1  0
 21 20  1  0
 22 23  2  0
 23 42  1  0
 24 23  1  0
 24 27  1  0
 25 26  1  0
 25 22  1  0
 26 24  2  0
 27 28  1  0
 28 29  2  0
 30 33  1  0
 30 29  1  0
 31 30  2  0
 32 31  1  0
 32 27  2  0
 33 34  1  0
 34 35  1  0
 35 36  2  0
 37 36  1  0
 37 41  1  0
 38 37  2  0
 39 34  2  0
 39 38  1  0
 40 39  1  0
 42 43  1  0
 43 46  1  0
 43 45  1  0
 44 42  2  0
 47 22  1  0
 47 48  1  0
 49 47  1  0
 50 51  1  0
 50  2  1  0
 52 54  1  0
 52 51  1  0
 53 64  2  0
 54 59  1  0
 55 63  1  0
 55 65  1  0
 56 58  1  0
 57 63  1  0
 58 59  2  0
 58 57  1  0
 60 54  2  0
 61 60  1  0
 61 56  2  0
 62 56  1  0
 62 55  1  0
 63 53  1  0
 65 67  2  0
 66 65  1  0
 68 66  1  0
 69 78  2  0
 69 74  1  0
 70 66  1  0
 70 74  1  0
 71 70  1  0
 72 73  1  0
 72 71  1  0
 73 69  1  0
 74 75  2  0
 75 76  1  0
 77 76  2  0
 78 77  1  0
 79 53  1  0
 79 84  1  0
 79 80  1  0
 80 83  1  1
 80 81  1  0
 82 80  1  0
 84 87  1  0
 85 89  1  0
 85 84  1  0
 86 85  2  0
 89 88  1  0
 91 89  1  0
 91 92  1  0
 91 90  1  0
M  ISO  4  12 100  20 100  51 101  52 101
M  END
>  <TORSDO>  (87) 
F 25

>  <SCORE>  (87) 
-10.405

>  <name>  (87) 
86

>  <ligand_id>  (87) 
86

>  <original_smiles>  (87) 
[H]c1c([H])c([H])c2c(c1[H])C([H])([H])C([H])([H])C([H])([H])C2([H])N([H])C(=O)C1([H])N(C(=O)C([H])(N([H])C(=O)C([H])(N([H])C([H])([H])[H])C([H])([H])[H])C(C([H])([H])[H])(C([H])([H])[H])C([H])([H])[H])C([H])([H])c2c([H])c(OC([H])([H])C([H])([H])N([H])C(=O)C([H])([H])OC([H])([H])C([H])([H])OC([H])([H])C([H])([H])N([H])C(=O)N3C([H])([H])C([H])([H])C([H])([H])C([H])(n4nc(-c5c([H])c([H])c(Oc6c([H])c([H])c(F)c([H])c6F)c([H])c5[H])c(C(=O)N([H])[H])c4N([H])[H])C3([H])[H])c([H])c([H])c2C1([H])[H]

>  <smiles>  (87) 
[H]c1c([H])c([H])c2c(c1[H])C([H])([H])C([H])([H])C([H])([H])C2([H])N([H])C(=O)C1([H])N(C(=O)C([H])(N([H])C(=O)C([H])(N([H])C([H])([H])[H])C([H])([H])[H])C(C([H])([H])[H])(C([H])([H])[H])C([H])([H])[H])C([H])([H])c2c([H])c(OC([H])([H])C([H])([H])N([H])C(=O)C([H])([H])OC([H])([H])C([H])([H])OC([H])([H])C([H])([H])N([H])C(=O)N3C([H])([H])C([H])([H])C([H])([H])C([H])(n4nc(-c5c([H])c([H])c(Oc6c([H])c([H])c(F)c([H])c6F)c([H])c5[H])c(C(=O)N([H])[H])c4N([H])[H])C3([H])[H])c([H])c([H])c2C1([H])[H]

$$$$
87:0:0
     RDKit          3D

 95102  0  0  1  0  0  0  0  0999 V2000
  -25.9770  -22.9130   20.1600 C   0  0  0  0  0  2  0  0  0  0  0  0
  -26.6410  -23.6180   21.3470 C   0  0  0  0  0  0  0  0  0  0  0  0
  -27.5550  -24.5500   21.0690 N   0  0  0  0  0  0  0  0  0  0  0  0
  -26.3150  -23.3310   22.5000 O   0  0  0  0  0  0  0  0  0  0  0  0
  -27.7820  -24.7160   20.0970 H   0  0  0  0  0  0  0  0  0  0  0  0
  -28.1650  -25.4520   22.0410 C   0  0  0  0  0  2  0  0  0  0  0  0
  -29.0320  -26.5130   21.3360 C   0  0  0  0  0  2  0  0  0  0  0  0
  -28.4510  -26.9190   20.0960 O   0  0  0  0  0  0  0  0  0  0  0  0
  -24.5770  -31.9310   23.3910 C   0  0  0  0  0  0  0  0  0  0  0  0
  -27.2980  -27.6590   20.1760 C   0  0  0  0  0  0  0  0  0  0  0  0
  -23.4040  -30.5970   21.6690 C   0  0  0  0  0  3  0  0  0  0  0  0
  -24.8910  -29.1230   20.2140 C   0  0  0  0  0  0  0  0  0  0  0  0
  -25.9270  -30.9760   21.5330 C   0  0  0  0  0  2  0  0  0  0  0  0
  -26.0300  -29.6310   20.8500 C   0  0  0  0  0  0  0  0  0  0  0  0
  -27.2380  -28.9020   20.8410 C   0  0  0  0  0  3  0  0  0  0  0  0
  -26.1480  -27.1590   19.5330 C   0  0  0  0  0  3  0  0  0  0  0  0
  -24.9400  -27.8790   19.5590 C   0  0  0  0  0  3  0  0  0  0  0  0
  -23.6420  -29.9720   20.2680 C   0  0  0  0  0  2  0  0  0  0  0  0
  -24.6530  -31.1800   22.2570 N   0  0  0  0  0  0  0  0  0  0  0  0
  -23.4850  -32.1800   23.9230 O   0  0  0  0  0  0  0  0  0  0  0  0
  -22.7380  -29.5340   22.5710 C   0  0  0  0  0  0  0  0  0  0  0  0
  -21.4150  -29.3640   22.4150 N   0  0  0  0  0  0  0  0  0  0  0  0
  -23.4080  -28.8700   23.3660 O   0  0  0  0  0  0  0  0  0  0  0  0
  -20.9360  -29.9530   21.7490 H   0  0  0  0  0  0  0  0  0  0  0  0
  -18.0270  -28.1820   22.8190 C   0  0  0  0  0  0  0  0  0  0  0  0
  -20.5830  -28.3970   23.1300 C   0  0  0  0  0  3  0  0  0  0  0  0
  -20.6780  -26.9960   22.4830 C   0  0  0  0  0  2  0  0  0  0  0  0
  -19.5840  -26.7380   21.4430 C   0  0  0  0  0  2  0  0  0  0  0  0
  -18.1980  -26.8660   22.0800 C   0  0  0  0  0  2  0  0  0  0  0  0
  -19.1490  -28.9080   23.2980 C   0  0  0  0  0  0  0  0  0  0  0  0
  -18.9380  -30.1450   23.9470 C   0  0  0  0  0  3  0  0  0  0  0  0
  -17.6370  -30.6510   24.1260 C   0  0  0  0  0  3  0  0  0  0  0  0
  -16.5290  -29.9190   23.6650 C   0  0  0  0  0  3  0  0  0  0  0  0
  -16.7250  -28.6880   23.0150 C   0  0  0  0  0  3  0  0  0  0  0  0
  -25.8520  -32.5350   24.0590 C   0  0  0  0  0  3  0  0  0  0  0  0
  -26.3240  -31.7360   25.3360 C   0  0  1  0  0  0  0  0  0  0  0  0
  -25.1960  -31.4920   26.3680 C   0  0  0  0  0  1  0  0  0  0  0  0
  -26.9040  -30.3590   24.9350 C   0  0  0  0  0  1  0  0  0  0  0  0
  -27.4630  -32.5050   26.0460 C   0  0  0  0  0  1  0  0  0  0  0  0
  -25.5540  -33.9330   24.4000 N   0  0  0  0  0  0  0  0  0  0  0  0
  -25.9230  -34.9890   23.6640 C   0  0  0  0  0  0  0  0  0  0  0  0
  -26.6200  -34.8910   22.6500 O   0  0  0  0  0  0  0  0  0  0  0  0
  -24.9400  -34.0850   25.1870 H   0  0  0  0  0  0  0  0  0  0  0  0
  -24.2280  -36.8080   23.2760 C   0  0  0  0  0  1  0  0  0  0  0  0
  -25.4360  -36.3770   24.1230 C   0  0  0  0  0  3  0  0  0  0  0  0
  -27.5500  -37.2240   25.0410 C   0  0  0  0  0  1  0  0  0  0  0  0
  -26.4860  -37.4180   24.0600 N   0  0  0  0  0  0  0  0  0  0  0  0
  -26.0870  -38.3400   24.2070 H   0  0  0  0  0  0  0  0  0  0  0  0
  -27.5310  -21.1100   19.4940 C   0  0  0  0  0  0  0  0  0  0  0  0
  -26.4080  -21.5220   20.0920 N   0  0  0  0  0  0  0  0  0  0  0  0
  -28.2580  -21.8750   18.8590 O   0  0  0  0  0  0  0  0  0  0  0  0
  -25.8640  -20.8490   20.6150 H   0  0  0  0  0  0  0  0  0  0  0  0
  -27.8980  -19.6340   19.6460 C   0  0  0  0  0  2  0  0  0  0  0  0
  -29.4090  -19.4350   19.8660 C   0  0  0  0  0  2  0  0  0  0  0  0
  -29.7470  -18.0640   20.4650 C   0  0  0  0  0  2  0  0  0  0  0  0
  -31.2630  -17.8580   20.6110 C   0  0  0  0  0  2  0  0  0  0  0  0
  -31.6460  -16.6480   21.4800 C   0  0  0  0  0  2  0  0  0  0  0  0
  -31.2690  -14.6490   20.0350 C   0  0  0  0  0  0  0  0  0  0  0  0
  -30.8330  -12.4760   18.9530 C   0  0  0  0  0  2  0  0  0  0  0  0
  -29.8490  -12.5960   17.7760 C   0  0  0  0  0  2  0  0  0  0  0  0
  -28.3940  -12.5060   18.2690 C   0  0  0  0  0  2  0  0  0  0  0  0
  -28.1100  -13.4660   19.4530 C   0  0  0  0  0  3  0  0  0  0  0  0
  -29.1910  -13.3150   20.5460 C   0  0  0  0  0  2  0  0  0  0  0  0
  -30.5180  -13.5240   19.9320 N   0  0  0  0  0  0  0  0  0  0  0  0
  -32.2240  -14.9040   19.2950 O   0  0  0  0  0  0  0  0  0  0  0  0
  -30.9570  -15.4270   21.0760 N   0  0  0  0  0  0  0  0  0  0  0  0
  -30.1950  -15.1120   21.6580 H   0  0  0  0  0  0  0  0  0  0  0  0
  -25.7930  -14.1950   20.3120 C   0  0  0  0  0  0  0  0  0  0  0  0
  -24.6990  -13.4750   20.7120 C   0  0  0  0  0  0  0  0  0  0  0  0
  -25.0700  -12.1000   20.6060 C   0  0  0  0  0  0  0  0  0  0  0  0
  -26.7670  -13.2600   19.9940 N   0  0  0  0  0  0  0  0  0  0  0  0
  -26.3360  -11.9930   20.2240 N   0  0  0  0  0  0  0  0  0  0  0  0
  -24.2780  -10.8780   20.7920 C   0  0  0  0  0  0  0  0  0  0  0  0
  -24.6500   -9.8920   21.7320 C   0  0  0  0  0  3  0  0  0  0  0  0
  -23.8620   -8.7340   21.9060 C   0  0  0  0  0  3  0  0  0  0  0  0
  -22.6880   -8.5530   21.1380 C   0  0  0  0  0  0  0  0  0  0  0  0
  -22.3340   -9.5260   20.1870 C   0  0  0  0  0  3  0  0  0  0  0  0
  -23.1220  -10.6770   20.0120 C   0  0  0  0  0  3  0  0  0  0  0  0
  -21.8750   -7.4480   21.2180 O   0  0  0  0  0  0  0  0  0  0  0  0
  -21.7100   -6.7610   22.3940 C   0  0  0  0  0  0  0  0  0  0  0  0
  -21.2200   -7.3870   23.5600 C   0  0  0  0  0  3  0  0  0  0  0  0
  -20.9990   -6.6290   24.7280 C   0  0  0  0  0  3  0  0  0  0  0  0
  -21.2580   -5.2450   24.7280 C   0  0  0  0  0  0  0  0  0  0  0  0
  -21.7410   -4.6180   23.5650 C   0  0  0  0  0  3  0  0  0  0  0  0
  -21.9630   -5.3740   22.4000 C   0  0  0  0  0  0  0  0  0  0  0  0
  -22.4090   -4.7620   21.2770 F   0  0  0  0  0  0  0  0  0  0  0  0
  -21.0400   -4.5140   25.8440 F   0  0  0  0  0  0  0  0  0  0  0  0
  -23.3520  -14.0260   21.0820 C   0  0  0  0  0  0  0  0  0  0  0  0
  -22.6370  -13.3480   21.9740 N   0  0  0  0  0  0  0  0  0  0  0  0
  -22.9440  -15.0900   20.6170 O   0  0  0  0  0  0  0  0  0  0  0  0
  -22.9790  -12.4860   22.3730 H   0  0  0  0  0  0  0  0  0  0  0  0
  -21.7340  -13.6970   22.2640 H   0  0  0  0  0  0  0  0  0  0  0  0
  -26.0360  -15.5580   20.1760 N   0  0  0  0  0  0  0  0  0  0  0  0
  -25.3240  -16.2580   20.3600 H   0  0  0  0  0  0  0  0  0  0  0  0
  -26.9050  -15.9540   19.8400 H   0  0  0  0  0  0  0  0  0  0  0  0
  1  2  1  0
  2  4  2  0
  3  2  1  0
  3  6  1  0
  5  3  1  0
  7  6  1  0
  8 10  1  0
  8  7  1  0
  9 20  2  0
 10 15  1  0
 11 19  1  0
 11 21  1  0
 12 18  1  0
 12 14  1  0
 13 19  1  0
 14 13  1  0
 15 14  2  0
 16 17  1  0
 16 10  2  0
 17 12  2  0
 18 11  1  0
 19  9  1  0
 21 23  2  0
 22 21  1  0
 24 22  1  0
 25 34  2  0
 25 30  1  0
 26 22  1  0
 26 30  1  0
 27 26  1  0
 28 29  1  0
 28 27  1  0
 29 25  1  0
 30 31  2  0
 31 32  1  0
 33 32  2  0
 34 33  1  0
 35  9  1  0
 35 40  1  0
 35 36  1  0
 36 39  1  1
 36 37  1  0
 38 36  1  0
 40 43  1  0
 41 45  1  0
 41 40  1  0
 42 41  2  0
 45 44  1  0
 47 45  1  0
 47 48  1  0
 47 46  1  0
 49 53  1  0
 49 50  1  0
 50  1  1  0
 50 52  1  0
 51 49  2  0
 53 54  1  0
 54 55  1  0
 55 56  1  0
 56 57  1  0
 58 66  1  0
 59 64  1  0
 60 61  1  0
 60 59  1  0
 62 61  1  0
 62 71  1  0
 62 63  1  0
 64 58  1  0
 64 63  1  0
 65 58  2  0
 66 57  1  0
 66 67  1  0
 68 69  2  0
 69 88  1  0
 70 69  1  0
 70 73  1  0
 71 72  1  0
 71 68  1  0
 72 70  2  0
 73 74  1  0
 74 75  2  0
 76 79  1  0
 76 75  1  0
 77 76  2  0
 78 77  1  0
 78 73  2  0
 79 80  1  0
 80 85  2  0
 80 81  1  0
 81 82  2  0
 83 82  1  0
 83 87  1  0
 84 83  2  0
 85 84  1  0
 86 85  1  0
 88 89  1  0
 89 92  1  0
 89 91  1  0
 90 88  2  0
 93 68  1  0
 93 94  1  0
 95 93  1  0
M  ISO  4   7 101   8 101  58 100  66 100
M  END
>  <TORSDO>  (88) 
F 25

>  <SCORE>  (88) 
-10.942

>  <name>  (88) 
87

>  <ligand_id>  (88) 
87

>  <original_smiles>  (88) 
[H]c1c([H])c([H])c2c(c1[H])C([H])([H])C([H])([H])C([H])([H])C2([H])N([H])C(=O)C1([H])N(C(=O)C([H])(N([H])C(=O)C([H])(N([H])C([H])([H])[H])C([H])([H])[H])C(C([H])([H])[H])(C([H])([H])[H])C([H])([H])[H])C([H])([H])c2c([H])c(OC([H])([H])C([H])([H])N([H])C(=O)C([H])([H])N([H])C(=O)C([H])([H])C([H])([H])C([H])([H])C([H])([H])C([H])([H])N([H])C(=O)N3C([H])([H])C([H])([H])C([H])([H])C([H])(n4nc(-c5c([H])c([H])c(Oc6c([H])c([H])c(F)c([H])c6F)c([H])c5[H])c(C(=O)N([H])[H])c4N([H])[H])C3([H])[H])c([H])c([H])c2C1([H])[H]

>  <smiles>  (88) 
[H]c1c([H])c([H])c2c(c1[H])C([H])([H])C([H])([H])C([H])([H])C2([H])N([H])C(=O)C1([H])N(C(=O)C([H])(N([H])C(=O)C([H])(N([H])C([H])([H])[H])C([H])([H])[H])C(C([H])([H])[H])(C([H])([H])[H])C([H])([H])[H])C([H])([H])c2c([H])c(OC([H])([H])C([H])([H])N([H])C(=O)C([H])([H])N([H])C(=O)C([H])([H])C([H])([H])C([H])([H])C([H])([H])C([H])([H])N([H])C(=O)N3C([H])([H])C([H])([H])C([H])([H])C([H])(n4nc(-c5c([H])c([H])c(Oc6c([H])c([H])c(F)c([H])c6F)c([H])c5[H])c(C(=O)N([H])[H])c4N([H])[H])C3([H])[H])c([H])c([H])c2C1([H])[H]

$$$$
