0:0:0
     RDKit          3D

115122  0  0  1  0  0  0  0  0999 V2000
  -31.0910  -24.2940   16.5730 C   0  0  0  0  0  0  0  0  0  0  0  0
  -30.1140  -23.4070   16.3260 N   0  0  0  0  0  0  0  0  0  0  0  0
  -32.1710  -23.9560   17.0590 O   0  0  0  0  0  0  0  0  0  0  0  0
  -29.2570  -23.7860   15.9430 H   0  0  0  0  0  0  0  0  0  0  0  0
  -30.8380  -25.7640   16.1790 C   0  0  0  0  0  3  0  0  0  0  0  0
  -28.5470  -26.8530   16.3330 C   0  0  0  0  0  0  0  0  0  0  0  0
  -29.4220  -25.9670   15.8390 N   0  0  0  0  0  0  0  0  0  0  0  0
  -27.4020  -26.8620   15.8890 O   0  0  0  0  0  0  0  0  0  0  0  0
  -29.0710  -25.3840   15.0920 H   0  0  0  0  0  0  0  0  0  0  0  0
  -28.9590  -27.9020   17.3860 C   0  0  0  0  0  2  0  0  0  0  0  0
  -29.4210  -27.4060   18.7150 N   0  0  0  0  0  0  0  0  0  0  0  0
  -29.6470  -28.1800   19.3290 H   0  0  0  0  0  0  0  0  0  0  0  0
  -28.3660  -26.6650   19.4090 O   0  0  0  0  0  0  0  0  0  0  0  0
  -24.6860  -31.5760   23.1250 C   0  0  0  0  0  0  0  0  0  0  0  0
  -27.2280  -27.4060   19.6180 C   0  0  0  0  0  0  0  0  0  0  0  0
  -23.4420  -30.3440   21.3800 C   0  0  0  0  0  3  0  0  0  0  0  0
  -24.8550  -28.9090   19.8280 C   0  0  0  0  0  0  0  0  0  0  0  0
  -25.9710  -30.6800   21.1880 C   0  0  0  0  0  2  0  0  0  0  0  0
  -26.0290  -29.3680   20.4360 C   0  0  0  0  0  0  0  0  0  0  0  0
  -27.2240  -28.6210   20.3370 C   0  0  0  0  0  3  0  0  0  0  0  0
  -26.0260  -26.9290   19.0620 C   0  0  0  0  0  3  0  0  0  0  0  0
  -24.8420  -27.6800   19.1470 C   0  0  0  0  0  3  0  0  0  0  0  0
  -23.6310  -29.7860   19.9480 C   0  0  0  0  0  2  0  0  0  0  0  0
  -24.7190  -30.8750   21.9580 N   0  0  0  0  0  0  0  0  0  0  0  0
  -23.6130  -31.8220   23.6950 O   0  0  0  0  0  0  0  0  0  0  0  0
  -22.7830  -29.2520   22.2520 C   0  0  0  0  0  0  0  0  0  0  0  0
  -21.4520  -29.1200   22.1340 N   0  0  0  0  0  0  0  0  0  0  0  0
  -23.4640  -28.5310   22.9860 O   0  0  0  0  0  0  0  0  0  0  0  0
  -20.9680  -29.7520   21.5140 H   0  0  0  0  0  0  0  0  0  0  0  0
  -18.0430  -28.0330   22.6380 C   0  0  0  0  0  0  0  0  0  0  0  0
  -20.6190  -28.1390   22.8290 C   0  0  0  0  0  3  0  0  0  0  0  0
  -20.6290  -26.7800   22.0890 C   0  0  0  0  0  2  0  0  0  0  0  0
  -19.4730  -26.6270   21.0950 C   0  0  0  0  0  2  0  0  0  0  0  0
  -18.1250  -26.7620   21.8110 C   0  0  0  0  0  2  0  0  0  0  0  0
  -19.2140  -28.6890   23.1020 C   0  0  0  0  0  0  0  0  0  0  0  0
  -19.0810  -29.8880   23.8370 C   0  0  0  0  0  3  0  0  0  0  0  0
  -17.8110  -30.4260   24.1120 C   0  0  0  0  0  3  0  0  0  0  0  0
  -16.6540  -29.7650   23.6620 C   0  0  0  0  0  3  0  0  0  0  0  0
  -16.7720  -28.5700   22.9290 C   0  0  0  0  0  3  0  0  0  0  0  0
  -25.9880  -32.1260   23.7870 C   0  0  0  0  0  3  0  0  0  0  0  0
  -25.7090  -33.4940   24.2410 N   0  0  0  0  0  0  0  0  0  0  0  0
  -26.0320  -34.6010   23.5600 C   0  0  0  0  0  0  0  0  0  0  0  0
  -26.6700  -34.5770   22.5040 O   0  0  0  0  0  0  0  0  0  0  0  0
  -25.1420  -33.5890   25.0710 H   0  0  0  0  0  0  0  0  0  0  0  0
  -24.3170  -36.4330   23.4040 C   0  0  0  0  0  1  0  0  0  0  0  0
  -25.5740  -35.9500   24.1450 C   0  0  0  0  0  3  0  0  0  0  0  0
  -27.7330  -36.7480   25.0010 C   0  0  0  0  0  1  0  0  0  0  0  0
  -26.6170  -36.9990   24.0930 N   0  0  0  0  0  0  0  0  0  0  0  0
  -26.2250  -37.9080   24.3190 H   0  0  0  0  0  0  0  0  0  0  0  0
  -26.5070  -31.2310   24.9780 C   0  0  1  0  0  0  0  0  0  0  0  0
  -25.4240  -30.9210   26.0390 C   0  0  0  0  0  1  0  0  0  0  0  0
  -27.0510  -29.8830   24.4470 C   0  0  0  0  0  1  0  0  0  0  0  0
  -27.6840  -31.9390   25.6900 C   0  0  0  0  0  1  0  0  0  0  0  0
  -31.7680  -26.1630   14.9960 C   0  0  0  0  0  2  0  0  0  0  0  0
  -31.7590  -27.6450   14.5990 C   0  0  0  0  0  0  0  0  0  0  0  0
  -32.8460  -28.3680   14.8420 N   0  0  0  0  0  0  0  0  0  0  0  0
  -30.7780  -28.1500   14.0570 O   0  0  0  0  0  0  0  0  0  0  0  0
  -33.6650  -27.9510   15.2660 H   0  0  0  0  0  0  0  0  0  0  0  0
  -32.8820  -29.3400   14.5670 H   0  0  0  0  0  0  0  0  0  0  0  0
  -30.2550  -21.9510   16.3410 C   0  0  0  0  0  2  0  0  0  0  0  0
  -29.7180  -21.2700   17.6130 C   0  0  0  0  0  2  0  0  0  0  0  0
  -28.4390  -21.8430   18.0880 N   0  0  0  0  0  4  0  0  0  0  0  0
  -28.6420  -22.7230   18.5330 H   0  0  0  0  0  0  0  0  0  0  0  0
  -27.8390  -22.0350   17.3040 H   0  0  0  0  0  0  0  0  0  0  0  0
  -27.7050  -20.9810   19.0400 C   0  0  0  0  0  2  0  0  0  0  0  0
  -27.0290  -19.7890   18.3260 C   0  0  0  0  0  2  0  0  0  0  0  0
  -26.7390  -18.5830   19.2390 C   0  0  0  0  0  2  0  0  0  0  0  0
  -28.9320  -18.2590   20.4080 C   0  0  0  0  0  0  0  0  0  0  0  0
  -27.9590  -17.8540   19.5780 N   0  0  0  0  0  0  0  0  0  0  0  0
  -28.9090  -19.3540   20.9690 O   0  0  0  0  0  0  0  0  0  0  0  0
  -28.0820  -16.9430   19.1570 H   0  0  0  0  0  0  0  0  0  0  0  0
  -30.1080  -17.2920   20.6370 C   0  0  0  0  0  3  0  0  0  0  0  0
  -30.2960  -14.8940   19.9600 C   0  0  0  0  0  0  0  0  0  0  0  0
  -30.2970  -12.4700   19.5080 C   0  0  0  0  0  2  0  0  0  0  0  0
  -29.3890  -12.1190   18.3160 C   0  0  0  0  0  2  0  0  0  0  0  0
  -27.9330  -11.9170   18.7790 C   0  0  0  0  0  2  0  0  0  0  0  0
  -27.4260  -13.0780   19.6750 C   0  0  0  0  0  3  0  0  0  0  0  0
  -28.4460  -13.3890   20.7920 C   0  0  0  0  0  2  0  0  0  0  0  0
  -29.7530  -13.6680   20.1640 N   0  0  0  0  0  0  0  0  0  0  0  0
  -31.3080  -15.0910   19.2840 O   0  0  0  0  0  0  0  0  0  0  0  0
  -29.6560  -15.8990   20.5680 N   0  0  0  0  0  0  0  0  0  0  0  0
  -28.8280  -15.6600   21.0920 H   0  0  0  0  0  0  0  0  0  0  0  0
  -25.0640  -13.6600   20.5200 C   0  0  0  0  0  0  0  0  0  0  0  0
  -24.0230  -12.8750   20.9380 C   0  0  0  0  0  0  0  0  0  0  0  0
  -24.4920  -11.5270   20.8620 C   0  0  0  0  0  0  0  0  0  0  0  0
  -26.1020  -12.7900   20.2200 N   0  0  0  0  0  0  0  0  0  0  0  0
  -25.7630  -11.5030   20.4790 N   0  0  0  0  0  0  0  0  0  0  0  0
  -23.7870  -10.2580   21.0730 C   0  0  0  0  0  0  0  0  0  0  0  0
  -24.2320   -9.3150   22.0270 C   0  0  0  0  0  3  0  0  0  0  0  0
  -23.5260   -8.1080   22.2240 C   0  0  0  0  0  3  0  0  0  0  0  0
  -22.3620   -7.8360   21.4690 C   0  0  0  0  0  0  0  0  0  0  0  0
  -21.9350   -8.7660   20.5060 C   0  0  0  0  0  3  0  0  0  0  0  0
  -22.6420   -9.9650   20.3060 C   0  0  0  0  0  3  0  0  0  0  0  0
  -21.6270   -6.6790   21.5760 O   0  0  0  0  0  0  0  0  0  0  0  0
  -21.6160   -5.9370   22.7290 C   0  0  0  0  0  0  0  0  0  0  0  0
  -21.0360   -6.4230   23.9220 C   0  0  0  0  0  3  0  0  0  0  0  0
  -20.9840   -5.6000   25.0640 C   0  0  0  0  0  3  0  0  0  0  0  0
  -21.5010   -4.2920   25.0150 C   0  0  0  0  0  0  0  0  0  0  0  0
  -22.0730   -3.8050   23.8270 C   0  0  0  0  0  3  0  0  0  0  0  0
  -22.1270   -4.6240   22.6860 C   0  0  0  0  0  0  0  0  0  0  0  0
  -22.6600   -4.1430   21.5370 F   0  0  0  0  0  0  0  0  0  0  0  0
  -21.4440   -3.4980   26.1100 F   0  0  0  0  0  0  0  0  0  0  0  0
  -22.6420  -13.3380   21.2960 C   0  0  0  0  0  0  0  0  0  0  0  0
  -21.9470  -12.5920   22.1490 N   0  0  0  0  0  0  0  0  0  0  0  0
  -22.1870  -14.3930   20.8560 O   0  0  0  0  0  0  0  0  0  0  0  0
  -22.3290  -11.7370   22.5260 H   0  0  0  0  0  0  0  0  0  0  0  0
  -21.0210  -12.8810   22.4290 H   0  0  0  0  0  0  0  0  0  0  0  0
  -25.2110  -15.0320   20.3510 N   0  0  0  0  0  0  0  0  0  0  0  0
  -24.4420  -15.6780   20.4960 H   0  0  0  0  0  0  0  0  0  0  0  0
  -26.0250  -15.4750   19.9470 H   0  0  0  0  0  0  0  0  0  0  0  0
  -30.9400  -17.5040   21.9310 C   0  0  0  0  0  2  0  0  0  0  0  0
  -31.2730  -18.9140   22.2070 N   0  0  0  0  0  4  0  0  0  0  0  0
  -31.8700  -19.2930   21.4940 H   0  0  0  0  0  0  0  0  0  0  0  0
  -31.7480  -18.9910   23.0900 H   0  0  0  0  0  0  0  0  0  0  0  0
  -30.4260  -19.4600   22.2490 H   0  0  0  0  0  0  0  0  0  0  0  0
  1  3  2  0
  2 60  1  0
  2  1  1  0
  4  2  1  0
  5 54  1  0
  5  1  1  0
  6 10  1  0
  7  5  1  0
  7  6  1  0
  8  6  2  0
  9  7  1  0
 10 11  1  0
 11 12  1  0
 11 13  1  0
 13 15  1  0
 14 25  2  0
 15 20  1  0
 16 24  1  0
 16 26  1  0
 17 23  1  0
 17 19  1  0
 18 24  1  0
 19 18  1  0
 20 19  2  0
 21 22  1  0
 21 15  2  0
 22 17  2  0
 23 16  1  0
 24 14  1  0
 26 28  2  0
 27 26  1  0
 29 27  1  0
 30 39  2  0
 30 35  1  0
 31 27  1  0
 31 35  1  0
 32 31  1  0
 33 34  1  0
 33 32  1  0
 34 30  1  0
 35 36  2  0
 36 37  1  0
 38 37  2  0
 39 38  1  0
 40 14  1  0
 40 41  1  0
 40 50  1  0
 41 44  1  0
 42 46  1  0
 42 41  1  0
 43 42  2  0
 46 45  1  0
 48 46  1  0
 48 49  1  0
 48 47  1  0
 50 53  1  1
 50 51  1  0
 52 50  1  0
 55 56  1  0
 55 54  1  0
 56 58  1  0
 57 55  2  0
 59 56  1  0
 60 61  1  0
 61 62  1  0
 62 63  1  0
 62 65  1  0
 64 62  1  0
 66 65  1  0
 66 67  1  0
 67 69  1  0
 68 72  1  0
 68 70  2  0
 69 68  1  0
 71 69  1  0
 72111  1  0
 73 79  1  0
 73 81  1  0
 74 79  1  0
 75 76  1  0
 75 74  1  0
 77 76  1  0
 77 86  1  0
 77 78  1  0
 79 78  1  0
 80 73  2  0
 81 72  1  0
 81 82  1  0
 83 84  2  0
 84103  1  0
 85 84  1  0
 85 88  1  0
 86 87  1  0
 86 83  1  0
 87 85  2  0
 88 89  1  0
 89 90  2  0
 91 94  1  0
 91 90  1  0
 92 91  2  0
 93 92  1  0
 93 88  2  0
 94 95  1  0
 95 96  1  0
 96 97  2  0
 98 97  1  0
 98102  1  0
 99 98  2  0
100 95  2  0
100 99  1  0
101100  1  0
103104  1  0
104107  1  0
104106  1  0
105103  2  0
108109  1  0
108 83  1  0
110108  1  0
111112  1  0
112115  1  0
112114  1  0
113112  1  0
M  ISO  4  11 101  13 101  73 100  81 100
M  END
>  <TORSDO>  (1) 
F 32

>  <SCORE>  (1) 
-10.220

>  <name>  (1) 
0

>  <ligand_id>  (1) 
0

>  <original_smiles>  (1) 
[H]c1c([H])c([H])c2c(c1[H])C([H])([H])C([H])([H])C([H])([H])C2([H])N([H])C(=O)C1([H])N(C(=O)C([H])(N([H])C(=O)C([H])(N([H])C([H])([H])[H])C([H])([H])[H])C(C([H])([H])[H])(C([H])([H])[H])C([H])([H])[H])C([H])([H])c2c([H])c(ON([H])C([H])([H])C(=O)N([H])C([H])(C(=O)N([H])C([H])([H])C([H])([H])[N+]([H])([H])C([H])([H])C([H])([H])C([H])([H])N([H])C(=O)C([H])(N([H])C(=O)N3C([H])([H])C([H])([H])C([H])([H])C([H])(n4nc(-c5c([H])c([H])c(Oc6c([H])c([H])c(F)c([H])c6F)c([H])c5[H])c(C(=O)N([H])[H])c4N([H])[H])C3([H])[H])C([H])([H])[N+]([H])([H])[H])C([H])([H])C(=O)N([H])[H])c([H])c([H])c2C1([H])[H]

>  <smiles>  (1) 
[H]c1c([H])c([H])c2c(c1[H])C([H])([H])C([H])([H])C([H])([H])C2([H])N([H])C(=O)C1([H])N(C(=O)C([H])(N([H])C(=O)C([H])(N([H])C([H])([H])[H])C([H])([H])[H])C(C([H])([H])[H])(C([H])([H])[H])C([H])([H])[H])C([H])([H])c2c([H])c(ON([H])C([H])([H])C(=O)N([H])C([H])(C(=O)N([H])C([H])([H])C([H])([H])[N+]([H])([H])C([H])([H])C([H])([H])C([H])([H])N([H])C(=O)C([H])(N([H])C(=O)N3C([H])([H])C([H])([H])C([H])([H])C([H])(n4nc(-c5c([H])c([H])c(Oc6c([H])c([H])c(F)c([H])c6F)c([H])c5[H])c(C(=O)N([H])[H])c4N([H])[H])C3([H])[H])C([H])([H])[N+]([H])([H])[H])C([H])([H])C(=O)N([H])[H])c([H])c([H])c2C1([H])[H]

$$$$
1:0:0
     RDKit          3D

103110  0  0  1  0  0  0  0  0999 V2000
  -30.7900  -20.4370   22.2160 C   0  0  0  0  0  3  0  0  0  0  0  0
  -30.6790  -18.0030   21.5520 C   0  0  0  0  0  0  0  0  0  0  0  0
  -30.5230  -19.3130   21.3110 N   0  0  0  0  0  0  0  0  0  0  0  0
  -30.9590  -17.5450   22.6610 O   0  0  0  0  0  0  0  0  0  0  0  0
  -30.2880  -19.5620   20.3600 H   0  0  0  0  0  0  0  0  0  0  0  0
  -30.5080  -17.0860   20.3360 C   0  0  0  0  0  2  0  0  0  0  0  0
  -31.0500  -14.6720   20.0900 C   0  0  0  0  0  0  0  0  0  0  0  0
  -30.7740  -12.4560   19.0470 C   0  0  0  0  0  2  0  0  0  0  0  0
  -29.7430  -12.5690   17.9060 C   0  0  0  0  0  2  0  0  0  0  0  0
  -28.3110  -12.3930   18.4470 C   0  0  0  0  0  2  0  0  0  0  0  0
  -28.0260  -13.2780   19.6910 C   0  0  0  0  0  3  0  0  0  0  0  0
  -29.1600  -13.1360   20.7330 C   0  0  0  0  0  2  0  0  0  0  0  0
  -30.4340  -13.4610   20.0680 N   0  0  0  0  0  0  0  0  0  0  0  0
  -32.1000  -14.9000   19.4790 O   0  0  0  0  0  0  0  0  0  0  0  0
  -30.3490  -15.6640   20.6600 N   0  0  0  0  0  0  0  0  0  0  0  0
  -29.5310  -15.4130   21.1940 H   0  0  0  0  0  0  0  0  0  0  0  0
  -25.7250  -13.8530   20.6960 C   0  0  0  0  0  0  0  0  0  0  0  0
  -24.6760  -13.0620   21.0830 C   0  0  0  0  0  0  0  0  0  0  0  0
  -25.0910  -11.7140   20.8570 C   0  0  0  0  0  0  0  0  0  0  0  0
  -26.7170  -12.9820   20.2680 N   0  0  0  0  0  0  0  0  0  0  0  0
  -26.3430  -11.6860   20.4170 N   0  0  0  0  0  0  0  0  0  0  0  0
  -24.3500  -10.4530   20.9820 C   0  0  0  0  0  0  0  0  0  0  0  0
  -24.8150   -9.4010   21.8030 C   0  0  0  0  0  3  0  0  0  0  0  0
  -24.0760   -8.2040   21.9200 C   0  0  0  0  0  3  0  0  0  0  0  0
  -22.8590   -8.0500   21.2140 C   0  0  0  0  0  0  0  0  0  0  0  0
  -22.4130   -9.0910   20.3810 C   0  0  0  0  0  3  0  0  0  0  0  0
  -23.1510  -10.2800   20.2620 C   0  0  0  0  0  3  0  0  0  0  0  0
  -22.0880   -6.9140   21.2480 O   0  0  0  0  0  0  0  0  0  0  0  0
  -22.0500   -6.1010   22.3540 C   0  0  0  0  0  0  0  0  0  0  0  0
  -21.6260   -6.5760   23.6140 C   0  0  0  0  0  3  0  0  0  0  0  0
  -21.5360   -5.6900   24.7060 C   0  0  0  0  0  3  0  0  0  0  0  0
  -21.8610   -4.3310   24.5400 C   0  0  0  0  0  0  0  0  0  0  0  0
  -22.2780   -3.8550   23.2840 C   0  0  0  0  0  3  0  0  0  0  0  0
  -22.3700   -4.7380   22.1930 C   0  0  0  0  0  0  0  0  0  0  0  0
  -22.7520   -4.2690   20.9790 F   0  0  0  0  0  0  0  0  0  0  0  0
  -21.7670   -3.4780   25.5850 F   0  0  0  0  0  0  0  0  0  0  0  0
  -23.3270  -13.5300   21.5490 C   0  0  0  0  0  0  0  0  0  0  0  0
  -22.6750  -12.7600   22.4120 N   0  0  0  0  0  0  0  0  0  0  0  0
  -22.8640  -14.6110   21.1850 O   0  0  0  0  0  0  0  0  0  0  0  0
  -23.0600  -11.8810   22.7250 H   0  0  0  0  0  0  0  0  0  0  0  0
  -21.7750  -13.0540   22.7640 H   0  0  0  0  0  0  0  0  0  0  0  0
  -25.9120  -15.2320   20.6520 N   0  0  0  0  0  0  0  0  0  0  0  0
  -25.1760  -15.8840   20.9010 H   0  0  0  0  0  0  0  0  0  0  0  0
  -26.7300  -15.6890   20.2690 H   0  0  0  0  0  0  0  0  0  0  0  0
  -31.7660  -21.3900   21.4980 C   0  0  0  0  0  2  0  0  0  0  0  0
  -32.8850  -20.6830   20.9800 O   0  0  0  0  0  0  0  0  0  0  0  0
  -33.6800  -21.2940   20.0900 C   0  0  0  0  0  0  0  0  0  0  0  0
  -33.4780  -22.4200   19.6180 O   0  0  0  0  0  0  0  0  0  0  0  0
  -34.8930  -20.4490   19.6890 C   0  0  0  0  0  2  0  0  0  0  0  0
  -35.6050  -21.1470   18.6070 N   0  0  0  0  0  4  0  0  0  0  0  0
  -34.9870  -21.2600   17.8230 H   0  0  0  0  0  0  0  0  0  0  0  0
  -36.4210  -20.6390   18.3240 H   0  0  0  0  0  0  0  0  0  0  0  0
  -35.8670  -22.0610   18.9280 H   0  0  0  0  0  0  0  0  0  0  0  0
  -29.4660  -21.1410   22.6070 C   0  0  0  0  0  2  0  0  0  0  0  0
  -29.5870  -22.3970   23.5100 C   0  0  0  0  0  2  0  0  0  0  0  0
  -29.6860  -23.7370   22.7710 C   0  0  0  0  0  0  0  0  0  0  0  0
  -28.6130  -24.1430   22.0820 N   0  0  0  0  0  0  0  0  0  0  0  0
  -30.7200  -24.4020   22.8400 O   0  0  0  0  0  0  0  0  0  0  0  0
  -27.7910  -23.5530   22.1040 H   0  0  0  0  0  0  0  0  0  0  0  0
  -28.4870  -25.3980   21.3400 C   0  0  0  0  0  2  0  0  0  0  0  0
  -29.3560  -25.4400   20.0670 C   0  0  0  0  0  2  0  0  0  0  0  0
  -29.1240  -26.7080   19.2270 C   0  0  0  0  0  2  0  0  0  0  0  0
  -27.9410  -26.5380   18.4400 O   0  0  0  0  0  0  0  0  0  0  0  0
  -24.5970  -31.0690   22.8240 C   0  0  0  0  0  0  0  0  0  0  0  0
  -26.8070  -27.2390   18.7810 C   0  0  0  0  0  0  0  0  0  0  0  0
  -23.1600  -29.8770   21.1940 C   0  0  0  0  0  3  0  0  0  0  0  0
  -24.4000  -28.6060   19.3600 C   0  0  0  0  0  0  0  0  0  0  0  0
  -25.6070  -30.3660   20.6620 C   0  0  0  0  0  2  0  0  0  0  0  0
  -25.6200  -29.0950   19.8410 C   0  0  0  0  0  0  0  0  0  0  0  0
  -26.8220  -28.4200   19.5550 C   0  0  0  0  0  3  0  0  0  0  0  0
  -25.5750  -26.7650   18.2860 C   0  0  0  0  0  3  0  0  0  0  0  0
  -24.3700  -27.4350   18.5790 C   0  0  0  0  0  3  0  0  0  0  0  0
  -23.1620  -29.3990   19.7160 C   0  0  0  0  0  2  0  0  0  0  0  0
  -24.4840  -30.4420   21.6200 N   0  0  0  0  0  0  0  0  0  0  0  0
  -23.6130  -31.2210   23.5620 O   0  0  0  0  0  0  0  0  0  0  0  0
  -22.6810  -28.7090   22.0850 C   0  0  0  0  0  0  0  0  0  0  0  0
  -21.3660  -28.4370   22.0550 N   0  0  0  0  0  0  0  0  0  0  0  0
  -23.4830  -28.0540   22.7550 O   0  0  0  0  0  0  0  0  0  0  0  0
  -20.7750  -29.0280   21.4870 H   0  0  0  0  0  0  0  0  0  0  0  0
  -18.1770  -26.8220   22.5520 C   0  0  0  0  0  0  0  0  0  0  0  0
  -20.6940  -27.3600   22.7780 C   0  0  0  0  0  3  0  0  0  0  0  0
  -20.9430  -25.9930   22.0980 C   0  0  0  0  0  2  0  0  0  0  0  0
  -19.8530  -25.6140   21.0920 C   0  0  0  0  0  2  0  0  0  0  0  0
  -18.4850  -25.5510   21.7790 C   0  0  0  0  0  2  0  0  0  0  0  0
  -19.2140  -27.6800   23.0080 C   0  0  0  0  0  0  0  0  0  0  0  0
  -18.8700  -28.8680   23.6890 C   0  0  0  0  0  3  0  0  0  0  0  0
  -17.5220  -29.2000   23.9200 C   0  0  0  0  0  3  0  0  0  0  0  0
  -16.5000  -28.3380   23.4810 C   0  0  0  0  0  3  0  0  0  0  0  0
  -16.8290  -27.1540   22.8010 C   0  0  0  0  0  3  0  0  0  0  0  0
  -25.9590  -31.6430   23.3250 C   0  0  0  0  0  3  0  0  0  0  0  0
  -25.6960  -32.9720   23.8910 N   0  0  0  0  0  0  0  0  0  0  0  0
  -25.9610  -34.1280   23.2680 C   0  0  0  0  0  0  0  0  0  0  0  0
  -26.5260  -34.1850   22.1710 O   0  0  0  0  0  0  0  0  0  0  0  0
  -25.1750  -33.0000   24.7540 H   0  0  0  0  0  0  0  0  0  0  0  0
  -24.2370  -35.9580   23.3360 C   0  0  0  0  0  1  0  0  0  0  0  0
  -25.5320  -35.4280   23.9740 C   0  0  0  0  0  3  0  0  0  0  0  0
  -27.7350  -36.1730   24.7590 C   0  0  0  0  0  1  0  0  0  0  0  0
  -26.5660  -36.4830   23.9410 N   0  0  0  0  0  0  0  0  0  0  0  0
  -26.1860  -37.3730   24.2540 H   0  0  0  0  0  0  0  0  0  0  0  0
  -26.6760  -30.7120   24.3790 C   0  0  1  0  0  0  0  0  0  0  0  0
  -25.7680  -30.2920   25.5570 C   0  0  0  0  0  1  0  0  0  0  0  0
  -27.1990  -29.4240   23.7020 C   0  0  0  0  0  1  0  0  0  0  0  0
  -27.9100  -31.4380   24.9650 C   0  0  0  0  0  1  0  0  0  0  0  0
  1 45  1  0
  1 54  1  0
  2  4  2  0
  3  2  1  0
  3  1  1  0
  5  3  1  0
  6 15  1  0
  6  2  1  0
  7 15  1  0
  8 13  1  0
  9 10  1  0
  9  8  1  0
 11 10  1  0
 11 20  1  0
 11 12  1  0
 13  7  1  0
 13 12  1  0
 14  7  2  0
 15 16  1  0
 17 18  2  0
 18 37  1  0
 19 22  1  0
 19 18  1  0
 20 21  1  0
 20 17  1  0
 21 19  2  0
 22 23  1  0
 23 24  2  0
 25 28  1  0
 25 24  1  0
 26 25  2  0
 27 26  1  0
 27 22  2  0
 28 29  1  0
 29 30  1  0
 30 31  2  0
 32 31  1  0
 32 36  1  0
 33 32  2  0
 34 29  2  0
 34 33  1  0
 35 34  1  0
 37 38  1  0
 38 40  1  0
 38 41  1  0
 39 37  2  0
 42 17  1  0
 42 43  1  0
 44 42  1  0
 46 45  1  0
 47 46  1  0
 48 47  2  0
 49 47  1  0
 50 53  1  0
 50 49  1  0
 51 50  1  0
 52 50  1  0
 54 55  1  0
 56 58  2  0
 56 55  1  0
 57 59  1  0
 57 56  1  0
 60 57  1  0
 61 60  1  0
 62 61  1  0
 63 65  1  0
 63 62  1  0
 64 75  2  0
 65 70  1  0
 66 74  1  0
 66 76  1  0
 67 73  1  0
 67 69  1  0
 68 74  1  0
 69 68  1  0
 70 69  2  0
 71 72  1  0
 71 65  2  0
 72 67  2  0
 73 66  1  0
 74 64  1  0
 76 78  2  0
 77 76  1  0
 79 77  1  0
 80 89  2  0
 80 85  1  0
 81 77  1  0
 81 85  1  0
 82 81  1  0
 83 84  1  0
 83 82  1  0
 84 80  1  0
 85 86  2  0
 86 87  1  0
 88 87  2  0
 89 88  1  0
 90 64  1  0
 90 91  1  0
 90100  1  0
 91 94  1  0
 92 91  1  0
 92 96  1  0
 93 92  2  0
 96 95  1  0
 98 96  1  0
 98 99  1  0
 98 97  1  0
100103  1  1
100101  1  0
102100  1  0
M  ISO  4   7 100  15 100  62 101  63 101
M  END
>  <TORSDO>  (2) 
F 29

>  <SCORE>  (2) 
-8.167

>  <name>  (2) 
1

>  <ligand_id>  (2) 
1

>  <original_smiles>  (2) 
[H]c1c([H])c([H])c2c(c1[H])C([H])([H])C([H])([H])C([H])([H])C2([H])N([H])C(=O)C1([H])N(C(=O)C([H])(N([H])C(=O)C([H])(N([H])C([H])([H])[H])C([H])([H])[H])C(C([H])([H])[H])(C([H])([H])[H])C([H])([H])[H])C([H])([H])c2c([H])c(OC([H])([H])C([H])([H])C([H])([H])N([H])C(=O)C([H])([H])C([H])([H])C([H])(N([H])C(=O)C([H])([H])N([H])C(=O)N3C([H])([H])C([H])([H])C([H])([H])C([H])(n4nc(-c5c([H])c([H])c(Oc6c([H])c([H])c(F)c([H])c6F)c([H])c5[H])c(C(=O)N([H])[H])c4N([H])[H])C3([H])[H])C([H])([H])OC(=O)C([H])([H])[N+]([H])([H])[H])c([H])c([H])c2C1([H])[H]

>  <smiles>  (2) 
[H]c1c([H])c([H])c2c(c1[H])C([H])([H])C([H])([H])C([H])([H])C2([H])N([H])C(=O)C1([H])N(C(=O)C([H])(N([H])C(=O)C([H])(N([H])C([H])([H])[H])C([H])([H])[H])C(C([H])([H])[H])(C([H])([H])[H])C([H])([H])[H])C([H])([H])c2c([H])c(OC([H])([H])C([H])([H])C([H])([H])N([H])C(=O)C([H])([H])C([H])([H])C([H])(N([H])C(=O)C([H])([H])N([H])C(=O)N3C([H])([H])C([H])([H])C([H])([H])C([H])(n4nc(-c5c([H])c([H])c(Oc6c([H])c([H])c(F)c([H])c6F)c([H])c5[H])c(C(=O)N([H])[H])c4N([H])[H])C3([H])[H])C([H])([H])OC(=O)C([H])([H])[N+]([H])([H])[H])c([H])c([H])c2C1([H])[H]

$$$$
2:0:0
     RDKit          3D

102109  0  0  1  0  0  0  0  0999 V2000
  -29.0800  -23.9810   20.2200 C   0  0  0  0  0  3  0  0  0  0  0  0
  -28.7970  -22.4840   20.7540 C   0  0  0  0  0  0  0  0  0  0  0  0
  -29.3370  -21.3260   20.2170 N   0  0  0  0  0  0  0  0  0  0  0  0
  -28.1560  -22.3990   21.8030 O   0  0  0  0  0  0  0  0  0  0  0  0
  -29.8180  -21.4210   19.3330 H   0  0  0  0  0  0  0  0  0  0  0  0
  -29.6630  -20.0370   20.9850 C   0  0  0  0  0  2  0  0  0  0  0  0
  -29.5130  -18.5890   20.3630 C   0  0  0  0  0  0  0  0  0  0  0  0
  -28.6730  -18.4360   19.3280 N   0  0  0  0  0  4  0  0  0  0  0  0
  -30.1540  -17.4580   20.8770 N   0  0  0  0  0  0  0  0  0  0  0  0
  -28.1800  -19.2300   18.9420 H   0  0  0  0  0  0  0  0  0  0  0  0
  -28.5860  -17.5530   18.8490 H   0  0  0  0  0  0  0  0  0  0  0  0
  -30.8530  -17.5770   21.6030 H   0  0  0  0  0  0  0  0  0  0  0  0
  -30.6110  -14.9910   20.5290 C   0  0  0  0  0  0  0  0  0  0  0  0
  -30.5470  -12.6770   19.5870 C   0  0  0  0  0  2  0  0  0  0  0  0
  -29.6460  -12.6790   18.3340 C   0  0  0  0  0  2  0  0  0  0  0  0
  -28.1630  -12.4780   18.7090 C   0  0  0  0  0  2  0  0  0  0  0  0
  -27.7200  -13.3910   19.8850 C   0  0  0  0  0  3  0  0  0  0  0  0
  -28.7390  -13.3560   21.0460 C   0  0  0  0  0  2  0  0  0  0  0  0
  -30.0460  -13.7350   20.4890 N   0  0  0  0  0  0  0  0  0  0  0  0
  -31.8130  -15.1440   20.2860 O   0  0  0  0  0  0  0  0  0  0  0  0
  -29.7390  -16.0630   20.6160 N   0  0  0  0  0  0  0  0  0  0  0  0
  -28.7570  -15.9800   20.8270 H   0  0  0  0  0  0  0  0  0  0  0  0
  -25.3030  -13.9610   20.5460 C   0  0  0  0  0  0  0  0  0  0  0  0
  -24.2360  -13.1760   20.8870 C   0  0  0  0  0  0  0  0  0  0  0  0
  -24.7140  -11.8300   20.8720 C   0  0  0  0  0  0  0  0  0  0  0  0
  -26.3620  -13.0910   20.3360 N   0  0  0  0  0  0  0  0  0  0  0  0
  -26.0130  -11.8050   20.5990 N   0  0  0  0  0  0  0  0  0  0  0  0
  -23.9950  -10.5600   21.0410 C   0  0  0  0  0  0  0  0  0  0  0  0
  -24.4330   -9.5810   21.9590 C   0  0  0  0  0  3  0  0  0  0  0  0
  -23.7120   -8.3780   22.1210 C   0  0  0  0  0  3  0  0  0  0  0  0
  -22.5400   -8.1460   21.3650 C   0  0  0  0  0  0  0  0  0  0  0  0
  -22.1210   -9.1150   20.4340 C   0  0  0  0  0  3  0  0  0  0  0  0
  -22.8420  -10.3090   20.2710 C   0  0  0  0  0  3  0  0  0  0  0  0
  -21.7920   -6.9950   21.4320 O   0  0  0  0  0  0  0  0  0  0  0  0
  -21.7690   -6.2170   22.5630 C   0  0  0  0  0  0  0  0  0  0  0  0
  -21.3610   -6.7320   23.8110 C   0  0  0  0  0  3  0  0  0  0  0  0
  -21.2860   -5.8830   24.9320 C   0  0  0  0  0  3  0  0  0  0  0  0
  -21.6090   -4.5180   24.8060 C   0  0  0  0  0  0  0  0  0  0  0  0
  -22.0080   -4.0020   23.5610 C   0  0  0  0  0  3  0  0  0  0  0  0
  -22.0860   -4.8490   22.4420 C   0  0  0  0  0  0  0  0  0  0  0  0
  -22.4530   -4.3410   21.2420 F   0  0  0  0  0  0  0  0  0  0  0  0
  -21.5270   -3.7010   25.8830 F   0  0  0  0  0  0  0  0  0  0  0  0
  -22.8250  -13.6380   21.1160 C   0  0  0  0  0  0  0  0  0  0  0  0
  -22.0870  -12.9510   21.9780 N   0  0  0  0  0  0  0  0  0  0  0  0
  -22.3850  -14.6440   20.5620 O   0  0  0  0  0  0  0  0  0  0  0  0
  -22.4530  -12.1370   22.4500 H   0  0  0  0  0  0  0  0  0  0  0  0
  -21.1380  -13.2410   22.1680 H   0  0  0  0  0  0  0  0  0  0  0  0
  -25.4550  -15.3350   20.3740 N   0  0  0  0  0  0  0  0  0  0  0  0
  -24.6760  -15.9750   20.4710 H   0  0  0  0  0  0  0  0  0  0  0  0
  -26.2940  -15.7920   20.0460 H   0  0  0  0  0  0  0  0  0  0  0  0
  -30.5050  -25.6930   21.3540 C   0  0  0  0  0  0  0  0  0  0  0  0
  -29.7100  -24.6250   21.3680 N   0  0  0  0  0  0  0  0  0  0  0  0
  -30.9900  -26.1490   20.3140 O   0  0  0  0  0  0  0  0  0  0  0  0
  -29.3690  -24.3010   22.2620 H   0  0  0  0  0  0  0  0  0  0  0  0
  -29.4750  -26.4830   23.5400 C   0  0  0  0  0  1  0  0  0  0  0  0
  -30.7770  -26.3680   22.7080 C   0  0  0  0  0  3  0  0  0  0  0  0
  -32.1010  -28.2960   23.6020 C   0  0  0  0  0  1  0  0  0  0  0  0
  -31.3960  -27.6860   22.4560 N   0  0  0  0  0  4  0  0  0  0  0  0
  -32.0530  -27.5170   21.7080 H   0  0  0  0  0  0  0  0  0  0  0  0
  -30.7100  -28.3190   22.0830 H   0  0  0  0  0  0  0  0  0  0  0  0
  -27.8980  -25.0130   19.8020 C   0  0  0  0  0  2  0  0  0  0  0  0
  -28.1370  -26.5070   19.7240 O   0  0  0  0  0  0  0  0  0  0  0  0
  -24.5520  -31.8840   23.0600 C   0  0  0  0  0  0  0  0  0  0  0  0
  -27.0310  -27.3920   19.7530 C   0  0  0  0  0  0  0  0  0  0  0  0
  -23.2780  -30.5160   21.4510 C   0  0  0  0  0  3  0  0  0  0  0  0
  -24.6670  -29.0180   19.9050 C   0  0  0  0  0  0  0  0  0  0  0  0
  -25.8060  -30.8550   21.1430 C   0  0  0  0  0  2  0  0  0  0  0  0
  -25.8630  -29.4900   20.4540 C   0  0  0  0  0  0  0  0  0  0  0  0
  -27.0490  -28.6910   20.3650 C   0  0  0  0  0  3  0  0  0  0  0  0
  -25.8050  -26.9870   19.1790 C   0  0  0  0  0  3  0  0  0  0  0  0
  -24.6420  -27.7750   19.2580 C   0  0  0  0  0  3  0  0  0  0  0  0
  -23.4270  -29.8820   20.0430 C   0  0  0  0  0  2  0  0  0  0  0  0
  -24.5680  -31.1010   21.9410 N   0  0  0  0  0  0  0  0  0  0  0  0
  -23.4940  -32.1350   23.6560 O   0  0  0  0  0  0  0  0  0  0  0  0
  -22.6750  -29.4670   22.4170 C   0  0  0  0  0  0  0  0  0  0  0  0
  -21.3470  -29.2670   22.3430 N   0  0  0  0  0  0  0  0  0  0  0  0
  -23.3980  -28.8400   23.1950 O   0  0  0  0  0  0  0  0  0  0  0  0
  -20.8230  -29.8230   21.6830 H   0  0  0  0  0  0  0  0  0  0  0  0
  -18.0290  -27.9490   22.9250 C   0  0  0  0  0  0  0  0  0  0  0  0
  -20.5810  -28.2970   23.1280 C   0  0  0  0  0  3  0  0  0  0  0  0
  -20.7180  -26.8730   22.5410 C   0  0  0  0  0  2  0  0  0  0  0  0
  -19.6010  -26.5170   21.5560 C   0  0  0  0  0  2  0  0  0  0  0  0
  -18.2320  -26.6110   22.2350 C   0  0  0  0  0  2  0  0  0  0  0  0
  -19.1300  -28.7470   23.3300 C   0  0  0  0  0  0  0  0  0  0  0  0
  -18.8830  -29.9960   23.9400 C   0  0  0  0  0  3  0  0  0  0  0  0
  -17.5660  -30.4500   24.1450 C   0  0  0  0  0  3  0  0  0  0  0  0
  -16.4790  -29.6500   23.7520 C   0  0  0  0  0  3  0  0  0  0  0  0
  -16.7110  -28.4010   23.1500 C   0  0  0  0  0  3  0  0  0  0  0  0
  -25.8580  -32.5160   23.6320 C   0  0  0  0  0  3  0  0  0  0  0  0
  -26.4490  -31.7140   24.8560 C   0  0  1  0  0  0  0  0  0  0  0  0
  -25.4170  -31.4390   25.9750 C   0  0  0  0  0  1  0  0  0  0  0  0
  -27.0200  -30.3530   24.3950 C   0  0  0  0  0  1  0  0  0  0  0  0
  -27.6330  -32.4940   25.4740 C   0  0  0  0  0  1  0  0  0  0  0  0
  -25.5460  -33.8990   24.0250 N   0  0  0  0  0  0  0  0  0  0  0  0
  -25.8960  -34.9870   23.3270 C   0  0  0  0  0  0  0  0  0  0  0  0
  -26.5850  -34.9310   22.3050 O   0  0  0  0  0  0  0  0  0  0  0  0
  -24.9390  -34.0130   24.8240 H   0  0  0  0  0  0  0  0  0  0  0  0
  -24.1980  -36.8180   23.0120 C   0  0  0  0  0  1  0  0  0  0  0  0
  -25.4060  -36.3550   23.8420 C   0  0  0  0  0  3  0  0  0  0  0  0
  -27.5190  -37.1690   24.7930 C   0  0  0  0  0  1  0  0  0  0  0  0
  -26.4540  -37.4000   23.8210 N   0  0  0  0  0  0  0  0  0  0  0  0
  -26.0520  -38.3160   24.0010 H   0  0  0  0  0  0  0  0  0  0  0  0
  1 61  1  0
  1  2  1  0
  1 52  1  0
  2  4  2  0
  3  2  1  0
  3  6  1  0
  5  3  1  0
  7  9  1  0
  7  6  1  0
  8  7  2  0
  9 12  1  0
 10  8  1  0
 11  8  1  0
 13 21  1  0
 14 19  1  0
 15 16  1  0
 15 14  1  0
 17 16  1  0
 17 26  1  0
 17 18  1  0
 19 13  1  0
 19 18  1  0
 20 13  2  0
 21 22  1  0
 21  9  1  0
 23 24  2  0
 24 43  1  0
 25 24  1  0
 25 28  1  0
 26 23  1  0
 26 27  1  0
 27 25  2  0
 28 29  1  0
 29 30  2  0
 31 34  1  0
 31 30  1  0
 32 31  2  0
 33 32  1  0
 33 28  2  0
 34 35  1  0
 35 36  1  0
 36 37  2  0
 38 37  1  0
 38 42  1  0
 39 38  2  0
 40 35  2  0
 40 39  1  0
 41 40  1  0
 43 44  1  0
 44 47  1  0
 44 46  1  0
 45 43  2  0
 48 49  1  0
 48 23  1  0
 50 48  1  0
 51 52  1  0
 51 56  1  0
 52 54  1  0
 53 51  2  0
 56 55  1  0
 58 56  1  0
 58 57  1  0
 59 58  1  0
 60 58  1  0
 62 64  1  0
 62 61  1  0
 63 74  2  0
 64 69  1  0
 65 73  1  0
 65 75  1  0
 66 72  1  0
 66 68  1  0
 67 73  1  0
 68 67  1  0
 69 68  2  0
 70 71  1  0
 70 64  2  0
 71 66  2  0
 72 65  1  0
 73 63  1  0
 75 77  2  0
 76 75  1  0
 78 76  1  0
 79 88  2  0
 79 84  1  0
 80 76  1  0
 80 84  1  0
 81 80  1  0
 82 83  1  0
 82 81  1  0
 83 79  1  0
 84 85  2  0
 85 86  1  0
 87 86  2  0
 88 87  1  0
 89 63  1  0
 89 94  1  0
 89 90  1  0
 90 93  1  1
 90 91  1  0
 92 90  1  0
 94 97  1  0
 95 99  1  0
 95 94  1  0
 96 95  2  0
 99 98  1  0
101 99  1  0
101102  1  0
101100  1  0
M  ISO  4  13 100  21 100  61 101  62 101
M  END
>  <TORSDO>  (3) 
F 23

>  <SCORE>  (3) 
-12.574

>  <name>  (3) 
2

>  <ligand_id>  (3) 
2

>  <original_smiles>  (3) 
[H]c1c([H])c([H])c2c(c1[H])C([H])([H])C([H])([H])C([H])([H])C2([H])N([H])C(=O)C1([H])N(C(=O)C([H])(N([H])C(=O)C([H])(N([H])C([H])([H])[H])C([H])([H])[H])C(C([H])([H])[H])(C([H])([H])[H])C([H])([H])[H])C([H])([H])c2c([H])c(OC([H])([H])C([H])(C(=O)N([H])C([H])([H])C(N([H])[H])=[N+]([H])N([H])C(=O)N3C([H])([H])C([H])([H])C([H])([H])C([H])(n4nc(-c5c([H])c([H])c(Oc6c([H])c([H])c(F)c([H])c6F)c([H])c5[H])c(C(=O)N([H])[H])c4N([H])[H])C3([H])[H])N([H])C(=O)C([H])(C([H])([H])[H])[N+]([H])([H])C([H])([H])[H])c([H])c([H])c2C1([H])[H]

>  <smiles>  (3) 
[H]c1c([H])c([H])c2c(c1[H])C([H])([H])C([H])([H])C([H])([H])C2([H])N([H])C(=O)C1([H])N(C(=O)C([H])(N([H])C(=O)C([H])(N([H])C([H])([H])[H])C([H])([H])[H])C(C([H])([H])[H])(C([H])([H])[H])C([H])([H])[H])C([H])([H])c2c([H])c(OC([H])([H])C([H])(C(=O)N([H])C([H])([H])C(N([H])[H])=[N+]([H])N([H])C(=O)N3C([H])([H])C([H])([H])C([H])([H])C([H])(n4nc(-c5c([H])c([H])c(Oc6c([H])c([H])c(F)c([H])c6F)c([H])c5[H])c(C(=O)N([H])[H])c4N([H])[H])C3([H])[H])N([H])C(=O)C([H])(C([H])([H])[H])[N+]([H])([H])C([H])([H])[H])c([H])c([H])c2C1([H])[H]

$$$$
4:0:0
     RDKit          3D

106113  0  0  1  0  0  0  0  0999 V2000
  -30.1410  -21.2600   20.3230 C   0  0  0  0  0  3  0  0  0  0  0  0
  -29.3120  -21.9280   21.4260 C   0  0  0  0  0  0  0  0  0  0  0  0
  -27.9860  -21.9410   21.2580 N   0  0  0  0  0  0  0  0  0  0  0  0
  -29.8760  -22.4000   22.4160 O   0  0  0  0  0  0  0  0  0  0  0  0
  -27.6170  -21.5240   20.4140 H   0  0  0  0  0  0  0  0  0  0  0  0
  -27.0260  -22.5740   22.1600 C   0  0  0  0  0  2  0  0  0  0  0  0
  -26.4780  -23.8640   21.5360 C   0  0  0  0  0  2  0  0  0  0  0  0
  -27.5690  -24.7030   21.1650 O   0  0  0  0  0  0  0  0  0  0  0  0
  -27.2670  -25.5180   20.0510 C   0  0  0  0  0  2  0  0  0  0  0  0
  -28.3820  -26.5520   19.7990 C   0  0  0  0  0  2  0  0  0  0  0  0
  -28.0470  -27.4640   18.7500 O   0  0  0  0  0  0  0  0  0  0  0  0
  -24.3690  -31.7240   23.0910 C   0  0  0  0  0  0  0  0  0  0  0  0
  -26.8760  -28.1360   18.9840 C   0  0  0  0  0  0  0  0  0  0  0  0
  -23.0640  -30.5720   21.3350 C   0  0  0  0  0  3  0  0  0  0  0  0
  -24.4290  -29.4260   19.5100 C   0  0  0  0  0  0  0  0  0  0  0  0
  -25.5320  -31.1250   20.9750 C   0  0  0  0  0  2  0  0  0  0  0  0
  -25.6140  -29.9070   20.0830 C   0  0  0  0  0  0  0  0  0  0  0  0
  -26.8410  -29.2620   19.8300 C   0  0  0  0  0  3  0  0  0  0  0  0
  -25.6850  -27.6740   18.3890 C   0  0  0  0  0  3  0  0  0  0  0  0
  -24.4580  -28.3010   18.6660 C   0  0  0  0  0  3  0  0  0  0  0  0
  -23.1570  -30.1730   19.8380 C   0  0  0  0  0  2  0  0  0  0  0  0
  -24.3460  -31.1450   21.8590 N   0  0  0  0  0  0  0  0  0  0  0  0
  -23.3400  -31.8210   23.7710 O   0  0  0  0  0  0  0  0  0  0  0  0
  -22.5620  -29.3500   22.1380 C   0  0  0  0  0  0  0  0  0  0  0  0
  -21.2480  -29.0900   22.0730 N   0  0  0  0  0  0  0  0  0  0  0  0
  -23.3510  -28.6500   22.7800 O   0  0  0  0  0  0  0  0  0  0  0  0
  -20.6690  -29.7160   21.5310 H   0  0  0  0  0  0  0  0  0  0  0  0
  -18.0170  -27.5370   22.5260 C   0  0  0  0  0  0  0  0  0  0  0  0
  -20.5570  -27.9750   22.7180 C   0  0  0  0  0  3  0  0  0  0  0  0
  -20.7420  -26.6650   21.9160 C   0  0  0  0  0  2  0  0  0  0  0  0
  -19.6100  -26.4080   20.9160 C   0  0  0  0  0  2  0  0  0  0  0  0
  -18.2610  -26.3300   21.6360 C   0  0  0  0  0  2  0  0  0  0  0  0
  -19.0960  -28.3180   23.0210 C   0  0  0  0  0  0  0  0  0  0  0  0
  -18.8120  -29.4510   23.8140 C   0  0  0  0  0  3  0  0  0  0  0  0
  -17.4840  -29.8060   24.1170 C   0  0  0  0  0  3  0  0  0  0  0  0
  -16.4220  -29.0180   23.6410 C   0  0  0  0  0  3  0  0  0  0  0  0
  -16.6890  -27.8860   22.8520 C   0  0  0  0  0  3  0  0  0  0  0  0
  -25.6830  -32.3130   23.6920 C   0  0  0  0  0  3  0  0  0  0  0  0
  -25.3930  -33.6840   24.1320 N   0  0  0  0  0  0  0  0  0  0  0  0
  -25.6980  -34.7850   23.4330 C   0  0  0  0  0  0  0  0  0  0  0  0
  -26.3220  -34.7520   22.3700 O   0  0  0  0  0  0  0  0  0  0  0  0
  -24.8400  -33.7820   24.9710 H   0  0  0  0  0  0  0  0  0  0  0  0
  -23.9580  -36.5910   23.2730 C   0  0  0  0  0  1  0  0  0  0  0  0
  -25.2320  -36.1380   24.0040 C   0  0  0  0  0  3  0  0  0  0  0  0
  -27.4000  -36.9610   24.8040 C   0  0  0  0  0  1  0  0  0  0  0  0
  -26.2600  -37.1990   23.9240 N   0  0  0  0  0  0  0  0  0  0  0  0
  -25.8630  -38.1060   24.1540 H   0  0  0  0  0  0  0  0  0  0  0  0
  -26.2580  -31.4550   24.8850 C   0  0  1  0  0  0  0  0  0  0  0  0
  -25.2150  -31.1320   25.9810 C   0  0  0  0  0  1  0  0  0  0  0  0
  -26.8290  -30.1170   24.3640 C   0  0  0  0  0  1  0  0  0  0  0  0
  -27.4360  -32.2070   25.5490 C   0  0  0  0  0  1  0  0  0  0  0  0
  -32.1240  -22.0530   19.0350 C   0  0  0  0  0  0  0  0  0  0  0  0
  -31.4200  -21.9460   20.1680 N   0  0  0  0  0  0  0  0  0  0  0  0
  -31.7560  -21.5410   17.9750 O   0  0  0  0  0  0  0  0  0  0  0  0
  -31.7520  -22.4210   20.9980 H   0  0  0  0  0  0  0  0  0  0  0  0
  -33.4300  -22.8450   19.1010 C   0  0  0  0  0  2  0  0  0  0  0  0
  -34.1370  -22.8130   17.8130 N   0  0  0  0  0  4  0  0  0  0  0  0
  -34.3100  -21.8580   17.5580 H   0  0  0  0  0  0  0  0  0  0  0  0
  -35.0040  -23.3130   17.8690 H   0  0  0  0  0  0  0  0  0  0  0  0
  -33.5540  -23.2220   17.1060 H   0  0  0  0  0  0  0  0  0  0  0  0
  -30.3500  -19.7480   20.5380 C   0  0  0  0  0  2  0  0  0  0  0  0
  -31.3550  -19.4110   21.6640 C   0  0  0  0  0  2  0  0  0  0  0  0
  -32.3040  -18.2950   21.2580 C   0  0  0  0  0  0  0  0  0  0  0  0
  -31.7750  -17.0770   21.1170 N   0  0  0  0  0  0  0  0  0  0  0  0
  -33.5000  -18.5310   21.0790 O   0  0  0  0  0  0  0  0  0  0  0  0
  -30.7820  -16.9550   21.2690 H   0  0  0  0  0  0  0  0  0  0  0  0
  -32.5350  -15.9080   20.7170 C   0  0  0  0  0  2  0  0  0  0  0  0
  -31.8660  -14.6220   21.2260 C   0  0  0  0  0  2  0  0  0  0  0  0
  -30.2300  -14.0900   19.4200 C   0  0  0  0  0  0  0  0  0  0  0  0
  -29.5350  -12.1080   18.1520 C   0  0  0  0  0  2  0  0  0  0  0  0
  -28.3360  -12.2990   17.2140 C   0  0  0  0  0  2  0  0  0  0  0  0
  -27.0240  -12.0660   17.9750 C   0  0  0  0  0  2  0  0  0  0  0  0
  -26.9490  -12.8940   19.2850 C   0  0  0  0  0  3  0  0  0  0  0  0
  -28.2310  -12.7350   20.1310 C   0  0  0  0  0  2  0  0  0  0  0  0
  -29.4040  -13.0290   19.2870 N   0  0  0  0  0  0  0  0  0  0  0  0
  -30.8920  -14.5640   18.4930 O   0  0  0  0  0  0  0  0  0  0  0  0
  -30.5240  -14.3440   20.7020 N   0  0  0  0  0  0  0  0  0  0  0  0
  -29.8990  -13.8970   21.3580 H   0  0  0  0  0  0  0  0  0  0  0  0
  -24.7960  -13.4000   20.6010 C   0  0  0  0  0  0  0  0  0  0  0  0
  -23.8420  -12.5810   21.1440 C   0  0  0  0  0  0  0  0  0  0  0  0
  -24.2720  -11.2430   20.8810 C   0  0  0  0  0  0  0  0  0  0  0  0
  -25.7500  -12.5580   20.0510 N   0  0  0  0  0  0  0  0  0  0  0  0
  -25.4520  -11.2500   20.2720 N   0  0  0  0  0  0  0  0  0  0  0  0
  -23.6060   -9.9580   21.1260 C   0  0  0  0  0  0  0  0  0  0  0  0
  -24.1670   -8.9850   21.9840 C   0  0  0  0  0  3  0  0  0  0  0  0
  -23.4970   -7.7650   22.2190 C   0  0  0  0  0  3  0  0  0  0  0  0
  -22.2510   -7.5090   21.5980 C   0  0  0  0  0  0  0  0  0  0  0  0
  -21.7080   -8.4710   20.7290 C   0  0  0  0  0  3  0  0  0  0  0  0
  -22.3790   -9.6820   20.4910 C   0  0  0  0  0  3  0  0  0  0  0  0
  -21.5420   -6.3410   21.7460 O   0  0  0  0  0  0  0  0  0  0  0  0
  -21.5800   -5.6200   22.9120 C   0  0  0  0  0  0  0  0  0  0  0  0
  -21.1760   -6.1750   24.1450 C   0  0  0  0  0  3  0  0  0  0  0  0
  -21.1640   -5.3780   25.3060 C   0  0  0  0  0  3  0  0  0  0  0  0
  -21.5440   -4.0230   25.2370 C   0  0  0  0  0  0  0  0  0  0  0  0
  -21.9430   -3.4680   24.0070 C   0  0  0  0  0  3  0  0  0  0  0  0
  -21.9570   -4.2630   22.8480 C   0  0  0  0  0  0  0  0  0  0  0  0
  -22.3200   -3.7160   21.6630 F   0  0  0  0  0  0  0  0  0  0  0  0
  -21.5250   -3.2560   26.3500 F   0  0  0  0  0  0  0  0  0  0  0  0
  -22.5570  -13.0100   21.7890 C   0  0  0  0  0  0  0  0  0  0  0  0
  -22.0650  -12.2380   22.7520 N   0  0  0  0  0  0  0  0  0  0  0  0
  -22.0050  -14.0640   21.4770 O   0  0  0  0  0  0  0  0  0  0  0  0
  -22.5280  -11.3810   23.0190 H   0  0  0  0  0  0  0  0  0  0  0  0
  -21.2150  -12.5050   23.2260 H   0  0  0  0  0  0  0  0  0  0  0  0
  -24.9250  -14.7820   20.5110 N   0  0  0  0  0  0  0  0  0  0  0  0
  -24.2210  -15.4240   20.8600 H   0  0  0  0  0  0  0  0  0  0  0  0
  -25.6950  -15.2510   20.0490 H   0  0  0  0  0  0  0  0  0  0  0  0
  1 61  1  0
  1  2  1  0
  2  4  2  0
  3  2  1  0
  3  6  1  0
  5  3  1  0
  7  6  1  0
  8  7  1  0
  9  8  1  0
 10  9  1  0
 11 13  1  0
 11 10  1  0
 12 23  2  0
 13 18  1  0
 14 22  1  0
 14 24  1  0
 15 21  1  0
 15 17  1  0
 16 22  1  0
 17 16  1  0
 18 17  2  0
 19 20  1  0
 19 13  2  0
 20 15  2  0
 21 14  1  0
 22 12  1  0
 24 26  2  0
 25 24  1  0
 27 25  1  0
 28 37  2  0
 28 33  1  0
 29 25  1  0
 29 33  1  0
 30 29  1  0
 31 32  1  0
 31 30  1  0
 32 28  1  0
 33 34  2  0
 34 35  1  0
 36 35  2  0
 37 36  1  0
 38 12  1  0
 38 39  1  0
 38 48  1  0
 39 42  1  0
 40 44  1  0
 40 39  1  0
 41 40  2  0
 44 43  1  0
 46 44  1  0
 46 47  1  0
 46 45  1  0
 48 51  1  1
 48 49  1  0
 50 48  1  0
 52 56  1  0
 52 53  1  0
 53  1  1  0
 53 55  1  0
 54 52  2  0
 57 59  1  0
 57 56  1  0
 58 57  1  0
 60 57  1  0
 61 62  1  0
 63 62  1  0
 64 63  1  0
 64 66  1  0
 65 63  2  0
 67 64  1  0
 67 68  1  0
 69 77  1  0
 70 75  1  0
 71 72  1  0
 71 70  1  0
 73 72  1  0
 73 82  1  0
 73 74  1  0
 75 69  1  0
 75 74  1  0
 76 69  2  0
 77 68  1  0
 77 78  1  0
 79 80  2  0
 80 99  1  0
 81 84  1  0
 81 80  1  0
 82 83  1  0
 82 79  1  0
 83 81  2  0
 84 85  1  0
 85 86  2  0
 87 90  1  0
 87 86  1  0
 88 87  2  0
 89 88  1  0
 89 84  2  0
 90 91  1  0
 91 92  1  0
 92 93  2  0
 94 93  1  0
 94 98  1  0
 95 94  2  0
 96 91  2  0
 96 95  1  0
 97 96  1  0
 99100  1  0
100102  1  0
100103  1  0
101 99  2  0
104 79  1  0
104105  1  0
106104  1  0
M  ISO  4  10 101  11 101  69 100  77 100
M  END
>  <TORSDO>  (4) 
F 30

>  <SCORE>  (4) 
-7.466

>  <name>  (4) 
4

>  <ligand_id>  (4) 
4

>  <original_smiles>  (4) 
[H]c1c([H])c([H])c2c(c1[H])C([H])([H])C([H])([H])C([H])([H])C2([H])N([H])C(=O)C1([H])N(C(=O)C([H])(N([H])C(=O)C([H])(N([H])C([H])([H])[H])C([H])([H])[H])C(C([H])([H])[H])(C([H])([H])[H])C([H])([H])[H])C([H])([H])c2c([H])c(OC([H])([H])C([H])([H])OC([H])([H])C([H])([H])N([H])C(=O)C([H])(N([H])C(=O)C([H])([H])[N+]([H])([H])[H])C([H])([H])C([H])([H])C(=O)N([H])C([H])([H])C([H])([H])N([H])C(=O)N3C([H])([H])C([H])([H])C([H])([H])C([H])(n4nc(-c5c([H])c([H])c(Oc6c([H])c([H])c(F)c([H])c6F)c([H])c5[H])c(C(=O)N([H])[H])c4N([H])[H])C3([H])[H])c([H])c([H])c2C1([H])[H]

>  <smiles>  (4) 
[H]c1c([H])c([H])c2c(c1[H])C([H])([H])C([H])([H])C([H])([H])C2([H])N([H])C(=O)C1([H])N(C(=O)C([H])(N([H])C(=O)C([H])(N([H])C([H])([H])[H])C([H])([H])[H])C(C([H])([H])[H])(C([H])([H])[H])C([H])([H])[H])C([H])([H])c2c([H])c(OC([H])([H])C([H])([H])OC([H])([H])C([H])([H])N([H])C(=O)C([H])(N([H])C(=O)C([H])([H])[N+]([H])([H])[H])C([H])([H])C([H])([H])C(=O)N([H])C([H])([H])C([H])([H])N([H])C(=O)N3C([H])([H])C([H])([H])C([H])([H])C([H])(n4nc(-c5c([H])c([H])c(Oc6c([H])c([H])c(F)c([H])c6F)c([H])c5[H])c(C(=O)N([H])[H])c4N([H])[H])C3([H])[H])c([H])c([H])c2C1([H])[H]

$$$$
5:0:0
     RDKit          3D

 90 97  0  0  1  0  0  0  0  0999 V2000
  -29.4860  -22.9210   20.7160 C   0  0  0  0  0  0  0  0  0  0  0  0
  -29.4300  -21.7240   21.4180 N   0  0  0  0  0  0  0  0  0  0  0  0
  -29.3760  -23.0510   19.4960 O   0  0  0  0  0  0  0  0  0  0  0  0
  -29.5540  -21.8010   22.4200 H   0  0  0  0  0  0  0  0  0  0  0  0
  -29.1250  -20.4150   20.8240 C   0  0  0  0  0  2  0  0  0  0  0  0
  -30.1210  -19.3070   21.2550 C   0  0  0  0  0  2  0  0  0  0  0  0
  -29.6940  -17.8800   20.8210 C   0  0  0  0  0  2  0  0  0  0  0  0
  -30.7070  -16.7740   21.2110 C   0  0  0  0  0  2  0  0  0  0  0  0
  -30.7800  -14.4480   20.2350 C   0  0  0  0  0  0  0  0  0  0  0  0
  -30.3940  -12.3080   19.0630 C   0  0  0  0  0  2  0  0  0  0  0  0
  -29.4120  -12.5260   17.8940 C   0  0  0  0  0  2  0  0  0  0  0  0
  -27.9530  -12.4110   18.3750 C   0  0  0  0  0  2  0  0  0  0  0  0
  -27.6750  -13.2470   19.6540 C   0  0  0  0  0  3  0  0  0  0  0  0
  -28.7640  -13.0040   20.7220 C   0  0  0  0  0  2  0  0  0  0  0  0
  -30.0740  -13.2920   20.1090 N   0  0  0  0  0  0  0  0  0  0  0  0
  -31.8540  -14.6440   19.6600 O   0  0  0  0  0  0  0  0  0  0  0  0
  -30.1940  -15.4140   20.9670 N   0  0  0  0  0  0  0  0  0  0  0  0
  -29.3190  -15.1670   21.4050 H   0  0  0  0  0  0  0  0  0  0  0  0
  -25.3140  -13.8910   20.4540 C   0  0  0  0  0  0  0  0  0  0  0  0
  -24.2450  -13.1340   20.8530 C   0  0  0  0  0  0  0  0  0  0  0  0
  -24.6780  -11.7740   20.7880 C   0  0  0  0  0  0  0  0  0  0  0  0
  -26.3340  -12.9930   20.1770 N   0  0  0  0  0  0  0  0  0  0  0  0
  -25.9560  -11.7140   20.4310 N   0  0  0  0  0  0  0  0  0  0  0  0
  -23.9350  -10.5240   20.9900 C   0  0  0  0  0  0  0  0  0  0  0  0
  -24.3720   -9.5450   21.9080 C   0  0  0  0  0  3  0  0  0  0  0  0
  -23.6320   -8.3580   22.0980 C   0  0  0  0  0  3  0  0  0  0  0  0
  -22.4360   -8.1430   21.3700 C   0  0  0  0  0  0  0  0  0  0  0  0
  -22.0170   -9.1110   20.4400 C   0  0  0  0  0  3  0  0  0  0  0  0
  -22.7580  -10.2900   20.2500 C   0  0  0  0  0  3  0  0  0  0  0  0
  -21.6660   -7.0100   21.4710 O   0  0  0  0  0  0  0  0  0  0  0  0
  -21.6220   -6.2690   22.6250 C   0  0  0  0  0  0  0  0  0  0  0  0
  -21.2080   -6.8270   23.8540 C   0  0  0  0  0  3  0  0  0  0  0  0
  -21.1120   -6.0120   25.0010 C   0  0  0  0  0  3  0  0  0  0  0  0
  -21.4170   -4.6410   24.9180 C   0  0  0  0  0  0  0  0  0  0  0  0
  -21.8230   -4.0820   23.6930 C   0  0  0  0  0  3  0  0  0  0  0  0
  -21.9220   -4.8940   22.5490 C   0  0  0  0  0  0  0  0  0  0  0  0
  -22.2920   -4.3460   21.3670 F   0  0  0  0  0  0  0  0  0  0  0  0
  -21.3180   -3.8560   26.0160 F   0  0  0  0  0  0  0  0  0  0  0  0
  -22.8690  -13.6330   21.1850 C   0  0  0  0  0  0  0  0  0  0  0  0
  -22.1620  -12.9370   22.0700 N   0  0  0  0  0  0  0  0  0  0  0  0
  -22.4300  -14.6740   20.6980 O   0  0  0  0  0  0  0  0  0  0  0  0
  -22.5300  -12.0970   22.4880 H   0  0  0  0  0  0  0  0  0  0  0  0
  -21.2390  -13.2530   22.3330 H   0  0  0  0  0  0  0  0  0  0  0  0
  -25.5010  -15.2600   20.2870 N   0  0  0  0  0  0  0  0  0  0  0  0
  -24.7510  -15.9290   20.4240 H   0  0  0  0  0  0  0  0  0  0  0  0
  -26.3550  -15.6850   19.9490 H   0  0  0  0  0  0  0  0  0  0  0  0
  -29.7030  -23.9270   21.5850 O   0  0  0  0  0  0  0  0  0  0  0  0
  -30.1100  -25.2300   21.1400 C   0  0  0  0  0  2  0  0  0  0  0  0
  -29.0530  -26.3380   21.3580 C   0  0  0  0  0  2  0  0  0  0  0  0
  -28.4240  -26.6680   20.1210 O   0  0  0  0  0  0  0  0  0  0  0  0
  -24.6030  -31.8910   23.2180 C   0  0  0  0  0  0  0  0  0  0  0  0
  -27.2880  -27.4430   20.1870 C   0  0  0  0  0  0  0  0  0  0  0  0
  -23.4160  -30.4810   21.5680 C   0  0  0  0  0  3  0  0  0  0  0  0
  -24.8890  -28.9390   20.1670 C   0  0  0  0  0  0  0  0  0  0  0  0
  -25.9420  -30.8420   21.3980 C   0  0  0  0  0  2  0  0  0  0  0  0
  -26.0390  -29.4640   20.7750 C   0  0  0  0  0  0  0  0  0  0  0  0
  -27.2410  -28.7190   20.7960 C   0  0  0  0  0  3  0  0  0  0  0  0
  -26.1300  -26.9360   19.5660 C   0  0  0  0  0  3  0  0  0  0  0  0
  -24.9290  -27.6700   19.5640 C   0  0  0  0  0  3  0  0  0  0  0  0
  -23.6440  -29.7960   20.1930 C   0  0  0  0  0  2  0  0  0  0  0  0
  -24.6710  -31.0860   22.1200 N   0  0  0  0  0  0  0  0  0  0  0  0
  -23.5160  -32.1640   23.7450 O   0  0  0  0  0  0  0  0  0  0  0  0
  -22.7570  -29.4620   22.5250 C   0  0  0  0  0  0  0  0  0  0  0  0
  -21.4320  -29.2900   22.3950 N   0  0  0  0  0  0  0  0  0  0  0  0
  -23.4350  -28.8300   23.3390 O   0  0  0  0  0  0  0  0  0  0  0  0
  -20.9470  -29.8520   21.7100 H   0  0  0  0  0  0  0  0  0  0  0  0
  -18.0420  -28.1470   22.9100 C   0  0  0  0  0  0  0  0  0  0  0  0
  -20.6060  -28.3570   23.1620 C   0  0  0  0  0  3  0  0  0  0  0  0
  -20.6790  -26.9320   22.5670 C   0  0  0  0  0  2  0  0  0  0  0  0
  -19.5620  -26.6410   21.5590 C   0  0  0  0  0  2  0  0  0  0  0  0
  -18.1890  -26.8030   22.2170 C   0  0  0  0  0  2  0  0  0  0  0  0
  -19.1780  -28.8840   23.3380 C   0  0  0  0  0  0  0  0  0  0  0  0
  -18.9870  -30.1450   23.9450 C   0  0  0  0  0  3  0  0  0  0  0  0
  -17.6930  -30.6680   24.1280 C   0  0  0  0  0  3  0  0  0  0  0  0
  -16.5720  -29.9280   23.7150 C   0  0  0  0  0  3  0  0  0  0  0  0
  -16.7470  -28.6690   23.1100 C   0  0  0  0  0  3  0  0  0  0  0  0
  -25.8830  -32.5240   23.8470 C   0  0  0  0  0  3  0  0  0  0  0  0
  -25.5710  -33.9230   24.1700 N   0  0  0  0  0  0  0  0  0  0  0  0
  -25.9130  -34.9720   23.4110 C   0  0  0  0  0  0  0  0  0  0  0  0
  -26.5950  -34.8650   22.3880 O   0  0  0  0  0  0  0  0  0  0  0  0
  -24.9660  -34.0800   24.9630 H   0  0  0  0  0  0  0  0  0  0  0  0
  -24.1930  -36.7650   23.0210 C   0  0  0  0  0  1  0  0  0  0  0  0
  -25.4180  -36.3620   23.8560 C   0  0  0  0  0  3  0  0  0  0  0  0
  -27.5370  -37.2460   24.7270 C   0  0  0  0  0  1  0  0  0  0  0  0
  -26.4540  -37.4130   23.7610 N   0  0  0  0  0  0  0  0  0  0  0  0
  -26.0460  -38.3340   23.8980 H   0  0  0  0  0  0  0  0  0  0  0  0
  -26.3920  -31.7560   25.1270 C   0  0  1  0  0  0  0  0  0  0  0  0
  -25.2910  -31.5150   26.1870 C   0  0  0  0  0  1  0  0  0  0  0  0
  -26.9830  -30.3800   24.7390 C   0  0  0  0  0  1  0  0  0  0  0  0
  -27.5350  -32.5550   25.8000 C   0  0  0  0  0  1  0  0  0  0  0  0
  1  2  1  0
  1 47  1  0
  2  4  1  0
  3  1  2  0
  5  6  1  0
  5  2  1  0
  7  8  1  0
  7  6  1  0
  9 17  1  0
 10 15  1  0
 11 12  1  0
 11 10  1  0
 13 12  1  0
 13 22  1  0
 13 14  1  0
 15  9  1  0
 15 14  1  0
 16  9  2  0
 17  8  1  0
 17 18  1  0
 19 20  2  0
 20 39  1  0
 21 20  1  0
 21 24  1  0
 22 23  1  0
 22 19  1  0
 23 21  2  0
 24 25  1  0
 25 26  2  0
 27 30  1  0
 27 26  1  0
 28 27  2  0
 29 28  1  0
 29 24  2  0
 30 31  1  0
 31 32  1  0
 32 33  2  0
 34 33  1  0
 34 38  1  0
 35 34  2  0
 36 31  2  0
 36 35  1  0
 37 36  1  0
 39 40  1  0
 40 43  1  0
 40 42  1  0
 41 39  2  0
 44 45  1  0
 44 19  1  0
 46 44  1  0
 48 49  1  0
 48 47  1  0
 50 52  1  0
 50 49  1  0
 51 62  2  0
 52 57  1  0
 53 61  1  0
 53 63  1  0
 54 60  1  0
 54 56  1  0
 55 61  1  0
 56 57  2  0
 56 55  1  0
 58 52  2  0
 59 58  1  0
 59 54  2  0
 60 53  1  0
 61 51  1  0
 63 65  2  0
 64 63  1  0
 66 64  1  0
 67 76  2  0
 67 72  1  0
 68 64  1  0
 68 72  1  0
 69 68  1  0
 70 71  1  0
 70 69  1  0
 71 67  1  0
 72 73  2  0
 73 74  1  0
 75 74  2  0
 76 75  1  0
 77 51  1  0
 77 78  1  0
 77 87  1  0
 78 81  1  0
 79 83  1  0
 79 78  1  0
 80 79  2  0
 83 82  1  0
 85 83  1  0
 85 86  1  0
 85 84  1  0
 87 90  1  1
 87 88  1  0
 89 87  1  0
M  ISO  4   9 100  17 100  49 101  50 101
M  END
>  <TORSDO>  (5) 
F 23

>  <SCORE>  (5) 
-12.783

>  <name>  (5) 
5

>  <ligand_id>  (5) 
5

>  <original_smiles>  (5) 
[H]c1c([H])c([H])c2c(c1[H])C([H])([H])C([H])([H])C([H])([H])C2([H])N([H])C(=O)C1([H])N(C(=O)C([H])(N([H])C(=O)C([H])(N([H])C([H])([H])[H])C([H])([H])[H])C(C([H])([H])[H])(C([H])([H])[H])C([H])([H])[H])C([H])([H])c2c([H])c(OC([H])([H])C([H])([H])OC(=O)N([H])C([H])([H])C([H])([H])C([H])([H])C([H])([H])N([H])C(=O)N3C([H])([H])C([H])([H])C([H])([H])C([H])(n4nc(-c5c([H])c([H])c(Oc6c([H])c([H])c(F)c([H])c6F)c([H])c5[H])c(C(=O)N([H])[H])c4N([H])[H])C3([H])[H])c([H])c([H])c2C1([H])[H]

>  <smiles>  (5) 
[H]c1c([H])c([H])c2c(c1[H])C([H])([H])C([H])([H])C([H])([H])C2([H])N([H])C(=O)C1([H])N(C(=O)C([H])(N([H])C(=O)C([H])(N([H])C([H])([H])[H])C([H])([H])[H])C(C([H])([H])[H])(C([H])([H])[H])C([H])([H])[H])C([H])([H])c2c([H])c(OC([H])([H])C([H])([H])OC(=O)N([H])C([H])([H])C([H])([H])C([H])([H])C([H])([H])N([H])C(=O)N3C([H])([H])C([H])([H])C([H])([H])C([H])(n4nc(-c5c([H])c([H])c(Oc6c([H])c([H])c(F)c([H])c6F)c([H])c5[H])c(C(=O)N([H])[H])c4N([H])[H])C3([H])[H])c([H])c([H])c2C1([H])[H]

$$$$
6:0:0
     RDKit          3D

107114  0  0  1  0  0  0  0  0999 V2000
  -30.2510  -20.7430   19.2610 C   0  0  0  0  0  3  0  0  0  0  0  0
  -29.7850  -21.8760   20.2320 C   0  0  0  0  0  0  0  0  0  0  0  0
  -29.0940  -22.9420   19.7500 N   0  0  0  0  0  0  0  0  0  0  0  0
  -30.1250  -21.8200   21.4140 O   0  0  0  0  0  0  0  0  0  0  0  0
  -28.7680  -22.9030   18.7940 H   0  0  0  0  0  0  0  0  0  0  0  0
  -28.7380  -24.1770   20.5000 C   0  0  0  0  0  2  0  0  0  0  0  0
  -28.4940  -25.4280   19.5900 C   0  0  0  0  0  2  0  0  0  0  0  0
  -28.3060  -26.6850   20.3000 O   0  0  0  0  0  0  0  0  0  0  0  0
  -24.5380  -32.0030   23.2400 C   0  0  0  0  0  0  0  0  0  0  0  0
  -27.1220  -27.4180   20.2520 C   0  0  0  0  0  0  0  0  0  0  0  0
  -23.3130  -30.5760   21.6370 C   0  0  0  0  0  3  0  0  0  0  0  0
  -24.7450  -28.9920   20.2380 C   0  0  0  0  0  0  0  0  0  0  0  0
  -25.8450  -30.8930   21.4280 C   0  0  0  0  0  2  0  0  0  0  0  0
  -25.9160  -29.5040   20.8120 C   0  0  0  0  0  0  0  0  0  0  0  0
  -27.1030  -28.7270   20.8120 C   0  0  0  0  0  3  0  0  0  0  0  0
  -25.9190  -26.9320   19.6830 C   0  0  0  0  0  3  0  0  0  0  0  0
  -24.7490  -27.7090   19.6690 C   0  0  0  0  0  3  0  0  0  0  0  0
  -23.5130  -29.8680   20.2700 C   0  0  0  0  0  2  0  0  0  0  0  0
  -24.5850  -31.1740   22.1580 N   0  0  0  0  0  0  0  0  0  0  0  0
  -23.4600  -32.3050   23.7730 O   0  0  0  0  0  0  0  0  0  0  0  0
  -22.6580  -29.5790   22.6180 C   0  0  0  0  0  0  0  0  0  0  0  0
  -21.3340  -29.3920   22.4870 N   0  0  0  0  0  0  0  0  0  0  0  0
  -23.3350  -28.9770   23.4550 O   0  0  0  0  0  0  0  0  0  0  0  0
  -20.8530  -29.9230   21.7750 H   0  0  0  0  0  0  0  0  0  0  0  0
  -17.9550  -28.2010   22.9810 C   0  0  0  0  0  0  0  0  0  0  0  0
  -20.5080  -28.4760   23.2750 C   0  0  0  0  0  3  0  0  0  0  0  0
  -20.6210  -27.0290   22.7410 C   0  0  0  0  0  2  0  0  0  0  0  0
  -19.5310  -26.6740   21.7230 C   0  0  0  0  0  2  0  0  0  0  0  0
  -18.1410  -26.8310   22.3480 C   0  0  0  0  0  2  0  0  0  0  0  0
  -19.0670  -28.9790   23.4000 C   0  0  0  0  0  0  0  0  0  0  0  0
  -18.8390  -30.2590   23.9470 C   0  0  0  0  0  3  0  0  0  0  0  0
  -17.5310  -30.7640   24.0820 C   0  0  0  0  0  3  0  0  0  0  0  0
  -16.4330  -29.9830   23.6810 C   0  0  0  0  0  3  0  0  0  0  0  0
  -16.6450  -28.7040   23.1360 C   0  0  0  0  0  3  0  0  0  0  0  0
  -25.8330  -32.6340   23.8410 C   0  0  0  0  0  3  0  0  0  0  0  0
  -25.5290  -34.0320   24.1700 N   0  0  0  0  0  0  0  0  0  0  0  0
  -25.8210  -35.0790   23.3860 C   0  0  0  0  0  0  0  0  0  0  0  0
  -26.4480  -34.9690   22.3280 O   0  0  0  0  0  0  0  0  0  0  0  0
  -24.9570  -34.1880   24.9870 H   0  0  0  0  0  0  0  0  0  0  0  0
  -24.0470  -36.8420   23.1130 C   0  0  0  0  0  1  0  0  0  0  0  0
  -25.3410  -36.4680   23.8490 C   0  0  0  0  0  3  0  0  0  0  0  0
  -27.5100  -37.3950   24.5330 C   0  0  0  0  0  1  0  0  0  0  0  0
  -26.3490  -37.5310   23.6550 N   0  0  0  0  0  0  0  0  0  0  0  0
  -25.9420  -38.4490   23.8110 H   0  0  0  0  0  0  0  0  0  0  0  0
  -26.3670  -31.8620   25.1110 C   0  0  1  0  0  0  0  0  0  0  0  0
  -25.2770  -31.5860   26.1730 C   0  0  0  0  0  1  0  0  0  0  0  0
  -26.9870  -30.5040   24.7080 C   0  0  0  0  0  1  0  0  0  0  0  0
  -27.4950  -32.6820   25.7840 C   0  0  0  0  0  1  0  0  0  0  0  0
  -30.1580  -18.2110   19.6600 C   0  0  0  0  0  0  0  0  0  0  0  0
  -30.5190  -19.4700   19.9840 N   0  0  0  0  0  0  0  0  0  0  0  0
  -29.2590  -17.9640   18.8570 O   0  0  0  0  0  0  0  0  0  0  0  0
  -31.1340  -19.5570   20.7850 H   0  0  0  0  0  0  0  0  0  0  0  0
  -31.0270  -17.0570   20.2390 C   0  0  0  0  0  3  0  0  0  0  0  0
  -31.0950  -14.5730   19.7460 C   0  0  0  0  0  0  0  0  0  0  0  0
  -30.6930  -12.3140   18.8310 C   0  0  0  0  0  2  0  0  0  0  0  0
  -29.7110  -12.4060   17.6460 C   0  0  0  0  0  2  0  0  0  0  0  0
  -28.2570  -12.3350   18.1500 C   0  0  0  0  0  2  0  0  0  0  0  0
  -27.9810  -13.3080   19.3270 C   0  0  0  0  0  3  0  0  0  0  0  0
  -29.0780  -13.2020   20.4100 C   0  0  0  0  0  2  0  0  0  0  0  0
  -30.3760  -13.4170   19.7540 N   0  0  0  0  0  0  0  0  0  0  0  0
  -32.2280  -14.6400   19.2610 O   0  0  0  0  0  0  0  0  0  0  0  0
  -30.4480  -15.6920   20.1400 N   0  0  0  0  0  0  0  0  0  0  0  0
  -29.4850  -15.5880   20.4190 H   0  0  0  0  0  0  0  0  0  0  0  0
  -25.7130  -14.0510   20.2750 C   0  0  0  0  0  0  0  0  0  0  0  0
  -24.6010  -13.3440   20.6500 C   0  0  0  0  0  0  0  0  0  0  0  0
  -24.9250  -11.9670   20.4540 C   0  0  0  0  0  0  0  0  0  0  0  0
  -26.6450  -13.1060   19.8830 N   0  0  0  0  0  0  0  0  0  0  0  0
  -26.1800  -11.8410   20.0440 N   0  0  0  0  0  0  0  0  0  0  0  0
  -24.0920  -10.7630   20.5730 C   0  0  0  0  0  0  0  0  0  0  0  0
  -24.5160   -9.6420   21.3210 C   0  0  0  0  0  3  0  0  0  0  0  0
  -23.6900   -8.5050   21.4360 C   0  0  0  0  0  3  0  0  0  0  0  0
  -22.4220   -8.4810   20.8060 C   0  0  0  0  0  0  0  0  0  0  0  0
  -22.0140   -9.5910   20.0440 C   0  0  0  0  0  3  0  0  0  0  0  0
  -22.8420  -10.7200   19.9250 C   0  0  0  0  0  3  0  0  0  0  0  0
  -21.5610   -7.4100   20.8440 O   0  0  0  0  0  0  0  0  0  0  0  0
  -21.5810   -6.5080   21.8770 C   0  0  0  0  0  0  0  0  0  0  0  0
  -21.3730   -6.9040   23.2160 C   0  0  0  0  0  3  0  0  0  0  0  0
  -21.3330   -5.9350   24.2390 C   0  0  0  0  0  3  0  0  0  0  0  0
  -21.4870   -4.5710   23.9250 C   0  0  0  0  0  0  0  0  0  0  0  0
  -21.6910   -4.1750   22.5910 C   0  0  0  0  0  3  0  0  0  0  0  0
  -21.7320   -5.1400   21.5690 C   0  0  0  0  0  0  0  0  0  0  0  0
  -21.9050   -4.7500   20.2830 F   0  0  0  0  0  0  0  0  0  0  0  0
  -21.4430   -3.6380   24.9060 F   0  0  0  0  0  0  0  0  0  0  0  0
  -23.2790  -13.9160   21.0760 C   0  0  0  0  0  0  0  0  0  0  0  0
  -22.5640  -13.2190   21.9510 N   0  0  0  0  0  0  0  0  0  0  0  0
  -22.8960  -15.0120   20.6710 O   0  0  0  0  0  0  0  0  0  0  0  0
  -22.8910  -12.3280   22.2990 H   0  0  0  0  0  0  0  0  0  0  0  0
  -21.6800  -13.5790   22.2810 H   0  0  0  0  0  0  0  0  0  0  0  0
  -26.0040  -15.4110   20.2150 N   0  0  0  0  0  0  0  0  0  0  0  0
  -25.3200  -16.1260   20.4420 H   0  0  0  0  0  0  0  0  0  0  0  0
  -26.8700  -15.7930   19.8590 H   0  0  0  0  0  0  0  0  0  0  0  0
  -31.6730  -17.3110   21.6270 C   0  0  0  0  0  2  0  0  0  0  0  0
  -31.5010  -17.7050   24.1250 C   0  0  0  0  0  1  0  0  0  0  0  0
  -29.7920  -18.7650   22.6050 C   0  0  0  0  0  1  0  0  0  0  0  0
  -30.7120  -17.5530   22.8140 C   0  0  0  0  0  3  0  0  0  0  0  0
  -31.4620  -21.1840   18.5180 N   0  0  0  0  0  4  0  0  0  0  0  0
  -32.1870  -21.4360   19.1680 H   0  0  0  0  0  0  0  0  0  0  0  0
  -31.7840  -20.4050   17.9570 H   0  0  0  0  0  0  0  0  0  0  0  0
  -31.3580  -22.2150   17.4670 C   0  0  0  0  0  3  0  0  0  0  0  0
  -31.4290  -21.4760   16.1160 C   0  0  0  0  0  0  0  0  0  0  0  0
  -31.1970  -22.1520   14.9950 N   0  0  0  0  0  0  0  0  0  0  0  0
  -31.7010  -20.2740   16.0880 O   0  0  0  0  0  0  0  0  0  0  0  0
  -30.9790  -23.1390   15.0110 H   0  0  0  0  0  0  0  0  0  0  0  0
  -31.2460  -21.6760   14.1050 H   0  0  0  0  0  0  0  0  0  0  0  0
  -32.3360  -24.1300   18.9240 C   0  0  0  0  0  1  0  0  0  0  0  0
  -33.9310  -22.7820   17.4970 C   0  0  0  0  0  1  0  0  0  0  0  0
  -32.4790  -23.3000   17.6290 C   0  0  0  0  0  3  0  0  0  0  0  0
  1 50  1  0
  1  2  1  0
  2  4  2  0
  3  2  1  0
  3  6  1  0
  5  3  1  0
  7  8  1  0
  7  6  1  0
  9 20  2  0
 10  8  1  0
 10 15  1  0
 11 19  1  0
 11 21  1  0
 12 18  1  0
 12 14  1  0
 13 19  1  0
 14 13  1  0
 15 14  2  0
 16 10  2  0
 17 16  1  0
 17 12  2  0
 18 11  1  0
 19  9  1  0
 21 23  2  0
 22 21  1  0
 24 22  1  0
 25 34  2  0
 25 30  1  0
 26 22  1  0
 26 30  1  0
 27 26  1  0
 28 29  1  0
 28 27  1  0
 29 25  1  0
 30 31  2  0
 31 32  1  0
 33 32  2  0
 34 33  1  0
 35  9  1  0
 35 36  1  0
 35 45  1  0
 36 39  1  0
 37 41  1  0
 37 36  1  0
 38 37  2  0
 41 40  1  0
 43 44  1  0
 43 41  1  0
 43 42  1  0
 45 48  1  1
 45 46  1  0
 47 45  1  0
 49 50  1  0
 49 53  1  0
 50 52  1  0
 51 49  2  0
 53 92  1  0
 54 60  1  0
 54 62  1  0
 55 60  1  0
 56 57  1  0
 56 55  1  0
 58 57  1  0
 58 67  1  0
 58 59  1  0
 60 59  1  0
 61 54  2  0
 62 53  1  0
 62 63  1  0
 64 65  2  0
 65 84  1  0
 66 69  1  0
 66 65  1  0
 67 68  1  0
 67 64  1  0
 68 66  2  0
 69 70  1  0
 70 71  2  0
 72 75  1  0
 72 71  1  0
 73 72  2  0
 74 73  1  0
 74 69  2  0
 75 76  1  0
 76 77  1  0
 77 78  2  0
 79 78  1  0
 79 83  1  0
 80 79  2  0
 81 76  2  0
 81 80  1  0
 82 81  1  0
 84 85  1  0
 85 88  1  0
 85 87  1  0
 86 84  2  0
 89 64  1  0
 89 90  1  0
 91 89  1  0
 92 95  1  0
 94 95  1  0
 95 93  1  0
 96 97  1  0
 96  1  1  0
 98 96  1  0
 99100  1  0
 99107  1  0
 99 96  1  0
101103  1  0
101100  1  0
102100  2  0
104101  1  0
106107  1  0
107105  1  0
M  ISO  4   7 101   8 101  54 100  62 100
M  END
>  <TORSDO>  (6) 
F 27

>  <SCORE>  (6) 
-8.211

>  <name>  (6) 
6

>  <ligand_id>  (6) 
6

>  <original_smiles>  (6) 
[H]c1c([H])c([H])c2c(c1[H])C([H])([H])C([H])([H])C([H])([H])C2([H])N([H])C(=O)C1([H])N(C(=O)C([H])(N([H])C(=O)C([H])(N([H])C([H])([H])[H])C([H])([H])[H])C(C([H])([H])[H])(C([H])([H])[H])C([H])([H])[H])C([H])([H])c2c([H])c(OC([H])([H])C([H])([H])N([H])C(=O)C([H])(N([H])C(=O)C([H])(N([H])C(=O)N3C([H])([H])C([H])([H])C([H])([H])C([H])(n4nc(-c5c([H])c([H])c(Oc6c([H])c([H])c(F)c([H])c6F)c([H])c5[H])c(C(=O)N([H])[H])c4N([H])[H])C3([H])[H])C([H])([H])C([H])(C([H])([H])[H])C([H])([H])[H])[N+]([H])([H])C([H])(C(=O)N([H])[H])C([H])(C([H])([H])[H])C([H])([H])[H])c([H])c([H])c2C1([H])[H]

>  <smiles>  (6) 
[H]c1c([H])c([H])c2c(c1[H])C([H])([H])C([H])([H])C([H])([H])C2([H])N([H])C(=O)C1([H])N(C(=O)C([H])(N([H])C(=O)C([H])(N([H])C([H])([H])[H])C([H])([H])[H])C(C([H])([H])[H])(C([H])([H])[H])C([H])([H])[H])C([H])([H])c2c([H])c(OC([H])([H])C([H])([H])N([H])C(=O)C([H])(N([H])C(=O)C([H])(N([H])C(=O)N3C([H])([H])C([H])([H])C([H])([H])C([H])(n4nc(-c5c([H])c([H])c(Oc6c([H])c([H])c(F)c([H])c6F)c([H])c5[H])c(C(=O)N([H])[H])c4N([H])[H])C3([H])[H])C([H])([H])C([H])(C([H])([H])[H])C([H])([H])[H])[N+]([H])([H])C([H])(C(=O)N([H])[H])C([H])(C([H])([H])[H])C([H])([H])[H])c([H])c([H])c2C1([H])[H]

$$$$
7:0:0
     RDKit          3D

 91 98  0  0  1  0  0  0  0  0999 V2000
  -30.4160  -15.3530   20.3140 C   0  0  0  0  0  0  0  0  0  0  0  0
  -30.3990  -12.8920   19.4900 C   0  0  0  0  0  2  0  0  0  0  0  0
  -29.5020  -12.6190   18.2560 C   0  0  0  0  0  2  0  0  0  0  0  0
  -28.0580  -12.3200   18.6980 C   0  0  0  0  0  2  0  0  0  0  0  0
  -27.5640  -13.3310   19.7620 C   0  0  0  0  0  3  0  0  0  0  0  0
  -28.5900  -13.5710   20.8920 C   0  0  0  0  0  2  0  0  0  0  0  0
  -29.8300  -14.0560   20.2630 N   0  0  0  0  0  0  0  0  0  0  0  0
  -31.6440  -15.3510   20.1360 O   0  0  0  0  0  0  0  0  0  0  0  0
  -29.9690  -18.2450   20.3280 C   0  0  0  0  0  3  0  0  0  0  0  0
  -31.8820  -19.2090   21.5170 C   0  0  0  0  0  0  0  0  0  0  0  0
  -29.6150  -16.7870   20.3210 N   0  0  0  0  0  0  0  0  0  0  0  0
  -31.3030  -18.4520   20.4480 N   0  0  0  0  0  0  0  0  0  0  0  0
  -29.1400  -19.5050   20.2440 N   0  0  0  0  0  0  0  0  0  0  0  0
  -33.0980  -19.4220   21.5610 O   0  0  0  0  0  0  0  0  0  0  0  0
  -28.6110  -16.7150   20.3300 H   0  0  0  0  0  0  0  0  0  0  0  0
  -31.8770  -17.9660   19.7780 H   0  0  0  0  0  0  0  0  0  0  0  0
  -28.1500  -19.2980   20.2190 H   0  0  0  0  0  0  0  0  0  0  0  0
  -25.2010  -13.8920   20.5300 C   0  0  0  0  0  0  0  0  0  0  0  0
  -24.1340  -13.1240   20.8890 C   0  0  0  0  0  0  0  0  0  0  0  0
  -24.5950  -11.7700   20.8610 C   0  0  0  0  0  0  0  0  0  0  0  0
  -26.2380  -13.0160   20.2780 N   0  0  0  0  0  0  0  0  0  0  0  0
  -25.8880  -11.7320   20.5490 N   0  0  0  0  0  0  0  0  0  0  0  0
  -23.8640  -10.5090   21.0470 C   0  0  0  0  0  0  0  0  0  0  0  0
  -24.2860   -9.5430   21.9860 C   0  0  0  0  0  3  0  0  0  0  0  0
  -23.5610   -8.3460   22.1570 C   0  0  0  0  0  3  0  0  0  0  0  0
  -22.3980   -8.1030   21.3870 C   0  0  0  0  0  0  0  0  0  0  0  0
  -21.9930   -9.0580   20.4400 C   0  0  0  0  0  3  0  0  0  0  0  0
  -22.7170  -10.2470   20.2700 C   0  0  0  0  0  3  0  0  0  0  0  0
  -21.6400   -6.9620   21.4700 O   0  0  0  0  0  0  0  0  0  0  0  0
  -21.5660   -6.2290   22.6260 C   0  0  0  0  0  0  0  0  0  0  0  0
  -21.1200   -6.7940   23.8390 C   0  0  0  0  0  3  0  0  0  0  0  0
  -21.0000   -5.9860   24.9900 C   0  0  0  0  0  3  0  0  0  0  0  0
  -21.3120   -4.6150   24.9200 C   0  0  0  0  0  0  0  0  0  0  0  0
  -21.7490   -4.0490   23.7090 C   0  0  0  0  0  3  0  0  0  0  0  0
  -21.8740   -4.8540   22.5650 C   0  0  0  0  0  0  0  0  0  0  0  0
  -22.2770   -4.3040   21.3940 F   0  0  0  0  0  0  0  0  0  0  0  0
  -21.1890   -3.8350   26.0210 F   0  0  0  0  0  0  0  0  0  0  0  0
  -22.7370  -13.6090   21.1440 C   0  0  0  0  0  0  0  0  0  0  0  0
  -21.9990  -12.9210   22.0020 N   0  0  0  0  0  0  0  0  0  0  0  0
  -22.3110  -14.6370   20.6140 O   0  0  0  0  0  0  0  0  0  0  0  0
  -22.3640  -12.0960   22.4560 H   0  0  0  0  0  0  0  0  0  0  0  0
  -21.0560  -13.2180   22.2130 H   0  0  0  0  0  0  0  0  0  0  0  0
  -25.3770  -15.2600   20.3500 N   0  0  0  0  0  0  0  0  0  0  0  0
  -24.5850  -15.8930   20.4010 H   0  0  0  0  0  0  0  0  0  0  0  0
  -26.1850  -15.6550   19.8910 H   0  0  0  0  0  0  0  0  0  0  0  0
  -31.3940  -19.9930   23.7360 C   0  0  0  0  0  1  0  0  0  0  0  0
  -30.9770  -19.5230   22.4620 O   0  0  0  0  0  0  0  0  0  0  0  0
  -29.3610  -21.1560   19.9230 C   0  0  0  0  0  2  0  0  0  0  0  0
  -28.5260  -22.6800   20.4340 C   0  0  0  0  0  2  0  0  0  0  0  0
  -28.4420  -24.3630   19.7420 C   0  0  0  0  0  2  0  0  0  0  0  0
  -28.2560  -25.9420   20.2160 O   0  0  0  0  0  0  0  0  0  0  0  0
  -24.6230  -31.8310   23.1480 C   0  0  0  0  0  0  0  0  0  0  0  0
  -27.2160  -27.0050   20.0670 C   0  0  0  0  0  0  0  0  0  0  0  0
  -23.4320  -30.4580   21.4840 C   0  0  0  0  0  3  0  0  0  0  0  0
  -24.8910  -28.8650   20.0380 C   0  0  0  0  0  0  0  0  0  0  0  0
  -25.9960  -30.6790   21.3400 C   0  0  0  0  0  2  0  0  0  0  0  0
  -26.0720  -29.2760   20.6670 C   0  0  0  0  0  0  0  0  0  0  0  0
  -27.2210  -28.3650   20.6590 C   0  0  0  0  0  3  0  0  0  0  0  0
  -26.0080  -26.7490   19.3770 C   0  0  0  0  0  3  0  0  0  0  0  0
  -24.8830  -27.6260   19.3680 C   0  0  0  0  0  3  0  0  0  0  0  0
  -23.6640  -29.7760   20.1050 C   0  0  0  0  0  2  0  0  0  0  0  0
  -24.7070  -31.0130   22.0500 N   0  0  0  0  0  0  0  0  0  0  0  0
  -23.5350  -32.1120   23.6700 O   0  0  0  0  0  0  0  0  0  0  0  0
  -22.7310  -29.4560   22.4420 C   0  0  0  0  0  0  0  0  0  0  0  0
  -21.3970  -29.3130   22.3300 N   0  0  0  0  0  0  0  0  0  0  0  0
  -23.3990  -28.8020   23.2470 O   0  0  0  0  0  0  0  0  0  0  0  0
  -20.9130  -29.8930   21.6600 H   0  0  0  0  0  0  0  0  0  0  0  0
  -18.0080  -28.1340   22.8680 C   0  0  0  0  0  0  0  0  0  0  0  0
  -20.5740  -28.3620   23.0860 C   0  0  0  0  0  3  0  0  0  0  0  0
  -20.6450  -26.9450   22.4660 C   0  0  0  0  0  2  0  0  0  0  0  0
  -19.5250  -26.6680   21.4620 C   0  0  0  0  0  2  0  0  0  0  0  0
  -18.1570  -26.8050   22.1410 C   0  0  0  0  0  2  0  0  0  0  0  0
  -19.1440  -28.8680   23.2970 C   0  0  0  0  0  0  0  0  0  0  0  0
  -18.9530  -30.1090   23.9430 C   0  0  0  0  0  3  0  0  0  0  0  0
  -17.6570  -30.6150   24.1570 C   0  0  0  0  0  3  0  0  0  0  0  0
  -16.5340  -29.8760   23.7380 C   0  0  0  0  0  3  0  0  0  0  0  0
  -16.7120  -28.6360   23.1010 C   0  0  0  0  0  3  0  0  0  0  0  0
  -25.8890  -32.4710   23.7960 C   0  0  0  0  0  3  0  0  0  0  0  0
  -26.4270  -31.6600   25.0410 C   0  0  1  0  0  0  0  0  0  0  0  0
  -25.3520  -31.3710   26.1160 C   0  0  0  0  0  1  0  0  0  0  0  0
  -27.0170  -30.3030   24.5970 C   0  0  0  0  0  1  0  0  0  0  0  0
  -27.5780  -32.4430   25.7160 C   0  0  0  0  0  1  0  0  0  0  0  0
  -25.5540  -33.8490   24.1970 N   0  0  0  0  0  0  0  0  0  0  0  0
  -25.8720  -34.9490   23.5030 C   0  0  0  0  0  0  0  0  0  0  0  0
  -26.5390  -34.9130   22.4660 O   0  0  0  0  0  0  0  0  0  0  0  0
  -24.9610  -33.9520   25.0060 H   0  0  0  0  0  0  0  0  0  0  0  0
  -24.1330  -36.7570   23.2470 C   0  0  0  0  0  1  0  0  0  0  0  0
  -25.3720  -36.3070   24.0400 C   0  0  0  0  0  3  0  0  0  0  0  0
  -27.4950  -37.1590   24.9360 C   0  0  0  0  0  1  0  0  0  0  0  0
  -26.3970  -37.3740   23.9990 N   0  0  0  0  0  0  0  0  0  0  0  0
  -25.9830  -38.2810   24.1950 H   0  0  0  0  0  0  0  0  0  0  0  0
  1 11  1  0
  2  7  1  0
  3  4  1  0
  3  2  1  0
  5  4  1  0
  5 21  1  0
  5  6  1  0
  7  1  1  0
  7  6  1  0
  8  1  2  0
  9 13  1  0
  9 12  1  0
 10 14  2  0
 10 47  1  0
 11  9  1  0
 11 15  1  0
 12 10  1  0
 16 12  1  0
 17 13  1  0
 18 19  2  0
 19 38  1  0
 20 19  1  0
 20 23  1  0
 21 18  1  0
 21 22  1  0
 22 20  2  0
 23 24  1  0
 24 25  2  0
 26 29  1  0
 26 25  1  0
 27 26  2  0
 28 27  1  0
 28 23  2  0
 29 30  1  0
 30 31  1  0
 31 32  2  0
 33 32  1  0
 33 37  1  0
 34 33  2  0
 35 30  2  0
 35 34  1  0
 36 35  1  0
 38 39  1  0
 39 42  1  0
 39 41  1  0
 40 38  2  0
 43 44  1  0
 43 18  1  0
 45 43  1  0
 47 46  1  0
 48 13  1  0
 48 49  1  0
 50 51  1  0
 50 49  1  0
 52 63  2  0
 53 51  1  0
 53 58  1  0
 54 62  1  0
 54 64  1  0
 55 61  1  0
 55 57  1  0
 56 62  1  0
 57 56  1  0
 58 57  2  0
 59 53  2  0
 60 59  1  0
 60 55  2  0
 61 54  1  0
 62 52  1  0
 64 66  2  0
 65 64  1  0
 67 65  1  0
 68 77  2  0
 68 73  1  0
 69 65  1  0
 69 73  1  0
 70 69  1  0
 71 72  1  0
 71 70  1  0
 72 68  1  0
 73 74  2  0
 74 75  1  0
 76 75  2  0
 77 76  1  0
 78 52  1  0
 78 83  1  0
 78 79  1  0
 79 82  1  1
 79 80  1  0
 81 79  1  0
 83 86  1  0
 84 88  1  0
 84 83  1  0
 85 84  2  0
 88 87  1  0
 90 88  1  0
 90 91  1  0
 90 89  1  0
M  ISO  4   1 100  11 100  50 101  51 101
M  END
>  <TORSDO>  (7) 
F 19

>  <SCORE>  (7) 
-16.312

>  <name>  (7) 
7

>  <ligand_id>  (7) 
7

>  <original_smiles>  (7) 
[H]c1c([H])c([H])c2c(c1[H])C([H])([H])C([H])([H])C([H])([H])C2([H])N([H])C(=O)C1([H])N(C(=O)C([H])(N([H])C(=O)C([H])(N([H])C([H])([H])[H])C([H])([H])[H])C(C([H])([H])[H])(C([H])([H])[H])C([H])([H])[H])C([H])([H])c2c([H])c(OC([H])([H])C([H])([H])C([H])([H])[N+]([H])=C(N([H])C(=O)OC([H])([H])[H])N([H])C(=O)N3C([H])([H])C([H])([H])C([H])([H])C([H])(n4nc(-c5c([H])c([H])c(Oc6c([H])c([H])c(F)c([H])c6F)c([H])c5[H])c(C(=O)N([H])[H])c4N([H])[H])C3([H])[H])c([H])c([H])c2C1([H])[H]

>  <smiles>  (7) 
[H]c1c([H])c([H])c2c(c1[H])C([H])([H])C([H])([H])C([H])([H])C2([H])N([H])C(=O)C1([H])N(C(=O)C([H])(N([H])C(=O)C([H])(N([H])C([H])([H])[H])C([H])([H])[H])C(C([H])([H])[H])(C([H])([H])[H])C([H])([H])[H])C([H])([H])c2c([H])c(OC([H])([H])C([H])([H])C([H])([H])[N+]([H])=C(N([H])C(=O)OC([H])([H])[H])N([H])C(=O)N3C([H])([H])C([H])([H])C([H])([H])C([H])(n4nc(-c5c([H])c([H])c(Oc6c([H])c([H])c(F)c([H])c6F)c([H])c5[H])c(C(=O)N([H])[H])c4N([H])[H])C3([H])[H])c([H])c([H])c2C1([H])[H]

$$$$
8:0:0
     RDKit          3D

106112  0  0  1  0  0  0  0  0999 V2000
  -26.9020  -16.7860   25.1160 C   0  0  0  0  0  3  0  0  0  0  0  0
  -27.0380  -14.5530   23.9250 C   0  0  0  0  0  0  0  0  0  0  0  0
  -27.0500  -15.3030   25.0570 N   0  0  0  0  0  0  0  0  0  0  0  0
  -27.3000  -13.2400   24.0710 N   0  0  0  0  0  0  0  0  0  0  0  0
  -26.8780  -15.0240   22.8000 O   0  0  0  0  0  0  0  0  0  0  0  0
  -27.1590  -14.8250   25.9380 H   0  0  0  0  0  0  0  0  0  0  0  0
  -27.4890  -12.7720   24.9510 H   0  0  0  0  0  0  0  0  0  0  0  0
  -28.9930  -11.7460   23.2310 C   0  0  0  0  0  0  0  0  0  0  0  0
  -27.9140  -12.5220   22.9720 N   0  0  0  0  0  0  0  0  0  0  0  0
  -29.1170  -11.2150   24.3340 O   0  0  0  0  0  0  0  0  0  0  0  0
  -27.8350  -13.0600   22.1130 H   0  0  0  0  0  0  0  0  0  0  0  0
  -31.5190  -11.3390   22.8230 C   0  0  0  0  0  1  0  0  0  0  0  0
  -30.1530  -11.6170   22.1800 C   0  0  0  0  0  3  0  0  0  0  0  0
  -28.9640   -9.5120   20.6410 C   0  0  2  0  0  0  0  0  0  0  0  0
  -28.0150  -10.5740   19.8330 C   0  0  0  0  0  3  0  0  0  0  0  0
  -29.2450  -10.3410   18.4260 C   0  0  0  0  0  3  0  0  0  0  0  0
  -30.8000   -9.6150   18.7360 C   0  0  0  0  0  2  0  0  0  0  0  0
  -31.1780   -8.7050   20.1720 C   0  0  0  0  0  2  0  0  0  0  0  0
  -29.9170   -8.6480   21.5580 C   0  0  0  0  0  1  0  0  0  0  0  0
  -28.4270   -9.7020   21.3870 N   0  0  0  0  0  2  0  0  0  0  0  0
  -28.4120   -8.4260   19.9500 O   0  0  0  0  0  1  0  0  0  0  0  0
  -29.9470  -10.7850   20.9320 N   0  0  0  0  0  0  0  0  0  0  0  0
  -30.6240  -10.9390   20.1980 H   0  0  0  0  0  0  0  0  0  0  0  0
  -33.5320   -7.9850   20.8620 C   0  0  0  0  0  0  0  0  0  0  0  0
  -34.7140   -8.6230   21.1110 C   0  0  0  0  0  0  0  0  0  0  0  0
  -34.4610  -10.0210   20.9830 C   0  0  0  0  0  0  0  0  0  0  0  0
  -32.5860   -8.9560   20.6040 N   0  0  0  0  0  0  0  0  0  0  0  0
  -33.1530  -10.2080   20.7150 N   0  0  0  0  0  0  0  0  0  0  0  0
  -35.4150  -11.1600   21.0360 C   0  0  0  0  0  0  0  0  0  0  0  0
  -35.0600  -12.4320   21.5450 C   0  0  0  0  0  3  0  0  0  0  0  0
  -36.0030  -13.4810   21.6150 C   0  0  0  0  0  3  0  0  0  0  0  0
  -37.3340  -13.2770   21.1860 C   0  0  0  0  0  0  0  0  0  0  0  0
  -37.6910  -12.0150   20.6710 C   0  0  0  0  0  3  0  0  0  0  0  0
  -36.7460  -10.9760   20.5950 C   0  0  0  0  0  3  0  0  0  0  0  0
  -38.3090  -14.2480   21.1910 O   0  0  0  0  0  0  0  0  0  0  0  0
  -38.1310  -15.4550   21.8260 C   0  0  0  0  0  0  0  0  0  0  0  0
  -37.8430  -15.5340   23.2050 C   0  0  0  0  0  3  0  0  0  0  0  0
  -37.7320  -16.7910   23.8330 C   0  0  0  0  0  3  0  0  0  0  0  0
  -37.9170  -17.9710   23.0880 C   0  0  0  0  0  0  0  0  0  0  0  0
  -38.2120  -17.8980   21.7180 C   0  0  0  0  0  3  0  0  0  0  0  0
  -38.3200  -16.6430   21.0880 C   0  0  0  0  0  0  0  0  0  0  0  0
  -38.6260  -16.5780   19.7670 F   0  0  0  0  0  0  0  0  0  0  0  0
  -37.8190  -19.1790   23.6900 F   0  0  0  0  0  0  0  0  0  0  0  0
  -36.0320   -7.9450   21.3620 C   0  0  0  0  0  0  0  0  0  0  0  0
  -36.9030   -8.5580   22.1560 N   0  0  0  0  0  0  0  0  0  0  0  0
  -36.2710   -6.8320   20.8960 O   0  0  0  0  0  0  0  0  0  0  0  0
  -36.6960   -9.4560   22.5680 H   0  0  0  0  0  0  0  0  0  0  0  0
  -37.7840   -8.1100   22.3660 H   0  0  0  0  0  0  0  0  0  0  0  0
  -33.1680   -6.6430   20.7900 N   0  0  0  0  0  0  0  0  0  0  0  0
  -33.8670   -5.9120   20.8130 H   0  0  0  0  0  0  0  0  0  0  0  0
  -32.2620   -6.3140   20.4890 H   0  0  0  0  0  0  0  0  0  0  0  0
  -25.5090  -17.1540   25.6740 C   0  0  0  0  0  0  0  0  0  0  0  0
  -24.6690  -17.8100   24.8840 N   0  0  0  0  0  0  0  0  0  0  0  0
  -25.2010  -16.8590   26.8280 O   0  0  0  0  0  0  0  0  0  0  0  0
  -24.9350  -18.0510   23.9380 H   0  0  0  0  0  0  0  0  0  0  0  0
  -23.7460  -18.0580   25.2060 H   0  0  0  0  0  0  0  0  0  0  0  0
  -28.0160  -17.5270   25.9640 C   0  0  0  0  0  2  0  0  0  0  0  0
  -29.4610  -17.6820   25.3780 C   0  0  0  0  0  2  0  0  0  0  0  0
  -29.6460  -18.8430   24.3280 C   0  0  0  0  0  2  0  0  0  0  0  0
  -31.0030  -19.6260   24.3690 C   0  0  0  0  0  2  0  0  0  0  0  0
  -31.5280  -21.1180   22.3400 C   0  0  0  0  0  0  0  0  0  0  0  0
  -31.5870  -19.9530   23.0420 N   0  0  0  0  0  0  0  0  0  0  0  0
  -30.7430  -22.0230   22.6340 O   0  0  0  0  0  0  0  0  0  0  0  0
  -32.2620  -19.2820   22.7010 H   0  0  0  0  0  0  0  0  0  0  0  0
  -32.5670  -21.3120   21.1920 C   0  0  0  0  0  2  0  0  0  0  0  0
  -32.0910  -21.9760   19.9650 O   0  0  0  0  0  0  0  0  0  0  0  0
  -34.3240  -20.5690   13.3200 C   0  0  0  0  0  0  0  0  0  0  0  0
  -33.0390  -22.2590   18.9770 C   0  0  0  0  0  0  0  0  0  0  0  0
  -35.9870  -21.5640   14.8480 C   0  0  0  0  0  3  0  0  0  0  0  0
  -35.0610  -22.5720   16.9980 C   0  0  0  0  0  0  0  0  0  0  0  0
  -33.4910  -22.0800   15.1270 C   0  0  0  0  0  2  0  0  0  0  0  0
  -33.7500  -22.2610   16.6120 C   0  0  0  0  0  0  0  0  0  0  0  0
  -32.7340  -22.1060   17.5970 C   0  0  0  0  0  3  0  0  0  0  0  0
  -34.3530  -22.6720   19.3100 C   0  0  0  0  0  3  0  0  0  0  0  0
  -35.3640  -22.7900   18.3460 C   0  0  0  0  0  3  0  0  0  0  0  0
  -36.1050  -22.6840   15.9110 C   0  0  0  0  0  2  0  0  0  0  0  0
  -34.5710  -21.3560   14.4060 N   0  0  0  0  0  0  0  0  0  0  0  0
  -35.2500  -20.0530   12.6780 O   0  0  0  0  0  0  0  0  0  0  0  0
  -36.6520  -20.2770   15.3920 C   0  0  0  0  0  0  0  0  0  0  0  0
  -37.9870  -20.1890   15.2620 N   0  0  0  0  0  0  0  0  0  0  0  0
  -35.9770  -19.3970   15.9350 O   0  0  0  0  0  0  0  0  0  0  0  0
  -38.4660  -20.9450   14.7950 H   0  0  0  0  0  0  0  0  0  0  0  0
  -41.3780  -18.9280   15.3280 C   0  0  0  0  0  0  0  0  0  0  0  0
  -38.8270  -19.0840   15.7260 C   0  0  0  0  0  3  0  0  0  0  0  0
  -39.1760  -19.2430   17.2250 C   0  0  0  0  0  2  0  0  0  0  0  0
  -40.5040  -19.9690   17.4630 C   0  0  0  0  0  2  0  0  0  0  0  0
  -41.6560  -19.2130   16.7950 C   0  0  0  0  0  2  0  0  0  0  0  0
  -40.0510  -18.8850   14.8240 C   0  0  0  0  0  0  0  0  0  0  0  0
  -39.8510  -18.6510   13.4460 C   0  0  0  0  0  3  0  0  0  0  0  0
  -40.9470  -18.4600   12.5810 C   0  0  0  0  0  3  0  0  0  0  0  0
  -42.2580  -18.4940   13.0910 C   0  0  0  0  0  3  0  0  0  0  0  0
  -42.4700  -18.7230   14.4610 C   0  0  0  0  0  3  0  0  0  0  0  0
  -32.8700  -20.3010   12.8220 C   0  0  0  0  0  3  0  0  0  0  0  0
  -32.1900  -19.0650   13.5240 C   0  0  1  0  0  0  0  0  0  0  0  0
  -33.0470  -17.7780   13.4790 C   0  0  0  0  0  1  0  0  0  0  0  0
  -31.8840  -19.3790   15.0070 C   0  0  0  0  0  1  0  0  0  0  0  0
  -30.8310  -18.7660   12.8500 C   0  0  0  0  0  1  0  0  0  0  0  0
  -32.9330  -20.1040   11.3680 N   0  0  0  0  0  0  0  0  0  0  0  0
  -32.5830  -21.0230   10.4580 C   0  0  0  0  0  0  0  0  0  0  0  0
  -32.1000  -22.1170   10.7640 O   0  0  0  0  0  0  0  0  0  0  0  0
  -33.3680  -19.2530   11.0430 H   0  0  0  0  0  0  0  0  0  0  0  0
  -33.9960  -21.4740    8.4280 C   0  0  0  0  0  1  0  0  0  0  0  0
  -32.8030  -20.6740    8.9730 C   0  0  0  0  0  3  0  0  0  0  0  0
  -30.5140  -19.9960    8.4090 C   0  0  0  0  0  1  0  0  0  0  0  0
  -31.6130  -20.9150    8.1300 N   0  0  0  0  0  0  0  0  0  0  0  0
  -31.8480  -20.8380    7.1440 H   0  0  0  0  0  0  0  0  0  0  0  0
  1 52  1  0
  1 57  1  0
  2  4  1  0
  2  3  1  0
  3  1  1  0
  3  6  1  0
  4  7  1  0
  5  2  2  0
  8 10  2  0
  9  8  1  0
  9  4  1  0
 11  9  1  0
 13 12  1  0
 13  8  1  0
 14 22  1  0
 14 20  1  0
 14 19  1  1
 15 20  1  0
 16 17  1  0
 16 15  2  0
 17 18  1  0
 18 27  1  0
 21 14  1  0
 22 13  1  0
 23 22  1  0
 24 25  2  0
 25 44  1  0
 26 29  1  0
 26 25  1  0
 27 28  1  0
 27 24  1  0
 28 26  2  0
 29 30  1  0
 30 31  2  0
 32 35  1  0
 32 31  1  0
 33 32  2  0
 34 33  1  0
 34 29  2  0
 35 36  1  0
 36 37  1  0
 37 38  2  0
 39 43  1  0
 39 38  1  0
 40 39  2  0
 41 40  1  0
 41 36  2  0
 42 41  1  0
 44 45  1  0
 45 48  1  0
 45 47  1  0
 46 44  2  0
 49 50  1  0
 49 24  1  0
 51 49  1  0
 52 54  2  0
 53 56  1  0
 53 52  1  0
 55 53  1  0
 58 57  1  0
 59 60  1  0
 59 58  1  0
 61 63  2  0
 61 62  1  0
 62 60  1  0
 64 62  1  0
 65 61  1  0
 66 65  1  0
 67 77  1  0
 68 74  1  0
 68 66  1  0
 69 79  1  0
 69 76  1  0
 70 75  1  0
 71 72  1  0
 72 70  2  0
 72 73  1  0
 73 68  2  0
 75 74  2  0
 76 70  1  0
 77 69  1  0
 77 71  1  0
 78 67  2  0
 79 81  2  0
 80 79  1  0
 82 80  1  0
 83 87  1  0
 84 80  1  0
 84 85  1  0
 85 86  1  0
 87 86  1  0
 88 83  1  0
 88 84  1  0
 89 88  2  0
 90 91  2  0
 90 89  1  0
 91 92  1  0
 92 83  2  0
 93 67  1  0
 93 94  1  0
 94 96  1  1
 95 94  1  0
 97 94  1  0
 98 93  1  0
 99100  2  0
 99 98  1  0
101 98  1  0
103102  1  0
103 99  1  0
105104  1  0
105103  1  0
106105  1  0
M  ISO  4  14 100  22 100  65 101  66 101
M  END
>  <TORSDO>  (8) 
F 26

>  <SCORE>  (8) 
51.597

>  <name>  (8) 
8

>  <ligand_id>  (8) 
8

>  <original_smiles>  (8) 
[H]c1c([H])c([H])c2c(c1[H])C([H])([H])C([H])([H])C([H])([H])C2([H])N([H])C(=O)C1([H])N(C(=O)C([H])(N([H])C(=O)C([H])(N([H])C([H])([H])[H])C([H])([H])[H])C(C([H])([H])[H])(C([H])([H])[H])C([H])([H])[H])C([H])([H])c2c([H])c(OC([H])([H])C(=O)N([H])C([H])([H])C([H])([H])C([H])([H])C([H])([H])C([H])(C(=O)N([H])[H])N([H])C(=O)N([H])N([H])C(=O)C([H])(N([H])C(=O)N3C([H])([H])C([H])([H])C([H])([H])C([H])(n4nc(-c5c([H])c([H])c(Oc6c([H])c([H])c(F)c([H])c6F)c([H])c5[H])c(C(=O)N([H])[H])c4N([H])[H])C3([H])[H])C([H])([H])[H])c([H])c([H])c2C1([H])[H]

>  <smiles>  (8) 
[H]c1c([H])c([H])c2c(c1[H])C([H])([H])C([H])([H])C([H])([H])C2([H])N([H])C(=O)C1([H])N(C(=O)C([H])(N([H])C(=O)C([H])(N([H])C([H])([H])[H])C([H])([H])[H])C(C([H])([H])[H])(C([H])([H])[H])C([H])([H])[H])C([H])([H])c2c([H])c(OC([H])([H])C(=O)N([H])C([H])([H])C([H])([H])C([H])([H])C([H])([H])C([H])(C(=O)N([H])[H])N([H])C(=O)N([H])N([H])C(=O)C([H])(N([H])C(=O)N3C([H])([H])C([H])([H])C([H])([H])C([H])(n4nc(-c5c([H])c([H])c(Oc6c([H])c([H])c(F)c([H])c6F)c([H])c5[H])c(C(=O)N([H])[H])c4N([H])[H])C3([H])[H])C([H])([H])[H])c([H])c([H])c2C1([H])[H]

$$$$
9:0:0
     RDKit          3D

110117  0  0  1  0  0  0  0  0999 V2000
  -31.5430  -20.3680   19.6610 C   0  0  0  0  0  3  0  0  0  0  0  0
  -30.3000  -20.9850   17.5870 C   0  0  0  0  0  0  0  0  0  0  0  0
  -30.5580  -21.3950   16.3510 N   0  0  0  0  0  0  0  0  0  0  0  0
  -31.3710  -21.0770   18.3820 N   0  0  0  0  0  0  0  0  0  0  0  0
  -29.2440  -20.4410   17.9130 O   0  0  0  0  0  0  0  0  0  0  0  0
  -31.3910  -21.9560   16.2370 H   0  0  0  0  0  0  0  0  0  0  0  0
  -32.2080  -21.5010   18.0060 H   0  0  0  0  0  0  0  0  0  0  0  0
  -30.4410  -20.4930   15.2130 C   0  0  0  0  0  3  0  0  0  0  0  0
  -31.1650  -19.2210   15.6920 C   0  0  0  0  0  0  0  0  0  0  0  0
  -30.4490  -18.1470   15.9950 N   0  0  0  0  0  0  0  0  0  0  0  0
  -32.3850  -19.2230   15.8490 O   0  0  0  0  0  0  0  0  0  0  0  0
  -29.4490  -18.0910   15.8410 H   0  0  0  0  0  0  0  0  0  0  0  0
  -30.9220  -17.3400   16.3810 H   0  0  0  0  0  0  0  0  0  0  0  0
  -31.1550  -21.1000   13.9820 C   0  0  0  0  0  2  0  0  0  0  0  0
  -30.1060  -23.3360   13.2760 C   0  0  0  0  0  1  0  0  0  0  0  0
  -30.5690  -21.5600   11.5410 C   0  0  0  0  0  1  0  0  0  0  0  0
  -30.1910  -21.8240   13.0110 C   0  0  0  0  0  3  0  0  0  0  0  0
  -32.8400  -19.5370   19.7540 C   0  0  0  0  0  0  0  0  0  0  0  0
  -33.8080  -19.9570   20.5800 N   0  0  0  0  0  0  0  0  0  0  0  0
  -32.9650  -18.5300   19.0570 O   0  0  0  0  0  0  0  0  0  0  0  0
  -33.5990  -20.7580   21.1580 H   0  0  0  0  0  0  0  0  0  0  0  0
  -35.1760  -19.4680   20.5710 C   0  0  0  0  0  2  0  0  0  0  0  0
  -35.9540  -20.0490   21.7680 C   0  0  0  0  0  2  0  0  0  0  0  0
  -37.3650  -19.3150   23.6140 C   0  0  0  0  0  0  0  0  0  0  0  0
  -39.7300  -18.8060   23.4010 C   0  0  0  0  0  2  0  0  0  0  0  0
  -39.9850  -18.6440   21.8880 C   0  0  0  0  0  2  0  0  0  0  0  0
  -39.7230  -17.1940   21.4340 C   0  0  0  0  0  2  0  0  0  0  0  0
  -38.3840  -16.6120   21.9660 C   0  0  0  0  0  3  0  0  0  0  0  0
  -38.1740  -16.9360   23.4670 C   0  0  0  0  0  2  0  0  0  0  0  0
  -38.3500  -18.3860   23.6500 N   0  0  0  0  0  0  0  0  0  0  0  0
  -37.5010  -20.4730   24.0080 O   0  0  0  0  0  0  0  0  0  0  0  0
  -36.4310  -19.0260   22.7020 N   0  0  0  0  0  0  0  0  0  0  0  0
  -36.4200  -18.0730   22.3770 H   0  0  0  0  0  0  0  0  0  0  0  0
  -37.8430  -14.5280   20.5620 C   0  0  0  0  0  0  0  0  0  0  0  0
  -37.9960  -13.1920   20.8060 C   0  0  0  0  0  0  0  0  0  0  0  0
  -38.5380  -13.0950   22.1240 C   0  0  0  0  0  0  0  0  0  0  0  0
  -38.2770  -15.1800   21.7030 N   0  0  0  0  0  0  0  0  0  0  0  0
  -38.6420  -14.3010   22.6700 N   0  0  0  0  0  0  0  0  0  0  0  0
  -39.0250  -11.9290   22.8680 C   0  0  0  0  0  0  0  0  0  0  0  0
  -38.1790  -11.2130   23.7440 C   0  0  0  0  0  3  0  0  0  0  0  0
  -38.6590  -10.0810   24.4360 C   0  0  0  0  0  3  0  0  0  0  0  0
  -39.9950   -9.6510   24.2520 C   0  0  0  0  0  0  0  0  0  0  0  0
  -40.8410  -10.3820   23.3990 C   0  0  0  0  0  3  0  0  0  0  0  0
  -40.3610  -11.5120   22.7160 C   0  0  0  0  0  3  0  0  0  0  0  0
  -40.5550   -8.5810   24.9040 O   0  0  0  0  0  0  0  0  0  0  0  0
  -39.9450   -7.3540   24.9250 C   0  0  0  0  0  0  0  0  0  0  0  0
  -39.7170   -6.6160   23.7420 C   0  0  0  0  0  3  0  0  0  0  0  0
  -39.1580   -5.3250   23.8170 C   0  0  0  0  0  3  0  0  0  0  0  0
  -38.8300   -4.7710   25.0680 C   0  0  0  0  0  0  0  0  0  0  0  0
  -39.0580   -5.5050   26.2450 C   0  0  0  0  0  3  0  0  0  0  0  0
  -39.6190   -6.7900   26.1730 C   0  0  0  0  0  0  0  0  0  0  0  0
  -39.8610   -7.4840   27.3120 F   0  0  0  0  0  0  0  0  0  0  0  0
  -38.2910   -3.5320   25.1410 F   0  0  0  0  0  0  0  0  0  0  0  0
  -37.7580  -12.0740   19.8310 C   0  0  0  0  0  0  0  0  0  0  0  0
  -36.9690  -11.0760   20.2150 N   0  0  0  0  0  0  0  0  0  0  0  0
  -38.2460  -12.1030   18.7040 O   0  0  0  0  0  0  0  0  0  0  0  0
  -36.5500  -11.0600   21.1340 H   0  0  0  0  0  0  0  0  0  0  0  0
  -36.7820  -10.3180   19.5790 H   0  0  0  0  0  0  0  0  0  0  0  0
  -37.4010  -15.2370   19.4510 N   0  0  0  0  0  0  0  0  0  0  0  0
  -37.4000  -14.6640   18.6130 H   0  0  0  0  0  0  0  0  0  0  0  0
  -37.8530  -16.1270   19.2770 H   0  0  0  0  0  0  0  0  0  0  0  0
  -31.5040  -21.3760   20.8300 C   0  0  0  0  0  2  0  0  0  0  0  0
  -30.0830  -21.8210   21.2070 C   0  0  0  0  0  2  0  0  0  0  0  0
  -29.9550  -23.2330   21.8220 C   0  0  0  0  0  2  0  0  0  0  0  0
  -30.7680  -25.0850   20.3300 C   0  0  0  0  0  0  0  0  0  0  0  0
  -29.7980  -24.3390   20.8760 N   0  0  0  0  0  0  0  0  0  0  0  0
  -31.9580  -24.7660   20.3410 O   0  0  0  0  0  0  0  0  0  0  0  0
  -28.8680  -24.7330   20.7920 H   0  0  0  0  0  0  0  0  0  0  0  0
  -30.3000  -26.4220   19.7530 C   0  0  0  0  0  2  0  0  0  0  0  0
  -30.1770  -27.3090   20.8630 O   0  0  0  0  0  0  0  0  0  0  0  0
  -26.6660  -31.3140   25.5360 C   0  0  0  0  0  0  0  0  0  0  0  0
  -29.0170  -28.0070   21.0900 C   0  0  0  0  0  0  0  0  0  0  0  0
  -25.3680  -30.6090   23.5510 C   0  0  0  0  0  3  0  0  0  0  0  0
  -26.7130  -29.5380   21.6700 C   0  0  0  0  0  0  0  0  0  0  0  0
  -27.9090  -30.8540   23.4290 C   0  0  0  0  0  2  0  0  0  0  0  0
  -27.9000  -29.7660   22.3750 C   0  0  0  0  0  0  0  0  0  0  0  0
  -29.0470  -28.9960   22.0970 C   0  0  0  0  0  3  0  0  0  0  0  0
  -27.8090  -27.7800   20.3910 C   0  0  0  0  0  3  0  0  0  0  0  0
  -26.6590  -28.5360   20.6850 C   0  0  0  0  0  3  0  0  0  0  0  0
  -25.5330  -30.4110   22.0210 C   0  0  0  0  0  2  0  0  0  0  0  0
  -26.6670  -30.9190   24.2320 N   0  0  0  0  0  0  0  0  0  0  0  0
  -25.6070  -31.4600   26.1610 O   0  0  0  0  0  0  0  0  0  0  0  0
  -24.6530  -29.3700   24.1380 C   0  0  0  0  0  0  0  0  0  0  0  0
  -23.7460  -28.7740   23.3460 N   0  0  0  0  0  0  0  0  0  0  0  0
  -24.9330  -28.9510   25.2630 O   0  0  0  0  0  0  0  0  0  0  0  0
  -23.5670  -29.1860   22.4400 H   0  0  0  0  0  0  0  0  0  0  0  0
  -20.9970  -26.6980   22.2580 C   0  0  0  0  0  0  0  0  0  0  0  0
  -22.9780  -27.5730   23.6700 C   0  0  0  0  0  3  0  0  0  0  0  0
  -23.7280  -26.2960   23.2250 C   0  0  0  0  0  2  0  0  0  0  0  0
  -23.3310  -25.8230   21.8220 C   0  0  0  0  0  2  0  0  0  0  0  0
  -21.8290  -25.5280   21.7590 C   0  0  0  0  0  2  0  0  0  0  0  0
  -21.5410  -27.6660   23.1420 C   0  0  0  0  0  0  0  0  0  0  0  0
  -20.7350  -28.7520   23.5470 C   0  0  0  0  0  3  0  0  0  0  0  0
  -19.4100  -28.8760   23.0870 C   0  0  0  0  0  3  0  0  0  0  0  0
  -18.8720  -27.9060   22.2240 C   0  0  0  0  0  3  0  0  0  0  0  0
  -19.6650  -26.8190   21.8130 C   0  0  0  0  0  3  0  0  0  0  0  0
  -27.9940  -31.6220   26.2990 C   0  0  0  0  0  3  0  0  0  0  0  0
  -27.9230  -33.0150   26.7620 N   0  0  0  0  0  0  0  0  0  0  0  0
  -28.7040  -34.0060   26.3120 C   0  0  0  0  0  0  0  0  0  0  0  0
  -29.6190  -33.8240   25.5050 O   0  0  0  0  0  0  0  0  0  0  0  0
  -27.1590  -33.2470   27.3810 H   0  0  0  0  0  0  0  0  0  0  0  0
  -28.0010  -36.3370   25.6800 C   0  0  0  0  0  1  0  0  0  0  0  0
  -28.4240  -35.4250   26.8420 C   0  0  0  0  0  3  0  0  0  0  0  0
  -29.8910  -35.3580   28.8110 C   0  0  0  0  0  1  0  0  0  0  0  0
  -29.5750  -36.0260   27.5500 N   0  0  0  0  0  0  0  0  0  0  0  0
  -29.4030  -37.0080   27.7480 H   0  0  0  0  0  0  0  0  0  0  0  0
  -28.2590  -30.6440   27.5090 C   0  0  1  0  0  0  0  0  0  0  0  0
  -27.5780  -31.0860   28.8260 C   0  0  0  0  0  1  0  0  0  0  0  0
  -27.7630  -29.2170   27.1750 C   0  0  0  0  0  1  0  0  0  0  0  0
  -29.7800  -30.5340   27.7720 C   0  0  0  0  0  1  0  0  0  0  0  0
  1 18  1  0
  1 62  1  0
  2  5  2  0
  2  4  1  0
  3  2  1  0
  4  1  1  0
  6  3  1  0
  7  4  1  0
  8 14  1  0
  8  9  1  0
  8  3  1  0
  9 11  2  0
  9 10  1  0
 10 13  1  0
 12 10  1  0
 16 17  1  0
 17 15  1  0
 17 14  1  0
 18 19  1  0
 19 21  1  0
 20 18  2  0
 22 19  1  0
 22 23  1  0
 23 32  1  0
 24 30  1  0
 24 31  2  0
 25 30  1  0
 26 25  1  0
 27 26  1  0
 28 27  1  0
 28 29  1  0
 29 30  1  0
 32 24  1  0
 33 32  1  0
 34 35  2  0
 34 37  1  0
 35 36  1  0
 36 38  2  0
 36 39  1  0
 37 28  1  0
 37 38  1  0
 39 40  1  0
 40 41  2  0
 42 41  1  0
 42 45  1  0
 43 42  2  0
 44 39  2  0
 44 43  1  0
 45 46  1  0
 46 51  1  0
 47 48  1  0
 47 46  2  0
 48 49  2  0
 49 53  1  0
 49 50  1  0
 51 50  2  0
 51 52  1  0
 54 55  1  0
 54 35  1  0
 55 57  1  0
 56 54  2  0
 58 55  1  0
 59 34  1  0
 60 59  1  0
 61 59  1  0
 62 63  1  0
 63 64  1  0
 65 67  2  0
 65 66  1  0
 66 64  1  0
 68 66  1  0
 69 65  1  0
 69 70  1  0
 70 72  1  0
 71 82  2  0
 72 77  1  0
 73 83  1  0
 73 81  1  0
 74 80  1  0
 74 76  1  0
 75 81  1  0
 76 75  1  0
 77 76  2  0
 78 79  1  0
 78 72  2  0
 79 74  2  0
 80 73  1  0
 81 71  1  0
 83 85  2  0
 84 83  1  0
 86 84  1  0
 87 92  1  0
 88 84  1  0
 89 88  1  0
 90 89  1  0
 91 90  1  0
 91 87  1  0
 92 93  2  0
 92 88  1  0
 94 93  1  0
 95 94  2  0
 96 95  1  0
 96 87  2  0
 97 71  1  0
 97 98  1  0
 97107  1  0
 98101  1  0
 99 98  1  0
 99103  1  0
100 99  2  0
103102  1  0
103105  1  0
105106  1  0
105104  1  0
107110  1  1
107108  1  0
109107  1  0
M  ISO  4  24 100  32 100  69 101  70 101
M  END
>  <TORSDO>  (9) 
F 29

>  <SCORE>  (9) 
-6.051

>  <name>  (9) 
9

>  <ligand_id>  (9) 
9

>  <original_smiles>  (9) 
[H]c1c([H])c([H])c2c(c1[H])C([H])([H])C([H])([H])C([H])([H])C2([H])N([H])C(=O)C1([H])N(C(=O)C([H])(N([H])C(=O)C([H])(N([H])C([H])([H])[H])C([H])([H])[H])C(C([H])([H])[H])(C([H])([H])[H])C([H])([H])[H])C([H])([H])c2c([H])c(OC([H])([H])C(=O)N([H])C([H])([H])C([H])([H])C([H])([H])C([H])(C(=O)N([H])C([H])([H])C([H])([H])N([H])C(=O)N3C([H])([H])C([H])([H])C([H])([H])C([H])(n4nc(-c5c([H])c([H])c(Oc6c([H])c([H])c(F)c([H])c6F)c([H])c5[H])c(C(=O)N([H])[H])c4N([H])[H])C3([H])[H])N([H])C(=O)N([H])C([H])(C(=O)N([H])[H])C([H])([H])C([H])(C([H])([H])[H])C([H])([H])[H])c([H])c([H])c2C1([H])[H]

>  <smiles>  (9) 
[H]c1c([H])c([H])c2c(c1[H])C([H])([H])C([H])([H])C([H])([H])C2([H])N([H])C(=O)C1([H])N(C(=O)C([H])(N([H])C(=O)C([H])(N([H])C([H])([H])[H])C([H])([H])[H])C(C([H])([H])[H])(C([H])([H])[H])C([H])([H])[H])C([H])([H])c2c([H])c(OC([H])([H])C(=O)N([H])C([H])([H])C([H])([H])C([H])([H])C([H])(C(=O)N([H])C([H])([H])C([H])([H])N([H])C(=O)N3C([H])([H])C([H])([H])C([H])([H])C([H])(n4nc(-c5c([H])c([H])c(Oc6c([H])c([H])c(F)c([H])c6F)c([H])c5[H])c(C(=O)N([H])[H])c4N([H])[H])C3([H])[H])N([H])C(=O)N([H])C([H])(C(=O)N([H])[H])C([H])([H])C([H])(C([H])([H])[H])C([H])([H])[H])c([H])c([H])c2C1([H])[H]

$$$$
10:0:0
     RDKit          3D

109117  0  0  1  0  0  0  0  0999 V2000
  -26.5200  -27.0910   18.6580 C   0  0  0  0  0  2  0  0  0  0  0  0
  -26.5400  -25.4530   17.8590 C   0  0  0  0  0  0  0  0  0  0  0  0
  -27.0790  -24.2020   18.4330 N   0  0  0  0  0  0  0  0  0  0  0  0
  -26.1040  -25.3940   16.7080 O   0  0  0  0  0  0  0  0  0  0  0  0
  -27.3380  -24.3550   19.4040 H   0  0  0  0  0  0  0  0  0  0  0  0
  -27.6570  -22.7420   18.0590 C   0  0  0  0  0  2  0  0  0  0  0  0
  -27.3760  -21.1920   18.7780 C   0  0  0  0  0  2  0  0  0  0  0  0
  -28.6170  -18.6250   19.1590 C   0  0  0  0  0  0  0  0  0  0  0  0
  -28.3830  -20.0480   19.3590 N   0  0  0  0  0  0  0  0  0  0  0  0
  -28.1450  -18.1070   18.1470 O   0  0  0  0  0  0  0  0  0  0  0  0
  -28.7200  -20.3300   20.2720 H   0  0  0  0  0  0  0  0  0  0  0  0
  -30.2510  -18.1910   21.2950 C   0  0  0  0  0  1  0  0  0  0  0  0
  -29.3740  -17.5180   20.2140 C   0  0  0  0  0  0  0  0  0  0  0  0
  -30.5210  -14.7930   20.2500 C   0  0  0  0  0  0  0  0  0  0  0  0
  -30.6680  -12.3420   19.5070 C   0  0  0  0  0  2  0  0  0  0  0  0
  -29.7590  -12.1420   18.2770 C   0  0  0  0  0  2  0  0  0  0  0  0
  -28.3000  -11.8940   18.7310 C   0  0  0  0  0  2  0  0  0  0  0  0
  -27.8340  -12.8840   19.8280 C   0  0  0  0  0  3  0  0  0  0  0  0
  -28.8740  -12.9680   20.9590 C   0  0  0  0  0  2  0  0  0  0  0  0
  -30.0860  -13.4600   20.3050 N   0  0  0  0  0  0  0  0  0  0  0  0
  -31.7530  -14.9180   20.1510 O   0  0  0  0  0  0  0  0  0  0  0  0
  -29.5590  -15.8880   20.1580 N   0  0  0  0  0  4  0  0  0  0  0  0
  -28.6310  -15.5140   20.1150 H   0  0  0  0  0  0  0  0  0  0  0  0
  -25.4600  -13.4850   20.5550 C   0  0  0  0  0  0  0  0  0  0  0  0
  -24.3960  -12.7120   20.9370 C   0  0  0  0  0  0  0  0  0  0  0  0
  -24.8650  -11.3630   20.9290 C   0  0  0  0  0  0  0  0  0  0  0  0
  -26.5000  -12.5980   20.3320 N   0  0  0  0  0  0  0  0  0  0  0  0
  -26.1560  -11.3240   20.6300 N   0  0  0  0  0  0  0  0  0  0  0  0
  -24.1390  -10.1010   21.1290 C   0  0  0  0  0  0  0  0  0  0  0  0
  -24.5060   -9.1950   22.1470 C   0  0  0  0  0  3  0  0  0  0  0  0
  -23.7800   -7.9980   22.3380 C   0  0  0  0  0  3  0  0  0  0  0  0
  -22.6730   -7.7020   21.5100 C   0  0  0  0  0  0  0  0  0  0  0  0
  -22.3270   -8.5930   20.4800 C   0  0  0  0  0  3  0  0  0  0  0  0
  -23.0540   -9.7810   20.2880 C   0  0  0  0  0  3  0  0  0  0  0  0
  -21.9290   -6.5500   21.6030 O   0  0  0  0  0  0  0  0  0  0  0  0
  -21.7340   -5.9170   22.8030 C   0  0  0  0  0  0  0  0  0  0  0  0
  -21.1150   -6.5630   23.8960 C   0  0  0  0  0  3  0  0  0  0  0  0
  -20.8730   -5.8520   25.0880 C   0  0  0  0  0  3  0  0  0  0  0  0
  -21.2410   -4.4970   25.1870 C   0  0  0  0  0  0  0  0  0  0  0  0
  -21.8510   -3.8510   24.0990 C   0  0  0  0  0  3  0  0  0  0  0  0
  -22.0940   -4.5590   22.9080 C   0  0  0  0  0  0  0  0  0  0  0  0
  -22.6640   -3.9290   21.8530 F   0  0  0  0  0  0  0  0  0  0  0  0
  -21.0000   -3.8080   26.3270 F   0  0  0  0  0  0  0  0  0  0  0  0
  -22.9950  -13.1930   21.1820 C   0  0  0  0  0  0  0  0  0  0  0  0
  -22.2560  -12.5140   22.0520 N   0  0  0  0  0  0  0  0  0  0  0  0
  -22.5640  -14.2030   20.6320 O   0  0  0  0  0  0  0  0  0  0  0  0
  -22.6150  -11.6910   22.5180 H   0  0  0  0  0  0  0  0  0  0  0  0
  -21.3160  -12.8190   22.2600 H   0  0  0  0  0  0  0  0  0  0  0  0
  -25.6200  -14.8520   20.3480 N   0  0  0  0  0  0  0  0  0  0  0  0
  -24.8470  -15.4990   20.4560 H   0  0  0  0  0  0  0  0  0  0  0  0
  -26.4230  -15.2700   19.9050 H   0  0  0  0  0  0  0  0  0  0  0  0
  -28.0720  -28.3230   17.0290 C   0  0  0  0  0  0  0  0  0  0  0  0
  -26.8650  -28.1960   17.6590 N   0  0  0  0  0  0  0  0  0  0  0  0
  -28.1630  -28.5850   15.8230 O   0  0  0  0  0  0  0  0  0  0  0  0
  -26.2710  -29.0290   17.7020 H   0  0  0  0  0  0  0  0  0  0  0  0
  -29.3820  -28.1350   17.8540 C   0  0  0  0  0  2  0  0  0  0  0  0
  -29.8630  -25.7760   18.8260 C   0  0  0  0  0  0  0  0  0  0  0  0
  -29.8210  -26.7400   17.8830 N   0  0  0  0  0  0  0  0  0  0  0  0
  -30.2180  -24.6780   18.4040 O   0  0  0  0  0  0  0  0  0  0  0  0
  -30.1430  -26.4000   16.9840 H   0  0  0  0  0  0  0  0  0  0  0  0
  -29.5280  -25.8770   20.3630 C   0  0  0  0  0  2  0  0  0  0  0  0
  -28.8110  -27.0120   20.8330 O   0  0  0  0  0  0  0  0  0  0  0  0
  -24.6530  -32.0800   23.3750 C   0  0  0  0  0  0  0  0  0  0  0  0
  -27.4770  -27.2990   20.9250 C   0  0  1  0  0  0  0  0  0  0  0  0
  -23.3990  -30.6700   21.7560 C   0  0  0  0  0  3  0  0  0  0  0  0
  -24.7060  -28.9950   20.1620 C   0  0  0  0  0  3  0  0  0  0  0  0
  -25.8820  -31.1480   21.2760 C   0  0  0  0  0  2  0  0  0  0  0  0
  -26.0620  -29.7730   20.5020 C   0  0  0  0  0  3  0  0  0  0  0  0
  -27.4280  -28.9560   20.8140 C   0  0  0  0  0  2  0  0  0  0  0  0
  -25.9790  -26.4100   20.6830 C   0  0  0  0  0  3  0  0  0  0  0  0
  -24.5930  -27.3340   20.2260 C   0  0  0  0  0  2  0  0  0  0  0  0
  -23.5000  -29.9150   20.3700 C   0  0  0  0  0  2  0  0  0  0  0  0
  -24.6910  -31.3020   22.2150 N   0  0  0  0  0  0  0  0  0  0  0  0
  -23.5830  -32.3460   23.9430 O   0  0  0  0  0  0  0  0  0  0  0  0
  -22.6680  -29.7850   22.8110 C   0  0  0  0  0  0  0  0  0  0  0  0
  -21.3620  -29.5440   22.6240 N   0  0  0  0  0  0  0  0  0  0  0  0
  -23.2780  -29.3010   23.7700 O   0  0  0  0  0  0  0  0  0  0  0  0
  -20.9170  -29.9650   21.8190 H   0  0  0  0  0  0  0  0  0  0  0  0
  -18.0210  -28.2470   23.0470 C   0  0  0  0  0  0  0  0  0  0  0  0
  -20.5520  -28.6130   23.4190 C   0  0  0  0  0  3  0  0  0  0  0  0
  -20.7340  -27.1680   22.9020 C   0  0  0  0  0  2  0  0  0  0  0  0
  -19.6960  -26.7740   21.8440 C   0  0  0  0  0  2  0  0  0  0  0  0
  -18.2810  -26.8860   22.4180 C   0  0  0  0  0  2  0  0  0  0  0  0
  -19.0920  -29.0620   23.5040 C   0  0  0  0  0  0  0  0  0  0  0  0
  -18.8070  -30.3310   24.0490 C   0  0  0  0  0  3  0  0  0  0  0  0
  -17.4800  -30.7850   24.1560 C   0  0  0  0  0  3  0  0  0  0  0  0
  -16.4210  -29.9680   23.7240 C   0  0  0  0  0  3  0  0  0  0  0  0
  -16.6910  -28.7030   23.1710 C   0  0  0  0  0  3  0  0  0  0  0  0
  -25.9220  -32.7150   24.0410 C   0  0  0  0  0  3  0  0  0  0  0  0
  -25.6220  -34.1240   24.3770 N   0  0  0  0  0  0  0  0  0  0  0  0
  -26.0240  -35.1800   23.6570 C   0  0  0  0  0  0  0  0  0  0  0  0
  -26.7290  -35.0650   22.6540 O   0  0  0  0  0  0  0  0  0  0  0  0
  -25.0050  -34.2850   25.1600 H   0  0  0  0  0  0  0  0  0  0  0  0
  -24.3650  -37.0310   23.2760 C   0  0  0  0  0  1  0  0  0  0  0  0
  -25.5730  -36.5850   24.1150 C   0  0  0  0  0  3  0  0  0  0  0  0
  -27.7160  -37.3930   25.0060 C   0  0  0  0  0  1  0  0  0  0  0  0
  -26.6440  -37.6050   24.0350 N   0  0  0  0  0  0  0  0  0  0  0  0
  -26.2680  -38.5390   24.1790 H   0  0  0  0  0  0  0  0  0  0  0  0
  -26.3970  -31.9720   25.3570 C   0  0  1  0  0  0  0  0  0  0  0  0
  -25.2870  -31.7910   26.4260 C   0  0  0  0  0  1  0  0  0  0  0  0
  -26.9270  -30.5780   24.9990 C   0  0  0  0  0  1  0  0  0  0  0  0
  -27.5620  -32.7410   26.0100 C   0  0  0  0  0  1  0  0  0  0  0  0
  -26.0490  -27.5130   21.8700 C   0  0  0  0  0  3  0  0  0  0  0  0
  -26.3400  -26.5050   23.0870 C   0  0  0  0  0  2  0  0  0  0  0  0
  -27.6990  -26.6020   23.8150 C   0  0  0  0  0  0  0  0  0  0  0  0
  -27.9160  -25.7870   24.8340 N   0  0  0  0  0  0  0  0  0  0  0  0
  -28.5590  -27.4210   23.5040 O   0  0  0  0  0  0  0  0  0  0  0  0
  -27.2160  -25.1080   25.1080 H   0  0  0  0  0  0  0  0  0  0  0  0
  -28.7780  -25.8760   25.3600 H   0  0  0  0  0  0  0  0  0  0  0  0
  2  3  1  0
  2  1  1  0
  3  5  1  0
  4  2  2  0
  6  3  1  0
  6  7  1  0
  7  9  1  0
  8  9  1  0
  8 13  1  0
  9 11  1  0
 10  8  2  0
 13 12  1  0
 14 20  1  0
 15 20  1  0
 16 17  1  0
 16 15  1  0
 18 17  1  0
 18 27  1  0
 18 19  1  0
 20 19  1  0
 21 14  2  0
 22 13  2  0
 22 14  1  0
 23 22  1  0
 24 25  2  0
 25 44  1  0
 26 25  1  0
 26 29  1  0
 27 24  1  0
 27 28  1  0
 28 26  2  0
 29 30  1  0
 30 31  2  0
 32 35  1  0
 32 31  1  0
 33 32  2  0
 34 33  1  0
 34 29  2  0
 35 36  1  0
 36 41  2  0
 36 37  1  0
 37 38  2  0
 38 39  1  0
 39 43  1  0
 40 39  2  0
 41 40  1  0
 42 41  1  0
 44 45  1  0
 45 48  1  0
 45 47  1  0
 46 44  2  0
 49 50  1  0
 49 24  1  0
 51 49  1  0
 52 53  1  0
 52 56  1  0
 53 55  1  0
 53  1  1  0
 54 52  2  0
 56 58  1  0
 57 61  1  0
 58 57  1  0
 59 57  2  0
 60 58  1  0
 61 62  1  0
 63 74  2  0
 64 62  1  1
 64103  1  0
 65 73  1  0
 65 75  1  0
 66 71  1  0
 66 72  1  0
 66 68  1  0
 67 73  1  0
 68 69  1  0
 68 67  1  0
 69 64  1  0
 70 71  1  0
 70 64  1  0
 70103  1  0
 72 65  1  0
 73 63  1  0
 75 77  2  0
 76 75  1  0
 78 76  1  0
 79 88  2  0
 79 84  1  0
 80 76  1  0
 80 84  1  0
 81 80  1  0
 82 83  1  0
 82 81  1  0
 83 79  1  0
 84 85  2  0
 85 86  1  0
 87 86  2  0
 88 87  1  0
 89 63  1  0
 89 90  1  0
 89 99  1  0
 90 93  1  0
 91 95  1  0
 91 90  1  0
 92 91  2  0
 95 94  1  0
 97 95  1  0
 97 98  1  0
 97 96  1  0
 99102  1  1
 99100  1  0
101 99  1  0
103104  1  0
104105  1  0
105106  1  0
106108  1  0
106109  1  0
107105  2  0
M  ISO  4  14 100  22 100  61 101  62 101
M  END
>  <TORSDO>  (10) 
F 28

>  <SCORE>  (10) 
-12.033

>  <name>  (10) 
10

>  <ligand_id>  (10) 
10

>  <original_smiles>  (10) 
[H]c1c([H])c([H])c2c(c1[H])C([H])([H])C([H])([H])C([H])([H])C2([H])N([H])C(=O)C1([H])N(C(=O)C([H])(N([H])C(=O)C([H])(N([H])C([H])([H])[H])C([H])([H])[H])C(C([H])([H])[H])(C([H])([H])[H])C([H])([H])[H])C([H])([H])c2c([H])c(OC([H])([H])C(=O)N([H])C([H])([H])C(=O)N([H])C([H])(C(=O)N([H])C([H])([H])C([H])([H])N([H])C(=O)C([H])(N([H])C(=O)N3C([H])([H])C([H])([H])C([H])([H])C([H])(n4nc(-c5c([H])c([H])c(Oc6c([H])c([H])c(F)c([H])c6F)c([H])c5[H])c(C(=O)N([H])[H])c4N([H])[H])C3([H])[H])C([H])([H])[H])C([H])([H])C([H])([H])C(=O)N([H])[H])c([H])c([H])c2C1([H])[H]

>  <smiles>  (10) 
[H]c1c([H])c([H])c2c(c1[H])C([H])([H])C([H])([H])C([H])([H])C2([H])N([H])C(=O)C1([H])N(C(=O)C([H])(N([H])C(=O)C([H])(N([H])C([H])([H])[H])C([H])([H])[H])C(C([H])([H])[H])(C([H])([H])[H])C([H])([H])[H])C([H])([H])c2c([H])c(OC([H])([H])C(=O)N([H])C([H])([H])C(=O)N([H])C([H])(C(=O)N([H])C([H])([H])C([H])([H])N([H])C(=O)C([H])(N([H])C(=O)N3C([H])([H])C([H])([H])C([H])([H])C([H])(n4nc(-c5c([H])c([H])c(Oc6c([H])c([H])c(F)c([H])c6F)c([H])c5[H])c(C(=O)N([H])[H])c4N([H])[H])C3([H])[H])C([H])([H])[H])C([H])([H])C([H])([H])C(=O)N([H])[H])c([H])c([H])c2C1([H])[H]

$$$$
11:0:0
     RDKit          3D

108115  0  0  1  0  0  0  0  0999 V2000
  -20.8150  -29.8640   21.2610 C   0  0  0  0  0  2  0  0  0  0  0  0
  -21.7990  -30.5500   24.1310 C   0  0  0  0  0  0  0  0  0  0  0  0
  -21.1360  -30.5900   22.7910 N   0  0  0  0  0  0  0  0  0  0  0  0
  -21.4720  -31.5120   24.8300 O   0  0  0  0  0  0  0  0  0  0  0  0
  -20.5540  -31.4150   22.8390 H   0  0  0  0  0  0  0  0  0  0  0  0
  -22.6950  -29.6190   26.5410 C   0  0  0  0  0  1  0  0  0  0  0  0
  -22.8730  -29.4890   25.0020 C   0  0  0  0  0  0  0  0  0  0  0  0
  -25.1280  -27.8660   24.6030 C   0  0  0  0  0  0  0  0  0  0  0  0
  -24.3730  -29.0770   24.6660 N   0  0  0  0  0  4  0  0  0  0  0  0
  -24.7620  -26.8840   25.2450 O   0  0  0  0  0  0  0  0  0  0  0  0
  -24.8330  -29.7940   24.1360 H   0  0  0  0  0  0  0  0  0  0  0  0
  -26.4110  -27.6740   23.5460 C   0  0  0  0  0  2  0  0  0  0  0  0
  -26.6630  -26.4650   22.5620 N   0  0  0  0  0  0  0  0  0  0  0  0
  -26.9880  -25.6460   23.0670 H   0  0  0  0  0  0  0  0  0  0  0  0
  -27.7000  -26.6750   21.3580 O   0  0  0  0  0  0  0  0  0  0  0  0
  -24.7330  -31.9220   23.1170 C   0  0  0  0  0  0  0  0  0  0  0  0
  -27.1340  -27.4710   20.4150 C   0  0  0  0  0  0  0  0  0  0  0  0
  -23.5500  -30.3090   21.5210 C   0  0  0  0  0  3  0  0  0  0  0  0
  -25.0180  -29.1310   19.8780 C   0  0  0  0  0  0  0  0  0  0  0  0
  -26.0240  -30.9070   21.3170 C   0  0  0  0  0  2  0  0  0  0  0  0
  -26.1350  -29.6170   20.5550 C   0  0  0  0  0  0  0  0  0  0  0  0
  -27.2750  -28.8250   20.6920 C   0  0  0  0  0  3  0  0  0  0  0  0
  -26.0990  -26.9830   19.5940 C   0  0  0  0  0  3  0  0  0  0  0  0
  -25.0330  -27.8530   19.2960 C   0  0  0  0  0  3  0  0  0  0  0  0
  -23.7910  -29.9820   20.0180 C   0  0  0  0  0  2  0  0  0  0  0  0
  -24.7770  -31.0000   22.1000 N   0  0  0  0  0  0  0  0  0  0  0  0
  -23.6700  -32.3670   23.5250 O   0  0  0  0  0  0  0  0  0  0  0  0
  -23.1450  -28.8660   22.1830 C   0  0  0  0  0  0  0  0  0  0  0  0
  -22.0460  -28.1770   22.7490 N   0  0  0  0  0  0  0  0  0  0  0  0
  -24.0060  -28.0810   22.2390 O   0  0  0  0  0  0  0  0  0  0  0  0
  -22.5170  -27.3090   22.9650 H   0  0  0  0  0  0  0  0  0  0  0  0
  -17.9970  -28.0880   22.7430 C   0  0  0  0  0  0  0  0  0  0  0  0
  -20.5820  -27.9170   23.2580 C   0  0  0  0  0  3  0  0  0  0  0  0
  -20.4220  -26.4720   22.8160 C   0  0  0  0  0  2  0  0  0  0  0  0
  -19.3760  -26.1320   21.7650 C   0  0  0  0  0  2  0  0  0  0  0  0
  -18.0190  -26.7530   22.0360 C   0  0  0  0  0  2  0  0  0  0  0  0
  -19.1580  -28.6860   23.3080 C   0  0  0  0  0  0  0  0  0  0  0  0
  -18.8550  -29.8360   24.1120 C   0  0  0  0  0  3  0  0  0  0  0  0
  -17.6160  -30.5010   24.1310 C   0  0  0  0  0  3  0  0  0  0  0  0
  -16.5190  -29.8920   23.5250 C   0  0  0  0  0  3  0  0  0  0  0  0
  -16.7110  -28.6620   22.8850 C   0  0  0  0  0  3  0  0  0  0  0  0
  -26.0010  -32.5400   23.8150 C   0  0  0  0  0  3  0  0  0  0  0  0
  -25.6440  -33.9020   24.2180 N   0  0  0  0  0  0  0  0  0  0  0  0
  -25.9210  -34.9850   23.4930 C   0  0  0  0  0  0  0  0  0  0  0  0
  -26.5640  -34.9350   22.4410 O   0  0  0  0  0  0  0  0  0  0  0  0
  -25.0480  -34.0040   25.0280 H   0  0  0  0  0  0  0  0  0  0  0  0
  -24.1470  -36.7500   23.2570 C   0  0  0  0  0  1  0  0  0  0  0  0
  -25.4120  -36.3340   24.0240 C   0  0  0  0  0  3  0  0  0  0  0  0
  -27.5590  -37.1960   24.8480 C   0  0  0  0  0  1  0  0  0  0  0  0
  -26.4280  -37.4040   23.9460 N   0  0  0  0  0  0  0  0  0  0  0  0
  -26.0160  -38.3080   24.1580 H   0  0  0  0  0  0  0  0  0  0  0  0
  -26.5310  -31.7830   25.0940 C   0  0  1  0  0  0  0  0  0  0  0  0
  -25.4530  -31.5460   26.1710 C   0  0  0  0  0  1  0  0  0  0  0  0
  -27.1920  -30.4800   24.6710 C   0  0  0  0  0  1  0  0  0  0  0  0
  -27.6720  -32.5620   25.7770 C   0  0  0  0  0  1  0  0  0  0  0  0
  -21.0490  -28.2440   20.3750 C   0  0  0  0  0  2  0  0  0  0  0  0
  -22.9860  -25.6520   20.0610 C   0  0  0  0  0  0  0  0  0  0  0  0
  -23.2210  -25.2940   18.7840 N   0  0  0  0  0  4  0  0  0  0  0  0
  -22.1140  -26.9120   20.0480 N   0  0  0  0  0  0  0  0  0  0  0  0
  -23.7770  -24.4680   18.6050 H   0  0  0  0  0  0  0  0  0  0  0  0
  -22.7410  -25.6760   17.9810 H   0  0  0  0  0  0  0  0  0  0  0  0
  -22.1810  -27.1400   19.0690 H   0  0  0  0  0  0  0  0  0  0  0  0
  -23.7350  -24.3510   20.9690 C   0  0  0  0  0  2  0  0  0  0  0  0
  -24.8660  -23.0310   20.3470 C   0  0  0  0  0  3  0  0  0  0  0  0
  -25.5850  -21.4690   20.9990 C   0  0  0  0  0  3  0  0  0  0  0  0
  -27.1960  -18.9520   20.8430 C   0  0  0  0  0  0  0  0  0  0  0  0
  -26.7480  -20.3360   20.4780 N   0  0  0  0  0  0  0  0  0  0  0  0
  -26.4940  -18.4090   21.6960 O   0  0  0  0  0  0  0  0  0  0  0  0
  -27.3590  -20.7360   19.7760 H   0  0  0  0  0  0  0  0  0  0  0  0
  -28.5490  -17.9100   20.3490 C   0  0  0  0  0  2  0  0  0  0  0  0
  -30.0260  -15.2510   20.4230 C   0  0  0  0  0  0  0  0  0  0  0  0
  -30.4050  -12.8170   19.5580 C   0  0  0  0  0  2  0  0  0  0  0  0
  -29.5290  -12.5880   18.2960 C   0  0  0  0  0  2  0  0  0  0  0  0
  -28.0660  -12.2910   18.6880 C   0  0  0  0  0  2  0  0  0  0  0  0
  -27.5750  -13.2250   19.8210 C   0  0  0  0  0  3  0  0  0  0  0  0
  -28.5580  -13.2770   20.9950 C   0  0  0  0  0  2  0  0  0  0  0  0
  -29.7490  -13.8670   20.4210 N   0  0  0  0  0  0  0  0  0  0  0  0
  -31.2270  -15.4680   20.1400 O   0  0  0  0  0  0  0  0  0  0  0  0
  -28.9360  -16.2750   20.5820 N   0  0  0  0  0  0  0  0  0  0  0  0
  -28.1020  -15.7940   20.8890 H   0  0  0  0  0  0  0  0  0  0  0  0
  -25.2220  -13.8130   20.5620 C   0  0  0  0  0  0  0  0  0  0  0  0
  -24.1590  -13.0380   20.9260 C   0  0  0  0  0  0  0  0  0  0  0  0
  -24.6190  -11.6860   20.8760 C   0  0  0  0  0  0  0  0  0  0  0  0
  -26.2470  -12.9250   20.2950 N   0  0  0  0  0  0  0  0  0  0  0  0
  -25.9050  -11.6430   20.5580 N   0  0  0  0  0  0  0  0  0  0  0  0
  -23.8940  -10.4260   21.0450 C   0  0  0  0  0  0  0  0  0  0  0  0
  -24.3550   -9.4190   21.9200 C   0  0  0  0  0  3  0  0  0  0  0  0
  -23.6260   -8.2200   22.0760 C   0  0  0  0  0  3  0  0  0  0  0  0
  -22.4240   -8.0240   21.3540 C   0  0  0  0  0  0  0  0  0  0  0  0
  -21.9840   -9.0210   20.4640 C   0  0  0  0  0  3  0  0  0  0  0  0
  -22.7150  -10.2100   20.3070 C   0  0  0  0  0  3  0  0  0  0  0  0
  -21.6620   -6.8840   21.4240 O   0  0  0  0  0  0  0  0  0  0  0  0
  -21.6840   -6.0710   22.5290 C   0  0  0  0  0  0  0  0  0  0  0  0
  -21.4000   -6.5620   23.8220 C   0  0  0  0  0  3  0  0  0  0  0  0
  -21.3660   -5.6770   24.9180 C   0  0  0  0  0  3  0  0  0  0  0  0
  -21.6040   -4.3040   24.7230 C   0  0  0  0  0  0  0  0  0  0  0  0
  -21.8820   -3.8130   23.4360 C   0  0  0  0  0  3  0  0  0  0  0  0
  -21.9190   -4.6940   22.3410 C   0  0  0  0  0  0  0  0  0  0  0  0
  -22.1660   -4.2130   21.0990 F   0  0  0  0  0  0  0  0  0  0  0  0
  -21.5640   -3.4530   25.7750 F   0  0  0  0  0  0  0  0  0  0  0  0
  -22.7660  -13.5210   21.1950 C   0  0  0  0  0  0  0  0  0  0  0  0
  -22.0310  -12.8200   22.0520 N   0  0  0  0  0  0  0  0  0  0  0  0
  -22.3370  -14.5520   20.6810 O   0  0  0  0  0  0  0  0  0  0  0  0
  -22.3930  -11.9840   22.4890 H   0  0  0  0  0  0  0  0  0  0  0  0
  -21.0950  -13.1230   22.2760 H   0  0  0  0  0  0  0  0  0  0  0  0
  -25.3950  -15.1860   20.4050 N   0  0  0  0  0  0  0  0  0  0  0  0
  -24.6270  -15.8330   20.5460 H   0  0  0  0  0  0  0  0  0  0  0  0
  -26.1850  -15.6170   19.9450 H   0  0  0  0  0  0  0  0  0  0  0  0
  1  3  1  0
  2  4  2  0
  2  7  1  0
  3  5  1  0
  3  2  1  0
  7  6  1  0
  8  9  1  0
  8 10  2  0
  9  7  2  0
 11  9  1  0
 12  8  1  0
 13 14  1  0
 13 12  1  0
 15 13  1  0
 16 27  2  0
 17 22  1  0
 17 15  1  0
 18 26  1  0
 18 28  1  0
 19 25  1  0
 19 21  1  0
 20 26  1  0
 21 22  2  0
 21 20  1  0
 23 17  2  0
 24 23  1  0
 24 19  2  0
 25 18  1  0
 26 16  1  0
 28 30  2  0
 28 29  1  0
 29 31  1  0
 32 41  2  0
 32 37  1  0
 33 29  1  0
 33 37  1  0
 34 33  1  0
 35 36  1  0
 35 34  1  0
 36 32  1  0
 37 38  2  0
 38 39  1  0
 40 39  2  0
 41 40  1  0
 42 16  1  0
 42 43  1  0
 42 52  1  0
 43 46  1  0
 44 48  1  0
 44 43  1  0
 45 44  2  0
 48 47  1  0
 50 48  1  0
 50 51  1  0
 50 49  1  0
 52 55  1  1
 52 53  1  0
 54 52  1  0
 56  1  1  0
 57 63  1  0
 58 57  2  0
 59 57  1  0
 59 56  1  0
 60 58  1  0
 61 58  1  0
 62 59  1  0
 64 63  1  0
 64 65  2  0
 66 68  2  0
 67 66  1  0
 67 65  1  0
 69 67  1  0
 70 79  1  0
 70 66  1  0
 71 79  1  0
 72 77  1  0
 73 74  1  0
 73 72  1  0
 75 74  1  0
 75 84  1  0
 75 76  1  0
 77 71  1  0
 77 76  1  0
 78 71  2  0
 79 80  1  0
 81 82  2  0
 82101  1  0
 83 82  1  0
 83 86  1  0
 84 85  1  0
 84 81  1  0
 85 83  2  0
 86 87  1  0
 87 88  2  0
 89 92  1  0
 89 88  1  0
 90 89  2  0
 91 90  1  0
 91 86  2  0
 92 93  1  0
 93 94  1  0
 94 95  2  0
 96 95  1  0
 96100  1  0
 97 96  2  0
 98 93  2  0
 98 97  1  0
 99 98  1  0
101102  1  0
102105  1  0
102104  1  0
103101  2  0
106107  1  0
106 81  1  0
108106  1  0
M  ISO  4  13 101  15 101  71 100  79 100
M  END
>  <TORSDO>  (11) 
F 28

>  <SCORE>  (11) 
3.398

>  <name>  (11) 
11

>  <ligand_id>  (11) 
11

>  <original_smiles>  (11) 
[H]c1c([H])c([H])c2c(c1[H])C([H])([H])C([H])([H])C([H])([H])C2([H])N([H])C(=O)C1([H])N(C(=O)C([H])(N([H])C(=O)C([H])(N([H])C([H])([H])[H])C([H])([H])[H])C(C([H])([H])[H])(C([H])([H])[H])C([H])([H])[H])C([H])([H])c2c([H])c(ON([H])C([H])([H])C(=O)N([H])C([H])(C(=O)N([H])C([H])([H])C([H])([H])[N+]([H])=C(N([H])[H])C([H])([H])C([H])([H])C([H])([H])N([H])C(=O)C([H])([H])N([H])C(=O)N3C([H])([H])C([H])([H])C([H])([H])C([H])(n4nc(-c5c([H])c([H])c(Oc6c([H])c([H])c(F)c([H])c6F)c([H])c5[H])c(C(=O)N([H])[H])c4N([H])[H])C3([H])[H])C([H])([H])[H])c([H])c([H])c2C1([H])[H]

>  <smiles>  (11) 
[H]c1c([H])c([H])c2c(c1[H])C([H])([H])C([H])([H])C([H])([H])C2([H])N([H])C(=O)C1([H])N(C(=O)C([H])(N([H])C(=O)C([H])(N([H])C([H])([H])[H])C([H])([H])[H])C(C([H])([H])[H])(C([H])([H])[H])C([H])([H])[H])C([H])([H])c2c([H])c(ON([H])C([H])([H])C(=O)N([H])C([H])(C(=O)N([H])C([H])([H])C([H])([H])[N+]([H])=C(N([H])[H])C([H])([H])C([H])([H])C([H])([H])N([H])C(=O)C([H])([H])N([H])C(=O)N3C([H])([H])C([H])([H])C([H])([H])C([H])(n4nc(-c5c([H])c([H])c(Oc6c([H])c([H])c(F)c([H])c6F)c([H])c5[H])c(C(=O)N([H])[H])c4N([H])[H])C3([H])[H])C([H])([H])[H])c([H])c([H])c2C1([H])[H]

$$$$
12:0:0
     RDKit          3D

112118  0  0  1  0  0  0  0  0999 V2000
  -24.0610  -22.1980   20.2060 C   0  0  0  0  0  0  0  0  0  0  0  0
  -25.3530  -22.5710   19.9960 N   0  0  0  0  0  0  0  0  0  0  0  0
  -23.3830  -21.6150   19.3590 O   0  0  0  0  0  0  0  0  0  0  0  0
  -25.8410  -22.8860   20.8220 H   0  0  0  0  0  0  0  0  0  0  0  0
  -23.4050  -22.4050   21.5860 C   0  0  0  0  0  2  0  0  0  0  0  0
  -23.3330  -23.8490   22.1570 C   0  0  0  0  0  2  0  0  0  0  0  0
  -23.1060  -26.3040   21.7240 C   0  0  0  0  0  0  0  0  0  0  0  0
  -23.1740  -25.0240   21.2420 N   0  0  0  0  0  0  0  0  0  0  0  0
  -22.8090  -26.3850   22.9140 O   0  0  0  0  0  0  0  0  0  0  0  0
  -23.3470  -24.8720   20.2570 H   0  0  0  0  0  0  0  0  0  0  0  0
  -25.8200  -27.3440   22.1530 C   0  0  0  0  0  0  0  0  0  0  0  0
  -23.3450  -30.6750   19.5300 C   0  0  0  0  0  2  0  0  0  0  0  0
  -22.6340  -28.9430   19.7370 C   0  0  0  0  0  1  0  0  0  0  0  0
  -25.0100  -30.8120   20.4710 C   0  0  0  0  0  2  0  0  0  0  0  0
  -23.6100  -27.6490   20.8570 C   0  0  0  0  0  2  0  0  0  0  0  0
  -25.0220  -28.4110   21.5070 N   0  0  0  0  0  2  0  0  0  0  0  0
  -25.6760  -26.1640   21.8290 O   0  0  0  0  0  0  0  0  0  0  0  0
  -27.1880  -27.2290   22.9680 C   0  0  0  0  0  2  0  0  0  0  0  0
  -28.3240  -26.7460   22.0940 O   0  0  0  0  0  0  0  0  0  0  0  0
  -25.0450  -31.6060   24.2680 C   0  0  0  0  0  0  0  0  0  0  0  0
  -28.3440  -27.5640   21.0490 C   0  0  0  0  0  0  0  0  0  0  0  0
  -23.8280  -30.4230   22.2570 C   0  0  0  0  0  2  0  0  0  0  0  0
  -26.5450  -29.1860   19.9140 C   0  0  0  0  0  0  0  0  0  0  0  0
  -26.7820  -30.5830   22.6010 C   0  0  0  0  0  2  0  0  0  0  0  0
  -27.3180  -29.7190   21.1620 C   0  0  0  0  0  0  0  0  0  0  0  0
  -28.4400  -28.9260   21.4150 C   0  0  0  0  0  3  0  0  0  0  0  0
  -27.6030  -27.0860   19.9610 C   0  0  0  0  0  3  0  0  0  0  0  0
  -26.7650  -27.9580   19.3140 C   0  0  0  0  0  3  0  0  0  0  0  0
  -24.9320  -29.2940   19.6830 C   0  0  0  0  0  2  0  0  0  0  0  0
  -25.2230  -30.8070   23.1840 N   0  0  0  0  0  0  0  0  0  0  0  0
  -23.9320  -32.1020   24.5260 O   0  0  0  0  0  0  0  0  0  0  0  0
  -22.7800  -29.8190   23.1460 C   0  0  0  0  0  0  0  0  0  0  0  0
  -21.6250  -29.6760   22.5220 N   0  0  0  0  0  0  0  0  0  0  0  0
  -23.1340  -29.3370   24.2050 O   0  0  0  0  0  0  0  0  0  0  0  0
  -21.5810  -30.2200   21.6790 H   0  0  0  0  0  0  0  0  0  0  0  0
  -18.1000  -29.0150   22.4480 C   0  0  0  0  0  0  0  0  0  0  0  0
  -20.6200  -28.6240   22.5410 C   0  0  0  0  0  3  0  0  0  0  0  0
  -20.3050  -27.8250   21.2120 C   0  0  0  0  0  2  0  0  0  0  0  0
  -19.1000  -28.1470   20.3740 C   0  0  0  0  0  2  0  0  0  0  0  0
  -17.9120  -28.0870   21.2640 C   0  0  0  0  0  2  0  0  0  0  0  0
  -19.3620  -29.2790   23.0340 C   0  0  0  0  0  0  0  0  0  0  0  0
  -19.4570  -30.1590   24.1300 C   0  0  0  0  0  3  0  0  0  0  0  0
  -18.3040  -30.7610   24.6480 C   0  0  0  0  0  3  0  0  0  0  0  0
  -17.0520  -30.4710   24.0820 C   0  0  0  0  0  3  0  0  0  0  0  0
  -16.9510  -29.6020   22.9850 C   0  0  0  0  0  3  0  0  0  0  0  0
  -26.2030  -31.9210   25.2410 C   0  0  0  0  0  3  0  0  0  0  0  0
  -26.0980  -31.0470   26.5530 C   0  0  1  0  0  0  0  0  0  0  0  0
  -24.6430  -30.8210   27.0350 C   0  0  0  0  0  1  0  0  0  0  0  0
  -26.7430  -29.6600   26.3450 C   0  0  0  0  0  1  0  0  0  0  0  0
  -26.8840  -31.7230   27.6930 C   0  0  0  0  0  1  0  0  0  0  0  0
  -26.1350  -33.3500   25.5740 N   0  0  0  0  0  0  0  0  0  0  0  0
  -26.8480  -34.3180   24.9890 C   0  0  0  0  0  0  0  0  0  0  0  0
  -27.7150  -34.0800   24.1460 O   0  0  0  0  0  0  0  0  0  0  0  0
  -25.4030  -33.6300   26.2050 H   0  0  0  0  0  0  0  0  0  0  0  0
  -25.6720  -36.4530   24.3640 C   0  0  0  0  0  1  0  0  0  0  0  0
  -26.5690  -35.7730   25.4120 C   0  0  0  0  0  3  0  0  0  0  0  0
  -28.5880  -36.1460   26.7560 C   0  0  0  0  0  1  0  0  0  0  0  0
  -27.7950  -36.5830   25.6100 N   0  0  0  0  0  0  0  0  0  0  0  0
  -27.5560  -37.5640   25.7430 H   0  0  0  0  0  0  0  0  0  0  0  0
  -26.1030  -22.8060   18.7210 C   0  0  0  0  0  3  0  0  0  0  0  0
  -25.3860  -23.6970   17.6730 C   0  0  0  0  0  0  0  0  0  0  0  0
  -25.0490  -24.9300   18.0500 N   0  0  0  0  0  0  0  0  0  0  0  0
  -25.0950  -23.2790   16.5520 O   0  0  0  0  0  0  0  0  0  0  0  0
  -25.2090  -25.2290   19.0000 H   0  0  0  0  0  0  0  0  0  0  0  0
  -24.4890  -25.5130   17.4400 H   0  0  0  0  0  0  0  0  0  0  0  0
  -26.7490  -21.4960   18.1320 C   0  0  0  0  0  3  0  0  0  0  0  0
  -28.1470  -21.0560   18.6760 C   0  0  0  0  0  3  0  0  0  0  0  0
  -28.6450  -19.6120   18.3270 C   0  0  0  0  0  2  0  0  0  0  0  0
  -32.3060  -16.5590   19.8980 C   0  0  0  0  0  0  0  0  0  0  0  0
  -32.4250  -14.1140   19.6160 C   0  0  0  0  0  2  0  0  0  0  0  0
  -31.5610  -13.7210   18.3950 C   0  0  0  0  0  2  0  0  0  0  0  0
  -30.0630  -13.6080   18.7420 C   0  0  0  0  0  2  0  0  0  0  0  0
  -29.5480  -14.8180   19.5590 C   0  0  0  0  0  3  0  0  0  0  0  0
  -30.4980  -15.0610   20.7590 C   0  0  0  0  0  2  0  0  0  0  0  0
  -31.8500  -15.3230   20.2260 N   0  0  0  0  0  0  0  0  0  0  0  0
  -33.3840  -16.7830   19.3270 O   0  0  0  0  0  0  0  0  0  0  0  0
  -30.7370  -18.3110   19.0380 C   0  0  0  0  0  0  0  0  0  0  0  0
  -31.1830  -18.2750   17.7690 N   0  0  0  0  0  4  0  0  0  0  0  0
  -31.2940  -17.5780   20.0440 N   0  0  0  0  0  0  0  0  0  0  0  0
  -29.6100  -19.0300   19.3030 N   0  0  0  0  0  0  0  0  0  0  0  0
  -32.0310  -17.7740   17.5180 H   0  0  0  0  0  0  0  0  0  0  0  0
  -30.7530  -18.8140   17.0320 H   0  0  0  0  0  0  0  0  0  0  0  0
  -30.6880  -17.4980   20.8430 H   0  0  0  0  0  0  0  0  0  0  0  0
  -29.3070  -19.0940   20.2660 H   0  0  0  0  0  0  0  0  0  0  0  0
  -27.1720  -15.5670   20.2140 C   0  0  0  0  0  0  0  0  0  0  0  0
  -26.0510  -14.8590   20.5520 C   0  0  0  0  0  0  0  0  0  0  0  0
  -26.4260  -13.4810   20.4880 C   0  0  0  0  0  0  0  0  0  0  0  0
  -28.1680  -14.6280   19.9920 N   0  0  0  0  0  0  0  0  0  0  0  0
  -27.7170  -13.3670   20.2050 N   0  0  0  0  0  0  0  0  0  0  0  0
  -25.6200  -12.2610   20.6160 C   0  0  0  0  0  0  0  0  0  0  0  0
  -25.9050  -11.2960   21.6080 C   0  0  0  0  0  3  0  0  0  0  0  0
  -25.1080  -10.1390   21.7270 C   0  0  0  0  0  3  0  0  0  0  0  0
  -24.0120   -9.9410   20.8550 C   0  0  0  0  0  0  0  0  0  0  0  0
  -23.7450  -10.8950   19.8570 C   0  0  0  0  0  3  0  0  0  0  0  0
  -24.5420  -12.0440   19.7340 C   0  0  0  0  0  3  0  0  0  0  0  0
  -23.1940   -8.8370   20.8830 O   0  0  0  0  0  0  0  0  0  0  0  0
  -22.7750   -8.2830   22.0670 C   0  0  0  0  0  0  0  0  0  0  0  0
  -22.0240   -9.0180   23.0110 C   0  0  0  0  0  3  0  0  0  0  0  0
  -21.5530   -8.3900   24.1810 C   0  0  0  0  0  3  0  0  0  0  0  0
  -21.8230   -7.0270   24.4050 C   0  0  0  0  0  0  0  0  0  0  0  0
  -22.5630   -6.2890   23.4640 C   0  0  0  0  0  3  0  0  0  0  0  0
  -23.0360   -6.9160   22.2970 C   0  0  0  0  0  0  0  0  0  0  0  0
  -23.7290   -6.1960   21.3840 F   0  0  0  0  0  0  0  0  0  0  0  0
  -21.3640   -6.4210   25.5260 F   0  0  0  0  0  0  0  0  0  0  0  0
  -24.6790  -15.4150   20.8130 C   0  0  0  0  0  0  0  0  0  0  0  0
  -23.8970  -14.7560   21.6630 N   0  0  0  0  0  0  0  0  0  0  0  0
  -24.3040  -16.4660   20.2940 O   0  0  0  0  0  0  0  0  0  0  0  0
  -24.2040  -13.8990   22.0980 H   0  0  0  0  0  0  0  0  0  0  0  0
  -22.9740  -15.1070   21.8770 H   0  0  0  0  0  0  0  0  0  0  0  0
  -27.4280  -16.9220   20.0460 N   0  0  0  0  0  0  0  0  0  0  0  0
  -26.6420  -17.5520   19.9280 H   0  0  0  0  0  0  0  0  0  0  0  0
  -28.2390  -17.2060   19.5150 H   0  0  0  0  0  0  0  0  0  0  0  0
  1  5  1  0
  2  1  1  0
  2  4  1  0
  3  1  2  0
  5  6  1  0
  7  9  2  0
  8  7  1  0
  8  6  1  0
 10  8  1  0
 11 18  1  0
 12 13  1  0
 12 14  1  0
 15 16  1  0
 15  7  1  0
 16 11  1  0
 17 11  2  0
 19 18  1  0
 20 31  2  0
 21 26  1  0
 21 19  1  0
 22 32  1  0
 22 30  1  0
 23 25  1  0
 24 30  1  0
 25 26  2  0
 25 24  1  0
 27 21  2  0
 28 23  2  0
 28 27  1  0
 29 23  1  0
 29 14  1  0
 30 20  1  0
 32 34  2  0
 33 32  1  0
 35 33  1  0
 36 45  2  0
 36 41  1  0
 37 33  1  0
 37 41  1  0
 38 37  1  0
 39 38  1  0
 39 40  1  0
 40 36  1  0
 41 42  2  0
 42 43  1  0
 44 43  2  0
 45 44  1  0
 46 20  1  0
 46 51  1  0
 46 47  1  0
 47 48  1  1
 47 50  1  0
 49 47  1  0
 51 54  1  0
 52 56  1  0
 52 51  1  0
 53 52  2  0
 56 55  1  0
 56 58  1  0
 58 59  1  0
 58 57  1  0
 60 66  1  0
 60  2  1  0
 61 62  1  0
 61 60  1  0
 62 64  1  0
 63 61  2  0
 65 62  1  0
 66 67  2  0
 68 67  1  0
 68 80  1  0
 69 79  1  0
 69 75  1  0
 70 75  1  0
 71 72  1  0
 71 70  1  0
 73 72  1  0
 73 88  1  0
 73 74  1  0
 75 74  1  0
 76 69  2  0
 77 80  1  0
 77 79  1  0
 78 77  2  0
 79 83  1  0
 80 84  1  0
 81 78  1  0
 82 78  1  0
 85 86  2  0
 86105  1  0
 87 86  1  0
 87 90  1  0
 88 89  1  0
 88 85  1  0
 89 87  2  0
 90 91  1  0
 91 92  2  0
 93 96  1  0
 93 92  1  0
 94 93  2  0
 95 94  1  0
 95 90  2  0
 96 97  1  0
 97102  2  0
 97 98  1  0
 98 99  2  0
 99100  1  0
100104  1  0
101100  2  0
102101  1  0
103102  1  0
105106  1  0
106109  1  0
106108  1  0
107105  2  0
110 85  1  0
111110  1  0
112110  1  0
M  ISO  4  18 101  19 101  69 100  79 100
M  END
>  <TORSDO>  (12) 
F 26

>  <SCORE>  (12) 
-1.971

>  <name>  (12) 
12

>  <ligand_id>  (12) 
12

>  <original_smiles>  (12) 
[H]c1c([H])c([H])c2c(c1[H])C([H])([H])C([H])([H])C([H])([H])C2([H])N([H])C(=O)C1([H])N(C(=O)C([H])(N([H])C(=O)C([H])(N([H])C([H])([H])[H])C([H])([H])[H])C(C([H])([H])[H])(C([H])([H])[H])C([H])([H])[H])C([H])([H])c2c([H])c(OC([H])([H])C(=O)N3C([H])([H])C([H])([H])C([H])([H])C3([H])C(=O)N([H])C([H])([H])C([H])([H])C(=O)N([H])C([H])(C(=O)N([H])[H])C([H])([H])C([H])([H])C([H])([H])[N+]([H])=C(N([H])[H])N([H])C(=O)N3C([H])([H])C([H])([H])C([H])([H])C([H])(n4nc(-c5c([H])c([H])c(Oc6c([H])c([H])c(F)c([H])c6F)c([H])c5[H])c(C(=O)N([H])[H])c4N([H])[H])C3([H])[H])c([H])c([H])c2C1([H])[H]

>  <smiles>  (12) 
[H]c1c([H])c([H])c2c(c1[H])C([H])([H])C([H])([H])C([H])([H])C2([H])N([H])C(=O)C1([H])N(C(=O)C([H])(N([H])C(=O)C([H])(N([H])C([H])([H])[H])C([H])([H])[H])C(C([H])([H])[H])(C([H])([H])[H])C([H])([H])[H])C([H])([H])c2c([H])c(OC([H])([H])C(=O)N3C([H])([H])C([H])([H])C([H])([H])C3([H])C(=O)N([H])C([H])([H])C([H])([H])C(=O)N([H])C([H])(C(=O)N([H])[H])C([H])([H])C([H])([H])C([H])([H])[N+]([H])=C(N([H])[H])N([H])C(=O)N3C([H])([H])C([H])([H])C([H])([H])C([H])(n4nc(-c5c([H])c([H])c(Oc6c([H])c([H])c(F)c([H])c6F)c([H])c5[H])c(C(=O)N([H])[H])c4N([H])[H])C3([H])[H])c([H])c([H])c2C1([H])[H]

$$$$
13:0:0
     RDKit          3D

112120  0  0  1  0  0  0  0  0999 V2000
  -31.1500  -20.4690   16.5650 C   0  0  0  0  0  3  0  0  0  0  0  0
  -31.0770  -22.0030   16.5070 C   0  0  0  0  0  0  0  0  0  0  0  0
  -30.4870  -22.5480   15.4370 N   0  0  0  0  0  0  0  0  0  0  0  0
  -31.5430  -22.6780   17.4300 O   0  0  0  0  0  0  0  0  0  0  0  0
  -30.1500  -21.9210   14.7200 H   0  0  0  0  0  0  0  0  0  0  0  0
  -30.2870  -23.9790   15.2110 C   0  0  0  0  0  2  0  0  0  0  0  0
  -28.8790  -24.4330   15.6470 C   0  0  0  0  0  2  0  0  0  0  0  0
  -29.2270  -25.5650   17.8400 C   0  0  0  0  0  0  0  0  0  0  0  0
  -28.7640  -24.5500   17.0980 N   0  0  0  0  0  0  0  0  0  0  0  0
  -29.7900  -26.5450   17.3430 O   0  0  0  0  0  0  0  0  0  0  0  0
  -28.3150  -23.7860   17.5840 H   0  0  0  0  0  0  0  0  0  0  0  0
  -29.0270  -25.4600   19.3610 C   0  0  0  0  0  2  0  0  0  0  0  0
  -28.8790  -26.7530   19.9600 O   0  0  0  0  0  0  0  0  0  0  0  0
  -24.7400  -31.5270   23.1980 C   0  0  0  0  0  0  0  0  0  0  0  0
  -27.6490  -27.3800   19.9500 C   0  0  0  0  0  0  0  0  0  0  0  0
  -23.6420  -30.1930   21.4280 C   0  0  0  0  0  3  0  0  0  0  0  0
  -25.1950  -28.7890   19.9720 C   0  0  0  0  0  0  0  0  0  0  0  0
  -26.1580  -30.6420   21.3520 C   0  0  0  0  0  2  0  0  0  0  0  0
  -26.3100  -29.3150   20.6370 C   0  0  0  0  0  0  0  0  0  0  0  0
  -27.5350  -28.6150   20.6240 C   0  0  0  0  0  3  0  0  0  0  0  0
  -26.5100  -26.8590   19.2890 C   0  0  0  0  0  3  0  0  0  0  0  0
  -25.2900  -27.5620   19.2970 C   0  0  0  0  0  3  0  0  0  0  0  0
  -23.9230  -29.6020   20.0200 C   0  0  0  0  0  2  0  0  0  0  0  0
  -24.8620  -30.7990   22.0530 N   0  0  0  0  0  0  0  0  0  0  0  0
  -23.6300  -31.7320   23.7100 O   0  0  0  0  0  0  0  0  0  0  0  0
  -22.9870  -29.0960   22.2980 C   0  0  0  0  0  0  0  0  0  0  0  0
  -21.6710  -28.8990   22.1220 N   0  0  0  0  0  0  0  0  0  0  0  0
  -23.6610  -28.4280   23.0870 O   0  0  0  0  0  0  0  0  0  0  0  0
  -21.1860  -29.4930   21.4630 H   0  0  0  0  0  0  0  0  0  0  0  0
  -18.3020  -27.6460   22.4770 C   0  0  0  0  0  0  0  0  0  0  0  0
  -20.8530  -27.8970   22.8040 C   0  0  0  0  0  3  0  0  0  0  0  0
  -20.9750  -26.5170   22.1140 C   0  0  0  0  0  2  0  0  0  0  0  0
  -19.8870  -26.2710   21.0630 C   0  0  0  0  0  2  0  0  0  0  0  0
  -18.4960  -26.3560   21.6960 C   0  0  0  0  0  2  0  0  0  0  0  0
  -19.4090  -28.3760   22.9830 C   0  0  0  0  0  0  0  0  0  0  0  0
  -19.1750  -29.5870   23.6700 C   0  0  0  0  0  3  0  0  0  0  0  0
  -17.8650  -30.0670   23.8570 C   0  0  0  0  0  3  0  0  0  0  0  0
  -16.7710  -29.3320   23.3670 C   0  0  0  0  0  3  0  0  0  0  0  0
  -16.9900  -28.1230   22.6840 C   0  0  0  0  0  3  0  0  0  0  0  0
  -25.9800  -32.1560   23.9040 C   0  0  0  0  0  3  0  0  0  0  0  0
  -26.4550  -31.3420   25.1690 C   0  0  1  0  0  0  0  0  0  0  0  0
  -25.3140  -31.0070   26.1580 C   0  0  0  0  0  1  0  0  0  0  0  0
  -27.1160  -30.0120   24.7410 C   0  0  0  0  0  1  0  0  0  0  0  0
  -27.5340  -32.1430   25.9350 C   0  0  0  0  0  1  0  0  0  0  0  0
  -25.6260  -33.5330   24.2770 N   0  0  0  0  0  0  0  0  0  0  0  0
  -25.9710  -34.6220   23.5790 C   0  0  0  0  0  0  0  0  0  0  0  0
  -26.6900  -34.5750   22.5760 O   0  0  0  0  0  0  0  0  0  0  0  0
  -24.9920  -33.6430   25.0560 H   0  0  0  0  0  0  0  0  0  0  0  0
  -24.2230  -36.3910   23.2130 C   0  0  0  0  0  1  0  0  0  0  0  0
  -25.4310  -35.9790   24.0680 C   0  0  0  0  0  3  0  0  0  0  0  0
  -27.4970  -36.8690   25.0470 C   0  0  0  0  0  1  0  0  0  0  0  0
  -26.4440  -37.0560   24.0520 N   0  0  0  0  0  0  0  0  0  0  0  0
  -26.0110  -37.9610   24.2200 H   0  0  0  0  0  0  0  0  0  0  0  0
  -30.3710  -19.1090   18.5130 C   0  0  0  0  0  0  0  0  0  0  0  0
  -31.1090  -20.0790   17.9690 N   0  0  0  0  0  0  0  0  0  0  0  0
  -29.6520  -18.3590   17.8490 O   0  0  0  0  0  0  0  0  0  0  0  0
  -31.6130  -20.6970   18.5910 H   0  0  0  0  0  0  0  0  0  0  0  0
  -29.6510  -16.6210   20.5590 C   0  0  0  0  0  0  0  0  0  0  0  0
  -28.6020  -20.1430   20.9860 C   0  0  0  0  0  2  0  0  0  0  0  0
  -30.0970  -20.2710   20.7460 C   0  0  0  0  0  2  0  0  0  0  0  0
  -28.4050  -18.6450   21.2280 C   0  0  0  0  0  2  0  0  0  0  0  0
  -30.4840  -18.9580   20.0420 C   0  0  0  0  0  3  0  0  0  0  0  0
  -29.5400  -17.9710   20.5860 N   0  0  0  0  0  0  0  0  0  0  0  0
  -28.8010  -15.8980   21.0930 O   0  0  0  0  0  0  0  0  0  0  0  0
  -30.8400  -15.9210   19.8630 C   0  0  0  0  0  3  0  0  0  0  0  0
  -30.9010  -13.5540   19.0090 C   0  0  0  0  0  0  0  0  0  0  0  0
  -30.3260  -11.3160   18.1360 C   0  0  0  0  0  2  0  0  0  0  0  0
  -29.1930  -11.4030   17.0940 C   0  0  0  0  0  2  0  0  0  0  0  0
  -27.8100  -11.3900   17.7740 C   0  0  0  0  0  2  0  0  0  0  0  0
  -27.7120  -12.4130   18.9340 C   0  0  0  0  0  3  0  0  0  0  0  0
  -28.9210  -12.2650   19.8830 C   0  0  0  0  0  2  0  0  0  0  0  0
  -30.1610  -12.4200   19.0940 N   0  0  0  0  0  0  0  0  0  0  0  0
  -31.7900  -13.7400   18.1720 O   0  0  0  0  0  0  0  0  0  0  0  0
  -30.5890  -14.4780   19.9230 N   0  0  0  0  0  0  0  0  0  0  0  0
  -29.8570  -14.2240   20.5720 H   0  0  0  0  0  0  0  0  0  0  0  0
  -25.5660  -13.2790   20.0660 C   0  0  0  0  0  0  0  0  0  0  0  0
  -24.5020  -12.6270   20.6280 C   0  0  0  0  0  0  0  0  0  0  0  0
  -24.7880  -11.2320   20.5110 C   0  0  0  0  0  0  0  0  0  0  0  0
  -26.4440  -12.2890   19.6500 N   0  0  0  0  0  0  0  0  0  0  0  0
  -25.9850  -11.0510   19.9680 N   0  0  0  0  0  0  0  0  0  0  0  0
  -23.9670  -10.0580   20.8340 C   0  0  0  0  0  0  0  0  0  0  0  0
  -24.3670   -9.1260   21.8180 C   0  0  0  0  0  3  0  0  0  0  0  0
  -23.5530   -8.0130   22.1200 C   0  0  0  0  0  3  0  0  0  0  0  0
  -22.3270   -7.8250   21.4390 C   0  0  0  0  0  0  0  0  0  0  0  0
  -21.9450   -8.7430   20.4460 C   0  0  0  0  0  3  0  0  0  0  0  0
  -22.7580   -9.8490   20.1410 C   0  0  0  0  0  3  0  0  0  0  0  0
  -21.4840   -6.7610   21.6490 O   0  0  0  0  0  0  0  0  0  0  0  0
  -21.3370   -6.1930   22.8890 C   0  0  0  0  0  0  0  0  0  0  0  0
  -20.8590   -6.9310   23.9950 C   0  0  0  0  0  3  0  0  0  0  0  0
  -20.6570   -6.2940   25.2340 C   0  0  0  0  0  3  0  0  0  0  0  0
  -20.9220   -4.9170   25.3690 C   0  0  0  0  0  0  0  0  0  0  0  0
  -21.3940   -4.1790   24.2690 C   0  0  0  0  0  3  0  0  0  0  0  0
  -21.5950   -4.8150   23.0330 C   0  0  0  0  0  0  0  0  0  0  0  0
  -22.0290   -4.0950   21.9710 F   0  0  0  0  0  0  0  0  0  0  0  0
  -20.7220   -4.3010   26.5570 F   0  0  0  0  0  0  0  0  0  0  0  0
  -23.2490  -13.2570   21.1620 C   0  0  0  0  0  0  0  0  0  0  0  0
  -22.6340  -12.6410   22.1670 N   0  0  0  0  0  0  0  0  0  0  0  0
  -22.8280  -14.3240   20.7190 O   0  0  0  0  0  0  0  0  0  0  0  0
  -22.9900  -11.7770   22.5460 H   0  0  0  0  0  0  0  0  0  0  0  0
  -21.8000  -13.0440   22.5690 H   0  0  0  0  0  0  0  0  0  0  0  0
  -25.8520  -14.6240   19.8530 N   0  0  0  0  0  0  0  0  0  0  0  0
  -25.1790  -15.3570   20.0460 H   0  0  0  0  0  0  0  0  0  0  0  0
  -26.6680  -14.9570   19.3570 H   0  0  0  0  0  0  0  0  0  0  0  0
  -32.2430  -16.2970   20.4100 C   0  0  0  0  0  2  0  0  0  0  0  0
  -32.6150  -15.5960   21.6570 N   0  0  0  0  0  4  0  0  0  0  0  0
  -31.9710  -15.7970   22.4030 H   0  0  0  0  0  0  0  0  0  0  0  0
  -33.5280  -15.8930   21.9500 H   0  0  0  0  0  0  0  0  0  0  0  0
  -32.6430  -14.6040   21.5130 H   0  0  0  0  0  0  0  0  0  0  0  0
  -32.4220  -19.9070   15.8840 C   0  0  0  0  0  2  0  0  0  0  0  0
  -33.9420  -17.9400   15.3780 C   0  0  0  0  0  1  0  0  0  0  0  0
  -31.4820  -17.7460   14.8610 C   0  0  0  0  0  1  0  0  0  0  0  0
  -32.5280  -18.3660   15.8040 C   0  0  0  0  0  3  0  0  0  0  0  0
  1109  1  0
  1 55  1  0
  2  1  1  0
  2  4  2  0
  3  2  1  0
  5  3  1  0
  6  3  1  0
  6  7  1  0
  7  9  1  0
  8 12  1  0
  9 11  1  0
  9  8  1  0
 10  8  2  0
 12 13  1  0
 14 25  2  0
 15 13  1  0
 15 20  1  0
 16 24  1  0
 16 26  1  0
 17 23  1  0
 17 19  1  0
 18 24  1  0
 19 18  1  0
 20 19  2  0
 21 22  1  0
 21 15  2  0
 22 17  2  0
 23 16  1  0
 24 14  1  0
 26 28  2  0
 27 26  1  0
 29 27  1  0
 30 39  2  0
 30 35  1  0
 31 27  1  0
 31 35  1  0
 32 31  1  0
 33 34  1  0
 33 32  1  0
 34 30  1  0
 35 36  2  0
 36 37  1  0
 38 37  2  0
 39 38  1  0
 40 14  1  0
 40 45  1  0
 40 41  1  0
 41 44  1  1
 41 42  1  0
 43 41  1  0
 45 48  1  0
 46 50  1  0
 46 45  1  0
 47 46  2  0
 50 49  1  0
 52 50  1  0
 52 53  1  0
 52 51  1  0
 55 54  1  0
 55 57  1  0
 56 54  2  0
 58 63  1  0
 58 64  2  0
 59 61  1  0
 60 59  1  0
 62 54  1  0
 62 63  1  0
 62 60  1  0
 63 61  1  0
 65 74  1  0
 65104  1  0
 65 58  1  0
 66 72  1  0
 66 74  1  0
 67 72  1  0
 68 69  1  0
 68 67  1  0
 70 69  1  0
 70 79  1  0
 70 71  1  0
 72 71  1  0
 73 66  2  0
 74 75  1  0
 76 77  2  0
 77 96  1  0
 78 77  1  0
 78 81  1  0
 79 80  1  0
 79 76  1  0
 80 78  2  0
 81 82  1  0
 82 83  2  0
 84 87  1  0
 84 83  1  0
 85 84  2  0
 86 85  1  0
 86 81  2  0
 87 88  1  0
 88 93  2  0
 88 89  1  0
 89 90  2  0
 90 91  1  0
 91 95  1  0
 92 91  2  0
 93 92  1  0
 94 93  1  0
 96 97  1  0
 97 99  1  0
 97100  1  0
 98 96  2  0
101102  1  0
101 76  1  0
103101  1  0
104105  1  0
105107  1  0
105106  1  0
108105  1  0
110112  1  0
111112  1  0
112109  1  0
M  ISO  4  12 101  13 101  66 100  74 100
M  END
>  <TORSDO>  (13) 
F 28

>  <SCORE>  (13) 
-6.610

>  <name>  (13) 
13

>  <ligand_id>  (13) 
13

>  <original_smiles>  (13) 
[H]c1c([H])c([H])c2c(c1[H])C([H])([H])C([H])([H])C([H])([H])C2([H])N([H])C(=O)C1([H])N(C(=O)C([H])(N([H])C(=O)C([H])(N([H])C([H])([H])[H])C([H])([H])[H])C(C([H])([H])[H])(C([H])([H])[H])C([H])([H])[H])C([H])([H])c2c([H])c(OC([H])([H])C(=O)N([H])C([H])([H])C([H])([H])N([H])C(=O)C([H])(N([H])C(=O)C3([H])N(C(=O)C([H])(N([H])C(=O)N4C([H])([H])C([H])([H])C([H])([H])C([H])(n5nc(-c6c([H])c([H])c(Oc7c([H])c([H])c(F)c([H])c7F)c([H])c6[H])c(C(=O)N([H])[H])c5N([H])[H])C4([H])[H])C([H])([H])[N+]([H])([H])[H])C([H])([H])C([H])([H])C3([H])[H])C([H])([H])C([H])(C([H])([H])[H])C([H])([H])[H])c([H])c([H])c2C1([H])[H]

>  <smiles>  (13) 
[H]c1c([H])c([H])c2c(c1[H])C([H])([H])C([H])([H])C([H])([H])C2([H])N([H])C(=O)C1([H])N(C(=O)C([H])(N([H])C(=O)C([H])(N([H])C([H])([H])[H])C([H])([H])[H])C(C([H])([H])[H])(C([H])([H])[H])C([H])([H])[H])C([H])([H])c2c([H])c(OC([H])([H])C(=O)N([H])C([H])([H])C([H])([H])N([H])C(=O)C([H])(N([H])C(=O)C3([H])N(C(=O)C([H])(N([H])C(=O)N4C([H])([H])C([H])([H])C([H])([H])C([H])(n5nc(-c6c([H])c([H])c(Oc7c([H])c([H])c(F)c([H])c7F)c([H])c6[H])c(C(=O)N([H])[H])c5N([H])[H])C4([H])[H])C([H])([H])[N+]([H])([H])[H])C([H])([H])C([H])([H])C3([H])[H])C([H])([H])C([H])(C([H])([H])[H])C([H])([H])[H])c([H])c([H])c2C1([H])[H]

$$$$
14:0:0
     RDKit          3D

 97100  0  0  1  0  0  0  0  0999 V2000
  -25.9510  -24.8020   22.6910 C   0  0  0  0  0  0  0  0  0  0  0  0
  -25.5250  -26.3340   22.8240 N   0  0  0  0  0  0  0  0  0  0  0  0
  -25.4120  -24.1340   23.5770 O   0  0  0  0  0  0  0  0  0  0  0  0
  -25.9090  -26.8330   22.0320 H   0  0  0  0  0  0  0  0  0  0  0  0
  -27.0720  -23.6380   21.6340 C   0  0  0  0  0  2  0  0  0  0  0  0
  -28.5010  -20.8420   20.6320 C   0  0  0  0  0  0  0  0  0  0  0  0
  -27.4300  -21.8790   21.2130 N   0  0  0  0  0  0  0  0  0  0  0  0
  -29.5990  -21.3760   20.4770 O   0  0  0  0  0  0  0  0  0  0  0  0
  -26.5720  -21.3690   21.3730 H   0  0  0  0  0  0  0  0  0  0  0  0
  -27.1020  -18.6040   20.1020 C   0  0  0  0  0  1  0  0  0  0  0  0
  -28.5880  -18.9940   20.0840 C   0  0  0  0  0  0  0  0  0  0  0  0
  -30.4170  -16.1330   19.5500 C   0  0  0  0  0  0  0  0  0  0  0  0
  -30.8510  -13.5070   18.8810 C   0  0  0  0  0  2  0  0  0  0  0  0
  -29.9620  -12.8430   17.7700 C   0  0  0  0  0  2  0  0  0  0  0  0
  -28.5800  -12.4530   18.3130 C   0  0  0  0  0  2  0  0  0  0  0  0
  -28.0580  -13.5660   19.2420 C   0  0  0  0  0  3  0  0  0  0  0  0
  -29.0680  -14.0000   20.3200 C   0  0  0  0  0  2  0  0  0  0  0  0
  -30.1480  -14.6850   19.6080 N   0  0  0  0  0  0  0  0  0  0  0  0
  -31.5790  -16.2220   19.0750 O   0  0  0  0  0  0  0  0  0  0  0  0
  -29.4120  -17.3290   19.9020 N   0  0  0  0  0  4  0  0  0  0  0  0
  -28.6840  -16.7510   20.3000 H   0  0  0  0  0  0  0  0  0  0  0  0
  -25.8390  -14.1880   20.2670 C   0  0  0  0  0  0  0  0  0  0  0  0
  -24.7920  -13.4480   20.7280 C   0  0  0  0  0  0  0  0  0  0  0  0
  -25.1690  -12.0780   20.5580 C   0  0  0  0  0  0  0  0  0  0  0  0
  -26.7780  -13.2730   19.8390 N   0  0  0  0  0  0  0  0  0  0  0  0
  -26.4040  -11.9930   20.0780 N   0  0  0  0  0  0  0  0  0  0  0  0
  -24.3960  -10.8500   20.7650 C   0  0  0  0  0  0  0  0  0  0  0  0
  -24.7720   -9.8920   21.7330 C   0  0  0  0  0  3  0  0  0  0  0  0
  -23.9960   -8.7300   21.9250 C   0  0  0  0  0  3  0  0  0  0  0  0
  -22.8320   -8.5180   21.1500 C   0  0  0  0  0  0  0  0  0  0  0  0
  -22.4750   -9.4630   20.1720 C   0  0  0  0  0  3  0  0  0  0  0  0
  -23.2520  -10.6170   19.9770 C   0  0  0  0  0  3  0  0  0  0  0  0
  -22.0290   -7.4080   21.2510 O   0  0  0  0  0  0  0  0  0  0  0  0
  -21.7580   -6.8250   22.4620 C   0  0  0  0  0  0  0  0  0  0  0  0
  -21.1730   -7.5490   23.5230 C   0  0  0  0  0  3  0  0  0  0  0  0
  -20.8470   -6.8930   24.7280 C   0  0  0  0  0  3  0  0  0  0  0  0
  -21.0960   -5.5150   24.8680 C   0  0  0  0  0  0  0  0  0  0  0  0
  -21.6740   -4.7920   23.8110 C   0  0  0  0  0  3  0  0  0  0  0  0
  -22.0020   -5.4450   22.6100 C   0  0  0  0  0  0  0  0  0  0  0  0
  -22.5400   -4.7400   21.5860 F   0  0  0  0  0  0  0  0  0  0  0  0
  -20.7760   -4.8820   26.0220 F   0  0  0  0  0  0  0  0  0  0  0  0
  -23.4750  -13.9850   21.1980 C   0  0  0  0  0  0  0  0  0  0  0  0
  -22.8310  -13.2970   22.1330 N   0  0  0  0  0  0  0  0  0  0  0  0
  -23.0330  -15.0500   20.7680 O   0  0  0  0  0  0  0  0  0  0  0  0
  -23.2080  -12.4350   22.5000 H   0  0  0  0  0  0  0  0  0  0  0  0
  -21.9490  -13.6380   22.4900 H   0  0  0  0  0  0  0  0  0  0  0  0
  -26.0660  -15.5570   20.1450 N   0  0  0  0  0  0  0  0  0  0  0  0
  -25.3270  -16.2240   20.3390 H   0  0  0  0  0  0  0  0  0  0  0  0
  -26.8120  -15.9470   19.5860 H   0  0  0  0  0  0  0  0  0  0  0  0
  -24.7210  -27.6000   23.9000 C   0  0  0  0  0  1  0  0  0  0  0  0
  -23.4710  -29.1090   24.2000 C   0  0  0  0  0  2  0  0  0  0  0  0
  -22.6420  -30.3080   23.4240 N   0  0  0  0  0  2  0  0  0  0  0  0
  -23.1010  -29.0730   25.3730 O   0  0  0  0  0  1  0  0  0  0  0  0
  -22.0340  -30.7650   24.0910 H   0  0  0  0  0  0  0  0  0  0  0  0
  -22.6740  -31.4240   21.7740 C   0  0  0  0  0 15  0  0  0  0  0  0
  -23.9960  -31.2540   20.0390 C   0  0  0  0  0 15  0  0  0  0  0  0
  -25.0320  -30.0770   18.9010 O   0  0  0  0  0  1  0  0  0  0  0  0
  -25.0160  -31.1980   23.0210 C   0  0  0  0  0  0  0  0  0  0  0  0
  -25.9760  -28.9110   18.6540 C   0  0  0  0  0  3  0  0  0  0  0  0
  -23.2300  -29.1470   21.2710 C   0  0  0  0  0  3  0  0  0  0  0  0
  -24.3370  -27.9320   20.0710 C   0  0  0  0  0  3  0  0  0  0  0  0
  -25.8500  -29.7830   21.3710 C   0  0  0  0  0  2  0  0  0  0  0  0
  -25.5920  -28.5350   20.5920 C   0  0  0  0  0  3  0  0  0  0  0  0
  -26.6530  -28.4610   19.7520 C   0  0  0  0  0  2  0  0  0  0  0  0
  -25.3510  -27.7490   18.0850 C   0  0  0  0  0  2  0  0  0  0  0  0
  -24.3750  -27.2050   18.8940 C   0  0  0  0  0  2  0  0  0  0  0  0
  -23.1360  -28.6810   19.9210 C   0  0  0  0  0  2  0  0  0  0  0  0
  -24.7040  -30.0390   22.0560 N   0  0  0  0  0  0  0  0  0  0  0  0
  -24.2160  -31.8900   23.7190 O   0  0  0  0  0  0  0  0  0  0  0  0
  -22.0050  -28.3250   21.8010 C   0  0  0  0  0  0  0  0  0  0  0  0
  -20.7300  -28.7570   21.9550 N   0  0  0  0  0  0  0  0  0  0  0  0
  -22.3910  -27.3640   22.3850 O   0  0  0  0  0  0  0  0  0  0  0  0
  -20.4370  -29.6460   21.5780 H   0  0  0  0  0  0  0  0  0  0  0  0
  -17.4480  -28.0250   22.9290 C   0  0  0  0  0  0  0  0  0  0  0  0
  -19.9750  -28.1710   23.0580 C   0  0  0  0  0  3  0  0  0  0  0  0
  -19.8760  -26.6330   22.8690 C   0  0  0  0  0  2  0  0  0  0  0  0
  -18.9180  -26.3170   21.7510 C   0  0  0  0  0  2  0  0  0  0  0  0
  -17.5340  -26.6540   22.2730 C   0  0  0  0  0  2  0  0  0  0  0  0
  -18.5970  -28.7820   23.2590 C   0  0  0  0  0  0  0  0  0  0  0  0
  -18.4440  -30.0680   23.8210 C   0  0  0  0  0  3  0  0  0  0  0  0
  -17.1550  -30.5910   24.0590 C   0  0  0  0  0  3  0  0  0  0  0  0
  -16.0180  -29.8220   23.7490 C   0  0  0  0  0  3  0  0  0  0  0  0
  -16.1660  -28.5400   23.1940 C   0  0  0  0  0  3  0  0  0  0  0  0
  -26.3340  -31.8500   23.4900 C   0  0  0  0  0  3  0  0  0  0  0  0
  -26.8290  -31.0080   24.7190 C   0  0  1  0  0  0  0  0  0  0  0  0
  -25.8340  -30.8240   25.8990 C   0  0  0  0  0  1  0  0  0  0  0  0
  -27.3060  -29.6130   24.3030 C   0  0  0  0  0  1  0  0  0  0  0  0
  -28.0710  -31.7170   25.2740 C   0  0  0  0  0  1  0  0  0  0  0  0
  -26.1130  -33.2590   24.0250 N   0  0  0  0  0  0  0  0  0  0  0  0
  -26.1920  -34.4310   23.3890 C   0  0  0  0  0  0  0  0  0  0  0  0
  -26.6290  -34.5030   22.2440 O   0  0  0  0  0  0  0  0  0  0  0  0
  -25.6560  -33.2700   24.9220 H   0  0  0  0  0  0  0  0  0  0  0  0
  -24.5110  -36.3540   23.5630 C   0  0  0  0  0  1  0  0  0  0  0  0
  -25.7910  -35.7260   24.1490 C   0  0  0  0  0  3  0  0  0  0  0  0
  -28.0340  -36.3700   24.9160 C   0  0  0  0  0  1  0  0  0  0  0  0
  -26.8560  -36.7500   24.1440 N   0  0  0  0  0  0  0  0  0  0  0  0
  -26.5120  -37.6270   24.5250 H   0  0  0  0  0  0  0  0  0  0  0  0
  1  2  1  0
  1  3  2  0
  2 50  1  0
  4  2  1  0
  5  1  1  0
  6  7  1  0
  7  9  1  0
  7  5  1  0
  8  6  2  0
 11 10  1  0
 11  6  1  0
 12 18  1  0
 12 20  1  0
 13 18  1  0
 14 15  1  0
 14 13  1  0
 16 15  1  0
 16 25  1  0
 16 17  1  0
 18 17  1  0
 19 12  2  0
 20 11  2  0
 20 21  1  0
 22 23  2  0
 23 42  1  0
 24 23  1  0
 24 27  1  0
 25 26  1  0
 25 22  1  0
 26 24  2  0
 27 28  1  0
 28 29  2  0
 30 33  1  0
 30 29  1  0
 31 30  2  0
 32 31  1  0
 32 27  2  0
 33 34  1  0
 34 39  2  0
 34 35  1  0
 35 36  2  0
 36 37  1  0
 37 41  1  0
 38 37  2  0
 39 38  1  0
 40 39  1  0
 42 43  1  0
 43 46  1  0
 43 45  1  0
 44 42  2  0
 47 22  1  0
 47 48  1  0
 49 47  1  0
 51 53  1  0
 52 54  1  0
 52 51  1  0
 58 69  2  0
 59 57  1  0
 59 64  1  0
 60 70  1  0
 60 68  1  0
 61 66  1  0
 61 63  1  0
 62 68  1  0
 63 64  1  0
 63 62  1  0
 65 59  1  0
 65 66  1  0
 67 61  1  0
 67 60  1  0
 68 58  1  0
 70 71  1  0
 70 72  2  0
 73 71  1  0
 74 83  2  0
 74 79  1  0
 75 71  1  0
 75 79  1  0
 76 75  1  0
 77 78  1  0
 77 76  1  0
 78 74  1  0
 79 80  2  0
 80 81  1  0
 82 81  2  0
 83 82  1  0
 84 58  1  0
 84 89  1  0
 84 85  1  0
 85 88  1  1
 85 86  1  0
 87 85  1  0
 89 92  1  0
 90 89  1  0
 90 94  1  0
 91 90  2  0
 94 93  1  0
 96 94  1  0
 96 97  1  0
 96 95  1  0
M  ISO  4  12 100  20 100  56 101  57 101
M  END
>  <TORSDO>  (14) 
F 23

>  <SCORE>  (14) 
-13.137

>  <name>  (14) 
14

>  <ligand_id>  (14) 
14

>  <original_smiles>  (14) 
[H]c1c([H])c([H])c2c(c1[H])C([H])([H])C([H])([H])C([H])([H])C2([H])N([H])C(=O)C1([H])N(C(=O)C([H])(N([H])C(=O)C([H])(N([H])C([H])([H])[H])C([H])([H])[H])C(C([H])([H])[H])(C([H])([H])[H])C([H])([H])[H])C([H])([H])c2c([H])c(OC([H])([H])C([H])([H])N([H])C(=O)C([H])([H])N([H])C(=O)C([H])([H])N([H])C(=O)C([H])(N([H])C(=O)N3C([H])([H])C([H])([H])C([H])([H])C([H])(n4nc(-c5c([H])c([H])c(Oc6c([H])c([H])c(F)c([H])c6F)c([H])c5[H])c(C(=O)N([H])[H])c4N([H])[H])C3([H])[H])C([H])([H])[H])c([H])c([H])c2C1([H])[H]

>  <smiles>  (14) 
[H]c1c([H])c([H])c2c(c1[H])C([H])([H])C([H])([H])C([H])([H])C2([H])N([H])C(=O)C1([H])N(C(=O)C([H])(N([H])C(=O)C([H])(N([H])C([H])([H])[H])C([H])([H])[H])C(C([H])([H])[H])(C([H])([H])[H])C([H])([H])[H])C([H])([H])c2c([H])c(OC([H])([H])C([H])([H])N([H])C(=O)C([H])([H])N([H])C(=O)C([H])([H])N([H])C(=O)C([H])(N([H])C(=O)N3C([H])([H])C([H])([H])C([H])([H])C([H])(n4nc(-c5c([H])c([H])c(Oc6c([H])c([H])c(F)c([H])c6F)c([H])c5[H])c(C(=O)N([H])[H])c4N([H])[H])C3([H])[H])C([H])([H])[H])c([H])c([H])c2C1([H])[H]

$$$$
15:0:0
     RDKit          3D

 94102  0  0  1  0  0  0  0  0999 V2000
  -29.0100  -24.4530   20.4110 C   0  0  0  0  0  0  0  0  0  0  0  0
  -26.1230  -22.5520   21.4960 C   0  0  0  0  0  2  0  0  0  0  0  0
  -27.0700  -21.3820   21.3150 C   0  0  0  0  0  2  0  0  0  0  0  0
  -26.6660  -23.5800   20.5130 C   0  0  0  0  0  2  0  0  0  0  0  0
  -28.4400  -22.0110   20.9890 C   0  0  0  0  0  3  0  0  0  0  0  0
  -28.1270  -23.4090   20.5200 N   0  0  0  0  0  0  0  0  0  0  0  0
  -30.1810  -24.2450   20.0810 O   0  0  0  0  0  0  0  0  0  0  0  0
  -28.6230  -25.9070   20.8850 C   0  0  0  0  0  2  0  0  0  0  0  0
  -28.5360  -26.9210   19.8450 O   0  0  0  0  0  0  0  0  0  0  0  0
  -24.5430  -31.9120   23.1130 C   0  0  0  0  0  0  0  0  0  0  0  0
  -27.3760  -27.6770   19.8770 C   0  0  0  0  0  0  0  0  0  0  0  0
  -23.4020  -30.5150   21.4220 C   0  0  0  0  0  3  0  0  0  0  0  0
  -24.9250  -29.1000   19.9370 C   0  0  0  0  0  0  0  0  0  0  0  0
  -25.9110  -30.9930   21.2350 C   0  0  0  0  0  2  0  0  0  0  0  0
  -26.0630  -29.6480   20.5460 C   0  0  0  0  0  0  0  0  0  0  0  0
  -27.2970  -28.9460   20.5100 C   0  0  0  0  0  3  0  0  0  0  0  0
  -26.2220  -27.1540   19.2620 C   0  0  0  0  0  3  0  0  0  0  0  0
  -25.0010  -27.8560   19.2890 C   0  0  0  0  0  3  0  0  0  0  0  0
  -23.6420  -29.8980   20.0180 C   0  0  0  0  0  2  0  0  0  0  0  0
  -24.6370  -31.1530   21.9820 N   0  0  0  0  0  0  0  0  0  0  0  0
  -23.4510  -32.1100   23.6650 O   0  0  0  0  0  0  0  0  0  0  0  0
  -22.8010  -29.4310   22.3440 C   0  0  0  0  0  0  0  0  0  0  0  0
  -21.4860  -29.1870   22.2100 N   0  0  0  0  0  0  0  0  0  0  0  0
  -23.5120  -28.8120   23.1410 O   0  0  0  0  0  0  0  0  0  0  0  0
  -20.9670  -29.7400   21.5420 H   0  0  0  0  0  0  0  0  0  0  0  0
  -18.1750  -27.8180   22.6790 C   0  0  0  0  0  0  0  0  0  0  0  0
  -20.7200  -28.1820   22.9460 C   0  0  0  0  0  3  0  0  0  0  0  0
  -20.8840  -26.7830   22.3100 C   0  0  0  0  0  2  0  0  0  0  0  0
  -19.7920  -26.4530   21.2880 C   0  0  0  0  0  2  0  0  0  0  0  0
  -18.4090  -26.5080   21.9460 C   0  0  0  0  0  2  0  0  0  0  0  0
  -19.2600  -28.6120   23.1350 C   0  0  0  0  0  0  0  0  0  0  0  0
  -18.9900  -29.8390   23.7790 C   0  0  0  0  0  3  0  0  0  0  0  0
  -17.6650  -30.2720   23.9740 C   0  0  0  0  0  3  0  0  0  0  0  0
  -16.5930  -29.4760   23.5350 C   0  0  0  0  0  3  0  0  0  0  0  0
  -16.8490  -28.2500   22.8930 C   0  0  0  0  0  3  0  0  0  0  0  0
  -25.7980  -32.5840   23.7540 C   0  0  0  0  0  3  0  0  0  0  0  0
  -26.3460  -31.8010   25.0090 C   0  0  1  0  0  0  0  0  0  0  0  0
  -25.2620  -31.4800   26.0650 C   0  0  0  0  0  1  0  0  0  0  0  0
  -26.9970  -30.4650   24.5810 C   0  0  0  0  0  1  0  0  0  0  0  0
  -27.4550  -32.6310   25.6980 C   0  0  0  0  0  1  0  0  0  0  0  0
  -25.4270  -33.9580   24.1200 N   0  0  0  0  0  0  0  0  0  0  0  0
  -25.7230  -35.0450   23.3930 C   0  0  0  0  0  0  0  0  0  0  0  0
  -26.4050  -34.9960   22.3670 O   0  0  0  0  0  0  0  0  0  0  0  0
  -24.8120  -34.0630   24.9140 H   0  0  0  0  0  0  0  0  0  0  0  0
  -23.9210  -36.7730   23.0750 C   0  0  0  0  0  1  0  0  0  0  0  0
  -25.1750  -36.3990   23.8830 C   0  0  0  0  0  3  0  0  0  0  0  0
  -27.2640  -37.3550   24.7530 C   0  0  0  0  0  1  0  0  0  0  0  0
  -26.1650  -37.4980   23.8020 N   0  0  0  0  0  0  0  0  0  0  0  0
  -25.7170  -38.3960   23.9650 H   0  0  0  0  0  0  0  0  0  0  0  0
  -29.2820  -21.0400   20.0750 C   0  0  0  0  0  2  0  0  0  0  0  0
  -30.0660  -18.5880   20.1520 C   0  0  0  0  0  0  0  0  0  0  0  0
  -29.3890  -19.6560   20.6400 N   0  0  0  0  0  0  0  0  0  0  0  0
  -30.7400  -18.6640   19.1210 O   0  0  0  0  0  0  0  0  0  0  0  0
  -28.8530  -19.4840   21.4810 H   0  0  0  0  0  0  0  0  0  0  0  0
  -30.8990  -17.2390   22.1490 C   0  0  0  0  0  1  0  0  0  0  0  0
  -29.9890  -17.2150   20.9040 C   0  0  0  0  0  3  0  0  0  0  0  0
  -31.1080  -14.9960   20.1580 C   0  0  0  0  0  0  0  0  0  0  0  0
  -30.8290  -12.7530   19.1740 C   0  0  0  0  0  2  0  0  0  0  0  0
  -29.8920  -12.8890   17.9550 C   0  0  0  0  0  2  0  0  0  0  0  0
  -28.4190  -12.7660   18.3910 C   0  0  0  0  0  2  0  0  0  0  0  0
  -28.0730  -13.6680   19.6090 C   0  0  0  0  0  3  0  0  0  0  0  0
  -29.1350  -13.5370   20.7270 C   0  0  0  0  0  2  0  0  0  0  0  0
  -30.4450  -13.8050   20.1260 N   0  0  0  0  0  0  0  0  0  0  0  0
  -32.2980  -15.0910   19.8590 O   0  0  0  0  0  0  0  0  0  0  0  0
  -30.3220  -16.0900   19.9910 N   0  0  0  0  0  0  0  0  0  0  0  0
  -30.5990  -16.5400   19.1290 H   0  0  0  0  0  0  0  0  0  0  0  0
  -25.7020  -14.3220   20.3520 C   0  0  0  0  0  0  0  0  0  0  0  0
  -24.6190  -13.5710   20.7240 C   0  0  0  0  0  0  0  0  0  0  0  0
  -25.0510  -12.2090   20.6860 C   0  0  0  0  0  0  0  0  0  0  0  0
  -26.7250  -13.4180   20.1070 N   0  0  0  0  0  0  0  0  0  0  0  0
  -26.3370  -12.1420   20.3660 N   0  0  0  0  0  0  0  0  0  0  0  0
  -24.3030  -10.9610   20.8800 C   0  0  0  0  0  0  0  0  0  0  0  0
  -24.6690  -10.0240   21.8720 C   0  0  0  0  0  3  0  0  0  0  0  0
  -23.9210   -8.8390   22.0480 C   0  0  0  0  0  3  0  0  0  0  0  0
  -22.7950   -8.5840   21.2300 C   0  0  0  0  0  0  0  0  0  0  0  0
  -22.4490   -9.5080   20.2290 C   0  0  0  0  0  3  0  0  0  0  0  0
  -23.1940  -10.6850   20.0550 C   0  0  0  0  0  3  0  0  0  0  0  0
  -22.0190   -7.4530   21.3090 O   0  0  0  0  0  0  0  0  0  0  0  0
  -21.8120   -6.8080   22.5010 C   0  0  0  0  0  0  0  0  0  0  0  0
  -21.2350   -7.4600   23.6120 C   0  0  0  0  0  3  0  0  0  0  0  0
  -20.9840   -6.7400   24.7980 C   0  0  0  0  0  3  0  0  0  0  0  0
  -21.2960   -5.3680   24.8670 C   0  0  0  0  0  0  0  0  0  0  0  0
  -21.8670   -4.7170   23.7580 C   0  0  0  0  0  3  0  0  0  0  0  0
  -22.1220   -5.4360   22.5780 C   0  0  0  0  0  0  0  0  0  0  0  0
  -22.6530   -4.8010   21.5050 F   0  0  0  0  0  0  0  0  0  0  0  0
  -21.0470   -4.6720   26.0000 F   0  0  0  0  0  0  0  0  0  0  0  0
  -23.2340  -14.0780   21.0060 C   0  0  0  0  0  0  0  0  0  0  0  0
  -22.5020  -13.4120   21.8950 N   0  0  0  0  0  0  0  0  0  0  0  0
  -22.8100  -15.1020   20.4750 O   0  0  0  0  0  0  0  0  0  0  0  0
  -22.8510  -12.5800   22.3450 H   0  0  0  0  0  0  0  0  0  0  0  0
  -21.5790  -13.7500   22.1290 H   0  0  0  0  0  0  0  0  0  0  0  0
  -25.8960  -15.6890   20.1770 N   0  0  0  0  0  0  0  0  0  0  0  0
  -25.1460  -16.3620   20.2850 H   0  0  0  0  0  0  0  0  0  0  0  0
  -26.7580  -16.1050   19.8440 H   0  0  0  0  0  0  0  0  0  0  0  0
  1  6  1  0
  1  8  1  0
  3  2  1  0
  4  6  1  0
  4  2  1  0
  5 50  1  0
  5  3  1  0
  6  5  1  0
  7  1  2  0
  9 11  1  0
  9  8  1  0
 10 21  2  0
 11 16  1  0
 12 20  1  0
 12 22  1  0
 13 19  1  0
 13 15  1  0
 14 20  1  0
 15 14  1  0
 16 15  2  0
 17 18  1  0
 17 11  2  0
 18 13  2  0
 19 12  1  0
 20 10  1  0
 22 24  2  0
 23 22  1  0
 25 23  1  0
 26 35  2  0
 26 31  1  0
 27 23  1  0
 27 31  1  0
 28 27  1  0
 29 30  1  0
 29 28  1  0
 30 26  1  0
 31 32  2  0
 32 33  1  0
 34 33  2  0
 35 34  1  0
 36 10  1  0
 36 41  1  0
 36 37  1  0
 37 40  1  1
 37 38  1  0
 39 37  1  0
 41 44  1  0
 42 46  1  0
 42 41  1  0
 43 42  2  0
 46 45  1  0
 48 46  1  0
 48 49  1  0
 48 47  1  0
 50 52  1  0
 51 52  1  0
 51 56  1  0
 52 54  1  0
 53 51  2  0
 56 55  1  0
 58 63  1  0
 59 60  1  0
 59 58  1  0
 61 60  1  0
 61 70  1  0
 61 62  1  0
 63 57  1  0
 63 62  1  0
 64 57  2  0
 65 57  1  0
 65 56  1  0
 66 65  1  0
 67 68  2  0
 68 87  1  0
 69 68  1  0
 69 72  1  0
 70 67  1  0
 70 71  1  0
 71 69  2  0
 72 73  1  0
 73 74  2  0
 75 78  1  0
 75 74  1  0
 76 75  2  0
 77 76  1  0
 77 72  2  0
 78 79  1  0
 79 84  2  0
 79 80  1  0
 80 81  2  0
 81 82  1  0
 82 86  1  0
 83 82  2  0
 84 83  1  0
 85 84  1  0
 87 88  1  0
 88 91  1  0
 88 90  1  0
 89 87  2  0
 92 93  1  0
 92 67  1  0
 94 92  1  0
M  ISO  4   8 101   9 101  57 100  65 100
M  END
>  <TORSDO>  (15) 
F 20

>  <SCORE>  (15) 
-11.496

>  <name>  (15) 
15

>  <ligand_id>  (15) 
15

>  <original_smiles>  (15) 
[H]c1c([H])c([H])c2c(c1[H])C([H])([H])C([H])([H])C([H])([H])C2([H])N([H])C(=O)C1([H])N(C(=O)C([H])(N([H])C(=O)C([H])(N([H])C([H])([H])[H])C([H])([H])[H])C(C([H])([H])[H])(C([H])([H])[H])C([H])([H])[H])C([H])([H])c2c([H])c(OC([H])([H])C(=O)N3C([H])([H])C([H])([H])C([H])([H])C3([H])C([H])([H])N([H])C(=O)C([H])(N([H])C(=O)N3C([H])([H])C([H])([H])C([H])([H])C([H])(n4nc(-c5c([H])c([H])c(Oc6c([H])c([H])c(F)c([H])c6F)c([H])c5[H])c(C(=O)N([H])[H])c4N([H])[H])C3([H])[H])C([H])([H])[H])c([H])c([H])c2C1([H])[H]

>  <smiles>  (15) 
[H]c1c([H])c([H])c2c(c1[H])C([H])([H])C([H])([H])C([H])([H])C2([H])N([H])C(=O)C1([H])N(C(=O)C([H])(N([H])C(=O)C([H])(N([H])C([H])([H])[H])C([H])([H])[H])C(C([H])([H])[H])(C([H])([H])[H])C([H])([H])[H])C([H])([H])c2c([H])c(OC([H])([H])C(=O)N3C([H])([H])C([H])([H])C([H])([H])C3([H])C([H])([H])N([H])C(=O)C([H])(N([H])C(=O)N3C([H])([H])C([H])([H])C([H])([H])C([H])(n4nc(-c5c([H])c([H])c(Oc6c([H])c([H])c(F)c([H])c6F)c([H])c5[H])c(C(=O)N([H])[H])c4N([H])[H])C3([H])[H])C([H])([H])[H])c([H])c([H])c2C1([H])[H]

$$$$
16:0:0
     RDKit          3D

113121  0  0  1  0  0  0  0  0999 V2000
  -32.0850  -20.7040   20.6520 C   0  0  0  0  0  2  0  0  0  0  0  0
  -30.7430  -20.5400   19.9270 C   0  0  0  0  0  0  0  0  0  0  0  0
  -30.6560  -19.7990   18.9530 O   0  0  0  0  0  0  0  0  0  0  0  0
  -29.7530  -21.3110   20.4330 N   0  0  0  0  0  2  0  0  0  0  0  0
  -29.0940  -20.9930   21.5840 C   0  0  0  0  0  0  0  0  0  0  0  0
  -28.1400  -21.6750   21.9790 O   0  0  0  0  0  0  0  0  0  0  0  0
  -29.4860  -19.7760   22.5090 C   0  0  0  0  0  0  0  0  0  0  0  0
  -29.6140  -18.6120   21.8510 N   0  0  0  0  0  0  0  0  0  0  0  0
  -29.6310  -19.9440   23.7280 O   0  0  0  0  0  0  0  0  0  0  0  0
  -29.4310  -18.6900   20.8590 H   0  0  0  0  0  0  0  0  0  0  0  0
  -31.2970  -15.9350   23.8750 C   0  0  0  0  0  3  0  0  0  0  0  0
  -30.5640  -17.0920   23.5680 C   0  0  0  0  0  3  0  0  0  0  0  0
  -31.8410  -15.1570   22.8440 C   0  0  0  0  0  3  0  0  0  0  0  0
  -30.3700  -17.4680   22.2170 C   0  0  0  0  0  0  0  0  0  0  0  0
  -31.6720  -15.5170   21.4910 C   0  0  0  0  0  0  0  0  0  0  0  0
  -30.8980  -16.6690   21.1700 C   0  0  0  0  0  0  0  0  0  0  0  0
  -31.9140  -14.3100   19.3000 C   0  0  0  0  0  0  0  0  0  0  0  0
  -32.0240  -12.3020   17.8590 C   0  0  0  0  0  2  0  0  0  0  0  0
  -30.7040  -11.9820   17.1420 C   0  0  0  0  0  2  0  0  0  0  0  0
  -29.7670  -11.1690   18.0540 C   0  0  0  0  0  2  0  0  0  0  0  0
  -29.5820  -11.8200   19.4420 C   0  0  0  0  0  3  0  0  0  0  0  0
  -30.9570  -12.1450   20.0640 C   0  0  0  0  0  2  0  0  0  0  0  0
  -31.7310  -12.9830   19.1230 N   0  0  0  0  0  0  0  0  0  0  0  0
  -32.0700  -15.1250   18.3810 O   0  0  0  0  0  0  0  0  0  0  0  0
  -32.2320  -14.5920   20.5690 N   0  0  0  0  0  0  0  0  0  0  0  0
  -32.6710  -13.8120   21.0300 H   0  0  0  0  0  0  0  0  0  0  0  0
  -27.5400  -11.2110   20.8970 C   0  0  0  0  0  0  0  0  0  0  0  0
  -27.2070  -10.0640   21.5670 C   0  0  0  0  0  0  0  0  0  0  0  0
  -28.2830   -9.1520   21.3450 C   0  0  0  0  0  0  0  0  0  0  0  0
  -28.7780  -10.9690   20.3220 N   0  0  0  0  0  0  0  0  0  0  0  0
  -29.2420   -9.7340   20.6410 N   0  0  0  0  0  0  0  0  0  0  0  0
  -28.4340   -7.7360   21.7150 C   0  0  0  0  0  0  0  0  0  0  0  0
  -29.6210   -7.2490   22.3060 C   0  0  0  0  0  3  0  0  0  0  0  0
  -29.7330   -5.8890   22.6690 C   0  0  0  0  0  3  0  0  0  0  0  0
  -28.6520   -5.0040   22.4470 C   0  0  0  0  0  0  0  0  0  0  0  0
  -27.4830   -5.4890   21.8370 C   0  0  0  0  0  3  0  0  0  0  0  0
  -27.3760   -6.8400   21.4700 C   0  0  0  0  0  3  0  0  0  0  0  0
  -28.6820   -3.6630   22.7420 O   0  0  0  0  0  0  0  0  0  0  0  0
  -29.5550   -3.1520   23.6700 C   0  0  0  0  0  0  0  0  0  0  0  0
  -29.5950   -3.6340   24.9980 C   0  0  0  0  0  3  0  0  0  0  0  0
  -30.4530   -3.0320   25.9400 C   0  0  0  0  0  3  0  0  0  0  0  0
  -31.2660   -1.9460   25.5610 C   0  0  0  0  0  0  0  0  0  0  0  0
  -31.2240   -1.4640   24.2400 C   0  0  0  0  0  3  0  0  0  0  0  0
  -30.3680   -2.0630   23.3000 C   0  0  0  0  0  0  0  0  0  0  0  0
  -30.3160   -1.5790   22.0370 F   0  0  0  0  0  0  0  0  0  0  0  0
  -32.0860   -1.3650   26.4660 F   0  0  0  0  0  0  0  0  0  0  0  0
  -25.9220   -9.7910   22.2940 C   0  0  0  0  0  0  0  0  0  0  0  0
  -25.9680   -8.9560   23.3270 N   0  0  0  0  0  0  0  0  0  0  0  0
  -24.8740  -10.3540   21.9790 O   0  0  0  0  0  0  0  0  0  0  0  0
  -26.8280   -8.5020   23.5980 H   0  0  0  0  0  0  0  0  0  0  0  0
  -25.1310   -8.7800   23.8630 H   0  0  0  0  0  0  0  0  0  0  0  0
  -26.8930  -12.4270   20.7060 N   0  0  0  0  0  0  0  0  0  0  0  0
  -25.9680  -12.6420   21.0630 H   0  0  0  0  0  0  0  0  0  0  0  0
  -27.2640  -13.1650   20.1170 H   0  0  0  0  0  0  0  0  0  0  0  0
  -30.6150  -17.0060   19.8410 N   0  0  0  0  0  0  0  0  0  0  0  0
  -30.5550  -18.0030   19.6040 H   0  0  0  0  0  0  0  0  0  0  0  0
  -31.2300  -16.5680   19.1640 H   0  0  0  0  0  0  0  0  0  0  0  0
  -33.0050  -21.6560   19.8720 C   0  0  0  0  0  2  0  0  0  0  0  0
  -32.5170  -23.0540   19.8980 N   0  0  0  0  0  4  0  0  0  0  0  0
  -32.7660  -23.4790   20.7780 H   0  0  0  0  0  0  0  0  0  0  0  0
  -31.5050  -23.0460   19.8370 H   0  0  0  0  0  0  0  0  0  0  0  0
  -33.7460  -25.1280   19.3630 C   0  0  0  0  0  1  0  0  0  0  0  0
  -33.0190  -23.9000   18.7930 C   0  0  0  0  0  3  0  0  0  0  0  0
  -31.8760  -24.2740   17.8010 C   0  0  0  0  0  3  0  0  0  0  0  0
  -30.2170  -25.8200   18.8620 C   0  0  0  0  0  0  0  0  0  0  0  0
  -30.6330  -24.5970   18.5050 N   0  0  0  0  0  0  0  0  0  0  0  0
  -30.9460  -26.8130   18.8400 O   0  0  0  0  0  0  0  0  0  0  0  0
  -29.9150  -23.8820   18.5080 H   0  0  0  0  0  0  0  0  0  0  0  0
  -28.7360  -25.9360   19.2300 C   0  0  0  0  0  2  0  0  0  0  0  0
  -28.5320  -27.0190   20.1360 O   0  0  0  0  0  0  0  0  0  0  0  0
  -24.4270  -31.9150   23.2470 C   0  0  0  0  0  0  0  0  0  0  0  0
  -27.2880  -27.6110   20.1710 C   0  0  0  0  0  0  0  0  0  0  0  0
  -23.2870  -30.4530   21.6080 C   0  0  0  0  0  3  0  0  0  0  0  0
  -24.8110  -28.9760   20.2010 C   0  0  0  0  0  0  0  0  0  0  0  0
  -25.7930  -30.9280   21.4160 C   0  0  0  0  0  2  0  0  0  0  0  0
  -25.9410  -29.5600   20.7860 C   0  0  0  0  0  0  0  0  0  0  0  0
  -27.1770  -28.8810   20.7760 C   0  0  0  0  0  3  0  0  0  0  0  0
  -26.1270  -27.0180   19.6180 C   0  0  0  0  0  3  0  0  0  0  0  0
  -24.8960  -27.6980   19.6250 C   0  0  0  0  0  3  0  0  0  0  0  0
  -23.5310  -29.7750   20.2340 C   0  0  0  0  0  2  0  0  0  0  0  0
  -24.5200  -31.1150   22.1480 N   0  0  0  0  0  0  0  0  0  0  0  0
  -23.3350  -32.1430   23.7840 O   0  0  0  0  0  0  0  0  0  0  0  0
  -22.6830  -29.4080   22.5730 C   0  0  0  0  0  0  0  0  0  0  0  0
  -21.3720  -29.1540   22.4320 N   0  0  0  0  0  0  0  0  0  0  0  0
  -23.3900  -28.8270   23.4000 O   0  0  0  0  0  0  0  0  0  0  0  0
  -20.8610  -29.6760   21.7340 H   0  0  0  0  0  0  0  0  0  0  0  0
  -18.0640  -27.7780   22.8880 C   0  0  0  0  0  0  0  0  0  0  0  0
  -20.5960  -28.1840   23.2040 C   0  0  0  0  0  3  0  0  0  0  0  0
  -20.7910  -26.7520   22.6530 C   0  0  0  0  0  2  0  0  0  0  0  0
  -19.7290  -26.3530   21.6240 C   0  0  0  0  0  2  0  0  0  0  0  0
  -18.3290  -26.4300   22.2410 C   0  0  0  0  0  2  0  0  0  0  0  0
  -19.1290  -28.6080   23.3270 C   0  0  0  0  0  0  0  0  0  0  0  0
  -18.8300  -29.8680   23.8910 C   0  0  0  0  0  3  0  0  0  0  0  0
  -17.4960  -30.2980   24.0230 C   0  0  0  0  0  3  0  0  0  0  0  0
  -16.4440  -29.4660   23.6010 C   0  0  0  0  0  3  0  0  0  0  0  0
  -16.7290  -28.2080   23.0410 C   0  0  0  0  0  3  0  0  0  0  0  0
  -25.6860  -32.6040   23.8650 C   0  0  0  0  0  3  0  0  0  0  0  0
  -25.3210  -33.9930   24.1720 N   0  0  0  0  0  0  0  0  0  0  0  0
  -25.6260  -35.0460   23.4030 C   0  0  0  0  0  0  0  0  0  0  0  0
  -26.3150  -34.9550   22.3830 O   0  0  0  0  0  0  0  0  0  0  0  0
  -24.7080  -34.1350   24.9610 H   0  0  0  0  0  0  0  0  0  0  0  0
  -23.8300  -36.7600   23.0020 C   0  0  0  0  0  1  0  0  0  0  0  0
  -25.0780  -36.4210   23.8330 C   0  0  0  0  0  3  0  0  0  0  0  0
  -27.1730  -37.3950   24.6630 C   0  0  0  0  0  1  0  0  0  0  0  0
  -26.0700  -37.5120   23.7140 N   0  0  0  0  0  0  0  0  0  0  0  0
  -25.6270  -38.4170   23.8520 H   0  0  0  0  0  0  0  0  0  0  0  0
  -26.2290  -31.8690   25.1510 C   0  0  1  0  0  0  0  0  0  0  0  0
  -25.1410  -31.5990   26.2160 C   0  0  0  0  0  1  0  0  0  0  0  0
  -26.8710  -30.5130   24.7770 C   0  0  0  0  0  1  0  0  0  0  0  0
  -27.3410  -32.7190   25.8080 C   0  0  0  0  0  1  0  0  0  0  0  0
  -30.3180  -23.5030   15.8970 C   0  0  0  0  0  1  0  0  0  0  0  0
  -32.7530  -22.9470   15.7720 C   0  0  0  0  0  1  0  0  0  0  0  0
  -31.5750  -23.1780   16.7340 C   0  0  0  0  0  3  0  0  0  0  0  0
  2  4  1  0
  2  1  1  0
  3  2  2  0
  4  5  1  0
  5  6  2  0
  5  7  1  0
  7  9  2  0
  8 14  1  0
  8  7  1  0
 10  8  1  0
 12 11  1  0
 13 11  2  0
 14 12  2  0
 15 13  1  0
 16 15  2  0
 16 14  1  0
 17 25  1  0
 18 23  1  0
 19 18  1  0
 19 20  1  0
 21 20  1  0
 21 22  1  0
 21 30  1  0
 23 17  1  0
 23 22  1  0
 24 17  2  0
 25 26  1  0
 25 15  1  0
 27 28  2  0
 28 47  1  0
 29 28  1  0
 29 32  1  0
 30 31  1  0
 30 27  1  0
 31 29  2  0
 32 33  1  0
 33 34  2  0
 35 34  1  0
 35 38  1  0
 36 35  2  0
 37 32  2  0
 37 36  1  0
 38 39  1  0
 39 40  1  0
 40 41  2  0
 42 41  1  0
 42 46  1  0
 43 42  2  0
 44 39  2  0
 44 43  1  0
 45 44  1  0
 47 48  1  0
 48 50  1  0
 48 51  1  0
 49 47  2  0
 52 27  1  0
 52 53  1  0
 54 52  1  0
 55 16  1  0
 56 55  1  0
 57 55  1  0
 58 59  1  0
 58  1  1  0
 59 60  1  0
 61 59  1  0
 63 62  1  0
 63 59  1  0
 64113  1  0
 64 66  1  0
 64 63  1  0
 65 69  1  0
 66 68  1  0
 66 65  1  0
 67 65  2  0
 69 70  1  0
 70 72  1  0
 71 82  2  0
 72 77  1  0
 73 81  1  0
 73 83  1  0
 74 80  1  0
 74 76  1  0
 75 81  1  0
 76 75  1  0
 77 76  2  0
 78 79  1  0
 78 72  2  0
 79 74  2  0
 80 73  1  0
 81 71  1  0
 83 85  2  0
 84 83  1  0
 86 84  1  0
 87 96  2  0
 87 92  1  0
 88 84  1  0
 88 92  1  0
 89 88  1  0
 90 91  1  0
 90 89  1  0
 91 87  1  0
 92 93  2  0
 93 94  1  0
 95 94  2  0
 96 95  1  0
 97 71  1  0
 97 98  1  0
 97107  1  0
 98101  1  0
 99103  1  0
 99 98  1  0
100 99  2  0
103102  1  0
105103  1  0
105106  1  0
105104  1  0
107110  1  1
107108  1  0
109107  1  0
111113  1  0
112113  1  0
M  ISO  4  17 100  25 100  69 101  70 101
M  END
>  <TORSDO>  (16) 
F 29

>  <SCORE>  (16) 
4.293

>  <name>  (16) 
16

>  <ligand_id>  (16) 
16

>  <original_smiles>  (16) 
[H]c1c([H])c(N([H])C(=O)C(=O)[N-]C(=O)C([H])([H])C([H])([H])[N+]([H])([H])C([H])(C([H])([H])[H])C([H])(N([H])C(=O)C([H])([H])Oc2c([H])c([H])c3c(c2[H])C([H])([H])N(C(=O)C([H])(N([H])C(=O)C([H])(N([H])C([H])([H])[H])C([H])([H])[H])C(C([H])([H])[H])(C([H])([H])[H])C([H])([H])[H])C([H])(C(=O)N([H])C2([H])c4c([H])c([H])c([H])c([H])c4C([H])([H])C([H])([H])C2([H])[H])C3([H])[H])C([H])(C([H])([H])[H])C([H])([H])[H])c(N([H])[H])c(N([H])C(=O)N2C([H])([H])C([H])([H])C([H])([H])C([H])(n3nc(-c4c([H])c([H])c(Oc5c([H])c([H])c(F)c([H])c5F)c([H])c4[H])c(C(=O)N([H])[H])c3N([H])[H])C2([H])[H])c1[H]

>  <smiles>  (16) 
[H]c1c([H])c(N([H])C(=O)C(=O)[N-]C(=O)C([H])([H])C([H])([H])[N+]([H])([H])C([H])(C([H])([H])[H])C([H])(N([H])C(=O)C([H])([H])Oc2c([H])c([H])c3c(c2[H])C([H])([H])N(C(=O)C([H])(N([H])C(=O)C([H])(N([H])C([H])([H])[H])C([H])([H])[H])C(C([H])([H])[H])(C([H])([H])[H])C([H])([H])[H])C([H])(C(=O)N([H])C2([H])c4c([H])c([H])c([H])c([H])c4C([H])([H])C([H])([H])C2([H])[H])C3([H])[H])C([H])(C([H])([H])[H])C([H])([H])[H])c(N([H])[H])c(N([H])C(=O)N2C([H])([H])C([H])([H])C([H])([H])C([H])(n3nc(-c4c([H])c([H])c(Oc5c([H])c([H])c(F)c([H])c5F)c([H])c4[H])c(C(=O)N([H])[H])c3N([H])[H])C2([H])[H])c1[H]

$$$$
17:0:0
     RDKit          3D

107114  0  0  1  0  0  0  0  0999 V2000
  -32.5810  -20.9620   22.4700 C   0  0  0  0  0  3  0  0  0  0  0  0
  -30.6750  -21.8400   23.8090 C   0  0  0  0  0  0  0  0  0  0  0  0
  -31.1760  -21.0030   22.9030 N   0  0  0  0  0  0  0  0  0  0  0  0
  -31.3800  -22.4680   24.6010 O   0  0  0  0  0  0  0  0  0  0  0  0
  -30.5280  -20.6020   22.2370 H   0  0  0  0  0  0  0  0  0  0  0  0
  -29.1680  -22.0850   23.7780 C   0  0  0  0  0  2  0  0  0  0  0  0
  -28.1980  -23.7800   22.2280 C   0  0  0  0  0  0  0  0  0  0  0  0
  -28.9940  -23.4290   23.2400 N   0  0  0  0  0  0  0  0  0  0  0  0
  -27.3930  -23.0000   21.7130 O   0  0  0  0  0  0  0  0  0  0  0  0
  -29.6520  -24.1150   23.5900 H   0  0  0  0  0  0  0  0  0  0  0  0
  -28.3280  -25.2220   21.7090 C   0  0  0  0  0  2  0  0  0  0  0  0
  -28.2650  -25.2880   20.2410 N   0  0  0  0  0  0  0  0  0  0  0  0
  -27.3360  -25.0480   19.9080 H   0  0  0  0  0  0  0  0  0  0  0  0
  -28.4970  -26.6720   19.8630 O   0  0  0  0  0  0  0  0  0  0  0  0
  -24.5800  -31.6590   23.1130 C   0  0  0  0  0  0  0  0  0  0  0  0
  -27.3310  -27.3980   19.8730 C   0  0  0  0  0  0  0  0  0  0  0  0
  -23.4230  -30.3030   21.4040 C   0  0  0  0  0  3  0  0  0  0  0  0
  -24.9200  -28.8620   19.9220 C   0  0  0  0  0  0  0  0  0  0  0  0
  -25.9430  -30.7170   21.2530 C   0  0  0  0  0  2  0  0  0  0  0  0
  -26.0590  -29.3770   20.5540 C   0  0  0  0  0  0  0  0  0  0  0  0
  -27.2690  -28.6420   20.5390 C   0  0  0  0  0  3  0  0  0  0  0  0
  -26.1840  -26.9110   19.2100 C   0  0  0  0  0  3  0  0  0  0  0  0
  -24.9770  -27.6320   19.2430 C   0  0  0  0  0  3  0  0  0  0  0  0
  -23.6590  -29.6910   19.9980 C   0  0  0  0  0  2  0  0  0  0  0  0
  -24.6670  -30.9070   21.9830 N   0  0  0  0  0  0  0  0  0  0  0  0
  -23.4900  -31.8880   23.6520 O   0  0  0  0  0  0  0  0  0  0  0  0
  -22.7840  -29.2270   22.3090 C   0  0  0  0  0  0  0  0  0  0  0  0
  -21.4570  -29.0510   22.1920 N   0  0  0  0  0  0  0  0  0  0  0  0
  -23.4820  -28.5520   23.0700 O   0  0  0  0  0  0  0  0  0  0  0  0
  -20.9530  -29.6520   21.5520 H   0  0  0  0  0  0  0  0  0  0  0  0
  -18.0830  -27.8710   22.7100 C   0  0  0  0  0  0  0  0  0  0  0  0
  -20.6530  -28.0700   22.9200 C   0  0  0  0  0  3  0  0  0  0  0  0
  -20.7130  -26.6840   22.2350 C   0  0  0  0  0  2  0  0  0  0  0  0
  -19.5770  -26.4520   21.2350 C   0  0  0  0  0  2  0  0  0  0  0  0
  -18.2200  -26.5710   21.9320 C   0  0  0  0  0  2  0  0  0  0  0  0
  -19.2280  -28.5820   23.1580 C   0  0  0  0  0  0  0  0  0  0  0  0
  -19.0510  -29.8020   23.8430 C   0  0  0  0  0  3  0  0  0  0  0  0
  -17.7610  -30.3100   24.0890 C   0  0  0  0  0  3  0  0  0  0  0  0
  -16.6310  -29.5930   23.6600 C   0  0  0  0  0  3  0  0  0  0  0  0
  -16.7930  -28.3760   22.9760 C   0  0  0  0  0  3  0  0  0  0  0  0
  -25.8470  -32.2890   23.7730 C   0  0  0  0  0  3  0  0  0  0  0  0
  -25.5190  -33.6770   24.1290 N   0  0  0  0  0  0  0  0  0  0  0  0
  -25.8410  -34.7460   23.3900 C   0  0  0  0  0  0  0  0  0  0  0  0
  -26.5230  -34.6750   22.3640 O   0  0  0  0  0  0  0  0  0  0  0  0
  -24.9170  -33.8080   24.9280 H   0  0  0  0  0  0  0  0  0  0  0  0
  -24.0910  -36.5210   23.0510 C   0  0  0  0  0  1  0  0  0  0  0  0
  -25.3270  -36.1150   23.8680 C   0  0  0  0  0  3  0  0  0  0  0  0
  -27.4410  -37.0160   24.7430 C   0  0  0  0  0  1  0  0  0  0  0  0
  -26.3440  -37.1890   23.7950 N   0  0  0  0  0  0  0  0  0  0  0  0
  -25.9190  -38.0950   23.9720 H   0  0  0  0  0  0  0  0  0  0  0  0
  -26.3540  -31.4920   25.0380 C   0  0  1  0  0  0  0  0  0  0  0  0
  -25.2510  -31.2130   26.0840 C   0  0  0  0  0  1  0  0  0  0  0  0
  -26.9580  -30.1320   24.6180 C   0  0  0  0  0  1  0  0  0  0  0  0
  -27.4930  -32.2770   25.7340 C   0  0  0  0  0  1  0  0  0  0  0  0
  -34.4960  -19.3220   21.8870 C   0  0  0  0  0  1  0  0  0  0  0  0
  -32.0930  -18.4810   21.8670 C   0  0  0  0  0  1  0  0  0  0  0  0
  -33.0830  -19.4870   22.4840 C   0  0  0  0  0  3  0  0  0  0  0  0
  -32.6680  -21.5960   21.0530 C   0  0  0  0  0  0  0  0  0  0  0  0
  -33.6820  -22.2180   20.7260 O   0  0  0  0  0  0  0  0  0  0  0  0
  -31.4280  -21.8510   19.1280 C   0  0  0  0  0  3  0  0  0  0  0  0
  -31.5210  -21.3750   20.3030 N   0  0  0  0  0  0  0  0  0  0  0  0
  -30.1870  -21.5890   18.2800 C   0  0  0  0  0  2  0  0  0  0  0  0
  -29.2790  -20.4330   18.7860 C   0  0  0  0  0  2  0  0  0  0  0  0
  -29.6130  -18.0110   19.4280 C   0  0  0  0  0  0  0  0  0  0  0  0
  -29.9950  -19.1570   18.8430 N   0  0  0  0  0  0  0  0  0  0  0  0
  -28.5020  -17.8480   19.9400 O   0  0  0  0  0  0  0  0  0  0  0  0
  -30.9210  -19.1500   18.4390 H   0  0  0  0  0  0  0  0  0  0  0  0
  -30.9860  -16.4610   17.9610 C   0  0  0  0  0  1  0  0  0  0  0  0
  -30.6560  -16.8820   19.4100 C   0  0  0  0  0  3  0  0  0  0  0  0
  -31.0660  -14.6650   20.4590 C   0  0  0  0  0  0  0  0  0  0  0  0
  -30.8060  -12.3810   19.6490 C   0  0  0  0  0  2  0  0  0  0  0  0
  -29.9440  -12.4970   18.3730 C   0  0  0  0  0  2  0  0  0  0  0  0
  -28.4450  -12.4220   18.7270 C   0  0  0  0  0  2  0  0  0  0  0  0
  -28.0520  -13.3770   19.8840 C   0  0  0  0  0  3  0  0  0  0  0  0
  -29.0510  -13.2920   21.0660 C   0  0  0  0  0  2  0  0  0  0  0  0
  -30.4070  -13.4840   20.5320 N   0  0  0  0  0  0  0  0  0  0  0  0
  -32.2790  -14.7500   20.2510 O   0  0  0  0  0  0  0  0  0  0  0  0
  -30.2650  -15.7140   20.2130 N   0  0  0  0  0  0  0  0  0  0  0  0
  -29.2780  -15.6110   20.4000 H   0  0  0  0  0  0  0  0  0  0  0  0
  -25.6740  -14.0910   20.5380 C   0  0  0  0  0  0  0  0  0  0  0  0
  -24.5550  -13.3650   20.8520 C   0  0  0  0  0  0  0  0  0  0  0  0
  -24.9500  -11.9940   20.8090 C   0  0  0  0  0  0  0  0  0  0  0  0
  -26.6770  -13.1610   20.3230 N   0  0  0  0  0  0  0  0  0  0  0  0
  -26.2450  -11.8940   20.5410 N   0  0  0  0  0  0  0  0  0  0  0  0
  -24.1550  -10.7650   20.9520 C   0  0  0  0  0  0  0  0  0  0  0  0
  -24.4990   -9.7650   21.8930 C   0  0  0  0  0  3  0  0  0  0  0  0
  -23.7090   -8.6030   22.0260 C   0  0  0  0  0  3  0  0  0  0  0  0
  -22.5620   -8.4340   21.2170 C   0  0  0  0  0  0  0  0  0  0  0  0
  -22.2360   -9.4180   20.2660 C   0  0  0  0  0  3  0  0  0  0  0  0
  -23.0260  -10.5710   20.1300 C   0  0  0  0  0  3  0  0  0  0  0  0
  -21.7530   -7.3240   21.2580 O   0  0  0  0  0  0  0  0  0  0  0  0
  -21.5960   -6.5840   22.4040 C   0  0  0  0  0  0  0  0  0  0  0  0
  -21.1220   -7.1650   23.6000 C   0  0  0  0  0  3  0  0  0  0  0  0
  -20.9100   -6.3610   24.7370 C   0  0  0  0  0  3  0  0  0  0  0  0
  -21.1630   -4.9790   24.6770 C   0  0  0  0  0  0  0  0  0  0  0  0
  -21.6290   -4.3960   23.4860 C   0  0  0  0  0  3  0  0  0  0  0  0
  -21.8420   -5.1980   22.3500 C   0  0  0  0  0  0  0  0  0  0  0  0
  -22.2750   -4.6310   21.1980 F   0  0  0  0  0  0  0  0  0  0  0  0
  -20.9480   -4.2030   25.7640 F   0  0  0  0  0  0  0  0  0  0  0  0
  -23.1780  -13.9080   21.0940 C   0  0  0  0  0  0  0  0  0  0  0  0
  -22.3970  -13.2340   21.9350 N   0  0  0  0  0  0  0  0  0  0  0  0
  -22.8050  -14.9570   20.5740 O   0  0  0  0  0  0  0  0  0  0  0  0
  -22.7150  -12.3830   22.3740 H   0  0  0  0  0  0  0  0  0  0  0  0
  -21.4700  -13.5770   22.1420 H   0  0  0  0  0  0  0  0  0  0  0  0
  -25.9140  -15.4520   20.3970 N   0  0  0  0  0  0  0  0  0  0  0  0
  -25.1800  -16.1430   20.5100 H   0  0  0  0  0  0  0  0  0  0  0  0
  -26.8100  -15.8720   20.1810 H   0  0  0  0  0  0  0  0  0  0  0  0
  1 58  1  0
  1 57  1  0
  1  3  1  0
  2  4  2  0
  3  2  1  0
  5  3  1  0
  6  2  1  0
  7  8  1  0
  8 10  1  0
  8  6  1  0
  9  7  2  0
 11  7  1  0
 12 11  1  0
 13 12  1  0
 14 16  1  0
 14 12  1  0
 15 26  2  0
 16 21  1  0
 17 25  1  0
 17 27  1  0
 18 24  1  0
 18 20  1  0
 19 25  1  0
 20 19  1  0
 21 20  2  0
 22 23  1  0
 22 16  2  0
 23 18  2  0
 24 17  1  0
 25 15  1  0
 27 29  2  0
 28 27  1  0
 30 28  1  0
 31 40  2  0
 31 36  1  0
 32 28  1  0
 32 36  1  0
 33 32  1  0
 34 35  1  0
 34 33  1  0
 35 31  1  0
 36 37  2  0
 37 38  1  0
 39 38  2  0
 40 39  1  0
 41 15  1  0
 41 42  1  0
 41 51  1  0
 42 45  1  0
 43 47  1  0
 43 42  1  0
 44 43  2  0
 47 46  1  0
 49 47  1  0
 49 50  1  0
 49 48  1  0
 51 54  1  1
 51 52  1  0
 53 51  1  0
 55 57  1  0
 56 57  1  0
 59 58  2  0
 60 61  2  0
 61 58  1  0
 62 63  1  0
 62 60  1  0
 63 65  1  0
 64 66  2  0
 65 64  1  0
 67 65  1  0
 69 68  1  0
 69 64  1  0
 69 78  1  0
 70 76  1  0
 71 76  1  0
 72 73  1  0
 72 71  1  0
 74 73  1  0
 74 83  1  0
 74 75  1  0
 76 75  1  0
 77 70  2  0
 78 79  1  0
 78 70  1  0
 80 81  2  0
 81100  1  0
 82 81  1  0
 82 85  1  0
 83 80  1  0
 83 84  1  0
 84 82  2  0
 85 86  1  0
 86 87  2  0
 88 91  1  0
 88 87  1  0
 89 88  2  0
 90 89  1  0
 90 85  2  0
 91 92  1  0
 92 93  1  0
 93 94  2  0
 95 94  1  0
 95 99  1  0
 96 95  2  0
 97 92  2  0
 97 96  1  0
 98 97  1  0
100101  1  0
101104  1  0
101103  1  0
102100  2  0
105106  1  0
105 80  1  0
107105  1  0
M  ISO  4  12 101  14 101  70 100  78 100
M  END
>  <TORSDO>  (17) 
F 28

>  <SCORE>  (17) 
-9.789

>  <name>  (17) 
17

>  <ligand_id>  (17) 
17

>  <original_smiles>  (17) 
[H]C(=NC(=O)C([H])(N([H])C(=O)C([H])([H])N([H])C(=O)C([H])([H])N([H])Oc1c([H])c([H])c2c(c1[H])C([H])([H])N(C(=O)C([H])(N([H])C(=O)C([H])(N([H])C([H])([H])[H])C([H])([H])[H])C(C([H])([H])[H])(C([H])([H])[H])C([H])([H])[H])C([H])(C(=O)N([H])C1([H])c3c([H])c([H])c([H])c([H])c3C([H])([H])C([H])([H])C1([H])[H])C2([H])[H])C([H])(C([H])([H])[H])C([H])([H])[H])C([H])([H])C([H])([H])N([H])C(=O)C([H])(N([H])C(=O)N1C([H])([H])C([H])([H])C([H])([H])C([H])(n2nc(-c3c([H])c([H])c(Oc4c([H])c([H])c(F)c([H])c4F)c([H])c3[H])c(C(=O)N([H])[H])c2N([H])[H])C1([H])[H])C([H])([H])[H]

>  <smiles>  (17) 
[H]C(=NC(=O)C([H])(N([H])C(=O)C([H])([H])N([H])C(=O)C([H])([H])N([H])Oc1c([H])c([H])c2c(c1[H])C([H])([H])N(C(=O)C([H])(N([H])C(=O)C([H])(N([H])C([H])([H])[H])C([H])([H])[H])C(C([H])([H])[H])(C([H])([H])[H])C([H])([H])[H])C([H])(C(=O)N([H])C1([H])c3c([H])c([H])c([H])c([H])c3C([H])([H])C([H])([H])C1([H])[H])C2([H])[H])C([H])(C([H])([H])[H])C([H])([H])[H])C([H])([H])C([H])([H])N([H])C(=O)C([H])(N([H])C(=O)N1C([H])([H])C([H])([H])C([H])([H])C([H])(n2nc(-c3c([H])c([H])c(Oc4c([H])c([H])c(F)c([H])c4F)c([H])c3[H])c(C(=O)N([H])[H])c2N([H])[H])C1([H])[H])C([H])([H])[H]

$$$$
18:0:0
     RDKit          3D

105106  0  0  1  0  0  0  0  0999 V2000
  -32.2490  -25.8770   16.1210 C   0  0  0  0  0  0  0  0  0  0  0  0
  -31.0840  -26.2320   15.5590 N   0  0  0  0  0  0  0  0  0  0  0  0
  -33.1470  -26.6800   16.3890 O   0  0  0  0  0  0  0  0  0  0  0  0
  -30.4310  -25.4600   15.4250 H   0  0  0  0  0  0  0  0  0  0  0  0
  -30.4940  -24.3750   18.1850 C   0  0  0  0  0  0  0  0  0  0  0  0
  -34.1460  -23.7610   18.0330 C   0  0  0  0  0  2  0  0  0  0  0  0
  -33.7690  -23.7690   16.5580 C   0  0  0  0  0  2  0  0  0  0  0  0
  -32.8210  -23.7080   18.7870 C   0  0  0  0  0  2  0  0  0  0  0  0
  -32.3470  -24.3760   16.5010 C   0  0  0  0  0  3  0  0  0  0  0  0
  -31.7900  -24.1670   17.8550 N   0  0  0  0  0  0  0  0  0  0  0  0
  -29.6060  -24.3380   17.3280 O   0  0  0  0  0  0  0  0  0  0  0  0
  -30.1180  -24.7730   19.6180 C   0  0  0  0  0  2  0  0  0  0  0  0
  -29.7700  -26.1640   19.6980 O   0  0  0  0  0  0  0  0  0  0  0  0
  -25.1440  -31.7200   23.2650 C   0  0  0  0  0  0  0  0  0  0  0  0
  -28.5020  -26.5000   19.8330 C   0  0  0  0  0  2  0  0  0  0  0  0
  -23.9130  -30.1890   21.7130 C   0  0  0  0  0  3  0  0  0  0  0  0
  -25.0550  -27.9510   20.6120 C   0  0  0  0  0  3  0  0  0  0  0  0
  -26.4430  -30.1320   21.7350 C   0  0  0  0  0  2  0  0  0  0  0  0
  -26.5070  -28.5320   21.5130 C   0  0  0  0  0  3  0  0  0  0  0  0
  -28.1880  -27.8080   21.2300 C   0  0  0  0  0  2  0  0  0  0  0  0
  -26.9210  -25.8650   18.7660 C   0  0  0  0  0 15  0  0  0  0  0  0
  -25.1650  -26.6190   19.2650 C   0  0  0  0  0  1  0  0  0  0  0  0
  -24.0580  -29.1800   20.4890 C   0  0  0  0  0  2  0  0  0  0  0  0
  -25.1910  -30.7520   22.2710 N   0  0  0  0  0  0  0  0  0  0  0  0
  -24.0620  -32.1030   23.7460 O   0  0  0  0  0  0  0  0  0  0  0  0
  -23.1830  -29.3800   22.7770 C   0  0  0  0  0  0  0  0  0  0  0  0
  -21.8610  -29.2300   22.6270 N   0  0  0  0  0  0  0  0  0  0  0  0
  -23.8290  -28.8270   23.6680 O   0  0  0  0  0  0  0  0  0  0  0  0
  -21.3970  -29.7080   21.8680 H   0  0  0  0  0  0  0  0  0  0  0  0
  -18.5330  -27.9160   23.0550 C   0  0  0  0  0  0  0  0  0  0  0  0
  -21.0550  -28.3040   23.4130 C   0  0  0  0  0  3  0  0  0  0  0  0
  -21.2490  -26.8510   22.9160 C   0  0  0  0  0  2  0  0  0  0  0  0
  -20.2100  -26.4330   21.8730 C   0  0  0  0  0  2  0  0  0  0  0  0
  -18.7960  -26.5450   22.4510 C   0  0  0  0  0  2  0  0  0  0  0  0
  -19.5970  -28.7510   23.4850 C   0  0  0  0  0  0  0  0  0  0  0  0
  -19.3050  -30.0320   23.9980 C   0  0  0  0  0  3  0  0  0  0  0  0
  -17.9740  -30.4800   24.0920 C   0  0  0  0  0  3  0  0  0  0  0  0
  -16.9230  -29.6410   23.6830 C   0  0  0  0  0  3  0  0  0  0  0  0
  -17.2010  -28.3610   23.1690 C   0  0  0  0  0  3  0  0  0  0  0  0
  -26.4230  -32.3960   23.8720 C   0  0  0  0  0  3  0  0  0  0  0  0
  -26.9580  -31.6800   25.1800 C   0  0  1  0  0  0  0  0  0  0  0  0
  -25.8710  -31.4880   26.2660 C   0  0  0  0  0  1  0  0  0  0  0  0
  -27.5520  -30.2870   24.8750 C   0  0  0  0  0  1  0  0  0  0  0  0
  -28.1090  -32.5090   25.8070 C   0  0  0  0  0  1  0  0  0  0  0  0
  -26.1150  -33.8110   24.1930 N   0  0  0  0  0  0  0  0  0  0  0  0
  -26.5060  -34.8840   23.4870 C   0  0  0  0  0  0  0  0  0  0  0  0
  -27.2070  -34.7930   22.4780 O   0  0  0  0  0  0  0  0  0  0  0  0
  -25.4880  -33.9620   24.9680 H   0  0  0  0  0  0  0  0  0  0  0  0
  -24.8130  -36.7270   23.1600 C   0  0  0  0  0  1  0  0  0  0  0  0
  -26.0400  -36.2770   23.9690 C   0  0  0  0  0  3  0  0  0  0  0  0
  -28.1780  -37.1280   24.8340 C   0  0  0  0  0  1  0  0  0  0  0  0
  -27.0870  -37.3210   23.8850 N   0  0  0  0  0  0  0  0  0  0  0  0
  -26.6860  -38.2410   24.0450 H   0  0  0  0  0  0  0  0  0  0  0  0
  -31.3200  -28.5140   14.7030 C   0  0  0  0  0  1  0  0  0  0  0  0
  -30.4560  -27.5440   15.5130 C   0  0  0  0  0  3  0  0  0  0  0  0
  -29.0000  -27.4330   14.9930 C   0  0  0  0  0  0  0  0  0  0  0  0
  -28.0180  -27.7560   15.8460 N   0  0  0  0  0  0  0  0  0  0  0  0
  -28.7800  -27.0860   13.8330 O   0  0  0  0  0  0  0  0  0  0  0  0
  -28.3010  -27.9380   16.8000 H   0  0  0  0  0  0  0  0  0  0  0  0
  -26.5820  -27.9590   15.5710 C   0  0  0  0  0  2  0  0  0  0  0  0
  -25.5510  -26.7360   15.2610 C   0  0  0  0  0  2  0  0  0  0  0  0
  -24.5210  -24.8950   16.8030 N   0  0  0  0  0  1  0  0  0  0  0  0
  -25.3860  -26.9710   14.0330 O   0  0  0  0  0  1  0  0  0  0  0  0
  -23.6400  -24.6340   16.3820 H   0  0  0  0  0  0  0  0  0  0  0  0
  -25.2750  -23.2360   17.8790 C   0  0  0  0  0 15  0  0  0  0  0  0
  -26.2790  -21.1530   18.1900 C   0  0  0  0  0 15  0  0  0  0  0  0
  -27.4150  -19.5430   19.4320 C   0  0  0  0  0 15  0  0  0  0  0  0
  -29.0790  -16.3470   20.5480 C   0  0  0  0  0  0  0  0  0  0  0  0
  -30.2120  -13.7020   20.7940 C   0  0  0  0  0  2  0  0  0  0  0  0
  -30.0090  -12.4610   19.8300 C   0  0  0  0  0  2  0  0  0  0  0  0
  -28.6730  -11.7530   20.0790 C   0  0  0  0  0  2  0  0  0  0  0  0
  -27.6170  -12.8190   20.4090 C   0  0  0  0  0  3  0  0  0  0  0  0
  -28.0430  -13.8860   21.4550 C   0  0  0  0  0  2  0  0  0  0  0  0
  -29.0450  -14.8010   20.8030 N   0  0  0  0  0  0  0  0  0  0  0  0
  -30.3000  -16.4940   20.8640 O   0  0  0  0  0  0  0  0  0  0  0  0
  -28.0160  -17.6050   19.9020 N   0  0  0  0  0  2  0  0  0  0  0  0
  -27.1910  -17.0540   19.7060 H   0  0  0  0  0  0  0  0  0  0  0  0
  -25.1140  -12.9720   20.4110 C   0  0  0  0  0  0  0  0  0  0  0  0
  -24.1110  -12.0820   20.6590 C   0  0  0  0  0  0  0  0  0  0  0  0
  -24.7490  -10.8650   21.0570 C   0  0  0  0  0  0  0  0  0  0  0  0
  -26.2880  -12.2930   20.6510 N   0  0  0  0  0  0  0  0  0  0  0  0
  -26.0700  -11.0300   21.1060 N   0  0  0  0  0  0  0  0  0  0  0  0
  -24.1660   -9.5440   21.3350 C   0  0  0  0  0  0  0  0  0  0  0  0
  -24.4390   -8.8500   22.5340 C   0  0  0  0  0  3  0  0  0  0  0  0
  -23.8450   -7.5940   22.7840 C   0  0  0  0  0  3  0  0  0  0  0  0
  -22.9650   -7.0210   21.8360 C   0  0  0  0  0  0  0  0  0  0  0  0
  -22.7100   -7.7080   20.6370 C   0  0  0  0  0  3  0  0  0  0  0  0
  -23.3060   -8.9560   20.3870 C   0  0  0  0  0  3  0  0  0  0  0  0
  -22.3620   -5.7940   21.9830 O   0  0  0  0  0  0  0  0  0  0  0  0
  -22.1070   -5.2610   23.2210 C   0  0  0  0  0  0  0  0  0  0  0  0
  -21.3030   -5.9320   24.1680 C   0  0  0  0  0  3  0  0  0  0  0  0
  -21.0110   -5.3190   25.4030 C   0  0  0  0  0  3  0  0  0  0  0  0
  -21.5090   -4.0330   25.6860 C   0  0  0  0  0  0  0  0  0  0  0  0
  -22.3030   -3.3610   24.7410 C   0  0  0  0  0  3  0  0  0  0  0  0
  -22.5980   -3.9730   23.5100 C   0  0  0  0  0  0  0  0  0  0  0  0
  -23.3480   -3.3140   22.5920 F   0  0  0  0  0  0  0  0  0  0  0  0
  -21.2220   -3.4370   26.8670 F   0  0  0  0  0  0  0  0  0  0  0  0
  -22.6500  -12.3260   20.4290 C   0  0  0  0  0  0  0  0  0  0  0  0
  -21.7850  -11.6910   21.2100 N   0  0  0  0  0  0  0  0  0  0  0  0
  -22.2690  -13.1310   19.5830 O   0  0  0  0  0  0  0  0  0  0  0  0
  -22.0950  -11.0480   21.9230 H   0  0  0  0  0  0  0  0  0  0  0  0
  -20.7960  -11.8620   21.0930 H   0  0  0  0  0  0  0  0  0  0  0  0
  -25.1460  -14.2900   19.9660 N   0  0  0  0  0  0  0  0  0  0  0  0
  -24.3130  -14.8110   19.7110 H   0  0  0  0  0  0  0  0  0  0  0  0
  -26.0050  -14.7730   19.7460 H   0  0  0  0  0  0  0  0  0  0  0  0
  1  3  2  0
  2  1  1  0
  4  2  1  0
  5 12  1  0
  6  8  1  0
  7  6  1  0
  9  1  1  0
  9  7  1  0
  9 10  1  0
 10  5  1  0
 10  8  1  0
 11  5  2  0
 12 13  1  0
 13 15  1  0
 14 25  2  0
 15 20  1  0
 16 24  1  0
 16 26  1  0
 17 22  1  0
 17 19  1  0
 18 24  1  0
 19 20  1  0
 19 18  1  0
 23 17  1  0
 23 16  1  0
 24 14  1  0
 26 28  2  0
 27 26  1  0
 29 27  1  0
 30 39  2  0
 30 35  1  0
 31 27  1  0
 31 35  1  0
 32 31  1  0
 33 34  1  0
 33 32  1  0
 34 30  1  0
 35 36  2  0
 36 37  1  0
 38 37  2  0
 39 38  1  0
 40 14  1  0
 40 45  1  0
 40 41  1  0
 41 44  1  1
 41 42  1  0
 43 41  1  0
 45 48  1  0
 46 50  1  0
 46 45  1  0
 47 46  2  0
 50 49  1  0
 52 50  1  0
 52 53  1  0
 52 51  1  0
 55 54  1  0
 55  2  1  0
 56 55  1  0
 56 57  1  0
 57 59  1  0
 58 56  2  0
 60 57  1  0
 61 60  1  0
 63 61  1  0
 64 62  1  0
 68 74  1  0
 68 75  2  0
 69 74  1  0
 70 71  1  0
 70 69  1  0
 72 71  1  0
 72 81  1  0
 72 73  1  0
 74 73  1  0
 76 68  1  0
 77 76  1  0
 78 81  1  0
 78 79  2  0
 79 80  1  0
 80 82  2  0
 80 83  1  0
 81 82  1  0
 83 84  1  0
 84 85  2  0
 86 89  1  0
 86 85  1  0
 87 86  2  0
 88 87  1  0
 88 83  2  0
 89 90  1  0
 90 95  2  0
 90 91  1  0
 91 92  2  0
 92 93  1  0
 93 97  1  0
 94 93  2  0
 95 94  1  0
 96 95  1  0
 98 79  1  0
 98 99  1  0
 99101  1  0
100 98  2  0
102 99  1  0
103 78  1  0
104103  1  0
105103  1  0
M  ISO  4  12 101  13 101  68 100  76 100
M  END
>  <TORSDO>  (18) 
F 25

>  <SCORE>  (18) 
-8.105

>  <name>  (18) 
18

>  <ligand_id>  (18) 
18

>  <original_smiles>  (18) 
[H]c1c([H])c([H])c2c(c1[H])C([H])([H])C([H])([H])C([H])([H])C2([H])N([H])C(=O)C1([H])N(C(=O)C([H])(N([H])C(=O)C([H])(N([H])C([H])([H])[H])C([H])([H])[H])C(C([H])([H])[H])(C([H])([H])[H])C([H])([H])[H])C([H])([H])c2c([H])c(OC([H])([H])C(=O)N3C([H])([H])C([H])([H])C([H])([H])C3([H])C(=O)N([H])C([H])(C(=O)N([H])C([H])([H])C(=O)N([H])C([H])([H])C([H])([H])C([H])([H])N([H])C(=O)N3C([H])([H])C([H])([H])C([H])([H])C([H])(n4nc(-c5c([H])c([H])c(Oc6c([H])c([H])c(F)c([H])c6F)c([H])c5[H])c(C(=O)N([H])[H])c4N([H])[H])C3([H])[H])C([H])([H])[H])c([H])c([H])c2C1([H])[H]

>  <smiles>  (18) 
[H]c1c([H])c([H])c2c(c1[H])C([H])([H])C([H])([H])C([H])([H])C2([H])N([H])C(=O)C1([H])N(C(=O)C([H])(N([H])C(=O)C([H])(N([H])C([H])([H])[H])C([H])([H])[H])C(C([H])([H])[H])(C([H])([H])[H])C([H])([H])[H])C([H])([H])c2c([H])c(OC([H])([H])C(=O)N3C([H])([H])C([H])([H])C([H])([H])C3([H])C(=O)N([H])C([H])(C(=O)N([H])C([H])([H])C(=O)N([H])C([H])([H])C([H])([H])C([H])([H])N([H])C(=O)N3C([H])([H])C([H])([H])C([H])([H])C([H])(n4nc(-c5c([H])c([H])c(Oc6c([H])c([H])c(F)c([H])c6F)c([H])c5[H])c(C(=O)N([H])[H])c4N([H])[H])C3([H])[H])C([H])([H])[H])c([H])c([H])c2C1([H])[H]

$$$$
19:0:0
     RDKit          3D

 89 96  0  0  1  0  0  0  0  0999 V2000
  -28.6470  -22.6540   19.9040 C   0  0  0  0  0  0  0  0  0  0  0  0
  -28.8830  -21.3060   20.5010 N   0  0  0  0  0  0  0  0  0  0  0  0
  -28.8180  -22.6770   18.6800 O   0  0  0  0  0  0  0  0  0  0  0  0
  -28.8260  -21.3450   21.5090 H   0  0  0  0  0  0  0  0  0  0  0  0
  -28.8920  -19.6990   19.9870 C   0  0  0  0  0  2  0  0  0  0  0  0
  -30.3840  -15.3470   20.2450 C   0  0  0  0  0  0  0  0  0  0  0  0
  -30.3780  -12.8930   19.3560 C   0  0  0  0  0  2  0  0  0  0  0  0
  -29.4500  -12.6360   18.1400 C   0  0  0  0  0  2  0  0  0  0  0  0
  -28.0080  -12.3500   18.5990 C   0  0  0  0  0  2  0  0  0  0  0  0
  -27.5520  -13.3220   19.7140 C   0  0  0  0  0  3  0  0  0  0  0  0
  -28.6080  -13.5050   20.8230 C   0  0  0  0  0  2  0  0  0  0  0  0
  -29.8140  -14.0370   20.1650 N   0  0  0  0  0  0  0  0  0  0  0  0
  -31.6210  -15.3390   20.0980 O   0  0  0  0  0  0  0  0  0  0  0  0
  -29.8570  -18.2700   20.3320 C   0  0  0  0  0  0  0  0  0  0  0  0
  -29.5670  -16.7900   20.2390 N   0  0  0  0  0  0  0  0  0  0  0  0
  -31.1040  -18.6250   20.6940 N   0  0  0  0  0  4  0  0  0  0  0  0
  -28.5690  -16.7010   20.1490 H   0  0  0  0  0  0  0  0  0  0  0  0
  -31.3510  -19.6040   20.7510 H   0  0  0  0  0  0  0  0  0  0  0  0
  -31.8290  -17.9480   20.8900 H   0  0  0  0  0  0  0  0  0  0  0  0
  -25.1860  -13.8660   20.4880 C   0  0  0  0  0  0  0  0  0  0  0  0
  -24.1320  -13.0850   20.8660 C   0  0  0  0  0  0  0  0  0  0  0  0
  -24.6080  -11.7380   20.8350 C   0  0  0  0  0  0  0  0  0  0  0  0
  -26.2330  -12.9970   20.2380 N   0  0  0  0  0  0  0  0  0  0  0  0
  -25.8980  -11.7110   20.5170 N   0  0  0  0  0  0  0  0  0  0  0  0
  -23.8900  -10.4710   21.0280 C   0  0  0  0  0  0  0  0  0  0  0  0
  -24.3320   -9.5040   21.9580 C   0  0  0  0  0  3  0  0  0  0  0  0
  -23.6100   -8.3050   22.1420 C   0  0  0  0  0  3  0  0  0  0  0  0
  -22.4310   -8.0650   21.3960 C   0  0  0  0  0  0  0  0  0  0  0  0
  -22.0080   -9.0200   20.4550 C   0  0  0  0  0  3  0  0  0  0  0  0
  -22.7310  -10.2110   20.2700 C   0  0  0  0  0  3  0  0  0  0  0  0
  -21.6800   -6.9180   21.4890 O   0  0  0  0  0  0  0  0  0  0  0  0
  -21.6450   -6.1730   22.6400 C   0  0  0  0  0  0  0  0  0  0  0  0
  -21.2270   -6.7240   23.8720 C   0  0  0  0  0  3  0  0  0  0  0  0
  -21.1400   -5.9050   25.0160 C   0  0  0  0  0  3  0  0  0  0  0  0
  -21.4590   -4.5370   24.9290 C   0  0  0  0  0  0  0  0  0  0  0  0
  -21.8700   -3.9860   23.7030 C   0  0  0  0  0  3  0  0  0  0  0  0
  -21.9590   -4.8010   22.5610 C   0  0  0  0  0  0  0  0  0  0  0  0
  -22.3350   -4.2610   21.3770 F   0  0  0  0  0  0  0  0  0  0  0  0
  -21.3680   -3.7480   26.0250 F   0  0  0  0  0  0  0  0  0  0  0  0
  -22.7330  -13.5540   21.1350 C   0  0  0  0  0  0  0  0  0  0  0  0
  -22.0100  -12.8570   22.0030 N   0  0  0  0  0  0  0  0  0  0  0  0
  -22.2910  -14.5760   20.6110 O   0  0  0  0  0  0  0  0  0  0  0  0
  -22.3810  -12.0300   22.4480 H   0  0  0  0  0  0  0  0  0  0  0  0
  -21.0710  -13.1540   22.2280 H   0  0  0  0  0  0  0  0  0  0  0  0
  -25.3340  -15.2380   20.3010 N   0  0  0  0  0  0  0  0  0  0  0  0
  -24.5440  -15.8690   20.3880 H   0  0  0  0  0  0  0  0  0  0  0  0
  -26.1310  -15.6660   19.8530 H   0  0  0  0  0  0  0  0  0  0  0  0
  -28.1020  -24.2120   20.5740 C   0  0  0  0  0  2  0  0  0  0  0  0
  -28.2320  -25.8430   20.2290 O   0  0  0  0  0  0  0  0  0  0  0  0
  -24.6380  -31.8520   23.2030 C   0  0  0  0  0  0  0  0  0  0  0  0
  -27.1980  -26.9280   20.2390 C   0  0  0  0  0  0  0  0  0  0  0  0
  -23.4450  -30.4390   21.5800 C   0  0  0  0  0  3  0  0  0  0  0  0
  -24.8950  -28.8170   20.1770 C   0  0  0  0  0  0  0  0  0  0  0  0
  -26.0120  -30.6490   21.4290 C   0  0  0  0  0  2  0  0  0  0  0  0
  -26.0850  -29.2290   20.7890 C   0  0  0  0  0  0  0  0  0  0  0  0
  -27.2330  -28.3090   20.7860 C   0  0  0  0  0  3  0  0  0  0  0  0
  -25.9720  -26.6720   19.5850 C   0  0  0  0  0  3  0  0  0  0  0  0
  -24.8640  -27.5590   19.5540 C   0  0  0  0  0  3  0  0  0  0  0  0
  -23.6760  -29.7400   20.2110 C   0  0  0  0  0  2  0  0  0  0  0  0
  -24.7210  -31.0090   22.1230 N   0  0  0  0  0  0  0  0  0  0  0  0
  -23.5470  -32.1440   23.7220 O   0  0  0  0  0  0  0  0  0  0  0  0
  -22.7520  -29.4520   22.5560 C   0  0  0  0  0  0  0  0  0  0  0  0
  -21.4220  -29.2850   22.4360 N   0  0  0  0  0  0  0  0  0  0  0  0
  -23.4200  -28.8340   23.3890 O   0  0  0  0  0  0  0  0  0  0  0  0
  -20.9350  -29.8340   21.7400 H   0  0  0  0  0  0  0  0  0  0  0  0
  -18.0430  -28.0700   22.9580 C   0  0  0  0  0  0  0  0  0  0  0  0
  -20.6020  -28.3520   23.2170 C   0  0  0  0  0  3  0  0  0  0  0  0
  -20.7100  -26.9140   22.6570 C   0  0  0  0  0  2  0  0  0  0  0  0
  -19.6080  -26.5750   21.6470 C   0  0  0  0  0  2  0  0  0  0  0  0
  -18.2260  -26.7170   22.2910 C   0  0  0  0  0  2  0  0  0  0  0  0
  -19.1570  -28.8440   23.3780 C   0  0  0  0  0  0  0  0  0  0  0  0
  -18.9290  -30.1070   23.9650 C   0  0  0  0  0  3  0  0  0  0  0  0
  -17.6200  -30.5970   24.1350 C   0  0  0  0  0  3  0  0  0  0  0  0
  -16.5210  -29.8220   23.7290 C   0  0  0  0  0  3  0  0  0  0  0  0
  -16.7330  -28.5590   23.1470 C   0  0  0  0  0  3  0  0  0  0  0  0
  -25.9070  -32.5060   23.8300 C   0  0  0  0  0  3  0  0  0  0  0  0
  -25.5830  -33.9060   24.1550 N   0  0  0  0  0  0  0  0  0  0  0  0
  -25.9110  -34.9650   23.4030 C   0  0  0  0  0  0  0  0  0  0  0  0
  -26.5780  -34.8660   22.3710 O   0  0  0  0  0  0  0  0  0  0  0  0
  -24.9890  -34.0560   24.9570 H   0  0  0  0  0  0  0  0  0  0  0  0
  -24.1770  -36.7610   23.0670 C   0  0  0  0  0  1  0  0  0  0  0  0
  -25.4240  -36.3540   23.8680 C   0  0  0  0  0  3  0  0  0  0  0  0
  -27.5600  -37.2470   24.6870 C   0  0  0  0  0  1  0  0  0  0  0  0
  -26.4530  -37.4110   23.7490 N   0  0  0  0  0  0  0  0  0  0  0  0
  -26.0450  -38.3290   23.8980 H   0  0  0  0  0  0  0  0  0  0  0  0
  -26.4150  -31.7530   25.1220 C   0  0  1  0  0  0  0  0  0  0  0  0
  -25.3160  -31.5320   26.1880 C   0  0  0  0  0  1  0  0  0  0  0  0
  -27.0010  -30.3690   24.7620 C   0  0  0  0  0  1  0  0  0  0  0  0
  -27.5620  -32.5570   25.7780 C   0  0  0  0  0  1  0  0  0  0  0  0
  1  2  1  0
  1 48  1  0
  2  4  1  0
  3  1  2  0
  5 14  1  0
  5  2  1  0
  7 12  1  0
  8  9  1  0
  8  7  1  0
 10  9  1  0
 10 23  1  0
 10 11  1  0
 12  6  1  0
 12 11  1  0
 13  6  2  0
 14 16  2  0
 15  6  1  0
 15 14  1  0
 16 18  1  0
 16 19  1  0
 17 15  1  0
 20 21  2  0
 21 40  1  0
 22 21  1  0
 22 25  1  0
 23 20  1  0
 23 24  1  0
 24 22  2  0
 25 26  1  0
 26 27  2  0
 28 31  1  0
 28 27  1  0
 29 28  2  0
 30 29  1  0
 30 25  2  0
 31 32  1  0
 32 33  1  0
 33 34  2  0
 35 34  1  0
 35 39  1  0
 36 35  2  0
 37 32  2  0
 37 36  1  0
 38 37  1  0
 40 41  1  0
 41 44  1  0
 41 43  1  0
 42 40  2  0
 45 46  1  0
 45 20  1  0
 47 45  1  0
 49 51  1  0
 49 48  1  0
 50 61  2  0
 51 56  1  0
 52 60  1  0
 52 62  1  0
 53 59  1  0
 53 55  1  0
 54 60  1  0
 55 54  1  0
 56 55  2  0
 57 51  2  0
 58 57  1  0
 58 53  2  0
 59 52  1  0
 60 50  1  0
 62 64  2  0
 63 62  1  0
 65 63  1  0
 66 75  2  0
 66 71  1  0
 67 63  1  0
 67 71  1  0
 68 67  1  0
 69 70  1  0
 69 68  1  0
 70 66  1  0
 71 72  2  0
 72 73  1  0
 74 73  2  0
 75 74  1  0
 76 50  1  0
 76 77  1  0
 76 86  1  0
 77 80  1  0
 78 82  1  0
 78 77  1  0
 79 78  2  0
 82 81  1  0
 84 82  1  0
 84 85  1  0
 84 83  1  0
 86 89  1  1
 86 87  1  0
 88 86  1  0
M  ISO  4   6 100  15 100  48 101  49 101
M  END
>  <TORSDO>  (19) 
F 18

>  <SCORE>  (19) 
-16.480

>  <name>  (19) 
19

>  <ligand_id>  (19) 
19

>  <original_smiles>  (19) 
[H]c1c([H])c([H])c2c(c1[H])C([H])([H])C([H])([H])C([H])([H])C2([H])N([H])C(=O)C1([H])N(C(=O)C([H])(N([H])C(=O)C([H])(N([H])C([H])([H])[H])C([H])([H])[H])C(C([H])([H])[H])(C([H])([H])[H])C([H])([H])[H])C([H])([H])c2c([H])c(OC([H])([H])C(=O)N([H])C([H])([H])C(N([H])C(=O)N3C([H])([H])C([H])([H])C([H])([H])C([H])(n4nc(-c5c([H])c([H])c(Oc6c([H])c([H])c(F)c([H])c6F)c([H])c5[H])c(C(=O)N([H])[H])c4N([H])[H])C3([H])[H])=[N+]([H])[H])c([H])c([H])c2C1([H])[H]

>  <smiles>  (19) 
[H]c1c([H])c([H])c2c(c1[H])C([H])([H])C([H])([H])C([H])([H])C2([H])N([H])C(=O)C1([H])N(C(=O)C([H])(N([H])C(=O)C([H])(N([H])C([H])([H])[H])C([H])([H])[H])C(C([H])([H])[H])(C([H])([H])[H])C([H])([H])[H])C([H])([H])c2c([H])c(OC([H])([H])C(=O)N([H])C([H])([H])C(N([H])C(=O)N3C([H])([H])C([H])([H])C([H])([H])C([H])(n4nc(-c5c([H])c([H])c(Oc6c([H])c([H])c(F)c([H])c6F)c([H])c5[H])c(C(=O)N([H])[H])c4N([H])[H])C3([H])[H])=[N+]([H])[H])c([H])c([H])c2C1([H])[H]

$$$$
20:0:0
     RDKit          3D

110118  0  0  1  0  0  0  0  0999 V2000
  -23.5740  -21.1850   20.1470 C   0  0  0  0  0  1  0  0  0  0  0  0
  -24.4500  -20.7850   18.9460 C   0  0  0  0  0  3  0  0  0  0  0  0
  -24.6500  -19.2710   18.8150 C   0  0  0  0  0  0  0  0  0  0  0  0
  -25.6950  -18.7460   19.4640 N   0  0  0  0  0  0  0  0  0  0  0  0
  -23.8740  -18.5950   18.1350 O   0  0  0  0  0  0  0  0  0  0  0  0
  -26.2670  -19.3740   20.0110 H   0  0  0  0  0  0  0  0  0  0  0  0
  -26.1430  -17.3620   19.3600 C   0  0  0  0  0  2  0  0  0  0  0  0
  -27.1890  -17.1730   18.2410 C   0  0  0  0  0  2  0  0  0  0  0  0
  -29.1620  -18.4770   17.4420 C   0  0  0  0  0  0  0  0  0  0  0  0
  -28.3670  -18.0230   18.4190 N   0  0  0  0  0  0  0  0  0  0  0  0
  -28.9220  -18.2940   16.2480 O   0  0  0  0  0  0  0  0  0  0  0  0
  -28.6350  -18.2330   19.3710 H   0  0  0  0  0  0  0  0  0  0  0  0
  -30.4160  -19.2460   17.8720 C   0  0  0  0  0  2  0  0  0  0  0  0
  -31.7400  -18.5110   17.5680 C   0  0  0  0  0  2  0  0  0  0  0  0
  -32.1840  -17.5130   18.6570 C   0  0  0  0  0  2  0  0  0  0  0  0
  -33.6230  -17.0160   18.4380 C   0  0  0  0  0  2  0  0  0  0  0  0
  -34.1820  -16.1800   19.6020 C   0  0  0  0  0  2  0  0  0  0  0  0
  -33.5790  -13.7510   19.5520 C   0  0  0  0  0  0  0  0  0  0  0  0
  -33.2320  -11.4400   20.3410 C   0  0  0  0  0  2  0  0  0  0  0  0
  -32.3220  -10.5980   19.4320 C   0  0  0  0  0  2  0  0  0  0  0  0
  -30.8450  -10.8050   19.8060 C   0  0  0  0  0  2  0  0  0  0  0  0
  -30.4630  -12.3040   19.8900 C   0  0  0  0  0  3  0  0  0  0  0  0
  -31.4730  -13.0870   20.7570 C   0  0  0  0  0  2  0  0  0  0  0  0
  -32.8350  -12.8510   20.2390 N   0  0  0  0  0  0  0  0  0  0  0  0
  -34.5160  -13.4430   18.8090 O   0  0  0  0  0  0  0  0  0  0  0  0
  -33.3470  -15.0200   19.9100 N   0  0  0  0  0  0  0  0  0  0  0  0
  -32.6050  -15.1570   20.5800 H   0  0  0  0  0  0  0  0  0  0  0  0
  -28.4170  -13.6390   20.7120 C   0  0  0  0  0  0  0  0  0  0  0  0
  -27.1440  -13.2520   21.0330 C   0  0  0  0  0  0  0  0  0  0  0  0
  -27.1040  -11.8350   20.8560 C   0  0  0  0  0  0  0  0  0  0  0  0
  -29.0930  -12.4760   20.3720 N   0  0  0  0  0  0  0  0  0  0  0  0
  -28.3020  -11.3810   20.5130 N   0  0  0  0  0  0  0  0  0  0  0  0
  -25.9810  -10.8910   20.9400 C   0  0  0  0  0  0  0  0  0  0  0  0
  -26.0080   -9.7890   21.8240 C   0  0  0  0  0  3  0  0  0  0  0  0
  -24.9090   -8.9050   21.9000 C   0  0  0  0  0  3  0  0  0  0  0  0
  -23.7700   -9.1200   21.0890 C   0  0  0  0  0  0  0  0  0  0  0  0
  -23.7570  -10.2050   20.1950 C   0  0  0  0  0  3  0  0  0  0  0  0
  -24.8540  -11.0800   20.1170 C   0  0  0  0  0  3  0  0  0  0  0  0
  -22.6660   -8.3000   21.0760 O   0  0  0  0  0  0  0  0  0  0  0  0
  -22.2640   -7.6170   22.1960 C   0  0  0  0  0  0  0  0  0  0  0  0
  -21.9370   -8.2820   23.3970 C   0  0  0  0  0  3  0  0  0  0  0  0
  -21.4610   -7.5470   24.5030 C   0  0  0  0  0  3  0  0  0  0  0  0
  -21.3030   -6.1510   24.4050 C   0  0  0  0  0  0  0  0  0  0  0  0
  -21.6220   -5.4890   23.2070 C   0  0  0  0  0  3  0  0  0  0  0  0
  -22.0990   -6.2200   22.1060 C   0  0  0  0  0  0  0  0  0  0  0  0
  -22.3850   -5.5780   20.9460 F   0  0  0  0  0  0  0  0  0  0  0  0
  -20.8400   -5.4460   25.4630 F   0  0  0  0  0  0  0  0  0  0  0  0
  -25.9970  -14.1540   21.3920 C   0  0  0  0  0  0  0  0  0  0  0  0
  -25.0780  -13.6750   22.2220 N   0  0  0  0  0  0  0  0  0  0  0  0
  -25.9350  -15.3090   20.9740 O   0  0  0  0  0  0  0  0  0  0  0  0
  -25.1330  -12.7330   22.5770 H   0  0  0  0  0  0  0  0  0  0  0  0
  -24.3020  -14.2570   22.5030 H   0  0  0  0  0  0  0  0  0  0  0  0
  -29.0510  -14.8780   20.6640 N   0  0  0  0  0  0  0  0  0  0  0  0
  -28.5770  -15.7490   20.8830 H   0  0  0  0  0  0  0  0  0  0  0  0
  -30.0260  -15.0100   20.4230 H   0  0  0  0  0  0  0  0  0  0  0  0
  -24.1850  -22.5180   17.1750 C   0  0  0  0  0  0  0  0  0  0  0  0
  -23.9070  -21.3220   17.7020 N   0  0  0  0  0  0  0  0  0  0  0  0
  -24.9520  -23.3130   17.7210 O   0  0  0  0  0  0  0  0  0  0  0  0
  -23.3190  -20.6820   17.1810 H   0  0  0  0  0  0  0  0  0  0  0  0
  -25.7890  -25.5840   15.4870 C   0  0  0  0  0  0  0  0  0  0  0  0
  -22.3890  -25.1110   16.4360 C   0  0  0  0  0  2  0  0  0  0  0  0
  -22.1620  -23.6240   16.1000 C   0  0  0  0  0  2  0  0  0  0  0  0
  -23.2770  -25.7730   15.3670 C   0  0  0  0  0  2  0  0  0  0  0  0
  -24.3710  -23.6540   14.8390 C   0  0  0  0  0  2  0  0  0  0  0  0
  -23.4840  -22.8640   15.8450 C   0  0  0  0  0  3  0  0  0  0  0  0
  -24.5580  -25.0560   15.2680 N   0  0  0  0  0  0  0  0  0  0  0  0
  -26.8110  -25.0250   15.0750 O   0  0  0  0  0  0  0  0  0  0  0  0
  -25.9590  -26.8740   16.3140 C   0  0  0  0  0  2  0  0  0  0  0  0
  -26.8040  -26.6300   17.5860 C   0  0  0  0  0  2  0  0  0  0  0  0
  -27.0290  -27.8110   18.3650 O   0  0  0  0  0  0  0  0  0  0  0  0
  -24.7460  -31.2810   24.1450 C   0  0  0  0  0  0  0  0  0  0  0  0
  -25.9590  -28.4100   18.9910 C   0  0  0  0  0  0  0  0  0  0  0  0
  -22.9950  -30.5940   22.5400 C   0  0  0  0  0  3  0  0  0  0  0  0
  -23.8260  -29.7380   20.2900 C   0  0  0  0  0  0  0  0  0  0  0  0
  -25.3860  -31.0410   21.7470 C   0  0  0  0  0  2  0  0  0  0  0  0
  -25.1490  -30.0210   20.6530 C   0  0  0  0  0  0  0  0  0  0  0  0
  -26.2170  -29.3690   19.9960 C   0  0  0  0  0  3  0  0  0  0  0  0
  -24.6160  -28.1230   18.6540 C   0  0  0  0  0  3  0  0  0  0  0  0
  -23.5550  -28.7870   19.2940 C   0  0  0  0  0  3  0  0  0  0  0  0
  -22.7390  -30.4970   21.0150 C   0  0  0  0  0  2  0  0  0  0  0  0
  -24.4120  -30.9630   22.8630 N   0  0  0  0  0  0  0  0  0  0  0  0
  -23.8900  -31.3110   25.0400 O   0  0  0  0  0  0  0  0  0  0  0  0
  -22.5400  -29.2730   23.2030 C   0  0  0  0  0  0  0  0  0  0  0  0
  -21.3170  -28.8290   22.8710 N   0  0  0  0  0  0  0  0  0  0  0  0
  -23.2880  -28.6610   23.9690 O   0  0  0  0  0  0  0  0  0  0  0  0
  -20.7640  -29.3920   22.2390 H   0  0  0  0  0  0  0  0  0  0  0  0
  -18.6450  -26.4850   22.2210 C   0  0  0  0  0  0  0  0  0  0  0  0
  -20.6970  -27.5910   23.3380 C   0  0  0  0  0  3  0  0  0  0  0  0
  -21.4940  -26.3550   22.8640 C   0  0  0  0  0  2  0  0  0  0  0  0
  -20.9780  -25.7740   21.5440 C   0  0  0  0  0  2  0  0  0  0  0  0
  -19.5090  -25.3590   21.6760 C   0  0  0  0  0  2  0  0  0  0  0  0
  -19.2070  -27.5400   22.9880 C   0  0  0  0  0  0  0  0  0  0  0  0
  -18.3680  -28.5800   23.4450 C   0  0  0  0  0  3  0  0  0  0  0  0
  -16.9930  -28.5790   23.1470 C   0  0  0  0  0  3  0  0  0  0  0  0
  -16.4380  -27.5240   22.4010 C   0  0  0  0  0  3  0  0  0  0  0  0
  -17.2610  -26.4780   21.9440 C   0  0  0  0  0  3  0  0  0  0  0  0
  -26.2090  -31.6490   24.5440 C   0  0  0  0  0  3  0  0  0  0  0  0
  -26.2150  -33.0570   24.9620 N   0  0  0  0  0  0  0  0  0  0  0  0
  -26.6910  -34.0660   24.2200 C   0  0  0  0  0  0  0  0  0  0  0  0
  -27.2440  -33.8940   23.1300 O   0  0  0  0  0  0  0  0  0  0  0  0
  -25.7320  -33.2830   25.8180 H   0  0  0  0  0  0  0  0  0  0  0  0
  -25.3910  -36.2080   24.0330 C   0  0  0  0  0  1  0  0  0  0  0  0
  -26.5290  -35.4920   24.7780 C   0  0  0  0  0  3  0  0  0  0  0  0
  -28.8190  -35.8210   25.5930 C   0  0  0  0  0  1  0  0  0  0  0  0
  -27.7650  -36.3000   24.7020 N   0  0  0  0  0  0  0  0  0  0  0  0
  -27.5740  -37.2710   24.9330 H   0  0  0  0  0  0  0  0  0  0  0  0
  -26.7920  -30.7290   25.6870 C   0  0  1  0  0  0  0  0  0  0  0  0
  -25.8750  -30.6230   26.9290 C   0  0  0  0  0  1  0  0  0  0  0  0
  -27.0420  -29.2970   25.1560 C   0  0  0  0  0  1  0  0  0  0  0  0
  -28.1650  -31.2730   26.1450 C   0  0  0  0  0  1  0  0  0  0  0  0
  2  1  1  0
  3  2  1  0
  3  4  1  0
  4  6  1  0
  5  3  2  0
  7  4  1  0
  8 10  1  0
  8  7  1  0
  9 13  1  0
  9 10  1  0
 10 12  1  0
 11  9  2  0
 14 13  1  0
 14 15  1  0
 16 15  1  0
 16 17  1  0
 17 26  1  0
 18 26  1  0
 18 24  1  0
 20 21  1  0
 20 19  1  0
 22 21  1  0
 22 31  1  0
 22 23  1  0
 24 19  1  0
 24 23  1  0
 25 18  2  0
 26 27  1  0
 28 29  2  0
 29 48  1  0
 30 33  1  0
 30 29  1  0
 31 32  1  0
 31 28  1  0
 32 30  2  0
 33 34  1  0
 34 35  2  0
 36 35  1  0
 37 36  2  0
 38 37  1  0
 38 33  2  0
 39 36  1  0
 39 40  1  0
 40 41  1  0
 41 42  2  0
 43 42  1  0
 43 47  1  0
 44 43  2  0
 45 40  2  0
 45 44  1  0
 46 45  1  0
 48 49  1  0
 49 52  1  0
 49 51  1  0
 50 48  2  0
 53 28  1  0
 53 54  1  0
 55 53  1  0
 56 57  1  0
 56 58  2  0
 57  2  1  0
 59 57  1  0
 60 68  1  0
 62 61  1  0
 63 61  1  0
 64 66  1  0
 64 65  1  0
 65 62  1  0
 65 56  1  0
 66 63  1  0
 66 60  1  0
 67 60  2  0
 68 69  1  0
 69 70  1  0
 70 72  1  0
 71 82  2  0
 72 77  1  0
 73 81  1  0
 73 83  1  0
 74 76  1  0
 74 80  1  0
 75 81  1  0
 76 75  1  0
 77 76  2  0
 78 72  2  0
 78 79  1  0
 79 74  2  0
 80 73  1  0
 81 71  1  0
 83 85  2  0
 84 83  1  0
 86 84  1  0
 87 92  1  0
 88 84  1  0
 89 88  1  0
 90 91  1  0
 90 89  1  0
 91 87  1  0
 92 88  1  0
 92 93  2  0
 94 93  1  0
 95 94  2  0
 96 87  2  0
 96 95  1  0
 97 71  1  0
 97 98  1  0
 97107  1  0
 98101  1  0
 99103  1  0
 99 98  1  0
100 99  2  0
103102  1  0
105103  1  0
105106  1  0
105104  1  0
107110  1  1
107108  1  0
109107  1  0
M  ISO  4  18 100  26 100  69 101  70 101
M  END
>  <TORSDO>  (20) 
F 29

>  <SCORE>  (20) 
-0.870

>  <name>  (20) 
20

>  <ligand_id>  (20) 
20

>  <original_smiles>  (20) 
[H]c1c([H])c([H])c2c(c1[H])C([H])([H])C([H])([H])C([H])([H])C2([H])N([H])C(=O)C1([H])N(C(=O)C([H])(N([H])C(=O)C([H])(N([H])C([H])([H])[H])C([H])([H])[H])C(C([H])([H])[H])(C([H])([H])[H])C([H])([H])[H])C([H])([H])c2c([H])c(OC([H])([H])C([H])([H])C(=O)N3C([H])([H])C([H])([H])C([H])([H])C([H])(C(=O)N([H])C([H])(C(=O)N([H])C([H])([H])C([H])([H])N([H])C(=O)C([H])([H])C([H])([H])C([H])([H])C([H])([H])C([H])([H])N([H])C(=O)N4C([H])([H])C([H])([H])C([H])([H])C([H])(n5nc(-c6c([H])c([H])c(Oc7c([H])c([H])c(F)c([H])c7F)c([H])c6[H])c(C(=O)N([H])[H])c5N([H])[H])C4([H])[H])C([H])([H])[H])C3([H])[H])c([H])c([H])c2C1([H])[H]

>  <smiles>  (20) 
[H]c1c([H])c([H])c2c(c1[H])C([H])([H])C([H])([H])C([H])([H])C2([H])N([H])C(=O)C1([H])N(C(=O)C([H])(N([H])C(=O)C([H])(N([H])C([H])([H])[H])C([H])([H])[H])C(C([H])([H])[H])(C([H])([H])[H])C([H])([H])[H])C([H])([H])c2c([H])c(OC([H])([H])C([H])([H])C(=O)N3C([H])([H])C([H])([H])C([H])([H])C([H])(C(=O)N([H])C([H])(C(=O)N([H])C([H])([H])C([H])([H])N([H])C(=O)C([H])([H])C([H])([H])C([H])([H])C([H])([H])C([H])([H])N([H])C(=O)N4C([H])([H])C([H])([H])C([H])([H])C([H])(n5nc(-c6c([H])c([H])c(Oc7c([H])c([H])c(F)c([H])c7F)c([H])c6[H])c(C(=O)N([H])[H])c5N([H])[H])C4([H])[H])C([H])([H])[H])C3([H])[H])c([H])c([H])c2C1([H])[H]

$$$$
21:0:0
     RDKit          3D

119127  0  0  1  0  0  0  0  0999 V2000
  -25.6710  -24.9930   20.8340 C   0  0  0  0  0  0  0  0  0  0  0  0
  -27.9320  -26.0550   21.4780 C   0  0  0  0  0  0  0  0  0  0  0  0
  -26.7510  -25.4180   21.8040 N   0  0  0  0  0  4  0  0  0  0  0  0
  -28.1460  -26.3590   20.2950 O   0  0  0  0  0  0  0  0  0  0  0  0
  -26.5340  -25.2570   22.7620 H   0  0  0  0  0  0  0  0  0  0  0  0
  -29.0430  -26.4670   22.5730 C   0  0  0  0  0  2  0  0  0  0  0  0
  -29.6860  -27.8340   22.4760 O   0  0  0  0  0  0  0  0  0  0  0  0
  -24.1100  -28.4260   26.3510 C   0  0  0  0  0  0  0  0  0  0  0  0
  -28.7880  -28.8330   22.7170 C   0  0  0  0  0  0  0  0  0  0  0  0
  -24.0240  -29.4230   24.0920 C   0  0  0  0  0  3  0  0  0  0  0  0
  -26.2300  -29.9590   22.9900 C   0  0  0  0  0  0  0  0  0  0  0  0
  -26.1560  -29.5350   25.4600 C   0  0  0  0  0  2  0  0  0  0  0  0
  -26.9050  -29.5250   24.1380 C   0  0  0  0  0  0  0  0  0  0  0  0
  -28.2040  -28.9760   24.0000 C   0  0  0  0  0  3  0  0  0  0  0  0
  -28.1510  -29.3860   21.5940 C   0  0  0  0  0  3  0  0  0  0  0  0
  -26.8700  -29.9800   21.7330 C   0  0  0  0  0  3  0  0  0  0  0  0
  -24.7950  -30.3650   23.1380 C   0  0  0  0  0  2  0  0  0  0  0  0
  -24.7560  -29.0940   25.3470 N   0  0  0  0  0  0  0  0  0  0  0  0
  -22.9000  -28.1480   26.2950 O   0  0  0  0  0  0  0  0  0  0  0  0
  -23.5630  -28.1600   23.3400 C   0  0  0  0  0  0  0  0  0  0  0  0
  -22.4140  -28.2740   22.6490 N   0  0  0  0  0  0  0  0  0  0  0  0
  -24.2300  -27.1110   23.3380 O   0  0  0  0  0  0  0  0  0  0  0  0
  -22.0550  -29.1910   22.4780 H   0  0  0  0  0  0  0  0  0  0  0  0
  -19.4410  -27.4310   20.7730 C   0  0  0  0  0  0  0  0  0  0  0  0
  -21.7910  -27.2190   21.8390 C   0  0  0  0  0  3  0  0  0  0  0  0
  -22.3200  -27.3280   20.3980 C   0  0  0  0  0  2  0  0  0  0  0  0
  -21.4900  -28.2030   19.4730 C   0  0  0  0  0  2  0  0  0  0  0  0
  -20.0640  -27.6620   19.4110 C   0  0  0  0  0  2  0  0  0  0  0  0
  -20.2680  -27.2470   21.9160 C   0  0  0  0  0  0  0  0  0  0  0  0
  -19.6830  -27.0080   23.1920 C   0  0  0  0  0  3  0  0  0  0  0  0
  -18.2890  -27.0260   23.3080 C   0  0  0  0  0  3  0  0  0  0  0  0
  -17.4470  -27.1940   22.1990 C   0  0  0  0  0  3  0  0  0  0  0  0
  -18.0300  -27.3770   20.9180 C   0  0  0  0  0  3  0  0  0  0  0  0
  -24.8490  -28.0380   27.6730 C   0  0  0  0  0  3  0  0  0  0  0  0
  -25.7660  -26.7640   27.5250 C   0  0  1  0  0  0  0  0  0  0  0  0
  -25.5570  -25.9960   26.1980 C   0  0  0  0  0  1  0  0  0  0  0  0
  -27.2590  -27.1560   27.5940 C   0  0  0  0  0  1  0  0  0  0  0  0
  -25.5090  -25.7800   28.6990 C   0  0  0  0  0  1  0  0  0  0  0  0
  -23.8270  -27.8210   28.7120 N   0  0  0  0  0  0  0  0  0  0  0  0
  -23.7830  -28.4740   29.8820 C   0  0  0  0  0  0  0  0  0  0  0  0
  -24.6530  -29.2800   30.2260 O   0  0  0  0  0  0  0  0  0  0  0  0
  -23.0440  -27.2360   28.4510 H   0  0  0  0  0  0  0  0  0  0  0  0
  -21.5580  -29.3230   30.6810 C   0  0  0  0  0  1  0  0  0  0  0  0
  -22.5910  -28.1910   30.8130 C   0  0  0  0  0  3  0  0  0  0  0  0
  -23.8310  -26.8520   32.4470 C   0  0  0  0  0  1  0  0  0  0  0  0
  -22.9830  -28.0140   32.2230 N   0  0  0  0  0  0  0  0  0  0  0  0
  -22.1660  -27.9300   32.8140 H   0  0  0  0  0  0  0  0  0  0  0  0
  -25.2710  -26.0510   19.7950 C   0  0  0  0  0  0  0  0  0  0  0  0
  -25.3020  -25.4500   18.6270 N   0  0  0  0  0  0  0  0  0  0  0  0
  -24.9640  -27.2160   20.0650 O   0  0  0  0  0  0  0  0  0  0  0  0
  -25.3970  -24.4860   18.8500 H   0  0  0  0  0  0  0  0  0  0  0  0
  -25.1980  -25.6260   17.2010 C   0  0  0  0  0  2  0  0  0  0  0  0
  -26.6680  -25.3800   16.6620 C   0  0  0  0  0  0  0  0  0  0  0  0
  -27.7450  -25.3520   17.5440 N   0  0  0  0  0  0  0  0  0  0  0  0
  -26.8000  -25.2380   15.4600 O   0  0  0  0  0  0  0  0  0  0  0  0
  -27.6030  -25.6080   18.4940 H   0  0  0  0  0  0  0  0  0  0  0  0
  -32.3830  -24.4830   19.6910 C   0  0  0  0  0  0  0  0  0  0  0  0
  -30.4340  -27.2080   17.6040 C   0  0  0  0  0  2  0  0  0  0  0  0
  -29.7900  -26.3320   16.5750 C   0  0  0  0  0  2  0  0  0  0  0  0
  -31.6510  -26.4760   18.1070 C   0  0  0  0  0  2  0  0  0  0  0  0
  -30.0940  -24.6340   18.5360 C   0  0  0  0  0  2  0  0  0  0  0  0
  -29.2030  -25.0930   17.2680 C   0  0  0  0  0  3  0  0  0  0  0  0
  -31.4820  -25.1830   18.8710 N   0  0  0  0  0  0  0  0  0  0  0  0
  -32.0010  -23.3580   20.0380 O   0  0  0  0  0  0  0  0  0  0  0  0
  -33.8060  -25.0030   20.3860 C   0  0  0  0  0  3  0  0  0  0  0  0
  -36.4230  -23.9950   20.8900 C   0  0  0  0  0  0  0  0  0  0  0  0
  -38.6370  -23.7570   19.7730 C   0  0  0  0  0  2  0  0  0  0  0  0
  -38.6550  -24.8710   18.6910 C   0  0  0  0  0  2  0  0  0  0  0  0
  -37.8810  -24.4480   17.4190 C   0  0  0  0  0  2  0  0  0  0  0  0
  -36.5300  -23.7720   17.7700 C   0  0  0  0  0  3  0  0  0  0  0  0
  -36.7100  -22.6710   18.8380 C   0  0  0  0  0  2  0  0  0  0  0  0
  -37.2430  -23.3520   20.0180 N   0  0  0  0  0  0  0  0  0  0  0  0
  -36.9250  -24.4600   21.9600 O   0  0  0  0  0  0  0  0  0  0  0  0
  -35.1970  -24.3730   20.3680 N   0  0  0  0  0  0  0  0  0  0  0  0
  -35.3780  -25.0890   21.0670 H   0  0  0  0  0  0  0  0  0  0  0  0
  -34.9060  -23.8230   15.8170 C   0  0  0  0  0  0  0  0  0  0  0  0
  -34.5820  -22.8930   14.8780 C   0  0  0  0  0  0  0  0  0  0  0  0
  -35.3160  -21.7250   15.2340 C   0  0  0  0  0  0  0  0  0  0  0  0
  -35.8340  -23.2190   16.6360 N   0  0  0  0  0  0  0  0  0  0  0  0
  -36.0230  -21.9230   16.3290 N   0  0  0  0  0  0  0  0  0  0  0  0
  -35.4730  -20.4470   14.5510 C   0  0  0  0  0  0  0  0  0  0  0  0
  -34.8890  -19.2600   15.0510 C   0  0  0  0  0  3  0  0  0  0  0  0
  -35.0630  -18.0390   14.3640 C   0  0  0  0  0  3  0  0  0  0  0  0
  -35.8250  -18.0010   13.1770 C   0  0  0  0  0  0  0  0  0  0  0  0
  -36.4290  -19.1740   12.7040 C   0  0  0  0  0  3  0  0  0  0  0  0
  -36.2640  -20.3860   13.3890 C   0  0  0  0  0  3  0  0  0  0  0  0
  -36.0560  -16.8620   12.4610 O   0  0  0  0  0  0  0  0  0  0  0  0
  -35.0830  -15.9110   12.3010 C   0  0  0  0  0  0  0  0  0  0  0  0
  -33.9630  -16.1190   11.4660 C   0  0  0  0  0  3  0  0  0  0  0  0
  -33.0240  -15.0840   11.2790 C   0  0  0  0  0  3  0  0  0  0  0  0
  -33.2080  -13.8430   11.9170 C   0  0  0  0  0  0  0  0  0  0  0  0
  -34.3230  -13.6340   12.7460 C   0  0  0  0  0  3  0  0  0  0  0  0
  -35.2610  -14.6650   12.9330 C   0  0  0  0  0  0  0  0  0  0  0  0
  -36.3470  -14.4590   13.7180 F   0  0  0  0  0  0  0  0  0  0  0  0
  -32.3160  -12.8450   11.7300 F   0  0  0  0  0  0  0  0  0  0  0  0
  -33.7050  -23.0830   13.6710 C   0  0  0  0  0  0  0  0  0  0  0  0
  -32.8200  -22.1200   13.3940 N   0  0  0  0  0  0  0  0  0  0  0  0
  -33.7480  -24.1160   13.0040 O   0  0  0  0  0  0  0  0  0  0  0  0
  -32.7660  -21.2660   13.9420 H   0  0  0  0  0  0  0  0  0  0  0  0
  -32.1900  -22.2240   12.6060 H   0  0  0  0  0  0  0  0  0  0  0  0
  -34.5260  -25.1270   16.0390 N   0  0  0  0  0  0  0  0  0  0  0  0
  -33.7180  -25.5360   15.5820 H   0  0  0  0  0  0  0  0  0  0  0  0
  -34.7640  -25.5760   16.9130 H   0  0  0  0  0  0  0  0  0  0  0  0
  -32.9290  -27.1460   21.4690 C   0  0  0  0  0  1  0  0  0  0  0  0
  -35.0270  -27.4830   19.8660 C   0  0  0  0  0  1  0  0  0  0  0  0
  -33.9490  -26.5390   20.4760 C   0  0  0  0  0  3  0  0  0  0  0  0
  -24.3910  -24.1490   21.3330 C   0  0  0  0  0  2  0  0  0  0  0  0
  -22.8980  -24.1980   20.6680 C   0  0  0  0  0  3  0  0  0  0  0  0
  -22.5960  -23.7500   19.1800 C   0  0  0  0  0  3  0  0  0  0  0  0
  -21.1350  -23.4570   18.6830 C   0  0  0  0  0  2  0  0  0  0  0  0
  -19.7770  -24.6800   16.8100 C   0  0  0  0  0  0  0  0  0  0  0  0
  -19.0560  -25.7630   16.5130 N   0  0  0  0  0  0  0  0  0  0  0  0
  -19.8450  -23.7480   15.8480 N   0  0  0  0  0  4  0  0  0  0  0  0
  -20.3770  -24.5800   18.0380 N   0  0  0  0  0  0  0  0  0  0  0  0
  -18.5920  -25.8730   15.6220 H   0  0  0  0  0  0  0  0  0  0  0  0
  -18.8920  -26.4920   17.1890 H   0  0  0  0  0  0  0  0  0  0  0  0
  -19.3280  -23.8490   14.9810 H   0  0  0  0  0  0  0  0  0  0  0  0
  -20.2900  -22.8550   15.9970 H   0  0  0  0  0  0  0  0  0  0  0  0
  -20.0490  -25.2540   18.7200 H   0  0  0  0  0  0  0  0  0  0  0  0
  1107  1  0
  1  3  2  0
  2  3  1  0
  2  6  1  0
  3  5  1  0
  4  2  2  0
  7  6  1  0
  7  9  1  0
  9 14  1  0
 10 20  1  0
 10 18  1  0
 11 17  1  0
 11 13  1  0
 13 12  1  0
 14 13  2  0
 15 16  1  0
 15  9  2  0
 16 11  2  0
 17 10  1  0
 18 12  1  0
 18  8  1  0
 19  8  2  0
 21 20  1  0
 22 20  2  0
 23 21  1  0
 24 33  2  0
 24 29  1  0
 25 29  1  0
 25 21  1  0
 26 25  1  0
 27 26  1  0
 28 27  1  0
 28 24  1  0
 29 30  2  0
 30 31  1  0
 32 31  2  0
 33 32  1  0
 34  8  1  0
 34 39  1  0
 35 37  1  6
 35 34  1  0
 35 38  1  0
 36 35  1  0
 39 40  1  0
 40 41  2  0
 40 44  1  0
 42 39  1  0
 44 43  1  0
 44 46  1  0
 46 45  1  0
 46 47  1  0
 48 50  2  0
 48  1  1  0
 49 51  1  0
 49 48  1  0
 52 49  1  0
 53 52  1  0
 53 54  1  0
 54 56  1  0
 55 53  2  0
 57 64  2  0
 58 60  1  0
 59 62  1  0
 59 58  1  0
 60 63  1  0
 61 63  1  0
 62 54  1  0
 62 61  1  0
 63 57  1  0
 65 57  1  0
 65106  1  0
 66 73  2  0
 67 72  1  0
 68 67  1  0
 69 70  1  0
 69 68  1  0
 70 79  1  0
 70 71  1  0
 71 72  1  0
 72 66  1  0
 74 65  1  0
 74 66  1  0
 74 75  1  0
 76101  1  0
 76 79  1  0
 77 78  1  0
 77 76  2  0
 78 80  2  0
 80 79  1  0
 81 82  1  0
 81 78  1  0
 83 82  2  0
 84 83  1  0
 85 84  2  0
 85 86  1  0
 86 81  2  0
 87 84  1  0
 88 87  1  0
 88 93  1  0
 89 88  2  0
 90 89  1  0
 90 91  2  0
 91 92  1  0
 92 93  2  0
 93 94  1  0
 95 91  1  0
 96 77  1  0
 97 96  1  0
 97 99  1  0
 98 96  2  0
100 97  1  0
101103  1  0
102101  1  0
105106  1  0
106104  1  0
108107  1  0
109108  2  0
110109  1  0
111114  1  0
112111  1  0
112116  1  0
113118  1  0
113111  2  0
114110  1  0
114119  1  0
115112  1  0
117113  1  0
M  ISO  4   6 101   7 101  66 100  74 100
M  END
>  <TORSDO>  (21) 
F 29

>  <SCORE>  (21) 
-4.925

>  <name>  (21) 
21

>  <ligand_id>  (21) 
21

>  <original_smiles>  (21) 
[H]c1c([H])c([H])c2c(c1[H])C([H])([H])C([H])([H])C([H])([H])C2([H])N([H])C(=O)C1([H])N(C(=O)C([H])(N([H])C(=O)C([H])(N([H])C([H])([H])[H])C([H])([H])[H])C(C([H])([H])[H])(C([H])([H])[H])C([H])([H])[H])C([H])([H])c2c([H])c(OC([H])([H])C(=O)N([H])C([H])(C(=O)N([H])C([H])([H])C(=O)N([H])C3([H])C([H])([H])N(C(=O)C([H])(N([H])C(=O)N4C([H])([H])C([H])([H])C([H])([H])C([H])(n5nc(-c6c([H])c([H])c(Oc7c([H])c([H])c(F)c([H])c7F)c([H])c6[H])c(C(=O)N([H])[H])c5N([H])[H])C4([H])[H])C([H])(C([H])([H])[H])C([H])([H])[H])C([H])([H])C([H])([H])C3([H])[H])C([H])([H])C([H])([H])C([H])([H])C([H])([H])N([H])C(N([H])[H])=[N+]([H])[H])c([H])c([H])c2C1([H])[H]

>  <smiles>  (21) 
[H]c1c([H])c([H])c2c(c1[H])C([H])([H])C([H])([H])C([H])([H])C2([H])N([H])C(=O)C1([H])N(C(=O)C([H])(N([H])C(=O)C([H])(N([H])C([H])([H])[H])C([H])([H])[H])C(C([H])([H])[H])(C([H])([H])[H])C([H])([H])[H])C([H])([H])c2c([H])c(OC([H])([H])C(=O)N([H])C([H])(C(=O)N([H])C([H])([H])C(=O)N([H])C3([H])C([H])([H])N(C(=O)C([H])(N([H])C(=O)N4C([H])([H])C([H])([H])C([H])([H])C([H])(n5nc(-c6c([H])c([H])c(Oc7c([H])c([H])c(F)c([H])c7F)c([H])c6[H])c(C(=O)N([H])[H])c5N([H])[H])C4([H])[H])C([H])(C([H])([H])[H])C([H])([H])[H])C([H])([H])C([H])([H])C3([H])[H])C([H])([H])C([H])([H])C([H])([H])C([H])([H])N([H])C(N([H])[H])=[N+]([H])[H])c([H])c([H])c2C1([H])[H]

$$$$
22:0:0
     RDKit          3D

 88 95  0  0  1  0  0  0  0  0999 V2000
  -28.5050  -21.5810   20.2350 C   0  0  0  0  0  2  0  0  0  0  0  0
  -29.0640  -18.8730   20.3780 C   0  0  0  0  0  0  0  0  0  0  0  0
  -29.4150  -20.2620   20.3520 N   0  0  0  0  0  0  0  0  0  0  0  0
  -29.9980  -17.7960   20.4080 N   0  0  0  0  0  0  0  0  0  0  0  0
  -27.8710  -18.5710   20.3680 O   0  0  0  0  0  0  0  0  0  0  0  0
  -30.4110  -20.4360   20.3760 H   0  0  0  0  0  0  0  0  0  0  0  0
  -31.0010  -17.9400   20.4020 H   0  0  0  0  0  0  0  0  0  0  0  0
  -30.4770  -15.0810   20.3230 C   0  0  0  0  0  0  0  0  0  0  0  0
  -30.4020  -12.7190   19.3720 C   0  0  0  0  0  2  0  0  0  0  0  0
  -29.4560  -12.6530   18.1480 C   0  0  0  0  0  2  0  0  0  0  0  0
  -28.0000  -12.4200   18.5920 C   0  0  0  0  0  2  0  0  0  0  0  0
  -27.5900  -13.3360   19.7740 C   0  0  0  0  0  3  0  0  0  0  0  0
  -28.6550  -13.3580   20.8910 C   0  0  0  0  0  2  0  0  0  0  0  0
  -29.9120  -13.8030   20.2750 N   0  0  0  0  0  0  0  0  0  0  0  0
  -31.6770  -15.1760   20.0370 O   0  0  0  0  0  0  0  0  0  0  0  0
  -29.6600  -16.2440   20.4950 N   0  0  0  0  0  0  0  0  0  0  0  0
  -28.6690  -16.1370   20.6690 H   0  0  0  0  0  0  0  0  0  0  0  0
  -25.2120  -13.8910   20.5370 C   0  0  0  0  0  0  0  0  0  0  0  0
  -24.1570  -13.1050   20.9090 C   0  0  0  0  0  0  0  0  0  0  0  0
  -24.6310  -11.7580   20.8640 C   0  0  0  0  0  0  0  0  0  0  0  0
  -26.2600  -13.0230   20.2820 N   0  0  0  0  0  0  0  0  0  0  0  0
  -25.9200  -11.7340   20.5440 N   0  0  0  0  0  0  0  0  0  0  0  0
  -23.9140  -10.4900   21.0490 C   0  0  0  0  0  0  0  0  0  0  0  0
  -24.3490   -9.5230   21.9820 C   0  0  0  0  0  3  0  0  0  0  0  0
  -23.6290   -8.3210   22.1540 C   0  0  0  0  0  3  0  0  0  0  0  0
  -22.4610   -8.0770   21.3940 C   0  0  0  0  0  0  0  0  0  0  0  0
  -22.0450   -9.0330   20.4510 C   0  0  0  0  0  3  0  0  0  0  0  0
  -22.7650  -10.2260   20.2760 C   0  0  0  0  0  3  0  0  0  0  0  0
  -21.7130   -6.9270   21.4770 O   0  0  0  0  0  0  0  0  0  0  0  0
  -21.6530   -6.1900   22.6320 C   0  0  0  0  0  0  0  0  0  0  0  0
  -21.1740   -6.7370   23.8420 C   0  0  0  0  0  3  0  0  0  0  0  0
  -21.0630   -5.9240   24.9870 C   0  0  0  0  0  3  0  0  0  0  0  0
  -21.4200   -4.5650   24.9250 C   0  0  0  0  0  0  0  0  0  0  0  0
  -21.8920   -4.0160   23.7190 C   0  0  0  0  0  3  0  0  0  0  0  0
  -22.0040   -4.8260   22.5750 C   0  0  0  0  0  0  0  0  0  0  0  0
  -22.4400   -4.2870   21.4110 F   0  0  0  0  0  0  0  0  0  0  0  0
  -21.3070   -3.7810   26.0230 F   0  0  0  0  0  0  0  0  0  0  0  0
  -22.7580  -13.5710   21.1900 C   0  0  0  0  0  0  0  0  0  0  0  0
  -22.0410  -12.8680   22.0580 N   0  0  0  0  0  0  0  0  0  0  0  0
  -22.3100  -14.5950   20.6760 O   0  0  0  0  0  0  0  0  0  0  0  0
  -22.4160  -12.0400   22.4970 H   0  0  0  0  0  0  0  0  0  0  0  0
  -21.1020  -13.1620   22.2900 H   0  0  0  0  0  0  0  0  0  0  0  0
  -25.3610  -15.2650   20.3680 N   0  0  0  0  0  0  0  0  0  0  0  0
  -24.5840  -15.9050   20.4920 H   0  0  0  0  0  0  0  0  0  0  0  0
  -26.1910  -15.7220   20.0130 H   0  0  0  0  0  0  0  0  0  0  0  0
  -28.9590  -23.2330   20.3650 C   0  0  0  0  0  3  0  0  0  0  0  0
  -27.9440  -24.6020   20.1470 C   0  0  0  0  0  3  0  0  0  0  0  0
  -28.2270  -26.1490   20.3020 O   0  0  0  0  0  0  0  0  0  0  0  0
  -24.6460  -31.9270   23.2700 C   0  0  0  0  0  0  0  0  0  0  0  0
  -27.1820  -27.1600   20.2400 C   0  0  0  0  0  0  0  0  0  0  0  0
  -23.4320  -30.5340   21.6410 C   0  0  0  0  0  3  0  0  0  0  0  0
  -24.8660  -28.9440   20.2130 C   0  0  0  0  0  0  0  0  0  0  0  0
  -25.9900  -30.7760   21.4650 C   0  0  0  0  0  2  0  0  0  0  0  0
  -26.0530  -29.3790   20.8150 C   0  0  0  0  0  0  0  0  0  0  0  0
  -27.2110  -28.5050   20.8080 C   0  0  0  0  0  3  0  0  0  0  0  0
  -25.9660  -26.8370   19.5990 C   0  0  0  0  0  3  0  0  0  0  0  0
  -24.8380  -27.6880   19.5880 C   0  0  0  0  0  3  0  0  0  0  0  0
  -23.6440  -29.8510   20.2630 C   0  0  0  0  0  2  0  0  0  0  0  0
  -24.7110  -31.1020   22.1800 N   0  0  0  0  0  0  0  0  0  0  0  0
  -23.5640  -32.2190   23.8010 O   0  0  0  0  0  0  0  0  0  0  0  0
  -22.7500  -29.5350   22.6100 C   0  0  0  0  0  0  0  0  0  0  0  0
  -21.4230  -29.3620   22.4830 N   0  0  0  0  0  0  0  0  0  0  0  0
  -23.4200  -28.9160   23.4410 O   0  0  0  0  0  0  0  0  0  0  0  0
  -20.9380  -29.9130   21.7890 H   0  0  0  0  0  0  0  0  0  0  0  0
  -18.0430  -28.1550   22.9880 C   0  0  0  0  0  0  0  0  0  0  0  0
  -20.6010  -28.4300   23.2600 C   0  0  0  0  0  3  0  0  0  0  0  0
  -20.7080  -26.9930   22.7000 C   0  0  0  0  0  2  0  0  0  0  0  0
  -19.6110  -26.6560   21.6850 C   0  0  0  0  0  2  0  0  0  0  0  0
  -18.2270  -26.8020   22.3230 C   0  0  0  0  0  2  0  0  0  0  0  0
  -19.1570  -28.9260   23.4130 C   0  0  0  0  0  0  0  0  0  0  0  0
  -18.9290  -30.1920   23.9970 C   0  0  0  0  0  3  0  0  0  0  0  0
  -17.6220  -30.6870   24.1570 C   0  0  0  0  0  3  0  0  0  0  0  0
  -16.5220  -29.9140   23.7460 C   0  0  0  0  0  3  0  0  0  0  0  0
  -16.7330  -28.6500   23.1670 C   0  0  0  0  0  3  0  0  0  0  0  0
  -25.9290  -32.5600   23.8900 C   0  0  0  0  0  3  0  0  0  0  0  0
  -26.4420  -31.7910   25.1690 C   0  0  1  0  0  0  0  0  0  0  0  0
  -25.3490  -31.5590   26.2390 C   0  0  0  0  0  1  0  0  0  0  0  0
  -27.0230  -30.4110   24.7860 C   0  0  0  0  0  1  0  0  0  0  0  0
  -27.5950  -32.5850   25.8290 C   0  0  0  0  0  1  0  0  0  0  0  0
  -25.6220  -33.9610   24.2250 N   0  0  0  0  0  0  0  0  0  0  0  0
  -25.9300  -35.0160   23.4600 C   0  0  0  0  0  0  0  0  0  0  0  0
  -26.5680  -34.9130   22.4080 O   0  0  0  0  0  0  0  0  0  0  0  0
  -25.0510  -34.1130   25.0430 H   0  0  0  0  0  0  0  0  0  0  0  0
  -24.1810  -36.8050   23.1750 C   0  0  0  0  0  1  0  0  0  0  0  0
  -25.4580  -36.4060   23.9330 C   0  0  0  0  0  3  0  0  0  0  0  0
  -27.6170  -37.3080   24.6750 C   0  0  0  0  0  1  0  0  0  0  0  0
  -26.4800  -37.4620   23.7730 N   0  0  0  0  0  0  0  0  0  0  0  0
  -26.0760  -38.3820   23.9270 H   0  0  0  0  0  0  0  0  0  0  0  0
  1  3  1  0
  1 46  1  0
  2  4  1  0
  3  6  1  0
  3  2  1  0
  4 16  1  0
  5  2  2  0
  7  4  1  0
  8 16  1  0
  9 14  1  0
 10 11  1  0
 10  9  1  0
 12 11  1  0
 12 21  1  0
 12 13  1  0
 14  8  1  0
 14 13  1  0
 15  8  2  0
 16 17  1  0
 18 19  2  0
 19 38  1  0
 20 19  1  0
 20 23  1  0
 21 18  1  0
 21 22  1  0
 22 20  2  0
 23 24  1  0
 24 25  2  0
 26 29  1  0
 26 25  1  0
 27 26  2  0
 28 27  1  0
 28 23  2  0
 29 30  1  0
 30 31  1  0
 31 32  2  0
 33 32  1  0
 33 37  1  0
 34 33  2  0
 35 30  2  0
 35 34  1  0
 36 35  1  0
 38 39  1  0
 39 42  1  0
 39 41  1  0
 40 38  2  0
 43 44  1  0
 43 18  1  0
 45 43  1  0
 47 48  1  0
 47 46  2  0
 49 60  2  0
 50 48  1  0
 50 55  1  0
 51 59  1  0
 51 61  1  0
 52 58  1  0
 52 54  1  0
 53 59  1  0
 54 53  1  0
 55 54  2  0
 56 50  2  0
 57 56  1  0
 57 52  2  0
 58 51  1  0
 59 49  1  0
 61 63  2  0
 62 61  1  0
 64 62  1  0
 65 74  2  0
 65 70  1  0
 66 62  1  0
 66 70  1  0
 67 66  1  0
 68 69  1  0
 68 67  1  0
 69 65  1  0
 70 71  2  0
 71 72  1  0
 73 72  2  0
 74 73  1  0
 75 49  1  0
 75 80  1  0
 75 76  1  0
 76 79  1  1
 76 77  1  0
 78 76  1  0
 80 83  1  0
 81 85  1  0
 81 80  1  0
 82 81  2  0
 85 84  1  0
 87 88  1  0
 87 85  1  0
 87 86  1  0
M  ISO  4   8 100  16 100  47 101  48 101
M  END
>  <TORSDO>  (22) 
F 19

>  <SCORE>  (22) 
-15.403

>  <name>  (22) 
22

>  <ligand_id>  (22) 
22

>  <original_smiles>  (22) 
[H]c1c([H])c([H])c2c(c1[H])C([H])([H])C([H])([H])C([H])([H])C2([H])N([H])C(=O)C1([H])N(C(=O)C([H])(N([H])C(=O)C([H])(N([H])C([H])([H])[H])C([H])([H])[H])C(C([H])([H])[H])(C([H])([H])[H])C([H])([H])[H])C([H])([H])c2c([H])c(OC([H])([H])C([H])([H])C([H])([H])N([H])C(=O)N([H])N([H])C(=O)N3C([H])([H])C([H])([H])C([H])([H])C([H])(n4nc(-c5c([H])c([H])c(Oc6c([H])c([H])c(F)c([H])c6F)c([H])c5[H])c(C(=O)N([H])[H])c4N([H])[H])C3([H])[H])c([H])c([H])c2C1([H])[H]

>  <smiles>  (22) 
[H]c1c([H])c([H])c2c(c1[H])C([H])([H])C([H])([H])C([H])([H])C2([H])N([H])C(=O)C1([H])N(C(=O)C([H])(N([H])C(=O)C([H])(N([H])C([H])([H])[H])C([H])([H])[H])C(C([H])([H])[H])(C([H])([H])[H])C([H])([H])[H])C([H])([H])c2c([H])c(OC([H])([H])C([H])([H])C([H])([H])N([H])C(=O)N([H])N([H])C(=O)N3C([H])([H])C([H])([H])C([H])([H])C([H])(n4nc(-c5c([H])c([H])c(Oc6c([H])c([H])c(F)c([H])c6F)c([H])c5[H])c(C(=O)N([H])[H])c4N([H])[H])C3([H])[H])c([H])c([H])c2C1([H])[H]

$$$$
23:0:0
     RDKit          3D

109117  0  0  1  0  0  0  0  0999 V2000
  -28.5400  -22.3950   22.2500 C   0  0  0  0  0  0  0  0  0  0  0  0
  -29.6780  -22.7580   22.8510 N   0  0  0  0  0  0  0  0  0  0  0  0
  -27.4720  -22.2870   22.8570 O   0  0  0  0  0  0  0  0  0  0  0  0
  -30.4980  -22.8380   22.2680 H   0  0  0  0  0  0  0  0  0  0  0  0
  -27.8240  -24.0470   19.5870 C   0  0  0  0  0  0  0  0  0  0  0  0
  -26.7940  -20.5470   20.2820 C   0  0  0  0  0  2  0  0  0  0  0  0
  -28.2970  -20.5500   20.5350 C   0  0  0  0  0  2  0  0  0  0  0  0
  -26.5300  -21.8900   19.5900 C   0  0  0  0  0  2  0  0  0  0  0  0
  -28.6460  -22.0320   20.7560 C   0  0  0  0  0  3  0  0  0  0  0  0
  -27.6570  -22.7570   19.9510 N   0  0  0  0  0  0  0  0  0  0  0  0
  -28.8530  -24.6760   19.8620 O   0  0  0  0  0  0  0  0  0  0  0  0
  -26.7040  -24.7740   18.8290 C   0  0  0  0  0  2  0  0  0  0  0  0
  -26.8250  -26.2270   18.9840 N   0  0  0  0  0  0  0  0  0  0  0  0
  -27.7460  -26.5560   18.7130 H   0  0  0  0  0  0  0  0  0  0  0  0
  -25.8870  -26.8040   18.0670 O   0  0  0  0  0  0  0  0  0  0  0  0
  -25.0190  -30.6900   23.9410 C   0  0  0  0  0  0  0  0  0  0  0  0
  -25.0800  -27.6510   18.7720 C   0  0  0  0  0  0  0  0  0  0  0  0
  -23.0020  -30.3910   22.5350 C   0  0  0  0  0  3  0  0  0  0  0  0
  -23.4030  -29.3790   20.2280 C   0  0  0  0  0  0  0  0  0  0  0  0
  -25.3360  -30.3320   21.5000 C   0  0  0  0  0  2  0  0  0  0  0  0
  -24.7840  -29.3840   20.4590 C   0  0  0  0  0  0  0  0  0  0  0  0
  -25.6300  -28.5210   19.7340 C   0  0  0  0  0  3  0  0  0  0  0  0
  -23.6890  -27.6440   18.5460 C   0  0  0  0  0  3  0  0  0  0  0  0
  -22.8460  -28.5060   19.2740 C   0  0  0  0  0  3  0  0  0  0  0  0
  -22.5730  -30.3450   21.0430 C   0  0  0  0  0  2  0  0  0  0  0  0
  -24.4890  -30.4550   22.7070 N   0  0  0  0  0  0  0  0  0  0  0  0
  -24.2900  -30.8990   24.9190 O   0  0  0  0  0  0  0  0  0  0  0  0
  -22.3510  -29.1990   23.2700 C   0  0  0  0  0  0  0  0  0  0  0  0
  -21.1550  -28.7970   22.8150 N   0  0  0  0  0  0  0  0  0  0  0  0
  -22.9300  -28.6420   24.2080 O   0  0  0  0  0  0  0  0  0  0  0  0
  -20.7430  -29.3100   22.0470 H   0  0  0  0  0  0  0  0  0  0  0  0
  -18.4690  -26.5190   22.0140 C   0  0  0  0  0  0  0  0  0  0  0  0
  -20.3720  -27.6720   23.3260 C   0  0  0  0  0  3  0  0  0  0  0  0
  -21.1450  -26.3420   23.1750 C   0  0  0  0  0  2  0  0  0  0  0  0
  -20.8220  -25.6030   21.8720 C   0  0  0  0  0  2  0  0  0  0  0  0
  -19.3260  -25.2850   21.7910 C   0  0  0  0  0  2  0  0  0  0  0  0
  -18.9660  -27.6460   22.7220 C   0  0  0  0  0  0  0  0  0  0  0  0
  -18.1380  -28.7800   22.8700 C   0  0  0  0  0  3  0  0  0  0  0  0
  -16.8390  -28.8000   22.3310 C   0  0  0  0  0  3  0  0  0  0  0  0
  -16.3470  -27.6760   21.6440 C   0  0  0  0  0  3  0  0  0  0  0  0
  -17.1580  -26.5390   21.4910 C   0  0  0  0  0  3  0  0  0  0  0  0
  -26.5610  -30.7330   24.1750 C   0  0  0  0  0  3  0  0  0  0  0  0
  -26.8540  -31.9300   24.9730 N   0  0  0  0  0  0  0  0  0  0  0  0
  -27.4890  -33.0160   24.5090 C   0  0  0  0  0  0  0  0  0  0  0  0
  -27.9590  -33.0810   23.3700 O   0  0  0  0  0  0  0  0  0  0  0  0
  -26.4500  -31.9680   25.8970 H   0  0  0  0  0  0  0  0  0  0  0  0
  -26.6520  -35.3280   25.0280 C   0  0  0  0  0  1  0  0  0  0  0  0
  -27.6230  -34.2180   25.4610 C   0  0  0  0  0  3  0  0  0  0  0  0
  -29.9410  -33.8560   26.1850 C   0  0  0  0  0  1  0  0  0  0  0  0
  -28.9980  -34.7600   25.5330 N   0  0  0  0  0  0  0  0  0  0  0  0
  -29.0110  -35.6460   26.0320 H   0  0  0  0  0  0  0  0  0  0  0  0
  -27.1210  -29.4380   24.8830 C   0  0  1  0  0  0  0  0  0  0  0  0
  -26.3050  -29.0090   26.1250 C   0  0  0  0  0  1  0  0  0  0  0  0
  -27.1470  -28.2460   23.8980 C   0  0  0  0  0  1  0  0  0  0  0  0
  -28.5830  -29.6750   25.3280 C   0  0  0  0  0  1  0  0  0  0  0  0
  -29.8970  -22.7000   24.3000 C   0  0  0  0  0  3  0  0  0  0  0  0
  -30.5900  -21.3470   24.5630 C   0  0  0  0  0  0  0  0  0  0  0  0
  -31.2550  -20.8150   23.5330 N   0  0  0  0  0  0  0  0  0  0  0  0
  -30.4390  -20.7570   25.6330 O   0  0  0  0  0  0  0  0  0  0  0  0
  -31.3820  -21.3890   22.7100 H   0  0  0  0  0  0  0  0  0  0  0  0
  -31.5950  -19.4170   23.3400 C   0  0  0  0  0  2  0  0  0  0  0  0
  -31.9910  -19.3300   21.8680 C   0  0  0  0  0  0  0  0  0  0  0  0
  -31.1520  -18.7080   21.0320 N   0  0  0  0  0  0  0  0  0  0  0  0
  -33.0110  -19.8990   21.4780 O   0  0  0  0  0  0  0  0  0  0  0  0
  -30.3180  -18.2950   21.4260 H   0  0  0  0  0  0  0  0  0  0  0  0
  -31.2680  -18.7460   19.5720 C   0  0  0  0  0  2  0  0  0  0  0  0
  -30.5660  -17.5550   18.9120 C   0  0  0  0  0  2  0  0  0  0  0  0
  -31.0570  -15.6030   20.3660 C   0  0  0  0  0  0  0  0  0  0  0  0
  -31.3030  -13.6370   21.8310 C   0  0  0  0  0  2  0  0  0  0  0  0
  -31.0230  -12.3300   21.0690 C   0  0  0  0  0  2  0  0  0  0  0  0
  -29.5170  -12.0100   21.0530 C   0  0  0  0  0  2  0  0  0  0  0  0
  -28.6400  -13.2200   20.6350 C   0  0  0  0  0  3  0  0  0  0  0  0
  -29.0520  -14.4850   21.4220 C   0  0  0  0  0  2  0  0  0  0  0  0
  -30.5000  -14.7130   21.2250 N   0  0  0  0  0  0  0  0  0  0  0  0
  -32.2470  -15.5820   20.0340 O   0  0  0  0  0  0  0  0  0  0  0  0
  -30.2350  -16.5530   19.9180 N   0  0  0  0  0  0  0  0  0  0  0  0
  -29.2910  -16.5610   20.2690 H   0  0  0  0  0  0  0  0  0  0  0  0
  -26.1110  -13.7530   20.6330 C   0  0  0  0  0  0  0  0  0  0  0  0
  -25.0070  -12.9610   20.8130 C   0  0  0  0  0  0  0  0  0  0  0  0
  -25.5060  -11.6450   21.0580 C   0  0  0  0  0  0  0  0  0  0  0  0
  -27.2120  -12.9230   20.7800 N   0  0  0  0  0  0  0  0  0  0  0  0
  -26.8320  -11.6530   21.0840 N   0  0  0  0  0  0  0  0  0  0  0  0
  -24.7960  -10.3680   21.2100 C   0  0  0  0  0  0  0  0  0  0  0  0
  -24.9680   -9.5650   22.3580 C   0  0  0  0  0  3  0  0  0  0  0  0
  -24.2650   -8.3510   22.4940 C   0  0  0  0  0  3  0  0  0  0  0  0
  -23.3690   -7.9320   21.4830 C   0  0  0  0  0  0  0  0  0  0  0  0
  -23.2150   -8.7270   20.3340 C   0  0  0  0  0  3  0  0  0  0  0  0
  -23.9230   -9.9320   20.1940 C   0  0  0  0  0  3  0  0  0  0  0  0
  -22.6600   -6.7560   21.5200 O   0  0  0  0  0  0  0  0  0  0  0  0
  -22.1210   -6.2770   22.6870 C   0  0  0  0  0  0  0  0  0  0  0  0
  -21.1750   -7.0140   23.4320 C   0  0  0  0  0  3  0  0  0  0  0  0
  -20.5890   -6.4490   24.5820 C   0  0  0  0  0  3  0  0  0  0  0  0
  -20.9400   -5.1470   24.9840 C   0  0  0  0  0  0  0  0  0  0  0  0
  -21.8800   -4.4110   24.2420 C   0  0  0  0  0  3  0  0  0  0  0  0
  -22.4660   -4.9720   23.0950 C   0  0  0  0  0  0  0  0  0  0  0  0
  -23.3530   -4.2470   22.3720 F   0  0  0  0  0  0  0  0  0  0  0  0
  -20.3760   -4.6020   26.0860 F   0  0  0  0  0  0  0  0  0  0  0  0
  -23.5710  -13.3770   20.6680 C   0  0  0  0  0  0  0  0  0  0  0  0
  -22.6670  -12.7380   21.4010 N   0  0  0  0  0  0  0  0  0  0  0  0
  -23.2460  -14.3070   19.9330 O   0  0  0  0  0  0  0  0  0  0  0  0
  -22.9310  -11.9950   22.0320 H   0  0  0  0  0  0  0  0  0  0  0  0
  -21.6960  -13.0090   21.3370 H   0  0  0  0  0  0  0  0  0  0  0  0
  -26.2630  -15.1050   20.3380 N   0  0  0  0  0  0  0  0  0  0  0  0
  -25.4570  -15.6830   20.1170 H   0  0  0  0  0  0  0  0  0  0  0  0
  -27.1400  -15.5430   20.0900 H   0  0  0  0  0  0  0  0  0  0  0  0
  -30.8290  -23.8570   24.7410 C   0  0  0  0  0  2  0  0  0  0  0  0
  -31.2250  -26.3400   25.0210 C   0  0  0  0  0  1  0  0  0  0  0  0
  -28.8760  -25.5100   24.5350 C   0  0  0  0  0  1  0  0  0  0  0  0
  -30.3790  -25.2710   24.3040 C   0  0  0  0  0  3  0  0  0  0  0  0
  1  2  1  0
  1  3  2  0
  2 56  1  0
  4  2  1  0
  5 11  2  0
  5 10  1  0
  6  7  1  0
  7  9  1  0
  8 10  1  0
  8  6  1  0
  9  1  1  0
 10  9  1  0
 12 13  1  0
 12  5  1  0
 14 13  1  0
 15 17  1  0
 15 13  1  0
 16 27  2  0
 17 22  1  0
 18 26  1  0
 18 28  1  0
 19 21  1  0
 19 25  1  0
 20 26  1  0
 21 20  1  0
 22 21  2  0
 23 17  2  0
 23 24  1  0
 24 19  2  0
 25 18  1  0
 26 16  1  0
 28 30  2  0
 29 28  1  0
 31 29  1  0
 32 37  1  0
 33 29  1  0
 34 33  1  0
 35 34  1  0
 36 35  1  0
 36 32  1  0
 37 38  2  0
 37 33  1  0
 39 38  1  0
 40 39  2  0
 41 40  1  0
 41 32  2  0
 42 16  1  0
 42 52  1  0
 42 43  1  0
 43 46  1  0
 44 43  1  0
 44 48  1  0
 45 44  2  0
 48 47  1  0
 48 50  1  0
 50 51  1  0
 50 49  1  0
 52 55  1  1
 52 53  1  0
 54 52  1  0
 56 57  1  0
 56106  1  0
 57 59  2  0
 58 57  1  0
 60 58  1  0
 61 58  1  0
 62 61  1  0
 63 65  1  0
 63 62  1  0
 64 62  2  0
 66 63  1  0
 67 66  1  0
 67 76  1  0
 68 74  1  0
 70 69  1  0
 71 70  1  0
 72 81  1  0
 72 71  1  0
 72 73  1  0
 74 73  1  0
 74 69  1  0
 75 68  2  0
 76 77  1  0
 76 68  1  0
 78 81  1  0
 78 79  2  0
 79 80  1  0
 80 82  2  0
 80 83  1  0
 81 82  1  0
 83 84  1  0
 84 85  2  0
 86 89  1  0
 86 85  1  0
 87 86  2  0
 88 87  1  0
 88 83  2  0
 89 90  1  0
 90 95  2  0
 90 91  1  0
 91 92  2  0
 92 93  1  0
 93 97  1  0
 94 93  2  0
 95 94  1  0
 96 95  1  0
 98 79  1  0
 98 99  1  0
 99101  1  0
100 98  2  0
102 99  1  0
103 78  1  0
104103  1  0
105103  1  0
109108  1  0
109106  1  0
109107  1  0
M  ISO  4  13 101  15 101  68 100  76 100
M  END
>  <TORSDO>  (23) 
F 27

>  <SCORE>  (23) 
0.882

>  <name>  (23) 
23

>  <ligand_id>  (23) 
23

>  <original_smiles>  (23) 
[H]c1c([H])c([H])c2c(c1[H])C([H])([H])C([H])([H])C([H])([H])C2([H])N([H])C(=O)C1([H])N(C(=O)C([H])(N([H])C(=O)C([H])(N([H])C([H])([H])[H])C([H])([H])[H])C(C([H])([H])[H])(C([H])([H])[H])C([H])([H])[H])C([H])([H])c2c([H])c(ON([H])C([H])([H])C(=O)N3C([H])([H])C([H])([H])C([H])([H])C3([H])C(=O)N([H])C([H])(C(=O)N([H])C([H])([H])C(=O)N([H])C([H])([H])C([H])([H])N([H])C(=O)N3C([H])([H])C([H])([H])C([H])([H])C([H])(n4nc(-c5c([H])c([H])c(Oc6c([H])c([H])c(F)c([H])c6F)c([H])c5[H])c(C(=O)N([H])[H])c4N([H])[H])C3([H])[H])C([H])([H])C([H])(C([H])([H])[H])C([H])([H])[H])c([H])c([H])c2C1([H])[H]

>  <smiles>  (23) 
[H]c1c([H])c([H])c2c(c1[H])C([H])([H])C([H])([H])C([H])([H])C2([H])N([H])C(=O)C1([H])N(C(=O)C([H])(N([H])C(=O)C([H])(N([H])C([H])([H])[H])C([H])([H])[H])C(C([H])([H])[H])(C([H])([H])[H])C([H])([H])[H])C([H])([H])c2c([H])c(ON([H])C([H])([H])C(=O)N3C([H])([H])C([H])([H])C([H])([H])C3([H])C(=O)N([H])C([H])(C(=O)N([H])C([H])([H])C(=O)N([H])C([H])([H])C([H])([H])N([H])C(=O)N3C([H])([H])C([H])([H])C([H])([H])C([H])(n4nc(-c5c([H])c([H])c(Oc6c([H])c([H])c(F)c([H])c6F)c([H])c5[H])c(C(=O)N([H])[H])c4N([H])[H])C3([H])[H])C([H])([H])C([H])(C([H])([H])[H])C([H])([H])[H])c([H])c([H])c2C1([H])[H]

$$$$
24:0:0
     RDKit          3D

110118  0  0  1  0  0  0  0  0999 V2000
  -28.5200  -21.3770   18.5690 C   0  0  0  0  0  0  0  0  0  0  0  0
  -29.0890  -21.6220   19.7600 N   0  0  0  0  0  0  0  0  0  0  0  0
  -27.4980  -20.7010   18.4600 O   0  0  0  0  0  0  0  0  0  0  0  0
  -29.8470  -22.2870   19.7940 H   0  0  0  0  0  0  0  0  0  0  0  0
  -28.6820  -21.0020   21.0280 C   0  0  0  0  0  3  0  0  0  0  0  0
  -29.2400  -19.5640   21.1890 C   0  0  0  0  0  0  0  0  0  0  0  0
  -30.2670  -19.1820   20.4120 N   0  0  0  0  0  0  0  0  0  0  0  0
  -28.7100  -18.7880   21.9820 O   0  0  0  0  0  0  0  0  0  0  0  0
  -30.6390  -19.8940   19.7970 H   0  0  0  0  0  0  0  0  0  0  0  0
  -30.8780  -17.8450   20.3420 C   0  0  0  0  0  2  0  0  0  0  0  0
  -29.1840  -17.3700   18.4420 C   0  0  0  0  0  1  0  0  0  0  0  0
  -30.0370  -16.7610   19.5800 C   0  0  0  0  0  3  0  0  0  0  0  0
  -31.5530  -14.6720   19.4100 C   0  0  0  0  0  0  0  0  0  0  0  0
  -31.0330  -12.4540   18.5030 C   0  0  0  0  0  2  0  0  0  0  0  0
  -29.9970  -12.6270   17.3790 C   0  0  0  0  0  2  0  0  0  0  0  0
  -28.5600  -12.6230   17.9430 C   0  0  0  0  0  2  0  0  0  0  0  0
  -28.3900  -13.5440   19.1860 C   0  0  0  0  0  3  0  0  0  0  0  0
  -29.5430  -13.3700   20.1990 C   0  0  0  0  0  2  0  0  0  0  0  0
  -30.7970  -13.5450   19.4610 N   0  0  0  0  0  0  0  0  0  0  0  0
  -32.7420  -14.6480   19.0990 O   0  0  0  0  0  0  0  0  0  0  0  0
  -30.9150  -15.7640   18.9510 N   0  0  0  0  0  0  0  0  0  0  0  0
  -31.5230  -16.2220   18.2900 H   0  0  0  0  0  0  0  0  0  0  0  0
  -26.1770  -14.3370   20.2420 C   0  0  0  0  0  0  0  0  0  0  0  0
  -25.0790  -13.6460   20.6880 C   0  0  0  0  0  0  0  0  0  0  0  0
  -25.3810  -12.2620   20.5090 C   0  0  0  0  0  0  0  0  0  0  0  0
  -27.0810  -13.3720   19.8160 N   0  0  0  0  0  0  0  0  0  0  0  0
  -26.6130  -12.1160   20.0380 N   0  0  0  0  0  0  0  0  0  0  0  0
  -24.5390  -11.0720   20.7020 C   0  0  0  0  0  0  0  0  0  0  0  0
  -24.9480  -10.0140   21.5430 C   0  0  0  0  0  3  0  0  0  0  0  0
  -24.1200   -8.8860   21.7330 C   0  0  0  0  0  3  0  0  0  0  0  0
  -22.8670   -8.8110   21.0780 C   0  0  0  0  0  0  0  0  0  0  0  0
  -22.4770   -9.8530   20.2220 C   0  0  0  0  0  3  0  0  0  0  0  0
  -23.3040  -10.9720   20.0340 C   0  0  0  0  0  3  0  0  0  0  0  0
  -22.0100   -7.7410   21.1750 O   0  0  0  0  0  0  0  0  0  0  0  0
  -21.9110   -6.9960   22.3230 C   0  0  0  0  0  0  0  0  0  0  0  0
  -21.5860   -7.5810   23.5650 C   0  0  0  0  0  3  0  0  0  0  0  0
  -21.4330   -6.7740   24.7090 C   0  0  0  0  0  3  0  0  0  0  0  0
  -21.5850   -5.3770   24.6110 C   0  0  0  0  0  0  0  0  0  0  0  0
  -21.9010   -4.7890   23.3740 C   0  0  0  0  0  3  0  0  0  0  0  0
  -22.0610   -5.5970   22.2340 C   0  0  0  0  0  0  0  0  0  0  0  0
  -22.3480   -5.0220   21.0400 F   0  0  0  0  0  0  0  0  0  0  0  0
  -21.4300   -4.5980   25.7070 F   0  0  0  0  0  0  0  0  0  0  0  0
  -23.7800  -14.2410   21.1520 C   0  0  0  0  0  0  0  0  0  0  0  0
  -23.0910  -13.5750   22.0740 N   0  0  0  0  0  0  0  0  0  0  0  0
  -23.3840  -15.3270   20.7300 O   0  0  0  0  0  0  0  0  0  0  0  0
  -23.4010  -12.6770   22.4140 H   0  0  0  0  0  0  0  0  0  0  0  0
  -22.2330  -13.9670   22.4390 H   0  0  0  0  0  0  0  0  0  0  0  0
  -26.4540  -15.6970   20.1430 N   0  0  0  0  0  0  0  0  0  0  0  0
  -25.7600  -16.3790   20.4350 H   0  0  0  0  0  0  0  0  0  0  0  0
  -27.1770  -16.1050   19.5620 H   0  0  0  0  0  0  0  0  0  0  0  0
  -29.1820  -21.8750   22.2070 C   0  0  0  0  0  2  0  0  0  0  0  0
  -27.5350  -25.9000   22.4170 C   0  0  0  0  0  3  0  0  0  0  0  0
  -28.9130  -25.6910   22.6120 C   0  0  0  0  0  3  0  0  0  0  0  0
  -26.6860  -24.8030   22.1760 C   0  0  0  0  0  3  0  0  0  0  0  0
  -29.4470  -24.3890   22.5430 C   0  0  0  0  0  3  0  0  0  0  0  0
  -27.2180  -23.5010   22.1110 C   0  0  0  0  0  3  0  0  0  0  0  0
  -28.6040  -23.2870   22.2760 C   0  0  0  0  0  0  0  0  0  0  0  0
  -29.1870  -21.9360   17.3020 C   0  0  0  0  0  2  0  0  0  0  0  0
  -30.6860  -22.2900   17.4470 C   0  0  0  0  0  2  0  0  0  0  0  0
  -30.9280  -23.6610   18.1090 C   0  0  0  0  0  2  0  0  0  0  0  0
  -32.0790  -23.6650   19.1330 C   0  0  0  0  0  2  0  0  0  0  0  0
  -32.3660  -25.0440   19.7630 C   0  0  0  0  0  2  0  0  0  0  0  0
  -30.6160  -26.8180   19.3990 C   0  0  0  0  0  0  0  0  0  0  0  0
  -31.2020  -27.3200   18.3020 N   0  0  0  0  0  4  0  0  0  0  0  0
  -31.1390  -25.7890   20.0930 N   0  0  0  0  0  0  0  0  0  0  0  0
  -30.7810  -28.1090   17.8340 H   0  0  0  0  0  0  0  0  0  0  0  0
  -32.0820  -26.9880   17.9430 H   0  0  0  0  0  0  0  0  0  0  0  0
  -30.6490  -25.5100   20.9310 H   0  0  0  0  0  0  0  0  0  0  0  0
  -29.3540  -27.4610   19.8830 C   0  0  0  0  0  2  0  0  0  0  0  0
  -28.1670  -26.8620   19.3430 O   0  0  0  0  0  0  0  0  0  0  0  0
  -24.4980  -31.6820   23.0780 C   0  0  0  0  0  0  0  0  0  0  0  0
  -26.9920  -27.5720   19.5090 C   0  0  0  0  0  0  0  0  0  0  0  0
  -23.1760  -30.3750   21.4340 C   0  0  0  0  0  3  0  0  0  0  0  0
  -24.5380  -28.9660   19.7960 C   0  0  0  0  0  0  0  0  0  0  0  0
  -25.6580  -30.8140   21.0630 C   0  0  0  0  0  2  0  0  0  0  0  0
  -25.7150  -29.4920   20.3360 C   0  0  0  0  0  0  0  0  0  0  0  0
  -26.9290  -28.8020   20.2060 C   0  0  0  0  0  3  0  0  0  0  0  0
  -25.7970  -27.0510   18.9620 C   0  0  0  0  0  3  0  0  0  0  0  0
  -24.5700  -27.7370   19.1080 C   0  0  0  0  0  3  0  0  0  0  0  0
  -23.2810  -29.7840   19.9990 C   0  0  0  0  0  2  0  0  0  0  0  0
  -24.4650  -30.9680   21.9170 N   0  0  0  0  0  0  0  0  0  0  0  0
  -23.4630  -31.8970   23.7230 O   0  0  0  0  0  0  0  0  0  0  0  0
  -22.6190  -29.2830   22.3710 C   0  0  0  0  0  0  0  0  0  0  0  0
  -21.3060  -29.0240   22.2660 N   0  0  0  0  0  0  0  0  0  0  0  0
  -23.3610  -28.6690   23.1410 O   0  0  0  0  0  0  0  0  0  0  0  0
  -20.7660  -29.5750   21.6130 H   0  0  0  0  0  0  0  0  0  0  0  0
  -18.0680  -27.4730   22.6330 C   0  0  0  0  0  0  0  0  0  0  0  0
  -20.5660  -28.0120   23.0160 C   0  0  0  0  0  3  0  0  0  0  0  0
  -20.8530  -26.5950   22.4650 C   0  0  0  0  0  2  0  0  0  0  0  0
  -19.8410  -26.1440   21.4060 C   0  0  0  0  0  2  0  0  0  0  0  0
  -18.4230  -26.1440   21.9860 C   0  0  0  0  0  2  0  0  0  0  0  0
  -19.0760  -28.3580   23.1010 C   0  0  0  0  0  0  0  0  0  0  0  0
  -18.6950  -29.5970   23.6610 C   0  0  0  0  0  3  0  0  0  0  0  0
  -17.3380  -29.9540   23.7590 C   0  0  0  0  0  3  0  0  0  0  0  0
  -16.3440  -29.0690   23.3080 C   0  0  0  0  0  3  0  0  0  0  0  0
  -16.7100  -27.8300   22.7530 C   0  0  0  0  0  3  0  0  0  0  0  0
  -25.8270  -32.2820   23.6380 C   0  0  0  0  0  3  0  0  0  0  0  0
  -25.5550  -33.6680   24.0330 N   0  0  0  0  0  0  0  0  0  0  0  0
  -25.9080  -34.7450   23.3180 C   0  0  0  0  0  0  0  0  0  0  0  0
  -26.5710  -34.6720   22.2800 O   0  0  0  0  0  0  0  0  0  0  0  0
  -24.9670  -33.8000   24.8440 H   0  0  0  0  0  0  0  0  0  0  0  0
  -24.2230  -36.5900   23.0430 C   0  0  0  0  0  1  0  0  0  0  0  0
  -25.4520  -36.1220   23.8380 C   0  0  0  0  0  3  0  0  0  0  0  0
  -27.6050  -36.9150   24.7120 C   0  0  0  0  0  1  0  0  0  0  0  0
  -26.5100  -37.1540   23.7750 N   0  0  0  0  0  0  0  0  0  0  0  0
  -26.1260  -38.0760   23.9660 H   0  0  0  0  0  0  0  0  0  0  0  0
  -26.4230  -31.4600   24.8470 C   0  0  1  0  0  0  0  0  0  0  0  0
  -25.4040  -31.1980   25.9800 C   0  0  0  0  0  1  0  0  0  0  0  0
  -26.9570  -30.0910   24.3650 C   0  0  0  0  0  1  0  0  0  0  0  0
  -27.6280  -32.2170   25.4530 C   0  0  0  0  0  1  0  0  0  0  0  0
  1  2  1  0
  2  4  1  0
  2  5  1  0
  3  1  2  0
  5  6  1  0
  5 51  1  0
  6  8  2  0
  7  6  1  0
  9  7  1  0
 10  7  1  0
 12 11  1  0
 12 10  1  0
 13 19  1  0
 14 19  1  0
 15 16  1  0
 15 14  1  0
 17 16  1  0
 17 26  1  0
 17 18  1  0
 19 18  1  0
 20 13  2  0
 21 13  1  0
 21 12  1  0
 22 21  1  0
 23 24  2  0
 24 43  1  0
 25 24  1  0
 25 28  1  0
 26 27  1  0
 26 23  1  0
 27 25  2  0
 28 29  1  0
 29 30  2  0
 31 34  1  0
 31 30  1  0
 32 31  2  0
 33 32  1  0
 33 28  2  0
 34 35  1  0
 35 36  1  0
 36 37  2  0
 38 37  1  0
 38 42  1  0
 39 38  2  0
 40 35  2  0
 40 39  1  0
 41 40  1  0
 43 44  1  0
 44 46  1  0
 44 47  1  0
 45 43  2  0
 48 23  1  0
 48 49  1  0
 50 48  1  0
 51 57  1  0
 52 53  1  0
 54 52  2  0
 55 53  2  0
 56 54  1  0
 56 57  2  0
 57 55  1  0
 58 59  1  0
 58  1  1  0
 59 60  1  0
 60 61  1  0
 61 62  1  0
 62 65  1  0
 63 69  1  0
 63 65  1  0
 64 63  2  0
 65 68  1  0
 66 64  1  0
 67 64  1  0
 70 72  1  0
 70 69  1  0
 71 82  2  0
 72 77  1  0
 73 81  1  0
 73 83  1  0
 74 80  1  0
 74 76  1  0
 75 81  1  0
 76 75  1  0
 77 76  2  0
 78 79  1  0
 78 72  2  0
 79 74  2  0
 80 73  1  0
 81 71  1  0
 83 85  2  0
 84 83  1  0
 86 84  1  0
 87 96  2  0
 87 92  1  0
 88 84  1  0
 88 92  1  0
 89 88  1  0
 90 91  1  0
 90 89  1  0
 91 87  1  0
 92 93  2  0
 93 94  1  0
 95 94  2  0
 96 95  1  0
 97 71  1  0
 97 98  1  0
 97107  1  0
 98101  1  0
 99103  1  0
 99 98  1  0
100 99  2  0
103102  1  0
105103  1  0
105106  1  0
105104  1  0
107110  1  1
107108  1  0
109107  1  0
M  ISO  4  13 100  21 100  69 101  70 101
M  END
>  <TORSDO>  (24) 
F 29

>  <SCORE>  (24) 
-8.598

>  <name>  (24) 
24

>  <ligand_id>  (24) 
24

>  <original_smiles>  (24) 
[H]c1c([H])c([H])c(C([H])([H])C([H])(C(=O)N([H])C([H])([H])C([H])(N([H])C(=O)N2C([H])([H])C([H])([H])C([H])([H])C([H])(n3nc(-c4c([H])c([H])c(Oc5c([H])c([H])c(F)c([H])c5F)c([H])c4[H])c(C(=O)N([H])[H])c3N([H])[H])C2([H])[H])C([H])([H])[H])N([H])C(=O)C([H])([H])C([H])([H])C([H])([H])C([H])([H])C([H])([H])[N+]([H])=C(N([H])[H])C([H])([H])Oc2c([H])c([H])c3c(c2[H])C([H])([H])N(C(=O)C([H])(N([H])C(=O)C([H])(N([H])C([H])([H])[H])C([H])([H])[H])C(C([H])([H])[H])(C([H])([H])[H])C([H])([H])[H])C([H])(C(=O)N([H])C2([H])c4c([H])c([H])c([H])c([H])c4C([H])([H])C([H])([H])C2([H])[H])C3([H])[H])c([H])c1[H]

>  <smiles>  (24) 
[H]c1c([H])c([H])c(C([H])([H])C([H])(C(=O)N([H])C([H])([H])C([H])(N([H])C(=O)N2C([H])([H])C([H])([H])C([H])([H])C([H])(n3nc(-c4c([H])c([H])c(Oc5c([H])c([H])c(F)c([H])c5F)c([H])c4[H])c(C(=O)N([H])[H])c3N([H])[H])C2([H])[H])C([H])([H])[H])N([H])C(=O)C([H])([H])C([H])([H])C([H])([H])C([H])([H])C([H])([H])[N+]([H])=C(N([H])[H])C([H])([H])Oc2c([H])c([H])c3c(c2[H])C([H])([H])N(C(=O)C([H])(N([H])C(=O)C([H])(N([H])C([H])([H])[H])C([H])([H])[H])C(C([H])([H])[H])(C([H])([H])[H])C([H])([H])[H])C([H])(C(=O)N([H])C2([H])c4c([H])c([H])c([H])c([H])c4C([H])([H])C([H])([H])C2([H])[H])C3([H])[H])c([H])c1[H]

$$$$
25:0:0
     RDKit          3D

119126  0  0  1  0  0  0  0  0999 V2000
  -30.0100  -19.8260   19.0770 C   0  0  0  0  0  3  0  0  0  0  0  0
  -28.2010  -18.1540   18.6030 C   0  0  0  0  0  0  0  0  0  0  0  0
  -28.9470  -18.8870   19.4320 N   0  0  0  0  0  0  0  0  0  0  0  0
  -28.3300  -18.2030   17.3790 O   0  0  0  0  0  0  0  0  0  0  0  0
  -28.8170  -18.7510   20.4310 H   0  0  0  0  0  0  0  0  0  0  0  0
  -27.1730  -17.2330   19.2640 C   0  0  0  0  0  2  0  0  0  0  0  0
  -26.3640  -16.3920   18.2560 C   0  0  0  0  0  2  0  0  0  0  0  0
  -25.3810  -15.4180   18.9260 C   0  0  0  0  0  2  0  0  0  0  0  0
  -22.9990  -15.4640   19.7080 C   0  0  0  0  0  0  0  0  0  0  0  0
  -21.9240  -16.1870   20.0000 N   0  0  0  0  0  0  0  0  0  0  0  0
  -22.9380  -14.1370   19.8130 N   0  0  0  0  0  4  0  0  0  0  0  0
  -24.1210  -16.0760   19.3070 N   0  0  0  0  0  0  0  0  0  0  0  0
  -21.0550  -15.7700   20.3000 H   0  0  0  0  0  0  0  0  0  0  0  0
  -21.9370  -17.1940   19.9330 H   0  0  0  0  0  0  0  0  0  0  0  0
  -22.0980  -13.6580   20.0990 H   0  0  0  0  0  0  0  0  0  0  0  0
  -23.7310  -13.5630   19.5720 H   0  0  0  0  0  0  0  0  0  0  0  0
  -24.1100  -17.0820   19.2110 H   0  0  0  0  0  0  0  0  0  0  0  0
  -29.3930  -21.1010   18.4570 C   0  0  0  0  0  0  0  0  0  0  0  0
  -30.0660  -21.6750   17.4540 N   0  0  0  0  0  0  0  0  0  0  0  0
  -28.3440  -21.5730   18.9040 O   0  0  0  0  0  0  0  0  0  0  0  0
  -30.9280  -21.2390   17.1540 H   0  0  0  0  0  0  0  0  0  0  0  0
  -29.7920  -22.9960   16.8930 C   0  0  0  0  0  2  0  0  0  0  0  0
  -30.5600  -24.0660   17.6820 C   0  0  0  0  0  0  0  0  0  0  0  0
  -29.9300  -25.2130   17.9470 N   0  0  0  0  0  0  0  0  0  0  0  0
  -31.7200  -23.8530   18.0440 O   0  0  0  0  0  0  0  0  0  0  0  0
  -28.9680  -25.3140   17.6500 H   0  0  0  0  0  0  0  0  0  0  0  0
  -30.4900  -26.2980   18.7500 C   0  0  0  0  0  2  0  0  0  0  0  0
  -29.4310  -27.3650   19.0600 C   0  0  0  0  0  2  0  0  0  0  0  0
  -28.2100  -26.6960   19.3490 O   0  0  0  0  0  0  0  0  0  0  0  0
  -24.4970  -31.6140   22.9710 C   0  0  0  0  0  0  0  0  0  0  0  0
  -27.0770  -27.4590   19.4920 C   0  0  0  0  0  0  0  0  0  0  0  0
  -23.2420  -30.3210   21.2740 C   0  0  0  0  0  3  0  0  0  0  0  0
  -24.6590  -28.8990   19.7020 C   0  0  0  0  0  0  0  0  0  0  0  0
  -25.7520  -30.7280   21.0140 C   0  0  0  0  0  2  0  0  0  0  0  0
  -25.8290  -29.4080   20.2800 C   0  0  0  0  0  0  0  0  0  0  0  0
  -27.0420  -28.6950   20.1760 C   0  0  0  0  0  3  0  0  0  0  0  0
  -25.8870  -26.9490   18.9350 C   0  0  0  0  0  3  0  0  0  0  0  0
  -24.6800  -27.6650   19.0290 C   0  0  0  0  0  3  0  0  0  0  0  0
  -23.4090  -29.7370   19.8460 C   0  0  0  0  0  2  0  0  0  0  0  0
  -24.5170  -30.8970   21.8130 N   0  0  0  0  0  0  0  0  0  0  0  0
  -23.4330  -31.8380   23.5650 O   0  0  0  0  0  0  0  0  0  0  0  0
  -22.6300  -29.2290   22.1820 C   0  0  0  0  0  0  0  0  0  0  0  0
  -21.3170  -28.9930   22.0290 N   0  0  0  0  0  0  0  0  0  0  0  0
  -23.3340  -28.6000   22.9760 O   0  0  0  0  0  0  0  0  0  0  0  0
  -20.8110  -29.5550   21.3590 H   0  0  0  0  0  0  0  0  0  0  0  0
  -18.0120  -27.5710   22.3540 C   0  0  0  0  0  0  0  0  0  0  0  0
  -20.5340  -27.9870   22.7460 C   0  0  0  0  0  3  0  0  0  0  0  0
  -20.7540  -26.5800   22.1470 C   0  0  0  0  0  2  0  0  0  0  0  0
  -19.7210  -26.2070   21.0800 C   0  0  0  0  0  2  0  0  0  0  0  0
  -18.3070  -26.2490   21.6640 C   0  0  0  0  0  2  0  0  0  0  0  0
  -19.0590  -28.3940   22.8490 C   0  0  0  0  0  0  0  0  0  0  0  0
  -18.7330  -29.6280   23.4490 C   0  0  0  0  0  3  0  0  0  0  0  0
  -17.3920  -30.0420   23.5640 C   0  0  0  0  0  3  0  0  0  0  0  0
  -16.3590  -29.2150   23.0890 C   0  0  0  0  0  3  0  0  0  0  0  0
  -16.6700  -27.9820   22.4900 C   0  0  0  0  0  3  0  0  0  0  0  0
  -25.8010  -32.2050   23.5920 C   0  0  0  0  0  3  0  0  0  0  0  0
  -26.3460  -31.3660   24.8110 C   0  0  1  0  0  0  0  0  0  0  0  0
  -25.2810  -31.0810   25.8970 C   0  0  0  0  0  1  0  0  0  0  0  0
  -26.9030  -30.0060   24.3280 C   0  0  0  0  0  1  0  0  0  0  0  0
  -27.5230  -32.1170   25.4800 C   0  0  0  0  0  1  0  0  0  0  0  0
  -25.5090  -33.5860   23.9990 N   0  0  0  0  0  0  0  0  0  0  0  0
  -25.8680  -34.6740   23.3060 C   0  0  0  0  0  0  0  0  0  0  0  0
  -26.5510  -34.6200   22.2790 O   0  0  0  0  0  0  0  0  0  0  0  0
  -24.9030  -33.7030   24.7980 H   0  0  0  0  0  0  0  0  0  0  0  0
  -24.1850  -36.5170   23.0130 C   0  0  0  0  0  1  0  0  0  0  0  0
  -25.3920  -36.0400   23.8350 C   0  0  0  0  0  3  0  0  0  0  0  0
  -27.5150  -36.8250   24.7850 C   0  0  0  0  0  1  0  0  0  0  0  0
  -26.4470  -37.0760   23.8190 N   0  0  0  0  0  0  0  0  0  0  0  0
  -26.0540  -37.9940   24.0100 H   0  0  0  0  0  0  0  0  0  0  0  0
  -30.7920  -20.1690   20.3870 C   0  0  0  0  0  3  0  0  0  0  0  0
  -30.7390  -17.8720   21.4020 C   0  0  0  0  0  0  0  0  0  0  0  0
  -31.3870  -18.9650   20.9810 N   0  0  0  0  0  0  0  0  0  0  0  0
  -29.5290  -17.7070   21.2230 O   0  0  0  0  0  0  0  0  0  0  0  0
  -32.3820  -18.9990   21.1480 H   0  0  0  0  0  0  0  0  0  0  0  0
  -31.5870  -16.8050   22.1220 C   0  0  0  0  0  3  0  0  0  0  0  0
  -31.3190  -14.8460   20.6150 C   0  0  0  0  0  0  0  0  0  0  0  0
  -30.8540  -12.8010   19.3200 C   0  0  0  0  0  2  0  0  0  0  0  0
  -29.7610  -13.0160   18.2580 C   0  0  0  0  0  2  0  0  0  0  0  0
  -28.3660  -12.7980   18.8680 C   0  0  0  0  0  2  0  0  0  0  0  0
  -28.1590  -13.6150   20.1690 C   0  0  0  0  0  3  0  0  0  0  0  0
  -29.3370  -13.3840   21.1420 C   0  0  0  0  0  2  0  0  0  0  0  0
  -30.5990  -13.7090   20.4480 N   0  0  0  0  0  0  0  0  0  0  0  0
  -32.1770  -15.2370   19.8190 O   0  0  0  0  0  0  0  0  0  0  0  0
  -31.0900  -15.4800   21.7680 N   0  0  0  0  0  0  0  0  0  0  0  0
  -30.3980  -15.0830   22.3800 H   0  0  0  0  0  0  0  0  0  0  0  0
  -25.9550  -14.1490   21.3970 C   0  0  0  0  0  0  0  0  0  0  0  0
  -24.8940  -13.3590   21.7530 C   0  0  0  0  0  0  0  0  0  0  0  0
  -25.2280  -12.0360   21.3330 C   0  0  0  0  0  0  0  0  0  0  0  0
  -26.8740  -13.3020   20.7950 N   0  0  0  0  0  0  0  0  0  0  0  0
  -26.4450  -12.0130   20.8060 N   0  0  0  0  0  0  0  0  0  0  0  0
  -24.4340  -10.8000   21.3470 C   0  0  0  0  0  0  0  0  0  0  0  0
  -24.8880   -9.6390   22.0120 C   0  0  0  0  0  3  0  0  0  0  0  0
  -24.1010   -8.4670   22.0260 C   0  0  0  0  0  3  0  0  0  0  0  0
  -22.8440   -8.4480   21.3770 C   0  0  0  0  0  0  0  0  0  0  0  0
  -22.4080   -9.5990   20.6980 C   0  0  0  0  0  3  0  0  0  0  0  0
  -23.1950  -10.7630   20.6790 C   0  0  0  0  0  3  0  0  0  0  0  0
  -22.0220   -7.3490   21.3180 O   0  0  0  0  0  0  0  0  0  0  0  0
  -21.9660   -6.4370   22.3400 C   0  0  0  0  0  0  0  0  0  0  0  0
  -21.6830   -6.8230   23.6690 C   0  0  0  0  0  3  0  0  0  0  0  0
  -21.5630   -5.8470   24.6770 C   0  0  0  0  0  3  0  0  0  0  0  0
  -21.7160   -4.4840   24.3590 C   0  0  0  0  0  0  0  0  0  0  0  0
  -21.9930   -4.0960   23.0360 C   0  0  0  0  0  3  0  0  0  0  0  0
  -22.1130   -5.0710   22.0300 C   0  0  0  0  0  0  0  0  0  0  0  0
  -22.3580   -4.6890   20.7520 F   0  0  0  0  0  0  0  0  0  0  0  0
  -21.5930   -3.5440   25.3250 F   0  0  0  0  0  0  0  0  0  0  0  0
  -23.6020  -13.8190   22.3690 C   0  0  0  0  0  0  0  0  0  0  0  0
  -22.9200  -12.9390   23.0930 N   0  0  0  0  0  0  0  0  0  0  0  0
  -23.2140  -14.9790   22.2480 O   0  0  0  0  0  0  0  0  0  0  0  0
  -23.2480  -11.9920   23.2120 H   0  0  0  0  0  0  0  0  0  0  0  0
  -22.0560  -13.2190   23.5360 H   0  0  0  0  0  0  0  0  0  0  0  0
  -26.2110  -15.5100   21.5230 N   0  0  0  0  0  0  0  0  0  0  0  0
  -25.5340  -16.1520   21.9200 H   0  0  0  0  0  0  0  0  0  0  0  0
  -27.0850  -15.9570   21.2790 H   0  0  0  0  0  0  0  0  0  0  0  0
  -30.0680  -17.2700   24.1980 C   0  0  0  0  0  1  0  0  0  0  0  0
  -32.1000  -15.7750   24.3920 C   0  0  0  0  0  1  0  0  0  0  0  0
  -31.4910  -16.9870   23.6640 C   0  0  0  0  0  3  0  0  0  0  0  0
  -32.4780  -21.6460   21.6230 C   0  0  0  0  0  1  0  0  0  0  0  0
  -33.0590  -20.8090   19.3140 C   0  0  0  0  0  1  0  0  0  0  0  0
  -31.9130  -21.2410   20.2480 C   0  0  0  0  0  3  0  0  0  0  0  0
  1 18  1  0
  1  3  1  0
  1 70  1  0
  2  6  1  0
  2  3  1  0
  3  5  1  0
  4  2  2  0
  7  8  1  0
  7  6  1  0
  8 12  1  0
  9 11  2  0
  9 10  1  0
 10 13  1  0
 11 15  1  0
 12  9  1  0
 14 10  1  0
 16 11  1  0
 17 12  1  0
 18 20  2  0
 19 18  1  0
 21 19  1  0
 22 19  1  0
 22 23  1  0
 23 24  1  0
 23 25  2  0
 24 27  1  0
 26 24  1  0
 27 28  1  0
 28 29  1  0
 29 31  1  0
 30 41  2  0
 31 36  1  0
 32 40  1  0
 32 42  1  0
 33 39  1  0
 33 35  1  0
 34 40  1  0
 35 34  1  0
 36 35  2  0
 37 38  1  0
 37 31  2  0
 38 33  2  0
 39 32  1  0
 40 30  1  0
 42 44  2  0
 43 42  1  0
 45 43  1  0
 46 55  2  0
 46 51  1  0
 47 43  1  0
 47 51  1  0
 48 47  1  0
 49 50  1  0
 49 48  1  0
 50 46  1  0
 51 52  2  0
 52 53  1  0
 54 53  2  0
 55 54  1  0
 56 30  1  0
 56 61  1  0
 56 57  1  0
 57 60  1  1
 57 58  1  0
 59 57  1  0
 61 64  1  0
 62 66  1  0
 62 61  1  0
 63 62  2  0
 66 65  1  0
 68 66  1  0
 68 69  1  0
 68 67  1  0
 70119  1  0
 70 72  1  0
 72 74  1  0
 72 71  1  0
 73 71  2  0
 75 71  1  0
 75116  1  0
 76 84  1  0
 77 82  1  0
 78 79  1  0
 78 77  1  0
 80 79  1  0
 80 89  1  0
 80 81  1  0
 82 76  1  0
 82 81  1  0
 83 76  2  0
 84 75  1  0
 84 85  1  0
 86111  1  0
 86 87  2  0
 87106  1  0
 88 91  1  0
 88 87  1  0
 89 90  1  0
 89 86  1  0
 90 88  2  0
 91 92  1  0
 92 93  2  0
 94 93  1  0
 95 94  2  0
 96 95  1  0
 96 91  2  0
 97 94  1  0
 97 98  1  0
 98 99  1  0
 99100  2  0
101100  1  0
101105  1  0
102101  2  0
103 98  2  0
103102  1  0
104103  1  0
106107  1  0
107109  1  0
107110  1  0
108106  2  0
111112  1  0
113111  1  0
116114  1  0
116115  1  0
118119  1  0
119117  1  0
M  ISO  4  28 101  29 101  76 100  84 100
M  END
>  <TORSDO>  (25) 
F 31

>  <SCORE>  (25) 
7.838

>  <name>  (25) 
25

>  <ligand_id>  (25) 
25

>  <original_smiles>  (25) 
[H]c1c([H])c([H])c2c(c1[H])C([H])([H])C([H])([H])C([H])([H])C2([H])N([H])C(=O)C1([H])N(C(=O)C([H])(N([H])C(=O)C([H])(N([H])C([H])([H])[H])C([H])([H])[H])C(C([H])([H])[H])(C([H])([H])[H])C([H])([H])[H])C([H])([H])c2c([H])c(OC([H])([H])C([H])([H])N([H])C(=O)C([H])([H])N([H])C(=O)C([H])(N([H])C(=O)C([H])([H])C([H])([H])C([H])([H])N([H])C(N([H])[H])=[N+]([H])[H])C([H])(N([H])C(=O)C([H])(N([H])C(=O)N3C([H])([H])C([H])([H])C([H])([H])C([H])(n4nc(-c5c([H])c([H])c(Oc6c([H])c([H])c(F)c([H])c6F)c([H])c5[H])c(C(=O)N([H])[H])c4N([H])[H])C3([H])[H])C([H])(C([H])([H])[H])C([H])([H])[H])C([H])(C([H])([H])[H])C([H])([H])[H])c([H])c([H])c2C1([H])[H]

>  <smiles>  (25) 
[H]c1c([H])c([H])c2c(c1[H])C([H])([H])C([H])([H])C([H])([H])C2([H])N([H])C(=O)C1([H])N(C(=O)C([H])(N([H])C(=O)C([H])(N([H])C([H])([H])[H])C([H])([H])[H])C(C([H])([H])[H])(C([H])([H])[H])C([H])([H])[H])C([H])([H])c2c([H])c(OC([H])([H])C([H])([H])N([H])C(=O)C([H])([H])N([H])C(=O)C([H])(N([H])C(=O)C([H])([H])C([H])([H])C([H])([H])N([H])C(N([H])[H])=[N+]([H])[H])C([H])(N([H])C(=O)C([H])(N([H])C(=O)N3C([H])([H])C([H])([H])C([H])([H])C([H])(n4nc(-c5c([H])c([H])c(Oc6c([H])c([H])c(F)c([H])c6F)c([H])c5[H])c(C(=O)N([H])[H])c4N([H])[H])C3([H])[H])C([H])(C([H])([H])[H])C([H])([H])[H])C([H])(C([H])([H])[H])C([H])([H])[H])c([H])c([H])c2C1([H])[H]

$$$$
26:0:0
     RDKit          3D

105114  0  0  1  0  0  0  0  0999 V2000
  -29.9700  -22.6610   19.8610 C   0  0  0  0  0  0  0  0  0  0  0  0
  -28.6000  -19.6870   18.1110 C   0  0  0  0  0  2  0  0  0  0  0  0
  -30.0620  -19.3130   18.3190 C   0  0  0  0  0  2  0  0  0  0  0  0
  -28.5120  -21.1600   18.5040 C   0  0  0  0  0  2  0  0  0  0  0  0
  -30.5890  -20.2770   19.4000 C   0  0  0  0  0  3  0  0  0  0  0  0
  -29.7190  -21.4630   19.2810 N   0  0  0  0  0  0  0  0  0  0  0  0
  -31.0950  -22.9850   20.2580 O   0  0  0  0  0  0  0  0  0  0  0  0
  -30.4850  -19.6980   20.8440 C   0  0  0  0  0  0  0  0  0  0  0  0
  -30.8660  -16.3520   22.3550 C   0  0  0  0  0  2  0  0  0  0  0  0
  -30.2930  -15.9960   20.9900 C   0  0  0  0  0  2  0  0  0  0  0  0
  -30.6600  -17.8610   22.4610 C   0  0  0  0  0  2  0  0  0  0  0  0
  -30.4980  -17.2530   20.1220 C   0  0  0  0  0  3  0  0  0  0  0  0
  -30.5740  -18.3660   21.0830 N   0  0  0  0  0  0  0  0  0  0  0  0
  -30.3370  -20.4840   21.7880 O   0  0  0  0  0  0  0  0  0  0  0  0
  -31.7180  -17.0810   19.2060 C   0  0  0  0  0  0  0  0  0  0  0  0
  -32.2200  -15.8430   19.1470 N   0  0  0  0  0  0  0  0  0  0  0  0
  -32.1880  -18.0320   18.5780 O   0  0  0  0  0  0  0  0  0  0  0  0
  -31.7850  -15.1410   19.7310 H   0  0  0  0  0  0  0  0  0  0  0  0
  -33.3310  -15.3980   18.3130 C   0  0  0  0  0  2  0  0  0  0  0  0
  -33.2410  -13.8860   18.0470 C   0  0  0  0  0  2  0  0  0  0  0  0
  -33.0820  -12.0660   19.7450 C   0  0  0  0  0  0  0  0  0  0  0  0
  -32.6670  -10.2700   21.3870 C   0  0  0  0  0  2  0  0  0  0  0  0
  -31.8970   -9.1060   20.7360 C   0  0  0  0  0  2  0  0  0  0  0  0
  -30.3780   -9.3570   20.8080 C   0  0  0  0  0  2  0  0  0  0  0  0
  -29.9820  -10.7720   20.3120 C   0  0  0  0  0  3  0  0  0  0  0  0
  -30.8750  -11.8560   20.9600 C   0  0  0  0  0  2  0  0  0  0  0  0
  -32.2870  -11.5160   20.7000 N   0  0  0  0  0  0  0  0  0  0  0  0
  -34.1810  -11.6000   19.4330 O   0  0  0  0  0  0  0  0  0  0  0  0
  -32.6050  -13.1700   19.1570 N   0  0  0  0  0  0  0  0  0  0  0  0
  -31.7090  -13.5050   19.4790 H   0  0  0  0  0  0  0  0  0  0  0  0
  -27.8680  -12.2340   20.4770 C   0  0  0  0  0  0  0  0  0  0  0  0
  -26.5540  -11.9200   20.6990 C   0  0  0  0  0  0  0  0  0  0  0  0
  -26.5110  -10.5030   20.8810 C   0  0  0  0  0  0  0  0  0  0  0  0
  -28.5610  -11.0330   20.5380 N   0  0  0  0  0  0  0  0  0  0  0  0
  -27.7370   -9.9960   20.8340 N   0  0  0  0  0  0  0  0  0  0  0  0
  -25.3680   -9.5950   21.0440 C   0  0  0  0  0  0  0  0  0  0  0  0
  -25.2470   -8.7550   22.1730 C   0  0  0  0  0  3  0  0  0  0  0  0
  -24.1310   -7.9020   22.3140 C   0  0  0  0  0  3  0  0  0  0  0  0
  -23.1200   -7.8870   21.3250 C   0  0  0  0  0  0  0  0  0  0  0  0
  -23.2570   -8.7080   20.1910 C   0  0  0  0  0  3  0  0  0  0  0  0
  -24.3700   -9.5510   20.0490 C   0  0  0  0  0  3  0  0  0  0  0  0
  -22.0130   -7.0730   21.3660 O   0  0  0  0  0  0  0  0  0  0  0  0
  -21.4520   -6.6800   22.5540 C   0  0  0  0  0  0  0  0  0  0  0  0
  -20.9250   -7.6130   23.4750 C   0  0  0  0  0  3  0  0  0  0  0  0
  -20.2970   -7.1620   24.6520 C   0  0  0  0  0  3  0  0  0  0  0  0
  -20.1850   -5.7820   24.9070 C   0  0  0  0  0  0  0  0  0  0  0  0
  -20.7030   -4.8510   23.9890 C   0  0  0  0  0  3  0  0  0  0  0  0
  -21.3320   -5.3000   22.8150 C   0  0  0  0  0  0  0  0  0  0  0  0
  -21.8110   -4.3990   21.9240 F   0  0  0  0  0  0  0  0  0  0  0  0
  -19.5740   -5.3480   26.0340 F   0  0  0  0  0  0  0  0  0  0  0  0
  -25.3890  -12.8660   20.6550 C   0  0  0  0  0  0  0  0  0  0  0  0
  -24.3480  -12.5960   21.4390 N   0  0  0  0  0  0  0  0  0  0  0  0
  -25.4130  -13.8800   19.9590 O   0  0  0  0  0  0  0  0  0  0  0  0
  -24.3330  -11.7750   22.0230 H   0  0  0  0  0  0  0  0  0  0  0  0
  -23.5550  -13.2220   21.4510 H   0  0  0  0  0  0  0  0  0  0  0  0
  -28.5280  -13.4270   20.2100 N   0  0  0  0  0  0  0  0  0  0  0  0
  -28.0410  -14.3110   20.1070 H   0  0  0  0  0  0  0  0  0  0  0  0
  -29.5250  -13.5050   20.0400 H   0  0  0  0  0  0  0  0  0  0  0  0
  -28.7600  -23.5730   20.1380 C   0  0  0  0  0  2  0  0  0  0  0  0
  -28.7450  -25.2420   18.2930 C   0  0  0  0  0  0  0  0  0  0  0  0
  -28.8240  -24.9310   19.5900 N   0  0  0  0  0  0  0  0  0  0  0  0
  -28.7680  -24.3840   17.4080 O   0  0  0  0  0  0  0  0  0  0  0  0
  -28.7730  -25.7070   20.2400 H   0  0  0  0  0  0  0  0  0  0  0  0
  -28.5560  -26.7290   17.9230 C   0  0  0  0  0  2  0  0  0  0  0  0
  -28.3420  -27.5490   19.0840 O   0  0  0  0  0  0  0  0  0  0  0  0
  -24.3510  -31.6420   23.3250 C   0  0  0  0  0  0  0  0  0  0  0  0
  -27.0880  -28.0820   19.3120 C   0  0  0  0  0  0  0  0  0  0  0  0
  -23.1220  -30.3810   21.5880 C   0  0  0  0  0  3  0  0  0  0  0  0
  -24.5640  -29.2620   19.8130 C   0  0  0  0  0  0  0  0  0  0  0  0
  -25.5710  -31.0550   21.2360 C   0  0  0  0  0  2  0  0  0  0  0  0
  -25.7200  -29.8220   20.3710 C   0  0  0  0  0  0  0  0  0  0  0  0
  -26.9800  -29.2350   20.1250 C   0  0  0  0  0  3  0  0  0  0  0  0
  -25.9040  -27.5250   18.7730 C   0  0  0  0  0  3  0  0  0  0  0  0
  -24.6490  -28.1010   19.0330 C   0  0  0  0  0  3  0  0  0  0  0  0
  -23.2510  -29.9530   20.1040 C   0  0  0  0  0  2  0  0  0  0  0  0
  -24.3700  -31.0310   22.1080 N   0  0  0  0  0  0  0  0  0  0  0  0
  -23.3120  -31.6960   23.9980 O   0  0  0  0  0  0  0  0  0  0  0  0
  -22.6850  -29.1510   22.4160 C   0  0  0  0  0  0  0  0  0  0  0  0
  -21.4460  -28.6830   22.1880 N   0  0  0  0  0  0  0  0  0  0  0  0
  -23.4610  -28.6230   23.2160 O   0  0  0  0  0  0  0  0  0  0  0  0
  -20.8660  -29.1730   21.5210 H   0  0  0  0  0  0  0  0  0  0  0  0
  -18.4890  -26.6160   22.2290 C   0  0  0  0  0  0  0  0  0  0  0  0
  -20.8360  -27.5180   22.8260 C   0  0  0  0  0  3  0  0  0  0  0  0
  -21.3830  -26.2010   22.2280 C   0  0  0  0  0  2  0  0  0  0  0  0
  -20.5300  -25.6630   21.0750 C   0  0  0  0  0  2  0  0  0  0  0  0
  -19.0960  -25.4040   21.5430 C   0  0  0  0  0  2  0  0  0  0  0  0
  -19.3070  -27.6170   22.8170 C   0  0  0  0  0  0  0  0  0  0  0  0
  -18.6950  -28.7480   23.4010 C   0  0  0  0  0  3  0  0  0  0  0  0
  -17.2920  -28.8770   23.4240 C   0  0  0  0  0  3  0  0  0  0  0  0
  -16.4870  -27.8700   22.8620 C   0  0  0  0  0  3  0  0  0  0  0  0
  -17.0840  -26.7450   22.2670 C   0  0  0  0  0  3  0  0  0  0  0  0
  -25.6240  -32.3200   23.9190 C   0  0  0  0  0  3  0  0  0  0  0  0
  -25.3100  -33.7350   24.1460 N   0  0  0  0  0  0  0  0  0  0  0  0
  -25.7220  -34.7410   23.3650 C   0  0  0  0  0  0  0  0  0  0  0  0
  -26.4860  -34.5810   22.4100 O   0  0  0  0  0  0  0  0  0  0  0  0
  -24.6590  -33.9440   24.8880 H   0  0  0  0  0  0  0  0  0  0  0  0
  -24.1250  -36.5620   22.6990 C   0  0  0  0  0  1  0  0  0  0  0  0
  -25.2090  -36.1510   23.7050 C   0  0  0  0  0  3  0  0  0  0  0  0
  -27.2200  -36.9960   24.8310 C   0  0  0  0  0  1  0  0  0  0  0  0
  -26.2750  -37.1780   23.7330 N   0  0  0  0  0  0  0  0  0  0  0  0
  -25.8690  -38.1070   23.8180 H   0  0  0  0  0  0  0  0  0  0  0  0
  -26.1230  -31.6350   25.2500 C   0  0  1  0  0  0  0  0  0  0  0  0
  -24.9940  -31.3710   26.2730 C   0  0  0  0  0  1  0  0  0  0  0  0
  -26.8100  -30.2830   24.9470 C   0  0  0  0  0  1  0  0  0  0  0  0
  -27.1860  -32.5300   25.9310 C   0  0  0  0  0  1  0  0  0  0  0  0
  1 59  1  0
  1  7  2  0
  2  3  1  0
  2  4  1  0
  3  5  1  0
  4  6  1  0
  5  8  1  0
  6  5  1  0
  6  1  1  0
  8 13  1  0
  8 14  2  0
  9 11  1  0
 10  9  1  0
 12 15  1  0
 12 10  1  0
 12 13  1  0
 13 11  1  0
 16 15  1  0
 16 18  1  0
 17 15  2  0
 19 16  1  0
 20 19  1  0
 20 29  1  0
 21 27  1  0
 23 24  1  0
 23 22  1  0
 25 34  1  0
 25 24  1  0
 25 26  1  0
 27 26  1  0
 27 22  1  0
 28 21  2  0
 29 30  1  0
 29 21  1  0
 31 34  1  0
 31 32  2  0
 32 33  1  0
 33 36  1  0
 34 35  1  0
 35 33  2  0
 36 37  1  0
 37 38  2  0
 39 42  1  0
 39 38  1  0
 40 39  2  0
 41 40  1  0
 41 36  2  0
 42 43  1  0
 43 48  2  0
 43 44  1  0
 44 45  2  0
 45 46  1  0
 46 50  1  0
 47 46  2  0
 48 47  1  0
 49 48  1  0
 51 32  1  0
 51 52  1  0
 52 55  1  0
 52 54  1  0
 53 51  2  0
 56 31  1  0
 57 56  1  0
 58 56  1  0
 60 61  1  0
 61 59  1  0
 61 63  1  0
 62 60  2  0
 64 60  1  0
 64 65  1  0
 65 67  1  0
 66 77  2  0
 67 72  1  0
 68 76  1  0
 68 78  1  0
 69 75  1  0
 69 71  1  0
 70 76  1  0
 71 70  1  0
 72 71  2  0
 73 74  1  0
 73 67  2  0
 74 69  2  0
 75 68  1  0
 76 66  1  0
 78 80  2  0
 79 78  1  0
 81 79  1  0
 82 91  2  0
 82 87  1  0
 83 79  1  0
 84 83  1  0
 85 86  1  0
 85 84  1  0
 86 82  1  0
 87 83  1  0
 87 88  2  0
 88 89  1  0
 90 89  2  0
 91 90  1  0
 92 66  1  0
 92 93  1  0
 92102  1  0
 93 96  1  0
 94 98  1  0
 94 93  1  0
 95 94  2  0
 98 97  1  0
 98100  1  0
100101  1  0
100 99  1  0
102105  1  1
102103  1  0
104102  1  0
M  ISO  4  21 100  29 100  64 101  65 101
M  END
>  <TORSDO>  (26) 
F 23

>  <SCORE>  (26) 
-9.748

>  <name>  (26) 
26

>  <ligand_id>  (26) 
26

>  <original_smiles>  (26) 
[H]c1c([H])c([H])c2c(c1[H])C([H])([H])C([H])([H])C([H])([H])C2([H])N([H])C(=O)C1([H])N(C(=O)C([H])(N([H])C(=O)C([H])(N([H])C([H])([H])[H])C([H])([H])[H])C(C([H])([H])[H])(C([H])([H])[H])C([H])([H])[H])C([H])([H])c2c([H])c(OC([H])([H])C(=O)N([H])C([H])([H])C(=O)N3C([H])([H])C([H])([H])C([H])([H])C3([H])C(=O)N3C([H])([H])C([H])([H])C([H])([H])C3([H])C(=O)N([H])C([H])([H])C([H])([H])N([H])C(=O)N3C([H])([H])C([H])([H])C([H])([H])C([H])(n4nc(-c5c([H])c([H])c(Oc6c([H])c([H])c(F)c([H])c6F)c([H])c5[H])c(C(=O)N([H])[H])c4N([H])[H])C3([H])[H])c([H])c([H])c2C1([H])[H]

>  <smiles>  (26) 
[H]c1c([H])c([H])c2c(c1[H])C([H])([H])C([H])([H])C([H])([H])C2([H])N([H])C(=O)C1([H])N(C(=O)C([H])(N([H])C(=O)C([H])(N([H])C([H])([H])[H])C([H])([H])[H])C(C([H])([H])[H])(C([H])([H])[H])C([H])([H])[H])C([H])([H])c2c([H])c(OC([H])([H])C(=O)N([H])C([H])([H])C(=O)N3C([H])([H])C([H])([H])C([H])([H])C3([H])C(=O)N3C([H])([H])C([H])([H])C([H])([H])C3([H])C(=O)N([H])C([H])([H])C([H])([H])N([H])C(=O)N3C([H])([H])C([H])([H])C([H])([H])C([H])(n4nc(-c5c([H])c([H])c(Oc6c([H])c([H])c(F)c([H])c6F)c([H])c5[H])c(C(=O)N([H])[H])c4N([H])[H])C3([H])[H])c([H])c([H])c2C1([H])[H]

$$$$
27:0:0
     RDKit          3D

107115  0  0  1  0  0  0  0  0999 V2000
  -32.2120  -24.0270   20.0170 C   0  0  0  0  0  3  0  0  0  0  0  0
  -33.0290  -21.8080   20.8350 C   0  0  0  0  0  0  0  0  0  0  0  0
  -32.0720  -22.7110   20.6350 N   0  0  0  0  0  0  0  0  0  0  0  0
  -34.1720  -21.9300   20.3930 O   0  0  0  0  0  0  0  0  0  0  0  0
  -31.1300  -22.4840   20.9270 H   0  0  0  0  0  0  0  0  0  0  0  0
  -33.7930  -19.7120   22.1410 C   0  0  0  0  0  1  0  0  0  0  0  0
  -32.6220  -20.5880   21.6610 C   0  0  0  0  0  3  0  0  0  0  0  0
  -30.5350  -19.2540   21.4490 C   0  0  0  0  0  0  0  0  0  0  0  0
  -31.6460  -19.7860   20.9330 N   0  0  0  0  0  0  0  0  0  0  0  0
  -30.0820  -19.5600   22.5540 O   0  0  0  0  0  0  0  0  0  0  0  0
  -31.9250  -19.4680   20.0160 H   0  0  0  0  0  0  0  0  0  0  0  0
  -29.8890  -18.1440   20.6240 C   0  0  0  0  0  2  0  0  0  0  0  0
  -30.3630  -16.7530   21.1030 C   0  0  0  0  0  2  0  0  0  0  0  0
  -31.8410  -16.4610   20.7450 C   0  0  0  0  0  2  0  0  0  0  0  0
  -32.3600  -15.0850   21.1600 C   0  0  0  0  0  2  0  0  0  0  0  0
  -31.3920  -13.4660   19.5450 C   0  0  0  0  0  0  0  0  0  0  0  0
  -30.6240  -11.3730   18.5150 C   0  0  0  0  0  2  0  0  0  0  0  0
  -29.5680  -11.5710   17.4190 C   0  0  0  0  0  2  0  0  0  0  0  0
  -28.1610  -11.6210   18.0370 C   0  0  0  0  0  2  0  0  0  0  0  0
  -28.0650  -12.6410   19.2000 C   0  0  0  0  0  3  0  0  0  0  0  0
  -29.2100  -12.4310   20.2130 C   0  0  0  0  0  2  0  0  0  0  0  0
  -30.4990  -12.4550   19.4940 N   0  0  0  0  0  0  0  0  0  0  0  0
  -32.2130  -13.7200   18.6570 O   0  0  0  0  0  0  0  0  0  0  0  0
  -31.4440  -14.0390   20.7480 N   0  0  0  0  0  0  0  0  0  0  0  0
  -30.8010  -13.6850   21.4420 H   0  0  0  0  0  0  0  0  0  0  0  0
  -25.8990  -13.6120   20.2150 C   0  0  0  0  0  0  0  0  0  0  0  0
  -24.7770  -13.0060   20.7210 C   0  0  0  0  0  0  0  0  0  0  0  0
  -25.0090  -11.6000   20.6300 C   0  0  0  0  0  0  0  0  0  0  0  0
  -26.7540  -12.5810   19.8510 N   0  0  0  0  0  0  0  0  0  0  0  0
  -26.2250  -11.3660   20.1540 N   0  0  0  0  0  0  0  0  0  0  0  0
  -24.1230  -10.4650   20.9150 C   0  0  0  0  0  0  0  0  0  0  0  0
  -24.5070   -9.4350   21.8000 C   0  0  0  0  0  3  0  0  0  0  0  0
  -23.6310   -8.3610   22.0740 C   0  0  0  0  0  3  0  0  0  0  0  0
  -22.3580   -8.3130   21.4610 C   0  0  0  0  0  0  0  0  0  0  0  0
  -21.9870   -9.3310   20.5650 C   0  0  0  0  0  3  0  0  0  0  0  0
  -22.8620  -10.3940   20.2890 C   0  0  0  0  0  3  0  0  0  0  0  0
  -21.4500   -7.2950   21.6450 O   0  0  0  0  0  0  0  0  0  0  0  0
  -21.4240   -6.5560   22.8000 C   0  0  0  0  0  0  0  0  0  0  0  0
  -21.2420   -7.1560   24.0660 C   0  0  0  0  0  3  0  0  0  0  0  0
  -21.1500   -6.3520   25.2200 C   0  0  0  0  0  3  0  0  0  0  0  0
  -21.2320   -4.9520   25.1120 C   0  0  0  0  0  0  0  0  0  0  0  0
  -21.4060   -4.3510   23.8520 C   0  0  0  0  0  3  0  0  0  0  0  0
  -21.5010   -5.1510   22.7000 C   0  0  0  0  0  0  0  0  0  0  0  0
  -21.6490   -4.5680   21.4860 F   0  0  0  0  0  0  0  0  0  0  0  0
  -21.1350   -4.1790   26.2180 F   0  0  0  0  0  0  0  0  0  0  0  0
  -23.5230  -13.6930   21.1760 C   0  0  0  0  0  0  0  0  0  0  0  0
  -22.8200  -13.1090   22.1450 N   0  0  0  0  0  0  0  0  0  0  0  0
  -23.1780  -14.7780   20.7100 O   0  0  0  0  0  0  0  0  0  0  0  0
  -23.1120  -12.2300   22.5430 H   0  0  0  0  0  0  0  0  0  0  0  0
  -21.9830  -13.5520   22.4930 H   0  0  0  0  0  0  0  0  0  0  0  0
  -26.2530  -14.9410   20.0200 N   0  0  0  0  0  0  0  0  0  0  0  0
  -25.6220  -15.7060   20.2330 H   0  0  0  0  0  0  0  0  0  0  0  0
  -27.1240  -15.2500   19.6040 H   0  0  0  0  0  0  0  0  0  0  0  0
  -30.8400  -24.4310   19.4360 C   0  0  0  0  0  0  0  0  0  0  0  0
  -30.8230  -25.4920   18.6280 N   0  0  0  0  0  0  0  0  0  0  0  0
  -29.8250  -23.7820   19.7030 O   0  0  0  0  0  0  0  0  0  0  0  0
  -31.6940  -26.0010   18.5450 H   0  0  0  0  0  0  0  0  0  0  0  0
  -29.6610  -26.0760   17.9710 C   0  0  0  0  0  2  0  0  0  0  0  0
  -29.0190  -27.2220   18.7840 C   0  0  0  0  0  2  0  0  0  0  0  0
  -28.2390  -26.7420   19.8860 O   0  0  0  0  0  0  0  0  0  0  0  0
  -24.6180  -31.8190   23.3890 C   0  0  0  0  0  0  0  0  0  0  0  0
  -27.0860  -27.4650   20.0600 C   0  0  0  0  0  0  0  0  0  0  0  0
  -23.3430  -30.5350   21.7060 C   0  0  0  0  0  3  0  0  0  0  0  0
  -24.7250  -29.0010   20.2110 C   0  0  0  0  0  0  0  0  0  0  0  0
  -25.8770  -30.8170   21.4900 C   0  0  0  0  0  2  0  0  0  0  0  0
  -25.9100  -29.4730   20.7980 C   0  0  0  0  0  0  0  0  0  0  0  0
  -27.0930  -28.7090   20.7280 C   0  0  0  0  0  3  0  0  0  0  0  0
  -25.8830  -26.9820   19.5070 C   0  0  0  0  0  3  0  0  0  0  0  0
  -24.7010  -27.7450   19.5820 C   0  0  0  0  0  3  0  0  0  0  0  0
  -23.5130  -29.9050   20.3010 C   0  0  0  0  0  2  0  0  0  0  0  0
  -24.6310  -31.0720   22.2510 N   0  0  0  0  0  0  0  0  0  0  0  0
  -23.5560  -32.1070   23.9570 O   0  0  0  0  0  0  0  0  0  0  0  0
  -22.6680  -29.4970   22.6320 C   0  0  0  0  0  0  0  0  0  0  0  0
  -21.3400  -29.3520   22.4950 N   0  0  0  0  0  0  0  0  0  0  0  0
  -23.3330  -28.8190   23.4170 O   0  0  0  0  0  0  0  0  0  0  0  0
  -20.8580  -29.9550   21.8470 H   0  0  0  0  0  0  0  0  0  0  0  0
  -17.9430  -28.1930   22.9100 C   0  0  0  0  0  0  0  0  0  0  0  0
  -20.4970  -28.4050   23.2270 C   0  0  0  0  0  3  0  0  0  0  0  0
  -20.5890  -26.9840   22.6210 C   0  0  0  0  0  2  0  0  0  0  0  0
  -19.5040  -26.7060   21.5740 C   0  0  0  0  0  2  0  0  0  0  0  0
  -18.1160  -26.8570   22.2020 C   0  0  0  0  0  2  0  0  0  0  0  0
  -19.0660  -28.9270   23.3760 C   0  0  0  0  0  0  0  0  0  0  0  0
  -18.8580  -30.1860   23.9800 C   0  0  0  0  0  3  0  0  0  0  0  0
  -17.5590  -30.7060   24.1330 C   0  0  0  0  0  3  0  0  0  0  0  0
  -16.4490  -29.9690   23.6800 C   0  0  0  0  0  3  0  0  0  0  0  0
  -16.6430  -28.7140   23.0740 C   0  0  0  0  0  3  0  0  0  0  0  0
  -25.9330  -32.3780   24.0150 C   0  0  0  0  0  3  0  0  0  0  0  0
  -25.6740  -33.7720   24.4050 N   0  0  0  0  0  0  0  0  0  0  0  0
  -26.0510  -34.8420   23.6970 C   0  0  0  0  0  0  0  0  0  0  0  0
  -26.7200  -34.7610   22.6630 O   0  0  0  0  0  0  0  0  0  0  0  0
  -25.0750  -33.9160   25.2050 H   0  0  0  0  0  0  0  0  0  0  0  0
  -24.3820  -36.7110   23.4390 C   0  0  0  0  0  1  0  0  0  0  0  0
  -25.6170  -36.2270   24.2150 C   0  0  0  0  0  3  0  0  0  0  0  0
  -27.7940  -36.9980   25.0520 C   0  0  0  0  0  1  0  0  0  0  0  0
  -26.6830  -37.2500   24.1370 N   0  0  0  0  0  0  0  0  0  0  0  0
  -26.3110  -38.1750   24.3320 H   0  0  0  0  0  0  0  0  0  0  0  0
  -26.4420  -31.5360   25.2490 C   0  0  1  0  0  0  0  0  0  0  0  0
  -25.3610  -31.2870   26.3260 C   0  0  0  0  0  1  0  0  0  0  0  0
  -26.9690  -30.1600   24.7820 C   0  0  0  0  0  1  0  0  0  0  0  0
  -27.6250  -32.2600   25.9280 C   0  0  0  0  0  1  0  0  0  0  0  0
  -32.8440  -24.9960   21.0570 C   0  0  0  0  0  2  0  0  0  0  0  0
  -32.8950  -29.2390   20.1540 C   0  0  0  0  0  3  0  0  0  0  0  0
  -31.8720  -28.6950   20.9560 C   0  0  0  0  0  3  0  0  0  0  0  0
  -33.9200  -28.4040   19.6630 C   0  0  0  0  0  3  0  0  0  0  0  0
  -31.8700  -27.3210   21.2560 C   0  0  0  0  0  3  0  0  0  0  0  0
  -33.9130  -27.0260   19.9470 C   0  0  0  0  0  3  0  0  0  0  0  0
  -32.8800  -26.4810   20.7400 C   0  0  0  0  0  0  0  0  0  0  0  0
  1  3  1  0
  1101  1  0
  2  7  1  0
  3  2  1  0
  3  5  1  0
  4  2  2  0
  7  6  1  0
  8 10  2  0
  9  8  1  0
  9  7  1  0
 11  9  1  0
 12 13  1  0
 12  8  1  0
 14 13  1  0
 14 15  1  0
 16 24  1  0
 17 22  1  0
 18 19  1  0
 18 17  1  0
 20 19  1  0
 20 29  1  0
 20 21  1  0
 22 16  1  0
 22 21  1  0
 23 16  2  0
 24 15  1  0
 24 25  1  0
 26 27  2  0
 27 46  1  0
 28 27  1  0
 28 31  1  0
 29 30  1  0
 29 26  1  0
 30 28  2  0
 31 32  1  0
 32 33  2  0
 34 37  1  0
 34 33  1  0
 35 34  2  0
 36 35  1  0
 36 31  2  0
 37 38  1  0
 38 39  1  0
 39 40  2  0
 41 40  1  0
 41 45  1  0
 42 41  2  0
 43 38  2  0
 43 42  1  0
 44 43  1  0
 46 47  1  0
 47 50  1  0
 47 49  1  0
 48 46  2  0
 51 26  1  0
 51 52  1  0
 53 51  1  0
 54 56  2  0
 54  1  1  0
 55 54  1  0
 57 55  1  0
 58 55  1  0
 58 59  1  0
 59 60  1  0
 60 62  1  0
 61 72  2  0
 62 67  1  0
 63 71  1  0
 63 73  1  0
 64 70  1  0
 64 66  1  0
 65 71  1  0
 66 65  1  0
 67 66  2  0
 68 69  1  0
 68 62  2  0
 69 64  2  0
 70 63  1  0
 71 61  1  0
 73 75  2  0
 74 73  1  0
 76 74  1  0
 77 86  2  0
 77 82  1  0
 78 74  1  0
 78 82  1  0
 79 78  1  0
 80 81  1  0
 80 79  1  0
 81 77  1  0
 82 83  2  0
 83 84  1  0
 85 84  2  0
 86 85  1  0
 87 61  1  0
 87 88  1  0
 87 97  1  0
 88 91  1  0
 89 93  1  0
 89 88  1  0
 90 89  2  0
 93 92  1  0
 95 93  1  0
 95 96  1  0
 95 94  1  0
 97100  1  1
 97 98  1  0
 99 97  1  0
102103  1  0
103105  2  0
104106  1  0
104102  2  0
106107  2  0
107101  1  0
107105  1  0
M  ISO  4  16 100  24 100  59 101  60 101
M  END
>  <TORSDO>  (27) 
F 28

>  <SCORE>  (27) 
-9.211

>  <name>  (27) 
27

>  <ligand_id>  (27) 
27

>  <original_smiles>  (27) 
[H]c1c([H])c([H])c(C([H])([H])C([H])(C(=O)N([H])C([H])([H])C([H])([H])Oc2c([H])c([H])c3c(c2[H])C([H])([H])N(C(=O)C([H])(N([H])C(=O)C([H])(N([H])C([H])([H])[H])C([H])([H])[H])C(C([H])([H])[H])(C([H])([H])[H])C([H])([H])[H])C([H])(C(=O)N([H])C2([H])c4c([H])c([H])c([H])c([H])c4C([H])([H])C([H])([H])C2([H])[H])C3([H])[H])N([H])C(=O)C([H])(N([H])C(=O)C([H])([H])C([H])([H])C([H])([H])C([H])([H])N([H])C(=O)N2C([H])([H])C([H])([H])C([H])([H])C([H])(n3nc(-c4c([H])c([H])c(Oc5c([H])c([H])c(F)c([H])c5F)c([H])c4[H])c(C(=O)N([H])[H])c3N([H])[H])C2([H])[H])C([H])([H])[H])c([H])c1[H]

>  <smiles>  (27) 
[H]c1c([H])c([H])c(C([H])([H])C([H])(C(=O)N([H])C([H])([H])C([H])([H])Oc2c([H])c([H])c3c(c2[H])C([H])([H])N(C(=O)C([H])(N([H])C(=O)C([H])(N([H])C([H])([H])[H])C([H])([H])[H])C(C([H])([H])[H])(C([H])([H])[H])C([H])([H])[H])C([H])(C(=O)N([H])C2([H])c4c([H])c([H])c([H])c([H])c4C([H])([H])C([H])([H])C2([H])[H])C3([H])[H])N([H])C(=O)C([H])(N([H])C(=O)C([H])([H])C([H])([H])C([H])([H])C([H])([H])N([H])C(=O)N2C([H])([H])C([H])([H])C([H])([H])C([H])(n3nc(-c4c([H])c([H])c(Oc5c([H])c([H])c(F)c([H])c5F)c([H])c4[H])c(C(=O)N([H])[H])c3N([H])[H])C2([H])[H])C([H])([H])[H])c([H])c1[H]

$$$$
28:0:0
     RDKit          3D

114121  0  0  1  0  0  0  0  0999 V2000
  -32.1760  -23.8890   19.7740 C   0  0  0  0  0  3  0  0  0  0  0  0
  -33.4860  -24.0340   19.4930 N   0  0  0  0  0  0  0  0  0  0  0  0
  -31.4070  -23.0340   19.0760 N   0  0  0  0  0  0  0  0  0  0  0  0
  -31.6070  -24.5800   20.7830 N   0  0  0  0  0  0  0  0  0  0  0  0
  -33.9040  -23.5160   18.7340 H   0  0  0  0  0  0  0  0  0  0  0  0
  -30.4140  -23.0630   19.2600 H   0  0  0  0  0  0  0  0  0  0  0  0
  -32.1480  -25.2990   21.2400 H   0  0  0  0  0  0  0  0  0  0  0  0
  -34.4410  -24.9000   20.2030 C   0  0  0  0  0  2  0  0  0  0  0  0
  -35.4930  -25.1970   19.1820 C   0  0  0  0  0  0  0  0  0  0  0  0
  -35.4390  -26.3460   18.5040 N   0  0  0  0  0  4  0  0  0  0  0  0
  -36.4320  -24.2820   18.9190 N   0  0  0  0  0  0  0  0  0  0  0  0
  -34.6910  -26.9960   18.6880 H   0  0  0  0  0  0  0  0  0  0  0  0
  -36.1300  -26.6240   17.8260 H   0  0  0  0  0  0  0  0  0  0  0  0
  -36.4280  -23.4040   19.4160 H   0  0  0  0  0  0  0  0  0  0  0  0
  -37.1820  -24.4380   18.2660 H   0  0  0  0  0  0  0  0  0  0  0  0
  -31.7790  -22.1100   17.9940 C   0  0  0  0  0  2  0  0  0  0  0  0
  -30.6870  -21.0400   17.7940 C   0  0  0  0  0  2  0  0  0  0  0  0
  -30.4370  -20.1480   19.0360 C   0  0  0  0  0  2  0  0  0  0  0  0
  -30.1150  -18.6810   18.6680 C   0  0  0  0  0  3  0  0  0  0  0  0
  -31.4600  -16.6210   18.1590 C   0  0  0  0  0  0  0  0  0  0  0  0
  -32.8580  -16.0170   18.1100 C   0  0  0  0  0  1  0  0  0  0  0  0
  -31.3400  -17.8670   18.6450 N   0  0  0  0  0  0  0  0  0  0  0  0
  -30.5130  -15.9760   17.7100 O   0  0  0  0  0  0  0  0  0  0  0  0
  -32.1780  -18.2890   19.0220 H   0  0  0  0  0  0  0  0  0  0  0  0
  -28.9180  -18.0480   19.4350 C   0  0  0  0  0  0  0  0  0  0  0  0
  -29.0240  -17.5060   20.6620 N   0  0  0  0  0  0  0  0  0  0  0  0
  -27.8240  -18.0100   18.8760 O   0  0  0  0  0  0  0  0  0  0  0  0
  -28.1690  -17.0780   20.9890 H   0  0  0  0  0  0  0  0  0  0  0  0
  -30.0670  -17.6140   21.6770 C   0  0  0  0  0  2  0  0  0  0  0  0
  -31.1250  -16.4960   21.6370 C   0  0  0  0  0  2  0  0  0  0  0  0
  -31.2490  -14.1180   20.9300 C   0  0  0  0  0  0  0  0  0  0  0  0
  -30.8960  -12.0820   19.6120 C   0  0  0  0  0  2  0  0  0  0  0  0
  -30.0030  -12.4250   18.4020 C   0  0  0  0  0  2  0  0  0  0  0  0
  -28.5090  -12.3300   18.7680 C   0  0  0  0  0  2  0  0  0  0  0  0
  -28.1680  -13.0980   20.0720 C   0  0  0  0  0  3  0  0  0  0  0  0
  -29.1590  -12.7300   21.1980 C   0  0  0  0  0  2  0  0  0  0  0  0
  -30.5220  -12.9940   20.7010 N   0  0  0  0  0  0  0  0  0  0  0  0
  -32.4250  -14.2450   20.5860 O   0  0  0  0  0  0  0  0  0  0  0  0
  -30.5500  -15.1700   21.3940 N   0  0  0  0  0  0  0  0  0  0  0  0
  -29.5600  -15.0500   21.5510 H   0  0  0  0  0  0  0  0  0  0  0  0
  -25.7640  -13.7950   20.6700 C   0  0  0  0  0  0  0  0  0  0  0  0
  -24.6510  -13.0600   20.9840 C   0  0  0  0  0  0  0  0  0  0  0  0
  -25.0630  -11.6950   20.9530 C   0  0  0  0  0  0  0  0  0  0  0  0
  -26.7850  -12.8770   20.4780 N   0  0  0  0  0  0  0  0  0  0  0  0
  -26.3650  -11.6100   20.7070 N   0  0  0  0  0  0  0  0  0  0  0  0
  -24.2820  -10.4590   21.0810 C   0  0  0  0  0  0  0  0  0  0  0  0
  -24.6410   -9.4500   22.0030 C   0  0  0  0  0  3  0  0  0  0  0  0
  -23.8610   -8.2810   22.1200 C   0  0  0  0  0  3  0  0  0  0  0  0
  -22.7120   -8.1120   21.3130 C   0  0  0  0  0  0  0  0  0  0  0  0
  -22.3760   -9.1090   20.3790 C   0  0  0  0  0  3  0  0  0  0  0  0
  -23.1550  -10.2720   20.2580 C   0  0  0  0  0  3  0  0  0  0  0  0
  -21.9070   -7.0000   21.3430 O   0  0  0  0  0  0  0  0  0  0  0  0
  -21.7620   -6.2430   22.4790 C   0  0  0  0  0  0  0  0  0  0  0  0
  -21.2580   -6.7910   23.6770 C   0  0  0  0  0  3  0  0  0  0  0  0
  -21.0590   -5.9650   24.8020 C   0  0  0  0  0  3  0  0  0  0  0  0
  -21.3530   -4.5900   24.7270 C   0  0  0  0  0  0  0  0  0  0  0  0
  -21.8470   -4.0400   23.5310 C   0  0  0  0  0  3  0  0  0  0  0  0
  -22.0480   -4.8650   22.4100 C   0  0  0  0  0  0  0  0  0  0  0  0
  -22.5040   -4.3270   21.2530 F   0  0  0  0  0  0  0  0  0  0  0  0
  -21.1600   -3.7930   25.8020 F   0  0  0  0  0  0  0  0  0  0  0  0
  -23.2630  -13.5870   21.2010 C   0  0  0  0  0  0  0  0  0  0  0  0
  -22.4710  -12.9100   22.0280 N   0  0  0  0  0  0  0  0  0  0  0  0
  -22.8860  -14.6270   20.6690 O   0  0  0  0  0  0  0  0  0  0  0  0
  -22.7910  -12.0660   22.4820 H   0  0  0  0  0  0  0  0  0  0  0  0
  -21.5350  -13.2430   22.2150 H   0  0  0  0  0  0  0  0  0  0  0  0
  -25.9820  -15.1600   20.5170 N   0  0  0  0  0  0  0  0  0  0  0  0
  -25.2230  -15.8320   20.5610 H   0  0  0  0  0  0  0  0  0  0  0  0
  -26.8330  -15.5540   20.1390 H   0  0  0  0  0  0  0  0  0  0  0  0
  -30.2050  -24.4840   21.2330 C   0  0  0  0  0  3  0  0  0  0  0  0
  -30.1250  -23.5580   22.3520 N   0  0  0  0  0  0  0  0  0  0  0  0
  -30.5670  -23.9640   23.1670 H   0  0  0  0  0  0  0  0  0  0  0  0
  -30.6550  -22.7190   22.1610 H   0  0  0  0  0  0  0  0  0  0  0  0
  -29.6290  -25.8550   21.6510 C   0  0  0  0  0  2  0  0  0  0  0  0
  -29.4520  -26.6740   20.4980 O   0  0  0  0  0  0  0  0  0  0  0  0
  -24.8910  -31.3990   23.2100 C   0  0  0  0  0  0  0  0  0  0  0  0
  -28.2130  -27.2560   20.4240 C   0  0  0  0  0  0  0  0  0  0  0  0
  -23.9580  -29.8400   21.5290 C   0  0  0  0  0  3  0  0  0  0  0  0
  -25.6660  -28.4480   20.2430 C   0  0  0  0  0  0  0  0  0  0  0  0
  -26.4290  -30.4870   21.4770 C   0  0  0  0  0  2  0  0  0  0  0  0
  -26.7120  -29.1230   20.8870 C   0  0  0  0  0  0  0  0  0  0  0  0
  -27.9890  -28.5340   20.9790 C   0  0  0  0  0  3  0  0  0  0  0  0
  -27.1560  -26.5840   19.7760 C   0  0  0  0  0  3  0  0  0  0  0  0
  -25.8820  -27.1760   19.6850 C   0  0  0  0  0  3  0  0  0  0  0  0
  -24.3310  -29.1580   20.1850 C   0  0  0  0  0  2  0  0  0  0  0  0
  -25.1050  -30.5920   22.1330 N   0  0  0  0  0  0  0  0  0  0  0  0
  -23.7520  -31.5570   23.6730 O   0  0  0  0  0  0  0  0  0  0  0  0
  -23.3620  -28.7710   22.4720 C   0  0  0  0  0  0  0  0  0  0  0  0
  -22.1230  -28.3410   22.1810 N   0  0  0  0  0  0  0  0  0  0  0  0
  -24.0150  -28.3320   23.4230 O   0  0  0  0  0  0  0  0  0  0  0  0
  -21.6520  -28.7570   21.3890 H   0  0  0  0  0  0  0  0  0  0  0  0
  -19.0320  -26.4730   22.2180 C   0  0  0  0  0  0  0  0  0  0  0  0
  -21.3800  -27.3120   22.9040 C   0  0  0  0  0  3  0  0  0  0  0  0
  -21.8810  -25.8980   22.5340 C   0  0  0  0  0  2  0  0  0  0  0  0
  -21.0890  -25.2570   21.3880 C   0  0  0  0  0  2  0  0  0  0  0  0
  -19.6080  -25.1450   21.7550 C   0  0  0  0  0  2  0  0  0  0  0  0
  -19.8670  -27.4960   22.7440 C   0  0  0  0  0  0  0  0  0  0  0  0
  -19.2850  -28.7260   23.1270 C   0  0  0  0  0  3  0  0  0  0  0  0
  -17.9000  -28.9400   22.9940 C   0  0  0  0  0  3  0  0  0  0  0  0
  -17.0760  -27.9180   22.4890 C   0  0  0  0  0  3  0  0  0  0  0  0
  -17.6420  -26.6880   22.1080 C   0  0  0  0  0  3  0  0  0  0  0  0
  -26.0570  -32.1780   23.8940 C   0  0  0  0  0  3  0  0  0  0  0  0
  -25.5800  -33.5410   24.1640 N   0  0  0  0  0  0  0  0  0  0  0  0
  -25.8650  -34.6110   23.4060 C   0  0  0  0  0  0  0  0  0  0  0  0
  -26.6280  -34.5590   22.4360 O   0  0  0  0  0  0  0  0  0  0  0  0
  -24.9070  -33.6460   24.9090 H   0  0  0  0  0  0  0  0  0  0  0  0
  -24.0000  -36.2050   22.8590 C   0  0  0  0  0  1  0  0  0  0  0  0
  -25.1990  -35.9460   23.7850 C   0  0  0  0  0  3  0  0  0  0  0  0
  -27.1440  -37.0630   24.7830 C   0  0  0  0  0  1  0  0  0  0  0  0
  -26.1250  -37.0980   23.7370 N   0  0  0  0  0  0  0  0  0  0  0  0
  -25.6150  -37.9720   23.8210 H   0  0  0  0  0  0  0  0  0  0  0  0
  -26.5710  -31.4930   25.2200 C   0  0  1  0  0  0  0  0  0  0  0  0
  -25.4440  -31.1590   26.2240 C   0  0  0  0  0  1  0  0  0  0  0  0
  -27.3210  -30.1810   24.8980 C   0  0  0  0  0  1  0  0  0  0  0  0
  -27.5840  -32.4200   25.9310 C   0  0  0  0  0  1  0  0  0  0  0  0
  1  3  1  0
  1  4  1  0
  2  1  1  0
  2  8  1  0
  3  6  1  0
  4 69  1  0
  4  7  1  0
  5  2  1  0
  9  8  1  0
 10 12  1  0
 10  9  2  0
 11  9  1  0
 11 14  1  0
 13 10  1  0
 15 11  1  0
 16  3  1  0
 17 16  1  0
 17 18  1  0
 19 18  1  0
 19 25  1  0
 20 22  1  0
 21 20  1  0
 22 19  1  0
 22 24  1  0
 23 20  2  0
 25 26  1  0
 26 28  1  0
 26 29  1  0
 27 25  2  0
 30 29  1  0
 31 39  1  0
 32 37  1  0
 33 34  1  0
 33 32  1  0
 35 34  1  0
 35 44  1  0
 35 36  1  0
 37 31  1  0
 37 36  1  0
 38 31  2  0
 39 40  1  0
 39 30  1  0
 41 42  2  0
 42 61  1  0
 43 42  1  0
 43 46  1  0
 44 41  1  0
 44 45  1  0
 45 43  2  0
 46 47  1  0
 47 48  2  0
 49 52  1  0
 49 48  1  0
 50 49  2  0
 51 50  1  0
 51 46  2  0
 52 53  1  0
 53 54  1  0
 54 55  2  0
 56 55  1  0
 56 60  1  0
 57 56  2  0
 58 53  2  0
 58 57  1  0
 59 58  1  0
 61 62  1  0
 62 65  1  0
 62 64  1  0
 63 61  2  0
 66 67  1  0
 66 41  1  0
 68 66  1  0
 69 73  1  0
 69 70  1  0
 70 71  1  0
 72 70  1  0
 74 73  1  0
 75 86  2  0
 76 74  1  0
 76 81  1  0
 77 85  1  0
 77 87  1  0
 78 80  1  0
 79 85  1  0
 80 81  2  0
 80 79  1  0
 82 76  2  0
 83 82  1  0
 83 78  2  0
 84 78  1  0
 84 77  1  0
 85 75  1  0
 87 89  2  0
 88 87  1  0
 90 88  1  0
 91 96  1  0
 92 88  1  0
 93 92  1  0
 94 95  1  0
 94 93  1  0
 95 91  1  0
 96 92  1  0
 96 97  2  0
 98 97  1  0
 99 98  2  0
100 91  2  0
100 99  1  0
101 75  1  0
101102  1  0
101111  1  0
102105  1  0
103107  1  0
103102  1  0
104103  2  0
107106  1  0
109107  1  0
109110  1  0
109108  1  0
111114  1  1
111112  1  0
113111  1  0
M  ISO  4  31 100  39 100  73 101  74 101
M  END
>  <TORSDO>  (28) 
F 29

>  <SCORE>  (28) 
-9.852

>  <name>  (28) 
28

>  <ligand_id>  (28) 
28

>  <original_smiles>  (28) 
[H]c1c([H])c([H])c2c(c1[H])C([H])([H])C([H])([H])C([H])([H])C2([H])N([H])C(=O)C1([H])N(C(=O)C([H])(N([H])C(=O)C([H])(N([H])C([H])([H])[H])C([H])([H])[H])C(C([H])([H])[H])(C([H])([H])[H])C([H])([H])[H])C([H])([H])c2c([H])c(OC([H])([H])C([H])(N([H])[H])[N+]([H])=C(N([H])C([H])([H])C(N([H])[H])=[N+]([H])[H])N([H])C([H])([H])C([H])([H])C([H])([H])C([H])(C(=O)N([H])C([H])([H])C([H])([H])N([H])C(=O)N3C([H])([H])C([H])([H])C([H])([H])C([H])(n4nc(-c5c([H])c([H])c(Oc6c([H])c([H])c(F)c([H])c6F)c([H])c5[H])c(C(=O)N([H])[H])c4N([H])[H])C3([H])[H])N([H])C(=O)C([H])([H])[H])c([H])c([H])c2C1([H])[H]

>  <smiles>  (28) 
[H]c1c([H])c([H])c2c(c1[H])C([H])([H])C([H])([H])C([H])([H])C2([H])N([H])C(=O)C1([H])N(C(=O)C([H])(N([H])C(=O)C([H])(N([H])C([H])([H])[H])C([H])([H])[H])C(C([H])([H])[H])(C([H])([H])[H])C([H])([H])[H])C([H])([H])c2c([H])c(OC([H])([H])C([H])(N([H])[H])[N+]([H])=C(N([H])C([H])([H])C(N([H])[H])=[N+]([H])[H])N([H])C([H])([H])C([H])([H])C([H])([H])C([H])(C(=O)N([H])C([H])([H])C([H])([H])N([H])C(=O)N3C([H])([H])C([H])([H])C([H])([H])C([H])(n4nc(-c5c([H])c([H])c(Oc6c([H])c([H])c(F)c([H])c6F)c([H])c5[H])c(C(=O)N([H])[H])c4N([H])[H])C3([H])[H])N([H])C(=O)C([H])([H])[H])c([H])c([H])c2C1([H])[H]

$$$$
29:0:0
     RDKit          3D

 93100  0  0  1  0  0  0  0  0999 V2000
  -30.0720  -23.4950   20.2060 C   0  0  0  0  0  0  0  0  0  0  0  0
  -30.1690  -24.6420   20.8940 N   0  0  0  0  0  0  0  0  0  0  0  0
  -30.4000  -23.3970   19.0210 O   0  0  0  0  0  0  0  0  0  0  0  0
  -29.8820  -24.6270   21.8650 H   0  0  0  0  0  0  0  0  0  0  0  0
  -29.5150  -22.2880   20.9730 C   0  0  0  0  0  2  0  0  0  0  0  0
  -29.4930  -20.9660   20.1680 C   0  0  0  0  0  2  0  0  0  0  0  0
  -28.8040  -19.7950   20.9040 C   0  0  0  0  0  2  0  0  0  0  0  0
  -29.7020  -17.4550   20.8010 C   0  0  0  0  0  0  0  0  0  0  0  0
  -29.7400  -18.7180   21.2500 N   0  0  0  0  0  0  0  0  0  0  0  0
  -28.8600  -17.0560   19.9910 O   0  0  0  0  0  0  0  0  0  0  0  0
  -30.4520  -18.9400   21.9360 H   0  0  0  0  0  0  0  0  0  0  0  0
  -30.7640  -16.4940   21.3510 C   0  0  0  0  0  2  0  0  0  0  0  0
  -30.8340  -14.2870   20.1850 C   0  0  0  0  0  0  0  0  0  0  0  0
  -30.4310  -12.1930   18.9370 C   0  0  0  0  0  2  0  0  0  0  0  0
  -29.4330  -12.4190   17.7810 C   0  0  0  0  0  2  0  0  0  0  0  0
  -27.9730  -12.3390   18.2690 C   0  0  0  0  0  2  0  0  0  0  0  0
  -27.7160  -13.1520   19.5650 C   0  0  0  0  0  3  0  0  0  0  0  0
  -28.8070  -12.8530   20.6220 C   0  0  0  0  0  2  0  0  0  0  0  0
  -30.1200  -13.1440   20.0160 N   0  0  0  0  0  0  0  0  0  0  0  0
  -31.8270  -14.5760   19.5090 O   0  0  0  0  0  0  0  0  0  0  0  0
  -30.3820  -15.0940   21.1500 N   0  0  0  0  0  0  0  0  0  0  0  0
  -29.5990  -14.7580   21.6910 H   0  0  0  0  0  0  0  0  0  0  0  0
  -25.3500  -13.8280   20.3280 C   0  0  0  0  0  0  0  0  0  0  0  0
  -24.2690  -13.0850   20.7340 C   0  0  0  0  0  0  0  0  0  0  0  0
  -24.6910  -11.7190   20.6980 C   0  0  0  0  0  0  0  0  0  0  0  0
  -26.3650  -12.9170   20.0800 N   0  0  0  0  0  0  0  0  0  0  0  0
  -25.9720  -11.6440   20.3560 N   0  0  0  0  0  0  0  0  0  0  0  0
  -23.9380  -10.4770   20.9240 C   0  0  0  0  0  0  0  0  0  0  0  0
  -24.3720   -9.5110   21.8600 C   0  0  0  0  0  3  0  0  0  0  0  0
  -23.6240   -8.3330   22.0720 C   0  0  0  0  0  3  0  0  0  0  0  0
  -22.4310   -8.1090   21.3450 C   0  0  0  0  0  0  0  0  0  0  0  0
  -22.0160   -9.0640   20.3990 C   0  0  0  0  0  3  0  0  0  0  0  0
  -22.7610  -10.2350   20.1850 C   0  0  0  0  0  3  0  0  0  0  0  0
  -21.6580   -6.9780   21.4620 O   0  0  0  0  0  0  0  0  0  0  0  0
  -21.6080   -6.2580   22.6270 C   0  0  0  0  0  0  0  0  0  0  0  0
  -21.2210   -6.8480   23.8500 C   0  0  0  0  0  3  0  0  0  0  0  0
  -21.1150   -6.0550   25.0100 C   0  0  0  0  0  3  0  0  0  0  0  0
  -21.3890   -4.6760   24.9480 C   0  0  0  0  0  0  0  0  0  0  0  0
  -21.7710   -4.0860   23.7320 C   0  0  0  0  0  3  0  0  0  0  0  0
  -21.8770   -4.8750   22.5720 C   0  0  0  0  0  0  0  0  0  0  0  0
  -22.2220   -4.2990   21.3960 F   0  0  0  0  0  0  0  0  0  0  0  0
  -21.2830   -3.9110   26.0600 F   0  0  0  0  0  0  0  0  0  0  0  0
  -22.8960  -13.6010   21.0500 C   0  0  0  0  0  0  0  0  0  0  0  0
  -22.1810  -12.9250   21.9440 N   0  0  0  0  0  0  0  0  0  0  0  0
  -22.4610  -14.6320   20.5400 O   0  0  0  0  0  0  0  0  0  0  0  0
  -22.5490  -12.0870   22.3700 H   0  0  0  0  0  0  0  0  0  0  0  0
  -21.2620  -13.2510   22.2040 H   0  0  0  0  0  0  0  0  0  0  0  0
  -25.5540  -15.1900   20.1320 N   0  0  0  0  0  0  0  0  0  0  0  0
  -24.8320  -15.8880   20.2680 H   0  0  0  0  0  0  0  0  0  0  0  0
  -26.4320  -15.5870   19.8150 H   0  0  0  0  0  0  0  0  0  0  0  0
  -30.5770  -25.9410   20.3530 C   0  0  0  0  0  2  0  0  0  0  0  0
  -29.5770  -27.0390   20.7620 C   0  0  0  0  0  2  0  0  0  0  0  0
  -28.3530  -26.6610   20.1510 O   0  0  0  0  0  0  0  0  0  0  0  0
  -24.5590  -31.8950   23.2690 C   0  0  0  0  0  0  0  0  0  0  0  0
  -27.2430  -27.4660   20.2260 C   0  0  0  0  0  0  0  0  0  0  0  0
  -23.3630  -30.4810   21.6250 C   0  0  0  0  0  3  0  0  0  0  0  0
  -24.8320  -28.9400   20.2240 C   0  0  0  0  0  0  0  0  0  0  0  0
  -25.8880  -30.8500   21.4470 C   0  0  0  0  0  2  0  0  0  0  0  0
  -25.9850  -29.4780   20.8150 C   0  0  0  0  0  0  0  0  0  0  0  0
  -27.1970  -28.7500   20.8180 C   0  0  0  0  0  3  0  0  0  0  0  0
  -26.0760  -26.9370   19.6420 C   0  0  0  0  0  3  0  0  0  0  0  0
  -24.8720  -27.6650   19.6370 C   0  0  0  0  0  3  0  0  0  0  0  0
  -23.5800  -29.7830   20.2560 C   0  0  0  0  0  2  0  0  0  0  0  0
  -24.6190  -31.0880   22.1710 N   0  0  0  0  0  0  0  0  0  0  0  0
  -23.4740  -32.1730   23.7980 O   0  0  0  0  0  0  0  0  0  0  0  0
  -22.7020  -29.4710   22.5890 C   0  0  0  0  0  0  0  0  0  0  0  0
  -21.3770  -29.3030   22.4570 N   0  0  0  0  0  0  0  0  0  0  0  0
  -23.3780  -28.8410   23.4060 O   0  0  0  0  0  0  0  0  0  0  0  0
  -20.8950  -29.8600   21.7660 H   0  0  0  0  0  0  0  0  0  0  0  0
  -17.9880  -28.1600   22.9520 C   0  0  0  0  0  0  0  0  0  0  0  0
  -20.5480  -28.3730   23.2230 C   0  0  0  0  0  3  0  0  0  0  0  0
  -20.6280  -26.9440   22.6400 C   0  0  0  0  0  2  0  0  0  0  0  0
  -19.5200  -26.6430   21.6250 C   0  0  0  0  0  2  0  0  0  0  0  0
  -18.1410  -26.8110   22.2690 C   0  0  0  0  0  2  0  0  0  0  0  0
  -19.1190  -28.9010   23.3850 C   0  0  0  0  0  0  0  0  0  0  0  0
  -18.9230  -30.1680   23.9760 C   0  0  0  0  0  3  0  0  0  0  0  0
  -17.6280  -30.6910   24.1440 C   0  0  0  0  0  3  0  0  0  0  0  0
  -16.5110  -29.9450   23.7340 C   0  0  0  0  0  3  0  0  0  0  0  0
  -16.6910  -28.6810   23.1430 C   0  0  0  0  0  3  0  0  0  0  0  0
  -25.8440  -32.5230   23.8960 C   0  0  0  0  0  3  0  0  0  0  0  0
  -25.5380  -33.9230   24.2170 N   0  0  0  0  0  0  0  0  0  0  0  0
  -25.8910  -34.9710   23.4610 C   0  0  0  0  0  0  0  0  0  0  0  0
  -26.5780  -34.8600   22.4420 O   0  0  0  0  0  0  0  0  0  0  0  0
  -24.9280  -34.0810   25.0050 H   0  0  0  0  0  0  0  0  0  0  0  0
  -24.1780  -36.7700   23.0710 C   0  0  0  0  0  1  0  0  0  0  0  0
  -25.4030  -36.3630   23.9070 C   0  0  0  0  0  3  0  0  0  0  0  0
  -27.5270  -37.2330   24.7750 C   0  0  0  0  0  1  0  0  0  0  0  0
  -26.4430  -37.4100   23.8110 N   0  0  0  0  0  0  0  0  0  0  0  0
  -26.0410  -38.3310   23.9510 H   0  0  0  0  0  0  0  0  0  0  0  0
  -26.3490  -31.7570   25.1790 C   0  0  1  0  0  0  0  0  0  0  0  0
  -25.2440  -31.5270   26.2370 C   0  0  0  0  0  1  0  0  0  0  0  0
  -26.9370  -30.3790   24.7970 C   0  0  0  0  0  1  0  0  0  0  0  0
  -27.4920  -32.5540   25.8500 C   0  0  0  0  0  1  0  0  0  0  0  0
  1  2  1  0
  1  5  1  0
  2  4  1  0
  3  1  2  0
  6  7  1  0
  6  5  1  0
  7  9  1  0
  8  9  1  0
  8 12  1  0
  9 11  1  0
 10  8  2  0
 13 21  1  0
 14 19  1  0
 15 16  1  0
 15 14  1  0
 17 16  1  0
 17 26  1  0
 17 18  1  0
 19 13  1  0
 19 18  1  0
 20 13  2  0
 21 12  1  0
 21 22  1  0
 23 24  2  0
 24 43  1  0
 25 24  1  0
 25 28  1  0
 26 23  1  0
 26 27  1  0
 27 25  2  0
 28 29  1  0
 29 30  2  0
 31 34  1  0
 31 30  1  0
 32 31  2  0
 33 32  1  0
 33 28  2  0
 34 35  1  0
 35 36  1  0
 36 37  2  0
 38 37  1  0
 38 42  1  0
 39 38  2  0
 40 35  2  0
 40 39  1  0
 41 40  1  0
 43 44  1  0
 44 47  1  0
 44 46  1  0
 45 43  2  0
 48 49  1  0
 48 23  1  0
 50 48  1  0
 51 52  1  0
 51  2  1  0
 53 55  1  0
 53 52  1  0
 54 65  2  0
 55 60  1  0
 56 64  1  0
 56 66  1  0
 57 63  1  0
 57 59  1  0
 58 64  1  0
 59 60  2  0
 59 58  1  0
 61 55  2  0
 62 61  1  0
 62 57  2  0
 63 56  1  0
 64 54  1  0
 66 68  2  0
 67 66  1  0
 69 67  1  0
 70 79  2  0
 70 75  1  0
 71 67  1  0
 71 75  1  0
 72 71  1  0
 73 74  1  0
 73 72  1  0
 74 70  1  0
 75 76  2  0
 76 77  1  0
 78 77  2  0
 79 78  1  0
 80 54  1  0
 80 81  1  0
 80 90  1  0
 81 84  1  0
 82 86  1  0
 82 81  1  0
 83 82  2  0
 86 85  1  0
 88 86  1  0
 88 89  1  0
 88 87  1  0
 90 93  1  1
 90 91  1  0
 92 90  1  0
M  ISO  4  13 100  21 100  52 101  53 101
M  END
>  <TORSDO>  (29) 
F 23

>  <SCORE>  (29) 
-12.778

>  <name>  (29) 
29

>  <ligand_id>  (29) 
29

>  <original_smiles>  (29) 
[H]c1c([H])c([H])c2c(c1[H])C([H])([H])C([H])([H])C([H])([H])C2([H])N([H])C(=O)C1([H])N(C(=O)C([H])(N([H])C(=O)C([H])(N([H])C([H])([H])[H])C([H])([H])[H])C(C([H])([H])[H])(C([H])([H])[H])C([H])([H])[H])C([H])([H])c2c([H])c(OC([H])([H])C([H])([H])N([H])C(=O)C([H])([H])C([H])([H])C([H])([H])N([H])C(=O)C([H])([H])N([H])C(=O)N3C([H])([H])C([H])([H])C([H])([H])C([H])(n4nc(-c5c([H])c([H])c(Oc6c([H])c([H])c(F)c([H])c6F)c([H])c5[H])c(C(=O)N([H])[H])c4N([H])[H])C3([H])[H])c([H])c([H])c2C1([H])[H]

>  <smiles>  (29) 
[H]c1c([H])c([H])c2c(c1[H])C([H])([H])C([H])([H])C([H])([H])C2([H])N([H])C(=O)C1([H])N(C(=O)C([H])(N([H])C(=O)C([H])(N([H])C([H])([H])[H])C([H])([H])[H])C(C([H])([H])[H])(C([H])([H])[H])C([H])([H])[H])C([H])([H])c2c([H])c(OC([H])([H])C([H])([H])N([H])C(=O)C([H])([H])C([H])([H])C([H])([H])N([H])C(=O)C([H])([H])N([H])C(=O)N3C([H])([H])C([H])([H])C([H])([H])C([H])(n4nc(-c5c([H])c([H])c(Oc6c([H])c([H])c(F)c([H])c6F)c([H])c5[H])c(C(=O)N([H])[H])c4N([H])[H])C3([H])[H])c([H])c([H])c2C1([H])[H]

$$$$
30:0:0
     RDKit          3D

 88 95  0  0  1  0  0  0  0  0999 V2000
  -28.5250  -21.6920   20.3140 C   0  0  0  0  0  2  0  0  0  0  0  0
  -29.1610  -19.0150   20.3440 C   0  0  0  0  0  0  0  0  0  0  0  0
  -29.4400  -20.4040   20.1660 N   0  0  0  0  0  0  0  0  0  0  0  0
  -28.0710  -18.7090   20.8230 O   0  0  0  0  0  0  0  0  0  0  0  0
  -30.3660  -20.5910   19.8040 H   0  0  0  0  0  0  0  0  0  0  0  0
  -30.4740  -17.8640   18.4420 C   0  0  0  0  0  1  0  0  0  0  0  0
  -30.1400  -17.7370   19.9470 C   0  0  0  0  0  3  0  0  0  0  0  0
  -30.5240  -14.9980   20.0800 C   0  0  0  0  0  0  0  0  0  0  0  0
  -30.3110  -12.6630   19.1080 C   0  0  0  0  0  2  0  0  0  0  0  0
  -29.3340  -12.6610   17.9120 C   0  0  0  0  0  2  0  0  0  0  0  0
  -27.8940  -12.4330   18.4000 C   0  0  0  0  0  2  0  0  0  0  0  0
  -27.5370  -13.3380   19.6050 C   0  0  0  0  0  3  0  0  0  0  0  0
  -28.6390  -13.3510   20.6920 C   0  0  0  0  0  2  0  0  0  0  0  0
  -29.8910  -13.7550   20.0350 N   0  0  0  0  0  0  0  0  0  0  0  0
  -31.7190  -15.0300   19.7730 O   0  0  0  0  0  0  0  0  0  0  0  0
  -29.7900  -16.2110   20.2250 N   0  0  0  0  0  0  0  0  0  0  0  0
  -28.8250  -16.0760   20.4860 H   0  0  0  0  0  0  0  0  0  0  0  0
  -25.1850  -13.8920   20.4410 C   0  0  0  0  0  0  0  0  0  0  0  0
  -24.1390  -13.1050   20.8410 C   0  0  0  0  0  0  0  0  0  0  0  0
  -24.6100  -11.7580   20.7810 C   0  0  0  0  0  0  0  0  0  0  0  0
  -26.2240  -13.0230   20.1580 N   0  0  0  0  0  0  0  0  0  0  0  0
  -25.8900  -11.7340   20.4300 N   0  0  0  0  0  0  0  0  0  0  0  0
  -23.8990  -10.4880   20.9810 C   0  0  0  0  0  0  0  0  0  0  0  0
  -24.3510   -9.5230   21.9070 C   0  0  0  0  0  3  0  0  0  0  0  0
  -23.6350   -8.3220   22.0960 C   0  0  0  0  0  3  0  0  0  0  0  0
  -22.4530   -8.0770   21.3590 C   0  0  0  0  0  0  0  0  0  0  0  0
  -22.0200   -9.0290   20.4190 C   0  0  0  0  0  3  0  0  0  0  0  0
  -22.7370  -10.2220   20.2290 C   0  0  0  0  0  3  0  0  0  0  0  0
  -21.7090   -6.9250   21.4530 O   0  0  0  0  0  0  0  0  0  0  0  0
  -21.6600   -6.1960   22.6140 C   0  0  0  0  0  0  0  0  0  0  0  0
  -21.2210   -6.7620   23.8310 C   0  0  0  0  0  3  0  0  0  0  0  0
  -21.1220   -5.9580   24.9860 C   0  0  0  0  0  3  0  0  0  0  0  0
  -21.4520   -4.5910   24.9220 C   0  0  0  0  0  0  0  0  0  0  0  0
  -21.8820   -4.0260   23.7090 C   0  0  0  0  0  3  0  0  0  0  0  0
  -21.9840   -4.8270   22.5590 C   0  0  0  0  0  0  0  0  0  0  0  0
  -22.3800   -4.2710   21.3880 F   0  0  0  0  0  0  0  0  0  0  0  0
  -21.3490   -3.8160   26.0280 F   0  0  0  0  0  0  0  0  0  0  0  0
  -22.7510  -13.5710   21.1640 C   0  0  0  0  0  0  0  0  0  0  0  0
  -22.0600  -12.8660   22.0530 N   0  0  0  0  0  0  0  0  0  0  0  0
  -22.2900  -14.5960   20.6630 O   0  0  0  0  0  0  0  0  0  0  0  0
  -22.4530  -12.0380   22.4750 H   0  0  0  0  0  0  0  0  0  0  0  0
  -21.1290  -13.1570   22.3140 H   0  0  0  0  0  0  0  0  0  0  0  0
  -25.3310  -15.2630   20.2610 N   0  0  0  0  0  0  0  0  0  0  0  0
  -24.5490  -15.9010   20.3580 H   0  0  0  0  0  0  0  0  0  0  0  0
  -26.1500  -15.7020   19.8620 H   0  0  0  0  0  0  0  0  0  0  0  0
  -29.0040  -23.3150   20.2250 C   0  0  0  0  0  3  0  0  0  0  0  0
  -27.9490  -24.6410   20.1820 C   0  0  0  0  0  3  0  0  0  0  0  0
  -28.2510  -26.1760   20.2470 O   0  0  0  0  0  0  0  0  0  0  0  0
  -24.6730  -31.9060   23.2570 C   0  0  0  0  0  0  0  0  0  0  0  0
  -27.1990  -27.1720   20.1990 C   0  0  0  0  0  0  0  0  0  0  0  0
  -23.4570  -30.5270   21.6140 C   0  0  0  0  0  3  0  0  0  0  0  0
  -24.8890  -28.9460   20.1850 C   0  0  0  0  0  0  0  0  0  0  0  0
  -26.0130  -30.7730   21.4330 C   0  0  0  0  0  2  0  0  0  0  0  0
  -26.0770  -29.3790   20.7860 C   0  0  0  0  0  0  0  0  0  0  0  0
  -27.2360  -28.5110   20.7700 C   0  0  0  0  0  3  0  0  0  0  0  0
  -25.9820  -26.8450   19.5650 C   0  0  0  0  0  3  0  0  0  0  0  0
  -24.8550  -27.6940   19.5570 C   0  0  0  0  0  3  0  0  0  0  0  0
  -23.6680  -29.8520   20.2340 C   0  0  0  0  0  2  0  0  0  0  0  0
  -24.7360  -31.0900   22.1600 N   0  0  0  0  0  0  0  0  0  0  0  0
  -23.5890  -32.1970   23.7880 O   0  0  0  0  0  0  0  0  0  0  0  0
  -22.7720  -29.5180   22.5730 C   0  0  0  0  0  0  0  0  0  0  0  0
  -21.4440  -29.3560   22.4500 N   0  0  0  0  0  0  0  0  0  0  0  0
  -23.4400  -28.8800   23.3940 O   0  0  0  0  0  0  0  0  0  0  0  0
  -20.9580  -29.9260   21.7720 H   0  0  0  0  0  0  0  0  0  0  0  0
  -18.0570  -28.1640   22.9450 C   0  0  0  0  0  0  0  0  0  0  0  0
  -20.6180  -28.4200   23.2190 C   0  0  0  0  0  3  0  0  0  0  0  0
  -20.7140  -26.9840   22.6500 C   0  0  0  0  0  2  0  0  0  0  0  0
  -19.6130  -26.6640   21.6320 C   0  0  0  0  0  2  0  0  0  0  0  0
  -18.2300  -26.8150   22.2710 C   0  0  0  0  0  2  0  0  0  0  0  0
  -19.1770  -28.9240   23.3780 C   0  0  0  0  0  0  0  0  0  0  0  0
  -18.9550  -30.1870   23.9700 C   0  0  0  0  0  3  0  0  0  0  0  0
  -17.6500  -30.6900   24.1310 C   0  0  0  0  0  3  0  0  0  0  0  0
  -16.5450  -29.9250   23.7120 C   0  0  0  0  0  3  0  0  0  0  0  0
  -16.7500  -28.6640   23.1260 C   0  0  0  0  0  3  0  0  0  0  0  0
  -25.9550  -32.5290   23.8840 C   0  0  0  0  0  3  0  0  0  0  0  0
  -26.4610  -31.7500   25.1620 C   0  0  1  0  0  0  0  0  0  0  0  0
  -25.3650  -31.5200   26.2300 C   0  0  0  0  0  1  0  0  0  0  0  0
  -27.0300  -30.3680   24.7680 C   0  0  0  0  0  1  0  0  0  0  0  0
  -27.6230  -32.5270   25.8280 C   0  0  0  0  0  1  0  0  0  0  0  0
  -25.6580  -33.9290   24.2270 N   0  0  0  0  0  0  0  0  0  0  0  0
  -25.9640  -34.9850   23.4610 C   0  0  0  0  0  0  0  0  0  0  0  0
  -26.6000  -34.8810   22.4100 O   0  0  0  0  0  0  0  0  0  0  0  0
  -25.0980  -34.0830   25.0540 H   0  0  0  0  0  0  0  0  0  0  0  0
  -24.2190  -36.7750   23.1820 C   0  0  0  0  0  1  0  0  0  0  0  0
  -25.4950  -36.3750   23.9370 C   0  0  0  0  0  3  0  0  0  0  0  0
  -27.6640  -37.2690   24.6660 C   0  0  0  0  0  1  0  0  0  0  0  0
  -26.5190  -37.4320   23.7740 N   0  0  0  0  0  0  0  0  0  0  0  0
  -26.1180  -38.3530   23.9330 H   0  0  0  0  0  0  0  0  0  0  0  0
  2  4  2  0
  3  1  1  0
  3  2  1  0
  5  3  1  0
  7  6  1  0
  7 16  1  0
  7  2  1  0
  8 16  1  0
  9 14  1  0
 10 11  1  0
 10  9  1  0
 12 11  1  0
 12 21  1  0
 12 13  1  0
 14  8  1  0
 14 13  1  0
 15  8  2  0
 16 17  1  0
 18 19  2  0
 19 38  1  0
 20 19  1  0
 20 23  1  0
 21 22  1  0
 21 18  1  0
 22 20  2  0
 23 24  1  0
 24 25  2  0
 26 29  1  0
 26 25  1  0
 27 26  2  0
 28 27  1  0
 28 23  2  0
 29 30  1  0
 30 31  1  0
 31 32  2  0
 33 32  1  0
 33 37  1  0
 34 33  2  0
 35 30  2  0
 35 34  1  0
 36 35  1  0
 38 39  1  0
 39 42  1  0
 39 41  1  0
 40 38  2  0
 43 44  1  0
 43 18  1  0
 45 43  1  0
 46  1  1  0
 47 46  2  0
 47 48  1  0
 49 60  2  0
 50 48  1  0
 50 55  1  0
 51 59  1  0
 51 61  1  0
 52 58  1  0
 52 54  1  0
 53 59  1  0
 54 53  1  0
 55 54  2  0
 56 50  2  0
 57 56  1  0
 57 52  2  0
 58 51  1  0
 59 49  1  0
 61 63  2  0
 62 61  1  0
 64 62  1  0
 65 74  2  0
 65 70  1  0
 66 62  1  0
 66 70  1  0
 67 66  1  0
 68 69  1  0
 68 67  1  0
 69 65  1  0
 70 71  2  0
 71 72  1  0
 73 72  2  0
 74 73  1  0
 75 49  1  0
 75 80  1  0
 75 76  1  0
 76 79  1  1
 76 77  1  0
 78 76  1  0
 80 83  1  0
 81 85  1  0
 81 80  1  0
 82 81  2  0
 85 84  1  0
 87 88  1  0
 87 85  1  0
 87 86  1  0
M  ISO  4   8 100  16 100  47 101  48 101
M  END
>  <TORSDO>  (30) 
F 20

>  <SCORE>  (30) 
-14.831

>  <name>  (30) 
30

>  <ligand_id>  (30) 
30

>  <original_smiles>  (30) 
[H]c1c([H])c([H])c2c(c1[H])C([H])([H])C([H])([H])C([H])([H])C2([H])N([H])C(=O)C1([H])N(C(=O)C([H])(N([H])C(=O)C([H])(N([H])C([H])([H])[H])C([H])([H])[H])C(C([H])([H])[H])(C([H])([H])[H])C([H])([H])[H])C([H])([H])c2c([H])c(OC([H])([H])C([H])([H])C([H])([H])N([H])C(=O)C([H])(N([H])C(=O)N3C([H])([H])C([H])([H])C([H])([H])C([H])(n4nc(-c5c([H])c([H])c(Oc6c([H])c([H])c(F)c([H])c6F)c([H])c5[H])c(C(=O)N([H])[H])c4N([H])[H])C3([H])[H])C([H])([H])[H])c([H])c([H])c2C1([H])[H]

>  <smiles>  (30) 
[H]c1c([H])c([H])c2c(c1[H])C([H])([H])C([H])([H])C([H])([H])C2([H])N([H])C(=O)C1([H])N(C(=O)C([H])(N([H])C(=O)C([H])(N([H])C([H])([H])[H])C([H])([H])[H])C(C([H])([H])[H])(C([H])([H])[H])C([H])([H])[H])C([H])([H])c2c([H])c(OC([H])([H])C([H])([H])C([H])([H])N([H])C(=O)C([H])(N([H])C(=O)N3C([H])([H])C([H])([H])C([H])([H])C([H])(n4nc(-c5c([H])c([H])c(Oc6c([H])c([H])c(F)c([H])c6F)c([H])c5[H])c(C(=O)N([H])[H])c4N([H])[H])C3([H])[H])C([H])([H])[H])c([H])c([H])c2C1([H])[H]

$$$$
31:0:0
     RDKit          3D

105113  0  0  1  0  0  0  0  0999 V2000
  -25.8300  -23.2060   18.8280 C   0  0  0  0  0  0  0  0  0  0  0  0
  -25.4050  -21.2070   17.3990 C   0  0  0  0  0  0  0  0  0  0  0  0
  -24.5940  -20.8130   16.4080 N   0  0  0  0  0  4  0  0  0  0  0  0
  -25.0030  -22.2490   18.1590 N   0  0  0  0  0  0  0  0  0  0  0  0
  -26.5210  -20.4680   17.5920 N   0  0  0  0  0  0  0  0  0  0  0  0
  -25.4270  -23.7300   19.8700 O   0  0  0  0  0  0  0  0  0  0  0  0
  -23.7490  -21.3250   16.1830 H   0  0  0  0  0  0  0  0  0  0  0  0
  -24.7830  -19.9990   15.8420 H   0  0  0  0  0  0  0  0  0  0  0  0
  -24.0250  -22.1980   18.3950 H   0  0  0  0  0  0  0  0  0  0  0  0
  -26.7710  -19.7830   16.8950 H   0  0  0  0  0  0  0  0  0  0  0  0
  -27.3900  -20.3940   18.7780 C   0  0  0  0  0  2  0  0  0  0  0  0
  -28.7360  -16.8590   18.0820 C   0  0  0  0  0  3  0  0  0  0  0  0
  -30.0190  -16.9370   18.6570 C   0  0  0  0  0  3  0  0  0  0  0  0
  -27.8700  -17.9700   18.1330 C   0  0  0  0  0  3  0  0  0  0  0  0
  -29.5650  -19.2300   19.3500 C   0  0  0  0  0  3  0  0  0  0  0  0
  -30.4320  -18.1160   19.3110 C   0  0  0  0  0  0  0  0  0  0  0  0
  -28.2890  -19.1690   18.7520 C   0  0  0  0  0  0  0  0  0  0  0  0
  -31.8090  -18.2050   19.9040 C   0  0  0  0  0  0  0  0  0  0  0  0
  -31.9280  -18.3160   21.2350 N   0  0  0  0  0  0  0  0  0  0  0  0
  -32.7960  -18.1950   19.1690 O   0  0  0  0  0  0  0  0  0  0  0  0
  -32.8740  -18.4210   21.5750 H   0  0  0  0  0  0  0  0  0  0  0  0
  -30.9190  -18.0370   22.2560 C   0  0  0  0  0  2  0  0  0  0  0  0
  -31.1770  -16.6660   22.9120 C   0  0  0  0  0  2  0  0  0  0  0  0
  -31.0860  -14.8830   21.1710 C   0  0  0  0  0  0  0  0  0  0  0  0
  -30.7870  -13.0500   19.5540 C   0  0  0  0  0  2  0  0  0  0  0  0
  -29.9040  -13.4800   18.3690 C   0  0  0  0  0  2  0  0  0  0  0  0
  -28.4130  -13.2910   18.6980 C   0  0  0  0  0  2  0  0  0  0  0  0
  -28.0210  -13.8960   20.0720 C   0  0  0  0  0  3  0  0  0  0  0  0
  -29.0100  -13.4470   21.1690 C   0  0  0  0  0  2  0  0  0  0  0  0
  -30.3710  -13.8170   20.7370 N   0  0  0  0  0  0  0  0  0  0  0  0
  -32.1710  -15.2080   20.6840 O   0  0  0  0  0  0  0  0  0  0  0  0
  -30.5450  -15.5620   22.1890 N   0  0  0  0  0  0  0  0  0  0  0  0
  -29.6500  -15.2390   22.5230 H   0  0  0  0  0  0  0  0  0  0  0  0
  -25.5410  -14.3970   20.5600 C   0  0  0  0  0  0  0  0  0  0  0  0
  -24.4780  -13.5780   20.8280 C   0  0  0  0  0  0  0  0  0  0  0  0
  -24.9990  -12.2470   20.8360 C   0  0  0  0  0  0  0  0  0  0  0  0
  -26.6410  -13.5640   20.4240 N   0  0  0  0  0  0  0  0  0  0  0  0
  -26.3120  -12.2650   20.6430 N   0  0  0  0  0  0  0  0  0  0  0  0
  -24.3150  -10.9530   20.9570 C   0  0  0  0  0  0  0  0  0  0  0  0
  -24.7060   -9.9990   21.9230 C   0  0  0  0  0  3  0  0  0  0  0  0
  -24.0210   -8.7690   22.0310 C   0  0  0  0  0  3  0  0  0  0  0  0
  -22.9330   -8.4840   21.1730 C   0  0  0  0  0  0  0  0  0  0  0  0
  -22.5630   -9.4280   20.1990 C   0  0  0  0  0  3  0  0  0  0  0  0
  -23.2480  -10.6490   20.0880 C   0  0  0  0  0  3  0  0  0  0  0  0
  -22.2270   -7.3060   21.1880 O   0  0  0  0  0  0  0  0  0  0  0  0
  -22.0560   -6.5840   22.3420 C   0  0  0  0  0  0  0  0  0  0  0  0
  -21.4830   -7.1540   23.4990 C   0  0  0  0  0  3  0  0  0  0  0  0
  -21.2610   -6.3570   24.6400 C   0  0  0  0  0  3  0  0  0  0  0  0
  -21.6040   -4.9910   24.6240 C   0  0  0  0  0  0  0  0  0  0  0  0
  -22.1710   -4.4220   23.4710 C   0  0  0  0  0  3  0  0  0  0  0  0
  -22.3930   -5.2160   22.3320 C   0  0  0  0  0  0  0  0  0  0  0  0
  -22.9200   -4.6560   21.2160 F   0  0  0  0  0  0  0  0  0  0  0  0
  -21.3840   -4.2250   25.7170 F   0  0  0  0  0  0  0  0  0  0  0  0
  -23.0430  -13.9930   20.9760 C   0  0  0  0  0  0  0  0  0  0  0  0
  -22.2780  -13.2770   21.7930 N   0  0  0  0  0  0  0  0  0  0  0  0
  -22.6040  -14.9880   20.4030 O   0  0  0  0  0  0  0  0  0  0  0  0
  -22.6430  -12.4740   22.2820 H   0  0  0  0  0  0  0  0  0  0  0  0
  -21.3130  -13.5390   21.9350 H   0  0  0  0  0  0  0  0  0  0  0  0
  -25.6640  -15.7750   20.4010 N   0  0  0  0  0  0  0  0  0  0  0  0
  -24.8650  -16.3980   20.4500 H   0  0  0  0  0  0  0  0  0  0  0  0
  -26.5230  -16.2490   20.1500 H   0  0  0  0  0  0  0  0  0  0  0  0
  -27.0540  -23.7180   18.0480 C   0  0  0  0  0  2  0  0  0  0  0  0
  -28.1080  -24.4650   18.9170 C   0  0  0  0  0  2  0  0  0  0  0  0
  -28.4970  -25.8640   18.3800 C   0  0  0  0  0  2  0  0  0  0  0  0
  -28.4250  -26.8850   19.3820 O   0  0  0  0  0  0  0  0  0  0  0  0
  -24.7900  -31.7340   23.1180 C   0  0  0  0  0  0  0  0  0  0  0  0
  -27.2290  -27.5530   19.5420 C   0  0  0  0  0  0  0  0  0  0  0  0
  -23.4720  -30.4310   21.4810 C   0  0  0  0  0  3  0  0  0  0  0  0
  -24.8240  -29.0090   19.8600 C   0  0  0  0  0  0  0  0  0  0  0  0
  -25.9730  -30.8290   21.1230 C   0  0  0  0  0  2  0  0  0  0  0  0
  -26.0190  -29.5030   20.3980 C   0  0  0  0  0  0  0  0  0  0  0  0
  -27.2200  -28.7730   20.2530 C   0  0  0  0  0  3  0  0  0  0  0  0
  -26.0090  -27.0680   19.0150 C   0  0  0  0  0  3  0  0  0  0  0  0
  -24.8120  -27.7830   19.1760 C   0  0  0  0  0  3  0  0  0  0  0  0
  -23.5830  -29.8470   20.0500 C   0  0  0  0  0  2  0  0  0  0  0  0
  -24.7680  -31.0080   21.9650 N   0  0  0  0  0  0  0  0  0  0  0  0
  -23.7480  -31.9620   23.7510 O   0  0  0  0  0  0  0  0  0  0  0  0
  -22.8990  -29.3410   22.4160 C   0  0  0  0  0  0  0  0  0  0  0  0
  -21.5850  -29.0840   22.2980 N   0  0  0  0  0  0  0  0  0  0  0  0
  -23.6310  -28.7310   23.1990 O   0  0  0  0  0  0  0  0  0  0  0  0
  -21.0510  -29.6310   21.6380 H   0  0  0  0  0  0  0  0  0  0  0  0
  -18.3220  -27.5970   22.7140 C   0  0  0  0  0  0  0  0  0  0  0  0
  -20.8380  -28.0770   23.0500 C   0  0  0  0  0  3  0  0  0  0  0  0
  -21.0820  -26.6620   22.4780 C   0  0  0  0  0  2  0  0  0  0  0  0
  -20.0390  -26.2450   21.4370 C   0  0  0  0  0  2  0  0  0  0  0  0
  -18.6330  -26.2680   22.0450 C   0  0  0  0  0  2  0  0  0  0  0  0
  -19.3570  -28.4520   23.1710 C   0  0  0  0  0  0  0  0  0  0  0  0
  -19.0140  -29.6920   23.7520 C   0  0  0  0  0  3  0  0  0  0  0  0
  -17.6670  -30.0790   23.8830 C   0  0  0  0  0  3  0  0  0  0  0  0
  -16.6450  -29.2200   23.4410 C   0  0  0  0  0  3  0  0  0  0  0  0
  -16.9720  -27.9810   22.8630 C   0  0  0  0  0  3  0  0  0  0  0  0
  -26.1150  -32.3350   23.6810 C   0  0  0  0  0  3  0  0  0  0  0  0
  -25.8320  -33.7120   24.1060 N   0  0  0  0  0  0  0  0  0  0  0  0
  -26.1190  -34.8030   23.3850 C   0  0  0  0  0  0  0  0  0  0  0  0
  -26.7240  -34.7560   22.3110 O   0  0  0  0  0  0  0  0  0  0  0  0
  -25.2910  -33.8240   24.9510 H   0  0  0  0  0  0  0  0  0  0  0  0
  -24.3740  -36.6080   23.2260 C   0  0  0  0  0  1  0  0  0  0  0  0
  -25.6600  -36.1640   23.9430 C   0  0  0  0  0  3  0  0  0  0  0  0
  -27.8410  -37.0040   24.6920 C   0  0  0  0  0  1  0  0  0  0  0  0
  -26.6850  -37.2240   23.8270 N   0  0  0  0  0  0  0  0  0  0  0  0
  -26.2890  -38.1340   24.0500 H   0  0  0  0  0  0  0  0  0  0  0  0
  -26.7200  -31.4980   24.8730 C   0  0  1  0  0  0  0  0  0  0  0  0
  -25.7040  -31.1980   26.0000 C   0  0  0  0  0  1  0  0  0  0  0  0
  -27.2750  -30.1470   24.3640 C   0  0  0  0  0  1  0  0  0  0  0  0
  -27.9140  -32.2590   25.4980 C   0  0  0  0  0  1  0  0  0  0  0  0
  1  6  2  0
  2  5  1  0
  2  4  1  0
  3  2  2  0
  4  9  1  0
  4  1  1  0
  5 11  1  0
  7  3  1  0
  8  3  1  0
 10  5  1  0
 12 14  2  0
 12 13  1  0
 13 16  2  0
 14 17  1  0
 16 15  1  0
 16 18  1  0
 17 11  1  0
 17 15  2  0
 18 19  1  0
 19 21  1  0
 19 22  1  0
 20 18  2  0
 22 23  1  0
 24 32  1  0
 25 30  1  0
 26 27  1  0
 26 25  1  0
 28 27  1  0
 28 37  1  0
 28 29  1  0
 30 29  1  0
 30 24  1  0
 31 24  2  0
 32 33  1  0
 32 23  1  0
 34 35  2  0
 35 36  1  0
 35 54  1  0
 36 39  1  0
 37 34  1  0
 37 38  1  0
 38 36  2  0
 39 40  1  0
 40 41  2  0
 42 45  1  0
 42 41  1  0
 43 42  2  0
 44 43  1  0
 44 39  2  0
 45 46  1  0
 46 47  1  0
 47 48  2  0
 49 48  1  0
 49 53  1  0
 50 49  2  0
 51 46  2  0
 51 50  1  0
 52 51  1  0
 54 55  1  0
 55 58  1  0
 55 57  1  0
 56 54  2  0
 59 60  1  0
 59 34  1  0
 61 59  1  0
 62  1  1  0
 62 63  1  0
 64 63  1  0
 64 65  1  0
 65 67  1  0
 66 77  2  0
 67 72  1  0
 68 76  1  0
 68 78  1  0
 69 75  1  0
 69 71  1  0
 70 76  1  0
 71 70  1  0
 72 71  2  0
 73 74  1  0
 73 67  2  0
 74 69  2  0
 75 68  1  0
 76 66  1  0
 78 80  2  0
 79 78  1  0
 81 79  1  0
 82 91  2  0
 82 87  1  0
 83 79  1  0
 83 87  1  0
 84 83  1  0
 85 86  1  0
 85 84  1  0
 86 82  1  0
 87 88  2  0
 88 89  1  0
 90 89  2  0
 91 90  1  0
 92 66  1  0
 92 93  1  0
 92102  1  0
 93 96  1  0
 94 98  1  0
 94 93  1  0
 95 94  2  0
 98 97  1  0
100 98  1  0
100101  1  0
100 99  1  0
102105  1  1
102103  1  0
104102  1  0
M  ISO  4  24 100  32 100  64 101  65 101
M  END
>  <TORSDO>  (31) 
F 24

>  <SCORE>  (31) 
-10.576

>  <name>  (31) 
31

>  <ligand_id>  (31) 
31

>  <original_smiles>  (31) 
[H]c1c([H])c(C(=O)N([H])C([H])([H])C([H])([H])N([H])C(=O)N2C([H])([H])C([H])([H])C([H])([H])C([H])(n3nc(-c4c([H])c([H])c(Oc5c([H])c([H])c(F)c([H])c5F)c([H])c4[H])c(C(=O)N([H])[H])c3N([H])[H])C2([H])[H])c([H])c(C([H])([H])[N+]([H])=C(N([H])[H])N([H])C(=O)C([H])([H])C([H])([H])C([H])([H])Oc2c([H])c([H])c3c(c2[H])C([H])([H])N(C(=O)C([H])(N([H])C(=O)C([H])(N([H])C([H])([H])[H])C([H])([H])[H])C(C([H])([H])[H])(C([H])([H])[H])C([H])([H])[H])C([H])(C(=O)N([H])C2([H])c4c([H])c([H])c([H])c([H])c4C([H])([H])C([H])([H])C2([H])[H])C3([H])[H])c1[H]

>  <smiles>  (31) 
[H]c1c([H])c(C(=O)N([H])C([H])([H])C([H])([H])N([H])C(=O)N2C([H])([H])C([H])([H])C([H])([H])C([H])(n3nc(-c4c([H])c([H])c(Oc5c([H])c([H])c(F)c([H])c5F)c([H])c4[H])c(C(=O)N([H])[H])c3N([H])[H])C2([H])[H])c([H])c(C([H])([H])[N+]([H])=C(N([H])[H])N([H])C(=O)C([H])([H])C([H])([H])C([H])([H])Oc2c([H])c([H])c3c(c2[H])C([H])([H])N(C(=O)C([H])(N([H])C(=O)C([H])(N([H])C([H])([H])[H])C([H])([H])[H])C(C([H])([H])[H])(C([H])([H])[H])C([H])([H])[H])C([H])(C(=O)N([H])C2([H])c4c([H])c([H])c([H])c([H])c4C([H])([H])C([H])([H])C2([H])[H])C3([H])[H])c1[H]

$$$$
32:0:0
     RDKit          3D

 92100  0  0  1  0  0  0  0  0999 V2000
  -29.3580  -24.1030   19.9740 C   0  0  0  0  0  0  0  0  0  0  0  0
  -29.2180  -18.2710   20.4820 C   0  0  0  0  0  0  0  0  0  0  0  0
  -30.5330  -21.8660   19.9530 C   0  0  0  0  0  3  0  0  0  0  0  0
  -28.4310  -22.0230   21.1280 C   0  0  0  0  0  3  0  0  0  0  0  0
  -30.2020  -20.4130   19.4610 C   0  0  0  0  0  3  0  0  0  0  0  0
  -28.1350  -20.5200   20.7620 C   0  0  0  0  0  3  0  0  0  0  0  0
  -29.3650  -22.7380   20.2400 N   0  0  0  0  0  0  0  0  0  0  0  0
  -29.2620  -19.6540   20.3090 N   0  0  0  0  0  0  0  0  0  0  0  0
  -30.2900  -24.6200   19.3480 O   0  0  0  0  0  0  0  0  0  0  0  0
  -28.3360  -17.7680   21.1840 O   0  0  0  0  0  0  0  0  0  0  0  0
  -30.0470  -17.2340   18.2640 C   0  0  0  0  0  1  0  0  0  0  0  0
  -30.1960  -17.2270   19.8040 C   0  0  0  0  0  3  0  0  0  0  0  0
  -30.7880  -14.7000   19.9840 C   0  0  0  0  0  0  0  0  0  0  0  0
  -30.5150  -12.4700   18.9370 C   0  0  0  0  0  2  0  0  0  0  0  0
  -29.5060  -12.6110   17.7750 C   0  0  0  0  0  2  0  0  0  0  0  0
  -28.0620  -12.4380   18.2840 C   0  0  0  0  0  2  0  0  0  0  0  0
  -27.7700  -13.2810   19.5550 C   0  0  0  0  0  3  0  0  0  0  0  0
  -28.8930  -13.1390   20.6070 C   0  0  0  0  0  2  0  0  0  0  0  0
  -30.1640  -13.4820   19.9530 N   0  0  0  0  0  0  0  0  0  0  0  0
  -31.9300  -14.8410   19.5410 O   0  0  0  0  0  0  0  0  0  0  0  0
  -30.0100  -15.7940   20.2590 N   0  0  0  0  0  0  0  0  0  0  0  0
  -29.1100  -15.6050   20.6770 H   0  0  0  0  0  0  0  0  0  0  0  0
  -25.4290  -13.8450   20.4460 C   0  0  0  0  0  0  0  0  0  0  0  0
  -24.3880  -13.0570   20.8560 C   0  0  0  0  0  0  0  0  0  0  0  0
  -24.8480  -11.7090   20.7490 C   0  0  0  0  0  0  0  0  0  0  0  0
  -26.4560  -12.9760   20.1150 N   0  0  0  0  0  0  0  0  0  0  0  0
  -26.1160  -11.6840   20.3580 N   0  0  0  0  0  0  0  0  0  0  0  0
  -24.1350  -10.4390   20.9420 C   0  0  0  0  0  0  0  0  0  0  0  0
  -24.5720   -9.4810   21.8850 C   0  0  0  0  0  3  0  0  0  0  0  0
  -23.8580   -8.2770   22.0640 C   0  0  0  0  0  3  0  0  0  0  0  0
  -22.6950   -8.0200   21.2990 C   0  0  0  0  0  0  0  0  0  0  0  0
  -22.2780   -8.9650   20.3460 C   0  0  0  0  0  3  0  0  0  0  0  0
  -22.9920  -10.1620   20.1660 C   0  0  0  0  0  3  0  0  0  0  0  0
  -21.9540   -6.8660   21.3870 O   0  0  0  0  0  0  0  0  0  0  0  0
  -21.8290   -6.1780   22.5660 C   0  0  0  0  0  0  0  0  0  0  0  0
  -21.3000   -6.7810   23.7290 C   0  0  0  0  0  3  0  0  0  0  0  0
  -21.1240   -6.0170   24.9000 C   0  0  0  0  0  3  0  0  0  0  0  0
  -21.4680   -4.6520   24.9100 C   0  0  0  0  0  0  0  0  0  0  0  0
  -21.9890   -4.0480   23.7520 C   0  0  0  0  0  3  0  0  0  0  0  0
  -22.1660   -4.8090   22.5830 C   0  0  0  0  0  0  0  0  0  0  0  0
  -22.6480   -4.2170   21.4640 F   0  0  0  0  0  0  0  0  0  0  0  0
  -21.2920   -3.9160   26.0330 F   0  0  0  0  0  0  0  0  0  0  0  0
  -23.0110  -13.5210   21.2350 C   0  0  0  0  0  0  0  0  0  0  0  0
  -22.3420  -12.7960   22.1240 N   0  0  0  0  0  0  0  0  0  0  0  0
  -22.5400  -14.5630   20.7800 O   0  0  0  0  0  0  0  0  0  0  0  0
  -22.7360  -11.9520   22.5130 H   0  0  0  0  0  0  0  0  0  0  0  0
  -21.4230  -13.0920   22.4230 H   0  0  0  0  0  0  0  0  0  0  0  0
  -25.5830  -15.2210   20.3070 N   0  0  0  0  0  0  0  0  0  0  0  0
  -24.8270  -15.8750   20.4860 H   0  0  0  0  0  0  0  0  0  0  0  0
  -26.4230  -15.6740   19.9690 H   0  0  0  0  0  0  0  0  0  0  0  0
  -28.1970  -25.0700   20.4350 C   0  0  0  0  0  2  0  0  0  0  0  0
  -28.3940  -26.5110   20.1070 O   0  0  0  0  0  0  0  0  0  0  0  0
  -24.6300  -31.8540   23.1830 C   0  0  0  0  0  0  0  0  0  0  0  0
  -27.2660  -27.3430   20.0910 C   0  0  0  0  0  0  0  0  0  0  0  0
  -23.4330  -30.4670   21.5250 C   0  0  0  0  0  3  0  0  0  0  0  0
  -24.8910  -28.9370   20.0880 C   0  0  0  0  0  0  0  0  0  0  0  0
  -25.9690  -30.8010   21.3460 C   0  0  0  0  0  2  0  0  0  0  0  0
  -26.0560  -29.4290   20.6910 C   0  0  0  0  0  0  0  0  0  0  0  0
  -27.2480  -28.6440   20.6800 C   0  0  0  0  0  3  0  0  0  0  0  0
  -26.0810  -26.9070   19.4570 C   0  0  0  0  0  3  0  0  0  0  0  0
  -24.9050  -27.6810   19.4610 C   0  0  0  0  0  3  0  0  0  0  0  0
  -23.6510  -29.8050   20.1390 C   0  0  0  0  0  2  0  0  0  0  0  0
  -24.6970  -31.0570   22.0760 N   0  0  0  0  0  0  0  0  0  0  0  0
  -23.5460  -32.1230   23.7190 O   0  0  0  0  0  0  0  0  0  0  0  0
  -22.7730  -29.4400   22.4740 C   0  0  0  0  0  0  0  0  0  0  0  0
  -21.4460  -29.2650   22.3480 N   0  0  0  0  0  0  0  0  0  0  0  0
  -23.4520  -28.8030   23.2840 O   0  0  0  0  0  0  0  0  0  0  0  0
  -20.9580  -29.8310   21.6680 H   0  0  0  0  0  0  0  0  0  0  0  0
  -18.0670  -28.0770   22.8480 C   0  0  0  0  0  0  0  0  0  0  0  0
  -20.6280  -28.3200   23.1090 C   0  0  0  0  0  3  0  0  0  0  0  0
  -20.7190  -26.8970   22.5120 C   0  0  0  0  0  2  0  0  0  0  0  0
  -19.6120  -26.5940   21.4980 C   0  0  0  0  0  2  0  0  0  0  0  0
  -18.2340  -26.7360   22.1510 C   0  0  0  0  0  2  0  0  0  0  0  0
  -19.1910  -28.8270   23.2840 C   0  0  0  0  0  0  0  0  0  0  0  0
  -18.9810  -30.0810   23.8960 C   0  0  0  0  0  3  0  0  0  0  0  0
  -17.6800  -30.5850   24.0780 C   0  0  0  0  0  3  0  0  0  0  0  0
  -16.5700  -29.8310   23.6580 C   0  0  0  0  0  3  0  0  0  0  0  0
  -16.7640  -28.5790   23.0490 C   0  0  0  0  0  3  0  0  0  0  0  0
  -25.9120  -32.4820   23.8120 C   0  0  0  0  0  3  0  0  0  0  0  0
  -25.6020  -33.8780   24.1540 N   0  0  0  0  0  0  0  0  0  0  0  0
  -25.9370  -34.9370   23.4050 C   0  0  0  0  0  0  0  0  0  0  0  0
  -26.6100  -34.8420   22.3750 O   0  0  0  0  0  0  0  0  0  0  0  0
  -25.0050  -34.0250   24.9540 H   0  0  0  0  0  0  0  0  0  0  0  0
  -24.2130  -36.7340   23.0540 C   0  0  0  0  0  1  0  0  0  0  0  0
  -25.4480  -36.3210   23.8720 C   0  0  0  0  0  3  0  0  0  0  0  0
  -27.5760  -37.1970   24.7270 C   0  0  0  0  0  1  0  0  0  0  0  0
  -26.4830  -37.3740   23.7750 N   0  0  0  0  0  0  0  0  0  0  0  0
  -26.0760  -38.2940   23.9270 H   0  0  0  0  0  0  0  0  0  0  0  0
  -26.4260  -31.7010   25.0840 C   0  0  1  0  0  0  0  0  0  0  0  0
  -25.3310  -31.4530   26.1480 C   0  0  0  0  0  1  0  0  0  0  0  0
  -27.0110  -30.3270   24.6810 C   0  0  0  0  0  1  0  0  0  0  0  0
  -27.5750  -32.4900   25.7530 C   0  0  0  0  0  1  0  0  0  0  0  0
  1  7  1  0
  1 51  1  0
  2 10  2  0
  3  7  1  0
  5  3  2  0
  5  8  1  0
  6  4  2  0
  7  4  1  0
  8  2  1  0
  8  6  1  0
  9  1  2  0
 12 11  1  0
 12 21  1  0
 12  2  1  0
 13 21  1  0
 14 19  1  0
 15 16  1  0
 15 14  1  0
 17 16  1  0
 17 26  1  0
 17 18  1  0
 19 13  1  0
 19 18  1  0
 20 13  2  0
 21 22  1  0
 23 24  2  0
 24 43  1  0
 25 24  1  0
 25 28  1  0
 26 27  1  0
 26 23  1  0
 27 25  2  0
 28 29  1  0
 29 30  2  0
 31 34  1  0
 31 30  1  0
 32 31  2  0
 33 32  1  0
 33 28  2  0
 34 35  1  0
 35 40  2  0
 35 36  1  0
 36 37  2  0
 37 38  1  0
 38 42  1  0
 39 38  2  0
 40 39  1  0
 41 40  1  0
 43 44  1  0
 44 47  1  0
 44 46  1  0
 45 43  2  0
 48 23  1  0
 48 49  1  0
 50 48  1  0
 52 51  1  0
 53 64  2  0
 54 52  1  0
 54 59  1  0
 55 63  1  0
 55 65  1  0
 56 62  1  0
 56 58  1  0
 57 63  1  0
 58 57  1  0
 59 58  2  0
 60 61  1  0
 60 54  2  0
 61 56  2  0
 62 55  1  0
 63 53  1  0
 65 67  2  0
 66 65  1  0
 68 66  1  0
 69 78  2  0
 69 74  1  0
 70 66  1  0
 70 74  1  0
 71 70  1  0
 72 73  1  0
 72 71  1  0
 73 69  1  0
 74 75  2  0
 75 76  1  0
 77 76  2  0
 78 77  1  0
 79 53  1  0
 79 80  1  0
 79 89  1  0
 80 83  1  0
 81 85  1  0
 81 80  1  0
 82 81  2  0
 85 84  1  0
 87 85  1  0
 87 88  1  0
 87 86  1  0
 89 92  1  1
 89 90  1  0
 91 89  1  0
M  ISO  4  13 100  21 100  51 101  52 101
M  END
>  <TORSDO>  (32) 
F 18

>  <SCORE>  (32) 
-14.039

>  <name>  (32) 
32

>  <ligand_id>  (32) 
32

>  <original_smiles>  (32) 
[H]c1c([H])c([H])c2c(c1[H])C([H])([H])C([H])([H])C([H])([H])C2([H])N([H])C(=O)C1([H])N(C(=O)C([H])(N([H])C(=O)C([H])(N([H])C([H])([H])[H])C([H])([H])[H])C(C([H])([H])[H])(C([H])([H])[H])C([H])([H])[H])C([H])([H])c2c([H])c(OC([H])([H])C(=O)N3C([H])([H])C([H])([H])N(C(=O)C([H])(N([H])C(=O)N4C([H])([H])C([H])([H])C([H])([H])C([H])(n5nc(-c6c([H])c([H])c(Oc7c([H])c([H])c(F)c([H])c7F)c([H])c6[H])c(C(=O)N([H])[H])c5N([H])[H])C4([H])[H])C([H])([H])[H])C([H])([H])C3([H])[H])c([H])c([H])c2C1([H])[H]

>  <smiles>  (32) 
[H]c1c([H])c([H])c2c(c1[H])C([H])([H])C([H])([H])C([H])([H])C2([H])N([H])C(=O)C1([H])N(C(=O)C([H])(N([H])C(=O)C([H])(N([H])C([H])([H])[H])C([H])([H])[H])C(C([H])([H])[H])(C([H])([H])[H])C([H])([H])[H])C([H])([H])c2c([H])c(OC([H])([H])C(=O)N3C([H])([H])C([H])([H])N(C(=O)C([H])(N([H])C(=O)N4C([H])([H])C([H])([H])C([H])([H])C([H])(n5nc(-c6c([H])c([H])c(Oc7c([H])c([H])c(F)c([H])c7F)c([H])c6[H])c(C(=O)N([H])[H])c5N([H])[H])C4([H])[H])C([H])([H])[H])C([H])([H])C3([H])[H])c([H])c([H])c2C1([H])[H]

$$$$
33:0:0
     RDKit          3D

107114  0  0  1  0  0  0  0  0999 V2000
  -28.1440  -19.0670   16.9960 C   0  0  0  0  0  0  0  0  0  0  0  0
  -27.5600  -20.0670   17.6530 N   0  0  0  0  0  0  0  0  0  0  0  0
  -27.5040  -18.1960   16.4040 O   0  0  0  0  0  0  0  0  0  0  0  0
  -28.1700  -20.7570   18.0740 H   0  0  0  0  0  0  0  0  0  0  0  0
  -26.1320  -20.3430   17.7160 C   0  0  0  0  0  2  0  0  0  0  0  0
  -25.9190  -21.5800   18.5890 C   0  0  0  0  0  0  0  0  0  0  0  0
  -26.5720  -21.5780   19.7580 N   0  0  0  0  0  0  0  0  0  0  0  0
  -25.2530  -22.5360   18.1850 O   0  0  0  0  0  0  0  0  0  0  0  0
  -27.0440  -20.7240   20.0270 H   0  0  0  0  0  0  0  0  0  0  0  0
  -26.8450  -22.7320   20.6110 C   0  0  0  0  0  2  0  0  0  0  0  0
  -28.2530  -22.5810   21.2130 C   0  0  0  0  0  0  0  0  0  0  0  0
  -28.9650  -23.6430   21.6000 N   0  0  0  0  0  0  0  0  0  0  0  0
  -28.7310  -21.4530   21.3410 O   0  0  0  0  0  0  0  0  0  0  0  0
  -29.8760  -23.4380   21.9870 H   0  0  0  0  0  0  0  0  0  0  0  0
  -28.6230  -25.0590   21.5420 C   0  0  0  0  0  2  0  0  0  0  0  0
  -28.9470  -25.6770   20.1690 C   0  0  0  0  0  2  0  0  0  0  0  0
  -28.8590  -27.1000   20.2390 O   0  0  0  0  0  0  0  0  0  0  0  0
  -24.5770  -31.8240   23.3630 C   0  0  0  0  0  0  0  0  0  0  0  0
  -27.6160  -27.6920   20.2260 C   0  0  0  0  0  0  0  0  0  0  0  0
  -23.5280  -30.4330   21.6130 C   0  0  0  0  0  3  0  0  0  0  0  0
  -25.1250  -29.0330   20.2020 C   0  0  0  0  0  0  0  0  0  0  0  0
  -26.0320  -30.9430   21.5390 C   0  0  0  0  0  2  0  0  0  0  0  0
  -26.2230  -29.6080   20.8480 C   0  0  0  0  0  0  0  0  0  0  0  0
  -27.4710  -28.9530   20.8480 C   0  0  0  0  0  3  0  0  0  0  0  0
  -26.4920  -27.1180   19.5870 C   0  0  0  0  0  3  0  0  0  0  0  0
  -25.2550  -27.7840   19.5710 C   0  0  0  0  0  3  0  0  0  0  0  0
  -23.8350  -29.8260   20.2170 C   0  0  0  0  0  2  0  0  0  0  0  0
  -24.7300  -31.0770   22.2340 N   0  0  0  0  0  0  0  0  0  0  0  0
  -23.4570  -32.0100   23.8600 O   0  0  0  0  0  0  0  0  0  0  0  0
  -22.8970  -29.3330   22.4970 C   0  0  0  0  0  0  0  0  0  0  0  0
  -21.5900  -29.1000   22.3160 N   0  0  0  0  0  0  0  0  0  0  0  0
  -23.5860  -28.7000   23.2990 O   0  0  0  0  0  0  0  0  0  0  0  0
  -21.0970  -29.6690   21.6370 H   0  0  0  0  0  0  0  0  0  0  0  0
  -18.2700  -27.7150   22.6140 C   0  0  0  0  0  0  0  0  0  0  0  0
  -20.7950  -28.0870   23.0110 C   0  0  0  0  0  3  0  0  0  0  0  0
  -20.9950  -26.6840   22.3880 C   0  0  0  0  0  2  0  0  0  0  0  0
  -19.9550  -26.3510   21.3120 C   0  0  0  0  0  2  0  0  0  0  0  0
  -18.5430  -26.3990   21.9050 C   0  0  0  0  0  2  0  0  0  0  0  0
  -19.3280  -28.5130   23.1250 C   0  0  0  0  0  0  0  0  0  0  0  0
  -19.0180  -29.7360   23.7570 C   0  0  0  0  0  3  0  0  0  0  0  0
  -17.6810  -30.1640   23.8850 C   0  0  0  0  0  3  0  0  0  0  0  0
  -16.6380  -29.3660   23.3890 C   0  0  0  0  0  3  0  0  0  0  0  0
  -16.9330  -28.1430   22.7590 C   0  0  0  0  0  3  0  0  0  0  0  0
  -25.7970  -32.5000   24.0640 C   0  0  0  0  0  3  0  0  0  0  0  0
  -26.1970  -31.8040   25.4210 C   0  0  1  0  0  0  0  0  0  0  0  0
  -25.0140  -31.6220   26.4000 C   0  0  0  0  0  1  0  0  0  0  0  0
  -26.8140  -30.4120   25.1560 C   0  0  0  0  0  1  0  0  0  0  0  0
  -27.2820  -32.6370   26.1390 C   0  0  0  0  0  1  0  0  0  0  0  0
  -25.4530  -33.9110   24.2780 N   0  0  0  0  0  0  0  0  0  0  0  0
  -25.8520  -34.9180   23.4890 C   0  0  0  0  0  0  0  0  0  0  0  0
  -26.6180  -34.7590   22.5370 O   0  0  0  0  0  0  0  0  0  0  0  0
  -24.7840  -34.1060   25.0090 H   0  0  0  0  0  0  0  0  0  0  0  0
  -24.1490  -36.6650   22.8620 C   0  0  0  0  0  1  0  0  0  0  0  0
  -25.3120  -36.3250   23.8090 C   0  0  0  0  0  3  0  0  0  0  0  0
  -27.3560  -37.2820   24.7760 C   0  0  0  0  0  1  0  0  0  0  0  0
  -26.3430  -37.3800   23.7300 N   0  0  0  0  0  0  0  0  0  0  0  0
  -25.9190  -38.3030   23.7820 H   0  0  0  0  0  0  0  0  0  0  0  0
  -29.6890  -19.0740   16.9940 C   0  0  0  0  0  3  0  0  0  0  0  0
  -29.9500  -17.5280   19.0330 C   0  0  0  0  0  0  0  0  0  0  0  0
  -30.3510  -18.4770   18.1670 N   0  0  0  0  0  0  0  0  0  0  0  0
  -28.8030  -17.0790   19.0800 O   0  0  0  0  0  0  0  0  0  0  0  0
  -31.3090  -18.7750   18.2830 H   0  0  0  0  0  0  0  0  0  0  0  0
  -31.0340  -16.9590   19.9740 C   0  0  0  0  0  3  0  0  0  0  0  0
  -31.2130  -14.5060   19.9410 C   0  0  0  0  0  0  0  0  0  0  0  0
  -30.7310  -12.3190   18.9450 C   0  0  0  0  0  2  0  0  0  0  0  0
  -29.7740  -12.5230   17.7540 C   0  0  0  0  0  2  0  0  0  0  0  0
  -28.3160  -12.4730   18.2420 C   0  0  0  0  0  2  0  0  0  0  0  0
  -28.0550  -13.3960   19.4620 C   0  0  0  0  0  3  0  0  0  0  0  0
  -29.1350  -13.1940   20.5510 C   0  0  0  0  0  2  0  0  0  0  0  0
  -30.4550  -13.3810   19.9230 N   0  0  0  0  0  0  0  0  0  0  0  0
  -32.3280  -14.5730   19.4210 O   0  0  0  0  0  0  0  0  0  0  0  0
  -30.6130  -15.6110   20.3810 N   0  0  0  0  0  0  0  0  0  0  0  0
  -29.6640  -15.5320   20.7050 H   0  0  0  0  0  0  0  0  0  0  0  0
  -25.7120  -14.1350   20.2150 C   0  0  0  0  0  0  0  0  0  0  0  0
  -24.6140  -13.4240   20.6090 C   0  0  0  0  0  0  0  0  0  0  0  0
  -24.9990  -12.0470   20.5900 C   0  0  0  0  0  0  0  0  0  0  0  0
  -26.7060  -13.1990   19.9810 N   0  0  0  0  0  0  0  0  0  0  0  0
  -26.2790  -11.9400   20.2580 N   0  0  0  0  0  0  0  0  0  0  0  0
  -24.2160  -10.8260   20.8060 C   0  0  0  0  0  0  0  0  0  0  0  0
  -24.5900   -9.8720   21.7790 C   0  0  0  0  0  3  0  0  0  0  0  0
  -23.8110   -8.7140   21.9850 C   0  0  0  0  0  3  0  0  0  0  0  0
  -22.6390   -8.5020   21.2190 C   0  0  0  0  0  0  0  0  0  0  0  0
  -22.2810   -9.4440   20.2380 C   0  0  0  0  0  3  0  0  0  0  0  0
  -23.0620  -10.5940   20.0310 C   0  0  0  0  0  3  0  0  0  0  0  0
  -21.8340   -7.3940   21.3310 O   0  0  0  0  0  0  0  0  0  0  0  0
  -21.6910   -6.7290   22.5200 C   0  0  0  0  0  0  0  0  0  0  0  0
  -21.1960   -7.3690   23.6780 C   0  0  0  0  0  3  0  0  0  0  0  0
  -20.9990   -6.6310   24.8610 C   0  0  0  0  0  3  0  0  0  0  0  0
  -21.2860   -5.2520   24.8870 C   0  0  0  0  0  0  0  0  0  0  0  0
  -21.7780   -4.6130   23.7360 C   0  0  0  0  0  3  0  0  0  0  0  0
  -21.9750   -5.3490   22.5540 C   0  0  0  0  0  0  0  0  0  0  0  0
  -22.4270   -4.7240   21.4400 F   0  0  0  0  0  0  0  0  0  0  0  0
  -21.0920   -4.5400   26.0220 F   0  0  0  0  0  0  0  0  0  0  0  0
  -23.2490  -13.9740   20.9130 C   0  0  0  0  0  0  0  0  0  0  0  0
  -22.5130  -13.3270   21.8080 N   0  0  0  0  0  0  0  0  0  0  0  0
  -22.8490  -15.0140   20.3910 O   0  0  0  0  0  0  0  0  0  0  0  0
  -22.8530  -12.4820   22.2480 H   0  0  0  0  0  0  0  0  0  0  0  0
  -21.6000  -13.6790   22.0600 H   0  0  0  0  0  0  0  0  0  0  0  0
  -25.9530  -15.4900   20.0160 N   0  0  0  0  0  0  0  0  0  0  0  0
  -25.2430  -16.1970   20.1450 H   0  0  0  0  0  0  0  0  0  0  0  0
  -26.8350  -15.8690   19.6830 H   0  0  0  0  0  0  0  0  0  0  0  0
  -30.1910  -17.7480   22.3150 C   0  0  0  0  0  1  0  0  0  0  0  0
  -32.6510  -17.5230   21.8650 C   0  0  0  0  0  1  0  0  0  0  0  0
  -31.2810  -17.8370   21.2300 C   0  0  0  0  0  3  0  0  0  0  0  0
  -31.8000  -20.6170   16.9860 C   0  0  0  0  0  1  0  0  0  0  0  0
  -30.0660  -20.8240   15.1380 C   0  0  0  0  0  1  0  0  0  0  0  0
  -30.3080  -20.4630   16.6250 C   0  0  0  0  0  3  0  0  0  0  0  0
  1  2  1  0
  2  5  1  0
  2  4  1  0
  3  1  2  0
  5  6  1  0
  6  7  1  0
  7  9  1  0
  7 10  1  0
  8  6  2  0
 10 11  1  0
 11 13  2  0
 11 12  1  0
 12 14  1  0
 15 12  1  0
 16 17  1  0
 16 15  1  0
 18 29  2  0
 19 17  1  0
 19 24  1  0
 20 28  1  0
 20 30  1  0
 21 27  1  0
 21 23  1  0
 22 28  1  0
 23 22  1  0
 24 23  2  0
 25 19  2  0
 26 25  1  0
 26 21  2  0
 27 20  1  0
 28 18  1  0
 30 32  2  0
 31 30  1  0
 33 31  1  0
 34 43  2  0
 34 39  1  0
 35 31  1  0
 35 39  1  0
 36 35  1  0
 37 38  1  0
 37 36  1  0
 38 34  1  0
 39 40  2  0
 40 41  1  0
 42 41  2  0
 43 42  1  0
 44 18  1  0
 44 49  1  0
 44 45  1  0
 45 48  1  1
 45 46  1  0
 47 45  1  0
 49 52  1  0
 50 54  1  0
 50 49  1  0
 51 50  2  0
 54 53  1  0
 56 57  1  0
 56 54  1  0
 56 55  1  0
 58107  1  0
 58  1  1  0
 58 60  1  0
 59 61  2  0
 60 62  1  0
 60 59  1  0
 63 59  1  0
 63 72  1  0
 63104  1  0
 64 72  1  0
 65 70  1  0
 66 67  1  0
 66 65  1  0
 68 67  1  0
 68 77  1  0
 68 69  1  0
 70 64  1  0
 70 69  1  0
 71 64  2  0
 72 73  1  0
 74 75  2  0
 75 94  1  0
 76 75  1  0
 76 79  1  0
 77 74  1  0
 77 78  1  0
 78 76  2  0
 79 80  1  0
 80 81  2  0
 82 85  1  0
 82 81  1  0
 83 82  2  0
 84 83  1  0
 84 79  2  0
 85 86  1  0
 86 91  2  0
 86 87  1  0
 87 88  2  0
 88 89  1  0
 89 93  1  0
 90 89  2  0
 91 90  1  0
 92 91  1  0
 94 95  1  0
 95 98  1  0
 95 97  1  0
 96 94  2  0
 99100  1  0
 99 74  1  0
101 99  1  0
104103  1  0
104102  1  0
106107  1  0
107105  1  0
M  ISO  4  16 101  17 101  64 100  72 100
M  END
>  <TORSDO>  (33) 
F 27

>  <SCORE>  (33) 
-9.784

>  <name>  (33) 
33

>  <ligand_id>  (33) 
33

>  <original_smiles>  (33) 
[H]c1c([H])c([H])c2c(c1[H])C([H])([H])C([H])([H])C([H])([H])C2([H])N([H])C(=O)C1([H])N(C(=O)C([H])(N([H])C(=O)C([H])(N([H])C([H])([H])[H])C([H])([H])[H])C(C([H])([H])[H])(C([H])([H])[H])C([H])([H])[H])C([H])([H])c2c([H])c(OC([H])([H])C([H])([H])N([H])C(=O)C([H])([H])N([H])C(=O)C([H])([H])N([H])C(=O)C([H])(N([H])C(=O)C([H])(N([H])C(=O)N3C([H])([H])C([H])([H])C([H])([H])C([H])(n4nc(-c5c([H])c([H])c(Oc6c([H])c([H])c(F)c([H])c6F)c([H])c5[H])c(C(=O)N([H])[H])c4N([H])[H])C3([H])[H])C([H])(C([H])([H])[H])C([H])([H])[H])C([H])(C([H])([H])[H])C([H])([H])[H])c([H])c([H])c2C1([H])[H]

>  <smiles>  (33) 
[H]c1c([H])c([H])c2c(c1[H])C([H])([H])C([H])([H])C([H])([H])C2([H])N([H])C(=O)C1([H])N(C(=O)C([H])(N([H])C(=O)C([H])(N([H])C([H])([H])[H])C([H])([H])[H])C(C([H])([H])[H])(C([H])([H])[H])C([H])([H])[H])C([H])([H])c2c([H])c(OC([H])([H])C([H])([H])N([H])C(=O)C([H])([H])N([H])C(=O)C([H])([H])N([H])C(=O)C([H])(N([H])C(=O)C([H])(N([H])C(=O)N3C([H])([H])C([H])([H])C([H])([H])C([H])(n4nc(-c5c([H])c([H])c(Oc6c([H])c([H])c(F)c([H])c6F)c([H])c5[H])c(C(=O)N([H])[H])c4N([H])[H])C3([H])[H])C([H])(C([H])([H])[H])C([H])([H])[H])C([H])(C([H])([H])[H])C([H])([H])[H])c([H])c([H])c2C1([H])[H]

$$$$
34:0:0
     RDKit          3D

107109  0  0  1  0  0  0  0  0999 V2000
  -24.0430  -21.4320   19.0830 N   0  0  0  0  0  0  0  0  0  0  0  0
  -23.1240  -20.9980   19.1570 H   0  0  0  0  0  0  0  0  0  0  0  0
  -25.2770  -19.3580   19.5580 C   0  0  0  0  0  1  0  0  0  0  0  0
  -25.0210  -20.4750   18.5170 C   0  0  0  0  0  3  0  0  0  0  0  0
  -26.3860  -21.0810   18.0150 C   0  0  0  0  0  2  0  0  0  0  0  0
  -27.1660  -20.2900   16.9140 C   0  0  0  0  0  2  0  0  0  0  0  0
  -28.5530  -20.6780   16.8260 O   0  0  0  0  0  0  0  0  0  0  0  0
  -29.5110  -19.7210   17.3060 C   0  0  0  0  0  2  0  0  0  0  0  0
  -30.8450  -20.3880   17.7310 C   0  0  0  0  0  0  0  0  0  0  0  0
  -30.8020  -21.1100   18.8690 N   0  0  0  0  0  0  0  0  0  0  0  0
  -31.8650  -20.2270   17.0590 O   0  0  0  0  0  0  0  0  0  0  0  0
  -29.9030  -21.0640   19.3240 H   0  0  0  0  0  0  0  0  0  0  0  0
  -31.7890  -21.9870   19.6400 C   0  0  0  0  0  1  0  0  0  0  0  0
  -32.5710  -24.9350   19.1070 C   0  0  0  0  0 15  0  0  0  0  0  0
  -32.5920  -25.9000   17.2740 O   0  0  0  0  0  1  0  0  0  0  0  0
  -36.7460  -29.0300   16.3230 C   0  0  0  0  0  0  0  0  0  0  0  0
  -31.9420  -26.5670   16.0160 C   0  0  0  0  0  3  0  0  0  0  0  0
  -34.8950  -28.5960   17.8090 C   0  0  0  0  0  3  0  0  0  0  0  0
  -32.4640  -28.7540   16.9480 C   0  0  0  0  0  3  0  0  0  0  0  0
  -34.4010  -29.3000   15.4450 C   0  0  0  0  0  2  0  0  0  0  0  0
  -33.0820  -28.5860   15.7040 C   0  0  0  0  0  3  0  0  0  0  0  0
  -32.6700  -27.4050   15.0640 C   0  0  0  0  0  2  0  0  0  0  0  0
  -30.7380  -27.1810   16.2850 C   0  0  0  0  0  2  0  0  0  0  0  0
  -31.1740  -28.1810   17.1590 C   0  0  0  0  0  2  0  0  0  0  0  0
  -33.4070  -29.0520   18.0740 C   0  0  0  0  0  2  0  0  0  0  0  0
  -35.3980  -29.0480   16.5080 N   0  0  0  0  0  0  0  0  0  0  0  0
  -37.5310  -28.7540   17.2510 O   0  0  0  0  0  0  0  0  0  0  0  0
  -35.2110  -27.0890   17.8600 C   0  0  0  0  0  0  0  0  0  0  0  0
  -36.4410  -26.7650   18.0800 N   0  0  0  0  0  0  0  0  0  0  0  0
  -34.3970  -26.1890   17.6680 O   0  0  0  0  0  0  0  0  0  0  0  0
  -37.1530  -27.4790   18.1210 H   0  0  0  0  0  0  0  0  0  0  0  0
  -38.9520  -24.9050   16.6480 C   0  0  0  0  0  0  0  0  0  0  0  0
  -36.8070  -25.4620   18.5630 C   0  0  0  0  0  2  0  0  0  0  0  0
  -37.8080  -25.0390   20.4240 C   0  0  0  0  0 15  0  0  0  0  0  0
  -39.9430  -24.9320   19.8590 C   0  0  0  0  0  1  0  0  0  0  0  0
  -40.2110  -25.0310   17.9130 C   0  0  0  0  0  2  0  0  0  0  0  0
  -37.4930  -25.1620   16.9650 C   0  0  0  0  0  0  0  0  0  0  0  0
  -36.5350  -24.8870   15.9230 C   0  0  0  0  0  3  0  0  0  0  0  0
  -36.8390  -24.2580   14.6950 C   0  0  0  0  0  3  0  0  0  0  0  0
  -38.1410  -23.8010   14.4740 C   0  0  0  0  0  3  0  0  0  0  0  0
  -39.1520  -24.0910   15.4440 C   0  0  0  0  0  3  0  0  0  0  0  0
  -37.3510  -29.3810   14.9480 C   0  0  0  0  0  3  0  0  0  0  0  0
  -38.3520  -30.4140   15.2220 N   0  0  0  0  0  0  0  0  0  0  0  0
  -38.0850  -31.7210   15.2760 C   0  0  0  0  0  0  0  0  0  0  0  0
  -36.9780  -32.1850   14.9880 O   0  0  0  0  0  0  0  0  0  0  0  0
  -39.2670  -30.0890   15.4960 H   0  0  0  0  0  0  0  0  0  0  0  0
  -39.0570  -33.0500   17.1750 C   0  0  0  0  0  1  0  0  0  0  0  0
  -39.2310  -32.6580   15.6990 C   0  0  0  0  0  3  0  0  0  0  0  0
  -39.7930  -33.6030   13.5070 C   0  0  0  0  0  1  0  0  0  0  0  0
  -39.3290  -33.8760   14.8660 N   0  0  0  0  0  0  0  0  0  0  0  0
  -39.9630  -34.5510   15.2850 H   0  0  0  0  0  0  0  0  0  0  0  0
  -37.9970  -28.1440   14.2200 C   0  0  1  0  0  0  0  0  0  0  0  0
  -39.2480  -27.5720   14.9250 C   0  0  0  0  0  1  0  0  0  0  0  0
  -36.9820  -26.9890   14.0750 C   0  0  0  0  0  1  0  0  0  0  0  0
  -38.3900  -28.5630   12.7870 C   0  0  0  0  0  1  0  0  0  0  0  0
  -23.9750  -22.6590   18.2540 C   0  0  0  0  0  2  0  0  0  0  0  0
  -24.5360  -22.6070   16.7990 C   0  0  0  0  0  2  0  0  0  0  0  0
  -24.4760  -23.9760   16.1870 N   0  0  0  0  0  4  0  0  0  0  0  0
  -24.0970  -23.8890   15.2570 H   0  0  0  0  0  0  0  0  0  0  0  0
  -23.8220  -24.5090   16.7520 H   0  0  0  0  0  0  0  0  0  0  0  0
  -25.7370  -24.7630   16.0720 C   0  0  0  0  0  2  0  0  0  0  0  0
  -25.7090  -28.2710   13.4600 C   0  0  0  0  0  3  0  0  0  0  0  0
  -26.8110  -27.9520   14.2670 C   0  0  0  0  0  3  0  0  0  0  0  0
  -24.5270  -27.4880   13.4880 C   0  0  0  0  0  3  0  0  0  0  0  0
  -26.7450  -26.8230   15.0910 C   0  0  0  0  0  3  0  0  0  0  0  0
  -24.4390  -26.3210   14.2930 C   0  0  0  0  0  0  0  0  0  0  0  0
  -25.6100  -25.9750   15.0990 C   0  0  0  0  0  0  0  0  0  0  0  0
  -19.7170  -25.6620   11.7460 C   0  0  0  0  0  2  0  0  0  0  0  0
  -19.1420  -27.7750    9.6790 C   0  0  0  0  0  3  0  0  0  0  0  0
  -20.1370  -29.1360    9.8610 C   0  0  0  0  0  3  0  0  0  0  0  0
  -20.9790  -29.1810   11.2020 C   0  0  0  0  0  2  0  0  0  0  0  0
  -20.7700  -27.8490   11.4560 C   0  0  0  0  0  3  0  0  0  0  0  0
  -19.1060  -27.8430   11.6500 C   0  0  0  0  0  2  0  0  0  0  0  0
  -19.0150  -26.7860   10.9750 N   0  0  2  0  0  4  0  0  0  0  0  0
  -19.9040  -25.4450   10.4310 O   0  0  0  0  0  0  0  0  0  0  0  0
  -23.0840  -25.6520   14.5690 C   0  0  0  0  0  0  0  0  0  0  0  0
  -21.7800  -25.9130   14.0520 N   0  0  0  0  0  2  0  0  0  0  0  0
  -23.1890  -24.8740   15.5070 O   0  0  0  0  0  0  0  0  0  0  0  0
  -21.3870  -26.6980   14.5660 H   0  0  0  0  0  0  0  0  0  0  0  0
  -21.7950  -24.8950   12.1650 C   0  0  0  0  0  2  0  0  0  0  0  0
  -20.7220  -24.1130   13.3760 C   0  0  0  0  0  3  0  0  0  0  0  0
  -19.6590  -25.3400   14.2680 C   0  0  0  0  0  3  0  0  0  0  0  0
  -21.4080  -27.0070   12.3020 N   0  0  0  0  0  1  0  0  0  0  0  0
  -19.9490  -26.9980   13.7140 N   0  0  0  0  0  1  0  0  0  0  0  0
  -19.4610  -25.4800   15.8430 C   0  0  0  0  0  0  0  0  0  0  0  0
  -18.6180  -24.5580   16.5040 C   0  0  0  0  0  3  0  0  0  0  0  0
  -18.3100  -24.6220   17.8900 C   0  0  0  0  0  3  0  0  0  0  0  0
  -18.8260  -25.6300   18.7400 C   0  0  0  0  0  0  0  0  0  0  0  0
  -19.6040  -26.6200   18.1240 C   0  0  0  0  0  3  0  0  0  0  0  0
  -19.8960  -26.5460   16.7310 C   0  0  0  0  0  3  0  0  0  0  0  0
  -18.5390  -25.7340   20.0910 O   0  0  0  0  0  0  0  0  0  0  0  0
  -18.2670  -24.6170   20.8500 C   0  0  0  0  0  0  0  0  0  0  0  0
  -19.2650  -23.6550   21.1300 C   0  0  0  0  0  3  0  0  0  0  0  0
  -18.9730  -22.5450   21.9510 C   0  0  0  0  0  3  0  0  0  0  0  0
  -17.6800  -22.3910   22.4880 C   0  0  0  0  0  0  0  0  0  0  0  0
  -16.6860  -23.3480   22.2190 C   0  0  0  0  0  3  0  0  0  0  0  0
  -16.9810  -24.4630   21.4120 C   0  0  0  0  0  0  0  0  0  0  0  0
  -16.0240  -25.3960   21.1920 F   0  0  0  0  0  0  0  0  0  0  0  0
  -17.3940  -21.3150   23.2580 F   0  0  0  0  0  0  0  0  0  0  0  0
  -21.4130  -23.0610   14.3480 C   0  0  0  0  0  0  0  0  0  0  0  0
  -20.9030  -22.7900   15.5520 N   0  0  0  0  0  0  0  0  0  0  0  0
  -22.5630  -22.6270   14.1620 O   0  0  0  0  0  0  0  0  0  0  0  0
  -20.0520  -23.2300   15.8590 H   0  0  0  0  0  0  0  0  0  0  0  0
  -21.3980  -22.1790   16.1820 H   0  0  0  0  0  0  0  0  0  0  0  0
  -22.7160  -24.3230   11.3560 N   0  0  0  0  0  0  0  0  0  0  0  0
  -22.6770  -23.3390   11.1110 H   0  0  0  0  0  0  0  0  0  0  0  0
  -23.1190  -24.8980   10.6200 H   0  0  0  0  0  0  0  0  0  0  0  0
  1  2  1  0
  4  1  1  0
  4  3  1  0
  5  4  1  0
  6  5  1  0
  7  6  1  0
  7  8  1  0
  8  9  1  0
  9 10  1  0
 10 12  1  0
 10 13  1  0
 11  9  2  0
 16 26  1  0
 16 27  2  0
 17 23  1  0
 17 15  1  0
 18 28  1  0
 18 25  1  0
 19 24  1  0
 19 25  1  0
 20 21  1  0
 20 26  1  0
 21 22  1  0
 21 19  1  0
 22 17  1  0
 23 24  1  0
 26 18  1  0
 28 29  1  0
 29 31  1  0
 29 33  1  0
 30 28  2  0
 32 37  1  0
 32 36  1  0
 36 35  1  0
 37 33  1  0
 38 37  2  0
 39 38  1  0
 40 39  2  0
 40 41  1  0
 41 32  2  0
 42 43  1  0
 42 16  1  0
 43 44  1  0
 43 46  1  0
 44 48  1  0
 45 44  2  0
 48 47  1  0
 49 50  1  0
 50 51  1  0
 50 48  1  0
 52 53  1  1
 52 42  1  0
 54 52  1  0
 55 52  1  0
 56  1  1  0
 57 56  1  0
 58 60  1  0
 58 57  1  0
 59 58  1  0
 61 58  1  0
 62 64  2  0
 62 63  1  0
 63 65  2  0
 64 66  1  0
 65 67  1  0
 66 76  1  0
 66 67  2  0
 67 61  1  0
 69 70  2  0
 69 74  1  0
 70 71  1  0
 71 72  1  0
 72 73  1  0
 72 83  1  0
 74 73  1  6
 74 68  1  0
 75 74  1  0
 75 68  1  0
 76 78  2  0
 77 79  1  0
 77 76  1  0
 81 80  1  0
 81 82  1  0
 81100  1  0
 82 84  1  0
 82 85  1  0
 85 86  2  0
 85 90  1  0
 86 87  1  0
 87 88  2  0
 88 91  1  0
 89 88  1  0
 90 89  2  0
 91 92  1  0
 92 93  2  0
 92 97  1  0
 93 94  1  0
 94 95  2  0
 95 99  1  0
 96 95  1  0
 97 96  2  0
 98 97  1  0
100101  1  0
101103  1  0
101104  1  0
102100  2  0
105 80  1  0
106105  1  0
107105  1  0
M  ISO  4  14 101  15 101  68 100  77 100
M  END
>  <TORSDO>  (34) 
F 29

>  <SCORE>  (34) 
-3.039

>  <name>  (34) 
34

>  <ligand_id>  (34) 
34

>  <original_smiles>  (34) 
[H]c1c([H])c([H])c(C([H])([H])[N+]([H])([H])C([H])([H])C([H])([H])N([H])C([H])(C([H])([H])[H])C([H])([H])C([H])([H])OC([H])([H])C(=O)N([H])C([H])([H])C([H])([H])Oc2c([H])c([H])c3c(c2[H])C([H])([H])N(C(=O)C([H])(N([H])C(=O)C([H])(N([H])C([H])([H])[H])C([H])([H])[H])C(C([H])([H])[H])(C([H])([H])[H])C([H])([H])[H])C([H])(C(=O)N([H])C2([H])c4c([H])c([H])c([H])c([H])c4C([H])([H])C([H])([H])C2([H])[H])C3([H])[H])c(C(=O)N([H])C(=O)N2C([H])([H])C([H])([H])C([H])([H])C([H])(n3nc(-c4c([H])c([H])c(Oc5c([H])c([H])c(F)c([H])c5F)c([H])c4[H])c(C(=O)N([H])[H])c3N([H])[H])C2([H])[H])c1[H]

>  <smiles>  (34) 
[H]c1c([H])c([H])c(C([H])([H])[N+]([H])([H])C([H])([H])C([H])([H])N([H])C([H])(C([H])([H])[H])C([H])([H])C([H])([H])OC([H])([H])C(=O)N([H])C([H])([H])C([H])([H])Oc2c([H])c([H])c3c(c2[H])C([H])([H])N(C(=O)C([H])(N([H])C(=O)C([H])(N([H])C([H])([H])[H])C([H])([H])[H])C(C([H])([H])[H])(C([H])([H])[H])C([H])([H])[H])C([H])(C(=O)N([H])C2([H])c4c([H])c([H])c([H])c([H])c4C([H])([H])C([H])([H])C2([H])[H])C3([H])[H])c(C(=O)N([H])C(=O)N2C([H])([H])C([H])([H])C([H])([H])C([H])(n3nc(-c4c([H])c([H])c(Oc5c([H])c([H])c(F)c([H])c5F)c([H])c4[H])c(C(=O)N([H])[H])c3N([H])[H])C2([H])[H])c1[H]

$$$$
35:0:0
     RDKit          3D

108115  0  0  1  0  0  0  0  0999 V2000
  -30.3800  -21.6720   19.5900 C   0  0  0  0  0  3  0  0  0  0  0  0
  -28.8920  -21.4450   19.2300 C   0  0  0  0  0  0  0  0  0  0  0  0
  -27.8460  -22.0150   19.8650 N   0  0  0  0  0  4  0  0  0  0  0  0
  -28.6420  -20.5590   18.4140 O   0  0  0  0  0  0  0  0  0  0  0  0
  -26.9900  -21.5050   19.6900 H   0  0  0  0  0  0  0  0  0  0  0  0
  -27.5590  -23.3450   20.4290 C   0  0  0  0  0  0  0  0  0  0  0  0
  -27.9010  -23.5760   21.9150 C   0  0  0  0  0  0  0  0  0  0  0  0
  -27.0190  -24.2220   22.6700 N   0  0  0  0  0  0  0  0  0  0  0  0
  -28.9760  -23.2250   22.3820 O   0  0  0  0  0  0  0  0  0  0  0  0
  -26.1270  -24.5110   22.2900 H   0  0  0  0  0  0  0  0  0  0  0  0
  -27.2240  -24.3970   23.6450 H   0  0  0  0  0  0  0  0  0  0  0  0
  -27.7010  -24.5350   19.4350 C   0  0  0  0  0  3  0  0  0  0  0  0
  -28.3150  -25.8450   19.9960 C   0  0  0  0  0  3  0  0  0  0  0  0
  -28.2490  -26.9750   19.1100 O   0  0  0  0  0  0  0  0  0  0  0  0
  -24.5610  -31.6970   22.9450 C   0  0  0  0  0  0  0  0  0  0  0  0
  -27.0920  -27.7060   19.2360 C   0  0  0  0  0  0  0  0  0  0  0  0
  -23.2880  -30.4370   21.2440 C   0  0  0  0  0  3  0  0  0  0  0  0
  -24.6770  -29.1160   19.5710 C   0  0  0  0  0  0  0  0  0  0  0  0
  -25.7840  -30.9000   20.9280 C   0  0  0  0  0  2  0  0  0  0  0  0
  -25.8570  -29.6080   20.1430 C   0  0  0  0  0  0  0  0  0  0  0  0
  -27.0710  -28.9070   19.9810 C   0  0  0  0  0  3  0  0  0  0  0  0
  -25.9060  -27.2550   18.6210 C   0  0  0  0  0  3  0  0  0  0  0  0
  -24.6940  -27.9360   18.8090 C   0  0  0  0  0  3  0  0  0  0  0  0
  -23.4210  -29.9230   19.7880 C   0  0  0  0  0  2  0  0  0  0  0  0
  -24.5680  -31.0200   21.7630 N   0  0  0  0  0  0  0  0  0  0  0  0
  -23.5110  -31.8710   23.5770 O   0  0  0  0  0  0  0  0  0  0  0  0
  -22.7300  -29.2930   22.1220 C   0  0  0  0  0  0  0  0  0  0  0  0
  -21.4070  -29.0730   22.0520 N   0  0  0  0  0  0  0  0  0  0  0  0
  -23.4830  -28.6140   22.8260 O   0  0  0  0  0  0  0  0  0  0  0  0
  -20.8530  -29.6870   21.4720 H   0  0  0  0  0  0  0  0  0  0  0  0
  -18.1170  -27.6840   22.5910 C   0  0  0  0  0  0  0  0  0  0  0  0
  -20.6710  -28.0290   22.7640 C   0  0  0  0  0  3  0  0  0  0  0  0
  -20.7990  -26.6620   22.0510 C   0  0  0  0  0  2  0  0  0  0  0  0
  -19.6610  -26.3880   21.0630 C   0  0  0  0  0  2  0  0  0  0  0  0
  -18.3100  -26.4110   21.7830 C   0  0  0  0  0  2  0  0  0  0  0  0
  -19.2250  -28.4500   23.0390 C   0  0  0  0  0  0  0  0  0  0  0  0
  -18.9860  -29.6430   23.7560 C   0  0  0  0  0  3  0  0  0  0  0  0
  -17.6710  -30.0700   24.0250 C   0  0  0  0  0  3  0  0  0  0  0  0
  -16.5790  -29.2990   23.5910 C   0  0  0  0  0  3  0  0  0  0  0  0
  -16.8020  -28.1070   22.8800 C   0  0  0  0  0  3  0  0  0  0  0  0
  -25.8690  -32.3010   23.5470 C   0  0  0  0  0  3  0  0  0  0  0  0
  -25.5390  -33.6360   24.0610 N   0  0  0  0  0  0  0  0  0  0  0  0
  -25.7930  -34.7850   23.4170 C   0  0  0  0  0  0  0  0  0  0  0  0
  -26.4020  -34.8300   22.3460 O   0  0  0  0  0  0  0  0  0  0  0  0
  -24.9960  -33.6690   24.9110 H   0  0  0  0  0  0  0  0  0  0  0  0
  -23.9960  -36.5440   23.3700 C   0  0  0  0  0  1  0  0  0  0  0  0
  -25.2870  -36.0890   24.0680 C   0  0  0  0  0  3  0  0  0  0  0  0
  -27.4350  -36.9380   24.9010 C   0  0  0  0  0  1  0  0  0  0  0  0
  -26.2810  -37.1820   24.0400 N   0  0  0  0  0  0  0  0  0  0  0  0
  -25.8560  -38.0630   24.3190 H   0  0  0  0  0  0  0  0  0  0  0  0
  -26.5050  -31.4060   24.6780 C   0  0  1  0  0  0  0  0  0  0  0  0
  -25.5100  -31.0010   25.7890 C   0  0  0  0  0  1  0  0  0  0  0  0
  -27.0960  -30.1090   24.0790 C   0  0  0  0  0  1  0  0  0  0  0  0
  -27.6790  -32.1620   25.3440 C   0  0  0  0  0  1  0  0  0  0  0  0
  -31.4720  -20.5580   21.6120 C   0  0  0  0  0  0  0  0  0  0  0  0
  -30.6210  -21.4080   21.0120 N   0  0  0  0  0  0  0  0  0  0  0  0
  -31.5990  -20.5890   22.8390 O   0  0  0  0  0  0  0  0  0  0  0  0
  -30.0360  -21.9600   21.6410 H   0  0  0  0  0  0  0  0  0  0  0  0
  -32.2990  -19.5160   20.8260 C   0  0  0  0  0  2  0  0  0  0  0  0
  -31.1910  -17.3760   21.3750 C   0  0  0  0  0  0  0  0  0  0  0  0
  -32.2290  -18.2130   21.4860 N   0  0  0  0  0  0  0  0  0  0  0  0
  -30.2020  -17.6430   20.6880 O   0  0  0  0  0  0  0  0  0  0  0  0
  -32.9990  -17.9700   22.0950 H   0  0  0  0  0  0  0  0  0  0  0  0
  -31.2620  -16.0490   22.1410 C   0  0  0  0  0  2  0  0  0  0  0  0
  -30.6670  -14.4450   20.3360 C   0  0  0  0  0  0  0  0  0  0  0  0
  -30.1870  -12.4930   18.9100 C   0  0  0  0  0  2  0  0  0  0  0  0
  -29.1970  -12.8000   17.7740 C   0  0  0  0  0  2  0  0  0  0  0  0
  -27.7440  -12.6400   18.2590 C   0  0  0  0  0  2  0  0  0  0  0  0
  -27.4760  -13.3910   19.5920 C   0  0  0  0  0  3  0  0  0  0  0  0
  -28.5700  -13.0720   20.6370 C   0  0  0  0  0  2  0  0  0  0  0  0
  -29.8900  -13.3680   20.0520 N   0  0  0  0  0  0  0  0  0  0  0  0
  -31.5980  -14.8210   19.6190 O   0  0  0  0  0  0  0  0  0  0  0  0
  -30.4440  -14.9980   21.5320 N   0  0  0  0  0  0  0  0  0  0  0  0
  -29.6780  -14.6350   22.0770 H   0  0  0  0  0  0  0  0  0  0  0  0
  -25.0790  -13.9560   20.3650 C   0  0  0  0  0  0  0  0  0  0  0  0
  -24.0400  -13.1660   20.7720 C   0  0  0  0  0  0  0  0  0  0  0  0
  -24.5240  -11.8210   20.7320 C   0  0  0  0  0  0  0  0  0  0  0  0
  -26.1370  -13.0960   20.1060 N   0  0  0  0  0  0  0  0  0  0  0  0
  -25.8040  -11.8080   20.3840 N   0  0  0  0  0  0  0  0  0  0  0  0
  -23.8300  -10.5460   20.9460 C   0  0  0  0  0  0  0  0  0  0  0  0
  -24.2990   -9.6010   21.8840 C   0  0  0  0  0  3  0  0  0  0  0  0
  -23.6070   -8.3890   22.0850 C   0  0  0  0  0  3  0  0  0  0  0  0
  -22.4300   -8.1110   21.3520 C   0  0  0  0  0  0  0  0  0  0  0  0
  -21.9810   -9.0460   20.4030 C   0  0  0  0  0  3  0  0  0  0  0  0
  -22.6750  -10.2500   20.1980 C   0  0  0  0  0  3  0  0  0  0  0  0
  -21.7040   -6.9510   21.4660 O   0  0  0  0  0  0  0  0  0  0  0  0
  -21.6810   -6.2270   22.6310 C   0  0  0  0  0  0  0  0  0  0  0  0
  -21.2580   -6.7920   23.8550 C   0  0  0  0  0  3  0  0  0  0  0  0
  -21.1840   -5.9920   25.0120 C   0  0  0  0  0  3  0  0  0  0  0  0
  -21.5190   -4.6260   24.9480 C   0  0  0  0  0  0  0  0  0  0  0  0
  -21.9350   -4.0600   23.7300 C   0  0  0  0  0  3  0  0  0  0  0  0
  -22.0130   -4.8590   22.5740 C   0  0  0  0  0  0  0  0  0  0  0  0
  -22.3920   -4.3010   21.3990 F   0  0  0  0  0  0  0  0  0  0  0  0
  -21.4410   -3.8540   26.0570 F   0  0  0  0  0  0  0  0  0  0  0  0
  -22.6400  -13.6110   21.0830 C   0  0  0  0  0  0  0  0  0  0  0  0
  -21.9510  -12.9100   21.9750 N   0  0  0  0  0  0  0  0  0  0  0  0
  -22.1670  -14.6230   20.5660 O   0  0  0  0  0  0  0  0  0  0  0  0
  -22.3440  -12.0980   22.4290 H   0  0  0  0  0  0  0  0  0  0  0  0
  -21.0100  -13.1940   22.2140 H   0  0  0  0  0  0  0  0  0  0  0  0
  -25.2160  -15.3310   20.1790 N   0  0  0  0  0  0  0  0  0  0  0  0
  -24.4440  -15.9760   20.3190 H   0  0  0  0  0  0  0  0  0  0  0  0
  -26.0550  -15.7850   19.8310 H   0  0  0  0  0  0  0  0  0  0  0  0
  -31.0000  -23.0300   19.1590 C   0  0  0  0  0  2  0  0  0  0  0  0
  -31.6830  -22.9860   17.7830 C   0  0  0  0  0  0  0  0  0  0  0  0
  -31.1890  -23.7270   16.7980 N   0  0  0  0  0  0  0  0  0  0  0  0
  -32.6750  -22.2820   17.6010 O   0  0  0  0  0  0  0  0  0  0  0  0
  -30.3840  -24.3220   16.9410 H   0  0  0  0  0  0  0  0  0  0  0  0
  -31.6430  -23.7360   15.8940 H   0  0  0  0  0  0  0  0  0  0  0  0
  1103  1  0
  1 56  1  0
  2  1  1  0
  2  3  1  0
  3  6  2  3
  4  2  2  0
  5  3  1  0
  6  7  1  0
  7  9  2  0
  7  8  1  0
  8 11  1  0
 10  8  1  0
 12 13  2  0
 12  6  1  0
 14 16  1  0
 14 13  1  0
 15 26  2  0
 16 21  1  0
 17 25  1  0
 17 27  1  0
 18 24  1  0
 18 20  1  0
 19 25  1  0
 20 19  1  0
 21 20  2  0
 22 23  1  0
 22 16  2  0
 23 18  2  0
 24 17  1  0
 25 15  1  0
 27 29  2  0
 28 27  1  0
 30 28  1  0
 31 40  2  0
 31 36  1  0
 32 28  1  0
 32 36  1  0
 33 32  1  0
 34 35  1  0
 34 33  1  0
 35 31  1  0
 36 37  2  0
 37 38  1  0
 39 38  2  0
 40 39  1  0
 41 15  1  0
 41 42  1  0
 41 51  1  0
 42 45  1  0
 43 42  1  0
 43 47  1  0
 44 43  2  0
 47 46  1  0
 49 47  1  0
 49 50  1  0
 49 48  1  0
 51 54  1  1
 51 52  1  0
 53 51  1  0
 55 57  2  0
 56 55  1  0
 56 58  1  0
 59 61  1  0
 59 55  1  0
 60 61  1  0
 60 64  1  0
 61 63  1  0
 62 60  2  0
 65 73  1  0
 66 71  1  0
 67 68  1  0
 67 66  1  0
 69 68  1  0
 69 78  1  0
 69 70  1  0
 71 65  1  0
 71 70  1  0
 72 65  2  0
 73 74  1  0
 73 64  1  0
 75 76  2  0
 76 95  1  0
 77 76  1  0
 77 80  1  0
 78 75  1  0
 78 79  1  0
 79 77  2  0
 80 81  1  0
 81 82  2  0
 83 86  1  0
 83 82  1  0
 84 83  2  0
 85 84  1  0
 85 80  2  0
 86 87  1  0
 87 88  1  0
 88 89  2  0
 90 89  1  0
 90 94  1  0
 91 90  2  0
 92 87  2  0
 92 91  1  0
 93 92  1  0
 95 96  1  0
 96 99  1  0
 96 98  1  0
 97 95  2  0
100101  1  0
100 75  1  0
102100  1  0
104103  1  0
105107  1  0
105104  1  0
106104  2  0
108105  1  0
M  ISO  4  13 101  14 101  65 100  73 100
M  END
>  <TORSDO>  (35) 
F 27

>  <SCORE>  (35) 
-10.561

>  <name>  (35) 
35

>  <ligand_id>  (35) 
35

>  <original_smiles>  (35) 
[H]c1c([H])c([H])c2c(c1[H])C([H])([H])C([H])([H])C([H])([H])C2([H])N([H])C(=O)C1([H])N(C(=O)C([H])(N([H])C(=O)C([H])(N([H])C([H])([H])[H])C([H])([H])[H])C(C([H])([H])[H])(C([H])([H])[H])C([H])([H])[H])C([H])([H])c2c([H])c(OC([H])([H])C([H])([H])C([H])(C(=O)N([H])[H])N([H])C(=O)C([H])(N([H])C(=O)C([H])([H])N([H])C(=O)C([H])([H])N([H])C(=O)N3C([H])([H])C([H])([H])C([H])([H])C([H])(n4nc(-c5c([H])c([H])c(Oc6c([H])c([H])c(F)c([H])c6F)c([H])c5[H])c(C(=O)N([H])[H])c4N([H])[H])C3([H])[H])C([H])([H])C(=O)N([H])[H])c([H])c([H])c2C1([H])[H]

>  <smiles>  (35) 
[H]c1c([H])c([H])c2c(c1[H])C([H])([H])C([H])([H])C([H])([H])C2([H])N([H])C(=O)C1([H])N(C(=O)C([H])(N([H])C(=O)C([H])(N([H])C([H])([H])[H])C([H])([H])[H])C(C([H])([H])[H])(C([H])([H])[H])C([H])([H])[H])C([H])([H])c2c([H])c(OC([H])([H])C([H])([H])C([H])(C(=O)N([H])[H])N([H])C(=O)C([H])(N([H])C(=O)C([H])([H])N([H])C(=O)C([H])([H])N([H])C(=O)N3C([H])([H])C([H])([H])C([H])([H])C([H])(n4nc(-c5c([H])c([H])c(Oc6c([H])c([H])c(F)c([H])c6F)c([H])c5[H])c(C(=O)N([H])[H])c4N([H])[H])C3([H])[H])C([H])([H])C(=O)N([H])[H])c([H])c([H])c2C1([H])[H]

$$$$
36:0:0
     RDKit          3D

 86 93  0  0  1  0  0  0  0  0999 V2000
  -28.9670  -23.3080   20.3530 C   0  0  0  0  0  3  0  0  0  0  0  0
  -27.9400  -24.6460   20.1300 C   0  0  0  0  0  2  0  0  0  0  0  0
  -28.2310  -26.1820   20.2860 O   0  0  0  0  0  0  0  0  0  0  0  0
  -24.6350  -31.9080   23.2810 C   0  0  0  0  0  0  0  0  0  0  0  0
  -27.1840  -27.1830   20.2250 C   0  0  0  0  0  0  0  0  0  0  0  0
  -23.4280  -30.5280   21.6360 C   0  0  0  0  0  3  0  0  0  0  0  0
  -24.8680  -28.9540   20.2010 C   0  0  0  0  0  0  0  0  0  0  0  0
  -25.9840  -30.7770   21.4730 C   0  0  0  0  0  2  0  0  0  0  0  0
  -26.0510  -29.3870   20.8110 C   0  0  0  0  0  0  0  0  0  0  0  0
  -27.2100  -28.5190   20.8040 C   0  0  0  0  0  3  0  0  0  0  0  0
  -25.9720  -26.8560   19.5770 C   0  0  0  0  0  3  0  0  0  0  0  0
  -24.8420  -27.7020   19.5680 C   0  0  0  0  0  3  0  0  0  0  0  0
  -23.6460  -29.8570   20.2540 C   0  0  0  0  0  2  0  0  0  0  0  0
  -24.7030  -31.0930   22.1850 N   0  0  0  0  0  0  0  0  0  0  0  0
  -23.5500  -32.1960   23.8110 O   0  0  0  0  0  0  0  0  0  0  0  0
  -22.7430  -29.5190   22.5920 C   0  0  0  0  0  0  0  0  0  0  0  0
  -21.4160  -29.3510   22.4600 N   0  0  0  0  0  0  0  0  0  0  0  0
  -23.4100  -28.8910   23.4180 O   0  0  0  0  0  0  0  0  0  0  0  0
  -20.9330  -29.9090   21.7700 H   0  0  0  0  0  0  0  0  0  0  0  0
  -18.0300  -28.1540   22.9460 C   0  0  0  0  0  0  0  0  0  0  0  0
  -20.5890  -28.4140   23.2260 C   0  0  0  0  0  3  0  0  0  0  0  0
  -20.6920  -26.9820   22.6510 C   0  0  0  0  0  2  0  0  0  0  0  0
  -19.5950  -26.6610   21.6300 C   0  0  0  0  0  2  0  0  0  0  0  0
  -18.2100  -26.8050   22.2680 C   0  0  0  0  0  2  0  0  0  0  0  0
  -19.1470  -28.9150   23.3820 C   0  0  0  0  0  0  0  0  0  0  0  0
  -18.9240  -30.1750   23.9770 C   0  0  0  0  0  3  0  0  0  0  0  0
  -17.6170  -30.6740   24.1400 C   0  0  0  0  0  3  0  0  0  0  0  0
  -16.5150  -29.9100   23.7190 C   0  0  0  0  0  3  0  0  0  0  0  0
  -16.7230  -28.6510   23.1280 C   0  0  0  0  0  3  0  0  0  0  0  0
  -25.9150  -32.5350   23.9120 C   0  0  0  0  0  3  0  0  0  0  0  0
  -26.4150  -31.7640   25.1960 C   0  0  1  0  0  0  0  0  0  0  0  0
  -25.3120  -31.5400   26.2570 C   0  0  0  0  0  1  0  0  0  0  0  0
  -26.9890  -30.3790   24.8170 C   0  0  0  0  0  1  0  0  0  0  0  0
  -27.5670  -32.5500   25.8640 C   0  0  0  0  0  1  0  0  0  0  0  0
  -25.6120  -33.9370   24.2430 N   0  0  0  0  0  0  0  0  0  0  0  0
  -25.9230  -34.9890   23.4750 C   0  0  0  0  0  0  0  0  0  0  0  0
  -26.5620  -34.8820   22.4250 O   0  0  0  0  0  0  0  0  0  0  0  0
  -25.0400  -34.0930   25.0610 H   0  0  0  0  0  0  0  0  0  0  0  0
  -24.1720  -36.7750   23.1940 C   0  0  0  0  0  1  0  0  0  0  0  0
  -25.4540  -36.3810   23.9450 C   0  0  0  0  0  3  0  0  0  0  0  0
  -27.6200  -37.2860   24.6670 C   0  0  0  0  0  1  0  0  0  0  0  0
  -26.4750  -37.4370   23.7720 N   0  0  0  0  0  0  0  0  0  0  0  0
  -26.0710  -38.3570   23.9260 H   0  0  0  0  0  0  0  0  0  0  0  0
  -28.5420  -21.6590   20.2600 C   0  0  0  0  0  3  0  0  0  0  0  0
  -29.4740  -20.4140   20.3740 O   0  0  0  0  0  0  0  0  0  0  0  0
  -28.9970  -18.9260   20.3940 C   0  0  0  0  0  2  0  0  0  0  0  0
  -30.5010  -15.0480   20.3010 C   0  0  0  0  0  0  0  0  0  0  0  0
  -30.3660  -12.6910   19.3630 C   0  0  0  0  0  2  0  0  0  0  0  0
  -29.4210  -12.6350   18.1420 C   0  0  0  0  0  2  0  0  0  0  0  0
  -27.9660  -12.4120   18.5950 C   0  0  0  0  0  2  0  0  0  0  0  0
  -27.5670  -13.3350   19.7760 C   0  0  0  0  0  3  0  0  0  0  0  0
  -28.6380  -13.3670   20.8870 C   0  0  0  0  0  2  0  0  0  0  0  0
  -29.8930  -13.7900   20.2570 N   0  0  0  0  0  0  0  0  0  0  0  0
  -31.7080  -15.0670   20.0360 O   0  0  0  0  0  0  0  0  0  0  0  0
  -30.0650  -17.6410   20.3630 C   0  0  0  0  0  0  0  0  0  0  0  0
  -29.7280  -16.2480   20.4280 N   0  0  0  0  0  0  0  0  0  0  0  0
  -31.2510  -17.9720   20.2640 O   0  0  0  0  0  0  0  0  0  0  0  0
  -28.7440  -16.0830   20.5520 H   0  0  0  0  0  0  0  0  0  0  0  0
  -25.1980  -13.8960   20.5610 C   0  0  0  0  0  0  0  0  0  0  0  0
  -24.1420  -13.1140   20.9370 C   0  0  0  0  0  0  0  0  0  0  0  0
  -24.6090  -11.7650   20.8820 C   0  0  0  0  0  0  0  0  0  0  0  0
  -26.2400  -13.0240   20.2930 N   0  0  0  0  0  0  0  0  0  0  0  0
  -25.8950  -11.7360   20.5530 N   0  0  0  0  0  0  0  0  0  0  0  0
  -23.8870  -10.4980   21.0640 C   0  0  0  0  0  0  0  0  0  0  0  0
  -24.3230   -9.5250   21.9900 C   0  0  0  0  0  3  0  0  0  0  0  0
  -23.5990   -8.3250   22.1610 C   0  0  0  0  0  3  0  0  0  0  0  0
  -22.4240   -8.0900   21.4070 C   0  0  0  0  0  0  0  0  0  0  0  0
  -22.0080   -9.0530   20.4710 C   0  0  0  0  0  3  0  0  0  0  0  0
  -22.7320  -10.2430   20.2980 C   0  0  0  0  0  3  0  0  0  0  0  0
  -21.6710   -6.9440   21.4890 O   0  0  0  0  0  0  0  0  0  0  0  0
  -21.6170   -6.2000   22.6410 C   0  0  0  0  0  0  0  0  0  0  0  0
  -21.1560   -6.7450   23.8590 C   0  0  0  0  0  3  0  0  0  0  0  0
  -21.0500   -5.9260   25.0010 C   0  0  0  0  0  3  0  0  0  0  0  0
  -21.3940   -4.5640   24.9250 C   0  0  0  0  0  0  0  0  0  0  0  0
  -21.8470   -4.0180   23.7110 C   0  0  0  0  0  3  0  0  0  0  0  0
  -21.9550   -4.8330   22.5720 C   0  0  0  0  0  0  0  0  0  0  0  0
  -22.3720   -4.2970   21.4000 F   0  0  0  0  0  0  0  0  0  0  0  0
  -21.2840   -3.7750   26.0210 F   0  0  0  0  0  0  0  0  0  0  0  0
  -22.7480  -13.5850   21.2300 C   0  0  0  0  0  0  0  0  0  0  0  0
  -22.0320  -12.8790   22.0980 N   0  0  0  0  0  0  0  0  0  0  0  0
  -22.3030  -14.6150   20.7240 O   0  0  0  0  0  0  0  0  0  0  0  0
  -22.4060  -12.0460   22.5280 H   0  0  0  0  0  0  0  0  0  0  0  0
  -21.0970  -13.1770   22.3370 H   0  0  0  0  0  0  0  0  0  0  0  0
  -25.3540  -15.2690   20.3960 N   0  0  0  0  0  0  0  0  0  0  0  0
  -24.5770  -15.9110   20.5100 H   0  0  0  0  0  0  0  0  0  0  0  0
  -26.1720  -15.7090   19.9970 H   0  0  0  0  0  0  0  0  0  0  0  0
  2  3  1  0
  2  1  1  0
  4 15  2  0
  5  3  1  0
  5 10  1  0
  6 14  1  0
  6 16  1  0
  7 13  1  0
  7  9  1  0
  8 14  1  0
  9  8  1  0
 10  9  2  0
 11  5  2  0
 12 11  1  0
 12  7  2  0
 13  6  1  0
 14  4  1  0
 16 18  2  0
 17 16  1  0
 19 17  1  0
 20 29  2  0
 20 25  1  0
 21 17  1  0
 21 25  1  0
 22 21  1  0
 23 24  1  0
 23 22  1  0
 24 20  1  0
 25 26  2  0
 26 27  1  0
 28 27  2  0
 29 28  1  0
 30  4  1  0
 30 35  1  0
 30 31  1  0
 31 34  1  1
 31 32  1  0
 33 31  1  0
 35 38  1  0
 36 40  1  0
 36 35  1  0
 37 36  2  0
 40 39  1  0
 42 43  1  0
 42 40  1  0
 42 41  1  0
 44  1  2  0
 44 45  1  0
 45 46  1  0
 47 56  1  0
 48 53  1  0
 49 50  1  0
 49 48  1  0
 51 50  1  0
 51 62  1  0
 51 52  1  0
 53 47  1  0
 53 52  1  0
 54 47  2  0
 55 46  1  0
 55 56  1  0
 56 58  1  0
 57 55  2  0
 59 60  2  0
 60 79  1  0
 61 60  1  0
 61 64  1  0
 62 63  1  0
 62 59  1  0
 63 61  2  0
 64 65  1  0
 65 66  2  0
 67 70  1  0
 67 66  1  0
 68 67  2  0
 69 68  1  0
 69 64  2  0
 70 71  1  0
 71 72  1  0
 72 73  2  0
 74 73  1  0
 74 78  1  0
 75 74  2  0
 76 71  2  0
 76 75  1  0
 77 76  1  0
 79 80  1  0
 80 83  1  0
 80 82  1  0
 81 79  2  0
 84 85  1  0
 84 59  1  0
 86 84  1  0
M  ISO  4   2 101   3 101  47 100  56 100
M  END
>  <TORSDO>  (36) 
F 20

>  <SCORE>  (36) 
-14.827

>  <name>  (36) 
36

>  <ligand_id>  (36) 
36

>  <original_smiles>  (36) 
[H]c1c([H])c([H])c2c(c1[H])C([H])([H])C([H])([H])C([H])([H])C2([H])N([H])C(=O)C1([H])N(C(=O)C([H])(N([H])C(=O)C([H])(N([H])C([H])([H])[H])C([H])([H])[H])C(C([H])([H])[H])(C([H])([H])[H])C([H])([H])[H])C([H])([H])c2c([H])c(OC([H])([H])C([H])([H])C([H])([H])OC([H])([H])C(=O)N([H])C(=O)N3C([H])([H])C([H])([H])C([H])([H])C([H])(n4nc(-c5c([H])c([H])c(Oc6c([H])c([H])c(F)c([H])c6F)c([H])c5[H])c(C(=O)N([H])[H])c4N([H])[H])C3([H])[H])c([H])c([H])c2C1([H])[H]

>  <smiles>  (36) 
[H]c1c([H])c([H])c2c(c1[H])C([H])([H])C([H])([H])C([H])([H])C2([H])N([H])C(=O)C1([H])N(C(=O)C([H])(N([H])C(=O)C([H])(N([H])C([H])([H])[H])C([H])([H])[H])C(C([H])([H])[H])(C([H])([H])[H])C([H])([H])[H])C([H])([H])c2c([H])c(OC([H])([H])C([H])([H])C([H])([H])OC([H])([H])C(=O)N([H])C(=O)N3C([H])([H])C([H])([H])C([H])([H])C([H])(n4nc(-c5c([H])c([H])c(Oc6c([H])c([H])c(F)c([H])c6F)c([H])c5[H])c(C(=O)N([H])[H])c4N([H])[H])C3([H])[H])c([H])c([H])c2C1([H])[H]

$$$$
37:0:0
     RDKit          3D

 98106  0  0  1  0  0  0  0  0999 V2000
  -29.6850  -20.6260   20.3790 C   0  0  0  0  0  3  0  0  0  0  0  0
  -30.4030  -15.1230   20.3000 C   0  0  0  0  0  0  0  0  0  0  0  0
  -30.3540  -12.7150   19.4550 C   0  0  0  0  0  2  0  0  0  0  0  0
  -29.4300  -12.5330   18.2260 C   0  0  0  0  0  2  0  0  0  0  0  0
  -27.9610  -12.3430   18.6550 C   0  0  0  0  0  2  0  0  0  0  0  0
  -27.5220  -13.3020   19.7950 C   0  0  0  0  0  3  0  0  0  0  0  0
  -28.5770  -13.4070   20.9140 C   0  0  0  0  0  2  0  0  0  0  0  0
  -29.8260  -13.8440   20.2770 N   0  0  0  0  0  0  0  0  0  0  0  0
  -31.6380  -15.1560   20.2200 O   0  0  0  0  0  0  0  0  0  0  0  0
  -29.2580  -18.9930   20.5070 C   0  0  0  0  0  0  0  0  0  0  0  0
  -30.1450  -17.1740   17.8920 C   0  0  0  0  0  2  0  0  0  0  0  0
  -30.8950  -18.0130   18.9420 C   0  0  0  0  0  2  0  0  0  0  0  0
  -29.1220  -16.3150   18.6710 C   0  0  0  0  0  2  0  0  0  0  0  0
  -30.0520  -17.8450   20.1160 N   0  0  0  0  0  0  0  0  0  0  0  0
  -29.6050  -16.3170   20.0540 N   0  0  0  0  0  0  0  0  0  0  0  0
  -28.1720  -18.7810   21.0490 O   0  0  0  0  0  0  0  0  0  0  0  0
  -25.1460  -13.8690   20.5430 C   0  0  0  0  0  0  0  0  0  0  0  0
  -24.0840  -13.0870   20.9030 C   0  0  0  0  0  0  0  0  0  0  0  0
  -24.5540  -11.7380   20.8690 C   0  0  0  0  0  0  0  0  0  0  0  0
  -26.1920  -12.9940   20.3020 N   0  0  0  0  0  0  0  0  0  0  0  0
  -25.8470  -11.7080   20.5680 N   0  0  0  0  0  0  0  0  0  0  0  0
  -23.8330  -10.4730   21.0500 C   0  0  0  0  0  0  0  0  0  0  0  0
  -24.2590   -9.5080   21.9890 C   0  0  0  0  0  3  0  0  0  0  0  0
  -23.5360   -8.3070   22.1580 C   0  0  0  0  0  3  0  0  0  0  0  0
  -22.3750   -8.0630   21.3880 C   0  0  0  0  0  0  0  0  0  0  0  0
  -21.9680   -9.0160   20.4400 C   0  0  0  0  0  3  0  0  0  0  0  0
  -22.6910  -10.2090   20.2680 C   0  0  0  0  0  3  0  0  0  0  0  0
  -21.6240   -6.9150   21.4680 O   0  0  0  0  0  0  0  0  0  0  0  0
  -21.5500   -6.1820   22.6250 C   0  0  0  0  0  0  0  0  0  0  0  0
  -21.0550   -6.7350   23.8260 C   0  0  0  0  0  3  0  0  0  0  0  0
  -20.9310   -5.9280   24.9740 C   0  0  0  0  0  3  0  0  0  0  0  0
  -21.2910   -4.5670   24.9220 C   0  0  0  0  0  0  0  0  0  0  0  0
  -21.7780   -4.0130   23.7250 C   0  0  0  0  0  3  0  0  0  0  0  0
  -21.9040   -4.8180   22.5790 C   0  0  0  0  0  0  0  0  0  0  0  0
  -22.3540   -4.2750   21.4230 F   0  0  0  0  0  0  0  0  0  0  0  0
  -21.1640   -3.7890   26.0220 F   0  0  0  0  0  0  0  0  0  0  0  0
  -22.6820  -13.5580   21.1640 C   0  0  0  0  0  0  0  0  0  0  0  0
  -21.9560  -12.8640   22.0320 N   0  0  0  0  0  0  0  0  0  0  0  0
  -22.2420  -14.5760   20.6330 O   0  0  0  0  0  0  0  0  0  0  0  0
  -22.3250  -12.0410   22.4830 H   0  0  0  0  0  0  0  0  0  0  0  0
  -21.0160  -13.1630   22.2500 H   0  0  0  0  0  0  0  0  0  0  0  0
  -25.3070  -15.2410   20.3760 N   0  0  0  0  0  0  0  0  0  0  0  0
  -24.5430  -15.8960   20.5060 H   0  0  0  0  0  0  0  0  0  0  0  0
  -26.1740  -15.6930   20.1160 H   0  0  0  0  0  0  0  0  0  0  0  0
  -28.8900  -23.3120   20.1300 C   0  0  0  0  0  0  0  0  0  0  0  0
  -28.7160  -21.9170   20.4520 N   0  0  0  0  0  0  0  0  0  0  0  0
  -29.9780  -23.6430   19.6580 O   0  0  0  0  0  0  0  0  0  0  0  0
  -27.7930  -21.6990   20.8070 H   0  0  0  0  0  0  0  0  0  0  0  0
  -27.7740  -24.5600   20.2820 C   0  0  0  0  0  2  0  0  0  0  0  0
  -28.1070  -26.1090   20.1620 O   0  0  0  0  0  0  0  0  0  0  0  0
  -24.5480  -31.8690   23.2290 C   0  0  0  0  0  0  0  0  0  0  0  0
  -27.0660  -27.1290   20.1350 C   0  0  0  0  0  0  0  0  0  0  0  0
  -23.3250  -30.4910   21.5950 C   0  0  0  0  0  3  0  0  0  0  0  0
  -24.7510  -28.9190   20.1410 C   0  0  0  0  0  0  0  0  0  0  0  0
  -25.8820  -30.7370   21.4040 C   0  0  0  0  0  2  0  0  0  0  0  0
  -25.9420  -29.3450   20.7400 C   0  0  0  0  0  0  0  0  0  0  0  0
  -27.1010  -28.4690   20.7160 C   0  0  0  0  0  3  0  0  0  0  0  0
  -25.8450  -26.8230   19.4910 C   0  0  0  0  0  3  0  0  0  0  0  0
  -24.7190  -27.6740   19.4980 C   0  0  0  0  0  3  0  0  0  0  0  0
  -23.5290  -29.8250   20.2090 C   0  0  0  0  0  2  0  0  0  0  0  0
  -24.6060  -31.0540   22.1300 N   0  0  0  0  0  0  0  0  0  0  0  0
  -23.4690  -32.1530   23.7720 O   0  0  0  0  0  0  0  0  0  0  0  0
  -22.6520  -29.4800   22.5570 C   0  0  0  0  0  0  0  0  0  0  0  0
  -21.3260  -29.2950   22.4280 N   0  0  0  0  0  0  0  0  0  0  0  0
  -23.3270  -28.8640   23.3870 O   0  0  0  0  0  0  0  0  0  0  0  0
  -20.8360  -29.8430   21.7340 H   0  0  0  0  0  0  0  0  0  0  0  0
  -17.9610  -28.0330   22.9060 C   0  0  0  0  0  0  0  0  0  0  0  0
  -20.5120  -28.3500   23.1990 C   0  0  0  0  0  3  0  0  0  0  0  0
  -20.6470  -26.9140   22.6420 C   0  0  0  0  0  2  0  0  0  0  0  0
  -19.5630  -26.5580   21.6190 C   0  0  0  0  0  2  0  0  0  0  0  0
  -18.1710  -26.6820   22.2440 C   0  0  0  0  0  2  0  0  0  0  0  0
  -19.0590  -28.8230   23.3390 C   0  0  0  0  0  0  0  0  0  0  0  0
  -18.8060  -30.0860   23.9190 C   0  0  0  0  0  3  0  0  0  0  0  0
  -17.4890  -30.5590   24.0680 C   0  0  0  0  0  3  0  0  0  0  0  0
  -16.4060  -29.7670   23.6490 C   0  0  0  0  0  3  0  0  0  0  0  0
  -16.6430  -28.5060   23.0740 C   0  0  0  0  0  3  0  0  0  0  0  0
  -25.8340  -32.4980   23.8470 C   0  0  0  0  0  3  0  0  0  0  0  0
  -26.3500  -31.7240   25.1240 C   0  0  1  0  0  0  0  0  0  0  0  0
  -25.2610  -31.4980   26.1970 C   0  0  0  0  0  1  0  0  0  0  0  0
  -26.9210  -30.3410   24.7360 C   0  0  0  0  0  1  0  0  0  0  0  0
  -27.5100  -32.5120   25.7780 C   0  0  0  0  0  1  0  0  0  0  0  0
  -25.5310  -33.8970   24.1860 N   0  0  0  0  0  0  0  0  0  0  0  0
  -25.8450  -34.9550   23.4250 C   0  0  0  0  0  0  0  0  0  0  0  0
  -26.4860  -34.8540   22.3760 O   0  0  0  0  0  0  0  0  0  0  0  0
  -24.9610  -34.0500   25.0050 H   0  0  0  0  0  0  0  0  0  0  0  0
  -24.1130  -36.7580   23.1290 C   0  0  0  0  0  1  0  0  0  0  0  0
  -25.3750  -36.3440   23.9040 C   0  0  0  0  0  3  0  0  0  0  0  0
  -27.5310  -37.2260   24.6820 C   0  0  0  0  0  1  0  0  0  0  0  0
  -26.4080  -37.3950   23.7660 N   0  0  0  0  0  0  0  0  0  0  0  0
  -26.0070  -38.3170   23.9210 H   0  0  0  0  0  0  0  0  0  0  0  0
  -30.8160  -20.7860   21.4340 C   0  0  0  0  0  2  0  0  0  0  0  0
  -31.7890  -21.8980   21.1510 C   0  0  0  0  0  0  0  0  0  0  0  0
  -31.8640  -22.9400   21.9960 N   0  0  0  0  0  0  0  0  0  0  0  0
  -32.6260  -21.8210   20.1030 N   0  0  0  0  0  4  0  0  0  0  0  0
  -31.2670  -22.9870   22.8110 H   0  0  0  0  0  0  0  0  0  0  0  0
  -32.4990  -23.7140   21.8680 H   0  0  0  0  0  0  0  0  0  0  0  0
  -32.6280  -21.0210   19.4860 H   0  0  0  0  0  0  0  0  0  0  0  0
  -33.2650  -22.5640   19.8640 H   0  0  0  0  0  0  0  0  0  0  0  0
  1 46  1  0
  1 10  1  0
  1 91  1  0
  3  8  1  0
  4  5  1  0
  4  3  1  0
  6  5  1  0
  6 20  1  0
  6  7  1  0
  8  2  1  0
  8  7  1  0
  9  2  2  0
 10 16  2  0
 11 13  1  0
 11 12  1  0
 12 14  1  0
 13 15  1  0
 14 10  1  0
 15 14  1  0
 15  2  1  0
 17 18  2  0
 18 37  1  0
 19 18  1  0
 19 22  1  0
 20 17  1  0
 20 21  1  0
 21 19  2  0
 22 23  1  0
 23 24  2  0
 25 28  1  0
 25 24  1  0
 26 25  2  0
 27 26  1  0
 27 22  2  0
 28 29  1  0
 29 30  1  0
 30 31  2  0
 32 31  1  0
 32 36  1  0
 33 32  2  0
 34 29  2  0
 34 33  1  0
 35 34  1  0
 37 38  1  0
 38 41  1  0
 38 40  1  0
 39 37  2  0
 42 43  1  0
 42 17  1  0
 44 42  1  0
 45 49  1  0
 45 46  1  0
 46 48  1  0
 47 45  2  0
 50 49  1  0
 51 62  2  0
 52 50  1  0
 52 57  1  0
 53 61  1  0
 53 63  1  0
 54 60  1  0
 54 56  1  0
 55 61  1  0
 56 55  1  0
 57 56  2  0
 58 59  1  0
 58 52  2  0
 59 54  2  0
 60 53  1  0
 61 51  1  0
 63 65  2  0
 64 63  1  0
 66 64  1  0
 67 76  2  0
 67 72  1  0
 68 64  1  0
 68 72  1  0
 69 68  1  0
 70 71  1  0
 70 69  1  0
 71 67  1  0
 72 73  2  0
 73 74  1  0
 75 74  2  0
 76 75  1  0
 77 51  1  0
 77 82  1  0
 77 78  1  0
 78 81  1  1
 78 79  1  0
 80 78  1  0
 82 85  1  0
 83 87  1  0
 83 82  1  0
 84 83  2  0
 87 86  1  0
 89 87  1  0
 89 90  1  0
 89 88  1  0
 92 91  1  0
 92 93  1  0
 93 95  1  0
 94 92  2  0
 96 93  1  0
 97 94  1  0
 98 94  1  0
M  ISO  4   2 100  15 100  49 101  50 101
M  END
>  <TORSDO>  (37) 
F 20

>  <SCORE>  (37) 
-12.686

>  <name>  (37) 
37

>  <ligand_id>  (37) 
37

>  <original_smiles>  (37) 
[H]c1c([H])c([H])c2c(c1[H])C([H])([H])C([H])([H])C([H])([H])C2([H])N([H])C(=O)C1([H])N(C(=O)C([H])(N([H])C(=O)C([H])(N([H])C([H])([H])[H])C([H])([H])[H])C(C([H])([H])[H])(C([H])([H])[H])C([H])([H])[H])C([H])([H])c2c([H])c(OC([H])([H])C(=O)N([H])C([H])(C(=O)N3N(C(=O)N4C([H])([H])C([H])([H])C([H])([H])C([H])(n5nc(-c6c([H])c([H])c(Oc7c([H])c([H])c(F)c([H])c7F)c([H])c6[H])c(C(=O)N([H])[H])c5N([H])[H])C4([H])[H])C([H])([H])C([H])([H])C3([H])[H])C([H])([H])C(N([H])[H])=[N+]([H])[H])c([H])c([H])c2C1([H])[H]

>  <smiles>  (37) 
[H]c1c([H])c([H])c2c(c1[H])C([H])([H])C([H])([H])C([H])([H])C2([H])N([H])C(=O)C1([H])N(C(=O)C([H])(N([H])C(=O)C([H])(N([H])C([H])([H])[H])C([H])([H])[H])C(C([H])([H])[H])(C([H])([H])[H])C([H])([H])[H])C([H])([H])c2c([H])c(OC([H])([H])C(=O)N([H])C([H])(C(=O)N3N(C(=O)N4C([H])([H])C([H])([H])C([H])([H])C([H])(n5nc(-c6c([H])c([H])c(Oc7c([H])c([H])c(F)c([H])c7F)c([H])c6[H])c(C(=O)N([H])[H])c5N([H])[H])C4([H])[H])C([H])([H])C([H])([H])C3([H])[H])C([H])([H])C(N([H])[H])=[N+]([H])[H])c([H])c([H])c2C1([H])[H]

$$$$
38:0:0
     RDKit          3D

102109  0  0  1  0  0  0  0  0999 V2000
  -28.8040  -21.8810   17.5440 C   0  0  0  0  0  0  0  0  0  0  0  0
  -29.1970  -22.0230   16.2710 N   0  0  0  0  0  0  0  0  0  0  0  0
  -29.4670  -21.2560   18.3730 O   0  0  0  0  0  0  0  0  0  0  0  0
  -28.6690  -22.6450   15.6760 H   0  0  0  0  0  0  0  0  0  0  0  0
  -30.2080  -21.1850   15.6250 C   0  0  0  0  0  2  0  0  0  0  0  0
  -29.8090  -19.7060   15.7510 C   0  0  0  0  0  0  0  0  0  0  0  0
  -30.6150  -18.8900   16.4550 N   0  0  0  0  0  0  0  0  0  0  0  0
  -28.7630  -19.3270   15.2130 O   0  0  0  0  0  0  0  0  0  0  0  0
  -31.4690  -19.2940   16.8120 H   0  0  0  0  0  0  0  0  0  0  0  0
  -30.4180  -17.4490   16.6810 C   0  0  0  0  0  2  0  0  0  0  0  0
  -30.5260  -16.9560   18.1650 C   0  0  0  0  0  2  0  0  0  0  0  0
  -29.7120  -17.7110   19.2490 C   0  0  0  0  0  2  0  0  0  0  0  0
  -30.0920  -17.3190   20.7130 C   0  0  0  0  0  2  0  0  0  0  0  0
  -30.7170  -14.8550   21.0650 C   0  0  0  0  0  0  0  0  0  0  0  0
  -30.6570  -12.6370   20.0110 C   0  0  0  0  0  2  0  0  0  0  0  0
  -29.8310  -12.7530   18.7120 C   0  0  0  0  0  2  0  0  0  0  0  0
  -28.3100  -12.6560   18.9810 C   0  0  0  0  0  2  0  0  0  0  0  0
  -27.8180  -13.4660   20.2120 C   0  0  0  0  0  3  0  0  0  0  0  0
  -28.7760  -13.2770   21.4130 C   0  0  0  0  0  2  0  0  0  0  0  0
  -30.1330  -13.6310   20.9590 N   0  0  0  0  0  0  0  0  0  0  0  0
  -31.9270  -15.0390   20.9300 O   0  0  0  0  0  0  0  0  0  0  0  0
  -29.8420  -15.8890   21.0110 N   0  0  0  0  0  0  0  0  0  0  0  0
  -28.8710  -15.6260   21.0490 H   0  0  0  0  0  0  0  0  0  0  0  0
  -25.3340  -14.0070   20.6510 C   0  0  0  0  0  0  0  0  0  0  0  0
  -24.2580  -13.2030   20.9230 C   0  0  0  0  0  0  0  0  0  0  0  0
  -24.7670  -11.8740   20.9930 C   0  0  0  0  0  0  0  0  0  0  0  0
  -26.4300  -13.1600   20.5540 N   0  0  0  0  0  0  0  0  0  0  0  0
  -26.0860  -11.8720   20.8230 N   0  0  0  0  0  0  0  0  0  0  0  0
  -24.0650  -10.5910   21.1470 C   0  0  0  0  0  0  0  0  0  0  0  0
  -24.4550   -9.6420   22.1220 C   0  0  0  0  0  3  0  0  0  0  0  0
  -23.7460   -8.4280   22.2600 C   0  0  0  0  0  3  0  0  0  0  0  0
  -22.6470   -8.1480   21.4130 C   0  0  0  0  0  0  0  0  0  0  0  0
  -22.2760   -9.0850   20.4340 C   0  0  0  0  0  3  0  0  0  0  0  0
  -22.9840  -10.2930   20.2950 C   0  0  0  0  0  3  0  0  0  0  0  0
  -21.9250   -6.9790   21.4550 O   0  0  0  0  0  0  0  0  0  0  0  0
  -21.8230   -6.2410   22.6010 C   0  0  0  0  0  0  0  0  0  0  0  0
  -21.3340   -6.7980   23.8050 C   0  0  0  0  0  3  0  0  0  0  0  0
  -21.1740   -5.9860   24.9440 C   0  0  0  0  0  3  0  0  0  0  0  0
  -21.4940   -4.6150   24.8870 C   0  0  0  0  0  0  0  0  0  0  0  0
  -21.9780   -4.0600   23.6890 C   0  0  0  0  0  3  0  0  0  0  0  0
  -22.1400   -4.8670   22.5520 C   0  0  0  0  0  0  0  0  0  0  0  0
  -22.5880   -4.3200   21.3950 F   0  0  0  0  0  0  0  0  0  0  0  0
  -21.3310   -3.8340   25.9790 F   0  0  0  0  0  0  0  0  0  0  0  0
  -22.8180  -13.6380   21.0200 C   0  0  0  0  0  0  0  0  0  0  0  0
  -22.0240  -12.9720   21.8510 N   0  0  0  0  0  0  0  0  0  0  0  0
  -22.3990  -14.6120   20.3960 O   0  0  0  0  0  0  0  0  0  0  0  0
  -22.3690  -12.1910   22.3940 H   0  0  0  0  0  0  0  0  0  0  0  0
  -21.0550  -13.2430   21.9440 H   0  0  0  0  0  0  0  0  0  0  0  0
  -25.4680  -15.3800   20.4650 N   0  0  0  0  0  0  0  0  0  0  0  0
  -24.6790  -16.0130   20.5600 H   0  0  0  0  0  0  0  0  0  0  0  0
  -26.3430  -15.8650   20.3250 H   0  0  0  0  0  0  0  0  0  0  0  0
  -27.4370  -22.4780   17.9280 C   0  0  0  0  0  3  0  0  0  0  0  0
  -28.1720  -24.3670   19.3350 C   0  0  0  0  0  0  0  0  0  0  0  0
  -27.5200  -23.2110   19.1880 N   0  0  0  0  0  0  0  0  0  0  0  0
  -28.7910  -24.9050   18.4100 O   0  0  0  0  0  0  0  0  0  0  0  0
  -27.0550  -22.8120   19.9920 H   0  0  0  0  0  0  0  0  0  0  0  0
  -28.0810  -25.0460   20.7030 C   0  0  0  0  0  2  0  0  0  0  0  0
  -28.1240  -26.4650   20.5870 O   0  0  0  0  0  0  0  0  0  0  0  0
  -24.5420  -31.8760   23.4480 C   0  0  0  0  0  0  0  0  0  0  0  0
  -26.9380  -27.1670   20.6130 C   0  0  0  0  0  0  0  0  0  0  0  0
  -23.2650  -30.4810   21.8540 C   0  0  0  0  0  3  0  0  0  0  0  0
  -24.6300  -28.7930   20.5350 C   0  0  0  0  0  0  0  0  0  0  0  0
  -25.8040  -30.6830   21.6720 C   0  0  0  0  0  2  0  0  0  0  0  0
  -25.8140  -29.2830   21.1000 C   0  0  0  0  0  0  0  0  0  0  0  0
  -26.9670  -28.4800   21.1280 C   0  0  0  0  0  3  0  0  0  0  0  0
  -25.7210  -26.6810   20.0720 C   0  0  0  0  0  3  0  0  0  0  0  0
  -24.5760  -27.4950   20.0090 C   0  0  0  0  0  3  0  0  0  0  0  0
  -23.4490  -29.7270   20.5080 C   0  0  0  0  0  2  0  0  0  0  0  0
  -24.5550  -31.0230   22.3880 N   0  0  0  0  0  0  0  0  0  0  0  0
  -23.4780  -32.2440   23.9650 O   0  0  0  0  0  0  0  0  0  0  0  0
  -22.5500  -29.5350   22.8440 C   0  0  0  0  0  0  0  0  0  0  0  0
  -21.2410  -29.3310   22.6290 N   0  0  0  0  0  0  0  0  0  0  0  0
  -23.1690  -28.9870   23.7620 O   0  0  0  0  0  0  0  0  0  0  0  0
  -20.8070  -29.8150   21.8540 H   0  0  0  0  0  0  0  0  0  0  0  0
  -17.8480  -28.1410   22.9410 C   0  0  0  0  0  0  0  0  0  0  0  0
  -20.3680  -28.4650   23.4180 C   0  0  0  0  0  3  0  0  0  0  0  0
  -20.5320  -26.9840   23.0040 C   0  0  0  0  0  2  0  0  0  0  0  0
  -19.5310  -26.5440   21.9320 C   0  0  0  0  0  2  0  0  0  0  0  0
  -18.0950  -26.7340   22.4280 C   0  0  0  0  0  2  0  0  0  0  0  0
  -18.9160  -28.9610   23.3960 C   0  0  0  0  0  0  0  0  0  0  0  0
  -18.6310  -30.2780   23.8230 C   0  0  0  0  0  3  0  0  0  0  0  0
  -17.3130  -30.7700   23.8100 C   0  0  0  0  0  3  0  0  0  0  0  0
  -16.2600  -29.9460   23.3770 C   0  0  0  0  0  3  0  0  0  0  0  0
  -16.5290  -28.6360   22.9480 C   0  0  0  0  0  3  0  0  0  0  0  0
  -25.8660  -32.4480   24.0550 C   0  0  0  0  0  3  0  0  0  0  0  0
  -25.6530  -33.8770   24.3080 N   0  0  0  0  0  0  0  0  0  0  0  0
  -26.0460  -34.8580   23.4860 C   0  0  0  0  0  0  0  0  0  0  0  0
  -26.6980  -34.6500   22.4590 O   0  0  0  0  0  0  0  0  0  0  0  0
  -25.0790  -34.1170   25.1020 H   0  0  0  0  0  0  0  0  0  0  0  0
  -24.4200  -36.7180   23.0240 C   0  0  0  0  0  1  0  0  0  0  0  0
  -25.6400  -36.2940   23.8580 C   0  0  0  0  0  3  0  0  0  0  0  0
  -27.8320  -37.0930   24.6310 C   0  0  0  0  0  1  0  0  0  0  0  0
  -26.7320  -37.2770   23.6880 N   0  0  0  0  0  0  0  0  0  0  0  0
  -26.3840  -38.2270   23.7890 H   0  0  0  0  0  0  0  0  0  0  0  0
  -26.3190  -31.7070   25.3730 C   0  0  1  0  0  0  0  0  0  0  0  0
  -25.1850  -31.5450   26.4120 C   0  0  0  0  0  1  0  0  0  0  0  0
  -26.8610  -30.2970   25.0420 C   0  0  0  0  0  1  0  0  0  0  0  0
  -27.4810  -32.4800   26.0420 C   0  0  0  0  0  1  0  0  0  0  0  0
  -26.4010  -21.3390   18.0600 C   0  0  0  0  0  2  0  0  0  0  0  0
  -24.0220  -20.4990   17.7770 C   0  0  0  0  0  1  0  0  0  0  0  0
  -24.7600  -22.5010   16.4600 C   0  0  0  0  0  1  0  0  0  0  0  0
  -24.9300  -21.7370   17.7870 C   0  0  0  0  0  3  0  0  0  0  0  0
  1 52  1  0
  1  3  2  0
  2  1  1  0
  4  2  1  0
  5  6  1  0
  5  2  1  0
  6  7  1  0
  7 10  1  0
  7  9  1  0
  8  6  2  0
 10 11  1  0
 11 12  1  0
 12 13  1  0
 13 22  1  0
 15 20  1  0
 16 17  1  0
 16 15  1  0
 18 17  1  0
 18 27  1  0
 18 19  1  0
 20 14  1  0
 20 19  1  0
 21 14  2  0
 22 23  1  0
 22 14  1  0
 24 25  2  0
 25 26  1  0
 25 44  1  0
 26 29  1  0
 27 24  1  0
 27 28  1  0
 28 26  2  0
 29 30  1  0
 30 31  2  0
 32 35  1  0
 32 31  1  0
 33 32  2  0
 34 33  1  0
 34 29  2  0
 35 36  1  0
 36 37  1  0
 37 38  2  0
 39 38  1  0
 39 43  1  0
 40 39  2  0
 41 36  2  0
 41 40  1  0
 42 41  1  0
 44 45  1  0
 45 48  1  0
 45 47  1  0
 46 44  2  0
 49 50  1  0
 49 24  1  0
 51 49  1  0
 52 99  1  0
 52 54  1  0
 53 57  1  0
 54 53  1  0
 54 56  1  0
 55 53  2  0
 58 60  1  0
 58 57  1  0
 59 70  2  0
 60 65  1  0
 61 69  1  0
 61 71  1  0
 62 64  1  0
 63 69  1  0
 64 65  2  0
 64 63  1  0
 66 60  2  0
 67 66  1  0
 67 62  2  0
 68 62  1  0
 68 61  1  0
 69 59  1  0
 71 73  2  0
 72 71  1  0
 74 72  1  0
 75 84  2  0
 75 80  1  0
 76 72  1  0
 77 76  1  0
 78 79  1  0
 78 77  1  0
 79 75  1  0
 80 76  1  0
 80 81  2  0
 82 81  1  0
 83 82  2  0
 84 83  1  0
 85 59  1  0
 85 86  1  0
 85 95  1  0
 86 89  1  0
 87 91  1  0
 87 86  1  0
 88 87  2  0
 91 90  1  0
 93 94  1  0
 93 91  1  0
 93 92  1  0
 95 98  1  1
 95 96  1  0
 97 95  1  0
100102  1  0
101102  1  0
102 99  1  0
M  ISO  4  14 100  22 100  57 101  58 101
M  END
>  <TORSDO>  (38) 
F 27

>  <SCORE>  (38) 
-9.608

>  <name>  (38) 
38

>  <ligand_id>  (38) 
38

>  <original_smiles>  (38) 
[H]c1c([H])c([H])c2c(c1[H])C([H])([H])C([H])([H])C([H])([H])C2([H])N([H])C(=O)C1([H])N(C(=O)C([H])(N([H])C(=O)C([H])(N([H])C([H])([H])[H])C([H])([H])[H])C(C([H])([H])[H])(C([H])([H])[H])C([H])([H])[H])C([H])([H])c2c([H])c(OC([H])([H])C(=O)N([H])C([H])(C(=O)N([H])C([H])([H])C(=O)N([H])C([H])([H])C([H])([H])C([H])([H])C([H])([H])N([H])C(=O)N3C([H])([H])C([H])([H])C([H])([H])C([H])(n4nc(-c5c([H])c([H])c(Oc6c([H])c([H])c(F)c([H])c6F)c([H])c5[H])c(C(=O)N([H])[H])c4N([H])[H])C3([H])[H])C([H])([H])C([H])(C([H])([H])[H])C([H])([H])[H])c([H])c([H])c2C1([H])[H]

>  <smiles>  (38) 
[H]c1c([H])c([H])c2c(c1[H])C([H])([H])C([H])([H])C([H])([H])C2([H])N([H])C(=O)C1([H])N(C(=O)C([H])(N([H])C(=O)C([H])(N([H])C([H])([H])[H])C([H])([H])[H])C(C([H])([H])[H])(C([H])([H])[H])C([H])([H])[H])C([H])([H])c2c([H])c(OC([H])([H])C(=O)N([H])C([H])(C(=O)N([H])C([H])([H])C(=O)N([H])C([H])([H])C([H])([H])C([H])([H])C([H])([H])N([H])C(=O)N3C([H])([H])C([H])([H])C([H])([H])C([H])(n4nc(-c5c([H])c([H])c(Oc6c([H])c([H])c(F)c([H])c6F)c([H])c5[H])c(C(=O)N([H])[H])c4N([H])[H])C3([H])[H])C([H])([H])C([H])(C([H])([H])[H])C([H])([H])[H])c([H])c([H])c2C1([H])[H]

$$$$
39:0:0
     RDKit          3D

 98105  0  0  1  0  0  0  0  0999 V2000
  -27.3540  -23.5500   20.4620 C   0  0  0  0  0  3  0  0  0  0  0  0
  -26.1430  -23.3130   21.3880 C   0  0  0  0  0  0  0  0  0  0  0  0
  -24.9320  -23.3100   20.8510 N   0  0  0  0  0  0  0  0  0  0  0  0
  -26.3020  -23.1400   22.5970 O   0  0  0  0  0  0  0  0  0  0  0  0
  -24.8040  -23.4320   19.8570 H   0  0  0  0  0  0  0  0  0  0  0  0
  -24.1220  -23.1720   21.4370 H   0  0  0  0  0  0  0  0  0  0  0  0
  -28.6010  -21.3980   20.2870 C   0  0  0  0  0  0  0  0  0  0  0  0
  -28.3570  -22.5720   20.8880 N   0  0  0  0  0  0  0  0  0  0  0  0
  -28.3170  -21.1920   19.1060 O   0  0  0  0  0  0  0  0  0  0  0  0
  -28.5990  -22.6200   21.8680 H   0  0  0  0  0  0  0  0  0  0  0  0
  -29.9210  -20.6910   22.4310 C   0  0  0  0  0  1  0  0  0  0  0  0
  -29.1820  -20.2620   21.1470 C   0  0  0  0  0  3  0  0  0  0  0  0
  -29.8990  -17.9730   20.4900 C   0  0  0  0  0  0  0  0  0  0  0  0
  -29.9930  -19.3060   20.3870 N   0  0  0  0  0  0  0  0  0  0  0  0
  -29.0130  -17.4220   21.1470 O   0  0  0  0  0  0  0  0  0  0  0  0
  -30.7210  -19.6930   19.8000 H   0  0  0  0  0  0  0  0  0  0  0  0
  -30.9530  -17.1150   19.7810 C   0  0  0  0  0  2  0  0  0  0  0  0
  -31.3890  -14.6630   19.6390 C   0  0  0  0  0  0  0  0  0  0  0  0
  -31.0890  -12.3210   18.9440 C   0  0  0  0  0  2  0  0  0  0  0  0
  -30.0780  -12.2690   17.7800 C   0  0  0  0  0  2  0  0  0  0  0  0
  -28.6310  -12.2120   18.3090 C   0  0  0  0  0  2  0  0  0  0  0  0
  -28.3430  -13.2860   19.3910 C   0  0  0  0  0  3  0  0  0  0  0  0
  -29.4530  -13.2790   20.4650 C   0  0  0  0  0  2  0  0  0  0  0  0
  -30.7460  -13.4760   19.7840 N   0  0  0  0  0  0  0  0  0  0  0  0
  -32.4420  -14.8020   19.0120 O   0  0  0  0  0  0  0  0  0  0  0  0
  -30.7270  -15.7150   20.1240 N   0  0  0  0  0  0  0  0  0  0  0  0
  -29.8470  -15.5410   20.5890 H   0  0  0  0  0  0  0  0  0  0  0  0
  -26.0820  -14.0570   20.3550 C   0  0  0  0  0  0  0  0  0  0  0  0
  -24.9850  -13.3580   20.7800 C   0  0  0  0  0  0  0  0  0  0  0  0
  -25.3180  -11.9760   20.6380 C   0  0  0  0  0  0  0  0  0  0  0  0
  -27.0180  -13.1050   19.9810 N   0  0  0  0  0  0  0  0  0  0  0  0
  -26.5650  -11.8450   20.2080 N   0  0  0  0  0  0  0  0  0  0  0  0
  -24.5020  -10.7710   20.8360 C   0  0  0  0  0  0  0  0  0  0  0  0
  -24.8380   -9.8030   21.8090 C   0  0  0  0  0  3  0  0  0  0  0  0
  -24.0270   -8.6610   21.9910 C   0  0  0  0  0  3  0  0  0  0  0  0
  -22.8680   -8.4810   21.1990 C   0  0  0  0  0  0  0  0  0  0  0  0
  -22.5530   -9.4350   20.2160 C   0  0  0  0  0  3  0  0  0  0  0  0
  -23.3640  -10.5680   20.0320 C   0  0  0  0  0  3  0  0  0  0  0  0
  -22.0370   -7.3900   21.2890 O   0  0  0  0  0  0  0  0  0  0  0  0
  -21.7760   -6.7820   22.4900 C   0  0  0  0  0  0  0  0  0  0  0  0
  -21.2120   -7.4860   23.5760 C   0  0  0  0  0  3  0  0  0  0  0  0
  -20.8950   -6.8050   24.7680 C   0  0  0  0  0  3  0  0  0  0  0  0
  -21.1310   -5.4210   24.8750 C   0  0  0  0  0  0  0  0  0  0  0  0
  -21.6880   -4.7170   23.7920 C   0  0  0  0  0  3  0  0  0  0  0  0
  -22.0070   -5.3950   22.6020 C   0  0  0  0  0  0  0  0  0  0  0  0
  -22.5230   -4.7070   21.5550 F   0  0  0  0  0  0  0  0  0  0  0  0
  -20.8200   -4.7650   26.0170 F   0  0  0  0  0  0  0  0  0  0  0  0
  -23.6670  -13.9340   21.2140 C   0  0  0  0  0  0  0  0  0  0  0  0
  -22.9910  -13.2750   22.1500 N   0  0  0  0  0  0  0  0  0  0  0  0
  -23.2540  -14.9990   20.7610 O   0  0  0  0  0  0  0  0  0  0  0  0
  -23.3430  -12.4110   22.5370 H   0  0  0  0  0  0  0  0  0  0  0  0
  -22.1090  -13.6380   22.4810 H   0  0  0  0  0  0  0  0  0  0  0  0
  -26.3560  -15.4170   20.2490 N   0  0  0  0  0  0  0  0  0  0  0  0
  -25.6980  -16.1190   20.5670 H   0  0  0  0  0  0  0  0  0  0  0  0
  -27.2880  -15.7930   20.1100 H   0  0  0  0  0  0  0  0  0  0  0  0
  -27.8600  -25.0010   20.7040 C   0  0  0  0  0  2  0  0  0  0  0  0
  -28.3270  -25.7420   19.4290 C   0  0  0  0  0  2  0  0  0  0  0  0
  -28.3330  -27.1620   19.6120 O   0  0  0  0  0  0  0  0  0  0  0  0
  -24.5150  -31.9710   23.1820 C   0  0  0  0  0  0  0  0  0  0  0  0
  -27.1250  -27.8260   19.6890 C   0  0  0  0  0  0  0  0  0  0  0  0
  -23.2710  -30.6540   21.4990 C   0  0  0  0  0  3  0  0  0  0  0  0
  -24.6950  -29.2550   19.9180 C   0  0  0  0  0  0  0  0  0  0  0  0
  -25.7770  -31.0910   21.2230 C   0  0  0  0  0  2  0  0  0  0  0  0
  -25.8650  -29.7720   20.4840 C   0  0  0  0  0  0  0  0  0  0  0  0
  -27.0820  -29.0670   20.3620 C   0  0  0  0  0  3  0  0  0  0  0  0
  -25.9270  -27.3150   19.1320 C   0  0  0  0  0  3  0  0  0  0  0  0
  -24.7180  -28.0220   19.2460 C   0  0  0  0  0  3  0  0  0  0  0  0
  -23.4340  -30.0730   20.0710 C   0  0  0  0  0  2  0  0  0  0  0  0
  -24.5410  -31.2530   22.0250 N   0  0  0  0  0  0  0  0  0  0  0  0
  -23.4520  -32.1790   23.7830 O   0  0  0  0  0  0  0  0  0  0  0  0
  -22.6860  -29.5550   22.4120 C   0  0  0  0  0  0  0  0  0  0  0  0
  -21.3720  -29.3150   22.2870 N   0  0  0  0  0  0  0  0  0  0  0  0
  -23.4120  -28.9210   23.1820 O   0  0  0  0  0  0  0  0  0  0  0  0
  -20.8470  -29.8800   21.6340 H   0  0  0  0  0  0  0  0  0  0  0  0
  -18.0770  -27.8780   22.6950 C   0  0  0  0  0  0  0  0  0  0  0  0
  -20.6100  -28.2950   23.0060 C   0  0  0  0  0  3  0  0  0  0  0  0
  -20.8160  -26.8990   22.3700 C   0  0  0  0  0  2  0  0  0  0  0  0
  -19.7390  -26.5430   21.3390 C   0  0  0  0  0  2  0  0  0  0  0  0
  -18.3540  -26.5600   21.9930 C   0  0  0  0  0  2  0  0  0  0  0  0
  -19.1390  -28.7000   23.1590 C   0  0  0  0  0  0  0  0  0  0  0  0
  -18.8330  -29.9340   23.7750 C   0  0  0  0  0  3  0  0  0  0  0  0
  -17.4980  -30.3450   23.9380 C   0  0  0  0  0  3  0  0  0  0  0  0
  -16.4520  -29.5190   23.4940 C   0  0  0  0  0  3  0  0  0  0  0  0
  -16.7390  -28.2890   22.8740 C   0  0  0  0  0  3  0  0  0  0  0  0
  -25.8120  -32.5870   23.7940 C   0  0  0  0  0  3  0  0  0  0  0  0
  -26.3670  -31.7720   25.0260 C   0  0  1  0  0  0  0  0  0  0  0  0
  -25.3070  -31.4790   26.1140 C   0  0  0  0  0  1  0  0  0  0  0  0
  -26.9530  -30.4170   24.5650 C   0  0  0  0  0  1  0  0  0  0  0  0
  -27.5260  -32.5520   25.6910 C   0  0  0  0  0  1  0  0  0  0  0  0
  -25.5020  -33.9680   24.1830 N   0  0  0  0  0  0  0  0  0  0  0  0
  -25.8420  -35.0510   23.4720 C   0  0  0  0  0  0  0  0  0  0  0  0
  -26.5210  -34.9910   22.4440 O   0  0  0  0  0  0  0  0  0  0  0  0
  -24.9020  -34.0900   24.9840 H   0  0  0  0  0  0  0  0  0  0  0  0
  -24.1350  -36.8710   23.1590 C   0  0  0  0  0  1  0  0  0  0  0  0
  -25.3530  -36.4190   23.9820 C   0  0  0  0  0  3  0  0  0  0  0  0
  -27.4720  -37.2430   24.9080 C   0  0  0  0  0  1  0  0  0  0  0  0
  -26.3950  -37.4680   23.9480 N   0  0  0  0  0  0  0  0  0  0  0  0
  -25.9930  -38.3830   24.1310 H   0  0  0  0  0  0  0  0  0  0  0  0
  1 56  1  0
  1  8  1  0
  1  2  1  0
  2  4  2  0
  3  2  1  0
  3  6  1  0
  5  3  1  0
  7  8  1  0
  7 12  1  0
  8 10  1  0
  9  7  2  0
 12 11  1  0
 13 15  2  0
 14 13  1  0
 14 12  1  0
 16 14  1  0
 17 26  1  0
 17 13  1  0
 18 24  1  0
 18 26  1  0
 19 24  1  0
 20 21  1  0
 20 19  1  0
 22 21  1  0
 22 31  1  0
 22 23  1  0
 24 23  1  0
 25 18  2  0
 26 27  1  0
 28 29  2  0
 29 48  1  0
 30 29  1  0
 30 33  1  0
 31 32  1  0
 31 28  1  0
 32 30  2  0
 33 34  1  0
 34 35  2  0
 36 39  1  0
 36 35  1  0
 37 36  2  0
 38 37  1  0
 38 33  2  0
 39 40  1  0
 40 45  2  0
 40 41  1  0
 41 42  2  0
 42 43  1  0
 43 47  1  0
 44 43  2  0
 45 44  1  0
 46 45  1  0
 48 49  1  0
 49 52  1  0
 49 51  1  0
 50 48  2  0
 53 28  1  0
 53 54  1  0
 55 53  1  0
 57 58  1  0
 57 56  1  0
 58 60  1  0
 59 70  2  0
 60 65  1  0
 61 69  1  0
 61 71  1  0
 62 68  1  0
 62 64  1  0
 63 69  1  0
 64 63  1  0
 65 64  2  0
 66 67  1  0
 66 60  2  0
 67 62  2  0
 68 61  1  0
 69 59  1  0
 71 73  2  0
 72 71  1  0
 74 72  1  0
 75 84  2  0
 75 80  1  0
 76 72  1  0
 76 80  1  0
 77 76  1  0
 78 79  1  0
 78 77  1  0
 79 75  1  0
 80 81  2  0
 81 82  1  0
 83 82  2  0
 84 83  1  0
 85 59  1  0
 85 90  1  0
 85 86  1  0
 86 89  1  1
 86 87  1  0
 88 86  1  0
 90 93  1  0
 91 95  1  0
 91 90  1  0
 92 91  2  0
 95 94  1  0
 97 95  1  0
 97 98  1  0
 97 96  1  0
M  ISO  4  18 100  26 100  57 101  58 101
M  END
>  <TORSDO>  (39) 
F 23

>  <SCORE>  (39) 
-11.216

>  <name>  (39) 
39

>  <ligand_id>  (39) 
39

>  <original_smiles>  (39) 
[H]c1c([H])c([H])c2c(c1[H])C([H])([H])C([H])([H])C([H])([H])C2([H])N([H])C(=O)C1([H])N(C(=O)C([H])(N([H])C(=O)C([H])(N([H])C([H])([H])[H])C([H])([H])[H])C(C([H])([H])[H])(C([H])([H])[H])C([H])([H])[H])C([H])([H])c2c([H])c(OC([H])([H])C([H])([H])C([H])(C(=O)N([H])[H])N([H])C(=O)C([H])(N([H])C(=O)C([H])([H])N([H])C(=O)N3C([H])([H])C([H])([H])C([H])([H])C([H])(n4nc(-c5c([H])c([H])c(Oc6c([H])c([H])c(F)c([H])c6F)c([H])c5[H])c(C(=O)N([H])[H])c4N([H])[H])C3([H])[H])C([H])([H])[H])c([H])c([H])c2C1([H])[H]

>  <smiles>  (39) 
[H]c1c([H])c([H])c2c(c1[H])C([H])([H])C([H])([H])C([H])([H])C2([H])N([H])C(=O)C1([H])N(C(=O)C([H])(N([H])C(=O)C([H])(N([H])C([H])([H])[H])C([H])([H])[H])C(C([H])([H])[H])(C([H])([H])[H])C([H])([H])[H])C([H])([H])c2c([H])c(OC([H])([H])C([H])([H])C([H])(C(=O)N([H])[H])N([H])C(=O)C([H])(N([H])C(=O)C([H])([H])N([H])C(=O)N3C([H])([H])C([H])([H])C([H])([H])C([H])(n4nc(-c5c([H])c([H])c(Oc6c([H])c([H])c(F)c([H])c6F)c([H])c5[H])c(C(=O)N([H])[H])c4N([H])[H])C3([H])[H])C([H])([H])[H])c([H])c([H])c2C1([H])[H]

$$$$
40:0:0
     RDKit          3D

117124  0  0  1  0  0  0  0  0999 V2000
  -27.2720  -24.0270   27.2470 N   0  0  0  0  0  4  0  0  0  0  0  0
  -26.6730  -24.4520   27.9340 H   0  0  0  0  0  0  0  0  0  0  0  0
  -28.2200  -24.0470   27.5980 H   0  0  0  0  0  0  0  0  0  0  0  0
  -27.2250  -24.8310   26.0050 C   0  0  0  0  0  2  0  0  0  0  0  0
  -28.6110  -24.9140   25.3720 C   0  0  0  0  0  0  0  0  0  0  0  0
  -29.2650  -26.0750   25.4880 N   0  0  0  0  0  0  0  0  0  0  0  0
  -29.0890  -23.9270   24.8110 O   0  0  0  0  0  0  0  0  0  0  0  0
  -28.7790  -26.8650   25.8920 H   0  0  0  0  0  0  0  0  0  0  0  0
  -30.6090  -26.3510   24.9800 C   0  0  0  0  0  2  0  0  0  0  0  0
  -30.5820  -27.3100   23.7880 C   0  0  0  0  0  0  0  0  0  0  0  0
  -31.7530  -27.5450   23.1910 N   0  0  0  0  0  0  0  0  0  0  0  0
  -29.5310  -27.8420   23.4230 O   0  0  0  0  0  0  0  0  0  0  0  0
  -32.5710  -27.0750   23.5490 H   0  0  0  0  0  0  0  0  0  0  0  0
  -31.9410  -28.4120   22.0310 C   0  0  0  0  0  2  0  0  0  0  0  0
  -31.4440  -27.7540   20.7370 C   0  0  0  0  0  0  0  0  0  0  0  0
  -30.6140  -28.4780   19.9800 N   0  0  0  0  0  0  0  0  0  0  0  0
  -31.8150  -26.6150   20.4400 O   0  0  0  0  0  0  0  0  0  0  0  0
  -30.3600  -29.3900   20.3340 H   0  0  0  0  0  0  0  0  0  0  0  0
  -29.9670  -28.0730   18.7320 C   0  0  0  0  0  2  0  0  0  0  0  0
  -29.1300  -26.7850   18.8640 C   0  0  0  0  0  2  0  0  0  0  0  0
  -28.4030  -26.7680   20.0900 O   0  0  0  0  0  0  0  0  0  0  0  0
  -24.5050  -31.8660   23.2300 C   0  0  0  0  0  0  0  0  0  0  0  0
  -27.2470  -27.5030   20.0950 C   0  0  0  0  0  0  0  0  0  0  0  0
  -23.3810  -30.4910   21.5360 C   0  0  0  0  0  3  0  0  0  0  0  0
  -24.8570  -28.9830   20.1180 C   0  0  0  0  0  0  0  0  0  0  0  0
  -25.9010  -30.8840   21.3940 C   0  0  0  0  0  2  0  0  0  0  0  0
  -26.0010  -29.5070   20.7420 C   0  0  0  0  0  0  0  0  0  0  0  0
  -27.1970  -28.7590   20.7400 C   0  0  0  0  0  3  0  0  0  0  0  0
  -26.0910  -26.9850   19.4810 C   0  0  0  0  0  3  0  0  0  0  0  0
  -24.8940  -27.7210   19.4950 C   0  0  0  0  0  3  0  0  0  0  0  0
  -23.6110  -29.8340   20.1520 C   0  0  0  0  0  2  0  0  0  0  0  0
  -24.6270  -31.0960   22.1130 N   0  0  0  0  0  0  0  0  0  0  0  0
  -23.3790  -32.1220   23.6810 O   0  0  0  0  0  0  0  0  0  0  0  0
  -22.7270  -29.4550   22.4820 C   0  0  0  0  0  0  0  0  0  0  0  0
  -21.4020  -29.2970   22.3620 N   0  0  0  0  0  0  0  0  0  0  0  0
  -23.4060  -28.8100   23.2850 O   0  0  0  0  0  0  0  0  0  0  0  0
  -20.9150  -29.8750   21.6930 H   0  0  0  0  0  0  0  0  0  0  0  0
  -18.0250  -28.1390   22.8500 C   0  0  0  0  0  0  0  0  0  0  0  0
  -20.5810  -28.3640   23.1310 C   0  0  0  0  0  3  0  0  0  0  0  0
  -20.6700  -26.9370   22.5430 C   0  0  0  0  0  2  0  0  0  0  0  0
  -19.5690  -26.6360   21.5210 C   0  0  0  0  0  2  0  0  0  0  0  0
  -18.1890  -26.7940   22.1640 C   0  0  0  0  0  2  0  0  0  0  0  0
  -19.1500  -28.8830   23.2940 C   0  0  0  0  0  0  0  0  0  0  0  0
  -18.9460  -30.1440   23.8950 C   0  0  0  0  0  3  0  0  0  0  0  0
  -17.6480  -30.6600   24.0610 C   0  0  0  0  0  3  0  0  0  0  0  0
  -16.5360  -29.9130   23.6340 C   0  0  0  0  0  3  0  0  0  0  0  0
  -16.7250  -28.6550   23.0340 C   0  0  0  0  0  3  0  0  0  0  0  0
  -25.7130  -32.4890   23.9910 C   0  0  0  0  0  0  0  0  0  0  0  0
  -25.5760  -33.9190   24.2200 N   0  0  0  0  0  4  0  0  0  0  0  0
  -25.9500  -34.9540   23.4790 C   0  0  0  0  0  0  0  0  0  0  0  0
  -26.6100  -34.8550   22.4450 O   0  0  0  0  0  0  0  0  0  0  0  0
  -24.9910  -34.1560   25.0090 H   0  0  0  0  0  0  0  0  0  0  0  0
  -24.1810  -36.7450   23.2350 C   0  0  0  0  0  1  0  0  0  0  0  0
  -25.4550  -36.3240   23.9860 C   0  0  0  0  0  3  0  0  0  0  0  0
  -27.5810  -37.1920   24.8340 C   0  0  0  0  0  1  0  0  0  0  0  0
  -26.4710  -37.3890   23.9060 N   0  0  0  0  0  0  0  0  0  0  0  0
  -26.0590  -38.2970   24.0910 H   0  0  0  0  0  0  0  0  0  0  0  0
  -26.4670  -31.6270   25.0880 C   0  0  1  0  0  0  0  0  0  0  0  0
  -25.5240  -31.1960   26.2540 C   0  0  0  0  0  1  0  0  0  0  0  0
  -27.0780  -30.3280   24.5200 C   0  0  0  0  0  1  0  0  0  0  0  0
  -27.6300  -32.4410   25.6950 C   0  0  0  0  0  1  0  0  0  0  0  0
  -26.9310  -22.5930   27.1330 C   0  0  0  0  0  2  0  0  0  0  0  0
  -28.1860  -21.7360   27.3060 C   0  0  0  0  0  0  0  0  0  0  0  0
  -28.0600  -20.4210   27.1130 N   0  0  0  0  0  0  0  0  0  0  0  0
  -29.2570  -22.2780   27.6070 O   0  0  0  0  0  0  0  0  0  0  0  0
  -27.2840  -19.8870   26.7620 H   0  0  0  0  0  0  0  0  0  0  0  0
  -29.1510  -18.5950   26.0930 C   0  0  0  0  0  0  0  0  0  0  0  0
  -27.9620  -18.1340   25.5990 N   0  0  0  0  0  4  0  0  0  0  0  0
  -29.2160  -19.7040   26.8580 N   0  0  0  0  0  0  0  0  0  0  0  0
  -27.9720  -17.3820   24.9280 H   0  0  0  0  0  0  0  0  0  0  0  0
  -27.0670  -18.5520   25.8010 H   0  0  0  0  0  0  0  0  0  0  0  0
  -30.0960  -20.0810   27.1750 H   0  0  0  0  0  0  0  0  0  0  0  0
  -30.4520  -17.8560   25.7520 C   0  0  0  0  0  0  0  0  0  0  0  0
  -30.2730  -16.7070   25.0830 N   0  0  0  0  0  0  0  0  0  0  0  0
  -31.5470  -18.3330   26.0640 O   0  0  0  0  0  0  0  0  0  0  0  0
  -29.3120  -16.4140   24.9740 H   0  0  0  0  0  0  0  0  0  0  0  0
  -31.3210  -15.8400   24.5500 C   0  0  0  0  0  2  0  0  0  0  0  0
  -31.8650  -16.3410   23.1960 C   0  0  0  0  0  2  0  0  0  0  0  0
  -30.8190  -16.4410   22.0670 C   0  0  0  0  0  2  0  0  0  0  0  0
  -30.7620  -14.3600   20.6910 C   0  0  0  0  0  0  0  0  0  0  0  0
  -30.4180  -12.2890   19.3940 C   0  0  0  0  0  2  0  0  0  0  0  0
  -29.4830  -12.5290   18.1940 C   0  0  0  0  0  2  0  0  0  0  0  0
  -28.0080  -12.3820   18.6100 C   0  0  0  0  0  2  0  0  0  0  0  0
  -27.6680  -13.2000   19.8820 C   0  0  0  0  0  3  0  0  0  0  0  0
  -28.7040  -12.9330   20.9960 C   0  0  0  0  0  2  0  0  0  0  0  0
  -30.0480  -13.2270   20.4630 N   0  0  0  0  0  0  0  0  0  0  0  0
  -31.7820  -14.6580   20.0630 O   0  0  0  0  0  0  0  0  0  0  0  0
  -30.2870  -15.1370   21.6720 N   0  0  0  0  0  0  0  0  0  0  0  0
  -29.4520  -14.8120   22.1360 H   0  0  0  0  0  0  0  0  0  0  0  0
  -25.2610  -13.8160   20.5670 C   0  0  0  0  0  0  0  0  0  0  0  0
  -24.1830  -13.0420   20.9160 C   0  0  0  0  0  0  0  0  0  0  0  0
  -24.6390  -11.6900   20.8720 C   0  0  0  0  0  0  0  0  0  0  0  0
  -26.3050  -12.9310   20.3380 N   0  0  0  0  0  0  0  0  0  0  0  0
  -25.9310  -11.6470   20.5750 N   0  0  0  0  0  0  0  0  0  0  0  0
  -23.9050  -10.4290   21.0400 C   0  0  0  0  0  0  0  0  0  0  0  0
  -24.3610   -9.4210   21.9170 C   0  0  0  0  0  3  0  0  0  0  0  0
  -23.6290   -8.2240   22.0750 C   0  0  0  0  0  3  0  0  0  0  0  0
  -22.4270   -8.0280   21.3540 C   0  0  0  0  0  0  0  0  0  0  0  0
  -21.9900   -9.0250   20.4640 C   0  0  0  0  0  3  0  0  0  0  0  0
  -22.7220  -10.2130   20.3050 C   0  0  0  0  0  3  0  0  0  0  0  0
  -21.6630   -6.8870   21.4240 O   0  0  0  0  0  0  0  0  0  0  0  0
  -21.6850   -6.0730   22.5280 C   0  0  0  0  0  0  0  0  0  0  0  0
  -21.4010   -6.5640   23.8220 C   0  0  0  0  0  3  0  0  0  0  0  0
  -21.3660   -5.6790   24.9180 C   0  0  0  0  0  3  0  0  0  0  0  0
  -21.6050   -4.3050   24.7230 C   0  0  0  0  0  0  0  0  0  0  0  0
  -21.8820   -3.8140   23.4350 C   0  0  0  0  0  3  0  0  0  0  0  0
  -21.9190   -4.6960   22.3400 C   0  0  0  0  0  0  0  0  0  0  0  0
  -22.1660   -4.2150   21.0980 F   0  0  0  0  0  0  0  0  0  0  0  0
  -21.5630   -3.4540   25.7740 F   0  0  0  0  0  0  0  0  0  0  0  0
  -22.7870  -13.5250   21.1830 C   0  0  0  0  0  0  0  0  0  0  0  0
  -22.0510  -12.8230   22.0400 N   0  0  0  0  0  0  0  0  0  0  0  0
  -22.3560  -14.5550   20.6690 O   0  0  0  0  0  0  0  0  0  0  0  0
  -22.4120  -11.9890   22.4770 H   0  0  0  0  0  0  0  0  0  0  0  0
  -21.1130  -13.1260   22.2600 H   0  0  0  0  0  0  0  0  0  0  0  0
  -25.4340  -15.1870   20.4090 N   0  0  0  0  0  0  0  0  0  0  0  0
  -24.6720  -15.8470   20.5180 H   0  0  0  0  0  0  0  0  0  0  0  0
  -26.2970  -15.6240   20.1060 H   0  0  0  0  0  0  0  0  0  0  0  0
  1  3  1  0
  1  2  1  0
  4  1  1  0
  5  6  1  0
  5  4  1  0
  6  8  1  0
  7  5  2  0
  9  6  1  0
 10  9  1  0
 11 13  1  0
 11 10  1  0
 12 10  2  0
 14 11  1  0
 15 14  1  0
 16 18  1  0
 16 15  1  0
 17 15  2  0
 19 20  1  0
 19 16  1  0
 20 21  1  0
 21 23  1  0
 22 33  2  0
 22 48  1  0
 23 28  1  0
 24 32  1  0
 24 34  1  0
 25 31  1  0
 25 27  1  0
 26 32  1  0
 27 26  1  0
 28 27  2  0
 29 30  1  0
 29 23  2  0
 30 25  2  0
 31 24  1  0
 32 22  1  0
 34 36  2  0
 35 34  1  0
 37 35  1  0
 38 47  2  0
 38 43  1  0
 39 35  1  0
 39 43  1  0
 40 39  1  0
 41 42  1  0
 41 40  1  0
 42 38  1  0
 43 44  2  0
 44 45  1  0
 46 45  2  0
 47 46  1  0
 48 49  2  3
 48 58  1  0
 49 52  1  0
 50 54  1  0
 50 49  1  0
 51 50  2  0
 54 53  1  0
 56 54  1  0
 56 57  1  0
 56 55  1  0
 58 61  1  1
 58 59  1  0
 60 58  1  0
 62  1  1  0
 62 63  1  0
 63 65  2  0
 64 63  1  0
 66 64  1  0
 67 69  1  0
 68 71  1  0
 68 67  2  0
 69 64  1  0
 69 72  1  0
 70 68  1  0
 73 75  2  0
 73 67  1  0
 74 73  1  0
 76 74  1  0
 77 74  1  0
 78 77  1  0
 79 78  1  0
 80 88  1  0
 81 86  1  0
 82 83  1  0
 82 81  1  0
 84 83  1  0
 84 93  1  0
 84 85  1  0
 86 80  1  0
 86 85  1  0
 87 80  2  0
 88 79  1  0
 88 89  1  0
 90 91  2  0
 91110  1  0
 92 91  1  0
 92 95  1  0
 93 90  1  0
 93 94  1  0
 94 92  2  0
 95 96  1  0
 96 97  2  0
 98101  1  0
 98 97  1  0
 99 98  2  0
100 99  1  0
100 95  2  0
101102  1  0
102103  1  0
103104  2  0
105104  1  0
105109  1  0
106105  2  0
107102  2  0
107106  1  0
108107  1  0
110111  1  0
111114  1  0
111113  1  0
112110  2  0
115116  1  0
115 90  1  0
117115  1  0
M  ISO  4  20 101  21 101  80 100  88 100
M  END
>  <TORSDO>  (40) 
F 31

>  <SCORE>  (40) 
35.426

>  <name>  (40) 
40

>  <ligand_id>  (40) 
40

>  <original_smiles>  (40) 
[H]c1c([H])c([H])c2c(c1[H])C([H])([H])C([H])([H])C([H])([H])C2([H])N([H])C(=O)C1([H])N(C(=O)C([H])(N([H])C(=O)C([H])(N([H])C([H])([H])[H])C([H])([H])[H])C(C([H])([H])[H])(C([H])([H])[H])C([H])([H])[H])C([H])([H])c2c([H])c(OC([H])([H])C([H])([H])N([H])C(=O)C([H])([H])N([H])C(=O)C([H])([H])N([H])C(=O)C([H])([H])[N+]([H])([H])C([H])([H])C(=O)N([H])[N+]([H])=C(C(=O)N([H])C([H])([H])C([H])([H])C([H])([H])N([H])C(=O)N3C([H])([H])C([H])([H])C([H])([H])C([H])(n4nc(-c5c([H])c([H])c(Oc6c([H])c([H])c(F)c([H])c6F)c([H])c5[H])c(C(=O)N([H])[H])c4N([H])[H])C3([H])[H])N([H])[H])c([H])c([H])c2C1([H])[H]

>  <smiles>  (40) 
[H]c1c([H])c([H])c2c(c1[H])C([H])([H])C([H])([H])C([H])([H])C2([H])N([H])C(=O)C1([H])N(C(=O)C([H])(N([H])C(=O)C([H])(N([H])C([H])([H])[H])C([H])([H])[H])C(C([H])([H])[H])(C([H])([H])[H])C([H])([H])[H])C([H])([H])c2c([H])c(OC([H])([H])C([H])([H])N([H])C(=O)C([H])([H])N([H])C(=O)C([H])([H])N([H])C(=O)C([H])([H])[N+]([H])([H])C([H])([H])C(=O)N([H])[N+]([H])=C(C(=O)N([H])C([H])([H])C([H])([H])C([H])([H])N([H])C(=O)N3C([H])([H])C([H])([H])C([H])([H])C([H])(n4nc(-c5c([H])c([H])c(Oc6c([H])c([H])c(F)c([H])c6F)c([H])c5[H])c(C(=O)N([H])[H])c4N([H])[H])C3([H])[H])N([H])[H])c([H])c([H])c2C1([H])[H]

$$$$
41:0:0
     RDKit          3D

 89 96  0  0  1  0  0  0  0  0999 V2000
  -29.3200  -24.3400   20.4390 C   0  0  0  0  0  0  0  0  0  0  0  0
  -29.1230  -23.0090   20.3400 N   0  0  0  0  0  0  0  0  0  0  0  0
  -30.3230  -24.8240   20.9690 O   0  0  0  0  0  0  0  0  0  0  0  0
  -28.2690  -22.7160   19.8820 H   0  0  0  0  0  0  0  0  0  0  0  0
  -28.2060  -25.2360   19.8610 C   0  0  0  0  0  2  0  0  0  0  0  0
  -28.3570  -26.6420   20.1770 O   0  0  0  0  0  0  0  0  0  0  0  0
  -24.5850  -31.8720   23.2400 C   0  0  0  0  0  0  0  0  0  0  0  0
  -27.2010  -27.4110   20.1340 C   0  0  0  0  0  0  0  0  0  0  0  0
  -23.3710  -30.4790   21.6010 C   0  0  0  0  0  3  0  0  0  0  0  0
  -24.8140  -28.9490   20.1600 C   0  0  0  0  0  0  0  0  0  0  0  0
  -25.9000  -30.8250   21.3970 C   0  0  0  0  0  2  0  0  0  0  0  0
  -25.9790  -29.4560   20.7500 C   0  0  0  0  0  0  0  0  0  0  0  0
  -27.1740  -28.6940   20.7360 C   0  0  0  0  0  3  0  0  0  0  0  0
  -26.0140  -26.9420   19.5160 C   0  0  0  0  0  3  0  0  0  0  0  0
  -24.8290  -27.6920   19.5390 C   0  0  0  0  0  3  0  0  0  0  0  0
  -23.5720  -29.8110   20.2170 C   0  0  0  0  0  2  0  0  0  0  0  0
  -24.6380  -31.0730   22.1370 N   0  0  0  0  0  0  0  0  0  0  0  0
  -23.5070  -32.1460   23.7840 O   0  0  0  0  0  0  0  0  0  0  0  0
  -22.7230  -29.4530   22.5590 C   0  0  0  0  0  0  0  0  0  0  0  0
  -21.3980  -29.2720   22.4380 N   0  0  0  0  0  0  0  0  0  0  0  0
  -23.4090  -28.8240   23.3700 O   0  0  0  0  0  0  0  0  0  0  0  0
  -20.9040  -29.8330   21.7560 H   0  0  0  0  0  0  0  0  0  0  0  0
  -18.0250  -28.0790   22.9450 C   0  0  0  0  0  0  0  0  0  0  0  0
  -20.5830  -28.3340   23.2100 C   0  0  0  0  0  3  0  0  0  0  0  0
  -20.6830  -26.9040   22.6300 C   0  0  0  0  0  2  0  0  0  0  0  0
  -19.5760  -26.5840   21.6200 C   0  0  0  0  0  2  0  0  0  0  0  0
  -18.1970  -26.7290   22.2690 C   0  0  0  0  0  2  0  0  0  0  0  0
  -19.1450  -28.8390   23.3740 C   0  0  0  0  0  0  0  0  0  0  0  0
  -18.9290  -30.1020   23.9660 C   0  0  0  0  0  3  0  0  0  0  0  0
  -17.6260  -30.6050   24.1360 C   0  0  0  0  0  3  0  0  0  0  0  0
  -16.5200  -29.8420   23.7250 C   0  0  0  0  0  3  0  0  0  0  0  0
  -16.7200  -28.5800   23.1350 C   0  0  0  0  0  3  0  0  0  0  0  0
  -25.8750  -32.5020   23.8540 C   0  0  0  0  0  3  0  0  0  0  0  0
  -25.5660  -33.8960   24.1960 N   0  0  0  0  0  0  0  0  0  0  0  0
  -25.8800  -34.9530   23.4350 C   0  0  0  0  0  0  0  0  0  0  0  0
  -26.5330  -34.8580   22.3930 O   0  0  0  0  0  0  0  0  0  0  0  0
  -24.9840  -34.0440   25.0080 H   0  0  0  0  0  0  0  0  0  0  0  0
  -24.1310  -36.7340   23.1260 C   0  0  0  0  0  1  0  0  0  0  0  0
  -25.3940  -36.3370   23.9060 C   0  0  0  0  0  3  0  0  0  0  0  0
  -27.5420  -37.2340   24.6870 C   0  0  0  0  0  1  0  0  0  0  0  0
  -26.4160  -37.3970   23.7710 N   0  0  0  0  0  0  0  0  0  0  0  0
  -26.0060  -38.3140   23.9320 H   0  0  0  0  0  0  0  0  0  0  0  0
  -26.4050  -31.7210   25.1180 C   0  0  1  0  0  0  0  0  0  0  0  0
  -25.3220  -31.4720   26.1940 C   0  0  0  0  0  1  0  0  0  0  0  0
  -26.9880  -30.3480   24.7080 C   0  0  0  0  0  1  0  0  0  0  0  0
  -27.5590  -32.5120   25.7770 C   0  0  0  0  0  1  0  0  0  0  0  0
  -29.9950  -21.9430   20.8530 C   0  0  0  0  0  2  0  0  0  0  0  0
  -29.4380  -20.5280   20.5370 C   0  0  0  0  0  2  0  0  0  0  0  0
  -30.2930  -19.3630   21.1000 C   0  0  0  0  0  2  0  0  0  0  0  0
  -29.7520  -17.9420   20.7850 C   0  0  0  0  0  2  0  0  0  0  0  0
  -30.6310  -16.8070   21.3730 C   0  0  0  0  0  2  0  0  0  0  0  0
  -30.7320  -14.4520   20.4810 C   0  0  0  0  0  0  0  0  0  0  0  0
  -30.4070  -12.2920   19.3300 C   0  0  0  0  0  2  0  0  0  0  0  0
  -29.4830  -12.4860   18.1110 C   0  0  0  0  0  2  0  0  0  0  0  0
  -28.0030  -12.3710   18.5250 C   0  0  0  0  0  2  0  0  0  0  0  0
  -27.6580  -13.2300   19.7700 C   0  0  0  0  0  3  0  0  0  0  0  0
  -28.6960  -13.0140   20.8950 C   0  0  0  0  0  2  0  0  0  0  0  0
  -30.0310  -13.2930   20.3410 N   0  0  0  0  0  0  0  0  0  0  0  0
  -31.8450  -14.6220   19.9770 O   0  0  0  0  0  0  0  0  0  0  0  0
  -30.1000  -15.4530   21.1210 N   0  0  0  0  0  0  0  0  0  0  0  0
  -29.1820  -15.2400   21.4860 H   0  0  0  0  0  0  0  0  0  0  0  0
  -25.2550  -13.8710   20.4340 C   0  0  0  0  0  0  0  0  0  0  0  0
  -24.1740  -13.1140   20.7990 C   0  0  0  0  0  0  0  0  0  0  0  0
  -24.6230  -11.7580   20.7970 C   0  0  0  0  0  0  0  0  0  0  0  0
  -26.2950  -12.9760   20.2330 N   0  0  0  0  0  0  0  0  0  0  0  0
  -25.9170  -11.7010   20.5080 N   0  0  0  0  0  0  0  0  0  0  0  0
  -23.8800  -10.5070   20.9960 C   0  0  0  0  0  0  0  0  0  0  0  0
  -24.2990   -9.5420   21.9390 C   0  0  0  0  0  3  0  0  0  0  0  0
  -23.5610   -8.3540   22.1260 C   0  0  0  0  0  3  0  0  0  0  0  0
  -22.3870   -8.1230   21.3700 C   0  0  0  0  0  0  0  0  0  0  0  0
  -21.9870   -9.0760   20.4160 C   0  0  0  0  0  3  0  0  0  0  0  0
  -22.7280  -10.2550   20.2280 C   0  0  0  0  0  3  0  0  0  0  0  0
  -21.6190   -6.9870   21.4650 O   0  0  0  0  0  0  0  0  0  0  0  0
  -21.5660   -6.2480   22.6200 C   0  0  0  0  0  0  0  0  0  0  0  0
  -21.1660   -6.8150   23.8490 C   0  0  0  0  0  3  0  0  0  0  0  0
  -21.0600   -6.0040   24.9960 C   0  0  0  0  0  3  0  0  0  0  0  0
  -21.3440   -4.6270   24.9150 C   0  0  0  0  0  0  0  0  0  0  0  0
  -21.7370   -4.0600   23.6900 C   0  0  0  0  0  3  0  0  0  0  0  0
  -21.8450   -4.8680   22.5460 C   0  0  0  0  0  0  0  0  0  0  0  0
  -22.2050   -4.3130   21.3630 F   0  0  0  0  0  0  0  0  0  0  0  0
  -21.2330   -3.8470   26.0160 F   0  0  0  0  0  0  0  0  0  0  0  0
  -22.7780  -13.6100   21.0450 C   0  0  0  0  0  0  0  0  0  0  0  0
  -22.0320  -12.9360   21.9140 N   0  0  0  0  0  0  0  0  0  0  0  0
  -22.3560  -14.6310   20.5020 O   0  0  0  0  0  0  0  0  0  0  0  0
  -22.3860  -12.1120   22.3770 H   0  0  0  0  0  0  0  0  0  0  0  0
  -21.0950  -13.2500   22.1220 H   0  0  0  0  0  0  0  0  0  0  0  0
  -25.4370  -15.2370   20.2370 N   0  0  0  0  0  0  0  0  0  0  0  0
  -24.6790  -15.9040   20.3290 H   0  0  0  0  0  0  0  0  0  0  0  0
  -26.3010  -15.6600   19.9230 H   0  0  0  0  0  0  0  0  0  0  0  0
  1  3  2  0
  2  1  1  0
  2 47  1  0
  4  2  1  0
  5  6  1  0
  5  1  1  0
  7 18  2  0
  8  6  1  0
  8 13  1  0
  9 17  1  0
  9 19  1  0
 10 16  1  0
 10 12  1  0
 11 17  1  0
 12 11  1  0
 13 12  2  0
 14 15  1  0
 14  8  2  0
 15 10  2  0
 16  9  1  0
 17  7  1  0
 19 21  2  0
 20 19  1  0
 22 20  1  0
 23 32  2  0
 23 28  1  0
 24 20  1  0
 24 28  1  0
 25 24  1  0
 26 27  1  0
 26 25  1  0
 27 23  1  0
 28 29  2  0
 29 30  1  0
 31 30  2  0
 32 31  1  0
 33  7  1  0
 33 34  1  0
 33 43  1  0
 34 37  1  0
 35 39  1  0
 35 34  1  0
 36 35  2  0
 39 38  1  0
 41 39  1  0
 41 42  1  0
 41 40  1  0
 43 46  1  1
 43 44  1  0
 45 43  1  0
 48 47  1  0
 48 49  1  0
 50 49  1  0
 50 51  1  0
 52 60  1  0
 53 58  1  0
 54 55  1  0
 54 53  1  0
 56 55  1  0
 56 65  1  0
 56 57  1  0
 58 52  1  0
 58 57  1  0
 59 52  2  0
 60 51  1  0
 60 61  1  0
 62 63  2  0
 63 82  1  0
 64 63  1  0
 64 67  1  0
 65 62  1  0
 65 66  1  0
 66 64  2  0
 67 68  1  0
 68 69  2  0
 70 73  1  0
 70 69  1  0
 71 70  2  0
 72 71  1  0
 72 67  2  0
 73 74  1  0
 74 75  1  0
 75 76  2  0
 77 76  1  0
 77 81  1  0
 78 77  2  0
 79 74  2  0
 79 78  1  0
 80 79  1  0
 82 83  1  0
 83 86  1  0
 83 85  1  0
 84 82  2  0
 87 88  1  0
 87 62  1  0
 89 87  1  0
M  ISO  4   5 101   6 101  52 100  60 100
M  END
>  <TORSDO>  (41) 
F 22

>  <SCORE>  (41) 
-13.006

>  <name>  (41) 
41

>  <ligand_id>  (41) 
41

>  <original_smiles>  (41) 
[H]c1c([H])c([H])c2c(c1[H])C([H])([H])C([H])([H])C([H])([H])C2([H])N([H])C(=O)C1([H])N(C(=O)C([H])(N([H])C(=O)C([H])(N([H])C([H])([H])[H])C([H])([H])[H])C(C([H])([H])[H])(C([H])([H])[H])C([H])([H])[H])C([H])([H])c2c([H])c(OC([H])([H])C(=O)N([H])C([H])([H])C([H])([H])C([H])([H])C([H])([H])C([H])([H])N([H])C(=O)N3C([H])([H])C([H])([H])C([H])([H])C([H])(n4nc(-c5c([H])c([H])c(Oc6c([H])c([H])c(F)c([H])c6F)c([H])c5[H])c(C(=O)N([H])[H])c4N([H])[H])C3([H])[H])c([H])c([H])c2C1([H])[H]

>  <smiles>  (41) 
[H]c1c([H])c([H])c2c(c1[H])C([H])([H])C([H])([H])C([H])([H])C2([H])N([H])C(=O)C1([H])N(C(=O)C([H])(N([H])C(=O)C([H])(N([H])C([H])([H])[H])C([H])([H])[H])C(C([H])([H])[H])(C([H])([H])[H])C([H])([H])[H])C([H])([H])c2c([H])c(OC([H])([H])C(=O)N([H])C([H])([H])C([H])([H])C([H])([H])C([H])([H])C([H])([H])N([H])C(=O)N3C([H])([H])C([H])([H])C([H])([H])C([H])(n4nc(-c5c([H])c([H])c(Oc6c([H])c([H])c(F)c([H])c6F)c([H])c5[H])c(C(=O)N([H])[H])c4N([H])[H])C3([H])[H])c([H])c([H])c2C1([H])[H]

$$$$
42:0:0
     RDKit          3D

 93100  0  0  1  0  0  0  0  0999 V2000
  -28.9950  -20.9720   19.7100 C   0  0  0  0  0  3  0  0  0  0  0  0
  -27.6840  -20.6670   18.9580 C   0  0  0  0  0  0  0  0  0  0  0  0
  -26.8410  -19.8070   19.5200 N   0  0  0  0  0  0  0  0  0  0  0  0
  -27.4300  -21.1960   17.8780 O   0  0  0  0  0  0  0  0  0  0  0  0
  -27.0720  -19.3910   20.4100 H   0  0  0  0  0  0  0  0  0  0  0  0
  -25.9640  -19.5770   19.0750 H   0  0  0  0  0  0  0  0  0  0  0  0
  -29.6890  -18.4430   19.9510 C   0  0  0  0  0  0  0  0  0  0  0  0
  -29.5020  -19.7260   20.4420 N   0  0  0  0  0  0  0  0  0  0  0  0
  -29.3970  -18.1640   18.7890 O   0  0  0  0  0  0  0  0  0  0  0  0
  -29.7610  -19.8670   21.4080 H   0  0  0  0  0  0  0  0  0  0  0  0
  -30.3310  -17.2860   20.8270 C   0  0  0  0  0  2  0  0  0  0  0  0
  -30.6800  -14.7500   20.2130 C   0  0  0  0  0  0  0  0  0  0  0  0
  -30.4110  -12.5450   19.0780 C   0  0  0  0  0  2  0  0  0  0  0  0
  -29.4130  -12.6930   17.9090 C   0  0  0  0  0  2  0  0  0  0  0  0
  -27.9600  -12.5270   18.3980 C   0  0  0  0  0  2  0  0  0  0  0  0
  -27.6590  -13.3510   19.6790 C   0  0  0  0  0  3  0  0  0  0  0  0
  -28.7650  -13.1740   20.7410 C   0  0  0  0  0  2  0  0  0  0  0  0
  -30.0380  -13.5410   20.1050 N   0  0  0  0  0  0  0  0  0  0  0  0
  -31.8490  -14.8760   19.8330 O   0  0  0  0  0  0  0  0  0  0  0  0
  -29.9280  -15.8390   20.5910 N   0  0  0  0  0  0  0  0  0  0  0  0
  -28.9560  -15.6390   20.7710 H   0  0  0  0  0  0  0  0  0  0  0  0
  -25.3090  -13.9430   20.5250 C   0  0  0  0  0  0  0  0  0  0  0  0
  -24.2510  -13.1670   20.9130 C   0  0  0  0  0  0  0  0  0  0  0  0
  -24.6970  -11.8130   20.8170 C   0  0  0  0  0  0  0  0  0  0  0  0
  -26.3330  -13.0620   20.2150 N   0  0  0  0  0  0  0  0  0  0  0  0
  -25.9740  -11.7740   20.4540 N   0  0  0  0  0  0  0  0  0  0  0  0
  -23.9680  -10.5520   20.9960 C   0  0  0  0  0  0  0  0  0  0  0  0
  -24.4000   -9.5740   21.9200 C   0  0  0  0  0  3  0  0  0  0  0  0
  -23.6710   -8.3770   22.0890 C   0  0  0  0  0  3  0  0  0  0  0  0
  -22.4960   -8.1500   21.3350 C   0  0  0  0  0  0  0  0  0  0  0  0
  -22.0820   -9.1170   20.4010 C   0  0  0  0  0  3  0  0  0  0  0  0
  -22.8120  -10.3040   20.2280 C   0  0  0  0  0  3  0  0  0  0  0  0
  -21.7380   -7.0060   21.4140 O   0  0  0  0  0  0  0  0  0  0  0  0
  -21.6630   -6.2700   22.5690 C   0  0  0  0  0  0  0  0  0  0  0  0
  -21.1490   -6.8120   23.7660 C   0  0  0  0  0  3  0  0  0  0  0  0
  -21.0250   -6.0000   24.9110 C   0  0  0  0  0  3  0  0  0  0  0  0
  -21.4080   -4.6460   24.8590 C   0  0  0  0  0  0  0  0  0  0  0  0
  -21.9170   -4.1020   23.6660 C   0  0  0  0  0  3  0  0  0  0  0  0
  -22.0420   -4.9130   22.5240 C   0  0  0  0  0  0  0  0  0  0  0  0
  -22.5120   -4.3790   21.3700 F   0  0  0  0  0  0  0  0  0  0  0  0
  -21.2830   -3.8620   25.9550 F   0  0  0  0  0  0  0  0  0  0  0  0
  -22.8710  -13.6460   21.2580 C   0  0  0  0  0  0  0  0  0  0  0  0
  -22.1710  -12.9290   22.1290 N   0  0  0  0  0  0  0  0  0  0  0  0
  -22.4240  -14.6930   20.7890 O   0  0  0  0  0  0  0  0  0  0  0  0
  -22.5480  -12.0850   22.5340 H   0  0  0  0  0  0  0  0  0  0  0  0
  -21.2430  -13.2290   22.3960 H   0  0  0  0  0  0  0  0  0  0  0  0
  -25.4800  -15.3160   20.3860 N   0  0  0  0  0  0  0  0  0  0  0  0
  -24.7260  -15.9730   20.5530 H   0  0  0  0  0  0  0  0  0  0  0  0
  -26.3100  -15.7580   20.0130 H   0  0  0  0  0  0  0  0  0  0  0  0
  -28.7730  -22.3140   20.5870 C   0  0  0  0  0  2  0  0  0  0  0  0
  -28.5910  -23.7570   19.8720 C   0  0  0  0  0  3  0  0  0  0  0  0
  -28.1160  -25.0220   20.7470 C   0  0  0  0  0  3  0  0  0  0  0  0
  -28.3080  -26.4360   20.3030 O   0  0  0  0  0  0  0  0  0  0  0  0
  -24.5230  -31.8480   23.2940 C   0  0  0  0  0  0  0  0  0  0  0  0
  -27.1990  -27.2960   20.2820 C   0  0  0  0  0  0  0  0  0  0  0  0
  -23.3580  -30.4640   21.6120 C   0  0  0  0  0  3  0  0  0  0  0  0
  -24.8410  -28.9140   20.2170 C   0  0  0  0  0  0  0  0  0  0  0  0
  -25.8990  -30.7830   21.4860 C   0  0  0  0  0  2  0  0  0  0  0  0
  -25.9960  -29.4020   20.8430 C   0  0  0  0  0  0  0  0  0  0  0  0
  -27.1820  -28.6060   20.8610 C   0  0  0  0  0  3  0  0  0  0  0  0
  -26.0250  -26.8610   19.6350 C   0  0  0  0  0  3  0  0  0  0  0  0
  -24.8580  -27.6500   19.6030 C   0  0  0  0  0  3  0  0  0  0  0  0
  -23.6080  -29.7960   20.2340 C   0  0  0  0  0  2  0  0  0  0  0  0
  -24.6120  -31.0490   22.1900 N   0  0  0  0  0  0  0  0  0  0  0  0
  -23.4270  -32.1220   23.8060 O   0  0  0  0  0  0  0  0  0  0  0  0
  -22.6700  -29.4420   22.5500 C   0  0  0  0  0  0  0  0  0  0  0  0
  -21.3430  -29.2820   22.4020 N   0  0  0  0  0  0  0  0  0  0  0  0
  -23.3290  -28.7980   23.3700 O   0  0  0  0  0  0  0  0  0  0  0  0
  -20.8700  -29.8560   21.7190 H   0  0  0  0  0  0  0  0  0  0  0  0
  -17.9390  -28.1520   22.8740 C   0  0  0  0  0  0  0  0  0  0  0  0
  -20.5030  -28.3420   23.1470 C   0  0  0  0  0  3  0  0  0  0  0  0
  -20.5690  -26.9260   22.5290 C   0  0  0  0  0  2  0  0  0  0  0  0
  -19.4580  -26.6590   21.5080 C   0  0  0  0  0  2  0  0  0  0  0  0
  -18.0820  -26.8190   22.1580 C   0  0  0  0  0  2  0  0  0  0  0  0
  -19.0760  -28.8730   23.3250 C   0  0  0  0  0  0  0  0  0  0  0  0
  -18.8890  -30.1220   23.9560 C   0  0  0  0  0  3  0  0  0  0  0  0
  -17.5970  -30.6490   24.1380 C   0  0  0  0  0  3  0  0  0  0  0  0
  -16.4740  -29.9230   23.7020 C   0  0  0  0  0  3  0  0  0  0  0  0
  -16.6460  -28.6770   23.0760 C   0  0  0  0  0  3  0  0  0  0  0  0
  -25.7900  -32.4750   23.9550 C   0  0  0  0  0  3  0  0  0  0  0  0
  -25.4940  -33.8870   24.2400 N   0  0  0  0  0  0  0  0  0  0  0  0
  -25.8630  -34.9140   23.4630 C   0  0  0  0  0  0  0  0  0  0  0  0
  -26.5580  -34.7720   22.4530 O   0  0  0  0  0  0  0  0  0  0  0  0
  -24.8860  -34.0730   25.0240 H   0  0  0  0  0  0  0  0  0  0  0  0
  -24.1800  -36.7260   23.0060 C   0  0  0  0  0  1  0  0  0  0  0  0
  -25.3870  -36.3230   23.8690 C   0  0  0  0  0  3  0  0  0  0  0  0
  -27.4990  -37.2020   24.7600 C   0  0  0  0  0  1  0  0  0  0  0  0
  -26.4420  -37.3540   23.7630 N   0  0  0  0  0  0  0  0  0  0  0  0
  -26.0460  -38.2850   23.8570 H   0  0  0  0  0  0  0  0  0  0  0  0
  -26.2370  -31.7250   25.2700 C   0  0  1  0  0  0  0  0  0  0  0  0
  -25.0920  -31.5240   26.2880 C   0  0  0  0  0  1  0  0  0  0  0  0
  -26.8160  -30.3320   24.9310 C   0  0  0  0  0  1  0  0  0  0  0  0
  -27.3690  -32.5180   25.9660 C   0  0  0  0  0  1  0  0  0  0  0  0
  1  8  1  0
  1 50  1  0
  2  3  1  0
  2  1  1  0
  3  5  1  0
  4  2  2  0
  6  3  1  0
  7  8  1  0
  7 11  1  0
  8 10  1  0
  9  7  2  0
 12 20  1  0
 13 18  1  0
 14 15  1  0
 14 13  1  0
 16 15  1  0
 16 25  1  0
 16 17  1  0
 18 12  1  0
 18 17  1  0
 19 12  2  0
 20 21  1  0
 20 11  1  0
 22 23  2  0
 23 42  1  0
 24 23  1  0
 24 27  1  0
 25 26  1  0
 25 22  1  0
 26 24  2  0
 27 28  1  0
 28 29  2  0
 30 33  1  0
 30 29  1  0
 31 30  2  0
 32 31  1  0
 32 27  2  0
 33 34  1  0
 34 35  1  0
 35 36  2  0
 37 36  1  0
 37 41  1  0
 38 37  2  0
 39 34  2  0
 39 38  1  0
 40 39  1  0
 42 43  1  0
 43 46  1  0
 43 45  1  0
 44 42  2  0
 47 22  1  0
 47 48  1  0
 49 47  1  0
 51 50  1  0
 51 52  2  0
 53 52  1  0
 54 65  2  0
 55 53  1  0
 55 60  1  0
 56 64  1  0
 56 66  1  0
 57 63  1  0
 57 59  1  0
 58 64  1  0
 59 60  2  0
 59 58  1  0
 61 55  2  0
 62 61  1  0
 62 57  2  0
 63 56  1  0
 64 54  1  0
 66 68  2  0
 67 66  1  0
 69 67  1  0
 70 79  2  0
 70 75  1  0
 71 67  1  0
 71 75  1  0
 72 71  1  0
 73 74  1  0
 73 72  1  0
 74 70  1  0
 75 76  2  0
 76 77  1  0
 78 77  2  0
 79 78  1  0
 80 54  1  0
 80 81  1  0
 80 90  1  0
 81 84  1  0
 82 86  1  0
 82 81  1  0
 83 82  2  0
 86 85  1  0
 88 89  1  0
 88 86  1  0
 88 87  1  0
 90 93  1  1
 90 91  1  0
 92 90  1  0
M  ISO  4  12 100  20 100  52 101  53 101
M  END
>  <TORSDO>  (42) 
F 22

>  <SCORE>  (42) 
-13.131

>  <name>  (42) 
42

>  <ligand_id>  (42) 
42

>  <original_smiles>  (42) 
[H]c1c([H])c([H])c2c(c1[H])C([H])([H])C([H])([H])C([H])([H])C2([H])N([H])C(=O)C1([H])N(C(=O)C([H])(N([H])C(=O)C([H])(N([H])C([H])([H])[H])C([H])([H])[H])C(C([H])([H])[H])(C([H])([H])[H])C([H])([H])[H])C([H])([H])c2c([H])c(OC([H])([H])C([H])([H])C([H])([H])C([H])(C(=O)N([H])[H])N([H])C(=O)C([H])([H])N([H])C(=O)N3C([H])([H])C([H])([H])C([H])([H])C([H])(n4nc(-c5c([H])c([H])c(Oc6c([H])c([H])c(F)c([H])c6F)c([H])c5[H])c(C(=O)N([H])[H])c4N([H])[H])C3([H])[H])c([H])c([H])c2C1([H])[H]

>  <smiles>  (42) 
[H]c1c([H])c([H])c2c(c1[H])C([H])([H])C([H])([H])C([H])([H])C2([H])N([H])C(=O)C1([H])N(C(=O)C([H])(N([H])C(=O)C([H])(N([H])C([H])([H])[H])C([H])([H])[H])C(C([H])([H])[H])(C([H])([H])[H])C([H])([H])[H])C([H])([H])c2c([H])c(OC([H])([H])C([H])([H])C([H])([H])C([H])(C(=O)N([H])[H])N([H])C(=O)C([H])([H])N([H])C(=O)N3C([H])([H])C([H])([H])C([H])([H])C([H])(n4nc(-c5c([H])c([H])c(Oc6c([H])c([H])c(F)c([H])c6F)c([H])c5[H])c(C(=O)N([H])[H])c4N([H])[H])C3([H])[H])c([H])c([H])c2C1([H])[H]

$$$$
43:0:0
     RDKit          3D

110118  0  0  1  0  0  0  0  0999 V2000
  -33.6460  -24.0350   20.1490 C   0  0  0  0  0  0  0  0  0  0  0  0
  -34.0830  -22.8240   19.7880 N   0  0  0  0  0  0  0  0  0  0  0  0
  -33.8110  -24.4720   21.2940 O   0  0  0  0  0  0  0  0  0  0  0  0
  -33.9450  -22.5340   18.8320 H   0  0  0  0  0  0  0  0  0  0  0  0
  -33.7260  -24.7850   17.7350 C   0  0  0  0  0  1  0  0  0  0  0  0
  -32.9440  -24.8980   19.0680 C   0  0  2  0  0  0  0  0  0  0  0  0
  -32.5430  -27.4030   18.9540 C   0  0  0  0  0  0  0  0  0  0  0  0
  -32.9740  -26.2840   19.5490 N   0  0  0  0  0  0  0  0  0  0  0  0
  -32.0530  -27.4200   17.8230 O   0  0  0  0  0  0  0  0  0  0  0  0
  -33.3240  -26.3540   20.4960 H   0  0  0  0  0  0  0  0  0  0  0  0
  -32.6900  -28.6980   19.7620 C   0  0  0  0  0  2  0  0  0  0  0  0
  -32.8340  -31.2570   19.7190 C   0  0  0  0  0  1  0  0  0  0  0  0
  -32.6130  -29.9760   18.9020 C   0  0  0  0  0  2  0  0  0  0  0  0
  -31.4770  -24.4190   18.8970 C   0  0  0  0  0  2  0  0  0  0  0  0
  -30.6660  -24.8900   19.9680 O   0  0  0  0  0  0  0  0  0  0  0  0
  -29.3230  -24.4390   19.8840 C   0  0  0  0  0  2  0  0  0  0  0  0
  -28.4620  -25.2490   20.8590 C   0  0  0  0  0  2  0  0  0  0  0  0
  -28.4750  -26.6160   20.4440 O   0  0  0  0  0  0  0  0  0  0  0  0
  -24.6850  -31.9210   23.2540 C   0  0  0  0  0  0  0  0  0  0  0  0
  -27.2830  -27.3000   20.4310 C   0  0  0  0  0  0  0  0  0  0  0  0
  -23.4620  -30.4430   21.6920 C   0  0  0  0  0  3  0  0  0  0  0  0
  -24.8980  -28.8100   20.3610 C   0  0  0  0  0  0  0  0  0  0  0  0
  -25.9900  -30.7650   21.4750 C   0  0  0  0  0  2  0  0  0  0  0  0
  -26.0590  -29.3600   20.9180 C   0  0  0  0  0  0  0  0  0  0  0  0
  -27.2540  -28.6120   20.9480 C   0  0  0  0  0  3  0  0  0  0  0  0
  -26.1060  -26.7600   19.8650 C   0  0  0  0  0  3  0  0  0  0  0  0
  -24.9140  -27.5070   19.8360 C   0  0  0  0  0  3  0  0  0  0  0  0
  -23.6630  -29.6830   20.3530 C   0  0  0  0  0  2  0  0  0  0  0  0
  -24.7300  -31.0610   22.1980 N   0  0  0  0  0  0  0  0  0  0  0  0
  -23.6060  -32.2350   23.7760 O   0  0  0  0  0  0  0  0  0  0  0  0
  -22.8000  -29.4830   22.7060 C   0  0  0  0  0  0  0  0  0  0  0  0
  -21.4880  -29.2530   22.5390 N   0  0  0  0  0  0  0  0  0  0  0  0
  -23.4660  -28.9470   23.5960 O   0  0  0  0  0  0  0  0  0  0  0  0
  -21.0140  -29.7360   21.7900 H   0  0  0  0  0  0  0  0  0  0  0  0
  -18.1420  -27.9530   22.9450 C   0  0  0  0  0  0  0  0  0  0  0  0
  -20.6630  -28.3580   23.3500 C   0  0  0  0  0  3  0  0  0  0  0  0
  -20.8640  -26.8830   22.9300 C   0  0  0  0  0  2  0  0  0  0  0  0
  -19.8450  -26.4090   21.8870 C   0  0  0  0  0  2  0  0  0  0  0  0
  -18.4200  -26.5520   22.4260 C   0  0  0  0  0  2  0  0  0  0  0  0
  -19.1980  -28.8070   23.3640 C   0  0  0  0  0  0  0  0  0  0  0  0
  -18.8890  -30.1120   23.8040 C   0  0  0  0  0  3  0  0  0  0  0  0
  -17.5570  -30.5650   23.8340 C   0  0  0  0  0  3  0  0  0  0  0  0
  -16.5150  -29.7110   23.4340 C   0  0  0  0  0  3  0  0  0  0  0  0
  -16.8090  -28.4080   22.9950 C   0  0  0  0  0  3  0  0  0  0  0  0
  -25.9790  -32.5680   23.8390 C   0  0  0  0  0  3  0  0  0  0  0  0
  -25.6610  -33.9610   24.1790 N   0  0  0  0  0  0  0  0  0  0  0  0
  -25.9600  -35.0170   23.4100 C   0  0  0  0  0  0  0  0  0  0  0  0
  -26.6040  -34.9210   22.3620 O   0  0  0  0  0  0  0  0  0  0  0  0
  -25.0860  -34.1070   24.9960 H   0  0  0  0  0  0  0  0  0  0  0  0
  -24.2030  -36.7860   23.0920 C   0  0  0  0  0  1  0  0  0  0  0  0
  -25.4640  -36.3980   23.8790 C   0  0  0  0  0  3  0  0  0  0  0  0
  -27.5970  -37.3150   24.6780 C   0  0  0  0  0  1  0  0  0  0  0  0
  -26.4820  -37.4630   23.7460 N   0  0  0  0  0  0  0  0  0  0  0  0
  -26.0670  -38.3790   23.8900 H   0  0  0  0  0  0  0  0  0  0  0  0
  -26.5450  -31.8000   25.0970 C   0  0  1  0  0  0  0  0  0  0  0  0
  -25.4840  -31.5270   26.1870 C   0  0  0  0  0  1  0  0  0  0  0  0
  -27.1540  -30.4410   24.6770 C   0  0  0  0  0  1  0  0  0  0  0  0
  -27.6900  -32.6180   25.7390 C   0  0  0  0  0  1  0  0  0  0  0  0
  -34.7810  -21.8930   20.6580 C   0  0  0  0  0  2  0  0  0  0  0  0
  -33.8100  -21.0390   21.4210 C   0  0  0  0  0  0  0  0  0  0  0  0
  -33.3050  -21.4950   22.5790 N   0  0  0  0  0  4  0  0  0  0  0  0
  -33.4610  -19.8440   20.9050 N   0  0  0  0  0  0  0  0  0  0  0  0
  -33.5390  -22.4270   22.8960 H   0  0  0  0  0  0  0  0  0  0  0  0
  -32.6530  -20.9700   23.1400 H   0  0  0  0  0  0  0  0  0  0  0  0
  -33.7870  -19.6260   19.9720 H   0  0  0  0  0  0  0  0  0  0  0  0
  -32.5990  -18.8100   21.5000 C   0  0  0  0  0  2  0  0  0  0  0  0
  -31.6550  -13.0810   20.1690 C   0  0  0  0  0  0  0  0  0  0  0  0
  -31.0310  -10.8320   19.3970 C   0  0  0  0  0  2  0  0  0  0  0  0
  -30.1300  -10.9560   18.1540 C   0  0  0  0  0  2  0  0  0  0  0  0
  -28.6520  -11.1030   18.5650 C   0  0  0  0  0  2  0  0  0  0  0  0
  -28.4360  -12.1910   19.6500 C   0  0  0  0  0  3  0  0  0  0  0  0
  -29.4510  -12.0350   20.8050 C   0  0  0  0  0  2  0  0  0  0  0  0
  -30.8040  -12.0240   20.2250 N   0  0  0  0  0  0  0  0  0  0  0  0
  -32.7920  -13.0130   19.6900 O   0  0  0  0  0  0  0  0  0  0  0  0
  -31.6980  -18.2050   20.4140 C   0  0  0  0  0  0  0  0  0  0  0  0
  -30.1490  -16.4440   19.6310 C   0  0  0  0  0  2  0  0  0  0  0  0
  -30.8760  -16.3220   21.9010 C   0  0  0  0  0  2  0  0  0  0  0  0
  -30.9100  -15.1550   19.2730 C   0  0  0  0  0  2  0  0  0  0  0  0
  -31.6210  -14.9920   21.6420 C   0  0  0  0  0  2  0  0  0  0  0  0
  -30.9160  -17.1260   20.6750 N   0  0  0  0  0  0  0  0  0  0  0  0
  -31.1120  -14.2850   20.4490 N   0  0  0  0  0  0  0  0  0  0  0  0
  -31.7180  -18.7360   19.2980 O   0  0  0  0  0  0  0  0  0  0  0  0
  -26.2120  -13.2700   20.3690 C   0  0  0  0  0  0  0  0  0  0  0  0
  -25.0120  -12.7270   20.7450 C   0  0  0  0  0  0  0  0  0  0  0  0
  -25.1930  -11.3100   20.7120 C   0  0  0  0  0  0  0  0  0  0  0  0
  -27.0590  -12.1970   20.1360 N   0  0  0  0  0  0  0  0  0  0  0  0
  -26.4480  -11.0140   20.3980 N   0  0  0  0  0  0  0  0  0  0  0  0
  -24.2300  -10.2180   20.9080 C   0  0  0  0  0  0  0  0  0  0  0  0
  -24.4480   -9.2070   21.8700 C   0  0  0  0  0  3  0  0  0  0  0  0
  -23.4990   -8.1770   22.0520 C   0  0  0  0  0  3  0  0  0  0  0  0
  -22.3190   -8.1530   21.2710 C   0  0  0  0  0  0  0  0  0  0  0  0
  -22.1190   -9.1500   20.3000 C   0  0  0  0  0  3  0  0  0  0  0  0
  -23.0650  -10.1720   20.1170 C   0  0  0  0  0  3  0  0  0  0  0  0
  -21.3550   -7.1790   21.3610 O   0  0  0  0  0  0  0  0  0  0  0  0
  -21.1150   -6.5100   22.5340 C   0  0  0  0  0  0  0  0  0  0  0  0
  -20.7010   -7.1850   23.7040 C   0  0  0  0  0  3  0  0  0  0  0  0
  -20.3980   -6.4520   24.8690 C   0  0  0  0  0  3  0  0  0  0  0  0
  -20.4970   -5.0480   24.8640 C   0  0  0  0  0  0  0  0  0  0  0  0
  -20.9030   -4.3750   23.6990 C   0  0  0  0  0  3  0  0  0  0  0  0
  -21.2080   -5.1040   22.5360 C   0  0  0  0  0  0  0  0  0  0  0  0
  -21.5790   -4.4490   21.4100 F   0  0  0  0  0  0  0  0  0  0  0  0
  -20.1970   -4.3430   25.9800 F   0  0  0  0  0  0  0  0  0  0  0  0
  -23.7410  -13.4740   21.0250 C   0  0  0  0  0  0  0  0  0  0  0  0
  -22.9060  -12.9520   21.9160 N   0  0  0  0  0  0  0  0  0  0  0  0
  -23.5030  -14.5550   20.4870 O   0  0  0  0  0  0  0  0  0  0  0  0
  -23.1120  -12.0750   22.3730 H   0  0  0  0  0  0  0  0  0  0  0  0
  -22.0510  -13.4370   22.1480 H   0  0  0  0  0  0  0  0  0  0  0  0
  -26.6470  -14.5780   20.1830 N   0  0  0  0  0  0  0  0  0  0  0  0
  -26.0240  -15.3730   20.2790 H   0  0  0  0  0  0  0  0  0  0  0  0
  -27.5610  -14.8280   19.8280 H   0  0  0  0  0  0  0  0  0  0  0  0
  1  3  2  0
  2  1  1  0
  2 59  1  0
  4  2  1  0
  6  5  1  6
  6  8  1  0
  6  1  1  0
  7  8  1  0
  7 11  1  0
  8 10  1  0
  9  7  2  0
 13 12  1  0
 13 11  1  0
 14  6  1  0
 14 15  1  0
 16 15  1  0
 16 17  1  0
 18 17  1  0
 19 30  2  0
 20 18  1  0
 20 25  1  0
 21 29  1  0
 21 31  1  0
 22 24  1  0
 23 29  1  0
 24 25  2  0
 24 23  1  0
 26 20  2  0
 27 26  1  0
 27 22  2  0
 28 22  1  0
 28 21  1  0
 29 19  1  0
 31 33  2  0
 32 31  1  0
 34 32  1  0
 35 44  2  0
 35 40  1  0
 36 32  1  0
 36 40  1  0
 37 36  1  0
 38 39  1  0
 38 37  1  0
 39 35  1  0
 40 41  2  0
 41 42  1  0
 43 42  2  0
 44 43  1  0
 45 19  1  0
 45 46  1  0
 45 55  1  0
 46 49  1  0
 47 51  1  0
 47 46  1  0
 48 47  2  0
 51 50  1  0
 53 51  1  0
 53 54  1  0
 53 52  1  0
 55 58  1  1
 55 56  1  0
 57 55  1  0
 59 60  1  0
 60 61  2  0
 61 63  1  0
 61 64  1  0
 62 60  1  0
 62 66  1  0
 65 62  1  0
 67 73  1  0
 67 81  1  0
 68 73  1  0
 69 70  1  0
 69 68  1  0
 71 70  1  0
 71 86  1  0
 71 72  1  0
 73 72  1  0
 74 67  2  0
 75 80  1  0
 75 66  1  0
 76 80  1  0
 78 76  1  0
 78 81  1  0
 79 77  1  0
 80 77  1  0
 81 79  1  0
 82 75  2  0
 83 84  2  0
 84103  1  0
 85 84  1  0
 85 88  1  0
 86 83  1  0
 86 87  1  0
 87 85  2  0
 88 89  1  0
 89 90  2  0
 91 94  1  0
 91 90  1  0
 92 91  2  0
 93 92  1  0
 93 88  2  0
 94 95  1  0
 95100  2  0
 95 96  1  0
 96 97  2  0
 98 97  1  0
 98102  1  0
 99 98  2  0
100 99  1  0
101100  1  0
103104  1  0
104107  1  0
104106  1  0
105103  2  0
108109  1  0
108 83  1  0
110108  1  0
M  ISO  4  17 101  18 101  67 100  81 100
M  END
>  <TORSDO>  (43) 
F 27

>  <SCORE>  (43) 
-9.077

>  <name>  (43) 
43

>  <ligand_id>  (43) 
43

>  <original_smiles>  (43) 
[H]c1c([H])c([H])c2c(c1[H])C([H])([H])C([H])([H])C([H])([H])C2([H])N([H])C(=O)C1([H])N(C(=O)C([H])(N([H])C(=O)C([H])(N([H])C([H])([H])[H])C([H])([H])[H])C(C([H])([H])[H])(C([H])([H])[H])C([H])([H])[H])C([H])([H])c2c([H])c(OC([H])([H])C([H])([H])OC([H])([H])C(C(=O)N([H])C([H])([H])C(N([H])[H])=[N+]([H])C([H])([H])C(=O)N3C([H])([H])C([H])([H])N(C(=O)N4C([H])([H])C([H])([H])C([H])([H])C([H])(n5nc(-c6c([H])c([H])c(Oc7c([H])c([H])c(F)c([H])c7F)c([H])c6[H])c(C(=O)N([H])[H])c5N([H])[H])C4([H])[H])C([H])([H])C3([H])[H])(N([H])C(=O)C([H])([H])C([H])([H])C([H])([H])[H])C([H])([H])[H])c([H])c([H])c2C1([H])[H]

>  <smiles>  (43) 
[H]c1c([H])c([H])c2c(c1[H])C([H])([H])C([H])([H])C([H])([H])C2([H])N([H])C(=O)C1([H])N(C(=O)C([H])(N([H])C(=O)C([H])(N([H])C([H])([H])[H])C([H])([H])[H])C(C([H])([H])[H])(C([H])([H])[H])C([H])([H])[H])C([H])([H])c2c([H])c(OC([H])([H])C([H])([H])OC([H])([H])C(C(=O)N([H])C([H])([H])C(N([H])[H])=[N+]([H])C([H])([H])C(=O)N3C([H])([H])C([H])([H])N(C(=O)N4C([H])([H])C([H])([H])C([H])([H])C([H])(n5nc(-c6c([H])c([H])c(Oc7c([H])c([H])c(F)c([H])c7F)c([H])c6[H])c(C(=O)N([H])[H])c5N([H])[H])C4([H])[H])C([H])([H])C3([H])[H])(N([H])C(=O)C([H])([H])C([H])([H])C([H])([H])[H])C([H])([H])[H])c([H])c([H])c2C1([H])[H]

$$$$
44:0:0
     RDKit          3D

106113  0  0  1  0  0  0  0  0999 V2000
  -28.1850  -19.9330   24.6710 C   0  0  0  0  0  3  0  0  0  0  0  0
  -28.2910  -20.6820   26.0140 C   0  0  0  0  0  0  0  0  0  0  0  0
  -27.4000  -20.3970   26.9550 N   0  0  0  0  0  0  0  0  0  0  0  0
  -29.1840  -21.5080   26.2140 O   0  0  0  0  0  0  0  0  0  0  0  0
  -26.6720  -19.7180   26.7830 H   0  0  0  0  0  0  0  0  0  0  0  0
  -27.4380  -20.8610   27.8510 H   0  0  0  0  0  0  0  0  0  0  0  0
  -27.3010  -21.6950   23.1530 C   0  0  0  0  0  0  0  0  0  0  0  0
  -28.2850  -20.9030   23.5860 N   0  0  0  0  0  0  0  0  0  0  0  0
  -26.1490  -21.6400   23.5850 O   0  0  0  0  0  0  0  0  0  0  0  0
  -29.2090  -21.0700   23.2190 H   0  0  0  0  0  0  0  0  0  0  0  0
  -27.6680  -22.7210   22.0880 C   0  0  0  0  0  2  0  0  0  0  0  0
  -28.2480  -23.9930   22.7380 C   0  0  0  0  0  2  0  0  0  0  0  0
  -28.9830  -24.8810   21.7400 C   0  0  0  0  0  0  0  0  0  0  0  0
  -30.2100  -25.2750   22.0900 N   0  0  0  0  0  0  0  0  0  0  0  0
  -28.4420  -25.2030   20.6810 O   0  0  0  0  0  0  0  0  0  0  0  0
  -30.5630  -24.9450   22.9780 H   0  0  0  0  0  0  0  0  0  0  0  0
  -31.0700  -26.1950   21.3530 C   0  0  0  0  0  2  0  0  0  0  0  0
  -31.0290  -27.5940   21.9950 C   0  0  0  0  0  2  0  0  0  0  0  0
  -30.7940  -28.5770   20.9990 O   0  0  0  0  0  0  0  0  0  0  0  0
  -25.0900  -31.7280   23.8600 C   0  0  0  0  0  0  0  0  0  0  0  0
  -29.4800  -28.9400   20.8680 C   0  0  0  0  0  0  0  0  0  0  0  0
  -24.7090  -30.5280   21.7270 C   0  0  0  0  0  3  0  0  0  0  0  0
  -26.8100  -29.7530   20.5060 C   0  0  0  0  0  0  0  0  0  0  0  0
  -27.0040  -31.5080   22.2820 C   0  0  0  0  0  2  0  0  0  0  0  0
  -27.6100  -30.3860   21.4660 C   0  0  0  0  0  0  0  0  0  0  0  0
  -28.9470  -29.9800   21.6560 C   0  0  0  0  0  3  0  0  0  0  0  0
  -28.6680  -28.2990   19.9130 C   0  0  0  0  0  3  0  0  0  0  0  0
  -27.3310  -28.7020   19.7280 C   0  0  0  0  0  3  0  0  0  0  0  0
  -25.3950  -30.2630   20.3590 C   0  0  0  0  0  2  0  0  0  0  0  0
  -25.6010  -31.2570   22.6870 N   0  0  0  0  0  0  0  0  0  0  0  0
  -23.8870  -31.6060   24.1300 O   0  0  0  0  0  0  0  0  0  0  0  0
  -24.1850  -29.1830   22.2790 C   0  0  0  0  0  0  0  0  0  0  0  0
  -23.1210  -28.6570   21.6510 N   0  0  0  0  0  0  0  0  0  0  0  0
  -24.7450  -28.6280   23.2260 O   0  0  0  0  0  0  0  0  0  0  0  0
  -22.7160  -29.1780   20.8840 H   0  0  0  0  0  0  0  0  0  0  0  0
  -20.4770  -26.4060   20.6610 C   0  0  0  0  0  0  0  0  0  0  0  0
  -22.4810  -27.3820   21.9710 C   0  0  0  0  0  3  0  0  0  0  0  0
  -23.2950  -26.1930   21.4120 C   0  0  0  0  0  2  0  0  0  0  0  0
  -22.8330  -25.7490   20.0200 C   0  0  0  0  0  2  0  0  0  0  0  0
  -21.3610  -25.3330   20.0490 C   0  0  0  0  0  2  0  0  0  0  0  0
  -21.0060  -27.3770   21.5530 C   0  0  0  0  0  0  0  0  0  0  0  0
  -20.1480  -28.3740   22.0650 C   0  0  0  0  0  3  0  0  0  0  0  0
  -18.7870  -28.4080   21.7060 C   0  0  0  0  0  3  0  0  0  0  0  0
  -18.2660  -27.4340   20.8380 C   0  0  0  0  0  3  0  0  0  0  0  0
  -19.1090  -26.4340   20.3200 C   0  0  0  0  0  3  0  0  0  0  0  0
  -25.9870  -32.4640   24.9050 C   0  0  0  0  0  3  0  0  0  0  0  0
  -26.1440  -31.6700   26.2590 C   0  0  1  0  0  0  0  0  0  0  0  0
  -24.8070  -31.1320   26.8200 C   0  0  0  0  0  1  0  0  0  0  0  0
  -27.0980  -30.4660   26.0780 C   0  0  0  0  0  1  0  0  0  0  0  0
  -26.7870  -32.5810   27.3300 C   0  0  0  0  0  1  0  0  0  0  0  0
  -25.3970  -33.7890   25.1400 N   0  0  0  0  0  0  0  0  0  0  0  0
  -25.8470  -34.9260   24.5960 C   0  0  0  0  0  0  0  0  0  0  0  0
  -26.8600  -34.9780   23.8920 O   0  0  0  0  0  0  0  0  0  0  0  0
  -24.5310  -33.8140   25.6580 H   0  0  0  0  0  0  0  0  0  0  0  0
  -24.1470  -36.5290   23.6670 C   0  0  0  0  0  1  0  0  0  0  0  0
  -25.0450  -36.2110   24.8720 C   0  0  0  0  0  3  0  0  0  0  0  0
  -26.6120  -37.2570   26.4490 C   0  0  0  0  0  1  0  0  0  0  0  0
  -25.8960  -37.3810   25.1820 N   0  0  0  0  0  0  0  0  0  0  0  0
  -25.3430  -38.2330   25.2110 H   0  0  0  0  0  0  0  0  0  0  0  0
  -29.3860  -18.9670   24.5710 C   0  0  0  0  0  2  0  0  0  0  0  0
  -30.1430  -19.0890   23.2380 C   0  0  0  0  0  2  0  0  0  0  0  0
  -30.2970  -17.7590   22.4870 C   0  0  0  0  0  2  0  0  0  0  0  0
  -33.5540  -15.3800   19.7140 C   0  0  0  0  0  0  0  0  0  0  0  0
  -33.4960  -12.9100   19.5540 C   0  0  0  0  0  2  0  0  0  0  0  0
  -32.5160  -12.4090   18.4780 C   0  0  0  0  0  2  0  0  0  0  0  0
  -31.0860  -12.2960   19.0430 C   0  0  0  0  0  2  0  0  0  0  0  0
  -30.6490  -13.5820   19.7870 C   0  0  0  0  0  3  0  0  0  0  0  0
  -31.7320  -14.0030   20.8030 C   0  0  0  0  0  2  0  0  0  0  0  0
  -32.9990  -14.1920   20.0760 N   0  0  0  0  0  0  0  0  0  0  0  0
  -34.5280  -15.4800   18.9520 O   0  0  0  0  0  0  0  0  0  0  0  0
  -31.9090  -16.9360   20.7140 C   0  0  0  0  0  0  0  0  0  0  0  0
  -30.9150  -16.8000   19.8180 N   0  0  0  0  0  4  0  0  0  0  0  0
  -33.1770  -16.5200   20.4990 N   0  0  0  0  0  0  0  0  0  0  0  0
  -31.6290  -17.5260   21.8930 N   0  0  0  0  0  0  0  0  0  0  0  0
  -31.1080  -16.6440   18.8400 H   0  0  0  0  0  0  0  0  0  0  0  0
  -29.9590  -17.0120   20.0670 H   0  0  0  0  0  0  0  0  0  0  0  0
  -33.8480  -17.2500   20.6590 H   0  0  0  0  0  0  0  0  0  0  0  0
  -32.3990  -17.6820   22.5350 H   0  0  0  0  0  0  0  0  0  0  0  0
  -28.5130  -14.3910   20.9830 C   0  0  0  0  0  0  0  0  0  0  0  0
  -27.3830  -13.7260   21.3730 C   0  0  0  0  0  0  0  0  0  0  0  0
  -27.5890  -12.3580   21.0220 C   0  0  0  0  0  0  0  0  0  0  0  0
  -29.3430  -13.4280   20.4230 N   0  0  0  0  0  0  0  0  0  0  0  0
  -28.7970  -12.1900   20.5010 N   0  0  0  0  0  0  0  0  0  0  0  0
  -26.6850  -11.2030   21.0940 C   0  0  0  0  0  0  0  0  0  0  0  0
  -26.8510  -10.1970   22.0700 C   0  0  0  0  0  3  0  0  0  0  0  0
  -25.9580   -9.1060   22.1300 C   0  0  0  0  0  3  0  0  0  0  0  0
  -24.8850   -9.0160   21.2130 C   0  0  0  0  0  0  0  0  0  0  0  0
  -24.7390  -10.0090   20.2300 C   0  0  0  0  0  3  0  0  0  0  0  0
  -25.6310  -11.0920   20.1660 C   0  0  0  0  0  3  0  0  0  0  0  0
  -23.9840   -7.9790   21.1790 O   0  0  0  0  0  0  0  0  0  0  0  0
  -23.3200   -7.5670   22.3060 C   0  0  0  0  0  0  0  0  0  0  0  0
  -22.5070   -8.4450   23.0560 C   0  0  0  0  0  3  0  0  0  0  0  0
  -21.7870   -7.9620   24.1660 C   0  0  0  0  0  3  0  0  0  0  0  0
  -21.8690   -6.6030   24.5230 C   0  0  0  0  0  0  0  0  0  0  0  0
  -22.6750   -5.7260   23.7760 C   0  0  0  0  0  3  0  0  0  0  0  0
  -23.3950   -6.2070   22.6670 C   0  0  0  0  0  0  0  0  0  0  0  0
  -24.1510   -5.3530   21.9370 F   0  0  0  0  0  0  0  0  0  0  0  0
  -21.1730   -6.1350   25.5870 F   0  0  0  0  0  0  0  0  0  0  0  0
  -26.1380  -14.3370   21.9460 C   0  0  0  0  0  0  0  0  0  0  0  0
  -25.4380  -13.6110   22.8100 N   0  0  0  0  0  0  0  0  0  0  0  0
  -25.8020  -15.4870   21.6630 O   0  0  0  0  0  0  0  0  0  0  0  0
  -25.7220  -12.6750   23.0570 H   0  0  0  0  0  0  0  0  0  0  0  0
  -24.6040  -13.9990   23.2230 H   0  0  0  0  0  0  0  0  0  0  0  0
  -28.8950  -15.7280   21.0390 N   0  0  0  0  0  0  0  0  0  0  0  0
  -28.2430  -16.4430   21.3400 H   0  0  0  0  0  0  0  0  0  0  0  0
  -29.6550  -16.0970   20.4820 H   0  0  0  0  0  0  0  0  0  0  0  0
  1 60  1  0
  1  2  1  0
  2  4  2  0
  2  3  1  0
  3  6  1  0
  5  3  1  0
  7  9  2  0
  7  8  1  0
  8  1  1  0
 10  8  1  0
 11 12  1  0
 11  7  1  0
 13 14  1  0
 13 12  1  0
 14 16  1  0
 15 13  2  0
 17 18  1  0
 17 14  1  0
 19 18  1  0
 20 31  2  0
 21 19  1  0
 21 26  1  0
 22 32  1  0
 22 30  1  0
 23 25  1  0
 24 30  1  0
 25 26  2  0
 25 24  1  0
 27 21  2  0
 28 27  1  0
 28 23  2  0
 29 23  1  0
 29 22  1  0
 30 20  1  0
 32 34  2  0
 33 32  1  0
 35 33  1  0
 36 41  1  0
 37 33  1  0
 38 37  1  0
 39 40  1  0
 39 38  1  0
 40 36  1  0
 41 37  1  0
 41 42  2  0
 43 42  1  0
 44 43  2  0
 45 36  2  0
 45 44  1  0
 46 20  1  0
 46 51  1  0
 46 47  1  0
 47 48  1  1
 47 50  1  0
 49 47  1  0
 51 54  1  0
 52 56  1  0
 52 51  1  0
 53 52  2  0
 56 55  1  0
 56 58  1  0
 58 59  1  0
 58 57  1  0
 61 60  1  0
 62 61  1  0
 63 69  1  0
 63 73  1  0
 64 69  1  0
 65 66  1  0
 65 64  1  0
 67 66  1  0
 67 82  1  0
 67 68  1  0
 69 68  1  0
 70 63  2  0
 71 74  1  0
 72 76  1  0
 72 71  2  0
 73 77  1  0
 73 71  1  0
 74 62  1  0
 74 78  1  0
 75 72  1  0
 79104  1  0
 79 80  2  0
 80 99  1  0
 81 84  1  0
 81 80  1  0
 82 83  1  0
 82 79  1  0
 83 81  2  0
 84 85  1  0
 85 86  2  0
 87 86  1  0
 88 87  2  0
 89 88  1  0
 89 84  2  0
 90 87  1  0
 90 91  1  0
 91 96  2  0
 91 92  1  0
 92 93  2  0
 93 94  1  0
 94 98  1  0
 95 94  2  0
 96 95  1  0
 97 96  1  0
 99100  1  0
100102  1  0
100103  1  0
101 99  2  0
104105  1  0
106104  1  0
M  ISO  4  18 101  19 101  63 100  73 100
M  END
>  <TORSDO>  (44) 
F 26

>  <SCORE>  (44) 
28.599

>  <name>  (44) 
44

>  <ligand_id>  (44) 
44

>  <original_smiles>  (44) 
[H]c1c([H])c([H])c2c(c1[H])C([H])([H])C([H])([H])C([H])([H])C2([H])N([H])C(=O)C1([H])N(C(=O)C([H])(N([H])C(=O)C([H])(N([H])C([H])([H])[H])C([H])([H])[H])C(C([H])([H])[H])(C([H])([H])[H])C([H])([H])[H])C([H])([H])c2c([H])c(OC([H])([H])C([H])([H])N([H])C(=O)C([H])([H])C([H])([H])C(=O)N([H])C([H])(C(=O)N([H])[H])C([H])([H])C([H])([H])C([H])([H])[N+]([H])=C(N([H])[H])N([H])C(=O)N3C([H])([H])C([H])([H])C([H])([H])C([H])(n4nc(-c5c([H])c([H])c(Oc6c([H])c([H])c(F)c([H])c6F)c([H])c5[H])c(C(=O)N([H])[H])c4N([H])[H])C3([H])[H])c([H])c([H])c2C1([H])[H]

>  <smiles>  (44) 
[H]c1c([H])c([H])c2c(c1[H])C([H])([H])C([H])([H])C([H])([H])C2([H])N([H])C(=O)C1([H])N(C(=O)C([H])(N([H])C(=O)C([H])(N([H])C([H])([H])[H])C([H])([H])[H])C(C([H])([H])[H])(C([H])([H])[H])C([H])([H])[H])C([H])([H])c2c([H])c(OC([H])([H])C([H])([H])N([H])C(=O)C([H])([H])C([H])([H])C(=O)N([H])C([H])(C(=O)N([H])[H])C([H])([H])C([H])([H])C([H])([H])[N+]([H])=C(N([H])[H])N([H])C(=O)N3C([H])([H])C([H])([H])C([H])([H])C([H])(n4nc(-c5c([H])c([H])c(Oc6c([H])c([H])c(F)c([H])c6F)c([H])c5[H])c(C(=O)N([H])[H])c4N([H])[H])C3([H])[H])c([H])c([H])c2C1([H])[H]

$$$$
45:0:0
     RDKit          3D

112119  0  0  1  0  0  0  0  0999 V2000
  -29.5070  -20.5470   18.3660 C   0  0  0  0  0  3  0  0  0  0  0  0
  -29.7870  -19.5430   19.5060 C   0  0  0  0  0  0  0  0  0  0  0  0
  -29.5910  -18.2440   19.2380 N   0  0  0  0  0  0  0  0  0  0  0  0
  -30.2220  -19.9230   20.5960 O   0  0  0  0  0  0  0  0  0  0  0  0
  -29.1970  -18.0070   18.3380 H   0  0  0  0  0  0  0  0  0  0  0  0
  -29.0920  -15.9130   19.7560 C   0  0  0  0  0  1  0  0  0  0  0  0
  -29.9520  -17.1320   20.1250 C   0  0  0  0  0  3  0  0  0  0  0  0
  -31.4500  -16.7450   20.0300 C   0  0  0  0  0  0  0  0  0  0  0  0
  -31.8590  -16.0620   18.9510 N   0  0  0  0  0  0  0  0  0  0  0  0
  -32.2310  -17.0920   20.9170 O   0  0  0  0  0  0  0  0  0  0  0  0
  -31.1490  -15.8010   18.2850 H   0  0  0  0  0  0  0  0  0  0  0  0
  -33.2450  -15.7730   18.6050 C   0  0  0  0  0  2  0  0  0  0  0  0
  -33.4520  -14.2680   18.3610 C   0  0  0  0  0  2  0  0  0  0  0  0
  -33.3670  -12.4700   20.0870 C   0  0  0  0  0  0  0  0  0  0  0  0
  -32.9960  -10.7550   21.8270 C   0  0  0  0  0  2  0  0  0  0  0  0
  -32.2060   -9.5500   21.2810 C   0  0  0  0  0  2  0  0  0  0  0  0
  -30.6880   -9.8050   21.3420 C   0  0  0  0  0  2  0  0  0  0  0  0
  -30.2910  -11.1800   20.7490 C   0  0  0  0  0  3  0  0  0  0  0  0
  -31.1790  -12.2980   21.3290 C   0  0  0  0  0  2  0  0  0  0  0  0
  -32.5900  -11.9510   21.0730 N   0  0  0  0  0  0  0  0  0  0  0  0
  -34.5030  -12.0620   19.8270 O   0  0  0  0  0  0  0  0  0  0  0  0
  -32.8150  -13.4880   19.4150 N   0  0  0  0  0  0  0  0  0  0  0  0
  -31.8790  -13.7560   19.6770 H   0  0  0  0  0  0  0  0  0  0  0  0
  -28.2050  -12.6740   20.9490 C   0  0  0  0  0  0  0  0  0  0  0  0
  -26.8790  -12.3740   21.1310 C   0  0  0  0  0  0  0  0  0  0  0  0
  -26.8070  -10.9510   21.2320 C   0  0  0  0  0  0  0  0  0  0  0  0
  -28.8710  -11.4580   20.9590 N   0  0  0  0  0  0  0  0  0  0  0  0
  -28.0230  -10.4230   21.1840 N   0  0  0  0  0  0  0  0  0  0  0  0
  -25.6450  -10.0550   21.3160 C   0  0  0  0  0  0  0  0  0  0  0  0
  -25.5570   -9.0510   22.3030 C   0  0  0  0  0  3  0  0  0  0  0  0
  -24.4230   -8.2120   22.3730 C   0  0  0  0  0  3  0  0  0  0  0  0
  -23.3600   -8.3800   21.4560 C   0  0  0  0  0  0  0  0  0  0  0  0
  -23.4630   -9.3660   20.4600 C   0  0  0  0  0  3  0  0  0  0  0  0
  -24.5960  -10.1940   20.3860 C   0  0  0  0  0  3  0  0  0  0  0  0
  -22.2290   -7.5990   21.4370 O   0  0  0  0  0  0  0  0  0  0  0  0
  -21.7970   -6.9240   22.5510 C   0  0  0  0  0  0  0  0  0  0  0  0
  -21.4630   -7.5940   23.7480 C   0  0  0  0  0  3  0  0  0  0  0  0
  -20.9550   -6.8680   24.8430 C   0  0  0  0  0  3  0  0  0  0  0  0
  -20.7770   -5.4760   24.7450 C   0  0  0  0  0  0  0  0  0  0  0  0
  -21.1020   -4.8070   23.5530 C   0  0  0  0  0  3  0  0  0  0  0  0
  -21.6080   -5.5300   22.4580 C   0  0  0  0  0  0  0  0  0  0  0  0
  -21.8980   -4.8820   21.3040 F   0  0  0  0  0  0  0  0  0  0  0  0
  -20.2850   -4.7790   25.7970 F   0  0  0  0  0  0  0  0  0  0  0  0
  -25.7290  -13.3400   21.1100 C   0  0  0  0  0  0  0  0  0  0  0  0
  -24.6880  -13.0740   21.8930 N   0  0  0  0  0  0  0  0  0  0  0  0
  -25.7660  -14.3610   20.4250 O   0  0  0  0  0  0  0  0  0  0  0  0
  -24.6690  -12.2490   22.4760 H   0  0  0  0  0  0  0  0  0  0  0  0
  -23.8930  -13.6970   21.9070 H   0  0  0  0  0  0  0  0  0  0  0  0
  -28.8930  -13.8660   20.7570 N   0  0  0  0  0  0  0  0  0  0  0  0
  -28.4100  -14.7530   20.6760 H   0  0  0  0  0  0  0  0  0  0  0  0
  -29.8810  -13.9300   20.5390 H   0  0  0  0  0  0  0  0  0  0  0  0
  -30.1270  -22.9220   18.7230 C   0  0  0  0  0  0  0  0  0  0  0  0
  -30.4640  -21.6540   18.4640 N   0  0  0  0  0  0  0  0  0  0  0  0
  -28.9530  -23.3030   18.6890 O   0  0  0  0  0  0  0  0  0  0  0  0
  -31.4360  -21.3960   18.5610 H   0  0  0  0  0  0  0  0  0  0  0  0
  -31.2580  -23.9170   19.0790 C   0  0  0  0  0  3  0  0  0  0  0  0
  -30.3060  -25.2810   20.9590 C   0  0  0  0  0  0  0  0  0  0  0  0
  -30.6530  -25.1010   19.6790 N   0  0  0  0  0  0  0  0  0  0  0  0
  -30.6890  -24.5450   21.8690 O   0  0  0  0  0  0  0  0  0  0  0  0
  -30.2470  -25.7490   19.0170 H   0  0  0  0  0  0  0  0  0  0  0  0
  -29.3600  -26.4600   21.2270 C   0  0  0  0  0  2  0  0  0  0  0  0
  -28.6190  -26.6800   20.0300 O   0  0  0  0  0  0  0  0  0  0  0  0
  -24.6090  -31.6850   23.1860 C   0  0  0  0  0  0  0  0  0  0  0  0
  -27.4470  -27.3810   20.1250 C   0  0  0  0  0  0  0  0  0  0  0  0
  -23.4660  -30.2350   21.5360 C   0  0  0  0  0  3  0  0  0  0  0  0
  -24.9890  -28.7540   20.1260 C   0  0  0  0  0  0  0  0  0  0  0  0
  -25.9720  -30.7000   21.3510 C   0  0  0  0  0  2  0  0  0  0  0  0
  -26.1170  -29.3300   20.7280 C   0  0  0  0  0  0  0  0  0  0  0  0
  -27.3490  -28.6460   20.7410 C   0  0  0  0  0  3  0  0  0  0  0  0
  -26.3120  -26.8130   19.5160 C   0  0  0  0  0  3  0  0  0  0  0  0
  -25.0790  -27.4870   19.5220 C   0  0  0  0  0  3  0  0  0  0  0  0
  -23.7110  -29.5590   20.1600 C   0  0  0  0  0  2  0  0  0  0  0  0
  -24.7000  -30.8900   22.0830 N   0  0  0  0  0  0  0  0  0  0  0  0
  -23.5160  -31.9140   23.7210 O   0  0  0  0  0  0  0  0  0  0  0  0
  -22.8510  -29.1880   22.4940 C   0  0  0  0  0  0  0  0  0  0  0  0
  -21.5720  -28.8490   22.2660 N   0  0  0  0  0  0  0  0  0  0  0  0
  -23.5260  -28.6840   23.3950 O   0  0  0  0  0  0  0  0  0  0  0  0
  -21.0850  -29.3150   21.5130 H   0  0  0  0  0  0  0  0  0  0  0  0
  -18.3430  -27.2510   22.4940 C   0  0  0  0  0  0  0  0  0  0  0  0
  -20.8000  -27.8590   23.0160 C   0  0  0  0  0  3  0  0  0  0  0  0
  -21.1460  -26.4220   22.5610 C   0  0  0  0  0  2  0  0  0  0  0  0
  -20.2160  -25.8950   21.4650 C   0  0  0  0  0  2  0  0  0  0  0  0
  -18.7630  -25.8970   21.9460 C   0  0  0  0  0  2  0  0  0  0  0  0
  -19.3010  -28.1780   22.9830 C   0  0  0  0  0  0  0  0  0  0  0  0
  -18.8590  -29.4360   23.4460 C   0  0  0  0  0  3  0  0  0  0  0  0
  -17.4920  -29.7680   23.4330 C   0  0  0  0  0  3  0  0  0  0  0  0
  -16.5470  -28.8390   22.9630 C   0  0  0  0  0  3  0  0  0  0  0  0
  -16.9730  -27.5830   22.4980 C   0  0  0  0  0  3  0  0  0  0  0  0
  -25.8680  -32.3620   23.8130 C   0  0  0  0  0  3  0  0  0  0  0  0
  -26.4410  -31.5810   25.0590 C   0  0  1  0  0  0  0  0  0  0  0  0
  -25.3620  -31.1860   26.0940 C   0  0  0  0  0  1  0  0  0  0  0  0
  -27.1590  -30.2880   24.6060 C   0  0  0  0  0  1  0  0  0  0  0  0
  -27.5000  -32.4490   25.7790 C   0  0  0  0  0  1  0  0  0  0  0  0
  -25.4950  -33.7320   24.1820 N   0  0  0  0  0  0  0  0  0  0  0  0
  -25.7520  -34.8150   23.4380 C   0  0  0  0  0  0  0  0  0  0  0  0
  -26.4000  -34.7700   22.3890 O   0  0  0  0  0  0  0  0  0  0  0  0
  -24.9140  -33.8390   25.0010 H   0  0  0  0  0  0  0  0  0  0  0  0
  -23.9060  -36.5030   23.1780 C   0  0  0  0  0  1  0  0  0  0  0  0
  -25.1990  -36.1650   23.9360 C   0  0  0  0  0  3  0  0  0  0  0  0
  -27.3000  -37.1720   24.7120 C   0  0  0  0  0  1  0  0  0  0  0  0
  -26.1620  -37.2790   23.8020 N   0  0  0  0  0  0  0  0  0  0  0  0
  -25.7040  -38.1710   23.9680 H   0  0  0  0  0  0  0  0  0  0  0  0
  -31.9960  -24.3840   17.8000 C   0  0  0  0  0  2  0  0  0  0  0  0
  -31.1720  -25.1610   16.9300 O   0  0  0  0  0  0  0  0  0  0  0  0
  -30.4220  -24.6290   16.6860 H   0  0  0  0  0  0  0  0  0  0  0  0
  -29.7150  -19.8160   17.0160 C   0  0  0  0  0  2  0  0  0  0  0  0
  -29.7490  -20.7720   15.8060 C   0  0  0  0  0  2  0  0  0  0  0  0
  -29.9940  -20.0600   14.4720 C   0  0  0  0  0  0  0  0  0  0  0  0
  -29.8650  -20.7860   13.3680 N   0  0  0  0  0  0  0  0  0  0  0  0
  -30.2800  -18.8650   14.4200 O   0  0  0  0  0  0  0  0  0  0  0  0
  -29.6310  -21.7680   13.4240 H   0  0  0  0  0  0  0  0  0  0  0  0
  -29.9920  -20.3610   12.4590 H   0  0  0  0  0  0  0  0  0  0  0  0
  1106  1  0
  1 53  1  0
  1  2  1  0
  2  4  2  0
  3  2  1  0
  3  7  1  0
  5  3  1  0
  7  6  1  0
  8  7  1  0
  8 10  2  0
  9  8  1  0
 11  9  1  0
 12  9  1  0
 13 12  1  0
 13 22  1  0
 14 20  1  0
 16 17  1  0
 16 15  1  0
 18 27  1  0
 18 19  1  0
 18 17  1  0
 20 19  1  0
 20 15  1  0
 21 14  2  0
 22 23  1  0
 22 14  1  0
 24 27  1  0
 24 25  2  0
 25 26  1  0
 26 29  1  0
 27 28  1  0
 28 26  2  0
 29 30  1  0
 30 31  2  0
 32 31  1  0
 33 32  2  0
 34 33  1  0
 34 29  2  0
 35 32  1  0
 35 36  1  0
 36 37  1  0
 37 38  2  0
 39 38  1  0
 39 43  1  0
 40 39  2  0
 41 36  2  0
 41 40  1  0
 42 41  1  0
 44 25  1  0
 44 45  1  0
 45 48  1  0
 45 47  1  0
 46 44  2  0
 49 24  1  0
 50 49  1  0
 51 49  1  0
 52 56  1  0
 53 55  1  0
 53 52  1  0
 54 52  2  0
 56103  1  0
 56 58  1  0
 57 61  1  0
 57 59  2  0
 58 57  1  0
 60 58  1  0
 62 64  1  0
 62 61  1  0
 63 74  2  0
 64 69  1  0
 65 73  1  0
 65 75  1  0
 66 72  1  0
 66 68  1  0
 67 73  1  0
 68 69  2  0
 68 67  1  0
 70 71  1  0
 70 64  2  0
 71 66  2  0
 72 65  1  0
 73 63  1  0
 75 77  2  0
 76 75  1  0
 78 76  1  0
 79 88  2  0
 79 84  1  0
 80 76  1  0
 81 80  1  0
 82 83  1  0
 82 81  1  0
 83 79  1  0
 84 80  1  0
 84 85  2  0
 86 85  1  0
 87 86  2  0
 88 87  1  0
 89 63  1  0
 89 94  1  0
 89 90  1  0
 90 93  1  1
 90 91  1  0
 92 90  1  0
 94 97  1  0
 95 99  1  0
 95 94  1  0
 96 95  2  0
 99 98  1  0
101 99  1  0
101102  1  0
101100  1  0
104103  1  0
105104  1  0
107106  1  0
108107  1  0
109111  1  0
109108  1  0
110108  2  0
112109  1  0
M  ISO  4  14 100  22 100  61 101  62 101
M  END
>  <TORSDO>  (45) 
F 30

>  <SCORE>  (45) 
-9.949

>  <name>  (45) 
45

>  <ligand_id>  (45) 
45

>  <original_smiles>  (45) 
[H]OC([H])([H])C([H])(C(=O)N([H])C([H])(C(=O)N([H])C([H])(C(=O)N([H])C([H])([H])C([H])([H])N([H])C(=O)N1C([H])([H])C([H])([H])C([H])([H])C([H])(n2nc(-c3c([H])c([H])c(Oc4c([H])c([H])c(F)c([H])c4F)c([H])c3[H])c(C(=O)N([H])[H])c2N([H])[H])C1([H])[H])C([H])([H])[H])C([H])([H])C([H])([H])C(=O)N([H])[H])N([H])C(=O)C([H])([H])Oc1c([H])c([H])c2c(c1[H])C([H])([H])N(C(=O)C([H])(N([H])C(=O)C([H])(N([H])C([H])([H])[H])C([H])([H])[H])C(C([H])([H])[H])(C([H])([H])[H])C([H])([H])[H])C([H])(C(=O)N([H])C1([H])c3c([H])c([H])c([H])c([H])c3C([H])([H])C([H])([H])C1([H])[H])C2([H])[H]

>  <smiles>  (45) 
[H]OC([H])([H])C([H])(C(=O)N([H])C([H])(C(=O)N([H])C([H])(C(=O)N([H])C([H])([H])C([H])([H])N([H])C(=O)N1C([H])([H])C([H])([H])C([H])([H])C([H])(n2nc(-c3c([H])c([H])c(Oc4c([H])c([H])c(F)c([H])c4F)c([H])c3[H])c(C(=O)N([H])[H])c2N([H])[H])C1([H])[H])C([H])([H])[H])C([H])([H])C([H])([H])C(=O)N([H])[H])N([H])C(=O)C([H])([H])Oc1c([H])c([H])c2c(c1[H])C([H])([H])N(C(=O)C([H])(N([H])C(=O)C([H])(N([H])C([H])([H])[H])C([H])([H])[H])C(C([H])([H])[H])(C([H])([H])[H])C([H])([H])[H])C([H])(C(=O)N([H])C1([H])c3c([H])c([H])c([H])c([H])c3C([H])([H])C([H])([H])C1([H])[H])C2([H])[H]

$$$$
46:0:0
     RDKit          3D

112120  0  0  1  0  0  0  0  0999 V2000
  -30.0080  -25.7040   23.2330 C   0  0  0  0  0  0  0  0  0  0  0  0
  -29.6020  -24.5090   22.8060 N   0  0  0  0  0  0  0  0  0  0  0  0
  -29.2420  -26.5230   23.7440 O   0  0  0  0  0  0  0  0  0  0  0  0
  -30.2680  -23.9000   22.3490 H   0  0  0  0  0  0  0  0  0  0  0  0
  -28.2430  -24.0010   22.9240 C   0  0  0  0  0  2  0  0  0  0  0  0
  -28.1320  -22.6460   22.2270 C   0  0  0  0  0  0  0  0  0  0  0  0
  -27.3490  -21.7260   22.8010 N   0  0  0  0  0  0  0  0  0  0  0  0
  -28.7470  -22.4390   21.1780 O   0  0  0  0  0  0  0  0  0  0  0  0
  -26.8920  -21.9710   23.6680 H   0  0  0  0  0  0  0  0  0  0  0  0
  -27.1210  -20.3690   22.3030 C   0  0  0  0  0  2  0  0  0  0  0  0
  -28.3830  -19.4930   22.3030 C   0  0  0  0  0  0  0  0  0  0  0  0
  -28.4070  -18.5140   21.3950 N   0  0  0  0  0  0  0  0  0  0  0  0
  -29.3100  -19.7050   23.0910 O   0  0  0  0  0  0  0  0  0  0  0  0
  -27.5810  -18.4190   20.8190 H   0  0  0  0  0  0  0  0  0  0  0  0
  -30.7270  -14.4580   20.4460 C   0  0  0  0  0  0  0  0  0  0  0  0
  -30.4220  -12.2710   19.4080 C   0  0  0  0  0  2  0  0  0  0  0  0
  -29.4900  -12.4520   18.1930 C   0  0  0  0  0  2  0  0  0  0  0  0
  -28.0100  -12.3290   18.6130 C   0  0  0  0  0  2  0  0  0  0  0  0
  -27.6570  -13.1900   19.8560 C   0  0  0  0  0  3  0  0  0  0  0  0
  -28.7140  -13.0180   20.9720 C   0  0  0  0  0  2  0  0  0  0  0  0
  -30.0360  -13.2910   20.3890 N   0  0  0  0  0  0  0  0  0  0  0  0
  -31.9520  -14.4980   20.3050 O   0  0  0  0  0  0  0  0  0  0  0  0
  -31.2520  -17.4680   19.1300 C   0  0  0  0  0  2  0  0  0  0  0  0
  -30.2820  -18.3920   19.8700 C   0  0  0  0  0  2  0  0  0  0  0  0
  -30.5230  -16.1830   18.7250 C   0  0  0  0  0  2  0  0  0  0  0  0
  -29.0280  -16.2820   20.6580 C   0  0  0  0  0  2  0  0  0  0  0  0
  -29.5500  -17.6880   21.0350 C   0  0  0  0  0  3  0  0  0  0  0  0
  -30.0290  -15.4940   19.9280 N   0  0  0  0  0  0  0  0  0  0  0  0
  -25.2620  -13.8110   20.5670 C   0  0  0  0  0  0  0  0  0  0  0  0
  -24.1850  -13.0440   20.9200 C   0  0  0  0  0  0  0  0  0  0  0  0
  -24.6390  -11.6890   20.8760 C   0  0  0  0  0  0  0  0  0  0  0  0
  -26.3030  -12.9250   20.3320 N   0  0  0  0  0  0  0  0  0  0  0  0
  -25.9300  -11.6430   20.5790 N   0  0  0  0  0  0  0  0  0  0  0  0
  -23.9060  -10.4290   21.0420 C   0  0  0  0  0  0  0  0  0  0  0  0
  -24.3620   -9.4210   21.9190 C   0  0  0  0  0  3  0  0  0  0  0  0
  -23.6300   -8.2240   22.0750 C   0  0  0  0  0  3  0  0  0  0  0  0
  -22.4280   -8.0280   21.3540 C   0  0  0  0  0  0  0  0  0  0  0  0
  -21.9920   -9.0260   20.4650 C   0  0  0  0  0  3  0  0  0  0  0  0
  -22.7250  -10.2140   20.3070 C   0  0  0  0  0  3  0  0  0  0  0  0
  -21.6630   -6.8900   21.4250 O   0  0  0  0  0  0  0  0  0  0  0  0
  -21.6850   -6.0750   22.5290 C   0  0  0  0  0  0  0  0  0  0  0  0
  -21.4000   -6.5650   23.8220 C   0  0  0  0  0  3  0  0  0  0  0  0
  -21.3660   -5.6800   24.9180 C   0  0  0  0  0  3  0  0  0  0  0  0
  -21.6030   -4.3060   24.7230 C   0  0  0  0  0  0  0  0  0  0  0  0
  -21.8820   -3.8160   23.4340 C   0  0  0  0  0  3  0  0  0  0  0  0
  -21.9190   -4.6980   22.3400 C   0  0  0  0  0  0  0  0  0  0  0  0
  -22.1660   -4.2170   21.0980 F   0  0  0  0  0  0  0  0  0  0  0  0
  -21.5640   -3.4540   25.7740 F   0  0  0  0  0  0  0  0  0  0  0  0
  -22.7870  -13.5240   21.1850 C   0  0  0  0  0  0  0  0  0  0  0  0
  -22.0480  -12.8250   22.0400 N   0  0  0  0  0  0  0  0  0  0  0  0
  -22.3570  -14.5570   20.6720 O   0  0  0  0  0  0  0  0  0  0  0  0
  -22.4070  -11.9920   22.4820 H   0  0  0  0  0  0  0  0  0  0  0  0
  -21.1110  -13.1310   22.2580 H   0  0  0  0  0  0  0  0  0  0  0  0
  -25.4340  -15.1820   20.4040 N   0  0  0  0  0  0  0  0  0  0  0  0
  -24.6690  -15.8410   20.5050 H   0  0  0  0  0  0  0  0  0  0  0  0
  -26.2810  -15.6130   20.0620 H   0  0  0  0  0  0  0  0  0  0  0  0
  -31.4940  -26.0380   23.0870 C   0  0  0  0  0  2  0  0  0  0  0  0
  -31.8630  -27.0240   20.8580 C   0  0  0  0  0  0  0  0  0  0  0  0
  -31.6660  -27.1570   22.1700 N   0  0  0  0  0  0  0  0  0  0  0  0
  -32.0420  -25.9320   20.3150 O   0  0  0  0  0  0  0  0  0  0  0  0
  -31.5160  -28.0850   22.5460 H   0  0  0  0  0  0  0  0  0  0  0  0
  -31.8490  -28.2840   20.0060 C   0  0  0  0  0  2  0  0  0  0  0  0
  -31.5370  -27.9210   18.6110 N   0  0  0  0  0  4  0  0  0  0  0  0
  -31.7760  -26.9420   18.5350 H   0  0  0  0  0  0  0  0  0  0  0  0
  -32.1520  -28.4420   18.0070 H   0  0  0  0  0  0  0  0  0  0  0  0
  -30.1370  -28.1550   18.1780 C   0  0  0  0  0  2  0  0  0  0  0  0
  -29.3580  -26.8600   17.8110 C   0  0  0  0  0  3  0  0  0  0  0  0
  -28.2290  -27.1780   16.9460 N   0  0  0  0  0  0  0  0  0  0  0  0
  -27.5670  -27.7480   17.4630 H   0  0  0  0  0  0  0  0  0  0  0  0
  -28.5320  -27.7680   16.1790 H   0  0  0  0  0  0  0  0  0  0  0  0
  -28.8530  -26.0160   19.0100 C   0  0  0  0  0  2  0  0  0  0  0  0
  -28.4520  -26.8170   20.1120 O   0  0  0  0  0  0  0  0  0  0  0  0
  -24.6080  -31.8690   23.2100 C   0  0  0  0  0  0  0  0  0  0  0  0
  -27.2480  -27.4790   20.0840 C   0  0  0  0  0  0  0  0  0  0  0  0
  -23.3950  -30.4910   21.5470 C   0  0  0  0  0  3  0  0  0  0  0  0
  -24.8450  -28.9580   20.1130 C   0  0  0  0  0  0  0  0  0  0  0  0
  -25.9140  -30.8490   21.3570 C   0  0  0  0  0  2  0  0  0  0  0  0
  -25.9950  -29.4790   20.7150 C   0  0  0  0  0  0  0  0  0  0  0  0
  -27.1890  -28.7360   20.7170 C   0  0  0  0  0  3  0  0  0  0  0  0
  -26.0810  -26.9570   19.4810 C   0  0  0  0  0  3  0  0  0  0  0  0
  -24.8770  -27.6910   19.5030 C   0  0  0  0  0  3  0  0  0  0  0  0
  -23.6080  -29.8230   20.1600 C   0  0  0  0  0  2  0  0  0  0  0  0
  -24.6580  -31.0850   22.0970 N   0  0  0  0  0  0  0  0  0  0  0  0
  -23.5270  -32.1390   23.7500 O   0  0  0  0  0  0  0  0  0  0  0  0
  -22.7410  -29.4640   22.4970 C   0  0  0  0  0  0  0  0  0  0  0  0
  -21.4140  -29.3000   22.3720 N   0  0  0  0  0  0  0  0  0  0  0  0
  -23.4190  -28.8190   23.3010 O   0  0  0  0  0  0  0  0  0  0  0  0
  -20.9270  -29.8760   21.7000 H   0  0  0  0  0  0  0  0  0  0  0  0
  -18.0290  -28.1360   22.8470 C   0  0  0  0  0  0  0  0  0  0  0  0
  -20.5870  -28.3630   23.1310 C   0  0  0  0  0  3  0  0  0  0  0  0
  -20.6770  -26.9360   22.5410 C   0  0  0  0  0  2  0  0  0  0  0  0
  -19.5750  -26.6360   21.5210 C   0  0  0  0  0  2  0  0  0  0  0  0
  -18.1920  -26.7910   22.1610 C   0  0  0  0  0  2  0  0  0  0  0  0
  -19.1530  -28.8820   23.2890 C   0  0  0  0  0  0  0  0  0  0  0  0
  -18.9450  -30.1420   23.8920 C   0  0  0  0  0  3  0  0  0  0  0  0
  -17.6440  -30.6560   24.0540 C   0  0  0  0  0  3  0  0  0  0  0  0
  -16.5330  -29.9050   23.6280 C   0  0  0  0  0  3  0  0  0  0  0  0
  -16.7260  -28.6460   23.0300 C   0  0  0  0  0  3  0  0  0  0  0  0
  -25.8990  -32.4820   23.8420 C   0  0  0  0  0  3  0  0  0  0  0  0
  -25.5840  -33.8610   24.2350 N   0  0  0  0  0  0  0  0  0  0  0  0
  -25.8980  -34.9460   23.5140 C   0  0  0  0  0  0  0  0  0  0  0  0
  -26.5550  -34.8900   22.4700 O   0  0  0  0  0  0  0  0  0  0  0  0
  -24.9970  -33.9830   25.0480 H   0  0  0  0  0  0  0  0  0  0  0  0
  -24.1470  -36.7340   23.2640 C   0  0  0  0  0  1  0  0  0  0  0  0
  -25.4080  -36.3110   24.0350 C   0  0  0  0  0  3  0  0  0  0  0  0
  -27.5560  -37.1810   24.8460 C   0  0  0  0  0  1  0  0  0  0  0  0
  -26.4260  -37.3810   23.9420 N   0  0  0  0  0  0  0  0  0  0  0  0
  -26.0130  -38.2880   24.1480 H   0  0  0  0  0  0  0  0  0  0  0  0
  -26.4450  -31.6590   25.0740 C   0  0  1  0  0  0  0  0  0  0  0  0
  -25.3730  -31.3700   26.1500 C   0  0  0  0  0  1  0  0  0  0  0  0
  -27.0230  -30.3030   24.6070 C   0  0  0  0  0  1  0  0  0  0  0  0
  -27.6020  -32.4300   25.7520 C   0  0  0  0  0  1  0  0  0  0  0  0
  1  3  2  0
  2  5  1  0
  2  1  1  0
  4  2  1  0
  6  7  1  0
  6  5  1  0
  7  9  1  0
  8  6  2  0
 10 11  1  0
 10  7  1  0
 11 13  2  0
 12 11  1  0
 14 12  1  0
 16 21  1  0
 17 18  1  0
 17 16  1  0
 19 18  1  0
 19 32  1  0
 19 20  1  0
 21 15  1  0
 21 20  1  0
 22 15  2  0
 23 24  1  0
 24 27  1  0
 25 23  1  0
 25 28  1  0
 26 27  1  0
 27 12  1  0
 28 15  1  0
 28 26  1  0
 29 30  2  0
 30 49  1  0
 31 30  1  0
 31 34  1  0
 32 29  1  0
 32 33  1  0
 33 31  2  0
 34 35  1  0
 35 36  2  0
 37 40  1  0
 37 36  1  0
 38 37  2  0
 39 38  1  0
 39 34  2  0
 40 41  1  0
 41 42  1  0
 42 43  2  0
 44 43  1  0
 44 48  1  0
 45 44  2  0
 46 41  2  0
 46 45  1  0
 47 46  1  0
 49 50  1  0
 50 53  1  0
 50 52  1  0
 51 49  2  0
 54 55  1  0
 54 29  1  0
 56 54  1  0
 57  1  1  0
 58 59  1  0
 59 61  1  0
 59 57  1  0
 60 58  2  0
 62 58  1  0
 63 62  1  0
 64 63  1  0
 65 63  1  0
 66 63  1  0
 67 66  1  0
 67 71  1  0
 68 69  1  0
 68 67  1  0
 70 68  1  0
 71 72  1  0
 73 84  2  0
 74 72  1  0
 74 79  1  0
 75 83  1  0
 75 85  1  0
 76 82  1  0
 76 78  1  0
 77 83  1  0
 78 79  2  0
 78 77  1  0
 80 81  1  0
 80 74  2  0
 81 76  2  0
 82 75  1  0
 83 73  1  0
 85 87  2  0
 86 85  1  0
 88 86  1  0
 89 98  2  0
 89 94  1  0
 90 86  1  0
 90 94  1  0
 91 90  1  0
 92 93  1  0
 92 91  1  0
 93 89  1  0
 94 95  2  0
 95 96  1  0
 97 96  2  0
 98 97  1  0
 99 73  1  0
 99100  1  0
 99109  1  0
100103  1  0
101105  1  0
101100  1  0
102101  2  0
105104  1  0
107105  1  0
107108  1  0
107106  1  0
109112  1  1
109110  1  0
111109  1  0
M  ISO  4  15 100  28 100  71 101  72 101
M  END
>  <TORSDO>  (46) 
F 28

>  <SCORE>  (46) 
1.053

>  <name>  (46) 
46

>  <ligand_id>  (46) 
46

>  <original_smiles>  (46) 
[H]c1c([H])c([H])c2c(c1[H])C([H])([H])C([H])([H])C([H])([H])C2([H])N([H])C(=O)C1([H])N(C(=O)C([H])(N([H])C(=O)C([H])(N([H])C([H])([H])[H])C([H])([H])[H])C(C([H])([H])[H])(C([H])([H])[H])C([H])([H])[H])C([H])([H])c2c([H])c(OC([H])([H])C([H])(N([H])[H])C([H])([H])[N+]([H])([H])C([H])([H])C(=O)N([H])C([H])([H])C(=O)N([H])C([H])([H])C(=O)N([H])C([H])([H])C(=O)N([H])C3([H])C([H])([H])N(C(=O)N4C([H])([H])C([H])([H])C([H])([H])C([H])(n5nc(-c6c([H])c([H])c(Oc7c([H])c([H])c(F)c([H])c7F)c([H])c6[H])c(C(=O)N([H])[H])c5N([H])[H])C4([H])[H])C([H])([H])C([H])([H])C3([H])[H])c([H])c([H])c2C1([H])[H]

>  <smiles>  (46) 
[H]c1c([H])c([H])c2c(c1[H])C([H])([H])C([H])([H])C([H])([H])C2([H])N([H])C(=O)C1([H])N(C(=O)C([H])(N([H])C(=O)C([H])(N([H])C([H])([H])[H])C([H])([H])[H])C(C([H])([H])[H])(C([H])([H])[H])C([H])([H])[H])C([H])([H])c2c([H])c(OC([H])([H])C([H])(N([H])[H])C([H])([H])[N+]([H])([H])C([H])([H])C(=O)N([H])C([H])([H])C(=O)N([H])C([H])([H])C(=O)N([H])C([H])([H])C(=O)N([H])C3([H])C([H])([H])N(C(=O)N4C([H])([H])C([H])([H])C([H])([H])C([H])(n5nc(-c6c([H])c([H])c(Oc7c([H])c([H])c(F)c([H])c7F)c([H])c6[H])c(C(=O)N([H])[H])c5N([H])[H])C4([H])[H])C([H])([H])C([H])([H])C3([H])[H])c([H])c([H])c2C1([H])[H]

$$$$
47:0:0
     RDKit          3D

118128  0  0  1  0  0  0  0  0999 V2000
  -32.1610  -23.0410   19.1300 C   0  0  0  0  0  3  0  0  0  0  0  0
  -33.4480  -22.1340   19.1860 C   0  0  0  0  0  0  0  0  0  0  0  0
  -33.3330  -19.3140   22.2660 C   0  0  0  0  0  2  0  0  0  0  0  0
  -34.4930  -20.3060   22.0920 C   0  0  0  0  0  2  0  0  0  0  0  0
  -32.1110  -19.8050   21.4690 C   0  0  0  0  0  2  0  0  0  0  0  0
  -34.7760  -20.6840   20.6190 C   0  0  0  0  0  2  0  0  0  0  0  0
  -32.4620  -19.8990   19.9750 C   0  0  0  0  0  3  0  0  0  0  0  0
  -33.5220  -20.9470   19.8580 N   0  0  0  0  0  0  0  0  0  0  0  0
  -34.4650  -22.5800   18.6530 O   0  0  0  0  0  0  0  0  0  0  0  0
  -32.8000  -18.4900   19.3720 C   0  0  0  0  0  0  0  0  0  0  0  0
  -31.8540  -17.5150   19.3110 N   0  0  0  0  0  0  0  0  0  0  0  0
  -33.9400  -18.2470   18.9660 O   0  0  0  0  0  0  0  0  0  0  0  0
  -32.1720  -16.5810   19.0960 H   0  0  0  0  0  0  0  0  0  0  0  0
  -28.4540  -18.7960   18.6300 C   0  0  0  0  0  3  0  0  0  0  0  0
  -27.6750  -18.1730   19.6060 C   0  0  0  0  0  3  0  0  0  0  0  0
  -29.8350  -18.5680   18.5770 C   0  0  0  0  0  3  0  0  0  0  0  0
  -28.2550  -17.2080   20.4420 C   0  0  0  0  0  3  0  0  0  0  0  0
  -30.4480  -17.6450   19.4450 C   0  0  0  0  0  0  0  0  0  0  0  0
  -29.6200  -16.8560   20.3180 C   0  0  0  0  0  0  0  0  0  0  0  0
  -30.7180  -14.6740   20.6290 C   0  0  0  0  0  0  0  0  0  0  0  0
  -30.4650  -12.4800   19.5470 C   0  0  0  0  0  2  0  0  0  0  0  0
  -29.5530  -12.6440   18.3130 C   0  0  0  0  0  2  0  0  0  0  0  0
  -28.0640  -12.5270   18.7000 C   0  0  0  0  0  2  0  0  0  0  0  0
  -27.6870  -13.3730   19.9390 C   0  0  0  0  0  3  0  0  0  0  0  0
  -28.7190  -13.1960   21.0820 C   0  0  0  0  0  2  0  0  0  0  0  0
  -30.0590  -13.4870   20.5410 N   0  0  0  0  0  0  0  0  0  0  0  0
  -31.8600  -14.8390   20.1960 O   0  0  0  0  0  0  0  0  0  0  0  0
  -29.9870  -15.7070   21.0870 N   0  0  0  0  0  0  0  0  0  0  0  0
  -29.1930  -15.3670   21.6060 H   0  0  0  0  0  0  0  0  0  0  0  0
  -25.2610  -13.9550   20.5730 C   0  0  0  0  0  0  0  0  0  0  0  0
  -24.1890  -13.1810   20.9040 C   0  0  0  0  0  0  0  0  0  0  0  0
  -24.6570  -11.8310   20.8850 C   0  0  0  0  0  0  0  0  0  0  0  0
  -26.3220  -13.0860   20.3760 N   0  0  0  0  0  0  0  0  0  0  0  0
  -25.9560  -11.8020   20.6170 N   0  0  0  0  0  0  0  0  0  0  0  0
  -23.9340  -10.5660   21.0480 C   0  0  0  0  0  0  0  0  0  0  0  0
  -24.3410   -9.5980   21.9930 C   0  0  0  0  0  3  0  0  0  0  0  0
  -23.6140   -8.4000   22.1530 C   0  0  0  0  0  3  0  0  0  0  0  0
  -22.4680   -8.1550   21.3610 C   0  0  0  0  0  0  0  0  0  0  0  0
  -22.0770   -9.1110   20.4080 C   0  0  0  0  0  3  0  0  0  0  0  0
  -22.8040  -10.3020   20.2470 C   0  0  0  0  0  3  0  0  0  0  0  0
  -21.7210   -7.0020   21.4220 O   0  0  0  0  0  0  0  0  0  0  0  0
  -21.6350   -6.2630   22.5750 C   0  0  0  0  0  0  0  0  0  0  0  0
  -21.1490   -6.8150   23.7800 C   0  0  0  0  0  3  0  0  0  0  0  0
  -21.0130   -6.0030   24.9220 C   0  0  0  0  0  3  0  0  0  0  0  0
  -21.3560   -4.6380   24.8600 C   0  0  0  0  0  0  0  0  0  0  0  0
  -21.8410   -4.0870   23.6610 C   0  0  0  0  0  3  0  0  0  0  0  0
  -21.9800   -4.8980   22.5220 C   0  0  0  0  0  0  0  0  0  0  0  0
  -22.4270   -4.3580   21.3620 F   0  0  0  0  0  0  0  0  0  0  0  0
  -21.2200   -3.8550   25.9550 F   0  0  0  0  0  0  0  0  0  0  0  0
  -22.7790  -13.6500   21.1320 C   0  0  0  0  0  0  0  0  0  0  0  0
  -22.0280  -12.9530   21.9730 N   0  0  0  0  0  0  0  0  0  0  0  0
  -22.3570  -14.6750   20.5960 O   0  0  0  0  0  0  0  0  0  0  0  0
  -22.3850  -12.1290   22.4360 H   0  0  0  0  0  0  0  0  0  0  0  0
  -21.0820  -13.2480   22.1660 H   0  0  0  0  0  0  0  0  0  0  0  0
  -25.4130  -15.3280   20.4000 N   0  0  0  0  0  0  0  0  0  0  0  0
  -24.6390  -15.9580   20.5590 H   0  0  0  0  0  0  0  0  0  0  0  0
  -26.2370  -15.7880   20.0420 H   0  0  0  0  0  0  0  0  0  0  0  0
  -31.3850  -26.7370   18.3120 C   0  0  0  0  0  2  0  0  0  0  0  0
  -32.9080  -26.7390   18.2560 C   0  0  0  0  0  2  0  0  0  0  0  0
  -30.9760  -25.2570   18.2700 C   0  0  0  0  0  2  0  0  0  0  0  0
  -33.3260  -25.3790   18.8210 C   0  0  0  0  0  2  0  0  0  0  0  0
  -32.2680  -24.3940   18.3330 C   0  0  0  0  0  3  0  0  0  0  0  0
  -30.4880  -22.1220   17.5410 C   0  0  0  0  0  0  0  0  0  0  0  0
  -30.9140  -22.3880   18.7780 N   0  0  0  0  0  0  0  0  0  0  0  0
  -31.2320  -22.1120   16.5650 O   0  0  0  0  0  0  0  0  0  0  0  0
  -30.2240  -22.2700   19.5130 H   0  0  0  0  0  0  0  0  0  0  0  0
  -28.9910  -21.8830   17.3580 C   0  0  0  0  0  2  0  0  0  0  0  0
  -27.9800  -22.4650   19.6120 C   0  0  0  0  0  0  0  0  0  0  0  0
  -28.0980  -22.5950   18.2920 N   0  0  0  0  0  0  0  0  0  0  0  0
  -28.4860  -21.5360   20.2440 O   0  0  0  0  0  0  0  0  0  0  0  0
  -27.5880  -23.3660   17.8880 H   0  0  0  0  0  0  0  0  0  0  0  0
  -27.3320  -23.6380   20.3370 C   0  0  0  0  0  2  0  0  0  0  0  0
  -27.9920  -23.9000   21.6330 N   0  0  0  0  0  4  0  0  0  0  0  0
  -28.9720  -23.6800   21.5430 H   0  0  0  0  0  0  0  0  0  0  0  0
  -27.6280  -23.2320   22.2970 H   0  0  0  0  0  0  0  0  0  0  0  0
  -27.8090  -25.2790   22.1550 C   0  0  0  0  0  2  0  0  0  0  0  0
  -28.7930  -26.3180   21.5560 C   0  0  0  0  0  2  0  0  0  0  0  0
  -28.4050  -26.7240   20.2410 O   0  0  0  0  0  0  0  0  0  0  0  0
  -24.5520  -31.8770   23.2740 C   0  0  0  0  0  0  0  0  0  0  0  0
  -27.2680  -27.4900   20.2160 C   0  0  0  0  0  0  0  0  0  0  0  0
  -23.3820  -30.4780   21.6060 C   0  0  0  0  0  3  0  0  0  0  0  0
  -24.8700  -28.9630   20.1900 C   0  0  0  0  0  0  0  0  0  0  0  0
  -25.9010  -30.8600   21.4440 C   0  0  0  0  0  2  0  0  0  0  0  0
  -26.0090  -29.4940   20.8040 C   0  0  0  0  0  0  0  0  0  0  0  0
  -27.2120  -28.7630   20.8220 C   0  0  0  0  0  3  0  0  0  0  0  0
  -26.1140  -26.9650   19.5980 C   0  0  0  0  0  3  0  0  0  0  0  0
  -24.9110  -27.6940   19.5900 C   0  0  0  0  0  3  0  0  0  0  0  0
  -23.6240  -29.8190   20.2220 C   0  0  0  0  0  2  0  0  0  0  0  0
  -24.6300  -31.0770   22.1730 N   0  0  0  0  0  0  0  0  0  0  0  0
  -23.4600  -32.1420   23.7930 O   0  0  0  0  0  0  0  0  0  0  0  0
  -22.7220  -29.4400   22.5430 C   0  0  0  0  0  0  0  0  0  0  0  0
  -21.3960  -29.2620   22.3970 N   0  0  0  0  0  0  0  0  0  0  0  0
  -23.3950  -28.8040   23.3580 O   0  0  0  0  0  0  0  0  0  0  0  0
  -20.9140  -29.8270   21.7100 H   0  0  0  0  0  0  0  0  0  0  0  0
  -18.0120  -28.1000   22.8680 C   0  0  0  0  0  0  0  0  0  0  0  0
  -20.5720  -28.3250   23.1540 C   0  0  0  0  0  3  0  0  0  0  0  0
  -20.6620  -26.9010   22.5580 C   0  0  0  0  0  2  0  0  0  0  0  0
  -19.5600  -26.6040   21.5380 C   0  0  0  0  0  2  0  0  0  0  0  0
  -18.1770  -26.7590   22.1780 C   0  0  0  0  0  2  0  0  0  0  0  0
  -19.1360  -28.8440   23.3150 C   0  0  0  0  0  0  0  0  0  0  0  0
  -18.9270  -30.1050   23.9210 C   0  0  0  0  0  3  0  0  0  0  0  0
  -17.6270  -30.6170   24.0900 C   0  0  0  0  0  3  0  0  0  0  0  0
  -16.5170  -29.8690   23.6570 C   0  0  0  0  0  3  0  0  0  0  0  0
  -16.7110  -28.6140   23.0510 C   0  0  0  0  0  3  0  0  0  0  0  0
  -25.8260  -32.5130   23.9110 C   0  0  0  0  0  3  0  0  0  0  0  0
  -25.5150  -33.9110   24.2140 N   0  0  0  0  0  0  0  0  0  0  0  0
  -25.8680  -34.9540   23.4460 C   0  0  0  0  0  0  0  0  0  0  0  0
  -26.5580  -34.8320   22.4300 O   0  0  0  0  0  0  0  0  0  0  0  0
  -24.9170  -34.0820   25.0080 H   0  0  0  0  0  0  0  0  0  0  0  0
  -24.1660  -36.7540   23.0060 C   0  0  0  0  0  1  0  0  0  0  0  0
  -25.3710  -36.3450   23.8700 C   0  0  0  0  0  3  0  0  0  0  0  0
  -27.4750  -37.2330   24.7810 C   0  0  0  0  0  1  0  0  0  0  0  0
  -26.4100  -37.3960   23.7940 N   0  0  0  0  0  0  0  0  0  0  0  0
  -25.9990  -38.3140   23.9300 H   0  0  0  0  0  0  0  0  0  0  0  0
  -26.3230  -31.7460   25.1960 C   0  0  1  0  0  0  0  0  0  0  0  0
  -25.2110  -31.5190   26.2500 C   0  0  0  0  0  1  0  0  0  0  0  0
  -26.9090  -30.3640   24.8140 C   0  0  0  0  0  1  0  0  0  0  0  0
  -27.4580  -32.5480   25.8760 C   0  0  0  0  0  1  0  0  0  0  0  0
  1  2  1  0
  2  8  1  0
  4  3  1  0
  5  3  1  0
  6  4  1  0
  7 10  1  0
  7  5  1  0
  8  7  1  0
  8  6  1  0
  9  2  2  0
 11 10  1  0
 11 18  1  0
 12 10  2  0
 13 11  1  0
 14 15  1  0
 15 17  2  0
 16 14  2  0
 16 18  1  0
 18 19  2  0
 19 17  1  0
 19 28  1  0
 20 28  1  0
 21 26  1  0
 22 23  1  0
 22 21  1  0
 24 23  1  0
 24 33  1  0
 24 25  1  0
 26 20  1  0
 26 25  1  0
 27 20  2  0
 28 29  1  0
 30 31  2  0
 31 50  1  0
 32 31  1  0
 32 35  1  0
 33 30  1  0
 33 34  1  0
 34 32  2  0
 35 36  1  0
 36 37  2  0
 38 41  1  0
 38 37  1  0
 39 38  2  0
 40 39  1  0
 40 35  2  0
 41 42  1  0
 42 43  1  0
 43 44  2  0
 45 44  1  0
 45 49  1  0
 46 45  2  0
 47 42  2  0
 47 46  1  0
 48 47  1  0
 50 51  1  0
 51 54  1  0
 51 53  1  0
 52 50  2  0
 55 56  1  0
 55 30  1  0
 57 55  1  0
 59 58  1  0
 59 61  1  0
 60 58  1  0
 60 62  1  0
 62 61  1  0
 62  1  1  0
 63 64  1  0
 64  1  1  0
 64 66  1  0
 65 63  2  0
 67 63  1  0
 67 69  1  0
 68 70  2  0
 68 72  1  0
 69 68  1  0
 71 69  1  0
 72 73  1  0
 73 76  1  0
 73 75  1  0
 74 73  1  0
 77 76  1  0
 78 77  1  0
 79 90  2  0
 80 78  1  0
 80 85  1  0
 81 89  1  0
 81 91  1  0
 82 88  1  0
 82 84  1  0
 83 89  1  0
 84 85  2  0
 84 83  1  0
 86 80  2  0
 87 86  1  0
 87 82  2  0
 88 81  1  0
 89 79  1  0
 91 93  2  0
 92 91  1  0
 94 92  1  0
 95104  2  0
 95100  1  0
 96 92  1  0
 96100  1  0
 97 96  1  0
 98 99  1  0
 98 97  1  0
 99 95  1  0
100101  2  0
101102  1  0
103102  2  0
104103  1  0
105 79  1  0
105106  1  0
105115  1  0
106109  1  0
107111  1  0
107106  1  0
108107  2  0
111110  1  0
113111  1  0
113114  1  0
113112  1  0
115118  1  1
115116  1  0
117115  1  0
M  ISO  4  20 100  28 100  77 101  78 101
M  END
>  <TORSDO>  (47) 
F 27

>  <SCORE>  (47) 
-12.535

>  <name>  (47) 
47

>  <ligand_id>  (47) 
47

>  <original_smiles>  (47) 
[H]c1c([H])c([H])c(N([H])C(=O)C2([H])N(C(=O)C([H])(N([H])C(=O)C([H])([H])N([H])C(=O)C([H])([H])[N+]([H])([H])C([H])([H])C([H])([H])Oc3c([H])c([H])c4c(c3[H])C([H])([H])N(C(=O)C([H])(N([H])C(=O)C([H])(N([H])C([H])([H])[H])C([H])([H])[H])C(C([H])([H])[H])(C([H])([H])[H])C([H])([H])[H])C([H])(C(=O)N([H])C3([H])c5c([H])c([H])c([H])c([H])c5C([H])([H])C([H])([H])C3([H])[H])C4([H])[H])C3([H])C([H])([H])C([H])([H])C([H])([H])C3([H])[H])C([H])([H])C([H])([H])C([H])([H])C2([H])[H])c(N([H])C(=O)N2C([H])([H])C([H])([H])C([H])([H])C([H])(n3nc(-c4c([H])c([H])c(Oc5c([H])c([H])c(F)c([H])c5F)c([H])c4[H])c(C(=O)N([H])[H])c3N([H])[H])C2([H])[H])c1[H]

>  <smiles>  (47) 
[H]c1c([H])c([H])c(N([H])C(=O)C2([H])N(C(=O)C([H])(N([H])C(=O)C([H])([H])N([H])C(=O)C([H])([H])[N+]([H])([H])C([H])([H])C([H])([H])Oc3c([H])c([H])c4c(c3[H])C([H])([H])N(C(=O)C([H])(N([H])C(=O)C([H])(N([H])C([H])([H])[H])C([H])([H])[H])C(C([H])([H])[H])(C([H])([H])[H])C([H])([H])[H])C([H])(C(=O)N([H])C3([H])c5c([H])c([H])c([H])c([H])c5C([H])([H])C([H])([H])C3([H])[H])C4([H])[H])C3([H])C([H])([H])C([H])([H])C([H])([H])C3([H])[H])C([H])([H])C([H])([H])C([H])([H])C2([H])[H])c(N([H])C(=O)N2C([H])([H])C([H])([H])C([H])([H])C([H])(n3nc(-c4c([H])c([H])c(Oc5c([H])c([H])c(F)c([H])c5F)c([H])c4[H])c(C(=O)N([H])[H])c3N([H])[H])C2([H])[H])c1[H]

$$$$
48:0:0
     RDKit          3D

116124  0  0  1  0  0  0  0  0999 V2000
  -23.2790  -28.8260   25.4110 C   0  0  0  0  0  0  0  0  0  0  0  0
  -22.5410  -30.0160   25.0190 N   0  0  0  0  0  0  0  0  0  0  0  0
  -22.6570  -27.8900   25.9130 O   0  0  0  0  0  0  0  0  0  0  0  0
  -23.1740  -30.7770   24.8460 H   0  0  0  0  0  0  0  0  0  0  0  0
  -24.9450  -28.5590   25.1630 C   0  0  0  0  0  3  0  0  0  0  0  0
  -27.0330  -27.4530   23.6410 C   0  0  0  0  0  0  0  0  0  0  0  0
  -25.7500  -27.4440   24.3110 N   0  0  0  0  0  0  0  0  0  0  0  0
  -27.5980  -28.5410   23.5560 O   0  0  0  0  0  0  0  0  0  0  0  0
  -25.2910  -26.5440   24.3130 H   0  0  0  0  0  0  0  0  0  0  0  0
  -28.8760  -25.8720   24.3600 C   0  0  0  0  0  1  0  0  0  0  0  0
  -27.0520  -24.9440   22.9320 C   0  0  0  0  0  1  0  0  0  0  0  0
  -27.9920  -26.1500   23.1140 C   0  0  1  0  0  0  0  0  0  0  0  0
  -28.9750  -26.1760   21.8220 N   0  0  0  0  0  4  0  0  0  0  0  0
  -28.4750  -25.6780   21.1040 H   0  0  0  0  0  0  0  0  0  0  0  0
  -29.0140  -27.1350   21.5150 H   0  0  0  0  0  0  0  0  0  0  0  0
  -30.4930  -25.6220   21.8070 C   0  0  0  0  0  2  0  0  0  0  0  0
  -32.4780  -24.0540   20.7640 C   0  0  0  0  0  3  0  0  0  0  0  0
  -32.1930  -25.9920   19.5100 C   0  0  0  0  0  3  0  0  0  0  0  0
  -33.6330  -23.6830   19.9520 C   0  0  0  0  0  3  0  0  0  0  0  0
  -33.3660  -25.6160   18.6830 C   0  0  0  0  0  3  0  0  0  0  0  0
  -31.6530  -25.2310   20.6240 C   0  0  0  0  0  0  0  0  0  0  0  0
  -34.1960  -24.4330   18.8620 C   0  0  0  0  0  0  0  0  0  0  0  0
  -36.6290  -23.9620   17.3880 C   0  0  0  0  0  0  0  0  0  0  0  0
  -38.1060  -23.0980   15.4420 C   0  0  0  0  0  2  0  0  0  0  0  0
  -37.4400  -23.3390   14.0580 C   0  0  0  0  0  2  0  0  0  0  0  0
  -36.3460  -22.2930   13.7580 C   0  0  0  0  0  2  0  0  0  0  0  0
  -35.4430  -22.0400   14.9920 C   0  0  0  0  0  3  0  0  0  0  0  0
  -36.2990  -21.7480   16.2350 C   0  0  0  0  0  2  0  0  0  0  0  0
  -37.0500  -22.9720   16.4970 N   0  0  0  0  0  0  0  0  0  0  0  0
  -37.4200  -24.9090   17.5580 O   0  0  0  0  0  0  0  0  0  0  0  0
  -35.3010  -23.8120   17.9440 N   0  0  0  0  0  0  0  0  0  0  0  0
  -35.0050  -22.8910   17.6540 H   0  0  0  0  0  0  0  0  0  0  0  0
  -33.1090  -21.0040   15.0330 C   0  0  0  0  0  0  0  0  0  0  0  0
  -32.6390  -19.7920   14.6140 C   0  0  0  0  0  0  0  0  0  0  0  0
  -33.7730  -19.0800   14.1150 C   0  0  0  0  0  0  0  0  0  0  0  0
  -34.4680  -20.9880   14.7750 N   0  0  0  0  0  0  0  0  0  0  0  0
  -34.8770  -19.7980   14.2730 N   0  0  0  0  0  0  0  0  0  0  0  0
  -33.8660  -17.7850   13.4360 C   0  0  0  0  0  0  0  0  0  0  0  0
  -34.7810  -16.7950   13.8550 C   0  0  0  0  0  3  0  0  0  0  0  0
  -34.8370  -15.5490   13.1940 C   0  0  0  0  0  3  0  0  0  0  0  0
  -33.9700  -15.2840   12.1080 C   0  0  0  0  0  0  0  0  0  0  0  0
  -33.0750  -16.2810   11.6820 C   0  0  0  0  0  3  0  0  0  0  0  0
  -33.0240  -17.5210   12.3370 C   0  0  0  0  0  3  0  0  0  0  0  0
  -33.9700  -14.1120   11.3920 O   0  0  0  0  0  0  0  0  0  0  0  0
  -34.4160  -12.9340   11.9370 C   0  0  0  0  0  0  0  0  0  0  0  0
  -33.8830  -12.4210   13.1390 C   0  0  0  0  0  3  0  0  0  0  0  0
  -34.3220  -11.1740   13.6280 C   0  0  0  0  0  3  0  0  0  0  0  0
  -35.2840  -10.4360   12.9110 C   0  0  0  0  0  0  0  0  0  0  0  0
  -35.8110  -10.9440   11.7110 C   0  0  0  0  0  3  0  0  0  0  0  0
  -35.3760  -12.1890   11.2240 C   0  0  0  0  0  0  0  0  0  0  0  0
  -35.8710  -12.6650   10.0560 F   0  0  0  0  0  0  0  0  0  0  0  0
  -35.7010   -9.2350   13.3740 F   0  0  0  0  0  0  0  0  0  0  0  0
  -31.2040  -19.3530   14.5900 C   0  0  0  0  0  0  0  0  0  0  0  0
  -30.9560  -18.0570   14.7330 N   0  0  0  0  0  0  0  0  0  0  0  0
  -30.2890  -20.1700   14.4890 O   0  0  0  0  0  0  0  0  0  0  0  0
  -31.7060  -17.3910   14.8360 H   0  0  0  0  0  0  0  0  0  0  0  0
  -30.0020  -17.7280   14.7410 H   0  0  0  0  0  0  0  0  0  0  0  0
  -32.4960  -22.1210   15.5940 N   0  0  0  0  0  0  0  0  0  0  0  0
  -31.4930  -22.1620   15.7360 H   0  0  0  0  0  0  0  0  0  0  0  0
  -32.9620  -22.9910   15.8190 H   0  0  0  0  0  0  0  0  0  0  0  0
  -21.0330  -30.4740   24.5370 C   0  0  0  0  0  2  0  0  0  0  0  0
  -20.2220  -31.1200   23.0260 C   0  0  0  0  0  0  0  0  0  0  0  0
  -20.5900  -31.3370   21.5760 N   0  0  0  0  0  0  0  0  0  0  0  0
  -19.0460  -31.4060   23.2320 O   0  0  0  0  0  0  0  0  0  0  0  0
  -19.7190  -31.6430   21.1610 H   0  0  0  0  0  0  0  0  0  0  0  0
  -21.7150  -31.4670   20.3200 C   0  0  0  0  0  2  0  0  0  0  0  0
  -22.1950  -30.5740   18.8840 C   0  0  0  0  0  0  0  0  0  0  0  0
  -23.4450  -29.9000   18.5080 N   0  0  0  0  0  0  0  0  0  0  0  0
  -21.3010  -30.5020   18.0380 O   0  0  0  0  0  0  0  0  0  0  0  0
  -24.2280  -30.3630   18.9410 H   0  0  0  0  0  0  0  0  0  0  0  0
  -24.2990  -26.3220   20.0170 C   0  0  0  0  0  2  0  0  0  0  0  0
  -24.0320  -28.2480   18.3910 N   0  0  0  0  0  2  0  0  0  0  0  0
  -23.6790  -25.9410   21.0360 O   0  0  0  0  0  1  0  0  0  0  0  0
  -24.6500  -28.2130   17.5940 H   0  0  0  0  0  0  0  0  0  0  0  0
  -25.5080  -25.2990   19.8020 C   0  0  0  0  0  2  0  0  0  0  0  0
  -26.4470  -25.7680   18.8420 O   0  0  0  0  0  0  0  0  0  0  0  0
  -23.4360  -30.9160   22.9440 C   0  0  0  0  0  0  0  0  0  0  0  0
  -25.7470  -26.7970   18.3800 C   0  0  0  0  0  0  0  0  0  0  0  0
  -21.9010  -29.0080   21.7430 C   0  0  0  0  0  3  0  0  0  0  0  0
  -22.5170  -27.8870   19.9800 C   0  0  0  0  0  0  0  0  0  0  0  0
  -24.3320  -29.8100   21.2550 C   0  0  0  0  0  2  0  0  0  0  0  0
  -24.2300  -28.5930   20.6050 C   0  0  0  0  0  0  0  0  0  0  0  0
  -25.8350  -28.0910   19.7710 C   0  0  0  0  0  3  0  0  0  0  0  0
  -24.0690  -26.1260   17.6930 C   0  0  0  0  0  3  0  0  0  0  0  0
  -22.4610  -26.6570   18.5480 C   0  0  0  0  0  3  0  0  0  0  0  0
  -21.3340  -28.4830   20.4300 C   0  0  0  0  0  2  0  0  0  0  0  0
  -23.2000  -29.8600   22.0770 N   0  0  0  0  0  0  0  0  0  0  0  0
  -22.5950  -31.4990   23.5700 O   0  0  0  0  0  0  0  0  0  0  0  0
  -21.2500  -27.9190   22.4980 C   0  0  0  0  0  0  0  0  0  0  0  0
  -19.8970  -27.9390   22.6260 N   0  0  0  0  0  0  0  0  0  0  0  0
  -21.9640  -27.0550   22.9130 O   0  0  0  0  0  0  0  0  0  0  0  0
  -19.3470  -28.6100   22.1080 H   0  0  0  0  0  0  0  0  0  0  0  0
  -16.6320  -26.7900   23.5230 C   0  0  0  0  0  0  0  0  0  0  0  0
  -19.1650  -27.1010   23.5280 C   0  0  0  0  0  3  0  0  0  0  0  0
  -19.2530  -25.6480   23.0210 C   0  0  0  0  0  2  0  0  0  0  0  0
  -18.1120  -25.3190   22.0760 C   0  0  0  0  0  2  0  0  0  0  0  0
  -16.7950  -25.4440   22.8370 C   0  0  0  0  0  2  0  0  0  0  0  0
  -17.7390  -27.6230   23.8010 C   0  0  0  0  0  0  0  0  0  0  0  0
  -17.4530  -28.9070   24.3510 C   0  0  0  0  0  3  0  0  0  0  0  0
  -16.1620  -29.3350   24.6520 C   0  0  0  0  0  3  0  0  0  0  0  0
  -15.0900  -28.4750   24.4210 C   0  0  0  0  0  3  0  0  0  0  0  0
  -15.3310  -27.2090   23.8640 C   0  0  0  0  0  3  0  0  0  0  0  0
  -24.8010  -31.5600   23.2740 C   0  0  0  0  0  3  0  0  0  0  0  0
  -25.4640  -30.8060   24.4830 C   0  0  1  0  0  0  0  0  0  0  0  0
  -24.5660  -30.6370   25.7440 C   0  0  0  0  0  1  0  0  0  0  0  0
  -26.0060  -29.4150   24.0840 C   0  0  0  0  0  2  0  0  0  0  0  0
  -26.7040  -31.6070   24.9010 C   0  0  0  0  0  1  0  0  0  0  0  0
  -24.5490  -32.9670   23.6530 N   0  0  0  0  0  0  0  0  0  0  0  0
  -24.5190  -34.0020   22.8080 C   0  0  0  0  0  0  0  0  0  0  0  0
  -24.8860  -33.8990   21.6360 O   0  0  0  0  0  0  0  0  0  0  0  0
  -24.2040  -33.1110   24.5910 H   0  0  0  0  0  0  0  0  0  0  0  0
  -22.6610  -35.7110   22.8040 C   0  0  0  0  0  1  0  0  0  0  0  0
  -24.0520  -35.3620   23.3590 C   0  0  0  0  0  3  0  0  0  0  0  0
  -26.2780  -36.3080   23.7620 C   0  0  0  0  0  1  0  0  0  0  0  0
  -25.0020  -36.4550   23.0670 N   0  0  0  0  0  0  0  0  0  0  0  0
  -24.6080  -37.3560   23.3200 H   0  0  0  0  0  0  0  0  0  0  0  0
  1  3  2  0
  2  1  1  0
  4  2  1  0
  5106  1  0
  5  1  1  0
  6  7  1  0
  7  9  1  0
  7  5  1  0
  8  6  2  0
 12 11  1  6
 12  6  1  0
 12 10  1  0
 13 12  1  0
 14 13  1  0
 15 13  1  0
 16 13  1  0
 18 21  2  0
 19 17  2  0
 20 22  2  0
 20 18  1  0
 21 17  1  0
 21 16  1  0
 22 19  1  0
 23 30  2  0
 23 31  1  0
 24 29  1  0
 25 24  1  0
 26 25  1  0
 27 26  1  0
 27 28  1  0
 28 29  1  0
 29 23  1  0
 31 22  1  0
 32 31  1  0
 33 58  1  0
 34 33  2  0
 35 37  2  0
 35 34  1  0
 36 27  1  0
 36 33  1  0
 37 36  1  0
 38 39  1  0
 38 35  1  0
 40 39  2  0
 41 40  1  0
 42 41  2  0
 42 43  1  0
 43 38  2  0
 44 45  1  0
 44 41  1  0
 45 46  1  0
 46 47  2  0
 48 52  1  0
 48 47  1  0
 49 48  2  0
 50 49  1  0
 50 45  2  0
 51 50  1  0
 53 34  1  0
 53 54  1  0
 54 57  1  0
 54 56  1  0
 55 53  2  0
 58 59  1  0
 58 60  1  0
 61  2  1  0
 62 64  2  0
 62 61  1  0
 63 62  1  0
 65 63  1  0
 66 63  1  0
 67 66  1  0
 68 67  1  0
 68 70  1  0
 69 67  2  0
 71 73  1  0
 72 68  1  0
 74 72  1  0
 75 71  1  0
 76 75  1  0
 77 88  2  0
 78 76  1  0
 78 83  1  0
 79 87  1  0
 79 89  1  0
 80 86  1  0
 80 82  1  0
 81 87  1  0
 82 81  1  0
 83 82  2  0
 84 78  2  0
 84 85  1  0
 85 80  2  0
 86 79  1  0
 87 77  1  0
 89 90  1  0
 89 91  2  0
 92 90  1  0
 93 98  2  0
 93102  1  0
 94 90  1  0
 94 98  1  0
 95 94  1  0
 96 97  1  0
 96 95  1  0
 97 93  1  0
 98 99  1  0
 99100  2  0
101100  1  0
102101  2  0
103 77  1  0
103108  1  0
103104  1  0
104107  1  1
104105  1  0
106104  1  0
108111  1  0
109113  1  0
109108  1  0
110109  2  0
113112  1  0
115116  1  0
115113  1  0
115114  1  0
M  ISO  4  23 100  31 100  75 101  76 101
M  END
>  <TORSDO>  (48) 
F 28

>  <SCORE>  (48) 
25.524

>  <name>  (48) 
48

>  <ligand_id>  (48) 
48

>  <original_smiles>  (48) 
[H]c1c([H])c([H])c2c(c1[H])C([H])([H])C([H])([H])C([H])([H])C2([H])N([H])C(=O)C1([H])N(C(=O)C([H])(N([H])C(=O)C([H])(N([H])C([H])([H])[H])C([H])([H])[H])C(C([H])([H])[H])(C([H])([H])[H])C([H])([H])[H])C([H])([H])c2c([H])c(OC([H])([H])C(=O)N([H])N([H])C(=O)C([H])([H])N([H])C(=O)C([H])([H])N([H])C(=O)C([H])([H])N([H])C(=O)C(C([H])([H])[H])(C([H])([H])[H])[N+]([H])([H])C([H])([H])c3c([H])c([H])c(N([H])C(=O)N4C([H])([H])C([H])([H])C([H])([H])C([H])(n5nc(-c6c([H])c([H])c(Oc7c([H])c([H])c(F)c([H])c7F)c([H])c6[H])c(C(=O)N([H])[H])c5N([H])[H])C4([H])[H])c([H])c3[H])c([H])c([H])c2C1([H])[H]

>  <smiles>  (48) 
[H]c1c([H])c([H])c2c(c1[H])C([H])([H])C([H])([H])C([H])([H])C2([H])N([H])C(=O)C1([H])N(C(=O)C([H])(N([H])C(=O)C([H])(N([H])C([H])([H])[H])C([H])([H])[H])C(C([H])([H])[H])(C([H])([H])[H])C([H])([H])[H])C([H])([H])c2c([H])c(OC([H])([H])C(=O)N([H])N([H])C(=O)C([H])([H])N([H])C(=O)C([H])([H])N([H])C(=O)C([H])([H])N([H])C(=O)C(C([H])([H])[H])(C([H])([H])[H])[N+]([H])([H])C([H])([H])c3c([H])c([H])c(N([H])C(=O)N4C([H])([H])C([H])([H])C([H])([H])C([H])(n5nc(-c6c([H])c([H])c(Oc7c([H])c([H])c(F)c([H])c7F)c([H])c6[H])c(C(=O)N([H])[H])c5N([H])[H])C4([H])[H])c([H])c3[H])c([H])c([H])c2C1([H])[H]

$$$$
49:0:0
     RDKit          3D

 95103  0  0  1  0  0  0  0  0999 V2000
  -28.0340  -22.1730   20.1730 C   0  0  0  0  0  0  0  0  0  0  0  0
  -28.2650  -20.8650   20.3910 N   0  0  0  0  0  0  0  0  0  0  0  0
  -29.0860  -23.0010   20.2110 N   0  0  0  0  0  0  0  0  0  0  0  0
  -26.9050  -22.5750   19.9080 O   0  0  0  0  0  0  0  0  0  0  0  0
  -27.4290  -20.3000   20.3090 H   0  0  0  0  0  0  0  0  0  0  0  0
  -29.9800  -22.6030   20.4510 H   0  0  0  0  0  0  0  0  0  0  0  0
  -29.4690  -20.1200   20.8120 C   0  0  0  0  0  2  0  0  0  0  0  0
  -31.2450  -17.9180   17.4760 C   0  0  0  0  0  3  0  0  0  0  0  0
  -31.0860  -19.3120   17.4370 C   0  0  0  0  0  3  0  0  0  0  0  0
  -30.8470  -17.2040   18.6170 C   0  0  0  0  0  3  0  0  0  0  0  0
  -30.4990  -19.9750   18.5280 C   0  0  0  0  0  3  0  0  0  0  0  0
  -30.3040  -17.8520   19.7550 C   0  0  0  0  0  0  0  0  0  0  0  0
  -30.0980  -19.2750   19.6890 C   0  0  0  0  0  0  0  0  0  0  0  0
  -29.9940  -17.0150   21.0190 C   0  0  0  0  0  2  0  0  0  0  0  0
  -30.6880  -14.5470   20.6630 C   0  0  0  0  0  0  0  0  0  0  0  0
  -30.5060  -12.3830   19.4980 C   0  0  0  0  0  2  0  0  0  0  0  0
  -29.5950  -12.5810   18.2670 C   0  0  0  0  0  2  0  0  0  0  0  0
  -28.1030  -12.4430   18.6410 C   0  0  0  0  0  2  0  0  0  0  0  0
  -27.7180  -13.2780   19.8930 C   0  0  0  0  0  3  0  0  0  0  0  0
  -28.7310  -13.0280   21.0340 C   0  0  0  0  0  2  0  0  0  0  0  0
  -30.0730  -13.3460   20.5190 N   0  0  0  0  0  0  0  0  0  0  0  0
  -31.8770  -14.7390   20.3920 O   0  0  0  0  0  0  0  0  0  0  0  0
  -29.8150  -15.5550   20.8850 N   0  0  0  0  0  0  0  0  0  0  0  0
  -28.8640  -15.2350   20.9910 H   0  0  0  0  0  0  0  0  0  0  0  0
  -25.2980  -13.9150   20.4970 C   0  0  0  0  0  0  0  0  0  0  0  0
  -24.2140  -13.1550   20.8440 C   0  0  0  0  0  0  0  0  0  0  0  0
  -24.6710  -11.8000   20.8600 C   0  0  0  0  0  0  0  0  0  0  0  0
  -26.3470  -13.0250   20.3250 N   0  0  0  0  0  0  0  0  0  0  0  0
  -25.9710  -11.7500   20.6000 N   0  0  0  0  0  0  0  0  0  0  0  0
  -23.9370  -10.5450   21.0480 C   0  0  0  0  0  0  0  0  0  0  0  0
  -24.3430   -9.5860   22.0020 C   0  0  0  0  0  3  0  0  0  0  0  0
  -23.6110   -8.3910   22.1760 C   0  0  0  0  0  3  0  0  0  0  0  0
  -22.4560   -8.1480   21.3940 C   0  0  0  0  0  0  0  0  0  0  0  0
  -22.0680   -9.0950   20.4290 C   0  0  0  0  0  3  0  0  0  0  0  0
  -22.8020  -10.2800   20.2550 C   0  0  0  0  0  3  0  0  0  0  0  0
  -21.7020   -7.0020   21.4730 O   0  0  0  0  0  0  0  0  0  0  0  0
  -21.6320   -6.2620   22.6250 C   0  0  0  0  0  0  0  0  0  0  0  0
  -21.2060   -6.8240   23.8480 C   0  0  0  0  0  3  0  0  0  0  0  0
  -21.0830   -6.0120   24.9920 C   0  0  0  0  0  3  0  0  0  0  0  0
  -21.3800   -4.6380   24.9150 C   0  0  0  0  0  0  0  0  0  0  0  0
  -21.8010   -4.0740   23.6970 C   0  0  0  0  0  3  0  0  0  0  0  0
  -21.9240   -4.8850   22.5550 C   0  0  0  0  0  0  0  0  0  0  0  0
  -22.3070   -4.3330   21.3810 F   0  0  0  0  0  0  0  0  0  0  0  0
  -21.2530   -3.8550   26.0140 F   0  0  0  0  0  0  0  0  0  0  0  0
  -22.8070  -13.6380   21.0500 C   0  0  0  0  0  0  0  0  0  0  0  0
  -22.0380  -12.9640   21.8990 N   0  0  0  0  0  0  0  0  0  0  0  0
  -22.3930  -14.6530   20.4880 O   0  0  0  0  0  0  0  0  0  0  0  0
  -22.3780  -12.1440   22.3800 H   0  0  0  0  0  0  0  0  0  0  0  0
  -21.0930  -13.2790   22.0710 H   0  0  0  0  0  0  0  0  0  0  0  0
  -25.4760  -15.2810   20.2920 N   0  0  0  0  0  0  0  0  0  0  0  0
  -24.7020  -15.9360   20.3450 H   0  0  0  0  0  0  0  0  0  0  0  0
  -26.3260  -15.7040   19.9410 H   0  0  0  0  0  0  0  0  0  0  0  0
  -29.0810  -24.4010   19.7280 C   0  0  0  0  0  2  0  0  0  0  0  0
  -28.3580  -25.4190   20.6510 C   0  0  0  0  0  2  0  0  0  0  0  0
  -28.3600  -26.7450   20.0920 O   0  0  0  0  0  0  0  0  0  0  0  0
  -24.5170  -31.8870   23.2120 C   0  0  0  0  0  0  0  0  0  0  0  0
  -27.1730  -27.4500   20.1290 C   0  0  0  0  0  0  0  0  0  0  0  0
  -23.3090  -30.4770   21.5780 C   0  0  0  0  0  3  0  0  0  0  0  0
  -24.7650  -28.9400   20.1560 C   0  0  0  0  0  0  0  0  0  0  0  0
  -25.8310  -30.8570   21.3520 C   0  0  0  0  0  2  0  0  0  0  0  0
  -25.9270  -29.4810   20.7170 C   0  0  0  0  0  0  0  0  0  0  0  0
  -27.1370  -28.7510   20.6850 C   0  0  0  0  0  3  0  0  0  0  0  0
  -25.9910  -26.9150   19.5730 C   0  0  0  0  0  3  0  0  0  0  0  0
  -24.7900  -27.6570   19.5810 C   0  0  0  0  0  3  0  0  0  0  0  0
  -23.5130  -29.7880   20.2040 C   0  0  0  0  0  2  0  0  0  0  0  0
  -24.5720  -31.0880   22.1090 N   0  0  0  0  0  0  0  0  0  0  0  0
  -23.4380  -32.1570   23.7580 O   0  0  0  0  0  0  0  0  0  0  0  0
  -22.6660  -29.4580   22.5470 C   0  0  0  0  0  0  0  0  0  0  0  0
  -21.3400  -29.2760   22.4300 N   0  0  0  0  0  0  0  0  0  0  0  0
  -23.3560  -28.8310   23.3540 O   0  0  0  0  0  0  0  0  0  0  0  0
  -20.8460  -29.8270   21.7410 H   0  0  0  0  0  0  0  0  0  0  0  0
  -17.9680  -28.0850   22.9510 C   0  0  0  0  0  0  0  0  0  0  0  0
  -20.5290  -28.3380   23.2040 C   0  0  0  0  0  3  0  0  0  0  0  0
  -20.6240  -26.9090   22.6220 C   0  0  0  0  0  2  0  0  0  0  0  0
  -19.5140  -26.5920   21.6160 C   0  0  0  0  0  2  0  0  0  0  0  0
  -18.1370  -26.7370   22.2700 C   0  0  0  0  0  2  0  0  0  0  0  0
  -19.0910  -28.8450   23.3750 C   0  0  0  0  0  0  0  0  0  0  0  0
  -18.8780  -30.1080   23.9680 C   0  0  0  0  0  3  0  0  0  0  0  0
  -17.5740  -30.6110   24.1420 C   0  0  0  0  0  3  0  0  0  0  0  0
  -16.4660  -29.8460   23.7380 C   0  0  0  0  0  3  0  0  0  0  0  0
  -16.6640  -28.5850   23.1480 C   0  0  0  0  0  3  0  0  0  0  0  0
  -25.8010  -32.5250   23.8270 C   0  0  0  0  0  3  0  0  0  0  0  0
  -25.4880  -33.9200   24.1660 N   0  0  0  0  0  0  0  0  0  0  0  0
  -25.8140  -34.9780   23.4120 C   0  0  0  0  0  0  0  0  0  0  0  0
  -26.4830  -34.8830   22.3780 O   0  0  0  0  0  0  0  0  0  0  0  0
  -24.8900  -34.0680   24.9670 H   0  0  0  0  0  0  0  0  0  0  0  0
  -24.0810  -36.7660   23.0650 C   0  0  0  0  0  1  0  0  0  0  0  0
  -25.3210  -36.3600   23.8760 C   0  0  0  0  0  3  0  0  0  0  0  0
  -27.4560  -37.2430   24.7110 C   0  0  0  0  0  1  0  0  0  0  0  0
  -26.3500  -37.4170   23.7720 N   0  0  0  0  0  0  0  0  0  0  0  0
  -25.9420  -38.3330   23.9320 H   0  0  0  0  0  0  0  0  0  0  0  0
  -26.3360  -31.7510   25.0930 C   0  0  1  0  0  0  0  0  0  0  0  0
  -25.2560  -31.4960   26.1710 C   0  0  0  0  0  1  0  0  0  0  0  0
  -26.9210  -30.3820   24.6800 C   0  0  0  0  0  1  0  0  0  0  0  0
  -27.4930  -32.5450   25.7460 C   0  0  0  0  0  1  0  0  0  0  0  0
  1  3  1  0
  1  2  1  0
  2  7  1  0
  3  6  1  0
  4  1  2  0
  5  2  1  0
  8 10  1  0
  9  8  2  0
  9 11  1  0
 10 12  2  0
 11 13  2  0
 12 14  1  0
 13 12  1  0
 13  7  1  0
 15 23  1  0
 16 21  1  0
 17 18  1  0
 17 16  1  0
 19 18  1  0
 19 28  1  0
 19 20  1  0
 21 15  1  0
 21 20  1  0
 22 15  2  0
 23 24  1  0
 23 14  1  0
 25 26  2  0
 26 27  1  0
 26 45  1  0
 27 30  1  0
 28 25  1  0
 28 29  1  0
 29 27  2  0
 30 31  1  0
 31 32  2  0
 33 36  1  0
 33 32  1  0
 34 33  2  0
 35 34  1  0
 35 30  2  0
 36 37  1  0
 37 38  1  0
 38 39  2  0
 40 39  1  0
 40 44  1  0
 41 40  2  0
 42 37  2  0
 42 41  1  0
 43 42  1  0
 45 46  1  0
 46 49  1  0
 46 48  1  0
 47 45  2  0
 50 51  1  0
 50 25  1  0
 52 50  1  0
 53  3  1  0
 53 54  1  0
 55 57  1  0
 55 54  1  0
 56 67  2  0
 57 62  1  0
 58 66  1  0
 58 68  1  0
 59 65  1  0
 59 61  1  0
 60 66  1  0
 61 60  1  0
 62 61  2  0
 63 64  1  0
 63 57  2  0
 64 59  2  0
 65 58  1  0
 66 56  1  0
 68 70  2  0
 69 68  1  0
 71 69  1  0
 72 81  2  0
 72 77  1  0
 73 69  1  0
 73 77  1  0
 74 73  1  0
 75 76  1  0
 75 74  1  0
 76 72  1  0
 77 78  2  0
 78 79  1  0
 80 79  2  0
 81 80  1  0
 82 56  1  0
 82 83  1  0
 82 92  1  0
 83 86  1  0
 84 88  1  0
 84 83  1  0
 85 84  2  0
 88 87  1  0
 90 88  1  0
 90 91  1  0
 90 89  1  0
 92 95  1  1
 92 93  1  0
 94 92  1  0
M  ISO  4  15 100  23 100  54 101  55 101
M  END
>  <TORSDO>  (49) 
F 21

>  <SCORE>  (49) 
-13.750

>  <name>  (49) 
49

>  <ligand_id>  (49) 
49

>  <original_smiles>  (49) 
[H]c1c([H])c([H])c(C([H])([H])N([H])C(=O)N2C([H])([H])C([H])([H])C([H])([H])C([H])(n3nc(-c4c([H])c([H])c(Oc5c([H])c([H])c(F)c([H])c5F)c([H])c4[H])c(C(=O)N([H])[H])c3N([H])[H])C2([H])[H])c(C([H])([H])N([H])C(=O)N([H])C([H])([H])C([H])([H])Oc2c([H])c([H])c3c(c2[H])C([H])([H])N(C(=O)C([H])(N([H])C(=O)C([H])(N([H])C([H])([H])[H])C([H])([H])[H])C(C([H])([H])[H])(C([H])([H])[H])C([H])([H])[H])C([H])(C(=O)N([H])C2([H])c4c([H])c([H])c([H])c([H])c4C([H])([H])C([H])([H])C2([H])[H])C3([H])[H])c1[H]

>  <smiles>  (49) 
[H]c1c([H])c([H])c(C([H])([H])N([H])C(=O)N2C([H])([H])C([H])([H])C([H])([H])C([H])(n3nc(-c4c([H])c([H])c(Oc5c([H])c([H])c(F)c([H])c5F)c([H])c4[H])c(C(=O)N([H])[H])c3N([H])[H])C2([H])[H])c(C([H])([H])N([H])C(=O)N([H])C([H])([H])C([H])([H])Oc2c([H])c([H])c3c(c2[H])C([H])([H])N(C(=O)C([H])(N([H])C(=O)C([H])(N([H])C([H])([H])[H])C([H])([H])[H])C(C([H])([H])[H])(C([H])([H])[H])C([H])([H])[H])C([H])(C(=O)N([H])C2([H])c4c([H])c([H])c([H])c([H])c4C([H])([H])C([H])([H])C2([H])[H])C3([H])[H])c1[H]

$$$$
50:0:0
     RDKit          3D

103110  0  0  1  0  0  0  0  0999 V2000
  -29.1410  -22.7360   18.5280 C   0  0  0  0  0  0  0  0  0  0  0  0
  -29.2780  -22.3040   19.7850 N   0  0  0  0  0  0  0  0  0  0  0  0
  -28.0820  -23.1800   18.0840 O   0  0  0  0  0  0  0  0  0  0  0  0
  -30.1950  -21.9860   20.0630 H   0  0  0  0  0  0  0  0  0  0  0  0
  -30.4020  -22.7120   17.6550 C   0  0  0  0  0  2  0  0  0  0  0  0
  -30.8410  -21.3060   17.1920 C   0  0  0  0  0  2  0  0  0  0  0  0
  -31.2450  -20.3680   18.3420 C   0  0  0  0  0  2  0  0  0  0  0  0
  -31.6740  -18.9730   17.8790 C   0  0  0  0  0  2  0  0  0  0  0  0
  -30.9600  -17.2980   19.5560 C   0  0  0  0  0  0  0  0  0  0  0  0
  -31.8900  -18.1050   19.0290 N   0  0  0  0  0  0  0  0  0  0  0  0
  -29.8160  -17.2220   19.1010 O   0  0  0  0  0  0  0  0  0  0  0  0
  -32.8160  -18.0900   19.4350 H   0  0  0  0  0  0  0  0  0  0  0  0
  -31.3890  -16.3970   20.7410 C   0  0  0  0  0  3  0  0  0  0  0  0
  -31.1230  -14.2130   19.5800 C   0  0  0  0  0  0  0  0  0  0  0  0
  -30.5550  -12.1090   18.4380 C   0  0  0  0  0  2  0  0  0  0  0  0
  -29.4920  -12.3410   17.3490 C   0  0  0  0  0  2  0  0  0  0  0  0
  -28.0770  -12.2520   17.9480 C   0  0  0  0  0  2  0  0  0  0  0  0
  -27.9130  -13.1260   19.2200 C   0  0  0  0  0  3  0  0  0  0  0  0
  -29.0740  -12.8820   20.2100 C   0  0  0  0  0  2  0  0  0  0  0  0
  -30.3490  -13.1030   19.5000 N   0  0  0  0  0  0  0  0  0  0  0  0
  -32.0690  -14.4330   18.8170 O   0  0  0  0  0  0  0  0  0  0  0  0
  -30.8150  -15.0590   20.5680 N   0  0  0  0  0  0  0  0  0  0  0  0
  -30.0390  -14.8150   21.1590 H   0  0  0  0  0  0  0  0  0  0  0  0
  -25.6610  -13.8250   20.2580 C   0  0  0  0  0  0  0  0  0  0  0  0
  -24.6010  -13.0930   20.7210 C   0  0  0  0  0  0  0  0  0  0  0  0
  -24.9680  -11.7220   20.5610 C   0  0  0  0  0  0  0  0  0  0  0  0
  -26.6120  -12.9020   19.8520 N   0  0  0  0  0  0  0  0  0  0  0  0
  -26.2040  -11.6290   20.0860 N   0  0  0  0  0  0  0  0  0  0  0  0
  -24.1950  -10.4920   20.7790 C   0  0  0  0  0  0  0  0  0  0  0  0
  -24.6010   -9.5220   21.7220 C   0  0  0  0  0  3  0  0  0  0  0  0
  -23.8320   -8.3560   21.9260 C   0  0  0  0  0  3  0  0  0  0  0  0
  -22.6420   -8.1530   21.1880 C   0  0  0  0  0  0  0  0  0  0  0  0
  -22.2540   -9.1100   20.2340 C   0  0  0  0  0  3  0  0  0  0  0  0
  -23.0240  -10.2680   20.0280 C   0  0  0  0  0  3  0  0  0  0  0  0
  -21.8450   -7.0390   21.3000 O   0  0  0  0  0  0  0  0  0  0  0  0
  -21.6670   -6.4000   22.5010 C   0  0  0  0  0  0  0  0  0  0  0  0
  -21.1460   -7.0670   23.6310 C   0  0  0  0  0  3  0  0  0  0  0  0
  -20.9140   -6.3550   24.8250 C   0  0  0  0  0  3  0  0  0  0  0  0
  -21.1940   -4.9770   24.8890 C   0  0  0  0  0  0  0  0  0  0  0  0
  -21.7080   -4.3100   23.7630 C   0  0  0  0  0  3  0  0  0  0  0  0
  -21.9410   -5.0190   22.5720 C   0  0  0  0  0  0  0  0  0  0  0  0
  -22.4170   -4.3670   21.4840 F   0  0  0  0  0  0  0  0  0  0  0  0
  -20.9640   -4.2910   26.0330 F   0  0  0  0  0  0  0  0  0  0  0  0
  -23.2820  -13.6290   21.1990 C   0  0  0  0  0  0  0  0  0  0  0  0
  -22.6700  -12.9700   22.1780 N   0  0  0  0  0  0  0  0  0  0  0  0
  -22.8080  -14.6670   20.7390 O   0  0  0  0  0  0  0  0  0  0  0  0
  -23.0700  -12.1300   22.5700 H   0  0  0  0  0  0  0  0  0  0  0  0
  -21.7910  -13.3110   22.5400 H   0  0  0  0  0  0  0  0  0  0  0  0
  -25.8890  -15.1920   20.1330 N   0  0  0  0  0  0  0  0  0  0  0  0
  -25.1890  -15.8840   20.3790 H   0  0  0  0  0  0  0  0  0  0  0  0
  -26.7290  -15.6010   19.7420 H   0  0  0  0  0  0  0  0  0  0  0  0
  -31.6120  -18.3700   22.3490 C   0  0  0  0  0  1  0  0  0  0  0  0
  -31.6640  -16.0510   23.2460 C   0  0  0  0  0  1  0  0  0  0  0  0
  -29.5060  -17.0140   22.4110 C   0  0  0  0  0  1  0  0  0  0  0  0
  -31.0300  -16.9530   22.1610 C   0  0  2  0  0  0  0  0  0  0  0  0
  -28.3300  -22.4770   20.8750 C   0  0  0  0  0  2  0  0  0  0  0  0
  -28.8470  -23.6570   21.6900 C   0  0  0  0  0  0  0  0  0  0  0  0
  -28.0470  -24.7190   21.7900 N   0  0  0  0  0  0  0  0  0  0  0  0
  -29.9870  -23.6320   22.1600 O   0  0  0  0  0  0  0  0  0  0  0  0
  -27.1270  -24.6550   21.3740 H   0  0  0  0  0  0  0  0  0  0  0  0
  -28.5060  -26.0530   22.1540 C   0  0  0  0  0  2  0  0  0  0  0  0
  -29.2210  -26.6960   20.9400 C   0  0  0  0  0  2  0  0  0  0  0  0
  -28.4070  -26.6280   19.7630 O   0  0  0  0  0  0  0  0  0  0  0  0
  -24.5660  -31.6770   22.9700 C   0  0  0  0  0  0  0  0  0  0  0  0
  -27.2550  -27.3760   19.7870 C   0  0  0  0  0  0  0  0  0  0  0  0
  -23.3590  -30.2850   21.3170 C   0  0  0  0  0  3  0  0  0  0  0  0
  -24.8220  -28.7980   19.8480 C   0  0  0  0  0  0  0  0  0  0  0  0
  -25.8670  -30.7040   21.0910 C   0  0  0  0  0  2  0  0  0  0  0  0
  -25.9700  -29.3470   20.4310 C   0  0  0  0  0  0  0  0  0  0  0  0
  -27.1870  -28.6440   20.4040 C   0  0  0  0  0  3  0  0  0  0  0  0
  -26.0990  -26.8370   19.1860 C   0  0  0  0  0  3  0  0  0  0  0  0
  -24.8780  -27.5390   19.2230 C   0  0  0  0  0  3  0  0  0  0  0  0
  -23.5600  -29.6270   19.9240 C   0  0  0  0  0  2  0  0  0  0  0  0
  -24.6160  -30.9010   21.8530 N   0  0  0  0  0  0  0  0  0  0  0  0
  -23.4900  -31.9240   23.5310 O   0  0  0  0  0  0  0  0  0  0  0  0
  -22.7380  -29.2380   22.2680 C   0  0  0  0  0  0  0  0  0  0  0  0
  -21.4080  -29.0710   22.1800 N   0  0  0  0  0  0  0  0  0  0  0  0
  -23.4460  -28.5800   23.0350 O   0  0  0  0  0  0  0  0  0  0  0  0
  -20.9010  -29.6530   21.5280 H   0  0  0  0  0  0  0  0  0  0  0  0
  -18.0340  -27.9370   22.7900 C   0  0  0  0  0  0  0  0  0  0  0  0
  -20.6080  -28.1180   22.9470 C   0  0  0  0  0  3  0  0  0  0  0  0
  -20.6460  -26.7150   22.2990 C   0  0  0  0  0  2  0  0  0  0  0  0
  -19.4880  -26.4680   21.3270 C   0  0  0  0  0  2  0  0  0  0  0  0
  -18.1430  -26.6170   22.0450 C   0  0  0  0  0  2  0  0  0  0  0  0
  -19.1930  -28.6500   23.1980 C   0  0  0  0  0  0  0  0  0  0  0  0
  -19.0370  -29.8910   23.8540 C   0  0  0  0  0  3  0  0  0  0  0  0
  -17.7570  -30.4170   24.1060 C   0  0  0  0  0  3  0  0  0  0  0  0
  -16.6140  -29.6980   23.7150 C   0  0  0  0  0  3  0  0  0  0  0  0
  -16.7540  -28.4610   23.0640 C   0  0  0  0  0  3  0  0  0  0  0  0
  -25.8530  -32.3130   23.5860 C   0  0  0  0  0  3  0  0  0  0  0  0
  -25.5040  -33.6610   24.0490 N   0  0  0  0  0  0  0  0  0  0  0  0
  -25.7430  -34.7860   23.3600 C   0  0  0  0  0  0  0  0  0  0  0  0
  -26.3530  -34.8000   22.2880 O   0  0  0  0  0  0  0  0  0  0  0  0
  -24.9570  -33.7230   24.8940 H   0  0  0  0  0  0  0  0  0  0  0  0
  -23.9170  -36.5080   23.2430 C   0  0  0  0  0  1  0  0  0  0  0  0
  -25.2180  -36.1050   23.9550 C   0  0  0  0  0  3  0  0  0  0  0  0
  -27.3440  -37.0330   24.7590 C   0  0  0  0  0  1  0  0  0  0  0  0
  -26.1940  -37.2140   23.8790 N   0  0  0  0  0  0  0  0  0  0  0  0
  -25.7530  -38.1000   24.1100 H   0  0  0  0  0  0  0  0  0  0  0  0
  -26.4690  -31.4580   24.7610 C   0  0  1  0  0  0  0  0  0  0  0  0
  -25.4440  -31.0760   25.8530 C   0  0  0  0  0  1  0  0  0  0  0  0
  -27.0900  -30.1500   24.2160 C   0  0  0  0  0  1  0  0  0  0  0  0
  -27.6170  -32.2450   25.4360 C   0  0  0  0  0  1  0  0  0  0  0  0
  1  2  1  0
  2  4  1  0
  2 56  1  0
  3  1  2  0
  5  1  1  0
  6  5  1  0
  6  7  1  0
  8  7  1  0
  8 10  1  0
 10 12  1  0
 10  9  1  0
 11  9  2  0
 13  9  1  0
 13 55  1  0
 14 22  1  0
 15 20  1  0
 16 17  1  0
 16 15  1  0
 18 17  1  0
 18 27  1  0
 18 19  1  0
 20 14  1  0
 20 19  1  0
 21 14  2  0
 22 13  1  0
 22 23  1  0
 24 25  2  0
 25 44  1  0
 26 25  1  0
 26 29  1  0
 27 28  1  0
 27 24  1  0
 28 26  2  0
 29 30  1  0
 30 31  2  0
 32 35  1  0
 32 31  1  0
 33 32  2  0
 34 33  1  0
 34 29  2  0
 35 36  1  0
 36 41  2  0
 36 37  1  0
 37 38  2  0
 38 39  1  0
 39 43  1  0
 40 39  2  0
 41 40  1  0
 42 41  1  0
 44 45  1  0
 45 48  1  0
 45 47  1  0
 46 44  2  0
 49 24  1  0
 49 50  1  0
 51 49  1  0
 55 52  1  6
 55 54  1  0
 55 53  1  0
 56 57  1  0
 57 58  1  0
 57 59  2  0
 58 61  1  0
 60 58  1  0
 62 61  1  0
 63 65  1  0
 63 62  1  0
 64 75  2  0
 65 70  1  0
 66 74  1  0
 66 76  1  0
 67 73  1  0
 67 69  1  0
 68 74  1  0
 69 68  1  0
 70 69  2  0
 71 72  1  0
 71 65  2  0
 72 67  2  0
 73 66  1  0
 74 64  1  0
 76 78  2  0
 77 76  1  0
 79 77  1  0
 80 89  2  0
 80 85  1  0
 81 77  1  0
 81 85  1  0
 82 81  1  0
 83 84  1  0
 83 82  1  0
 84 80  1  0
 85 86  2  0
 86 87  1  0
 88 87  2  0
 89 88  1  0
 90 64  1  0
 90 91  1  0
 90100  1  0
 91 94  1  0
 92 96  1  0
 92 91  1  0
 93 92  2  0
 96 95  1  0
 98 96  1  0
 98 99  1  0
 98 97  1  0
100103  1  1
100101  1  0
102100  1  0
M  ISO  4  14 100  22 100  62 101  63 101
M  END
>  <TORSDO>  (50) 
F 27

>  <SCORE>  (50) 
-8.057

>  <name>  (50) 
50

>  <ligand_id>  (50) 
50

>  <original_smiles>  (50) 
[H]c1c([H])c([H])c2c(c1[H])C([H])([H])C([H])([H])C([H])([H])C2([H])N([H])C(=O)C1([H])N(C(=O)C([H])(N([H])C(=O)C([H])(N([H])C([H])([H])[H])C([H])([H])[H])C(C([H])([H])[H])(C([H])([H])[H])C([H])([H])[H])C([H])([H])c2c([H])c(OC([H])([H])C([H])([H])N([H])C(=O)C([H])([H])N([H])C(=O)C([H])([H])C([H])([H])C([H])([H])C([H])([H])N([H])C(=O)C([H])(N([H])C(=O)N3C([H])([H])C([H])([H])C([H])([H])C([H])(n4nc(-c5c([H])c([H])c(Oc6c([H])c([H])c(F)c([H])c6F)c([H])c5[H])c(C(=O)N([H])[H])c4N([H])[H])C3([H])[H])C(C([H])([H])[H])(C([H])([H])[H])C([H])([H])[H])c([H])c([H])c2C1([H])[H]

>  <smiles>  (50) 
[H]c1c([H])c([H])c2c(c1[H])C([H])([H])C([H])([H])C([H])([H])C2([H])N([H])C(=O)C1([H])N(C(=O)C([H])(N([H])C(=O)C([H])(N([H])C([H])([H])[H])C([H])([H])[H])C(C([H])([H])[H])(C([H])([H])[H])C([H])([H])[H])C([H])([H])c2c([H])c(OC([H])([H])C([H])([H])N([H])C(=O)C([H])([H])N([H])C(=O)C([H])([H])C([H])([H])C([H])([H])C([H])([H])N([H])C(=O)C([H])(N([H])C(=O)N3C([H])([H])C([H])([H])C([H])([H])C([H])(n4nc(-c5c([H])c([H])c(Oc6c([H])c([H])c(F)c([H])c6F)c([H])c5[H])c(C(=O)N([H])[H])c4N([H])[H])C3([H])[H])C(C([H])([H])[H])(C([H])([H])[H])C([H])([H])[H])c([H])c([H])c2C1([H])[H]

$$$$
53:0:0
     RDKit          3D

105113  0  0  1  0  0  0  0  0999 V2000
  -31.0720  -19.7270   19.1690 C   0  0  0  0  0  0  0  0  0  0  0  0
  -31.7070  -22.1170   19.5370 C   0  0  0  0  0  0  0  0  0  0  0  0
  -30.8300  -21.0600   19.1110 N   0  0  0  0  0  0  0  0  0  0  0  0
  -30.0590  -18.8650   18.9400 N   0  0  0  0  0  0  0  0  0  0  0  0
  -32.6870  -21.9200   20.2610 O   0  0  0  0  0  0  0  0  0  0  0  0
  -29.9830  -21.2890   18.6280 H   0  0  0  0  0  0  0  0  0  0  0  0
  -30.3010  -17.8830   18.9190 H   0  0  0  0  0  0  0  0  0  0  0  0
  -33.7850  -17.7080   20.8810 C   0  0  0  0  0  3  0  0  0  0  0  0
  -34.8500  -17.8350   19.9680 C   0  0  0  0  0  3  0  0  0  0  0  0
  -32.5540  -18.3440   20.6210 C   0  0  0  0  0  3  0  0  0  0  0  0
  -34.6810  -18.5830   18.7880 C   0  0  0  0  0  3  0  0  0  0  0  0
  -32.3820  -19.1100   19.4440 C   0  0  0  0  0  0  0  0  0  0  0  0
  -33.4490  -19.2100   18.5180 C   0  0  0  0  0  0  0  0  0  0  0  0
  -33.2910  -19.8880   17.3540 F   0  0  0  0  0  0  0  0  0  0  0  0
  -31.3450  -23.5270   19.0500 C   0  0  0  0  0  2  0  0  0  0  0  0
  -28.9380  -23.9320   18.5900 C   0  0  0  0  0  0  0  0  0  0  0  0
  -30.1710  -23.6140   18.1710 N   0  0  0  0  0  0  0  0  0  0  0  0
  -28.6460  -24.0210   19.7840 O   0  0  0  0  0  0  0  0  0  0  0  0
  -30.3390  -23.5980   17.1750 H   0  0  0  0  0  0  0  0  0  0  0  0
  -27.8800  -24.2020   17.5130 C   0  0  0  0  0  2  0  0  0  0  0  0
  -26.4020  -26.0880   18.3450 C   0  0  0  0  0  0  0  0  0  0  0  0
  -27.3960  -25.5840   17.5310 N   0  0  0  0  0  0  0  0  0  0  0  0
  -25.8100  -25.4580   19.2240 O   0  0  0  0  0  0  0  0  0  0  0  0
  -27.7960  -26.2460   16.8800 H   0  0  0  0  0  0  0  0  0  0  0  0
  -26.1540  -27.3760   17.9790 O   0  0  0  0  0  0  0  0  0  0  0  0
  -25.2780  -31.3870   23.7950 C   0  0  0  0  0  0  0  0  0  0  0  0
  -25.3140  -28.1990   18.7020 C   0  0  0  0  0  0  0  0  0  0  0  0
  -23.2440  -31.0040   22.4380 C   0  0  0  0  0  3  0  0  0  0  0  0
  -23.6270  -29.9500   20.1490 C   0  0  0  0  0  0  0  0  0  0  0  0
  -25.5590  -30.9780   21.3540 C   0  0  0  0  0  2  0  0  0  0  0  0
  -25.0130  -29.9840   20.3520 C   0  0  0  0  0  0  0  0  0  0  0  0
  -25.8590  -29.1090   19.6350 C   0  0  0  0  0  3  0  0  0  0  0  0
  -23.9140  -28.1920   18.4950 C   0  0  0  0  0  3  0  0  0  0  0  0
  -23.0700  -29.0520   19.2220 C   0  0  0  0  0  3  0  0  0  0  0  0
  -22.7920  -30.9180   20.9560 C   0  0  0  0  0  2  0  0  0  0  0  0
  -24.7330  -31.1080   22.5770 N   0  0  0  0  0  0  0  0  0  0  0  0
  -24.5620  -31.5950   24.7840 O   0  0  0  0  0  0  0  0  0  0  0  0
  -22.6420  -29.8090   23.2090 C   0  0  0  0  0  0  0  0  0  0  0  0
  -21.3320  -29.5770   23.0260 N   0  0  0  0  0  0  0  0  0  0  0  0
  -23.3500  -29.0970   23.9280 O   0  0  0  0  0  0  0  0  0  0  0  0
  -20.8180  -30.2100   22.4310 H   0  0  0  0  0  0  0  0  0  0  0  0
  -18.2130  -27.7650   22.8100 C   0  0  0  0  0  0  0  0  0  0  0  0
  -20.5600  -28.4850   23.6200 C   0  0  0  0  0  3  0  0  0  0  0  0
  -21.0470  -27.1130   23.1010 C   0  0  0  0  0  2  0  0  0  0  0  0
  -20.2660  -26.6160   21.8800 C   0  0  0  0  0  2  0  0  0  0  0  0
  -18.7770  -26.4880   22.2110 C   0  0  0  0  0  2  0  0  0  0  0  0
  -19.0520  -28.7100   23.4580 C   0  0  0  0  0  0  0  0  0  0  0  0
  -18.4820  -29.8960   23.9680 C   0  0  0  0  0  3  0  0  0  0  0  0
  -17.1020  -30.1450   23.8400 C   0  0  0  0  0  3  0  0  0  0  0  0
  -16.2740  -29.1990   23.2100 C   0  0  0  0  0  3  0  0  0  0  0  0
  -16.8280  -28.0110   22.7010 C   0  0  0  0  0  3  0  0  0  0  0  0
  -26.8230  -31.4820   24.0010 C   0  0  0  0  0  3  0  0  0  0  0  0
  -27.1070  -32.7790   24.6270 N   0  0  0  0  0  0  0  0  0  0  0  0
  -27.6660  -33.8200   23.9950 C   0  0  0  0  0  0  0  0  0  0  0  0
  -28.0640  -33.7600   22.8290 O   0  0  0  0  0  0  0  0  0  0  0  0
  -26.7580  -32.9160   25.5650 H   0  0  0  0  0  0  0  0  0  0  0  0
  -26.7270  -36.1310   24.3190 C   0  0  0  0  0  1  0  0  0  0  0  0
  -27.8020  -35.1360   24.7830 C   0  0  0  0  0  3  0  0  0  0  0  0
  -30.1890  -35.0040   25.3450 C   0  0  0  0  0  1  0  0  0  0  0  0
  -29.1400  -35.7570   24.6650 N   0  0  0  0  0  0  0  0  0  0  0  0
  -29.1330  -36.7010   25.0430 H   0  0  0  0  0  0  0  0  0  0  0  0
  -27.4080  -30.3020   24.8690 C   0  0  1  0  0  0  0  0  0  0  0  0
  -26.6470  -30.0680   26.1950 C   0  0  0  0  0  1  0  0  0  0  0  0
  -27.3860  -28.9760   24.0720 C   0  0  0  0  0  1  0  0  0  0  0  0
  -28.8890  -30.5880   25.2130 C   0  0  0  0  0  1  0  0  0  0  0  0
  -28.6640  -19.1530   18.5780 C   0  0  0  0  0  2  0  0  0  0  0  0
  -27.6630  -18.2690   19.3420 C   0  0  0  0  0  2  0  0  0  0  0  0
  -29.2570  -16.4520   19.8330 C   0  0  0  0  0  3  0  0  0  0  0  0
  -29.6870  -14.1430   19.1110 C   0  0  0  0  0  2  0  0  0  0  0  0
  -28.7090  -13.8290   17.9570 C   0  0  0  0  0  2  0  0  0  0  0  0
  -27.3600  -13.3160   18.5000 C   0  0  0  0  0  2  0  0  0  0  0  0
  -26.7910  -14.2150   19.6300 C   0  0  0  0  0  3  0  0  0  0  0  0
  -27.8810  -14.5240   20.6870 C   0  0  0  0  0  2  0  0  0  0  0  0
  -29.0360  -15.1210   19.9940 N   0  0  0  0  0  0  0  0  0  0  0  0
  -30.2120  -16.9210   19.2100 O   0  0  0  0  0  0  0  0  0  0  0  0
  -28.2340  -17.2300   20.2110 N   0  0  0  0  0  0  0  0  0  0  0  0
  -27.5640  -16.7730   20.8110 H   0  0  0  0  0  0  0  0  0  0  0  0
  -24.4460  -14.2420   20.6970 C   0  0  0  0  0  0  0  0  0  0  0  0
  -23.6140  -13.2310   21.1020 C   0  0  0  0  0  0  0  0  0  0  0  0
  -24.3190  -12.0160   20.8470 C   0  0  0  0  0  0  0  0  0  0  0  0
  -25.5970  -13.6230   20.2350 N   0  0  0  0  0  0  0  0  0  0  0  0
  -25.5320  -12.2750   20.3770 N   0  0  0  0  0  0  0  0  0  0  0  0
  -23.8890  -10.6160   20.9740 C   0  0  0  0  0  0  0  0  0  0  0  0
  -24.4350   -9.7630   21.9580 C   0  0  0  0  0  3  0  0  0  0  0  0
  -23.9910   -8.4280   22.0720 C   0  0  0  0  0  3  0  0  0  0  0  0
  -22.9920   -7.9340   21.2000 C   0  0  0  0  0  0  0  0  0  0  0  0
  -22.4700   -8.7820   20.2060 C   0  0  0  0  0  3  0  0  0  0  0  0
  -22.9150  -10.1100   20.0920 C   0  0  0  0  0  3  0  0  0  0  0  0
  -22.5200   -6.6440   21.2190 O   0  0  0  0  0  0  0  0  0  0  0  0
  -22.1610   -6.0270   22.3900 C   0  0  0  0  0  0  0  0  0  0  0  0
  -21.0980   -6.5050   23.1890 C   0  0  0  0  0  3  0  0  0  0  0  0
  -20.7170   -5.8010   24.3480 C   0  0  0  0  0  3  0  0  0  0  0  0
  -21.3880   -4.6160   24.7060 C   0  0  0  0  0  0  0  0  0  0  0  0
  -22.4410   -4.1350   23.9080 C   0  0  0  0  0  3  0  0  0  0  0  0
  -22.8230   -4.8380   22.7530 C   0  0  0  0  0  0  0  0  0  0  0  0
  -23.8260   -4.3580   21.9760 F   0  0  0  0  0  0  0  0  0  0  0  0
  -21.0170   -3.9350   25.8150 F   0  0  0  0  0  0  0  0  0  0  0  0
  -22.2080  -13.3760   21.6090 C   0  0  0  0  0  0  0  0  0  0  0  0
  -21.7950  -12.5080   22.5250 N   0  0  0  0  0  0  0  0  0  0  0  0
  -21.4820  -14.2920   21.2260 O   0  0  0  0  0  0  0  0  0  0  0  0
  -22.4000  -11.7670   22.8500 H   0  0  0  0  0  0  0  0  0  0  0  0
  -20.8640  -12.5850   22.9080 H   0  0  0  0  0  0  0  0  0  0  0  0
  -24.3110  -15.6260   20.6660 N   0  0  0  0  0  0  0  0  0  0  0  0
  -23.4570  -16.0940   20.9520 H   0  0  0  0  0  0  0  0  0  0  0  0
  -25.0030  -16.2620   20.2900 H   0  0  0  0  0  0  0  0  0  0  0  0
  1 12  1  0
  2  5  2  0
  3  1  1  0
  3  2  1  0
  4  1  2  0
  6  3  1  0
  7 75  1  0
  9  8  2  0
 10  8  1  0
 11  9  1  0
 12 10  2  0
 13 11  2  0
 13 12  1  0
 14 13  1  0
 15  2  1  0
 16 18  2  0
 17 16  1  0
 17 15  1  0
 19 17  1  0
 20 22  1  0
 20 16  1  0
 21 23  2  0
 22 21  1  0
 24 22  1  0
 25 21  1  0
 25 27  1  0
 26 37  2  0
 27 32  1  0
 28 36  1  0
 28 38  1  0
 29 31  1  0
 29 35  1  0
 30 36  1  0
 31 30  1  0
 32 31  2  0
 33 27  2  0
 33 34  1  0
 34 29  2  0
 35 28  1  0
 36 26  1  0
 38 40  2  0
 39 38  1  0
 41 39  1  0
 42 47  1  0
 43 39  1  0
 44 43  1  0
 45 46  1  0
 45 44  1  0
 46 42  1  0
 47 43  1  0
 47 48  2  0
 49 48  1  0
 50 49  2  0
 51 42  2  0
 51 50  1  0
 52 26  1  0
 52 53  1  0
 52 62  1  0
 53 56  1  0
 54 53  1  0
 54 58  1  0
 55 54  2  0
 58 57  1  0
 60 58  1  0
 60 61  1  0
 60 59  1  0
 62 65  1  1
 62 63  1  0
 64 62  1  0
 66  4  1  0
 66 67  1  0
 67 76  1  0
 68 75  1  0
 68 74  1  0
 68 76  1  0
 69 74  1  0
 70 71  1  0
 70 69  1  0
 72 71  1  0
 72 81  1  0
 72 73  1  0
 74 73  1  0
 76 77  1  0
 78 79  2  0
 79 98  1  0
 80 83  1  0
 80 79  1  0
 81 82  1  0
 81 78  1  0
 82 80  2  0
 83 84  1  0
 84 85  2  0
 86 89  1  0
 86 85  1  0
 87 86  2  0
 88 87  1  0
 88 83  2  0
 89 90  1  0
 90 95  2  0
 90 91  1  0
 91 92  2  0
 92 93  1  0
 93 97  1  0
 94 93  2  0
 95 94  1  0
 96 95  1  0
 98 99  1  0
 99101  1  0
 99102  1  0
100 98  2  0
103 78  1  0
103104  1  0
105103  1  0
M  ISO  4  21 101  25 101  68 100  76 100
M  END
>  <TORSDO>  (51) 
F 23

>  <SCORE>  (51) 
-7.466

>  <name>  (51) 
53

>  <ligand_id>  (51) 
53

>  <original_smiles>  (51) 
[H]c1c([H])c([H])c(C(N([H])C(=O)C([H])([H])N([H])C(=O)C([H])([H])N([H])C(=O)Oc2c([H])c([H])c3c(c2[H])C([H])([H])N(C(=O)C([H])(N([H])C(=O)C([H])(N([H])C([H])([H])[H])C([H])([H])[H])C(C([H])([H])[H])(C([H])([H])[H])C([H])([H])[H])C([H])(C(=O)N([H])C2([H])c4c([H])c([H])c([H])c([H])c4C([H])([H])C([H])([H])C2([H])[H])C3([H])[H])=[N+]([H])C([H])([H])C([H])([H])N([H])C(=O)N2C([H])([H])C([H])([H])C([H])([H])C([H])(n3nc(-c4c([H])c([H])c(Oc5c([H])c([H])c(F)c([H])c5F)c([H])c4[H])c(C(=O)N([H])[H])c3N([H])[H])C2([H])[H])c(F)c1[H]

>  <smiles>  (51) 
[H]c1c([H])c([H])c(C(N([H])C(=O)C([H])([H])N([H])C(=O)C([H])([H])N([H])C(=O)Oc2c([H])c([H])c3c(c2[H])C([H])([H])N(C(=O)C([H])(N([H])C(=O)C([H])(N([H])C([H])([H])[H])C([H])([H])[H])C(C([H])([H])[H])(C([H])([H])[H])C([H])([H])[H])C([H])(C(=O)N([H])C2([H])c4c([H])c([H])c([H])c([H])c4C([H])([H])C([H])([H])C2([H])[H])C3([H])[H])=[N+]([H])C([H])([H])C([H])([H])N([H])C(=O)N2C([H])([H])C([H])([H])C([H])([H])C([H])(n3nc(-c4c([H])c([H])c(Oc5c([H])c([H])c(F)c([H])c5F)c([H])c4[H])c(C(=O)N([H])[H])c3N([H])[H])C2([H])[H])c(F)c1[H]

$$$$
54:0:0
     RDKit          3D

121127  0  0  1  0  0  0  0  0999 V2000
  -33.6050  -24.4630   19.8990 N   0  0  0  0  0  4  0  0  0  0  0  0
  -32.8250  -23.8540   19.6700 H   0  0  0  0  0  0  0  0  0  0  0  0
  -34.0970  -24.6290   19.0390 H   0  0  0  0  0  0  0  0  0  0  0  0
  -34.4480  -23.6910   20.8440 C   0  0  0  0  0  2  0  0  0  0  0  0
  -34.7450  -22.2610   20.3610 C   0  0  0  0  0  0  0  0  0  0  0  0
  -34.9760  -22.0220   19.0570 N   0  0  0  0  0  0  0  0  0  0  0  0
  -34.7120  -21.3460   21.1810 O   0  0  0  0  0  0  0  0  0  0  0  0
  -35.0870  -22.7850   18.4030 H   0  0  0  0  0  0  0  0  0  0  0  0
  -35.0070  -20.6840   18.4480 C   0  0  0  0  0  2  0  0  0  0  0  0
  -33.5910  -20.3110   17.9970 C   0  0  0  0  0  0  0  0  0  0  0  0
  -33.3990  -20.0340   16.7040 N   0  0  0  0  0  0  0  0  0  0  0  0
  -32.6560  -20.3670   18.7940 O   0  0  0  0  0  0  0  0  0  0  0  0
  -34.2140  -20.0140   16.1060 H   0  0  0  0  0  0  0  0  0  0  0  0
  -32.1210  -19.7400   16.0470 C   0  0  0  0  0  2  0  0  0  0  0  0
  -31.1390  -20.9230   15.9160 C   0  0  0  0  0  0  0  0  0  0  0  0
  -30.9990  -21.7660   16.9450 N   0  0  0  0  0  0  0  0  0  0  0  0
  -30.5170  -21.0840   14.8670 O   0  0  0  0  0  0  0  0  0  0  0  0
  -31.5130  -21.5320   17.7940 H   0  0  0  0  0  0  0  0  0  0  0  0
  -30.0460  -22.8780   17.0100 C   0  0  0  0  0  2  0  0  0  0  0  0
  -29.7190  -23.3020   18.5140 C   0  0  0  0  0  2  0  0  0  0  0  0
  -30.6530  -22.8150   19.1850 O   0  0  0  0  0  1  0  0  0  0  0  0
  -27.7460  -24.6220   19.4180 O   0  0  0  0  0  0  0  0  0  0  0  0
  -24.8160  -31.0580   23.0890 C   0  0  0  0  0  0  0  0  0  0  0  0
  -26.9890  -26.0750   19.5020 C   0  0  0  0  0  3  0  0  0  0  0  0
  -23.5320  -29.9560   21.3030 C   0  0  0  0  0  3  0  0  0  0  0  0
  -24.8630  -28.3550   19.7140 C   0  0  0  0  0  0  0  0  0  0  0  0
  -26.1170  -29.8770   21.1960 C   0  0  0  0  0  2  0  0  0  0  0  0
  -26.0830  -28.5060   20.3890 C   0  0  0  0  0  0  0  0  0  0  0  0
  -27.1140  -27.4060   20.2710 C   0  0  0  0  0  3  0  0  0  0  0  0
  -25.7330  -26.1840   18.8250 C   0  0  0  0  0  3  0  0  0  0  0  0
  -24.7420  -27.2130   18.9060 C   0  0  0  0  0  3  0  0  0  0  0  0
  -23.7340  -29.3930   19.8660 C   0  0  0  0  0  2  0  0  0  0  0  0
  -24.8470  -30.3220   21.9200 N   0  0  0  0  0  0  0  0  0  0  0  0
  -23.7460  -31.3860   23.6320 O   0  0  0  0  0  0  0  0  0  0  0  0
  -22.7210  -28.9510   22.1630 C   0  0  0  0  0  0  0  0  0  0  0  0
  -21.3750  -28.9780   22.0780 N   0  0  0  0  0  0  0  0  0  0  0  0
  -23.3160  -28.1470   22.8880 O   0  0  0  0  0  0  0  0  0  0  0  0
  -20.9500  -29.6800   21.4890 H   0  0  0  0  0  0  0  0  0  0  0  0
  -17.8750  -28.1030   22.5850 C   0  0  0  0  0  0  0  0  0  0  0  0
  -20.4570  -28.0390   22.7480 C   0  0  0  0  0  3  0  0  0  0  0  0
  -20.3650  -26.7060   21.9690 C   0  0  0  0  0  2  0  0  0  0  0  0
  -19.1990  -26.6650   20.9760 C   0  0  0  0  0  2  0  0  0  0  0  0
  -17.8660  -26.8640   21.7040 C   0  0  0  0  0  2  0  0  0  0  0  0
  -19.0920  -28.6620   23.0610 C   0  0  0  0  0  0  0  0  0  0  0  0
  -19.0410  -29.8260   23.8550 C   0  0  0  0  0  3  0  0  0  0  0  0
  -17.8100  -30.4330   24.1700 C   0  0  0  0  0  3  0  0  0  0  0  0
  -16.6090  -29.8660   23.7060 C   0  0  0  0  0  3  0  0  0  0  0  0
  -16.6420  -28.7030   22.9160 C   0  0  0  0  0  3  0  0  0  0  0  0
  -26.1200  -31.5240   23.8010 C   0  0  0  0  0  3  0  0  0  0  0  0
  -25.9330  -32.9150   24.2630 N   0  0  0  0  0  0  0  0  0  0  0  0
  -26.4250  -34.0060   23.6600 C   0  0  0  0  0  0  0  0  0  0  0  0
  -27.1440  -33.9440   22.6600 O   0  0  0  0  0  0  0  0  0  0  0  0
  -25.3050  -33.0380   25.0420 H   0  0  0  0  0  0  0  0  0  0  0  0
  -24.9450  -36.0370   23.4350 C   0  0  0  0  0  1  0  0  0  0  0  0
  -26.0710  -35.3860   24.2550 C   0  0  0  0  0  3  0  0  0  0  0  0
  -28.2270  -35.9250   25.3130 C   0  0  0  0  0  1  0  0  0  0  0  0
  -27.2240  -36.3150   24.3230 N   0  0  0  0  0  0  0  0  0  0  0  0
  -26.9160  -37.2590   24.5370 H   0  0  0  0  0  0  0  0  0  0  0  0
  -26.5180  -30.6050   25.0260 C   0  0  1  0  0  0  0  0  0  0  0  0
  -25.3750  -30.4140   26.0530 C   0  0  0  0  0  1  0  0  0  0  0  0
  -26.9510  -29.2020   24.5440 C   0  0  0  0  0  1  0  0  0  0  0  0
  -27.7380  -31.2080   25.7580 C   0  0  0  0  0  1  0  0  0  0  0  0
  -33.0220  -25.7420   20.4210 C   0  0  0  0  0  3  0  0  0  0  0  0
  -31.7410  -26.1600   19.6480 C   0  0  0  0  0  3  0  0  0  0  0  0
  -28.4150  -20.5900   19.9650 C   0  0  0  0  0  0  0  0  0  0  0  0
  -28.0160  -24.9650   17.9940 C   0  0  0  0  0  1  0  0  0  0  0  0
  -27.4720  -23.2770   19.0420 C   0  0  0  0  0  2  0  0  0  0  0  0
  -30.1430  -24.8630   21.4420 C   0  0  0  0  0  1  0  0  0  0  0  0
  -29.1020  -23.1870   21.4250 C   0  0  0  0  0  1  0  0  0  0  0  0
  -30.5860  -26.6430   17.5660 C   0  0  0  0  0  3  0  0  0  0  0  0
  -29.4850  -26.2540   18.5660 C   0  0  0  0  0  3  0  0  0  0  0  0
  -30.4410  -26.0300   20.0860 N   0  0  0  0  0  0  0  0  0  0  0  0
  -28.3400  -22.1820   20.1960 N   0  0  0  0  0  0  0  0  0  0  0  0
  -31.8280  -26.5770   18.3600 N   0  0  0  0  0  0  0  0  0  0  0  0
  -27.7590  -20.2880   18.9650 O   0  0  0  0  0  0  0  0  0  0  0  0
  -32.6980  -26.8610   17.9220 H   0  0  0  0  0  0  0  0  0  0  0  0
  -29.1450  -18.9440   20.5940 C   0  0  0  0  0  2  0  0  0  0  0  0
  -30.0280  -15.7990   20.1750 C   0  0  0  0  0  0  0  0  0  0  0  0
  -30.2190  -13.2540   19.2940 C   0  0  0  0  0  2  0  0  0  0  0  0
  -29.3020  -12.7730   18.1290 C   0  0  0  0  0  2  0  0  0  0  0  0
  -27.9260  -12.3440   18.6560 C   0  0  0  0  0  2  0  0  0  0  0  0
  -27.4090  -13.3360   19.7180 C   0  0  0  0  0  3  0  0  0  0  0  0
  -28.4670  -13.7060   20.7850 C   0  0  0  0  0  2  0  0  0  0  0  0
  -29.5580  -14.4060   20.0660 N   0  0  0  0  0  0  0  0  0  0  0  0
  -31.2700  -15.7630   20.0470 O   0  0  0  0  0  0  0  0  0  0  0  0
  -29.2030  -17.1510   20.2470 N   0  0  0  0  0  0  0  0  0  0  0  0
  -28.2380  -16.8770   20.1210 H   0  0  0  0  0  0  0  0  0  0  0  0
  -25.1050  -13.7950   20.6680 C   0  0  0  0  0  0  0  0  0  0  0  0
  -24.0680  -12.9860   21.0280 C   0  0  0  0  0  0  0  0  0  0  0  0
  -24.5340  -11.6440   20.8580 C   0  0  0  0  0  0  0  0  0  0  0  0
  -26.1300  -12.9500   20.2900 N   0  0  0  0  0  0  0  0  0  0  0  0
  -25.8070  -11.6440   20.4730 N   0  0  0  0  0  0  0  0  0  0  0  0
  -23.8160  -10.3690   20.9820 C   0  0  0  0  0  0  0  0  0  0  0  0
  -24.2240   -9.3770   21.9000 C   0  0  0  0  0  3  0  0  0  0  0  0
  -23.5040   -8.1680   22.0150 C   0  0  0  0  0  3  0  0  0  0  0  0
  -22.3560   -7.9470   21.2150 C   0  0  0  0  0  0  0  0  0  0  0  0
  -21.9680   -8.9280   20.2850 C   0  0  0  0  0  3  0  0  0  0  0  0
  -22.6900  -10.1280   20.1690 C   0  0  0  0  0  3  0  0  0  0  0  0
  -21.6070   -6.7940   21.2410 O   0  0  0  0  0  0  0  0  0  0  0  0
  -21.4660   -6.0550   22.3870 C   0  0  0  0  0  0  0  0  0  0  0  0
  -20.8680   -6.5900   23.5490 C   0  0  0  0  0  3  0  0  0  0  0  0
  -20.6780   -5.7750   24.6820 C   0  0  0  0  0  3  0  0  0  0  0  0
  -21.0770   -4.4250   24.6540 C   0  0  0  0  0  0  0  0  0  0  0  0
  -21.6660   -3.8890   23.4960 C   0  0  0  0  0  3  0  0  0  0  0  0
  -21.8590   -4.7010   22.3660 C   0  0  0  0  0  0  0  0  0  0  0  0
  -22.4080   -4.1750   21.2450 F   0  0  0  0  0  0  0  0  0  0  0  0
  -20.8880   -3.6390   25.7400 F   0  0  0  0  0  0  0  0  0  0  0  0
  -22.6870  -13.4360   21.4050 C   0  0  0  0  0  0  0  0  0  0  0  0
  -22.0040  -12.6700   22.2450 N   0  0  0  0  0  0  0  0  0  0  0  0
  -22.2260  -14.4990   20.9910 O   0  0  0  0  0  0  0  0  0  0  0  0
  -22.3910  -11.8070   22.6000 H   0  0  0  0  0  0  0  0  0  0  0  0
  -21.0780  -12.9470   22.5420 H   0  0  0  0  0  0  0  0  0  0  0  0
  -25.2570  -15.1770   20.5880 N   0  0  0  0  0  0  0  0  0  0  0  0
  -24.4940  -15.8190   20.7840 H   0  0  0  0  0  0  0  0  0  0  0  0
  -26.0710  -15.6380   20.2070 H   0  0  0  0  0  0  0  0  0  0  0  0
  -34.1060  -26.8480   20.4050 C   0  0  0  0  0  2  0  0  0  0  0  0
  -33.6580  -28.1130   21.1270 C   0  0  0  0  0  0  0  0  0  0  0  0
  -33.8450  -29.2780   20.5230 N   0  0  0  0  0  0  0  0  0  0  0  0
  -33.1580  -28.0520   22.2480 O   0  0  0  0  0  0  0  0  0  0  0  0
  -34.3170  -29.3420   19.6280 H   0  0  0  0  0  0  0  0  0  0  0  0
  -33.5530  -30.1260   20.9880 H   0  0  0  0  0  0  0  0  0  0  0  0
  1 63  1  0
  1  4  1  0
  2  1  1  0
  3  1  1  0
  5  4  1  0
  5  7  2  0
  6  5  1  0
  8  6  1  0
  9  6  1  0
 10  9  1  0
 10 12  2  0
 11 10  1  0
 13 11  1  0
 14 11  1  0
 15 14  1  0
 15 16  1  0
 16 19  1  0
 16 18  1  0
 17 15  2  0
 19 20  1  0
 20 21  1  0
 23 34  2  0
 24 29  1  0
 25 33  1  0
 25 35  1  0
 26 32  1  0
 26 28  1  0
 27 33  1  0
 28 27  1  0
 29 28  2  0
 30 31  1  0
 30 24  2  0
 31 26  2  0
 32 25  1  0
 33 23  1  0
 35 37  2  0
 36 35  1  0
 38 36  1  0
 39 48  2  0
 39 44  1  0
 40 36  1  0
 40 44  1  0
 41 40  1  0
 42 43  1  0
 42 41  1  0
 43 39  1  0
 44 45  2  0
 45 46  1  0
 47 46  2  0
 48 47  1  0
 49 23  1  0
 49 50  1  0
 49 59  1  0
 50 53  1  0
 51 55  1  0
 51 50  1  0
 52 51  2  0
 55 54  1  0
 55 57  1  0
 57 58  1  0
 57 56  1  0
 59 62  1  1
 59 60  1  0
 61 59  1  0
 63116  1  0
 64 72  1  0
 64 63  1  0
 65 73  1  0
 65 77  1  0
 66 22  1  0
 67 22  1  0
 67 73  1  0
 70 74  1  0
 70 71  2  0
 71 72  1  0
 72 68  1  0
 73 69  1  0
 74 64  1  0
 75 65  2  0
 76 74  1  0
 78 86  1  0
 79 84  1  0
 80 81  1  0
 80 79  1  0
 82 81  1  0
 82 91  1  0
 82 83  1  0
 84 78  1  0
 84 83  1  0
 85 78  2  0
 86 77  1  0
 87 86  1  0
 88 89  2  0
 89108  1  0
 90 93  1  0
 90 89  1  0
 91 92  1  0
 91 88  1  0
 92 90  2  0
 93 94  1  0
 94 95  2  0
 96 99  1  0
 96 95  1  0
 97 96  2  0
 98 97  1  0
 98 93  2  0
 99100  1  0
100101  1  0
101102  2  0
103102  1  0
103107  1  0
104103  2  0
105100  2  0
105104  1  0
106105  1  0
108109  1  0
109112  1  0
109111  1  0
110108  2  0
113 88  1  0
113114  1  0
115113  1  0
116117  1  0
117119  2  0
118121  1  0
118117  1  0
120118  1  0
M  ISO  4  20 101  22 101  78 100  86 100
M  END
>  <TORSDO>  (52) 
F 29

>  <SCORE>  (52) 
-10.582

>  <name>  (52) 
54

>  <ligand_id>  (52) 
54

>  <original_smiles>  (52) 
[H]c1c([H])c([H])c2c(c1[H])C([H])([H])C([H])([H])C([H])([H])C2([H])N([H])C(=O)C1([H])N(C(=O)C([H])(N([H])C(=O)C([H])(N([H])C([H])([H])[H])C([H])([H])[H])C(C([H])([H])[H])(C([H])([H])[H])C([H])([H])[H])C([H])([H])c2c([H])c(OC(=O)C([H])([H])N([H])C(=O)C([H])([H])N([H])C(=O)C([H])([H])N([H])C(=O)C([H])([H])[N+]([H])([H])C([H])(C3=[N+]([H])C([H])([H])C4([H])N3C([H])([H])C([H])([H])N(C(=O)C([H])([H])N([H])C(=O)N3C([H])([H])C([H])([H])C([H])([H])C([H])(n5nc(-c6c([H])c([H])c(Oc7c([H])c([H])c(F)c([H])c7F)c([H])c6[H])c(C(=O)N([H])[H])c5N([H])[H])C3([H])[H])C([H])([H])C4([H])[H])C([H])([H])C(=O)N([H])[H])c([H])c([H])c2C1([H])[H]

>  <smiles>  (52) 
[H]c1c([H])c([H])c2c(c1[H])C([H])([H])C([H])([H])C([H])([H])C2([H])N([H])C(=O)C1([H])N(C(=O)C([H])(N([H])C(=O)C([H])(N([H])C([H])([H])[H])C([H])([H])[H])C(C([H])([H])[H])(C([H])([H])[H])C([H])([H])[H])C([H])([H])c2c([H])c(OC(=O)C([H])([H])N([H])C(=O)C([H])([H])N([H])C(=O)C([H])([H])N([H])C(=O)C([H])([H])[N+]([H])([H])C([H])(C3=[N+]([H])C([H])([H])C4([H])N3C([H])([H])C([H])([H])N(C(=O)C([H])([H])N([H])C(=O)N3C([H])([H])C([H])([H])C([H])([H])C([H])(n5nc(-c6c([H])c([H])c(Oc7c([H])c([H])c(F)c([H])c7F)c([H])c6[H])c(C(=O)N([H])[H])c5N([H])[H])C3([H])[H])C([H])([H])C4([H])[H])C([H])([H])C(=O)N([H])[H])c([H])c([H])c2C1([H])[H]

$$$$
55:0:0
     RDKit          3D

110117  0  0  1  0  0  0  0  0999 V2000
  -31.7330  -24.3470   20.6420 C   0  0  0  0  0  0  0  0  0  0  0  0
  -30.5610  -23.8550   21.1080 N   0  0  0  0  0  0  0  0  0  0  0  0
  -32.1620  -25.6010   20.8800 N   0  0  0  0  0  4  0  0  0  0  0  0
  -30.3700  -22.8820   20.9050 H   0  0  0  0  0  0  0  0  0  0  0  0
  -33.0590  -25.9090   20.5250 H   0  0  0  0  0  0  0  0  0  0  0  0
  -31.5970  -26.3000   21.3450 H   0  0  0  0  0  0  0  0  0  0  0  0
  -28.4330  -23.5010   22.3760 C   0  0  0  0  0  1  0  0  0  0  0  0
  -29.5650  -24.4770   22.0020 C   0  0  0  0  0  3  0  0  0  0  0  0
  -29.0530  -25.8220   21.4480 C   0  0  0  0  0  0  0  0  0  0  0  0
  -29.1540  -26.9500   22.0470 N   0  0  0  0  0  0  0  0  0  0  0  0
  -28.4300  -25.7500   20.0410 C   0  0  0  0  0  2  0  0  0  0  0  0
  -28.3010  -27.0330   19.4090 O   0  0  0  0  0  0  0  0  0  0  0  0
  -24.4890  -31.7430   23.1130 C   0  0  0  0  0  0  0  0  0  0  0  0
  -27.0920  -27.6740   19.5450 C   0  0  0  0  0  0  0  0  0  0  0  0
  -23.2390  -30.4610   21.4010 C   0  0  0  0  0  3  0  0  0  0  0  0
  -24.6600  -29.0860   19.7880 C   0  0  0  0  0  0  0  0  0  0  0  0
  -25.7390  -30.9020   21.1280 C   0  0  0  0  0  2  0  0  0  0  0  0
  -25.8240  -29.5960   20.3710 C   0  0  0  0  0  0  0  0  0  0  0  0
  -27.0430  -28.8940   20.2480 C   0  0  0  0  0  3  0  0  0  0  0  0
  -25.9120  -27.1650   18.9630 C   0  0  0  0  0  3  0  0  0  0  0  0
  -24.6950  -27.8660   19.0840 C   0  0  0  0  0  3  0  0  0  0  0  0
  -23.4020  -29.9070   19.9590 C   0  0  0  0  0  2  0  0  0  0  0  0
  -24.5090  -31.0450   21.9420 N   0  0  0  0  0  0  0  0  0  0  0  0
  -23.4280  -31.9460   23.7210 O   0  0  0  0  0  0  0  0  0  0  0  0
  -22.6490  -29.3460   22.2940 C   0  0  0  0  0  0  0  0  0  0  0  0
  -21.3290  -29.1320   22.1900 N   0  0  0  0  0  0  0  0  0  0  0  0
  -23.3770  -28.6770   23.0340 O   0  0  0  0  0  0  0  0  0  0  0  0
  -20.8020  -29.7300   21.5690 H   0  0  0  0  0  0  0  0  0  0  0  0
  -18.0060  -27.8040   22.6740 C   0  0  0  0  0  0  0  0  0  0  0  0
  -20.5630  -28.1090   22.9010 C   0  0  0  0  0  3  0  0  0  0  0  0
  -20.6870  -26.7360   22.2010 C   0  0  0  0  0  2  0  0  0  0  0  0
  -19.5670  -26.4690   21.1920 C   0  0  0  0  0  2  0  0  0  0  0  0
  -18.2010  -26.5200   21.8840 C   0  0  0  0  0  2  0  0  0  0  0  0
  -19.1160  -28.5580   23.1360 C   0  0  0  0  0  0  0  0  0  0  0  0
  -18.8830  -29.7650   23.8320 C   0  0  0  0  0  3  0  0  0  0  0  0
  -17.5720  -30.2120   24.0750 C   0  0  0  0  0  3  0  0  0  0  0  0
  -16.4760  -29.4530   23.6290 C   0  0  0  0  0  3  0  0  0  0  0  0
  -16.6940  -28.2510   22.9310 C   0  0  0  0  0  3  0  0  0  0  0  0
  -25.7900  -32.3440   23.7310 C   0  0  0  0  0  3  0  0  0  0  0  0
  -25.5000  -33.7300   24.1110 N   0  0  0  0  0  0  0  0  0  0  0  0
  -25.8060  -34.8030   23.3660 C   0  0  0  0  0  0  0  0  0  0  0  0
  -26.4310  -34.7250   22.3030 O   0  0  0  0  0  0  0  0  0  0  0  0
  -24.9350  -33.8630   24.9360 H   0  0  0  0  0  0  0  0  0  0  0  0
  -24.0740  -36.6100   23.1270 C   0  0  0  0  0  1  0  0  0  0  0  0
  -25.3420  -36.1780   23.8810 C   0  0  0  0  0  3  0  0  0  0  0  0
  -27.4950  -37.0470   24.6800 C   0  0  0  0  0  1  0  0  0  0  0  0
  -26.3730  -37.2310   23.7640 N   0  0  0  0  0  0  0  0  0  0  0  0
  -25.9680  -38.1470   23.9380 H   0  0  0  0  0  0  0  0  0  0  0  0
  -26.3290  -31.5270   24.9680 C   0  0  1  0  0  0  0  0  0  0  0  0
  -25.2650  -31.2700   26.0580 C   0  0  0  0  0  1  0  0  0  0  0  0
  -26.8850  -30.1610   24.5070 C   0  0  0  0  0  1  0  0  0  0  0  0
  -27.5080  -32.2810   25.6230 C   0  0  0  0  0  1  0  0  0  0  0  0
  -29.5430  -27.0950   23.4440 C   0  0  0  0  0  2  0  0  0  0  0  0
  -31.1810  -28.9210   22.6760 C   0  0  0  0  0  1  0  0  0  0  0  0
  -31.1310  -28.1960   25.0840 C   0  0  0  0  0  1  0  0  0  0  0  0
  -30.9410  -27.7360   23.6270 C   0  0  0  0  0  3  0  0  0  0  0  0
  -32.6200  -23.4320   19.8570 C   0  0  0  0  0  2  0  0  0  0  0  0
  -33.2210  -22.4070   20.8310 C   0  0  0  0  0  2  0  0  0  0  0  0
  -34.1810  -21.4590   20.1170 C   0  0  0  0  0  0  0  0  0  0  0  0
  -33.7170  -20.2420   19.8090 N   0  0  0  0  0  0  0  0  0  0  0  0
  -35.3190  -21.8300   19.8270 O   0  0  0  0  0  0  0  0  0  0  0  0
  -32.7800  -19.9980   20.1020 H   0  0  0  0  0  0  0  0  0  0  0  0
  -34.4240  -19.2800   18.9660 C   0  0  0  0  0  2  0  0  0  0  0  0
  -33.4600  -18.3470   18.2090 C   0  0  0  0  0  2  0  0  0  0  0  0
  -32.3940  -19.0980   17.3920 C   0  0  0  0  0  2  0  0  0  0  0  0
  -31.3730  -18.1680   16.7040 C   0  0  0  0  0  2  0  0  0  0  0  0
  -30.1970  -18.9310   16.0640 C   0  0  0  0  0  2  0  0  0  0  0  0
  -30.9640  -20.0700   13.9860 C   0  0  0  0  0  0  0  0  0  0  0  0
  -30.6680  -20.0710   15.2850 N   0  0  0  0  0  0  0  0  0  0  0  0
  -30.7760  -19.0970   13.2500 O   0  0  0  0  0  0  0  0  0  0  0  0
  -30.8410  -20.9270   15.7950 H   0  0  0  0  0  0  0  0  0  0  0  0
  -31.5730  -21.3680   13.4510 C   0  0  0  0  0  2  0  0  0  0  0  0
  -31.9260  -21.3600   10.9830 C   0  0  0  0  0  0  0  0  0  0  0  0
  -31.9400  -21.4740    8.5180 C   0  0  0  0  0  2  0  0  0  0  0  0
  -32.2650  -22.8980    8.0310 C   0  0  0  0  0  2  0  0  0  0  0  0
  -30.9960  -23.7710    7.9770 C   0  0  0  0  0  2  0  0  0  0  0  0
  -30.1670  -23.6950    9.2860 C   0  0  0  0  0  3  0  0  0  0  0  0
  -29.9450  -22.2230    9.6890 C   0  0  0  0  0  2  0  0  0  0  0  0
  -31.2670  -21.5780    9.8180 N   0  0  0  0  0  0  0  0  0  0  0  0
  -33.0960  -20.9720   11.0520 O   0  0  0  0  0  0  0  0  0  0  0  0
  -31.1910  -21.6120   12.0690 N   0  0  0  0  0  0  0  0  0  0  0  0
  -30.2400  -21.9040   11.9080 H   0  0  0  0  0  0  0  0  0  0  0  0
  -28.5520  -25.6750    9.6250 C   0  0  0  0  0  0  0  0  0  0  0  0
  -27.2750  -25.8960    9.1810 C   0  0  0  0  0  0  0  0  0  0  0  0
  -26.9050  -24.7300    8.4450 C   0  0  0  0  0  0  0  0  0  0  0  0
  -28.9010  -24.4150    9.1610 N   0  0  0  0  0  0  0  0  0  0  0  0
  -27.8780  -23.8280    8.4910 N   0  0  0  0  0  0  0  0  0  0  0  0
  -25.7050  -24.4400    7.6510 C   0  0  0  0  0  0  0  0  0  0  0  0
  -24.8410  -23.3730    7.9820 C   0  0  0  0  0  3  0  0  0  0  0  0
  -23.6830  -23.1250    7.2130 C   0  0  0  0  0  3  0  0  0  0  0  0
  -23.3790  -23.9500    6.1030 C   0  0  0  0  0  0  0  0  0  0  0  0
  -24.2540  -24.9960    5.7640 C   0  0  0  0  0  3  0  0  0  0  0  0
  -25.4090  -25.2380    6.5290 C   0  0  0  0  0  3  0  0  0  0  0  0
  -22.2910  -23.7690    5.2840 O   0  0  0  0  0  0  0  0  0  0  0  0
  -21.1150  -23.2410    5.7550 C   0  0  0  0  0  0  0  0  0  0  0  0
  -20.3660  -23.8780    6.7680 C   0  0  0  0  0  3  0  0  0  0  0  0
  -19.1270  -23.3390    7.1710 C   0  0  0  0  0  3  0  0  0  0  0  0
  -18.6350  -22.1710    6.5620 C   0  0  0  0  0  0  0  0  0  0  0  0
  -19.3760  -21.5390    5.5490 C   0  0  0  0  0  3  0  0  0  0  0  0
  -20.6120  -22.0730    5.1460 C   0  0  0  0  0  0  0  0  0  0  0  0
  -21.3140  -21.4720    4.1550 F   0  0  0  0  0  0  0  0  0  0  0  0
  -17.4420  -21.6560    6.9440 F   0  0  0  0  0  0  0  0  0  0  0  0
  -26.4740  -27.1560    9.3510 C   0  0  0  0  0  0  0  0  0  0  0  0
  -25.1750  -27.0270    9.5920 N   0  0  0  0  0  0  0  0  0  0  0  0
  -27.0090  -28.2630    9.3140 O   0  0  0  0  0  0  0  0  0  0  0  0
  -24.7400  -26.1190    9.6410 H   0  0  0  0  0  0  0  0  0  0  0  0
  -24.6060  -27.8510    9.7310 H   0  0  0  0  0  0  0  0  0  0  0  0
  -29.4490  -26.4410   10.3620 N   0  0  0  0  0  0  0  0  0  0  0  0
  -29.2380  -27.3850   10.6670 H   0  0  0  0  0  0  0  0  0  0  0  0
  -30.3950  -26.1550   10.5880 H   0  0  0  0  0  0  0  0  0  0  0  0
  1  3  2  0
  1  2  1  0
  2  8  1  0
  3  6  1  0
  4  2  1  0
  5  3  1  0
  8  7  1  0
  9  8  1  0
  9 10  2  0
 10 53  1  0
 11  9  1  0
 12 14  1  0
 12 11  1  0
 13 24  2  0
 14 19  1  0
 15 23  1  0
 15 25  1  0
 16 22  1  0
 16 18  1  0
 17 23  1  0
 18 17  1  0
 19 18  2  0
 20 21  1  0
 20 14  2  0
 21 16  2  0
 22 15  1  0
 23 13  1  0
 25 27  2  0
 26 25  1  0
 28 26  1  0
 29 38  2  0
 29 34  1  0
 30 26  1  0
 30 34  1  0
 31 30  1  0
 32 33  1  0
 32 31  1  0
 33 29  1  0
 34 35  2  0
 35 36  1  0
 37 36  2  0
 38 37  1  0
 39 13  1  0
 39 40  1  0
 39 49  1  0
 40 43  1  0
 41 45  1  0
 41 40  1  0
 42 41  2  0
 45 44  1  0
 47 45  1  0
 47 48  1  0
 47 46  1  0
 49 52  1  1
 49 50  1  0
 51 49  1  0
 53 56  1  0
 54 56  1  0
 56 55  1  0
 57  1  1  0
 57 58  1  0
 59 58  1  0
 60 62  1  0
 60 59  1  0
 61 59  2  0
 63 60  1  0
 64 63  1  0
 65 64  1  0
 66 65  1  0
 67 66  1  0
 68 69  1  0
 69 71  1  0
 69 67  1  0
 70 68  2  0
 72 68  1  0
 73 80  2  0
 73 81  1  0
 74 79  1  0
 75 74  1  0
 76 75  1  0
 77 76  1  0
 77 78  1  0
 78 79  1  0
 79 73  1  0
 81 72  1  0
 82 81  1  0
 83108  1  0
 84103  1  0
 84 83  2  0
 85 87  2  0
 85 84  1  0
 86 77  1  0
 86 83  1  0
 87 86  1  0
 88 89  1  0
 88 85  1  0
 90 89  2  0
 91 90  1  0
 92 91  2  0
 92 93  1  0
 93 88  2  0
 94 95  1  0
 94 91  1  0
 95 96  1  0
 96 97  2  0
 98102  1  0
 98 97  1  0
 99 98  2  0
100 99  1  0
100 95  2  0
101100  1  0
103104  1  0
104106  1  0
104107  1  0
105103  2  0
108110  1  0
108109  1  0
M  ISO  4  11 101  12 101  73 100  81 100
M  END
>  <TORSDO>  (53) 
F 31

>  <SCORE>  (53) 
-6.141

>  <name>  (53) 
55

>  <ligand_id>  (53) 
55

>  <original_smiles>  (53) 
[H]c1c([H])c([H])c2c(c1[H])C([H])([H])C([H])([H])C([H])([H])C2([H])N([H])C(=O)C1([H])N(C(=O)C([H])(N([H])C(=O)C([H])(N([H])C([H])([H])[H])C([H])([H])[H])C(C([H])([H])[H])(C([H])([H])[H])C([H])([H])[H])C([H])([H])c2c([H])c(OC([H])([H])C(=NC([H])([H])C([H])(C([H])([H])[H])C([H])([H])[H])C([H])(N([H])C(=[N+]([H])[H])C([H])([H])C([H])([H])C(=O)N([H])C([H])([H])C([H])([H])C([H])([H])C([H])([H])C([H])([H])N([H])C(=O)C([H])([H])N([H])C(=O)N3C([H])([H])C([H])([H])C([H])([H])C([H])(n4nc(-c5c([H])c([H])c(Oc6c([H])c([H])c(F)c([H])c6F)c([H])c5[H])c(C(=O)N([H])[H])c4N([H])[H])C3([H])[H])C([H])([H])[H])c([H])c([H])c2C1([H])[H]

>  <smiles>  (53) 
[H]c1c([H])c([H])c2c(c1[H])C([H])([H])C([H])([H])C([H])([H])C2([H])N([H])C(=O)C1([H])N(C(=O)C([H])(N([H])C(=O)C([H])(N([H])C([H])([H])[H])C([H])([H])[H])C(C([H])([H])[H])(C([H])([H])[H])C([H])([H])[H])C([H])([H])c2c([H])c(OC([H])([H])C(=NC([H])([H])C([H])(C([H])([H])[H])C([H])([H])[H])C([H])(N([H])C(=[N+]([H])[H])C([H])([H])C([H])([H])C(=O)N([H])C([H])([H])C([H])([H])C([H])([H])C([H])([H])C([H])([H])N([H])C(=O)C([H])([H])N([H])C(=O)N3C([H])([H])C([H])([H])C([H])([H])C([H])(n4nc(-c5c([H])c([H])c(Oc6c([H])c([H])c(F)c([H])c6F)c([H])c5[H])c(C(=O)N([H])[H])c4N([H])[H])C3([H])[H])C([H])([H])[H])c([H])c([H])c2C1([H])[H]

$$$$
56:0:0
     RDKit          3D

112119  0  0  1  0  0  0  0  0999 V2000
  -29.3750  -17.4300   20.8140 C   0  0  0  0  0  0  0  0  0  0  0  0
  -29.2980  -18.5870   21.4790 N   0  0  0  0  0  0  0  0  0  0  0  0
  -29.8830  -16.4190   21.3100 O   0  0  0  0  0  0  0  0  0  0  0  0
  -28.8880  -19.3800   21.0040 H   0  0  0  0  0  0  0  0  0  0  0  0
  -29.8150  -18.8030   22.8330 C   0  0  0  0  0  2  0  0  0  0  0  0
  -31.0790  -19.6760   22.8840 C   0  0  0  0  0  0  0  0  0  0  0  0
  -31.5100  -20.2160   21.7400 N   0  0  0  0  0  0  0  0  0  0  0  0
  -31.6360  -19.8750   23.9670 O   0  0  0  0  0  0  0  0  0  0  0  0
  -30.9390  -20.0680   20.9190 H   0  0  0  0  0  0  0  0  0  0  0  0
  -32.5440  -21.2340   21.6050 C   0  0  0  0  0  2  0  0  0  0  0  0
  -31.9710  -22.4490   20.8700 C   0  0  0  0  0  0  0  0  0  0  0  0
  -32.3460  -23.6500   21.3190 N   0  0  0  0  0  0  0  0  0  0  0  0
  -31.2040  -22.2980   19.9140 O   0  0  0  0  0  0  0  0  0  0  0  0
  -32.9840  -23.6860   22.1030 H   0  0  0  0  0  0  0  0  0  0  0  0
  -31.9330  -24.9260   20.7580 C   0  0  0  0  0  2  0  0  0  0  0  0
  -32.5180  -25.1080   19.3510 C   0  0  0  0  0  2  0  0  0  0  0  0
  -32.0240  -26.3310   18.8250 O   0  0  0  0  0  0  0  0  0  0  0  0
  -25.8670  -28.4900   21.6480 C   0  0  0  0  0  0  0  0  0  0  0  0
  -30.6690  -26.4720   18.6550 C   0  0  0  0  0  0  0  0  0  0  0  0
  -25.7070  -27.3820   19.4410 C   0  0  0  0  0  3  0  0  0  0  0  0
  -27.9230  -26.9560   18.2560 C   0  0  0  0  0  0  0  0  0  0  0  0
  -27.8470  -28.5960   20.1490 C   0  0  0  0  0  2  0  0  0  0  0  0
  -28.6120  -27.6280   19.2720 C   0  0  0  0  0  0  0  0  0  0  0  0
  -29.9860  -27.3980   19.4680 C   0  0  0  0  0  3  0  0  0  0  0  0
  -29.9620  -25.7850   17.6450 C   0  0  0  0  0  3  0  0  0  0  0  0
  -28.5910  -26.0250   17.4440 C   0  0  0  0  0  3  0  0  0  0  0  0
  -26.4590  -27.2930   18.0870 C   0  0  0  0  0  2  0  0  0  0  0  0
  -26.4690  -28.1570   20.4730 N   0  0  0  0  0  0  0  0  0  0  0  0
  -24.6820  -28.2040   21.8650 O   0  0  0  0  0  0  0  0  0  0  0  0
  -25.3500  -25.9500   19.8980 C   0  0  0  0  0  0  0  0  0  0  0  0
  -24.2000  -25.4390   19.4250 N   0  0  0  0  0  0  0  0  0  0  0  0
  -26.1110  -25.3140   20.6320 O   0  0  0  0  0  0  0  0  0  0  0  0
  -23.6260  -26.0260   18.8350 H   0  0  0  0  0  0  0  0  0  0  0  0
  -21.2830  -23.3360   19.1250 C   0  0  0  0  0  0  0  0  0  0  0  0
  -23.6850  -24.0980   19.6930 C   0  0  0  0  0  3  0  0  0  0  0  0
  -24.1500  -23.0950   18.6120 C   0  0  0  0  0  2  0  0  0  0  0  0
  -23.1520  -22.9430   17.4620 C   0  0  0  0  0  2  0  0  0  0  0  0
  -21.7960  -22.4640   17.9900 C   0  0  0  0  0  2  0  0  0  0  0  0
  -22.1690  -24.1140   19.9140 C   0  0  0  0  0  0  0  0  0  0  0  0
  -21.6400  -24.9360   20.9320 C   0  0  0  0  0  3  0  0  0  0  0  0
  -20.2520  -24.9870   21.1690 C   0  0  0  0  0  3  0  0  0  0  0  0
  -19.3820  -24.1990   20.3970 C   0  0  0  0  0  3  0  0  0  0  0  0
  -19.8950  -23.3730   19.3820 C   0  0  0  0  0  3  0  0  0  0  0  0
  -26.6300  -29.2770   22.7610 C   0  0  0  0  0  3  0  0  0  0  0  0
  -27.2150  -28.3450   23.8950 C   0  0  1  0  0  0  0  0  0  0  0  0
  -26.1920  -27.3270   24.4550 C   0  0  0  0  0  1  0  0  0  0  0  0
  -28.4320  -27.5430   23.3770 C   0  0  0  0  0  1  0  0  0  0  0  0
  -27.7230  -29.2070   25.0740 C   0  0  0  0  0  1  0  0  0  0  0  0
  -25.6950  -30.2590   23.3270 N   0  0  0  0  0  0  0  0  0  0  0  0
  -25.6830  -31.5610   23.0210 C   0  0  0  0  0  0  0  0  0  0  0  0
  -26.5220  -32.0820   22.2790 O   0  0  0  0  0  0  0  0  0  0  0  0
  -24.9490  -29.8920   23.8990 H   0  0  0  0  0  0  0  0  0  0  0  0
  -23.4530  -32.6430   22.6040 C   0  0  0  0  0  1  0  0  0  0  0  0
  -24.5690  -32.4270   23.6380 C   0  0  0  0  0  3  0  0  0  0  0  0
  -25.8820  -33.6300   25.3280 C   0  0  0  0  0  1  0  0  0  0  0  0
  -25.0450  -33.7360   24.1350 N   0  0  0  0  0  0  0  0  0  0  0  0
  -24.2610  -34.3460   24.3520 H   0  0  0  0  0  0  0  0  0  0  0  0
  -28.8710  -17.4090   19.3650 C   0  0  0  0  0  2  0  0  0  0  0  0
  -30.8880  -17.1790   17.9680 C   0  0  0  0  0  0  0  0  0  0  0  0
  -29.8330  -16.6370   18.5870 N   0  0  0  0  0  0  0  0  0  0  0  0
  -30.9110  -18.3580   17.6120 O   0  0  0  0  0  0  0  0  0  0  0  0
  -29.9140  -15.6590   18.8400 H   0  0  0  0  0  0  0  0  0  0  0  0
  -32.1430  -16.2950   17.8980 C   0  0  0  0  0  3  0  0  0  0  0  0
  -32.4330  -14.0880   19.0160 C   0  0  0  0  0  0  0  0  0  0  0  0
  -32.0630  -15.3680   19.0360 N   0  0  0  0  0  0  0  0  0  0  0  0
  -33.1310  -13.6260   18.1130 O   0  0  0  0  0  0  0  0  0  0  0  0
  -31.4690  -15.6610   19.8000 H   0  0  0  0  0  0  0  0  0  0  0  0
  -31.8800  -13.1740   20.1190 C   0  0  0  0  0  2  0  0  0  0  0  0
  -32.9570  -11.0330   21.0190 C   0  0  0  0  0  0  0  0  0  0  0  0
  -31.9730   -8.8080   21.2230 C   0  0  0  0  0  2  0  0  0  0  0  0
  -31.0230   -8.5190   20.0410 C   0  0  0  0  0  2  0  0  0  0  0  0
  -29.6130   -9.0810   20.3120 C   0  0  0  0  0  2  0  0  0  0  0  0
  -29.6240  -10.5400   20.8210 C   0  0  0  0  0  3  0  0  0  0  0  0
  -30.6440  -10.7130   21.9710 C   0  0  0  0  0  2  0  0  0  0  0  0
  -31.9440  -10.2570   21.4730 N   0  0  0  0  0  0  0  0  0  0  0  0
  -34.1120  -10.6250   20.9180 O   0  0  0  0  0  0  0  0  0  0  0  0
  -32.6050  -11.9100   20.0720 N   0  0  0  0  0  0  0  0  0  0  0  0
  -33.2380  -11.8910   19.2870 H   0  0  0  0  0  0  0  0  0  0  0  0
  -27.7860  -12.2700   21.3150 C   0  0  0  0  0  0  0  0  0  0  0  0
  -26.4540  -12.1290   21.6020 C   0  0  0  0  0  0  0  0  0  0  0  0
  -26.2060  -10.7260   21.6280 C   0  0  0  0  0  0  0  0  0  0  0  0
  -28.2870  -10.9840   21.1960 N   0  0  0  0  0  0  0  0  0  0  0  0
  -27.3330  -10.0520   21.4370 N   0  0  0  0  0  0  0  0  0  0  0  0
  -24.9470   -9.9850   21.7590 C   0  0  0  0  0  0  0  0  0  0  0  0
  -24.8780   -8.7730   22.4810 C   0  0  0  0  0  3  0  0  0  0  0  0
  -23.6510   -8.0890   22.6060 C   0  0  0  0  0  3  0  0  0  0  0  0
  -22.4780   -8.6130   22.0110 C   0  0  0  0  0  0  0  0  0  0  0  0
  -22.5610   -9.8060   21.2690 C   0  0  0  0  0  3  0  0  0  0  0  0
  -23.7830  -10.4850   21.1430 C   0  0  0  0  0  3  0  0  0  0  0  0
  -21.2490   -8.0010   22.0640 O   0  0  0  0  0  0  0  0  0  0  0  0
  -20.9940   -6.9730   22.9360 C   0  0  0  0  0  0  0  0  0  0  0  0
  -21.0390   -7.1530   24.3360 C   0  0  0  0  0  3  0  0  0  0  0  0
  -20.7060   -6.0860   25.1940 C   0  0  0  0  0  3  0  0  0  0  0  0
  -20.3170   -4.8440   24.6550 C   0  0  0  0  0  0  0  0  0  0  0  0
  -20.2570   -4.6690   23.2610 C   0  0  0  0  0  3  0  0  0  0  0  0
  -20.5950   -5.7300   22.4040 C   0  0  0  0  0  0  0  0  0  0  0  0
  -20.5240   -5.5590   21.0610 F   0  0  0  0  0  0  0  0  0  0  0  0
  -19.9820   -3.8220   25.4770 F   0  0  0  0  0  0  0  0  0  0  0  0
  -25.4540  -13.2360   21.7350 C   0  0  0  0  0  0  0  0  0  0  0  0
  -24.4640  -13.0680   22.6060 N   0  0  0  0  0  0  0  0  0  0  0  0
  -25.5740  -14.2830   21.1010 O   0  0  0  0  0  0  0  0  0  0  0  0
  -24.3590  -12.2110   23.1300 H   0  0  0  0  0  0  0  0  0  0  0  0
  -23.7920  -13.8070   22.7490 H   0  0  0  0  0  0  0  0  0  0  0  0
  -28.5790  -13.3900   21.1060 N   0  0  0  0  0  0  0  0  0  0  0  0
  -27.9960  -14.1500   20.7750 H   0  0  0  0  0  0  0  0  0  0  0  0
  -29.3720  -13.2310   20.4980 H   0  0  0  0  0  0  0  0  0  0  0  0
  -33.5130  -17.0300   17.8080 C   0  0  0  0  0  2  0  0  0  0  0  0
  -33.8570  -17.4780   16.3820 C   0  0  0  0  0  0  0  0  0  0  0  0
  -33.2320  -18.5400   15.8850 N   0  0  0  0  0  0  0  0  0  0  0  0
  -34.7240  -16.8920   15.7380 O   0  0  0  0  0  0  0  0  0  0  0  0
  -32.5380  -19.0270   16.4370 H   0  0  0  0  0  0  0  0  0  0  0  0
  -33.4470  -18.8840   14.9570 H   0  0  0  0  0  0  0  0  0  0  0  0
  1  3  2  0
  1  2  1  0
  2  5  1  0
  4  2  1  0
  5  6  1  0
  6  8  2  0
  7  6  1  0
  9  7  1  0
 10  7  1  0
 11 12  1  0
 11 10  1  0
 12 14  1  0
 13 11  2  0
 15 12  1  0
 16 15  1  0
 17 16  1  0
 18 29  2  0
 19 17  1  0
 19 24  1  0
 20 30  1  0
 20 28  1  0
 21 23  1  0
 22 28  1  0
 23 24  2  0
 23 22  1  0
 25 19  2  0
 26 25  1  0
 26 21  2  0
 27 21  1  0
 27 20  1  0
 28 18  1  0
 30 32  2  0
 31 30  1  0
 33 31  1  0
 34 43  2  0
 34 39  1  0
 35 31  1  0
 35 39  1  0
 36 35  1  0
 37 38  1  0
 37 36  1  0
 38 34  1  0
 39 40  2  0
 40 41  1  0
 42 41  2  0
 43 42  1  0
 44 18  1  0
 44 49  1  0
 44 45  1  0
 45 46  1  1
 45 48  1  0
 47 45  1  0
 49 52  1  0
 50 49  1  0
 50 54  1  0
 51 50  2  0
 54 53  1  0
 54 56  1  0
 56 57  1  0
 56 55  1  0
 58  1  1  0
 59 60  1  0
 60 62  1  0
 60 58  1  0
 61 59  2  0
 63107  1  0
 63 59  1  0
 63 65  1  0
 64 65  1  0
 64 68  1  0
 65 67  1  0
 66 64  2  0
 69 75  1  0
 70 75  1  0
 71 72  1  0
 71 70  1  0
 73 72  1  0
 73 82  1  0
 73 74  1  0
 75 74  1  0
 76 69  2  0
 77 68  1  0
 77 69  1  0
 78 77  1  0
 79 80  2  0
 80 81  1  0
 80 99  1  0
 81 84  1  0
 82 79  1  0
 82 83  1  0
 83 81  2  0
 84 85  1  0
 85 86  2  0
 87 90  1  0
 87 86  1  0
 88 87  2  0
 89 88  1  0
 89 84  2  0
 90 91  1  0
 91 92  1  0
 92 93  2  0
 94 93  1  0
 94 98  1  0
 95 94  2  0
 96 91  2  0
 96 95  1  0
 97 96  1  0
 99100  1  0
100103  1  0
100102  1  0
101 99  2  0
104 79  1  0
105104  1  0
106104  1  0
108107  1  0
109108  1  0
109111  1  0
110108  2  0
112109  1  0
M  ISO  4  16 101  17 101  69 100  77 100
M  END
>  <TORSDO>  (54) 
F 29

>  <SCORE>  (54) 
-2.215

>  <name>  (54) 
56

>  <ligand_id>  (54) 
56

>  <original_smiles>  (54) 
[H]c1c([H])c([H])c2c(c1[H])C([H])([H])C([H])([H])C([H])([H])C2([H])N([H])C(=O)C1([H])N(C(=O)C([H])(N([H])C(=O)C([H])(N([H])C([H])([H])[H])C([H])([H])[H])C(C([H])([H])[H])(C([H])([H])[H])C([H])([H])[H])C([H])([H])c2c([H])c(OC([H])([H])C([H])([H])N([H])C(=O)C([H])([H])N([H])C(=O)C([H])([H])N([H])C(=O)C([H])([H])N([H])C(=O)C([H])(N([H])C(=O)C([H])([H])N([H])C(=O)N3C([H])([H])C([H])([H])C([H])([H])C([H])(n4nc(-c5c([H])c([H])c(Oc6c([H])c([H])c(F)c([H])c6F)c([H])c5[H])c(C(=O)N([H])[H])c4N([H])[H])C3([H])[H])C([H])([H])C(=O)N([H])[H])c([H])c([H])c2C1([H])[H]

>  <smiles>  (54) 
[H]c1c([H])c([H])c2c(c1[H])C([H])([H])C([H])([H])C([H])([H])C2([H])N([H])C(=O)C1([H])N(C(=O)C([H])(N([H])C(=O)C([H])(N([H])C([H])([H])[H])C([H])([H])[H])C(C([H])([H])[H])(C([H])([H])[H])C([H])([H])[H])C([H])([H])c2c([H])c(OC([H])([H])C([H])([H])N([H])C(=O)C([H])([H])N([H])C(=O)C([H])([H])N([H])C(=O)C([H])([H])N([H])C(=O)C([H])(N([H])C(=O)C([H])([H])N([H])C(=O)N3C([H])([H])C([H])([H])C([H])([H])C([H])(n4nc(-c5c([H])c([H])c(Oc6c([H])c([H])c(F)c([H])c6F)c([H])c5[H])c(C(=O)N([H])[H])c4N([H])[H])C3([H])[H])C([H])([H])C(=O)N([H])[H])c([H])c([H])c2C1([H])[H]

$$$$
58:0:0
     RDKit          3D

109116  0  0  1  0  0  0  0  0999 V2000
  -26.9680  -20.4100   17.1700 C   0  0  0  0  0  3  0  0  0  0  0  0
  -25.5470  -20.8310   17.3730 C   0  0  0  0  0  0  0  0  0  0  0  0
  -25.2910  -21.3940   18.5470 N   0  0  0  0  0  4  0  0  0  0  0  0
  -24.7170  -20.6750   16.4470 O   0  0  0  0  0  0  0  0  0  0  0  0
  -24.3230  -21.6290   18.5800 H   0  0  0  0  0  0  0  0  0  0  0  0
  -25.9630  -21.8650   19.7990 C   0  0  0  0  0  0  0  0  0  0  0  0
  -27.5310  -21.5940   20.1880 C   0  0  0  0  0  0  0  0  0  0  0  0
  -28.1280  -20.3220   20.2140 N   0  0  0  0  0  0  0  0  0  0  0  0
  -28.2310  -22.5720   20.3700 O   0  0  0  0  0  0  0  0  0  0  0  0
  -27.5100  -19.5090   20.1350 H   0  0  0  0  0  0  0  0  0  0  0  0
  -29.5610  -19.7910   20.1400 C   0  0  0  0  0  2  0  0  0  0  0  0
  -29.6250  -18.1730   19.9630 C   0  0  0  0  0  3  0  0  0  0  0  0
  -30.9570  -17.2810   20.0950 C   0  0  0  0  0  3  0  0  0  0  0  0
  -31.5730  -14.6140   19.8750 C   0  0  0  0  0  0  0  0  0  0  0  0
  -31.3650  -12.2010   19.1000 C   0  0  0  0  0  2  0  0  0  0  0  0
  -30.4610  -12.1360   17.8460 C   0  0  0  0  0  2  0  0  0  0  0  0
  -28.9840  -12.0390   18.2810 C   0  0  0  0  0  2  0  0  0  0  0  0
  -28.6480  -13.1080   19.3850 C   0  0  0  0  0  3  0  0  0  0  0  0
  -29.6600  -13.1220   20.5510 C   0  0  0  0  0  2  0  0  0  0  0  0
  -30.9630  -13.3660   19.9520 N   0  0  0  0  0  0  0  0  0  0  0  0
  -32.7080  -14.6790   19.4120 O   0  0  0  0  0  0  0  0  0  0  0  0
  -30.8080  -15.7400   20.2440 N   0  0  0  0  0  0  0  0  0  0  0  0
  -29.9560  -15.4840   20.6980 H   0  0  0  0  0  0  0  0  0  0  0  0
  -26.3220  -13.9540   20.1010 C   0  0  0  0  0  0  0  0  0  0  0  0
  -25.1780  -13.2720   20.5100 C   0  0  0  0  0  0  0  0  0  0  0  0
  -25.5380  -11.9020   20.5050 C   0  0  0  0  0  0  0  0  0  0  0  0
  -27.2810  -12.9700   19.8880 N   0  0  0  0  0  0  0  0  0  0  0  0
  -26.8120  -11.7330   20.1880 N   0  0  0  0  0  0  0  0  0  0  0  0
  -24.6970  -10.7130   20.7350 C   0  0  0  0  0  0  0  0  0  0  0  0
  -24.9780   -9.7980   21.7670 C   0  0  0  0  0  3  0  0  0  0  0  0
  -24.1450   -8.6760   21.9740 C   0  0  0  0  0  3  0  0  0  0  0  0
  -23.0150   -8.4710   21.1460 C   0  0  0  0  0  0  0  0  0  0  0  0
  -22.7530   -9.3810   20.1040 C   0  0  0  0  0  3  0  0  0  0  0  0
  -23.5880  -10.4930   19.8980 C   0  0  0  0  0  3  0  0  0  0  0  0
  -22.1640   -7.3920   21.2520 O   0  0  0  0  0  0  0  0  0  0  0  0
  -21.8760   -6.8190   22.4620 C   0  0  0  0  0  0  0  0  0  0  0  0
  -21.3150   -7.5630   23.5230 C   0  0  0  0  0  3  0  0  0  0  0  0
  -20.9710   -6.9210   24.7260 C   0  0  0  0  0  3  0  0  0  0  0  0
  -21.1790   -5.5370   24.8730 C   0  0  0  0  0  0  0  0  0  0  0  0
  -21.7330   -4.7930   23.8180 C   0  0  0  0  0  3  0  0  0  0  0  0
  -22.0810   -5.4310   22.6140 C   0  0  0  0  0  0  0  0  0  0  0  0
  -22.5950   -4.7070   21.5930 F   0  0  0  0  0  0  0  0  0  0  0  0
  -20.8420   -4.9170   26.0300 F   0  0  0  0  0  0  0  0  0  0  0  0
  -23.8370  -13.9030   20.7280 C   0  0  0  0  0  0  0  0  0  0  0  0
  -23.0640  -13.3210   21.6450 N   0  0  0  0  0  0  0  0  0  0  0  0
  -23.4930  -14.9150   20.1480 O   0  0  0  0  0  0  0  0  0  0  0  0
  -23.3670  -12.4930   22.1360 H   0  0  0  0  0  0  0  0  0  0  0  0
  -22.1650  -13.7060   21.8290 H   0  0  0  0  0  0  0  0  0  0  0  0
  -26.5810  -15.2920   19.9230 N   0  0  0  0  0  0  0  0  0  0  0  0
  -25.8140  -15.9360   20.0930 H   0  0  0  0  0  0  0  0  0  0  0  0
  -27.4220  -15.7580   19.5930 H   0  0  0  0  0  0  0  0  0  0  0  0
  -24.0260  -23.2810   20.9620 C   0  0  0  0  0  1  0  0  0  0  0  0
  -25.2550  -23.2760   20.0180 C   0  0  0  0  0  3  0  0  0  0  0  0
  -23.8970  -24.0000   17.5930 C   0  0  0  0  0  1  0  0  0  0  0  0
  -25.0260  -24.1750   18.7060 C   0  0  0  0  0  2  0  0  0  0  0  0
  -28.0100  -21.6440   17.2370 N   0  0  0  0  0  4  0  0  0  0  0  0
  -28.6360  -21.5640   18.0460 H   0  0  0  0  0  0  0  0  0  0  0  0
  -28.6120  -21.4970   16.4390 H   0  0  0  0  0  0  0  0  0  0  0  0
  -27.5360  -23.1630   17.1230 C   0  0  0  0  0  2  0  0  0  0  0  0
  -28.4470  -24.4750   17.6060 C   0  0  0  0  0  2  0  0  0  0  0  0
  -28.5550  -25.4800   18.9450 C   0  0  0  0  0  2  0  0  0  0  0  0
  -28.6290  -26.9980   19.0340 O   0  0  0  0  0  0  0  0  0  0  0  0
  -24.7970  -31.8060   23.1760 C   0  0  0  0  0  0  0  0  0  0  0  0
  -27.5250  -27.7940   19.3910 C   0  0  0  0  0  0  0  0  0  0  0  0
  -23.5910  -30.6040   21.3390 C   0  0  0  0  0  3  0  0  0  0  0  0
  -25.1120  -29.2880   19.7300 C   0  0  0  0  0  0  0  0  0  0  0  0
  -26.1450  -31.0320   21.1870 C   0  0  0  0  0  2  0  0  0  0  0  0
  -26.2860  -29.7580   20.3750 C   0  0  0  0  0  0  0  0  0  0  0  0
  -27.5160  -29.0490   20.1520 C   0  0  0  0  0  3  0  0  0  0  0  0
  -26.2950  -27.3590   18.8440 C   0  0  0  0  0  3  0  0  0  0  0  0
  -25.1550  -28.1340   18.9460 C   0  0  0  0  0  3  0  0  0  0  0  0
  -23.8300  -30.0920   19.8860 C   0  0  0  0  0  2  0  0  0  0  0  0
  -24.8460  -31.1620   21.9520 N   0  0  0  0  0  0  0  0  0  0  0  0
  -23.7390  -31.9510   23.7930 O   0  0  0  0  0  0  0  0  0  0  0  0
  -22.9500  -29.4810   22.2020 C   0  0  0  0  0  0  0  0  0  0  0  0
  -21.6400  -29.2000   21.9960 N   0  0  0  0  0  0  0  0  0  0  0  0
  -23.6100  -28.8450   23.0320 O   0  0  0  0  0  0  0  0  0  0  0  0
  -21.1210  -29.5200   21.1720 H   0  0  0  0  0  0  0  0  0  0  0  0
  -18.4290  -27.7400   22.7050 C   0  0  0  0  0  0  0  0  0  0  0  0
  -20.9820  -28.1570   22.7700 C   0  0  0  0  0  3  0  0  0  0  0  0
  -21.1480  -26.8790   21.9220 C   0  0  0  0  0  2  0  0  0  0  0  0
  -19.9210  -26.6510   20.9990 C   0  0  0  0  0  2  0  0  0  0  0  0
  -18.6810  -26.4670   21.9090 C   0  0  0  0  0  2  0  0  0  0  0  0
  -19.5390  -28.5160   23.1300 C   0  0  0  0  0  0  0  0  0  0  0  0
  -19.3070  -29.7080   23.8650 C   0  0  0  0  0  3  0  0  0  0  0  0
  -18.0120  -30.1520   24.1460 C   0  0  0  0  0  3  0  0  0  0  0  0
  -16.9230  -29.3850   23.7020 C   0  0  0  0  0  3  0  0  0  0  0  0
  -17.1370  -28.1840   22.9780 C   0  0  0  0  0  3  0  0  0  0  0  0
  -26.0800  -32.4260   23.8770 C   0  0  0  0  0  3  0  0  0  0  0  0
  -25.7130  -33.7520   24.4210 N   0  0  0  0  0  0  0  0  0  0  0  0
  -25.9420  -34.9190   23.7990 C   0  0  0  0  0  0  0  0  0  0  0  0
  -26.5880  -35.0040   22.7440 O   0  0  0  0  0  0  0  0  0  0  0  0
  -25.1800  -33.7570   25.2910 H   0  0  0  0  0  0  0  0  0  0  0  0
  -24.1270  -36.6640   23.7260 C   0  0  0  0  0  1  0  0  0  0  0  0
  -25.3990  -36.2140   24.4700 C   0  0  0  0  0  3  0  0  0  0  0  0
  -27.5080  -37.0800   25.3770 C   0  0  0  0  0  1  0  0  0  0  0  0
  -26.3770  -37.3270   24.4690 N   0  0  0  0  0  0  0  0  0  0  0  0
  -25.9320  -38.1970   24.7540 H   0  0  0  0  0  0  0  0  0  0  0  0
  -26.6580  -31.5400   25.0390 C   0  0  1  0  0  0  0  0  0  0  0  0
  -25.6420  -31.0970   26.1180 C   0  0  0  0  0  1  0  0  0  0  0  0
  -27.3120  -30.2720   24.4640 C   0  0  0  0  0  1  0  0  0  0  0  0
  -27.7850  -32.3050   25.7880 C   0  0  0  0  0  1  0  0  0  0  0  0
  -26.9790  -18.7280   17.5040 C   0  0  0  0  0  2  0  0  0  0  0  0
  -25.8800  -17.9430   18.4770 C   0  0  0  0  0  2  0  0  0  0  0  0
  -26.0590  -17.6490   20.0100 C   0  0  0  0  0  0  0  0  0  0  0  0
  -24.9700  -17.6920   20.8080 N   0  0  0  0  0  0  0  0  0  0  0  0
  -27.1700  -17.4590   20.5000 O   0  0  0  0  0  0  0  0  0  0  0  0
  -23.9910  -17.8170   20.5370 H   0  0  0  0  0  0  0  0  0  0  0  0
  -25.0980  -17.8320   21.8180 H   0  0  0  0  0  0  0  0  0  0  0  0
  1 56  1  0
  1  2  1  0
  1103  1  0
  2  3  1  0
  3  5  1  0
  3  6  2  0
  4  2  2  0
  6 53  1  0
  6  7  1  0
  7  8  1  0
  7  9  2  0
 10  8  1  0
 11  8  1  0
 12 13  2  0
 12 11  1  0
 13 22  1  0
 14 20  1  0
 14 22  1  0
 15 20  1  0
 16 17  1  0
 16 15  1  0
 18 17  1  0
 18 27  1  0
 18 19  1  0
 20 19  1  0
 21 14  2  0
 22 23  1  0
 24 25  2  0
 25 44  1  0
 26 25  1  0
 26 29  1  0
 27 24  1  0
 27 28  1  0
 28 26  2  0
 29 30  1  0
 30 31  2  0
 32 35  1  0
 32 31  1  0
 33 32  2  0
 34 33  1  0
 34 29  2  0
 35 36  1  0
 36 41  2  0
 36 37  1  0
 37 38  2  0
 38 39  1  0
 39 43  1  0
 40 39  2  0
 41 40  1  0
 42 41  1  0
 44 45  1  0
 45 48  1  0
 45 47  1  0
 46 44  2  0
 49 50  1  0
 49 24  1  0
 51 49  1  0
 53 52  1  0
 54 55  1  0
 55 53  1  0
 56 57  1  0
 58 56  1  0
 59 56  1  0
 59 60  1  0
 60 61  1  0
 61 62  1  0
 62 64  1  0
 63 74  2  0
 64 69  1  0
 65 73  1  0
 65 75  1  0
 66 72  1  0
 66 68  1  0
 67 73  1  0
 68 67  1  0
 69 68  2  0
 70 71  1  0
 70 64  2  0
 71 66  2  0
 72 65  1  0
 73 63  1  0
 75 77  2  0
 76 75  1  0
 78 76  1  0
 79 88  2  0
 79 84  1  0
 80 76  1  0
 80 84  1  0
 81 80  1  0
 82 83  1  0
 82 81  1  0
 83 79  1  0
 84 85  2  0
 85 86  1  0
 87 86  2  0
 88 87  1  0
 89 63  1  0
 89 90  1  0
 89 99  1  0
 90 93  1  0
 91 90  1  0
 91 95  1  0
 92 91  2  0
 95 94  1  0
 97 95  1  0
 97 98  1  0
 97 96  1  0
 99102  1  1
 99100  1  0
101 99  1  0
103104  1  0
104105  1  0
105107  2  0
105106  1  0
106109  1  0
108106  1  0
M  ISO  4  14 100  22 100  61 101  62 101
M  END
>  <TORSDO>  (55) 
F 31

>  <SCORE>  (55) 
-6.223

>  <name>  (55) 
58

>  <ligand_id>  (55) 
58

>  <original_smiles>  (55) 
[H]c1c([H])c([H])c2c(c1[H])C([H])([H])C([H])([H])C([H])([H])C2([H])N([H])C(=O)C1([H])N(C(=O)C([H])(N([H])C(=O)C([H])(N([H])C([H])([H])[H])C([H])([H])[H])C(C([H])([H])[H])(C([H])([H])[H])C([H])([H])[H])C([H])([H])c2c([H])c(OC([H])([H])C([H])([H])C([H])([H])[N+]([H])([H])C([H])(C(=O)N([H])C([H])(C(=O)N([H])C([H])([H])C([H])([H])C([H])([H])N([H])C(=O)N3C([H])([H])C([H])([H])C([H])([H])C([H])(n4nc(-c5c([H])c([H])c(Oc6c([H])c([H])c(F)c([H])c6F)c([H])c5[H])c(C(=O)N([H])[H])c4N([H])[H])C3([H])[H])C([H])(C([H])([H])[H])C([H])([H])C([H])([H])[H])C([H])([H])C([H])([H])C(=O)N([H])[H])c([H])c([H])c2C1([H])[H]

>  <smiles>  (55) 
[H]c1c([H])c([H])c2c(c1[H])C([H])([H])C([H])([H])C([H])([H])C2([H])N([H])C(=O)C1([H])N(C(=O)C([H])(N([H])C(=O)C([H])(N([H])C([H])([H])[H])C([H])([H])[H])C(C([H])([H])[H])(C([H])([H])[H])C([H])([H])[H])C([H])([H])c2c([H])c(OC([H])([H])C([H])([H])C([H])([H])[N+]([H])([H])C([H])(C(=O)N([H])C([H])(C(=O)N([H])C([H])([H])C([H])([H])C([H])([H])N([H])C(=O)N3C([H])([H])C([H])([H])C([H])([H])C([H])(n4nc(-c5c([H])c([H])c(Oc6c([H])c([H])c(F)c([H])c6F)c([H])c5[H])c(C(=O)N([H])[H])c4N([H])[H])C3([H])[H])C([H])(C([H])([H])[H])C([H])([H])C([H])([H])[H])C([H])([H])C([H])([H])C(=O)N([H])[H])c([H])c([H])c2C1([H])[H]

$$$$
59:0:0
     RDKit          3D

108116  0  0  1  0  0  0  0  0999 V2000
  -29.1660  -20.4180   24.3540 C   0  0  0  0  0  2  0  0  0  0  0  0
  -28.8970  -19.2990   23.3350 C   0  0  0  0  0  2  0  0  0  0  0  0
  -29.9200  -19.2540   22.1780 C   0  0  0  0  0  3  0  0  0  0  0  0
  -29.7580  -17.9120   21.4630 C   0  0  0  0  0  0  0  0  0  0  0  0
  -30.8610  -17.1590   21.4640 N   0  0  0  0  0  0  0  0  0  0  0  0
  -28.6830  -17.5550   20.9780 O   0  0  0  0  0  0  0  0  0  0  0  0
  -31.7010  -17.5870   21.8330 H   0  0  0  0  0  0  0  0  0  0  0  0
  -30.9710  -15.7760   21.0600 C   0  0  0  0  0  2  0  0  0  0  0  0
  -32.1430  -15.1020   21.8000 C   0  0  0  0  0  2  0  0  0  0  0  0
  -32.2580  -12.7600   20.9250 C   0  0  0  0  0  0  0  0  0  0  0  0
  -31.5740  -10.6610   19.8150 C   0  0  0  0  0  2  0  0  0  0  0  0
  -30.6760  -10.9540   18.5960 C   0  0  0  0  0  2  0  0  0  0  0  0
  -29.2060  -11.1350   19.0270 C   0  0  0  0  0  2  0  0  0  0  0  0
  -29.0360  -12.1230   20.2130 C   0  0  0  0  0  3  0  0  0  0  0  0
  -30.0040  -11.7330   21.3530 C   0  0  0  0  0  2  0  0  0  0  0  0
  -31.3870  -11.7250   20.8150 N   0  0  0  0  0  0  0  0  0  0  0  0
  -33.2970  -12.8690   20.2610 O   0  0  0  0  0  0  0  0  0  0  0  0
  -31.8680  -13.6770   21.8120 N   0  0  0  0  0  0  0  0  0  0  0  0
  -31.0760  -13.4030   22.3730 H   0  0  0  0  0  0  0  0  0  0  0  0
  -26.8030  -13.2520   20.8640 C   0  0  0  0  0  0  0  0  0  0  0  0
  -25.6020  -12.7370   21.2560 C   0  0  0  0  0  0  0  0  0  0  0  0
  -25.7720  -11.3190   21.2790 C   0  0  0  0  0  0  0  0  0  0  0  0
  -27.6490  -12.1660   20.6810 N   0  0  0  0  0  0  0  0  0  0  0  0
  -27.0260  -10.9980   20.9890 N   0  0  0  0  0  0  0  0  0  0  0  0
  -24.7990  -10.2470   21.5200 C   0  0  0  0  0  0  0  0  0  0  0  0
  -25.0650   -9.1940   22.4250 C   0  0  0  0  0  3  0  0  0  0  0  0
  -24.1070   -8.1800   22.6440 C   0  0  0  0  0  3  0  0  0  0  0  0
  -22.8650   -8.2150   21.9660 C   0  0  0  0  0  0  0  0  0  0  0  0
  -22.6150   -9.2530   21.0490 C   0  0  0  0  0  3  0  0  0  0  0  0
  -23.5710  -10.2600   20.8280 C   0  0  0  0  0  3  0  0  0  0  0  0
  -21.8870   -7.2590   22.1010 O   0  0  0  0  0  0  0  0  0  0  0  0
  -21.7640   -6.5070   23.2440 C   0  0  0  0  0  0  0  0  0  0  0  0
  -21.5910   -7.1060   24.5120 C   0  0  0  0  0  3  0  0  0  0  0  0
  -21.4040   -6.2990   25.6520 C   0  0  0  0  0  3  0  0  0  0  0  0
  -21.3740   -4.8980   25.5260 C   0  0  0  0  0  0  0  0  0  0  0  0
  -21.5340   -4.2990   24.2640 C   0  0  0  0  0  3  0  0  0  0  0  0
  -21.7290   -5.1030   23.1250 C   0  0  0  0  0  0  0  0  0  0  0  0
  -21.8650   -4.5210   21.9100 F   0  0  0  0  0  0  0  0  0  0  0  0
  -21.1850   -4.1250   26.6200 F   0  0  0  0  0  0  0  0  0  0  0  0
  -24.3350  -13.5020   21.5120 C   0  0  0  0  0  0  0  0  0  0  0  0
  -23.4850  -13.0120   22.4070 N   0  0  0  0  0  0  0  0  0  0  0  0
  -24.1110  -14.5690   20.9410 O   0  0  0  0  0  0  0  0  0  0  0  0
  -23.6800  -12.1480   22.8890 H   0  0  0  0  0  0  0  0  0  0  0  0
  -22.6280  -13.5080   22.6150 H   0  0  0  0  0  0  0  0  0  0  0  0
  -27.2480  -14.5510   20.6300 N   0  0  0  0  0  0  0  0  0  0  0  0
  -26.6420  -15.3560   20.7400 H   0  0  0  0  0  0  0  0  0  0  0  0
  -28.1790  -14.7850   20.3160 H   0  0  0  0  0  0  0  0  0  0  0  0
  -30.5840  -20.8150   20.3710 C   0  0  0  0  0  0  0  0  0  0  0  0
  -29.7050  -20.3960   21.2950 N   0  0  0  0  0  0  0  0  0  0  0  0
  -31.5940  -20.1650   20.0940 O   0  0  0  0  0  0  0  0  0  0  0  0
  -28.8660  -20.9320   21.4530 H   0  0  0  0  0  0  0  0  0  0  0  0
  -29.5150  -21.9490   18.3970 C   0  0  0  0  0  1  0  0  0  0  0  0
  -29.5880  -23.1550   20.6320 C   0  0  0  0  0  2  0  0  0  0  0  0
  -31.6770  -22.8350   19.3040 C   0  0  0  0  0  1  0  0  0  0  0  0
  -30.3280  -22.1800   19.6840 C   0  0  1  0  0  0  0  0  0  0  0  0
  -30.0100  -21.5590   23.7670 C   0  0  0  0  0  2  0  0  0  0  0  0
  -30.3250  -22.7040   24.7440 C   0  0  0  0  0  2  0  0  0  0  0  0
  -30.4240  -24.2640   22.7760 C   0  0  0  0  0  3  0  0  0  0  0  0
  -30.2520  -24.0100   24.0810 N   0  0  0  0  0  0  0  0  0  0  0  0
  -30.8470  -23.4270   21.9750 O   0  0  0  0  0  0  0  0  0  0  0  0
  -29.9540  -24.7870   24.6560 H   0  0  0  0  0  0  0  0  0  0  0  0
  -30.0080  -25.6440   22.2740 C   0  0  0  0  0  2  0  0  0  0  0  0
  -28.3670  -26.4370   20.5850 C   0  0  0  0  0  0  0  0  0  0  0  0
  -28.8790  -25.4780   21.3650 N   0  0  0  0  0  0  0  0  0  0  0  0
  -28.8380  -27.5770   20.5550 O   0  0  0  0  0  0  0  0  0  0  0  0
  -28.4630  -24.5560   21.3440 H   0  0  0  0  0  0  0  0  0  0  0  0
  -27.1610  -26.0490   19.7160 C   0  0  0  0  0  2  0  0  0  0  0  0
  -26.8470  -27.1110   18.8200 O   0  0  0  0  0  0  0  0  0  0  0  0
  -24.3900  -31.8510   23.5280 C   0  0  0  0  0  0  0  0  0  0  0  0
  -25.8210  -27.9290   19.2190 C   0  0  0  0  0  0  0  0  0  0  0  0
  -22.7580  -31.0640   21.8400 C   0  0  0  0  0  3  0  0  0  0  0  0
  -23.7300  -29.6850   19.9270 C   0  0  0  0  0  0  0  0  0  0  0  0
  -25.2610  -31.0950   21.3170 C   0  0  0  0  0  2  0  0  0  0  0  0
  -25.0240  -29.9020   20.4160 C   0  0  0  0  0  0  0  0  0  0  0  0
  -26.0770  -29.0280   20.0630 C   0  0  0  0  0  3  0  0  0  0  0  0
  -24.5130  -27.7130   18.7330 C   0  0  0  0  0  3  0  0  0  0  0  0
  -23.4670  -28.5860   19.0880 C   0  0  0  0  0  3  0  0  0  0  0  0
  -22.6700  -30.6830   20.3390 C   0  0  0  0  0  2  0  0  0  0  0  0
  -24.1650  -31.3330   22.2860 N   0  0  0  0  0  0  0  0  0  0  0  0
  -23.4480  -32.1470   24.2760 O   0  0  0  0  0  0  0  0  0  0  0  0
  -22.0530  -29.9610   22.6570 C   0  0  0  0  0  0  0  0  0  0  0  0
  -20.7180  -29.8710   22.5120 N   0  0  0  0  0  0  0  0  0  0  0  0
  -22.7010  -29.1920   23.3730 O   0  0  0  0  0  0  0  0  0  0  0  0
  -20.2580  -30.5410   21.9110 H   0  0  0  0  0  0  0  0  0  0  0  0
  -17.3290  -28.6450   22.6760 C   0  0  0  0  0  0  0  0  0  0  0  0
  -19.8560  -28.8820   23.1600 C   0  0  0  0  0  3  0  0  0  0  0  0
  -20.0050  -27.4890   22.5080 C   0  0  0  0  0  2  0  0  0  0  0  0
  -18.9910  -27.2290   21.3890 C   0  0  0  0  0  2  0  0  0  0  0  0
  -17.5580  -27.3470   21.9220 C   0  0  0  0  0  2  0  0  0  0  0  0
  -18.4080  -29.3740   23.2440 C   0  0  0  0  0  0  0  0  0  0  0  0
  -18.1420  -30.5910   23.9090 C   0  0  0  0  0  3  0  0  0  0  0  0
  -16.8250  -31.0820   24.0060 C   0  0  0  0  0  3  0  0  0  0  0  0
  -15.7600  -30.3510   23.4530 C   0  0  0  0  0  3  0  0  0  0  0  0
  -16.0130  -29.1330   22.7990 C   0  0  0  0  0  3  0  0  0  0  0  0
  -25.8330  -32.1230   24.0560 C   0  0  0  0  0  3  0  0  0  0  0  0
  -26.3420  -31.0310   25.0720 C   0  0  1  0  0  0  0  0  0  0  0  0
  -25.3500  -30.7400   26.2250 C   0  0  0  0  0  1  0  0  0  0  0  0
  -26.6160  -29.7000   24.3310 C   0  0  0  0  0  1  0  0  0  0  0  0
  -27.6820  -31.4790   25.7020 C   0  0  0  0  0  1  0  0  0  0  0  0
  -25.8320  -33.4520   24.6790 N   0  0  0  0  0  0  0  0  0  0  0  0
  -26.3420  -34.5550   24.1150 C   0  0  0  0  0  0  0  0  0  0  0  0
  -26.9340  -34.5430   23.0320 O   0  0  0  0  0  0  0  0  0  0  0  0
  -25.3070  -33.5500   25.5350 H   0  0  0  0  0  0  0  0  0  0  0  0
  -25.0220  -36.6940   24.2460 C   0  0  0  0  0  1  0  0  0  0  0  0
  -26.1670  -35.8840   24.8760 C   0  0  0  0  0  3  0  0  0  0  0  0
  -28.4600  -36.1200   25.7160 C   0  0  0  0  0  1  0  0  0  0  0  0
  -27.3950  -36.7080   24.9080 N   0  0  0  0  0  0  0  0  0  0  0  0
  -27.1960  -37.6370   25.2700 H   0  0  0  0  0  0  0  0  0  0  0  0
  2  1  1  0
  3  4  1  0
  3  2  1  0
  4  5  1  0
  5  7  1  0
  6  4  2  0
  8  5  1  0
  8  9  1  0
  9 18  1  0
 10 18  1  0
 11 16  1  0
 12 13  1  0
 12 11  1  0
 14 13  1  0
 14 23  1  0
 14 15  1  0
 16 10  1  0
 16 15  1  0
 17 10  2  0
 18 19  1  0
 20 21  2  0
 21 22  1  0
 21 40  1  0
 22 25  1  0
 23 20  1  0
 23 24  1  0
 24 22  2  0
 25 26  1  0
 26 27  2  0
 28 31  1  0
 28 27  1  0
 29 28  2  0
 30 29  1  0
 30 25  2  0
 31 32  1  0
 32 33  1  0
 33 34  2  0
 35 34  1  0
 35 39  1  0
 36 35  2  0
 37 32  2  0
 37 36  1  0
 38 37  1  0
 40 41  1  0
 41 44  1  0
 41 43  1  0
 42 40  2  0
 45 46  1  0
 45 20  1  0
 47 45  1  0
 48 49  1  0
 49 51  1  0
 49  3  1  0
 50 48  2  0
 55 52  1  6
 53 60  1  0
 54 55  1  0
 55 48  1  0
 55 53  1  0
 56  1  1  0
 56 57  1  0
 58 62  1  0
 58 59  1  0
 59 61  1  0
 59 57  1  0
 60 58  1  0
 63 64  1  0
 64 62  1  0
 65 63  2  0
 66 64  1  0
 67 63  1  0
 68 70  1  0
 68 67  1  0
 69 80  2  0
 70 75  1  0
 71 79  1  0
 71 81  1  0
 72 78  1  0
 72 74  1  0
 73 79  1  0
 74 73  1  0
 75 74  2  0
 76 77  1  0
 76 70  2  0
 77 72  2  0
 78 71  1  0
 79 69  1  0
 81 83  2  0
 82 81  1  0
 84 82  1  0
 85 94  2  0
 85 90  1  0
 86 82  1  0
 86 90  1  0
 87 86  1  0
 88 89  1  0
 88 87  1  0
 89 85  1  0
 90 91  2  0
 91 92  1  0
 93 92  2  0
 94 93  1  0
 95 69  1  0
 95100  1  0
 95 96  1  0
 96 99  1  1
 96 97  1  0
 98 96  1  0
100103  1  0
101100  1  0
101105  1  0
102101  2  0
105104  1  0
105107  1  0
107108  1  0
107106  1  0
M  ISO  4  10 100  18 100  67 101  68 101
M  END
>  <TORSDO>  (56) 
F 29

>  <SCORE>  (56) 
0.480

>  <name>  (56) 
59

>  <ligand_id>  (56) 
59

>  <original_smiles>  (56) 
[H]c1c([H])c([H])c2c(c1[H])C([H])([H])C([H])([H])C([H])([H])C2([H])N([H])C(=O)C1([H])N(C(=O)C([H])(N([H])C(=O)C([H])(N([H])C([H])([H])[H])C([H])([H])[H])C(C([H])([H])[H])(C([H])([H])[H])C([H])([H])[H])C([H])([H])c2c([H])c(OC([H])([H])C(=O)N([H])C([H])([H])C(=O)N([H])C([H])([H])C([H])([H])C([H])([H])C([H])([H])C([H])(C(=O)N([H])C([H])([H])C([H])([H])N([H])C(=O)N3C([H])([H])C([H])([H])C([H])([H])C([H])(n4nc(-c5c([H])c([H])c(Oc6c([H])c([H])c(F)c([H])c6F)c([H])c5[H])c(C(=O)N([H])[H])c4N([H])[H])C3([H])[H])N([H])C(=O)C(C([H])([H])[H])(C([H])([H])[H])C([H])([H])[H])c([H])c([H])c2C1([H])[H]

>  <smiles>  (56) 
[H]c1c([H])c([H])c2c(c1[H])C([H])([H])C([H])([H])C([H])([H])C2([H])N([H])C(=O)C1([H])N(C(=O)C([H])(N([H])C(=O)C([H])(N([H])C([H])([H])[H])C([H])([H])[H])C(C([H])([H])[H])(C([H])([H])[H])C([H])([H])[H])C([H])([H])c2c([H])c(OC([H])([H])C(=O)N([H])C([H])([H])C(=O)N([H])C([H])([H])C([H])([H])C([H])([H])C([H])([H])C([H])(C(=O)N([H])C([H])([H])C([H])([H])N([H])C(=O)N3C([H])([H])C([H])([H])C([H])([H])C([H])(n4nc(-c5c([H])c([H])c(Oc6c([H])c([H])c(F)c([H])c6F)c([H])c5[H])c(C(=O)N([H])[H])c4N([H])[H])C3([H])[H])N([H])C(=O)C(C([H])([H])[H])(C([H])([H])[H])C([H])([H])[H])c([H])c([H])c2C1([H])[H]

$$$$
60:0:0
     RDKit          3D

119126  0  0  1  0  0  0  0  0999 V2000
  -26.2740  -23.5750   19.9450 C   0  0  0  0  0  3  0  0  0  0  0  0
  -27.2250  -24.6630   19.4190 C   0  0  0  0  0  0  0  0  0  0  0  0
  -27.2590  -25.8390   20.0590 N   0  0  0  0  0  0  0  0  0  0  0  0
  -27.9590  -24.4250   18.4560 O   0  0  0  0  0  0  0  0  0  0  0  0
  -26.6310  -25.9780   20.8380 H   0  0  0  0  0  0  0  0  0  0  0  0
  -28.1890  -26.9280   19.7450 C   0  0  0  0  0  2  0  0  0  0  0  0
  -28.6430  -27.6980   20.9990 C   0  0  0  0  0  2  0  0  0  0  0  0
  -28.1730  -29.0440   21.0000 O   0  0  0  0  0  0  0  0  0  0  0  0
  -24.3380  -28.3050   26.9500 C   0  0  0  0  0  0  0  0  0  0  0  0
  -26.9770  -29.2370   21.6410 C   0  0  0  0  0  0  0  0  0  0  0  0
  -23.0960  -29.0360   24.9390 C   0  0  0  0  0  3  0  0  0  0  0  0
  -24.5230  -29.7070   22.9390 C   0  0  0  0  0  0  0  0  0  0  0  0
  -25.5820  -29.5690   25.2020 C   0  0  0  0  0  2  0  0  0  0  0  0
  -25.6870  -29.5150   23.6930 C   0  0  0  0  0  0  0  0  0  0  0  0
  -26.9200  -29.2770   23.0500 C   0  0  0  0  0  3  0  0  0  0  0  0
  -25.8040  -29.4420   20.8880 C   0  0  0  0  0  3  0  0  0  0  0  0
  -24.5730  -29.6680   21.5330 C   0  0  0  0  0  3  0  0  0  0  0  0
  -23.2480  -29.9660   23.7060 C   0  0  0  0  0  2  0  0  0  0  0  0
  -24.3610  -28.9240   25.7350 N   0  0  0  0  0  0  0  0  0  0  0  0
  -23.2810  -27.8680   27.4270 O   0  0  0  0  0  0  0  0  0  0  0  0
  -22.5520  -27.6710   24.4600 C   0  0  0  0  0  0  0  0  0  0  0  0
  -21.5210  -27.7050   23.5990 N   0  0  0  0  0  0  0  0  0  0  0  0
  -23.0670  -26.6160   24.8380 O   0  0  0  0  0  0  0  0  0  0  0  0
  -21.1480  -28.6070   23.3400 H   0  0  0  0  0  0  0  0  0  0  0  0
  -19.3350  -26.6720   20.9160 C   0  0  0  0  0  0  0  0  0  0  0  0
  -20.8710  -26.5460   22.9920 C   0  0  0  0  0  3  0  0  0  0  0  0
  -21.8530  -25.7610   22.0900 C   0  0  0  0  0  2  0  0  0  0  0  0
  -21.8030  -26.1950   20.6210 C   0  0  0  0  0  2  0  0  0  0  0  0
  -20.3930  -26.0090   20.0520 C   0  0  0  0  0  2  0  0  0  0  0  0
  -19.5640  -26.9370   22.2920 C   0  0  0  0  0  0  0  0  0  0  0  0
  -18.5590  -27.5870   23.0410 C   0  0  0  0  0  3  0  0  0  0  0  0
  -17.3440  -27.9640   22.4390 C   0  0  0  0  0  3  0  0  0  0  0  0
  -17.1160  -27.6840   21.0800 C   0  0  0  0  0  3  0  0  0  0  0  0
  -18.1080  -27.0380   20.3240 C   0  0  0  0  0  3  0  0  0  0  0  0
  -25.6310  -28.1400   27.8080 C   0  0  0  0  0  3  0  0  0  0  0  0
  -25.2240  -28.1040   29.2190 N   0  0  0  0  0  0  0  0  0  0  0  0
  -25.4370  -29.0940   30.0970 C   0  0  0  0  0  0  0  0  0  0  0  0
  -26.0690  -30.1160   29.8170 O   0  0  0  0  0  0  0  0  0  0  0  0
  -24.6560  -27.3210   29.5070 H   0  0  0  0  0  0  0  0  0  0  0  0
  -23.5070  -29.6510   31.6100 C   0  0  0  0  0  1  0  0  0  0  0  0
  -24.8570  -28.9220   31.5140 C   0  0  0  0  0  3  0  0  0  0  0  0
  -26.9570  -28.5830   32.7400 C   0  0  0  0  0  1  0  0  0  0  0  0
  -25.7590  -29.4040   32.5830 N   0  0  0  0  0  0  0  0  0  0  0  0
  -25.2750  -29.4300   33.4760 H   0  0  0  0  0  0  0  0  0  0  0  0
  -26.4690  -26.8550   27.4340 C   0  0  1  0  0  0  0  0  0  0  0  0
  -25.6190  -25.5680   27.3340 C   0  0  0  0  0  1  0  0  0  0  0  0
  -27.1860  -27.0490   26.0760 C   0  0  0  0  0  1  0  0  0  0  0  0
  -27.5740  -26.6210   28.4910 C   0  0  0  0  0  1  0  0  0  0  0  0
  -25.6530  -21.7620   18.3110 C   0  0  0  0  0  0  0  0  0  0  0  0
  -26.4710  -22.3320   19.2000 N   0  0  0  0  0  0  0  0  0  0  0  0
  -24.5210  -22.1960   18.0950 O   0  0  0  0  0  0  0  0  0  0  0  0
  -27.4080  -21.9330   19.2530 H   0  0  0  0  0  0  0  0  0  0  0  0
  -26.1630  -20.5360   17.5240 C   0  0  0  0  0  2  0  0  0  0  0  0
  -28.2440  -19.8130   18.7690 C   0  0  0  0  0  0  0  0  0  0  0  0
  -27.0570  -19.5790   18.1950 N   0  0  0  0  0  0  0  0  0  0  0  0
  -28.6350  -20.9530   19.0200 O   0  0  0  0  0  0  0  0  0  0  0  0
  -26.8160  -18.6080   18.0580 H   0  0  0  0  0  0  0  0  0  0  0  0
  -29.1650  -18.6040   19.0320 C   0  0  0  0  0  3  0  0  0  0  0  0
  -31.4550  -19.7370   19.3090 C   0  0  0  0  0  0  0  0  0  0  0  0
  -31.3580  -20.5480   18.2400 N   0  0  0  0  0  4  0  0  0  0  0  0
  -30.4270  -18.9610   19.7270 N   0  0  0  0  0  0  0  0  0  0  0  0
  -32.1670  -21.0920   17.9730 H   0  0  0  0  0  0  0  0  0  0  0  0
  -30.4410  -20.9420   18.0410 H   0  0  0  0  0  0  0  0  0  0  0  0
  -30.5630  -18.4890   20.6080 H   0  0  0  0  0  0  0  0  0  0  0  0
  -33.2810  -18.3360   20.3970 C   0  0  0  0  0  1  0  0  0  0  0  0
  -32.7650  -19.7550   20.0640 C   0  0  0  0  0  3  0  0  0  0  0  0
  -35.0050  -20.8450   19.5610 C   0  0  0  0  0  0  0  0  0  0  0  0
  -37.0820  -20.6440   18.2610 C   0  0  0  0  0  2  0  0  0  0  0  0
  -36.8230  -20.9800   16.7790 C   0  0  0  0  0  2  0  0  0  0  0  0
  -36.4010  -19.7130   16.0090 C   0  0  0  0  0  2  0  0  0  0  0  0
  -35.2620  -18.9360   16.7210 C   0  0  0  0  0  3  0  0  0  0  0  0
  -35.5590  -18.7550   18.2250 C   0  0  0  0  0  2  0  0  0  0  0  0
  -35.8410  -20.0770   18.8110 N   0  0  0  0  0  0  0  0  0  0  0  0
  -35.3390  -21.9230   20.0480 O   0  0  0  0  0  0  0  0  0  0  0  0
  -33.7010  -20.6600   19.3820 N   0  0  0  0  0  0  0  0  0  0  0  0
  -33.2850  -21.5790   19.4040 H   0  0  0  0  0  0  0  0  0  0  0  0
  -33.8180  -17.1770   15.5180 C   0  0  0  0  0  0  0  0  0  0  0  0
  -34.1200  -15.9630   14.9650 C   0  0  0  0  0  0  0  0  0  0  0  0
  -35.5140  -15.7640   15.2020 C   0  0  0  0  0  0  0  0  0  0  0  0
  -34.9970  -17.6550   16.0680 N   0  0  0  0  0  0  0  0  0  0  0  0
  -36.0100  -16.7640   15.9190 N   0  0  0  0  0  0  0  0  0  0  0  0
  -36.4180  -14.7040   14.7350 C   0  0  0  0  0  0  0  0  0  0  0  0
  -37.1770  -13.9290   15.6400 C   0  0  0  0  0  3  0  0  0  0  0  0
  -38.0230  -12.9030   15.1650 C   0  0  0  0  0  3  0  0  0  0  0  0
  -38.1120  -12.6390   13.7770 C   0  0  0  0  0  0  0  0  0  0  0  0
  -37.3680  -13.4280   12.8820 C   0  0  0  0  0  3  0  0  0  0  0  0
  -36.5330  -14.4530   13.3530 C   0  0  0  0  0  3  0  0  0  0  0  0
  -38.9270  -11.6820   13.2250 O   0  0  0  0  0  0  0  0  0  0  0  0
  -39.2660  -10.5440   13.9120 C   0  0  0  0  0  0  0  0  0  0  0  0
  -38.2930   -9.6210   14.3500 C   0  0  0  0  0  3  0  0  0  0  0  0
  -38.6890   -8.4310   14.9900 C   0  0  0  0  0  3  0  0  0  0  0  0
  -40.0580   -8.1580   15.1840 C   0  0  0  0  0  0  0  0  0  0  0  0
  -41.0290   -9.0750   14.7430 C   0  0  0  0  0  3  0  0  0  0  0  0
  -40.6340  -10.2640   14.1070 C   0  0  0  0  0  0  0  0  0  0  0  0
  -41.5730  -11.1330   13.6630 F   0  0  0  0  0  0  0  0  0  0  0  0
  -40.4410   -7.0110   15.7920 F   0  0  0  0  0  0  0  0  0  0  0  0
  -33.1910  -15.0850   14.1790 C   0  0  0  0  0  0  0  0  0  0  0  0
  -33.3750  -13.7720   14.2590 N   0  0  0  0  0  0  0  0  0  0  0  0
  -32.2640  -15.5570   13.5230 O   0  0  0  0  0  0  0  0  0  0  0  0
  -34.1240  -13.3810   14.8100 H   0  0  0  0  0  0  0  0  0  0  0  0
  -32.7680  -13.1540   13.7440 H   0  0  0  0  0  0  0  0  0  0  0  0
  -32.6460  -17.9200   15.5740 N   0  0  0  0  0  0  0  0  0  0  0  0
  -31.8360  -17.6860   15.0150 H   0  0  0  0  0  0  0  0  0  0  0  0
  -32.5670  -18.8130   16.0440 H   0  0  0  0  0  0  0  0  0  0  0  0
  -27.6640  -16.4860   18.8990 C   0  0  0  0  0  1  0  0  0  0  0  0
  -28.4500  -17.4600   19.7930 C   0  0  0  0  0  2  0  0  0  0  0  0
  -26.3120  -23.3250   21.4740 C   0  0  0  0  0  2  0  0  0  0  0  0
  -27.6380  -22.7860   22.0640 C   0  0  0  0  0  2  0  0  0  0  0  0
  -28.8270  -23.7680   22.0340 C   0  0  0  0  0  2  0  0  0  0  0  0
  -30.0130  -23.2790   21.1820 C   0  0  0  0  0  2  0  0  0  0  0  0
  -31.7690  -24.7650   20.1290 C   0  0  0  0  0  0  0  0  0  0  0  0
  -32.8290  -25.5390   20.3260 N   0  0  0  0  0  0  0  0  0  0  0  0
  -31.3740  -24.5290   18.8800 N   0  0  0  0  0  4  0  0  0  0  0  0
  -31.1270  -24.2460   21.1880 N   0  0  0  0  0  0  0  0  0  0  0  0
  -33.3290  -25.9710   19.5640 H   0  0  0  0  0  0  0  0  0  0  0  0
  -33.1560  -25.7600   21.2570 H   0  0  0  0  0  0  0  0  0  0  0  0
  -31.9340  -24.7840   18.0800 H   0  0  0  0  0  0  0  0  0  0  0  0
  -30.4050  -24.2630   18.6870 H   0  0  0  0  0  0  0  0  0  0  0  0
  -31.4810  -24.4710   22.1090 H   0  0  0  0  0  0  0  0  0  0  0  0
  1107  1  0
  2  1  1  0
  2  3  1  0
  3  5  1  0
  4  2  2  0
  6  3  1  0
  6  7  1  0
  7  8  1  0
  8 10  1  0
  9 20  2  0
 10 15  1  0
 11 21  1  0
 11 19  1  0
 12 14  1  0
 12 18  1  0
 13 19  1  0
 14 13  1  0
 15 14  2  0
 16 17  1  0
 16 10  2  0
 17 12  2  0
 18 11  1  0
 19  9  1  0
 21 23  2  0
 22 21  1  0
 24 22  1  0
 25 30  1  0
 26 22  1  0
 27 26  1  0
 28 27  1  0
 29 28  1  0
 29 25  1  0
 30 26  1  0
 30 31  2  0
 32 31  1  0
 33 32  2  0
 34 25  2  0
 34 33  1  0
 35  9  1  0
 35 36  1  0
 36 39  1  0
 36 37  1  0
 37 41  1  0
 38 37  2  0
 41 40  1  0
 41 43  1  0
 43 42  1  0
 43 44  1  0
 45 35  1  0
 45 48  1  1
 46 45  1  0
 47 45  1  0
 49 50  1  0
 50 52  1  0
 50  1  1  0
 51 49  2  0
 53 55  1  0
 53 49  1  0
 54 56  2  0
 54 58  1  0
 55 54  1  0
 57 55  1  0
 58 61  1  0
 58106  1  0
 59 61  1  0
 59 66  1  0
 60 59  2  0
 61 64  1  0
 62 60  1  0
 63 60  1  0
 66 65  1  0
 67 74  2  0
 68 73  1  0
 69 68  1  0
 70 69  1  0
 71 70  1  0
 71 72  1  0
 72 73  1  0
 73 67  1  0
 75 76  1  0
 75 67  1  0
 75 66  1  0
 77102  1  0
 77 80  1  0
 78 79  1  0
 78 77  2  0
 79 81  2  0
 80 71  1  0
 81 80  1  0
 82 79  1  0
 82 83  1  0
 84 83  2  0
 85 84  1  0
 86 87  1  0
 86 85  2  0
 87 82  2  0
 88 85  1  0
 88 89  1  0
 89 94  2  0
 89 90  1  0
 90 91  2  0
 91 92  1  0
 92 96  1  0
 93 92  2  0
 94 93  1  0
 95 94  1  0
 97 98  1  0
 97 78  1  0
 98100  1  0
 99 97  2  0
101 98  1  0
102104  1  0
103102  1  0
105106  1  0
107108  1  0
109108  1  0
110114  1  0
110109  1  0
111112  1  0
111114  1  0
112116  1  0
113111  2  0
114119  1  0
115112  1  0
117113  1  0
118113  1  0
M  ISO  4   7 101   8 101  67 100  75 100
M  END
>  <TORSDO>  (57) 
F 31

>  <SCORE>  (57) 
-4.281

>  <name>  (57) 
60

>  <ligand_id>  (57) 
60

>  <original_smiles>  (57) 
[H]c1c([H])c([H])c2c(c1[H])C([H])([H])C([H])([H])C([H])([H])C2([H])N([H])C(=O)C1([H])N(C(=O)C([H])(N([H])C(=O)C([H])(N([H])C([H])([H])[H])C([H])([H])[H])C(C([H])([H])[H])(C([H])([H])[H])C([H])([H])[H])C([H])([H])c2c([H])c(OC([H])([H])C([H])([H])N([H])C(=O)C([H])(N([H])C(=O)C([H])([H])N([H])C(=O)C([H])([N+]([H])=C(N([H])[H])C([H])(N([H])C(=O)N3C([H])([H])C([H])([H])C([H])([H])C([H])(n4nc(-c5c([H])c([H])c(Oc6c([H])c([H])c(F)c([H])c6F)c([H])c5[H])c(C(=O)N([H])[H])c4N([H])[H])C3([H])[H])C([H])([H])[H])C([H])([H])C([H])([H])[H])C([H])([H])C([H])([H])C([H])([H])C([H])([H])N([H])C(N([H])[H])=[N+]([H])[H])c([H])c([H])c2C1([H])[H]

>  <smiles>  (57) 
[H]c1c([H])c([H])c2c(c1[H])C([H])([H])C([H])([H])C([H])([H])C2([H])N([H])C(=O)C1([H])N(C(=O)C([H])(N([H])C(=O)C([H])(N([H])C([H])([H])[H])C([H])([H])[H])C(C([H])([H])[H])(C([H])([H])[H])C([H])([H])[H])C([H])([H])c2c([H])c(OC([H])([H])C([H])([H])N([H])C(=O)C([H])(N([H])C(=O)C([H])([H])N([H])C(=O)C([H])([N+]([H])=C(N([H])[H])C([H])(N([H])C(=O)N3C([H])([H])C([H])([H])C([H])([H])C([H])(n4nc(-c5c([H])c([H])c(Oc6c([H])c([H])c(F)c([H])c6F)c([H])c5[H])c(C(=O)N([H])[H])c4N([H])[H])C3([H])[H])C([H])([H])[H])C([H])([H])C([H])([H])[H])C([H])([H])C([H])([H])C([H])([H])C([H])([H])N([H])C(N([H])[H])=[N+]([H])[H])c([H])c([H])c2C1([H])[H]

$$$$
61:0:0
     RDKit          3D

 92 99  0  0  1  0  0  0  0  0999 V2000
  -28.1050  -22.0170   21.2450 C   0  0  0  0  0  0  0  0  0  0  0  0
  -27.8700  -23.3350   21.3090 N   0  0  0  0  0  0  0  0  0  0  0  0
  -27.5690  -21.2540   22.0540 O   0  0  0  0  0  0  0  0  0  0  0  0
  -27.2360  -23.6400   22.0350 H   0  0  0  0  0  0  0  0  0  0  0  0
  -29.0340  -21.4580   20.1520 C   0  0  0  0  0  2  0  0  0  0  0  0
  -29.9040  -19.1720   20.6780 C   0  0  0  0  0  0  0  0  0  0  0  0
  -29.0130  -19.9960   20.1110 N   0  0  0  0  0  0  0  0  0  0  0  0
  -30.9080  -19.5810   21.2630 O   0  0  0  0  0  0  0  0  0  0  0  0
  -28.1850  -19.5770   19.7060 H   0  0  0  0  0  0  0  0  0  0  0  0
  -29.6100  -17.6720   20.5440 C   0  0  0  0  0  2  0  0  0  0  0  0
  -30.5060  -16.7480   21.4090 C   0  0  0  0  0  2  0  0  0  0  0  0
  -30.7490  -14.4860   20.3280 C   0  0  0  0  0  0  0  0  0  0  0  0
  -30.3990  -12.4060   19.0480 C   0  0  0  0  0  2  0  0  0  0  0  0
  -29.4250  -12.6630   17.8790 C   0  0  0  0  0  2  0  0  0  0  0  0
  -27.9610  -12.5150   18.3420 C   0  0  0  0  0  2  0  0  0  0  0  0
  -27.6650  -13.3160   19.6370 C   0  0  0  0  0  3  0  0  0  0  0  0
  -28.7360  -13.0230   20.7110 C   0  0  0  0  0  2  0  0  0  0  0  0
  -30.0610  -13.3310   20.1370 N   0  0  0  0  0  0  0  0  0  0  0  0
  -31.7860  -14.7730   19.7220 O   0  0  0  0  0  0  0  0  0  0  0  0
  -30.1700  -15.3380   21.1900 N   0  0  0  0  0  0  0  0  0  0  0  0
  -29.3640  -14.9820   21.6840 H   0  0  0  0  0  0  0  0  0  0  0  0
  -25.2830  -13.9370   20.3980 C   0  0  0  0  0  0  0  0  0  0  0  0
  -24.2210  -13.1690   20.7950 C   0  0  0  0  0  0  0  0  0  0  0  0
  -24.6760  -11.8160   20.7530 C   0  0  0  0  0  0  0  0  0  0  0  0
  -26.3170  -13.0500   20.1400 N   0  0  0  0  0  0  0  0  0  0  0  0
  -25.9570  -11.7690   20.4070 N   0  0  0  0  0  0  0  0  0  0  0  0
  -23.9520  -10.5550   20.9670 C   0  0  0  0  0  0  0  0  0  0  0  0
  -24.4050   -9.5890   21.8900 C   0  0  0  0  0  3  0  0  0  0  0  0
  -23.6810   -8.3930   22.0880 C   0  0  0  0  0  3  0  0  0  0  0  0
  -22.4910   -8.1570   21.3610 C   0  0  0  0  0  0  0  0  0  0  0  0
  -22.0560   -9.1150   20.4290 C   0  0  0  0  0  3  0  0  0  0  0  0
  -22.7800  -10.3000   20.2310 C   0  0  0  0  0  3  0  0  0  0  0  0
  -21.7400   -7.0120   21.4650 O   0  0  0  0  0  0  0  0  0  0  0  0
  -21.7180   -6.2680   22.6190 C   0  0  0  0  0  0  0  0  0  0  0  0
  -21.3250   -6.8250   23.8550 C   0  0  0  0  0  3  0  0  0  0  0  0
  -21.2500   -6.0120   25.0010 C   0  0  0  0  0  3  0  0  0  0  0  0
  -21.5550   -4.6400   24.9120 C   0  0  0  0  0  0  0  0  0  0  0  0
  -21.9390   -4.0810   23.6810 C   0  0  0  0  0  3  0  0  0  0  0  0
  -22.0160   -4.8940   22.5350 C   0  0  0  0  0  0  0  0  0  0  0  0
  -22.3680   -4.3470   21.3470 F   0  0  0  0  0  0  0  0  0  0  0  0
  -21.4750   -3.8540   26.0110 F   0  0  0  0  0  0  0  0  0  0  0  0
  -22.8340  -13.6530   21.1060 C   0  0  0  0  0  0  0  0  0  0  0  0
  -22.1260  -12.9630   21.9930 N   0  0  0  0  0  0  0  0  0  0  0  0
  -22.3870  -14.6820   20.5990 O   0  0  0  0  0  0  0  0  0  0  0  0
  -22.4960  -12.1300   22.4240 H   0  0  0  0  0  0  0  0  0  0  0  0
  -21.2000  -13.2770   22.2450 H   0  0  0  0  0  0  0  0  0  0  0  0
  -25.4500  -15.3050   20.2120 N   0  0  0  0  0  0  0  0  0  0  0  0
  -24.6860  -15.9640   20.3160 H   0  0  0  0  0  0  0  0  0  0  0  0
  -26.2900  -15.7280   19.8380 H   0  0  0  0  0  0  0  0  0  0  0  0
  -28.3550  -24.3770   20.4010 C   0  0  0  0  0  2  0  0  0  0  0  0
  -28.3910  -25.7490   21.0970 C   0  0  0  0  0  2  0  0  0  0  0  0
  -28.4180  -26.8220   20.1520 O   0  0  0  0  0  0  0  0  0  0  0  0
  -24.6040  -31.9310   23.2640 C   0  0  0  0  0  0  0  0  0  0  0  0
  -27.2570  -27.5520   20.1420 C   0  0  0  0  0  0  0  0  0  0  0  0
  -23.3960  -30.5330   21.6160 C   0  0  0  0  0  3  0  0  0  0  0  0
  -24.8480  -29.0110   20.1770 C   0  0  0  0  0  0  0  0  0  0  0  0
  -25.9140  -30.9180   21.4020 C   0  0  0  0  0  2  0  0  0  0  0  0
  -26.0050  -29.5520   20.7580 C   0  0  0  0  0  0  0  0  0  0  0  0
  -27.2150  -28.8280   20.7380 C   0  0  0  0  0  3  0  0  0  0  0  0
  -26.0950  -27.0170   19.5530 C   0  0  0  0  0  3  0  0  0  0  0  0
  -24.8850  -27.7410   19.5720 C   0  0  0  0  0  3  0  0  0  0  0  0
  -23.5950  -29.8550   20.2340 C   0  0  0  0  0  2  0  0  0  0  0  0
  -24.6560  -31.1430   22.1520 N   0  0  0  0  0  0  0  0  0  0  0  0
  -23.5250  -32.1920   23.8160 O   0  0  0  0  0  0  0  0  0  0  0  0
  -22.7570  -29.5050   22.5780 C   0  0  0  0  0  0  0  0  0  0  0  0
  -21.4350  -29.3120   22.4500 N   0  0  0  0  0  0  0  0  0  0  0  0
  -23.4490  -28.8840   23.3880 O   0  0  0  0  0  0  0  0  0  0  0  0
  -20.9390  -29.8700   21.7690 H   0  0  0  0  0  0  0  0  0  0  0  0
  -18.0750  -28.0670   22.9190 C   0  0  0  0  0  0  0  0  0  0  0  0
  -20.6270  -28.3600   23.2100 C   0  0  0  0  0  3  0  0  0  0  0  0
  -20.7540  -26.9330   22.6280 C   0  0  0  0  0  2  0  0  0  0  0  0
  -19.6620  -26.5980   21.6070 C   0  0  0  0  0  2  0  0  0  0  0  0
  -18.2760  -26.7230   22.2410 C   0  0  0  0  0  2  0  0  0  0  0  0
  -19.1800  -28.8420   23.3600 C   0  0  0  0  0  0  0  0  0  0  0  0
  -18.9370  -30.1020   23.9500 C   0  0  0  0  0  3  0  0  0  0  0  0
  -17.6250  -30.5850   24.1020 C   0  0  0  0  0  3  0  0  0  0  0  0
  -16.5340  -29.8070   23.6780 C   0  0  0  0  0  3  0  0  0  0  0  0
  -16.7620  -28.5480   23.0940 C   0  0  0  0  0  3  0  0  0  0  0  0
  -25.8930  -32.5610   23.8800 C   0  0  0  0  0  3  0  0  0  0  0  0
  -25.5850  -33.9580   24.2100 N   0  0  0  0  0  0  0  0  0  0  0  0
  -25.9160  -35.0100   23.4490 C   0  0  0  0  0  0  0  0  0  0  0  0
  -26.5900  -34.9080   22.4200 O   0  0  0  0  0  0  0  0  0  0  0  0
  -24.9950  -34.1120   25.0140 H   0  0  0  0  0  0  0  0  0  0  0  0
  -24.1950  -36.8040   23.0860 C   0  0  0  0  0  1  0  0  0  0  0  0
  -25.4270  -36.3970   23.9070 C   0  0  0  0  0  3  0  0  0  0  0  0
  -27.5560  -37.2790   24.7540 C   0  0  0  0  0  1  0  0  0  0  0  0
  -26.4610  -37.4480   23.8020 N   0  0  0  0  0  0  0  0  0  0  0  0
  -26.0550  -38.3680   23.9440 H   0  0  0  0  0  0  0  0  0  0  0  0
  -26.4170  -31.7900   25.1530 C   0  0  1  0  0  0  0  0  0  0  0  0
  -25.3290  -31.5480   26.2250 C   0  0  0  0  0  1  0  0  0  0  0  0
  -26.9990  -30.4150   24.7510 C   0  0  0  0  0  1  0  0  0  0  0  0
  -27.5700  -32.5810   25.8090 C   0  0  0  0  0  1  0  0  0  0  0  0
  1  2  1  0
  1  3  2  0
  2  4  1  0
  5  1  1  0
  6  8  2  0
  7  5  1  0
  7  6  1  0
  9  7  1  0
 10  6  1  0
 10 11  1  0
 12 20  1  0
 13 18  1  0
 14 15  1  0
 14 13  1  0
 16 15  1  0
 16 25  1  0
 16 17  1  0
 18 12  1  0
 18 17  1  0
 19 12  2  0
 20 11  1  0
 20 21  1  0
 22 23  2  0
 23 42  1  0
 24 23  1  0
 24 27  1  0
 25 22  1  0
 25 26  1  0
 26 24  2  0
 27 28  1  0
 28 29  2  0
 30 33  1  0
 30 29  1  0
 31 30  2  0
 32 31  1  0
 32 27  2  0
 33 34  1  0
 34 35  1  0
 35 36  2  0
 37 36  1  0
 37 41  1  0
 38 37  2  0
 39 34  2  0
 39 38  1  0
 40 39  1  0
 42 43  1  0
 43 46  1  0
 43 45  1  0
 44 42  2  0
 47 48  1  0
 47 22  1  0
 49 47  1  0
 50 51  1  0
 50  2  1  0
 52 51  1  0
 53 64  2  0
 54 52  1  0
 54 59  1  0
 55 63  1  0
 55 65  1  0
 56 62  1  0
 56 58  1  0
 57 63  1  0
 58 57  1  0
 59 58  2  0
 60 61  1  0
 60 54  2  0
 61 56  2  0
 62 55  1  0
 63 53  1  0
 65 67  2  0
 66 65  1  0
 68 66  1  0
 69 78  2  0
 69 74  1  0
 70 66  1  0
 70 74  1  0
 71 70  1  0
 72 73  1  0
 72 71  1  0
 73 69  1  0
 74 75  2  0
 75 76  1  0
 77 76  2  0
 78 77  1  0
 79 53  1  0
 79 80  1  0
 79 89  1  0
 80 83  1  0
 81 85  1  0
 81 80  1  0
 82 81  2  0
 85 84  1  0
 87 85  1  0
 87 88  1  0
 87 86  1  0
 89 92  1  1
 89 90  1  0
 91 89  1  0
M  ISO  4  12 100  20 100  51 101  52 101
M  END
>  <TORSDO>  (58) 
F 22

>  <SCORE>  (58) 
-12.610

>  <name>  (58) 
61

>  <ligand_id>  (58) 
61

>  <original_smiles>  (58) 
[H]c1c([H])c([H])c2c(c1[H])C([H])([H])C([H])([H])C([H])([H])C2([H])N([H])C(=O)C1([H])N(C(=O)C([H])(N([H])C(=O)C([H])(N([H])C([H])([H])[H])C([H])([H])[H])C(C([H])([H])[H])(C([H])([H])[H])C([H])([H])[H])C([H])([H])c2c([H])c(OC([H])([H])C([H])([H])N([H])C(=O)C([H])([H])N([H])C(=O)C([H])([H])C([H])([H])N([H])C(=O)N3C([H])([H])C([H])([H])C([H])([H])C([H])(n4nc(-c5c([H])c([H])c(Oc6c([H])c([H])c(F)c([H])c6F)c([H])c5[H])c(C(=O)N([H])[H])c4N([H])[H])C3([H])[H])c([H])c([H])c2C1([H])[H]

>  <smiles>  (58) 
[H]c1c([H])c([H])c2c(c1[H])C([H])([H])C([H])([H])C([H])([H])C2([H])N([H])C(=O)C1([H])N(C(=O)C([H])(N([H])C(=O)C([H])(N([H])C([H])([H])[H])C([H])([H])[H])C(C([H])([H])[H])(C([H])([H])[H])C([H])([H])[H])C([H])([H])c2c([H])c(OC([H])([H])C([H])([H])N([H])C(=O)C([H])([H])N([H])C(=O)C([H])([H])C([H])([H])N([H])C(=O)N3C([H])([H])C([H])([H])C([H])([H])C([H])(n4nc(-c5c([H])c([H])c(Oc6c([H])c([H])c(F)c([H])c6F)c([H])c5[H])c(C(=O)N([H])[H])c4N([H])[H])C3([H])[H])c([H])c([H])c2C1([H])[H]

$$$$
62:0:0
     RDKit          3D

116124  0  0  1  0  0  0  0  0999 V2000
  -31.1380  -22.2420   22.1160 C   0  0  0  0  0  3  0  0  0  0  0  0
  -30.4340  -21.1350   21.3110 C   0  0  0  0  0  0  0  0  0  0  0  0
  -30.7550  -19.8610   21.5560 N   0  0  0  0  0  0  0  0  0  0  0  0
  -29.5820  -21.4320   20.4630 O   0  0  0  0  0  0  0  0  0  0  0  0
  -31.3890  -19.5000   22.2590 H   0  0  0  0  0  0  0  0  0  0  0  0
  -30.0970  -17.5760   21.2580 C   0  0  0  0  0  0  0  0  0  0  0  0
  -30.0340  -18.8570   20.8930 N   0  0  0  0  0  0  0  0  0  0  0  0
  -30.9410  -17.1450   22.0480 O   0  0  0  0  0  0  0  0  0  0  0  0
  -29.3210  -19.2580   20.2930 H   0  0  0  0  0  0  0  0  0  0  0  0
  -28.5690  -16.9820   19.2240 C   0  0  0  0  0  1  0  0  0  0  0  0
  -28.9990  -16.6750   20.6790 C   0  0  0  0  0  3  0  0  0  0  0  0
  -29.9530  -14.4080   20.1890 C   0  0  0  0  0  0  0  0  0  0  0  0
  -29.6770  -12.3700   18.8400 C   0  0  0  0  0  2  0  0  0  0  0  0
  -28.5870  -12.6510   17.7810 C   0  0  0  0  0  2  0  0  0  0  0  0
  -27.1790  -12.3770   18.3450 C   0  0  0  0  0  2  0  0  0  0  0  0
  -26.9460  -13.0640   19.7170 C   0  0  0  0  0  3  0  0  0  0  0  0
  -28.1250  -12.7490   20.6700 C   0  0  0  0  0  2  0  0  0  0  0  0
  -29.3750  -13.1920   20.0190 N   0  0  0  0  0  0  0  0  0  0  0  0
  -30.9650  -14.7800   19.5860 O   0  0  0  0  0  0  0  0  0  0  0  0
  -29.1990  -15.2450   20.9100 N   0  0  0  0  0  0  0  0  0  0  0  0
  -28.4630  -14.7970   21.4330 H   0  0  0  0  0  0  0  0  0  0  0  0
  -24.5840  -13.4680   20.6680 C   0  0  0  0  0  0  0  0  0  0  0  0
  -23.6130  -12.6030   21.1000 C   0  0  0  0  0  0  0  0  0  0  0  0
  -24.1640  -11.2920   20.9600 C   0  0  0  0  0  0  0  0  0  0  0  0
  -25.6620  -12.6760   20.3000 N   0  0  0  0  0  0  0  0  0  0  0  0
  -25.4160  -11.3620   20.5290 N   0  0  0  0  0  0  0  0  0  0  0  0
  -23.5540   -9.9720   21.1530 C   0  0  0  0  0  0  0  0  0  0  0  0
  -24.0990   -9.0320   22.0570 C   0  0  0  0  0  3  0  0  0  0  0  0
  -23.4840   -7.7750   22.2380 C   0  0  0  0  0  3  0  0  0  0  0  0
  -22.3110   -7.4480   21.5160 C   0  0  0  0  0  0  0  0  0  0  0  0
  -21.7900   -8.3780   20.5990 C   0  0  0  0  0  3  0  0  0  0  0  0
  -22.4050   -9.6270   20.4150 C   0  0  0  0  0  3  0  0  0  0  0  0
  -21.6610   -6.2420   21.6100 O   0  0  0  0  0  0  0  0  0  0  0  0
  -21.6650   -5.5100   22.7710 C   0  0  0  0  0  0  0  0  0  0  0  0
  -21.1480   -6.0250   23.9790 C   0  0  0  0  0  3  0  0  0  0  0  0
  -21.1090   -5.2110   25.1300 C   0  0  0  0  0  3  0  0  0  0  0  0
  -21.5790   -3.8850   25.0740 C   0  0  0  0  0  0  0  0  0  0  0  0
  -22.0890   -3.3700   23.8690 C   0  0  0  0  0  3  0  0  0  0  0  0
  -22.1290   -4.1800   22.7200 C   0  0  0  0  0  0  0  0  0  0  0  0
  -22.6030   -3.6710   21.5570 F   0  0  0  0  0  0  0  0  0  0  0  0
  -21.5330   -3.1020   26.1760 F   0  0  0  0  0  0  0  0  0  0  0  0
  -22.2180  -12.9600   21.5280 C   0  0  0  0  0  0  0  0  0  0  0  0
  -21.6270  -12.1700   22.4170 N   0  0  0  0  0  0  0  0  0  0  0  0
  -21.6590  -13.9730   21.1090 O   0  0  0  0  0  0  0  0  0  0  0  0
  -22.0910  -11.3470   22.7780 H   0  0  0  0  0  0  0  0  0  0  0  0
  -20.6970  -12.3890   22.7450 H   0  0  0  0  0  0  0  0  0  0  0  0
  -24.6360  -14.8520   20.5420 N   0  0  0  0  0  0  0  0  0  0  0  0
  -23.8420  -15.4480   20.7490 H   0  0  0  0  0  0  0  0  0  0  0  0
  -25.4170  -15.3630   20.1510 H   0  0  0  0  0  0  0  0  0  0  0  0
  -29.8170  -24.1640   23.0560 C   0  0  0  0  0  0  0  0  0  0  0  0
  -30.3330  -23.4620   22.0460 N   0  0  0  0  0  0  0  0  0  0  0  0
  -30.0030  -23.8680   24.2400 O   0  0  0  0  0  0  0  0  0  0  0  0
  -30.1890  -23.7990   21.1010 H   0  0  0  0  0  0  0  0  0  0  0  0
  -29.7890  -26.4800   22.0350 C   0  0  0  0  0  1  0  0  0  0  0  0
  -28.9440  -25.3760   22.6960 C   0  0  0  0  0  3  0  0  0  0  0  0
  -26.8480  -25.6100   24.0310 C   0  0  0  0  0  1  0  0  0  0  0  0
  -28.2970  -25.8790   23.9240 N   0  0  0  0  0  4  0  0  0  0  0  0
  -28.7760  -25.4050   24.6780 H   0  0  0  0  0  0  0  0  0  0  0  0
  -28.4560  -26.8680   24.0100 H   0  0  0  0  0  0  0  0  0  0  0  0
  -32.6090  -22.5550   21.7150 C   0  0  0  0  0  2  0  0  0  0  0  0
  -32.3190  -23.7260   19.5280 C   0  0  0  0  0  0  0  0  0  0  0  0
  -32.8510  -22.7550   20.2810 N   0  0  0  0  0  0  0  0  0  0  0  0
  -31.5420  -24.5600   19.9940 O   0  0  0  0  0  0  0  0  0  0  0  0
  -33.4790  -22.1040   19.8260 H   0  0  0  0  0  0  0  0  0  0  0  0
  -30.9280  -26.8150   17.9010 C   0  0  0  0  0  0  0  0  0  0  0  0
  -30.4200  -23.4570   16.8920 C   0  0  0  0  0  2  0  0  0  0  0  0
  -31.7910  -22.8230   17.1960 C   0  0  0  0  0  2  0  0  0  0  0  0
  -30.5830  -24.8780   16.3180 C   0  0  0  0  0  2  0  0  0  0  0  0
  -32.7330  -25.1750   17.4240 C   0  0  0  0  0  2  0  0  0  0  0  0
  -32.7070  -23.7460   18.0350 C   0  0  0  0  0  3  0  0  0  0  0  0
  -31.3690  -25.7070   17.2470 N   0  0  0  0  0  0  0  0  0  0  0  0
  -31.6750  -27.5110   18.5970 O   0  0  0  0  0  0  0  0  0  0  0  0
  -29.4550  -27.2380   17.7950 C   0  0  0  0  0  2  0  0  0  0  0  0
  -28.5350  -26.2950   18.4520 N   0  0  0  0  0  0  0  0  0  0  0  0
  -28.9850  -25.3930   18.5790 H   0  0  0  0  0  0  0  0  0  0  0  0
  -28.2850  -26.7910   19.7890 O   0  0  0  0  0  0  0  0  0  0  0  0
  -24.3630  -31.7770   23.0300 C   0  0  0  0  0  0  0  0  0  0  0  0
  -27.0890  -27.4700   19.8430 C   0  0  0  0  0  0  0  0  0  0  0  0
  -23.1820  -30.3990   21.3470 C   0  0  0  0  0  3  0  0  0  0  0  0
  -24.6620  -28.9090   19.9040 C   0  0  0  0  0  0  0  0  0  0  0  0
  -25.7020  -30.7970   21.1720 C   0  0  0  0  0  2  0  0  0  0  0  0
  -25.8090  -29.4440   20.5040 C   0  0  0  0  0  0  0  0  0  0  0  0
  -27.0250  -28.7290   20.4750 C   0  0  0  0  0  3  0  0  0  0  0  0
  -25.9170  -26.9240   19.2750 C   0  0  0  0  0  3  0  0  0  0  0  0
  -24.7070  -27.6430   19.2920 C   0  0  0  0  0  3  0  0  0  0  0  0
  -23.4070  -29.7500   19.9560 C   0  0  0  0  0  2  0  0  0  0  0  0
  -24.4330  -31.0040   21.9090 N   0  0  0  0  0  0  0  0  0  0  0  0
  -23.2750  -32.0250   23.5690 O   0  0  0  0  0  0  0  0  0  0  0  0
  -22.5370  -29.3490   22.2800 C   0  0  0  0  0  0  0  0  0  0  0  0
  -21.2050  -29.2030   22.1830 N   0  0  0  0  0  0  0  0  0  0  0  0
  -23.2290  -28.6720   23.0450 O   0  0  0  0  0  0  0  0  0  0  0  0
  -20.7100  -29.8020   21.5370 H   0  0  0  0  0  0  0  0  0  0  0  0
  -17.8130  -28.1020   22.7610 C   0  0  0  0  0  0  0  0  0  0  0  0
  -20.3880  -28.2490   22.9310 C   0  0  0  0  0  3  0  0  0  0  0  0
  -20.4110  -26.8530   22.2650 C   0  0  0  0  0  2  0  0  0  0  0  0
  -19.2540  -26.6340   21.2850 C   0  0  0  0  0  2  0  0  0  0  0  0
  -17.9080  -26.7910   22.0000 C   0  0  0  0  0  2  0  0  0  0  0  0
  -18.9790  -28.7950   23.1840 C   0  0  0  0  0  0  0  0  0  0  0  0
  -18.8360  -30.0270   23.8570 C   0  0  0  0  0  3  0  0  0  0  0  0
  -17.5610  -30.5670   24.1090 C   0  0  0  0  0  3  0  0  0  0  0  0
  -16.4110  -29.8700   23.7030 C   0  0  0  0  0  3  0  0  0  0  0  0
  -16.5390  -28.6390   23.0340 C   0  0  0  0  0  3  0  0  0  0  0  0
  -25.6390  -32.4050   23.6730 C   0  0  0  0  0  3  0  0  0  0  0  0
  -26.1660  -31.6010   24.9240 C   0  0  1  0  0  0  0  0  0  0  0  0
  -25.0780  -31.3260   25.9890 C   0  0  0  0  0  1  0  0  0  0  0  0
  -26.7560  -30.2380   24.4870 C   0  0  0  0  0  1  0  0  0  0  0  0
  -27.3140  -32.3820   25.6050 C   0  0  0  0  0  1  0  0  0  0  0  0
  -25.3130  -33.7880   24.0420 N   0  0  0  0  0  0  0  0  0  0  0  0
  -25.6550  -34.8670   23.3270 C   0  0  0  0  0  0  0  0  0  0  0  0
  -26.3510  -34.8030   22.3090 O   0  0  0  0  0  0  0  0  0  0  0  0
  -24.6980  -33.9120   24.8330 H   0  0  0  0  0  0  0  0  0  0  0  0
  -23.9330  -36.6650   22.9730 C   0  0  0  0  0  1  0  0  0  0  0  0
  -25.1430  -36.2360   23.8160 C   0  0  0  0  0  3  0  0  0  0  0  0
  -27.2380  -37.0970   24.7650 C   0  0  0  0  0  1  0  0  0  0  0  0
  -26.1740  -37.2950   23.7840 N   0  0  0  0  0  0  0  0  0  0  0  0
  -25.7580  -38.2080   23.9480 H   0  0  0  0  0  0  0  0  0  0  0  0
  1 60  1  0
  2  3  1  0
  2  1  1  0
  3  5  1  0
  4  2  2  0
  6  8  2  0
  7  6  1  0
  7  3  1  0
  9  7  1  0
 11 10  1  0
 11 20  1  0
 11  6  1  0
 12 20  1  0
 13 18  1  0
 14 15  1  0
 14 13  1  0
 16 15  1  0
 16 25  1  0
 16 17  1  0
 18 12  1  0
 18 17  1  0
 19 12  2  0
 20 21  1  0
 22 23  2  0
 23 42  1  0
 24 23  1  0
 24 27  1  0
 25 26  1  0
 25 22  1  0
 26 24  2  0
 27 28  1  0
 28 29  2  0
 30 33  1  0
 30 29  1  0
 31 30  2  0
 32 31  1  0
 32 27  2  0
 33 34  1  0
 34 35  1  0
 35 36  2  0
 37 36  1  0
 37 41  1  0
 38 37  2  0
 39 34  2  0
 39 38  1  0
 40 39  1  0
 42 43  1  0
 43 46  1  0
 43 45  1  0
 44 42  2  0
 47 22  1  0
 47 48  1  0
 49 47  1  0
 50 52  2  0
 51  1  1  0
 51 50  1  0
 53 51  1  0
 55 54  1  0
 55 50  1  0
 55 57  1  0
 57 59  1  0
 57 56  1  0
 57 58  1  0
 61 63  2  0
 61 62  1  0
 62 60  1  0
 64 62  1  0
 65 72  2  0
 66 67  1  0
 67 70  1  0
 68 66  1  0
 68 71  1  0
 69 70  1  0
 70 61  1  0
 71 69  1  0
 71 65  1  0
 73 65  1  0
 73 74  1  0
 74 75  1  0
 74 76  1  0
 76 78  1  0
 77 88  2  0
 78 83  1  0
 79 87  1  0
 79 89  1  0
 80 86  1  0
 80 82  1  0
 81 87  1  0
 82 81  1  0
 83 82  2  0
 84 85  1  0
 84 78  2  0
 85 80  2  0
 86 79  1  0
 87 77  1  0
 89 91  2  0
 90 89  1  0
 92 90  1  0
 93102  2  0
 93 98  1  0
 94 90  1  0
 94 98  1  0
 95 94  1  0
 96 97  1  0
 96 95  1  0
 97 93  1  0
 98 99  2  0
 99100  1  0
101100  2  0
102101  1  0
103 77  1  0
103108  1  0
103104  1  0
104107  1  1
104105  1  0
106104  1  0
108111  1  0
109113  1  0
109108  1  0
110109  2  0
113112  1  0
115113  1  0
115116  1  0
115114  1  0
M  ISO  4  12 100  20 100  74 101  76 101
M  END
>  <TORSDO>  (59) 
F 27

>  <SCORE>  (59) 
-10.393

>  <name>  (59) 
62

>  <ligand_id>  (59) 
62

>  <original_smiles>  (59) 
[H]c1c([H])c([H])c2c(c1[H])C([H])([H])C([H])([H])C([H])([H])C2([H])N([H])C(=O)C1([H])N(C(=O)C([H])(N([H])C(=O)C([H])(N([H])C([H])([H])[H])C([H])([H])[H])C(C([H])([H])[H])(C([H])([H])[H])C([H])([H])[H])C([H])([H])c2c([H])c(ON([H])C([H])([H])C(=O)N3C([H])([H])C([H])([H])C([H])([H])C([H])(C(=O)N([H])C([H])([H])C([H])(C(=O)N([H])N([H])C(=O)C([H])(N([H])C(=O)N4C([H])([H])C([H])([H])C([H])([H])C([H])(n5nc(-c6c([H])c([H])c(Oc7c([H])c([H])c(F)c([H])c7F)c([H])c6[H])c(C(=O)N([H])[H])c5N([H])[H])C4([H])[H])C([H])([H])[H])N([H])C(=O)C([H])(C([H])([H])[H])[N+]([H])([H])C([H])([H])[H])C3([H])[H])c([H])c([H])c2C1([H])[H]

>  <smiles>  (59) 
[H]c1c([H])c([H])c2c(c1[H])C([H])([H])C([H])([H])C([H])([H])C2([H])N([H])C(=O)C1([H])N(C(=O)C([H])(N([H])C(=O)C([H])(N([H])C([H])([H])[H])C([H])([H])[H])C(C([H])([H])[H])(C([H])([H])[H])C([H])([H])[H])C([H])([H])c2c([H])c(ON([H])C([H])([H])C(=O)N3C([H])([H])C([H])([H])C([H])([H])C([H])(C(=O)N([H])C([H])([H])C([H])(C(=O)N([H])N([H])C(=O)C([H])(N([H])C(=O)N4C([H])([H])C([H])([H])C([H])([H])C([H])(n5nc(-c6c([H])c([H])c(Oc7c([H])c([H])c(F)c([H])c7F)c([H])c6[H])c(C(=O)N([H])[H])c5N([H])[H])C4([H])[H])C([H])([H])[H])N([H])C(=O)C([H])(C([H])([H])[H])[N+]([H])([H])C([H])([H])[H])C3([H])[H])c([H])c([H])c2C1([H])[H]

$$$$
63:0:0
     RDKit          3D

 96103  0  0  1  0  0  0  0  0999 V2000
  -29.2420  -20.4850   20.8790 C   0  0  0  0  0  0  0  0  0  0  0  0
  -29.9990  -19.4050   21.1720 N   0  0  0  0  0  0  0  0  0  0  0  0
  -28.0350  -20.3910   20.6450 O   0  0  0  0  0  0  0  0  0  0  0  0
  -30.9790  -19.5780   21.3600 H   0  0  0  0  0  0  0  0  0  0  0  0
  -29.9280  -21.8760   20.8540 C   0  0  0  0  0  2  0  0  0  0  0  0
  -29.2670  -24.2980   20.5380 C   0  0  0  0  0  0  0  0  0  0  0  0
  -28.9770  -23.0010   20.7730 N   0  0  0  0  0  0  0  0  0  0  0  0
  -30.4020  -24.6710   20.2290 O   0  0  0  0  0  0  0  0  0  0  0  0
  -28.0070  -22.7490   20.9160 H   0  0  0  0  0  0  0  0  0  0  0  0
  -28.1090  -25.3110   20.7150 C   0  0  0  0  0  2  0  0  0  0  0  0
  -28.3730  -26.6430   20.1970 O   0  0  0  0  0  0  0  0  0  0  0  0
  -24.5880  -31.9080   23.2290 C   0  0  0  0  0  0  0  0  0  0  0  0
  -27.2420  -27.4450   20.1630 C   0  0  0  0  0  0  0  0  0  0  0  0
  -23.3860  -30.4960   21.5950 C   0  0  0  0  0  3  0  0  0  0  0  0
  -24.8500  -28.9700   20.1700 C   0  0  0  0  0  0  0  0  0  0  0  0
  -25.9150  -30.8630   21.3950 C   0  0  0  0  0  2  0  0  0  0  0  0
  -26.0100  -29.4880   20.7570 C   0  0  0  0  0  0  0  0  0  0  0  0
  -27.2130  -28.7360   20.7500 C   0  0  0  0  0  3  0  0  0  0  0  0
  -26.0670  -26.9640   19.5390 C   0  0  0  0  0  3  0  0  0  0  0  0
  -24.8720  -27.7060   19.5590 C   0  0  0  0  0  3  0  0  0  0  0  0
  -23.6060  -29.8310   20.2120 C   0  0  0  0  0  2  0  0  0  0  0  0
  -24.6480  -31.1020   22.1320 N   0  0  0  0  0  0  0  0  0  0  0  0
  -23.5060  -32.1810   23.7670 O   0  0  0  0  0  0  0  0  0  0  0  0
  -22.7370  -29.4710   22.5550 C   0  0  0  0  0  0  0  0  0  0  0  0
  -21.4130  -29.2820   22.4260 N   0  0  0  0  0  0  0  0  0  0  0  0
  -23.4220  -28.8520   23.3730 O   0  0  0  0  0  0  0  0  0  0  0  0
  -20.9180  -29.8340   21.7400 H   0  0  0  0  0  0  0  0  0  0  0  0
  -18.0450  -28.0690   22.9290 C   0  0  0  0  0  0  0  0  0  0  0  0
  -20.6010  -28.3420   23.1980 C   0  0  0  0  0  3  0  0  0  0  0  0
  -20.7130  -26.9070   22.6330 C   0  0  0  0  0  2  0  0  0  0  0  0
  -19.6030  -26.5430   21.6430 C   0  0  0  0  0  2  0  0  0  0  0  0
  -18.2210  -26.7100   22.2810 C   0  0  0  0  0  2  0  0  0  0  0  0
  -19.1600  -28.8380   23.3520 C   0  0  0  0  0  0  0  0  0  0  0  0
  -18.9360  -30.1030   23.9360 C   0  0  0  0  0  3  0  0  0  0  0  0
  -17.6320  -30.6020   24.0960 C   0  0  0  0  0  3  0  0  0  0  0  0
  -16.5300  -29.8340   23.6800 C   0  0  0  0  0  3  0  0  0  0  0  0
  -16.7380  -28.5710   23.1000 C   0  0  0  0  0  3  0  0  0  0  0  0
  -25.8750  -32.5460   23.8430 C   0  0  0  0  0  3  0  0  0  0  0  0
  -25.5630  -33.9450   24.1650 N   0  0  0  0  0  0  0  0  0  0  0  0
  -25.8920  -34.9920   23.3980 C   0  0  0  0  0  0  0  0  0  0  0  0
  -26.5620  -34.8840   22.3680 O   0  0  0  0  0  0  0  0  0  0  0  0
  -24.9720  -34.1050   24.9670 H   0  0  0  0  0  0  0  0  0  0  0  0
  -24.1670  -36.7830   23.0220 C   0  0  0  0  0  1  0  0  0  0  0  0
  -25.4010  -36.3820   23.8450 C   0  0  0  0  0  3  0  0  0  0  0  0
  -27.5260  -37.2730   24.6910 C   0  0  0  0  0  1  0  0  0  0  0  0
  -26.4330  -37.4340   23.7380 N   0  0  0  0  0  0  0  0  0  0  0  0
  -26.0240  -38.3540   23.8730 H   0  0  0  0  0  0  0  0  0  0  0  0
  -26.3980  -31.7780   25.1190 C   0  0  1  0  0  0  0  0  0  0  0  0
  -25.3070  -31.5410   26.1890 C   0  0  0  0  0  1  0  0  0  0  0  0
  -26.9870  -30.4010   24.7270 C   0  0  0  0  0  1  0  0  0  0  0  0
  -27.5440  -32.5780   25.7800 C   0  0  0  0  0  1  0  0  0  0  0  0
  -29.5300  -18.0060   21.3100 C   0  0  0  0  0  2  0  0  0  0  0  0
  -30.3680  -16.9700   20.4950 C   0  0  0  0  0  3  0  0  0  0  0  0
  -30.7150  -14.5020   20.4740 C   0  0  0  0  0  0  0  0  0  0  0  0
  -30.3860  -12.3340   19.3610 C   0  0  0  0  0  2  0  0  0  0  0  0
  -29.4700  -12.5400   18.1400 C   0  0  0  0  0  2  0  0  0  0  0  0
  -27.9890  -12.4290   18.5490 C   0  0  0  0  0  2  0  0  0  0  0  0
  -27.6400  -13.2750   19.8050 C   0  0  0  0  0  3  0  0  0  0  0  0
  -28.6820  -13.0710   20.9300 C   0  0  0  0  0  2  0  0  0  0  0  0
  -30.0160  -13.3390   20.3700 N   0  0  0  0  0  0  0  0  0  0  0  0
  -31.8630  -14.6320   20.0490 O   0  0  0  0  0  0  0  0  0  0  0  0
  -30.0120  -15.5810   20.8700 N   0  0  0  0  0  0  0  0  0  0  0  0
  -29.0600  -15.4180   21.1560 H   0  0  0  0  0  0  0  0  0  0  0  0
  -25.2280  -13.8940   20.4640 C   0  0  0  0  0  0  0  0  0  0  0  0
  -24.1520  -13.1230   20.8290 C   0  0  0  0  0  0  0  0  0  0  0  0
  -24.6140  -11.7710   20.8190 C   0  0  0  0  0  0  0  0  0  0  0  0
  -26.2780  -13.0090   20.2650 N   0  0  0  0  0  0  0  0  0  0  0  0
  -25.9090  -11.7290   20.5370 N   0  0  0  0  0  0  0  0  0  0  0  0
  -23.8840  -10.5110   21.0100 C   0  0  0  0  0  0  0  0  0  0  0  0
  -24.2970   -9.5510   21.9620 C   0  0  0  0  0  3  0  0  0  0  0  0
  -23.5670   -8.3570   22.1390 C   0  0  0  0  0  3  0  0  0  0  0  0
  -22.4070   -8.1120   21.3660 C   0  0  0  0  0  0  0  0  0  0  0  0
  -22.0130   -9.0590   20.4040 C   0  0  0  0  0  3  0  0  0  0  0  0
  -22.7450  -10.2450   20.2240 C   0  0  0  0  0  3  0  0  0  0  0  0
  -21.6520   -6.9660   21.4500 O   0  0  0  0  0  0  0  0  0  0  0  0
  -21.5790   -6.2370   22.6120 C   0  0  0  0  0  0  0  0  0  0  0  0
  -21.1220   -6.8050   23.8190 C   0  0  0  0  0  3  0  0  0  0  0  0
  -20.9960   -6.0020   24.9720 C   0  0  0  0  0  3  0  0  0  0  0  0
  -21.3170   -4.6330   24.9150 C   0  0  0  0  0  0  0  0  0  0  0  0
  -21.7700   -4.0660   23.7120 C   0  0  0  0  0  3  0  0  0  0  0  0
  -21.8970   -4.8650   22.5620 C   0  0  0  0  0  0  0  0  0  0  0  0
  -22.3090   -4.3060   21.3990 F   0  0  0  0  0  0  0  0  0  0  0  0
  -21.1910   -3.8610   26.0210 F   0  0  0  0  0  0  0  0  0  0  0  0
  -22.7500  -13.6010   21.0750 C   0  0  0  0  0  0  0  0  0  0  0  0
  -22.0070  -12.9110   21.9330 N   0  0  0  0  0  0  0  0  0  0  0  0
  -22.3200  -14.6220   20.5400 O   0  0  0  0  0  0  0  0  0  0  0  0
  -22.3650  -12.0820   22.3880 H   0  0  0  0  0  0  0  0  0  0  0  0
  -21.0660  -13.2150   22.1380 H   0  0  0  0  0  0  0  0  0  0  0  0
  -25.3980  -15.2600   20.2690 N   0  0  0  0  0  0  0  0  0  0  0  0
  -24.6290  -15.9190   20.3400 H   0  0  0  0  0  0  0  0  0  0  0  0
  -26.2510  -15.6890   19.9310 H   0  0  0  0  0  0  0  0  0  0  0  0
  -30.1010  -17.1550   18.9850 C   0  0  0  0  0  0  0  0  0  0  0  0
  -30.9010  -17.9620   18.3000 N   0  0  0  0  0  0  0  0  0  0  0  0
  -29.1670  -16.5740   18.4340 O   0  0  0  0  0  0  0  0  0  0  0  0
  -30.7480  -18.1120   17.3140 H   0  0  0  0  0  0  0  0  0  0  0  0
  -31.6520  -18.4570   18.7590 H   0  0  0  0  0  0  0  0  0  0  0  0
  1  2  1  0
  2 52  1  0
  2  4  1  0
  3  1  2  0
  5  1  1  0
  6 10  1  0
  6  7  1  0
  7  5  1  0
  7  9  1  0
  8  6  2  0
 11 10  1  0
 12 23  2  0
 13 11  1  0
 13 18  1  0
 14 22  1  0
 14 24  1  0
 15 21  1  0
 15 17  1  0
 16 22  1  0
 17 16  1  0
 18 17  2  0
 19 20  1  0
 19 13  2  0
 20 15  2  0
 21 14  1  0
 22 12  1  0
 24 26  2  0
 25 24  1  0
 27 25  1  0
 28 37  2  0
 28 33  1  0
 29 25  1  0
 29 33  1  0
 30 29  1  0
 31 32  1  0
 31 30  1  0
 32 28  1  0
 33 34  2  0
 34 35  1  0
 36 35  2  0
 37 36  1  0
 38 12  1  0
 38 39  1  0
 38 48  1  0
 39 42  1  0
 40 44  1  0
 40 39  1  0
 41 40  2  0
 44 43  1  0
 46 44  1  0
 46 47  1  0
 46 45  1  0
 48 51  1  1
 48 49  1  0
 50 48  1  0
 53 62  1  0
 53 52  1  0
 54 62  1  0
 55 60  1  0
 56 57  1  0
 56 55  1  0
 58 57  1  0
 58 67  1  0
 58 59  1  0
 60 54  1  0
 60 59  1  0
 61 54  2  0
 62 63  1  0
 64 65  2  0
 65 84  1  0
 66 65  1  0
 66 69  1  0
 67 64  1  0
 67 68  1  0
 68 66  2  0
 69 70  1  0
 70 71  2  0
 72 75  1  0
 72 71  1  0
 73 72  2  0
 74 73  1  0
 74 69  2  0
 75 76  1  0
 76 77  1  0
 77 78  2  0
 79 78  1  0
 79 83  1  0
 80 79  2  0
 81 76  2  0
 81 80  1  0
 82 81  1  0
 84 85  1  0
 85 88  1  0
 85 87  1  0
 86 84  2  0
 89 90  1  0
 89 64  1  0
 91 89  1  0
 92 53  1  0
 93 96  1  0
 93 92  1  0
 94 92  2  0
 95 93  1  0
M  ISO  4  10 101  11 101  54 100  62 100
M  END
>  <TORSDO>  (60) 
F 22

>  <SCORE>  (60) 
-12.972

>  <name>  (60) 
63

>  <ligand_id>  (60) 
63

>  <original_smiles>  (60) 
[H]c1c([H])c([H])c2c(c1[H])C([H])([H])C([H])([H])C([H])([H])C2([H])N([H])C(=O)C1([H])N(C(=O)C([H])(N([H])C(=O)C([H])(N([H])C([H])([H])[H])C([H])([H])[H])C(C([H])([H])[H])(C([H])([H])[H])C([H])([H])[H])C([H])([H])c2c([H])c(OC([H])([H])C(=O)N([H])C([H])([H])C(=O)N([H])C([H])([H])C([H])(C(=O)N([H])[H])N([H])C(=O)N3C([H])([H])C([H])([H])C([H])([H])C([H])(n4nc(-c5c([H])c([H])c(Oc6c([H])c([H])c(F)c([H])c6F)c([H])c5[H])c(C(=O)N([H])[H])c4N([H])[H])C3([H])[H])c([H])c([H])c2C1([H])[H]

>  <smiles>  (60) 
[H]c1c([H])c([H])c2c(c1[H])C([H])([H])C([H])([H])C([H])([H])C2([H])N([H])C(=O)C1([H])N(C(=O)C([H])(N([H])C(=O)C([H])(N([H])C([H])([H])[H])C([H])([H])[H])C(C([H])([H])[H])(C([H])([H])[H])C([H])([H])[H])C([H])([H])c2c([H])c(OC([H])([H])C(=O)N([H])C([H])([H])C(=O)N([H])C([H])([H])C([H])(C(=O)N([H])[H])N([H])C(=O)N3C([H])([H])C([H])([H])C([H])([H])C([H])(n4nc(-c5c([H])c([H])c(Oc6c([H])c([H])c(F)c([H])c6F)c([H])c5[H])c(C(=O)N([H])[H])c4N([H])[H])C3([H])[H])c([H])c([H])c2C1([H])[H]

$$$$
64:0:0
     RDKit          3D

 95102  0  0  1  0  0  0  0  0999 V2000
  -28.7990  -21.4190   20.6260 C   0  0  0  0  0  0  0  0  0  0  0  0
  -29.2970  -22.3630   19.8180 N   0  0  0  0  0  0  0  0  0  0  0  0
  -28.3680  -21.6590   21.7550 O   0  0  0  0  0  0  0  0  0  0  0  0
  -29.6510  -22.0560   18.9210 H   0  0  0  0  0  0  0  0  0  0  0  0
  -28.7760  -19.9900   20.0790 C   0  0  0  0  0  2  0  0  0  0  0  0
  -28.8440  -18.9900   21.1690 N   0  0  0  0  0  4  0  0  0  0  0  0
  -28.0150  -19.1340   21.7240 H   0  0  0  0  0  0  0  0  0  0  0  0
  -29.6180  -19.2080   21.7750 H   0  0  0  0  0  0  0  0  0  0  0  0
  -28.8950  -17.5700   20.7370 C   0  0  0  0  0  2  0  0  0  0  0  0
  -30.3120  -16.9100   20.7730 C   0  0  0  0  0  3  0  0  0  0  0  0
  -30.8020  -14.4420   20.0370 C   0  0  0  0  0  0  0  0  0  0  0  0
  -30.4340  -12.2690   18.9350 C   0  0  0  0  0  2  0  0  0  0  0  0
  -29.4430  -12.4590   17.7690 C   0  0  0  0  0  2  0  0  0  0  0  0
  -27.9890  -12.3320   18.2600 C   0  0  0  0  0  2  0  0  0  0  0  0
  -27.7040  -13.2030   19.5120 C   0  0  0  0  0  3  0  0  0  0  0  0
  -28.8020  -12.9960   20.5820 C   0  0  0  0  0  2  0  0  0  0  0  0
  -30.1080  -13.2750   19.9570 N   0  0  0  0  0  0  0  0  0  0  0  0
  -31.9030  -14.5840   19.5150 O   0  0  0  0  0  0  0  0  0  0  0  0
  -30.1160  -15.4480   20.6090 N   0  0  0  0  0  0  0  0  0  0  0  0
  -29.2440  -15.1140   20.9880 H   0  0  0  0  0  0  0  0  0  0  0  0
  -25.3490  -13.8420   20.3290 C   0  0  0  0  0  0  0  0  0  0  0  0
  -24.2890  -13.0820   20.7450 C   0  0  0  0  0  0  0  0  0  0  0  0
  -24.7290  -11.7240   20.6880 C   0  0  0  0  0  0  0  0  0  0  0  0
  -26.3710  -12.9470   20.0490 N   0  0  0  0  0  0  0  0  0  0  0  0
  -26.0040  -11.6680   20.3240 N   0  0  0  0  0  0  0  0  0  0  0  0
  -23.9980  -10.4700   20.9060 C   0  0  0  0  0  0  0  0  0  0  0  0
  -24.4500   -9.5050   21.8320 C   0  0  0  0  0  3  0  0  0  0  0  0
  -23.7200   -8.3150   22.0380 C   0  0  0  0  0  3  0  0  0  0  0  0
  -22.5240   -8.0820   21.3190 C   0  0  0  0  0  0  0  0  0  0  0  0
  -22.0910   -9.0360   20.3810 C   0  0  0  0  0  3  0  0  0  0  0  0
  -22.8210  -10.2180   20.1730 C   0  0  0  0  0  3  0  0  0  0  0  0
  -21.7640   -6.9430   21.4350 O   0  0  0  0  0  0  0  0  0  0  0  0
  -21.7290   -6.2160   22.5960 C   0  0  0  0  0  0  0  0  0  0  0  0
  -21.3380   -6.7920   23.8250 C   0  0  0  0  0  3  0  0  0  0  0  0
  -21.2490   -5.9920   24.9820 C   0  0  0  0  0  3  0  0  0  0  0  0
  -21.5410   -4.6170   24.9110 C   0  0  0  0  0  0  0  0  0  0  0  0
  -21.9240   -4.0400   23.6860 C   0  0  0  0  0  3  0  0  0  0  0  0
  -22.0140   -4.8370   22.5320 C   0  0  0  0  0  0  0  0  0  0  0  0
  -22.3630   -4.2730   21.3510 F   0  0  0  0  0  0  0  0  0  0  0  0
  -21.4460   -3.8450   26.0190 F   0  0  0  0  0  0  0  0  0  0  0  0
  -22.9110  -13.5750   21.0800 C   0  0  0  0  0  0  0  0  0  0  0  0
  -22.2150  -12.8840   21.9750 N   0  0  0  0  0  0  0  0  0  0  0  0
  -22.4610  -14.6050   20.5780 O   0  0  0  0  0  0  0  0  0  0  0  0
  -22.5920  -12.0500   22.3990 H   0  0  0  0  0  0  0  0  0  0  0  0
  -21.2910  -13.1930   22.2410 H   0  0  0  0  0  0  0  0  0  0  0  0
  -25.5250  -15.2110   20.1420 N   0  0  0  0  0  0  0  0  0  0  0  0
  -24.7560  -15.8630   20.2510 H   0  0  0  0  0  0  0  0  0  0  0  0
  -26.3250  -15.6150   19.6740 H   0  0  0  0  0  0  0  0  0  0  0  0
  -32.8220  -17.4240   20.2360 C   0  0  0  0  0  1  0  0  0  0  0  0
  -31.1000  -17.5240   18.3300 C   0  0  0  0  0  1  0  0  0  0  0  0
  -31.3470  -17.6410   19.8490 C   0  0  0  0  0  3  0  0  0  0  0  0
  -29.3850  -23.8010   20.0800 C   0  0  0  0  0  2  0  0  0  0  0  0
  -28.4110  -24.5780   19.1790 C   0  0  0  0  0  2  0  0  0  0  0  0
  -28.7480  -26.0730   19.0210 C   0  0  0  0  0  2  0  0  0  0  0  0
  -28.4440  -26.8540   20.1790 O   0  0  0  0  0  0  0  0  0  0  0  0
  -24.6040  -31.9710   23.2810 C   0  0  0  0  0  0  0  0  0  0  0  0
  -27.2450  -27.5320   20.1970 C   0  0  0  0  0  0  0  0  0  0  0  0
  -23.3900  -30.5560   21.6570 C   0  0  0  0  0  3  0  0  0  0  0  0
  -24.8360  -29.0120   20.2350 C   0  0  0  0  0  0  0  0  0  0  0  0
  -25.9110  -30.9170   21.4420 C   0  0  0  0  0  2  0  0  0  0  0  0
  -25.9920  -29.5410   20.8200 C   0  0  0  0  0  0  0  0  0  0  0  0
  -27.1930  -28.7990   20.8170 C   0  0  0  0  0  3  0  0  0  0  0  0
  -26.0640  -27.0070   19.6180 C   0  0  0  0  0  3  0  0  0  0  0  0
  -24.8650  -27.7400   19.6390 C   0  0  0  0  0  3  0  0  0  0  0  0
  -23.5920  -29.8680   20.2800 C   0  0  0  0  0  2  0  0  0  0  0  0
  -24.6550  -31.1630   22.1850 N   0  0  0  0  0  0  0  0  0  0  0  0
  -23.5260  -32.2440   23.8270 O   0  0  0  0  0  0  0  0  0  0  0  0
  -22.7500  -29.5370   22.6270 C   0  0  0  0  0  0  0  0  0  0  0  0
  -21.4300  -29.3350   22.4920 N   0  0  0  0  0  0  0  0  0  0  0  0
  -23.4380  -28.9320   23.4540 O   0  0  0  0  0  0  0  0  0  0  0  0
  -20.9390  -29.8720   21.7920 H   0  0  0  0  0  0  0  0  0  0  0  0
  -18.0740  -28.0850   22.9600 C   0  0  0  0  0  0  0  0  0  0  0  0
  -20.6210  -28.3990   23.2690 C   0  0  0  0  0  3  0  0  0  0  0  0
  -20.7620  -26.9580   22.7250 C   0  0  0  0  0  2  0  0  0  0  0  0
  -19.6840  -26.5920   21.7010 C   0  0  0  0  0  2  0  0  0  0  0  0
  -18.2880  -26.7240   22.3180 C   0  0  0  0  0  2  0  0  0  0  0  0
  -19.1700  -28.8770   23.3920 C   0  0  0  0  0  0  0  0  0  0  0  0
  -18.9180  -30.1500   23.9490 C   0  0  0  0  0  3  0  0  0  0  0  0
  -17.6010  -30.6300   24.0810 C   0  0  0  0  0  3  0  0  0  0  0  0
  -16.5180  -29.8340   23.6660 C   0  0  0  0  0  3  0  0  0  0  0  0
  -16.7560  -28.5640   23.1110 C   0  0  0  0  0  3  0  0  0  0  0  0
  -25.8950  -32.6070   23.8870 C   0  0  0  0  0  3  0  0  0  0  0  0
  -25.5860  -34.0060   24.2110 N   0  0  0  0  0  0  0  0  0  0  0  0
  -25.9120  -35.0540   23.4440 C   0  0  0  0  0  0  0  0  0  0  0  0
  -26.5780  -34.9460   22.4090 O   0  0  0  0  0  0  0  0  0  0  0  0
  -24.9950  -34.1650   25.0150 H   0  0  0  0  0  0  0  0  0  0  0  0
  -24.1750  -36.8370   23.0880 C   0  0  0  0  0  1  0  0  0  0  0  0
  -25.4230  -36.4430   23.8930 C   0  0  0  0  0  3  0  0  0  0  0  0
  -27.5610  -37.3390   24.7030 C   0  0  0  0  0  1  0  0  0  0  0  0
  -26.4510  -37.5000   23.7670 N   0  0  0  0  0  0  0  0  0  0  0  0
  -26.0430  -38.4190   23.9120 H   0  0  0  0  0  0  0  0  0  0  0  0
  -26.4260  -31.8410   25.1600 C   0  0  1  0  0  0  0  0  0  0  0  0
  -25.3430  -31.6010   26.2380 C   0  0  0  0  0  1  0  0  0  0  0  0
  -27.0120  -30.4650   24.7660 C   0  0  0  0  0  1  0  0  0  0  0  0
  -27.5780  -32.6440   25.8120 C   0  0  0  0  0  1  0  0  0  0  0  0
  1  3  2  0
  2 52  1  0
  2  1  1  0
  4  2  1  0
  5  1  1  0
  5  6  1  0
  6  7  1  0
  6  8  1  0
  9  6  1  0
 10  9  1  0
 11 19  1  0
 12 17  1  0
 13 14  1  0
 13 12  1  0
 15 14  1  0
 15 24  1  0
 15 16  1  0
 17 11  1  0
 17 16  1  0
 18 11  2  0
 19 10  1  0
 19 20  1  0
 21 22  2  0
 22 41  1  0
 23 22  1  0
 23 26  1  0
 24 25  1  0
 24 21  1  0
 25 23  2  0
 26 27  1  0
 27 28  2  0
 29 32  1  0
 29 28  1  0
 30 29  2  0
 31 30  1  0
 31 26  2  0
 32 33  1  0
 33 34  1  0
 34 35  2  0
 36 35  1  0
 36 40  1  0
 37 36  2  0
 38 33  2  0
 38 37  1  0
 39 38  1  0
 41 42  1  0
 42 45  1  0
 42 44  1  0
 43 41  2  0
 46 47  1  0
 46 21  1  0
 48 46  1  0
 50 51  1  0
 51 49  1  0
 51 10  1  0
 53 52  1  0
 54 53  1  0
 54 55  1  0
 55 57  1  0
 56 67  2  0
 57 62  1  0
 58 66  1  0
 58 68  1  0
 59 65  1  0
 59 61  1  0
 60 66  1  0
 61 60  1  0
 62 61  2  0
 63 64  1  0
 63 57  2  0
 64 59  2  0
 65 58  1  0
 66 56  1  0
 68 70  2  0
 69 68  1  0
 71 69  1  0
 72 81  2  0
 72 77  1  0
 73 69  1  0
 73 77  1  0
 74 73  1  0
 75 76  1  0
 75 74  1  0
 76 72  1  0
 77 78  2  0
 78 79  1  0
 80 79  2  0
 81 80  1  0
 82 56  1  0
 82 83  1  0
 82 92  1  0
 83 86  1  0
 84 88  1  0
 84 83  1  0
 85 84  2  0
 88 87  1  0
 90 88  1  0
 90 91  1  0
 90 89  1  0
 92 95  1  1
 92 93  1  0
 94 92  1  0
M  ISO  4  11 100  19 100  54 101  55 101
M  END
>  <TORSDO>  (61) 
F 24

>  <SCORE>  (61) 
-12.375

>  <name>  (61) 
64

>  <ligand_id>  (61) 
64

>  <original_smiles>  (61) 
[H]c1c([H])c([H])c2c(c1[H])C([H])([H])C([H])([H])C([H])([H])C2([H])N([H])C(=O)C1([H])N(C(=O)C([H])(N([H])C(=O)C([H])(N([H])C([H])([H])[H])C([H])([H])[H])C(C([H])([H])[H])(C([H])([H])[H])C([H])([H])[H])C([H])([H])c2c([H])c(OC([H])([H])C([H])([H])C([H])([H])N([H])C(=O)C([H])([H])[N+]([H])([H])C([H])([H])C([H])(N([H])C(=O)N3C([H])([H])C([H])([H])C([H])([H])C([H])(n4nc(-c5c([H])c([H])c(Oc6c([H])c([H])c(F)c([H])c6F)c([H])c5[H])c(C(=O)N([H])[H])c4N([H])[H])C3([H])[H])C([H])(C([H])([H])[H])C([H])([H])[H])c([H])c([H])c2C1([H])[H]

>  <smiles>  (61) 
[H]c1c([H])c([H])c2c(c1[H])C([H])([H])C([H])([H])C([H])([H])C2([H])N([H])C(=O)C1([H])N(C(=O)C([H])(N([H])C(=O)C([H])(N([H])C([H])([H])[H])C([H])([H])[H])C(C([H])([H])[H])(C([H])([H])[H])C([H])([H])[H])C([H])([H])c2c([H])c(OC([H])([H])C([H])([H])C([H])([H])N([H])C(=O)C([H])([H])[N+]([H])([H])C([H])([H])C([H])(N([H])C(=O)N3C([H])([H])C([H])([H])C([H])([H])C([H])(n4nc(-c5c([H])c([H])c(Oc6c([H])c([H])c(F)c([H])c6F)c([H])c5[H])c(C(=O)N([H])[H])c4N([H])[H])C3([H])[H])C([H])(C([H])([H])[H])C([H])([H])[H])c([H])c([H])c2C1([H])[H]

$$$$
65:0:0
     RDKit          3D

 96104  0  0  1  0  0  0  0  0999 V2000
  -31.9620  -22.1520   20.6840 C   0  0  0  0  0  3  0  0  0  0  0  0
  -30.8020  -21.2310   18.7510 C   0  0  0  0  0  3  0  0  0  0  0  0
  -32.0050  -20.8730   21.2690 C   0  0  0  0  0  3  0  0  0  0  0  0
  -30.8410  -19.9500   19.3370 C   0  0  0  0  0  3  0  0  0  0  0  0
  -31.3550  -22.3380   19.4250 C   0  0  0  0  0  0  0  0  0  0  0  0
  -31.4280  -19.7660   20.6110 C   0  0  0  0  0  0  0  0  0  0  0  0
  -30.6490  -17.4700   21.1860 C   0  0  0  0  0  0  0  0  0  0  0  0
  -31.5020  -18.5030   21.2590 N   0  0  0  0  0  0  0  0  0  0  0  0
  -29.6150  -17.4660   20.5100 O   0  0  0  0  0  0  0  0  0  0  0  0
  -32.2540  -18.3930   21.9260 H   0  0  0  0  0  0  0  0  0  0  0  0
  -31.0020  -16.2530   22.0500 C   0  0  0  0  0  2  0  0  0  0  0  0
  -30.6940  -14.3830   20.4430 C   0  0  0  0  0  0  0  0  0  0  0  0
  -30.2600  -12.3950   19.0500 C   0  0  0  0  0  2  0  0  0  0  0  0
  -29.2760  -12.6980   17.9070 C   0  0  0  0  0  2  0  0  0  0  0  0
  -27.8220  -12.5310   18.3820 C   0  0  0  0  0  2  0  0  0  0  0  0
  -27.5400  -13.2920   19.7020 C   0  0  0  0  0  3  0  0  0  0  0  0
  -28.6230  -12.9770   20.7580 C   0  0  0  0  0  2  0  0  0  0  0  0
  -29.9480  -13.2800   20.1800 N   0  0  0  0  0  0  0  0  0  0  0  0
  -31.6540  -14.7400   19.7540 O   0  0  0  0  0  0  0  0  0  0  0  0
  -30.3680  -15.0260   21.5680 N   0  0  0  0  0  0  0  0  0  0  0  0
  -29.5830  -14.6720   22.0920 H   0  0  0  0  0  0  0  0  0  0  0  0
  -25.1460  -13.8720   20.4600 C   0  0  0  0  0  0  0  0  0  0  0  0
  -24.0950  -13.0860   20.8500 C   0  0  0  0  0  0  0  0  0  0  0  0
  -24.5710  -11.7400   20.8030 C   0  0  0  0  0  0  0  0  0  0  0  0
  -26.1980  -13.0040   20.2060 N   0  0  0  0  0  0  0  0  0  0  0  0
  -25.8530  -11.7160   20.4650 N   0  0  0  0  0  0  0  0  0  0  0  0
  -23.8640  -10.4680   21.0040 C   0  0  0  0  0  0  0  0  0  0  0  0
  -24.3230   -9.5080   21.9330 C   0  0  0  0  0  3  0  0  0  0  0  0
  -23.6160   -8.3000   22.1220 C   0  0  0  0  0  3  0  0  0  0  0  0
  -22.4370   -8.0440   21.3830 C   0  0  0  0  0  0  0  0  0  0  0  0
  -21.9970   -8.9940   20.4450 C   0  0  0  0  0  3  0  0  0  0  0  0
  -22.7040  -10.1930   20.2530 C   0  0  0  0  0  3  0  0  0  0  0  0
  -21.7000   -6.8890   21.4810 O   0  0  0  0  0  0  0  0  0  0  0  0
  -21.6760   -6.1460   22.6350 C   0  0  0  0  0  0  0  0  0  0  0  0
  -21.2570   -6.6960   23.8670 C   0  0  0  0  0  3  0  0  0  0  0  0
  -21.1820   -5.8790   25.0120 C   0  0  0  0  0  3  0  0  0  0  0  0
  -21.5150   -4.5150   24.9270 C   0  0  0  0  0  0  0  0  0  0  0  0
  -21.9270   -3.9650   23.7020 C   0  0  0  0  0  3  0  0  0  0  0  0
  -22.0040   -4.7780   22.5570 C   0  0  0  0  0  0  0  0  0  0  0  0
  -22.3820   -4.2380   21.3730 F   0  0  0  0  0  0  0  0  0  0  0  0
  -21.4350   -3.7270   26.0260 F   0  0  0  0  0  0  0  0  0  0  0  0
  -22.6980  -13.5450   21.1580 C   0  0  0  0  0  0  0  0  0  0  0  0
  -21.9970  -12.8320   22.0310 N   0  0  0  0  0  0  0  0  0  0  0  0
  -22.2380  -14.5700   20.6580 O   0  0  0  0  0  0  0  0  0  0  0  0
  -22.3820  -12.0010   22.4560 H   0  0  0  0  0  0  0  0  0  0  0  0
  -21.0620  -13.1210   22.2800 H   0  0  0  0  0  0  0  0  0  0  0  0
  -25.2910  -15.2460   20.2860 N   0  0  0  0  0  0  0  0  0  0  0  0
  -24.5250  -15.8960   20.4200 H   0  0  0  0  0  0  0  0  0  0  0  0
  -26.1430  -15.6950   19.9710 H   0  0  0  0  0  0  0  0  0  0  0  0
  -31.2650  -23.7310   18.8200 C   0  0  0  0  0  2  0  0  0  0  0  0
  -29.0530  -24.5610   19.5830 C   0  0  0  0  0  0  0  0  0  0  0  0
  -30.3900  -24.5930   19.6030 N   0  0  0  0  0  0  0  0  0  0  0  0
  -28.4070  -23.8600   18.7980 O   0  0  0  0  0  0  0  0  0  0  0  0
  -30.8270  -25.2270   20.2570 H   0  0  0  0  0  0  0  0  0  0  0  0
  -28.3360  -25.4370   20.6100 C   0  0  0  0  0  2  0  0  0  0  0  0
  -28.4140  -26.8040   20.2010 O   0  0  0  0  0  0  0  0  0  0  0  0
  -24.5590  -31.9060   23.2670 C   0  0  0  0  0  0  0  0  0  0  0  0
  -27.2290  -27.4950   20.1980 C   0  0  0  0  0  0  0  0  0  0  0  0
  -23.3610  -30.5010   21.6200 C   0  0  0  0  0  3  0  0  0  0  0  0
  -24.8230  -28.9680   20.2030 C   0  0  0  0  0  0  0  0  0  0  0  0
  -25.8830  -30.8740   21.4280 C   0  0  0  0  0  2  0  0  0  0  0  0
  -25.9750  -29.5050   20.7910 C   0  0  0  0  0  0  0  0  0  0  0  0
  -27.1820  -28.7760   20.7830 C   0  0  0  0  0  3  0  0  0  0  0  0
  -26.0640  -26.9650   19.6000 C   0  0  0  0  0  3  0  0  0  0  0  0
  -24.8600  -27.6950   19.6060 C   0  0  0  0  0  3  0  0  0  0  0  0
  -23.5760  -29.8200   20.2410 C   0  0  0  0  0  2  0  0  0  0  0  0
  -24.6190  -31.1080   22.1640 N   0  0  0  0  0  0  0  0  0  0  0  0
  -23.4760  -32.1750   23.8040 O   0  0  0  0  0  0  0  0  0  0  0  0
  -22.7110  -29.4770   22.5780 C   0  0  0  0  0  0  0  0  0  0  0  0
  -21.3890  -29.2880   22.4400 N   0  0  0  0  0  0  0  0  0  0  0  0
  -23.3930  -28.8570   23.3970 O   0  0  0  0  0  0  0  0  0  0  0  0
  -20.9010  -29.8420   21.7510 H   0  0  0  0  0  0  0  0  0  0  0  0
  -18.0180  -28.0800   22.9080 C   0  0  0  0  0  0  0  0  0  0  0  0
  -20.5710  -28.3480   23.2060 C   0  0  0  0  0  3  0  0  0  0  0  0
  -20.6860  -26.9160   22.6340 C   0  0  0  0  0  2  0  0  0  0  0  0
  -19.5950  -26.5870   21.6090 C   0  0  0  0  0  2  0  0  0  0  0  0
  -18.2060  -26.7290   22.2370 C   0  0  0  0  0  2  0  0  0  0  0  0
  -19.1290  -28.8470   23.3470 C   0  0  0  0  0  0  0  0  0  0  0  0
  -18.9000  -30.1120   23.9300 C   0  0  0  0  0  3  0  0  0  0  0  0
  -17.5910  -30.6090   24.0790 C   0  0  0  0  0  3  0  0  0  0  0  0
  -16.4940  -29.8390   23.6580 C   0  0  0  0  0  3  0  0  0  0  0  0
  -16.7090  -28.5760   23.0770 C   0  0  0  0  0  3  0  0  0  0  0  0
  -25.8440  -32.5390   23.8910 C   0  0  0  0  0  3  0  0  0  0  0  0
  -25.5380  -33.9410   24.2020 N   0  0  0  0  0  0  0  0  0  0  0  0
  -25.8910  -34.9820   23.4370 C   0  0  0  0  0  0  0  0  0  0  0  0
  -26.5790  -34.8640   22.4190 O   0  0  0  0  0  0  0  0  0  0  0  0
  -24.9290  -34.1080   24.9900 H   0  0  0  0  0  0  0  0  0  0  0  0
  -24.1860  -36.7840   23.0240 C   0  0  0  0  0  1  0  0  0  0  0  0
  -25.4040  -36.3780   23.8700 C   0  0  0  0  0  3  0  0  0  0  0  0
  -27.5240  -37.2540   24.7460 C   0  0  0  0  0  1  0  0  0  0  0  0
  -26.4470  -37.4220   23.7720 N   0  0  0  0  0  0  0  0  0  0  0  0
  -26.0450  -38.3460   23.9020 H   0  0  0  0  0  0  0  0  0  0  0  0
  -26.3500  -31.7780   25.1780 C   0  0  1  0  0  0  0  0  0  0  0  0
  -25.2490  -31.5510   26.2400 C   0  0  0  0  0  1  0  0  0  0  0  0
  -26.9320  -30.3960   24.8000 C   0  0  0  0  0  1  0  0  0  0  0  0
  -27.4970  -32.5750   25.8420 C   0  0  0  0  0  1  0  0  0  0  0  0
  1  3  1  0
  2  4  2  0
  2  5  1  0
  4  6  1  0
  5  1  2  0
  6  8  1  0
  6  3  2  0
  7  8  1  0
  7 11  1  0
  8 10  1  0
  9  7  2  0
 12 20  1  0
 13 18  1  0
 14 15  1  0
 14 13  1  0
 16 15  1  0
 16 25  1  0
 16 17  1  0
 18 12  1  0
 18 17  1  0
 19 12  2  0
 20 11  1  0
 20 21  1  0
 22 23  2  0
 23 42  1  0
 24 23  1  0
 24 27  1  0
 25 22  1  0
 25 26  1  0
 26 24  2  0
 27 28  1  0
 28 29  2  0
 30 33  1  0
 30 29  1  0
 31 30  2  0
 32 31  1  0
 32 27  2  0
 33 34  1  0
 34 35  1  0
 35 36  2  0
 37 36  1  0
 37 41  1  0
 38 37  2  0
 39 34  2  0
 39 38  1  0
 40 39  1  0
 42 43  1  0
 43 46  1  0
 43 45  1  0
 44 42  2  0
 47 48  1  0
 47 22  1  0
 49 47  1  0
 50  5  1  0
 50 52  1  0
 51 52  1  0
 51 55  1  0
 52 54  1  0
 53 51  2  0
 56 55  1  0
 57 68  2  0
 58 56  1  0
 58 63  1  0
 59 67  1  0
 59 69  1  0
 60 66  1  0
 60 62  1  0
 61 67  1  0
 62 61  1  0
 63 62  2  0
 64 65  1  0
 64 58  2  0
 65 60  2  0
 66 59  1  0
 67 57  1  0
 69 71  2  0
 70 69  1  0
 72 70  1  0
 73 82  2  0
 73 78  1  0
 74 70  1  0
 74 78  1  0
 75 74  1  0
 76 77  1  0
 76 75  1  0
 77 73  1  0
 78 79  2  0
 79 80  1  0
 81 80  2  0
 82 81  1  0
 83 57  1  0
 83 84  1  0
 83 93  1  0
 84 87  1  0
 85 89  1  0
 85 84  1  0
 86 85  2  0
 89 88  1  0
 91 89  1  0
 91 92  1  0
 91 90  1  0
 93 96  1  1
 93 94  1  0
 95 93  1  0
M  ISO  4  12 100  20 100  55 101  56 101
M  END
>  <TORSDO>  (62) 
F 21

>  <SCORE>  (62) 
-13.558

>  <name>  (62) 
65

>  <ligand_id>  (62) 
65

>  <original_smiles>  (62) 
[H]c1c([H])c([H])c2c(c1[H])C([H])([H])C([H])([H])C([H])([H])C2([H])N([H])C(=O)C1([H])N(C(=O)C([H])(N([H])C(=O)C([H])(N([H])C([H])([H])[H])C([H])([H])[H])C(C([H])([H])[H])(C([H])([H])[H])C([H])([H])[H])C([H])([H])c2c([H])c(OC([H])([H])C(=O)N([H])C([H])([H])c3c([H])c([H])c(N([H])C(=O)C([H])([H])N([H])C(=O)N4C([H])([H])C([H])([H])C([H])([H])C([H])(n5nc(-c6c([H])c([H])c(Oc7c([H])c([H])c(F)c([H])c7F)c([H])c6[H])c(C(=O)N([H])[H])c5N([H])[H])C4([H])[H])c([H])c3[H])c([H])c([H])c2C1([H])[H]

>  <smiles>  (62) 
[H]c1c([H])c([H])c2c(c1[H])C([H])([H])C([H])([H])C([H])([H])C2([H])N([H])C(=O)C1([H])N(C(=O)C([H])(N([H])C(=O)C([H])(N([H])C([H])([H])[H])C([H])([H])[H])C(C([H])([H])[H])(C([H])([H])[H])C([H])([H])[H])C([H])([H])c2c([H])c(OC([H])([H])C(=O)N([H])C([H])([H])c3c([H])c([H])c(N([H])C(=O)C([H])([H])N([H])C(=O)N4C([H])([H])C([H])([H])C([H])([H])C([H])(n5nc(-c6c([H])c([H])c(Oc7c([H])c([H])c(F)c([H])c7F)c([H])c6[H])c(C(=O)N([H])[H])c5N([H])[H])C4([H])[H])c([H])c3[H])c([H])c([H])c2C1([H])[H]

$$$$
66:0:0
     RDKit          3D

108115  0  0  1  0  0  0  0  0999 V2000
  -24.7220  -23.7270   16.7550 C   0  0  0  0  0  0  0  0  0  0  0  0
  -24.8260  -24.3860   15.5940 N   0  0  0  0  0  0  0  0  0  0  0  0
  -24.4930  -24.3050   17.8190 O   0  0  0  0  0  0  0  0  0  0  0  0
  -24.9550  -23.8260   14.7600 H   0  0  0  0  0  0  0  0  0  0  0  0
  -24.7900  -25.8420   15.4150 C   0  0  0  0  0  2  0  0  0  0  0  0
  -26.0570  -26.3690   14.6940 C   0  0  0  0  0  2  0  0  0  0  0  0
  -27.1250  -26.8710   15.5950 N   0  0  0  0  0  4  0  0  0  0  0  0
  -26.7960  -27.6970   16.0680 H   0  0  0  0  0  0  0  0  0  0  0  0
  -27.8940  -27.1570   15.0100 H   0  0  0  0  0  0  0  0  0  0  0  0
  -27.6370  -25.9190   16.6020 C   0  0  0  0  0  2  0  0  0  0  0  0
  -28.6290  -26.5950   17.5800 C   0  0  0  0  0  3  0  0  0  0  0  0
  -29.9730  -26.5860   17.0100 N   0  0  0  0  0  0  0  0  0  0  0  0
  -30.2630  -25.6330   16.8110 H   0  0  0  0  0  0  0  0  0  0  0  0
  -30.0300  -27.0720   16.1220 H   0  0  0  0  0  0  0  0  0  0  0  0
  -28.6470  -25.9020   18.9760 C   0  0  0  0  0  2  0  0  0  0  0  0
  -28.4030  -26.8240   20.0410 O   0  0  0  0  0  0  0  0  0  0  0  0
  -24.5810  -31.9080   23.2270 C   0  0  0  0  0  0  0  0  0  0  0  0
  -27.1870  -27.4770   20.1040 C   0  0  0  0  0  0  0  0  0  0  0  0
  -23.3500  -30.5170   21.5930 C   0  0  0  0  0  3  0  0  0  0  0  0
  -24.7770  -28.9620   20.1700 C   0  0  0  0  0  0  0  0  0  0  0  0
  -25.8720  -30.8640   21.3690 C   0  0  0  0  0  2  0  0  0  0  0  0
  -25.9440  -29.4890   20.7390 C   0  0  0  0  0  0  0  0  0  0  0  0
  -27.1460  -28.7490   20.7130 C   0  0  0  0  0  3  0  0  0  0  0  0
  -25.9890  -26.9410   19.5770 C   0  0  0  0  0  3  0  0  0  0  0  0
  -24.7920  -27.6790   19.5980 C   0  0  0  0  0  3  0  0  0  0  0  0
  -23.5400  -29.8260   20.2160 C   0  0  0  0  0  2  0  0  0  0  0  0
  -24.6190  -31.1120   22.1220 N   0  0  0  0  0  0  0  0  0  0  0  0
  -23.5070  -32.1880   23.7760 O   0  0  0  0  0  0  0  0  0  0  0  0
  -22.7030  -29.5010   22.5640 C   0  0  0  0  0  0  0  0  0  0  0  0
  -21.3780  -29.3250   22.4470 N   0  0  0  0  0  0  0  0  0  0  0  0
  -23.3900  -28.8740   23.3770 O   0  0  0  0  0  0  0  0  0  0  0  0
  -20.8850  -29.8780   21.7580 H   0  0  0  0  0  0  0  0  0  0  0  0
  -18.0000  -28.1520   22.9610 C   0  0  0  0  0  0  0  0  0  0  0  0
  -20.5610  -28.3960   23.2250 C   0  0  0  0  0  3  0  0  0  0  0  0
  -20.6540  -26.9630   22.6530 C   0  0  0  0  0  2  0  0  0  0  0  0
  -19.5460  -26.6420   21.6410 C   0  0  0  0  0  2  0  0  0  0  0  0
  -18.1680  -26.8000   22.2890 C   0  0  0  0  0  2  0  0  0  0  0  0
  -19.1240  -28.9090   23.3860 C   0  0  0  0  0  0  0  0  0  0  0  0
  -18.9160  -30.1750   23.9750 C   0  0  0  0  0  3  0  0  0  0  0  0
  -17.6150  -30.6880   24.1340 C   0  0  0  0  0  3  0  0  0  0  0  0
  -16.5060  -29.9270   23.7300 C   0  0  0  0  0  3  0  0  0  0  0  0
  -16.6980  -28.6610   23.1510 C   0  0  0  0  0  3  0  0  0  0  0  0
  -25.8790  -32.5290   23.8340 C   0  0  0  0  0  3  0  0  0  0  0  0
  -26.4100  -31.7410   25.0920 C   0  0  1  0  0  0  0  0  0  0  0  0
  -25.3330  -31.4850   26.1730 C   0  0  0  0  0  1  0  0  0  0  0  0
  -26.9900  -30.3720   24.6680 C   0  0  0  0  0  1  0  0  0  0  0  0
  -27.5710  -32.5290   25.7410 C   0  0  0  0  0  1  0  0  0  0  0  0
  -25.5760  -33.9250   24.1840 N   0  0  0  0  0  0  0  0  0  0  0  0
  -25.9050  -34.9850   23.4320 C   0  0  0  0  0  0  0  0  0  0  0  0
  -26.5660  -34.8880   22.3930 O   0  0  0  0  0  0  0  0  0  0  0  0
  -24.9780  -34.0730   24.9840 H   0  0  0  0  0  0  0  0  0  0  0  0
  -24.1750  -36.7790   23.1110 C   0  0  0  0  0  1  0  0  0  0  0  0
  -25.4240  -36.3690   23.9080 C   0  0  0  0  0  3  0  0  0  0  0  0
  -27.5750  -37.2380   24.7090 C   0  0  0  0  0  1  0  0  0  0  0  0
  -26.4560  -37.4210   23.7880 N   0  0  0  0  0  0  0  0  0  0  0  0
  -26.0550  -38.3410   23.9510 H   0  0  0  0  0  0  0  0  0  0  0  0
  -24.9630  -22.2110   16.7280 C   0  0  0  0  0  2  0  0  0  0  0  0
  -26.0890  -21.6680   18.8800 C   0  0  0  0  0  0  0  0  0  0  0  0
  -26.1200  -21.8890   17.5590 N   0  0  0  0  0  0  0  0  0  0  0  0
  -25.0370  -21.5460   19.5130 O   0  0  0  0  0  0  0  0  0  0  0  0
  -27.0280  -21.9370   17.1170 H   0  0  0  0  0  0  0  0  0  0  0  0
  -27.4360  -21.5820   19.6050 C   0  0  0  0  0  2  0  0  0  0  0  0
  -27.8200  -20.2170   19.7270 O   0  0  0  0  0  0  0  0  0  0  0  0
  -29.0900  -20.0780   20.3520 C   0  0  0  0  0  2  0  0  0  0  0  0
  -29.3980  -18.5890   20.5590 C   0  0  0  0  0  2  0  0  0  0  0  0
  -30.7330  -18.3740   21.2840 C   0  0  0  0  0  2  0  0  0  0  0  0
  -30.9610  -16.9830   21.4770 O   0  0  0  0  0  0  0  0  0  0  0  0
  -32.0240  -16.3810   20.9190 C   0  0  0  0  0  0  0  0  0  0  0  0
  -32.8230  -16.8970   20.1360 O   0  0  0  0  0  0  0  0  0  0  0  0
  -32.1680  -14.9270   21.3560 C   0  0  0  0  0  2  0  0  0  0  0  0
  -30.9640  -13.6220   19.6280 C   0  0  0  0  0  0  0  0  0  0  0  0
  -30.2620  -11.5650   18.4760 C   0  0  0  0  0  2  0  0  0  0  0  0
  -29.1810  -11.7630   17.4030 C   0  0  0  0  0  2  0  0  0  0  0  0
  -27.7810  -11.7100   18.0360 C   0  0  0  0  0  2  0  0  0  0  0  0
  -27.6510  -12.6490   19.2630 C   0  0  0  0  0  3  0  0  0  0  0  0
  -28.8250  -12.4520   20.2480 C   0  0  0  0  0  2  0  0  0  0  0  0
  -30.0990  -12.5860   19.5190 N   0  0  0  0  0  0  0  0  0  0  0  0
  -31.7710  -13.9420   18.7510 O   0  0  0  0  0  0  0  0  0  0  0  0
  -31.0590  -14.1090   20.8680 N   0  0  0  0  0  0  0  0  0  0  0  0
  -30.3940  -13.7730   21.5490 H   0  0  0  0  0  0  0  0  0  0  0  0
  -25.4180  -13.4290   20.2870 C   0  0  0  0  0  0  0  0  0  0  0  0
  -24.3560  -12.7350   20.8040 C   0  0  0  0  0  0  0  0  0  0  0  0
  -24.7070  -11.3530   20.7180 C   0  0  0  0  0  0  0  0  0  0  0  0
  -26.3560  -12.4740   19.9240 N   0  0  0  0  0  0  0  0  0  0  0  0
  -25.9370  -11.2210   20.2370 N   0  0  0  0  0  0  0  0  0  0  0  0
  -23.9220  -10.1470   21.0120 C   0  0  0  0  0  0  0  0  0  0  0  0
  -24.3970   -9.1550   21.8990 C   0  0  0  0  0  3  0  0  0  0  0  0
  -23.6150   -8.0150   22.1810 C   0  0  0  0  0  3  0  0  0  0  0  0
  -22.3450   -7.8570   21.5770 C   0  0  0  0  0  0  0  0  0  0  0  0
  -21.8870   -8.8360   20.6780 C   0  0  0  0  0  3  0  0  0  0  0  0
  -22.6700   -9.9690   20.3930 C   0  0  0  0  0  3  0  0  0  0  0  0
  -21.5280   -6.7690   21.7710 O   0  0  0  0  0  0  0  0  0  0  0  0
  -21.5690   -6.0350   22.9300 C   0  0  0  0  0  0  0  0  0  0  0  0
  -21.3420   -6.6250   24.1930 C   0  0  0  0  0  3  0  0  0  0  0  0
  -21.3240   -5.8230   25.3510 C   0  0  0  0  0  3  0  0  0  0  0  0
  -21.5240   -4.4330   25.2490 C   0  0  0  0  0  0  0  0  0  0  0  0
  -21.7430   -3.8440   23.9910 C   0  0  0  0  0  3  0  0  0  0  0  0
  -21.7640   -4.6430   22.8340 C   0  0  0  0  0  0  0  0  0  0  0  0
  -21.9550   -4.0670   21.6230 F   0  0  0  0  0  0  0  0  0  0  0  0
  -21.4990   -3.6600   26.3600 F   0  0  0  0  0  0  0  0  0  0  0  0
  -23.0480  -13.3150   21.2620 C   0  0  0  0  0  0  0  0  0  0  0  0
  -22.4010  -12.6720   22.2290 N   0  0  0  0  0  0  0  0  0  0  0  0
  -22.6170  -14.3690   20.7980 O   0  0  0  0  0  0  0  0  0  0  0  0
  -22.7610  -11.8170   22.6230 H   0  0  0  0  0  0  0  0  0  0  0  0
  -21.5270  -13.0420   22.5790 H   0  0  0  0  0  0  0  0  0  0  0  0
  -25.6590  -14.7820   20.0800 N   0  0  0  0  0  0  0  0  0  0  0  0
  -24.9730  -15.4970   20.2930 H   0  0  0  0  0  0  0  0  0  0  0  0
  -26.4960  -15.1560   19.6480 H   0  0  0  0  0  0  0  0  0  0  0  0
  1  3  2  0
  2  1  1  0
  4  2  1  0
  5  2  1  0
  6  5  1  0
  6  7  1  0
  7  8  1  0
  7 10  1  0
  9  7  1  0
 11 10  1  0
 11 15  1  0
 12 11  1  0
 13 12  1  0
 14 12  1  0
 15 16  1  0
 16 18  1  0
 17 28  2  0
 18 23  1  0
 19 27  1  0
 19 29  1  0
 20 26  1  0
 20 22  1  0
 21 27  1  0
 22 21  1  0
 23 22  2  0
 24 25  1  0
 24 18  2  0
 25 20  2  0
 26 19  1  0
 27 17  1  0
 29 31  2  0
 30 29  1  0
 32 30  1  0
 33 42  2  0
 33 38  1  0
 34 30  1  0
 34 38  1  0
 35 34  1  0
 36 37  1  0
 36 35  1  0
 37 33  1  0
 38 39  2  0
 39 40  1  0
 41 40  2  0
 42 41  1  0
 43 17  1  0
 43 48  1  0
 43 44  1  0
 44 47  1  1
 44 45  1  0
 46 44  1  0
 48 51  1  0
 49 53  1  0
 49 48  1  0
 50 49  2  0
 53 52  1  0
 55 53  1  0
 55 56  1  0
 55 54  1  0
 57  1  1  0
 57 59  1  0
 58 60  2  0
 58 62  1  0
 59 58  1  0
 61 59  1  0
 62 63  1  0
 63 64  1  0
 64 65  1  0
 65 66  1  0
 66 67  1  0
 68 70  1  0
 68 67  1  0
 69 68  2  0
 71 79  1  0
 72 77  1  0
 73 74  1  0
 73 72  1  0
 75 74  1  0
 75 84  1  0
 75 76  1  0
 77 71  1  0
 77 76  1  0
 78 71  2  0
 79 70  1  0
 79 80  1  0
 81 82  2  0
 82101  1  0
 83 82  1  0
 83 86  1  0
 84 85  1  0
 84 81  1  0
 85 83  2  0
 86 87  1  0
 87 88  2  0
 89 92  1  0
 89 88  1  0
 90 89  2  0
 91 90  1  0
 91 86  2  0
 92 93  1  0
 93 94  1  0
 94 95  2  0
 96 95  1  0
 96100  1  0
 97 96  2  0
 98 93  2  0
 98 97  1  0
 99 98  1  0
101102  1  0
102105  1  0
102104  1  0
103101  2  0
106 81  1  0
106107  1  0
108106  1  0
M  ISO  4  15 101  16 101  71 100  79 100
M  END
>  <TORSDO>  (63) 
F 33

>  <SCORE>  (63) 
-8.482

>  <name>  (63) 
66

>  <ligand_id>  (63) 
66

>  <original_smiles>  (63) 
[H]c1c([H])c([H])c2c(c1[H])C([H])([H])C([H])([H])C([H])([H])C2([H])N([H])C(=O)C1([H])N(C(=O)C([H])(N([H])C(=O)C([H])(N([H])C([H])([H])[H])C([H])([H])[H])C(C([H])([H])[H])(C([H])([H])[H])C([H])([H])[H])C([H])([H])c2c([H])c(OC([H])([H])C([H])(N([H])[H])C([H])([H])[N+]([H])([H])C([H])([H])C([H])([H])N([H])C(=O)C([H])([H])N([H])C(=O)C([H])([H])OC([H])([H])C([H])([H])C([H])([H])OC(=O)C([H])([H])N([H])C(=O)N3C([H])([H])C([H])([H])C([H])([H])C([H])(n4nc(-c5c([H])c([H])c(Oc6c([H])c([H])c(F)c([H])c6F)c([H])c5[H])c(C(=O)N([H])[H])c4N([H])[H])C3([H])[H])c([H])c([H])c2C1([H])[H]

>  <smiles>  (63) 
[H]c1c([H])c([H])c2c(c1[H])C([H])([H])C([H])([H])C([H])([H])C2([H])N([H])C(=O)C1([H])N(C(=O)C([H])(N([H])C(=O)C([H])(N([H])C([H])([H])[H])C([H])([H])[H])C(C([H])([H])[H])(C([H])([H])[H])C([H])([H])[H])C([H])([H])c2c([H])c(OC([H])([H])C([H])(N([H])[H])C([H])([H])[N+]([H])([H])C([H])([H])C([H])([H])N([H])C(=O)C([H])([H])N([H])C(=O)C([H])([H])OC([H])([H])C([H])([H])C([H])([H])OC(=O)C([H])([H])N([H])C(=O)N3C([H])([H])C([H])([H])C([H])([H])C([H])(n4nc(-c5c([H])c([H])c(Oc6c([H])c([H])c(F)c([H])c6F)c([H])c5[H])c(C(=O)N([H])[H])c4N([H])[H])C3([H])[H])c([H])c([H])c2C1([H])[H]

$$$$
67:0:0
     RDKit          3D

117124  0  0  1  0  0  0  0  0999 V2000
  -27.7920  -22.6830   25.5360 C   0  0  0  0  0  3  0  0  0  0  0  0
  -26.7680  -21.5290   25.6620 C   0  0  0  0  0  0  0  0  0  0  0  0
  -25.5420  -21.8000   25.2110 N   0  0  0  0  0  0  0  0  0  0  0  0
  -27.0810  -20.4150   26.0850 O   0  0  0  0  0  0  0  0  0  0  0  0
  -25.3870  -22.7640   24.9380 H   0  0  0  0  0  0  0  0  0  0  0  0
  -24.6320  -20.8030   24.6530 C   0  0  0  0  0  2  0  0  0  0  0  0
  -24.8890  -20.6500   23.1470 C   0  0  0  0  0  0  0  0  0  0  0  0
  -25.4510  -21.6820   22.4980 N   0  0  0  0  0  0  0  0  0  0  0  0
  -24.6430  -19.5810   22.5870 O   0  0  0  0  0  0  0  0  0  0  0  0
  -25.5470  -22.5700   22.9700 H   0  0  0  0  0  0  0  0  0  0  0  0
  -25.9640  -21.5940   21.1410 C   0  0  0  0  0  2  0  0  0  0  0  0
  -26.4540  -22.9440   20.6240 C   0  0  0  0  0  0  0  0  0  0  0  0
  -27.7760  -23.1640   20.6770 N   0  0  0  0  0  0  0  0  0  0  0  0
  -25.6540  -23.7530   20.1560 O   0  0  0  0  0  0  0  0  0  0  0  0
  -28.3520  -22.4280   21.0610 H   0  0  0  0  0  0  0  0  0  0  0  0
  -28.4700  -24.3140   20.1050 C   0  0  0  0  0  2  0  0  0  0  0  0
  -28.3430  -25.5890   20.9660 C   0  0  0  0  0  2  0  0  0  0  0  0
  -28.3880  -26.7480   20.1350 O   0  0  0  0  0  0  0  0  0  0  0  0
  -24.6070  -31.8760   23.2100 C   0  0  0  0  0  0  0  0  0  0  0  0
  -27.2180  -27.4680   20.1080 C   0  0  0  0  0  0  0  0  0  0  0  0
  -23.3830  -30.5000   21.5580 C   0  0  0  0  0  3  0  0  0  0  0  0
  -24.8250  -28.9710   20.1150 C   0  0  0  0  0  0  0  0  0  0  0  0
  -25.8990  -30.8650   21.3340 C   0  0  0  0  0  2  0  0  0  0  0  0
  -25.9810  -29.4900   20.7090 C   0  0  0  0  0  0  0  0  0  0  0  0
  -27.1760  -28.7400   20.7140 C   0  0  0  0  0  3  0  0  0  0  0  0
  -26.0490  -26.9600   19.4950 C   0  0  0  0  0  3  0  0  0  0  0  0
  -24.8530  -27.7060   19.5060 C   0  0  0  0  0  3  0  0  0  0  0  0
  -23.5740  -29.8210   20.1740 C   0  0  0  0  0  2  0  0  0  0  0  0
  -24.6520  -31.0860   22.1000 N   0  0  0  0  0  0  0  0  0  0  0  0
  -23.5300  -32.1490   23.7580 O   0  0  0  0  0  0  0  0  0  0  0  0
  -22.7320  -29.4720   22.5110 C   0  0  0  0  0  0  0  0  0  0  0  0
  -21.4070  -29.3050   22.3810 N   0  0  0  0  0  0  0  0  0  0  0  0
  -23.4170  -28.8210   23.3070 O   0  0  0  0  0  0  0  0  0  0  0  0
  -20.9220  -29.8790   21.7060 H   0  0  0  0  0  0  0  0  0  0  0  0
  -18.0230  -28.1400   22.8510 C   0  0  0  0  0  0  0  0  0  0  0  0
  -20.5830  -28.3670   23.1390 C   0  0  0  0  0  3  0  0  0  0  0  0
  -20.6720  -26.9440   22.5450 C   0  0  0  0  0  2  0  0  0  0  0  0
  -19.5680  -26.6390   21.5260 C   0  0  0  0  0  2  0  0  0  0  0  0
  -18.1850  -26.7950   22.1650 C   0  0  0  0  0  2  0  0  0  0  0  0
  -19.1490  -28.8830   23.2950 C   0  0  0  0  0  0  0  0  0  0  0  0
  -18.9430  -30.1420   23.8990 C   0  0  0  0  0  3  0  0  0  0  0  0
  -17.6450  -30.6600   24.0620 C   0  0  0  0  0  3  0  0  0  0  0  0
  -16.5330  -29.9150   23.6350 C   0  0  0  0  0  3  0  0  0  0  0  0
  -16.7240  -28.6570   23.0380 C   0  0  0  0  0  3  0  0  0  0  0  0
  -25.9060  -32.4830   23.8310 C   0  0  0  0  0  3  0  0  0  0  0  0
  -26.4420  -31.6580   25.0660 C   0  0  1  0  0  0  0  0  0  0  0  0
  -25.3530  -31.3790   26.1310 C   0  0  0  0  0  1  0  0  0  0  0  0
  -27.0240  -30.2980   24.6100 C   0  0  0  0  0  1  0  0  0  0  0  0
  -27.5890  -32.4280   25.7630 C   0  0  0  0  0  1  0  0  0  0  0  0
  -25.6020  -33.8650   24.2220 N   0  0  0  0  0  0  0  0  0  0  0  0
  -25.9070  -34.9480   23.4960 C   0  0  0  0  0  0  0  0  0  0  0  0
  -26.5580  -34.8940   22.4490 O   0  0  0  0  0  0  0  0  0  0  0  0
  -25.0420  -33.9820   25.0530 H   0  0  0  0  0  0  0  0  0  0  0  0
  -24.1490  -36.7350   23.2610 C   0  0  0  0  0  1  0  0  0  0  0  0
  -25.4130  -36.3090   24.0220 C   0  0  0  0  0  3  0  0  0  0  0  0
  -27.5570  -37.1860   24.8440 C   0  0  0  0  0  1  0  0  0  0  0  0
  -26.4300  -37.3810   23.9370 N   0  0  0  0  0  0  0  0  0  0  0  0
  -26.0150  -38.2860   24.1430 H   0  0  0  0  0  0  0  0  0  0  0  0
  -26.4590  -24.7850   25.7470 C   0  0  0  0  0  0  0  0  0  0  0  0
  -27.3440  -23.8970   26.2400 N   0  0  0  0  0  0  0  0  0  0  0  0
  -25.8930  -24.5950   24.6640 O   0  0  0  0  0  0  0  0  0  0  0  0
  -27.7180  -24.0610   27.1630 H   0  0  0  0  0  0  0  0  0  0  0  0
  -26.1500  -26.0530   26.5560 C   0  0  0  0  0  2  0  0  0  0  0  0
  -24.9630  -26.7430   26.0220 N   0  0  0  0  0  4  0  0  0  0  0  0
  -25.0400  -26.8270   25.0230 H   0  0  0  0  0  0  0  0  0  0  0  0
  -24.8630  -27.6540   26.4280 H   0  0  0  0  0  0  0  0  0  0  0  0
  -24.1480  -26.1960   26.2250 H   0  0  0  0  0  0  0  0  0  0  0  0
  -29.2270  -22.2850   25.9930 C   0  0  0  0  0  2  0  0  0  0  0  0
  -30.1300  -21.7640   24.8490 C   0  0  0  0  0  2  0  0  0  0  0  0
  -29.8920  -20.3060   24.4030 C   0  0  0  0  0  2  0  0  0  0  0  0
  -30.7050  -19.9230   23.1460 C   0  0  0  0  0  2  0  0  0  0  0  0
  -30.5030  -17.4710   22.4340 C   0  0  0  0  0  0  0  0  0  0  0  0
  -29.3330  -17.6090   21.7890 N   0  0  0  0  0  4  0  0  0  0  0  0
  -31.0830  -18.5010   23.0950 N   0  0  0  0  0  0  0  0  0  0  0  0
  -28.9470  -16.8190   21.2930 H   0  0  0  0  0  0  0  0  0  0  0  0
  -28.7940  -18.4590   21.8020 H   0  0  0  0  0  0  0  0  0  0  0  0
  -31.9190  -18.2770   23.6220 H   0  0  0  0  0  0  0  0  0  0  0  0
  -31.5620  -15.7570   23.8770 C   0  0  0  0  0  1  0  0  0  0  0  0
  -31.2050  -16.1310   22.4280 C   0  0  0  0  0  3  0  0  0  0  0  0
  -30.7700  -14.3600   20.7160 C   0  0  0  0  0  0  0  0  0  0  0  0
  -30.4060  -12.2960   19.4130 C   0  0  0  0  0  2  0  0  0  0  0  0
  -29.4910  -12.5390   18.1990 C   0  0  0  0  0  2  0  0  0  0  0  0
  -28.0060  -12.4120   18.5940 C   0  0  0  0  0  2  0  0  0  0  0  0
  -27.6550  -13.2200   19.8730 C   0  0  0  0  0  3  0  0  0  0  0  0
  -28.6860  -12.9630   20.9970 C   0  0  0  0  0  2  0  0  0  0  0  0
  -30.0350  -13.2420   20.4760 N   0  0  0  0  0  0  0  0  0  0  0  0
  -31.7570  -14.6690   20.0440 O   0  0  0  0  0  0  0  0  0  0  0  0
  -30.4150  -15.0560   21.8080 N   0  0  0  0  0  0  0  0  0  0  0  0
  -29.6250  -14.7100   22.3290 H   0  0  0  0  0  0  0  0  0  0  0  0
  -25.2490  -13.8190   20.5710 C   0  0  0  0  0  0  0  0  0  0  0  0
  -24.1810  -13.0440   20.9230 C   0  0  0  0  0  0  0  0  0  0  0  0
  -24.6380  -11.6900   20.8790 C   0  0  0  0  0  0  0  0  0  0  0  0
  -26.2960  -12.9420   20.3330 N   0  0  0  0  0  0  0  0  0  0  0  0
  -25.9300  -11.6570   20.5740 N   0  0  0  0  0  0  0  0  0  0  0  0
  -23.9110  -10.4280   21.0440 C   0  0  0  0  0  0  0  0  0  0  0  0
  -24.3660   -9.4170   21.9210 C   0  0  0  0  0  3  0  0  0  0  0  0
  -23.6310   -8.2210   22.0740 C   0  0  0  0  0  3  0  0  0  0  0  0
  -22.4280   -8.0290   21.3540 C   0  0  0  0  0  0  0  0  0  0  0  0
  -21.9940   -9.0280   20.4640 C   0  0  0  0  0  3  0  0  0  0  0  0
  -22.7290  -10.2150   20.3070 C   0  0  0  0  0  3  0  0  0  0  0  0
  -21.6600   -6.8930   21.4290 O   0  0  0  0  0  0  0  0  0  0  0  0
  -21.6840   -6.0800   22.5340 C   0  0  0  0  0  0  0  0  0  0  0  0
  -21.4010   -6.5680   23.8280 C   0  0  0  0  0  3  0  0  0  0  0  0
  -21.3680   -5.6810   24.9230 C   0  0  0  0  0  3  0  0  0  0  0  0
  -21.6060   -4.3070   24.7250 C   0  0  0  0  0  0  0  0  0  0  0  0
  -21.8780   -3.8190   23.4340 C   0  0  0  0  0  3  0  0  0  0  0  0
  -21.9140   -4.7030   22.3420 C   0  0  0  0  0  0  0  0  0  0  0  0
  -22.1600   -4.2220   21.0970 F   0  0  0  0  0  0  0  0  0  0  0  0
  -21.5610   -3.4530   25.7730 F   0  0  0  0  0  0  0  0  0  0  0  0
  -22.7810  -13.5200   21.1910 C   0  0  0  0  0  0  0  0  0  0  0  0
  -22.0400  -12.8260   22.0460 N   0  0  0  0  0  0  0  0  0  0  0  0
  -22.3530  -14.5530   20.6720 O   0  0  0  0  0  0  0  0  0  0  0  0
  -22.3900  -11.9940   22.4990 H   0  0  0  0  0  0  0  0  0  0  0  0
  -21.1020  -13.1370   22.2570 H   0  0  0  0  0  0  0  0  0  0  0  0
  -25.4100  -15.1950   20.4170 N   0  0  0  0  0  0  0  0  0  0  0  0
  -24.6340  -15.8350   20.5390 H   0  0  0  0  0  0  0  0  0  0  0  0
  -26.2480  -15.6490   20.0820 H   0  0  0  0  0  0  0  0  0  0  0  0
  1  2  1  0
  1 68  1  0
  1 60  1  0
  2  4  2  0
  3  2  1  0
  5  3  1  0
  6  3  1  0
  7  6  1  0
  8 10  1  0
  8  7  1  0
  9  7  2  0
 11  8  1  0
 12 13  1  0
 12 11  1  0
 13 15  1  0
 14 12  2  0
 16 13  1  0
 16 17  1  0
 18 17  1  0
 19 30  2  0
 20 18  1  0
 20 25  1  0
 21 29  1  0
 21 31  1  0
 22 28  1  0
 22 24  1  0
 23 29  1  0
 24 25  2  0
 24 23  1  0
 26 27  1  0
 26 20  2  0
 27 22  2  0
 28 21  1  0
 29 19  1  0
 31 33  2  0
 32 31  1  0
 34 32  1  0
 35 44  2  0
 35 40  1  0
 36 32  1  0
 36 40  1  0
 37 36  1  0
 38 39  1  0
 38 37  1  0
 39 35  1  0
 40 41  2  0
 41 42  1  0
 43 42  2  0
 44 43  1  0
 45 19  1  0
 45 50  1  0
 45 46  1  0
 46 49  1  1
 46 47  1  0
 48 46  1  0
 50 53  1  0
 51 55  1  0
 51 50  1  0
 52 51  2  0
 55 54  1  0
 57 55  1  0
 57 58  1  0
 57 56  1  0
 59 60  1  0
 59 63  1  0
 60 62  1  0
 61 59  2  0
 64 67  1  0
 64 66  1  0
 64 63  1  0
 65 64  1  0
 69 68  1  0
 70 69  1  0
 71 70  1  0
 72 74  1  0
 73 76  1  0
 73 72  2  0
 74 71  1  0
 74 77  1  0
 75 73  1  0
 79 72  1  0
 79 78  1  0
 80 88  1  0
 81 86  1  0
 82 83  1  0
 82 81  1  0
 84 83  1  0
 84 93  1  0
 84 85  1  0
 86 80  1  0
 86 85  1  0
 87 80  2  0
 88 89  1  0
 88 79  1  0
 90 91  2  0
 91110  1  0
 92 91  1  0
 92 95  1  0
 93 90  1  0
 93 94  1  0
 94 92  2  0
 95 96  1  0
 96 97  2  0
 98101  1  0
 98 97  1  0
 99 98  2  0
100 99  1  0
100 95  2  0
101102  1  0
102103  1  0
103104  2  0
105104  1  0
105109  1  0
106105  2  0
107102  2  0
107106  1  0
108107  1  0
110111  1  0
111114  1  0
111113  1  0
112110  2  0
115116  1  0
115 90  1  0
117115  1  0
M  ISO  4  17 101  18 101  80 100  88 100
M  END
>  <TORSDO>  (64) 
F 32

>  <SCORE>  (64) 
48.792

>  <name>  (64) 
67

>  <ligand_id>  (64) 
67

>  <original_smiles>  (64) 
[H]c1c([H])c([H])c2c(c1[H])C([H])([H])C([H])([H])C([H])([H])C2([H])N([H])C(=O)C1([H])N(C(=O)C([H])(N([H])C(=O)C([H])(N([H])C([H])([H])[H])C([H])([H])[H])C(C([H])([H])[H])(C([H])([H])[H])C([H])([H])[H])C([H])([H])c2c([H])c(OC([H])([H])C([H])([H])N([H])C(=O)C([H])([H])N([H])C(=O)C([H])([H])N([H])C(=O)C([H])(N([H])C(=O)C([H])([H])[N+]([H])([H])[H])C([H])([H])C([H])([H])C([H])([H])C([H])([H])[N+]([H])=C(N([H])[H])C([H])(N([H])C(=O)N3C([H])([H])C([H])([H])C([H])([H])C([H])(n4nc(-c5c([H])c([H])c(Oc6c([H])c([H])c(F)c([H])c6F)c([H])c5[H])c(C(=O)N([H])[H])c4N([H])[H])C3([H])[H])C([H])([H])[H])c([H])c([H])c2C1([H])[H]

>  <smiles>  (64) 
[H]c1c([H])c([H])c2c(c1[H])C([H])([H])C([H])([H])C([H])([H])C2([H])N([H])C(=O)C1([H])N(C(=O)C([H])(N([H])C(=O)C([H])(N([H])C([H])([H])[H])C([H])([H])[H])C(C([H])([H])[H])(C([H])([H])[H])C([H])([H])[H])C([H])([H])c2c([H])c(OC([H])([H])C([H])([H])N([H])C(=O)C([H])([H])N([H])C(=O)C([H])([H])N([H])C(=O)C([H])(N([H])C(=O)C([H])([H])[N+]([H])([H])[H])C([H])([H])C([H])([H])C([H])([H])C([H])([H])[N+]([H])=C(N([H])[H])C([H])(N([H])C(=O)N3C([H])([H])C([H])([H])C([H])([H])C([H])(n4nc(-c5c([H])c([H])c(Oc6c([H])c([H])c(F)c([H])c6F)c([H])c5[H])c(C(=O)N([H])[H])c4N([H])[H])C3([H])[H])C([H])([H])[H])c([H])c([H])c2C1([H])[H]

$$$$
69:0:0
     RDKit          3D

112120  0  0  1  0  0  0  0  0999 V2000
  -33.2140  -25.4510   22.5780 C   0  0  0  0  0  0  0  0  0  0  0  0
  -33.8700  -25.4390   23.7350 N   0  0  0  0  0  4  0  0  0  0  0  0
  -33.8720  -25.6660   21.4180 N   0  0  0  0  0  0  0  0  0  0  0  0
  -31.8870  -25.2600   22.6030 N   0  0  0  0  0  0  0  0  0  0  0  0
  -34.8780  -25.4310   23.7750 H   0  0  0  0  0  0  0  0  0  0  0  0
  -33.3890  -25.3110   24.6160 H   0  0  0  0  0  0  0  0  0  0  0  0
  -33.3370  -25.5820   20.5630 H   0  0  0  0  0  0  0  0  0  0  0  0
  -31.4340  -25.1200   23.4980 H   0  0  0  0  0  0  0  0  0  0  0  0
  -35.8030  -25.6340   19.8250 C   0  0  0  0  0  1  0  0  0  0  0  0
  -35.3210  -25.9420   21.2560 C   0  0  0  0  0  3  0  0  0  0  0  0
  -35.7240  -27.3540   21.7520 C   0  0  0  0  0  2  0  0  0  0  0  0
  -35.0840  -28.4430   20.9840 N   0  0  0  0  0  4  0  0  0  0  0  0
  -35.7640  -29.1280   20.6980 H   0  0  0  0  0  0  0  0  0  0  0  0
  -34.6900  -28.0660   20.1360 H   0  0  0  0  0  0  0  0  0  0  0  0
  -33.9610  -29.1360   21.6500 C   0  0  0  0  0  2  0  0  0  0  0  0
  -33.1350  -29.8580   20.5900 C   0  0  0  0  0  0  0  0  0  0  0  0
  -31.8780  -29.4530   20.3810 N   0  0  0  0  0  0  0  0  0  0  0  0
  -33.6590  -30.7470   19.9170 O   0  0  0  0  0  0  0  0  0  0  0  0
  -31.4880  -28.7400   20.9870 H   0  0  0  0  0  0  0  0  0  0  0  0
  -31.0600  -29.8840   19.2450 C   0  0  0  0  0  2  0  0  0  0  0  0
  -31.9190  -29.9970   17.9680 C   0  0  0  0  0  2  0  0  0  0  0  0
  -32.2880  -28.6980   17.4890 O   0  0  0  0  0  0  0  0  0  0  0  0
  -32.0140  -23.3210   12.8380 C   0  0  0  0  0  0  0  0  0  0  0  0
  -31.7200  -28.2190   16.3280 C   0  0  0  0  0  0  0  0  0  0  0  0
  -30.8300  -25.3840   12.1660 C   0  0  0  0  0  3  0  0  0  0  0  0
  -30.5590  -27.1410   13.9850 C   0  0  0  0  0  0  0  0  0  0  0  0
  -31.1580  -24.8060   14.6410 C   0  0  0  0  0  2  0  0  0  0  0  0
  -31.1570  -26.2930   14.9230 C   0  0  0  0  0  0  0  0  0  0  0  0
  -31.7430  -26.8270   16.0930 C   0  0  0  0  0  3  0  0  0  0  0  0
  -31.1310  -29.0610   15.3530 C   0  0  0  0  0  3  0  0  0  0  0  0
  -30.5540  -28.5290   14.1910 C   0  0  0  0  0  3  0  0  0  0  0  0
  -29.9390  -26.5000   12.7660 C   0  0  0  0  0  2  0  0  0  0  0  0
  -31.3810  -24.4660   13.2150 N   0  0  0  0  0  0  0  0  0  0  0  0
  -32.1070  -23.0040   11.6430 O   0  0  0  0  0  0  0  0  0  0  0  0
  -31.9220  -26.0420   11.2920 C   0  0  0  0  0  0  0  0  0  0  0  0
  -31.5300  -26.4920   10.0890 N   0  0  0  0  0  0  0  0  0  0  0  0
  -33.0770  -26.1620   11.7080 O   0  0  0  0  0  0  0  0  0  0  0  0
  -30.5640  -26.3570    9.8240 H   0  0  0  0  0  0  0  0  0  0  0  0
  -31.5370  -28.0310    6.8230 C   0  0  0  0  0  0  0  0  0  0  0  0
  -32.3770  -27.1710    9.1100 C   0  0  0  0  0  3  0  0  0  0  0  0
  -32.5720  -28.6590    9.4850 C   0  0  0  0  0  2  0  0  0  0  0  0
  -31.5520  -29.5860    8.8180 C   0  0  0  0  0  2  0  0  0  0  0  0
  -31.6340  -29.4730    7.2930 C   0  0  0  0  0  2  0  0  0  0  0  0
  -31.8710  -26.9500    7.6800 C   0  0  0  0  0  0  0  0  0  0  0  0
  -31.7250  -25.6290    7.2050 C   0  0  0  0  0  3  0  0  0  0  0  0
  -31.2670  -25.3800    5.8980 C   0  0  0  0  0  3  0  0  0  0  0  0
  -30.9550  -26.4540    5.0470 C   0  0  0  0  0  3  0  0  0  0  0  0
  -31.0900  -27.7740    5.5100 C   0  0  0  0  0  3  0  0  0  0  0  0
  -32.6290  -22.3450   13.8860 C   0  0  0  0  0  3  0  0  0  0  0  0
  -32.3060  -20.9790   13.4570 N   0  0  0  0  0  0  0  0  0  0  0  0
  -31.3080  -20.2390   13.9600 C   0  0  0  0  0  0  0  0  0  0  0  0
  -30.5990  -20.6180   14.8960 O   0  0  0  0  0  0  0  0  0  0  0  0
  -32.8090  -20.6250   12.6560 H   0  0  0  0  0  0  0  0  0  0  0  0
  -29.8760  -18.9520   12.3430 C   0  0  0  0  0  1  0  0  0  0  0  0
  -31.0580  -18.8600   13.3210 C   0  0  0  0  0  3  0  0  0  0  0  0
  -31.9770  -17.4610   15.1170 C   0  0  0  0  0  1  0  0  0  0  0  0
  -30.8040  -17.7900   14.3110 N   0  0  0  0  0  0  0  0  0  0  0  0
  -30.4880  -16.9410   13.8500 H   0  0  0  0  0  0  0  0  0  0  0  0
  -34.1890  -22.5190   14.0620 C   0  0  1  0  0  0  0  0  0  0  0  0
  -34.9690  -22.4870   12.7260 C   0  0  0  0  0  1  0  0  0  0  0  0
  -34.5170  -23.8550   14.7690 C   0  0  0  0  0  1  0  0  0  0  0  0
  -34.7410  -21.3890   14.9610 C   0  0  0  0  0  1  0  0  0  0  0  0
  -30.9680  -25.2490   21.4530 C   0  0  0  0  0  2  0  0  0  0  0  0
  -30.0710  -24.0000   21.4510 C   0  0  0  0  0  2  0  0  0  0  0  0
  -28.6290  -24.3410   21.0420 C   0  0  0  0  0  2  0  0  0  0  0  0
  -27.6900  -23.1160   20.9820 C   0  0  0  0  0  2  0  0  0  0  0  0
  -26.2060  -23.4430   21.2330 C   0  0  0  0  0  2  0  0  0  0  0  0
  -25.1690  -25.7000   21.1760 C   0  0  0  0  0  0  0  0  0  0  0  0
  -25.8230  -24.6940   20.5880 N   0  0  0  0  0  0  0  0  0  0  0  0
  -24.5980  -25.5790   22.2620 O   0  0  0  0  0  0  0  0  0  0  0  0
  -26.2410  -24.8910   19.6900 H   0  0  0  0  0  0  0  0  0  0  0  0
  -24.2100  -28.6580   22.0240 C   0  0  0  0  0  0  0  0  0  0  0  0
  -23.4020  -30.6140   23.2740 C   0  0  0  0  0  2  0  0  0  0  0  0
  -24.1290  -31.8900   22.8140 C   0  0  0  0  0  2  0  0  0  0  0  0
  -25.3990  -32.0990   23.6610 C   0  0  0  0  0  2  0  0  0  0  0  0
  -26.2810  -30.8310   23.7500 C   0  0  0  0  0  3  0  0  0  0  0  0
  -25.4450  -29.5610   24.0590 C   0  0  0  0  0  2  0  0  0  0  0  0
  -24.3390  -29.4910   23.0960 N   0  0  0  0  0  0  0  0  0  0  0  0
  -23.1250  -28.4590   21.4800 O   0  0  0  0  0  0  0  0  0  0  0  0
  -27.0000  -28.5370   19.6890 C   0  0  0  0  0  2  0  0  0  0  0  0
  -26.5930  -27.0830   19.6860 C   0  0  0  0  0  2  0  0  0  0  0  0
  -26.4220  -29.0760   20.9880 C   0  0  0  0  0  2  0  0  0  0  0  0
  -25.2510  -27.0550   20.4520 C   0  0  0  0  0  3  0  0  0  0  0  0
  -25.3210  -28.1970   21.3910 N   0  0  0  0  0  0  0  0  0  0  0  0
  -28.7420  -30.6950   24.4660 C   0  0  0  0  0  0  0  0  0  0  0  0
  -29.3890  -31.1250   25.5930 C   0  0  0  0  0  0  0  0  0  0  0  0
  -28.3770  -31.6830   26.4320 C   0  0  0  0  0  0  0  0  0  0  0  0
  -27.4030  -30.9950   24.6620 N   0  0  0  0  0  0  0  0  0  0  0  0
  -27.1820  -31.5390   25.8800 N   0  0  0  0  0  0  0  0  0  0  0  0
  -28.4820  -32.4040   27.7010 C   0  0  0  0  0  0  0  0  0  0  0  0
  -27.7110  -32.0280   28.8240 C   0  0  0  0  0  3  0  0  0  0  0  0
  -27.8400  -32.7260   30.0430 C   0  0  0  0  0  3  0  0  0  0  0  0
  -28.7480  -33.8060   30.1460 C   0  0  0  0  0  0  0  0  0  0  0  0
  -29.4950  -34.1910   29.0190 C   0  0  0  0  0  3  0  0  0  0  0  0
  -29.3620  -33.5000   27.8040 C   0  0  0  0  0  3  0  0  0  0  0  0
  -28.9240  -34.5570   31.2820 O   0  0  0  0  0  0  0  0  0  0  0  0
  -28.6860  -34.0390   32.5290 C   0  0  0  0  0  0  0  0  0  0  0  0
  -29.3030  -32.8500   32.9730 C   0  0  0  0  0  3  0  0  0  0  0  0
  -29.0840  -32.3920   34.2870 C   0  0  0  0  0  3  0  0  0  0  0  0
  -28.2580  -33.1270   35.1600 C   0  0  0  0  0  0  0  0  0  0  0  0
  -27.6470  -34.3150   34.7220 C   0  0  0  0  0  3  0  0  0  0  0  0
  -27.8630  -34.7700   33.4100 C   0  0  0  0  0  0  0  0  0  0  0  0
  -27.2870  -35.9270   32.9980 F   0  0  0  0  0  0  0  0  0  0  0  0
  -28.0550  -32.6910   36.4250 F   0  0  0  0  0  0  0  0  0  0  0  0
  -30.8700  -31.1160   25.8310 C   0  0  0  0  0  0  0  0  0  0  0  0
  -31.2890  -31.0000   27.0860 N   0  0  0  0  0  0  0  0  0  0  0  0
  -31.6680  -31.1570   24.8950 O   0  0  0  0  0  0  0  0  0  0  0  0
  -30.6370  -30.9330   27.8540 H   0  0  0  0  0  0  0  0  0  0  0  0
  -32.2810  -30.9880   27.2770 H   0  0  0  0  0  0  0  0  0  0  0  0
  -29.1940  -30.0960   23.2940 N   0  0  0  0  0  0  0  0  0  0  0  0
  -30.1780  -29.9140   23.1330 H   0  0  0  0  0  0  0  0  0  0  0  0
  -28.6180  -29.8470   22.5020 H   0  0  0  0  0  0  0  0  0  0  0  0
  1  4  1  0
  1  2  2  0
  2  5  1  0
  2  6  1  0
  3  1  1  0
  4  8  1  0
  7  3  1  0
 10  9  1  0
 10  3  1  0
 10 11  1  0
 12 15  1  0
 12 11  1  0
 13 12  1  0
 14 12  1  0
 16 15  1  0
 17 16  1  0
 17 19  1  0
 18 16  2  0
 20 17  1  0
 21 20  1  0
 22 21  1  0
 23 33  1  0
 24 22  1  0
 25 35  1  0
 25 32  1  0
 25 33  1  0
 26 31  2  0
 26 28  1  0
 27 28  1  0
 28 29  2  0
 29 24  1  0
 30 24  2  0
 31 30  1  0
 32 26  1  0
 33 27  1  0
 34 23  2  0
 35 37  2  0
 36 35  1  0
 38 36  1  0
 39 43  1  0
 39 44  1  0
 40 41  1  0
 40 36  1  0
 42 41  1  0
 43 42  1  0
 44 40  1  0
 45 44  2  0
 46 45  1  0
 47 48  1  0
 47 46  2  0
 48 39  2  0
 49 23  1  0
 49 59  1  0
 50 49  1  0
 50 51  1  0
 51 52  2  0
 53 50  1  0
 55 54  1  0
 55 51  1  0
 55 57  1  0
 57 56  1  0
 58 57  1  0
 59 61  1  1
 59 62  1  0
 60 59  1  0
 63  4  1  0
 64 63  1  0
 65 64  1  0
 66 65  1  0
 66 67  1  0
 68 70  2  0
 69 68  1  0
 69 67  1  0
 71 69  1  0
 72 78  1  0
 74 73  1  0
 74 75  1  0
 76 75  1  0
 76 77  1  0
 76 88  1  0
 78 73  1  0
 78 77  1  0
 79 72  2  0
 80 82  1  0
 81 80  1  0
 81 83  1  0
 82 84  1  0
 83 68  1  0
 83 84  1  0
 84 72  1  0
 85 88  1  0
 85 86  2  0
 86105  1  0
 86 87  1  0
 87 90  1  0
 88 89  1  0
 89 87  2  0
 90 95  2  0
 90 91  1  0
 91 92  2  0
 92 93  1  0
 93 96  1  0
 94 93  2  0
 95 94  1  0
 96 97  1  0
 97 98  2  0
 97102  1  0
 98 99  1  0
 99100  2  0
100104  1  0
101100  1  0
102101  2  0
103102  1  0
105106  1  0
106109  1  0
106108  1  0
107105  2  0
110 85  1  0
111110  1  0
112110  1  0
M  ISO  4  21 101  22 101  72 100  84 100
M  END
>  <TORSDO>  (65) 
F 29

>  <SCORE>  (65) 
7.606

>  <name>  (65) 
69

>  <ligand_id>  (65) 
69

>  <original_smiles>  (65) 
[H]c1c([H])c([H])c2c(c1[H])C([H])([H])C([H])([H])C([H])([H])C2([H])N([H])C(=O)C1([H])N(C(=O)C([H])(N([H])C(=O)C([H])(N([H])C([H])([H])[H])C([H])([H])[H])C(C([H])([H])[H])(C([H])([H])[H])C([H])([H])[H])C([H])([H])c2c([H])c(OC([H])([H])C([H])([H])N([H])C(=O)C([H])([H])[N+]([H])([H])C([H])([H])C([H])(N([H])C(N([H])[H])=[N+]([H])C([H])([H])C([H])([H])C([H])([H])C([H])([H])C([H])([H])N([H])C(=O)C3([H])N(C(=O)N4C([H])([H])C([H])([H])C([H])([H])C([H])(n5nc(-c6c([H])c([H])c(Oc7c([H])c([H])c(F)c([H])c7F)c([H])c6[H])c(C(=O)N([H])[H])c5N([H])[H])C4([H])[H])C([H])([H])C([H])([H])C3([H])[H])C([H])([H])[H])c([H])c([H])c2C1([H])[H]

>  <smiles>  (65) 
[H]c1c([H])c([H])c2c(c1[H])C([H])([H])C([H])([H])C([H])([H])C2([H])N([H])C(=O)C1([H])N(C(=O)C([H])(N([H])C(=O)C([H])(N([H])C([H])([H])[H])C([H])([H])[H])C(C([H])([H])[H])(C([H])([H])[H])C([H])([H])[H])C([H])([H])c2c([H])c(OC([H])([H])C([H])([H])N([H])C(=O)C([H])([H])[N+]([H])([H])C([H])([H])C([H])(N([H])C(N([H])[H])=[N+]([H])C([H])([H])C([H])([H])C([H])([H])C([H])([H])C([H])([H])N([H])C(=O)C3([H])N(C(=O)N4C([H])([H])C([H])([H])C([H])([H])C([H])(n5nc(-c6c([H])c([H])c(Oc7c([H])c([H])c(F)c([H])c7F)c([H])c6[H])c(C(=O)N([H])[H])c5N([H])[H])C4([H])[H])C([H])([H])C([H])([H])C3([H])[H])C([H])([H])[H])c([H])c([H])c2C1([H])[H]

$$$$
70:0:0
     RDKit          3D

 97105  0  0  1  0  0  0  0  0999 V2000
  -31.4280  -17.5430   20.8990 C   0  0  0  0  0  0  0  0  0  0  0  0
  -32.9020  -21.0490   20.5380 C   0  0  0  0  0  2  0  0  0  0  0  0
  -30.8310  -20.6030   19.0960 C   0  0  0  0  0  2  0  0  0  0  0  0
  -32.5500  -19.7090   21.2390 C   0  0  0  0  0  2  0  0  0  0  0  0
  -31.5130  -19.2340   19.0290 C   0  0  0  0  0  2  0  0  0  0  0  0
  -31.7520  -21.6790   19.6970 C   0  0  0  0  0  3  0  0  0  0  0  0
  -31.8190  -18.7470   20.3880 N   0  0  0  0  0  0  0  0  0  0  0  0
  -31.7860  -17.1590   22.0180 O   0  0  0  0  0  0  0  0  0  0  0  0
  -30.9270  -22.7460   20.4370 C   0  0  0  0  0  0  0  0  0  0  0  0
  -30.5300  -23.7960   19.7040 N   0  0  0  0  0  0  0  0  0  0  0  0
  -30.6890  -22.6420   21.6420 O   0  0  0  0  0  0  0  0  0  0  0  0
  -30.7700  -23.7860   18.7210 H   0  0  0  0  0  0  0  0  0  0  0  0
  -29.9600  -25.0370   20.2260 C   0  0  0  0  0  2  0  0  0  0  0  0
  -28.6550  -25.4730   19.5310 C   0  0  0  0  0  2  0  0  0  0  0  0
  -28.5030  -26.8360   19.9060 O   0  0  0  0  0  0  0  0  0  0  0  0
  -24.4740  -31.7390   23.0070 C   0  0  0  0  0  0  0  0  0  0  0  0
  -27.2690  -27.4390   19.8870 C   0  0  0  0  0  0  0  0  0  0  0  0
  -23.3160  -30.3350   21.3270 C   0  0  0  0  0  3  0  0  0  0  0  0
  -24.8220  -28.8490   19.8990 C   0  0  0  0  0  0  0  0  0  0  0  0
  -25.8290  -30.7640   21.1600 C   0  0  0  0  0  2  0  0  0  0  0  0
  -25.9530  -29.4040   20.5070 C   0  0  0  0  0  0  0  0  0  0  0  0
  -27.1730  -28.7020   20.5050 C   0  0  0  0  0  3  0  0  0  0  0  0
  -26.1210  -26.8790   19.2840 C   0  0  0  0  0  3  0  0  0  0  0  0
  -24.8960  -27.5800   19.2930 C   0  0  0  0  0  3  0  0  0  0  0  0
  -23.5560  -29.6750   19.9400 C   0  0  0  0  0  2  0  0  0  0  0  0
  -24.5560  -30.9610   21.8910 N   0  0  0  0  0  0  0  0  0  0  0  0
  -23.3830  -31.9760   23.5430 O   0  0  0  0  0  0  0  0  0  0  0  0
  -22.6840  -29.2830   22.2650 C   0  0  0  0  0  0  0  0  0  0  0  0
  -21.3540  -29.1260   22.1730 N   0  0  0  0  0  0  0  0  0  0  0  0
  -23.3850  -28.6140   23.0280 O   0  0  0  0  0  0  0  0  0  0  0  0
  -20.8520  -29.7210   21.5290 H   0  0  0  0  0  0  0  0  0  0  0  0
  -17.9730  -28.0210   22.7860 C   0  0  0  0  0  0  0  0  0  0  0  0
  -20.5490  -28.1670   22.9270 C   0  0  0  0  0  3  0  0  0  0  0  0
  -20.5640  -26.7770   22.2510 C   0  0  0  0  0  2  0  0  0  0  0  0
  -19.3950  -26.5630   21.2840 C   0  0  0  0  0  2  0  0  0  0  0  0
  -18.0580  -26.7140   22.0140 C   0  0  0  0  0  2  0  0  0  0  0  0
  -19.1430  -28.7100   23.1990 C   0  0  0  0  0  0  0  0  0  0  0  0
  -19.0080  -29.9390   23.8820 C   0  0  0  0  0  3  0  0  0  0  0  0
  -17.7370  -30.4760   24.1550 C   0  0  0  0  0  3  0  0  0  0  0  0
  -16.5810  -29.7820   23.7560 C   0  0  0  0  0  3  0  0  0  0  0  0
  -16.7000  -28.5550   23.0780 C   0  0  0  0  0  3  0  0  0  0  0  0
  -25.7410  -32.3850   23.6520 C   0  0  0  0  0  3  0  0  0  0  0  0
  -25.3930  -33.7600   24.0290 N   0  0  0  0  0  0  0  0  0  0  0  0
  -25.7350  -34.8490   23.3280 C   0  0  0  0  0  0  0  0  0  0  0  0
  -26.4480  -34.8020   22.3210 O   0  0  0  0  0  0  0  0  0  0  0  0
  -24.7650  -33.8690   24.8100 H   0  0  0  0  0  0  0  0  0  0  0  0
  -23.9880  -36.6190   22.9670 C   0  0  0  0  0  1  0  0  0  0  0  0
  -25.1990  -36.2080   23.8190 C   0  0  0  0  0  3  0  0  0  0  0  0
  -27.2710  -37.0970   24.7900 C   0  0  0  0  0  1  0  0  0  0  0  0
  -26.2150  -37.2820   23.7970 N   0  0  0  0  0  0  0  0  0  0  0  0
  -25.7850  -38.1900   23.9560 H   0  0  0  0  0  0  0  0  0  0  0  0
  -26.2850  -31.5840   24.8980 C   0  0  1  0  0  0  0  0  0  0  0  0
  -25.2040  -31.2940   25.9660 C   0  0  0  0  0  1  0  0  0  0  0  0
  -26.8920  -30.2310   24.4570 C   0  0  0  0  0  1  0  0  0  0  0  0
  -27.4290  -32.3770   25.5730 C   0  0  0  0  0  1  0  0  0  0  0  0
  -30.4420  -16.6630   20.0940 C   0  0  0  0  0  3  0  0  0  0  0  0
  -30.9920  -14.2470   19.9830 C   0  0  0  0  0  0  0  0  0  0  0  0
  -30.5410  -12.1240   18.8250 C   0  0  0  0  0  2  0  0  0  0  0  0
  -29.5570  -12.4000   17.6690 C   0  0  0  0  0  2  0  0  0  0  0  0
  -28.0970  -12.3310   18.1600 C   0  0  0  0  0  2  0  0  0  0  0  0
  -27.8570  -13.1580   19.4510 C   0  0  0  0  0  3  0  0  0  0  0  0
  -28.9500  -12.8630   20.5070 C   0  0  0  0  0  2  0  0  0  0  0  0
  -30.2700  -13.1000   19.8930 N   0  0  0  0  0  0  0  0  0  0  0  0
  -32.0670  -14.4210   19.4040 O   0  0  0  0  0  0  0  0  0  0  0  0
  -30.3390  -15.2680   20.5510 N   0  0  0  0  0  0  0  0  0  0  0  0
  -29.5170  -15.0410   21.0850 H   0  0  0  0  0  0  0  0  0  0  0  0
  -25.5130  -13.8780   20.2540 C   0  0  0  0  0  0  0  0  0  0  0  0
  -24.4270  -13.1560   20.6680 C   0  0  0  0  0  0  0  0  0  0  0  0
  -24.8270  -11.7870   20.6190 C   0  0  0  0  0  0  0  0  0  0  0  0
  -26.5100  -12.9520   19.9840 N   0  0  0  0  0  0  0  0  0  0  0  0
  -26.1000  -11.6880   20.2580 N   0  0  0  0  0  0  0  0  0  0  0  0
  -24.0540  -10.5600   20.8420 C   0  0  0  0  0  0  0  0  0  0  0  0
  -24.4590   -9.5970   21.7910 C   0  0  0  0  0  3  0  0  0  0  0  0
  -23.6910   -8.4320   22.0030 C   0  0  0  0  0  3  0  0  0  0  0  0
  -22.5030   -8.2230   21.2610 C   0  0  0  0  0  0  0  0  0  0  0  0
  -22.1170   -9.1750   20.3010 C   0  0  0  0  0  3  0  0  0  0  0  0
  -22.8860  -10.3300   20.0880 C   0  0  0  0  0  3  0  0  0  0  0  0
  -21.7060   -7.1100   21.3800 O   0  0  0  0  0  0  0  0  0  0  0  0
  -21.6130   -6.4130   22.5580 C   0  0  0  0  0  0  0  0  0  0  0  0
  -21.1710   -7.0230   23.7530 C   0  0  0  0  0  3  0  0  0  0  0  0
  -21.0210   -6.2510   24.9220 C   0  0  0  0  0  3  0  0  0  0  0  0
  -21.3060   -4.8730   24.9000 C   0  0  0  0  0  0  0  0  0  0  0  0
  -21.7420   -4.2640   23.7100 C   0  0  0  0  0  3  0  0  0  0  0  0
  -21.8900   -5.0310   22.5420 C   0  0  0  0  0  0  0  0  0  0  0  0
  -22.2890   -4.4340   21.3920 F   0  0  0  0  0  0  0  0  0  0  0  0
  -21.1560   -4.1310   26.0210 F   0  0  0  0  0  0  0  0  0  0  0  0
  -23.0670  -13.6970   21.0000 C   0  0  0  0  0  0  0  0  0  0  0  0
  -22.3620  -13.0550   21.9240 N   0  0  0  0  0  0  0  0  0  0  0  0
  -22.6410  -14.7250   20.4780 O   0  0  0  0  0  0  0  0  0  0  0  0
  -22.7200  -12.2210   22.3640 H   0  0  0  0  0  0  0  0  0  0  0  0
  -21.4520  -13.4020   22.1910 H   0  0  0  0  0  0  0  0  0  0  0  0
  -25.7230  -15.2380   20.0710 N   0  0  0  0  0  0  0  0  0  0  0  0
  -24.9900  -15.9250   20.2110 H   0  0  0  0  0  0  0  0  0  0  0  0
  -26.5870  -15.6450   19.7360 H   0  0  0  0  0  0  0  0  0  0  0  0
  -28.4470  -17.4890   18.7240 C   0  0  0  0  0  1  0  0  0  0  0  0
  -28.0130  -16.6620   21.0830 C   0  0  0  0  0  1  0  0  0  0  0  0
  -29.0300  -17.3330   20.1340 C   0  0  0  0  0  3  0  0  0  0  0  0
  1  8  2  0
  2  4  1  0
  3  6  1  0
  5  3  1  0
  5  7  1  0
  6  9  1  0
  6  2  1  0
  7  1  1  0
  7  4  1  0
  9 11  2  0
 10 13  1  0
 10  9  1  0
 12 10  1  0
 14 15  1  0
 14 13  1  0
 16 27  2  0
 17 15  1  0
 17 22  1  0
 18 26  1  0
 18 28  1  0
 19 25  1  0
 19 21  1  0
 20 26  1  0
 21 20  1  0
 22 21  2  0
 23 24  1  0
 23 17  2  0
 24 19  2  0
 25 18  1  0
 26 16  1  0
 28 30  2  0
 29 28  1  0
 31 29  1  0
 32 41  2  0
 32 37  1  0
 33 29  1  0
 33 37  1  0
 34 33  1  0
 35 36  1  0
 35 34  1  0
 36 32  1  0
 37 38  2  0
 38 39  1  0
 40 39  2  0
 41 40  1  0
 42 16  1  0
 42 43  1  0
 42 52  1  0
 43 46  1  0
 44 48  1  0
 44 43  1  0
 45 44  2  0
 48 47  1  0
 50 48  1  0
 50 51  1  0
 50 49  1  0
 52 55  1  1
 52 53  1  0
 54 52  1  0
 56 97  1  0
 56 65  1  0
 56  1  1  0
 57 65  1  0
 58 63  1  0
 59 60  1  0
 59 58  1  0
 61 60  1  0
 61 70  1  0
 61 62  1  0
 63 57  1  0
 63 62  1  0
 64 57  2  0
 65 66  1  0
 67 68  2  0
 68 87  1  0
 69 68  1  0
 69 72  1  0
 70 67  1  0
 70 71  1  0
 71 69  2  0
 72 73  1  0
 73 74  2  0
 75 78  1  0
 75 74  1  0
 76 75  2  0
 77 76  1  0
 77 72  2  0
 78 79  1  0
 79 80  1  0
 80 81  2  0
 82 81  1  0
 82 86  1  0
 83 82  2  0
 84 79  2  0
 84 83  1  0
 85 84  1  0
 87 88  1  0
 88 91  1  0
 88 90  1  0
 89 87  2  0
 92 93  1  0
 92 67  1  0
 94 92  1  0
 95 97  1  0
 97 96  1  0
M  ISO  4  14 101  15 101  57 100  65 100
M  END
>  <TORSDO>  (66) 
F 21

>  <SCORE>  (66) 
-12.736

>  <name>  (66) 
70

>  <ligand_id>  (66) 
70

>  <original_smiles>  (66) 
[H]c1c([H])c([H])c2c(c1[H])C([H])([H])C([H])([H])C([H])([H])C2([H])N([H])C(=O)C1([H])N(C(=O)C([H])(N([H])C(=O)C([H])(N([H])C([H])([H])[H])C([H])([H])[H])C(C([H])([H])[H])(C([H])([H])[H])C([H])([H])[H])C([H])([H])c2c([H])c(OC([H])([H])C([H])([H])N([H])C(=O)C3([H])C([H])([H])C([H])([H])N(C(=O)C([H])(N([H])C(=O)N4C([H])([H])C([H])([H])C([H])([H])C([H])(n5nc(-c6c([H])c([H])c(Oc7c([H])c([H])c(F)c([H])c7F)c([H])c6[H])c(C(=O)N([H])[H])c5N([H])[H])C4([H])[H])C([H])(C([H])([H])[H])C([H])([H])[H])C([H])([H])C3([H])[H])c([H])c([H])c2C1([H])[H]

>  <smiles>  (66) 
[H]c1c([H])c([H])c2c(c1[H])C([H])([H])C([H])([H])C([H])([H])C2([H])N([H])C(=O)C1([H])N(C(=O)C([H])(N([H])C(=O)C([H])(N([H])C([H])([H])[H])C([H])([H])[H])C(C([H])([H])[H])(C([H])([H])[H])C([H])([H])[H])C([H])([H])c2c([H])c(OC([H])([H])C([H])([H])N([H])C(=O)C3([H])C([H])([H])C([H])([H])N(C(=O)C([H])(N([H])C(=O)N4C([H])([H])C([H])([H])C([H])([H])C([H])(n5nc(-c6c([H])c([H])c(Oc7c([H])c([H])c(F)c([H])c7F)c([H])c6[H])c(C(=O)N([H])[H])c5N([H])[H])C4([H])[H])C([H])(C([H])([H])[H])C([H])([H])[H])C([H])([H])C3([H])[H])c([H])c([H])c2C1([H])[H]

$$$$
71:0:0
     RDKit          3D

107114  0  0  1  0  0  0  0  0999 V2000
  -30.0940  -22.0180   20.8390 C   0  0  0  0  0  0  0  0  0  0  0  0
  -29.9360  -21.1070   21.8040 N   0  0  0  0  0  0  0  0  0  0  0  0
  -30.7220  -21.7770   19.8020 O   0  0  0  0  0  0  0  0  0  0  0  0
  -29.4310  -21.3800   22.6370 H   0  0  0  0  0  0  0  0  0  0  0  0
  -27.8950  -23.2050   21.0180 C   0  0  0  0  0  1  0  0  0  0  0  0
  -29.4260  -23.3780   21.0650 C   0  0  0  0  0  3  0  0  0  0  0  0
  -30.6940  -25.2500   20.0840 C   0  0  0  0  0  0  0  0  0  0  0  0
  -29.7850  -24.2800   19.9830 N   0  0  0  0  0  0  0  0  0  0  0  0
  -31.5050  -25.3140   21.0110 O   0  0  0  0  0  0  0  0  0  0  0  0
  -29.2650  -24.1790   19.1240 H   0  0  0  0  0  0  0  0  0  0  0  0
  -30.6060  -26.3730   19.0490 C   0  0  0  0  0  3  0  0  0  0  0  0
  -31.4760  -27.4950   19.4460 N   0  0  0  0  0  4  0  0  0  0  0  0
  -31.1920  -27.8090   20.3570 H   0  0  0  0  0  0  0  0  0  0  0  0
  -31.4390  -28.2550   18.7900 H   0  0  0  0  0  0  0  0  0  0  0  0
  -32.4220  -27.1680   19.5190 H   0  0  0  0  0  0  0  0  0  0  0  0
  -29.1360  -26.8350   18.9110 C   0  0  0  0  0  2  0  0  0  0  0  0
  -28.5870  -27.0380   20.2180 O   0  0  0  0  0  0  0  0  0  0  0  0
  -24.5820  -31.9930   23.3120 C   0  0  0  0  0  0  0  0  0  0  0  0
  -27.3700  -27.6590   20.2460 C   0  0  0  0  0  0  0  0  0  0  0  0
  -23.4210  -30.5670   21.6520 C   0  0  0  0  0  3  0  0  0  0  0  0
  -24.9260  -29.0520   20.2560 C   0  0  0  0  0  0  0  0  0  0  0  0
  -25.9350  -30.9840   21.4860 C   0  0  0  0  0  2  0  0  0  0  0  0
  -26.0570  -29.6140   20.8620 C   0  0  0  0  0  0  0  0  0  0  0  0
  -27.2760  -28.9140   20.8750 C   0  0  0  0  0  3  0  0  0  0  0  0
  -26.2230  -27.0820   19.6590 C   0  0  0  0  0  3  0  0  0  0  0  0
  -24.9970  -27.7780   19.6630 C   0  0  0  0  0  3  0  0  0  0  0  0
  -23.6630  -29.8830   20.2790 C   0  0  0  0  0  2  0  0  0  0  0  0
  -24.6630  -31.1950   22.2100 N   0  0  0  0  0  0  0  0  0  0  0  0
  -23.4900  -32.2480   23.8370 O   0  0  0  0  0  0  0  0  0  0  0  0
  -22.7770  -29.5360   22.6040 C   0  0  0  0  0  0  0  0  0  0  0  0
  -21.4690  -29.2950   22.4240 N   0  0  0  0  0  0  0  0  0  0  0  0
  -23.4520  -28.9550   23.4590 O   0  0  0  0  0  0  0  0  0  0  0  0
  -20.9860  -29.8170   21.7070 H   0  0  0  0  0  0  0  0  0  0  0  0
  -18.1360  -27.9530   22.7720 C   0  0  0  0  0  0  0  0  0  0  0  0
  -20.6590  -28.3390   23.1760 C   0  0  0  0  0  3  0  0  0  0  0  0
  -20.8610  -26.9000   22.6450 C   0  0  0  0  0  2  0  0  0  0  0  0
  -19.8330  -26.5010   21.5820 C   0  0  0  0  0  2  0  0  0  0  0  0
  -18.4120  -26.5960   22.1460 C   0  0  0  0  0  2  0  0  0  0  0  0
  -19.1930  -28.7780   23.2410 C   0  0  0  0  0  0  0  0  0  0  0  0
  -18.8840  -30.0450   23.7820 C   0  0  0  0  0  3  0  0  0  0  0  0
  -17.5500  -30.4890   23.8600 C   0  0  0  0  0  3  0  0  0  0  0  0
  -16.5070  -29.6620   23.4090 C   0  0  0  0  0  3  0  0  0  0  0  0
  -16.8000  -28.3970   22.8710 C   0  0  0  0  0  3  0  0  0  0  0  0
  -25.8510  -32.6440   23.9480 C   0  0  0  0  0  3  0  0  0  0  0  0
  -26.3520  -31.8920   25.2420 C   0  0  1  0  0  0  0  0  0  0  0  0
  -25.2330  -31.6210   26.2740 C   0  0  0  0  0  1  0  0  0  0  0  0
  -26.9910  -30.5340   24.8690 C   0  0  0  0  0  1  0  0  0  0  0  0
  -27.4540  -32.7250   25.9380 C   0  0  0  0  0  1  0  0  0  0  0  0
  -25.5260  -34.0440   24.2490 N   0  0  0  0  0  0  0  0  0  0  0  0
  -25.8750  -35.0850   23.4820 C   0  0  0  0  0  0  0  0  0  0  0  0
  -26.5760  -34.9690   22.4730 O   0  0  0  0  0  0  0  0  0  0  0  0
  -24.9070  -34.2080   25.0300 H   0  0  0  0  0  0  0  0  0  0  0  0
  -24.1520  -36.8610   23.0420 C   0  0  0  0  0  1  0  0  0  0  0  0
  -25.3660  -36.4760   23.9020 C   0  0  0  0  0  3  0  0  0  0  0  0
  -27.4580  -37.3930   24.8040 C   0  0  0  0  0  1  0  0  0  0  0  0
  -26.3980  -37.5320   23.8070 N   0  0  0  0  0  0  0  0  0  0  0  0
  -25.9840  -38.4540   23.9110 H   0  0  0  0  0  0  0  0  0  0  0  0
  -30.3620  -19.7200   21.6710 C   0  0  0  0  0  2  0  0  0  0  0  0
  -29.6180  -19.0290   20.5230 C   0  0  0  0  0  0  0  0  0  0  0  0
  -28.2790  -19.1240   20.5380 N   0  0  0  0  0  0  0  0  0  0  0  0
  -30.2510  -18.4340   19.6500 O   0  0  0  0  0  0  0  0  0  0  0  0
  -27.8870  -19.6980   21.2740 H   0  0  0  0  0  0  0  0  0  0  0  0
  -27.3010  -18.4820   19.6430 C   0  0  0  0  0  2  0  0  0  0  0  0
  -30.8020  -13.5180   20.9860 C   0  0  1  0  0  0  0  0  0  0  0  0
  -30.7270  -13.0870   18.3060 C   0  0  0  0  0  3  0  0  0  0  0  0
  -29.1960  -12.4800   17.6170 C   0  0  0  0  0  3  0  0  0  0  0  0
  -27.5380  -12.6560   18.3240 C   0  0  0  0  0  2  0  0  0  0  0  0
  -27.3340  -13.7820   19.7950 C   0  0  0  0  0  2  0  0  0  0  0  0
  -29.7790  -14.8010   20.2800 C   0  0  0  0  0  2  0  0  0  0  0  0
  -30.8520  -13.9400   19.7010 N   0  0  0  0  0  0  0  0  0  0  0  0
  -31.8220  -14.0000   21.4980 O   0  0  0  0  0  1  0  0  0  0  0  0
  -27.7490  -17.2650   18.8000 C   0  0  0  0  0  0  0  0  0  0  0  0
  -28.7190  -14.7670   18.3590 C   0  0  0  0  0  1  0  0  0  0  0  0
  -27.8220  -15.8280   21.1570 C   0  0  0  0  0  2  0  0  0  0  0  0
  -29.1620  -12.5670   20.0800 C   0  0  0  0  0  1  0  0  0  0  0  0
  -28.3950  -14.2620   22.1420 C   0  0  0  0  0  2  0  0  0  0  0  0
  -28.0030  -16.0780   19.3910 N   0  0  0  0  0  0  0  0  0  0  0  0
  -29.4910  -13.0500   21.5280 N   0  0  0  0  0  0  0  0  0  0  0  0
  -27.8770  -17.4080   17.5810 O   0  0  0  0  0  0  0  0  0  0  0  0
  -25.0420  -14.0340   20.7210 C   0  0  0  0  0  0  0  0  0  0  0  0
  -24.0990  -13.1480   21.0830 C   0  0  0  0  0  0  0  0  0  0  0  0
  -24.7180  -11.8710   21.0050 C   0  0  0  0  0  0  0  0  0  0  0  0
  -26.2220  -13.3330   20.5910 N   0  0  0  0  0  0  0  0  0  0  0  0
  -26.0180  -11.9990   20.7760 N   0  0  0  0  0  0  0  0  0  0  0  0
  -24.1160  -10.5420   21.0840 C   0  0  0  0  0  0  0  0  0  0  0  0
  -24.5210   -9.6130   22.0640 C   0  0  0  0  0  3  0  0  0  0  0  0
  -23.8690   -8.3680   22.1700 C   0  0  0  0  0  3  0  0  0  0  0  0
  -22.8050   -8.0460   21.2930 C   0  0  0  0  0  0  0  0  0  0  0  0
  -22.4360   -8.9610   20.2900 C   0  0  0  0  0  3  0  0  0  0  0  0
  -23.0900  -10.1980   20.1800 C   0  0  0  0  0  3  0  0  0  0  0  0
  -22.1220   -6.8550   21.3210 O   0  0  0  0  0  0  0  0  0  0  0  0
  -21.8200   -6.2320   22.5060 C   0  0  0  0  0  0  0  0  0  0  0  0
  -21.0060   -6.8420   23.4860 C   0  0  0  0  0  3  0  0  0  0  0  0
  -20.6730   -6.1390   24.6600 C   0  0  0  0  0  3  0  0  0  0  0  0
  -21.1390   -4.8250   24.8520 C   0  0  0  0  0  0  0  0  0  0  0  0
  -21.9500   -4.2170   23.8780 C   0  0  0  0  0  3  0  0  0  0  0  0
  -22.2870   -4.9170   22.7070 C   0  0  0  0  0  0  0  0  0  0  0  0
  -23.0480   -4.3160   21.7630 F   0  0  0  0  0  0  0  0  0  0  0  0
  -20.8120   -4.1500   25.9780 F   0  0  0  0  0  0  0  0  0  0  0  0
  -22.6640  -13.4970   21.2940 C   0  0  0  0  0  0  0  0  0  0  0  0
  -21.9910  -12.7560   22.1570 N   0  0  0  0  0  0  0  0  0  0  0  0
  -22.1650  -14.4850   20.7580 O   0  0  0  0  0  0  0  0  0  0  0  0
  -22.4300  -11.9710   22.6140 H   0  0  0  0  0  0  0  0  0  0  0  0
  -21.0220  -12.9600   22.3560 H   0  0  0  0  0  0  0  0  0  0  0  0
  -24.8850  -15.3530   20.3460 N   0  0  0  0  0  0  0  0  0  0  0  0
  -23.9520  -15.7500   20.2840 H   0  0  0  0  0  0  0  0  0  0  0  0
  -25.5860  -15.8430   19.8150 H   0  0  0  0  0  0  0  0  0  0  0  0
  1  6  1  0
  1  2  1  0
  2  4  1  0
  3  1  2  0
  6  5  1  0
  7  9  2  0
  8  7  1  0
  8  6  1  0
 10  8  1  0
 11 16  1  0
 11 12  1  0
 11  7  1  0
 12 15  1  0
 12 13  1  0
 14 12  1  0
 16 17  1  0
 17 19  1  0
 18 29  2  0
 19 24  1  0
 20 28  1  0
 20 30  1  0
 21 27  1  0
 21 23  1  0
 22 28  1  0
 23 24  2  0
 23 22  1  0
 25 26  1  0
 25 19  2  0
 26 21  2  0
 27 20  1  0
 28 18  1  0
 30 32  2  0
 31 30  1  0
 33 31  1  0
 34 43  2  0
 34 39  1  0
 35 31  1  0
 35 39  1  0
 36 35  1  0
 37 38  1  0
 37 36  1  0
 38 34  1  0
 39 40  2  0
 40 41  1  0
 42 41  2  0
 43 42  1  0
 44 18  1  0
 44 49  1  0
 44 45  1  0
 45 48  1  1
 45 46  1  0
 47 45  1  0
 49 52  1  0
 50 54  1  0
 50 49  1  0
 51 50  2  0
 54 53  1  0
 56 54  1  0
 56 57  1  0
 56 55  1  0
 58  2  1  0
 59 60  1  0
 59 58  1  0
 60 62  1  0
 61 59  2  0
 63 60  1  0
 64 71  1  1
 64 78  1  0
 65 70  1  0
 66 65  2  0
 66 67  1  0
 67 68  1  0
 68 83  1  0
 69 64  1  0
 70 69  1  0
 70 64  1  0
 72 77  1  0
 72 63  1  0
 73 77  1  0
 74 76  1  0
 75 78  1  0
 77 74  1  0
 78 76  1  0
 79 72  2  0
 80 81  2  0
 81100  1  0
 82 81  1  0
 82 85  1  0
 83 80  1  0
 83 84  1  0
 84 82  2  0
 85 86  1  0
 86 87  2  0
 88 91  1  0
 88 87  1  0
 89 88  2  0
 90 89  1  0
 90 85  2  0
 91 92  1  0
 92 97  2  0
 92 93  1  0
 93 94  2  0
 94 95  1  0
 95 99  1  0
 96 95  2  0
 97 96  1  0
 98 97  1  0
100101  1  0
101104  1  0
101103  1  0
102100  2  0
105 80  1  0
106105  1  0
107105  1  0
M  ISO  4  16 101  17 101  64 100  78 100
M  END
>  <TORSDO>  (67) 
F 24

>  <SCORE>  (67) 
-10.412

>  <name>  (67) 
71

>  <ligand_id>  (67) 
71

>  <original_smiles>  (67) 
[H]c1c([H])c([H])c2c(c1[H])C([H])([H])C([H])([H])C([H])([H])C2([H])N([H])C(=O)C1([H])N(C(=O)C([H])(N([H])C(=O)C([H])(N([H])C([H])([H])[H])C([H])([H])[H])C(C([H])([H])[H])(C([H])([H])[H])C([H])([H])[H])C([H])([H])c2c([H])c(OC([H])([H])C([H])(C(=O)N([H])C([H])(C(=O)N([H])C([H])([H])C(=O)N([H])C([H])([H])C(=O)N3C([H])([H])C([H])([H])N(C(=O)N4C([H])([H])C([H])([H])C([H])([H])C([H])(n5nc(-c6c([H])c([H])c(Oc7c([H])c([H])c(F)c([H])c7F)c([H])c6[H])c(C(=O)N([H])[H])c5N([H])[H])C4([H])[H])C([H])([H])C3([H])[H])C([H])([H])[H])[N+]([H])([H])[H])c([H])c([H])c2C1([H])[H]

>  <smiles>  (67) 
[H]c1c([H])c([H])c2c(c1[H])C([H])([H])C([H])([H])C([H])([H])C2([H])N([H])C(=O)C1([H])N(C(=O)C([H])(N([H])C(=O)C([H])(N([H])C([H])([H])[H])C([H])([H])[H])C(C([H])([H])[H])(C([H])([H])[H])C([H])([H])[H])C([H])([H])c2c([H])c(OC([H])([H])C([H])(C(=O)N([H])C([H])(C(=O)N([H])C([H])([H])C(=O)N([H])C([H])([H])C(=O)N3C([H])([H])C([H])([H])N(C(=O)N4C([H])([H])C([H])([H])C([H])([H])C([H])(n5nc(-c6c([H])c([H])c(Oc7c([H])c([H])c(F)c([H])c7F)c([H])c6[H])c(C(=O)N([H])[H])c5N([H])[H])C4([H])[H])C([H])([H])C3([H])[H])C([H])([H])[H])[N+]([H])([H])[H])c([H])c([H])c2C1([H])[H]

$$$$
72:0:0
     RDKit          3D

 99106  0  0  1  0  0  0  0  0999 V2000
  -29.6180  -21.7670   20.3800 C   0  0  0  0  0  0  0  0  0  0  0  0
  -28.9930  -22.9040   20.0080 N   0  0  0  0  0  0  0  0  0  0  0  0
  -30.4710  -21.7510   21.2720 O   0  0  0  0  0  0  0  0  0  0  0  0
  -28.3330  -22.8330   19.2470 H   0  0  0  0  0  0  0  0  0  0  0  0
  -29.2460  -20.4520   19.6530 C   0  0  0  0  0  2  0  0  0  0  0  0
  -29.9280  -18.0250   19.6860 C   0  0  0  0  0  0  0  0  0  0  0  0
  -30.1430  -19.3250   19.9760 N   0  0  0  0  0  0  0  0  0  0  0  0
  -28.9230  -17.6580   19.0730 O   0  0  0  0  0  0  0  0  0  0  0  0
  -30.9770  -19.5750   20.4910 H   0  0  0  0  0  0  0  0  0  0  0  0
  -30.9750  -16.9730   20.1550 C   0  0  0  0  0  3  0  0  0  0  0  0
  -31.1020  -14.5220   19.4760 C   0  0  0  0  0  0  0  0  0  0  0  0
  -30.6450  -12.2900   18.5140 C   0  0  0  0  0  2  0  0  0  0  0  0
  -29.6060  -12.4280   17.3820 C   0  0  0  0  0  2  0  0  0  0  0  0
  -28.1710  -12.3800   17.9450 C   0  0  0  0  0  2  0  0  0  0  0  0
  -27.9720  -13.3310   19.1550 C   0  0  0  0  0  3  0  0  0  0  0  0
  -29.1090  -13.1520   20.1860 C   0  0  0  0  0  2  0  0  0  0  0  0
  -30.3860  -13.3650   19.4850 N   0  0  0  0  0  0  0  0  0  0  0  0
  -32.1950  -14.6290   18.9120 O   0  0  0  0  0  0  0  0  0  0  0  0
  -30.4800  -15.5860   20.0160 N   0  0  0  0  0  0  0  0  0  0  0  0
  -29.5440  -15.4300   20.3530 H   0  0  0  0  0  0  0  0  0  0  0  0
  -25.7100  -14.1160   20.0980 C   0  0  0  0  0  0  0  0  0  0  0  0
  -24.6250  -13.4240   20.5640 C   0  0  0  0  0  0  0  0  0  0  0  0
  -24.9730  -12.0410   20.4820 C   0  0  0  0  0  0  0  0  0  0  0  0
  -26.6550  -13.1580   19.7630 N   0  0  0  0  0  0  0  0  0  0  0  0
  -26.2190  -11.9050   20.0510 N   0  0  0  0  0  0  0  0  0  0  0  0
  -24.1710  -10.8370   20.7350 C   0  0  0  0  0  0  0  0  0  0  0  0
  -24.5860   -9.8550   21.6630 C   0  0  0  0  0  3  0  0  0  0  0  0
  -23.7900   -8.7150   21.9030 C   0  0  0  0  0  3  0  0  0  0  0  0
  -22.5640   -8.5480   21.2160 C   0  0  0  0  0  0  0  0  0  0  0  0
  -22.1660   -9.5170   20.2780 C   0  0  0  0  0  3  0  0  0  0  0  0
  -22.9630  -10.6480   20.0360 C   0  0  0  0  0  3  0  0  0  0  0  0
  -21.7380   -7.4610   21.3660 O   0  0  0  0  0  0  0  0  0  0  0  0
  -21.6580   -6.7740   22.5510 C   0  0  0  0  0  0  0  0  0  0  0  0
  -21.2960   -7.4120   23.7580 C   0  0  0  0  0  3  0  0  0  0  0  0
  -21.1590   -6.6560   24.9390 C   0  0  0  0  0  3  0  0  0  0  0  0
  -21.3740   -5.2650   24.9150 C   0  0  0  0  0  0  0  0  0  0  0  0
  -21.7280   -4.6280   23.7130 C   0  0  0  0  0  3  0  0  0  0  0  0
  -21.8670   -5.3810   22.5340 C   0  0  0  0  0  0  0  0  0  0  0  0
  -22.1890   -4.7590   21.3740 F   0  0  0  0  0  0  0  0  0  0  0  0
  -21.2340   -4.5380   26.0480 F   0  0  0  0  0  0  0  0  0  0  0  0
  -23.3020  -14.0060   20.9750 C   0  0  0  0  0  0  0  0  0  0  0  0
  -22.6180  -13.3670   21.9180 N   0  0  0  0  0  0  0  0  0  0  0  0
  -22.8890  -15.0600   20.4940 O   0  0  0  0  0  0  0  0  0  0  0  0
  -22.9660  -12.5120   22.3280 H   0  0  0  0  0  0  0  0  0  0  0  0
  -21.7350  -13.7380   22.2380 H   0  0  0  0  0  0  0  0  0  0  0  0
  -25.9660  -15.4720   19.9130 N   0  0  0  0  0  0  0  0  0  0  0  0
  -25.2680  -16.1830   20.0990 H   0  0  0  0  0  0  0  0  0  0  0  0
  -26.8190  -15.8510   19.5180 H   0  0  0  0  0  0  0  0  0  0  0  0
  -30.2410  -17.0390   22.6460 C   0  0  0  0  0  1  0  0  0  0  0  0
  -32.5750  -16.2840   22.0360 C   0  0  0  0  0  1  0  0  0  0  0  0
  -31.4000  -17.1940   21.6370 C   0  0  0  0  0  3  0  0  0  0  0  0
  -29.2690  -24.2780   20.4950 C   0  0  0  0  0  3  0  0  0  0  0  0
  -30.6040  -24.7440   19.8860 C   0  0  0  0  0  0  0  0  0  0  0  0
  -31.4790  -25.3360   20.6890 N   0  0  0  0  0  0  0  0  0  0  0  0
  -30.8610  -24.5590   18.6960 O   0  0  0  0  0  0  0  0  0  0  0  0
  -31.2610  -25.4730   21.6660 H   0  0  0  0  0  0  0  0  0  0  0  0
  -32.3700  -25.6490   20.3310 H   0  0  0  0  0  0  0  0  0  0  0  0
  -28.1290  -25.2400   20.0260 C   0  0  0  0  0  2  0  0  0  0  0  0
  -28.2310  -26.6300   20.4360 O   0  0  0  0  0  0  0  0  0  0  0  0
  -24.4210  -31.9260   23.3680 C   0  0  0  0  0  0  0  0  0  0  0  0
  -27.0780  -27.4050   20.3670 C   0  0  0  0  0  0  0  0  0  0  0  0
  -23.2330  -30.5160   21.7230 C   0  0  0  0  0  3  0  0  0  0  0  0
  -24.6980  -28.9620   20.3300 C   0  0  0  0  0  0  0  0  0  0  0  0
  -25.7690  -30.8490   21.5640 C   0  0  0  0  0  2  0  0  0  0  0  0
  -25.8550  -29.4710   20.9320 C   0  0  0  0  0  0  0  0  0  0  0  0
  -27.0470  -28.7010   20.9460 C   0  0  0  0  0  3  0  0  0  0  0  0
  -25.8970  -26.9320   19.7440 C   0  0  0  0  0  3  0  0  0  0  0  0
  -24.7160  -27.6940   19.7320 C   0  0  0  0  0  3  0  0  0  0  0  0
  -23.4600  -29.8290   20.3510 C   0  0  0  0  0  2  0  0  0  0  0  0
  -24.4920  -31.1130   22.2750 N   0  0  0  0  0  0  0  0  0  0  0  0
  -23.3320  -32.2070   23.8880 O   0  0  0  0  0  0  0  0  0  0  0  0
  -22.5620  -29.5050   22.6820 C   0  0  0  0  0  0  0  0  0  0  0  0
  -21.2450  -29.2980   22.5120 N   0  0  0  0  0  0  0  0  0  0  0  0
  -23.2250  -28.9080   23.5330 O   0  0  0  0  0  0  0  0  0  0  0  0
  -20.7720  -29.8340   21.7990 H   0  0  0  0  0  0  0  0  0  0  0  0
  -17.8790  -28.0420   22.8990 C   0  0  0  0  0  0  0  0  0  0  0  0
  -20.4160  -28.3640   23.2740 C   0  0  0  0  0  3  0  0  0  0  0  0
  -20.5740  -26.9190   22.7460 C   0  0  0  0  0  2  0  0  0  0  0  0
  -19.5240  -26.5420   21.6950 C   0  0  0  0  0  2  0  0  0  0  0  0
  -18.1130  -26.6770   22.2730 C   0  0  0  0  0  2  0  0  0  0  0  0
  -18.9610  -28.8400   23.3550 C   0  0  0  0  0  0  0  0  0  0  0  0
  -18.6910  -30.1160   23.8960 C   0  0  0  0  0  3  0  0  0  0  0  0
  -17.3710  -30.5940   23.9880 C   0  0  0  0  0  3  0  0  0  0  0  0
  -16.3010  -29.7930   23.5500 C   0  0  0  0  0  3  0  0  0  0  0  0
  -16.5560  -28.5190   23.0110 C   0  0  0  0  0  3  0  0  0  0  0  0
  -25.7000  -32.5560   24.0000 C   0  0  0  0  0  3  0  0  0  0  0  0
  -26.1800  -31.8120   25.3060 C   0  0  1  0  0  0  0  0  0  0  0  0
  -25.0580  -31.5980   26.3480 C   0  0  0  0  0  1  0  0  0  0  0  0
  -26.7730  -30.4270   24.9580 C   0  0  0  0  0  1  0  0  0  0  0  0
  -27.3110  -32.6210   25.9840 C   0  0  0  0  0  1  0  0  0  0  0  0
  -25.4010  -33.9670   24.2860 N   0  0  0  0  0  0  0  0  0  0  0  0
  -25.7470  -34.9920   23.4970 C   0  0  0  0  0  0  0  0  0  0  0  0
  -26.4200  -34.8520   22.4720 O   0  0  0  0  0  0  0  0  0  0  0  0
  -24.8060  -34.1520   25.0800 H   0  0  0  0  0  0  0  0  0  0  0  0
  -24.0310  -36.7830   23.0840 C   0  0  0  0  0  1  0  0  0  0  0  0
  -25.2690  -36.3970   23.9080 C   0  0  0  0  0  3  0  0  0  0  0  0
  -27.4090  -37.2930   24.7120 C   0  0  0  0  0  1  0  0  0  0  0  0
  -26.3080  -37.4390   23.7630 N   0  0  0  0  0  0  0  0  0  0  0  0
  -25.9080  -38.3660   23.8830 H   0  0  0  0  0  0  0  0  0  0  0  0
  1  3  2  0
  2  1  1  0
  2 52  1  0
  4  2  1  0
  5  7  1  0
  5  1  1  0
  6  7  1  0
  7  9  1  0
  8  6  2  0
 10  6  1  0
 10 51  1  0
 11 17  1  0
 11 19  1  0
 12 17  1  0
 13 14  1  0
 13 12  1  0
 15 14  1  0
 15 24  1  0
 15 16  1  0
 17 16  1  0
 18 11  2  0
 19 10  1  0
 19 20  1  0
 21 22  2  0
 22 41  1  0
 23 22  1  0
 23 26  1  0
 24 25  1  0
 24 21  1  0
 25 23  2  0
 26 27  1  0
 27 28  2  0
 29 32  1  0
 29 28  1  0
 30 29  2  0
 31 30  1  0
 31 26  2  0
 32 33  1  0
 33 34  1  0
 34 35  2  0
 36 35  1  0
 36 40  1  0
 37 36  2  0
 38 33  2  0
 38 37  1  0
 39 38  1  0
 41 42  1  0
 42 45  1  0
 42 44  1  0
 43 41  2  0
 46 21  1  0
 46 47  1  0
 48 46  1  0
 51 50  1  0
 51 49  1  0
 52 58  1  0
 53 52  1  0
 53 54  1  0
 54 56  1  0
 55 53  2  0
 57 54  1  0
 58 59  1  0
 60 71  2  0
 61 59  1  0
 61 66  1  0
 62 70  1  0
 62 72  1  0
 63 69  1  0
 63 65  1  0
 64 70  1  0
 65 66  2  0
 65 64  1  0
 67 61  2  0
 68 67  1  0
 68 63  2  0
 69 62  1  0
 70 60  1  0
 72 74  2  0
 73 72  1  0
 75 73  1  0
 76 85  2  0
 76 81  1  0
 77 73  1  0
 77 81  1  0
 78 77  1  0
 79 80  1  0
 79 78  1  0
 80 76  1  0
 81 82  2  0
 82 83  1  0
 84 83  2  0
 85 84  1  0
 86 60  1  0
 86 91  1  0
 86 87  1  0
 87 90  1  1
 87 88  1  0
 89 87  1  0
 91 94  1  0
 92 96  1  0
 92 91  1  0
 93 92  2  0
 96 95  1  0
 98 99  1  0
 98 96  1  0
 98 97  1  0
M  ISO  4  11 100  19 100  58 101  59 101
M  END
>  <TORSDO>  (68) 
F 23

>  <SCORE>  (68) 
-9.108

>  <name>  (68) 
72

>  <ligand_id>  (68) 
72

>  <original_smiles>  (68) 
[H]c1c([H])c([H])c2c(c1[H])C([H])([H])C([H])([H])C([H])([H])C2([H])N([H])C(=O)C1([H])N(C(=O)C([H])(N([H])C(=O)C([H])(N([H])C([H])([H])[H])C([H])([H])[H])C(C([H])([H])[H])(C([H])([H])[H])C([H])([H])[H])C([H])([H])c2c([H])c(OC([H])([H])C([H])(C(=O)N([H])[H])N([H])C(=O)C([H])([H])N([H])C(=O)C([H])(N([H])C(=O)N3C([H])([H])C([H])([H])C([H])([H])C([H])(n4nc(-c5c([H])c([H])c(Oc6c([H])c([H])c(F)c([H])c6F)c([H])c5[H])c(C(=O)N([H])[H])c4N([H])[H])C3([H])[H])C([H])(C([H])([H])[H])C([H])([H])[H])c([H])c([H])c2C1([H])[H]

>  <smiles>  (68) 
[H]c1c([H])c([H])c2c(c1[H])C([H])([H])C([H])([H])C([H])([H])C2([H])N([H])C(=O)C1([H])N(C(=O)C([H])(N([H])C(=O)C([H])(N([H])C([H])([H])[H])C([H])([H])[H])C(C([H])([H])[H])(C([H])([H])[H])C([H])([H])[H])C([H])([H])c2c([H])c(OC([H])([H])C([H])(C(=O)N([H])[H])N([H])C(=O)C([H])([H])N([H])C(=O)C([H])(N([H])C(=O)N3C([H])([H])C([H])([H])C([H])([H])C([H])(n4nc(-c5c([H])c([H])c(Oc6c([H])c([H])c(F)c([H])c6F)c([H])c5[H])c(C(=O)N([H])[H])c4N([H])[H])C3([H])[H])C([H])(C([H])([H])[H])C([H])([H])[H])c([H])c([H])c2C1([H])[H]

$$$$
73:0:0
     RDKit          3D

103111  0  0  1  0  0  0  0  0999 V2000
  -29.7110  -18.8730   21.2810 N   0  0  1  0  0  4  0  0  0  0  0  0
  -29.1790  -18.1370   21.7360 H   0  0  0  0  0  0  0  0  0  0  0  0
  -28.3040  -18.4680   19.1990 C   0  0  0  0  0  2  0  0  0  0  0  0
  -28.3330  -18.3230   17.6640 C   0  0  0  0  0  2  0  0  0  0  0  0
  -30.5230  -17.1950   17.7980 C   0  0  0  0  0  2  0  0  0  0  0  0
  -30.5340  -17.2890   19.3560 C   0  0  0  0  0  3  0  0  0  0  0  0
  -29.7300  -18.5540   19.8060 C   0  0  0  0  0  3  0  0  0  0  0  0
  -29.1520  -17.1670   17.2410 N   0  0  0  0  0  4  0  0  0  0  0  0
  -29.2160  -17.1800   16.2340 H   0  0  0  0  0  0  0  0  0  0  0  0
  -28.6850  -16.3080   17.4820 H   0  0  0  0  0  0  0  0  0  0  0  0
  -30.9150  -14.9210   19.9490 C   0  0  0  0  0  0  0  0  0  0  0  0
  -30.6170  -12.6900   18.9930 C   0  0  0  0  0  2  0  0  0  0  0  0
  -29.6360  -12.8200   17.8090 C   0  0  0  0  0  2  0  0  0  0  0  0
  -28.1800  -12.6810   18.2950 C   0  0  0  0  0  2  0  0  0  0  0  0
  -27.8630  -13.5710   19.5280 C   0  0  0  0  0  3  0  0  0  0  0  0
  -28.9670  -13.4670   20.6070 C   0  0  0  0  0  2  0  0  0  0  0  0
  -30.2600  -13.7360   19.9620 N   0  0  0  0  0  0  0  0  0  0  0  0
  -32.0830  -15.0420   19.5790 O   0  0  0  0  0  0  0  0  0  0  0  0
  -30.1180  -16.0080   19.9740 N   0  0  0  0  0  0  0  0  0  0  0  0
  -29.1560  -15.8540   20.2280 H   0  0  0  0  0  0  0  0  0  0  0  0
  -25.5190  -14.1580   20.4040 C   0  0  0  0  0  0  0  0  0  0  0  0
  -24.4670  -13.3740   20.7980 C   0  0  0  0  0  0  0  0  0  0  0  0
  -24.9170  -12.0240   20.6810 C   0  0  0  0  0  0  0  0  0  0  0  0
  -26.5410  -13.2830   20.0750 N   0  0  0  0  0  0  0  0  0  0  0  0
  -26.1860  -11.9930   20.2990 N   0  0  0  0  0  0  0  0  0  0  0  0
  -24.1950  -10.7590   20.8540 C   0  0  0  0  0  0  0  0  0  0  0  0
  -24.6060   -9.7990   21.8050 C   0  0  0  0  0  3  0  0  0  0  0  0
  -23.8840   -8.5960   21.9660 C   0  0  0  0  0  3  0  0  0  0  0  0
  -22.7390   -8.3460   21.1740 C   0  0  0  0  0  0  0  0  0  0  0  0
  -22.3470   -9.2940   20.2120 C   0  0  0  0  0  3  0  0  0  0  0  0
  -23.0710  -10.4880   20.0490 C   0  0  0  0  0  3  0  0  0  0  0  0
  -21.9900   -7.1970   21.2440 O   0  0  0  0  0  0  0  0  0  0  0  0
  -21.8130   -6.5210   22.4250 C   0  0  0  0  0  0  0  0  0  0  0  0
  -21.2140   -7.1310   23.5490 C   0  0  0  0  0  3  0  0  0  0  0  0
  -20.9900   -6.3800   24.7210 C   0  0  0  0  0  3  0  0  0  0  0  0
  -21.3560   -5.0220   24.7680 C   0  0  0  0  0  0  0  0  0  0  0  0
  -21.9500   -4.4130   23.6480 C   0  0  0  0  0  3  0  0  0  0  0  0
  -22.1750   -5.1600   22.4790 C   0  0  0  0  0  0  0  0  0  0  0  0
  -22.7280   -4.5630   21.3960 F   0  0  0  0  0  0  0  0  0  0  0  0
  -21.1350   -4.2980   25.8900 F   0  0  0  0  0  0  0  0  0  0  0  0
  -23.0920  -13.8460   21.1680 C   0  0  0  0  0  0  0  0  0  0  0  0
  -22.4270  -13.1420   22.0780 N   0  0  0  0  0  0  0  0  0  0  0  0
  -22.6160  -14.8730   20.6850 O   0  0  0  0  0  0  0  0  0  0  0  0
  -22.8260  -12.3110   22.4880 H   0  0  0  0  0  0  0  0  0  0  0  0
  -21.5040  -13.4370   22.3650 H   0  0  0  0  0  0  0  0  0  0  0  0
  -25.6780  -15.5350   20.2770 N   0  0  0  0  0  0  0  0  0  0  0  0
  -24.9080  -16.1730   20.4470 H   0  0  0  0  0  0  0  0  0  0  0  0
  -26.4810  -15.9870   19.8700 H   0  0  0  0  0  0  0  0  0  0  0  0
  -30.9930  -18.7030   22.0110 C   0  0  0  0  0  2  0  0  0  0  0  0
  -30.9430  -17.3820   22.7770 C   0  0  0  0  0  0  0  0  0  0  0  0
  -31.9260  -17.1050   23.6240 N   0  0  0  0  0  0  0  0  0  0  0  0
  -30.0050  -16.6070   22.5940 O   0  0  0  0  0  0  0  0  0  0  0  0
  -32.6940  -17.7500   23.7590 H   0  0  0  0  0  0  0  0  0  0  0  0
  -31.9080  -16.2490   24.1590 H   0  0  0  0  0  0  0  0  0  0  0  0
  -29.0280  -20.1590   21.6450 C   0  0  0  0  0  2  0  0  0  0  0  0
  -29.5440  -21.3950   20.8570 C   0  0  0  0  0  2  0  0  0  0  0  0
  -28.9250  -22.7340   21.2720 C   0  0  0  0  0  0  0  0  0  0  0  0
  -28.9400  -23.6940   20.3400 N   0  0  0  0  0  0  0  0  0  0  0  0
  -28.4500  -22.8990   22.3960 O   0  0  0  0  0  0  0  0  0  0  0  0
  -29.3880  -23.4720   19.4610 H   0  0  0  0  0  0  0  0  0  0  0  0
  -28.4150  -25.0520   20.4800 C   0  0  0  0  0  2  0  0  0  0  0  0
  -28.7270  -25.8770   19.2140 C   0  0  0  0  0  2  0  0  0  0  0  0
  -28.5930  -27.2780   19.4290 O   0  0  0  0  0  0  0  0  0  0  0  0
  -24.6430  -31.7770   23.1900 C   0  0  0  0  0  0  0  0  0  0  0  0
  -27.3530  -27.8700   19.5260 C   0  0  0  0  0  0  0  0  0  0  0  0
  -23.4330  -30.5590   21.4050 C   0  0  0  0  0  3  0  0  0  0  0  0
  -24.8960  -29.2580   19.7680 C   0  0  0  0  0  0  0  0  0  0  0  0
  -25.9350  -31.0350   21.1940 C   0  0  0  0  0  2  0  0  0  0  0  0
  -26.0470  -29.7560   20.3910 C   0  0  0  0  0  0  0  0  0  0  0  0
  -27.2720  -29.0700   20.2640 C   0  0  0  0  0  3  0  0  0  0  0  0
  -26.1810  -27.3720   18.9070 C   0  0  0  0  0  3  0  0  0  0  0  0
  -24.9590  -28.0660   19.0250 C   0  0  0  0  0  3  0  0  0  0  0  0
  -23.6250  -30.0590   19.9460 C   0  0  0  0  0  2  0  0  0  0  0  0
  -24.6900  -31.1300   21.9920 N   0  0  0  0  0  0  0  0  0  0  0  0
  -23.5690  -31.9420   23.7840 O   0  0  0  0  0  0  0  0  0  0  0  0
  -22.8380  -29.4040   22.2400 C   0  0  0  0  0  0  0  0  0  0  0  0
  -21.5100  -29.2230   22.1440 N   0  0  0  0  0  0  0  0  0  0  0  0
  -23.5640  -28.6810   22.9290 O   0  0  0  0  0  0  0  0  0  0  0  0
  -20.9880  -29.8620   21.5610 H   0  0  0  0  0  0  0  0  0  0  0  0
  -18.1670  -27.9540   22.6360 C   0  0  0  0  0  0  0  0  0  0  0  0
  -20.7350  -28.1760   22.8060 C   0  0  0  0  0  3  0  0  0  0  0  0
  -20.8010  -26.8510   22.0140 C   0  0  0  0  0  2  0  0  0  0  0  0
  -19.6460  -26.6830   21.0220 C   0  0  0  0  0  2  0  0  0  0  0  0
  -18.3010  -26.7240   21.7540 C   0  0  0  0  0  2  0  0  0  0  0  0
  -19.3100  -28.6450   23.1160 C   0  0  0  0  0  0  0  0  0  0  0  0
  -19.1310  -29.8050   23.9020 C   0  0  0  0  0  3  0  0  0  0  0  0
  -17.8400  -30.2720   24.2120 C   0  0  0  0  0  3  0  0  0  0  0  0
  -16.7120  -29.5730   23.7510 C   0  0  0  0  0  3  0  0  0  0  0  0
  -16.8740  -28.4170   22.9670 C   0  0  0  0  0  3  0  0  0  0  0  0
  -25.9260  -32.3620   23.8600 C   0  0  0  0  0  3  0  0  0  0  0  0
  -25.6050  -33.7170   24.3270 N   0  0  0  0  0  0  0  0  0  0  0  0
  -25.9210  -34.8420   23.6700 C   0  0  0  0  0  0  0  0  0  0  0  0
  -26.5860  -34.8480   22.6310 O   0  0  0  0  0  0  0  0  0  0  0  0
  -25.0210  -33.7840   25.1460 H   0  0  0  0  0  0  0  0  0  0  0  0
  -24.1790  -36.6450   23.4890 C   0  0  0  0  0  1  0  0  0  0  0  0
  -25.4190  -36.1720   24.2630 C   0  0  0  0  0  3  0  0  0  0  0  0
  -27.5360  -36.9930   25.2000 C   0  0  0  0  0  1  0  0  0  0  0  0
  -26.4440  -37.2390   24.2620 N   0  0  0  0  0  0  0  0  0  0  0  0
  -26.0280  -38.1360   24.4920 H   0  0  0  0  0  0  0  0  0  0  0  0
  -26.4670  -31.4740   25.0460 C   0  0  1  0  0  0  0  0  0  0  0  0
  -25.3890  -31.1150   26.0950 C   0  0  0  0  0  1  0  0  0  0  0  0
  -27.0660  -30.1540   24.5080 C   0  0  0  0  0  1  0  0  0  0  0  0
  -27.6160  -32.2150   25.7750 C   0  0  0  0  0  1  0  0  0  0  0  0
  1 55  1  0
  1  2  1  1
  1 49  1  0
  3  7  1  0
  4  3  1  0
  5  6  1  0
  6  7  1  0
  6 19  1  0
  7  1  1  0
  8 10  1  0
  8  4  1  0
  8  5  1  0
  9  8  1  0
 11 17  1  0
 11 19  1  0
 12 17  1  0
 13 14  1  0
 13 12  1  0
 15 14  1  0
 15 24  1  0
 15 16  1  0
 17 16  1  0
 18 11  2  0
 19 20  1  0
 21 22  2  0
 22 41  1  0
 23 22  1  0
 23 26  1  0
 24 25  1  0
 24 21  1  0
 25 23  2  0
 26 27  1  0
 27 28  2  0
 29 32  1  0
 29 28  1  0
 30 29  2  0
 31 30  1  0
 31 26  2  0
 32 33  1  0
 33 38  2  0
 33 34  1  0
 34 35  2  0
 35 36  1  0
 36 40  1  0
 37 36  2  0
 38 37  1  0
 39 38  1  0
 41 42  1  0
 42 45  1  0
 42 44  1  0
 43 41  2  0
 46 21  1  0
 46 47  1  0
 48 46  1  0
 49 50  1  0
 50 51  1  0
 51 53  1  0
 51 54  1  0
 52 50  2  0
 56 57  1  0
 56 55  1  0
 57 59  2  0
 58 61  1  0
 58 57  1  0
 60 58  1  0
 62 63  1  0
 62 61  1  0
 63 65  1  0
 64 75  2  0
 65 70  1  0
 66 74  1  0
 66 76  1  0
 67 73  1  0
 67 69  1  0
 68 74  1  0
 69 68  1  0
 70 69  2  0
 71 72  1  0
 71 65  2  0
 72 67  2  0
 73 66  1  0
 74 64  1  0
 76 78  2  0
 77 76  1  0
 79 77  1  0
 80 89  2  0
 80 85  1  0
 81 77  1  0
 81 85  1  0
 82 81  1  0
 83 84  1  0
 83 82  1  0
 84 80  1  0
 85 86  2  0
 86 87  1  0
 88 87  2  0
 89 88  1  0
 90 64  1  0
 90 91  1  0
 90100  1  0
 91 94  1  0
 92 96  1  0
 92 91  1  0
 93 92  2  0
 96 95  1  0
 98 96  1  0
 98 99  1  0
 98 97  1  0
100103  1  1
100101  1  0
102100  1  0
M  ISO  4  11 100  19 100  62 101  63 101
M  END
>  <TORSDO>  (69) 
F 24

>  <SCORE>  (69) 
-8.515

>  <name>  (69) 
73

>  <ligand_id>  (69) 
73

>  <original_smiles>  (69) 
[H]c1c([H])c([H])c2c(c1[H])C([H])([H])C([H])([H])C([H])([H])C2([H])N([H])C(=O)C1([H])N(C(=O)C([H])(N([H])C(=O)C([H])(N([H])C([H])([H])[H])C([H])([H])[H])C(C([H])([H])[H])(C([H])([H])[H])C([H])([H])[H])C([H])([H])c2c([H])c(OC([H])([H])C([H])([H])N([H])C(=O)C([H])([H])C([H])([H])[N+]([H])(C([H])([H])C(=O)N([H])[H])C3([H])C([H])([H])C([H])([H])[N+]([H])([H])C([H])([H])C3([H])N([H])C(=O)N3C([H])([H])C([H])([H])C([H])([H])C([H])(n4nc(-c5c([H])c([H])c(Oc6c([H])c([H])c(F)c([H])c6F)c([H])c5[H])c(C(=O)N([H])[H])c4N([H])[H])C3([H])[H])c([H])c([H])c2C1([H])[H]

>  <smiles>  (69) 
[H]c1c([H])c([H])c2c(c1[H])C([H])([H])C([H])([H])C([H])([H])C2([H])N([H])C(=O)C1([H])N(C(=O)C([H])(N([H])C(=O)C([H])(N([H])C([H])([H])[H])C([H])([H])[H])C(C([H])([H])[H])(C([H])([H])[H])C([H])([H])[H])C([H])([H])c2c([H])c(OC([H])([H])C([H])([H])N([H])C(=O)C([H])([H])C([H])([H])[N+]([H])(C([H])([H])C(=O)N([H])[H])C3([H])C([H])([H])C([H])([H])[N+]([H])([H])C([H])([H])C3([H])N([H])C(=O)N3C([H])([H])C([H])([H])C([H])([H])C([H])(n4nc(-c5c([H])c([H])c(Oc6c([H])c([H])c(F)c([H])c6F)c([H])c5[H])c(C(=O)N([H])[H])c4N([H])[H])C3([H])[H])c([H])c([H])c2C1([H])[H]

$$$$
74:0:0
     RDKit          3D

109118  0  0  1  0  0  0  0  0999 V2000
  -26.7320  -21.2930   18.3680 C   0  0  0  0  0  0  0  0  0  0  0  0
  -26.3470  -22.3940   17.7300 N   0  0  0  0  0  0  0  0  0  0  0  0
  -25.9690  -20.3480   18.5900 O   0  0  0  0  0  0  0  0  0  0  0  0
  -27.0530  -23.1030   17.5920 H   0  0  0  0  0  0  0  0  0  0  0  0
  -28.7440  -18.8620   18.8760 C   0  0  0  0  0  0  0  0  0  0  0  0
  -28.2790  -21.7400   21.1940 C   0  0  0  0  0  2  0  0  0  0  0  0
  -28.5080  -22.3890   19.8390 C   0  0  0  0  0  2  0  0  0  0  0  0
  -28.6390  -20.2690   20.9750 C   0  0  0  0  0  2  0  0  0  0  0  0
  -28.2110  -21.2780   18.8180 C   0  0  0  0  0  3  0  0  0  0  0  0
  -28.5540  -20.0340   19.5250 N   0  0  0  0  0  0  0  0  0  0  0  0
  -28.8050  -18.8070   17.6420 O   0  0  0  0  0  0  0  0  0  0  0  0
  -28.7560  -17.5380   19.6590 C   0  0  0  0  0  3  0  0  0  0  0  0
  -27.8610  -16.6380   18.9100 N   0  0  0  0  0  4  0  0  0  0  0  0
  -28.3750  -16.0940   18.2400 H   0  0  0  0  0  0  0  0  0  0  0  0
  -27.2220  -17.2170   18.3910 H   0  0  0  0  0  0  0  0  0  0  0  0
  -27.2920  -16.0620   19.5190 H   0  0  0  0  0  0  0  0  0  0  0  0
  -30.1880  -16.9370   19.8520 C   0  0  0  0  0  2  0  0  0  0  0  0
  -30.9910  -14.5390   19.9750 C   0  0  0  0  0  0  0  0  0  0  0  0
  -30.7640  -12.2570   19.0880 C   0  0  0  0  0  2  0  0  0  0  0  0
  -29.7890  -12.3360   17.8920 C   0  0  0  0  0  2  0  0  0  0  0  0
  -28.3230  -12.2130   18.3600 C   0  0  0  0  0  2  0  0  0  0  0  0
  -28.0070  -13.1660   19.5410 C   0  0  0  0  0  3  0  0  0  0  0  0
  -29.0830  -13.0460   20.6450 C   0  0  0  0  0  2  0  0  0  0  0  0
  -30.3950  -13.3180   20.0300 N   0  0  0  0  0  0  0  0  0  0  0  0
  -32.0910  -14.7460   19.4550 O   0  0  0  0  0  0  0  0  0  0  0  0
  -30.1540  -15.5380   20.3090 N   0  0  0  0  0  0  0  0  0  0  0  0
  -29.3390  -15.2400   20.8230 H   0  0  0  0  0  0  0  0  0  0  0  0
  -25.6730  -13.9140   20.3280 C   0  0  0  0  0  0  0  0  0  0  0  0
  -24.5730  -13.1940   20.7180 C   0  0  0  0  0  0  0  0  0  0  0  0
  -24.9660  -11.8210   20.6690 C   0  0  0  0  0  0  0  0  0  0  0  0
  -26.6590  -12.9760   20.0610 N   0  0  0  0  0  0  0  0  0  0  0  0
  -26.2400  -11.7180   20.3210 N   0  0  0  0  0  0  0  0  0  0  0  0
  -24.1960  -10.5920   20.8860 C   0  0  0  0  0  0  0  0  0  0  0  0
  -24.6020   -9.6240   21.8320 C   0  0  0  0  0  3  0  0  0  0  0  0
  -23.8380   -8.4540   22.0290 C   0  0  0  0  0  3  0  0  0  0  0  0
  -22.6550   -8.2460   21.2800 C   0  0  0  0  0  0  0  0  0  0  0  0
  -22.2690   -9.2010   20.3230 C   0  0  0  0  0  3  0  0  0  0  0  0
  -23.0330  -10.3630   20.1250 C   0  0  0  0  0  3  0  0  0  0  0  0
  -21.8670   -7.1260   21.3840 O   0  0  0  0  0  0  0  0  0  0  0  0
  -21.7690   -6.4240   22.5590 C   0  0  0  0  0  0  0  0  0  0  0  0
  -21.3280   -7.0280   23.7570 C   0  0  0  0  0  3  0  0  0  0  0  0
  -21.1740   -6.2520   24.9230 C   0  0  0  0  0  3  0  0  0  0  0  0
  -21.4560   -4.8730   24.8920 C   0  0  0  0  0  0  0  0  0  0  0  0
  -21.8910   -4.2680   23.7000 C   0  0  0  0  0  3  0  0  0  0  0  0
  -22.0450   -5.0420   22.5360 C   0  0  0  0  0  0  0  0  0  0  0  0
  -22.4430   -4.4510   21.3850 F   0  0  0  0  0  0  0  0  0  0  0  0
  -21.3010   -4.1240   26.0090 F   0  0  0  0  0  0  0  0  0  0  0  0
  -23.2100  -13.7340   21.0460 C   0  0  0  0  0  0  0  0  0  0  0  0
  -22.4900  -13.0730   21.9470 N   0  0  0  0  0  0  0  0  0  0  0  0
  -22.8020  -14.7770   20.5410 O   0  0  0  0  0  0  0  0  0  0  0  0
  -22.8370  -12.2240   22.3700 H   0  0  0  0  0  0  0  0  0  0  0  0
  -21.5800  -13.4170   22.2170 H   0  0  0  0  0  0  0  0  0  0  0  0
  -25.9370  -15.2800   20.1860 N   0  0  0  0  0  0  0  0  0  0  0  0
  -26.2940  -15.5550   21.0980 H   0  0  0  0  0  0  0  0  0  0  0  0
  -25.0310  -15.7380   20.1380 H   0  0  0  0  0  0  0  0  0  0  0  0
  -25.0260  -22.7260   17.2140 C   0  0  0  0  0  2  0  0  0  0  0  0
  -24.6130  -25.2190   17.3560 C   0  0  0  0  0  3  0  0  0  0  0  0
  -25.9930  -24.3390   15.5440 C   0  0  0  0  0  3  0  0  0  0  0  0
  -25.0370  -26.5260   17.0370 C   0  0  0  0  0  3  0  0  0  0  0  0
  -26.4200  -25.6420   15.2350 C   0  0  0  0  0  3  0  0  0  0  0  0
  -25.1460  -24.1220   16.6490 C   0  0  0  0  0  0  0  0  0  0  0  0
  -25.9990  -26.7270   16.0280 C   0  0  0  0  0  0  0  0  0  0  0  0
  -26.7000  -28.0710   15.9020 C   0  0  0  0  0  2  0  0  0  0  0  0
  -28.6910  -27.6580   17.3580 C   0  0  0  0  0  0  0  0  0  0  0  0
  -27.5610  -28.3180   17.0590 N   0  0  0  0  0  0  0  0  0  0  0  0
  -29.2090  -26.8480   16.5860 O   0  0  0  0  0  0  0  0  0  0  0  0
  -27.2070  -28.9610   17.7540 H   0  0  0  0  0  0  0  0  0  0  0  0
  -29.3360  -27.9280   18.7310 C   0  0  0  0  0  2  0  0  0  0  0  0
  -28.5560  -27.3480   19.7880 O   0  0  0  0  0  0  0  0  0  0  0  0
  -24.8380  -32.1160   23.5840 C   0  0  0  0  0  0  0  0  0  0  0  0
  -27.3780  -28.0020   20.0350 C   0  0  0  0  0  0  0  0  0  0  0  0
  -23.5550  -30.8020   21.9230 C   0  0  0  0  0  3  0  0  0  0  0  0
  -24.9480  -29.3950   20.3180 C   0  0  0  0  0  0  0  0  0  0  0  0
  -26.0490  -31.2470   21.5900 C   0  0  0  0  0  2  0  0  0  0  0  0
  -26.1240  -29.9250   20.8610 C   0  0  0  0  0  0  0  0  0  0  0  0
  -27.3450  -29.2320   20.7280 C   0  0  0  0  0  3  0  0  0  0  0  0
  -26.1830  -27.4500   19.5400 C   0  0  0  0  0  3  0  0  0  0  0  0
  -24.9660  -28.1500   19.6630 C   0  0  0  0  0  3  0  0  0  0  0  0
  -23.6910  -30.2140   20.4930 C   0  0  0  0  0  2  0  0  0  0  0  0
  -24.8360  -31.3980   22.4280 N   0  0  0  0  0  0  0  0  0  0  0  0
  -23.7890  -32.3310   24.2070 O   0  0  0  0  0  0  0  0  0  0  0  0
  -22.9830  -29.7040   22.8490 C   0  0  0  0  0  0  0  0  0  0  0  0
  -21.6960  -29.3700   22.6500 N   0  0  0  0  0  0  0  0  0  0  0  0
  -23.6920  -29.1500   23.6940 O   0  0  0  0  0  0  0  0  0  0  0  0
  -21.1870  -29.8660   21.9320 H   0  0  0  0  0  0  0  0  0  0  0  0
  -18.5270  -27.6450   22.8260 C   0  0  0  0  0  0  0  0  0  0  0  0
  -20.9530  -28.3440   23.3810 C   0  0  0  0  0  3  0  0  0  0  0  0
  -21.3530  -26.9230   22.9180 C   0  0  0  0  0  2  0  0  0  0  0  0
  -20.4610  -26.3820   21.7950 C   0  0  0  0  0  2  0  0  0  0  0  0
  -19.0040  -26.3180   22.2630 C   0  0  0  0  0  2  0  0  0  0  0  0
  -19.4430  -28.6030   23.3370 C   0  0  0  0  0  0  0  0  0  0  0  0
  -18.9500  -29.8360   23.8160 C   0  0  0  0  0  3  0  0  0  0  0  0
  -17.5720  -30.1160   23.7960 C   0  0  0  0  0  3  0  0  0  0  0  0
  -16.6680  -29.1560   23.3090 C   0  0  0  0  0  3  0  0  0  0  0  0
  -17.1450  -27.9230   22.8280 C   0  0  0  0  0  3  0  0  0  0  0  0
  -26.1510  -32.7260   24.1680 C   0  0  0  0  0  3  0  0  0  0  0  0
  -26.7270  -31.9110   25.3910 C   0  0  1  0  0  0  0  0  0  0  0  0
  -25.6760  -31.6160   26.4880 C   0  0  0  0  0  1  0  0  0  0  0  0
  -27.3110  -30.5570   24.9170 C   0  0  0  0  0  1  0  0  0  0  0  0
  -27.8950  -32.6920   26.0410 C   0  0  0  0  0  1  0  0  0  0  0  0
  -25.8630  -34.1160   24.5560 N   0  0  0  0  0  0  0  0  0  0  0  0
  -26.1790  -35.1890   23.8180 C   0  0  0  0  0  0  0  0  0  0  0  0
  -26.8180  -35.1130   22.7650 O   0  0  0  0  0  0  0  0  0  0  0  0
  -25.3100  -34.2550   25.3900 H   0  0  0  0  0  0  0  0  0  0  0  0
  -24.4600  -37.0020   23.5520 C   0  0  0  0  0  1  0  0  0  0  0  0
  -25.7110  -36.5640   24.3310 C   0  0  0  0  0  3  0  0  0  0  0  0
  -27.8690  -37.3990   25.1480 C   0  0  0  0  0  1  0  0  0  0  0  0
  -26.7500  -37.6130   24.2340 N   0  0  0  0  0  0  0  0  0  0  0  0
  -26.3560  -38.5300   24.4240 H   0  0  0  0  0  0  0  0  0  0  0  0
  1  3  2  0
  2  1  1  0
  4  2  1  0
  5 10  1  0
  5 12  1  0
  7  6  1  0
  8  6  1  0
  9  1  1  0
  9 10  1  0
  9  7  1  0
 10  8  1  0
 11  5  2  0
 12 17  1  0
 13 16  1  0
 13 12  1  0
 14 13  1  0
 15 13  1  0
 17 26  1  0
 18 24  1  0
 18 26  1  0
 19 24  1  0
 20 21  1  0
 20 19  1  0
 22 21  1  0
 22 31  1  0
 22 23  1  0
 24 23  1  0
 25 18  2  0
 26 27  1  0
 28 29  2  0
 29 48  1  0
 30 29  1  0
 30 33  1  0
 31 32  1  0
 31 28  1  0
 32 30  2  0
 33 34  1  0
 34 35  2  0
 36 39  1  0
 36 35  1  0
 37 36  2  0
 38 37  1  0
 38 33  2  0
 39 40  1  0
 40 41  1  0
 41 42  2  0
 43 42  1  0
 43 47  1  0
 44 43  2  0
 45 40  2  0
 45 44  1  0
 46 45  1  0
 48 49  1  0
 49 52  1  0
 49 51  1  0
 50 48  2  0
 53 28  1  0
 53 54  1  0
 55 53  1  0
 56  2  1  0
 58 61  1  0
 59 57  1  0
 60 58  2  0
 60 62  1  0
 61 56  1  0
 61 57  2  0
 62 59  2  0
 63 62  1  0
 63 65  1  0
 64 68  1  0
 65 64  1  0
 65 67  1  0
 66 64  2  0
 68 69  1  0
 69 71  1  0
 70 81  2  0
 71 76  1  0
 72 80  1  0
 72 82  1  0
 73 79  1  0
 73 75  1  0
 74 80  1  0
 75 74  1  0
 76 75  2  0
 77 78  1  0
 77 71  2  0
 78 73  2  0
 79 72  1  0
 80 70  1  0
 82 84  2  0
 83 82  1  0
 85 83  1  0
 86 95  2  0
 86 91  1  0
 87 83  1  0
 88 87  1  0
 89 90  1  0
 89 88  1  0
 90 86  1  0
 91 87  1  0
 91 92  2  0
 93 92  1  0
 94 93  2  0
 95 94  1  0
 96 70  1  0
 96101  1  0
 96 97  1  0
 97100  1  1
 97 98  1  0
 99 97  1  0
101104  1  0
102106  1  0
102101  1  0
103102  2  0
106105  1  0
108106  1  0
108109  1  0
108107  1  0
M  ISO  4  18 100  26 100  68 101  69 101
M  END
>  <TORSDO>  (70) 
F 25

>  <SCORE>  (70) 
-11.006

>  <name>  (70) 
74

>  <ligand_id>  (70) 
74

>  <original_smiles>  (70) 
[H]c1c([H])c([H])c2c(c1[H])C([H])([H])C([H])([H])C([H])([H])C2([H])N([H])C(=O)C1([H])N(C(=O)C([H])(N([H])C(=O)C([H])(N([H])C([H])([H])[H])C([H])([H])[H])C(C([H])([H])[H])(C([H])([H])[H])C([H])([H])[H])C([H])([H])c2c([H])c(OC([H])([H])C(=O)N([H])C([H])([H])c3c([H])c([H])c(C([H])([H])N([H])C(=O)C4([H])N(C(=O)C([H])(C([H])([H])N([H])C(=O)N5C([H])([H])C([H])([H])C([H])([H])C([H])(n6nc(-c7c([H])c([H])c(Oc8c([H])c([H])c(F)c([H])c8F)c([H])c7[H])c(C(=O)N([H])[H])c6N([H])[H])C5([H])[H])[N+]([H])([H])[H])C([H])([H])C([H])([H])C4([H])[H])c([H])c3[H])c([H])c([H])c2C1([H])[H]

>  <smiles>  (70) 
[H]c1c([H])c([H])c2c(c1[H])C([H])([H])C([H])([H])C([H])([H])C2([H])N([H])C(=O)C1([H])N(C(=O)C([H])(N([H])C(=O)C([H])(N([H])C([H])([H])[H])C([H])([H])[H])C(C([H])([H])[H])(C([H])([H])[H])C([H])([H])[H])C([H])([H])c2c([H])c(OC([H])([H])C(=O)N([H])C([H])([H])c3c([H])c([H])c(C([H])([H])N([H])C(=O)C4([H])N(C(=O)C([H])(C([H])([H])N([H])C(=O)N5C([H])([H])C([H])([H])C([H])([H])C([H])(n6nc(-c7c([H])c([H])c(Oc8c([H])c([H])c(F)c([H])c8F)c([H])c7[H])c(C(=O)N([H])[H])c6N([H])[H])C5([H])[H])[N+]([H])([H])[H])C([H])([H])C([H])([H])C4([H])[H])c([H])c3[H])c([H])c([H])c2C1([H])[H]

$$$$
76:0:0
     RDKit          3D

113121  0  0  1  0  0  0  0  0999 V2000
  -26.6340  -23.9790   15.6960 C   0  0  0  0  0  2  0  0  0  0  0  0
  -25.1530  -23.1770   17.5350 C   0  0  0  0  0  0  0  0  0  0  0  0
  -26.1280  -22.9830   16.6370 N   0  0  0  0  0  0  0  0  0  0  0  0
  -24.5320  -24.2370   17.6300 O   0  0  0  0  0  0  0  0  0  0  0  0
  -26.5360  -22.0600   16.5840 H   0  0  0  0  0  0  0  0  0  0  0  0
  -24.8440  -22.0130   18.4800 C   0  0  0  0  0  2  0  0  0  0  0  0
  -24.3340  -22.4490   19.8070 N   0  0  0  0  0  4  0  0  0  0  0  0
  -24.1190  -21.6270   20.3470 H   0  0  0  0  0  0  0  0  0  0  0  0
  -23.4700  -22.9430   19.6530 H   0  0  0  0  0  0  0  0  0  0  0  0
  -25.2240  -23.3100   20.6300 C   0  0  0  0  0  2  0  0  0  0  0  0
  -26.5120  -22.6100   21.0920 C   0  0  0  0  0  0  0  0  0  0  0  0
  -27.5980  -23.3330   21.4020 N   0  0  0  0  0  0  0  0  0  0  0  0
  -26.5380  -21.3830   21.1770 O   0  0  0  0  0  0  0  0  0  0  0  0
  -28.4110  -22.8150   21.7050 H   0  0  0  0  0  0  0  0  0  0  0  0
  -27.7420  -24.7900   21.4080 C   0  0  0  0  0  2  0  0  0  0  0  0
  -28.3250  -25.3220   20.0810 C   0  0  0  0  0  2  0  0  0  0  0  0
  -28.4040  -26.7490   20.0800 O   0  0  0  0  0  0  0  0  0  0  0  0
  -24.6130  -31.8730   23.2140 C   0  0  0  0  0  0  0  0  0  0  0  0
  -27.2240  -27.4600   20.0730 C   0  0  0  0  0  0  0  0  0  0  0  0
  -23.3960  -30.5020   21.5560 C   0  0  0  0  0  3  0  0  0  0  0  0
  -24.8350  -28.9710   20.1140 C   0  0  0  0  0  0  0  0  0  0  0  0
  -25.9240  -30.8420   21.3650 C   0  0  0  0  0  2  0  0  0  0  0  0
  -25.9970  -29.4790   20.7100 C   0  0  0  0  0  0  0  0  0  0  0  0
  -27.1920  -28.7280   20.6930 C   0  0  0  0  0  3  0  0  0  0  0  0
  -26.0470  -26.9740   19.4530 C   0  0  0  0  0  3  0  0  0  0  0  0
  -24.8530  -27.7140   19.4870 C   0  0  0  0  0  3  0  0  0  0  0  0
  -23.6000  -29.8400   20.1680 C   0  0  0  0  0  2  0  0  0  0  0  0
  -24.6630  -31.0850   22.1030 N   0  0  0  0  0  0  0  0  0  0  0  0
  -23.5330  -32.1460   23.7560 O   0  0  0  0  0  0  0  0  0  0  0  0
  -22.7380  -29.4720   22.5010 C   0  0  0  0  0  0  0  0  0  0  0  0
  -21.4120  -29.3040   22.3730 N   0  0  0  0  0  0  0  0  0  0  0  0
  -23.4160  -28.8230   23.3030 O   0  0  0  0  0  0  0  0  0  0  0  0
  -20.9240  -29.8770   21.6990 H   0  0  0  0  0  0  0  0  0  0  0  0
  -18.0280  -28.1370   22.8500 C   0  0  0  0  0  0  0  0  0  0  0  0
  -20.5870  -28.3650   23.1320 C   0  0  0  0  0  3  0  0  0  0  0  0
  -20.6780  -26.9400   22.5400 C   0  0  0  0  0  2  0  0  0  0  0  0
  -19.5750  -26.6370   21.5210 C   0  0  0  0  0  2  0  0  0  0  0  0
  -18.1930  -26.7910   22.1630 C   0  0  0  0  0  2  0  0  0  0  0  0
  -19.1520  -28.8830   23.2920 C   0  0  0  0  0  0  0  0  0  0  0  0
  -18.9450  -30.1440   23.8920 C   0  0  0  0  0  3  0  0  0  0  0  0
  -17.6450  -30.6580   24.0560 C   0  0  0  0  0  3  0  0  0  0  0  0
  -16.5350  -29.9070   23.6300 C   0  0  0  0  0  3  0  0  0  0  0  0
  -16.7270  -28.6480   23.0340 C   0  0  0  0  0  3  0  0  0  0  0  0
  -25.9030  -32.4860   23.8430 C   0  0  0  0  0  3  0  0  0  0  0  0
  -25.5900  -33.8650   24.2360 N   0  0  0  0  0  0  0  0  0  0  0  0
  -25.9020  -34.9500   23.5150 C   0  0  0  0  0  0  0  0  0  0  0  0
  -26.5580  -34.8940   22.4700 O   0  0  0  0  0  0  0  0  0  0  0  0
  -25.0110  -33.9820   25.0540 H   0  0  0  0  0  0  0  0  0  0  0  0
  -24.1480  -36.7330   23.2640 C   0  0  0  0  0  1  0  0  0  0  0  0
  -25.4100  -36.3140   24.0350 C   0  0  0  0  0  3  0  0  0  0  0  0
  -27.5580  -37.1820   24.8470 C   0  0  0  0  0  1  0  0  0  0  0  0
  -26.4290  -37.3820   23.9420 N   0  0  0  0  0  0  0  0  0  0  0  0
  -26.0200  -38.2910   24.1400 H   0  0  0  0  0  0  0  0  0  0  0  0
  -26.4460  -31.6620   25.0760 C   0  0  1  0  0  0  0  0  0  0  0  0
  -25.3740  -31.3720   26.1520 C   0  0  0  0  0  1  0  0  0  0  0  0
  -27.0290  -30.3090   24.6110 C   0  0  0  0  0  1  0  0  0  0  0  0
  -27.6050  -32.4330   25.7500 C   0  0  0  0  0  1  0  0  0  0  0  0
  -28.1600  -23.8610   15.5110 C   0  0  0  0  0  2  0  0  0  0  0  0
  -28.9760  -24.0790   16.8040 C   0  0  0  0  0  2  0  0  0  0  0  0
  -30.4900  -23.8910   16.5890 C   0  0  0  0  0  0  0  0  0  0  0  0
  -32.6530  -22.9700   17.2180 C   0  0  0  0  0  1  0  0  0  0  0  0
  -31.1810  -22.9130   17.2370 N   0  0  0  0  0  0  0  0  0  0  0  0
  -31.0480  -24.6960   15.8360 O   0  0  0  0  0  0  0  0  0  0  0  0
  -30.4950  -21.8340   17.9980 C   0  0  0  0  0  2  0  0  0  0  0  0
  -31.2030  -20.4920   18.3060 C   0  0  0  0  0  0  0  0  0  0  0  0
  -30.4250  -19.4970   18.7490 N   0  0  0  0  0  0  0  0  0  0  0  0
  -32.4230  -20.3350   18.2170 O   0  0  0  0  0  0  0  0  0  0  0  0
  -29.4230  -19.5350   18.8810 H   0  0  0  0  0  0  0  0  0  0  0  0
  -30.2260  -17.5640   20.1170 C   0  0  0  0  0  0  0  0  0  0  0  0
  -31.0060  -18.4360   19.4720 N   0  0  0  0  0  0  0  0  0  0  0  0
  -29.0320  -17.4280   19.8310 O   0  0  0  0  0  0  0  0  0  0  0  0
  -31.9910  -18.5960   19.6560 H   0  0  0  0  0  0  0  0  0  0  0  0
  -30.7370  -14.4080   20.6400 C   0  0  0  0  0  0  0  0  0  0  0  0
  -30.4140  -12.2950   19.4100 C   0  0  0  0  0  2  0  0  0  0  0  0
  -29.4940  -12.5500   18.1970 C   0  0  0  0  0  2  0  0  0  0  0  0
  -28.0070  -12.4300   18.5930 C   0  0  0  0  0  2  0  0  0  0  0  0
  -27.6690  -13.2070   19.8970 C   0  0  0  0  0  3  0  0  0  0  0  0
  -28.7070  -12.8550   20.9830 C   0  0  0  0  0  2  0  0  0  0  0  0
  -30.0360  -13.2410   20.4800 N   0  0  0  0  0  0  0  0  0  0  0  0
  -31.7870  -14.5940   20.0150 O   0  0  0  0  0  0  0  0  0  0  0  0
  -29.2290  -16.8570   23.0660 C   0  0  0  0  0  2  0  0  0  0  0  0
  -30.5420  -17.4650   22.6250 C   0  0  0  0  0  2  0  0  0  0  0  0
  -29.2650  -15.4400   22.4930 C   0  0  0  0  0  2  0  0  0  0  0  0
  -30.8540  -16.7760   21.2870 C   0  0  0  0  0  3  0  0  0  0  0  0
  -30.2520  -15.4320   21.4000 N   0  0  0  0  0  0  0  0  0  0  0  0
  -25.2610  -13.8170   20.5710 C   0  0  0  0  0  0  0  0  0  0  0  0
  -24.1850  -13.0440   20.9150 C   0  0  0  0  0  0  0  0  0  0  0  0
  -24.6390  -11.6910   20.8680 C   0  0  0  0  0  0  0  0  0  0  0  0
  -26.3050  -12.9330   20.3430 N   0  0  0  0  0  0  0  0  0  0  0  0
  -25.9320  -11.6480   20.5730 N   0  0  0  0  0  0  0  0  0  0  0  0
  -23.9040  -10.4300   21.0390 C   0  0  0  0  0  0  0  0  0  0  0  0
  -24.3600   -9.4230   21.9180 C   0  0  0  0  0  3  0  0  0  0  0  0
  -23.6290   -8.2240   22.0760 C   0  0  0  0  0  3  0  0  0  0  0  0
  -22.4260   -8.0280   21.3560 C   0  0  0  0  0  0  0  0  0  0  0  0
  -21.9880   -9.0250   20.4660 C   0  0  0  0  0  3  0  0  0  0  0  0
  -22.7200  -10.2140   20.3050 C   0  0  0  0  0  3  0  0  0  0  0  0
  -21.6640   -6.8870   21.4250 O   0  0  0  0  0  0  0  0  0  0  0  0
  -21.6850   -6.0730   22.5290 C   0  0  0  0  0  0  0  0  0  0  0  0
  -21.4020   -6.5630   23.8230 C   0  0  0  0  0  3  0  0  0  0  0  0
  -21.3660   -5.6780   24.9190 C   0  0  0  0  0  3  0  0  0  0  0  0
  -21.6030   -4.3040   24.7230 C   0  0  0  0  0  0  0  0  0  0  0  0
  -21.8810   -3.8140   23.4340 C   0  0  0  0  0  3  0  0  0  0  0  0
  -21.9200   -4.6960   22.3400 C   0  0  0  0  0  0  0  0  0  0  0  0
  -22.1670   -4.2140   21.0990 F   0  0  0  0  0  0  0  0  0  0  0  0
  -21.5620   -3.4530   25.7740 F   0  0  0  0  0  0  0  0  0  0  0  0
  -22.7880  -13.5250   21.1810 C   0  0  0  0  0  0  0  0  0  0  0  0
  -22.0480  -12.8300   22.0380 N   0  0  0  0  0  0  0  0  0  0  0  0
  -22.3560  -14.5530   20.6640 O   0  0  0  0  0  0  0  0  0  0  0  0
  -22.4060  -12.0000   22.4860 H   0  0  0  0  0  0  0  0  0  0  0  0
  -21.1090  -13.1380   22.2500 H   0  0  0  0  0  0  0  0  0  0  0  0
  -25.4350  -15.1880   20.4190 N   0  0  0  0  0  0  0  0  0  0  0  0
  -24.6730  -15.8470   20.5380 H   0  0  0  0  0  0  0  0  0  0  0  0
  -26.3010  -15.6320   20.1320 H   0  0  0  0  0  0  0  0  0  0  0  0
  1  3  1  0
  2  4  2  0
  2  6  1  0
  3  2  1  0
  5  3  1  0
  6  7  1  0
  7  8  1  0
  7 10  1  0
  9  7  1  0
 10 11  1  0
 11 13  2  0
 11 12  1  0
 12 15  1  0
 12 14  1  0
 16 15  1  0
 17 16  1  0
 18 29  2  0
 19 17  1  0
 19 24  1  0
 20 28  1  0
 20 30  1  0
 21 27  1  0
 21 23  1  0
 22 28  1  0
 23 22  1  0
 24 23  2  0
 25 26  1  0
 25 19  2  0
 26 21  2  0
 27 20  1  0
 28 18  1  0
 30 32  2  0
 31 30  1  0
 33 31  1  0
 34 43  2  0
 34 39  1  0
 35 31  1  0
 35 39  1  0
 36 35  1  0
 37 38  1  0
 37 36  1  0
 38 34  1  0
 39 40  2  0
 40 41  1  0
 42 41  2  0
 43 42  1  0
 44 18  1  0
 44 45  1  0
 44 54  1  0
 45 48  1  0
 46 50  1  0
 46 45  1  0
 47 46  2  0
 50 49  1  0
 52 50  1  0
 52 53  1  0
 52 51  1  0
 54 57  1  1
 54 55  1  0
 56 54  1  0
 58  1  1  0
 58 59  1  0
 60 59  1  0
 60 62  1  0
 61 62  1  0
 62 64  1  0
 63 60  2  0
 64 65  1  0
 65 66  1  0
 66 68  1  0
 66 70  1  0
 67 65  2  0
 70 72  1  0
 70 69  1  0
 71 69  2  0
 73 85  1  0
 74 79  1  0
 75 76  1  0
 75 74  1  0
 77 76  1  0
 77 89  1  0
 77 78  1  0
 79 73  1  0
 79 78  1  0
 80 73  2  0
 82 81  1  0
 83 81  1  0
 84 69  1  0
 84 85  1  0
 84 82  1  0
 85 83  1  0
 86 87  2  0
 87106  1  0
 88 87  1  0
 88 91  1  0
 89 86  1  0
 89 90  1  0
 90 88  2  0
 91 92  1  0
 92 93  2  0
 94 97  1  0
 94 93  1  0
 95 94  2  0
 96 95  1  0
 96 91  2  0
 97 98  1  0
 98 99  1  0
 99100  2  0
101100  1  0
101105  1  0
102101  2  0
103 98  2  0
103102  1  0
104103  1  0
106107  1  0
107110  1  0
107109  1  0
108106  2  0
111112  1  0
111 86  1  0
113111  1  0
M  ISO  4  16 101  17 101  73 100  85 100
M  END
>  <TORSDO>  (71) 
F 29

>  <SCORE>  (71) 
-3.520

>  <name>  (71) 
76

>  <ligand_id>  (71) 
76

>  <original_smiles>  (71) 
[H]c1c([H])c([H])c2c(c1[H])C([H])([H])C([H])([H])C([H])([H])C2([H])N([H])C(=O)C1([H])N(C(=O)C([H])(N([H])C(=O)C([H])(N([H])C([H])([H])[H])C([H])([H])[H])C(C([H])([H])[H])(C([H])([H])[H])C([H])([H])[H])C([H])([H])c2c([H])c(OC([H])([H])C([H])([H])N([H])C(=O)C([H])([H])[N+]([H])([H])C([H])([H])C(=O)N([H])C([H])([H])C([H])([H])C([H])([H])C(=O)N(C([H])([H])[H])C([H])([H])C(=O)N([H])N([H])C(=O)C3([H])N(C(=O)N4C([H])([H])C([H])([H])C([H])([H])C([H])(n5nc(-c6c([H])c([H])c(Oc7c([H])c([H])c(F)c([H])c7F)c([H])c6[H])c(C(=O)N([H])[H])c5N([H])[H])C4([H])[H])C([H])([H])C([H])([H])C3([H])[H])c([H])c([H])c2C1([H])[H]

>  <smiles>  (71) 
[H]c1c([H])c([H])c2c(c1[H])C([H])([H])C([H])([H])C([H])([H])C2([H])N([H])C(=O)C1([H])N(C(=O)C([H])(N([H])C(=O)C([H])(N([H])C([H])([H])[H])C([H])([H])[H])C(C([H])([H])[H])(C([H])([H])[H])C([H])([H])[H])C([H])([H])c2c([H])c(OC([H])([H])C([H])([H])N([H])C(=O)C([H])([H])[N+]([H])([H])C([H])([H])C(=O)N([H])C([H])([H])C([H])([H])C([H])([H])C(=O)N(C([H])([H])[H])C([H])([H])C(=O)N([H])N([H])C(=O)C3([H])N(C(=O)N4C([H])([H])C([H])([H])C([H])([H])C([H])(n5nc(-c6c([H])c([H])c(Oc7c([H])c([H])c(F)c([H])c7F)c([H])c6[H])c(C(=O)N([H])[H])c5N([H])[H])C4([H])[H])C([H])([H])C([H])([H])C3([H])[H])c([H])c([H])c2C1([H])[H]

$$$$
77:0:0
     RDKit          3D

117124  0  0  1  0  0  0  0  0999 V2000
  -30.0370  -22.8570   19.6200 N   0  0  0  0  0  4  0  0  0  0  0  0
  -29.5380  -22.5960   18.7850 H   0  0  0  0  0  0  0  0  0  0  0  0
  -29.5660  -23.6390   20.0480 H   0  0  0  0  0  0  0  0  0  0  0  0
  -31.3880  -23.3230   19.2290 C   0  0  0  0  0  2  0  0  0  0  0  0
  -31.8960  -24.4100   20.1720 C   0  0  0  0  0  0  0  0  0  0  0  0
  -33.1890  -24.7500   20.0880 N   0  0  0  0  0  0  0  0  0  0  0  0
  -31.1100  -24.9410   20.9590 O   0  0  0  0  0  0  0  0  0  0  0  0
  -33.7820  -24.2530   19.4360 H   0  0  0  0  0  0  0  0  0  0  0  0
  -33.8250  -25.7860   20.9030 C   0  0  0  0  0  2  0  0  0  0  0  0
  -33.4890  -27.2060   20.4260 C   0  0  0  0  0  0  0  0  0  0  0  0
  -33.4340  -27.4150   19.1030 N   0  0  0  0  0  0  0  0  0  0  0  0
  -33.2590  -28.0960   21.2450 O   0  0  0  0  0  0  0  0  0  0  0  0
  -33.6720  -26.6450   18.4950 H   0  0  0  0  0  0  0  0  0  0  0  0
  -33.0370  -28.6780   18.4800 C   0  0  0  0  0  2  0  0  0  0  0  0
  -31.5370  -28.7230   18.1640 C   0  0  0  0  0  0  0  0  0  0  0  0
  -30.9770  -27.5860   17.7360 N   0  0  0  0  0  0  0  0  0  0  0  0
  -30.8980  -29.7650   18.3140 O   0  0  0  0  0  0  0  0  0  0  0  0
  -31.5910  -26.7910   17.6450 H   0  0  0  0  0  0  0  0  0  0  0  0
  -29.5790  -27.3920   17.3660 C   0  0  0  0  0  2  0  0  0  0  0  0
  -28.9430  -26.2830   18.2180 C   0  0  0  0  0  2  0  0  0  0  0  0
  -28.6350  -26.7480   19.5330 O   0  0  0  0  0  0  0  0  0  0  0  0
  -24.7600  -31.6370   22.9650 C   0  0  0  0  0  0  0  0  0  0  0  0
  -27.4340  -27.4030   19.6440 C   0  0  0  0  0  0  0  0  0  0  0  0
  -23.5420  -30.2530   21.3170 C   0  0  0  0  0  3  0  0  0  0  0  0
  -24.9920  -28.7970   19.8110 C   0  0  0  0  0  0  0  0  0  0  0  0
  -26.0480  -30.6910   21.0550 C   0  0  0  0  0  2  0  0  0  0  0  0
  -26.1500  -29.3420   20.3780 C   0  0  0  0  0  0  0  0  0  0  0  0
  -27.3740  -28.6460   20.3040 C   0  0  0  0  0  3  0  0  0  0  0  0
  -26.2530  -26.8440   19.1090 C   0  0  0  0  0  3  0  0  0  0  0  0
  -25.0330  -27.5400   19.1840 C   0  0  0  0  0  3  0  0  0  0  0  0
  -23.7280  -29.6170   19.9130 C   0  0  0  0  0  2  0  0  0  0  0  0
  -24.8030  -30.8740   21.8380 N   0  0  0  0  0  0  0  0  0  0  0  0
  -23.6910  -31.8630   23.5460 O   0  0  0  0  0  0  0  0  0  0  0  0
  -22.9490  -29.1830   22.2630 C   0  0  0  0  0  0  0  0  0  0  0  0
  -21.6250  -28.9760   22.1790 N   0  0  0  0  0  0  0  0  0  0  0  0
  -23.6770  -28.5430   23.0290 O   0  0  0  0  0  0  0  0  0  0  0  0
  -21.0980  -29.5500   21.5350 H   0  0  0  0  0  0  0  0  0  0  0  0
  -18.2970  -27.6850   22.7390 C   0  0  0  0  0  0  0  0  0  0  0  0
  -20.8550  -27.9950   22.9430 C   0  0  0  0  0  3  0  0  0  0  0  0
  -20.9740  -26.5850   22.3180 C   0  0  0  0  0  2  0  0  0  0  0  0
  -19.8490  -26.2680   21.3280 C   0  0  0  0  0  2  0  0  0  0  0  0
  -18.4860  -26.3600   22.0190 C   0  0  0  0  0  2  0  0  0  0  0  0
  -19.4110  -28.4590   23.1590 C   0  0  0  0  0  0  0  0  0  0  0  0
  -19.1840  -29.6990   23.7960 C   0  0  0  0  0  3  0  0  0  0  0  0
  -17.8750  -30.1670   24.0130 C   0  0  0  0  0  3  0  0  0  0  0  0
  -16.7760  -29.3880   23.6110 C   0  0  0  0  0  3  0  0  0  0  0  0
  -16.9880  -28.1490   22.9810 C   0  0  0  0  0  3  0  0  0  0  0  0
  -26.0490  -32.2820   23.5660 C   0  0  0  0  0  3  0  0  0  0  0  0
  -26.6730  -31.4460   24.7500 C   0  0  1  0  0  0  0  0  0  0  0  0
  -25.6570  -31.0790   25.8570 C   0  0  0  0  0  1  0  0  0  0  0  0
  -27.2920  -30.1310   24.2210 C   0  0  0  0  0  1  0  0  0  0  0  0
  -27.8270  -32.2420   25.4030 C   0  0  0  0  0  1  0  0  0  0  0  0
  -25.6960  -33.6370   24.0140 N   0  0  0  0  0  0  0  0  0  0  0  0
  -25.9430  -34.7560   23.3190 C   0  0  0  0  0  0  0  0  0  0  0  0
  -26.5660  -34.7600   22.2540 O   0  0  0  0  0  0  0  0  0  0  0  0
  -25.1360  -33.7040   24.8510 H   0  0  0  0  0  0  0  0  0  0  0  0
  -24.1210  -36.4840   23.1720 C   0  0  0  0  0  1  0  0  0  0  0  0
  -25.4150  -36.0820   23.9000 C   0  0  0  0  0  3  0  0  0  0  0  0
  -27.5450  -36.9990   24.7020 C   0  0  0  0  0  1  0  0  0  0  0  0
  -26.3930  -37.1890   23.8250 N   0  0  0  0  0  0  0  0  0  0  0  0
  -25.9550  -38.0750   24.0630 H   0  0  0  0  0  0  0  0  0  0  0  0
  -29.9850  -21.7080   20.5550 C   0  0  0  0  0  3  0  0  0  0  0  0
  -29.4600  -22.1380   21.9560 C   0  0  0  0  0  2  0  0  0  0  0  0
  -27.3980  -23.5440   21.7290 C   0  0  0  0  0  0  0  0  0  0  0  0
  -28.7130  -23.4100   21.9840 N   0  0  0  0  0  0  0  0  0  0  0  0
  -26.7070  -22.5790   21.4050 O   0  0  0  0  0  0  0  0  0  0  0  0
  -29.2280  -24.2090   22.3340 H   0  0  0  0  0  0  0  0  0  0  0  0
  -26.7440  -24.9320   21.8580 C   0  0  0  0  0  2  0  0  0  0  0  0
  -27.3760  -25.8120   22.8570 N   0  0  0  0  0  4  0  0  0  0  0  0
  -27.4160  -25.3450   23.7460 H   0  0  0  0  0  0  0  0  0  0  0  0
  -26.8170  -26.6390   22.9630 H   0  0  0  0  0  0  0  0  0  0  0  0
  -28.2970  -26.0900   22.5760 H   0  0  0  0  0  0  0  0  0  0  0  0
  -29.1600  -20.5550   19.9270 C   0  0  0  0  0  2  0  0  0  0  0  0
  -29.3760  -18.0670   20.2820 C   0  0  0  0  0  0  0  0  0  0  0  0
  -29.8660  -19.2810   20.0290 N   0  0  0  0  0  0  0  0  0  0  0  0
  -28.2370  -17.8430   20.6940 O   0  0  0  0  0  0  0  0  0  0  0  0
  -30.8250  -19.2830   19.7070 H   0  0  0  0  0  0  0  0  0  0  0  0
  -30.3340  -16.7610   18.3690 C   0  0  0  0  0  1  0  0  0  0  0  0
  -30.3280  -16.9350   19.9050 C   0  0  0  0  0  3  0  0  0  0  0  0
  -30.7890  -14.6060   20.4930 C   0  0  0  0  0  0  0  0  0  0  0  0
  -30.4870  -12.4960   19.3190 C   0  0  0  0  0  2  0  0  0  0  0  0
  -29.5590  -12.7860   18.1180 C   0  0  0  0  0  2  0  0  0  0  0  0
  -28.0810  -12.6330   18.5330 C   0  0  0  0  0  2  0  0  0  0  0  0
  -27.7370  -13.4100   19.8320 C   0  0  0  0  0  3  0  0  0  0  0  0
  -28.7880  -13.1550   20.9390 C   0  0  0  0  0  2  0  0  0  0  0  0
  -30.1200  -13.4370   20.3830 N   0  0  0  0  0  0  0  0  0  0  0  0
  -31.9750  -14.7480   20.1870 O   0  0  0  0  0  0  0  0  0  0  0  0
  -29.9890  -15.6740   20.5610 N   0  0  0  0  0  0  0  0  0  0  0  0
  -29.0200  -15.5440   20.8090 H   0  0  0  0  0  0  0  0  0  0  0  0
  -25.3450  -13.9820   20.5850 C   0  0  0  0  0  0  0  0  0  0  0  0
  -24.2700  -13.1910   20.8910 C   0  0  0  0  0  0  0  0  0  0  0  0
  -24.7230  -11.8430   20.7620 C   0  0  0  0  0  0  0  0  0  0  0  0
  -26.3830  -13.1130   20.2890 N   0  0  0  0  0  0  0  0  0  0  0  0
  -26.0120  -11.8170   20.4510 N   0  0  0  0  0  0  0  0  0  0  0  0
  -23.9910  -10.5730   20.8570 C   0  0  0  0  0  0  0  0  0  0  0  0
  -24.4450   -9.5180   21.6790 C   0  0  0  0  0  3  0  0  0  0  0  0
  -23.7130   -8.3140   21.7680 C   0  0  0  0  0  3  0  0  0  0  0  0
  -22.5120   -8.1590   21.0360 C   0  0  0  0  0  0  0  0  0  0  0  0
  -22.0770   -9.2040   20.2010 C   0  0  0  0  0  3  0  0  0  0  0  0
  -22.8090  -10.3980   20.1090 C   0  0  0  0  0  3  0  0  0  0  0  0
  -21.7490   -7.0170   21.0380 O   0  0  0  0  0  0  0  0  0  0  0  0
  -21.7570   -6.1490   22.1000 C   0  0  0  0  0  0  0  0  0  0  0  0
  -21.4340   -6.5690   23.4090 C   0  0  0  0  0  3  0  0  0  0  0  0
  -21.3910   -5.6290   24.4580 C   0  0  0  0  0  3  0  0  0  0  0  0
  -21.6580   -4.2720   24.1990 C   0  0  0  0  0  0  0  0  0  0  0  0
  -21.9750   -3.8520   22.8960 C   0  0  0  0  0  3  0  0  0  0  0  0
  -22.0220   -4.7880   21.8480 C   0  0  0  0  0  0  0  0  0  0  0  0
  -22.3060   -4.3750   20.5900 F   0  0  0  0  0  0  0  0  0  0  0  0
  -21.6090   -3.3680   25.2050 F   0  0  0  0  0  0  0  0  0  0  0  0
  -22.8760  -13.6540   21.2000 C   0  0  0  0  0  0  0  0  0  0  0  0
  -22.1510  -12.9030   22.0230 N   0  0  0  0  0  0  0  0  0  0  0  0
  -22.4390  -14.7130   20.7510 O   0  0  0  0  0  0  0  0  0  0  0  0
  -22.5160  -12.0440   22.4040 H   0  0  0  0  0  0  0  0  0  0  0  0
  -21.2140  -13.1900   22.2720 H   0  0  0  0  0  0  0  0  0  0  0  0
  -25.5200  -15.3620   20.5150 N   0  0  0  0  0  0  0  0  0  0  0  0
  -24.7590  -16.0080   20.6870 H   0  0  0  0  0  0  0  0  0  0  0  0
  -26.3850  -15.8330   20.2810 H   0  0  0  0  0  0  0  0  0  0  0  0
  1  3  1  0
  1 62  1  0
  2  1  1  0
  4  1  1  0
  4  5  1  0
  5  7  2  0
  6  5  1  0
  6  9  1  0
  8  6  1  0
 10  9  1  0
 10 12  2  0
 11 10  1  0
 13 11  1  0
 14 11  1  0
 15 17  2  0
 15 14  1  0
 16 15  1  0
 18 16  1  0
 19 16  1  0
 19 20  1  0
 20 21  1  0
 21 23  1  0
 22 33  2  0
 23 28  1  0
 24 32  1  0
 24 34  1  0
 25 31  1  0
 25 27  1  0
 26 32  1  0
 27 26  1  0
 28 27  2  0
 29 30  1  0
 29 23  2  0
 30 25  2  0
 31 24  1  0
 32 22  1  0
 34 36  2  0
 35 34  1  0
 37 35  1  0
 38 47  2  0
 38 43  1  0
 39 35  1  0
 39 43  1  0
 40 39  1  0
 41 42  1  0
 41 40  1  0
 42 38  1  0
 43 44  2  0
 44 45  1  0
 46 45  2  0
 47 46  1  0
 48 22  1  0
 48 53  1  0
 48 49  1  0
 49 52  1  1
 49 50  1  0
 51 49  1  0
 53 56  1  0
 54 58  1  0
 54 53  1  0
 55 54  2  0
 58 57  1  0
 60 58  1  0
 60 61  1  0
 60 59  1  0
 62 73  1  0
 62 63  1  0
 63 65  1  0
 64 68  1  0
 64 65  1  0
 65 67  1  0
 66 64  2  0
 68 69  1  0
 69 71  1  0
 69 70  1  0
 72 69  1  0
 73 75  1  0
 74 76  2  0
 75 74  1  0
 77 75  1  0
 79 78  1  0
 79 74  1  0
 79 88  1  0
 80 88  1  0
 81 86  1  0
 82 83  1  0
 82 81  1  0
 84 83  1  0
 84 93  1  0
 84 85  1  0
 86 80  1  0
 86 85  1  0
 87 80  2  0
 88 89  1  0
 90 91  2  0
 91110  1  0
 92 95  1  0
 92 91  1  0
 93 94  1  0
 93 90  1  0
 94 92  2  0
 95 96  1  0
 96 97  2  0
 98101  1  0
 98 97  1  0
 99 98  2  0
100 99  1  0
100 95  2  0
101102  1  0
102103  1  0
103104  2  0
105104  1  0
105109  1  0
106105  2  0
107102  2  0
107106  1  0
108107  1  0
110111  1  0
111114  1  0
111113  1  0
112110  2  0
115 90  1  0
115116  1  0
117115  1  0
M  ISO  4  20 101  21 101  80 100  88 100
M  END
>  <TORSDO>  (72) 
F 32

>  <SCORE>  (72) 
-9.564

>  <name>  (72) 
77

>  <ligand_id>  (72) 
77

>  <original_smiles>  (72) 
[H]c1c([H])c([H])c2c(c1[H])C([H])([H])C([H])([H])C([H])([H])C2([H])N([H])C(=O)C1([H])N(C(=O)C([H])(N([H])C(=O)C([H])(N([H])C([H])([H])[H])C([H])([H])[H])C(C([H])([H])[H])(C([H])([H])[H])C([H])([H])[H])C([H])([H])c2c([H])c(OC([H])([H])C([H])([H])N([H])C(=O)C([H])([H])N([H])C(=O)C([H])([H])N([H])C(=O)C([H])([H])[N+]([H])([H])C([H])(C([H])([H])N([H])C(=O)C([H])(N([H])C(=O)N3C([H])([H])C([H])([H])C([H])([H])C([H])(n4nc(-c5c([H])c([H])c(Oc6c([H])c([H])c(F)c([H])c6F)c([H])c5[H])c(C(=O)N([H])[H])c4N([H])[H])C3([H])[H])C([H])([H])[H])C([H])([H])N([H])C(=O)C([H])([H])[N+]([H])([H])[H])c([H])c([H])c2C1([H])[H]

>  <smiles>  (72) 
[H]c1c([H])c([H])c2c(c1[H])C([H])([H])C([H])([H])C([H])([H])C2([H])N([H])C(=O)C1([H])N(C(=O)C([H])(N([H])C(=O)C([H])(N([H])C([H])([H])[H])C([H])([H])[H])C(C([H])([H])[H])(C([H])([H])[H])C([H])([H])[H])C([H])([H])c2c([H])c(OC([H])([H])C([H])([H])N([H])C(=O)C([H])([H])N([H])C(=O)C([H])([H])N([H])C(=O)C([H])([H])[N+]([H])([H])C([H])(C([H])([H])N([H])C(=O)C([H])(N([H])C(=O)N3C([H])([H])C([H])([H])C([H])([H])C([H])(n4nc(-c5c([H])c([H])c(Oc6c([H])c([H])c(F)c([H])c6F)c([H])c5[H])c(C(=O)N([H])[H])c4N([H])[H])C3([H])[H])C([H])([H])[H])C([H])([H])N([H])C(=O)C([H])([H])[N+]([H])([H])[H])c([H])c([H])c2C1([H])[H]

$$$$
78:0:0
     RDKit          3D

106113  0  0  1  0  0  0  0  0999 V2000
  -29.6240  -18.2250   20.4170 C   0  0  0  0  0  3  0  0  0  0  0  0
  -32.0050  -23.2300   18.8380 C   0  0  0  0  0  0  0  0  0  0  0  0
  -33.4900  -23.7480   16.9180 C   0  0  0  0  0  2  0  0  0  0  0  0
  -33.0570  -22.9690   15.6570 C   0  0  0  0  0  2  0  0  0  0  0  0
  -33.6460  -21.5580   15.6710 C   0  0  0  0  0  2  0  0  0  0  0  0
  -33.3470  -20.8930   17.0220 C   0  0  0  0  0  3  0  0  0  0  0  0
  -33.8890  -21.7350   18.1810 C   0  0  0  0  0  2  0  0  0  0  0  0
  -33.1350  -22.9770   18.1250 N   0  0  0  0  0  0  0  0  0  0  0  0
  -31.2710  -24.1880   18.5910 O   0  0  0  0  0  0  0  0  0  0  0  0
  -29.9740  -18.9450   21.7350 C   0  0  0  0  0  0  0  0  0  0  0  0
  -32.3090  -21.5080   22.1460 C   0  0  0  0  0  2  0  0  0  0  0  0
  -31.0140  -20.9420   22.7690 C   0  0  0  0  0  2  0  0  0  0  0  0
  -32.0790  -22.6920   21.1770 C   0  0  0  0  0  2  0  0  0  0  0  0
  -29.5660  -21.2620   20.8430 C   0  0  0  0  0  3  0  0  0  0  0  0
  -30.4110  -21.5870   19.5930 C   0  0  0  0  0  2  0  0  0  0  0  0
  -30.1960  -20.2890   21.7430 N   0  0  0  0  0  0  0  0  0  0  0  0
  -31.6780  -22.3300   19.8010 N   0  0  0  0  0  0  0  0  0  0  0  0
  -30.2030  -18.2360   22.7200 O   0  0  0  0  0  0  0  0  0  0  0  0
  -33.6610  -18.2180   16.1610 C   0  0  0  0  0  0  0  0  0  0  0  0
  -34.5690  -17.0980   16.7860 C   0  0  0  0  0  0  0  0  0  0  0  0
  -35.4550  -17.6890   17.9780 C   0  0  0  0  0  0  0  0  0  0  0  0
  -33.9100  -19.6170   17.0880 N   0  0  0  0  0  0  0  0  0  0  0  0
  -35.0440  -19.2180   18.2440 N   0  0  0  0  0  0  0  0  0  0  0  0
  -36.8930  -17.2070   18.0790 C   0  0  0  0  0  2  0  0  0  0  0  0
  -37.3870  -17.6720   19.6860 C   0  0  0  0  0  3  0  0  0  0  0  0
  -39.0140  -17.9100   20.0720 C   0  0  0  0  0  3  0  0  0  0  0  0
  -40.3360  -17.7490   19.0490 C   0  0  0  0  0  3  0  0  0  0  0  0
  -40.3990  -17.4350   17.4550 C   0  0  0  0  0  2  0  0  0  0  0  0
  -39.0710  -17.1020   16.5970 C   0  0  0  0  0  1  0  0  0  0  0  0
  -41.5240  -17.2280   19.3990 O   0  0  0  0  0  0  0  0  0  0  0  0
  -41.9020  -16.9940   20.6650 C   0  0  0  0  0  0  0  0  0  0  0  0
  -41.1560  -16.3480   21.6780 C   0  0  0  0  0  3  0  0  0  0  0  0
  -41.7620  -16.1430   22.9300 C   0  0  0  0  0  3  0  0  0  0  0  0
  -43.0930  -16.5550   23.1360 C   0  0  0  0  0  0  0  0  0  0  0  0
  -43.8330  -17.1480   22.1000 C   0  0  0  0  0  3  0  0  0  0  0  0
  -43.2290  -17.3570   20.8590 C   0  0  0  0  0  0  0  0  0  0  0  0
  -43.9150  -17.8910   19.8190 F   0  0  0  0  0  0  0  0  0  0  0  0
  -43.6800  -16.3710   24.3380 F   0  0  0  0  0  0  0  0  0  0  0  0
  -34.4530  -15.6280   16.6980 C   0  0  0  0  0  0  0  0  0  0  0  0
  -35.0000  -14.9190   17.6970 N   0  0  0  0  0  0  0  0  0  0  0  0
  -34.0040  -15.1160   15.6960 O   0  0  0  0  0  0  0  0  0  0  0  0
  -35.4710  -15.3450   18.4790 H   0  0  0  0  0  0  0  0  0  0  0  0
  -34.9800  -13.9110   17.6420 H   0  0  0  0  0  0  0  0  0  0  0  0
  -32.6020  -18.1600   15.3230 N   0  0  0  0  0  0  0  0  0  0  0  0
  -32.5830  -17.3640   14.6920 H   0  0  0  0  0  0  0  0  0  0  0  0
  -32.3420  -19.0060   14.8270 H   0  0  0  0  0  0  0  0  0  0  0  0
  -27.8760  -20.3690   19.5520 C   0  0  0  0  0  3  0  0  0  0  0  0
  -28.5380  -19.0620   19.4830 N   0  0  0  0  0  0  0  0  0  0  0  0
  -27.9210  -20.9260   20.6480 O   0  0  0  0  0  0  0  0  0  0  0  0
  -28.4170  -18.6280   18.5790 H   0  0  0  0  0  0  0  0  0  0  0  0
  -27.1040  -21.3370   18.3440 C   0  0  0  0  0  2  0  0  0  0  0  0
  -25.9610  -22.5220   18.5630 N   0  0  0  0  0  0  0  0  0  0  0  0
  -25.1540  -22.1950   19.0890 H   0  0  0  0  0  0  0  0  0  0  0  0
  -25.3760  -23.5120   17.3570 O   0  0  0  0  0  0  0  0  0  0  0  0
  -23.4980  -28.9610   22.0050 C   0  0  0  0  0  0  0  0  0  0  0  0
  -24.6200  -24.6970   17.7120 C   0  0  0  0  0  0  0  0  0  0  0  0
  -21.7910  -27.9740   20.5300 C   0  0  0  0  0  3  0  0  0  0  0  0
  -22.6500  -26.6720   18.4900 C   0  0  0  0  0  0  0  0  0  0  0  0
  -24.2330  -28.1310   19.7310 C   0  0  0  0  0  2  0  0  0  0  0  0
  -23.9870  -26.8830   18.8560 C   0  0  0  0  0  0  0  0  0  0  0  0
  -24.9850  -25.9110   18.4470 C   0  0  0  0  0  3  0  0  0  0  0  0
  -23.2950  -24.6600   17.2590 C   0  0  0  0  0  3  0  0  0  0  0  0
  -22.3230  -25.5980   17.6520 C   0  0  0  0  0  3  0  0  0  0  0  0
  -21.5840  -27.6070   19.0360 C   0  0  0  0  0  2  0  0  0  0  0  0
  -23.2110  -28.3710   20.8030 N   0  0  0  0  0  0  0  0  0  0  0  0
  -22.6150  -29.1730   22.8520 O   0  0  0  0  0  0  0  0  0  0  0  0
  -21.3040  -26.8080   21.4320 C   0  0  0  0  0  0  0  0  0  0  0  0
  -19.9870  -26.5330   21.4270 N   0  0  0  0  0  0  0  0  0  0  0  0
  -22.1100  -26.1640   22.1090 O   0  0  0  0  0  0  0  0  0  0  0  0
  -19.3860  -27.1110   20.8580 H   0  0  0  0  0  0  0  0  0  0  0  0
  -16.8300  -24.8290   21.9550 C   0  0  0  0  0  0  0  0  0  0  0  0
  -19.3330  -25.4500   22.1690 C   0  0  0  0  0  3  0  0  0  0  0  0
  -19.6210  -24.0760   21.5190 C   0  0  0  0  0  2  0  0  0  0  0  0
  -18.5430  -23.6450   20.5180 C   0  0  0  0  0  2  0  0  0  0  0  0
  -17.1770  -23.5550   21.2040 C   0  0  0  0  0  2  0  0  0  0  0  0
  -17.8410  -25.7260   22.3950 C   0  0  0  0  0  0  0  0  0  0  0  0
  -17.4600  -26.9100   23.0640 C   0  0  0  0  0  3  0  0  0  0  0  0
  -16.1020  -27.2030   23.2940 C   0  0  0  0  0  3  0  0  0  0  0  0
  -15.1080  -26.3070   22.8670 C   0  0  0  0  0  3  0  0  0  0  0  0
  -15.4730  -25.1210   22.2040 C   0  0  0  0  0  3  0  0  0  0  0  0
  -24.9440  -29.4190   22.3630 C   0  0  0  0  0  3  0  0  0  0  0  0
  -24.8360  -30.5980   23.2380 N   0  0  0  0  0  0  0  0  0  0  0  0
  -25.3410  -31.8080   22.9610 C   0  0  0  0  0  0  0  0  0  0  0  0
  -26.0130  -32.0330   21.9510 O   0  0  0  0  0  0  0  0  0  0  0  0
  -24.2510  -30.5000   24.0550 H   0  0  0  0  0  0  0  0  0  0  0  0
  -24.0950  -33.9640   23.3300 C   0  0  0  0  0  1  0  0  0  0  0  0
  -25.0620  -32.9480   23.9610 C   0  0  0  0  0  3  0  0  0  0  0  0
  -27.1310  -32.8220   25.2790 C   0  0  0  0  0  1  0  0  0  0  0  0
  -26.2850  -33.6450   24.4190 N   0  0  0  0  0  0  0  0  0  0  0  0
  -26.0480  -34.4950   24.9240 H   0  0  0  0  0  0  0  0  0  0  0  0
  -25.7920  -28.2910   23.0720 C   0  0  1  0  0  0  0  0  0  0  0  0
  -25.0740  -27.6360   24.2760 C   0  0  0  0  0  1  0  0  0  0  0  0
  -26.1580  -27.1660   22.0780 C   0  0  0  0  0  1  0  0  0  0  0  0
  -27.1300  -28.8830   23.5760 C   0  0  0  0  0  1  0  0  0  0  0  0
  -29.7310  -16.5010   20.8070 C   0  0  0  0  0  2  0  0  0  0  0  0
  -30.6570  -15.3880   20.0020 N   0  0  0  0  0  4  0  0  0  0  0  0
  -30.3230  -15.4870   19.0600 H   0  0  0  0  0  0  0  0  0  0  0  0
  -31.5820  -15.7850   20.0380 H   0  0  0  0  0  0  0  0  0  0  0  0
  -30.9570  -13.7350   20.1340 C   0  0  0  0  0  1  0  0  0  0  0  0
  -28.4350  -11.2140   19.4640 C   0  0  0  0  0  1  0  0  0  0  0  0
  -27.1280  -10.1900   23.8980 C   0  0  0  0  0  3  0  0  0  0  0  0
  -28.6240   -9.4550   23.8490 C   0  0  0  0  0  1  0  0  0  0  0  0
  -26.2810  -10.5540   22.5250 C   0  0  0  0  0  3  0  0  0  0  0  0
  -29.4560   -9.1150   21.3210 C   0  0  0  0  0  1  0  0  0  0  0  0
  -26.7330  -10.4060   20.9150 C   0  0  0  0  0  2  0  0  0  0  0  0
  -28.2000   -9.8770   20.2840 C   0  0  0  0  0  3  0  0  0  0  0  0
  1 95  1  0
  1 10  1  0
  2 17  1  0
  3  8  1  0
  4  5  1  0
  4  3  1  0
  6  5  1  0
  6 22  1  0
  6  7  1  0
  8  7  1  0
  8  2  1  0
  9  2  2  0
 10 16  1  0
 10 18  2  0
 11 12  1  0
 13 11  1  0
 14 15  1  0
 14 16  1  0
 15 17  1  0
 16 12  1  0
 17 13  1  0
 19 20  2  0
 19 22  1  0
 20 21  1  0
 21 24  1  0
 21 23  2  0
 22 23  1  0
 24 25  1  0
 25 26  2  0
 27 28  1  0
 27 30  1  0
 27 26  1  0
 29 28  1  0
 30 31  1  0
 31 36  2  0
 31 32  1  0
 32 33  2  0
 33 34  1  0
 34 38  1  0
 35 34  2  0
 36 35  1  0
 37 36  1  0
 39 20  1  0
 39 40  1  0
 40 42  1  0
 41 39  2  0
 43 40  1  0
 44 19  1  0
 45 44  1  0
 46 44  1  0
 47 51  1  0
 47 49  1  0
 48 47  1  0
 48  1  1  0
 49 14  1  0
 50 48  1  0
 51 52  1  0
 52 53  1  0
 54 56  1  0
 54 52  1  0
 55 66  2  0
 56 61  1  0
 57 65  1  0
 57 67  1  0
 58 60  1  0
 58 64  1  0
 59 65  1  0
 60 59  1  0
 61 60  2  0
 62 63  1  0
 62 56  2  0
 63 58  2  0
 64 57  1  0
 65 55  1  0
 67 69  2  0
 68 67  1  0
 70 68  1  0
 71 80  2  0
 71 76  1  0
 72 68  1  0
 72 76  1  0
 73 72  1  0
 74 75  1  0
 74 73  1  0
 75 71  1  0
 76 77  2  0
 77 78  1  0
 79 78  2  0
 80 79  1  0
 81 55  1  0
 81 91  1  0
 81 82  1  0
 82 85  1  0
 83 82  1  0
 83 87  1  0
 84 83  2  0
 87 86  1  0
 87 89  1  0
 89 90  1  0
 89 88  1  0
 91 94  1  1
 91 92  1  0
 93 91  1  0
 96 98  1  0
 96 99  1  0
 96 95  1  0
 97 96  1  0
100106  1  0
102101  1  0
103101  2  0
105103  1  0
106105  1  0
106104  1  0
M  ISO  4   2 100  17 100  52 101  54 101
M  END
>  <TORSDO>  (73) 
F 24

>  <SCORE>  (73) 
-4.012

>  <name>  (73) 
78

>  <ligand_id>  (73) 
78

>  <original_smiles>  (73) 
[H]c1c([H])c([H])c(C([H])([H])C([H])([H])[N+]([H])([H])C([H])([H])C([H])(C(=O)N2C([H])([H])C([H])([H])N(C(=O)N3C([H])([H])C([H])([H])C([H])([H])C([H])(n4nc(-c5c([H])c([H])c(Oc6c([H])c([H])c(F)c([H])c6F)c([H])c5[H])c(C(=O)N([H])[H])c4N([H])[H])C3([H])[H])C([H])([H])C([H])([H])C2([H])[H])N([H])C(=O)C([H])([H])N([H])Oc2c([H])c([H])c3c(c2[H])C([H])([H])N(C(=O)C([H])(N([H])C(=O)C([H])(N([H])C([H])([H])[H])C([H])([H])[H])C(C([H])([H])[H])(C([H])([H])[H])C([H])([H])[H])C([H])(C(=O)N([H])C2([H])c4c([H])c([H])c([H])c([H])c4C([H])([H])C([H])([H])C2([H])[H])C3([H])[H])c([H])c1[H]

>  <smiles>  (73) 
[H]c1c([H])c([H])c(C([H])([H])C([H])([H])[N+]([H])([H])C([H])([H])C([H])(C(=O)N2C([H])([H])C([H])([H])N(C(=O)N3C([H])([H])C([H])([H])C([H])([H])C([H])(n4nc(-c5c([H])c([H])c(Oc6c([H])c([H])c(F)c([H])c6F)c([H])c5[H])c(C(=O)N([H])[H])c4N([H])[H])C3([H])[H])C([H])([H])C([H])([H])C2([H])[H])N([H])C(=O)C([H])([H])N([H])Oc2c([H])c([H])c3c(c2[H])C([H])([H])N(C(=O)C([H])(N([H])C(=O)C([H])(N([H])C([H])([H])[H])C([H])([H])[H])C(C([H])([H])[H])(C([H])([H])[H])C([H])([H])[H])C([H])(C(=O)N([H])C2([H])c4c([H])c([H])c([H])c([H])c4C([H])([H])C([H])([H])C2([H])[H])C3([H])[H])c([H])c1[H]

$$$$
79:0:0
     RDKit          3D

113121  0  0  1  0  0  0  0  0999 V2000
  -26.9230  -21.5550   18.1980 C   0  0  0  0  0  3  0  0  0  0  0  0
  -28.2010  -20.9500   17.5540 C   0  0  0  0  0  0  0  0  0  0  0  0
  -28.3550  -19.6160   17.6000 N   0  0  0  0  0  0  0  0  0  0  0  0
  -29.0190  -21.6890   16.9990 O   0  0  0  0  0  0  0  0  0  0  0  0
  -27.6580  -19.0790   18.0980 H   0  0  0  0  0  0  0  0  0  0  0  0
  -29.4170  -18.8610   16.9380 C   0  0  0  0  0  2  0  0  0  0  0  0
  -30.4940  -18.3630   17.9180 C   0  0  0  0  0  2  0  0  0  0  0  0
  -30.0440  -17.1590   18.7690 C   0  0  0  0  0  2  0  0  0  0  0  0
  -31.0180  -16.8040   19.9230 C   0  0  0  0  0  3  0  0  0  0  0  0
  -31.4140  -14.4070   20.4430 C   0  0  0  0  0  0  0  0  0  0  0  0
  -31.1770  -12.0350   19.8800 C   0  0  0  0  0  2  0  0  0  0  0  0
  -30.2990  -11.9590   18.6150 C   0  0  0  0  0  2  0  0  0  0  0  0
  -28.8120  -11.8670   19.0110 C   0  0  0  0  0  2  0  0  0  0  0  0
  -28.4050  -12.9900   20.0060 C   0  0  0  0  0  3  0  0  0  0  0  0
  -29.4060  -13.0710   21.1830 C   0  0  0  0  0  2  0  0  0  0  0  0
  -30.7570  -13.2320   20.6210 N   0  0  0  0  0  0  0  0  0  0  0  0
  -32.5740  -14.4680   20.0240 O   0  0  0  0  0  0  0  0  0  0  0  0
  -30.6550  -15.5090   20.5130 N   0  0  0  0  0  0  0  0  0  0  0  0
  -29.7110  -15.4230   20.8640 H   0  0  0  0  0  0  0  0  0  0  0  0
  -26.0740  -13.7730   20.7540 C   0  0  0  0  0  0  0  0  0  0  0  0
  -24.9440  -13.0820   21.1010 C   0  0  0  0  0  0  0  0  0  0  0  0
  -25.2860  -11.6980   21.0120 C   0  0  0  0  0  0  0  0  0  0  0  0
  -27.0360  -12.8150   20.4800 N   0  0  0  0  0  0  0  0  0  0  0  0
  -26.5660  -11.5600   20.6930 N   0  0  0  0  0  0  0  0  0  0  0  0
  -24.4560  -10.4960   21.1550 C   0  0  0  0  0  0  0  0  0  0  0  0
  -24.7200   -9.5390   22.1580 C   0  0  0  0  0  3  0  0  0  0  0  0
  -23.9010   -8.3970   22.2910 C   0  0  0  0  0  3  0  0  0  0  0  0
  -22.8030   -8.2050   21.4180 C   0  0  0  0  0  0  0  0  0  0  0  0
  -22.5590   -9.1520   20.4070 C   0  0  0  0  0  3  0  0  0  0  0  0
  -23.3770  -10.2860   20.2720 C   0  0  0  0  0  3  0  0  0  0  0  0
  -21.9670   -7.1160   21.4530 O   0  0  0  0  0  0  0  0  0  0  0  0
  -21.6220   -6.5110   22.6350 C   0  0  0  0  0  0  0  0  0  0  0  0
  -20.9420   -7.2060   23.6570 C   0  0  0  0  0  3  0  0  0  0  0  0
  -20.5440   -6.5270   24.8250 C   0  0  0  0  0  3  0  0  0  0  0  0
  -20.8170   -5.1540   24.9710 C   0  0  0  0  0  0  0  0  0  0  0  0
  -21.4930   -4.4590   23.9530 C   0  0  0  0  0  3  0  0  0  0  0  0
  -21.8910   -5.1340   22.7870 C   0  0  0  0  0  0  0  0  0  0  0  0
  -22.5200   -4.4540   21.7970 F   0  0  0  0  0  0  0  0  0  0  0  0
  -20.4300   -4.5000   26.0920 F   0  0  0  0  0  0  0  0  0  0  0  0
  -23.5930  -13.6640   21.4050 C   0  0  0  0  0  0  0  0  0  0  0  0
  -22.8220  -13.0060   22.2640 N   0  0  0  0  0  0  0  0  0  0  0  0
  -23.2330  -14.7320   20.9130 O   0  0  0  0  0  0  0  0  0  0  0  0
  -23.1280  -12.1410   22.6850 H   0  0  0  0  0  0  0  0  0  0  0  0
  -21.9090  -13.3670   22.5020 H   0  0  0  0  0  0  0  0  0  0  0  0
  -26.3630  -15.1270   20.6310 N   0  0  0  0  0  0  0  0  0  0  0  0
  -25.6710  -15.8540   20.7730 H   0  0  0  0  0  0  0  0  0  0  0  0
  -27.2540  -15.4840   20.3100 H   0  0  0  0  0  0  0  0  0  0  0  0
  -31.1140  -17.8770   21.0140 C   0  0  0  0  0  0  0  0  0  0  0  0
  -32.1210  -18.7410   20.9440 N   0  0  0  0  0  0  0  0  0  0  0  0
  -30.2750  -17.9320   21.9110 O   0  0  0  0  0  0  0  0  0  0  0  0
  -32.8120  -18.6530   20.2130 H   0  0  0  0  0  0  0  0  0  0  0  0
  -32.2130  -19.4950   21.6110 H   0  0  0  0  0  0  0  0  0  0  0  0
  -28.0730  -23.5280   19.2260 C   0  0  0  0  0  0  0  0  0  0  0  0
  -27.0860  -22.9870   18.4940 N   0  0  0  0  0  0  0  0  0  0  0  0
  -29.0060  -22.8630   19.6750 O   0  0  0  0  0  0  0  0  0  0  0  0
  -26.4120  -23.6220   18.0990 H   0  0  0  0  0  0  0  0  0  0  0  0
  -29.5010  -26.2620   17.9400 C   0  0  0  0  0  0  0  0  0  0  0  0
  -29.2840  -25.4290   21.5470 C   0  0  0  0  0  2  0  0  0  0  0  0
  -27.8500  -25.2450   21.0700 C   0  0  0  0  0  2  0  0  0  0  0  0
  -29.9780  -26.0900   20.3520 C   0  0  0  0  0  2  0  0  0  0  0  0
  -27.9560  -25.0350   19.5440 C   0  0  0  0  0  3  0  0  0  0  0  0
  -29.1650  -25.7870   19.1650 N   0  0  0  0  0  0  0  0  0  0  0  0
  -30.5130  -26.9550   17.7850 O   0  0  0  0  0  0  0  0  0  0  0  0
  -28.6420  -25.9530   16.6950 C   0  0  0  0  0  2  0  0  0  0  0  0
  -27.9550  -27.1290   16.2300 O   0  0  0  0  0  0  0  0  0  0  0  0
  -25.1320  -29.9270   22.1200 C   0  0  0  0  0  0  0  0  0  0  0  0
  -26.7940  -27.5430   16.8560 C   0  0  0  0  0  0  0  0  0  0  0  0
  -23.5100  -29.0730   20.4580 C   0  0  0  0  0  3  0  0  0  0  0  0
  -24.4730  -28.4760   18.1790 C   0  0  0  0  0  0  0  0  0  0  0  0
  -25.8170  -29.9120   19.7290 C   0  0  0  0  0  2  0  0  0  0  0  0
  -25.7340  -28.9400   18.5700 C   0  0  0  0  0  0  0  0  0  0  0  0
  -26.8930  -28.4860   17.9010 C   0  0  0  0  0  3  0  0  0  0  0  0
  -25.5100  -27.0910   16.4730 C   0  0  0  0  0  3  0  0  0  0  0  0
  -24.3530  -27.5470   17.1330 C   0  0  0  0  0  3  0  0  0  0  0  0
  -23.2800  -29.0250   18.9240 C   0  0  0  0  0  2  0  0  0  0  0  0
  -24.8500  -29.6360   20.8190 N   0  0  0  0  0  0  0  0  0  0  0  0
  -24.2810  -29.7740   23.0100 O   0  0  0  0  0  0  0  0  0  0  0  0
  -23.2620  -27.6650   21.0430 C   0  0  0  0  0  0  0  0  0  0  0  0
  -21.9890  -27.2310   21.0460 N   0  0  0  0  0  0  0  0  0  0  0  0
  -24.1990  -26.9770   21.4570 O   0  0  0  0  0  0  0  0  0  0  0  0
  -21.2760  -27.8490   20.6850 H   0  0  0  0  0  0  0  0  0  0  0  0
  -19.1000  -25.0750   21.2810 C   0  0  0  0  0  0  0  0  0  0  0  0
  -21.5300  -25.9280   21.5210 C   0  0  0  0  0  3  0  0  0  0  0  0
  -21.9140  -24.8070   20.5260 C   0  0  0  0  0  2  0  0  0  0  0  0
  -20.8080  -24.5060   19.5090 C   0  0  0  0  0  2  0  0  0  0  0  0
  -19.5180  -24.0810   20.2120 C   0  0  0  0  0  2  0  0  0  0  0  0
  -20.0390  -25.9530   21.8830 C   0  0  0  0  0  0  0  0  0  0  0  0
  -19.5840  -26.8880   22.8390 C   0  0  0  0  0  3  0  0  0  0  0  0
  -18.2270  -26.9410   23.2040 C   0  0  0  0  0  3  0  0  0  0  0  0
  -17.3050  -26.0560   22.6170 C   0  0  0  0  0  3  0  0  0  0  0  0
  -17.7410  -25.1290   21.6570 C   0  0  0  0  0  3  0  0  0  0  0  0
  -26.5210  -30.4920   22.5500 C   0  0  0  0  0  3  0  0  0  0  0  0
  -27.4990  -29.3870   23.1120 C   0  0  1  0  0  0  0  0  0  0  0  0
  -26.8860  -28.5160   24.2310 C   0  0  0  0  0  1  0  0  0  0  0  0
  -27.9640  -28.4350   21.9850 C   0  0  0  0  0  1  0  0  0  0  0  0
  -28.7700  -30.0590   23.6810 C   0  0  0  0  0  1  0  0  0  0  0  0
  -26.2860  -31.5390   23.5530 N   0  0  0  0  0  0  0  0  0  0  0  0
  -26.4950  -32.8480   23.3530 C   0  0  0  0  0  0  0  0  0  0  0  0
  -26.9820  -33.2950   22.3100 O   0  0  0  0  0  0  0  0  0  0  0  0
  -25.8540  -31.2520   24.4190 H   0  0  0  0  0  0  0  0  0  0  0  0
  -24.7940  -34.5350   24.1090 C   0  0  0  0  0  1  0  0  0  0  0  0
  -26.0970  -33.8110   24.4860 C   0  0  0  0  0  3  0  0  0  0  0  0
  -28.3270  -34.2070   25.4280 C   0  0  0  0  0  1  0  0  0  0  0  0
  -27.1430  -34.8040   24.8140 N   0  0  0  0  0  0  0  0  0  0  0  0
  -26.7800  -35.5120   25.4480 H   0  0  0  0  0  0  0  0  0  0  0  0
  -25.6630  -21.3140   17.2920 C   0  0  0  0  0  3  0  0  0  0  0  0
  -24.5700  -22.2920   17.4990 N   0  0  0  0  0  4  0  0  0  0  0  0
  -24.3540  -22.4090   18.4730 H   0  0  0  0  0  0  0  0  0  0  0  0
  -23.7300  -21.9980   17.0310 H   0  0  0  0  0  0  0  0  0  0  0  0
  -24.8010  -23.1890   17.1120 H   0  0  0  0  0  0  0  0  0  0  0  0
  -25.1310  -19.9660   17.4670 N   0  0  0  0  0  0  0  0  0  0  0  0
  -25.8780  -19.2940   17.3320 H   0  0  0  0  0  0  0  0  0  0  0  0
  -24.4920  -19.7370   16.7140 H   0  0  0  0  0  0  0  0  0  0  0  0
  1  2  1  0
  1 54  1  0
  2  3  1  0
  3  5  1  0
  4  2  2  0
  6  3  1  0
  6  7  1  0
  7  8  1  0
  9  8  1  0
  9 18  1  0
  9 48  1  0
 10 18  1  0
 10 16  1  0
 11 16  1  0
 12 13  1  0
 12 11  1  0
 14 13  1  0
 14 23  1  0
 14 15  1  0
 16 15  1  0
 17 10  2  0
 18 19  1  0
 20 21  2  0
 21 40  1  0
 22 21  1  0
 22 25  1  0
 23 24  1  0
 23 20  1  0
 24 22  2  0
 25 26  1  0
 26 27  2  0
 28 31  1  0
 28 27  1  0
 29 28  2  0
 30 29  1  0
 30 25  2  0
 31 32  1  0
 32 37  2  0
 32 33  1  0
 33 34  2  0
 34 35  1  0
 35 39  1  0
 36 35  2  0
 37 36  1  0
 38 37  1  0
 40 41  1  0
 41 44  1  0
 41 43  1  0
 42 40  2  0
 45 20  1  0
 45 46  1  0
 47 45  1  0
 48 50  2  0
 49 48  1  0
 49 52  1  0
 51 49  1  0
 53 55  2  0
 54 53  1  0
 56 54  1  0
 57 62  1  0
 59 58  1  0
 60 58  1  0
 61 53  1  0
 61 59  1  0
 62 61  1  0
 62 60  1  0
 63 57  2  0
 64 57  1  0
 65 64  1  0
 65 67  1  0
 66 77  2  0
 67 72  1  0
 68 76  1  0
 68 78  1  0
 69 71  1  0
 69 75  1  0
 70 76  1  0
 71 70  1  0
 72 71  2  0
 73 67  2  0
 73 74  1  0
 74 69  2  0
 75 68  1  0
 76 66  1  0
 78 79  1  0
 78 80  2  0
 81 79  1  0
 82 91  2  0
 82 87  1  0
 83 79  1  0
 83 87  1  0
 84 83  1  0
 85 86  1  0
 85 84  1  0
 86 82  1  0
 87 88  2  0
 88 89  1  0
 90 89  2  0
 91 90  1  0
 92 66  1  0
 92 93  1  0
 92 97  1  0
 93 96  1  1
 93 94  1  0
 95 93  1  0
 97100  1  0
 98 97  1  0
 98102  1  0
 99 98  2  0
102101  1  0
102104  1  0
104103  1  0
104105  1  0
106111  1  0
106107  1  0
106  1  1  0
107108  1  0
109107  1  0
110107  1  0
112111  1  0
113111  1  0
M  ISO  4  10 100  18 100  64 101  65 101
M  END
>  <TORSDO>  (74) 
F 28

>  <SCORE>  (74) 
-7.468

>  <name>  (74) 
79

>  <ligand_id>  (74) 
79

>  <original_smiles>  (74) 
[H]c1c([H])c([H])c2c(c1[H])C([H])([H])C([H])([H])C([H])([H])C2([H])N([H])C(=O)C1([H])N(C(=O)C([H])(N([H])C(=O)C([H])(N([H])C([H])([H])[H])C([H])([H])[H])C(C([H])([H])[H])(C([H])([H])[H])C([H])([H])[H])C([H])([H])c2c([H])c(OC([H])([H])C(=O)N3C([H])([H])C([H])([H])C([H])([H])C3([H])C(=O)N([H])C([H])(C(=O)N([H])C([H])([H])C([H])([H])C([H])([H])C([H])(C(=O)N([H])[H])N([H])C(=O)N3C([H])([H])C([H])([H])C([H])([H])C([H])(n4nc(-c5c([H])c([H])c(Oc6c([H])c([H])c(F)c([H])c6F)c([H])c5[H])c(C(=O)N([H])[H])c4N([H])[H])C3([H])[H])C([H])(N([H])[H])[N+]([H])([H])[H])c([H])c([H])c2C1([H])[H]

>  <smiles>  (74) 
[H]c1c([H])c([H])c2c(c1[H])C([H])([H])C([H])([H])C([H])([H])C2([H])N([H])C(=O)C1([H])N(C(=O)C([H])(N([H])C(=O)C([H])(N([H])C([H])([H])[H])C([H])([H])[H])C(C([H])([H])[H])(C([H])([H])[H])C([H])([H])[H])C([H])([H])c2c([H])c(OC([H])([H])C(=O)N3C([H])([H])C([H])([H])C([H])([H])C3([H])C(=O)N([H])C([H])(C(=O)N([H])C([H])([H])C([H])([H])C([H])([H])C([H])(C(=O)N([H])[H])N([H])C(=O)N3C([H])([H])C([H])([H])C([H])([H])C([H])(n4nc(-c5c([H])c([H])c(Oc6c([H])c([H])c(F)c([H])c6F)c([H])c5[H])c(C(=O)N([H])[H])c4N([H])[H])C3([H])[H])C([H])(N([H])[H])[N+]([H])([H])[H])c([H])c([H])c2C1([H])[H]

$$$$
80:0:0
     RDKit          3D

 96104  0  0  1  0  0  0  0  0999 V2000
  -30.1870  -17.1480   18.9630 C   0  0  0  0  0  0  0  0  0  0  0  0
  -29.5280  -20.3050   17.1730 C   0  0  0  0  0  2  0  0  0  0  0  0
  -29.6970  -18.7820   17.1830 C   0  0  0  0  0  2  0  0  0  0  0  0
  -30.6060  -19.6650   19.1980 C   0  0  0  0  0  2  0  0  0  0  0  0
  -29.6060  -20.7090   18.6480 C   0  0  0  0  0  3  0  0  0  0  0  0
  -30.2460  -18.4240   18.4960 N   0  0  0  0  0  0  0  0  0  0  0  0
  -29.6810  -16.2580   18.2710 O   0  0  0  0  0  0  0  0  0  0  0  0
  -29.9640  -22.1980   18.8270 C   0  0  0  0  0  0  0  0  0  0  0  0
  -28.9310  -23.0590   18.8560 N   0  0  0  0  0  0  0  0  0  0  0  0
  -31.1410  -22.5590   18.9000 O   0  0  0  0  0  0  0  0  0  0  0  0
  -28.0050  -22.6540   18.8030 H   0  0  0  0  0  0  0  0  0  0  0  0
  -28.9940  -24.5260   18.8020 C   0  0  0  0  0  2  0  0  0  0  0  0
  -28.4620  -25.2030   20.0830 C   0  0  0  0  0  2  0  0  0  0  0  0
  -28.4830  -26.6350   19.9660 O   0  0  0  0  0  0  0  0  0  0  0  0
  -24.5530  -31.7140   23.0420 C   0  0  0  0  0  0  0  0  0  0  0  0
  -27.2860  -27.3240   19.9550 C   0  0  0  0  0  0  0  0  0  0  0  0
  -23.3820  -30.3210   21.3630 C   0  0  0  0  0  3  0  0  0  0  0  0
  -24.8720  -28.8070   19.9470 C   0  0  0  0  0  0  0  0  0  0  0  0
  -25.9080  -30.6980   21.2150 C   0  0  0  0  0  2  0  0  0  0  0  0
  -26.0160  -29.3350   20.5590 C   0  0  0  0  0  0  0  0  0  0  0  0
  -27.2240  -28.6030   20.5610 C   0  0  0  0  0  3  0  0  0  0  0  0
  -26.1260  -26.8150   19.3270 C   0  0  0  0  0  3  0  0  0  0  0  0
  -24.9230  -27.5470   19.3270 C   0  0  0  0  0  3  0  0  0  0  0  0
  -23.6210  -29.6530   19.9800 C   0  0  0  0  0  2  0  0  0  0  0  0
  -24.6310  -30.9260   21.9310 N   0  0  0  0  0  0  0  0  0  0  0  0
  -23.4620  -31.9730   23.5670 O   0  0  0  0  0  0  0  0  0  0  0  0
  -22.7230  -29.2880   22.3030 C   0  0  0  0  0  0  0  0  0  0  0  0
  -21.3920  -29.1420   22.1950 N   0  0  0  0  0  0  0  0  0  0  0  0
  -23.4040  -28.6190   23.0860 O   0  0  0  0  0  0  0  0  0  0  0  0
  -20.9060  -29.7350   21.5350 H   0  0  0  0  0  0  0  0  0  0  0  0
  -17.9880  -28.0760   22.7740 C   0  0  0  0  0  0  0  0  0  0  0  0
  -20.5640  -28.2000   22.9470 C   0  0  0  0  0  3  0  0  0  0  0  0
  -20.5730  -26.8000   22.2890 C   0  0  0  0  0  2  0  0  0  0  0  0
  -19.4170  -26.5880   21.3070 C   0  0  0  0  0  2  0  0  0  0  0  0
  -18.0710  -26.7600   22.0180 C   0  0  0  0  0  2  0  0  0  0  0  0
  -19.1590  -28.7590   23.1970 C   0  0  0  0  0  0  0  0  0  0  0  0
  -19.0280  -29.9950   23.8660 C   0  0  0  0  0  3  0  0  0  0  0  0
  -17.7580  -30.5500   24.1110 C   0  0  0  0  0  3  0  0  0  0  0  0
  -16.6010  -29.8610   23.7040 C   0  0  0  0  0  3  0  0  0  0  0  0
  -16.7170  -28.6250   23.0440 C   0  0  0  0  0  3  0  0  0  0  0  0
  -25.8250  -32.3470   23.6900 C   0  0  0  0  0  3  0  0  0  0  0  0
  -25.4930  -33.7270   24.0620 N   0  0  0  0  0  0  0  0  0  0  0  0
  -25.8110  -34.8090   23.3360 C   0  0  0  0  0  0  0  0  0  0  0  0
  -26.4860  -34.7490   22.3050 O   0  0  0  0  0  0  0  0  0  0  0  0
  -24.8990  -33.8480   24.8690 H   0  0  0  0  0  0  0  0  0  0  0  0
  -24.0530  -36.5780   23.0260 C   0  0  0  0  0  1  0  0  0  0  0  0
  -25.2980  -36.1740   23.8330 C   0  0  0  0  0  3  0  0  0  0  0  0
  -27.4080  -37.0730   24.7070 C   0  0  0  0  0  1  0  0  0  0  0  0
  -26.3140  -37.2490   23.7550 N   0  0  0  0  0  0  0  0  0  0  0  0
  -25.8900  -38.1590   23.9200 H   0  0  0  0  0  0  0  0  0  0  0  0
  -26.3490  -31.5440   24.9430 C   0  0  1  0  0  0  0  0  0  0  0  0
  -25.2560  -31.2540   25.9970 C   0  0  0  0  0  1  0  0  0  0  0  0
  -26.9520  -30.1880   24.5060 C   0  0  0  0  0  1  0  0  0  0  0  0
  -27.4820  -32.3340   25.6380 C   0  0  0  0  0  1  0  0  0  0  0  0
  -30.7070  -16.7690   20.3830 C   0  0  0  0  0  3  0  0  0  0  0  0
  -31.4360  -14.3370   19.9920 C   0  0  0  0  0  0  0  0  0  0  0  0
  -30.9890  -12.2230   18.8040 C   0  0  0  0  0  2  0  0  0  0  0  0
  -29.9860  -12.5090   17.6650 C   0  0  0  0  0  2  0  0  0  0  0  0
  -28.5260  -12.4750   18.1670 C   0  0  0  0  0  2  0  0  0  0  0  0
  -28.3170  -13.2970   19.4650 C   0  0  0  0  0  3  0  0  0  0  0  0
  -29.4050  -12.9340   20.5050 C   0  0  0  0  0  2  0  0  0  0  0  0
  -30.7270  -13.1800   19.8890 N   0  0  0  0  0  0  0  0  0  0  0  0
  -32.5190  -14.5350   19.4330 O   0  0  0  0  0  0  0  0  0  0  0  0
  -30.7600  -15.3110   20.6220 N   0  0  0  0  0  0  0  0  0  0  0  0
  -29.9400  -14.9590   21.0860 H   0  0  0  0  0  0  0  0  0  0  0  0
  -26.0070  -14.0780   20.3010 C   0  0  0  0  0  0  0  0  0  0  0  0
  -24.8970  -13.3850   20.7070 C   0  0  0  0  0  0  0  0  0  0  0  0
  -25.2420  -12.0020   20.6090 C   0  0  0  0  0  0  0  0  0  0  0  0
  -26.9660  -13.1220   19.9980 N   0  0  0  0  0  0  0  0  0  0  0  0
  -26.5070  -11.8670   20.2340 N   0  0  0  0  0  0  0  0  0  0  0  0
  -24.4230  -10.7960   20.7970 C   0  0  0  0  0  0  0  0  0  0  0  0
  -24.7910   -9.7870   21.7140 C   0  0  0  0  0  3  0  0  0  0  0  0
  -23.9760   -8.6480   21.8880 C   0  0  0  0  0  3  0  0  0  0  0  0
  -22.7790   -8.5090   21.1460 C   0  0  0  0  0  0  0  0  0  0  0  0
  -22.4310   -9.5060   20.2160 C   0  0  0  0  0  3  0  0  0  0  0  0
  -23.2460  -10.6360   20.0400 C   0  0  0  0  0  3  0  0  0  0  0  0
  -21.9420   -7.4240   21.2300 O   0  0  0  0  0  0  0  0  0  0  0  0
  -21.7990   -6.7130   22.3960 C   0  0  0  0  0  0  0  0  0  0  0  0
  -21.3410   -7.3210   23.5840 C   0  0  0  0  0  3  0  0  0  0  0  0
  -21.1450   -6.5430   24.7420 C   0  0  0  0  0  3  0  0  0  0  0  0
  -21.3950   -5.1580   24.7100 C   0  0  0  0  0  0  0  0  0  0  0  0
  -21.8470   -4.5490   23.5260 C   0  0  0  0  0  3  0  0  0  0  0  0
  -22.0480   -5.3260   22.3710 C   0  0  0  0  0  0  0  0  0  0  0  0
  -22.4640   -4.7350   21.2250 F   0  0  0  0  0  0  0  0  0  0  0  0
  -21.1990   -4.4060   25.8180 F   0  0  0  0  0  0  0  0  0  0  0  0
  -23.5610  -13.9680   21.0690 C   0  0  0  0  0  0  0  0  0  0  0  0
  -22.8250  -13.3100   21.9560 N   0  0  0  0  0  0  0  0  0  0  0  0
  -23.1800  -15.0400   20.5980 O   0  0  0  0  0  0  0  0  0  0  0  0
  -23.1430  -12.4400   22.3560 H   0  0  0  0  0  0  0  0  0  0  0  0
  -21.9310  -13.6840   22.2430 H   0  0  0  0  0  0  0  0  0  0  0  0
  -26.2760  -15.4320   20.1460 N   0  0  0  0  0  0  0  0  0  0  0  0
  -25.5640  -16.1380   20.2990 H   0  0  0  0  0  0  0  0  0  0  0  0
  -27.1100  -15.7930   19.7020 H   0  0  0  0  0  0  0  0  0  0  0  0
  -30.8550  -17.9690   22.6400 C   0  0  0  0  0  1  0  0  0  0  0  0
  -28.6890  -18.2640   21.3440 C   0  0  0  0  0  1  0  0  0  0  0  0
  -29.9040  -17.3460   21.6080 C   0  0  0  0  0  3  0  0  0  0  0  0
  2  3  1  0
  2  5  1  0
  3  6  1  0
  5  8  1  0
  5  4  1  0
  6  1  1  0
  6  4  1  0
  7  1  2  0
  8  9  1  0
  8 10  2  0
 11  9  1  0
 12  9  1  0
 12 13  1  0
 14 13  1  0
 15 26  2  0
 16 14  1  0
 16 21  1  0
 17 25  1  0
 17 27  1  0
 18 24  1  0
 18 20  1  0
 19 25  1  0
 20 21  2  0
 20 19  1  0
 22 23  1  0
 22 16  2  0
 23 18  2  0
 24 17  1  0
 25 15  1  0
 27 29  2  0
 28 27  1  0
 30 28  1  0
 31 40  2  0
 31 36  1  0
 32 28  1  0
 32 36  1  0
 33 32  1  0
 34 35  1  0
 34 33  1  0
 35 31  1  0
 36 37  2  0
 37 38  1  0
 39 38  2  0
 40 39  1  0
 41 15  1  0
 41 42  1  0
 41 51  1  0
 42 45  1  0
 43 47  1  0
 43 42  1  0
 44 43  2  0
 47 46  1  0
 49 47  1  0
 49 50  1  0
 49 48  1  0
 51 54  1  1
 51 52  1  0
 53 51  1  0
 55  1  1  0
 55 64  1  0
 55 96  1  0
 56 64  1  0
 57 62  1  0
 58 59  1  0
 58 57  1  0
 60 59  1  0
 60 69  1  0
 60 61  1  0
 62 56  1  0
 62 61  1  0
 63 56  2  0
 64 65  1  0
 66 67  2  0
 67 86  1  0
 68 67  1  0
 68 71  1  0
 69 70  1  0
 69 66  1  0
 70 68  2  0
 71 72  1  0
 72 73  2  0
 74 77  1  0
 74 73  1  0
 75 74  2  0
 76 75  1  0
 76 71  2  0
 77 78  1  0
 78 79  1  0
 79 80  2  0
 81 80  1  0
 81 85  1  0
 82 81  2  0
 83 78  2  0
 83 82  1  0
 84 83  1  0
 86 87  1  0
 87 90  1  0
 87 89  1  0
 88 86  2  0
 91 92  1  0
 91 66  1  0
 93 91  1  0
 95 96  1  0
 96 94  1  0
M  ISO  4  13 101  14 101  56 100  64 100
M  END
>  <TORSDO>  (75) 
F 21

>  <SCORE>  (75) 
-11.565

>  <name>  (75) 
80

>  <ligand_id>  (75) 
80

>  <original_smiles>  (75) 
[H]c1c([H])c([H])c2c(c1[H])C([H])([H])C([H])([H])C([H])([H])C2([H])N([H])C(=O)C1([H])N(C(=O)C([H])(N([H])C(=O)C([H])(N([H])C([H])([H])[H])C([H])([H])[H])C(C([H])([H])[H])(C([H])([H])[H])C([H])([H])[H])C([H])([H])c2c([H])c(OC([H])([H])C([H])([H])N([H])C(=O)C3([H])C([H])([H])N(C(=O)C([H])(N([H])C(=O)N4C([H])([H])C([H])([H])C([H])([H])C([H])(n5nc(-c6c([H])c([H])c(Oc7c([H])c([H])c(F)c([H])c7F)c([H])c6[H])c(C(=O)N([H])[H])c5N([H])[H])C4([H])[H])C([H])(C([H])([H])[H])C([H])([H])[H])C([H])([H])C3([H])[H])c([H])c([H])c2C1([H])[H]

>  <smiles>  (75) 
[H]c1c([H])c([H])c2c(c1[H])C([H])([H])C([H])([H])C([H])([H])C2([H])N([H])C(=O)C1([H])N(C(=O)C([H])(N([H])C(=O)C([H])(N([H])C([H])([H])[H])C([H])([H])[H])C(C([H])([H])[H])(C([H])([H])[H])C([H])([H])[H])C([H])([H])c2c([H])c(OC([H])([H])C([H])([H])N([H])C(=O)C3([H])C([H])([H])N(C(=O)C([H])(N([H])C(=O)N4C([H])([H])C([H])([H])C([H])([H])C([H])(n5nc(-c6c([H])c([H])c(Oc7c([H])c([H])c(F)c([H])c7F)c([H])c6[H])c(C(=O)N([H])[H])c5N([H])[H])C4([H])[H])C([H])(C([H])([H])[H])C([H])([H])[H])C([H])([H])C3([H])[H])c([H])c([H])c2C1([H])[H]

$$$$
81:0:0
     RDKit          3D

114122  0  0  1  0  0  0  0  0999 V2000
  -28.0880  -19.6020   19.6540 C   0  0  0  0  0  2  0  0  0  0  0  0
  -28.1580  -19.0260   18.2340 C   0  0  0  0  0  2  0  0  0  0  0  0
  -29.5570  -18.4900   17.8590 C   0  0  0  0  0  2  0  0  0  0  0  0
  -30.6710  -20.7470   17.4720 C   0  0  0  0  0  0  0  0  0  0  0  0
  -30.6640  -19.4570   17.8370 N   0  0  0  0  0  0  0  0  0  0  0  0
  -29.6400  -21.4040   17.2860 O   0  0  0  0  0  0  0  0  0  0  0  0
  -31.5770  -19.0530   17.9990 H   0  0  0  0  0  0  0  0  0  0  0  0
  -32.0760  -23.3260   18.7840 C   0  0  0  0  0  0  0  0  0  0  0  0
  -31.8500  -22.5870   15.1420 C   0  0  0  0  0  2  0  0  0  0  0  0
  -32.4350  -21.3170   15.7450 C   0  0  0  0  0  2  0  0  0  0  0  0
  -31.9230  -23.6020   16.2860 C   0  0  0  0  0  2  0  0  0  0  0  0
  -32.0610  -21.3840   17.2380 C   0  0  0  0  0  3  0  0  0  0  0  0
  -32.0280  -22.8220   17.5290 N   0  0  0  0  0  0  0  0  0  0  0  0
  -32.3820  -22.6340   19.7580 O   0  0  0  0  0  0  0  0  0  0  0  0
  -31.6180  -24.7780   18.9830 C   0  0  0  0  0  2  0  0  0  0  0  0
  -32.3440  -25.6600   20.0250 C   0  0  0  0  0  2  0  0  0  0  0  0
  -31.5580  -26.0880   21.1540 O   0  0  0  0  0  0  0  0  0  0  0  0
  -26.7630  -30.3290   24.2680 C   0  0  0  0  0  0  0  0  0  0  0  0
  -30.3640  -26.7650   20.9910 C   0  0  0  0  0  0  0  0  0  0  0  0
  -26.0430  -29.2660   22.1530 C   0  0  0  0  0  3  0  0  0  0  0  0
  -27.8810  -28.1310   20.8100 C   0  0  0  0  0  0  0  0  0  0  0  0
  -28.5200  -29.7540   22.5940 C   0  0  0  0  0  2  0  0  0  0  0  0
  -28.8490  -28.5540   21.7270 C   0  0  0  0  0  0  0  0  0  0  0  0
  -30.0840  -27.8700   21.8300 C   0  0  0  0  0  3  0  0  0  0  0  0
  -29.3560  -26.3450   20.0890 C   0  0  0  0  0  3  0  0  0  0  0  0
  -28.1290  -27.0180   19.9960 C   0  0  0  0  0  3  0  0  0  0  0  0
  -26.5860  -28.9050   20.7470 C   0  0  0  0  0  2  0  0  0  0  0  0
  -27.1130  -29.7850   23.0660 N   0  0  0  0  0  0  0  0  0  0  0  0
  -25.5750  -30.4380   24.5990 O   0  0  0  0  0  0  0  0  0  0  0  0
  -25.2970  -28.0370   22.7230 C   0  0  0  0  0  0  0  0  0  0  0  0
  -24.0570  -27.8160   22.2570 N   0  0  0  0  0  0  0  0  0  0  0  0
  -25.8410  -27.2940   23.5450 O   0  0  0  0  0  0  0  0  0  0  0  0
  -23.6740  -28.4780   21.5950 H   0  0  0  0  0  0  0  0  0  0  0  0
  -20.7530  -26.4330   21.7920 C   0  0  0  0  0  0  0  0  0  0  0  0
  -23.1840  -26.7020   22.6280 C   0  0  0  0  0  3  0  0  0  0  0  0
  -23.5030  -25.4390   21.7930 C   0  0  0  0  0  2  0  0  0  0  0  0
  -22.6430  -25.3180   20.5310 C   0  0  0  0  0  2  0  0  0  0  0  0
  -21.1560  -25.2750   20.8950 C   0  0  0  0  0  2  0  0  0  0  0  0
  -21.7070  -27.1120   22.5940 C   0  0  0  0  0  0  0  0  0  0  0  0
  -21.2840  -28.2060   23.3810 C   0  0  0  0  0  3  0  0  0  0  0  0
  -19.9390  -28.6190   23.3760 C   0  0  0  0  0  3  0  0  0  0  0  0
  -18.9960  -27.9330   22.5910 C   0  0  0  0  0  3  0  0  0  0  0  0
  -19.4020  -26.8410   21.8040 C   0  0  0  0  0  3  0  0  0  0  0  0
  -27.8370  -30.8670   25.2650 C   0  0  0  0  0  3  0  0  0  0  0  0
  -28.1420  -29.8640   26.4430 C   0  0  1  0  0  0  0  0  0  0  0  0
  -26.8770  -29.3750   27.1880 C   0  0  0  0  0  1  0  0  0  0  0  0
  -28.8900  -28.6170   25.9140 C   0  0  0  0  0  1  0  0  0  0  0  0
  -29.0780  -30.5340   27.4750 C   0  0  0  0  0  1  0  0  0  0  0  0
  -27.3550  -32.1530   25.7850 N   0  0  0  0  0  0  0  0  0  0  0  0
  -27.7940  -33.3500   25.3740 C   0  0  0  0  0  0  0  0  0  0  0  0
  -28.7130  -33.4860   24.5620 O   0  0  0  0  0  0  0  0  0  0  0  0
  -26.5740  -32.1190   26.4240 H   0  0  0  0  0  0  0  0  0  0  0  0
  -26.1140  -35.1660   24.9290 C   0  0  0  0  0  1  0  0  0  0  0  0
  -27.1030  -34.6000   25.9600 C   0  0  0  0  0  3  0  0  0  0  0  0
  -28.8550  -35.2820   27.5370 C   0  0  0  0  0  1  0  0  0  0  0  0
  -28.0510  -35.6550   26.3750 N   0  0  0  0  0  0  0  0  0  0  0  0
  -27.5590  -36.5130   26.5970 H   0  0  0  0  0  0  0  0  0  0  0  0
  -26.8400  -20.4660   19.9450 C   0  0  0  0  0  2  0  0  0  0  0  0
  -26.9120  -21.9610   19.5250 C   0  0  0  0  0  3  0  0  0  0  0  0
  -27.1680  -22.1180   18.0810 N   0  0  0  0  0  4  0  0  0  0  0  0
  -28.1460  -21.9150   17.8980 H   0  0  0  0  0  0  0  0  0  0  0  0
  -27.0050  -23.0770   17.8260 H   0  0  0  0  0  0  0  0  0  0  0  0
  -26.5770  -21.5230   17.5310 H   0  0  0  0  0  0  0  0  0  0  0  0
  -27.9690  -22.7500   20.3190 C   0  0  0  0  0  0  0  0  0  0  0  0
  -28.0940  -22.4980   21.6290 N   0  0  0  0  0  0  0  0  0  0  0  0
  -28.6910  -23.5600   19.7360 O   0  0  0  0  0  0  0  0  0  0  0  0
  -27.4370  -21.8550   22.0510 H   0  0  0  0  0  0  0  0  0  0  0  0
  -29.1730  -22.9920   22.4860 C   0  0  0  0  0  2  0  0  0  0  0  0
  -30.5110  -22.2810   22.1890 C   0  0  0  0  0  2  0  0  0  0  0  0
  -30.4900  -20.7680   22.4770 C   0  0  0  0  0  2  0  0  0  0  0  0
  -31.8010  -20.0630   22.0950 C   0  0  0  0  0  2  0  0  0  0  0  0
  -31.1910  -17.6580   21.8890 C   0  0  0  0  0  0  0  0  0  0  0  0
  -31.8030  -18.6670   22.5230 N   0  0  0  0  0  0  0  0  0  0  0  0
  -30.5520  -17.8200   20.8460 O   0  0  0  0  0  0  0  0  0  0  0  0
  -32.3280  -18.4400   23.3590 H   0  0  0  0  0  0  0  0  0  0  0  0
  -31.3140  -16.2730   22.5310 C   0  0  0  0  0  2  0  0  0  0  0  0
  -30.8240  -14.6930   20.6710 C   0  0  0  0  0  0  0  0  0  0  0  0
  -30.4280  -12.7430   19.2150 C   0  0  0  0  0  2  0  0  0  0  0  0
  -29.4880  -13.0500   18.0370 C   0  0  0  0  0  2  0  0  0  0  0  0
  -28.0180  -12.8680   18.4530 C   0  0  0  0  0  2  0  0  0  0  0  0
  -27.6800  -13.6190   19.7670 C   0  0  0  0  0  3  0  0  0  0  0  0
  -28.7210  -13.3110   20.8630 C   0  0  0  0  0  2  0  0  0  0  0  0
  -30.0690  -13.6170   20.3410 N   0  0  0  0  0  0  0  0  0  0  0  0
  -31.7990  -15.0700   20.0120 O   0  0  0  0  0  0  0  0  0  0  0  0
  -30.5280  -15.2400   21.8550 N   0  0  0  0  0  0  0  0  0  0  0  0
  -29.7220  -14.8770   22.3410 H   0  0  0  0  0  0  0  0  0  0  0  0
  -25.2490  -14.1720   20.4130 C   0  0  0  0  0  0  0  0  0  0  0  0
  -24.1920  -13.3790   20.7650 C   0  0  0  0  0  0  0  0  0  0  0  0
  -24.6890  -12.0390   20.7660 C   0  0  0  0  0  0  0  0  0  0  0  0
  -26.3230  -13.3180   20.2180 N   0  0  0  0  0  0  0  0  0  0  0  0
  -25.9860  -12.0300   20.4860 N   0  0  0  0  0  0  0  0  0  0  0  0
  -23.9920  -10.7610   20.9590 C   0  0  0  0  0  0  0  0  0  0  0  0
  -24.4000   -9.8420   21.9500 C   0  0  0  0  0  3  0  0  0  0  0  0
  -23.7050   -8.6270   22.1300 C   0  0  0  0  0  3  0  0  0  0  0  0
  -22.5870   -8.3230   21.3180 C   0  0  0  0  0  0  0  0  0  0  0  0
  -22.1980   -9.2310   20.3170 C   0  0  0  0  0  3  0  0  0  0  0  0
  -22.8940  -10.4380   20.1350 C   0  0  0  0  0  3  0  0  0  0  0  0
  -21.8650   -7.1570   21.4010 O   0  0  0  0  0  0  0  0  0  0  0  0
  -21.7620   -6.4590   22.5770 C   0  0  0  0  0  0  0  0  0  0  0  0
  -21.2150   -7.0390   23.7430 C   0  0  0  0  0  3  0  0  0  0  0  0
  -21.0620   -6.2640   24.9090 C   0  0  0  0  0  3  0  0  0  0  0  0
  -21.4460   -4.9090   24.9120 C   0  0  0  0  0  0  0  0  0  0  0  0
  -21.9870   -4.3280   23.7510 C   0  0  0  0  0  3  0  0  0  0  0  0
  -22.1420   -5.1010   22.5860 C   0  0  0  0  0  0  0  0  0  0  0  0
  -22.6420   -4.5320   21.4630 F   0  0  0  0  0  0  0  0  0  0  0  0
  -21.2940   -4.1620   26.0300 F   0  0  0  0  0  0  0  0  0  0  0  0
  -22.7770  -13.8230   21.0020 C   0  0  0  0  0  0  0  0  0  0  0  0
  -22.0600  -13.1420   21.8890 N   0  0  0  0  0  0  0  0  0  0  0  0
  -22.3140  -14.8100   20.4310 O   0  0  0  0  0  0  0  0  0  0  0  0
  -22.4470  -12.3440   22.3730 H   0  0  0  0  0  0  0  0  0  0  0  0
  -21.1110  -13.4230   22.0890 H   0  0  0  0  0  0  0  0  0  0  0  0
  -25.3850  -15.5430   20.2270 N   0  0  0  0  0  0  0  0  0  0  0  0
  -24.6040  -16.1830   20.3180 H   0  0  0  0  0  0  0  0  0  0  0  0
  -26.2480  -15.9970   19.9610 H   0  0  0  0  0  0  0  0  0  0  0  0
  1 58  1  0
  2  1  1  0
  3  2  1  0
  4  5  1  0
  5  3  1  0
  5  7  1  0
  6  4  2  0
  8 15  1  0
  8 14  2  0
  9 10  1  0
  9 11  1  0
 10 12  1  0
 11 13  1  0
 12  4  1  0
 12 13  1  0
 13  8  1  0
 15 16  1  0
 16 17  1  0
 18 29  2  0
 19 17  1  0
 19 24  1  0
 20 30  1  0
 20 28  1  0
 21 23  1  0
 22 28  1  0
 23 24  2  0
 23 22  1  0
 25 19  2  0
 26 25  1  0
 26 21  2  0
 27 21  1  0
 27 20  1  0
 28 18  1  0
 30 32  2  0
 31 30  1  0
 33 31  1  0
 34 43  2  0
 34 39  1  0
 35 31  1  0
 36 35  1  0
 37 38  1  0
 37 36  1  0
 38 34  1  0
 39 35  1  0
 39 40  2  0
 41 40  1  0
 42 41  2  0
 43 42  1  0
 44 18  1  0
 44 49  1  0
 44 45  1  0
 45 46  1  1
 45 48  1  0
 47 45  1  0
 49 52  1  0
 50 49  1  0
 50 54  1  0
 51 50  2  0
 54 53  1  0
 54 56  1  0
 56 57  1  0
 56 55  1  0
 59 58  1  0
 59 64  1  0
 60 59  1  0
 61 60  1  0
 62 60  1  0
 63 60  1  0
 64 65  1  0
 65 67  1  0
 65 68  1  0
 66 64  2  0
 69 70  1  0
 69 68  1  0
 71 70  1  0
 71 73  1  0
 72 73  1  0
 72 76  1  0
 73 75  1  0
 74 72  2  0
 77 85  1  0
 78 83  1  0
 79 80  1  0
 79 78  1  0
 81 80  1  0
 81 90  1  0
 81 82  1  0
 83 77  1  0
 83 82  1  0
 84 77  2  0
 85 86  1  0
 85 76  1  0
 87 88  2  0
 88 89  1  0
 88107  1  0
 89 92  1  0
 90 87  1  0
 90 91  1  0
 91 89  2  0
 92 93  1  0
 93 94  2  0
 95 98  1  0
 95 94  1  0
 96 95  2  0
 97 96  1  0
 97 92  2  0
 98 99  1  0
 99104  2  0
 99100  1  0
100101  2  0
101102  1  0
102106  1  0
103102  2  0
104103  1  0
105104  1  0
107108  1  0
108111  1  0
108110  1  0
109107  2  0
112113  1  0
112 87  1  0
114112  1  0
M  ISO  4  16 101  17 101  77 100  85 100
M  END
>  <TORSDO>  (76) 
F 32

>  <SCORE>  (76) 
-7.855

>  <name>  (76) 
81

>  <ligand_id>  (76) 
81

>  <original_smiles>  (76) 
[H]c1c([H])c([H])c2c(c1[H])C([H])([H])C([H])([H])C([H])([H])C2([H])N([H])C(=O)C1([H])N(C(=O)C([H])(N([H])C(=O)C([H])(N([H])C([H])([H])[H])C([H])([H])[H])C(C([H])([H])[H])(C([H])([H])[H])C([H])([H])[H])C([H])([H])c2c([H])c(OC([H])([H])C([H])([H])C(=O)N3C([H])([H])C([H])([H])C([H])([H])C3([H])C(=O)N([H])C([H])([H])C([H])([H])C([H])([H])C([H])([H])C([H])(C(=O)N([H])C([H])([H])C([H])([H])C([H])([H])C([H])([H])N([H])C(=O)C([H])([H])N([H])C(=O)N3C([H])([H])C([H])([H])C([H])([H])C([H])(n4nc(-c5c([H])c([H])c(Oc6c([H])c([H])c(F)c([H])c6F)c([H])c5[H])c(C(=O)N([H])[H])c4N([H])[H])C3([H])[H])[N+]([H])([H])[H])c([H])c([H])c2C1([H])[H]

>  <smiles>  (76) 
[H]c1c([H])c([H])c2c(c1[H])C([H])([H])C([H])([H])C([H])([H])C2([H])N([H])C(=O)C1([H])N(C(=O)C([H])(N([H])C(=O)C([H])(N([H])C([H])([H])[H])C([H])([H])[H])C(C([H])([H])[H])(C([H])([H])[H])C([H])([H])[H])C([H])([H])c2c([H])c(OC([H])([H])C([H])([H])C(=O)N3C([H])([H])C([H])([H])C([H])([H])C3([H])C(=O)N([H])C([H])([H])C([H])([H])C([H])([H])C([H])([H])C([H])(C(=O)N([H])C([H])([H])C([H])([H])C([H])([H])C([H])([H])N([H])C(=O)C([H])([H])N([H])C(=O)N3C([H])([H])C([H])([H])C([H])([H])C([H])(n4nc(-c5c([H])c([H])c(Oc6c([H])c([H])c(F)c([H])c6F)c([H])c5[H])c(C(=O)N([H])[H])c4N([H])[H])C3([H])[H])[N+]([H])([H])[H])c([H])c([H])c2C1([H])[H]

$$$$
82:0:0
     RDKit          3D

108115  0  0  1  0  0  0  0  0999 V2000
  -31.0460  -22.4870   20.4560 C   0  0  0  0  0  3  0  0  0  0  0  0
  -29.5300  -24.4500   20.1570 C   0  0  0  0  0  0  0  0  0  0  0  0
  -29.8460  -23.2840   20.7410 N   0  0  0  0  0  0  0  0  0  0  0  0
  -30.3090  -25.0280   19.3950 O   0  0  0  0  0  0  0  0  0  0  0  0
  -29.1430  -22.8590   21.3270 H   0  0  0  0  0  0  0  0  0  0  0  0
  -28.1390  -25.0310   20.4340 C   0  0  0  0  0  2  0  0  0  0  0  0
  -28.2260  -26.4540   20.4570 O   0  0  0  0  0  0  0  0  0  0  0  0
  -24.6230  -31.7970   23.4020 C   0  0  0  0  0  0  0  0  0  0  0  0
  -27.0530  -27.1730   20.4410 C   0  0  0  0  0  0  0  0  0  0  0  0
  -23.3430  -30.4100   21.8010 C   0  0  0  0  0  3  0  0  0  0  0  0
  -24.7180  -28.7640   20.4200 C   0  0  0  0  0  0  0  0  0  0  0  0
  -25.8800  -30.6510   21.5820 C   0  0  0  0  0  2  0  0  0  0  0  0
  -25.8990  -29.2610   20.9830 C   0  0  0  0  0  0  0  0  0  0  0  0
  -27.0680  -28.4740   20.9860 C   0  0  0  0  0  3  0  0  0  0  0  0
  -25.8500  -26.6780   19.8820 C   0  0  0  0  0  3  0  0  0  0  0  0
  -24.6860  -27.4720   19.8690 C   0  0  0  0  0  3  0  0  0  0  0  0
  -23.5140  -29.6800   20.4420 C   0  0  0  0  0  2  0  0  0  0  0  0
  -24.6350  -30.9670   22.3200 N   0  0  0  0  0  0  0  0  0  0  0  0
  -23.5580  -32.1340   23.9360 O   0  0  0  0  0  0  0  0  0  0  0  0
  -22.6490  -29.4470   22.7910 C   0  0  0  0  0  0  0  0  0  0  0  0
  -21.3370  -29.2360   22.5970 N   0  0  0  0  0  0  0  0  0  0  0  0
  -23.2900  -28.8890   23.6860 O   0  0  0  0  0  0  0  0  0  0  0  0
  -20.8830  -29.7370   21.8450 H   0  0  0  0  0  0  0  0  0  0  0  0
  -17.9760  -27.9510   22.8970 C   0  0  0  0  0  0  0  0  0  0  0  0
  -20.4840  -28.3430   23.3800 C   0  0  0  0  0  3  0  0  0  0  0  0
  -20.6910  -26.8690   22.9600 C   0  0  0  0  0  2  0  0  0  0  0  0
  -19.7030  -26.4040   21.8860 C   0  0  0  0  0  2  0  0  0  0  0  0
  -18.2620  -26.5510   22.3810 C   0  0  0  0  0  2  0  0  0  0  0  0
  -19.0210  -28.7980   23.3510 C   0  0  0  0  0  0  0  0  0  0  0  0
  -18.7050  -30.1020   23.7870 C   0  0  0  0  0  3  0  0  0  0  0  0
  -17.3750  -30.5630   23.7780 C   0  0  0  0  0  3  0  0  0  0  0  0
  -16.3420  -29.7140   23.3430 C   0  0  0  0  0  3  0  0  0  0  0  0
  -16.6420  -28.4110   22.9090 C   0  0  0  0  0  3  0  0  0  0  0  0
  -25.9400  -32.3790   24.0020 C   0  0  0  0  0  3  0  0  0  0  0  0
  -25.7110  -33.8050   24.2700 N   0  0  0  0  0  0  0  0  0  0  0  0
  -26.0760  -34.8000   23.4500 C   0  0  0  0  0  0  0  0  0  0  0  0
  -26.7140  -34.6110   22.4110 O   0  0  0  0  0  0  0  0  0  0  0  0
  -25.1440  -34.0280   25.0750 H   0  0  0  0  0  0  0  0  0  0  0  0
  -24.4140  -36.6450   23.0630 C   0  0  0  0  0  1  0  0  0  0  0  0
  -25.6690  -36.2310   23.8470 C   0  0  0  0  0  3  0  0  0  0  0  0
  -27.8710  -37.0630   24.5470 C   0  0  0  0  0  1  0  0  0  0  0  0
  -26.7410  -37.2280   23.6350 N   0  0  0  0  0  0  0  0  0  0  0  0
  -26.3820  -38.1730   23.7440 H   0  0  0  0  0  0  0  0  0  0  0  0
  -26.4110  -31.6330   25.3100 C   0  0  1  0  0  0  0  0  0  0  0  0
  -25.3020  -31.4890   26.3770 C   0  0  0  0  0  1  0  0  0  0  0  0
  -26.9280  -30.2160   24.9700 C   0  0  0  0  0  1  0  0  0  0  0  0
  -27.5950  -32.3950   25.9510 C   0  0  0  0  0  1  0  0  0  0  0  0
  -30.8260  -21.7130   19.1370 C   0  0  0  0  0  0  0  0  0  0  0  0
  -30.7160  -22.4550   18.0290 N   0  0  0  0  0  0  0  0  0  0  0  0
  -30.7180  -20.4850   19.1180 O   0  0  0  0  0  0  0  0  0  0  0  0
  -30.7800  -23.4590   18.1520 H   0  0  0  0  0  0  0  0  0  0  0  0
  -30.4770  -21.9610   16.6780 C   0  0  0  0  0  2  0  0  0  0  0  0
  -28.9970  -21.6040   16.4630 C   0  0  0  0  0  2  0  0  0  0  0  0
  -27.6020  -19.6150   16.9980 C   0  0  0  0  0  0  0  0  0  0  0  0
  -28.6800  -20.3780   17.1810 N   0  0  0  0  0  0  0  0  0  0  0  0
  -26.6810  -19.9310   16.2420 O   0  0  0  0  0  0  0  0  0  0  0  0
  -29.3470  -20.0590   17.8780 H   0  0  0  0  0  0  0  0  0  0  0  0
  -27.5740  -18.2860   17.7590 C   0  0  0  0  0  2  0  0  0  0  0  0
  -28.5850  -18.2730   18.7700 O   0  0  0  0  0  0  0  0  0  0  0  0
  -28.6470  -17.0070   19.3980 C   0  0  0  0  0  2  0  0  0  0  0  0
  -29.7140  -16.9400   20.5060 C   0  0  0  0  0  2  0  0  0  0  0  0
  -30.4610  -14.6090   20.4130 C   0  0  0  0  0  0  0  0  0  0  0  0
  -30.2180  -12.4270   19.3200 C   0  0  0  0  0  2  0  0  0  0  0  0
  -29.2240  -12.5710   18.1480 C   0  0  0  0  0  2  0  0  0  0  0  0
  -27.7770  -12.3610   18.6340 C   0  0  0  0  0  2  0  0  0  0  0  0
  -27.4430  -13.2130   19.8860 C   0  0  0  0  0  3  0  0  0  0  0  0
  -28.5440  -13.0660   20.9630 C   0  0  0  0  0  2  0  0  0  0  0  0
  -29.8420  -13.4050   20.3490 N   0  0  0  0  0  0  0  0  0  0  0  0
  -31.5000  -14.8820   19.8080 O   0  0  0  0  0  0  0  0  0  0  0  0
  -29.7500  -15.5710   21.0110 N   0  0  0  0  0  0  0  0  0  0  0  0
  -28.9490  -15.2670   21.5430 H   0  0  0  0  0  0  0  0  0  0  0  0
  -25.0570  -13.7190   20.7260 C   0  0  0  0  0  0  0  0  0  0  0  0
  -24.0350  -12.8990   21.1240 C   0  0  0  0  0  0  0  0  0  0  0  0
  -24.5400  -11.5660   21.0330 C   0  0  0  0  0  0  0  0  0  0  0  0
  -26.1210  -12.8830   20.4190 N   0  0  0  0  0  0  0  0  0  0  0  0
  -25.8140  -11.5820   20.6580 N   0  0  0  0  0  0  0  0  0  0  0  0
  -23.8710  -10.2730   21.2240 C   0  0  0  0  0  0  0  0  0  0  0  0
  -24.3520   -9.3200   22.1490 C   0  0  0  0  0  3  0  0  0  0  0  0
  -23.6820   -8.0910   22.3250 C   0  0  0  0  0  3  0  0  0  0  0  0
  -22.5160   -7.8040   21.5750 C   0  0  0  0  0  0  0  0  0  0  0  0
  -22.0570   -8.7440   20.6360 C   0  0  0  0  0  3  0  0  0  0  0  0
  -22.7290   -9.9650   20.4570 C   0  0  0  0  0  3  0  0  0  0  0  0
  -21.8150   -6.6280   21.6630 O   0  0  0  0  0  0  0  0  0  0  0  0
  -21.7630   -5.9050   22.8280 C   0  0  0  0  0  0  0  0  0  0  0  0
  -21.2540   -6.4540   24.0240 C   0  0  0  0  0  3  0  0  0  0  0  0
  -21.1570   -5.6540   25.1800 C   0  0  0  0  0  3  0  0  0  0  0  0
  -21.5580   -4.3050   25.1390 C   0  0  0  0  0  0  0  0  0  0  0  0
  -22.0610   -3.7550   23.9470 C   0  0  0  0  0  3  0  0  0  0  0  0
  -22.1610   -4.5530   22.7940 C   0  0  0  0  0  0  0  0  0  0  0  0
  -22.6280   -4.0140   21.6410 F   0  0  0  0  0  0  0  0  0  0  0  0
  -21.4560   -3.5330   26.2470 F   0  0  0  0  0  0  0  0  0  0  0  0
  -22.6370  -13.3170   21.4800 C   0  0  0  0  0  0  0  0  0  0  0  0
  -21.9790  -12.5690   22.3620 N   0  0  0  0  0  0  0  0  0  0  0  0
  -22.1360  -14.3400   21.0160 O   0  0  0  0  0  0  0  0  0  0  0  0
  -22.3990  -11.7420   22.7620 H   0  0  0  0  0  0  0  0  0  0  0  0
  -21.0430  -12.8290   22.6430 H   0  0  0  0  0  0  0  0  0  0  0  0
  -25.1660  -15.0990   20.5840 N   0  0  0  0  0  0  0  0  0  0  0  0
  -24.3850  -15.7210   20.7590 H   0  0  0  0  0  0  0  0  0  0  0  0
  -25.9870  -15.5790   20.2430 H   0  0  0  0  0  0  0  0  0  0  0  0
  -31.3030  -21.5100   21.6290 C   0  0  0  0  0  2  0  0  0  0  0  0
  -32.7540  -21.5470   22.1310 C   0  0  0  0  0  2  0  0  0  0  0  0
  -33.6600  -21.0140   21.0580 C   0  0  0  0  0  0  0  0  0  0  0  0
  -34.4700  -21.8460   20.3910 N   0  0  0  0  0  4  0  0  0  0  0  0
  -33.6290  -19.7090   20.7490 N   0  0  0  0  0  0  0  0  0  0  0  0
  -34.5080  -22.8300   20.6280 H   0  0  0  0  0  0  0  0  0  0  0  0
  -35.0950  -21.5470   19.6560 H   0  0  0  0  0  0  0  0  0  0  0  0
  -33.0360  -19.0750   21.2700 H   0  0  0  0  0  0  0  0  0  0  0  0
  -34.2000  -19.2950   20.0260 H   0  0  0  0  0  0  0  0  0  0  0  0
  1  3  1  0
  1100  1  0
  2  6  1  0
  2  3  1  0
  3  5  1  0
  4  2  2  0
  6  7  1  0
  8 19  2  0
  9  7  1  0
  9 14  1  0
 10 18  1  0
 10 20  1  0
 11 17  1  0
 11 13  1  0
 12 18  1  0
 13 14  2  0
 13 12  1  0
 15  9  2  0
 16 15  1  0
 16 11  2  0
 17 10  1  0
 18  8  1  0
 20 22  2  0
 21 20  1  0
 23 21  1  0
 24 33  2  0
 24 29  1  0
 25 21  1  0
 26 25  1  0
 27 28  1  0
 27 26  1  0
 28 24  1  0
 29 25  1  0
 29 30  2  0
 31 30  1  0
 32 31  2  0
 33 32  1  0
 34  8  1  0
 34 35  1  0
 34 44  1  0
 35 38  1  0
 36 40  1  0
 36 35  1  0
 37 36  2  0
 40 39  1  0
 42 43  1  0
 42 40  1  0
 42 41  1  0
 44 47  1  1
 44 45  1  0
 46 44  1  0
 48  1  1  0
 49 51  1  0
 49 48  1  0
 50 48  2  0
 52 49  1  0
 53 52  1  0
 53 55  1  0
 54 55  1  0
 54 58  1  0
 55 57  1  0
 56 54  2  0
 58 59  1  0
 59 60  1  0
 60 61  1  0
 61 70  1  0
 62 70  1  0
 63 68  1  0
 64 65  1  0
 64 63  1  0
 66 65  1  0
 66 75  1  0
 66 67  1  0
 68 62  1  0
 68 67  1  0
 69 62  2  0
 70 71  1  0
 72 73  2  0
 73 92  1  0
 74 73  1  0
 74 77  1  0
 75 76  1  0
 75 72  1  0
 76 74  2  0
 77 78  1  0
 78 79  2  0
 80 83  1  0
 80 79  1  0
 81 80  2  0
 82 81  1  0
 82 77  2  0
 83 84  1  0
 84 85  1  0
 85 86  2  0
 87 86  1  0
 87 91  1  0
 88 87  2  0
 89 84  2  0
 89 88  1  0
 90 89  1  0
 92 93  1  0
 93 96  1  0
 93 95  1  0
 94 92  2  0
 97 72  1  0
 97 98  1  0
 99 97  1  0
100101  1  0
102101  1  0
103105  1  0
103102  2  0
104102  1  0
104107  1  0
106103  1  0
108104  1  0
M  ISO  4   6 101   7 101  62 100  70 100
M  END
>  <TORSDO>  (77) 
F 29

>  <SCORE>  (77) 
-10.320

>  <name>  (77) 
82

>  <ligand_id>  (77) 
82

>  <original_smiles>  (77) 
[H]c1c([H])c([H])c2c(c1[H])C([H])([H])C([H])([H])C([H])([H])C2([H])N([H])C(=O)C1([H])N(C(=O)C([H])(N([H])C(=O)C([H])(N([H])C([H])([H])[H])C([H])([H])[H])C(C([H])([H])[H])(C([H])([H])[H])C([H])([H])[H])C([H])([H])c2c([H])c(OC([H])([H])C(=O)N([H])C([H])(C(=O)N([H])C([H])([H])C([H])([H])N([H])C(=O)C([H])([H])OC([H])([H])C([H])([H])N([H])C(=O)N3C([H])([H])C([H])([H])C([H])([H])C([H])(n4nc(-c5c([H])c([H])c(Oc6c([H])c([H])c(F)c([H])c6F)c([H])c5[H])c(C(=O)N([H])[H])c4N([H])[H])C3([H])[H])C([H])([H])C([H])([H])C(N([H])[H])=[N+]([H])[H])c([H])c([H])c2C1([H])[H]

>  <smiles>  (77) 
[H]c1c([H])c([H])c2c(c1[H])C([H])([H])C([H])([H])C([H])([H])C2([H])N([H])C(=O)C1([H])N(C(=O)C([H])(N([H])C(=O)C([H])(N([H])C([H])([H])[H])C([H])([H])[H])C(C([H])([H])[H])(C([H])([H])[H])C([H])([H])[H])C([H])([H])c2c([H])c(OC([H])([H])C(=O)N([H])C([H])(C(=O)N([H])C([H])([H])C([H])([H])N([H])C(=O)C([H])([H])OC([H])([H])C([H])([H])N([H])C(=O)N3C([H])([H])C([H])([H])C([H])([H])C([H])(n4nc(-c5c([H])c([H])c(Oc6c([H])c([H])c(F)c([H])c6F)c([H])c5[H])c(C(=O)N([H])[H])c4N([H])[H])C3([H])[H])C([H])([H])C([H])([H])C(N([H])[H])=[N+]([H])[H])c([H])c([H])c2C1([H])[H]

$$$$
83:0:0
     RDKit          3D

 97104  0  0  1  0  0  0  0  0999 V2000
  -27.4320  -23.4430   19.4210 N   0  0  0  0  0  4  0  0  0  0  0  0
  -26.8030  -23.4310   20.2080 H   0  0  0  0  0  0  0  0  0  0  0  0
  -27.0210  -24.0240   18.7050 H   0  0  0  0  0  0  0  0  0  0  0  0
  -28.7110  -24.1240   19.7720 C   0  0  0  0  0  3  0  0  0  0  0  0
  -29.5150  -24.4490   18.5050 C   0  0  0  0  0  0  0  0  0  0  0  0
  -30.8420  -24.4530   18.5610 N   0  0  0  0  0  0  0  0  0  0  0  0
  -28.9260  -24.6710   17.4470 O   0  0  0  0  0  0  0  0  0  0  0  0
  -31.3440  -24.2770   19.4230 H   0  0  0  0  0  0  0  0  0  0  0  0
  -31.3750  -24.6470   17.7240 H   0  0  0  0  0  0  0  0  0  0  0  0
  -28.5010  -25.3810   20.6820 C   0  0  0  0  0  2  0  0  0  0  0  0
  -28.4580  -26.6660   20.0340 O   0  0  0  0  0  0  0  0  0  0  0  0
  -24.6710  -31.8230   23.2290 C   0  0  0  0  0  0  0  0  0  0  0  0
  -27.2840  -27.3790   20.1130 C   0  0  0  0  0  0  0  0  0  0  0  0
  -23.4510  -30.4330   21.5850 C   0  0  0  0  0  3  0  0  0  0  0  0
  -24.8920  -28.8870   20.1560 C   0  0  0  0  0  0  0  0  0  0  0  0
  -25.9770  -30.7780   21.3810 C   0  0  0  0  0  2  0  0  0  0  0  0
  -26.0560  -29.4080   20.7350 C   0  0  0  0  0  0  0  0  0  0  0  0
  -27.2580  -28.6630   20.7090 C   0  0  0  0  0  3  0  0  0  0  0  0
  -26.1030  -26.8670   19.5390 C   0  0  0  0  0  3  0  0  0  0  0  0
  -24.9080  -27.6120   19.5620 C   0  0  0  0  0  3  0  0  0  0  0  0
  -23.6530  -29.7540   20.2040 C   0  0  0  0  0  2  0  0  0  0  0  0
  -24.7190  -31.0260   22.1240 N   0  0  0  0  0  0  0  0  0  0  0  0
  -23.5930  -32.0960   23.7750 O   0  0  0  0  0  0  0  0  0  0  0  0
  -22.8000  -29.4110   22.5440 C   0  0  0  0  0  0  0  0  0  0  0  0
  -21.4740  -29.2390   22.4250 N   0  0  0  0  0  0  0  0  0  0  0  0
  -23.4870  -28.7760   23.3490 O   0  0  0  0  0  0  0  0  0  0  0  0
  -20.9840  -29.8030   21.7460 H   0  0  0  0  0  0  0  0  0  0  0  0
  -18.0950  -28.0680   22.9360 C   0  0  0  0  0  0  0  0  0  0  0  0
  -20.6560  -28.3020   23.1950 C   0  0  0  0  0  3  0  0  0  0  0  0
  -20.7440  -26.8750   22.6080 C   0  0  0  0  0  2  0  0  0  0  0  0
  -19.6340  -26.5680   21.6000 C   0  0  0  0  0  2  0  0  0  0  0  0
  -18.2570  -26.7210   22.2510 C   0  0  0  0  0  2  0  0  0  0  0  0
  -19.2220  -28.8180   23.3650 C   0  0  0  0  0  0  0  0  0  0  0  0
  -19.0180  -30.0810   23.9640 C   0  0  0  0  0  3  0  0  0  0  0  0
  -17.7190  -30.5950   24.1350 C   0  0  0  0  0  3  0  0  0  0  0  0
  -16.6050  -29.8410   23.7250 C   0  0  0  0  0  3  0  0  0  0  0  0
  -16.7940  -28.5780   23.1330 C   0  0  0  0  0  3  0  0  0  0  0  0
  -25.9640  -32.4450   23.8450 C   0  0  0  0  0  3  0  0  0  0  0  0
  -26.4840  -31.6660   25.1140 C   0  0  1  0  0  0  0  0  0  0  0  0
  -25.3980  -31.4280   26.1880 C   0  0  0  0  0  1  0  0  0  0  0  0
  -27.0570  -30.2880   24.7090 C   0  0  0  0  0  1  0  0  0  0  0  0
  -27.6430  -32.4510   25.7730 C   0  0  0  0  0  1  0  0  0  0  0  0
  -25.6660  -33.8430   24.1830 N   0  0  0  0  0  0  0  0  0  0  0  0
  -25.9960  -34.8960   23.4230 C   0  0  0  0  0  0  0  0  0  0  0  0
  -26.6570  -34.7930   22.3860 O   0  0  0  0  0  0  0  0  0  0  0  0
  -25.0870  -33.9970   24.9940 H   0  0  0  0  0  0  0  0  0  0  0  0
  -24.2700  -36.6910   23.0820 C   0  0  0  0  0  1  0  0  0  0  0  0
  -25.5150  -36.2840   23.8870 C   0  0  0  0  0  3  0  0  0  0  0  0
  -27.6570  -37.1590   24.7030 C   0  0  0  0  0  1  0  0  0  0  0  0
  -26.5490  -37.3350   23.7680 N   0  0  0  0  0  0  0  0  0  0  0  0
  -26.1480  -38.2560   23.9210 H   0  0  0  0  0  0  0  0  0  0  0  0
  -27.5130  -22.0660   18.8500 C   0  0  0  0  0  2  0  0  0  0  0  0
  -28.1250  -20.9840   19.7850 C   0  0  0  0  0  2  0  0  0  0  0  0
  -28.1270  -19.5660   19.1580 C   0  0  0  0  0  2  0  0  0  0  0  0
  -28.6310  -18.4320   20.0800 C   0  0  0  0  0  2  0  0  0  0  0  0
  -30.0560  -18.3350   20.0590 O   0  0  0  0  0  0  0  0  0  0  0  0
  -30.4830  -18.1130   22.4660 C   0  0  0  0  0  1  0  0  0  0  0  0
  -30.6730  -17.5120   21.0660 C   0  0  0  0  0  3  0  0  0  0  0  0
  -30.2690  -16.0220   21.0160 C   0  0  0  0  0  2  0  0  0  0  0  0
  -31.5320  -14.2230   19.8540 C   0  0  0  0  0  0  0  0  0  0  0  0
  -31.0510  -11.9740   18.9950 C   0  0  0  0  0  2  0  0  0  0  0  0
  -30.0940  -12.1200   17.7940 C   0  0  0  0  0  2  0  0  0  0  0  0
  -28.6260  -12.1580   18.2650 C   0  0  0  0  0  2  0  0  0  0  0  0
  -28.3920  -13.1430   19.4440 C   0  0  0  0  0  3  0  0  0  0  0  0
  -29.4590  -12.9490   20.5430 C   0  0  0  0  0  2  0  0  0  0  0  0
  -30.7790  -13.0920   19.9100 N   0  0  0  0  0  0  0  0  0  0  0  0
  -32.6760  -14.2510   19.4050 O   0  0  0  0  0  0  0  0  0  0  0  0
  -30.8430  -15.3740   19.8450 N   0  0  0  0  0  0  0  0  0  0  0  0
  -31.2760  -16.0590   19.2410 H   0  0  0  0  0  0  0  0  0  0  0  0
  -26.1180  -14.0310   20.2550 C   0  0  0  0  0  0  0  0  0  0  0  0
  -24.9810  -13.3920   20.6650 C   0  0  0  0  0  0  0  0  0  0  0  0
  -25.2680  -11.9950   20.5990 C   0  0  0  0  0  0  0  0  0  0  0  0
  -27.0360  -13.0310   19.9750 N   0  0  0  0  0  0  0  0  0  0  0  0
  -26.5300  -11.7990   20.2370 N   0  0  0  0  0  0  0  0  0  0  0  0
  -24.4000  -10.8290   20.8040 C   0  0  0  0  0  0  0  0  0  0  0  0
  -24.7440   -9.8040   21.7150 C   0  0  0  0  0  3  0  0  0  0  0  0
  -23.8860   -8.6990   21.9050 C   0  0  0  0  0  3  0  0  0  0  0  0
  -22.6690   -8.6150   21.1890 C   0  0  0  0  0  0  0  0  0  0  0  0
  -22.3440   -9.6250   20.2640 C   0  0  0  0  0  3  0  0  0  0  0  0
  -23.2020  -10.7180   20.0700 C   0  0  0  0  0  3  0  0  0  0  0  0
  -21.7810   -7.5730   21.2970 O   0  0  0  0  0  0  0  0  0  0  0  0
  -21.6610   -6.8450   22.4550 C   0  0  0  0  0  0  0  0  0  0  0  0
  -21.3410   -7.4540   23.6880 C   0  0  0  0  0  3  0  0  0  0  0  0
  -21.1550   -6.6620   24.8380 C   0  0  0  0  0  3  0  0  0  0  0  0
  -21.2840   -5.2620   24.7570 C   0  0  0  0  0  0  0  0  0  0  0  0
  -21.6040   -4.6520   23.5310 C   0  0  0  0  0  3  0  0  0  0  0  0
  -21.7880   -5.4440   22.3820 C   0  0  0  0  0  0  0  0  0  0  0  0
  -22.0710   -4.8480   21.1990 F   0  0  0  0  0  0  0  0  0  0  0  0
  -21.1020   -4.4990   25.8610 F   0  0  0  0  0  0  0  0  0  0  0  0
  -23.6630  -14.0320   21.0020 C   0  0  0  0  0  0  0  0  0  0  0  0
  -22.9090  -13.4360   21.9190 N   0  0  0  0  0  0  0  0  0  0  0  0
  -23.3140  -15.0900   20.4800 O   0  0  0  0  0  0  0  0  0  0  0  0
  -23.2020  -12.5770   22.3630 H   0  0  0  0  0  0  0  0  0  0  0  0
  -22.0150  -13.8350   22.1720 H   0  0  0  0  0  0  0  0  0  0  0  0
  -26.4420  -15.3720   20.0710 N   0  0  0  0  0  0  0  0  0  0  0  0
  -25.7470  -16.1050   20.1500 H   0  0  0  0  0  0  0  0  0  0  0  0
  -27.2870  -15.6720   19.6030 H   0  0  0  0  0  0  0  0  0  0  0  0
  1  4  1  0
  1  2  1  0
  3  1  1  0
  4 10  1  0
  5  6  1  0
  5  4  1  0
  6  8  1  0
  7  5  2  0
  9  6  1  0
 11 13  1  0
 11 10  1  0
 12 23  2  0
 13 18  1  0
 14 22  1  0
 14 24  1  0
 15 21  1  0
 15 17  1  0
 16 22  1  0
 17 16  1  0
 18 17  2  0
 19 20  1  0
 19 13  2  0
 20 15  2  0
 21 14  1  0
 22 12  1  0
 24 26  2  0
 25 24  1  0
 27 25  1  0
 28 37  2  0
 28 33  1  0
 29 25  1  0
 29 33  1  0
 30 29  1  0
 31 32  1  0
 31 30  1  0
 32 28  1  0
 33 34  2  0
 34 35  1  0
 36 35  2  0
 37 36  1  0
 38 12  1  0
 38 43  1  0
 38 39  1  0
 39 42  1  1
 39 40  1  0
 41 39  1  0
 43 46  1  0
 44 48  1  0
 44 43  1  0
 45 44  2  0
 48 47  1  0
 50 48  1  0
 50 51  1  0
 50 49  1  0
 52  1  1  0
 52 53  1  0
 54 53  1  0
 54 55  1  0
 56 55  1  0
 56 58  1  0
 58 57  1  0
 59 58  1  0
 60 66  1  0
 61 66  1  0
 62 63  1  0
 62 61  1  0
 64 63  1  0
 64 73  1  0
 64 65  1  0
 66 65  1  0
 67 60  2  0
 68 60  1  0
 68 59  1  0
 69 68  1  0
 70 71  2  0
 71 90  1  0
 72 71  1  0
 72 75  1  0
 73 74  1  0
 73 70  1  0
 74 72  2  0
 75 76  1  0
 76 77  2  0
 78 81  1  0
 78 77  1  0
 79 78  2  0
 80 79  1  0
 80 75  2  0
 81 82  1  0
 82 83  1  0
 83 84  2  0
 85 84  1  0
 85 89  1  0
 86 85  2  0
 87 82  2  0
 87 86  1  0
 88 87  1  0
 90 91  1  0
 91 94  1  0
 91 93  1  0
 92 90  2  0
 95 96  1  0
 95 70  1  0
 97 95  1  0
M  ISO  4  10 101  11 101  60 100  68 100
M  END
>  <TORSDO>  (78) 
F 26

>  <SCORE>  (78) 
-11.295

>  <name>  (78) 
83

>  <ligand_id>  (78) 
83

>  <original_smiles>  (78) 
[H]c1c([H])c([H])c2c(c1[H])C([H])([H])C([H])([H])C([H])([H])C2([H])N([H])C(=O)C1([H])N(C(=O)C([H])(N([H])C(=O)C([H])(N([H])C([H])([H])[H])C([H])([H])[H])C(C([H])([H])[H])(C([H])([H])[H])C([H])([H])[H])C([H])([H])c2c([H])c(OC([H])([H])C([H])(C(=O)N([H])[H])[N+]([H])([H])C([H])([H])C([H])([H])C([H])([H])C([H])([H])OC([H])(C([H])([H])[H])C([H])([H])N([H])C(=O)N3C([H])([H])C([H])([H])C([H])([H])C([H])(n4nc(-c5c([H])c([H])c(Oc6c([H])c([H])c(F)c([H])c6F)c([H])c5[H])c(C(=O)N([H])[H])c4N([H])[H])C3([H])[H])c([H])c([H])c2C1([H])[H]

>  <smiles>  (78) 
[H]c1c([H])c([H])c2c(c1[H])C([H])([H])C([H])([H])C([H])([H])C2([H])N([H])C(=O)C1([H])N(C(=O)C([H])(N([H])C(=O)C([H])(N([H])C([H])([H])[H])C([H])([H])[H])C(C([H])([H])[H])(C([H])([H])[H])C([H])([H])[H])C([H])([H])c2c([H])c(OC([H])([H])C([H])(C(=O)N([H])[H])[N+]([H])([H])C([H])([H])C([H])([H])C([H])([H])C([H])([H])OC([H])(C([H])([H])[H])C([H])([H])N([H])C(=O)N3C([H])([H])C([H])([H])C([H])([H])C([H])(n4nc(-c5c([H])c([H])c(Oc6c([H])c([H])c(F)c([H])c6F)c([H])c5[H])c(C(=O)N([H])[H])c4N([H])[H])C3([H])[H])c([H])c([H])c2C1([H])[H]

$$$$
84:0:0
     RDKit          3D

 96103  0  0  1  0  0  0  0  0999 V2000
  -30.2560  -21.8330   20.4760 C   0  0  0  0  0  3  0  0  0  0  0  0
  -31.6240  -22.1390   19.8260 C   0  0  0  0  0  0  0  0  0  0  0  0
  -32.7310  -21.8200   20.4890 N   0  0  0  0  0  0  0  0  0  0  0  0
  -31.6860  -22.6480   18.7060 O   0  0  0  0  0  0  0  0  0  0  0  0
  -32.6890  -21.3870   21.3990 H   0  0  0  0  0  0  0  0  0  0  0  0
  -33.6370  -22.0050   20.0790 H   0  0  0  0  0  0  0  0  0  0  0  0
  -29.3370  -24.2260   20.4320 C   0  0  0  0  0  0  0  0  0  0  0  0
  -29.2960  -22.9080   20.1010 N   0  0  0  0  0  0  0  0  0  0  0  0
  -30.1880  -24.6850   21.2000 O   0  0  0  0  0  0  0  0  0  0  0  0
  -28.5760  -22.6410   19.4450 H   0  0  0  0  0  0  0  0  0  0  0  0
  -28.2660  -25.1610   19.7980 C   0  0  0  0  0  2  0  0  0  0  0  0
  -28.3550  -26.5640   20.1970 O   0  0  0  0  0  0  0  0  0  0  0  0
  -24.5630  -31.8660   23.1820 C   0  0  0  0  0  0  0  0  0  0  0  0
  -27.2020  -27.3520   20.1270 C   0  0  0  0  0  0  0  0  0  0  0  0
  -23.3640  -30.4680   21.5330 C   0  0  0  0  0  3  0  0  0  0  0  0
  -24.8230  -28.9250   20.1110 C   0  0  0  0  0  0  0  0  0  0  0  0
  -25.9010  -30.7960   21.3630 C   0  0  0  0  0  2  0  0  0  0  0  0
  -25.9820  -29.4220   20.7190 C   0  0  0  0  0  0  0  0  0  0  0  0
  -27.1720  -28.6440   20.7220 C   0  0  0  0  0  3  0  0  0  0  0  0
  -26.0220  -26.9010   19.4860 C   0  0  0  0  0  3  0  0  0  0  0  0
  -24.8440  -27.6730   19.4820 C   0  0  0  0  0  3  0  0  0  0  0  0
  -23.5820  -29.7930   20.1530 C   0  0  0  0  0  2  0  0  0  0  0  0
  -24.6270  -31.0580   22.0840 N   0  0  0  0  0  0  0  0  0  0  0  0
  -23.4780  -32.1450   23.7130 O   0  0  0  0  0  0  0  0  0  0  0  0
  -22.6970  -29.4510   22.4880 C   0  0  0  0  0  0  0  0  0  0  0  0
  -21.3740  -29.2670   22.3440 N   0  0  0  0  0  0  0  0  0  0  0  0
  -23.3670  -28.8330   23.3190 O   0  0  0  0  0  0  0  0  0  0  0  0
  -20.8910  -29.8180   21.6480 H   0  0  0  0  0  0  0  0  0  0  0  0
  -17.9950  -28.0670   22.8040 C   0  0  0  0  0  0  0  0  0  0  0  0
  -20.5480  -28.3340   23.1100 C   0  0  0  0  0  3  0  0  0  0  0  0
  -20.6620  -26.8970   22.5500 C   0  0  0  0  0  2  0  0  0  0  0  0
  -19.5770  -26.5650   21.5190 C   0  0  0  0  0  2  0  0  0  0  0  0
  -18.1850  -26.7140   22.1390 C   0  0  0  0  0  2  0  0  0  0  0  0
  -19.1060  -28.8350   23.2470 C   0  0  0  0  0  0  0  0  0  0  0  0
  -18.8750  -30.1010   23.8290 C   0  0  0  0  0  3  0  0  0  0  0  0
  -17.5670  -30.6020   23.9650 C   0  0  0  0  0  3  0  0  0  0  0  0
  -16.4710  -29.8310   23.5380 C   0  0  0  0  0  3  0  0  0  0  0  0
  -16.6860  -28.5640   22.9680 C   0  0  0  0  0  3  0  0  0  0  0  0
  -25.8460  -32.4960   23.8080 C   0  0  0  0  0  3  0  0  0  0  0  0
  -25.5250  -33.8820   24.1810 N   0  0  0  0  0  0  0  0  0  0  0  0
  -25.8510  -34.9580   23.4530 C   0  0  0  0  0  0  0  0  0  0  0  0
  -26.5240  -34.8880   22.4200 O   0  0  0  0  0  0  0  0  0  0  0  0
  -24.9290  -34.0080   24.9860 H   0  0  0  0  0  0  0  0  0  0  0  0
  -24.1250  -36.7540   23.1260 C   0  0  0  0  0  1  0  0  0  0  0  0
  -25.3520  -36.3280   23.9480 C   0  0  0  0  0  3  0  0  0  0  0  0
  -27.4710  -37.1830   24.8450 C   0  0  0  0  0  1  0  0  0  0  0  0
  -26.3850  -37.3870   23.8900 N   0  0  0  0  0  0  0  0  0  0  0  0
  -25.9750  -38.3000   24.0680 H   0  0  0  0  0  0  0  0  0  0  0  0
  -26.3810  -31.6960   25.0580 C   0  0  1  0  0  0  0  0  0  0  0  0
  -25.2960  -31.4030   26.1210 C   0  0  0  0  0  1  0  0  0  0  0  0
  -26.9840  -30.3430   24.6190 C   0  0  0  0  0  1  0  0  0  0  0  0
  -27.5240  -32.4870   25.7350 C   0  0  0  0  0  1  0  0  0  0  0  0
  -29.7730  -20.4150   19.9830 C   0  0  0  0  0  2  0  0  0  0  0  0
  -30.5640  -19.1630   20.5200 C   0  0  0  0  0  2  0  0  0  0  0  0
  -30.8870  -18.0100   19.5070 C   0  0  0  0  0  2  0  0  0  0  0  0
  -30.0300  -16.7020   19.5870 C   0  0  0  0  0  2  0  0  0  0  0  0
  -31.1220  -14.4990   19.5860 C   0  0  0  0  0  0  0  0  0  0  0  0
  -30.6540  -12.3070   18.5400 C   0  0  0  0  0  2  0  0  0  0  0  0
  -29.6210  -12.4930   17.4050 C   0  0  0  0  0  2  0  0  0  0  0  0
  -28.1850  -12.4100   17.9590 C   0  0  0  0  0  2  0  0  0  0  0  0
  -27.9730  -13.3230   19.1940 C   0  0  0  0  0  3  0  0  0  0  0  0
  -29.1010  -13.0960   20.2240 C   0  0  0  0  0  2  0  0  0  0  0  0
  -30.4010  -13.3360   19.5650 N   0  0  0  0  0  0  0  0  0  0  0  0
  -32.1270  -14.6530   18.8840 O   0  0  0  0  0  0  0  0  0  0  0  0
  -30.7390  -15.5840   21.6770 C   0  0  0  0  0  0  0  0  0  0  0  0
  -31.5600  -14.5320   22.4360 C   0  0  0  0  0  1  0  0  0  0  0  0
  -30.6310  -15.5400   20.3190 N   0  0  0  0  0  0  0  0  0  0  0  0
  -30.1980  -16.4650   22.3510 O   0  0  0  0  0  0  0  0  0  0  0  0
  -25.6940  -14.0780   20.1370 C   0  0  0  0  0  0  0  0  0  0  0  0
  -24.6160  -13.3710   20.6020 C   0  0  0  0  0  0  0  0  0  0  0  0
  -24.9840  -11.9910   20.5150 C   0  0  0  0  0  0  0  0  0  0  0  0
  -26.6530  -13.1330   19.7950 N   0  0  0  0  0  0  0  0  0  0  0  0
  -26.2330  -11.8730   20.0800 N   0  0  0  0  0  0  0  0  0  0  0  0
  -24.2010  -10.7740   20.7620 C   0  0  0  0  0  0  0  0  0  0  0  0
  -24.6270   -9.7970   21.6900 C   0  0  0  0  0  3  0  0  0  0  0  0
  -23.8480   -8.6440   21.9260 C   0  0  0  0  0  3  0  0  0  0  0  0
  -22.6260   -8.4580   21.2360 C   0  0  0  0  0  0  0  0  0  0  0  0
  -22.2170   -9.4230   20.2970 C   0  0  0  0  0  3  0  0  0  0  0  0
  -22.9960  -10.5670   20.0580 C   0  0  0  0  0  3  0  0  0  0  0  0
  -21.8170   -7.3560   21.3790 O   0  0  0  0  0  0  0  0  0  0  0  0
  -21.7610   -6.6560   22.5550 C   0  0  0  0  0  0  0  0  0  0  0  0
  -21.4160   -7.2770   23.7760 C   0  0  0  0  0  3  0  0  0  0  0  0
  -21.3020   -6.5040   24.9500 C   0  0  0  0  0  3  0  0  0  0  0  0
  -21.5220   -5.1160   24.9040 C   0  0  0  0  0  0  0  0  0  0  0  0
  -21.8620   -4.4960   23.6890 C   0  0  0  0  0  3  0  0  0  0  0  0
  -21.9800   -5.2650   22.5180 C   0  0  0  0  0  0  0  0  0  0  0  0
  -22.2880   -4.6600   21.3450 F   0  0  0  0  0  0  0  0  0  0  0  0
  -21.4030   -4.3720   26.0300 F   0  0  0  0  0  0  0  0  0  0  0  0
  -23.2850  -13.9310   21.0090 C   0  0  0  0  0  0  0  0  0  0  0  0
  -22.6170  -13.2980   21.9690 N   0  0  0  0  0  0  0  0  0  0  0  0
  -22.8480  -14.9680   20.5090 O   0  0  0  0  0  0  0  0  0  0  0  0
  -22.9870  -12.4660   22.4050 H   0  0  0  0  0  0  0  0  0  0  0  0
  -21.7240  -13.6550   22.2790 H   0  0  0  0  0  0  0  0  0  0  0  0
  -25.9330  -15.4360   19.9640 N   0  0  0  0  0  0  0  0  0  0  0  0
  -25.2260  -16.1370   20.1540 H   0  0  0  0  0  0  0  0  0  0  0  0
  -26.7830  -15.8280   19.5790 H   0  0  0  0  0  0  0  0  0  0  0  0
  1 53  1  0
  2  1  1  0
  2  3  1  0
  3  5  1  0
  4  2  2  0
  6  3  1  0
  7  9  2  0
  8  7  1  0
  8  1  1  0
 10  8  1  0
 11 12  1  0
 11  7  1  0
 13 24  2  0
 14 12  1  0
 14 19  1  0
 15 23  1  0
 15 25  1  0
 16 22  1  0
 16 18  1  0
 17 23  1  0
 18 19  2  0
 18 17  1  0
 20 14  2  0
 21 20  1  0
 21 16  2  0
 22 15  1  0
 23 13  1  0
 25 27  2  0
 26 25  1  0
 28 26  1  0
 29 38  2  0
 29 34  1  0
 30 26  1  0
 30 34  1  0
 31 30  1  0
 32 33  1  0
 32 31  1  0
 33 29  1  0
 34 35  2  0
 35 36  1  0
 37 36  2  0
 38 37  1  0
 39 13  1  0
 39 40  1  0
 39 49  1  0
 40 43  1  0
 41 45  1  0
 41 40  1  0
 42 41  2  0
 45 44  1  0
 47 45  1  0
 47 48  1  0
 47 46  1  0
 49 52  1  1
 49 50  1  0
 51 49  1  0
 53 54  1  0
 55 56  1  0
 55 54  1  0
 56 67  1  0
 57 67  1  0
 58 63  1  0
 59 60  1  0
 59 58  1  0
 61 60  1  0
 61 72  1  0
 61 62  1  0
 63 57  1  0
 63 62  1  0
 64 57  2  0
 65 68  2  0
 65 66  1  0
 67 65  1  0
 69 70  2  0
 70 89  1  0
 71 70  1  0
 71 74  1  0
 72 73  1  0
 72 69  1  0
 73 71  2  0
 74 75  1  0
 75 76  2  0
 77 80  1  0
 77 76  1  0
 78 77  2  0
 79 78  1  0
 79 74  2  0
 80 81  1  0
 81 82  1  0
 82 83  2  0
 84 83  1  0
 84 88  1  0
 85 84  2  0
 86 81  2  0
 86 85  1  0
 87 86  1  0
 89 90  1  0
 90 93  1  0
 90 92  1  0
 91 89  2  0
 94 69  1  0
 94 95  1  0
 96 94  1  0
M  ISO  4  11 101  12 101  57 100  67 100
M  END
>  <TORSDO>  (79) 
F 23

>  <SCORE>  (79) 
-11.529

>  <name>  (79) 
84

>  <ligand_id>  (79) 
84

>  <original_smiles>  (79) 
[H]c1c([H])c([H])c2c(c1[H])C([H])([H])C([H])([H])C([H])([H])C2([H])N([H])C(=O)C1([H])N(C(=O)C([H])(N([H])C(=O)C([H])(N([H])C([H])([H])[H])C([H])([H])[H])C(C([H])([H])[H])(C([H])([H])[H])C([H])([H])[H])C([H])([H])c2c([H])c(OC([H])([H])C(=O)N([H])C([H])(C(=O)N([H])[H])C([H])([H])C([H])([H])C([H])([H])C([H])([H])N(C(=O)N3C([H])([H])C([H])([H])C([H])([H])C([H])(n4nc(-c5c([H])c([H])c(Oc6c([H])c([H])c(F)c([H])c6F)c([H])c5[H])c(C(=O)N([H])[H])c4N([H])[H])C3([H])[H])C(=O)C([H])([H])[H])c([H])c([H])c2C1([H])[H]

>  <smiles>  (79) 
[H]c1c([H])c([H])c2c(c1[H])C([H])([H])C([H])([H])C([H])([H])C2([H])N([H])C(=O)C1([H])N(C(=O)C([H])(N([H])C(=O)C([H])(N([H])C([H])([H])[H])C([H])([H])[H])C(C([H])([H])[H])(C([H])([H])[H])C([H])([H])[H])C([H])([H])c2c([H])c(OC([H])([H])C(=O)N([H])C([H])(C(=O)N([H])[H])C([H])([H])C([H])([H])C([H])([H])C([H])([H])N(C(=O)N3C([H])([H])C([H])([H])C([H])([H])C([H])(n4nc(-c5c([H])c([H])c(Oc6c([H])c([H])c(F)c([H])c6F)c([H])c5[H])c(C(=O)N([H])[H])c4N([H])[H])C3([H])[H])C(=O)C([H])([H])[H])c([H])c([H])c2C1([H])[H]

$$$$
85:0:0
     RDKit          3D

 98106  0  0  1  0  0  0  0  0999 V2000
  -29.7090  -20.7240   20.0400 C   0  0  0  0  0  0  0  0  0  0  0  0
  -29.6740  -21.5610   18.9960 N   0  0  0  0  0  0  0  0  0  0  0  0
  -28.7140  -20.4860   20.7290 O   0  0  0  0  0  0  0  0  0  0  0  0
  -30.5360  -21.7060   18.4880 H   0  0  0  0  0  0  0  0  0  0  0  0
  -30.5960  -17.6920   20.9030 C   0  0  0  0  0  0  0  0  0  0  0  0
  -31.7780  -20.7920   22.5660 C   0  0  0  0  0  2  0  0  0  0  0  0
  -31.9930  -21.0810   21.0880 C   0  0  0  0  0  2  0  0  0  0  0  0
  -31.4690  -19.2950   22.6140 C   0  0  0  0  0  2  0  0  0  0  0  0
  -31.0770  -20.0850   20.3580 C   0  0  0  0  0  3  0  0  0  0  0  0
  -30.9960  -18.9330   21.2700 N   0  0  0  0  0  0  0  0  0  0  0  0
  -30.1480  -17.4510   19.7760 O   0  0  0  0  0  0  0  0  0  0  0  0
  -30.7380  -16.5520   21.9340 C   0  0  0  0  0  2  0  0  0  0  0  0
  -30.7370  -14.4200   20.6130 C   0  0  0  0  0  0  0  0  0  0  0  0
  -30.4020  -12.3280   19.3440 C   0  0  0  0  0  2  0  0  0  0  0  0
  -29.4780  -12.5680   18.1340 C   0  0  0  0  0  2  0  0  0  0  0  0
  -27.9950  -12.4350   18.5420 C   0  0  0  0  0  2  0  0  0  0  0  0
  -27.6520  -13.2570   19.8130 C   0  0  0  0  0  3  0  0  0  0  0  0
  -28.6850  -12.9840   20.9300 C   0  0  0  0  0  2  0  0  0  0  0  0
  -30.0290  -13.2800   20.3980 N   0  0  0  0  0  0  0  0  0  0  0  0
  -31.8020  -14.6760   20.0450 O   0  0  0  0  0  0  0  0  0  0  0  0
  -30.1930  -15.2600   21.5040 N   0  0  0  0  0  0  0  0  0  0  0  0
  -29.3150  -14.9790   21.9100 H   0  0  0  0  0  0  0  0  0  0  0  0
  -25.2450  -13.8920   20.4790 C   0  0  0  0  0  0  0  0  0  0  0  0
  -24.1650  -13.1310   20.8410 C   0  0  0  0  0  0  0  0  0  0  0  0
  -24.6160  -11.7760   20.8270 C   0  0  0  0  0  0  0  0  0  0  0  0
  -26.2850  -13.0000   20.2710 N   0  0  0  0  0  0  0  0  0  0  0  0
  -25.9080  -11.7220   20.5340 N   0  0  0  0  0  0  0  0  0  0  0  0
  -23.8770  -10.5220   21.0180 C   0  0  0  0  0  0  0  0  0  0  0  0
  -24.2930   -9.5580   21.9610 C   0  0  0  0  0  3  0  0  0  0  0  0
  -23.5640   -8.3640   22.1400 C   0  0  0  0  0  3  0  0  0  0  0  0
  -22.3990   -8.1240   21.3730 C   0  0  0  0  0  0  0  0  0  0  0  0
  -22.0000   -9.0760   20.4170 C   0  0  0  0  0  3  0  0  0  0  0  0
  -22.7320  -10.2610   20.2380 C   0  0  0  0  0  3  0  0  0  0  0  0
  -21.6370   -6.9850   21.4610 O   0  0  0  0  0  0  0  0  0  0  0  0
  -21.5710   -6.2480   22.6160 C   0  0  0  0  0  0  0  0  0  0  0  0
  -21.1370   -6.8110   23.8350 C   0  0  0  0  0  3  0  0  0  0  0  0
  -21.0220   -5.9990   24.9820 C   0  0  0  0  0  3  0  0  0  0  0  0
  -21.3260   -4.6280   24.9090 C   0  0  0  0  0  0  0  0  0  0  0  0
  -21.7530   -4.0640   23.6940 C   0  0  0  0  0  3  0  0  0  0  0  0
  -21.8710   -4.8720   22.5490 C   0  0  0  0  0  0  0  0  0  0  0  0
  -22.2600   -4.3220   21.3740 F   0  0  0  0  0  0  0  0  0  0  0  0
  -21.2080   -3.8460   26.0070 F   0  0  0  0  0  0  0  0  0  0  0  0
  -22.7660  -13.6180   21.0890 C   0  0  0  0  0  0  0  0  0  0  0  0
  -22.0190  -12.9320   21.9490 N   0  0  0  0  0  0  0  0  0  0  0  0
  -22.3420  -14.6420   20.5550 O   0  0  0  0  0  0  0  0  0  0  0  0
  -22.3730  -12.1060   22.4070 H   0  0  0  0  0  0  0  0  0  0  0  0
  -21.0760  -13.2360   22.1470 H   0  0  0  0  0  0  0  0  0  0  0  0
  -25.4260  -15.2590   20.2930 N   0  0  0  0  0  0  0  0  0  0  0  0
  -24.6780  -15.9340   20.4080 H   0  0  0  0  0  0  0  0  0  0  0  0
  -26.2930  -15.6830   19.9830 H   0  0  0  0  0  0  0  0  0  0  0  0
  -28.4910  -22.2490   18.4920 C   0  0  0  0  0  2  0  0  0  0  0  0
  -28.8880  -23.4680   17.6410 C   0  0  0  0  0  2  0  0  0  0  0  0
  -29.1360  -25.9110   18.0250 C   0  0  0  0  0  0  0  0  0  0  0  0
  -29.0880  -24.6490   18.4750 N   0  0  0  0  0  0  0  0  0  0  0  0
  -29.0710  -26.1900   16.8250 O   0  0  0  0  0  0  0  0  0  0  0  0
  -29.1700  -24.5090   19.4740 H   0  0  0  0  0  0  0  0  0  0  0  0
  -29.2780  -27.0230   19.0730 C   0  0  0  0  0  2  0  0  0  0  0  0
  -28.4020  -26.7680   20.1690 O   0  0  0  0  0  0  0  0  0  0  0  0
  -24.5520  -31.8980   23.2300 C   0  0  0  0  0  0  0  0  0  0  0  0
  -27.2380  -27.4920   20.1610 C   0  0  0  0  0  0  0  0  0  0  0  0
  -23.3550  -30.4860   21.5850 C   0  0  0  0  0  3  0  0  0  0  0  0
  -24.8260  -28.9520   20.1710 C   0  0  0  0  0  0  0  0  0  0  0  0
  -25.8770  -30.8640   21.3940 C   0  0  0  0  0  2  0  0  0  0  0  0
  -25.9740  -29.4930   20.7610 C   0  0  0  0  0  0  0  0  0  0  0  0
  -27.1840  -28.7670   20.7590 C   0  0  0  0  0  3  0  0  0  0  0  0
  -26.0750  -26.9460   19.5820 C   0  0  0  0  0  3  0  0  0  0  0  0
  -24.8690  -27.6760   19.5790 C   0  0  0  0  0  3  0  0  0  0  0  0
  -23.5720  -29.7950   20.2100 C   0  0  0  0  0  2  0  0  0  0  0  0
  -24.6140  -31.0980   22.1290 N   0  0  0  0  0  0  0  0  0  0  0  0
  -23.4690  -32.1660   23.7670 O   0  0  0  0  0  0  0  0  0  0  0  0
  -22.7060  -29.4670   22.5480 C   0  0  0  0  0  0  0  0  0  0  0  0
  -21.3800  -29.2860   22.4230 N   0  0  0  0  0  0  0  0  0  0  0  0
  -23.3900  -28.8410   23.3600 O   0  0  0  0  0  0  0  0  0  0  0  0
  -20.8870  -29.8460   21.7420 H   0  0  0  0  0  0  0  0  0  0  0  0
  -18.0020  -28.1160   22.9360 C   0  0  0  0  0  0  0  0  0  0  0  0
  -20.5640  -28.3490   23.1930 C   0  0  0  0  0  3  0  0  0  0  0  0
  -20.6500  -26.9210   22.6040 C   0  0  0  0  0  2  0  0  0  0  0  0
  -19.5380  -26.6170   21.5950 C   0  0  0  0  0  2  0  0  0  0  0  0
  -18.1620  -26.7700   22.2510 C   0  0  0  0  0  2  0  0  0  0  0  0
  -19.1300  -28.8650   23.3640 C   0  0  0  0  0  0  0  0  0  0  0  0
  -18.9270  -30.1280   23.9630 C   0  0  0  0  0  3  0  0  0  0  0  0
  -17.6270  -30.6390   24.1410 C   0  0  0  0  0  3  0  0  0  0  0  0
  -16.5140  -29.8850   23.7330 C   0  0  0  0  0  3  0  0  0  0  0  0
  -16.7020  -28.6260   23.1330 C   0  0  0  0  0  3  0  0  0  0  0  0
  -25.8340  -32.5370   23.8510 C   0  0  0  0  0  3  0  0  0  0  0  0
  -25.5210  -33.9330   24.1790 N   0  0  0  0  0  0  0  0  0  0  0  0
  -25.8670  -34.9860   23.4260 C   0  0  0  0  0  0  0  0  0  0  0  0
  -26.5540  -34.8840   22.4060 O   0  0  0  0  0  0  0  0  0  0  0  0
  -24.9130  -34.0860   24.9690 H   0  0  0  0  0  0  0  0  0  0  0  0
  -24.1570  -36.7870   23.0310 C   0  0  0  0  0  1  0  0  0  0  0  0
  -25.3720  -36.3740   23.8760 C   0  0  0  0  0  3  0  0  0  0  0  0
  -27.4860  -37.2450   24.7720 C   0  0  0  0  0  1  0  0  0  0  0  0
  -26.4110  -37.4240   23.7980 N   0  0  0  0  0  0  0  0  0  0  0  0
  -26.0040  -38.3430   23.9410 H   0  0  0  0  0  0  0  0  0  0  0  0
  -26.3570  -31.7670   25.1270 C   0  0  1  0  0  0  0  0  0  0  0  0
  -25.2670  -31.5230   26.1960 C   0  0  0  0  0  1  0  0  0  0  0  0
  -26.9460  -30.3930   24.7340 C   0  0  0  0  0  1  0  0  0  0  0  0
  -27.5010  -32.5700   25.7930 C   0  0  0  0  0  1  0  0  0  0  0  0
  1  3  2  0
  2  1  1  0
  4  2  1  0
  5 10  1  0
  5 12  1  0
  6  8  1  0
  7  6  1  0
  9  1  1  0
  9  7  1  0
  9 10  1  0
 10  8  1  0
 11  5  2  0
 13 21  1  0
 14 19  1  0
 15 16  1  0
 15 14  1  0
 17 16  1  0
 17 26  1  0
 17 18  1  0
 19 13  1  0
 19 18  1  0
 20 13  2  0
 21 22  1  0
 21 12  1  0
 23 24  2  0
 24 43  1  0
 25 24  1  0
 25 28  1  0
 26 23  1  0
 26 27  1  0
 27 25  2  0
 28 29  1  0
 29 30  2  0
 31 34  1  0
 31 30  1  0
 32 31  2  0
 33 32  1  0
 33 28  2  0
 34 35  1  0
 35 36  1  0
 36 37  2  0
 38 37  1  0
 38 42  1  0
 39 38  2  0
 40 35  2  0
 40 39  1  0
 41 40  1  0
 43 44  1  0
 44 47  1  0
 44 46  1  0
 45 43  2  0
 48 49  1  0
 48 23  1  0
 50 48  1  0
 51  2  1  0
 52 54  1  0
 52 51  1  0
 53 54  1  0
 53 57  1  0
 54 56  1  0
 55 53  2  0
 57 58  1  0
 59 70  2  0
 60 58  1  0
 60 65  1  0
 61 69  1  0
 61 71  1  0
 62 68  1  0
 62 64  1  0
 63 69  1  0
 64 63  1  0
 65 64  2  0
 66 60  2  0
 67 66  1  0
 67 62  2  0
 68 61  1  0
 69 59  1  0
 71 73  2  0
 72 71  1  0
 74 72  1  0
 75 84  2  0
 75 80  1  0
 76 72  1  0
 76 80  1  0
 77 76  1  0
 78 79  1  0
 78 77  1  0
 79 75  1  0
 80 81  2  0
 81 82  1  0
 83 82  2  0
 84 83  1  0
 85 59  1  0
 85 86  1  0
 85 95  1  0
 86 89  1  0
 87 91  1  0
 87 86  1  0
 88 87  2  0
 91 90  1  0
 93 91  1  0
 93 94  1  0
 93 92  1  0
 95 98  1  1
 95 96  1  0
 97 95  1  0
M  ISO  4  13 100  21 100  57 101  58 101
M  END
>  <TORSDO>  (80) 
F 22

>  <SCORE>  (80) 
-13.636

>  <name>  (80) 
85

>  <ligand_id>  (80) 
85

>  <original_smiles>  (80) 
[H]c1c([H])c([H])c2c(c1[H])C([H])([H])C([H])([H])C([H])([H])C2([H])N([H])C(=O)C1([H])N(C(=O)C([H])(N([H])C(=O)C([H])(N([H])C([H])([H])[H])C([H])([H])[H])C(C([H])([H])[H])(C([H])([H])[H])C([H])([H])[H])C([H])([H])c2c([H])c(OC([H])([H])C(=O)N([H])C([H])([H])C([H])([H])N([H])C(=O)C3([H])N(C(=O)C([H])([H])N([H])C(=O)N4C([H])([H])C([H])([H])C([H])([H])C([H])(n5nc(-c6c([H])c([H])c(Oc7c([H])c([H])c(F)c([H])c7F)c([H])c6[H])c(C(=O)N([H])[H])c5N([H])[H])C4([H])[H])C([H])([H])C([H])([H])C3([H])[H])c([H])c([H])c2C1([H])[H]

>  <smiles>  (80) 
[H]c1c([H])c([H])c2c(c1[H])C([H])([H])C([H])([H])C([H])([H])C2([H])N([H])C(=O)C1([H])N(C(=O)C([H])(N([H])C(=O)C([H])(N([H])C([H])([H])[H])C([H])([H])[H])C(C([H])([H])[H])(C([H])([H])[H])C([H])([H])[H])C([H])([H])c2c([H])c(OC([H])([H])C(=O)N([H])C([H])([H])C([H])([H])N([H])C(=O)C3([H])N(C(=O)C([H])([H])N([H])C(=O)N4C([H])([H])C([H])([H])C([H])([H])C([H])(n5nc(-c6c([H])c([H])c(Oc7c([H])c([H])c(F)c([H])c7F)c([H])c6[H])c(C(=O)N([H])[H])c5N([H])[H])C4([H])[H])C([H])([H])C([H])([H])C3([H])[H])c([H])c([H])c2C1([H])[H]

$$$$
86:0:0
     RDKit          3D

109116  0  0  1  0  0  0  0  0999 V2000
  -21.7300  -30.0290   24.1780 C   0  0  0  0  0  3  0  0  0  0  0  0
  -22.4550  -28.7470   25.2550 C   0  0  0  0  0  0  0  0  0  0  0  0
  -23.1170  -27.4010   25.1850 N   0  0  0  0  0  0  0  0  0  0  0  0
  -22.4170  -29.1020   26.4290 O   0  0  0  0  0  0  0  0  0  0  0  0
  -23.3950  -27.2510   26.1460 H   0  0  0  0  0  0  0  0  0  0  0  0
  -23.5660  -25.9910   24.4020 C   0  0  0  0  0  2  0  0  0  0  0  0
  -25.0680  -25.1770   24.3710 C   0  0  0  0  0  0  0  0  0  0  0  0
  -25.6850  -23.9490   23.8350 N   0  0  0  0  0  0  0  0  0  0  0  0
  -25.9010  -25.8320   24.9950 O   0  0  0  0  0  0  0  0  0  0  0  0
  -26.6710  -24.0750   24.0170 H   0  0  0  0  0  0  0  0  0  0  0  0
  -25.6500  -22.4990   23.0890 C   0  0  0  0  0  2  0  0  0  0  0  0
  -26.8810  -21.2870   23.1500 C   0  0  0  0  0  0  0  0  0  0  0  0
  -27.1110  -20.0870   22.3370 N   0  0  0  0  0  0  0  0  0  0  0  0
  -27.6790  -21.4700   24.0720 O   0  0  0  0  0  0  0  0  0  0  0  0
  -26.4430  -20.0310   21.5780 H   0  0  0  0  0  0  0  0  0  0  0  0
  -27.9710  -18.6800   22.4970 C   0  0  0  0  0  2  0  0  0  0  0  0
  -28.9410  -17.7010   21.3720 C   0  0  0  0  0  2  0  0  0  0  0  0
  -30.2000  -15.0890   20.7490 C   0  0  0  0  0  0  0  0  0  0  0  0
  -30.4130  -12.7620   19.5810 C   0  0  0  0  0  2  0  0  0  0  0  0
  -29.5220  -12.6210   18.3150 C   0  0  0  0  0  2  0  0  0  0  0  0
  -28.0510  -12.3590   18.6860 C   0  0  0  0  0  2  0  0  0  0  0  0
  -27.5940  -13.2440   19.8690 C   0  0  0  0  0  3  0  0  0  0  0  0
  -28.5710  -13.1830   21.0510 C   0  0  0  0  0  2  0  0  0  0  0  0
  -29.8130  -13.7490   20.5540 N   0  0  0  0  0  0  0  0  0  0  0  0
  -31.3430  -15.3390   20.3220 O   0  0  0  0  0  0  0  0  0  0  0  0
  -29.2410  -16.0700   21.3060 N   0  0  0  0  0  0  0  0  0  0  0  0
  -28.4380  -15.5680   21.6600 H   0  0  0  0  0  0  0  0  0  0  0  0
  -25.2200  -13.8200   20.5680 C   0  0  0  0  0  0  0  0  0  0  0  0
  -24.1610  -13.0440   20.9220 C   0  0  0  0  0  0  0  0  0  0  0  0
  -24.6210  -11.6880   20.8720 C   0  0  0  0  0  0  0  0  0  0  0  0
  -26.2540  -12.9410   20.3110 N   0  0  0  0  0  0  0  0  0  0  0  0
  -25.9090  -11.6530   20.5580 N   0  0  0  0  0  0  0  0  0  0  0  0
  -23.8970  -10.4250   21.0370 C   0  0  0  0  0  0  0  0  0  0  0  0
  -24.3570   -9.4180   21.9140 C   0  0  0  0  0  3  0  0  0  0  0  0
  -23.6270   -8.2220   22.0740 C   0  0  0  0  0  3  0  0  0  0  0  0
  -22.4250   -8.0230   21.3540 C   0  0  0  0  0  0  0  0  0  0  0  0
  -21.9850   -9.0190   20.4640 C   0  0  0  0  0  3  0  0  0  0  0  0
  -22.7150  -10.2070   20.3030 C   0  0  0  0  0  3  0  0  0  0  0  0
  -21.6650   -6.8810   21.4220 O   0  0  0  0  0  0  0  0  0  0  0  0
  -21.6860   -6.0690   22.5260 C   0  0  0  0  0  0  0  0  0  0  0  0
  -21.4020   -6.5610   23.8190 C   0  0  0  0  0  3  0  0  0  0  0  0
  -21.3660   -5.6770   24.9170 C   0  0  0  0  0  3  0  0  0  0  0  0
  -21.6060   -4.3030   24.7230 C   0  0  0  0  0  0  0  0  0  0  0  0
  -21.8830   -3.8110   23.4360 C   0  0  0  0  0  3  0  0  0  0  0  0
  -21.9200   -4.6920   22.3410 C   0  0  0  0  0  0  0  0  0  0  0  0
  -22.1660   -4.2100   21.0990 F   0  0  0  0  0  0  0  0  0  0  0  0
  -21.5640   -3.4530   25.7760 F   0  0  0  0  0  0  0  0  0  0  0  0
  -22.7640  -13.5130   21.2020 C   0  0  0  0  0  0  0  0  0  0  0  0
  -22.0390  -12.8070   22.0570 N   0  0  0  0  0  0  0  0  0  0  0  0
  -22.3280  -14.5470   20.6900 O   0  0  0  0  0  0  0  0  0  0  0  0
  -22.4040  -11.9680   22.4850 H   0  0  0  0  0  0  0  0  0  0  0  0
  -21.1010  -13.1010   22.2900 H   0  0  0  0  0  0  0  0  0  0  0  0
  -25.3940  -15.1990   20.4250 N   0  0  0  0  0  0  0  0  0  0  0  0
  -24.6370  -15.8560   20.5790 H   0  0  0  0  0  0  0  0  0  0  0  0
  -26.2250  -15.6340   20.0470 H   0  0  0  0  0  0  0  0  0  0  0  0
  -20.8110  -31.8420   22.1620 C   0  0  0  0  0  1  0  0  0  0  0  0
  -21.0540  -30.3160   22.3640 C   0  0  0  0  0  0  0  0  0  0  0  0
  -21.1380  -29.4140   20.8740 N   0  0  0  0  0  4  0  0  0  0  0  0
  -20.2480  -28.9420   20.9140 H   0  0  0  0  0  0  0  0  0  0  0  0
  -20.9940  -30.1090   20.1590 H   0  0  0  0  0  0  0  0  0  0  0  0
  -22.0280  -28.1490   20.0810 C   0  0  0  0  0  2  0  0  0  0  0  0
  -23.1450  -26.7350   20.4790 C   0  0  0  0  0  3  0  0  0  0  0  0
  -24.6070  -26.1950   20.1170 N   0  0  0  0  0  0  0  0  0  0  0  0
  -24.5680  -25.1870   20.0090 H   0  0  0  0  0  0  0  0  0  0  0  0
  -26.1280  -26.5300   20.7270 O   0  0  0  0  0  0  0  0  0  0  0  0
  -24.7300  -31.9090   23.2120 C   0  0  0  0  0  0  0  0  0  0  0  0
  -26.9130  -27.3890   20.0050 C   0  0  0  0  0  3  0  0  0  0  0  0
  -23.6620  -30.3110   21.6130 C   0  0  0  0  0  3  0  0  0  0  0  0
  -25.0600  -29.3110   19.8300 C   0  0  0  0  0  0  0  0  0  0  0  0
  -26.1340  -30.7530   21.5510 C   0  0  0  0  0  2  0  0  0  0  0  0
  -26.1420  -29.5240   20.6790 C   0  0  0  0  0  0  0  0  0  0  0  0
  -27.1640  -28.5720   20.7290 C   0  0  0  0  0  3  0  0  0  0  0  0
  -26.2690  -27.5000   18.7830 C   0  0  0  0  0  2  0  0  0  0  0  0
  -25.1650  -28.3850   18.7830 C   0  0  0  0  0  3  0  0  0  0  0  0
  -23.9150  -30.2190   20.0900 C   0  0  0  0  0  2  0  0  0  0  0  0
  -24.8340  -31.0090   22.1970 N   0  0  0  0  0  0  0  0  0  0  0  0
  -23.6490  -32.3280   23.6360 O   0  0  0  0  0  0  0  0  0  0  0  0
  -23.3580  -28.9090   22.4170 C   0  0  0  0  0  0  0  0  0  0  0  0
  -22.1760  -28.0740   22.6950 N   0  0  0  0  0  0  0  0  0  0  0  0
  -24.3030  -28.5260   23.0440 O   0  0  0  0  0  0  0  0  0  0  0  0
  -22.6480  -27.3670   23.2430 H   0  0  0  0  0  0  0  0  0  0  0  0
  -17.9810  -28.0340   22.7990 C   0  0  0  0  0  0  0  0  0  0  0  0
  -20.6210  -27.7860   23.1550 C   0  0  0  0  0  3  0  0  0  0  0  0
  -20.3830  -26.4430   22.5470 C   0  0  0  0  0  2  0  0  0  0  0  0
  -19.3380  -26.4560   21.4470 C   0  0  0  0  0  2  0  0  0  0  0  0
  -17.9980  -26.7070   22.0850 C   0  0  0  0  0  2  0  0  0  0  0  0
  -19.1670  -28.5780   23.3710 C   0  0  0  0  0  0  0  0  0  0  0  0
  -18.8700  -29.7560   24.1660 C   0  0  0  0  0  3  0  0  0  0  0  0
  -17.6440  -30.4550   24.1670 C   0  0  0  0  0  3  0  0  0  0  0  0
  -16.5340  -29.8800   23.5500 C   0  0  0  0  0  3  0  0  0  0  0  0
  -16.7120  -28.6530   22.9090 C   0  0  0  0  0  3  0  0  0  0  0  0
  -25.9980  -32.4980   23.8750 C   0  0  0  0  0  3  0  0  0  0  0  0
  -25.6830  -33.8780   24.2680 N   0  0  0  0  0  0  0  0  0  0  0  0
  -25.9180  -34.9490   23.5070 C   0  0  0  0  0  0  0  0  0  0  0  0
  -26.5350  -34.8830   22.4400 O   0  0  0  0  0  0  0  0  0  0  0  0
  -25.1940  -34.0120   25.1400 H   0  0  0  0  0  0  0  0  0  0  0  0
  -24.1590  -36.7310   23.2550 C   0  0  0  0  0  1  0  0  0  0  0  0
  -25.4170  -36.3090   24.0280 C   0  0  0  0  0  3  0  0  0  0  0  0
  -27.5620  -37.1900   24.8430 C   0  0  0  0  0  1  0  0  0  0  0  0
  -26.4300  -37.3790   23.9390 N   0  0  0  0  0  0  0  0  0  0  0  0
  -26.0080  -38.2790   24.1390 H   0  0  0  0  0  0  0  0  0  0  0  0
  -26.4710  -31.6620   25.1230 C   0  0  1  0  0  0  0  0  0  0  0  0
  -25.3570  -31.3890   26.1610 C   0  0  0  0  0  1  0  0  0  0  0  0
  -27.0530  -30.2850   24.7210 C   0  0  0  0  0  1  0  0  0  0  0  0
  -27.6120  -32.4310   25.8250 C   0  0  0  0  0  1  0  0  0  0  0  0
  -22.1520  -25.6640   18.3050 C   0  0  0  0  0  1  0  0  0  0  0  0
  -22.4220  -25.4710   19.8190 C   0  0  0  0  0  3  0  0  0  0  0  0
  -22.0550  -22.8860   19.9190 C   0  0  0  0  0  1  0  0  0  0  0  0
  -23.0350  -24.0490   20.1220 C   0  0  0  0  0  2  0  0  0  0  0  0
  1  2  1  0
  2  4  2  0
  3  2  1  0
  3  5  1  0
  6  3  1  0
  7  6  1  0
  7  9  2  0
  8 10  1  0
  8  7  1  0
 11 12  1  0
 11  8  1  0
 12 14  2  0
 13 16  1  0
 13 12  1  0
 15 13  1  0
 17 16  1  0
 18 26  1  0
 19 24  1  0
 20 21  1  0
 20 19  1  0
 22 21  1  0
 22 31  1  0
 22 23  1  0
 24 18  1  0
 24 23  1  0
 25 18  2  0
 26 17  1  0
 26 27  1  0
 28 29  2  0
 29 48  1  0
 30 29  1  0
 30 33  1  0
 31 32  1  0
 31 28  1  0
 32 30  2  0
 33 34  1  0
 34 35  2  0
 36 39  1  0
 36 35  1  0
 37 36  2  0
 38 37  1  0
 38 33  2  0
 39 40  1  0
 40 41  1  0
 41 42  2  0
 43 42  1  0
 43 47  1  0
 44 43  2  0
 45 40  2  0
 45 44  1  0
 46 45  1  0
 48 49  1  0
 49 52  1  0
 49 51  1  0
 50 48  2  0
 53 28  1  0
 53 54  1  0
 55 53  1  0
 56 57  1  0
 57  1  2  0
 58 59  1  0
 58 57  1  0
 60 58  1  0
 61 58  1  0
 62 61  1  0
 63 62  1  0
 63 65  1  0
 64 63  1  0
 66 77  2  0
 67 65  1  0
 67 72  1  0
 68 76  1  0
 68 78  1  0
 69 75  1  0
 69 71  1  0
 70 76  1  0
 71 72  2  0
 71 70  1  0
 73 67  1  0
 74 73  1  0
 74 69  2  0
 75 68  1  0
 76 66  1  0
 78 79  1  0
 78 80  2  0
 79 81  1  0
 82 91  2  0
 82 87  1  0
 83 79  1  0
 83 87  1  0
 84 83  1  0
 85 86  1  0
 85 84  1  0
 86 82  1  0
 87 88  2  0
 88 89  1  0
 90 89  2  0
 91 90  1  0
 92 66  1  0
 92 93  1  0
 92102  1  0
 93 96  1  0
 94 98  1  0
 94 93  1  0
 95 94  2  0
 98 97  1  0
100 98  1  0
100101  1  0
100 99  1  0
102105  1  1
102103  1  0
104102  1  0
107106  1  0
107109  1  0
107 62  1  0
108109  1  0
M  ISO  4  18 100  26 100  63 101  65 101
M  END
>  <TORSDO>  (81) 
F 30

>  <SCORE>  (81) 
26.767

>  <name>  (81) 
86

>  <ligand_id>  (81) 
86

>  <original_smiles>  (81) 
[H]c1c([H])c([H])c2c(c1[H])C([H])([H])C([H])([H])C([H])([H])C2([H])N([H])C(=O)C1([H])N(C(=O)C([H])(N([H])C(=O)C([H])(N([H])C([H])([H])[H])C([H])([H])[H])C(C([H])([H])[H])(C([H])([H])[H])C([H])([H])[H])C([H])([H])c2c([H])c(ON([H])C([H])(C([H])(C([H])([H])[H])C([H])([H])C([H])([H])[H])C([H])([H])[N+]([H])([H])C([H])(C([H])([H])[H])C([H])([H])C(=O)N([H])C([H])([H])C(=O)N([H])C([H])([H])C(=O)N([H])C([H])([H])C([H])([H])N([H])C(=O)N3C([H])([H])C([H])([H])C([H])([H])C([H])(n4nc(-c5c([H])c([H])c(Oc6c([H])c([H])c(F)c([H])c6F)c([H])c5[H])c(C(=O)N([H])[H])c4N([H])[H])C3([H])[H])c([H])c([H])c2C1([H])[H]

>  <smiles>  (81) 
[H]c1c([H])c([H])c2c(c1[H])C([H])([H])C([H])([H])C([H])([H])C2([H])N([H])C(=O)C1([H])N(C(=O)C([H])(N([H])C(=O)C([H])(N([H])C([H])([H])[H])C([H])([H])[H])C(C([H])([H])[H])(C([H])([H])[H])C([H])([H])[H])C([H])([H])c2c([H])c(ON([H])C([H])(C([H])(C([H])([H])[H])C([H])([H])C([H])([H])[H])C([H])([H])[N+]([H])([H])C([H])(C([H])([H])[H])C([H])([H])C(=O)N([H])C([H])([H])C(=O)N([H])C([H])([H])C(=O)N([H])C([H])([H])C([H])([H])N([H])C(=O)N3C([H])([H])C([H])([H])C([H])([H])C([H])(n4nc(-c5c([H])c([H])c(Oc6c([H])c([H])c(F)c([H])c6F)c([H])c5[H])c(C(=O)N([H])[H])c4N([H])[H])C3([H])[H])c([H])c([H])c2C1([H])[H]

$$$$
88:0:0
     RDKit          3D

 90 97  0  0  1  0  0  0  0  0999 V2000
  -28.7230  -21.7390   20.0190 C   0  0  0  0  0  0  0  0  0  0  0  0
  -29.1970  -23.0030   19.9480 N   0  0  0  0  0  0  0  0  0  0  0  0
  -27.5220  -21.4890   19.8980 O   0  0  0  0  0  0  0  0  0  0  0  0
  -30.1950  -23.1100   20.0740 H   0  0  0  0  0  0  0  0  0  0  0  0
  -29.7410  -20.5770   20.2080 C   0  0  0  0  0  2  0  0  0  0  0  0
  -29.3020  -19.3840   21.1300 C   0  0  0  0  0  2  0  0  0  0  0  0
  -29.0350  -17.9800   20.4760 C   0  0  0  0  0  2  0  0  0  0  0  0
  -30.6640  -14.5550   20.1880 C   0  0  0  0  0  0  0  0  0  0  0  0
  -30.3490  -12.3600   19.1020 C   0  0  0  0  0  2  0  0  0  0  0  0
  -29.3880  -12.5420   17.9090 C   0  0  0  0  0  2  0  0  0  0  0  0
  -27.9220  -12.4100   18.3700 C   0  0  0  0  0  2  0  0  0  0  0  0
  -27.6060  -13.2630   19.6270 C   0  0  0  0  0  3  0  0  0  0  0  0
  -28.6840  -13.0750   20.7180 C   0  0  0  0  0  2  0  0  0  0  0  0
  -29.9920  -13.3690   20.1130 N   0  0  0  0  0  0  0  0  0  0  0  0
  -31.8350  -14.6510   19.8080 O   0  0  0  0  0  0  0  0  0  0  0  0
  -30.2060  -16.9590   20.4400 C   0  0  0  0  0  0  0  0  0  0  0  0
  -29.8870  -15.6360   20.4730 N   0  0  0  0  0  0  0  0  0  0  0  0
  -31.3590  -17.3960   20.3640 O   0  0  0  0  0  0  0  0  0  0  0  0
  -28.9200  -15.4260   20.6450 H   0  0  0  0  0  0  0  0  0  0  0  0
  -25.2310  -13.8860   20.3880 C   0  0  0  0  0  0  0  0  0  0  0  0
  -24.1660  -13.1210   20.7820 C   0  0  0  0  0  0  0  0  0  0  0  0
  -24.6190  -11.7670   20.7480 C   0  0  0  0  0  0  0  0  0  0  0  0
  -26.2630  -12.9970   20.1370 N   0  0  0  0  0  0  0  0  0  0  0  0
  -25.9020  -11.7180   20.4150 N   0  0  0  0  0  0  0  0  0  0  0  0
  -23.8890  -10.5100   20.9570 C   0  0  0  0  0  0  0  0  0  0  0  0
  -24.3300   -9.5460   21.8910 C   0  0  0  0  0  3  0  0  0  0  0  0
  -23.6030   -8.3530   22.0860 C   0  0  0  0  0  3  0  0  0  0  0  0
  -22.4190   -8.1150   21.3470 C   0  0  0  0  0  0  0  0  0  0  0  0
  -21.9990   -9.0660   20.4010 C   0  0  0  0  0  3  0  0  0  0  0  0
  -22.7270  -10.2510   20.2030 C   0  0  0  0  0  3  0  0  0  0  0  0
  -21.6630   -6.9730   21.4510 O   0  0  0  0  0  0  0  0  0  0  0  0
  -21.6200   -6.2410   22.6090 C   0  0  0  0  0  0  0  0  0  0  0  0
  -21.1990   -6.8040   23.8340 C   0  0  0  0  0  3  0  0  0  0  0  0
  -21.1040   -5.9990   24.9850 C   0  0  0  0  0  3  0  0  0  0  0  0
  -21.4210   -4.6290   24.9150 C   0  0  0  0  0  0  0  0  0  0  0  0
  -21.8340   -4.0630   23.6960 C   0  0  0  0  0  3  0  0  0  0  0  0
  -21.9310   -4.8660   22.5470 C   0  0  0  0  0  0  0  0  0  0  0  0
  -22.3100   -4.3120   21.3700 F   0  0  0  0  0  0  0  0  0  0  0  0
  -21.3220   -3.8520   26.0190 F   0  0  0  0  0  0  0  0  0  0  0  0
  -22.7770  -13.6080   21.0760 C   0  0  0  0  0  0  0  0  0  0  0  0
  -22.0580  -12.9160   21.9530 N   0  0  0  0  0  0  0  0  0  0  0  0
  -22.3360  -14.6360   20.5610 O   0  0  0  0  0  0  0  0  0  0  0  0
  -22.4300  -12.0850   22.3930 H   0  0  0  0  0  0  0  0  0  0  0  0
  -21.1250  -13.2190   22.1900 H   0  0  0  0  0  0  0  0  0  0  0  0
  -25.4030  -15.2550   20.2010 N   0  0  0  0  0  0  0  0  0  0  0  0
  -24.6380  -15.9110   20.3130 H   0  0  0  0  0  0  0  0  0  0  0  0
  -26.2260  -15.6770   19.7930 H   0  0  0  0  0  0  0  0  0  0  0  0
  -28.4710  -24.2330   19.5440 C   0  0  0  0  0  2  0  0  0  0  0  0
  -28.3900  -25.3270   20.6520 C   0  0  0  0  0  2  0  0  0  0  0  0
  -28.4320  -26.6940   20.1750 O   0  0  0  0  0  0  0  0  0  0  0  0
  -24.5840  -31.8780   23.2470 C   0  0  0  0  0  0  0  0  0  0  0  0
  -27.2570  -27.4230   20.1910 C   0  0  0  0  0  0  0  0  0  0  0  0
  -23.3940  -30.4760   21.5930 C   0  0  0  0  0  3  0  0  0  0  0  0
  -24.8610  -28.9360   20.1820 C   0  0  0  0  0  0  0  0  0  0  0  0
  -25.9230  -30.8370   21.4140 C   0  0  0  0  0  2  0  0  0  0  0  0
  -26.0160  -29.4640   20.7730 C   0  0  0  0  0  0  0  0  0  0  0  0
  -27.2200  -28.7180   20.7630 C   0  0  0  0  0  3  0  0  0  0  0  0
  -26.0830  -26.9070   19.6040 C   0  0  0  0  0  3  0  0  0  0  0  0
  -24.8900  -27.6590   19.5940 C   0  0  0  0  0  3  0  0  0  0  0  0
  -23.6170  -29.7950   20.2160 C   0  0  0  0  0  2  0  0  0  0  0  0
  -24.6520  -31.0790   22.1430 N   0  0  0  0  0  0  0  0  0  0  0  0
  -23.4990  -32.1470   23.7800 O   0  0  0  0  0  0  0  0  0  0  0  0
  -22.7350  -29.4550   22.5480 C   0  0  0  0  0  0  0  0  0  0  0  0
  -21.4110  -29.2710   22.4100 N   0  0  0  0  0  0  0  0  0  0  0  0
  -23.4120  -28.8290   23.3680 O   0  0  0  0  0  0  0  0  0  0  0  0
  -20.9250  -29.8310   21.7230 H   0  0  0  0  0  0  0  0  0  0  0  0
  -18.0340  -28.0710   22.8730 C   0  0  0  0  0  0  0  0  0  0  0  0
  -20.5890  -28.3300   23.1700 C   0  0  0  0  0  3  0  0  0  0  0  0
  -20.6980  -26.9000   22.5910 C   0  0  0  0  0  2  0  0  0  0  0  0
  -19.6070  -26.5800   21.5650 C   0  0  0  0  0  2  0  0  0  0  0  0
  -18.2200  -26.7220   22.1980 C   0  0  0  0  0  2  0  0  0  0  0  0
  -19.1490  -28.8320   23.3160 C   0  0  0  0  0  0  0  0  0  0  0  0
  -18.9240  -30.0950   23.9060 C   0  0  0  0  0  3  0  0  0  0  0  0
  -17.6170  -30.5960   24.0600 C   0  0  0  0  0  3  0  0  0  0  0  0
  -16.5170  -29.8310   23.6360 C   0  0  0  0  0  3  0  0  0  0  0  0
  -16.7270  -28.5710   23.0480 C   0  0  0  0  0  3  0  0  0  0  0  0
  -25.8630  -32.5110   23.8800 C   0  0  0  0  0  3  0  0  0  0  0  0
  -25.5540  -33.9110   24.1990 N   0  0  0  0  0  0  0  0  0  0  0  0
  -25.8970  -34.9580   23.4350 C   0  0  0  0  0  0  0  0  0  0  0  0
  -26.5750  -34.8460   22.4110 O   0  0  0  0  0  0  0  0  0  0  0  0
  -24.9520  -34.0730   24.9920 H   0  0  0  0  0  0  0  0  0  0  0  0
  -24.1730  -36.7490   23.0590 C   0  0  0  0  0  1  0  0  0  0  0  0
  -25.4100  -36.3500   23.8800 C   0  0  0  0  0  3  0  0  0  0  0  0
  -27.5400  -37.2380   24.7170 C   0  0  0  0  0  1  0  0  0  0  0  0
  -26.4440  -37.4010   23.7650 N   0  0  0  0  0  0  0  0  0  0  0  0
  -26.0380  -38.3230   23.9050 H   0  0  0  0  0  0  0  0  0  0  0  0
  -26.3660  -31.7450   25.1650 C   0  0  1  0  0  0  0  0  0  0  0  0
  -25.2620  -31.5170   26.2240 C   0  0  0  0  0  1  0  0  0  0  0  0
  -26.9480  -30.3640   24.7830 C   0  0  0  0  0  1  0  0  0  0  0  0
  -27.5120  -32.5400   25.8340 C   0  0  0  0  0  1  0  0  0  0  0  0
  1  5  1  0
  2  1  1  0
  2  4  1  0
  3  1  2  0
  5  6  1  0
  7  6  1  0
  8 17  1  0
  9 14  1  0
 10 11  1  0
 10  9  1  0
 12 11  1  0
 12 23  1  0
 12 13  1  0
 14  8  1  0
 14 13  1  0
 15  8  2  0
 16 17  1  0
 16  7  1  0
 17 19  1  0
 18 16  2  0
 20 21  2  0
 21 40  1  0
 22 21  1  0
 22 25  1  0
 23 20  1  0
 23 24  1  0
 24 22  2  0
 25 26  1  0
 26 27  2  0
 28 31  1  0
 28 27  1  0
 29 28  2  0
 30 29  1  0
 30 25  2  0
 31 32  1  0
 32 33  1  0
 33 34  2  0
 35 34  1  0
 35 39  1  0
 36 35  2  0
 37 32  2  0
 37 36  1  0
 38 37  1  0
 40 41  1  0
 41 44  1  0
 41 43  1  0
 42 40  2  0
 45 46  1  0
 45 20  1  0
 47 45  1  0
 48  2  1  0
 48 49  1  0
 50 52  1  0
 50 49  1  0
 51 62  2  0
 52 57  1  0
 53 61  1  0
 53 63  1  0
 54 60  1  0
 54 56  1  0
 55 61  1  0
 56 55  1  0
 57 56  2  0
 58 52  2  0
 59 58  1  0
 59 54  2  0
 60 53  1  0
 61 51  1  0
 63 65  2  0
 64 63  1  0
 66 64  1  0
 67 76  2  0
 67 72  1  0
 68 64  1  0
 68 72  1  0
 69 68  1  0
 70 71  1  0
 70 69  1  0
 71 67  1  0
 72 73  2  0
 73 74  1  0
 75 74  2  0
 76 75  1  0
 77 51  1  0
 77 78  1  0
 77 87  1  0
 78 81  1  0
 79 83  1  0
 79 78  1  0
 80 79  2  0
 83 82  1  0
 85 83  1  0
 85 86  1  0
 85 84  1  0
 87 90  1  1
 87 88  1  0
 89 87  1  0
M  ISO  4   8 100  17 100  49 101  50 101
M  END
>  <TORSDO>  (82) 
F 21

>  <SCORE>  (82) 
-13.160

>  <name>  (82) 
88

>  <ligand_id>  (82) 
88

>  <original_smiles>  (82) 
[H]c1c([H])c([H])c2c(c1[H])C([H])([H])C([H])([H])C([H])([H])C2([H])N([H])C(=O)C1([H])N(C(=O)C([H])(N([H])C(=O)C([H])(N([H])C([H])([H])[H])C([H])([H])[H])C(C([H])([H])[H])(C([H])([H])[H])C([H])([H])[H])C([H])([H])c2c([H])c(OC([H])([H])C([H])([H])N([H])C(=O)C([H])([H])C([H])([H])C([H])([H])C(=O)N([H])C(=O)N3C([H])([H])C([H])([H])C([H])([H])C([H])(n4nc(-c5c([H])c([H])c(Oc6c([H])c([H])c(F)c([H])c6F)c([H])c5[H])c(C(=O)N([H])[H])c4N([H])[H])C3([H])[H])c([H])c([H])c2C1([H])[H]

>  <smiles>  (82) 
[H]c1c([H])c([H])c2c(c1[H])C([H])([H])C([H])([H])C([H])([H])C2([H])N([H])C(=O)C1([H])N(C(=O)C([H])(N([H])C(=O)C([H])(N([H])C([H])([H])[H])C([H])([H])[H])C(C([H])([H])[H])(C([H])([H])[H])C([H])([H])[H])C([H])([H])c2c([H])c(OC([H])([H])C([H])([H])N([H])C(=O)C([H])([H])C([H])([H])C([H])([H])C(=O)N([H])C(=O)N3C([H])([H])C([H])([H])C([H])([H])C([H])(n4nc(-c5c([H])c([H])c(Oc6c([H])c([H])c(F)c([H])c6F)c([H])c5[H])c(C(=O)N([H])[H])c4N([H])[H])C3([H])[H])c([H])c([H])c2C1([H])[H]

$$$$
89:0:0
     RDKit          3D

106113  0  0  1  0  0  0  0  0999 V2000
  -29.4780  -22.3450   19.5950 C   0  0  0  0  0  3  0  0  0  0  0  0
  -29.2980  -23.1790   21.9860 C   0  0  0  0  0  0  0  0  0  0  0  0
  -28.3440  -22.3090   22.3630 N   0  0  0  0  0  4  0  0  0  0  0  0
  -29.8500  -23.1580   20.7560 N   0  0  0  0  0  0  0  0  0  0  0  0
  -27.9510  -22.3500   23.2940 H   0  0  0  0  0  0  0  0  0  0  0  0
  -27.9790  -21.5940   21.7550 H   0  0  0  0  0  0  0  0  0  0  0  0
  -30.5030  -23.9200   20.5700 H   0  0  0  0  0  0  0  0  0  0  0  0
  -29.7490  -24.2480   22.9480 C   0  0  0  0  0  2  0  0  0  0  0  0
  -30.3010  -26.0900   21.4070 C   0  0  0  0  0  0  0  0  0  0  0  0
  -29.5260  -25.5620   22.3600 N   0  0  0  0  0  0  0  0  0  0  0  0
  -31.3890  -25.5950   21.1000 O   0  0  0  0  0  0  0  0  0  0  0  0
  -28.6260  -25.9900   22.5240 H   0  0  0  0  0  0  0  0  0  0  0  0
  -29.7020  -27.2260   20.5900 C   0  0  0  0  0  2  0  0  0  0  0  0
  -28.4600  -26.7480   20.0630 O   0  0  0  0  0  0  0  0  0  0  0  0
  -24.6190  -31.8690   23.2170 C   0  0  0  0  0  0  0  0  0  0  0  0
  -27.3140  -27.5060   20.1340 C   0  0  0  0  0  0  0  0  0  0  0  0
  -23.4130  -30.4630   21.5690 C   0  0  0  0  0  3  0  0  0  0  0  0
  -24.8750  -28.9400   20.1440 C   0  0  0  0  0  0  0  0  0  0  0  0
  -25.9230  -30.8580   21.3600 C   0  0  0  0  0  2  0  0  0  0  0  0
  -26.0200  -29.4900   20.7300 C   0  0  0  0  0  0  0  0  0  0  0  0
  -27.2350  -28.7890   20.7230 C   0  0  0  0  0  3  0  0  0  0  0  0
  -26.1500  -26.9550   19.5600 C   0  0  0  0  0  3  0  0  0  0  0  0
  -24.9310  -27.6650   19.5550 C   0  0  0  0  0  3  0  0  0  0  0  0
  -23.6200  -29.7810   20.1890 C   0  0  0  0  0  2  0  0  0  0  0  0
  -24.6710  -31.0750   22.1100 N   0  0  0  0  0  0  0  0  0  0  0  0
  -23.5410  -32.1390   23.7630 O   0  0  0  0  0  0  0  0  0  0  0  0
  -22.7720  -29.4380   22.5280 C   0  0  0  0  0  0  0  0  0  0  0  0
  -21.4470  -29.2660   22.4080 N   0  0  0  0  0  0  0  0  0  0  0  0
  -23.4610  -28.8010   23.3290 O   0  0  0  0  0  0  0  0  0  0  0  0
  -20.9540  -29.8250   21.7270 H   0  0  0  0  0  0  0  0  0  0  0  0
  -18.0700  -28.1020   22.9170 C   0  0  0  0  0  0  0  0  0  0  0  0
  -20.6310  -28.3290   23.1760 C   0  0  0  0  0  3  0  0  0  0  0  0
  -20.7170  -26.9040   22.5820 C   0  0  0  0  0  2  0  0  0  0  0  0
  -19.6050  -26.6020   21.5730 C   0  0  0  0  0  2  0  0  0  0  0  0
  -18.2290  -26.7600   22.2270 C   0  0  0  0  0  2  0  0  0  0  0  0
  -19.1990  -28.8480   23.3480 C   0  0  0  0  0  0  0  0  0  0  0  0
  -19.0000  -30.1120   23.9460 C   0  0  0  0  0  3  0  0  0  0  0  0
  -17.7010  -30.6260   24.1250 C   0  0  0  0  0  3  0  0  0  0  0  0
  -16.5860  -29.8750   23.7140 C   0  0  0  0  0  3  0  0  0  0  0  0
  -16.7720  -28.6170   23.1140 C   0  0  0  0  0  3  0  0  0  0  0  0
  -25.9110  -32.4980   23.8330 C   0  0  0  0  0  3  0  0  0  0  0  0
  -25.6060  -33.8910   24.1730 N   0  0  0  0  0  0  0  0  0  0  0  0
  -25.9370  -34.9480   23.4190 C   0  0  0  0  0  0  0  0  0  0  0  0
  -26.6050  -34.8520   22.3860 O   0  0  0  0  0  0  0  0  0  0  0  0
  -25.0110  -34.0440   24.9750 H   0  0  0  0  0  0  0  0  0  0  0  0
  -24.2020  -36.7360   23.0710 C   0  0  0  0  0  1  0  0  0  0  0  0
  -25.4440  -36.3310   23.8810 C   0  0  0  0  0  3  0  0  0  0  0  0
  -27.5750  -37.2160   24.7210 C   0  0  0  0  0  1  0  0  0  0  0  0
  -26.4720  -37.3900   23.7780 N   0  0  0  0  0  0  0  0  0  0  0  0
  -26.0610  -38.3060   23.9370 H   0  0  0  0  0  0  0  0  0  0  0  0
  -26.4420  -31.7160   25.0990 C   0  0  1  0  0  0  0  0  0  0  0  0
  -25.3580  -31.4640   26.1750 C   0  0  0  0  0  1  0  0  0  0  0  0
  -27.0250  -30.3450   24.6840 C   0  0  0  0  0  1  0  0  0  0  0  0
  -27.5920  -32.5090   25.7620 C   0  0  0  0  0  1  0  0  0  0  0  0
  -28.1130  -22.8090   19.0780 C   0  0  0  0  0  0  0  0  0  0  0  0
  -27.1760  -21.8840   18.9040 N   0  0  0  0  0  0  0  0  0  0  0  0
  -27.9000  -23.9900   18.8120 O   0  0  0  0  0  0  0  0  0  0  0  0
  -27.3710  -20.9080   19.0760 H   0  0  0  0  0  0  0  0  0  0  0  0
  -26.2640  -22.1440   18.5610 H   0  0  0  0  0  0  0  0  0  0  0  0
  -30.5370  -22.4930   18.4810 C   0  0  0  0  0  2  0  0  0  0  0  0
  -31.8340  -21.6920   18.7080 C   0  0  0  0  0  2  0  0  0  0  0  0
  -31.7570  -20.1970   18.3300 C   0  0  0  0  0  2  0  0  0  0  0  0
  -31.0120  -18.9120   20.3440 C   0  0  0  0  0  0  0  0  0  0  0  0
  -30.8050  -19.4150   19.1190 N   0  0  0  0  0  0  0  0  0  0  0  0
  -32.0330  -19.1400   20.9970 O   0  0  0  0  0  0  0  0  0  0  0  0
  -29.9430  -19.1570   18.6530 H   0  0  0  0  0  0  0  0  0  0  0  0
  -29.9020  -18.0230   20.9240 C   0  0  0  0  0  2  0  0  0  0  0  0
  -29.7060  -16.7200   20.1130 C   0  0  0  0  0  2  0  0  0  0  0  0
  -30.6430  -14.4740   20.4840 C   0  0  0  0  0  0  0  0  0  0  0  0
  -30.4010  -12.3060   19.3590 C   0  0  0  0  0  2  0  0  0  0  0  0
  -29.4690  -12.5090   18.1440 C   0  0  0  0  0  2  0  0  0  0  0  0
  -27.9870  -12.3820   18.5590 C   0  0  0  0  0  2  0  0  0  0  0  0
  -27.6350  -13.2180   19.8170 C   0  0  0  0  0  3  0  0  0  0  0  0
  -28.6770  -12.9710   20.9350 C   0  0  0  0  0  2  0  0  0  0  0  0
  -30.0140  -13.2730   20.3930 N   0  0  0  0  0  0  0  0  0  0  0  0
  -31.7620  -14.7020   20.0120 O   0  0  0  0  0  0  0  0  0  0  0  0
  -29.8350  -15.4710   20.8740 N   0  0  0  0  0  0  0  0  0  0  0  0
  -28.9980  -15.1690   21.3550 H   0  0  0  0  0  0  0  0  0  0  0  0
  -25.2220  -13.8340   20.4870 C   0  0  0  0  0  0  0  0  0  0  0  0
  -24.1500  -13.0660   20.8530 C   0  0  0  0  0  0  0  0  0  0  0  0
  -24.6170  -11.7150   20.8450 C   0  0  0  0  0  0  0  0  0  0  0  0
  -26.2710  -12.9520   20.2760 N   0  0  0  0  0  0  0  0  0  0  0  0
  -25.9090  -11.6730   20.5500 N   0  0  0  0  0  0  0  0  0  0  0  0
  -23.8930  -10.4510   21.0410 C   0  0  0  0  0  0  0  0  0  0  0  0
  -24.3370   -9.4860   21.9720 C   0  0  0  0  0  3  0  0  0  0  0  0
  -23.6160   -8.2870   22.1560 C   0  0  0  0  0  3  0  0  0  0  0  0
  -22.4390   -8.0440   21.4090 C   0  0  0  0  0  0  0  0  0  0  0  0
  -22.0140   -8.9980   20.4680 C   0  0  0  0  0  3  0  0  0  0  0  0
  -22.7360  -10.1890   20.2800 C   0  0  0  0  0  3  0  0  0  0  0  0
  -21.6900   -6.8960   21.5000 O   0  0  0  0  0  0  0  0  0  0  0  0
  -21.6670   -6.1410   22.6430 C   0  0  0  0  0  0  0  0  0  0  0  0
  -21.2760   -6.6850   23.8860 C   0  0  0  0  0  3  0  0  0  0  0  0
  -21.1960   -5.8570   25.0230 C   0  0  0  0  0  3  0  0  0  0  0  0
  -21.5030   -4.4860   24.9210 C   0  0  0  0  0  0  0  0  0  0  0  0
  -21.8880   -3.9420   23.6840 C   0  0  0  0  0  3  0  0  0  0  0  0
  -21.9660   -4.7660   22.5480 C   0  0  0  0  0  0  0  0  0  0  0  0
  -22.3180   -4.2310   21.3540 F   0  0  0  0  0  0  0  0  0  0  0  0
  -21.4200   -3.6920   26.0140 F   0  0  0  0  0  0  0  0  0  0  0  0
  -22.7470  -13.5420   21.1080 C   0  0  0  0  0  0  0  0  0  0  0  0
  -22.0130  -12.8550   21.9790 N   0  0  0  0  0  0  0  0  0  0  0  0
  -22.3100  -14.5570   20.5680 O   0  0  0  0  0  0  0  0  0  0  0  0
  -22.3760  -12.0340   22.4370 H   0  0  0  0  0  0  0  0  0  0  0  0
  -21.0710  -13.1540   22.1900 H   0  0  0  0  0  0  0  0  0  0  0  0
  -25.3980  -15.2020   20.3020 N   0  0  0  0  0  0  0  0  0  0  0  0
  -24.6450  -15.8770   20.3930 H   0  0  0  0  0  0  0  0  0  0  0  0
  -26.2630  -15.6220   19.9920 H   0  0  0  0  0  0  0  0  0  0  0  0
  1 60  1  0
  1  4  1  0
  2  3  2  0
  2  8  1  0
  3  5  1  0
  4  2  1  0
  6  3  1  0
  7  4  1  0
  9 10  1  0
 10 12  1  0
 10  8  1  0
 11  9  2  0
 13  9  1  0
 14 16  1  0
 14 13  1  0
 15 26  2  0
 16 21  1  0
 17 25  1  0
 17 27  1  0
 18 24  1  0
 18 20  1  0
 19 25  1  0
 20 19  1  0
 21 20  2  0
 22 16  2  0
 23 22  1  0
 23 18  2  0
 24 17  1  0
 25 15  1  0
 27 29  2  0
 28 27  1  0
 30 28  1  0
 31 40  2  0
 31 36  1  0
 32 28  1  0
 32 36  1  0
 33 32  1  0
 34 35  1  0
 34 33  1  0
 35 31  1  0
 36 37  2  0
 37 38  1  0
 39 38  2  0
 40 39  1  0
 41 15  1  0
 41 42  1  0
 41 51  1  0
 42 45  1  0
 43 47  1  0
 43 42  1  0
 44 43  2  0
 47 46  1  0
 49 47  1  0
 49 50  1  0
 49 48  1  0
 51 54  1  1
 51 52  1  0
 53 51  1  0
 55  1  1  0
 56 58  1  0
 56 55  1  0
 57 55  2  0
 59 56  1  0
 60 61  1  0
 62 61  1  0
 62 64  1  0
 63 67  1  0
 63 65  2  0
 64 63  1  0
 66 64  1  0
 68 77  1  0
 68 67  1  0
 69 77  1  0
 70 75  1  0
 71 72  1  0
 71 70  1  0
 73 72  1  0
 73 82  1  0
 73 74  1  0
 75 69  1  0
 75 74  1  0
 76 69  2  0
 77 78  1  0
 79 80  2  0
 80 99  1  0
 81 80  1  0
 81 84  1  0
 82 79  1  0
 82 83  1  0
 83 81  2  0
 84 85  1  0
 85 86  2  0
 87 90  1  0
 87 86  1  0
 88 87  2  0
 89 88  1  0
 89 84  2  0
 90 91  1  0
 91 92  1  0
 92 93  2  0
 94 93  1  0
 94 98  1  0
 95 94  2  0
 96 91  2  0
 96 95  1  0
 97 96  1  0
 99100  1  0
100103  1  0
100102  1  0
101 99  2  0
104105  1  0
104 79  1  0
106104  1  0
M  ISO  4  13 101  14 101  69 100  77 100
M  END
>  <TORSDO>  (83) 
F 27

>  <SCORE>  (83) 
-12.074

>  <name>  (83) 
89

>  <ligand_id>  (83) 
89

>  <original_smiles>  (83) 
[H]c1c([H])c([H])c2c(c1[H])C([H])([H])C([H])([H])C([H])([H])C2([H])N([H])C(=O)C1([H])N(C(=O)C([H])(N([H])C(=O)C([H])(N([H])C([H])([H])[H])C([H])([H])[H])C(C([H])([H])[H])(C([H])([H])[H])C([H])([H])[H])C([H])([H])c2c([H])c(OC([H])([H])C(=O)N([H])C([H])([H])C(N([H])[H])=[N+]([H])C([H])(C(=O)N([H])[H])C([H])([H])C([H])([H])C([H])([H])N([H])C(=O)C([H])([H])C([H])([H])N([H])C(=O)N3C([H])([H])C([H])([H])C([H])([H])C([H])(n4nc(-c5c([H])c([H])c(Oc6c([H])c([H])c(F)c([H])c6F)c([H])c5[H])c(C(=O)N([H])[H])c4N([H])[H])C3([H])[H])c([H])c([H])c2C1([H])[H]

>  <smiles>  (83) 
[H]c1c([H])c([H])c2c(c1[H])C([H])([H])C([H])([H])C([H])([H])C2([H])N([H])C(=O)C1([H])N(C(=O)C([H])(N([H])C(=O)C([H])(N([H])C([H])([H])[H])C([H])([H])[H])C(C([H])([H])[H])(C([H])([H])[H])C([H])([H])[H])C([H])([H])c2c([H])c(OC([H])([H])C(=O)N([H])C([H])([H])C(N([H])[H])=[N+]([H])C([H])(C(=O)N([H])[H])C([H])([H])C([H])([H])C([H])([H])N([H])C(=O)C([H])([H])C([H])([H])N([H])C(=O)N3C([H])([H])C([H])([H])C([H])([H])C([H])(n4nc(-c5c([H])c([H])c(Oc6c([H])c([H])c(F)c([H])c6F)c([H])c5[H])c(C(=O)N([H])[H])c4N([H])[H])C3([H])[H])c([H])c([H])c2C1([H])[H]

$$$$
90:0:0
     RDKit          3D

102109  0  0  1  0  0  0  0  0999 V2000
  -29.3720  -20.6790   19.8130 C   0  0  0  0  0  3  0  0  0  0  0  0
  -29.7910  -22.0760   20.3650 C   0  0  0  0  0  0  0  0  0  0  0  0
  -29.4530  -23.1760   19.6580 N   0  0  0  0  0  0  0  0  0  0  0  0
  -30.3760  -22.1500   21.4480 O   0  0  0  0  0  0  0  0  0  0  0  0
  -28.9940  -23.0160   18.7710 H   0  0  0  0  0  0  0  0  0  0  0  0
  -29.6750  -24.5960   20.0250 C   0  0  0  0  0  2  0  0  0  0  0  0
  -28.4880  -25.5050   19.5900 C   0  0  0  0  0  2  0  0  0  0  0  0
  -28.5630  -26.9070   19.9700 O   0  0  0  0  0  0  0  0  0  0  0  0
  -24.4890  -31.8100   23.2190 C   0  0  0  0  0  0  0  0  0  0  0  0
  -27.3740  -27.6290   19.9510 C   0  0  0  0  0  0  0  0  0  0  0  0
  -23.3740  -30.4460   21.4860 C   0  0  0  0  0  3  0  0  0  0  0  0
  -24.9170  -29.0610   20.0030 C   0  0  0  0  0  0  0  0  0  0  0  0
  -25.8880  -30.9210   21.3520 C   0  0  0  0  0  2  0  0  0  0  0  0
  -26.0460  -29.5910   20.6370 C   0  0  0  0  0  0  0  0  0  0  0  0
  -27.2770  -28.8850   20.6080 C   0  0  0  0  0  3  0  0  0  0  0  0
  -26.2160  -27.1330   19.3020 C   0  0  0  0  0  3  0  0  0  0  0  0
  -24.9980  -27.8330   19.3320 C   0  0  0  0  0  3  0  0  0  0  0  0
  -23.6350  -29.8600   20.0750 C   0  0  0  0  0  2  0  0  0  0  0  0
  -24.6010  -31.0720   22.0780 N   0  0  0  0  0  0  0  0  0  0  0  0
  -23.3890  -32.0030   23.7540 O   0  0  0  0  0  0  0  0  0  0  0  0
  -22.7590  -29.3450   22.3790 C   0  0  0  0  0  0  0  0  0  0  0  0
  -21.4380  -29.1320   22.2470 N   0  0  0  0  0  0  0  0  0  0  0  0
  -23.4650  -28.6850   23.1450 O   0  0  0  0  0  0  0  0  0  0  0  0
  -20.9270  -29.7180   21.6010 H   0  0  0  0  0  0  0  0  0  0  0  0
  -18.1000  -27.8250   22.7010 C   0  0  0  0  0  0  0  0  0  0  0  0
  -20.6550  -28.1220   22.9570 C   0  0  0  0  0  3  0  0  0  0  0  0
  -20.7820  -26.7400   22.2760 C   0  0  0  0  0  2  0  0  0  0  0  0
  -19.6720  -26.4660   21.2560 C   0  0  0  0  0  2  0  0  0  0  0  0
  -18.2970  -26.5330   21.9270 C   0  0  0  0  0  2  0  0  0  0  0  0
  -19.2080  -28.5790   23.1710 C   0  0  0  0  0  0  0  0  0  0  0  0
  -18.9710  -29.7920   23.8560 C   0  0  0  0  0  3  0  0  0  0  0  0
  -17.6580  -30.2490   24.0750 C   0  0  0  0  0  3  0  0  0  0  0  0
  -16.5650  -29.4900   23.6220 C   0  0  0  0  0  3  0  0  0  0  0  0
  -16.7870  -28.2810   22.9400 C   0  0  0  0  0  3  0  0  0  0  0  0
  -25.7350  -32.4680   23.8900 C   0  0  0  0  0  3  0  0  0  0  0  0
  -25.3970  -33.8680   24.1790 N   0  0  0  0  0  0  0  0  0  0  0  0
  -25.7490  -34.9080   23.4140 C   0  0  0  0  0  0  0  0  0  0  0  0
  -26.4660  -34.7930   22.4170 O   0  0  0  0  0  0  0  0  0  0  0  0
  -24.7680  -34.0300   24.9520 H   0  0  0  0  0  0  0  0  0  0  0  0
  -24.0140  -36.6670   22.9490 C   0  0  0  0  0  1  0  0  0  0  0  0
  -25.2250  -36.2980   23.8210 C   0  0  0  0  0  3  0  0  0  0  0  0
  -27.3050  -37.2330   24.7290 C   0  0  0  0  0  1  0  0  0  0  0  0
  -26.2470  -37.3630   23.7310 N   0  0  0  0  0  0  0  0  0  0  0  0
  -25.8210  -38.2800   23.8400 H   0  0  0  0  0  0  0  0  0  0  0  0
  -26.1970  -31.7230   25.2030 C   0  0  1  0  0  0  0  0  0  0  0  0
  -25.0580  -31.5080   26.2260 C   0  0  0  0  0  1  0  0  0  0  0  0
  -26.8000  -30.3390   24.8650 C   0  0  0  0  0  1  0  0  0  0  0  0
  -27.3150  -32.5340   25.9000 C   0  0  0  0  0  1  0  0  0  0  0  0
  -29.8570  -18.2480   20.3840 C   0  0  0  0  0  0  0  0  0  0  0  0
  -29.7630  -19.5580   20.7020 N   0  0  0  0  0  0  0  0  0  0  0  0
  -29.5870  -17.8240   19.2610 O   0  0  0  0  0  0  0  0  0  0  0  0
  -30.0360  -19.8380   21.6360 H   0  0  0  0  0  0  0  0  0  0  0  0
  -30.3100  -17.2580   21.4830 C   0  0  0  0  0  2  0  0  0  0  0  0
  -30.5890  -14.9010   20.5960 C   0  0  0  0  0  0  0  0  0  0  0  0
  -30.3490  -12.7790   19.3510 C   0  0  0  0  0  2  0  0  0  0  0  0
  -29.4230  -13.0030   18.1390 C   0  0  0  0  0  2  0  0  0  0  0  0
  -27.9460  -12.8200   18.5390 C   0  0  0  0  0  2  0  0  0  0  0  0
  -27.5720  -13.6030   19.8260 C   0  0  0  0  0  3  0  0  0  0  0  0
  -28.6130  -13.3640   20.9400 C   0  0  0  0  0  2  0  0  0  0  0  0
  -29.9380  -13.7190   20.4060 N   0  0  0  0  0  0  0  0  0  0  0  0
  -31.7080  -15.1300   20.1260 O   0  0  0  0  0  0  0  0  0  0  0  0
  -29.8970  -15.8570   21.2440 N   0  0  0  0  0  0  0  0  0  0  0  0
  -28.9670  -15.6100   21.5450 H   0  0  0  0  0  0  0  0  0  0  0  0
  -25.1490  -14.1440   20.5080 C   0  0  0  0  0  0  0  0  0  0  0  0
  -24.0900  -13.3440   20.8410 C   0  0  0  0  0  0  0  0  0  0  0  0
  -24.5790  -12.0020   20.7860 C   0  0  0  0  0  0  0  0  0  0  0  0
  -26.2160  -13.2900   20.2720 N   0  0  0  0  0  0  0  0  0  0  0  0
  -25.8740  -11.9950   20.4970 N   0  0  0  0  0  0  0  0  0  0  0  0
  -23.8740  -10.7220   20.9350 C   0  0  0  0  0  0  0  0  0  0  0  0
  -24.3280   -9.7300   21.8330 C   0  0  0  0  0  3  0  0  0  0  0  0
  -23.6230   -8.5150   21.9740 C   0  0  0  0  0  3  0  0  0  0  0  0
  -22.4500   -8.2830   21.2190 C   0  0  0  0  0  0  0  0  0  0  0  0
  -22.0150   -9.2640   20.3110 C   0  0  0  0  0  3  0  0  0  0  0  0
  -22.7210  -10.4710   20.1660 C   0  0  0  0  0  3  0  0  0  0  0  0
  -21.7160   -7.1230   21.2700 O   0  0  0  0  0  0  0  0  0  0  0  0
  -21.6980   -6.3320   22.3900 C   0  0  0  0  0  0  0  0  0  0  0  0
  -21.2850   -6.8260   23.6470 C   0  0  0  0  0  3  0  0  0  0  0  0
  -21.2130   -5.9620   24.7560 C   0  0  0  0  0  3  0  0  0  0  0  0
  -21.5450   -4.6010   24.6120 C   0  0  0  0  0  0  0  0  0  0  0  0
  -21.9520   -4.1050   23.3610 C   0  0  0  0  0  3  0  0  0  0  0  0
  -22.0260   -4.9680   22.2540 C   0  0  0  0  0  0  0  0  0  0  0  0
  -22.3980   -4.4800   21.0450 F   0  0  0  0  0  0  0  0  0  0  0  0
  -21.4710   -3.7680   25.6760 F   0  0  0  0  0  0  0  0  0  0  0  0
  -22.6800  -13.7880   21.1000 C   0  0  0  0  0  0  0  0  0  0  0  0
  -21.9580  -13.0720   21.9560 N   0  0  0  0  0  0  0  0  0  0  0  0
  -22.2250  -14.8050   20.5800 O   0  0  0  0  0  0  0  0  0  0  0  0
  -22.3380  -12.2520   22.4040 H   0  0  0  0  0  0  0  0  0  0  0  0
  -21.0090  -13.3520   22.1680 H   0  0  0  0  0  0  0  0  0  0  0  0
  -25.2900  -15.5220   20.3650 N   0  0  0  0  0  0  0  0  0  0  0  0
  -24.5020  -16.1520   20.4640 H   0  0  0  0  0  0  0  0  0  0  0  0
  -26.1320  -15.9870   20.0530 H   0  0  0  0  0  0  0  0  0  0  0  0
  -27.8610  -20.6310   19.4620 C   0  0  0  0  0  2  0  0  0  0  0  0
  -26.9280  -21.3290   20.4720 C   0  0  0  0  0  2  0  0  0  0  0  0
  -25.7280  -23.4180   19.7330 C   0  0  0  0  0  0  0  0  0  0  0  0
  -24.7530  -23.9470   19.0030 N   0  0  0  0  0  4  0  0  0  0  0  0
  -26.5570  -24.2250   20.3890 N   0  0  0  0  0  0  0  0  0  0  0  0
  -25.8660  -22.0850   19.7850 N   0  0  0  0  0  0  0  0  0  0  0  0
  -24.6200  -24.9440   18.9210 H   0  0  0  0  0  0  0  0  0  0  0  0
  -24.1180  -23.3660   18.4750 H   0  0  0  0  0  0  0  0  0  0  0  0
  -26.4410  -25.2280   20.3930 H   0  0  0  0  0  0  0  0  0  0  0  0
  -27.2690  -23.8470   20.9950 H   0  0  0  0  0  0  0  0  0  0  0  0
  -25.1880  -21.5140   19.2960 H   0  0  0  0  0  0  0  0  0  0  0  0
  1 92  1  0
  1  2  1  0
  1 50  1  0
  2  4  2  0
  3  6  1  0
  3  2  1  0
  5  3  1  0
  7  8  1  0
  7  6  1  0
  9 20  2  0
 10  8  1  0
 10 15  1  0
 11 19  1  0
 11 21  1  0
 12 18  1  0
 12 14  1  0
 13 19  1  0
 14 13  1  0
 15 14  2  0
 16 17  1  0
 16 10  2  0
 17 12  2  0
 18 11  1  0
 19  9  1  0
 21 23  2  0
 22 21  1  0
 24 22  1  0
 25 34  2  0
 25 30  1  0
 26 22  1  0
 26 30  1  0
 27 26  1  0
 28 29  1  0
 28 27  1  0
 29 25  1  0
 30 31  2  0
 31 32  1  0
 33 32  2  0
 34 33  1  0
 35  9  1  0
 35 36  1  0
 35 45  1  0
 36 39  1  0
 37 41  1  0
 37 36  1  0
 38 37  2  0
 41 40  1  0
 43 41  1  0
 43 44  1  0
 43 42  1  0
 45 48  1  1
 45 46  1  0
 47 45  1  0
 49 50  1  0
 49 53  1  0
 50 52  1  0
 51 49  2  0
 54 62  1  0
 55 60  1  0
 56 57  1  0
 56 55  1  0
 58 57  1  0
 58 67  1  0
 58 59  1  0
 60 54  1  0
 60 59  1  0
 61 54  2  0
 62 53  1  0
 62 63  1  0
 64 65  2  0
 65 84  1  0
 66 65  1  0
 66 69  1  0
 67 68  1  0
 67 64  1  0
 68 66  2  0
 69 70  1  0
 70 71  2  0
 72 75  1  0
 72 71  1  0
 73 72  2  0
 74 73  1  0
 74 69  2  0
 75 76  1  0
 76 77  1  0
 77 78  2  0
 79 78  1  0
 79 83  1  0
 80 79  2  0
 81 76  2  0
 81 80  1  0
 82 81  1  0
 84 85  1  0
 85 88  1  0
 85 87  1  0
 86 84  2  0
 89 90  1  0
 89 64  1  0
 91 89  1  0
 92 93  1  0
 94 97  1  0
 94 96  1  0
 95 94  2  0
 96100  1  0
 96101  1  0
 97 93  1  0
 98 95  1  0
 99 95  1  0
102 97  1  0
M  ISO  4   7 101   8 101  54 100  62 100
M  END
>  <TORSDO>  (84) 
F 24

>  <SCORE>  (84) 
-11.962

>  <name>  (84) 
90

>  <ligand_id>  (84) 
90

>  <original_smiles>  (84) 
[H]c1c([H])c([H])c2c(c1[H])C([H])([H])C([H])([H])C([H])([H])C2([H])N([H])C(=O)C1([H])N(C(=O)C([H])(N([H])C(=O)C([H])(N([H])C([H])([H])[H])C([H])([H])[H])C(C([H])([H])[H])(C([H])([H])[H])C([H])([H])[H])C([H])([H])c2c([H])c(OC([H])([H])C([H])([H])N([H])C(=O)C([H])(N([H])C(=O)C([H])([H])N([H])C(=O)N3C([H])([H])C([H])([H])C([H])([H])C([H])(n4nc(-c5c([H])c([H])c(Oc6c([H])c([H])c(F)c([H])c6F)c([H])c5[H])c(C(=O)N([H])[H])c4N([H])[H])C3([H])[H])C([H])([H])C([H])([H])N([H])C(N([H])[H])=[N+]([H])[H])c([H])c([H])c2C1([H])[H]

>  <smiles>  (84) 
[H]c1c([H])c([H])c2c(c1[H])C([H])([H])C([H])([H])C([H])([H])C2([H])N([H])C(=O)C1([H])N(C(=O)C([H])(N([H])C(=O)C([H])(N([H])C([H])([H])[H])C([H])([H])[H])C(C([H])([H])[H])(C([H])([H])[H])C([H])([H])[H])C([H])([H])c2c([H])c(OC([H])([H])C([H])([H])N([H])C(=O)C([H])(N([H])C(=O)C([H])([H])N([H])C(=O)N3C([H])([H])C([H])([H])C([H])([H])C([H])(n4nc(-c5c([H])c([H])c(Oc6c([H])c([H])c(F)c([H])c6F)c([H])c5[H])c(C(=O)N([H])[H])c4N([H])[H])C3([H])[H])C([H])([H])C([H])([H])N([H])C(N([H])[H])=[N+]([H])[H])c([H])c([H])c2C1([H])[H]

$$$$
91:0:0
     RDKit          3D

104111  0  0  1  0  0  0  0  0999 V2000
  -27.3810  -27.5540   17.7980 C   0  0  0  0  0  0  0  0  0  0  0  0
  -26.0780  -28.1810   18.1270 N   0  0  0  0  0  0  0  0  0  0  0  0
  -28.3680  -28.2850   17.9240 O   0  0  0  0  0  0  0  0  0  0  0  0
  -25.3280  -27.5130   18.0070 H   0  0  0  0  0  0  0  0  0  0  0  0
  -27.7900  -25.9340   17.2690 C   0  0  0  0  0  2  0  0  0  0  0  0
  -28.9130  -23.2690   17.6440 C   0  0  0  0  0  0  0  0  0  0  0  0
  -28.7210  -24.7110   17.9030 N   0  0  0  0  0  0  0  0  0  0  0  0
  -28.3750  -22.8470   16.6220 O   0  0  0  0  0  0  0  0  0  0  0  0
  -29.3260  -25.0410   18.6460 H   0  0  0  0  0  0  0  0  0  0  0  0
  -29.7600  -22.0420   18.5230 C   0  0  0  0  0  2  0  0  0  0  0  0
  -30.0500  -19.2070   19.1450 C   0  0  0  0  0  0  0  0  0  0  0  0
  -29.9610  -20.4090   18.2930 N   0  0  0  0  0  0  0  0  0  0  0  0
  -29.7780  -19.3800   20.3320 O   0  0  0  0  0  0  0  0  0  0  0  0
  -30.1400  -20.1980   17.3170 H   0  0  0  0  0  0  0  0  0  0  0  0
  -30.5690  -17.5890   18.7990 C   0  0  0  0  0  2  0  0  0  0  0  0
  -30.9830  -14.8460   19.6210 C   0  0  0  0  0  0  0  0  0  0  0  0
  -30.7530  -12.3840   18.9820 C   0  0  0  0  0  2  0  0  0  0  0  0
  -29.7700  -12.2460   17.8000 C   0  0  0  0  0  2  0  0  0  0  0  0
  -28.3220  -12.1140   18.3100 C   0  0  0  0  0  2  0  0  0  0  0  0
  -27.9930  -13.1440   19.4220 C   0  0  0  0  0  3  0  0  0  0  0  0
  -29.1060  -13.2450   20.4890 C   0  0  0  0  0  2  0  0  0  0  0  0
  -30.3400  -13.5950   19.7620 N   0  0  0  0  0  0  0  0  0  0  0  0
  -32.1930  -14.7670   19.3830 O   0  0  0  0  0  0  0  0  0  0  0  0
  -30.2780  -16.1260   19.4970 N   0  0  0  0  0  0  0  0  0  0  0  0
  -29.3220  -16.0530   19.8160 H   0  0  0  0  0  0  0  0  0  0  0  0
  -25.7080  -13.8740   20.3030 C   0  0  0  0  0  0  0  0  0  0  0  0
  -24.6110  -13.1790   20.7140 C   0  0  0  0  0  0  0  0  0  0  0  0
  -24.9730  -11.7950   20.6510 C   0  0  0  0  0  0  0  0  0  0  0  0
  -26.6740  -12.9300   20.0040 N   0  0  0  0  0  0  0  0  0  0  0  0
  -26.2430  -11.6700   20.2830 N   0  0  0  0  0  0  0  0  0  0  0  0
  -24.1640  -10.5880   20.8590 C   0  0  0  0  0  0  0  0  0  0  0  0
  -24.5390   -9.6000   21.7940 C   0  0  0  0  0  3  0  0  0  0  0  0
  -23.7310   -8.4600   21.9930 C   0  0  0  0  0  3  0  0  0  0  0  0
  -22.5330   -8.3010   21.2560 C   0  0  0  0  0  0  0  0  0  0  0  0
  -22.1760   -9.2760   20.3090 C   0  0  0  0  0  3  0  0  0  0  0  0
  -22.9830  -10.4080   20.1090 C   0  0  0  0  0  3  0  0  0  0  0  0
  -21.6990   -7.2130   21.3640 O   0  0  0  0  0  0  0  0  0  0  0  0
  -21.5790   -6.5110   22.5380 C   0  0  0  0  0  0  0  0  0  0  0  0
  -21.1770   -7.1340   23.7400 C   0  0  0  0  0  3  0  0  0  0  0  0
  -20.9990   -6.3620   24.9060 C   0  0  0  0  0  3  0  0  0  0  0  0
  -21.2150   -4.9730   24.8710 C   0  0  0  0  0  0  0  0  0  0  0  0
  -21.6090   -4.3500   23.6740 C   0  0  0  0  0  3  0  0  0  0  0  0
  -21.7890   -5.1180   22.5100 C   0  0  0  0  0  0  0  0  0  0  0  0
  -22.1500   -4.5110   21.3530 F   0  0  0  0  0  0  0  0  0  0  0  0
  -21.0360   -4.2300   25.9890 F   0  0  0  0  0  0  0  0  0  0  0  0
  -23.2650  -13.7530   21.0470 C   0  0  0  0  0  0  0  0  0  0  0  0
  -22.5330  -13.1160   21.9530 N   0  0  0  0  0  0  0  0  0  0  0  0
  -22.8760  -14.8040   20.5350 O   0  0  0  0  0  0  0  0  0  0  0  0
  -22.8620  -12.2650   22.3830 H   0  0  0  0  0  0  0  0  0  0  0  0
  -21.6340  -13.4860   22.2220 H   0  0  0  0  0  0  0  0  0  0  0  0
  -25.9640  -15.2360   20.1280 N   0  0  0  0  0  0  0  0  0  0  0  0
  -25.2490  -15.9360   20.2830 H   0  0  0  0  0  0  0  0  0  0  0  0
  -26.8130  -15.6160   19.7320 H   0  0  0  0  0  0  0  0  0  0  0  0
  -25.5060  -29.5770   18.8500 C   0  0  0  0  0  2  0  0  0  0  0  0
  -24.1280  -29.9930   19.9980 C   0  0  0  0  0  2  0  0  0  0  0  0
  -23.7210  -30.3150   21.7640 C   0  0  0  0  0  2  0  0  0  0  0  0
  -22.6280  -29.8790   23.2320 C   0  0  0  0  0  2  0  0  0  0  0  0
  -22.3540  -28.4960   24.2570 N   0  0  0  0  0  4  0  0  0  0  0  0
  -21.7960  -27.8740   23.6880 H   0  0  0  0  0  0  0  0  0  0  0  0
  -21.7510  -28.8580   24.9790 H   0  0  0  0  0  0  0  0  0  0  0  0
  -23.2860  -27.2940   25.1140 C   0  0  0  0  0  2  0  0  0  0  0  0
  -24.3640  -25.7920   24.7070 C   0  0  0  0  0  2  0  0  0  0  0  0
  -25.3110  -24.8520   23.4110 C   0  0  0  0  0  2  0  0  0  0  0  0
  -25.4110  -23.6490   22.2480 O   0  0  0  0  0  0  0  0  0  0  0  0
  -25.6190  -28.5570   23.3090 C   0  0  0  0  0  0  0  0  0  0  0  0
  -26.0740  -23.6400   21.0430 C   0  0  0  0  0  3  0  0  0  0  0  0
  -23.7270  -27.2900   21.3690 C   0  0  0  0  0  3  0  0  0  0  0  0
  -24.7480  -25.6740   20.1430 C   0  0  0  0  0  0  0  0  0  0  0  0
  -26.3460  -27.1220   21.5800 C   0  0  0  0  0  2  0  0  0  0  0  0
  -25.9850  -25.8840   20.8240 C   0  0  0  0  0  0  0  0  0  0  0  0
  -26.8170  -24.7990   21.0140 C   0  0  0  0  0  2  0  0  0  0  0  0
  -25.0820  -23.3510   20.0850 C   0  0  0  0  0  3  0  0  0  0  0  0
  -24.3470  -24.4360   19.6470 C   0  0  0  0  0  3  0  0  0  0  0  0
  -23.7580  -26.6670   20.0310 C   0  0  0  0  0  2  0  0  0  0  0  0
  -25.1700  -27.6720   22.2150 N   0  0  0  0  0  0  0  0  0  0  0  0
  -24.9870  -29.4950   23.8090 O   0  0  0  0  0  0  0  0  0  0  0  0
  -22.3860  -26.6020   21.8590 C   0  0  0  0  0  0  0  0  0  0  0  0
  -21.2060  -27.2580   21.8220 N   0  0  0  0  0  0  0  0  0  0  0  0
  -22.4340  -25.5130   22.3720 O   0  0  0  0  0  0  0  0  0  0  0  0
  -21.0280  -28.0010   21.1620 H   0  0  0  0  0  0  0  0  0  0  0  0
  -17.7300  -27.8420   22.1770 C   0  0  0  0  0  0  0  0  0  0  0  0
  -20.0460  -26.8300   22.6030 C   0  0  0  0  0  3  0  0  0  0  0  0
  -19.4390  -25.5460   22.0050 C   0  0  0  0  0  2  0  0  0  0  0  0
  -18.5560  -25.8680   20.8170 C   0  0  0  0  0  2  0  0  0  0  0  0
  -17.3440  -26.6320   21.3430 C   0  0  0  0  0  2  0  0  0  0  0  0
  -19.0180  -27.9570   22.7680 C   0  0  0  0  0  0  0  0  0  0  0  0
  -19.3280  -29.1180   23.5110 C   0  0  0  0  0  3  0  0  0  0  0  0
  -18.3740  -30.1470   23.6660 C   0  0  0  0  0  3  0  0  0  0  0  0
  -17.0990  -30.0160   23.0970 C   0  0  0  0  0  3  0  0  0  0  0  0
  -16.7780  -28.8630   22.3530 C   0  0  0  0  0  3  0  0  0  0  0  0
  -26.9170  -28.6110   24.1810 C   0  0  0  0  0  3  0  0  0  0  0  0
  -27.1470  -30.0320   24.6010 N   0  0  0  0  0  0  0  0  0  0  0  0
  -27.7560  -30.9740   23.9020 C   0  0  0  0  0  0  0  0  0  0  0  0
  -28.3790  -30.7050   22.8780 O   0  0  0  0  0  0  0  0  0  0  0  0
  -26.5860  -30.3290   25.3820 H   0  0  0  0  0  0  0  0  0  0  0  0
  -26.8180  -33.2980   23.5420 C   0  0  0  0  0  1  0  0  0  0  0  0
  -27.6960  -32.4190   24.4500 C   0  0  0  0  0  3  0  0  0  0  0  0
  -29.8330  -32.4040   25.6410 C   0  0  0  0  0  1  0  0  0  0  0  0
  -29.0440  -33.0190   24.5820 N   0  0  0  0  0  0  0  0  0  0  0  0
  -28.9970  -34.0230   24.7420 H   0  0  0  0  0  0  0  0  0  0  0  0
  -26.8230  -27.8360   25.5710 C   0  0  1  0  0  0  0  0  0  0  0  0
  -25.5930  -28.1180   26.5150 C   0  0  0  0  0  1  0  0  0  0  0  0
  -27.0850  -26.3420   25.3810 C   0  0  0  0  0  1  0  0  0  0  0  0
  -28.0420  -28.2850   26.4250 C   0  0  0  0  0  1  0  0  0  0  0  0
  1  3  2  0
  1  2  1  0
  2 54  1  0
  4  2  1  0
  5  1  1  0
  5  7  1  0
  6  7  1  0
  6 10  1  0
  7  9  1  0
  8  6  2  0
 11 13  2  0
 12 10  1  0
 12 11  1  0
 14 12  1  0
 15 11  1  0
 15 24  1  0
 16 22  1  0
 17 22  1  0
 18 19  1  0
 18 17  1  0
 20 19  1  0
 20 29  1  0
 20 21  1  0
 22 21  1  0
 23 16  2  0
 24 16  1  0
 24 25  1  0
 26 27  2  0
 27 46  1  0
 28 27  1  0
 28 31  1  0
 29 30  1  0
 29 26  1  0
 30 28  2  0
 31 32  1  0
 32 33  2  0
 34 37  1  0
 34 33  1  0
 35 34  2  0
 36 35  1  0
 36 31  2  0
 37 38  1  0
 38 39  1  0
 39 40  2  0
 41 40  1  0
 41 45  1  0
 42 41  2  0
 43 38  2  0
 43 42  1  0
 44 43  1  0
 46 47  1  0
 47 50  1  0
 47 49  1  0
 48 46  2  0
 51 52  1  0
 51 26  1  0
 53 51  1  0
 54 55  1  0
 55 56  1  0
 56 57  1  0
 57 58  1  0
 58 60  1  0
 58 61  1  0
 59 58  1  0
 62 61  1  0
 63 62  1  0
 64 63  1  0
 65 76  2  0
 66 64  1  0
 67 77  1  0
 67 75  1  0
 68 70  2  0
 69 75  1  0
 70 71  1  0
 70 69  1  0
 71 66  1  0
 72 66  1  0
 73 72  2  0
 73 68  1  0
 74 68  1  0
 74 67  1  0
 75 65  1  0
 77 79  2  0
 78 77  1  0
 80 78  1  0
 81 90  2  0
 81 86  1  0
 82 78  1  0
 82 86  1  0
 83 82  1  0
 84 85  1  0
 84 83  1  0
 85 81  1  0
 86 87  2  0
 87 88  1  0
 89 88  2  0
 90 89  1  0
 91 65  1  0
 91 92  1  0
 91101  1  0
 92 95  1  0
 93 97  1  0
 93 92  1  0
 94 93  2  0
 97 96  1  0
 97 99  1  0
 99100  1  0
 99 98  1  0
101104  1  1
101102  1  0
103101  1  0
M  ISO  4  16 100  24 100  63 101  64 101
M  END
>  <TORSDO>  (85) 
F 29

>  <SCORE>  (85) 
-12.851

>  <name>  (85) 
91

>  <ligand_id>  (85) 
91

>  <original_smiles>  (85) 
[H]c1c([H])c([H])c2c(c1[H])C([H])([H])C([H])([H])C([H])([H])C2([H])N([H])C(=O)C1([H])N(C(=O)C([H])(N([H])C(=O)C([H])(N([H])C([H])([H])[H])C([H])([H])[H])C(C([H])([H])[H])(C([H])([H])[H])C([H])([H])[H])C([H])([H])c2c([H])c(OC([H])([H])C([H])([H])C([H])([H])[N+]([H])([H])C([H])([H])C([H])([H])C([H])([H])C([H])([H])N([H])C(=O)C([H])([H])N([H])C(=O)C([H])([H])N([H])C(=O)C([H])([H])N([H])C(=O)N3C([H])([H])C([H])([H])C([H])([H])C([H])(n4nc(-c5c([H])c([H])c(Oc6c([H])c([H])c(F)c([H])c6F)c([H])c5[H])c(C(=O)N([H])[H])c4N([H])[H])C3([H])[H])c([H])c([H])c2C1([H])[H]

>  <smiles>  (85) 
[H]c1c([H])c([H])c2c(c1[H])C([H])([H])C([H])([H])C([H])([H])C2([H])N([H])C(=O)C1([H])N(C(=O)C([H])(N([H])C(=O)C([H])(N([H])C([H])([H])[H])C([H])([H])[H])C(C([H])([H])[H])(C([H])([H])[H])C([H])([H])[H])C([H])([H])c2c([H])c(OC([H])([H])C([H])([H])C([H])([H])[N+]([H])([H])C([H])([H])C([H])([H])C([H])([H])C([H])([H])N([H])C(=O)C([H])([H])N([H])C(=O)C([H])([H])N([H])C(=O)C([H])([H])N([H])C(=O)N3C([H])([H])C([H])([H])C([H])([H])C([H])(n4nc(-c5c([H])c([H])c(Oc6c([H])c([H])c(F)c([H])c6F)c([H])c5[H])c(C(=O)N([H])[H])c4N([H])[H])C3([H])[H])c([H])c([H])c2C1([H])[H]

$$$$
93:0:0
     RDKit          3D

 99106  0  0  1  0  0  0  0  0999 V2000
  -26.3270  -21.7080   17.8710 C   0  0  0  0  0  2  0  0  0  0  0  0
  -26.7400  -23.1550   17.7380 C   0  0  0  0  0  0  0  0  0  0  0  0
  -26.0440  -23.9350   16.8940 N   0  0  0  0  0  4  0  0  0  0  0  0
  -27.7850  -23.6410   18.4380 N   0  0  0  0  0  0  0  0  0  0  0  0
  -25.2660  -23.5520   16.3690 H   0  0  0  0  0  0  0  0  0  0  0  0
  -26.2930  -24.8910   16.6940 H   0  0  0  0  0  0  0  0  0  0  0  0
  -28.2800  -22.9750   19.0180 H   0  0  0  0  0  0  0  0  0  0  0  0
  -28.3610  -24.9950   18.3750 C   0  0  0  0  0  2  0  0  0  0  0  0
  -28.3780  -25.6810   19.7490 C   0  0  0  0  0  2  0  0  0  0  0  0
  -28.4280  -27.1030   19.6120 O   0  0  0  0  0  0  0  0  0  0  0  0
  -24.6420  -31.9040   23.1780 C   0  0  0  0  0  0  0  0  0  0  0  0
  -27.2320  -27.7830   19.6790 C   0  0  0  0  0  0  0  0  0  0  0  0
  -23.3950  -30.6200   21.4700 C   0  0  0  0  0  3  0  0  0  0  0  0
  -24.8170  -29.2310   19.8790 C   0  0  0  0  0  0  0  0  0  0  0  0
  -25.9020  -31.0500   21.2070 C   0  0  0  0  0  2  0  0  0  0  0  0
  -25.9860  -29.7330   20.4650 C   0  0  0  0  0  0  0  0  0  0  0  0
  -27.1970  -29.0180   20.3580 C   0  0  0  0  0  3  0  0  0  0  0  0
  -26.0460  -27.2870   19.0910 C   0  0  0  0  0  3  0  0  0  0  0  0
  -24.8410  -28.0080   19.1890 C   0  0  0  0  0  3  0  0  0  0  0  0
  -23.5630  -30.0590   20.0330 C   0  0  0  0  0  2  0  0  0  0  0  0
  -24.6680  -31.2000   22.0110 N   0  0  0  0  0  0  0  0  0  0  0  0
  -23.5790  -32.1110   23.7760 O   0  0  0  0  0  0  0  0  0  0  0  0
  -22.7950  -29.5120   22.3650 C   0  0  0  0  0  0  0  0  0  0  0  0
  -21.4690  -29.3230   22.2720 N   0  0  0  0  0  0  0  0  0  0  0  0
  -23.5160  -28.8320   23.0990 O   0  0  0  0  0  0  0  0  0  0  0  0
  -20.9460  -29.9270   21.6530 H   0  0  0  0  0  0  0  0  0  0  0  0
  -18.1350  -28.0260   22.7630 C   0  0  0  0  0  0  0  0  0  0  0  0
  -20.6930  -28.3140   22.9910 C   0  0  0  0  0  3  0  0  0  0  0  0
  -20.8080  -26.9320   22.3050 C   0  0  0  0  0  2  0  0  0  0  0  0
  -19.6860  -26.6640   21.2980 C   0  0  0  0  0  2  0  0  0  0  0  0
  -18.3190  -26.7330   21.9850 C   0  0  0  0  0  2  0  0  0  0  0  0
  -19.2490  -28.7760   23.2220 C   0  0  0  0  0  0  0  0  0  0  0  0
  -19.0230  -29.9890   23.9060 C   0  0  0  0  0  3  0  0  0  0  0  0
  -17.7130  -30.4520   24.1380 C   0  0  0  0  0  3  0  0  0  0  0  0
  -16.6140  -29.6970   23.6950 C   0  0  0  0  0  3  0  0  0  0  0  0
  -16.8260  -28.4860   23.0140 C   0  0  0  0  0  3  0  0  0  0  0  0
  -25.9430  -32.5020   23.8030 C   0  0  0  0  0  3  0  0  0  0  0  0
  -25.6310  -33.8650   24.2530 N   0  0  0  0  0  0  0  0  0  0  0  0
  -25.9420  -34.9780   23.5750 C   0  0  0  0  0  0  0  0  0  0  0  0
  -26.5950  -34.9630   22.5270 O   0  0  0  0  0  0  0  0  0  0  0  0
  -25.0520  -33.9520   25.0750 H   0  0  0  0  0  0  0  0  0  0  0  0
  -24.2030  -36.7840   23.3830 C   0  0  0  0  0  1  0  0  0  0  0  0
  -25.4520  -36.3190   24.1500 C   0  0  0  0  0  3  0  0  0  0  0  0
  -27.5870  -37.1410   25.0370 C   0  0  0  0  0  1  0  0  0  0  0  0
  -26.4780  -37.3830   24.1190 N   0  0  0  0  0  0  0  0  0  0  0  0
  -26.0680  -38.2850   24.3480 H   0  0  0  0  0  0  0  0  0  0  0  0
  -26.5160  -31.6360   24.9910 C   0  0  1  0  0  0  0  0  0  0  0  0
  -25.4680  -31.2990   26.0750 C   0  0  0  0  0  1  0  0  0  0  0  0
  -27.0960  -30.3040   24.4610 C   0  0  0  0  0  1  0  0  0  0  0  0
  -27.6850  -32.3870   25.6730 C   0  0  0  0  0  1  0  0  0  0  0  0
  -28.0740  -20.3580   19.0160 C   0  0  0  0  0  0  0  0  0  0  0  0
  -26.9020  -20.9970   19.0110 N   0  0  0  0  0  0  0  0  0  0  0  0
  -28.8790  -20.4530   18.0880 O   0  0  0  0  0  0  0  0  0  0  0  0
  -26.2990  -20.8900   19.8150 H   0  0  0  0  0  0  0  0  0  0  0  0
  -28.6850  -20.3530   21.5170 C   0  0  0  0  0  1  0  0  0  0  0  0
  -28.4120  -19.5130   20.2550 C   0  0  0  0  0  3  0  0  0  0  0  0
  -29.7130  -17.3950   20.4510 C   0  0  0  0  0  0  0  0  0  0  0  0
  -29.5500  -18.6350   19.9840 N   0  0  0  0  0  0  0  0  0  0  0  0
  -28.8720  -16.8360   21.1600 O   0  0  0  0  0  0  0  0  0  0  0  0
  -30.2370  -19.0000   19.3360 H   0  0  0  0  0  0  0  0  0  0  0  0
  -31.0050  -16.6630   20.0760 C   0  0  0  0  0  2  0  0  0  0  0  0
  -31.4020  -14.2340   19.7410 C   0  0  0  0  0  0  0  0  0  0  0  0
  -31.0060  -11.9500   18.9100 C   0  0  0  0  0  2  0  0  0  0  0  0
  -30.0220  -12.0040   17.7240 C   0  0  0  0  0  2  0  0  0  0  0  0
  -28.5620  -11.9860   18.2170 C   0  0  0  0  0  2  0  0  0  0  0  0
  -28.2990  -13.0240   19.3440 C   0  0  0  0  0  3  0  0  0  0  0  0
  -29.3810  -12.9050   20.4400 C   0  0  0  0  0  2  0  0  0  0  0  0
  -30.7010  -13.0740   19.8040 N   0  0  0  0  0  0  0  0  0  0  0  0
  -32.4370  -14.3790   19.0830 O   0  0  0  0  0  0  0  0  0  0  0  0
  -30.8290  -15.2510   20.3820 N   0  0  0  0  0  0  0  0  0  0  0  0
  -29.9730  -15.0420   20.8790 H   0  0  0  0  0  0  0  0  0  0  0  0
  -26.0150  -13.8590   20.1990 C   0  0  0  0  0  0  0  0  0  0  0  0
  -24.8980  -13.1900   20.6190 C   0  0  0  0  0  0  0  0  0  0  0  0
  -25.2220  -11.8000   20.5560 C   0  0  0  0  0  0  0  0  0  0  0  0
  -26.9540  -12.8820   19.9010 N   0  0  0  0  0  0  0  0  0  0  0  0
  -26.4800  -11.6380   20.1670 N   0  0  0  0  0  0  0  0  0  0  0  0
  -24.3890  -10.6120   20.7890 C   0  0  0  0  0  0  0  0  0  0  0  0
  -24.7440   -9.6360   21.7450 C   0  0  0  0  0  3  0  0  0  0  0  0
  -23.9200   -8.5110   21.9620 C   0  0  0  0  0  3  0  0  0  0  0  0
  -22.7250   -8.3540   21.2190 C   0  0  0  0  0  0  0  0  0  0  0  0
  -22.3860   -9.3190   20.2530 C   0  0  0  0  0  3  0  0  0  0  0  0
  -23.2100  -10.4340   20.0360 C   0  0  0  0  0  3  0  0  0  0  0  0
  -21.8760   -7.2820   21.3410 O   0  0  0  0  0  0  0  0  0  0  0  0
  -21.7370   -6.6060   22.5270 C   0  0  0  0  0  0  0  0  0  0  0  0
  -21.3220   -7.2540   23.7100 C   0  0  0  0  0  3  0  0  0  0  0  0
  -21.1280   -6.5090   24.8920 C   0  0  0  0  0  3  0  0  0  0  0  0
  -21.3370   -5.1170   24.8870 C   0  0  0  0  0  0  0  0  0  0  0  0
  -21.7440   -4.4690   23.7080 C   0  0  0  0  0  3  0  0  0  0  0  0
  -21.9410   -5.2110   22.5310 C   0  0  0  0  0  0  0  0  0  0  0  0
  -22.3140   -4.5780   21.3940 F   0  0  0  0  0  0  0  0  0  0  0  0
  -21.1410   -4.4000   26.0190 F   0  0  0  0  0  0  0  0  0  0  0  0
  -23.5750  -13.7980   20.9850 C   0  0  0  0  0  0  0  0  0  0  0  0
  -22.8500  -13.1830   21.9130 N   0  0  0  0  0  0  0  0  0  0  0  0
  -23.1990  -14.8560   20.4840 O   0  0  0  0  0  0  0  0  0  0  0  0
  -23.1650  -12.3240   22.3380 H   0  0  0  0  0  0  0  0  0  0  0  0
  -21.9660  -13.5790   22.2010 H   0  0  0  0  0  0  0  0  0  0  0  0
  -26.3100  -15.2090   20.0400 N   0  0  0  0  0  0  0  0  0  0  0  0
  -25.6510  -15.9080   20.3630 H   0  0  0  0  0  0  0  0  0  0  0  0
  -27.2710  -15.5380   20.0790 H   0  0  0  0  0  0  0  0  0  0  0  0
  1 52  1  0
  2  1  1  0
  2  4  1  0
  3  2  2  0
  4  7  1  0
  5  3  1  0
  6  3  1  0
  8  4  1  0
  8  9  1  0
 10 12  1  0
 10  9  1  0
 11 22  2  0
 12 17  1  0
 13 21  1  0
 13 23  1  0
 14 20  1  0
 14 16  1  0
 15 21  1  0
 16 15  1  0
 17 16  2  0
 18 19  1  0
 18 12  2  0
 19 14  2  0
 20 13  1  0
 21 11  1  0
 23 25  2  0
 24 23  1  0
 26 24  1  0
 27 36  2  0
 27 32  1  0
 28 24  1  0
 28 32  1  0
 29 28  1  0
 30 31  1  0
 30 29  1  0
 31 27  1  0
 32 33  2  0
 33 34  1  0
 35 34  2  0
 36 35  1  0
 37 11  1  0
 37 38  1  0
 37 47  1  0
 38 41  1  0
 39 43  1  0
 39 38  1  0
 40 39  2  0
 43 42  1  0
 45 43  1  0
 45 46  1  0
 45 44  1  0
 47 50  1  1
 47 48  1  0
 49 47  1  0
 51 56  1  0
 52 51  1  0
 52 54  1  0
 53 51  2  0
 56 55  1  0
 57 59  2  0
 58 56  1  0
 58 57  1  0
 60 58  1  0
 61 70  1  0
 61 57  1  0
 62 68  1  0
 62 70  1  0
 63 68  1  0
 64 65  1  0
 64 63  1  0
 66 65  1  0
 66 75  1  0
 66 67  1  0
 68 67  1  0
 69 62  2  0
 70 71  1  0
 72 73  2  0
 73 92  1  0
 74 73  1  0
 74 77  1  0
 75 76  1  0
 75 72  1  0
 76 74  2  0
 77 78  1  0
 78 79  2  0
 80 83  1  0
 80 79  1  0
 81 80  2  0
 82 81  1  0
 82 77  2  0
 83 84  1  0
 84 89  2  0
 84 85  1  0
 85 86  2  0
 87 86  1  0
 87 91  1  0
 88 87  2  0
 89 88  1  0
 90 89  1  0
 92 93  1  0
 93 96  1  0
 93 95  1  0
 94 92  2  0
 97 99  1  0
 97 72  1  0
 97 98  1  0
M  ISO  4   9 101  10 101  62 100  70 100
M  END
>  <TORSDO>  (86) 
F 23

>  <SCORE>  (86) 
-11.305

>  <name>  (86) 
93

>  <ligand_id>  (86) 
93

>  <original_smiles>  (86) 
[H]c1c([H])c([H])c2c(c1[H])C([H])([H])C([H])([H])C([H])([H])C2([H])N([H])C(=O)C1([H])N(C(=O)C([H])(N([H])C(=O)C([H])(N([H])C([H])([H])[H])C([H])([H])[H])C(C([H])([H])[H])(C([H])([H])[H])C([H])([H])[H])C([H])([H])c2c([H])c(OC([H])([H])C([H])([H])[N+]([H])=C(N([H])[H])C([H])([H])N([H])C(=O)C([H])(N([H])C(=O)C([H])([H])N([H])C(=O)N3C([H])([H])C([H])([H])C([H])([H])C([H])(n4nc(-c5c([H])c([H])c(Oc6c([H])c([H])c(F)c([H])c6F)c([H])c5[H])c(C(=O)N([H])[H])c4N([H])[H])C3([H])[H])C([H])([H])[H])c([H])c([H])c2C1([H])[H]

>  <smiles>  (86) 
[H]c1c([H])c([H])c2c(c1[H])C([H])([H])C([H])([H])C([H])([H])C2([H])N([H])C(=O)C1([H])N(C(=O)C([H])(N([H])C(=O)C([H])(N([H])C([H])([H])[H])C([H])([H])[H])C(C([H])([H])[H])(C([H])([H])[H])C([H])([H])[H])C([H])([H])c2c([H])c(OC([H])([H])C([H])([H])[N+]([H])=C(N([H])[H])C([H])([H])N([H])C(=O)C([H])(N([H])C(=O)C([H])([H])N([H])C(=O)N3C([H])([H])C([H])([H])C([H])([H])C([H])(n4nc(-c5c([H])c([H])c(Oc6c([H])c([H])c(F)c([H])c6F)c([H])c5[H])c(C(=O)N([H])[H])c4N([H])[H])C3([H])[H])C([H])([H])[H])c([H])c([H])c2C1([H])[H]

$$$$
94:0:0
     RDKit          3D

106115  0  0  1  0  0  0  0  0999 V2000
  -29.0600  -19.1520   18.8350 C   0  0  0  0  0  0  0  0  0  0  0  0
  -25.9050  -20.6330   17.6590 C   0  0  0  0  0  2  0  0  0  0  0  0
  -26.8310  -21.7860   17.3760 C   0  0  0  0  0  2  0  0  0  0  0  0
  -26.7990  -19.4250   17.9030 C   0  0  0  0  0  2  0  0  0  0  0  0
  -28.1900  -21.4130   18.0080 C   0  0  0  0  0  3  0  0  0  0  0  0
  -28.1220  -19.9530   18.2640 N   0  0  0  0  0  0  0  0  0  0  0  0
  -28.9400  -17.9150   18.8830 O   0  0  0  0  0  0  0  0  0  0  0  0
  -29.2930  -21.8680   17.0190 C   0  0  0  0  0  0  0  0  0  0  0  0
  -29.5930  -23.1740   17.0880 N   0  0  0  0  0  0  0  0  0  0  0  0
  -29.8180  -21.0890   16.2160 O   0  0  0  0  0  0  0  0  0  0  0  0
  -29.0870  -23.6890   17.7950 H   0  0  0  0  0  0  0  0  0  0  0  0
  -30.2960  -23.9930   16.0950 C   0  0  0  0  0  2  0  0  0  0  0  0
  -30.6180  -25.3970   16.6710 C   0  0  0  0  0  2  0  0  0  0  0  0
  -29.8930  -26.4730   16.0570 O   0  0  0  0  0  0  0  0  0  0  0  0
  -26.4170  -27.9200   22.1160 C   0  0  0  0  0  0  0  0  0  0  0  0
  -28.6990  -26.8230   16.6580 C   0  0  0  0  0  0  0  0  0  0  0  0
  -25.0090  -27.6620   20.0970 C   0  0  0  0  0  3  0  0  0  0  0  0
  -26.2630  -27.5990   17.8700 C   0  0  0  0  0  0  0  0  0  0  0  0
  -27.4270  -28.4680   19.9050 C   0  0  0  0  0  2  0  0  0  0  0  0
  -27.4740  -27.8190   18.5350 C   0  0  0  0  0  0  0  0  0  0  0  0
  -28.6950  -27.4480   17.9250 C   0  0  0  0  0  3  0  0  0  0  0  0
  -27.4710  -26.6120   15.9970 C   0  0  0  0  0  3  0  0  0  0  0  0
  -26.2560  -26.9980   16.5970 C   0  0  0  0  0  3  0  0  0  0  0  0
  -25.0010  -28.0290   18.5880 C   0  0  0  0  0  2  0  0  0  0  0  0
  -26.3150  -27.9940   20.7580 N   0  0  0  0  0  0  0  0  0  0  0  0
  -25.4420  -27.6250   22.8190 O   0  0  0  0  0  0  0  0  0  0  0  0
  -24.6000  -26.1810   20.2550 C   0  0  0  0  0  0  0  0  0  0  0  0
  -23.3050  -25.8900   20.0560 N   0  0  0  0  0  0  0  0  0  0  0  0
  -25.4440  -25.3200   20.5160 O   0  0  0  0  0  0  0  0  0  0  0  0
  -22.6740  -26.6560   19.8480 H   0  0  0  0  0  0  0  0  0  0  0  0
  -20.2100  -24.0760   19.6430 C   0  0  0  0  0  0  0  0  0  0  0  0
  -22.7060  -24.5610   20.1140 C   0  0  0  0  0  3  0  0  0  0  0  0
  -22.9990  -23.7630   18.8230 C   0  0  0  0  0  2  0  0  0  0  0  0
  -21.8980  -23.8990   17.7650 C   0  0  0  0  0  2  0  0  0  0  0  0
  -20.5560  -23.4130   18.3220 C   0  0  0  0  0  2  0  0  0  0  0  0
  -21.2190  -24.6280   20.4780 C   0  0  0  0  0  0  0  0  0  0  0  0
  -20.8390  -25.2640   21.6810 C   0  0  0  0  0  3  0  0  0  0  0  0
  -19.4850  -25.3480   22.0550 C   0  0  0  0  0  3  0  0  0  0  0  0
  -18.4920  -24.7870   21.2350 C   0  0  0  0  0  3  0  0  0  0  0  0
  -18.8560  -24.1500   20.0330 C   0  0  0  0  0  3  0  0  0  0  0  0
  -27.7590  -28.2290   22.8530 C   0  0  0  0  0  3  0  0  0  0  0  0
  -28.6430  -26.9440   23.0970 C   0  0  1  0  0  0  0  0  0  0  0  0
  -27.8770  -25.7900   23.7810 C   0  0  0  0  0  1  0  0  0  0  0  0
  -29.2190  -26.4080   21.7660 C   0  0  0  0  0  1  0  0  0  0  0  0
  -29.8570  -27.3030   23.9880 C   0  0  0  0  0  1  0  0  0  0  0  0
  -27.4260  -28.8840   24.1250 N   0  0  0  0  0  0  0  0  0  0  0  0
  -27.5470  -30.1970   24.3590 C   0  0  0  0  0  0  0  0  0  0  0  0
  -28.0220  -30.9820   23.5330 O   0  0  0  0  0  0  0  0  0  0  0  0
  -26.9800  -28.3100   24.8250 H   0  0  0  0  0  0  0  0  0  0  0  0
  -25.6730  -31.3650   25.5620 C   0  0  0  0  0  1  0  0  0  0  0  0
  -27.0590  -30.7220   25.7210 C   0  0  0  0  0  3  0  0  0  0  0  0
  -29.2400  -31.0890   26.7860 C   0  0  0  0  0  1  0  0  0  0  0  0
  -27.9860  -31.6900   26.3430 N   0  0  0  0  0  0  0  0  0  0  0  0
  -27.5520  -32.1460   27.1410 H   0  0  0  0  0  0  0  0  0  0  0  0
  -30.3020  -19.7770   19.5200 C   0  0  0  0  0  0  0  0  0  0  0  0
  -30.3260  -21.4280   23.0810 C   0  0  0  0  0  2  0  0  0  0  0  0
  -30.3970  -21.2530   21.5550 C   0  0  0  0  0  2  0  0  0  0  0  0
  -31.3660  -20.5480   23.7840 C   0  0  0  0  0  2  0  0  0  0  0  0
  -31.4280  -19.0200   21.8480 C   0  0  0  0  0  2  0  0  0  0  0  0
  -30.2920  -19.7740   21.0960 C   0  0  0  0  0  3  0  0  0  0  0  0
  -32.1180  -18.2100   24.1220 C   0  0  0  0  0  1  0  0  0  0  0  0
  -31.2610  -19.1350   23.3310 N   0  0  1  0  0  4  0  0  0  0  0  0
  -30.3170  -18.8490   23.5540 H   0  0  0  0  0  0  0  0  0  0  0  0
  -32.4420  -18.4840   18.7970 C   0  0  0  0  0  0  0  0  0  0  0  0
  -31.4890  -19.4110   18.7550 N   0  0  0  0  0  4  0  0  0  0  0  0
  -33.2850  -18.4990   17.8960 O   0  0  0  0  0  0  0  0  0  0  0  0
  -31.5530  -19.9490   17.8910 H   0  0  0  0  0  0  0  0  0  0  0  0
  -32.5930  -17.4450   19.8980 C   0  0  0  0  0  2  0  0  0  0  0  0
  -31.8390  -15.3270   20.6670 C   0  0  0  0  0  0  0  0  0  0  0  0
  -31.3730  -13.0220   20.0040 C   0  0  0  0  0  2  0  0  0  0  0  0
  -30.6790  -12.9830   18.6350 C   0  0  0  0  0  2  0  0  0  0  0  0
  -29.1550  -12.9480   18.8410 C   0  0  0  0  0  2  0  0  0  0  0  0
  -28.6700  -14.0710   19.8110 C   0  0  0  0  0  3  0  0  0  0  0  0
  -29.5570  -14.2480   21.0720 C   0  0  0  0  0  2  0  0  0  0  0  0
  -30.9620  -14.2910   20.6350 N   0  0  0  0  0  0  0  0  0  0  0  0
  -33.0400  -15.1090   20.7090 O   0  0  0  0  0  0  0  0  0  0  0  0
  -31.4720  -16.5770   20.3220 N   0  0  0  0  0  0  0  0  0  0  0  0
  -30.5150  -16.8390   20.1060 H   0  0  0  0  0  0  0  0  0  0  0  0
  -26.2490  -14.8450   20.1980 C   0  0  0  0  0  0  0  0  0  0  0  0
  -25.0960  -14.1610   20.4590 C   0  0  0  0  0  0  0  0  0  0  0  0
  -25.4690  -12.7870   20.5670 C   0  0  0  0  0  0  0  0  0  0  0  0
  -27.2570  -13.8990   20.1570 N   0  0  0  0  0  0  0  0  0  0  0  0
  -26.7880  -12.6570   20.4460 N   0  0  0  0  0  0  0  0  0  0  0  0
  -24.6320  -11.5880   20.7250 C   0  0  0  0  0  0  0  0  0  0  0  0
  -24.9260  -10.6190   21.7130 C   0  0  0  0  0  3  0  0  0  0  0  0
  -24.1010   -9.4850   21.8660 C   0  0  0  0  0  3  0  0  0  0  0  0
  -22.9720   -9.3060   21.0290 C   0  0  0  0  0  0  0  0  0  0  0  0
  -22.6940  -10.2590   20.0340 C   0  0  0  0  0  3  0  0  0  0  0  0
  -23.5150  -11.3880   19.8770 C   0  0  0  0  0  3  0  0  0  0  0  0
  -22.1330   -8.2220   21.0870 O   0  0  0  0  0  0  0  0  0  0  0  0
  -21.9600   -7.4900   22.2330 C   0  0  0  0  0  0  0  0  0  0  0  0
  -21.5270   -8.0900   23.4390 C   0  0  0  0  0  3  0  0  0  0  0  0
  -21.3030   -7.2910   24.5750 C   0  0  0  0  0  3  0  0  0  0  0  0
  -21.4940   -5.9010   24.5110 C   0  0  0  0  0  0  0  0  0  0  0  0
  -21.9280   -5.3030   23.3130 C   0  0  0  0  0  3  0  0  0  0  0  0
  -22.1530   -6.0960   22.1780 C   0  0  0  0  0  0  0  0  0  0  0  0
  -22.5450   -5.5070   21.0190 F   0  0  0  0  0  0  0  0  0  0  0  0
  -21.2740   -5.1360   25.6080 F   0  0  0  0  0  0  0  0  0  0  0  0
  -23.7100  -14.7360   20.5100 C   0  0  0  0  0  0  0  0  0  0  0  0
  -22.8310  -14.1510   21.3110 N   0  0  0  0  0  0  0  0  0  0  0  0
  -23.4130  -15.7420   19.8680 O   0  0  0  0  0  0  0  0  0  0  0  0
  -23.0870  -13.3550   21.8790 H   0  0  0  0  0  0  0  0  0  0  0  0
  -21.8960  -14.5280   21.3830 H   0  0  0  0  0  0  0  0  0  0  0  0
  -26.5320  -16.1910   19.9720 N   0  0  0  0  0  0  0  0  0  0  0  0
  -25.8270  -16.9170   19.9940 H   0  0  0  0  0  0  0  0  0  0  0  0
  -27.4600  -16.5670   19.8060 H   0  0  0  0  0  0  0  0  0  0  0  0
  1  7  2  0
  1 55  1  0
  2  4  1  0
  3  2  1  0
  3  5  1  0
  4  6  1  0
  5  8  1  0
  5  6  1  0
  6  1  1  0
  8  9  1  0
  9 11  1  0
 10  8  2  0
 12 13  1  0
 12  9  1  0
 14 16  1  0
 14 13  1  0
 15 26  2  0
 16 21  1  0
 17 27  1  0
 17 25  1  0
 18 20  1  0
 18 24  1  0
 19 25  1  0
 20 19  1  0
 21 20  2  0
 22 23  1  0
 22 16  2  0
 23 18  2  0
 24 17  1  0
 25 15  1  0
 27 29  2  0
 28 27  1  0
 30 28  1  0
 31 40  2  0
 31 36  1  0
 32 28  1  0
 32 36  1  0
 33 32  1  0
 34 35  1  0
 34 33  1  0
 35 31  1  0
 36 37  2  0
 37 38  1  0
 39 38  2  0
 40 39  1  0
 41 15  1  0
 41 42  1  0
 41 46  1  0
 42 43  1  1
 42 45  1  0
 44 42  1  0
 46 47  1  0
 46 49  1  0
 47 51  1  0
 48 47  2  0
 51 50  1  0
 51 53  1  0
 53 52  1  0
 53 54  1  0
 56 58  1  0
 57 56  1  0
 59 62  1  0
 60 55  1  0
 60 57  1  0
 60 59  1  0
 62 63  1  6
 62 58  1  0
 62 61  1  0
 64 68  1  0
 65 64  1  0
 65 55  2  0
 66 64  2  0
 67 65  1  0
 68 77  1  0
 69 76  2  0
 70 75  1  0
 71 72  1  0
 71 70  1  0
 73 72  1  0
 73 82  1  0
 73 74  1  0
 75 69  1  0
 75 74  1  0
 77 69  1  0
 78 77  1  0
 79 80  2  0
 80 99  1  0
 80 81  1  0
 81 84  1  0
 82 79  1  0
 82 83  1  0
 83 81  2  0
 84 85  1  0
 85 86  2  0
 87 90  1  0
 87 86  1  0
 88 87  2  0
 89 88  1  0
 89 84  2  0
 90 91  1  0
 91 92  1  0
 92 93  2  0
 94 93  1  0
 94 98  1  0
 95 94  2  0
 96 91  2  0
 96 95  1  0
 97 96  1  0
 99100  1  0
100103  1  0
100102  1  0
101 99  2  0
104105  1  0
104 79  1  0
106104  1  0
M  ISO  4  13 101  14 101  69 100  77 100
M  END
>  <TORSDO>  (87) 
F 23

>  <SCORE>  (87) 
-5.275

>  <name>  (87) 
94

>  <ligand_id>  (87) 
94

>  <original_smiles>  (87) 
[H]c1c([H])c([H])c2c(c1[H])C([H])([H])C([H])([H])C([H])([H])C2([H])N([H])C(=O)C1([H])N(C(=O)C([H])(N([H])C(=O)C([H])(N([H])C([H])([H])[H])C([H])([H])[H])C(C([H])([H])[H])(C([H])([H])[H])C([H])([H])[H])C([H])([H])c2c([H])c(OC([H])([H])C([H])([H])N([H])C(=O)C3([H])N(C(=O)C([H])(N([H])C(=O)C([H])([H])N([H])C(=O)N4C([H])([H])C([H])([H])C([H])([H])C([H])(n5nc(-c6c([H])c([H])c(Oc7c([H])c([H])c(F)c([H])c7F)c([H])c6[H])c(C(=O)N([H])[H])c5N([H])[H])C4([H])[H])C4([H])C([H])([H])C([H])([H])C([H])([H])[N+]([H])(C([H])([H])[H])C4([H])[H])C([H])([H])C([H])([H])C3([H])[H])c([H])c([H])c2C1([H])[H]

>  <smiles>  (87) 
[H]c1c([H])c([H])c2c(c1[H])C([H])([H])C([H])([H])C([H])([H])C2([H])N([H])C(=O)C1([H])N(C(=O)C([H])(N([H])C(=O)C([H])(N([H])C([H])([H])[H])C([H])([H])[H])C(C([H])([H])[H])(C([H])([H])[H])C([H])([H])[H])C([H])([H])c2c([H])c(OC([H])([H])C([H])([H])N([H])C(=O)C3([H])N(C(=O)C([H])(N([H])C(=O)C([H])([H])N([H])C(=O)N4C([H])([H])C([H])([H])C([H])([H])C([H])(n5nc(-c6c([H])c([H])c(Oc7c([H])c([H])c(F)c([H])c7F)c([H])c6[H])c(C(=O)N([H])[H])c5N([H])[H])C4([H])[H])C4([H])C([H])([H])C([H])([H])C([H])([H])[N+]([H])(C([H])([H])[H])C4([H])[H])C([H])([H])C([H])([H])C3([H])[H])c([H])c([H])c2C1([H])[H]

$$$$
95:0:0
     RDKit          3D

105112  0  0  1  0  0  0  0  0999 V2000
  -29.4550  -20.2080   15.8140 C   0  0  0  0  0  2  0  0  0  0  0  0
  -29.2120  -21.7000   16.1010 C   0  0  0  0  0  2  0  0  0  0  0  0
  -28.4610  -21.9460   18.4680 C   0  0  0  0  0  0  0  0  0  0  0  0
  -29.3980  -21.9890   17.5180 N   0  0  0  0  0  0  0  0  0  0  0  0
  -27.2690  -21.7310   18.2360 O   0  0  0  0  0  0  0  0  0  0  0  0
  -30.3410  -22.1900   17.8230 H   0  0  0  0  0  0  0  0  0  0  0  0
  -28.9430  -22.1530   19.9030 C   0  0  0  0  0  2  0  0  0  0  0  0
  -29.2200  -24.4920   20.6870 C   0  0  0  0  0  0  0  0  0  0  0  0
  -28.4570  -23.4210   20.4360 N   0  0  0  0  0  0  0  0  0  0  0  0
  -30.4370  -24.4950   20.4930 O   0  0  0  0  0  0  0  0  0  0  0  0
  -27.4600  -23.5030   20.5690 H   0  0  0  0  0  0  0  0  0  0  0  0
  -28.5210  -25.7420   21.2270 C   0  0  0  0  0  2  0  0  0  0  0  0
  -28.3920  -26.6840   20.1630 O   0  0  0  0  0  0  0  0  0  0  0  0
  -24.5840  -31.8380   23.2390 C   0  0  0  0  0  0  0  0  0  0  0  0
  -27.2270  -27.4040   20.1910 C   0  0  0  0  0  0  0  0  0  0  0  0
  -23.3730  -30.4360   21.5970 C   0  0  0  0  0  3  0  0  0  0  0  0
  -24.8300  -28.8890   20.1810 C   0  0  0  0  0  0  0  0  0  0  0  0
  -25.8970  -30.7910   21.4050 C   0  0  0  0  0  2  0  0  0  0  0  0
  -25.9820  -29.4190   20.7760 C   0  0  0  0  0  0  0  0  0  0  0  0
  -27.1860  -28.6840   20.7790 C   0  0  0  0  0  3  0  0  0  0  0  0
  -26.0630  -26.8720   19.5990 C   0  0  0  0  0  3  0  0  0  0  0  0
  -24.8660  -27.6120   19.5890 C   0  0  0  0  0  3  0  0  0  0  0  0
  -23.5790  -29.7390   20.2240 C   0  0  0  0  0  2  0  0  0  0  0  0
  -24.6360  -31.0380   22.1380 N   0  0  0  0  0  0  0  0  0  0  0  0
  -23.5050  -32.1200   23.7750 O   0  0  0  0  0  0  0  0  0  0  0  0
  -22.7170  -29.4240   22.5620 C   0  0  0  0  0  0  0  0  0  0  0  0
  -21.3930  -29.2490   22.4310 N   0  0  0  0  0  0  0  0  0  0  0  0
  -23.3990  -28.7950   23.3730 O   0  0  0  0  0  0  0  0  0  0  0  0
  -20.9030  -29.8130   21.7490 H   0  0  0  0  0  0  0  0  0  0  0  0
  -18.0110  -28.0830   22.9180 C   0  0  0  0  0  0  0  0  0  0  0  0
  -20.5700  -28.3170   23.2000 C   0  0  0  0  0  3  0  0  0  0  0  0
  -20.6620  -26.8840   22.6280 C   0  0  0  0  0  2  0  0  0  0  0  0
  -19.5620  -26.5650   21.6110 C   0  0  0  0  0  2  0  0  0  0  0  0
  -18.1770  -26.7290   22.2470 C   0  0  0  0  0  2  0  0  0  0  0  0
  -19.1360  -28.8350   23.3500 C   0  0  0  0  0  0  0  0  0  0  0  0
  -18.9260  -30.1040   23.9320 C   0  0  0  0  0  3  0  0  0  0  0  0
  -17.6260  -30.6180   24.0890 C   0  0  0  0  0  3  0  0  0  0  0  0
  -16.5160  -29.8620   23.6760 C   0  0  0  0  0  3  0  0  0  0  0  0
  -16.7080  -28.5970   23.0930 C   0  0  0  0  0  3  0  0  0  0  0  0
  -25.8750  -32.4620   23.8580 C   0  0  0  0  0  3  0  0  0  0  0  0
  -25.5800  -33.8640   24.1730 N   0  0  0  0  0  0  0  0  0  0  0  0
  -25.9220  -34.9080   23.4030 C   0  0  0  0  0  0  0  0  0  0  0  0
  -26.5960  -34.7880   22.3760 O   0  0  0  0  0  0  0  0  0  0  0  0
  -24.9840  -34.0340   24.9720 H   0  0  0  0  0  0  0  0  0  0  0  0
  -24.2090  -36.7050   23.0180 C   0  0  0  0  0  1  0  0  0  0  0  0
  -25.4410  -36.3020   23.8430 C   0  0  0  0  0  3  0  0  0  0  0  0
  -27.5780  -37.1770   24.6770 C   0  0  0  0  0  1  0  0  0  0  0  0
  -26.4790  -37.3470   23.7290 N   0  0  0  0  0  0  0  0  0  0  0  0
  -26.0790  -38.2710   23.8680 H   0  0  0  0  0  0  0  0  0  0  0  0
  -26.3840  -31.6970   25.1410 C   0  0  1  0  0  0  0  0  0  0  0  0
  -25.2860  -31.4780   26.2070 C   0  0  0  0  0  1  0  0  0  0  0  0
  -26.9590  -30.3120   24.7610 C   0  0  0  0  0  1  0  0  0  0  0  0
  -27.5350  -32.4910   25.8040 C   0  0  0  0  0  1  0  0  0  0  0  0
  -30.8800  -19.7490   16.1820 C   0  0  0  0  0  2  0  0  0  0  0  0
  -31.1100  -18.2510   15.9400 C   0  0  0  0  0  2  0  0  0  0  0  0
  -32.4640  -17.7770   16.4940 C   0  0  0  0  0  2  0  0  0  0  0  0
  -32.6890  -16.2750   16.2800 C   0  0  0  0  0  2  0  0  0  0  0  0
  -33.8080  -15.6800   17.1560 C   0  0  0  0  0  2  0  0  0  0  0  0
  -34.0820  -14.2060   16.8090 C   0  0  0  0  0  2  0  0  0  0  0  0
  -34.9320  -13.4280   17.8510 C   0  0  0  0  0  2  0  0  0  0  0  0
  -34.2420  -12.1240   18.3210 C   0  0  0  0  0  2  0  0  0  0  0  0
  -31.2370  -14.1710   20.4230 C   0  0  0  0  0  0  0  0  0  0  0  0
  -30.3580  -12.1440   19.4680 C   0  0  0  0  0  2  0  0  0  0  0  0
  -29.5740  -12.5280   18.2180 C   0  0  0  0  0  2  0  0  0  0  0  0
  -28.0960  -12.4640   18.5920 C   0  0  0  0  0  2  0  0  0  0  0  0
  -27.7600  -13.3510   19.8190 C   0  0  0  0  0  3  0  0  0  0  0  0
  -28.8440  -13.3190   20.9570 C   0  0  0  0  0  2  0  0  0  0  0  0
  -30.2360  -13.2450   20.4290 N   0  0  0  0  0  0  0  0  0  0  0  0
  -31.1650  -15.3820   20.4060 O   0  0  0  0  0  0  0  0  0  0  0  0
  -33.1280  -12.5420   20.5530 C   0  0  0  0  0  0  0  0  0  0  0  0
  -32.8210  -11.9600   21.7250 N   0  0  0  0  0  4  0  0  0  0  0  0
  -32.5480  -13.6780   20.1180 N   0  0  0  0  0  0  0  0  0  0  0  0
  -34.0790  -11.9580   19.7890 N   0  0  0  0  0  0  0  0  0  0  0  0
  -32.1790  -12.3770   22.3850 H   0  0  0  0  0  0  0  0  0  0  0  0
  -33.2560  -11.1010   22.0340 H   0  0  0  0  0  0  0  0  0  0  0  0
  -33.2350  -14.3120   19.7450 H   0  0  0  0  0  0  0  0  0  0  0  0
  -34.6210  -11.2040   20.1940 H   0  0  0  0  0  0  0  0  0  0  0  0
  -25.3210  -13.9280   20.4790 C   0  0  0  0  0  0  0  0  0  0  0  0
  -24.2480  -13.1530   20.8270 C   0  0  0  0  0  0  0  0  0  0  0  0
  -24.7190  -11.8030   20.8350 C   0  0  0  0  0  0  0  0  0  0  0  0
  -26.3940  -13.0630   20.3010 N   0  0  0  0  0  0  0  0  0  0  0  0
  -26.0250  -11.7770   20.5720 N   0  0  0  0  0  0  0  0  0  0  0  0
  -23.9870  -10.5370   21.0220 C   0  0  0  0  0  0  0  0  0  0  0  0
  -24.4010   -9.5810   21.9770 C   0  0  0  0  0  3  0  0  0  0  0  0
  -23.6730   -8.3830   22.1540 C   0  0  0  0  0  3  0  0  0  0  0  0
  -22.5160   -8.1340   21.3780 C   0  0  0  0  0  0  0  0  0  0  0  0
  -22.1190   -9.0800   20.4150 C   0  0  0  0  0  3  0  0  0  0  0  0
  -22.8480  -10.2680   20.2360 C   0  0  0  0  0  3  0  0  0  0  0  0
  -21.7620   -6.9900   21.4660 O   0  0  0  0  0  0  0  0  0  0  0  0
  -21.6990   -6.2530   22.6230 C   0  0  0  0  0  0  0  0  0  0  0  0
  -21.2760   -6.8180   23.8450 C   0  0  0  0  0  3  0  0  0  0  0  0
  -21.1580   -6.0070   24.9910 C   0  0  0  0  0  3  0  0  0  0  0  0
  -21.4600   -4.6340   24.9200 C   0  0  0  0  0  0  0  0  0  0  0  0
  -21.8810   -4.0700   23.7010 C   0  0  0  0  0  3  0  0  0  0  0  0
  -21.9970   -4.8760   22.5550 C   0  0  0  0  0  0  0  0  0  0  0  0
  -22.3850   -4.3210   21.3800 F   0  0  0  0  0  0  0  0  0  0  0  0
  -21.3410   -3.8550   26.0200 F   0  0  0  0  0  0  0  0  0  0  0  0
  -22.8360  -13.6210   21.0510 C   0  0  0  0  0  0  0  0  0  0  0  0
  -22.0890  -12.9300   21.9030 N   0  0  0  0  0  0  0  0  0  0  0  0
  -22.4010  -14.6330   20.5000 O   0  0  0  0  0  0  0  0  0  0  0  0
  -22.4530  -12.1060   22.3630 H   0  0  0  0  0  0  0  0  0  0  0  0
  -21.1460  -13.2250   22.1100 H   0  0  0  0  0  0  0  0  0  0  0  0
  -25.4860  -15.2980   20.2730 N   0  0  0  0  0  0  0  0  0  0  0  0
  -24.7340  -15.9740   20.3480 H   0  0  0  0  0  0  0  0  0  0  0  0
  -26.3650  -15.7130   19.9850 H   0  0  0  0  0  0  0  0  0  0  0  0
  1  2  1  0
  1 54  1  0
  2  4  1  0
  3  7  1  0
  4  6  1  0
  4  3  1  0
  5  3  2  0
  7  9  1  0
  8 12  1  0
  9 11  1  0
  9  8  1  0
 10  8  2  0
 13 15  1  0
 13 12  1  0
 14 25  2  0
 15 20  1  0
 16 24  1  0
 16 26  1  0
 17 23  1  0
 17 19  1  0
 18 24  1  0
 19 20  2  0
 19 18  1  0
 21 15  2  0
 22 21  1  0
 22 17  2  0
 23 16  1  0
 24 14  1  0
 26 28  2  0
 27 26  1  0
 29 27  1  0
 30 39  2  0
 30 35  1  0
 31 27  1  0
 31 35  1  0
 32 31  1  0
 33 34  1  0
 33 32  1  0
 34 30  1  0
 35 36  2  0
 36 37  1  0
 38 37  2  0
 39 38  1  0
 40 14  1  0
 40 41  1  0
 40 50  1  0
 41 44  1  0
 42 46  1  0
 42 41  1  0
 43 42  2  0
 46 45  1  0
 48 46  1  0
 48 49  1  0
 48 47  1  0
 50 53  1  1
 50 51  1  0
 52 50  1  0
 55 54  1  0
 55 56  1  0
 57 56  1  0
 57 58  1  0
 59 58  1  0
 59 60  1  0
 60 61  1  0
 61 73  1  0
 62 68  1  0
 63 68  1  0
 64 65  1  0
 64 63  1  0
 66 65  1  0
 66 81  1  0
 66 67  1  0
 68 67  1  0
 69 62  2  0
 70 71  2  0
 71 75  1  0
 71 74  1  0
 72 62  1  0
 72 70  1  0
 73 77  1  0
 73 70  1  0
 76 72  1  0
 78 79  2  0
 79 80  1  0
 79 98  1  0
 80 83  1  0
 81 78  1  0
 81 82  1  0
 82 80  2  0
 83 84  1  0
 84 85  2  0
 86 89  1  0
 86 85  1  0
 87 86  2  0
 88 87  1  0
 88 83  2  0
 89 90  1  0
 90 91  1  0
 91 92  2  0
 93 92  1  0
 93 97  1  0
 94 93  2  0
 95 90  2  0
 95 94  1  0
 96 95  1  0
 98 99  1  0
 99102  1  0
 99101  1  0
100 98  2  0
103104  1  0
103 78  1  0
105103  1  0
M  ISO  4  12 101  13 101  62 100  72 100
M  END
>  <TORSDO>  (88) 
F 29

>  <SCORE>  (88) 
-11.095

>  <name>  (88) 
95

>  <ligand_id>  (88) 
95

>  <original_smiles>  (88) 
[H]c1c([H])c([H])c2c(c1[H])C([H])([H])C([H])([H])C([H])([H])C2([H])N([H])C(=O)C1([H])N(C(=O)C([H])(N([H])C(=O)C([H])(N([H])C([H])([H])[H])C([H])([H])[H])C(C([H])([H])[H])(C([H])([H])[H])C([H])([H])[H])C([H])([H])c2c([H])c(OC([H])([H])C(=O)N([H])C([H])([H])C(=O)N([H])C([H])([H])C([H])([H])C([H])([H])C([H])([H])C([H])([H])C([H])([H])C([H])([H])C([H])([H])C([H])([H])C([H])([H])[N+]([H])=C(N([H])[H])N([H])C(=O)N3C([H])([H])C([H])([H])C([H])([H])C([H])(n4nc(-c5c([H])c([H])c(Oc6c([H])c([H])c(F)c([H])c6F)c([H])c5[H])c(C(=O)N([H])[H])c4N([H])[H])C3([H])[H])c([H])c([H])c2C1([H])[H]

>  <smiles>  (88) 
[H]c1c([H])c([H])c2c(c1[H])C([H])([H])C([H])([H])C([H])([H])C2([H])N([H])C(=O)C1([H])N(C(=O)C([H])(N([H])C(=O)C([H])(N([H])C([H])([H])[H])C([H])([H])[H])C(C([H])([H])[H])(C([H])([H])[H])C([H])([H])[H])C([H])([H])c2c([H])c(OC([H])([H])C(=O)N([H])C([H])([H])C(=O)N([H])C([H])([H])C([H])([H])C([H])([H])C([H])([H])C([H])([H])C([H])([H])C([H])([H])C([H])([H])C([H])([H])C([H])([H])[N+]([H])=C(N([H])[H])N([H])C(=O)N3C([H])([H])C([H])([H])C([H])([H])C([H])(n4nc(-c5c([H])c([H])c(Oc6c([H])c([H])c(F)c([H])c6F)c([H])c5[H])c(C(=O)N([H])[H])c4N([H])[H])C3([H])[H])c([H])c([H])c2C1([H])[H]

$$$$
96:0:0
     RDKit          3D

112119  0  0  1  0  0  0  0  0999 V2000
  -29.4850  -20.4040   23.9000 C   0  0  0  0  0  0  0  0  0  0  0  0
  -29.4440  -21.7180   24.1120 N   0  0  0  0  0  0  0  0  0  0  0  0
  -28.6760  -19.8290   23.1670 O   0  0  0  0  0  0  0  0  0  0  0  0
  -30.1230  -22.1510   24.7280 H   0  0  0  0  0  0  0  0  0  0  0  0
  -28.6170  -22.6620   23.3760 C   0  0  0  0  0  2  0  0  0  0  0  0
  -29.2830  -24.0370   23.4300 C   0  0  0  0  0  0  0  0  0  0  0  0
  -29.0110  -24.8940   22.4400 N   0  0  0  0  0  0  0  0  0  0  0  0
  -30.0220  -24.3280   24.3740 O   0  0  0  0  0  0  0  0  0  0  0  0
  -28.4340  -24.5780   21.6720 H   0  0  0  0  0  0  0  0  0  0  0  0
  -29.5300  -26.2550   22.3600 C   0  0  0  0  0  2  0  0  0  0  0  0
  -30.8960  -26.2860   21.6640 C   0  0  0  0  0  0  0  0  0  0  0  0
  -31.9440  -26.9240   22.2070 N   0  0  0  0  0  0  0  0  0  0  0  0
  -31.0200  -25.7200   20.5790 O   0  0  0  0  0  0  0  0  0  0  0  0
  -32.7850  -26.9130   21.6440 H   0  0  0  0  0  0  0  0  0  0  0  0
  -32.1020  -27.5070   23.5400 C   0  0  0  0  0  2  0  0  0  0  0  0
  -31.1330  -28.6640   23.8450 C   0  0  0  0  0  2  0  0  0  0  0  0
  -31.8220  -29.6240   24.6390 O   0  0  0  0  0  0  0  0  0  0  0  0
  -32.4240  -34.6670   29.5730 C   0  0  0  0  0  0  0  0  0  0  0  0
  -31.1290  -30.3980   25.5450 C   0  0  0  0  0  0  0  0  0  0  0  0
  -30.2000  -33.5920   29.4300 C   0  0  0  0  0  3  0  0  0  0  0  0
  -29.8290  -32.0870   27.4050 C   0  0  0  0  0  0  0  0  0  0  0  0
  -31.7210  -33.7240   27.3800 C   0  0  0  0  0  2  0  0  0  0  0  0
  -31.0900  -32.4350   26.9040 C   0  0  0  0  0  0  0  0  0  0  0  0
  -31.7410  -31.5940   25.9800 C   0  0  0  0  0  3  0  0  0  0  0  0
  -29.8490  -30.0680   26.0500 C   0  0  0  0  0  3  0  0  0  0  0  0
  -29.2050  -30.9020   26.9810 C   0  0  0  0  0  3  0  0  0  0  0  0
  -29.1930  -33.0460   28.3820 C   0  0  0  0  0  2  0  0  0  0  0  0
  -31.5060  -34.0000   28.8170 N   0  0  0  0  0  0  0  0  0  0  0  0
  -32.1860  -34.9750   30.7480 O   0  0  0  0  0  0  0  0  0  0  0  0
  -30.3540  -32.5370   30.5490 C   0  0  0  0  0  0  0  0  0  0  0  0
  -29.4340  -32.5640   31.5270 N   0  0  0  0  0  0  0  0  0  0  0  0
  -31.2650  -31.7040   30.5130 O   0  0  0  0  0  0  0  0  0  0  0  0
  -28.7320  -33.2910   31.4960 H   0  0  0  0  0  0  0  0  0  0  0  0
  -27.6310  -31.8490   34.5720 C   0  0  0  0  0  0  0  0  0  0  0  0
  -29.3550  -31.6420   32.6600 C   0  0  0  0  0  3  0  0  0  0  0  0
  -28.6130  -30.3400   32.2750 C   0  0  0  0  0  2  0  0  0  0  0  0
  -27.1110  -30.3850   32.5730 C   0  0  0  0  0  2  0  0  0  0  0  0
  -26.8750  -30.6310   34.0650 C   0  0  0  0  0  2  0  0  0  0  0  0
  -28.7860  -32.3320   33.9040 C   0  0  0  0  0  0  0  0  0  0  0  0
  -29.4310  -33.4870   34.3930 C   0  0  0  0  0  3  0  0  0  0  0  0
  -28.9460  -34.1540   35.5340 C   0  0  0  0  0  3  0  0  0  0  0  0
  -27.8140  -33.6620   36.2050 C   0  0  0  0  0  3  0  0  0  0  0  0
  -27.1600  -32.5110   35.7270 C   0  0  0  0  0  3  0  0  0  0  0  0
  -33.8080  -35.0930   28.9870 C   0  0  0  0  0  3  0  0  0  0  0  0
  -34.9670  -34.0870   29.3460 C   0  0  1  0  0  0  0  0  0  0  0  0
  -35.0850  -33.7820   30.8580 C   0  0  0  0  0  1  0  0  0  0  0  0
  -34.7740  -32.7440   28.6050 C   0  0  0  0  0  1  0  0  0  0  0  0
  -36.3220  -34.6620   28.8750 C   0  0  0  0  0  1  0  0  0  0  0  0
  -34.1080  -36.4340   29.5040 N   0  0  0  0  0  0  0  0  0  0  0  0
  -33.9240  -37.5730   28.8200 C   0  0  0  0  0  0  0  0  0  0  0  0
  -33.5470  -37.5920   27.6440 O   0  0  0  0  0  0  0  0  0  0  0  0
  -34.3630  -36.4890   30.4790 H   0  0  0  0  0  0  0  0  0  0  0  0
  -32.8820  -39.5260   30.0160 C   0  0  0  0  0  1  0  0  0  0  0  0
  -34.2070  -38.8990   29.5520 C   0  0  0  0  0  3  0  0  0  0  0  0
  -36.3380  -39.4740   28.4710 C   0  0  0  0  0  1  0  0  0  0  0  0
  -34.9590  -39.8770   28.7330 N   0  0  0  0  0  0  0  0  0  0  0  0
  -34.9730  -40.7900   29.1830 H   0  0  0  0  0  0  0  0  0  0  0  0
  -30.5990  -19.6160   24.6050 C   0  0  0  0  0  2  0  0  0  0  0  0
  -32.1740  -19.5460   22.6930 C   0  0  0  0  0  0  0  0  0  0  0  0
  -31.4620  -18.9320   23.6430 N   0  0  0  0  0  0  0  0  0  0  0  0
  -32.2990  -20.7710   22.6420 O   0  0  0  0  0  0  0  0  0  0  0  0
  -31.3900  -17.9240   23.6040 H   0  0  0  0  0  0  0  0  0  0  0  0
  -32.8280  -18.6670   21.6230 C   0  0  0  0  0  2  0  0  0  0  0  0
  -31.1420  -19.1820   19.8880 C   0  0  0  0  0  0  0  0  0  0  0  0
  -32.4130  -19.1250   20.2980 N   0  0  0  0  0  0  0  0  0  0  0  0
  -30.2180  -18.7120   20.5560 O   0  0  0  0  0  0  0  0  0  0  0  0
  -33.1260  -19.5330   19.7110 H   0  0  0  0  0  0  0  0  0  0  0  0
  -30.8680  -19.8570   18.5360 C   0  0  0  0  0  2  0  0  0  0  0  0
  -28.7510  -21.1670   18.5620 C   0  0  0  0  0  0  0  0  0  0  0  0
  -29.4360  -20.0430   18.3240 N   0  0  0  0  0  0  0  0  0  0  0  0
  -29.2960  -22.2390   18.8320 O   0  0  0  0  0  0  0  0  0  0  0  0
  -28.9020  -19.2050   18.1370 H   0  0  0  0  0  0  0  0  0  0  0  0
  -26.6790  -20.2210   17.3180 C   0  0  0  0  0  1  0  0  0  0  0  0
  -27.2230  -21.0330   18.5170 C   0  0  0  0  0  3  0  0  0  0  0  0
  -26.4250  -23.3340   17.9120 C   0  0  0  0  0  0  0  0  0  0  0  0
  -24.7030  -24.0840   16.3400 C   0  0  0  0  0  2  0  0  0  0  0  0
  -24.3670  -25.5780   16.3200 C   0  0  0  0  0  2  0  0  0  0  0  0
  -23.2990  -25.8950   17.3780 C   0  0  0  0  0  2  0  0  0  0  0  0
  -23.6780  -25.3490   18.7790 C   0  0  0  0  0  3  0  0  0  0  0  0
  -24.1050  -23.8640   18.7150 C   0  0  0  0  0  2  0  0  0  0  0  0
  -25.1480  -23.7080   17.6850 N   0  0  0  0  0  0  0  0  0  0  0  0
  -27.3750  -23.6520   17.1880 O   0  0  0  0  0  0  0  0  0  0  0  0
  -26.4780  -22.2810   18.7350 N   0  0  0  0  0  0  0  0  0  0  0  0
  -25.6630  -22.1750   19.3200 H   0  0  0  0  0  0  0  0  0  0  0  0
  -22.6290  -26.1530   20.9900 C   0  0  0  0  0  0  0  0  0  0  0  0
  -21.3360  -26.1690   21.4350 C   0  0  0  0  0  0  0  0  0  0  0  0
  -20.5530  -25.5750   20.3960 C   0  0  0  0  0  0  0  0  0  0  0  0
  -22.5950  -25.5600   19.7360 N   0  0  0  0  0  0  0  0  0  0  0  0
  -21.3370  -25.1640   19.4080 N   0  0  0  0  0  0  0  0  0  0  0  0
  -19.0980  -25.4250   20.2640 C   0  0  0  0  0  0  0  0  0  0  0  0
  -18.5070  -24.1680   20.0100 C   0  0  0  0  0  3  0  0  0  0  0  0
  -17.1050  -24.0450   19.9030 C   0  0  0  0  0  3  0  0  0  0  0  0
  -16.2790  -25.1840   20.0570 C   0  0  0  0  0  0  0  0  0  0  0  0
  -16.8750  -26.4370   20.2870 C   0  0  0  0  0  3  0  0  0  0  0  0
  -18.2700  -26.5580   20.3870 C   0  0  0  0  0  3  0  0  0  0  0  0
  -14.9100  -25.1650   19.9430 O   0  0  0  0  0  0  0  0  0  0  0  0
  -14.1810  -24.0340   20.2130 C   0  0  0  0  0  0  0  0  0  0  0  0
  -14.1860  -23.4300   21.4900 C   0  0  0  0  0  3  0  0  0  0  0  0
  -13.3700  -22.3100   21.7420 C   0  0  0  0  0  3  0  0  0  0  0  0
  -12.5420  -21.7990   20.7250 C   0  0  0  0  0  0  0  0  0  0  0  0
  -12.5300  -22.4030   19.4550 C   0  0  0  0  0  3  0  0  0  0  0  0
  -13.3460  -23.5190   19.2020 C   0  0  0  0  0  0  0  0  0  0  0  0
  -13.3140  -24.1090   17.9830 F   0  0  0  0  0  0  0  0  0  0  0  0
  -11.7500  -20.7280   20.9690 F   0  0  0  0  0  0  0  0  0  0  0  0
  -20.8350  -26.7880   22.7080 C   0  0  0  0  0  0  0  0  0  0  0  0
  -19.7770  -26.2310   23.2860 N   0  0  0  0  0  0  0  0  0  0  0  0
  -21.4130  -27.7440   23.2240 O   0  0  0  0  0  0  0  0  0  0  0  0
  -19.3170  -25.4320   22.8720 H   0  0  0  0  0  0  0  0  0  0  0  0
  -19.4240  -26.6060   24.1550 H   0  0  0  0  0  0  0  0  0  0  0  0
  -23.8280  -26.6090   21.5310 N   0  0  0  0  0  0  0  0  0  0  0  0
  -23.8670  -27.1020   22.4160 H   0  0  0  0  0  0  0  0  0  0  0  0
  -24.7230  -26.5640   21.0620 H   0  0  0  0  0  0  0  0  0  0  0  0
  1  2  1  0
  1 58  1  0
  2  4  1  0
  3  1  2  0
  5  6  1  0
  5  2  1  0
  6  8  2  0
  7  6  1  0
  9  7  1  0
 10  7  1  0
 11 12  1  0
 11 10  1  0
 12 15  1  0
 13 11  2  0
 14 12  1  0
 15 16  1  0
 16 17  1  0
 17 19  1  0
 18 29  2  0
 19 24  2  0
 19 25  1  0
 20 30  1  0
 21 27  1  0
 22 28  1  0
 23 22  1  0
 23 21  2  0
 24 23  1  0
 25 26  2  0
 26 21  1  0
 27 20  1  0
 28 20  1  0
 28 18  1  0
 30 31  1  0
 32 30  2  0
 33 31  1  0
 34 43  1  0
 35 31  1  0
 35 39  1  0
 36 37  1  0
 36 35  1  0
 37 38  1  0
 38 34  1  0
 39 40  1  0
 39 34  2  0
 40 41  2  0
 41 42  1  0
 43 42  2  0
 44 45  1  0
 44 49  1  0
 44 18  1  0
 45 46  1  1
 47 45  1  0
 48 45  1  0
 49 52  1  0
 50 49  1  0
 50 54  1  0
 51 50  2  0
 54 53  1  0
 55 56  1  0
 56 57  1  0
 56 54  1  0
 59 60  1  0
 60 58  1  0
 61 59  2  0
 62 60  1  0
 63 59  1  0
 64 65  1  0
 64 66  2  0
 65 63  1  0
 67 65  1  0
 68 64  1  0
 69 71  2  0
 70 68  1  0
 70 69  1  0
 72 70  1  0
 74 73  1  0
 74 69  1  0
 74 83  1  0
 75 83  1  0
 76 81  1  0
 77 76  1  0
 77 78  1  0
 79 78  1  0
 79 88  1  0
 80 79  1  0
 81 75  1  0
 81 80  1  0
 82 75  2  0
 83 84  1  0
 85 86  2  0
 85110  1  0
 86105  1  0
 87 86  1  0
 88 85  1  0
 89 88  1  0
 89 87  2  0
 90 95  1  0
 90 87  1  0
 91 90  2  0
 92 91  1  0
 92 93  2  0
 93 94  1  0
 94 95  2  0
 96 93  1  0
 96 97  1  0
 97 98  1  0
 98 99  2  0
100104  1  0
100 99  1  0
101100  2  0
102101  1  0
102 97  2  0
103102  1  0
105107  2  0
105106  1  0
106109  1  0
108106  1  0
110111  1  0
112110  1  0
M  ISO  4  16 101  17 101  75 100  83 100
M  END
>  <TORSDO>  (89) 
F 29

>  <SCORE>  (89) 
1.633

>  <name>  (89) 
96

>  <ligand_id>  (89) 
96

>  <original_smiles>  (89) 
[H]c1c([H])c([H])c2c(c1[H])C([H])([H])C([H])([H])C([H])([H])C2([H])N([H])C(=O)C1([H])N(C(=O)C([H])(N([H])C(=O)C([H])(N([H])C([H])([H])[H])C([H])([H])[H])C(C([H])([H])[H])(C([H])([H])[H])C([H])([H])[H])C([H])([H])c2c([H])c(OC([H])([H])C([H])([H])N([H])C(=O)C([H])([H])N([H])C(=O)C([H])([H])N([H])C(=O)C([H])([H])N([H])C(=O)C([H])([H])N([H])C(=O)C([H])([H])N([H])C(=O)C([H])(N([H])C(=O)N3C([H])([H])C([H])([H])C([H])([H])C([H])(n4nc(-c5c([H])c([H])c(Oc6c([H])c([H])c(F)c([H])c6F)c([H])c5[H])c(C(=O)N([H])[H])c4N([H])[H])C3([H])[H])C([H])([H])[H])c([H])c([H])c2C1([H])[H]

>  <smiles>  (89) 
[H]c1c([H])c([H])c2c(c1[H])C([H])([H])C([H])([H])C([H])([H])C2([H])N([H])C(=O)C1([H])N(C(=O)C([H])(N([H])C(=O)C([H])(N([H])C([H])([H])[H])C([H])([H])[H])C(C([H])([H])[H])(C([H])([H])[H])C([H])([H])[H])C([H])([H])c2c([H])c(OC([H])([H])C([H])([H])N([H])C(=O)C([H])([H])N([H])C(=O)C([H])([H])N([H])C(=O)C([H])([H])N([H])C(=O)C([H])([H])N([H])C(=O)C([H])([H])N([H])C(=O)C([H])(N([H])C(=O)N3C([H])([H])C([H])([H])C([H])([H])C([H])(n4nc(-c5c([H])c([H])c(Oc6c([H])c([H])c(F)c([H])c6F)c([H])c5[H])c(C(=O)N([H])[H])c4N([H])[H])C3([H])[H])C([H])([H])[H])c([H])c([H])c2C1([H])[H]

$$$$
97:0:0
     RDKit          3D

111118  0  0  1  0  0  0  0  0999 V2000
  -30.7250  -26.9210   24.2360 C   0  0  0  0  0  0  0  0  0  0  0  0
  -30.1700  -25.8340   24.7870 N   0  0  0  0  0  0  0  0  0  0  0  0
  -30.1740  -27.5430   23.3290 O   0  0  0  0  0  0  0  0  0  0  0  0
  -30.6680  -25.3460   25.5190 H   0  0  0  0  0  0  0  0  0  0  0  0
  -28.9550  -25.1990   24.2660 C   0  0  0  0  0  2  0  0  0  0  0  0
  -29.3190  -24.0430   23.3350 C   0  0  0  0  0  0  0  0  0  0  0  0
  -28.8890  -24.1130   22.0690 N   0  0  0  0  0  0  0  0  0  0  0  0
  -29.9810  -23.0950   23.7650 O   0  0  0  0  0  0  0  0  0  0  0  0
  -28.3990  -24.9480   21.7750 H   0  0  0  0  0  0  0  0  0  0  0  0
  -29.2230  -23.1400   21.0330 C   0  0  0  0  0  2  0  0  0  0  0  0
  -30.7010  -23.2390   20.6170 C   0  0  0  0  0  0  0  0  0  0  0  0
  -31.2270  -24.4280   20.2840 N   0  0  0  0  0  0  0  0  0  0  0  0
  -31.4060  -22.2320   20.6140 O   0  0  0  0  0  0  0  0  0  0  0  0
  -32.2050  -24.4320   20.0410 H   0  0  0  0  0  0  0  0  0  0  0  0
  -30.5410  -25.7150   20.2470 C   0  0  0  0  0  2  0  0  0  0  0  0
  -31.2720  -26.7030   19.3160 C   0  0  0  0  0  2  0  0  0  0  0  0
  -30.9220  -28.0490   19.6420 O   0  0  0  0  0  0  0  0  0  0  0  0
  -26.0430  -30.1280   24.3770 C   0  0  0  0  0  0  0  0  0  0  0  0
  -29.5920  -28.3110   19.8730 C   0  0  0  0  0  0  0  0  0  0  0  0
  -25.1590  -29.1960   22.2620 C   0  0  0  0  0  3  0  0  0  0  0  0
  -26.8740  -28.8660   20.4000 C   0  0  0  0  0  0  0  0  0  0  0  0
  -27.4430  -30.3470   22.3320 C   0  0  0  0  0  2  0  0  0  0  0  0
  -27.8720  -29.4350   21.2000 C   0  0  0  0  0  0  0  0  0  0  0  0
  -29.2300  -29.1550   20.9450 C   0  0  0  0  0  3  0  0  0  0  0  0
  -28.5780  -27.7600   19.0600 C   0  0  0  0  0  3  0  0  0  0  0  0
  -27.2230  -28.0240   19.3280 C   0  0  0  0  0  3  0  0  0  0  0  0
  -25.4430  -29.2270   20.7340 C   0  0  0  0  0  2  0  0  0  0  0  0
  -26.2330  -29.8850   23.0520 N   0  0  0  0  0  0  0  0  0  0  0  0
  -24.9800  -29.8250   24.9360 O   0  0  0  0  0  0  0  0  0  0  0  0
  -24.9220  -27.7320   22.6970 C   0  0  0  0  0  0  0  0  0  0  0  0
  -23.8280  -27.1280   22.2060 N   0  0  0  0  0  0  0  0  0  0  0  0
  -25.7250  -27.1550   23.4380 O   0  0  0  0  0  0  0  0  0  0  0  0
  -23.2280  -27.6710   21.5970 H   0  0  0  0  0  0  0  0  0  0  0  0
  -21.4570  -24.5660   21.2640 C   0  0  0  0  0  0  0  0  0  0  0  0
  -23.4230  -25.7440   22.4570 C   0  0  0  0  0  3  0  0  0  0  0  0
  -24.3420  -24.7570   21.7030 C   0  0  0  0  0  2  0  0  0  0  0  0
  -23.7980  -24.3540   20.3300 C   0  0  0  0  0  2  0  0  0  0  0  0
  -22.4170  -23.7070   20.4610 C   0  0  0  0  0  2  0  0  0  0  0  0
  -21.9270  -25.5360   22.1880 C   0  0  0  0  0  0  0  0  0  0  0  0
  -20.9880  -26.3390   22.8740 C   0  0  0  0  0  3  0  0  0  0  0  0
  -19.6070  -26.1780   22.6520 C   0  0  0  0  0  3  0  0  0  0  0  0
  -19.1480  -25.2050   21.7490 C   0  0  0  0  0  3  0  0  0  0  0  0
  -20.0710  -24.4000   21.0600 C   0  0  0  0  0  3  0  0  0  0  0  0
  -27.1460  -30.8060   25.2490 C   0  0  0  0  0  3  0  0  0  0  0  0
  -27.6220  -29.9120   26.4620 C   0  0  1  0  0  0  0  0  0  0  0  0
  -26.4720  -29.3940   27.3580 C   0  0  0  0  0  1  0  0  0  0  0  0
  -28.3980  -28.6720   25.9590 C   0  0  0  0  0  1  0  0  0  0  0  0
  -28.6020  -30.7090   27.3560 C   0  0  0  0  0  1  0  0  0  0  0  0
  -26.6070  -32.0880   25.7190 N   0  0  0  0  0  0  0  0  0  0  0  0
  -26.9670  -33.2860   25.2370 C   0  0  0  0  0  0  0  0  0  0  0  0
  -27.8610  -33.4310   24.3970 O   0  0  0  0  0  0  0  0  0  0  0  0
  -25.8390  -32.0450   26.3730 H   0  0  0  0  0  0  0  0  0  0  0  0
  -25.2010  -35.0040   24.7250 C   0  0  0  0  0  1  0  0  0  0  0  0
  -26.2120  -34.5150   25.7740 C   0  0  0  0  0  3  0  0  0  0  0  0
  -27.9310  -35.3390   27.3250 C   0  0  0  0  0  1  0  0  0  0  0  0
  -27.1010  -35.6330   26.1610 N   0  0  0  0  0  0  0  0  0  0  0  0
  -26.5580  -36.4660   26.3690 H   0  0  0  0  0  0  0  0  0  0  0  0
  -32.0980  -27.3950   24.7400 C   0  0  0  0  0  2  0  0  0  0  0  0
  -33.1800  -27.3890   22.4820 C   0  0  0  0  0  0  0  0  0  0  0  0
  -32.9160  -27.9650   23.6640 N   0  0  0  0  0  0  0  0  0  0  0  0
  -32.7630  -26.2680   22.1840 O   0  0  0  0  0  0  0  0  0  0  0  0
  -33.2840  -28.8930   23.8180 H   0  0  0  0  0  0  0  0  0  0  0  0
  -34.0470  -28.1980   21.5080 C   0  0  0  0  0  2  0  0  0  0  0  0
  -34.4580  -26.4850   19.7520 C   0  0  0  0  0  0  0  0  0  0  0  0
  -34.0210  -27.6880   20.1360 N   0  0  0  0  0  0  0  0  0  0  0  0
  -34.9290  -25.6610   20.5430 O   0  0  0  0  0  0  0  0  0  0  0  0
  -33.6340  -28.2930   19.4280 H   0  0  0  0  0  0  0  0  0  0  0  0
  -34.3710  -26.1640   18.2580 C   0  0  0  0  0  2  0  0  0  0  0  0
  -33.0410  -24.4750   17.0430 C   0  0  0  0  0  0  0  0  0  0  0  0
  -33.8100  -24.8360   18.0660 N   0  0  0  0  0  0  0  0  0  0  0  0
  -32.7570  -25.2410   16.1180 O   0  0  0  0  0  0  0  0  0  0  0  0
  -34.0170  -24.1640   18.7980 H   0  0  0  0  0  0  0  0  0  0  0  0
  -32.5040  -23.0450   17.0770 C   0  0  0  0  0  2  0  0  0  0  0  0
  -31.9170  -22.4150   14.7640 C   0  0  0  0  0  0  0  0  0  0  0  0
  -31.1050  -21.8000   12.5240 C   0  0  0  0  0  2  0  0  0  0  0  0
  -31.0740  -23.0100   11.5740 C   0  0  0  0  0  2  0  0  0  0  0  0
  -29.7600  -23.7980   11.7250 C   0  0  0  0  0  2  0  0  0  0  0  0
  -29.4060  -24.1060   13.2030 C   0  0  0  0  0  3  0  0  0  0  0  0
  -29.5330  -22.8360   14.0710 C   0  0  0  0  0  2  0  0  0  0  0  0
  -30.8900  -22.2830   13.8940 N   0  0  0  0  0  0  0  0  0  0  0  0
  -33.0890  -22.1380   14.4880 O   0  0  0  0  0  0  0  0  0  0  0  0
  -31.5670  -22.8060   15.9870 N   0  0  0  0  0  0  0  0  0  0  0  0
  -30.6030  -23.0700   16.1280 H   0  0  0  0  0  0  0  0  0  0  0  0
  -27.5750  -25.5540   14.2930 C   0  0  0  0  0  0  0  0  0  0  0  0
  -26.3150  -25.8960   13.8840 C   0  0  0  0  0  0  0  0  0  0  0  0
  -26.1110  -25.2290   12.6350 C   0  0  0  0  0  0  0  0  0  0  0  0
  -28.0810  -24.7120   13.3130 N   0  0  0  0  0  0  0  0  0  0  0  0
  -27.1640  -24.4790   12.3360 N   0  0  0  0  0  0  0  0  0  0  0  0
  -24.9940  -25.3060   11.6830 C   0  0  0  0  0  0  0  0  0  0  0  0
  -24.6690  -24.2200   10.8380 C   0  0  0  0  0  3  0  0  0  0  0  0
  -23.5840  -24.3130    9.9390 C   0  0  0  0  0  3  0  0  0  0  0  0
  -22.8100  -25.4970    9.8830 C   0  0  0  0  0  0  0  0  0  0  0  0
  -23.1510  -26.5820   10.7100 C   0  0  0  0  0  3  0  0  0  0  0  0
  -24.2330  -26.4900   11.6000 C   0  0  0  0  0  3  0  0  0  0  0  0
  -21.7510  -25.6850    9.0270 O   0  0  0  0  0  0  0  0  0  0  0  0
  -21.1080  -24.6280    8.4330 C   0  0  0  0  0  0  0  0  0  0  0  0
  -20.4360  -23.6460    9.1930 C   0  0  0  0  0  3  0  0  0  0  0  0
  -19.7280  -22.6170    8.5430 C   0  0  0  0  0  3  0  0  0  0  0  0
  -19.6800  -22.5710    7.1360 C   0  0  0  0  0  0  0  0  0  0  0  0
  -20.3450  -23.5520    6.3780 C   0  0  0  0  0  3  0  0  0  0  0  0
  -21.0530  -24.5790    7.0260 C   0  0  0  0  0  0  0  0  0  0  0  0
  -21.6740  -25.5330    6.2900 F   0  0  0  0  0  0  0  0  0  0  0  0
  -18.9930  -21.5870    6.5120 F   0  0  0  0  0  0  0  0  0  0  0  0
  -25.3820  -26.8590   14.5610 C   0  0  0  0  0  0  0  0  0  0  0  0
  -24.0820  -26.6020   14.5040 N   0  0  0  0  0  0  0  0  0  0  0  0
  -25.8100  -27.8270   15.1910 O   0  0  0  0  0  0  0  0  0  0  0  0
  -23.7280  -25.7970   14.0080 H   0  0  0  0  0  0  0  0  0  0  0  0
  -23.4300  -27.2160   14.9680 H   0  0  0  0  0  0  0  0  0  0  0  0
  -28.3370  -25.8990   15.4070 N   0  0  0  0  0  0  0  0  0  0  0  0
  -27.9950  -26.5310   16.1220 H   0  0  0  0  0  0  0  0  0  0  0  0
  -29.2780  -25.5710   15.5860 H   0  0  0  0  0  0  0  0  0  0  0  0
  1 58  1  0
  1  2  1  0
  2  4  1  0
  3  1  2  0
  5  2  1  0
  6  8  2  0
  6  5  1  0
  7  6  1  0
  9  7  1  0
 10  7  1  0
 11 10  1  0
 12 11  1  0
 13 11  2  0
 14 12  1  0
 15 12  1  0
 16 17  1  0
 16 15  1  0
 17 19  1  0
 18 29  2  0
 19 24  1  0
 20 30  1  0
 20 28  1  0
 21 27  1  0
 21 23  1  0
 22 28  1  0
 23 22  1  0
 24 23  2  0
 25 26  1  0
 25 19  2  0
 26 21  2  0
 27 20  1  0
 28 18  1  0
 30 32  2  0
 31 30  1  0
 33 31  1  0
 34 39  1  0
 35 31  1  0
 36 35  1  0
 37 38  1  0
 37 36  1  0
 38 34  1  0
 39 35  1  0
 39 40  2  0
 41 40  1  0
 42 41  2  0
 43 34  2  0
 43 42  1  0
 44 18  1  0
 44 49  1  0
 44 45  1  0
 45 48  1  1
 45 46  1  0
 47 45  1  0
 49 52  1  0
 50 49  1  0
 50 54  1  0
 51 50  2  0
 54 53  1  0
 54 56  1  0
 56 57  1  0
 56 55  1  0
 59 60  1  0
 60 62  1  0
 60 58  1  0
 61 59  2  0
 63 59  1  0
 64 65  1  0
 64 66  2  0
 65 63  1  0
 67 65  1  0
 68 64  1  0
 69 73  1  0
 69 70  1  0
 70 68  1  0
 70 72  1  0
 71 69  2  0
 74 82  1  0
 75 80  1  0
 76 77  1  0
 76 75  1  0
 78 77  1  0
 78 87  1  0
 78 79  1  0
 80 79  1  0
 80 74  1  0
 81 74  2  0
 82 83  1  0
 82 73  1  0
 84109  1  0
 85 84  2  0
 85104  1  0
 86 85  1  0
 87 84  1  0
 88 86  2  0
 88 87  1  0
 89 86  1  0
 90 89  2  0
 91 90  1  0
 92 91  2  0
 92 93  1  0
 93 94  2  0
 94 89  1  0
 95 92  1  0
 96 95  1  0
 96 97  1  0
 98 97  2  0
 99 98  1  0
100101  1  0
100 99  2  0
101 96  2  0
102101  1  0
103 99  1  0
104106  2  0
105104  1  0
105108  1  0
107105  1  0
109111  1  0
109110  1  0
M  ISO  4  16 101  17 101  74 100  82 100
M  END
>  <TORSDO>  (90) 
F 29

>  <SCORE>  (90) 
0.623

>  <name>  (90) 
97

>  <ligand_id>  (90) 
97

>  <original_smiles>  (90) 
[H]c1c([H])c([H])c2c(c1[H])C([H])([H])C([H])([H])C([H])([H])C2([H])N([H])C(=O)C1([H])N(C(=O)C([H])(N([H])C(=O)C([H])(N([H])C([H])([H])[H])C([H])([H])[H])C(C([H])([H])[H])(C([H])([H])[H])C([H])([H])[H])C([H])([H])c2c([H])c(OC([H])([H])C([H])([H])N([H])C(=O)C([H])([H])N([H])C(=O)C([H])([H])N([H])C(=O)C([H])([H])N([H])C(=O)C([H])([H])N([H])C(=O)C([H])([H])N([H])C(=O)C([H])([H])N([H])C(=O)N3C([H])([H])C([H])([H])C([H])([H])C([H])(n4nc(-c5c([H])c([H])c(Oc6c([H])c([H])c(F)c([H])c6F)c([H])c5[H])c(C(=O)N([H])[H])c4N([H])[H])C3([H])[H])c([H])c([H])c2C1([H])[H]

>  <smiles>  (90) 
[H]c1c([H])c([H])c2c(c1[H])C([H])([H])C([H])([H])C([H])([H])C2([H])N([H])C(=O)C1([H])N(C(=O)C([H])(N([H])C(=O)C([H])(N([H])C([H])([H])[H])C([H])([H])[H])C(C([H])([H])[H])(C([H])([H])[H])C([H])([H])[H])C([H])([H])c2c([H])c(OC([H])([H])C([H])([H])N([H])C(=O)C([H])([H])N([H])C(=O)C([H])([H])N([H])C(=O)C([H])([H])N([H])C(=O)C([H])([H])N([H])C(=O)C([H])([H])N([H])C(=O)C([H])([H])N([H])C(=O)N3C([H])([H])C([H])([H])C([H])([H])C([H])(n4nc(-c5c([H])c([H])c(Oc6c([H])c([H])c(F)c([H])c6F)c([H])c5[H])c(C(=O)N([H])[H])c4N([H])[H])C3([H])[H])c([H])c([H])c2C1([H])[H]

$$$$
98:0:0
     RDKit          3D

111118  0  0  1  0  0  0  0  0999 V2000
  -28.4710  -23.6030   24.2380 C   0  0  0  0  0  3  0  0  0  0  0  0
  -28.4430  -23.9610   22.7440 C   0  0  0  0  0  0  0  0  0  0  0  0
  -27.2480  -24.0000   22.1470 N   0  0  0  0  0  0  0  0  0  0  0  0
  -29.4920  -24.2040   22.1430 O   0  0  0  0  0  0  0  0  0  0  0  0
  -26.4380  -23.7770   22.7110 H   0  0  0  0  0  0  0  0  0  0  0  0
  -27.0160  -24.3260   20.7440 C   0  0  0  0  0  2  0  0  0  0  0  0
  -27.6260  -25.6830   20.3470 C   0  0  0  0  0  2  0  0  0  0  0  0
  -26.9770  -26.1710   19.1770 O   0  0  0  0  0  0  0  0  0  0  0  0
  -24.7520  -31.5550   23.2390 C   0  0  0  0  0  0  0  0  0  0  0  0
  -25.9880  -27.0820   19.4440 C   0  0  0  0  0  0  0  0  0  0  0  0
  -23.0580  -30.5770   21.7220 C   0  0  0  0  0  3  0  0  0  0  0  0
  -23.9520  -28.9550   19.9700 C   0  0  0  0  0  0  0  0  0  0  0  0
  -25.5440  -30.4940   21.1340 C   0  0  0  0  0  2  0  0  0  0  0  0
  -25.2620  -29.2060   20.3950 C   0  0  0  0  0  0  0  0  0  0  0  0
  -26.2850  -28.2720   20.1360 C   0  0  0  0  0  3  0  0  0  0  0  0
  -24.6670  -26.8370   19.0120 C   0  0  0  0  0  3  0  0  0  0  0  0
  -23.6440  -27.7660   19.2820 C   0  0  0  0  0  3  0  0  0  0  0  0
  -22.9190  -30.0150   20.2830 C   0  0  0  0  0  2  0  0  0  0  0  0
  -24.4800  -30.8790   22.0880 N   0  0  0  0  0  0  0  0  0  0  0  0
  -23.8420  -31.9660   23.9700 O   0  0  0  0  0  0  0  0  0  0  0  0
  -22.3670  -29.6020   22.7010 C   0  0  0  0  0  0  0  0  0  0  0  0
  -21.0330  -29.4970   22.5940 N   0  0  0  0  0  0  0  0  0  0  0  0
  -23.0250  -28.9410   23.5110 O   0  0  0  0  0  0  0  0  0  0  0  0
  -20.5650  -30.0810   21.9130 H   0  0  0  0  0  0  0  0  0  0  0  0
  -17.6470  -28.2910   22.9490 C   0  0  0  0  0  0  0  0  0  0  0  0
  -20.1740  -28.6160   23.3810 C   0  0  0  0  0  3  0  0  0  0  0  0
  -20.3340  -27.1420   22.9410 C   0  0  0  0  0  2  0  0  0  0  0  0
  -19.3140  -26.7140   21.8830 C   0  0  0  0  0  2  0  0  0  0  0  0
  -17.8870  -26.8910   22.4110 C   0  0  0  0  0  2  0  0  0  0  0  0
  -18.7220  -29.1070   23.3910 C   0  0  0  0  0  0  0  0  0  0  0  0
  -18.4480  -30.4140   23.8480 C   0  0  0  0  0  3  0  0  0  0  0  0
  -17.1300  -30.9070   23.8710 C   0  0  0  0  0  3  0  0  0  0  0  0
  -16.0680  -30.0890   23.4500 C   0  0  0  0  0  3  0  0  0  0  0  0
  -16.3260  -28.7840   22.9940 C   0  0  0  0  0  3  0  0  0  0  0  0
  -26.2200  -31.8640   23.6800 C   0  0  0  0  0  3  0  0  0  0  0  0
  -26.2280  -33.2090   24.2700 N   0  0  0  0  0  0  0  0  0  0  0  0
  -26.6770  -34.3070   23.6460 C   0  0  0  0  0  0  0  0  0  0  0  0
  -27.2010  -34.2780   22.5300 O   0  0  0  0  0  0  0  0  0  0  0  0
  -25.7650  -33.3170   25.1590 H   0  0  0  0  0  0  0  0  0  0  0  0
  -25.3220  -36.4180   23.8000 C   0  0  0  0  0  1  0  0  0  0  0  0
  -26.5210  -35.6520   24.3800 C   0  0  0  0  0  3  0  0  0  0  0  0
  -28.8570  -35.9560   25.0740 C   0  0  0  0  0  1  0  0  0  0  0  0
  -27.7300  -36.5010   24.3210 N   0  0  0  0  0  0  0  0  0  0  0  0
  -27.5330  -37.4320   24.6760 H   0  0  0  0  0  0  0  0  0  0  0  0
  -26.8020  -30.8040   24.6930 C   0  0  1  0  0  0  0  0  0  0  0  0
  -25.8940  -30.5590   25.9190 C   0  0  0  0  0  1  0  0  0  0  0  0
  -27.0320  -29.4430   23.9940 C   0  0  0  0  0  1  0  0  0  0  0  0
  -28.1820  -31.2720   25.2100 C   0  0  0  0  0  1  0  0  0  0  0  0
  -30.1790  -21.9180   24.9500 C   0  0  0  0  0  0  0  0  0  0  0  0
  -29.8190  -23.1500   24.5760 N   0  0  0  0  0  0  0  0  0  0  0  0
  -29.3640  -21.0160   25.1460 O   0  0  0  0  0  0  0  0  0  0  0  0
  -30.5500  -23.8230   24.3910 H   0  0  0  0  0  0  0  0  0  0  0  0
  -31.6760  -21.6660   25.1460 C   0  0  0  0  0  2  0  0  0  0  0  0
  -32.4490  -21.4710   23.8220 C   0  0  0  0  0  2  0  0  0  0  0  0
  -32.0250  -20.2310   23.0090 C   0  0  0  0  0  2  0  0  0  0  0  0
  -32.8790  -19.9780   21.7500 C   0  0  0  0  0  2  0  0  0  0  0  0
  -33.7660  -21.7000   20.1100 C   0  0  0  0  0  0  0  0  0  0  0  0
  -32.7930  -21.0940   20.8060 N   0  0  0  0  0  0  0  0  0  0  0  0
  -33.4980  -22.6310   19.3550 O   0  0  0  0  0  0  0  0  0  0  0  0
  -31.8620  -21.4590   20.6530 H   0  0  0  0  0  0  0  0  0  0  0  0
  -35.2110  -21.1920   20.1870 C   0  0  0  0  0  2  0  0  0  0  0  0
  -35.5390  -19.3990   18.4990 C   0  0  0  0  0  0  0  0  0  0  0  0
  -35.3980  -17.4600   16.9810 C   0  0  0  0  0  2  0  0  0  0  0  0
  -34.2900  -17.6210   15.9250 C   0  0  0  0  0  2  0  0  0  0  0  0
  -32.9270  -17.1590   16.4800 C   0  0  0  0  0  2  0  0  0  0  0  0
  -32.6070  -17.7860   17.8600 C   0  0  0  0  0  3  0  0  0  0  0  0
  -33.8020  -17.6130   18.8190 C   0  0  0  0  0  2  0  0  0  0  0  0
  -35.0090  -18.1920   18.1910 N   0  0  0  0  0  0  0  0  0  0  0  0
  -36.2940  -20.0370   17.7590 O   0  0  0  0  0  0  0  0  0  0  0  0
  -35.2270  -19.8090   19.7320 N   0  0  0  0  0  0  0  0  0  0  0  0
  -34.6970  -19.1500   20.2830 H   0  0  0  0  0  0  0  0  0  0  0  0
  -30.1630  -17.8440   18.6820 C   0  0  0  0  0  0  0  0  0  0  0  0
  -29.3370  -16.8640   19.1620 C   0  0  0  0  0  0  0  0  0  0  0  0
  -30.1130  -15.6650   19.1730 C   0  0  0  0  0  0  0  0  0  0  0  0
  -31.3800  -17.2290   18.4310 N   0  0  0  0  0  0  0  0  0  0  0  0
  -31.3540  -15.9180   18.7790 N   0  0  0  0  0  0  0  0  0  0  0  0
  -29.7300  -14.2810   19.4790 C   0  0  0  0  0  0  0  0  0  0  0  0
  -30.4280  -13.5180   20.4400 C   0  0  0  0  0  3  0  0  0  0  0  0
  -30.0320  -12.1940   20.7290 C   0  0  0  0  0  3  0  0  0  0  0  0
  -28.9270  -11.6210   20.0570 C   0  0  0  0  0  0  0  0  0  0  0  0
  -28.2480  -12.3780   19.0850 C   0  0  0  0  0  3  0  0  0  0  0  0
  -28.6480  -13.6930   18.7950 C   0  0  0  0  0  3  0  0  0  0  0  0
  -28.4850  -10.3340   20.2540 O   0  0  0  0  0  0  0  0  0  0  0  0
  -28.5680   -9.7250   21.4790 C   0  0  0  0  0  0  0  0  0  0  0  0
  -28.0060  -10.3040   22.6390 C   0  0  0  0  0  3  0  0  0  0  0  0
  -28.0530   -9.6100   23.8640 C   0  0  0  0  0  3  0  0  0  0  0  0
  -28.6520   -8.3370   23.9320 C   0  0  0  0  0  0  0  0  0  0  0  0
  -29.2080   -7.7580   22.7790 C   0  0  0  0  0  3  0  0  0  0  0  0
  -29.1640   -8.4490   21.5550 C   0  0  0  0  0  0  0  0  0  0  0  0
  -29.6820   -7.8770   20.4420 F   0  0  0  0  0  0  0  0  0  0  0  0
  -28.6890   -7.6680   25.1080 F   0  0  0  0  0  0  0  0  0  0  0  0
  -27.8800  -17.0040   19.5020 C   0  0  0  0  0  0  0  0  0  0  0  0
  -27.3930  -16.2120   20.4510 N   0  0  0  0  0  0  0  0  0  0  0  0
  -27.1760  -17.8540   18.9590 O   0  0  0  0  0  0  0  0  0  0  0  0
  -27.9780  -15.5310   20.9120 H   0  0  0  0  0  0  0  0  0  0  0  0
  -26.4220  -16.2870   20.7190 H   0  0  0  0  0  0  0  0  0  0  0  0
  -29.9810  -19.1990   18.4230 N   0  0  0  0  0  0  0  0  0  0  0  0
  -29.0870  -19.6620   18.5400 H   0  0  0  0  0  0  0  0  0  0  0  0
  -30.6830  -19.7950   18.0020 H   0  0  0  0  0  0  0  0  0  0  0  0
  -28.0370  -24.7890   25.1290 C   0  0  0  0  0  2  0  0  0  0  0  0
  -27.8480  -24.4430   26.6190 C   0  0  0  0  0  2  0  0  0  0  0  0
  -27.4470  -25.6610   27.4670 C   0  0  0  0  0  2  0  0  0  0  0  0
  -25.7300  -27.4810   27.1670 C   0  0  0  0  0  0  0  0  0  0  0  0
  -24.5420  -27.8220   26.6690 N   0  0  0  0  0  4  0  0  0  0  0  0
  -26.4720  -28.3940   27.7960 N   0  0  0  0  0  0  0  0  0  0  0  0
  -26.1590  -26.2200   27.0240 N   0  0  0  0  0  0  0  0  0  0  0  0
  -24.1540  -28.7450   26.7890 H   0  0  0  0  0  0  0  0  0  0  0  0
  -23.9840  -27.1870   26.1130 H   0  0  0  0  0  0  0  0  0  0  0  0
  -26.1760  -29.3540   27.9100 H   0  0  0  0  0  0  0  0  0  0  0  0
  -27.3690  -28.1600   28.1940 H   0  0  0  0  0  0  0  0  0  0  0  0
  -25.5280  -25.5350   26.6230 H   0  0  0  0  0  0  0  0  0  0  0  0
  1 50  1  0
  1100  1  0
  2  1  1  0
  3  5  1  0
  3  2  1  0
  4  2  2  0
  6  3  1  0
  7  6  1  0
  8 10  1  0
  8  7  1  0
  9 20  2  0
 10 15  1  0
 11 19  1  0
 11 21  1  0
 12 18  1  0
 12 14  1  0
 13 19  1  0
 14 13  1  0
 15 14  2  0
 16 17  1  0
 16 10  2  0
 17 12  2  0
 18 11  1  0
 19  9  1  0
 21 23  2  0
 22 21  1  0
 24 22  1  0
 25 34  2  0
 25 30  1  0
 26 22  1  0
 26 30  1  0
 27 26  1  0
 28 29  1  0
 28 27  1  0
 29 25  1  0
 30 31  2  0
 31 32  1  0
 33 32  2  0
 34 33  1  0
 35  9  1  0
 35 36  1  0
 35 45  1  0
 36 39  1  0
 37 36  1  0
 37 41  1  0
 38 37  2  0
 41 40  1  0
 43 41  1  0
 43 44  1  0
 43 42  1  0
 45 48  1  1
 45 46  1  0
 47 45  1  0
 49 51  2  0
 49 53  1  0
 50 49  1  0
 52 50  1  0
 54 53  1  0
 55 54  1  0
 56 55  1  0
 57 61  1  0
 57 58  1  0
 58 56  1  0
 59 57  2  0
 60 58  1  0
 62 70  1  0
 63 68  1  0
 64 65  1  0
 64 63  1  0
 66 65  1  0
 66 75  1  0
 66 67  1  0
 68 62  1  0
 68 67  1  0
 69 62  2  0
 70 61  1  0
 70 71  1  0
 72 73  2  0
 73 74  1  0
 73 92  1  0
 74 77  1  0
 75 72  1  0
 75 76  1  0
 76 74  2  0
 77 78  1  0
 78 79  2  0
 80 83  1  0
 80 79  1  0
 81 80  2  0
 82 81  1  0
 82 77  2  0
 83 84  1  0
 84 89  2  0
 84 85  1  0
 85 86  2  0
 86 87  1  0
 87 91  1  0
 88 87  2  0
 89 88  1  0
 90 89  1  0
 92 93  1  0
 93 96  1  0
 93 95  1  0
 94 92  2  0
 97 98  1  0
 97 72  1  0
 99 97  1  0
100101  1  0
101102  1  0
103105  1  0
104107  1  0
104103  2  0
105109  1  0
105110  1  0
106103  1  0
106102  1  0
108104  1  0
111106  1  0
M  ISO  4   7 101   8 101  62 100  70 100
M  END
>  <TORSDO>  (91) 
F 30

>  <SCORE>  (91) 
-1.449

>  <name>  (91) 
98

>  <ligand_id>  (91) 
98

>  <original_smiles>  (91) 
[H]c1c([H])c([H])c2c(c1[H])C([H])([H])C([H])([H])C([H])([H])C2([H])N([H])C(=O)C1([H])N(C(=O)C([H])(N([H])C(=O)C([H])(N([H])C([H])([H])[H])C([H])([H])[H])C(C([H])([H])[H])(C([H])([H])[H])C([H])([H])[H])C([H])([H])c2c([H])c(OC([H])([H])C([H])([H])N([H])C(=O)C([H])(N([H])C(=O)C([H])([H])C([H])([H])C([H])([H])C([H])([H])N([H])C(=O)C([H])([H])N([H])C(=O)N3C([H])([H])C([H])([H])C([H])([H])C([H])(n4nc(-c5c([H])c([H])c(Oc6c([H])c([H])c(F)c([H])c6F)c([H])c5[H])c(C(=O)N([H])[H])c4N([H])[H])C3([H])[H])C([H])([H])C([H])([H])C([H])([H])N([H])C(N([H])[H])=[N+]([H])[H])c([H])c([H])c2C1([H])[H]

>  <smiles>  (91) 
[H]c1c([H])c([H])c2c(c1[H])C([H])([H])C([H])([H])C([H])([H])C2([H])N([H])C(=O)C1([H])N(C(=O)C([H])(N([H])C(=O)C([H])(N([H])C([H])([H])[H])C([H])([H])[H])C(C([H])([H])[H])(C([H])([H])[H])C([H])([H])[H])C([H])([H])c2c([H])c(OC([H])([H])C([H])([H])N([H])C(=O)C([H])(N([H])C(=O)C([H])([H])C([H])([H])C([H])([H])C([H])([H])N([H])C(=O)C([H])([H])N([H])C(=O)N3C([H])([H])C([H])([H])C([H])([H])C([H])(n4nc(-c5c([H])c([H])c(Oc6c([H])c([H])c(F)c([H])c6F)c([H])c5[H])c(C(=O)N([H])[H])c4N([H])[H])C3([H])[H])C([H])([H])C([H])([H])C([H])([H])N([H])C(N([H])[H])=[N+]([H])[H])c([H])c([H])c2C1([H])[H]

$$$$
