0:0:0
     RDKit          3D

 91 98  0  0  1  0  0  0  0  0999 V2000
  -28.1580  -23.2720   22.1930 C   0  0  0  0  0  0  0  0  0  0  0  0
  -29.0750  -24.2450   22.1970 N   0  0  0  0  0  0  0  0  0  0  0  0
  -26.9580  -23.4940   22.0290 O   0  0  0  0  0  0  0  0  0  0  0  0
  -30.0420  -23.9880   22.3490 H   0  0  0  0  0  0  0  0  0  0  0  0
  -28.6580  -21.8330   22.3500 C   0  0  0  0  0  2  0  0  0  0  0  0
  -28.7300  -21.1370   20.9800 C   0  0  0  0  0  2  0  0  0  0  0  0
  -28.9050  -19.6360   21.0720 C   0  0  0  0  0  3  0  0  0  0  0  0
  -29.8490  -18.9390   20.4170 C   0  0  0  0  0  3  0  0  0  0  0  0
  -29.9560  -17.4300   20.4460 C   0  0  0  0  0  2  0  0  0  0  0  0
  -31.3680  -16.9010   20.7410 C   0  0  0  0  0  2  0  0  0  0  0  0
  -31.7760  -14.5110   20.1530 C   0  0  0  0  0  0  0  0  0  0  0  0
  -31.3530  -12.2790   19.1960 C   0  0  0  0  0  2  0  0  0  0  0  0
  -30.4250  -12.4010   17.9690 C   0  0  0  0  0  2  0  0  0  0  0  0
  -28.9420  -12.3990   18.3960 C   0  0  0  0  0  2  0  0  0  0  0  0
  -28.6530  -13.4060   19.5390 C   0  0  0  0  0  3  0  0  0  0  0  0
  -29.6770  -13.2240   20.6820 C   0  0  0  0  0  2  0  0  0  0  0  0
  -31.0380  -13.3720   20.1240 N   0  0  0  0  0  0  0  0  0  0  0  0
  -32.8020  -14.6880   19.4880 O   0  0  0  0  0  0  0  0  0  0  0  0
  -31.2600  -15.4610   20.9370 N   0  0  0  0  0  0  0  0  0  0  0  0
  -30.4920  -15.1510   21.5150 H   0  0  0  0  0  0  0  0  0  0  0  0
  -26.3400  -14.2780   20.2760 C   0  0  0  0  0  0  0  0  0  0  0  0
  -25.1950  -13.6260   20.6500 C   0  0  0  0  0  0  0  0  0  0  0  0
  -25.4990  -12.2310   20.5900 C   0  0  0  0  0  0  0  0  0  0  0  0
  -27.2770  -13.2880   20.0220 N   0  0  0  0  0  0  0  0  0  0  0  0
  -26.7720  -12.0500   20.2620 N   0  0  0  0  0  0  0  0  0  0  0  0
  -24.6370  -11.0550   20.7710 C   0  0  0  0  0  0  0  0  0  0  0  0
  -24.9600  -10.0380   21.6960 C   0  0  0  0  0  3  0  0  0  0  0  0
  -24.1060   -8.9260   21.8620 C   0  0  0  0  0  3  0  0  0  0  0  0
  -22.9160   -8.8250   21.1050 C   0  0  0  0  0  0  0  0  0  0  0  0
  -22.6110   -9.8300   20.1690 C   0  0  0  0  0  3  0  0  0  0  0  0
  -23.4640  -10.9330   20.0010 C   0  0  0  0  0  3  0  0  0  0  0  0
  -22.0400   -7.7710   21.1840 O   0  0  0  0  0  0  0  0  0  0  0  0
  -21.8800   -7.0530   22.3410 C   0  0  0  0  0  0  0  0  0  0  0  0
  -21.5110   -7.6690   23.5570 C   0  0  0  0  0  3  0  0  0  0  0  0
  -21.2880   -6.8830   24.7060 C   0  0  0  0  0  3  0  0  0  0  0  0
  -21.4260   -5.4840   24.6400 C   0  0  0  0  0  0  0  0  0  0  0  0
  -21.7890   -4.8680   23.4300 C   0  0  0  0  0  3  0  0  0  0  0  0
  -22.0120   -5.6510   22.2830 C   0  0  0  0  0  0  0  0  0  0  0  0
  -22.3400   -5.0500   21.1140 F   0  0  0  0  0  0  0  0  0  0  0  0
  -21.2060   -4.7280   25.7420 F   0  0  0  0  0  0  0  0  0  0  0  0
  -23.8640  -14.2520   20.9530 C   0  0  0  0  0  0  0  0  0  0  0  0
  -23.0840  -13.6380   21.8370 N   0  0  0  0  0  0  0  0  0  0  0  0
  -23.5290  -15.3200   20.4420 O   0  0  0  0  0  0  0  0  0  0  0  0
  -23.3680  -12.7720   22.2700 H   0  0  0  0  0  0  0  0  0  0  0  0
  -22.1920  -14.0410   22.0850 H   0  0  0  0  0  0  0  0  0  0  0  0
  -26.6560  -15.6240   20.1170 N   0  0  0  0  0  0  0  0  0  0  0  0
  -25.9680  -16.3590   20.2440 H   0  0  0  0  0  0  0  0  0  0  0  0
  -27.5500  -15.9740   19.7970 H   0  0  0  0  0  0  0  0  0  0  0  0
  -28.8090  -25.6370   21.8480 C   0  0  0  0  0  2  0  0  0  0  0  0
  -28.7960  -25.8200   20.3210 C   0  0  0  0  0  2  0  0  0  0  0  0
  -28.7550  -27.2070   20.0070 O   0  0  0  0  0  0  0  0  0  0  0  0
  -24.7090  -31.9880   23.3530 C   0  0  0  0  0  0  0  0  0  0  0  0
  -27.5300  -27.8240   20.0790 C   0  0  0  0  0  0  0  0  0  0  0  0
  -23.5590  -30.6220   21.6420 C   0  0  0  0  0  3  0  0  0  0  0  0
  -25.0720  -29.2040   20.1590 C   0  0  0  0  0  0  0  0  0  0  0  0
  -26.0670  -31.0880   21.4700 C   0  0  0  0  0  2  0  0  0  0  0  0
  -26.2050  -29.7530   20.7720 C   0  0  0  0  0  0  0  0  0  0  0  0
  -27.4370  -29.0720   20.7270 C   0  0  0  0  0  3  0  0  0  0  0  0
  -26.3830  -27.2740   19.4680 C   0  0  0  0  0  3  0  0  0  0  0  0
  -25.1530  -27.9590   19.5080 C   0  0  0  0  0  3  0  0  0  0  0  0
  -23.7960  -30.0100   20.2340 C   0  0  0  0  0  2  0  0  0  0  0  0
  -24.7960  -31.2450   22.2140 N   0  0  0  0  0  0  0  0  0  0  0  0
  -23.6180  -32.1960   23.9010 O   0  0  0  0  0  0  0  0  0  0  0  0
  -22.9440  -29.5350   22.5510 C   0  0  0  0  0  0  0  0  0  0  0  0
  -21.6260  -29.3140   22.4100 N   0  0  0  0  0  0  0  0  0  0  0  0
  -23.6470  -28.8930   23.3360 O   0  0  0  0  0  0  0  0  0  0  0  0
  -21.1200  -29.8870   21.7510 H   0  0  0  0  0  0  0  0  0  0  0  0
  -18.2950  -27.9850   22.8300 C   0  0  0  0  0  0  0  0  0  0  0  0
  -20.8410  -28.3140   23.1320 C   0  0  0  0  0  3  0  0  0  0  0  0
  -20.9940  -26.9160   22.4890 C   0  0  0  0  0  2  0  0  0  0  0  0
  -19.9090  -26.6050   21.4540 C   0  0  0  0  0  2  0  0  0  0  0  0
  -18.5200  -26.6750   22.0950 C   0  0  0  0  0  2  0  0  0  0  0  0
  -19.3850  -28.7630   23.3030 C   0  0  0  0  0  0  0  0  0  0  0  0
  -19.1220  -29.9910   23.9480 C   0  0  0  0  0  3  0  0  0  0  0  0
  -17.8020  -30.4420   24.1270 C   0  0  0  0  0  3  0  0  0  0  0  0
  -16.7250  -29.6610   23.6730 C   0  0  0  0  0  3  0  0  0  0  0  0
  -16.9720  -28.4350   23.0290 C   0  0  0  0  0  3  0  0  0  0  0  0
  -25.9720  -32.6340   24.0070 C   0  0  0  0  0  3  0  0  0  0  0  0
  -25.6400  -34.0290   24.3250 N   0  0  0  0  0  0  0  0  0  0  0  0
  -25.9770  -35.0820   23.5700 C   0  0  0  0  0  0  0  0  0  0  0  0
  -26.6720  -34.9850   22.5550 O   0  0  0  0  0  0  0  0  0  0  0  0
  -25.0250  -34.1800   25.1120 H   0  0  0  0  0  0  0  0  0  0  0  0
  -24.2330  -36.8500   23.1700 C   0  0  0  0  0  1  0  0  0  0  0  0
  -25.4600  -36.4650   24.0110 C   0  0  0  0  0  3  0  0  0  0  0  0
  -27.5690  -37.3760   24.8800 C   0  0  0  0  0  1  0  0  0  0  0  0
  -26.4810  -37.5320   23.9180 N   0  0  0  0  0  0  0  0  0  0  0  0
  -26.0610  -38.4460   24.0590 H   0  0  0  0  0  0  0  0  0  0  0  0
  -26.4670  -31.8680   25.2950 C   0  0  1  0  0  0  0  0  0  0  0  0
  -25.3430  -31.5810   26.3170 C   0  0  0  0  0  1  0  0  0  0  0  0
  -27.1140  -30.5170   24.9110 C   0  0  0  0  0  1  0  0  0  0  0  0
  -27.5610  -32.6960   26.0090 C   0  0  0  0  0  1  0  0  0  0  0  0
  1  2  1  0
  1  5  1  0
  2  4  1  0
  3  1  2  0
  6  7  1  0
  6  5  1  0
  8  9  1  0
  8  7  2  0
  9 10  1  0
 10 19  1  0
 11 19  1  0
 12 17  1  0
 13 14  1  0
 13 12  1  0
 15 14  1  0
 15 24  1  0
 15 16  1  0
 17 11  1  0
 17 16  1  0
 18 11  2  0
 19 20  1  0
 21 22  2  0
 22 41  1  0
 23 22  1  0
 23 26  1  0
 24 25  1  0
 24 21  1  0
 25 23  2  0
 26 27  1  0
 27 28  2  0
 29 32  1  0
 29 28  1  0
 30 29  2  0
 31 30  1  0
 31 26  2  0
 32 33  1  0
 33 34  1  0
 34 35  2  0
 36 35  1  0
 36 40  1  0
 37 36  2  0
 38 33  2  0
 38 37  1  0
 39 38  1  0
 41 42  1  0
 42 45  1  0
 42 44  1  0
 43 41  2  0
 46 47  1  0
 46 21  1  0
 48 46  1  0
 49  2  1  0
 50 49  1  0
 51 53  1  0
 51 50  1  0
 52 63  2  0
 53 58  1  0
 54 62  1  0
 54 64  1  0
 55 61  1  0
 55 57  1  0
 56 62  1  0
 57 56  1  0
 58 57  2  0
 59 60  1  0
 59 53  2  0
 60 55  2  0
 61 54  1  0
 62 52  1  0
 64 66  2  0
 65 64  1  0
 67 65  1  0
 68 77  2  0
 68 73  1  0
 69 65  1  0
 69 73  1  0
 70 69  1  0
 71 72  1  0
 71 70  1  0
 72 68  1  0
 73 74  2  0
 74 75  1  0
 76 75  2  0
 77 76  1  0
 78 52  1  0
 78 79  1  0
 78 88  1  0
 79 82  1  0
 80 84  1  0
 80 79  1  0
 81 80  2  0
 84 83  1  0
 86 84  1  0
 86 87  1  0
 86 85  1  0
 88 91  1  1
 88 89  1  0
 90 88  1  0
M  ISO  4  11 100  19 100  50 101  51 101
M  END
>  <TORSDO>  (1) 
F 23

>  <SCORE>  (1) 
-11.216

>  <name>  (1) 
0

>  <ligand_id>  (1) 
0

>  <original_smiles>  (1) 
[H]C(=C([H])C([H])([H])C([H])([H])N([H])C(=O)N1C([H])([H])C([H])([H])C([H])([H])C([H])(n2nc(-c3c([H])c([H])c(Oc4c([H])c([H])c(F)c([H])c4F)c([H])c3[H])c(C(=O)N([H])[H])c2N([H])[H])C1([H])[H])C([H])([H])C([H])([H])C(=O)N([H])C([H])([H])C([H])([H])Oc1c([H])c([H])c2c(c1[H])C([H])([H])N(C(=O)C([H])(N([H])C(=O)C([H])(N([H])C([H])([H])[H])C([H])([H])[H])C(C([H])([H])[H])(C([H])([H])[H])C([H])([H])[H])C([H])(C(=O)N([H])C1([H])c3c([H])c([H])c([H])c([H])c3C([H])([H])C([H])([H])C1([H])[H])C2([H])[H]

>  <smiles>  (1) 
[H]C(=C([H])C([H])([H])C([H])([H])N([H])C(=O)N1C([H])([H])C([H])([H])C([H])([H])C([H])(n2nc(-c3c([H])c([H])c(Oc4c([H])c([H])c(F)c([H])c4F)c([H])c3[H])c(C(=O)N([H])[H])c2N([H])[H])C1([H])[H])C([H])([H])C([H])([H])C(=O)N([H])C([H])([H])C([H])([H])Oc1c([H])c([H])c2c(c1[H])C([H])([H])N(C(=O)C([H])(N([H])C(=O)C([H])(N([H])C([H])([H])[H])C([H])([H])[H])C(C([H])([H])[H])(C([H])([H])[H])C([H])([H])[H])C([H])(C(=O)N([H])C1([H])c3c([H])c([H])c([H])c([H])c3C([H])([H])C([H])([H])C1([H])[H])C2([H])[H]

$$$$
1:0:0
     RDKit          3D

 87 94  0  0  1  0  0  0  0  0999 V2000
  -28.3110  -23.2760   20.0920 C   0  0  0  0  0  0  0  0  0  0  0  0
  -29.0070  -22.1170   20.5630 N   0  0  0  0  0  0  0  0  0  0  0  0
  -27.5820  -23.1400   19.1070 O   0  0  0  0  0  0  0  0  0  0  0  0
  -29.6790  -22.3740   21.2750 H   0  0  0  0  0  0  0  0  0  0  0  0
  -28.2670  -24.7740   20.8440 C   0  0  0  0  0  2  0  0  0  0  0  0
  -28.2800  -26.1780   20.1540 O   0  0  0  0  0  0  0  0  0  0  0  0
  -24.6030  -31.8650   23.2170 C   0  0  0  0  0  0  0  0  0  0  0  0
  -27.2030  -27.1400   20.2120 C   0  0  0  0  0  0  0  0  0  0  0  0
  -23.4120  -30.4640   21.5750 C   0  0  0  0  0  3  0  0  0  0  0  0
  -24.8690  -28.8810   20.1670 C   0  0  0  0  0  0  0  0  0  0  0  0
  -25.9670  -30.7340   21.4180 C   0  0  0  0  0  2  0  0  0  0  0  0
  -26.0470  -29.3350   20.7740 C   0  0  0  0  0  0  0  0  0  0  0  0
  -27.2180  -28.4830   20.7720 C   0  0  0  0  0  3  0  0  0  0  0  0
  -25.9960  -26.7820   19.5800 C   0  0  0  0  0  3  0  0  0  0  0  0
  -24.8560  -27.6170   19.5540 C   0  0  0  0  0  3  0  0  0  0  0  0
  -23.6420  -29.7800   20.2010 C   0  0  0  0  0  2  0  0  0  0  0  0
  -24.6810  -31.0440   22.1250 N   0  0  0  0  0  0  0  0  0  0  0  0
  -23.5140  -32.1470   23.7420 O   0  0  0  0  0  0  0  0  0  0  0  0
  -22.7320  -29.4580   22.5380 C   0  0  0  0  0  0  0  0  0  0  0  0
  -21.4040  -29.2890   22.4100 N   0  0  0  0  0  0  0  0  0  0  0  0
  -23.4020  -28.8320   23.3630 O   0  0  0  0  0  0  0  0  0  0  0  0
  -20.9190  -29.8450   21.7190 H   0  0  0  0  0  0  0  0  0  0  0  0
  -18.0210  -28.0890   22.9130 C   0  0  0  0  0  0  0  0  0  0  0  0
  -20.5810  -28.3510   23.1790 C   0  0  0  0  0  3  0  0  0  0  0  0
  -20.6820  -26.9200   22.6030 C   0  0  0  0  0  2  0  0  0  0  0  0
  -19.5790  -26.5980   21.5870 C   0  0  0  0  0  2  0  0  0  0  0  0
  -18.1980  -26.7420   22.2320 C   0  0  0  0  0  2  0  0  0  0  0  0
  -19.1400  -28.8510   23.3430 C   0  0  0  0  0  0  0  0  0  0  0  0
  -18.9210  -30.1120   23.9400 C   0  0  0  0  0  3  0  0  0  0  0  0
  -17.6150  -30.6090   24.1110 C   0  0  0  0  0  3  0  0  0  0  0  0
  -16.5120  -29.8460   23.6950 C   0  0  0  0  0  3  0  0  0  0  0  0
  -16.7150  -28.5870   23.1020 C   0  0  0  0  0  3  0  0  0  0  0  0
  -25.8770  -32.5050   23.8490 C   0  0  0  0  0  3  0  0  0  0  0  0
  -26.3810  -31.7420   25.1360 C   0  0  1  0  0  0  0  0  0  0  0  0
  -25.2780  -31.5130   26.1960 C   0  0  0  0  0  1  0  0  0  0  0  0
  -26.9660  -30.3600   24.7630 C   0  0  0  0  0  1  0  0  0  0  0  0
  -27.5270  -32.5390   25.8030 C   0  0  0  0  0  1  0  0  0  0  0  0
  -25.5600  -33.9050   24.1770 N   0  0  0  0  0  0  0  0  0  0  0  0
  -25.9010  -34.9620   23.4280 C   0  0  0  0  0  0  0  0  0  0  0  0
  -26.5800  -34.8620   22.4040 O   0  0  0  0  0  0  0  0  0  0  0  0
  -24.9560  -34.0560   24.9720 H   0  0  0  0  0  0  0  0  0  0  0  0
  -24.1830  -36.7660   23.0620 C   0  0  0  0  0  1  0  0  0  0  0  0
  -25.4130  -36.3500   23.8870 C   0  0  0  0  0  3  0  0  0  0  0  0
  -27.5380  -37.2270   24.7520 C   0  0  0  0  0  1  0  0  0  0  0  0
  -26.4500  -37.4010   23.7940 N   0  0  0  0  0  0  0  0  0  0  0  0
  -26.0450  -38.3220   23.9380 H   0  0  0  0  0  0  0  0  0  0  0  0
  -28.6960  -20.5470   20.6100 C   0  0  0  0  0  2  0  0  0  0  0  0
  -29.5680  -19.2010   20.0200 C   0  0  0  0  0  2  0  0  0  0  0  0
  -29.8840  -17.7260   20.8270 C   0  0  0  0  0  2  0  0  0  0  0  0
  -30.4980  -15.0290   20.2720 C   0  0  0  0  0  0  0  0  0  0  0  0
  -30.3980  -12.6750   19.2990 C   0  0  0  0  0  2  0  0  0  0  0  0
  -29.4540  -12.6090   18.0760 C   0  0  0  0  0  2  0  0  0  0  0  0
  -27.9940  -12.3890   18.5200 C   0  0  0  0  0  2  0  0  0  0  0  0
  -27.5870  -13.3150   19.6960 C   0  0  0  0  0  3  0  0  0  0  0  0
  -28.6500  -13.3350   20.8120 C   0  0  0  0  0  2  0  0  0  0  0  0
  -29.9060  -13.7670   20.1860 N   0  0  0  0  0  0  0  0  0  0  0  0
  -31.7180  -15.0890   20.0840 O   0  0  0  0  0  0  0  0  0  0  0  0
  -29.6930  -16.2100   20.3600 N   0  0  0  0  0  0  0  0  0  0  0  0
  -28.7160  -15.9650   20.3060 H   0  0  0  0  0  0  0  0  0  0  0  0
  -25.2080  -13.8900   20.4400 C   0  0  0  0  0  0  0  0  0  0  0  0
  -24.1470  -13.1130   20.8160 C   0  0  0  0  0  0  0  0  0  0  0  0
  -24.6170  -11.7640   20.7940 C   0  0  0  0  0  0  0  0  0  0  0  0
  -26.2540  -13.0130   20.2030 N   0  0  0  0  0  0  0  0  0  0  0  0
  -25.9090  -11.7290   20.4840 N   0  0  0  0  0  0  0  0  0  0  0  0
  -23.8950  -10.5000   20.9900 C   0  0  0  0  0  0  0  0  0  0  0  0
  -24.3240   -9.5420   21.9360 C   0  0  0  0  0  3  0  0  0  0  0  0
  -23.6000   -8.3450   22.1200 C   0  0  0  0  0  3  0  0  0  0  0  0
  -22.4330   -8.0960   21.3600 C   0  0  0  0  0  0  0  0  0  0  0  0
  -22.0230   -9.0420   20.4040 C   0  0  0  0  0  3  0  0  0  0  0  0
  -22.7480  -10.2310   20.2170 C   0  0  0  0  0  3  0  0  0  0  0  0
  -21.6800   -6.9500   21.4530 O   0  0  0  0  0  0  0  0  0  0  0  0
  -21.6230   -6.2200   22.6130 C   0  0  0  0  0  0  0  0  0  0  0  0
  -21.1780   -6.7850   23.8280 C   0  0  0  0  0  3  0  0  0  0  0  0
  -21.0690   -5.9810   24.9790 C   0  0  0  0  0  3  0  0  0  0  0  0
  -21.3920   -4.6130   24.9180 C   0  0  0  0  0  0  0  0  0  0  0  0
  -21.8300   -4.0470   23.7070 C   0  0  0  0  0  3  0  0  0  0  0  0
  -21.9410   -4.8480   22.5570 C   0  0  0  0  0  0  0  0  0  0  0  0
  -22.3430   -4.2930   21.3880 F   0  0  0  0  0  0  0  0  0  0  0  0
  -21.2800   -3.8370   26.0210 F   0  0  0  0  0  0  0  0  0  0  0  0
  -22.7480  -13.5860   21.0790 C   0  0  0  0  0  0  0  0  0  0  0  0
  -22.0190  -12.8930   21.9460 N   0  0  0  0  0  0  0  0  0  0  0  0
  -22.3100  -14.6090   20.5520 O   0  0  0  0  0  0  0  0  0  0  0  0
  -22.3860  -12.0670   22.3940 H   0  0  0  0  0  0  0  0  0  0  0  0
  -21.0790  -13.1920   22.1650 H   0  0  0  0  0  0  0  0  0  0  0  0
  -25.3630  -15.2600   20.2520 N   0  0  0  0  0  0  0  0  0  0  0  0
  -24.5870  -15.9040   20.3560 H   0  0  0  0  0  0  0  0  0  0  0  0
  -26.1930  -15.7010   19.8800 H   0  0  0  0  0  0  0  0  0  0  0  0
  1  2  1  0
  1  5  1  0
  2 47  1  0
  2  4  1  0
  3  1  2  0
  6  8  1  0
  6  5  1  0
  7 18  2  0
  8 13  1  0
  9 17  1  0
  9 19  1  0
 10 16  1  0
 10 12  1  0
 11 17  1  0
 12 11  1  0
 13 12  2  0
 14  8  2  0
 15 14  1  0
 15 10  2  0
 16  9  1  0
 17  7  1  0
 19 21  2  0
 20 19  1  0
 22 20  1  0
 23 32  2  0
 23 28  1  0
 24 20  1  0
 24 28  1  0
 25 24  1  0
 26 27  1  0
 26 25  1  0
 27 23  1  0
 28 29  2  0
 29 30  1  0
 31 30  2  0
 32 31  1  0
 33  7  1  0
 33 38  1  0
 33 34  1  0
 34 37  1  1
 34 35  1  0
 36 34  1  0
 38 41  1  0
 39 43  1  0
 39 38  1  0
 40 39  2  0
 43 42  1  0
 45 43  1  0
 45 46  1  0
 45 44  1  0
 48 47  1  0
 48 49  1  0
 50 58  1  0
 51 56  1  0
 52 53  1  0
 52 51  1  0
 54 53  1  0
 54 63  1  0
 54 55  1  0
 56 50  1  0
 56 55  1  0
 57 50  2  0
 58 49  1  0
 59 58  1  0
 60 61  2  0
 61 80  1  0
 62 61  1  0
 62 65  1  0
 63 60  1  0
 63 64  1  0
 64 62  2  0
 65 66  1  0
 66 67  2  0
 68 71  1  0
 68 67  1  0
 69 68  2  0
 70 69  1  0
 70 65  2  0
 71 72  1  0
 72 73  1  0
 73 74  2  0
 75 74  1  0
 75 79  1  0
 76 75  2  0
 77 72  2  0
 77 76  1  0
 78 77  1  0
 80 81  1  0
 81 84  1  0
 81 83  1  0
 82 80  2  0
 85 86  1  0
 85 60  1  0
 87 85  1  0
M  ISO  4   5 101   6 101  50 100  58 100
M  END
>  <TORSDO>  (2) 
F 20

>  <SCORE>  (2) 
-14.819

>  <name>  (2) 
1

>  <ligand_id>  (2) 
1

>  <original_smiles>  (2) 
[H]c1c([H])c([H])c2c(c1[H])C([H])([H])C([H])([H])C([H])([H])C2([H])N([H])C(=O)C1([H])N(C(=O)C([H])(N([H])C(=O)C([H])(N([H])C([H])([H])[H])C([H])([H])[H])C(C([H])([H])[H])(C([H])([H])[H])C([H])([H])[H])C([H])([H])c2c([H])c(OC([H])([H])C(=O)N([H])C([H])([H])C([H])([H])C([H])([H])N([H])C(=O)N3C([H])([H])C([H])([H])C([H])([H])C([H])(n4nc(-c5c([H])c([H])c(Oc6c([H])c([H])c(F)c([H])c6F)c([H])c5[H])c(C(=O)N([H])[H])c4N([H])[H])C3([H])[H])c([H])c([H])c2C1([H])[H]

>  <smiles>  (2) 
[H]c1c([H])c([H])c2c(c1[H])C([H])([H])C([H])([H])C([H])([H])C2([H])N([H])C(=O)C1([H])N(C(=O)C([H])(N([H])C(=O)C([H])(N([H])C([H])([H])[H])C([H])([H])[H])C(C([H])([H])[H])(C([H])([H])[H])C([H])([H])[H])C([H])([H])c2c([H])c(OC([H])([H])C(=O)N([H])C([H])([H])C([H])([H])C([H])([H])N([H])C(=O)N3C([H])([H])C([H])([H])C([H])([H])C([H])(n4nc(-c5c([H])c([H])c(Oc6c([H])c([H])c(F)c([H])c6F)c([H])c5[H])c(C(=O)N([H])[H])c4N([H])[H])C3([H])[H])c([H])c([H])c2C1([H])[H]

$$$$
2:0:0
     RDKit          3D

 94101  0  0  1  0  0  0  0  0999 V2000
  -30.5350  -22.8780   23.3430 C   0  0  0  0  0  2  0  0  0  0  0  0
  -30.5450  -21.6090   24.2160 C   0  0  0  0  0  2  0  0  0  0  0  0
  -30.2500  -20.2660   23.5140 C   0  0  0  0  0  2  0  0  0  0  0  0
  -31.2560  -19.8850   22.4100 C   0  0  0  0  0  2  0  0  0  0  0  0
  -30.8220  -17.4690   21.8560 C   0  0  0  0  0  0  0  0  0  0  0  0
  -31.5440  -18.4510   22.4090 N   0  0  0  0  0  0  0  0  0  0  0  0
  -29.7870  -17.6680   21.2150 O   0  0  0  0  0  0  0  0  0  0  0  0
  -32.3840  -18.1690   22.8980 H   0  0  0  0  0  0  0  0  0  0  0  0
  -31.3500  -16.0500   22.0950 C   0  0  0  0  0  2  0  0  0  0  0  0
  -30.7390  -14.4340   20.2970 C   0  0  0  0  0  0  0  0  0  0  0  0
  -30.2620  -12.4140   18.9580 C   0  0  0  0  0  2  0  0  0  0  0  0
  -29.2510  -12.6620   17.8260 C   0  0  0  0  0  2  0  0  0  0  0  0
  -27.8090  -12.5080   18.3410 C   0  0  0  0  0  2  0  0  0  0  0  0
  -27.5530  -13.3270   19.6320 C   0  0  0  0  0  3  0  0  0  0  0  0
  -28.6580  -13.0620   20.6780 C   0  0  0  0  0  2  0  0  0  0  0  0
  -29.9710  -13.3410   20.0620 N   0  0  0  0  0  0  0  0  0  0  0  0
  -31.6620  -14.7930   19.5580 O   0  0  0  0  0  0  0  0  0  0  0  0
  -30.5270  -15.0070   21.4860 N   0  0  0  0  0  0  0  0  0  0  0  0
  -29.7610  -14.6500   22.0350 H   0  0  0  0  0  0  0  0  0  0  0  0
  -25.2040  -13.9510   20.4860 C   0  0  0  0  0  0  0  0  0  0  0  0
  -24.1470  -13.1840   20.8970 C   0  0  0  0  0  0  0  0  0  0  0  0
  -24.5870  -11.8270   20.8100 C   0  0  0  0  0  0  0  0  0  0  0  0
  -26.2240  -13.0620   20.1790 N   0  0  0  0  0  0  0  0  0  0  0  0
  -25.8570  -11.7780   20.4270 N   0  0  0  0  0  0  0  0  0  0  0  0
  -23.8560  -10.5700   21.0140 C   0  0  0  0  0  0  0  0  0  0  0  0
  -24.3190   -9.5830   21.9110 C   0  0  0  0  0  3  0  0  0  0  0  0
  -23.5890   -8.3910   22.1030 C   0  0  0  0  0  3  0  0  0  0  0  0
  -22.3820   -8.1760   21.3980 C   0  0  0  0  0  0  0  0  0  0  0  0
  -21.9360   -9.1520   20.4880 C   0  0  0  0  0  3  0  0  0  0  0  0
  -22.6670  -10.3360   20.2950 C   0  0  0  0  0  3  0  0  0  0  0  0
  -21.6200   -7.0380   21.5000 O   0  0  0  0  0  0  0  0  0  0  0  0
  -21.6100   -6.2790   22.6420 C   0  0  0  0  0  0  0  0  0  0  0  0
  -21.2590   -6.8230   23.8980 C   0  0  0  0  0  3  0  0  0  0  0  0
  -21.1960   -5.9910   25.0330 C   0  0  0  0  0  3  0  0  0  0  0  0
  -21.4720   -4.6170   24.9160 C   0  0  0  0  0  0  0  0  0  0  0  0
  -21.8170   -4.0710   23.6660 C   0  0  0  0  0  3  0  0  0  0  0  0
  -21.8830   -4.8990   22.5320 C   0  0  0  0  0  0  0  0  0  0  0  0
  -22.1940   -4.3650   21.3270 F   0  0  0  0  0  0  0  0  0  0  0  0
  -21.4040   -3.8150   26.0050 F   0  0  0  0  0  0  0  0  0  0  0  0
  -22.7750  -13.6720   21.2620 C   0  0  0  0  0  0  0  0  0  0  0  0
  -22.0900  -12.9650   22.1540 N   0  0  0  0  0  0  0  0  0  0  0  0
  -22.3200  -14.7130   20.7900 O   0  0  0  0  0  0  0  0  0  0  0  0
  -22.4710  -12.1230   22.5580 H   0  0  0  0  0  0  0  0  0  0  0  0
  -21.1710  -13.2730   22.4380 H   0  0  0  0  0  0  0  0  0  0  0  0
  -25.3780  -15.3230   20.3320 N   0  0  0  0  0  0  0  0  0  0  0  0
  -24.6320  -15.9880   20.5080 H   0  0  0  0  0  0  0  0  0  0  0  0
  -26.2290  -15.7600   19.9980 H   0  0  0  0  0  0  0  0  0  0  0  0
  -29.1940  -23.1470   22.6320 C   0  0  0  0  0  2  0  0  0  0  0  0
  -29.6920  -25.3030   21.4340 C   0  0  0  0  0  0  0  0  0  0  0  0
  -28.9930  -24.5580   22.3000 N   0  0  0  0  0  0  0  0  0  0  0  0
  -30.6650  -24.8690   20.8120 O   0  0  0  0  0  0  0  0  0  0  0  0
  -28.2020  -25.0130   22.7400 H   0  0  0  0  0  0  0  0  0  0  0  0
  -29.2020  -26.7400   21.2080 C   0  0  0  0  0  2  0  0  0  0  0  0
  -28.3420  -26.7340   20.0690 O   0  0  0  0  0  0  0  0  0  0  0  0
  -24.5190  -31.8900   23.2120 C   0  0  0  0  0  0  0  0  0  0  0  0
  -27.2010  -27.4960   20.1300 C   0  0  0  0  0  0  0  0  0  0  0  0
  -23.3190  -30.4810   21.5680 C   0  0  0  0  0  3  0  0  0  0  0  0
  -24.7840  -28.9560   20.1430 C   0  0  0  0  0  0  0  0  0  0  0  0
  -25.8380  -30.8670   21.3660 C   0  0  0  0  0  2  0  0  0  0  0  0
  -25.9340  -29.4960   20.7330 C   0  0  0  0  0  0  0  0  0  0  0  0
  -27.1450  -28.7740   20.7320 C   0  0  0  0  0  3  0  0  0  0  0  0
  -26.0410  -26.9690   19.5280 C   0  0  0  0  0  3  0  0  0  0  0  0
  -24.8310  -27.6870   19.5380 C   0  0  0  0  0  3  0  0  0  0  0  0
  -23.5310  -29.8000   20.1880 C   0  0  0  0  0  2  0  0  0  0  0  0
  -24.5770  -31.0940   22.1080 N   0  0  0  0  0  0  0  0  0  0  0  0
  -23.4380  -32.1530   23.7550 O   0  0  0  0  0  0  0  0  0  0  0  0
  -22.6780  -29.4550   22.5290 C   0  0  0  0  0  0  0  0  0  0  0  0
  -21.3540  -29.2680   22.4070 N   0  0  0  0  0  0  0  0  0  0  0  0
  -23.3680  -28.8290   23.3370 O   0  0  0  0  0  0  0  0  0  0  0  0
  -20.8600  -29.8230   21.7210 H   0  0  0  0  0  0  0  0  0  0  0  0
  -17.9850  -28.0740   22.9210 C   0  0  0  0  0  0  0  0  0  0  0  0
  -20.5430  -28.3280   23.1790 C   0  0  0  0  0  3  0  0  0  0  0  0
  -20.6430  -26.9000   22.5930 C   0  0  0  0  0  2  0  0  0  0  0  0
  -19.5330  -26.5850   21.5850 C   0  0  0  0  0  2  0  0  0  0  0  0
  -18.1560  -26.7280   22.2370 C   0  0  0  0  0  2  0  0  0  0  0  0
  -19.1060  -28.8330   23.3490 C   0  0  0  0  0  0  0  0  0  0  0  0
  -18.8930  -30.0940   23.9460 C   0  0  0  0  0  3  0  0  0  0  0  0
  -17.5910  -30.5960   24.1230 C   0  0  0  0  0  3  0  0  0  0  0  0
  -16.4830  -29.8340   23.7120 C   0  0  0  0  0  3  0  0  0  0  0  0
  -16.6810  -28.5760   23.1160 C   0  0  0  0  0  3  0  0  0  0  0  0
  -25.8050  -32.5260   23.8300 C   0  0  0  0  0  3  0  0  0  0  0  0
  -25.4920  -33.9220   24.1590 N   0  0  0  0  0  0  0  0  0  0  0  0
  -25.8230  -34.9740   23.3970 C   0  0  0  0  0  0  0  0  0  0  0  0
  -26.4950  -34.8700   22.3670 O   0  0  0  0  0  0  0  0  0  0  0  0
  -24.8980  -34.0760   24.9590 H   0  0  0  0  0  0  0  0  0  0  0  0
  -24.0900  -36.7590   23.0330 C   0  0  0  0  0  1  0  0  0  0  0  0
  -25.3280  -36.3600   23.8510 C   0  0  0  0  0  3  0  0  0  0  0  0
  -27.4570  -37.2510   24.6880 C   0  0  0  0  0  1  0  0  0  0  0  0
  -26.3580  -37.4170   23.7420 N   0  0  0  0  0  0  0  0  0  0  0  0
  -25.9500  -38.3350   23.8900 H   0  0  0  0  0  0  0  0  0  0  0  0
  -26.3320  -31.7560   25.1020 C   0  0  1  0  0  0  0  0  0  0  0  0
  -25.2450  -31.5100   26.1740 C   0  0  0  0  0  1  0  0  0  0  0  0
  -26.9230  -30.3830   24.7030 C   0  0  0  0  0  1  0  0  0  0  0  0
  -27.4790  -32.5560   25.7620 C   0  0  0  0  0  1  0  0  0  0  0  0
  1  2  1  0
  3  2  1  0
  4  3  1  0
  5  9  1  0
  5  6  1  0
  6  4  1  0
  6  8  1  0
  7  5  2  0
 10 18  1  0
 11 16  1  0
 12 13  1  0
 12 11  1  0
 14 13  1  0
 14 23  1  0
 14 15  1  0
 16 10  1  0
 16 15  1  0
 17 10  2  0
 18 19  1  0
 18  9  1  0
 20 21  2  0
 21 40  1  0
 22 21  1  0
 22 25  1  0
 23 24  1  0
 23 20  1  0
 24 22  2  0
 25 26  1  0
 26 27  2  0
 28 31  1  0
 28 27  1  0
 29 28  2  0
 30 29  1  0
 30 25  2  0
 31 32  1  0
 32 33  1  0
 33 34  2  0
 35 34  1  0
 35 39  1  0
 36 35  2  0
 37 32  2  0
 37 36  1  0
 38 37  1  0
 40 41  1  0
 41 44  1  0
 41 43  1  0
 42 40  2  0
 45 20  1  0
 45 46  1  0
 47 45  1  0
 48  1  1  0
 49 50  1  0
 50 48  1  0
 50 52  1  0
 51 49  2  0
 53 49  1  0
 54 56  1  0
 54 53  1  0
 55 66  2  0
 56 61  1  0
 57 65  1  0
 57 67  1  0
 58 64  1  0
 58 60  1  0
 59 65  1  0
 60 59  1  0
 61 60  2  0
 62 63  1  0
 62 56  2  0
 63 58  2  0
 64 57  1  0
 65 55  1  0
 67 69  2  0
 68 67  1  0
 70 68  1  0
 71 80  2  0
 71 76  1  0
 72 68  1  0
 72 76  1  0
 73 72  1  0
 74 75  1  0
 74 73  1  0
 75 71  1  0
 76 77  2  0
 77 78  1  0
 79 78  2  0
 80 79  1  0
 81 55  1  0
 81 82  1  0
 81 91  1  0
 82 85  1  0
 83 87  1  0
 83 82  1  0
 84 83  2  0
 87 86  1  0
 89 87  1  0
 89 90  1  0
 89 88  1  0
 91 94  1  1
 91 92  1  0
 93 91  1  0
M  ISO  4  10 100  18 100  53 101  54 101
M  END
>  <TORSDO>  (3) 
F 24

>  <SCORE>  (3) 
-11.745

>  <name>  (3) 
2

>  <ligand_id>  (3) 
2

>  <original_smiles>  (3) 
[H]c1c([H])c([H])c2c(c1[H])C([H])([H])C([H])([H])C([H])([H])C2([H])N([H])C(=O)C1([H])N(C(=O)C([H])(N([H])C(=O)C([H])(N([H])C([H])([H])[H])C([H])([H])[H])C(C([H])([H])[H])(C([H])([H])[H])C([H])([H])[H])C([H])([H])c2c([H])c(OC([H])([H])C(=O)N([H])C([H])([H])C([H])([H])C([H])([H])C([H])([H])C([H])([H])N([H])C(=O)C([H])([H])N([H])C(=O)N3C([H])([H])C([H])([H])C([H])([H])C([H])(n4nc(-c5c([H])c([H])c(Oc6c([H])c([H])c(F)c([H])c6F)c([H])c5[H])c(C(=O)N([H])[H])c4N([H])[H])C3([H])[H])c([H])c([H])c2C1([H])[H]

>  <smiles>  (3) 
[H]c1c([H])c([H])c2c(c1[H])C([H])([H])C([H])([H])C([H])([H])C2([H])N([H])C(=O)C1([H])N(C(=O)C([H])(N([H])C(=O)C([H])(N([H])C([H])([H])[H])C([H])([H])[H])C(C([H])([H])[H])(C([H])([H])[H])C([H])([H])[H])C([H])([H])c2c([H])c(OC([H])([H])C(=O)N([H])C([H])([H])C([H])([H])C([H])([H])C([H])([H])C([H])([H])N([H])C(=O)C([H])([H])N([H])C(=O)N3C([H])([H])C([H])([H])C([H])([H])C([H])(n4nc(-c5c([H])c([H])c(Oc6c([H])c([H])c(F)c([H])c6F)c([H])c5[H])c(C(=O)N([H])[H])c4N([H])[H])C3([H])[H])c([H])c([H])c2C1([H])[H]

$$$$
3:0:0
     RDKit          3D

 90 97  0  0  1  0  0  0  0  0999 V2000
  -28.7600  -24.4870   20.7740 C   0  0  0  0  0  0  0  0  0  0  0  0
  -28.8400  -23.1890   20.4400 N   0  0  0  0  0  0  0  0  0  0  0  0
  -28.9070  -24.8760   21.9360 O   0  0  0  0  0  0  0  0  0  0  0  0
  -28.6860  -22.9500   19.4690 H   0  0  0  0  0  0  0  0  0  0  0  0
  -28.5590  -25.4920   19.6270 C   0  0  0  0  0  2  0  0  0  0  0  0
  -28.4220  -26.8280   20.1370 O   0  0  0  0  0  0  0  0  0  0  0  0
  -24.5720  -31.9090   23.2700 C   0  0  0  0  0  0  0  0  0  0  0  0
  -27.2050  -27.4800   20.1550 C   0  0  0  0  0  0  0  0  0  0  0  0
  -23.3580  -30.5160   21.6250 C   0  0  0  0  0  3  0  0  0  0  0  0
  -24.8030  -28.9820   20.1940 C   0  0  0  0  0  0  0  0  0  0  0  0
  -25.8830  -30.8740   21.4190 C   0  0  0  0  0  2  0  0  0  0  0  0
  -25.9630  -29.5040   20.7770 C   0  0  0  0  0  0  0  0  0  0  0  0
  -27.1630  -28.7590   20.7570 C   0  0  0  0  0  3  0  0  0  0  0  0
  -26.0150  -26.9630   19.5850 C   0  0  0  0  0  3  0  0  0  0  0  0
  -24.8230  -27.7100   19.6000 C   0  0  0  0  0  3  0  0  0  0  0  0
  -23.5620  -29.8440   20.2420 C   0  0  0  0  0  2  0  0  0  0  0  0
  -24.6230  -31.1150   22.1630 N   0  0  0  0  0  0  0  0  0  0  0  0
  -23.4910  -32.1800   23.8140 O   0  0  0  0  0  0  0  0  0  0  0  0
  -22.7120  -29.4900   22.5830 C   0  0  0  0  0  0  0  0  0  0  0  0
  -21.3880  -29.3050   22.4550 N   0  0  0  0  0  0  0  0  0  0  0  0
  -23.3970  -28.8630   23.3960 O   0  0  0  0  0  0  0  0  0  0  0  0
  -20.8960  -29.8610   21.7710 H   0  0  0  0  0  0  0  0  0  0  0  0
  -18.0170  -28.0980   22.9390 C   0  0  0  0  0  0  0  0  0  0  0  0
  -20.5720  -28.3620   23.2220 C   0  0  0  0  0  3  0  0  0  0  0  0
  -20.6830  -26.9330   22.6450 C   0  0  0  0  0  2  0  0  0  0  0  0
  -19.5860  -26.6070   21.6260 C   0  0  0  0  0  2  0  0  0  0  0  0
  -18.2010  -26.7490   22.2650 C   0  0  0  0  0  2  0  0  0  0  0  0
  -19.1310  -28.8630   23.3740 C   0  0  0  0  0  0  0  0  0  0  0  0
  -18.9060  -30.1280   23.9610 C   0  0  0  0  0  3  0  0  0  0  0  0
  -17.6000  -30.6260   24.1200 C   0  0  0  0  0  3  0  0  0  0  0  0
  -16.5000  -29.8580   23.7010 C   0  0  0  0  0  3  0  0  0  0  0  0
  -16.7090  -28.5950   23.1160 C   0  0  0  0  0  3  0  0  0  0  0  0
  -25.8590  -32.5360   23.8890 C   0  0  0  0  0  3  0  0  0  0  0  0
  -25.5590  -33.9370   24.2110 N   0  0  0  0  0  0  0  0  0  0  0  0
  -25.8990  -34.9830   23.4480 C   0  0  0  0  0  0  0  0  0  0  0  0
  -26.5710  -34.8710   22.4180 O   0  0  0  0  0  0  0  0  0  0  0  0
  -24.9660  -34.1000   25.0120 H   0  0  0  0  0  0  0  0  0  0  0  0
  -24.1760  -36.7770   23.0820 C   0  0  0  0  0  1  0  0  0  0  0  0
  -25.4150  -36.3750   23.8960 C   0  0  0  0  0  3  0  0  0  0  0  0
  -27.5550  -37.2540   24.7210 C   0  0  0  0  0  1  0  0  0  0  0  0
  -26.4520  -37.4240   23.7790 N   0  0  0  0  0  0  0  0  0  0  0  0
  -26.0500  -38.3460   23.9230 H   0  0  0  0  0  0  0  0  0  0  0  0
  -26.3740  -31.7670   25.1650 C   0  0  1  0  0  0  0  0  0  0  0  0
  -25.2830  -31.5360   26.2360 C   0  0  0  0  0  1  0  0  0  0  0  0
  -26.9500  -30.3870   24.7720 C   0  0  0  0  0  1  0  0  0  0  0  0
  -27.5290  -32.5580   25.8250 C   0  0  0  0  0  1  0  0  0  0  0  0
  -29.3690  -22.1490   21.3200 C   0  0  0  0  0  2  0  0  0  0  0  0
  -29.1820  -20.7220   20.7580 C   0  0  0  0  0  2  0  0  0  0  0  0
  -30.2840  -19.7780   21.2770 C   0  0  0  0  0  2  0  0  0  0  0  0
  -30.0640  -18.2720   21.0230 C   0  0  0  0  0  2  0  0  0  0  0  0
  -31.3710  -17.4790   21.2410 C   0  0  0  0  0  2  0  0  0  0  0  0
  -31.2260  -16.1090   21.9340 C   0  0  0  0  0  2  0  0  0  0  0  0
  -30.7900  -14.3600   20.2000 C   0  0  0  0  0  0  0  0  0  0  0  0
  -30.3380  -12.2880   18.9310 C   0  0  0  0  0  2  0  0  0  0  0  0
  -29.3430  -12.5170   17.7800 C   0  0  0  0  0  2  0  0  0  0  0  0
  -27.8900  -12.3970   18.2800 C   0  0  0  0  0  2  0  0  0  0  0  0
  -27.6280  -13.2380   19.5570 C   0  0  0  0  0  3  0  0  0  0  0  0
  -28.7200  -12.9750   20.6150 C   0  0  0  0  0  2  0  0  0  0  0  0
  -30.0330  -13.2500   20.0010 N   0  0  0  0  0  0  0  0  0  0  0  0
  -31.8000  -14.6210   19.5400 O   0  0  0  0  0  0  0  0  0  0  0  0
  -30.4030  -15.1280   21.2290 N   0  0  0  0  0  0  0  0  0  0  0  0
  -29.5530  -14.8390   21.6890 H   0  0  0  0  0  0  0  0  0  0  0  0
  -25.2750  -13.8960   20.3720 C   0  0  0  0  0  0  0  0  0  0  0  0
  -24.2080  -13.1450   20.7870 C   0  0  0  0  0  0  0  0  0  0  0  0
  -24.6380  -11.7830   20.7310 C   0  0  0  0  0  0  0  0  0  0  0  0
  -26.2900  -12.9930   20.0930 N   0  0  0  0  0  0  0  0  0  0  0  0
  -25.9110  -11.7180   20.3640 N   0  0  0  0  0  0  0  0  0  0  0  0
  -23.8950  -10.5360   20.9490 C   0  0  0  0  0  0  0  0  0  0  0  0
  -24.3430   -9.5610   21.8670 C   0  0  0  0  0  3  0  0  0  0  0  0
  -23.6010   -8.3780   22.0720 C   0  0  0  0  0  3  0  0  0  0  0  0
  -22.3970   -8.1630   21.3620 C   0  0  0  0  0  0  0  0  0  0  0  0
  -21.9680   -9.1260   20.4310 C   0  0  0  0  0  3  0  0  0  0  0  0
  -22.7100  -10.3010   20.2240 C   0  0  0  0  0  3  0  0  0  0  0  0
  -21.6240   -7.0320   21.4770 O   0  0  0  0  0  0  0  0  0  0  0  0
  -21.5990   -6.2930   22.6330 C   0  0  0  0  0  0  0  0  0  0  0  0
  -21.2400   -6.8620   23.8740 C   0  0  0  0  0  3  0  0  0  0  0  0
  -21.1600   -6.0510   25.0240 C   0  0  0  0  0  3  0  0  0  0  0  0
  -21.4270   -4.6720   24.9330 C   0  0  0  0  0  0  0  0  0  0  0  0
  -21.7800   -4.1030   23.6970 C   0  0  0  0  0  3  0  0  0  0  0  0
  -21.8620   -4.9110   22.5500 C   0  0  0  0  0  0  0  0  0  0  0  0
  -22.1820   -4.3530   21.3570 F   0  0  0  0  0  0  0  0  0  0  0  0
  -21.3420   -3.8920   26.0350 F   0  0  0  0  0  0  0  0  0  0  0  0
  -22.8340  -13.6500   21.1220 C   0  0  0  0  0  0  0  0  0  0  0  0
  -22.1300  -12.9660   22.0170 N   0  0  0  0  0  0  0  0  0  0  0  0
  -22.3950  -14.6870   20.6260 O   0  0  0  0  0  0  0  0  0  0  0  0
  -22.4970  -12.1270   22.4410 H   0  0  0  0  0  0  0  0  0  0  0  0
  -21.2090  -13.2860   22.2820 H   0  0  0  0  0  0  0  0  0  0  0  0
  -25.4620  -15.2640   20.1920 N   0  0  0  0  0  0  0  0  0  0  0  0
  -24.7180  -15.9370   20.3440 H   0  0  0  0  0  0  0  0  0  0  0  0
  -26.3130  -15.6850   19.8390 H   0  0  0  0  0  0  0  0  0  0  0  0
  1  3  2  0
  2  1  1  0
  2 47  1  0
  4  2  1  0
  5  6  1  0
  5  1  1  0
  6  8  1  0
  7 18  2  0
  8 13  1  0
  9 17  1  0
  9 19  1  0
 10 16  1  0
 10 12  1  0
 11 17  1  0
 12 11  1  0
 13 12  2  0
 14 15  1  0
 14  8  2  0
 15 10  2  0
 16  9  1  0
 17  7  1  0
 19 21  2  0
 20 19  1  0
 22 20  1  0
 23 32  2  0
 23 28  1  0
 24 20  1  0
 24 28  1  0
 25 24  1  0
 26 27  1  0
 26 25  1  0
 27 23  1  0
 28 29  2  0
 29 30  1  0
 31 30  2  0
 32 31  1  0
 33  7  1  0
 33 34  1  0
 33 43  1  0
 34 37  1  0
 35 39  1  0
 35 34  1  0
 36 35  2  0
 39 38  1  0
 41 39  1  0
 41 42  1  0
 41 40  1  0
 43 46  1  1
 43 44  1  0
 45 43  1  0
 48 49  1  0
 48 47  1  0
 50 51  1  0
 50 49  1  0
 51 52  1  0
 53 61  1  0
 54 59  1  0
 55 56  1  0
 55 54  1  0
 57 56  1  0
 57 66  1  0
 57 58  1  0
 59 53  1  0
 59 58  1  0
 60 53  2  0
 61 62  1  0
 61 52  1  0
 63 64  2  0
 64 83  1  0
 65 64  1  0
 65 68  1  0
 66 67  1  0
 66 63  1  0
 67 65  2  0
 68 69  1  0
 69 70  2  0
 71 74  1  0
 71 70  1  0
 72 71  2  0
 73 72  1  0
 73 68  2  0
 74 75  1  0
 75 76  1  0
 76 77  2  0
 78 77  1  0
 78 82  1  0
 79 78  2  0
 80 75  2  0
 80 79  1  0
 81 80  1  0
 83 84  1  0
 84 87  1  0
 84 86  1  0
 85 83  2  0
 88 89  1  0
 88 63  1  0
 90 88  1  0
M  ISO  4   5 101   6 101  53 100  61 100
M  END
>  <TORSDO>  (4) 
F 23

>  <SCORE>  (4) 
-12.625

>  <name>  (4) 
3

>  <ligand_id>  (4) 
3

>  <original_smiles>  (4) 
[H]c1c([H])c([H])c2c(c1[H])C([H])([H])C([H])([H])C([H])([H])C2([H])N([H])C(=O)C1([H])N(C(=O)C([H])(N([H])C(=O)C([H])(N([H])C([H])([H])[H])C([H])([H])[H])C(C([H])([H])[H])(C([H])([H])[H])C([H])([H])[H])C([H])([H])c2c([H])c(OC([H])([H])C(=O)N([H])C([H])([H])C([H])([H])C([H])([H])C([H])([H])C([H])([H])C([H])([H])N([H])C(=O)N3C([H])([H])C([H])([H])C([H])([H])C([H])(n4nc(-c5c([H])c([H])c(Oc6c([H])c([H])c(F)c([H])c6F)c([H])c5[H])c(C(=O)N([H])[H])c4N([H])[H])C3([H])[H])c([H])c([H])c2C1([H])[H]

>  <smiles>  (4) 
[H]c1c([H])c([H])c2c(c1[H])C([H])([H])C([H])([H])C([H])([H])C2([H])N([H])C(=O)C1([H])N(C(=O)C([H])(N([H])C(=O)C([H])(N([H])C([H])([H])[H])C([H])([H])[H])C(C([H])([H])[H])(C([H])([H])[H])C([H])([H])[H])C([H])([H])c2c([H])c(OC([H])([H])C(=O)N([H])C([H])([H])C([H])([H])C([H])([H])C([H])([H])C([H])([H])C([H])([H])N([H])C(=O)N3C([H])([H])C([H])([H])C([H])([H])C([H])(n4nc(-c5c([H])c([H])c(Oc6c([H])c([H])c(F)c([H])c6F)c([H])c5[H])c(C(=O)N([H])[H])c4N([H])[H])C3([H])[H])c([H])c([H])c2C1([H])[H]

$$$$
4:0:0
     RDKit          3D

 90 97  0  0  1  0  0  0  0  0999 V2000
  -29.1760  -22.8060   20.2460 C   0  0  0  0  0  3  0  0  0  0  0  0
  -29.5170  -19.8430   20.4080 C   0  0  0  0  0  0  0  0  0  0  0  0
  -29.0590  -21.1590   19.8700 N   0  0  0  0  0  0  0  0  0  0  0  0
  -29.8250  -19.8560   21.5990 O   0  0  0  0  0  0  0  0  0  0  0  0
  -28.7280  -21.0500   18.9220 H   0  0  0  0  0  0  0  0  0  0  0  0
  -29.7980  -18.2730   19.6480 C   0  0  0  0  0  2  0  0  0  0  0  0
  -30.4420  -15.3590   19.8660 C   0  0  0  0  0  0  0  0  0  0  0  0
  -30.3360  -12.9240   18.9520 C   0  0  0  0  0  2  0  0  0  0  0  0
  -29.3290  -12.7460   17.7880 C   0  0  0  0  0  2  0  0  0  0  0  0
  -27.9080  -12.4730   18.3140 C   0  0  0  0  0  2  0  0  0  0  0  0
  -27.5490  -13.4040   19.5010 C   0  0  0  0  0  3  0  0  0  0  0  0
  -28.6750  -13.5310   20.5510 C   0  0  0  0  0  2  0  0  0  0  0  0
  -29.8630  -14.0520   19.8470 N   0  0  0  0  0  0  0  0  0  0  0  0
  -31.6280  -15.3480   19.5030 O   0  0  0  0  0  0  0  0  0  0  0  0
  -29.7150  -16.6440   20.0820 N   0  0  0  0  0  0  0  0  0  0  0  0
  -28.8010  -16.4500   20.4630 H   0  0  0  0  0  0  0  0  0  0  0  0
  -25.2450  -13.9450   20.4420 C   0  0  0  0  0  0  0  0  0  0  0  0
  -24.2060  -13.1650   20.8660 C   0  0  0  0  0  0  0  0  0  0  0  0
  -24.6600  -11.8130   20.7660 C   0  0  0  0  0  0  0  0  0  0  0  0
  -26.2600  -13.0740   20.0980 N   0  0  0  0  0  0  0  0  0  0  0  0
  -25.9270  -11.7820   20.3610 N   0  0  0  0  0  0  0  0  0  0  0  0
  -23.9370  -10.5510   20.9720 C   0  0  0  0  0  0  0  0  0  0  0  0
  -24.4040   -9.5720   21.8790 C   0  0  0  0  0  3  0  0  0  0  0  0
  -23.6790   -8.3760   22.0800 C   0  0  0  0  0  3  0  0  0  0  0  0
  -22.4710   -8.1510   21.3740 C   0  0  0  0  0  0  0  0  0  0  0  0
  -22.0230   -9.1180   20.4590 C   0  0  0  0  0  3  0  0  0  0  0  0
  -22.7490  -10.3030   20.2540 C   0  0  0  0  0  3  0  0  0  0  0  0
  -21.7150   -7.0070   21.4850 O   0  0  0  0  0  0  0  0  0  0  0  0
  -21.6960   -6.2660   22.6390 C   0  0  0  0  0  0  0  0  0  0  0  0
  -21.2810   -6.8150   23.8720 C   0  0  0  0  0  3  0  0  0  0  0  0
  -21.2090   -5.9990   25.0160 C   0  0  0  0  0  3  0  0  0  0  0  0
  -21.5420   -4.6330   24.9310 C   0  0  0  0  0  0  0  0  0  0  0  0
  -21.9560   -4.0850   23.7060 C   0  0  0  0  0  3  0  0  0  0  0  0
  -22.0280   -4.8980   22.5620 C   0  0  0  0  0  0  0  0  0  0  0  0
  -22.4060   -4.3590   21.3760 F   0  0  0  0  0  0  0  0  0  0  0  0
  -21.4680   -3.8470   26.0320 F   0  0  0  0  0  0  0  0  0  0  0  0
  -22.8330  -13.6430   21.2410 C   0  0  0  0  0  0  0  0  0  0  0  0
  -22.1590  -12.9340   22.1380 N   0  0  0  0  0  0  0  0  0  0  0  0
  -22.3690  -14.6830   20.7730 O   0  0  0  0  0  0  0  0  0  0  0  0
  -22.5530  -12.0990   22.5470 H   0  0  0  0  0  0  0  0  0  0  0  0
  -21.2400  -13.2320   22.4270 H   0  0  0  0  0  0  0  0  0  0  0  0
  -25.4010  -15.3180   20.2900 N   0  0  0  0  0  0  0  0  0  0  0  0
  -24.6420  -15.9640   20.4780 H   0  0  0  0  0  0  0  0  0  0  0  0
  -26.2080  -15.7650   19.8770 H   0  0  0  0  0  0  0  0  0  0  0  0
  -30.4240  -23.3180   19.4630 C   0  0  0  0  0  2  0  0  0  0  0  0
  -32.4650  -22.3480   20.7170 C   0  0  0  0  0  1  0  0  0  0  0  0
  -32.6630  -22.9620   18.2930 C   0  0  0  0  0  1  0  0  0  0  0  0
  -31.7060  -22.4380   19.3830 C   0  0  0  0  0  3  0  0  0  0  0  0
  -28.0420  -24.2230   20.0790 C   0  0  0  0  0  2  0  0  0  0  0  0
  -28.2020  -25.8650   20.2820 O   0  0  0  0  0  0  0  0  0  0  0  0
  -24.6250  -31.8580   23.2060 C   0  0  0  0  0  0  0  0  0  0  0  0
  -27.1710  -26.9520   20.2120 C   0  0  0  0  0  0  0  0  0  0  0  0
  -23.4210  -30.4550   21.5790 C   0  0  0  0  0  3  0  0  0  0  0  0
  -24.8640  -28.8330   20.1660 C   0  0  0  0  0  0  0  0  0  0  0  0
  -25.9860  -30.6620   21.4190 C   0  0  0  0  0  2  0  0  0  0  0  0
  -26.0550  -29.2440   20.7780 C   0  0  0  0  0  0  0  0  0  0  0  0
  -27.2000  -28.3250   20.7740 C   0  0  0  0  0  3  0  0  0  0  0  0
  -25.9500  -26.6940   19.5490 C   0  0  0  0  0  3  0  0  0  0  0  0
  -24.8390  -27.5790   19.5310 C   0  0  0  0  0  3  0  0  0  0  0  0
  -23.6450  -29.7540   20.2090 C   0  0  0  0  0  2  0  0  0  0  0  0
  -24.6990  -31.0200   22.1210 N   0  0  0  0  0  0  0  0  0  0  0  0
  -23.5400  -32.1500   23.7330 O   0  0  0  0  0  0  0  0  0  0  0  0
  -22.7270  -29.4720   22.5570 C   0  0  0  0  0  0  0  0  0  0  0  0
  -21.3980  -29.2910   22.4260 N   0  0  0  0  0  0  0  0  0  0  0  0
  -23.3920  -28.8660   23.4010 O   0  0  0  0  0  0  0  0  0  0  0  0
  -20.9160  -29.8300   21.7210 H   0  0  0  0  0  0  0  0  0  0  0  0
  -18.0300  -28.0300   22.8990 C   0  0  0  0  0  0  0  0  0  0  0  0
  -20.5790  -28.3570   23.2040 C   0  0  0  0  0  3  0  0  0  0  0  0
  -20.7210  -26.9130   22.6690 C   0  0  0  0  0  2  0  0  0  0  0  0
  -19.6460  -26.5430   21.6410 C   0  0  0  0  0  2  0  0  0  0  0  0
  -18.2500  -26.6710   22.2570 C   0  0  0  0  0  2  0  0  0  0  0  0
  -19.1230  -28.8270   23.3320 C   0  0  0  0  0  0  0  0  0  0  0  0
  -18.8630  -30.0950   23.8950 C   0  0  0  0  0  3  0  0  0  0  0  0
  -17.5430  -30.5680   24.0270 C   0  0  0  0  0  3  0  0  0  0  0  0
  -16.4650  -29.7680   23.6120 C   0  0  0  0  0  3  0  0  0  0  0  0
  -16.7090  -28.5000   23.0550 C   0  0  0  0  0  3  0  0  0  0  0  0
  -25.9010  -32.5020   23.8310 C   0  0  0  0  0  3  0  0  0  0  0  0
  -25.5900  -33.9080   24.1520 N   0  0  0  0  0  0  0  0  0  0  0  0
  -25.9120  -34.9590   23.3880 C   0  0  0  0  0  0  0  0  0  0  0  0
  -26.5620  -34.8500   22.3460 O   0  0  0  0  0  0  0  0  0  0  0  0
  -25.0080  -34.0660   24.9620 H   0  0  0  0  0  0  0  0  0  0  0  0
  -24.1760  -36.7600   23.0810 C   0  0  0  0  0  1  0  0  0  0  0  0
  -25.4420  -36.3550   23.8530 C   0  0  0  0  0  3  0  0  0  0  0  0
  -27.5980  -37.2560   24.6150 C   0  0  0  0  0  1  0  0  0  0  0  0
  -26.4690  -37.4080   23.7000 N   0  0  0  0  0  0  0  0  0  0  0  0
  -26.0650  -38.3290   23.8430 H   0  0  0  0  0  0  0  0  0  0  0  0
  -26.4010  -31.7500   25.1250 C   0  0  1  0  0  0  0  0  0  0  0  0
  -25.2960  -31.5400   26.1890 C   0  0  0  0  0  1  0  0  0  0  0  0
  -26.9760  -30.3610   24.7670 C   0  0  0  0  0  1  0  0  0  0  0  0
  -27.5530  -32.5460   25.7840 C   0  0  0  0  0  1  0  0  0  0  0  0
  1 45  1  0
  2  4  2  0
  3  1  1  0
  3  2  1  0
  5  3  1  0
  6 15  1  0
  6  2  1  0
  7 15  1  0
  8 13  1  0
  9 10  1  0
  9  8  1  0
 11 10  1  0
 11 20  1  0
 11 12  1  0
 13  7  1  0
 13 12  1  0
 14  7  2  0
 15 16  1  0
 17 18  2  0
 18 37  1  0
 19 18  1  0
 19 22  1  0
 20 21  1  0
 20 17  1  0
 21 19  2  0
 22 23  1  0
 23 24  2  0
 25 28  1  0
 25 24  1  0
 26 25  2  0
 27 26  1  0
 27 22  2  0
 28 29  1  0
 29 30  1  0
 30 31  2  0
 32 31  1  0
 32 36  1  0
 33 32  2  0
 34 29  2  0
 34 33  1  0
 35 34  1  0
 37 38  1  0
 38 41  1  0
 38 40  1  0
 39 37  2  0
 42 17  1  0
 42 43  1  0
 44 42  1  0
 47 48  1  0
 48 45  1  0
 48 46  1  0
 49  1  1  0
 49 50  1  0
 51 62  2  0
 52 50  1  0
 52 57  1  0
 53 61  1  0
 53 63  1  0
 54 60  1  0
 54 56  1  0
 55 61  1  0
 56 55  1  0
 57 56  2  0
 58 52  2  0
 59 58  1  0
 59 54  2  0
 60 53  1  0
 61 51  1  0
 63 65  2  0
 64 63  1  0
 66 64  1  0
 67 76  2  0
 67 72  1  0
 68 64  1  0
 68 72  1  0
 69 68  1  0
 70 71  1  0
 70 69  1  0
 71 67  1  0
 72 73  2  0
 73 74  1  0
 75 74  2  0
 76 75  1  0
 77 51  1  0
 77 78  1  0
 77 87  1  0
 78 81  1  0
 79 83  1  0
 79 78  1  0
 80 79  2  0
 83 82  1  0
 85 86  1  0
 85 83  1  0
 85 84  1  0
 87 90  1  1
 87 88  1  0
 89 87  1  0
M  ISO  4   7 100  15 100  49 101  50 101
M  END
>  <TORSDO>  (5) 
F 21

>  <SCORE>  (5) 
-15.380

>  <name>  (5) 
4

>  <ligand_id>  (5) 
4

>  <original_smiles>  (5) 
[H]c1c([H])c([H])c2c(c1[H])C([H])([H])C([H])([H])C([H])([H])C2([H])N([H])C(=O)C1([H])N(C(=O)C([H])(N([H])C(=O)C([H])(N([H])C([H])([H])[H])C([H])([H])[H])C(C([H])([H])[H])(C([H])([H])[H])C([H])([H])[H])C([H])([H])c2c([H])c(OC([H])([H])C([H])(N([H])C(=O)C([H])([H])N([H])C(=O)N3C([H])([H])C([H])([H])C([H])([H])C([H])(n4nc(-c5c([H])c([H])c(Oc6c([H])c([H])c(F)c([H])c6F)c([H])c5[H])c(C(=O)N([H])[H])c4N([H])[H])C3([H])[H])C([H])([H])C([H])(C([H])([H])[H])C([H])([H])[H])c([H])c([H])c2C1([H])[H]

>  <smiles>  (5) 
[H]c1c([H])c([H])c2c(c1[H])C([H])([H])C([H])([H])C([H])([H])C2([H])N([H])C(=O)C1([H])N(C(=O)C([H])(N([H])C(=O)C([H])(N([H])C([H])([H])[H])C([H])([H])[H])C(C([H])([H])[H])(C([H])([H])[H])C([H])([H])[H])C([H])([H])c2c([H])c(OC([H])([H])C([H])(N([H])C(=O)C([H])([H])N([H])C(=O)N3C([H])([H])C([H])([H])C([H])([H])C([H])(n4nc(-c5c([H])c([H])c(Oc6c([H])c([H])c(F)c([H])c6F)c([H])c5[H])c(C(=O)N([H])[H])c4N([H])[H])C3([H])[H])C([H])([H])C([H])(C([H])([H])[H])C([H])([H])[H])c([H])c([H])c2C1([H])[H]

$$$$
5:0:0
     RDKit          3D

 92 99  0  0  1  0  0  0  0  0999 V2000
  -29.4300  -21.9830   21.0420 C   0  0  0  0  0  0  0  0  0  0  0  0
  -30.7450  -22.9810   19.1800 C   0  0  0  0  0  1  0  0  0  0  0  0
  -29.7910  -23.0660   20.2880 N   0  0  0  0  0  0  0  0  0  0  0  0
  -28.4000  -22.0210   21.7220 O   0  0  0  0  0  0  0  0  0  0  0  0
  -31.8860  -21.0160   21.2840 C   0  0  0  0  0  1  0  0  0  0  0  0
  -30.3720  -20.7310   21.2120 C   0  0  0  0  0  0  0  0  0  0  0  0
  -30.2720  -18.2020   20.9440 C   0  0  0  0  0  0  0  0  0  0  0  0
  -30.0880  -19.4670   20.4810 N   0  0  0  0  0  4  0  0  0  0  0  0
  -30.5850  -17.9670   22.1130 O   0  0  0  0  0  0  0  0  0  0  0  0
  -29.8040  -19.5690   19.5150 H   0  0  0  0  0  0  0  0  0  0  0  0
  -30.1330  -17.0200   19.9520 C   0  0  0  0  0  2  0  0  0  0  0  0
  -30.6980  -14.5710   20.2850 C   0  0  0  0  0  0  0  0  0  0  0  0
  -30.3840  -12.3760   19.2100 C   0  0  0  0  0  2  0  0  0  0  0  0
  -29.4330  -12.5830   18.0100 C   0  0  0  0  0  2  0  0  0  0  0  0
  -27.9650  -12.4510   18.4550 C   0  0  0  0  0  2  0  0  0  0  0  0
  -27.6430  -13.2920   19.7200 C   0  0  0  0  0  3  0  0  0  0  0  0
  -28.7140  -13.0950   20.8190 C   0  0  0  0  0  2  0  0  0  0  0  0
  -30.0320  -13.3810   20.2280 N   0  0  0  0  0  0  0  0  0  0  0  0
  -31.8530  -14.7000   19.8740 O   0  0  0  0  0  0  0  0  0  0  0  0
  -29.9330  -15.6610   20.5300 N   0  0  0  0  0  0  0  0  0  0  0  0
  -29.0220  -15.4840   20.9220 H   0  0  0  0  0  0  0  0  0  0  0  0
  -25.2550  -13.9090   20.4520 C   0  0  0  0  0  0  0  0  0  0  0  0
  -24.1860  -13.1440   20.8290 C   0  0  0  0  0  0  0  0  0  0  0  0
  -24.6390  -11.7890   20.7980 C   0  0  0  0  0  0  0  0  0  0  0  0
  -26.2940  -13.0210   20.2140 N   0  0  0  0  0  0  0  0  0  0  0  0
  -25.9270  -11.7420   20.4820 N   0  0  0  0  0  0  0  0  0  0  0  0
  -23.9060  -10.5330   20.9970 C   0  0  0  0  0  0  0  0  0  0  0  0
  -24.3430   -9.5580   21.9220 C   0  0  0  0  0  3  0  0  0  0  0  0
  -23.6100   -8.3660   22.1070 C   0  0  0  0  0  3  0  0  0  0  0  0
  -22.4230   -8.1410   21.3680 C   0  0  0  0  0  0  0  0  0  0  0  0
  -22.0070   -9.1030   20.4320 C   0  0  0  0  0  3  0  0  0  0  0  0
  -22.7410  -10.2860   20.2450 C   0  0  0  0  0  3  0  0  0  0  0  0
  -21.6620   -7.0020   21.4640 O   0  0  0  0  0  0  0  0  0  0  0  0
  -21.6280   -6.2530   22.6130 C   0  0  0  0  0  0  0  0  0  0  0  0
  -21.2320   -6.8050   23.8500 C   0  0  0  0  0  3  0  0  0  0  0  0
  -21.1450   -5.9830   24.9920 C   0  0  0  0  0  3  0  0  0  0  0  0
  -21.4420   -4.6110   24.8970 C   0  0  0  0  0  0  0  0  0  0  0  0
  -21.8300   -4.0570   23.6640 C   0  0  0  0  0  3  0  0  0  0  0  0
  -21.9210   -4.8760   22.5240 C   0  0  0  0  0  0  0  0  0  0  0  0
  -22.2740   -4.3340   21.3350 F   0  0  0  0  0  0  0  0  0  0  0  0
  -21.3520   -3.8180   25.9910 F   0  0  0  0  0  0  0  0  0  0  0  0
  -22.7940  -13.6320   21.1110 C   0  0  0  0  0  0  0  0  0  0  0  0
  -22.0660  -12.9430   21.9840 N   0  0  0  0  0  0  0  0  0  0  0  0
  -22.3600  -14.6590   20.5900 O   0  0  0  0  0  0  0  0  0  0  0  0
  -22.4320  -12.1130   22.4250 H   0  0  0  0  0  0  0  0  0  0  0  0
  -21.1340  -13.2530   22.2160 H   0  0  0  0  0  0  0  0  0  0  0  0
  -25.4270  -15.2780   20.2690 N   0  0  0  0  0  0  0  0  0  0  0  0
  -24.6590  -15.9300   20.3810 H   0  0  0  0  0  0  0  0  0  0  0  0
  -26.2670  -15.7130   19.9120 H   0  0  0  0  0  0  0  0  0  0  0  0
  -29.4760  -24.4730   20.6870 C   0  0  0  0  0  2  0  0  0  0  0  0
  -28.3010  -25.2010   19.9710 C   0  0  0  0  0  2  0  0  0  0  0  0
  -28.3580  -26.6340   20.2240 O   0  0  0  0  0  0  0  0  0  0  0  0
  -24.5720  -31.8810   23.2600 C   0  0  0  0  0  0  0  0  0  0  0  0
  -27.1920  -27.3900   20.1840 C   0  0  0  0  0  0  0  0  0  0  0  0
  -23.3610  -30.4890   21.6140 C   0  0  0  0  0  3  0  0  0  0  0  0
  -24.8090  -28.9420   20.1880 C   0  0  0  0  0  0  0  0  0  0  0  0
  -25.8930  -30.8240   21.4220 C   0  0  0  0  0  2  0  0  0  0  0  0
  -25.9710  -29.4500   20.7810 C   0  0  0  0  0  0  0  0  0  0  0  0
  -27.1640  -28.6820   20.7730 C   0  0  0  0  0  3  0  0  0  0  0  0
  -26.0100  -26.9140   19.5730 C   0  0  0  0  0  3  0  0  0  0  0  0
  -24.8260  -27.6760   19.5800 C   0  0  0  0  0  3  0  0  0  0  0  0
  -23.5690  -29.8100   20.2330 C   0  0  0  0  0  2  0  0  0  0  0  0
  -24.6280  -31.0820   22.1560 N   0  0  0  0  0  0  0  0  0  0  0  0
  -23.4910  -32.1570   23.7980 O   0  0  0  0  0  0  0  0  0  0  0  0
  -22.7010  -29.4700   22.5720 C   0  0  0  0  0  0  0  0  0  0  0  0
  -21.3780  -29.2860   22.4360 N   0  0  0  0  0  0  0  0  0  0  0  0
  -23.3780  -28.8490   23.3940 O   0  0  0  0  0  0  0  0  0  0  0  0
  -20.8900  -29.8400   21.7460 H   0  0  0  0  0  0  0  0  0  0  0  0
  -18.0030  -28.0750   22.8970 C   0  0  0  0  0  0  0  0  0  0  0  0
  -20.5560  -28.3480   23.2020 C   0  0  0  0  0  3  0  0  0  0  0  0
  -20.6740  -26.9130   22.6380 C   0  0  0  0  0  2  0  0  0  0  0  0
  -19.5890  -26.5790   21.6120 C   0  0  0  0  0  2  0  0  0  0  0  0
  -18.1970  -26.7210   22.2350 C   0  0  0  0  0  2  0  0  0  0  0  0
  -19.1110  -28.8460   23.3370 C   0  0  0  0  0  0  0  0  0  0  0  0
  -18.8780  -30.1120   23.9150 C   0  0  0  0  0  3  0  0  0  0  0  0
  -17.5680  -30.6080   24.0580 C   0  0  0  0  0  3  0  0  0  0  0  0
  -16.4740  -29.8340   23.6330 C   0  0  0  0  0  3  0  0  0  0  0  0
  -16.6930  -28.5680   23.0600 C   0  0  0  0  0  3  0  0  0  0  0  0
  -25.8590  -32.5060   23.8820 C   0  0  0  0  0  3  0  0  0  0  0  0
  -25.5590  -33.9070   24.2080 N   0  0  0  0  0  0  0  0  0  0  0  0
  -25.8980  -34.9540   23.4440 C   0  0  0  0  0  0  0  0  0  0  0  0
  -26.5650  -34.8420   22.4120 O   0  0  0  0  0  0  0  0  0  0  0  0
  -24.9690  -34.0710   25.0110 H   0  0  0  0  0  0  0  0  0  0  0  0
  -24.1790  -36.7540   23.0840 C   0  0  0  0  0  1  0  0  0  0  0  0
  -25.4190  -36.3470   23.8960 C   0  0  0  0  0  3  0  0  0  0  0  0
  -27.5600  -37.2240   24.7170 C   0  0  0  0  0  1  0  0  0  0  0  0
  -26.4570  -37.3940   23.7750 N   0  0  0  0  0  0  0  0  0  0  0  0
  -26.0550  -38.3170   23.9190 H   0  0  0  0  0  0  0  0  0  0  0  0
  -26.3690  -31.7340   25.1610 C   0  0  1  0  0  0  0  0  0  0  0  0
  -25.2740  -31.5060   26.2280 C   0  0  0  0  0  1  0  0  0  0  0  0
  -26.9430  -30.3510   24.7710 C   0  0  0  0  0  1  0  0  0  0  0  0
  -27.5250  -32.5220   25.8240 C   0  0  0  0  0  1  0  0  0  0  0  0
  1  6  1  0
  1  4  2  0
  2  3  1  0
  3 50  1  0
  3  1  1  0
  6  5  1  0
  7  9  2  0
  8  7  1  0
  8  6  2  0
 10  8  1  0
 11 20  1  0
 11  7  1  0
 12 20  1  0
 13 18  1  0
 14 15  1  0
 14 13  1  0
 16 15  1  0
 16 25  1  0
 16 17  1  0
 18 12  1  0
 18 17  1  0
 19 12  2  0
 20 21  1  0
 22 23  2  0
 23 42  1  0
 24 23  1  0
 24 27  1  0
 25 22  1  0
 25 26  1  0
 26 24  2  0
 27 28  1  0
 28 29  2  0
 30 33  1  0
 30 29  1  0
 31 30  2  0
 32 31  1  0
 32 27  2  0
 33 34  1  0
 34 35  1  0
 35 36  2  0
 37 36  1  0
 37 41  1  0
 38 37  2  0
 39 34  2  0
 39 38  1  0
 40 39  1  0
 42 43  1  0
 43 46  1  0
 43 45  1  0
 44 42  2  0
 47 48  1  0
 47 22  1  0
 49 47  1  0
 51 52  1  0
 51 50  1  0
 53 64  2  0
 54 52  1  0
 54 59  1  0
 55 63  1  0
 55 65  1  0
 56 62  1  0
 56 58  1  0
 57 63  1  0
 58 57  1  0
 59 58  2  0
 60 61  1  0
 60 54  2  0
 61 56  2  0
 62 55  1  0
 63 53  1  0
 65 67  2  0
 66 65  1  0
 68 66  1  0
 69 78  2  0
 69 74  1  0
 70 66  1  0
 70 74  1  0
 71 70  1  0
 72 73  1  0
 72 71  1  0
 73 69  1  0
 74 75  2  0
 75 76  1  0
 77 76  2  0
 78 77  1  0
 79 53  1  0
 79 80  1  0
 79 89  1  0
 80 83  1  0
 81 85  1  0
 81 80  1  0
 82 81  2  0
 85 84  1  0
 87 85  1  0
 87 88  1  0
 87 86  1  0
 89 92  1  1
 89 90  1  0
 91 89  1  0
M  ISO  4  12 100  20 100  51 101  52 101
M  END
>  <TORSDO>  (6) 
F 21

>  <SCORE>  (6) 
-13.620

>  <name>  (6) 
5

>  <ligand_id>  (6) 
5

>  <original_smiles>  (6) 
[H]c1c([H])c([H])c2c(c1[H])C([H])([H])C([H])([H])C([H])([H])C2([H])N([H])C(=O)C1([H])N(C(=O)C([H])(N([H])C(=O)C([H])(N([H])C([H])([H])[H])C([H])([H])[H])C(C([H])([H])[H])(C([H])([H])[H])C([H])([H])[H])C([H])([H])c2c([H])c(OC([H])([H])C([H])([H])N(C(=O)C([H])(N([H])C(=O)C([H])([H])N([H])C(=O)N3C([H])([H])C([H])([H])C([H])([H])C([H])(n4nc(-c5c([H])c([H])c(Oc6c([H])c([H])c(F)c([H])c6F)c([H])c5[H])c(C(=O)N([H])[H])c4N([H])[H])C3([H])[H])C([H])([H])[H])C([H])([H])[H])c([H])c([H])c2C1([H])[H]

>  <smiles>  (6) 
[H]c1c([H])c([H])c2c(c1[H])C([H])([H])C([H])([H])C([H])([H])C2([H])N([H])C(=O)C1([H])N(C(=O)C([H])(N([H])C(=O)C([H])(N([H])C([H])([H])[H])C([H])([H])[H])C(C([H])([H])[H])(C([H])([H])[H])C([H])([H])[H])C([H])([H])c2c([H])c(OC([H])([H])C([H])([H])N(C(=O)C([H])(N([H])C(=O)C([H])([H])N([H])C(=O)N3C([H])([H])C([H])([H])C([H])([H])C([H])(n4nc(-c5c([H])c([H])c(Oc6c([H])c([H])c(F)c([H])c6F)c([H])c5[H])c(C(=O)N([H])[H])c4N([H])[H])C3([H])[H])C([H])([H])[H])C([H])([H])[H])c([H])c([H])c2C1([H])[H]

$$$$
6:0:0
     RDKit          3D

 88 95  0  0  1  0  0  0  0  0999 V2000
  -28.9110  -21.2120   20.0080 C   0  0  0  0  0  0  0  0  0  0  0  0
  -28.9910  -22.4940   20.5120 N   0  0  0  0  0  0  0  0  0  0  0  0
  -28.3240  -21.0030   18.9460 O   0  0  0  0  0  0  0  0  0  0  0  0
  -29.4620  -22.5830   21.4030 H   0  0  0  0  0  0  0  0  0  0  0  0
  -29.6120  -19.9780   20.7310 C   0  0  0  0  0  2  0  0  0  0  0  0
  -29.2490  -18.4560   20.3270 C   0  0  0  0  0  3  0  0  0  0  0  0
  -30.2460  -17.2720   20.7760 C   0  0  0  0  0  3  0  0  0  0  0  0
  -30.5860  -14.7030   20.3810 C   0  0  0  0  0  0  0  0  0  0  0  0
  -30.3730  -12.4530   19.3310 C   0  0  0  0  0  2  0  0  0  0  0  0
  -29.4250  -12.5500   18.1160 C   0  0  0  0  0  2  0  0  0  0  0  0
  -27.9570  -12.3790   18.5550 C   0  0  0  0  0  2  0  0  0  0  0  0
  -27.5940  -13.2540   19.7850 C   0  0  0  0  0  3  0  0  0  0  0  0
  -28.6580  -13.1390   20.8970 C   0  0  0  0  0  2  0  0  0  0  0  0
  -29.9530  -13.4870   20.3000 N   0  0  0  0  0  0  0  0  0  0  0  0
  -31.7690  -14.8170   20.0500 O   0  0  0  0  0  0  0  0  0  0  0  0
  -29.8170  -15.8180   20.6470 N   0  0  0  0  0  0  0  0  0  0  0  0
  -28.8460  -15.6250   20.8430 H   0  0  0  0  0  0  0  0  0  0  0  0
  -25.2050  -13.8410   20.5180 C   0  0  0  0  0  0  0  0  0  0  0  0
  -24.1440  -13.0630   20.8930 C   0  0  0  0  0  0  0  0  0  0  0  0
  -24.6120  -11.7130   20.8640 C   0  0  0  0  0  0  0  0  0  0  0  0
  -26.2510  -12.9640   20.2800 N   0  0  0  0  0  0  0  0  0  0  0  0
  -25.9010  -11.6800   20.5510 N   0  0  0  0  0  0  0  0  0  0  0  0
  -23.8910  -10.4480   21.0570 C   0  0  0  0  0  0  0  0  0  0  0  0
  -24.3380   -9.4770   21.9800 C   0  0  0  0  0  3  0  0  0  0  0  0
  -23.6170   -8.2770   22.1610 C   0  0  0  0  0  3  0  0  0  0  0  0
  -22.4340   -8.0410   21.4210 C   0  0  0  0  0  0  0  0  0  0  0  0
  -22.0070   -9.0010   20.4870 C   0  0  0  0  0  3  0  0  0  0  0  0
  -22.7290  -10.1920   20.3030 C   0  0  0  0  0  3  0  0  0  0  0  0
  -21.6840   -6.8940   21.5130 O   0  0  0  0  0  0  0  0  0  0  0  0
  -21.6620   -6.1370   22.6570 C   0  0  0  0  0  0  0  0  0  0  0  0
  -21.2710   -6.6800   23.9010 C   0  0  0  0  0  3  0  0  0  0  0  0
  -21.1970   -5.8500   25.0390 C   0  0  0  0  0  3  0  0  0  0  0  0
  -21.5010   -4.4800   24.9330 C   0  0  0  0  0  0  0  0  0  0  0  0
  -21.8850   -3.9370   23.6940 C   0  0  0  0  0  3  0  0  0  0  0  0
  -21.9620   -4.7640   22.5580 C   0  0  0  0  0  0  0  0  0  0  0  0
  -22.3110   -4.2320   21.3620 F   0  0  0  0  0  0  0  0  0  0  0  0
  -21.4220   -3.6820   26.0220 F   0  0  0  0  0  0  0  0  0  0  0  0
  -22.7450  -13.5350   21.1670 C   0  0  0  0  0  0  0  0  0  0  0  0
  -22.0210  -12.8380   22.0360 N   0  0  0  0  0  0  0  0  0  0  0  0
  -22.3030  -14.5570   20.6440 O   0  0  0  0  0  0  0  0  0  0  0  0
  -22.3920  -12.0110   22.4800 H   0  0  0  0  0  0  0  0  0  0  0  0
  -21.0830  -13.1360   22.2610 H   0  0  0  0  0  0  0  0  0  0  0  0
  -25.3610  -15.2110   20.3360 N   0  0  0  0  0  0  0  0  0  0  0  0
  -24.5870  -15.8580   20.4410 H   0  0  0  0  0  0  0  0  0  0  0  0
  -26.1950  -15.6520   19.9690 H   0  0  0  0  0  0  0  0  0  0  0  0
  -28.6520  -23.8120   19.8260 C   0  0  0  0  0  2  0  0  0  0  0  0
  -28.2250  -25.0760   20.7210 C   0  0  0  0  0  2  0  0  0  0  0  0
  -28.3520  -26.4670   20.2010 O   0  0  0  0  0  0  0  0  0  0  0  0
  -24.6120  -31.8750   23.2380 C   0  0  0  0  0  0  0  0  0  0  0  0
  -27.2280  -27.3070   20.2010 C   0  0  0  0  0  0  0  0  0  0  0  0
  -23.4080  -30.4700   21.6010 C   0  0  0  0  0  3  0  0  0  0  0  0
  -24.8600  -28.9120   20.1820 C   0  0  0  0  0  0  0  0  0  0  0  0
  -25.9460  -30.7940   21.4120 C   0  0  0  0  0  2  0  0  0  0  0  0
  -26.0290  -29.4120   20.7710 C   0  0  0  0  0  0  0  0  0  0  0  0
  -27.2190  -28.6220   20.7640 C   0  0  0  0  0  3  0  0  0  0  0  0
  -26.0390  -26.8570   19.5930 C   0  0  0  0  0  3  0  0  0  0  0  0
  -24.8670  -27.6410   19.5820 C   0  0  0  0  0  3  0  0  0  0  0  0
  -23.6220  -29.7860   20.2250 C   0  0  0  0  0  2  0  0  0  0  0  0
  -24.6740  -31.0650   22.1400 N   0  0  0  0  0  0  0  0  0  0  0  0
  -23.5290  -32.1520   23.7730 O   0  0  0  0  0  0  0  0  0  0  0  0
  -22.7480  -29.4570   22.5660 C   0  0  0  0  0  0  0  0  0  0  0  0
  -21.4210  -29.2800   22.4420 N   0  0  0  0  0  0  0  0  0  0  0  0
  -23.4280  -28.8330   23.3840 O   0  0  0  0  0  0  0  0  0  0  0  0
  -20.9310  -29.8350   21.7560 H   0  0  0  0  0  0  0  0  0  0  0  0
  -18.0460  -28.0820   22.9480 C   0  0  0  0  0  0  0  0  0  0  0  0
  -20.6040  -28.3440   23.2160 C   0  0  0  0  0  3  0  0  0  0  0  0
  -20.7080  -26.9110   22.6450 C   0  0  0  0  0  2  0  0  0  0  0  0
  -19.6050  -26.5840   21.6320 C   0  0  0  0  0  2  0  0  0  0  0  0
  -18.2240  -26.7300   22.2760 C   0  0  0  0  0  2  0  0  0  0  0  0
  -19.1640  -28.8460   23.3750 C   0  0  0  0  0  0  0  0  0  0  0  0
  -18.9430  -30.1100   23.9640 C   0  0  0  0  0  3  0  0  0  0  0  0
  -17.6380  -30.6100   24.1280 C   0  0  0  0  0  3  0  0  0  0  0  0
  -16.5340  -29.8430   23.7170 C   0  0  0  0  0  3  0  0  0  0  0  0
  -16.7390  -28.5800   23.1320 C   0  0  0  0  0  3  0  0  0  0  0  0
  -25.8940  -32.5120   23.8580 C   0  0  0  0  0  3  0  0  0  0  0  0
  -25.5820  -33.9100   24.1870 N   0  0  0  0  0  0  0  0  0  0  0  0
  -25.9130  -34.9640   23.4290 C   0  0  0  0  0  0  0  0  0  0  0  0
  -26.5820  -34.8600   22.3970 O   0  0  0  0  0  0  0  0  0  0  0  0
  -24.9880  -34.0630   24.9890 H   0  0  0  0  0  0  0  0  0  0  0  0
  -24.1820  -36.7550   23.0770 C   0  0  0  0  0  1  0  0  0  0  0  0
  -25.4260  -36.3520   23.8870 C   0  0  0  0  0  3  0  0  0  0  0  0
  -27.5610  -37.2380   24.7130 C   0  0  0  0  0  1  0  0  0  0  0  0
  -26.4560  -37.4050   23.7710 N   0  0  0  0  0  0  0  0  0  0  0  0
  -26.0500  -38.3260   23.9190 H   0  0  0  0  0  0  0  0  0  0  0  0
  -26.4130  -31.7430   25.1360 C   0  0  1  0  0  0  0  0  0  0  0  0
  -25.3210  -31.5090   26.2060 C   0  0  0  0  0  1  0  0  0  0  0  0
  -26.9940  -30.3640   24.7470 C   0  0  0  0  0  1  0  0  0  0  0  0
  -27.5640  -32.5390   25.7940 C   0  0  0  0  0  1  0  0  0  0  0  0
  1  2  1  0
  1  5  1  0
  2  4  1  0
  3  1  2  0
  6  5  1  0
  6  7  2  0
  8 16  1  0
  9 14  1  0
 10 11  1  0
 10  9  1  0
 12 11  1  0
 12 21  1  0
 12 13  1  0
 14  8  1  0
 14 13  1  0
 15  8  2  0
 16  7  1  0
 16 17  1  0
 18 19  2  0
 19 38  1  0
 20 19  1  0
 20 23  1  0
 21 18  1  0
 21 22  1  0
 22 20  2  0
 23 24  1  0
 24 25  2  0
 26 29  1  0
 26 25  1  0
 27 26  2  0
 28 27  1  0
 28 23  2  0
 29 30  1  0
 30 31  1  0
 31 32  2  0
 33 32  1  0
 33 37  1  0
 34 33  2  0
 35 30  2  0
 35 34  1  0
 36 35  1  0
 38 39  1  0
 39 42  1  0
 39 41  1  0
 40 38  2  0
 43 44  1  0
 43 18  1  0
 45 43  1  0
 46  2  1  0
 46 47  1  0
 48 47  1  0
 49 60  2  0
 50 48  1  0
 50 55  1  0
 51 59  1  0
 51 61  1  0
 52 58  1  0
 52 54  1  0
 53 59  1  0
 54 53  1  0
 55 54  2  0
 56 50  2  0
 57 56  1  0
 57 52  2  0
 58 51  1  0
 59 49  1  0
 61 63  2  0
 62 61  1  0
 64 62  1  0
 65 74  2  0
 65 70  1  0
 66 62  1  0
 66 70  1  0
 67 66  1  0
 68 69  1  0
 68 67  1  0
 69 65  1  0
 70 71  2  0
 71 72  1  0
 73 72  2  0
 74 73  1  0
 75 49  1  0
 75 76  1  0
 75 85  1  0
 76 79  1  0
 77 81  1  0
 77 76  1  0
 78 77  2  0
 81 80  1  0
 83 81  1  0
 83 84  1  0
 83 82  1  0
 85 88  1  1
 85 86  1  0
 87 85  1  0
M  ISO  4   8 100  16 100  47 101  48 101
M  END
>  <TORSDO>  (7) 
F 21

>  <SCORE>  (7) 
-13.303

>  <name>  (7) 
6

>  <ligand_id>  (7) 
6

>  <original_smiles>  (7) 
[H]c1c([H])c([H])c2c(c1[H])C([H])([H])C([H])([H])C([H])([H])C2([H])N([H])C(=O)C1([H])N(C(=O)C([H])(N([H])C(=O)C([H])(N([H])C([H])([H])[H])C([H])([H])[H])C(C([H])([H])[H])(C([H])([H])[H])C([H])([H])[H])C([H])([H])c2c([H])c(OC([H])([H])C([H])([H])N([H])C(=O)C([H])([H])C([H])([H])C([H])([H])N([H])C(=O)N3C([H])([H])C([H])([H])C([H])([H])C([H])(n4nc(-c5c([H])c([H])c(Oc6c([H])c([H])c(F)c([H])c6F)c([H])c5[H])c(C(=O)N([H])[H])c4N([H])[H])C3([H])[H])c([H])c([H])c2C1([H])[H]

>  <smiles>  (7) 
[H]c1c([H])c([H])c2c(c1[H])C([H])([H])C([H])([H])C([H])([H])C2([H])N([H])C(=O)C1([H])N(C(=O)C([H])(N([H])C(=O)C([H])(N([H])C([H])([H])[H])C([H])([H])[H])C(C([H])([H])[H])(C([H])([H])[H])C([H])([H])[H])C([H])([H])c2c([H])c(OC([H])([H])C([H])([H])N([H])C(=O)C([H])([H])C([H])([H])C([H])([H])N([H])C(=O)N3C([H])([H])C([H])([H])C([H])([H])C([H])(n4nc(-c5c([H])c([H])c(Oc6c([H])c([H])c(F)c([H])c6F)c([H])c5[H])c(C(=O)N([H])[H])c4N([H])[H])C3([H])[H])c([H])c([H])c2C1([H])[H]

$$$$
7:0:0
     RDKit          3D

104111  0  0  1  0  0  0  0  0999 V2000
  -29.3380  -21.0240   21.6730 C   0  0  0  0  0  3  0  0  0  0  0  0
  -30.7730  -20.7880   22.2010 C   0  0  0  0  0  0  0  0  0  0  0  0
  -31.3730  -19.5980   22.0490 N   0  0  0  0  0  0  0  0  0  0  0  0
  -31.3650  -21.7000   22.7790 O   0  0  0  0  0  0  0  0  0  0  0  0
  -32.2900  -19.5150   22.4650 H   0  0  0  0  0  0  0  0  0  0  0  0
  -30.8640  -18.4070   21.3850 C   0  0  0  0  0  2  0  0  0  0  0  0
  -32.0260  -17.5000   20.9380 C   0  0  0  0  0  2  0  0  0  0  0  0
  -32.1220  -15.1600   20.0490 C   0  0  0  0  0  0  0  0  0  0  0  0
  -31.7370  -12.9240   19.0840 C   0  0  0  0  0  2  0  0  0  0  0  0
  -30.7480  -12.9940   17.9030 C   0  0  0  0  0  2  0  0  0  0  0  0
  -29.2890  -12.9490   18.3980 C   0  0  0  0  0  2  0  0  0  0  0  0
  -29.0190  -13.9450   19.5570 C   0  0  0  0  0  3  0  0  0  0  0  0
  -30.0960  -13.7910   20.6530 C   0  0  0  0  0  2  0  0  0  0  0  0
  -31.4110  -14.0050   20.0220 N   0  0  0  0  0  0  0  0  0  0  0  0
  -33.1690  -15.3310   19.4170 O   0  0  0  0  0  0  0  0  0  0  0  0
  -31.5610  -16.1260   20.7870 N   0  0  0  0  0  0  0  0  0  0  0  0
  -30.6890  -15.8840   21.2340 H   0  0  0  0  0  0  0  0  0  0  0  0
  -26.7520  -14.7470   20.4790 C   0  0  0  0  0  0  0  0  0  0  0  0
  -25.6220  -14.0680   20.8490 C   0  0  0  0  0  0  0  0  0  0  0  0
  -25.9190  -12.6820   20.6630 C   0  0  0  0  0  0  0  0  0  0  0  0
  -27.6700  -13.7810   20.0970 N   0  0  0  0  0  0  0  0  0  0  0  0
  -27.1750  -12.5290   20.2600 N   0  0  0  0  0  0  0  0  0  0  0  0
  -25.0660  -11.4970   20.7860 C   0  0  0  0  0  0  0  0  0  0  0  0
  -25.4190  -10.4180   21.6240 C   0  0  0  0  0  3  0  0  0  0  0  0
  -24.5720   -9.2960   21.7360 C   0  0  0  0  0  3  0  0  0  0  0  0
  -23.3570   -9.2470   21.0130 C   0  0  0  0  0  0  0  0  0  0  0  0
  -23.0230  -10.3160   20.1630 C   0  0  0  0  0  3  0  0  0  0  0  0
  -23.8700  -11.4300   20.0470 C   0  0  0  0  0  3  0  0  0  0  0  0
  -22.4840   -8.1860   21.0430 O   0  0  0  0  0  0  0  0  0  0  0  0
  -22.2290   -7.4970   22.2030 C   0  0  0  0  0  0  0  0  0  0  0  0
  -21.6750   -8.1290   23.3370 C   0  0  0  0  0  3  0  0  0  0  0  0
  -21.3580   -7.3700   24.4820 C   0  0  0  0  0  3  0  0  0  0  0  0
  -21.5880   -5.9810   24.4930 C   0  0  0  0  0  0  0  0  0  0  0  0
  -22.1360   -5.3500   23.3620 C   0  0  0  0  0  3  0  0  0  0  0  0
  -22.4510   -6.1050   22.2200 C   0  0  0  0  0  0  0  0  0  0  0  0
  -22.9570   -5.4880   21.1260 F   0  0  0  0  0  0  0  0  0  0  0  0
  -21.2810   -5.2510   25.5910 F   0  0  0  0  0  0  0  0  0  0  0  0
  -24.3120  -14.6710   21.2600 C   0  0  0  0  0  0  0  0  0  0  0  0
  -23.5810  -14.0020   22.1420 N   0  0  0  0  0  0  0  0  0  0  0  0
  -23.9540  -15.7710   20.8390 O   0  0  0  0  0  0  0  0  0  0  0  0
  -23.8850  -13.1090   22.5010 H   0  0  0  0  0  0  0  0  0  0  0  0
  -22.7060  -14.3900   22.4620 H   0  0  0  0  0  0  0  0  0  0  0  0
  -27.0700  -16.1000   20.4140 N   0  0  0  0  0  0  0  0  0  0  0  0
  -26.4030  -16.8250   20.6410 H   0  0  0  0  0  0  0  0  0  0  0  0
  -27.9460  -16.4600   20.0580 H   0  0  0  0  0  0  0  0  0  0  0  0
  -29.8300  -21.2550   19.2540 C   0  0  0  0  0  0  0  0  0  0  0  0
  -29.4010  -21.7680   20.4140 N   0  0  0  0  0  0  0  0  0  0  0  0
  -30.3180  -20.1270   19.1750 O   0  0  0  0  0  0  0  0  0  0  0  0
  -29.0870  -22.7260   20.4280 H   0  0  0  0  0  0  0  0  0  0  0  0
  -29.6680  -22.1120   17.9930 C   0  0  0  0  0  2  0  0  0  0  0  0
  -30.6720  -24.3470   17.5950 C   0  0  0  0  0  0  0  0  0  0  0  0
  -29.8120  -23.5480   18.2410 N   0  0  0  0  0  0  0  0  0  0  0  0
  -31.4730  -23.9160   16.7640 O   0  0  0  0  0  0  0  0  0  0  0  0
  -29.1780  -23.9750   18.9010 H   0  0  0  0  0  0  0  0  0  0  0  0
  -30.5960  -25.8540   17.8840 C   0  0  0  0  0  2  0  0  0  0  0  0
  -29.8090  -26.5100   16.8850 O   0  0  0  0  0  0  0  0  0  0  0  0
  -25.3940  -28.2590   22.1630 C   0  0  0  0  0  0  0  0  0  0  0  0
  -28.5210  -26.7890   17.2630 C   0  0  0  0  0  0  0  0  0  0  0  0
  -24.3160  -27.6040   20.0300 C   0  0  0  0  0  3  0  0  0  0  0  0
  -25.8750  -27.4000   18.0240 C   0  0  0  0  0  0  0  0  0  0  0  0
  -26.6500  -28.6470   20.0510 C   0  0  0  0  0  2  0  0  0  0  0  0
  -26.9510  -27.8470   18.8040 C   0  0  0  0  0  0  0  0  0  0  0  0
  -28.2750  -27.5500   18.4230 C   0  0  0  0  0  3  0  0  0  0  0  0
  -27.4340  -26.3420   16.4850 C   0  0  0  0  0  3  0  0  0  0  0  0
  -26.1120  -26.6430   16.8630 C   0  0  0  0  0  3  0  0  0  0  0  0
  -24.4890  -27.7730   18.4960 C   0  0  0  0  0  2  0  0  0  0  0  0
  -25.4730  -28.1590   20.8070 N   0  0  0  0  0  0  0  0  0  0  0  0
  -24.3600  -27.9400   22.7660 O   0  0  0  0  0  0  0  0  0  0  0  0
  -24.0310  -26.1160   20.3350 C   0  0  0  0  0  0  0  0  0  0  0  0
  -22.8270  -25.6510   19.9660 N   0  0  0  0  0  0  0  0  0  0  0  0
  -24.8900  -25.4010   20.8610 O   0  0  0  0  0  0  0  0  0  0  0  0
  -22.1740  -26.3010   19.5480 H   0  0  0  0  0  0  0  0  0  0  0  0
  -20.0660  -23.4280   19.2740 C   0  0  0  0  0  0  0  0  0  0  0  0
  -22.3590  -24.2740   20.1160 C   0  0  0  0  0  3  0  0  0  0  0  0
  -22.9750  -23.3540   19.0360 C   0  0  0  0  0  2  0  0  0  0  0  0
  -22.0990  -23.2140   17.7860 C   0  0  0  0  0  2  0  0  0  0  0  0
  -20.7280  -22.6410   18.1550 C   0  0  0  0  0  2  0  0  0  0  0  0
  -20.8310  -24.2050   20.1840 C   0  0  0  0  0  0  0  0  0  0  0  0
  -20.1640  -24.9450   21.1830 C   0  0  0  0  0  3  0  0  0  0  0  0
  -18.7610  -24.9190   21.2810 C   0  0  0  0  0  3  0  0  0  0  0  0
  -18.0100  -24.1360   20.3890 C   0  0  0  0  0  3  0  0  0  0  0  0
  -18.6620  -23.3890   19.3930 C   0  0  0  0  0  3  0  0  0  0  0  0
  -26.5840  -28.7950   23.0190 C   0  0  0  0  0  3  0  0  0  0  0  0
  -27.2880  -27.6780   23.8840 C   0  0  1  0  0  0  0  0  0  0  0  0
  -26.3080  -26.8510   24.7490 C   0  0  0  0  0  1  0  0  0  0  0  0
  -28.0630  -26.6940   22.9770 C   0  0  0  0  0  1  0  0  0  0  0  0
  -28.3300  -28.3230   24.8280 C   0  0  0  0  0  1  0  0  0  0  0  0
  -26.0640  -29.8660   23.8780 N   0  0  0  0  0  0  0  0  0  0  0  0
  -26.3810  -31.1610   23.7560 C   0  0  0  0  0  0  0  0  0  0  0  0
  -27.2160  -31.5720   22.9430 O   0  0  0  0  0  0  0  0  0  0  0  0
  -25.3370  -29.6100   24.5310 H   0  0  0  0  0  0  0  0  0  0  0  0
  -24.6350  -32.9650   23.8720 C   0  0  0  0  0  1  0  0  0  0  0  0
  -25.6630  -32.1610   24.6820 C   0  0  0  0  0  3  0  0  0  0  0  0
  -27.4150  -32.4290   26.3820 C   0  0  0  0  0  1  0  0  0  0  0  0
  -26.5840  -33.0850   25.3760 N   0  0  0  0  0  0  0  0  0  0  0  0
  -26.0680  -33.8360   25.8310 H   0  0  0  0  0  0  0  0  0  0  0  0
  -28.5510  -21.8620   22.7110 C   0  0  0  0  0  2  0  0  0  0  0  0
  -27.2100  -22.4150   22.1690 C   0  0  0  0  0  2  0  0  0  0  0  0
  -27.3510  -23.3750   20.9720 C   0  0  0  0  0  2  0  0  0  0  0  0
  -27.5740  -24.8400   21.3950 C   0  0  0  0  0  2  0  0  0  0  0  0
  -27.9990  -25.6810   20.2640 N   0  0  0  0  0  4  0  0  0  0  0  0
  -28.8960  -25.3880   19.9180 H   0  0  0  0  0  0  0  0  0  0  0  0
  -28.0810  -26.6380   20.5620 H   0  0  0  0  0  0  0  0  0  0  0  0
  -27.3300  -25.6480   19.5150 H   0  0  0  0  0  0  0  0  0  0  0  0
  1  2  1  0
  1 97  1  0
  2  4  2  0
  3  2  1  0
  3  5  1  0
  6  3  1  0
  7  6  1  0
  8 16  1  0
  9 14  1  0
 10 11  1  0
 10  9  1  0
 12 11  1  0
 12 21  1  0
 12 13  1  0
 14  8  1  0
 14 13  1  0
 15  8  2  0
 16  7  1  0
 16 17  1  0
 18 19  2  0
 19 38  1  0
 20 23  1  0
 20 19  1  0
 21 22  1  0
 21 18  1  0
 22 20  2  0
 23 24  1  0
 24 25  2  0
 26 29  1  0
 26 25  1  0
 27 26  2  0
 28 27  1  0
 28 23  2  0
 29 30  1  0
 30 35  2  0
 30 31  1  0
 31 32  2  0
 32 33  1  0
 33 37  1  0
 34 33  2  0
 35 34  1  0
 36 35  1  0
 38 39  1  0
 39 42  1  0
 39 41  1  0
 40 38  2  0
 43 18  1  0
 43 44  1  0
 45 43  1  0
 46 47  1  0
 47 49  1  0
 47  1  1  0
 48 46  2  0
 50 52  1  0
 50 46  1  0
 51 55  1  0
 51 52  1  0
 52 54  1  0
 53 51  2  0
 56 58  1  0
 56 55  1  0
 57 68  2  0
 58 63  1  0
 59 69  1  0
 59 67  1  0
 60 66  1  0
 60 62  1  0
 61 67  1  0
 62 61  1  0
 63 62  2  0
 64 65  1  0
 64 58  2  0
 65 60  2  0
 66 59  1  0
 67 57  1  0
 69 71  2  0
 70 69  1  0
 72 70  1  0
 73 82  2  0
 73 78  1  0
 74 70  1  0
 74 78  1  0
 75 74  1  0
 76 77  1  0
 76 75  1  0
 77 73  1  0
 78 79  2  0
 79 80  1  0
 81 80  2  0
 82 81  1  0
 83 57  1  0
 83 88  1  0
 83 84  1  0
 84 85  1  1
 84 87  1  0
 86 84  1  0
 88 91  1  0
 89 88  1  0
 89 93  1  0
 90 89  2  0
 93 92  1  0
 93 95  1  0
 95 96  1  0
 95 94  1  0
 98 97  1  0
 99100  1  0
 99 98  1  0
101103  1  0
101100  1  0
102101  1  0
104101  1  0
M  ISO  4   8 100  16 100  55 101  56 101
M  END
>  <TORSDO>  (8) 
F 28

>  <SCORE>  (8) 
-5.907

>  <name>  (8) 
7

>  <ligand_id>  (8) 
7

>  <original_smiles>  (8) 
[H]c1c([H])c([H])c2c(c1[H])C([H])([H])C([H])([H])C([H])([H])C2([H])N([H])C(=O)C1([H])N(C(=O)C([H])(N([H])C(=O)C([H])(N([H])C([H])([H])[H])C([H])([H])[H])C(C([H])([H])[H])(C([H])([H])[H])C([H])([H])[H])C([H])([H])c2c([H])c(OC([H])([H])C(=O)N([H])C([H])([H])C(=O)N([H])C([H])(C(=O)N([H])C([H])([H])C([H])([H])N([H])C(=O)N3C([H])([H])C([H])([H])C([H])([H])C([H])(n4nc(-c5c([H])c([H])c(Oc6c([H])c([H])c(F)c([H])c6F)c([H])c5[H])c(C(=O)N([H])[H])c4N([H])[H])C3([H])[H])C([H])([H])C([H])([H])C([H])([H])C([H])([H])[N+]([H])([H])[H])c([H])c([H])c2C1([H])[H]

>  <smiles>  (8) 
[H]c1c([H])c([H])c2c(c1[H])C([H])([H])C([H])([H])C([H])([H])C2([H])N([H])C(=O)C1([H])N(C(=O)C([H])(N([H])C(=O)C([H])(N([H])C([H])([H])[H])C([H])([H])[H])C(C([H])([H])[H])(C([H])([H])[H])C([H])([H])[H])C([H])([H])c2c([H])c(OC([H])([H])C(=O)N([H])C([H])([H])C(=O)N([H])C([H])(C(=O)N([H])C([H])([H])C([H])([H])N([H])C(=O)N3C([H])([H])C([H])([H])C([H])([H])C([H])(n4nc(-c5c([H])c([H])c(Oc6c([H])c([H])c(F)c([H])c6F)c([H])c5[H])c(C(=O)N([H])[H])c4N([H])[H])C3([H])[H])C([H])([H])C([H])([H])C([H])([H])C([H])([H])[N+]([H])([H])[H])c([H])c([H])c2C1([H])[H]

$$$$
8:0:0
     RDKit          3D

 95102  0  0  1  0  0  0  0  0999 V2000
  -29.9840  -20.6010   20.1970 C   0  0  0  0  0  3  0  0  0  0  0  0
  -29.1010  -21.7330   20.8090 C   0  0  0  0  0  0  0  0  0  0  0  0
  -28.9710  -22.9010   20.1370 N   0  0  0  0  0  0  0  0  0  0  0  0
  -28.5950  -21.5670   21.9220 O   0  0  0  0  0  0  0  0  0  0  0  0
  -29.4160  -22.9470   19.2290 H   0  0  0  0  0  0  0  0  0  0  0  0
  -28.4200  -24.1720   20.6660 C   0  0  0  0  0  2  0  0  0  0  0  0
  -28.4780  -25.3570   19.6460 C   0  0  0  0  0  2  0  0  0  0  0  0
  -28.3560  -26.6920   20.2130 O   0  0  0  0  0  0  0  0  0  0  0  0
  -24.5180  -31.8880   23.2830 C   0  0  0  0  0  0  0  0  0  0  0  0
  -27.1710  -27.4210   20.1820 C   0  0  0  0  0  0  0  0  0  0  0  0
  -23.3270  -30.5160   21.6100 C   0  0  0  0  0  3  0  0  0  0  0  0
  -24.7860  -28.9790   20.1850 C   0  0  0  0  0  0  0  0  0  0  0  0
  -25.8630  -30.8460   21.4520 C   0  0  0  0  0  2  0  0  0  0  0  0
  -25.9440  -29.4790   20.7920 C   0  0  0  0  0  0  0  0  0  0  0  0
  -27.1350  -28.7100   20.7820 C   0  0  0  0  0  3  0  0  0  0  0  0
  -25.9820  -26.9410   19.5810 C   0  0  0  0  0  3  0  0  0  0  0  0
  -24.8010  -27.7110   19.5820 C   0  0  0  0  0  3  0  0  0  0  0  0
  -23.5500  -29.8520   20.2270 C   0  0  0  0  0  2  0  0  0  0  0  0
  -24.5870  -31.0990   22.1710 N   0  0  0  0  0  0  0  0  0  0  0  0
  -23.4320  -32.1600   23.8120 O   0  0  0  0  0  0  0  0  0  0  0  0
  -22.6580  -29.4840   22.5490 C   0  0  0  0  0  0  0  0  0  0  0  0
  -21.3400  -29.2840   22.3820 N   0  0  0  0  0  0  0  0  0  0  0  0
  -23.3230  -28.8660   23.3860 O   0  0  0  0  0  0  0  0  0  0  0  0
  -20.8620  -29.8330   21.6810 H   0  0  0  0  0  0  0  0  0  0  0  0
  -17.9720  -28.0320   22.7620 C   0  0  0  0  0  0  0  0  0  0  0  0
  -20.5140  -28.3350   23.1280 C   0  0  0  0  0  3  0  0  0  0  0  0
  -20.6630  -26.9050   22.5610 C   0  0  0  0  0  2  0  0  0  0  0  0
  -19.6040  -26.5590   21.5090 C   0  0  0  0  0  2  0  0  0  0  0  0
  -18.1970  -26.6830   22.1000 C   0  0  0  0  0  2  0  0  0  0  0  0
  -19.0600  -28.8160   23.2300 C   0  0  0  0  0  0  0  0  0  0  0  0
  -18.7970  -30.0790   23.8050 C   0  0  0  0  0  3  0  0  0  0  0  0
  -17.4780  -30.5550   23.9230 C   0  0  0  0  0  3  0  0  0  0  0  0
  -16.4050  -29.7680   23.4730 C   0  0  0  0  0  3  0  0  0  0  0  0
  -16.6520  -28.5100   22.8950 C   0  0  0  0  0  3  0  0  0  0  0  0
  -25.7970  -32.5100   23.9260 C   0  0  0  0  0  3  0  0  0  0  0  0
  -25.5040  -33.9200   24.2210 N   0  0  0  0  0  0  0  0  0  0  0  0
  -25.8730  -34.9500   23.4510 C   0  0  0  0  0  0  0  0  0  0  0  0
  -26.5650  -34.8160   22.4380 O   0  0  0  0  0  0  0  0  0  0  0  0
  -24.8970  -34.1020   25.0080 H   0  0  0  0  0  0  0  0  0  0  0  0
  -24.1960  -36.7730   23.0100 C   0  0  0  0  0  1  0  0  0  0  0  0
  -25.3990  -36.3550   23.8710 C   0  0  0  0  0  3  0  0  0  0  0  0
  -27.5100  -37.2190   24.7800 C   0  0  0  0  0  1  0  0  0  0  0  0
  -26.4560  -37.3830   23.7800 N   0  0  0  0  0  0  0  0  0  0  0  0
  -26.0640  -38.3150   23.8850 H   0  0  0  0  0  0  0  0  0  0  0  0
  -26.2630  -31.7570   25.2330 C   0  0  1  0  0  0  0  0  0  0  0  0
  -25.1350  -31.5590   26.2720 C   0  0  0  0  0  1  0  0  0  0  0  0
  -26.8380  -30.3640   24.8840 C   0  0  0  0  0  1  0  0  0  0  0  0
  -27.4070  -32.5470   25.9140 C   0  0  0  0  0  1  0  0  0  0  0  0
  -29.8990  -18.0470   20.2000 C   0  0  0  0  0  0  0  0  0  0  0  0
  -29.6940  -19.2590   20.7670 N   0  0  0  0  0  0  0  0  0  0  0  0
  -29.9840  -17.8820   18.9810 O   0  0  0  0  0  0  0  0  0  0  0  0
  -29.4940  -19.2730   21.7590 H   0  0  0  0  0  0  0  0  0  0  0  0
  -30.1620  -16.8670   21.1670 C   0  0  0  0  0  2  0  0  0  0  0  0
  -30.5430  -14.5180   20.2620 C   0  0  0  0  0  0  0  0  0  0  0  0
  -30.2900  -12.3280   19.1410 C   0  0  0  0  0  2  0  0  0  0  0  0
  -29.2950  -12.4960   17.9740 C   0  0  0  0  0  2  0  0  0  0  0  0
  -27.8390  -12.3350   18.4590 C   0  0  0  0  0  2  0  0  0  0  0  0
  -27.5310  -13.1860   19.7200 C   0  0  0  0  0  3  0  0  0  0  0  0
  -28.6260  -12.9700   20.7860 C   0  0  0  0  0  2  0  0  0  0  0  0
  -29.9200  -13.3110   20.1680 N   0  0  0  0  0  0  0  0  0  0  0  0
  -31.6770  -14.7260   19.8250 O   0  0  0  0  0  0  0  0  0  0  0  0
  -29.7690  -15.5040   20.7590 N   0  0  0  0  0  0  0  0  0  0  0  0
  -28.8330  -15.2300   21.0140 H   0  0  0  0  0  0  0  0  0  0  0  0
  -25.1640  -13.7900   20.5310 C   0  0  0  0  0  0  0  0  0  0  0  0
  -24.1110  -13.0140   20.9300 C   0  0  0  0  0  0  0  0  0  0  0  0
  -24.5720  -11.6620   20.8680 C   0  0  0  0  0  0  0  0  0  0  0  0
  -26.2000  -12.9110   20.2490 N   0  0  0  0  0  0  0  0  0  0  0  0
  -25.8470  -11.6270   20.5090 N   0  0  0  0  0  0  0  0  0  0  0  0
  -23.8570  -10.3960   21.0670 C   0  0  0  0  0  0  0  0  0  0  0  0
  -24.3050   -9.4360   22.0010 C   0  0  0  0  0  3  0  0  0  0  0  0
  -23.5920   -8.2330   22.1880 C   0  0  0  0  0  3  0  0  0  0  0  0
  -22.4170   -7.9820   21.4400 C   0  0  0  0  0  0  0  0  0  0  0  0
  -21.9880   -8.9300   20.4940 C   0  0  0  0  0  3  0  0  0  0  0  0
  -22.7030  -10.1240   20.3050 C   0  0  0  0  0  3  0  0  0  0  0  0
  -21.6740   -6.8320   21.5360 O   0  0  0  0  0  0  0  0  0  0  0  0
  -21.6140   -6.1090   22.6990 C   0  0  0  0  0  0  0  0  0  0  0  0
  -21.0920   -6.6550   23.8910 C   0  0  0  0  0  3  0  0  0  0  0  0
  -20.9870   -5.8550   25.0460 C   0  0  0  0  0  3  0  0  0  0  0  0
  -21.3900   -4.5080   25.0090 C   0  0  0  0  0  0  0  0  0  0  0  0
  -21.9050   -3.9580   23.8220 C   0  0  0  0  0  3  0  0  0  0  0  0
  -22.0120   -4.7560   22.6690 C   0  0  0  0  0  0  0  0  0  0  0  0
  -22.4890   -4.2180   21.5220 F   0  0  0  0  0  0  0  0  0  0  0  0
  -21.2790   -3.7350   26.1160 F   0  0  0  0  0  0  0  0  0  0  0  0
  -22.7230  -13.4820   21.2600 C   0  0  0  0  0  0  0  0  0  0  0  0
  -22.0280  -12.7670   22.1380 N   0  0  0  0  0  0  0  0  0  0  0  0
  -22.2640  -14.5170   20.7750 O   0  0  0  0  0  0  0  0  0  0  0  0
  -22.4130  -11.9280   22.5460 H   0  0  0  0  0  0  0  0  0  0  0  0
  -21.1010  -13.0620   22.4050 H   0  0  0  0  0  0  0  0  0  0  0  0
  -25.3220  -15.1650   20.3640 N   0  0  0  0  0  0  0  0  0  0  0  0
  -24.5570  -15.8150   20.5140 H   0  0  0  0  0  0  0  0  0  0  0  0
  -26.1460  -15.6070   19.9760 H   0  0  0  0  0  0  0  0  0  0  0  0
  -31.4990  -20.8580   20.4260 C   0  0  0  0  0  2  0  0  0  0  0  0
  -33.6300  -21.3980   19.1340 C   0  0  0  0  0  1  0  0  0  0  0  0
  -32.2880  -23.2690   20.1110 C   0  0  0  0  0  1  0  0  0  0  0  0
  -32.2110  -21.8650   19.4860 C   0  0  0  0  0  3  0  0  0  0  0  0
  1 92  1  0
  1 50  1  0
  1  2  1  0
  2  4  2  0
  3  6  1  0
  3  2  1  0
  5  3  1  0
  7  8  1  0
  7  6  1  0
  9 20  2  0
 10  8  1  0
 10 15  1  0
 11 19  1  0
 11 21  1  0
 12 18  1  0
 12 14  1  0
 13 19  1  0
 14 13  1  0
 15 14  2  0
 16 17  1  0
 16 10  2  0
 17 12  2  0
 18 11  1  0
 19  9  1  0
 21 23  2  0
 22 21  1  0
 24 22  1  0
 25 34  2  0
 25 30  1  0
 26 22  1  0
 26 30  1  0
 27 26  1  0
 28 29  1  0
 28 27  1  0
 29 25  1  0
 30 31  2  0
 31 32  1  0
 33 32  2  0
 34 33  1  0
 35  9  1  0
 35 36  1  0
 35 45  1  0
 36 39  1  0
 37 41  1  0
 37 36  1  0
 38 37  2  0
 41 40  1  0
 43 41  1  0
 43 44  1  0
 43 42  1  0
 45 48  1  1
 45 46  1  0
 47 45  1  0
 49 50  1  0
 49 53  1  0
 50 52  1  0
 51 49  2  0
 54 62  1  0
 55 60  1  0
 56 57  1  0
 56 55  1  0
 58 57  1  0
 58 67  1  0
 58 59  1  0
 60 54  1  0
 60 59  1  0
 61 54  2  0
 62 63  1  0
 62 53  1  0
 64 65  2  0
 65 84  1  0
 66 65  1  0
 66 69  1  0
 67 68  1  0
 67 64  1  0
 68 66  2  0
 69 70  1  0
 70 71  2  0
 72 75  1  0
 72 71  1  0
 73 72  2  0
 74 73  1  0
 74 69  2  0
 75 76  1  0
 76 77  1  0
 77 78  2  0
 79 78  1  0
 79 83  1  0
 80 79  2  0
 81 76  2  0
 81 80  1  0
 82 81  1  0
 84 85  1  0
 85 88  1  0
 85 87  1  0
 86 84  2  0
 89 90  1  0
 89 64  1  0
 91 89  1  0
 93 95  1  0
 95 94  1  0
 95 92  1  0
M  ISO  4   7 101   8 101  54 100  62 100
M  END
>  <TORSDO>  (9) 
F 23

>  <SCORE>  (9) 
-12.967

>  <name>  (9) 
8

>  <ligand_id>  (9) 
8

>  <original_smiles>  (9) 
[H]c1c([H])c([H])c2c(c1[H])C([H])([H])C([H])([H])C([H])([H])C2([H])N([H])C(=O)C1([H])N(C(=O)C([H])(N([H])C(=O)C([H])(N([H])C([H])([H])[H])C([H])([H])[H])C(C([H])([H])[H])(C([H])([H])[H])C([H])([H])[H])C([H])([H])c2c([H])c(OC([H])([H])C([H])([H])N([H])C(=O)C([H])(N([H])C(=O)C([H])([H])N([H])C(=O)N3C([H])([H])C([H])([H])C([H])([H])C([H])(n4nc(-c5c([H])c([H])c(Oc6c([H])c([H])c(F)c([H])c6F)c([H])c5[H])c(C(=O)N([H])[H])c4N([H])[H])C3([H])[H])C([H])([H])C([H])(C([H])([H])[H])C([H])([H])[H])c([H])c([H])c2C1([H])[H]

>  <smiles>  (9) 
[H]c1c([H])c([H])c2c(c1[H])C([H])([H])C([H])([H])C([H])([H])C2([H])N([H])C(=O)C1([H])N(C(=O)C([H])(N([H])C(=O)C([H])(N([H])C([H])([H])[H])C([H])([H])[H])C(C([H])([H])[H])(C([H])([H])[H])C([H])([H])[H])C([H])([H])c2c([H])c(OC([H])([H])C([H])([H])N([H])C(=O)C([H])(N([H])C(=O)C([H])([H])N([H])C(=O)N3C([H])([H])C([H])([H])C([H])([H])C([H])(n4nc(-c5c([H])c([H])c(Oc6c([H])c([H])c(F)c([H])c6F)c([H])c5[H])c(C(=O)N([H])[H])c4N([H])[H])C3([H])[H])C([H])([H])C([H])(C([H])([H])[H])C([H])([H])[H])c([H])c([H])c2C1([H])[H]

$$$$
9:0:0
     RDKit          3D

101109  0  0  1  0  0  0  0  0999 V2000
  -31.8700  -19.0110   18.4470 C   0  0  0  0  0  3  0  0  0  0  0  0
  -33.3120  -18.9520   18.9830 C   0  0  0  0  0  0  0  0  0  0  0  0
  -34.3040  -18.9620   18.1030 N   0  0  0  0  0  0  0  0  0  0  0  0
  -33.5420  -18.9050   20.1930 O   0  0  0  0  0  0  0  0  0  0  0  0
  -34.1060  -19.0120   17.1140 H   0  0  0  0  0  0  0  0  0  0  0  0
  -35.2660  -18.9180   18.4120 H   0  0  0  0  0  0  0  0  0  0  0  0
  -30.4180  -17.1720   19.2790 C   0  0  0  0  0  0  0  0  0  0  0  0
  -31.0180  -18.3580   19.4380 N   0  0  0  0  0  0  0  0  0  0  0  0
  -30.2560  -16.6590   18.1730 O   0  0  0  0  0  0  0  0  0  0  0  0
  -31.1450  -18.6770   20.3870 H   0  0  0  0  0  0  0  0  0  0  0  0
  -31.0020  -14.2410   19.8690 C   0  0  0  0  0  0  0  0  0  0  0  0
  -30.4030  -12.3180   18.4380 C   0  0  0  0  0  2  0  0  0  0  0  0
  -29.3690  -12.7870   17.3940 C   0  0  0  0  0  2  0  0  0  0  0  0
  -27.9390  -12.6660   17.9600 C   0  0  0  0  0  2  0  0  0  0  0  0
  -27.8040  -13.3190   19.3610 C   0  0  0  0  0  3  0  0  0  0  0  0
  -28.9390  -12.8500   20.2900 C   0  0  0  0  0  2  0  0  0  0  0  0
  -30.2240  -13.1510   19.6340 N   0  0  0  0  0  0  0  0  0  0  0  0
  -32.0200  -14.4980   19.2230 O   0  0  0  0  0  0  0  0  0  0  0  0
  -30.0630  -16.0740   22.9230 C   0  0  0  0  0  2  0  0  0  0  0  0
  -30.0360  -17.1900   21.8870 C   0  0  0  0  0  2  0  0  0  0  0  0
  -30.7870  -14.9270   22.2220 C   0  0  0  0  0  2  0  0  0  0  0  0
  -29.9140  -16.4340   20.5430 C   0  0  0  0  0  3  0  0  0  0  0  0
  -30.5140  -15.1030   20.7930 N   0  0  0  0  0  0  0  0  0  0  0  0
  -25.5050  -13.9720   20.3180 C   0  0  0  0  0  0  0  0  0  0  0  0
  -24.4560  -13.2200   20.7740 C   0  0  0  0  0  0  0  0  0  0  0  0
  -24.8670  -11.8580   20.6580 C   0  0  0  0  0  0  0  0  0  0  0  0
  -26.4930  -13.0690   19.9570 N   0  0  0  0  0  0  0  0  0  0  0  0
  -26.1170  -11.7900   20.2160 N   0  0  0  0  0  0  0  0  0  0  0  0
  -24.1220  -10.6140   20.8890 C   0  0  0  0  0  0  0  0  0  0  0  0
  -24.5910   -9.6310   21.7880 C   0  0  0  0  0  3  0  0  0  0  0  0
  -23.8530   -8.4480   22.0060 C   0  0  0  0  0  3  0  0  0  0  0  0
  -22.6310   -8.2390   21.3230 C   0  0  0  0  0  0  0  0  0  0  0  0
  -22.1780   -9.2110   20.4150 C   0  0  0  0  0  3  0  0  0  0  0  0
  -22.9180  -10.3850   20.1950 C   0  0  0  0  0  3  0  0  0  0  0  0
  -21.8580   -7.1110   21.4510 O   0  0  0  0  0  0  0  0  0  0  0  0
  -21.8350   -6.3830   22.6120 C   0  0  0  0  0  0  0  0  0  0  0  0
  -21.4760   -6.9640   23.8480 C   0  0  0  0  0  3  0  0  0  0  0  0
  -21.3950   -6.1640   25.0050 C   0  0  0  0  0  3  0  0  0  0  0  0
  -21.6630   -4.7840   24.9280 C   0  0  0  0  0  0  0  0  0  0  0  0
  -22.0170   -4.2030   23.6980 C   0  0  0  0  0  3  0  0  0  0  0  0
  -22.0980   -5.0010   22.5430 C   0  0  0  0  0  0  0  0  0  0  0  0
  -22.4200   -4.4320   21.3560 F   0  0  0  0  0  0  0  0  0  0  0  0
  -21.5760   -4.0140   26.0380 F   0  0  0  0  0  0  0  0  0  0  0  0
  -23.1080  -13.7320   21.1950 C   0  0  0  0  0  0  0  0  0  0  0  0
  -22.4580  -13.0470   22.1300 N   0  0  0  0  0  0  0  0  0  0  0  0
  -22.6460  -14.7740   20.7360 O   0  0  0  0  0  0  0  0  0  0  0  0
  -22.8500  -12.2060   22.5260 H   0  0  0  0  0  0  0  0  0  0  0  0
  -21.5580  -13.3700   22.4540 H   0  0  0  0  0  0  0  0  0  0  0  0
  -25.6900  -15.3420   20.1660 N   0  0  0  0  0  0  0  0  0  0  0  0
  -24.9450  -16.0030   20.3580 H   0  0  0  0  0  0  0  0  0  0  0  0
  -26.4950  -15.7690   19.7290 H   0  0  0  0  0  0  0  0  0  0  0  0
  -31.4570  -20.4950   18.2610 C   0  0  0  0  0  2  0  0  0  0  0  0
  -30.0680  -20.6540   17.6060 C   0  0  0  0  0  2  0  0  0  0  0  0
  -29.8510  -21.9610   16.8080 C   0  0  0  0  0  2  0  0  0  0  0  0
  -29.2370  -23.1650   17.5610 C   0  0  0  0  0  2  0  0  0  0  0  0
  -30.2440  -23.9590   18.2610 N   0  0  0  0  0  4  0  0  0  0  0  0
  -31.0480  -24.0520   17.6590 H   0  0  0  0  0  0  0  0  0  0  0  0
  -30.5880  -23.4710   19.0730 H   0  0  0  0  0  0  0  0  0  0  0  0
  -29.7850  -25.3140   18.5990 C   0  0  0  0  0  2  0  0  0  0  0  0
  -28.6520  -25.3900   19.6390 C   0  0  0  0  0  2  0  0  0  0  0  0
  -28.5290  -26.7640   20.0350 O   0  0  0  0  0  0  0  0  0  0  0  0
  -24.6570  -31.8400   23.1700 C   0  0  0  0  0  0  0  0  0  0  0  0
  -27.3130  -27.4220   20.0420 C   0  0  0  0  0  0  0  0  0  0  0  0
  -23.4510  -30.4390   21.5260 C   0  0  0  0  0  3  0  0  0  0  0  0
  -24.9020  -28.9140   20.0910 C   0  0  0  0  0  0  0  0  0  0  0  0
  -25.9730  -30.8110   21.3150 C   0  0  0  0  0  2  0  0  0  0  0  0
  -26.0630  -29.4400   20.6740 C   0  0  0  0  0  0  0  0  0  0  0  0
  -27.2630  -28.6980   20.6530 C   0  0  0  0  0  3  0  0  0  0  0  0
  -26.1280  -26.9130   19.4590 C   0  0  0  0  0  3  0  0  0  0  0  0
  -24.9300  -27.6470   19.4900 C   0  0  0  0  0  3  0  0  0  0  0  0
  -23.6560  -29.7660   20.1420 C   0  0  0  0  0  2  0  0  0  0  0  0
  -24.7140  -31.0430   22.0630 N   0  0  0  0  0  0  0  0  0  0  0  0
  -23.5760  -32.1020   23.7160 O   0  0  0  0  0  0  0  0  0  0  0  0
  -22.8100  -29.4080   22.4830 C   0  0  0  0  0  0  0  0  0  0  0  0
  -21.4920  -29.1960   22.3340 N   0  0  0  0  0  0  0  0  0  0  0  0
  -23.4950  -28.8000   23.3100 O   0  0  0  0  0  0  0  0  0  0  0  0
  -21.0020  -29.7430   21.6400 H   0  0  0  0  0  0  0  0  0  0  0  0
  -18.1430  -27.9120   22.7550 C   0  0  0  0  0  0  0  0  0  0  0  0
  -20.6820  -28.2440   23.0950 C   0  0  0  0  0  3  0  0  0  0  0  0
  -20.8430  -26.8100   22.5390 C   0  0  0  0  0  2  0  0  0  0  0  0
  -19.7770  -26.4440   21.5020 C   0  0  0  0  0  2  0  0  0  0  0  0
  -18.3760  -26.5580   22.1070 C   0  0  0  0  0  2  0  0  0  0  0  0
  -19.2260  -28.7090   23.2060 C   0  0  0  0  0  0  0  0  0  0  0  0
  -18.9590  -29.9750   23.7710 C   0  0  0  0  0  3  0  0  0  0  0  0
  -17.6370  -30.4430   23.8920 C   0  0  0  0  0  3  0  0  0  0  0  0
  -16.5660  -29.6420   23.4620 C   0  0  0  0  0  3  0  0  0  0  0  0
  -16.8200  -28.3760   22.9010 C   0  0  0  0  0  3  0  0  0  0  0  0
  -25.9400  -32.4750   23.7880 C   0  0  0  0  0  3  0  0  0  0  0  0
  -26.4850  -31.6780   25.0370 C   0  0  1  0  0  0  0  0  0  0  0  0
  -25.4080  -31.3820   26.1050 C   0  0  0  0  0  1  0  0  0  0  0  0
  -27.0960  -30.3280   24.5930 C   0  0  0  0  0  1  0  0  0  0  0  0
  -27.6220  -32.4770   25.7150 C   0  0  0  0  0  1  0  0  0  0  0  0
  -25.6200  -33.8590   24.1580 N   0  0  0  0  0  0  0  0  0  0  0  0
  -25.9260  -34.9330   23.4140 C   0  0  0  0  0  0  0  0  0  0  0  0
  -26.5880  -34.8610   22.3760 O   0  0  0  0  0  0  0  0  0  0  0  0
  -25.0420  -33.9880   24.9750 H   0  0  0  0  0  0  0  0  0  0  0  0
  -24.1720  -36.7020   23.1050 C   0  0  0  0  0  1  0  0  0  0  0  0
  -25.4220  -36.3010   23.9050 C   0  0  0  0  0  3  0  0  0  0  0  0
  -27.5490  -37.1970   24.7400 C   0  0  0  0  0  1  0  0  0  0  0  0
  -26.4380  -37.3720   23.8080 N   0  0  0  0  0  0  0  0  0  0  0  0
  -26.0220  -38.2830   23.9770 H   0  0  0  0  0  0  0  0  0  0  0  0
  1 52  1  0
  1  2  1  0
  1  8  1  0
  2  4  2  0
  3  6  1  0
  3  2  1  0
  5  3  1  0
  7  8  1  0
  8 10  1  0
  9  7  2  0
 11 23  1  0
 12 17  1  0
 13 14  1  0
 13 12  1  0
 15 14  1  0
 15 27  1  0
 15 16  1  0
 17 11  1  0
 17 16  1  0
 18 11  2  0
 20 19  1  0
 21 19  1  0
 22  7  1  0
 22 23  1  0
 22 20  1  0
 23 21  1  0
 24 25  2  0
 25 44  1  0
 26 25  1  0
 26 29  1  0
 27 28  1  0
 27 24  1  0
 28 26  2  0
 29 30  1  0
 30 31  2  0
 32 35  1  0
 32 31  1  0
 33 32  2  0
 34 33  1  0
 34 29  2  0
 35 36  1  0
 36 37  1  0
 37 38  2  0
 39 38  1  0
 39 43  1  0
 40 39  2  0
 41 36  2  0
 41 40  1  0
 42 41  1  0
 44 45  1  0
 45 48  1  0
 45 47  1  0
 46 44  2  0
 49 24  1  0
 49 50  1  0
 51 49  1  0
 53 52  1  0
 54 55  1  0
 54 53  1  0
 55 56  1  0
 56 59  1  0
 56 58  1  0
 57 56  1  0
 59 60  1  0
 60 61  1  0
 61 63  1  0
 62 73  2  0
 63 68  1  0
 64 72  1  0
 64 74  1  0
 65 71  1  0
 65 67  1  0
 66 72  1  0
 67 66  1  0
 68 67  2  0
 69 70  1  0
 69 63  2  0
 70 65  2  0
 71 64  1  0
 72 62  1  0
 74 76  2  0
 75 74  1  0
 77 75  1  0
 78 87  2  0
 78 83  1  0
 79 75  1  0
 79 83  1  0
 80 79  1  0
 81 82  1  0
 81 80  1  0
 82 78  1  0
 83 84  2  0
 84 85  1  0
 86 85  2  0
 87 86  1  0
 88 62  1  0
 88 93  1  0
 88 89  1  0
 89 92  1  1
 89 90  1  0
 91 89  1  0
 93 96  1  0
 94 98  1  0
 94 93  1  0
 95 94  2  0
 98 97  1  0
100 98  1  0
100101  1  0
100 99  1  0
M  ISO  4  11 100  23 100  60 101  61 101
M  END
>  <TORSDO>  (10) 
F 25

>  <SCORE>  (10) 
-9.243

>  <name>  (10) 
9

>  <ligand_id>  (10) 
9

>  <original_smiles>  (10) 
[H]c1c([H])c([H])c2c(c1[H])C([H])([H])C([H])([H])C([H])([H])C2([H])N([H])C(=O)C1([H])N(C(=O)C([H])(N([H])C(=O)C([H])(N([H])C([H])([H])[H])C([H])([H])[H])C(C([H])([H])[H])(C([H])([H])[H])C([H])([H])[H])C([H])([H])c2c([H])c(OC([H])([H])C([H])([H])[N+]([H])([H])C([H])([H])C([H])([H])C([H])([H])C([H])([H])C([H])(C(=O)N([H])[H])N([H])C(=O)C3([H])N(C(=O)N4C([H])([H])C([H])([H])C([H])([H])C([H])(n5nc(-c6c([H])c([H])c(Oc7c([H])c([H])c(F)c([H])c7F)c([H])c6[H])c(C(=O)N([H])[H])c5N([H])[H])C4([H])[H])C([H])([H])C([H])([H])C3([H])[H])c([H])c([H])c2C1([H])[H]

>  <smiles>  (10) 
[H]c1c([H])c([H])c2c(c1[H])C([H])([H])C([H])([H])C([H])([H])C2([H])N([H])C(=O)C1([H])N(C(=O)C([H])(N([H])C(=O)C([H])(N([H])C([H])([H])[H])C([H])([H])[H])C(C([H])([H])[H])(C([H])([H])[H])C([H])([H])[H])C([H])([H])c2c([H])c(OC([H])([H])C([H])([H])[N+]([H])([H])C([H])([H])C([H])([H])C([H])([H])C([H])([H])C([H])(C(=O)N([H])[H])N([H])C(=O)C3([H])N(C(=O)N4C([H])([H])C([H])([H])C([H])([H])C([H])(n5nc(-c6c([H])c([H])c(Oc7c([H])c([H])c(F)c([H])c7F)c([H])c6[H])c(C(=O)N([H])[H])c5N([H])[H])C4([H])[H])C([H])([H])C([H])([H])C3([H])[H])c([H])c([H])c2C1([H])[H]

$$$$
10:0:0
     RDKit          3D

 95102  0  0  1  0  0  0  0  0999 V2000
  -29.5260  -24.4910   20.1040 C   0  0  0  0  0  3  0  0  0  0  0  0
  -31.5690  -25.8110   19.6130 C   0  0  0  0  0  0  0  0  0  0  0  0
  -32.7630  -26.5510   20.1960 C   0  0  0  0  0  1  0  0  0  0  0  0
  -30.7570  -25.1880   20.4670 N   0  0  0  0  0  0  0  0  0  0  0  0
  -31.3940  -25.8000   18.3950 O   0  0  0  0  0  0  0  0  0  0  0  0
  -30.9730  -25.2060   21.4550 H   0  0  0  0  0  0  0  0  0  0  0  0
  -29.5840  -23.0540   20.6690 C   0  0  0  0  0  0  0  0  0  0  0  0
  -29.2670  -22.0430   19.8410 N   0  0  0  0  0  0  0  0  0  0  0  0
  -29.9780  -22.8740   21.8250 O   0  0  0  0  0  0  0  0  0  0  0  0
  -28.9250  -22.3120   18.9260 H   0  0  0  0  0  0  0  0  0  0  0  0
  -29.5940  -20.6120   19.9810 C   0  0  0  0  0  3  0  0  0  0  0  0
  -29.3400  -19.9940   21.3760 C   0  0  0  0  0  3  0  0  0  0  0  0
  -29.5910  -18.4650   21.5050 C   0  0  0  0  0  2  0  0  0  0  0  0
  -30.7640  -17.8740   20.6780 C   0  0  0  0  0  2  0  0  0  0  0  0
  -31.3410  -16.5340   21.2140 C   0  0  0  0  0  2  0  0  0  0  0  0
  -31.2730  -14.3740   19.9050 C   0  0  0  0  0  0  0  0  0  0  0  0
  -30.8630  -12.1960   18.7920 C   0  0  0  0  0  2  0  0  0  0  0  0
  -29.8490  -12.3420   17.6400 C   0  0  0  0  0  2  0  0  0  0  0  0
  -28.3970  -12.2840   18.1560 C   0  0  0  0  0  2  0  0  0  0  0  0
  -28.1620  -13.2040   19.3820 C   0  0  0  0  0  3  0  0  0  0  0  0
  -29.2550  -12.9640   20.4410 C   0  0  0  0  0  2  0  0  0  0  0  0
  -30.5550  -13.2240   19.7970 N   0  0  0  0  0  0  0  0  0  0  0  0
  -32.3400  -14.5590   19.3090 O   0  0  0  0  0  0  0  0  0  0  0  0
  -30.7120  -15.3170   20.6850 N   0  0  0  0  0  0  0  0  0  0  0  0
  -29.8050  -15.0750   21.0620 H   0  0  0  0  0  0  0  0  0  0  0  0
  -25.8610  -13.9770   20.2390 C   0  0  0  0  0  0  0  0  0  0  0  0
  -24.7660  -13.2750   20.6690 C   0  0  0  0  0  0  0  0  0  0  0  0
  -25.1260  -11.8940   20.5940 C   0  0  0  0  0  0  0  0  0  0  0  0
  -26.8240  -13.0250   19.9380 N   0  0  0  0  0  0  0  0  0  0  0  0
  -26.3890  -11.7680   20.2070 N   0  0  0  0  0  0  0  0  0  0  0  0
  -24.3250  -10.6840   20.8150 C   0  0  0  0  0  0  0  0  0  0  0  0
  -24.7120   -9.7090   21.7630 C   0  0  0  0  0  3  0  0  0  0  0  0
  -23.9170   -8.5620   21.9700 C   0  0  0  0  0  3  0  0  0  0  0  0
  -22.7220   -8.3840   21.2340 C   0  0  0  0  0  0  0  0  0  0  0  0
  -22.3560   -9.3440   20.2740 C   0  0  0  0  0  3  0  0  0  0  0  0
  -23.1500  -10.4820   20.0650 C   0  0  0  0  0  3  0  0  0  0  0  0
  -21.9020   -7.2870   21.3480 O   0  0  0  0  0  0  0  0  0  0  0  0
  -21.7660   -6.6100   22.5330 C   0  0  0  0  0  0  0  0  0  0  0  0
  -21.3220   -7.2530   23.7110 C   0  0  0  0  0  3  0  0  0  0  0  0
  -21.1330   -6.5070   24.8910 C   0  0  0  0  0  3  0  0  0  0  0  0
  -21.3740   -5.1200   24.8950 C   0  0  0  0  0  0  0  0  0  0  0  0
  -21.8070   -4.4790   23.7220 C   0  0  0  0  0  3  0  0  0  0  0  0
  -21.9990   -5.2210   22.5440 C   0  0  0  0  0  0  0  0  0  0  0  0
  -22.3970   -4.5930   21.4100 F   0  0  0  0  0  0  0  0  0  0  0  0
  -21.1810   -4.4020   26.0270 F   0  0  0  0  0  0  0  0  0  0  0  0
  -23.4260  -13.8440   21.0370 C   0  0  0  0  0  0  0  0  0  0  0  0
  -22.7150  -13.1920   21.9530 N   0  0  0  0  0  0  0  0  0  0  0  0
  -23.0210  -14.8960   20.5450 O   0  0  0  0  0  0  0  0  0  0  0  0
  -23.0570  -12.3370   22.3680 H   0  0  0  0  0  0  0  0  0  0  0  0
  -21.8190  -13.5530   22.2450 H   0  0  0  0  0  0  0  0  0  0  0  0
  -26.1140  -15.3330   20.0550 N   0  0  0  0  0  0  0  0  0  0  0  0
  -25.4090  -16.0440   20.2070 H   0  0  0  0  0  0  0  0  0  0  0  0
  -26.9680  -15.7000   19.6560 H   0  0  0  0  0  0  0  0  0  0  0  0
  -28.3270  -25.3390   20.5680 C   0  0  0  0  0  2  0  0  0  0  0  0
  -28.5270  -26.7210   20.1990 O   0  0  0  0  0  0  0  0  0  0  0  0
  -24.7060  -31.7960   23.3540 C   0  0  0  0  0  0  0  0  0  0  0  0
  -27.3870  -27.4810   20.1700 C   0  0  0  0  0  0  0  0  0  0  0  0
  -23.5330  -30.4660   21.6310 C   0  0  0  0  0  3  0  0  0  0  0  0
  -25.0110  -28.9990   20.1670 C   0  0  0  0  0  0  0  0  0  0  0  0
  -26.0590  -30.8360   21.4980 C   0  0  0  0  0  2  0  0  0  0  0  0
  -26.1560  -29.4920   20.8050 C   0  0  0  0  0  0  0  0  0  0  0  0
  -27.3510  -28.7420   20.8010 C   0  0  0  0  0  3  0  0  0  0  0  0
  -26.2340  -27.0110   19.5030 C   0  0  0  0  0  3  0  0  0  0  0  0
  -25.0450  -27.7570   19.5080 C   0  0  0  0  0  3  0  0  0  0  0  0
  -23.7700  -29.8530   20.2240 C   0  0  0  0  0  2  0  0  0  0  0  0
  -24.7820  -31.0430   22.2210 N   0  0  0  0  0  0  0  0  0  0  0  0
  -23.6140  -32.0410   23.8880 O   0  0  0  0  0  0  0  0  0  0  0  0
  -22.8700  -29.3980   22.5340 C   0  0  0  0  0  0  0  0  0  0  0  0
  -21.5520  -29.2080   22.3670 N   0  0  0  0  0  0  0  0  0  0  0  0
  -23.5430  -28.7500   23.3420 O   0  0  0  0  0  0  0  0  0  0  0  0
  -21.0730  -29.7930   21.6960 H   0  0  0  0  0  0  0  0  0  0  0  0
  -18.1900  -27.9260   22.6870 C   0  0  0  0  0  0  0  0  0  0  0  0
  -20.7260  -28.2360   23.0810 C   0  0  0  0  0  3  0  0  0  0  0  0
  -20.8880  -26.8190   22.4830 C   0  0  0  0  0  2  0  0  0  0  0  0
  -19.8410  -26.4930   21.4110 C   0  0  0  0  0  2  0  0  0  0  0  0
  -18.4280  -26.5950   21.9950 C   0  0  0  0  0  2  0  0  0  0  0  0
  -19.2700  -28.7020   23.1850 C   0  0  0  0  0  0  0  0  0  0  0  0
  -18.9990  -29.9480   23.7900 C   0  0  0  0  0  3  0  0  0  0  0  0
  -17.6770  -30.4180   23.9040 C   0  0  0  0  0  3  0  0  0  0  0  0
  -16.6100  -29.6390   23.4240 C   0  0  0  0  0  3  0  0  0  0  0  0
  -16.8670  -28.3940   22.8210 C   0  0  0  0  0  3  0  0  0  0  0  0
  -25.9790  -32.4020   24.0210 C   0  0  0  0  0  3  0  0  0  0  0  0
  -25.6750  -33.7960   24.3670 N   0  0  0  0  0  0  0  0  0  0  0  0
  -26.0560  -34.8590   23.6430 C   0  0  0  0  0  0  0  0  0  0  0  0
  -26.7690  -34.7680   22.6410 O   0  0  0  0  0  0  0  0  0  0  0  0
  -25.0460  -33.9420   25.1410 H   0  0  0  0  0  0  0  0  0  0  0  0
  -24.3670  -36.6810   23.2470 C   0  0  0  0  0  1  0  0  0  0  0  0
  -25.5640  -36.2440   24.1060 C   0  0  0  0  0  3  0  0  0  0  0  0
  -27.6730  -37.0860   25.0420 C   0  0  0  0  0  1  0  0  0  0  0  0
  -26.6130  -37.2860   24.0570 N   0  0  0  0  0  0  0  0  0  0  0  0
  -26.2120  -38.2080   24.2090 H   0  0  0  0  0  0  0  0  0  0  0  0
  -26.4550  -31.6030   25.2960 C   0  0  1  0  0  0  0  0  0  0  0  0
  -25.3340  -31.3560   26.3330 C   0  0  0  0  0  1  0  0  0  0  0  0
  -27.0370  -30.2290   24.8910 C   0  0  0  0  0  1  0  0  0  0  0  0
  -27.5880  -32.3800   26.0080 C   0  0  0  0  0  1  0  0  0  0  0  0
  1  4  1  0
  1 54  1  0
  1  7  1  0
  2  3  1  0
  2  4  1  0
  4  6  1  0
  5  2  2  0
  7  9  2  0
  8 11  1  0
  8  7  1  0
 10  8  1  0
 11 12  2  0
 12 13  1  0
 14 15  1  0
 14 13  1  0
 16 24  1  0
 17 22  1  0
 18 19  1  0
 18 17  1  0
 20 19  1  0
 20 29  1  0
 20 21  1  0
 22 16  1  0
 22 21  1  0
 23 16  2  0
 24 25  1  0
 24 15  1  0
 26 27  2  0
 27 46  1  0
 28 27  1  0
 28 31  1  0
 29 30  1  0
 29 26  1  0
 30 28  2  0
 31 32  1  0
 32 33  2  0
 34 37  1  0
 34 33  1  0
 35 34  2  0
 36 35  1  0
 36 31  2  0
 37 38  1  0
 38 43  2  0
 38 39  1  0
 39 40  2  0
 40 41  1  0
 41 45  1  0
 42 41  2  0
 43 42  1  0
 44 43  1  0
 46 47  1  0
 47 50  1  0
 47 49  1  0
 48 46  2  0
 51 52  1  0
 51 26  1  0
 53 51  1  0
 55 54  1  0
 56 67  2  0
 57 55  1  0
 57 62  1  0
 58 66  1  0
 58 68  1  0
 59 65  1  0
 59 61  1  0
 60 66  1  0
 61 60  1  0
 62 61  2  0
 63 64  1  0
 63 57  2  0
 64 59  2  0
 65 58  1  0
 66 56  1  0
 68 70  2  0
 69 68  1  0
 71 69  1  0
 72 81  2  0
 72 77  1  0
 73 69  1  0
 73 77  1  0
 74 73  1  0
 75 76  1  0
 75 74  1  0
 76 72  1  0
 77 78  2  0
 78 79  1  0
 80 79  2  0
 81 80  1  0
 82 56  1  0
 82 83  1  0
 82 92  1  0
 83 86  1  0
 84 88  1  0
 84 83  1  0
 85 84  2  0
 88 87  1  0
 90 88  1  0
 90 91  1  0
 90 89  1  0
 92 95  1  1
 92 93  1  0
 94 92  1  0
M  ISO  4  16 100  24 100  54 101  55 101
M  END
>  <TORSDO>  (11) 
F 24

>  <SCORE>  (11) 
-11.386

>  <name>  (11) 
10

>  <ligand_id>  (11) 
10

>  <original_smiles>  (11) 
[H]c1c([H])c([H])c2c(c1[H])C([H])([H])C([H])([H])C([H])([H])C2([H])N([H])C(=O)C1([H])N(C(=O)C([H])(N([H])C(=O)C([H])(N([H])C([H])([H])[H])C([H])([H])[H])C(C([H])([H])[H])(C([H])([H])[H])C([H])([H])[H])C([H])([H])c2c([H])c(OC([H])([H])C([H])(C(=O)N([H])C([H])([H])C([H])([H])C([H])([H])C([H])([H])C([H])([H])N([H])C(=O)N3C([H])([H])C([H])([H])C([H])([H])C([H])(n4nc(-c5c([H])c([H])c(Oc6c([H])c([H])c(F)c([H])c6F)c([H])c5[H])c(C(=O)N([H])[H])c4N([H])[H])C3([H])[H])N([H])C(=O)C([H])([H])[H])c([H])c([H])c2C1([H])[H]

>  <smiles>  (11) 
[H]c1c([H])c([H])c2c(c1[H])C([H])([H])C([H])([H])C([H])([H])C2([H])N([H])C(=O)C1([H])N(C(=O)C([H])(N([H])C(=O)C([H])(N([H])C([H])([H])[H])C([H])([H])[H])C(C([H])([H])[H])(C([H])([H])[H])C([H])([H])[H])C([H])([H])c2c([H])c(OC([H])([H])C([H])(C(=O)N([H])C([H])([H])C([H])([H])C([H])([H])C([H])([H])C([H])([H])N([H])C(=O)N3C([H])([H])C([H])([H])C([H])([H])C([H])(n4nc(-c5c([H])c([H])c(Oc6c([H])c([H])c(F)c([H])c6F)c([H])c5[H])c(C(=O)N([H])[H])c4N([H])[H])C3([H])[H])N([H])C(=O)C([H])([H])[H])c([H])c([H])c2C1([H])[H]

$$$$
11:0:0
     RDKit          3D

 91 99  0  0  1  0  0  0  0  0999 V2000
  -29.7410  -18.2090   19.8450 C   0  0  0  0  0  0  0  0  0  0  0  0
  -28.3440  -23.9540   19.6100 C   0  0  0  0  0  0  0  0  0  0  0  0
  -29.2970  -20.3930   21.2010 C   0  0  0  0  0  2  0  0  0  0  0  0
  -29.3940  -20.4390   18.7660 C   0  0  0  0  0  2  0  0  0  0  0  0
  -29.2680  -21.9990   21.0710 C   0  0  0  0  0  2  0  0  0  0  0  0
  -28.3210  -21.5610   18.8690 C   0  0  0  0  0  2  0  0  0  0  0  0
  -29.4840  -19.5770   19.9650 N   0  0  0  0  0  0  0  0  0  0  0  0
  -28.6350  -22.6100   19.8650 N   0  0  0  0  0  0  0  0  0  0  0  0
  -29.8020  -17.6830   18.7290 O   0  0  0  0  0  0  0  0  0  0  0  0
  -28.0140  -24.3010   18.4710 O   0  0  0  0  0  0  0  0  0  0  0  0
  -30.0110  -17.2250   21.0450 C   0  0  0  0  0  2  0  0  0  0  0  0
  -30.5730  -14.6950   20.4670 C   0  0  0  0  0  0  0  0  0  0  0  0
  -30.3960  -12.4540   19.3780 C   0  0  0  0  0  2  0  0  0  0  0  0
  -29.4610  -12.5700   18.1520 C   0  0  0  0  0  2  0  0  0  0  0  0
  -27.9820  -12.4110   18.5630 C   0  0  0  0  0  2  0  0  0  0  0  0
  -27.6100  -13.2660   19.8030 C   0  0  0  0  0  3  0  0  0  0  0  0
  -28.6570  -13.1040   20.9260 C   0  0  0  0  0  2  0  0  0  0  0  0
  -29.9650  -13.4680   20.3610 N   0  0  0  0  0  0  0  0  0  0  0  0
  -31.7440  -14.8600   20.1130 O   0  0  0  0  0  0  0  0  0  0  0  0
  -29.7630  -15.7410   20.8360 N   0  0  0  0  0  0  0  0  0  0  0  0
  -28.8150  -15.4590   21.0260 H   0  0  0  0  0  0  0  0  0  0  0  0
  -25.2090  -13.8700   20.4840 C   0  0  0  0  0  0  0  0  0  0  0  0
  -24.1380  -13.0990   20.8490 C   0  0  0  0  0  0  0  0  0  0  0  0
  -24.6010  -11.7490   20.8360 C   0  0  0  0  0  0  0  0  0  0  0  0
  -26.2560  -12.9880   20.2720 N   0  0  0  0  0  0  0  0  0  0  0  0
  -25.8950  -11.7070   20.5430 N   0  0  0  0  0  0  0  0  0  0  0  0
  -23.8710  -10.4880   21.0280 C   0  0  0  0  0  0  0  0  0  0  0  0
  -24.2960   -9.5240   21.9690 C   0  0  0  0  0  3  0  0  0  0  0  0
  -23.5690   -8.3280   22.1470 C   0  0  0  0  0  3  0  0  0  0  0  0
  -22.4020   -8.0870   21.3840 C   0  0  0  0  0  0  0  0  0  0  0  0
  -21.9960   -9.0380   20.4310 C   0  0  0  0  0  3  0  0  0  0  0  0
  -22.7240  -10.2250   20.2510 C   0  0  0  0  0  3  0  0  0  0  0  0
  -21.6460   -6.9430   21.4720 O   0  0  0  0  0  0  0  0  0  0  0  0
  -21.5900   -6.2040   22.6280 C   0  0  0  0  0  0  0  0  0  0  0  0
  -21.1630   -6.7650   23.8510 C   0  0  0  0  0  3  0  0  0  0  0  0
  -21.0550   -5.9530   24.9970 C   0  0  0  0  0  3  0  0  0  0  0  0
  -21.3640   -4.5820   24.9220 C   0  0  0  0  0  0  0  0  0  0  0  0
  -21.7840   -4.0200   23.7030 C   0  0  0  0  0  3  0  0  0  0  0  0
  -21.8940   -4.8300   22.5580 C   0  0  0  0  0  0  0  0  0  0  0  0
  -22.2790   -4.2800   21.3810 F   0  0  0  0  0  0  0  0  0  0  0  0
  -21.2520   -3.7990   26.0200 F   0  0  0  0  0  0  0  0  0  0  0  0
  -22.7360  -13.5790   21.0970 C   0  0  0  0  0  0  0  0  0  0  0  0
  -21.9960  -12.8890   21.9590 N   0  0  0  0  0  0  0  0  0  0  0  0
  -22.3060  -14.5990   20.5630 O   0  0  0  0  0  0  0  0  0  0  0  0
  -22.3550  -12.0640   22.4150 H   0  0  0  0  0  0  0  0  0  0  0  0
  -21.0540  -13.1910   22.1670 H   0  0  0  0  0  0  0  0  0  0  0  0
  -25.3730  -15.2380   20.2930 N   0  0  0  0  0  0  0  0  0  0  0  0
  -24.5980  -15.8860   20.3780 H   0  0  0  0  0  0  0  0  0  0  0  0
  -26.2090  -15.6710   19.9210 H   0  0  0  0  0  0  0  0  0  0  0  0
  -28.3240  -25.1070   20.6950 C   0  0  0  0  0  2  0  0  0  0  0  0
  -28.3840  -26.5100   20.1830 O   0  0  0  0  0  0  0  0  0  0  0  0
  -24.6160  -31.8790   23.2360 C   0  0  0  0  0  0  0  0  0  0  0  0
  -27.2410  -27.3240   20.1950 C   0  0  0  0  0  0  0  0  0  0  0  0
  -23.4130  -30.4760   21.5970 C   0  0  0  0  0  3  0  0  0  0  0  0
  -24.8670  -28.9200   20.1760 C   0  0  0  0  0  0  0  0  0  0  0  0
  -25.9490  -30.8060   21.4040 C   0  0  0  0  0  2  0  0  0  0  0  0
  -26.0350  -29.4230   20.7650 C   0  0  0  0  0  0  0  0  0  0  0  0
  -27.2260  -28.6390   20.7550 C   0  0  0  0  0  3  0  0  0  0  0  0
  -26.0500  -26.8640   19.5950 C   0  0  0  0  0  3  0  0  0  0  0  0
  -24.8780  -27.6470   19.5810 C   0  0  0  0  0  3  0  0  0  0  0  0
  -23.6270  -29.7920   20.2200 C   0  0  0  0  0  2  0  0  0  0  0  0
  -24.6790  -31.0710   22.1360 N   0  0  0  0  0  0  0  0  0  0  0  0
  -23.5330  -32.1530   23.7730 O   0  0  0  0  0  0  0  0  0  0  0  0
  -22.7540  -29.4610   22.5610 C   0  0  0  0  0  0  0  0  0  0  0  0
  -21.4280  -29.2820   22.4360 N   0  0  0  0  0  0  0  0  0  0  0  0
  -23.4360  -28.8360   23.3790 O   0  0  0  0  0  0  0  0  0  0  0  0
  -20.9380  -29.8380   21.7490 H   0  0  0  0  0  0  0  0  0  0  0  0
  -18.0540  -28.0770   22.9410 C   0  0  0  0  0  0  0  0  0  0  0  0
  -20.6120  -28.3420   23.2080 C   0  0  0  0  0  3  0  0  0  0  0  0
  -20.7160  -26.9100   22.6330 C   0  0  0  0  0  2  0  0  0  0  0  0
  -19.6140  -26.5850   21.6200 C   0  0  0  0  0  2  0  0  0  0  0  0
  -18.2330  -26.7290   22.2660 C   0  0  0  0  0  2  0  0  0  0  0  0
  -19.1720  -28.8420   23.3700 C   0  0  0  0  0  0  0  0  0  0  0  0
  -18.9520  -30.1040   23.9620 C   0  0  0  0  0  3  0  0  0  0  0  0
  -17.6460  -30.6040   24.1300 C   0  0  0  0  0  3  0  0  0  0  0  0
  -16.5430  -29.8370   23.7170 C   0  0  0  0  0  3  0  0  0  0  0  0
  -16.7480  -28.5750   23.1300 C   0  0  0  0  0  3  0  0  0  0  0  0
  -25.8990  -32.5150   23.8570 C   0  0  0  0  0  3  0  0  0  0  0  0
  -25.5870  -33.9130   24.1890 N   0  0  0  0  0  0  0  0  0  0  0  0
  -25.9110  -34.9670   23.4280 C   0  0  0  0  0  0  0  0  0  0  0  0
  -26.5740  -34.8650   22.3940 O   0  0  0  0  0  0  0  0  0  0  0  0
  -25.0000  -34.0650   24.9960 H   0  0  0  0  0  0  0  0  0  0  0  0
  -24.1760  -36.7550   23.0830 C   0  0  0  0  0  1  0  0  0  0  0  0
  -25.4220  -36.3540   23.8890 C   0  0  0  0  0  3  0  0  0  0  0  0
  -27.5600  -37.2460   24.7060 C   0  0  0  0  0  1  0  0  0  0  0  0
  -26.4520  -37.4100   23.7690 N   0  0  0  0  0  0  0  0  0  0  0  0
  -26.0440  -38.3290   23.9190 H   0  0  0  0  0  0  0  0  0  0  0  0
  -26.4190  -31.7450   25.1330 C   0  0  1  0  0  0  0  0  0  0  0  0
  -25.3290  -31.5050   26.2030 C   0  0  0  0  0  1  0  0  0  0  0  0
  -27.0020  -30.3680   24.7400 C   0  0  0  0  0  1  0  0  0  0  0  0
  -27.5710  -32.5390   25.7920 C   0  0  0  0  0  1  0  0  0  0  0  0
  1  7  1  0
  1 11  1  0
  2  8  1  0
  2 50  1  0
  4  6  1  0
  4  7  1  0
  5  3  1  0
  6  8  1  0
  7  3  1  0
  8  5  1  0
  9  1  2  0
 10  2  2  0
 12 20  1  0
 13 18  1  0
 14 15  1  0
 14 13  1  0
 16 15  1  0
 16 25  1  0
 16 17  1  0
 18 12  1  0
 18 17  1  0
 19 12  2  0
 20 21  1  0
 20 11  1  0
 22 23  2  0
 23 42  1  0
 24 23  1  0
 24 27  1  0
 25 22  1  0
 25 26  1  0
 26 24  2  0
 27 28  1  0
 28 29  2  0
 30 33  1  0
 30 29  1  0
 31 30  2  0
 32 31  1  0
 32 27  2  0
 33 34  1  0
 34 35  1  0
 35 36  2  0
 37 36  1  0
 37 41  1  0
 38 37  2  0
 39 34  2  0
 39 38  1  0
 40 39  1  0
 42 43  1  0
 43 46  1  0
 43 45  1  0
 44 42  2  0
 47 48  1  0
 47 22  1  0
 49 47  1  0
 51 53  1  0
 51 50  1  0
 52 63  2  0
 53 58  1  0
 54 62  1  0
 54 64  1  0
 55 61  1  0
 55 57  1  0
 56 62  1  0
 57 56  1  0
 58 57  2  0
 59 53  2  0
 60 59  1  0
 60 55  2  0
 61 54  1  0
 62 52  1  0
 64 66  2  0
 65 64  1  0
 67 65  1  0
 68 77  2  0
 68 73  1  0
 69 65  1  0
 69 73  1  0
 70 69  1  0
 71 72  1  0
 71 70  1  0
 72 68  1  0
 73 74  2  0
 74 75  1  0
 76 75  2  0
 77 76  1  0
 78 52  1  0
 78 79  1  0
 78 88  1  0
 79 82  1  0
 80 84  1  0
 80 79  1  0
 81 80  2  0
 84 83  1  0
 86 84  1  0
 86 87  1  0
 86 85  1  0
 88 91  1  1
 88 89  1  0
 90 88  1  0
M  ISO  4  12 100  20 100  50 101  51 101
M  END
>  <TORSDO>  (12) 
F 18

>  <SCORE>  (12) 
-14.693

>  <name>  (12) 
11

>  <ligand_id>  (12) 
11

>  <original_smiles>  (12) 
[H]c1c([H])c([H])c2c(c1[H])C([H])([H])C([H])([H])C([H])([H])C2([H])N([H])C(=O)C1([H])N(C(=O)C([H])(N([H])C(=O)C([H])(N([H])C([H])([H])[H])C([H])([H])[H])C(C([H])([H])[H])(C([H])([H])[H])C([H])([H])[H])C([H])([H])c2c([H])c(OC([H])([H])C(=O)N3C([H])([H])C([H])([H])N(C(=O)C([H])([H])N([H])C(=O)N4C([H])([H])C([H])([H])C([H])([H])C([H])(n5nc(-c6c([H])c([H])c(Oc7c([H])c([H])c(F)c([H])c7F)c([H])c6[H])c(C(=O)N([H])[H])c5N([H])[H])C4([H])[H])C([H])([H])C3([H])[H])c([H])c([H])c2C1([H])[H]

>  <smiles>  (12) 
[H]c1c([H])c([H])c2c(c1[H])C([H])([H])C([H])([H])C([H])([H])C2([H])N([H])C(=O)C1([H])N(C(=O)C([H])(N([H])C(=O)C([H])(N([H])C([H])([H])[H])C([H])([H])[H])C(C([H])([H])[H])(C([H])([H])[H])C([H])([H])[H])C([H])([H])c2c([H])c(OC([H])([H])C(=O)N3C([H])([H])C([H])([H])N(C(=O)C([H])([H])N([H])C(=O)N4C([H])([H])C([H])([H])C([H])([H])C([H])(n5nc(-c6c([H])c([H])c(Oc7c([H])c([H])c(F)c([H])c7F)c([H])c6[H])c(C(=O)N([H])[H])c5N([H])[H])C4([H])[H])C([H])([H])C3([H])[H])c([H])c([H])c2C1([H])[H]

$$$$
12:0:0
     RDKit          3D

 87 94  0  0  1  0  0  0  0  0999 V2000
  -29.1770  -19.7480   20.0010 C   0  0  0  0  0  0  0  0  0  0  0  0
  -29.0550  -21.1280   20.5480 N   0  0  0  0  0  0  0  0  0  0  0  0
  -28.8260  -19.6230   18.8280 O   0  0  0  0  0  0  0  0  0  0  0  0
  -29.2990  -21.1410   21.5310 H   0  0  0  0  0  0  0  0  0  0  0  0
  -31.3310  -18.4880   20.7550 C   0  0  0  0  0  1  0  0  0  0  0  0
  -29.8120  -18.2540   20.6910 C   0  0  0  0  0  3  0  0  0  0  0  0
  -30.3810  -15.3300   20.2710 C   0  0  0  0  0  0  0  0  0  0  0  0
  -30.3620  -12.8880   19.3580 C   0  0  0  0  0  2  0  0  0  0  0  0
  -29.4350  -12.6640   18.1370 C   0  0  0  0  0  2  0  0  0  0  0  0
  -27.9910  -12.3830   18.5890 C   0  0  0  0  0  2  0  0  0  0  0  0
  -27.5400  -13.3440   19.7160 C   0  0  0  0  0  3  0  0  0  0  0  0
  -28.5940  -13.5020   20.8320 C   0  0  0  0  0  2  0  0  0  0  0  0
  -29.8090  -14.0260   20.1830 N   0  0  0  0  0  0  0  0  0  0  0  0
  -31.6100  -15.3100   20.1030 O   0  0  0  0  0  0  0  0  0  0  0  0
  -29.6170  -16.6090   20.3670 N   0  0  0  0  0  0  0  0  0  0  0  0
  -28.6310  -16.3970   20.3270 H   0  0  0  0  0  0  0  0  0  0  0  0
  -25.1710  -13.8920   20.4800 C   0  0  0  0  0  0  0  0  0  0  0  0
  -24.1140  -13.1110   20.8520 C   0  0  0  0  0  0  0  0  0  0  0  0
  -24.5880  -11.7630   20.8230 C   0  0  0  0  0  0  0  0  0  0  0  0
  -26.2170  -13.0210   20.2340 N   0  0  0  0  0  0  0  0  0  0  0  0
  -25.8790  -11.7340   20.5100 N   0  0  0  0  0  0  0  0  0  0  0  0
  -23.8660  -10.4970   21.0130 C   0  0  0  0  0  0  0  0  0  0  0  0
  -24.2950   -9.5360   21.9550 C   0  0  0  0  0  3  0  0  0  0  0  0
  -23.5690   -8.3380   22.1350 C   0  0  0  0  0  3  0  0  0  0  0  0
  -22.4020   -8.0930   21.3740 C   0  0  0  0  0  0  0  0  0  0  0  0
  -21.9940   -9.0430   20.4210 C   0  0  0  0  0  3  0  0  0  0  0  0
  -22.7190  -10.2320   20.2380 C   0  0  0  0  0  3  0  0  0  0  0  0
  -21.6490   -6.9460   21.4620 O   0  0  0  0  0  0  0  0  0  0  0  0
  -21.5880   -6.2150   22.6210 C   0  0  0  0  0  0  0  0  0  0  0  0
  -21.1350   -6.7770   23.8340 C   0  0  0  0  0  3  0  0  0  0  0  0
  -21.0210   -5.9710   24.9840 C   0  0  0  0  0  3  0  0  0  0  0  0
  -21.3480   -4.6040   24.9230 C   0  0  0  0  0  0  0  0  0  0  0  0
  -21.7950   -4.0410   23.7150 C   0  0  0  0  0  3  0  0  0  0  0  0
  -21.9100   -4.8440   22.5660 C   0  0  0  0  0  0  0  0  0  0  0  0
  -22.3200   -4.2910   21.3990 F   0  0  0  0  0  0  0  0  0  0  0  0
  -21.2320   -3.8280   26.0260 F   0  0  0  0  0  0  0  0  0  0  0  0
  -22.7150  -13.5820   21.1160 C   0  0  0  0  0  0  0  0  0  0  0  0
  -21.9850  -12.8830   21.9780 N   0  0  0  0  0  0  0  0  0  0  0  0
  -22.2770  -14.6070   20.5940 O   0  0  0  0  0  0  0  0  0  0  0  0
  -22.3540  -12.0560   22.4230 H   0  0  0  0  0  0  0  0  0  0  0  0
  -21.0450  -13.1810   22.1990 H   0  0  0  0  0  0  0  0  0  0  0  0
  -25.3230  -15.2640   20.2980 N   0  0  0  0  0  0  0  0  0  0  0  0
  -24.5460  -15.9070   20.4030 H   0  0  0  0  0  0  0  0  0  0  0  0
  -26.1520  -15.7050   19.9220 H   0  0  0  0  0  0  0  0  0  0  0  0
  -28.8450  -22.6990   19.9660 C   0  0  0  0  0  2  0  0  0  0  0  0
  -28.0870  -24.2320   20.5820 C   0  0  0  0  0  2  0  0  0  0  0  0
  -28.2550  -25.8650   20.3110 O   0  0  0  0  0  0  0  0  0  0  0  0
  -24.6380  -31.8680   23.2360 C   0  0  0  0  0  0  0  0  0  0  0  0
  -27.2220  -26.9480   20.3000 C   0  0  0  0  0  0  0  0  0  0  0  0
  -23.4570  -30.4490   21.6080 C   0  0  0  0  0  3  0  0  0  0  0  0
  -24.9170  -28.8260   20.2180 C   0  0  0  0  0  0  0  0  0  0  0  0
  -26.0250  -30.6630   21.4710 C   0  0  0  0  0  2  0  0  0  0  0  0
  -26.1030  -29.2430   20.8360 C   0  0  0  0  0  0  0  0  0  0  0  0
  -27.2520  -28.3280   20.8450 C   0  0  0  0  0  3  0  0  0  0  0  0
  -26.0020  -26.6820   19.6400 C   0  0  0  0  0  3  0  0  0  0  0  0
  -24.8920  -27.5660   19.5990 C   0  0  0  0  0  3  0  0  0  0  0  0
  -23.6970  -29.7470   20.2430 C   0  0  0  0  0  2  0  0  0  0  0  0
  -24.7280  -31.0220   22.1590 N   0  0  0  0  0  0  0  0  0  0  0  0
  -23.5440  -32.1600   23.7480 O   0  0  0  0  0  0  0  0  0  0  0  0
  -22.7590  -29.4640   22.5820 C   0  0  0  0  0  0  0  0  0  0  0  0
  -21.4290  -29.3000   22.4570 N   0  0  0  0  0  0  0  0  0  0  0  0
  -23.4230  -28.8460   23.4190 O   0  0  0  0  0  0  0  0  0  0  0  0
  -20.9470  -29.8490   21.7580 H   0  0  0  0  0  0  0  0  0  0  0  0
  -18.0450  -28.0940   22.9700 C   0  0  0  0  0  0  0  0  0  0  0  0
  -20.6050  -28.3690   23.2350 C   0  0  0  0  0  3  0  0  0  0  0  0
  -20.7100  -26.9320   22.6750 C   0  0  0  0  0  2  0  0  0  0  0  0
  -19.6100  -26.5970   21.6620 C   0  0  0  0  0  2  0  0  0  0  0  0
  -18.2270  -26.7410   22.3020 C   0  0  0  0  0  2  0  0  0  0  0  0
  -19.1610  -28.8650   23.3930 C   0  0  0  0  0  0  0  0  0  0  0  0
  -18.9340  -30.1290   23.9800 C   0  0  0  0  0  3  0  0  0  0  0  0
  -17.6270  -30.6230   24.1460 C   0  0  0  0  0  3  0  0  0  0  0  0
  -16.5270  -29.8510   23.7360 C   0  0  0  0  0  3  0  0  0  0  0  0
  -16.7360  -28.5880   23.1540 C   0  0  0  0  0  3  0  0  0  0  0  0
  -25.9030  -32.5220   23.8700 C   0  0  0  0  0  3  0  0  0  0  0  0
  -26.3990  -31.7780   25.1700 C   0  0  1  0  0  0  0  0  0  0  0  0
  -25.2910  -31.5630   26.2280 C   0  0  0  0  0  1  0  0  0  0  0  0
  -26.9880  -30.3920   24.8250 C   0  0  0  0  0  1  0  0  0  0  0  0
  -27.5400  -32.5860   25.8330 C   0  0  0  0  0  1  0  0  0  0  0  0
  -25.5790  -33.9250   24.1820 N   0  0  0  0  0  0  0  0  0  0  0  0
  -25.9180  -34.9790   23.4280 C   0  0  0  0  0  0  0  0  0  0  0  0
  -26.5980  -34.8730   22.4040 O   0  0  0  0  0  0  0  0  0  0  0  0
  -24.9750  -34.0820   24.9760 H   0  0  0  0  0  0  0  0  0  0  0  0
  -24.1960  -36.7800   23.0550 C   0  0  0  0  0  1  0  0  0  0  0  0
  -25.4290  -36.3720   23.8780 C   0  0  0  0  0  3  0  0  0  0  0  0
  -27.5550  -37.2630   24.7290 C   0  0  0  0  0  1  0  0  0  0  0  0
  -26.4640  -37.4250   23.7710 N   0  0  0  0  0  0  0  0  0  0  0  0
  -26.0560  -38.3460   23.9080 H   0  0  0  0  0  0  0  0  0  0  0  0
  1  2  1  0
  1  6  1  0
  2  4  1  0
  3  1  2  0
  6  5  1  0
  7 15  1  0
  8 13  1  0
  9 10  1  0
  9  8  1  0
 11 10  1  0
 11 20  1  0
 11 12  1  0
 13  7  1  0
 13 12  1  0
 14  7  2  0
 15  6  1  0
 16 15  1  0
 17 18  2  0
 18 37  1  0
 19 18  1  0
 19 22  1  0
 20 17  1  0
 20 21  1  0
 21 19  2  0
 22 23  1  0
 23 24  2  0
 25 28  1  0
 25 24  1  0
 26 25  2  0
 27 26  1  0
 27 22  2  0
 28 29  1  0
 29 30  1  0
 30 31  2  0
 32 31  1  0
 32 36  1  0
 33 32  2  0
 34 29  2  0
 34 33  1  0
 35 34  1  0
 37 38  1  0
 38 41  1  0
 38 40  1  0
 39 37  2  0
 42 43  1  0
 42 17  1  0
 44 42  1  0
 45  2  1  0
 45 46  1  0
 47 46  1  0
 48 59  2  0
 49 47  1  0
 49 54  1  0
 50 58  1  0
 50 60  1  0
 51 57  1  0
 51 53  1  0
 52 58  1  0
 53 54  2  0
 53 52  1  0
 55 49  2  0
 56 55  1  0
 56 51  2  0
 57 50  1  0
 58 48  1  0
 60 62  2  0
 61 60  1  0
 63 61  1  0
 64 73  2  0
 64 69  1  0
 65 61  1  0
 65 69  1  0
 66 65  1  0
 67 68  1  0
 67 66  1  0
 68 64  1  0
 69 70  2  0
 70 71  1  0
 72 71  2  0
 73 72  1  0
 74 48  1  0
 74 79  1  0
 74 75  1  0
 75 78  1  1
 75 76  1  0
 77 75  1  0
 79 82  1  0
 80 84  1  0
 80 79  1  0
 81 80  2  0
 84 83  1  0
 86 84  1  0
 86 87  1  0
 86 85  1  0
M  ISO  4   7 100  15 100  46 101  47 101
M  END
>  <TORSDO>  (13) 
F 19

>  <SCORE>  (13) 
-16.531

>  <name>  (13) 
12

>  <ligand_id>  (13) 
12

>  <original_smiles>  (13) 
[H]c1c([H])c([H])c2c(c1[H])C([H])([H])C([H])([H])C([H])([H])C2([H])N([H])C(=O)C1([H])N(C(=O)C([H])(N([H])C(=O)C([H])(N([H])C([H])([H])[H])C([H])([H])[H])C(C([H])([H])[H])(C([H])([H])[H])C([H])([H])[H])C([H])([H])c2c([H])c(OC([H])([H])C([H])([H])N([H])C(=O)C([H])(N([H])C(=O)N3C([H])([H])C([H])([H])C([H])([H])C([H])(n4nc(-c5c([H])c([H])c(Oc6c([H])c([H])c(F)c([H])c6F)c([H])c5[H])c(C(=O)N([H])[H])c4N([H])[H])C3([H])[H])C([H])([H])[H])c([H])c([H])c2C1([H])[H]

>  <smiles>  (13) 
[H]c1c([H])c([H])c2c(c1[H])C([H])([H])C([H])([H])C([H])([H])C2([H])N([H])C(=O)C1([H])N(C(=O)C([H])(N([H])C(=O)C([H])(N([H])C([H])([H])[H])C([H])([H])[H])C(C([H])([H])[H])(C([H])([H])[H])C([H])([H])[H])C([H])([H])c2c([H])c(OC([H])([H])C([H])([H])N([H])C(=O)C([H])(N([H])C(=O)N3C([H])([H])C([H])([H])C([H])([H])C([H])(n4nc(-c5c([H])c([H])c(Oc6c([H])c([H])c(F)c([H])c6F)c([H])c5[H])c(C(=O)N([H])[H])c4N([H])[H])C3([H])[H])C([H])([H])[H])c([H])c([H])c2C1([H])[H]

$$$$
13:0:0
     RDKit          3D

 96 96  0  0  1  0  0  0  0  0999 V2000
  -20.6840  -27.3550   21.3530 C   0  0  0  0  0  1  0  0  0  0  0  0
  -21.3740  -28.3970   22.3360 C   0  0  0  0  0  0  0  0  0  0  0  0
  -21.5530  -29.6590   21.9440 N   0  0  0  0  0  0  0  0  0  0  0  0
  -21.7850  -28.0470   23.4390 O   0  0  0  0  0  0  0  0  0  0  0  0
  -21.2080  -29.9990   21.0590 H   0  0  0  0  0  0  0  0  0  0  0  0
  -22.0020  -30.3130   22.5690 H   0  0  0  0  0  0  0  0  0  0  0  0
  -19.1730  -24.1660   22.2240 C   0  0  0  0  0  2  0  0  0  0  0  0
  -19.2590  -25.9230   22.1640 N   0  0  0  0  0  2  0  0  0  0  0  0
  -18.1820  -23.7560   22.8280 O   0  0  0  0  0  1  0  0  0  0  0  0
  -18.5010  -26.3800   22.6510 H   0  0  0  0  0  0  0  0  0  0  0  0
  -20.3470  -22.5640   21.5000 C   0  0  0  0  0 15  0  0  0  0  0  0
  -20.7860  -20.4970   20.9750 C   0  0  0  0  0 15  0  0  0  0  0  0
  -22.0100  -18.6970   21.1060 C   0  0  0  0  0 15  0  0  0  0  0  0
  -22.5870  -16.7090   20.4220 C   0  0  0  0  0 15  0  0  0  0  0  0
  -24.0490  -11.6770   20.5770 C   0  0  0  0  0  0  0  0  0  0  0  0
  -25.5910   -9.3140   20.8220 C   0  0  0  0  0  2  0  0  0  0  0  0
  -26.7130   -9.1590   21.9280 C   0  0  0  0  0  2  0  0  0  0  0  0
  -27.9650   -9.9700   21.5760 C   0  0  0  0  0  2  0  0  0  0  0  0
  -27.5100  -11.2940   20.9370 C   0  0  0  0  0  3  0  0  0  0  0  0
  -26.5240  -11.1460   19.7680 C   0  0  0  0  0  2  0  0  0  0  0  0
  -25.2600  -10.8000   20.3870 N   0  0  0  0  0  0  0  0  0  0  0  0
  -23.2090  -10.7740   20.8900 O   0  0  0  0  0  0  0  0  0  0  0  0
  -22.8690  -14.6940   20.7840 C   0  0  0  0  0  2  0  0  0  0  0  0
  -23.8220  -13.3460   20.4780 N   0  0  0  0  0  0  0  0  0  0  0  0
  -21.9280  -14.3480   21.5020 O   0  0  0  0  0  1  0  0  0  0  0  0
  -24.6540  -13.7050   20.0320 H   0  0  0  0  0  0  0  0  0  0  0  0
  -28.4210  -13.4060   19.9630 C   0  0  0  0  0  0  0  0  0  0  0  0
  -29.6890  -13.8500   19.7500 C   0  0  0  0  0  0  0  0  0  0  0  0
  -30.5580  -12.8030   20.1910 C   0  0  0  0  0  0  0  0  0  0  0  0
  -28.5700  -12.1610   20.5320 N   0  0  0  0  0  0  0  0  0  0  0  0
  -29.8580  -11.7550   20.6020 N   0  0  0  0  0  0  0  0  0  0  0  0
  -32.0150  -12.7660   20.3090 C   0  0  0  0  0  0  0  0  0  0  0  0
  -32.7450  -11.5710   20.1220 C   0  0  0  0  0  3  0  0  0  0  0  0
  -34.1520  -11.5760   20.2210 C   0  0  0  0  0  3  0  0  0  0  0  0
  -34.8390  -12.7790   20.5070 C   0  0  0  0  0  0  0  0  0  0  0  0
  -34.1040  -13.9580   20.7180 C   0  0  0  0  0  3  0  0  0  0  0  0
  -32.7040  -13.9530   20.6240 C   0  0  0  0  0  3  0  0  0  0  0  0
  -36.2010  -12.8750   20.6460 O   0  0  0  0  0  0  0  0  0  0  0  0
  -37.0260  -11.8070   20.3980 C   0  0  0  0  0  0  0  0  0  0  0  0
  -37.0440  -11.1540   19.1450 C   0  0  0  0  0  3  0  0  0  0  0  0
  -37.9560  -10.1060   18.9120 C   0  0  0  0  0  3  0  0  0  0  0  0
  -38.8560   -9.7170   19.9230 C   0  0  0  0  0  0  0  0  0  0  0  0
  -38.8420  -10.3700   21.1680 C   0  0  0  0  0  3  0  0  0  0  0  0
  -37.9300  -11.4140   21.4030 C   0  0  0  0  0  0  0  0  0  0  0  0
  -37.9350  -12.0550   22.5970 F   0  0  0  0  0  0  0  0  0  0  0  0
  -39.7380   -8.7160   19.6960 F   0  0  0  0  0  0  0  0  0  0  0  0
  -30.0660  -15.2110   19.2590 C   0  0  0  0  0  0  0  0  0  0  0  0
  -30.9760  -15.2820   18.2960 N   0  0  0  0  0  0  0  0  0  0  0  0
  -29.5110  -16.2190   19.6960 O   0  0  0  0  0  0  0  0  0  0  0  0
  -31.4110  -14.4500   17.9260 H   0  0  0  0  0  0  0  0  0  0  0  0
  -31.2400  -16.1830   17.9210 H   0  0  0  0  0  0  0  0  0  0  0  0
  -27.1580  -13.9560   19.7470 N   0  0  0  0  0  0  0  0  0  0  0  0
  -27.0540  -14.9170   19.4400 H   0  0  0  0  0  0  0  0  0  0  0  0
  -26.3020  -13.5650   20.1200 H   0  0  0  0  0  0  0  0  0  0  0  0
  -21.7510  -26.9480   19.3830 C   0  0  0  0  0 15  0  0  0  0  0  0
  -22.4580  -25.2310   18.7560 O   0  0  0  0  0  0  0  0  0  0  0  0
  -25.7540  -27.7610   22.2940 C   0  0  0  0  0  0  0  0  0  0  0  0
  -23.6860  -24.4640   18.3680 C   0  0  0  0  0  3  0  0  0  0  0  0
  -23.9280  -27.1730   20.7240 C   0  0  0  0  0  3  0  0  0  0  0  0
  -24.4930  -26.8170   18.3310 C   0  0  0  0  0  3  0  0  0  0  0  0
  -26.1800  -26.5240   20.1530 C   0  0  0  0  0  2  0  0  0  0  0  0
  -25.3670  -25.9640   19.0010 C   0  0  0  0  0  3  0  0  0  0  0  0
  -24.9930  -24.6300   18.9360 C   0  0  0  0  0  2  0  0  0  0  0  0
  -23.6850  -24.8870   17.0750 C   0  0  0  0  0  2  0  0  0  0  0  0
  -23.7680  -26.3000   17.1990 C   0  0  0  0  0  2  0  0  0  0  0  0
  -24.0930  -27.9090   19.2810 C   0  0  0  0  0  2  0  0  0  0  0  0
  -25.3010  -27.1190   21.1760 N   0  0  0  0  0  0  0  0  0  0  0  0
  -25.0680  -28.5020   23.0230 O   0  0  0  0  0  0  0  0  0  0  0  0
  -22.9390  -25.7480   21.1070 C   0  0  0  0  0  0  0  0  0  0  0  0
  -22.1130  -24.7080   20.0890 N   0  0  1  0  0  4  0  0  0  0  0  0
  -22.6440  -25.7730   22.2620 O   0  0  0  0  0  0  0  0  0  0  0  0
  -22.0190  -23.8260   20.5720 H   0  0  0  0  0  0  0  0  0  0  0  0
  -19.6420  -24.9230   16.1360 C   0  0  0  0  0  0  0  0  0  0  0  0
  -20.7380  -24.8240   18.7700 C   0  0  0  0  0  3  0  0  0  0  0  0
  -20.1730  -23.5050   18.7920 C   0  0  0  0  0  2  0  0  0  0  0  0
  -20.0910  -22.8880   17.4340 C   0  0  0  0  0  2  0  0  0  0  0  0
  -19.0820  -23.6160   16.5620 C   0  0  0  0  0  2  0  0  0  0  0  0
  -20.4570  -25.6100   17.1040 C   0  0  0  0  0  0  0  0  0  0  0  0
  -20.9250  -26.8400   16.4110 C   0  0  0  0  0  3  0  0  0  0  0  0
  -20.7020  -27.2200   15.0320 C   0  0  0  0  0  3  0  0  0  0  0  0
  -19.8700  -26.4600   14.2030 C   0  0  0  0  0  3  0  0  0  0  0  0
  -19.3260  -25.3160   14.7930 C   0  0  0  0  0  3  0  0  0  0  0  0
  -27.1760  -27.4510   22.7440 C   0  0  0  0  0  3  0  0  0  0  0  0
  -28.0730  -27.7260   21.6180 N   0  0  0  0  0  0  0  0  0  0  0  0
  -29.0510  -26.9050   21.2220 C   0  0  0  0  0  0  0  0  0  0  0  0
  -29.3190  -25.8540   21.8110 O   0  0  0  0  0  0  0  0  0  0  0  0
  -27.8690  -28.5430   21.0600 H   0  0  0  0  0  0  0  0  0  0  0  0
  -29.6500  -26.3460   18.8410 C   0  0  0  0  0  1  0  0  0  0  0  0
  -29.8780  -27.3320   19.9960 C   0  0  0  0  0  3  0  0  0  0  0  0
  -31.6490  -28.5110   21.2250 C   0  0  0  0  0  1  0  0  0  0  0  0
  -31.3260  -27.4420   20.2830 N   0  0  0  0  0  0  0  0  0  0  0  0
  -31.8510  -27.6010   19.4280 H   0  0  0  0  0  0  0  0  0  0  0  0
  -27.5290  -28.3230   24.0020 C   0  0  1  0  0  0  0  0  0  0  0  0
  -27.4920  -29.8510   23.7480 C   0  0  0  0  0  1  0  0  0  0  0  0
  -26.5910  -28.0330   25.1960 C   0  0  0  0  0  1  0  0  0  0  0  0
  -28.9360  -27.9270   24.4810 C   0  0  0  0  0  1  0  0  0  0  0  0
  1  2  1  0
  2  4  2  0
  3  2  1  0
  3  6  1  0
  5  3  1  0
  7  9  1  0
  8  7  1  0
  8 10  1  0
 15 22  2  0
 16 17  1  0
 18 17  1  0
 19 20  1  0
 19 18  1  0
 20 21  1  0
 21 15  1  0
 21 16  1  0
 23 25  1  0
 24 15  1  0
 24 23  1  0
 26 24  1  0
 27 30  1  0
 28 27  2  0
 28 29  1  0
 29 32  1  0
 29 31  2  0
 30 31  1  0
 30 19  1  0
 32 37  1  0
 33 34  1  0
 33 32  2  0
 34 35  2  0
 35 38  1  0
 35 36  1  0
 37 36  2  0
 39 38  1  0
 39 44  1  0
 40 39  2  0
 41 40  1  0
 41 42  2  0
 42 43  1  0
 43 44  2  0
 44 45  1  0
 46 42  1  0
 47 49  2  0
 47 28  1  0
 48 47  1  0
 50 48  1  0
 51 48  1  0
 52 27  1  0
 52 54  1  0
 53 52  1  0
 56 70  1  0
 57 68  2  0
 58 64  1  0
 58 56  1  0
 58 63  1  0
 59 66  1  0
 59 69  1  0
 59 67  1  0
 60 65  1  0
 60 62  1  0
 60 66  1  0
 61 67  1  0
 62 63  1  0
 62 61  1  0
 64 65  1  0
 67 57  1  0
 69 71  2  0
 70 72  1  6
 70 69  1  0
 73 77  1  0
 73 78  1  0
 74 75  1  0
 74 70  1  0
 76 75  1  0
 77 76  1  0
 78 74  1  0
 79 78  2  0
 80 79  1  0
 81 82  1  0
 81 80  2  0
 82 73  2  0
 83 57  1  0
 83 93  1  0
 84 83  1  0
 85 84  1  0
 85 86  2  0
 87 84  1  0
 89 88  1  0
 89 91  1  0
 89 85  1  0
 91 90  1  0
 92 91  1  0
 93 96  1  1
 93 95  1  0
 94 93  1  0
M  ISO  4  15 100  24 100  55 101  56 101
M  END
>  <TORSDO>  (14) 
F 23

>  <SCORE>  (14) 
11.487

>  <name>  (14) 
13

>  <ligand_id>  (14) 
13

>  <original_smiles>  (14) 
[H]c1c([H])c([H])c2c(c1[H])C([H])([H])C([H])([H])C([H])([H])C2([H])N([H])C(=O)C1([H])N(C(=O)C([H])(N([H])C(=O)C([H])(N([H])C([H])([H])[H])C([H])([H])[H])C(C([H])([H])[H])(C([H])([H])[H])C([H])([H])[H])C([H])([H])c2c([H])c(OC([H])([H])C([H])(C(=O)N([H])[H])N([H])C(=O)C([H])([H])C([H])([H])C([H])([H])C([H])([H])C(=O)N([H])C(=O)N3C([H])([H])C([H])([H])C([H])([H])C([H])(n4nc(-c5c([H])c([H])c(Oc6c([H])c([H])c(F)c([H])c6F)c([H])c5[H])c(C(=O)N([H])[H])c4N([H])[H])C3([H])[H])c([H])c([H])c2C1([H])[H]

>  <smiles>  (14) 
[H]c1c([H])c([H])c2c(c1[H])C([H])([H])C([H])([H])C([H])([H])C2([H])N([H])C(=O)C1([H])N(C(=O)C([H])(N([H])C(=O)C([H])(N([H])C([H])([H])[H])C([H])([H])[H])C(C([H])([H])[H])(C([H])([H])[H])C([H])([H])[H])C([H])([H])c2c([H])c(OC([H])([H])C([H])(C(=O)N([H])[H])N([H])C(=O)C([H])([H])C([H])([H])C([H])([H])C([H])([H])C(=O)N([H])C(=O)N3C([H])([H])C([H])([H])C([H])([H])C([H])(n4nc(-c5c([H])c([H])c(Oc6c([H])c([H])c(F)c([H])c6F)c([H])c5[H])c(C(=O)N([H])[H])c4N([H])[H])C3([H])[H])c([H])c([H])c2C1([H])[H]

$$$$
14:0:0
     RDKit          3D

 92100  0  0  1  0  0  0  0  0999 V2000
  -28.6750  -22.1820   21.3300 C   0  0  0  0  0  2  0  0  0  0  0  0
  -29.2980  -20.3530   19.5890 C   0  0  0  0  0  3  0  0  0  0  0  0
  -29.7430  -19.9620   21.9440 C   0  0  0  0  0  3  0  0  0  0  0  0
  -29.8910  -19.1060   19.2790 C   0  0  0  0  0  3  0  0  0  0  0  0
  -30.3310  -18.7160   21.6350 C   0  0  0  0  0  3  0  0  0  0  0  0
  -29.2470  -20.8120   20.9270 C   0  0  0  0  0  0  0  0  0  0  0  0
  -30.4450  -18.2930   20.2950 C   0  0  0  0  0  0  0  0  0  0  0  0
  -31.2980  -17.0700   19.9400 C   0  0  0  0  0  2  0  0  0  0  0  0
  -31.2460  -14.6420   19.4530 C   0  0  0  0  0  0  0  0  0  0  0  0
  -30.9020  -12.3120   18.7190 C   0  0  0  0  0  2  0  0  0  0  0  0
  -29.8680  -12.2700   17.5760 C   0  0  0  0  0  2  0  0  0  0  0  0
  -28.4400  -12.1740   18.1460 C   0  0  0  0  0  2  0  0  0  0  0  0
  -28.1670  -13.2190   19.2610 C   0  0  0  0  0  3  0  0  0  0  0  0
  -29.3120  -13.2500   20.2980 C   0  0  0  0  0  2  0  0  0  0  0  0
  -30.5750  -13.4650   19.5750 N   0  0  0  0  0  0  0  0  0  0  0  0
  -32.3170  -14.7260   18.8470 O   0  0  0  0  0  0  0  0  0  0  0  0
  -30.6500  -15.7480   19.9430 N   0  0  0  0  0  0  0  0  0  0  0  0
  -29.7530  -15.6520   20.3950 H   0  0  0  0  0  0  0  0  0  0  0  0
  -25.9250  -13.9250   20.3060 C   0  0  0  0  0  0  0  0  0  0  0  0
  -24.8580  -13.1970   20.7600 C   0  0  0  0  0  0  0  0  0  0  0  0
  -25.2150  -11.8240   20.5900 C   0  0  0  0  0  0  0  0  0  0  0  0
  -26.8690  -12.9980   19.8930 N   0  0  0  0  0  0  0  0  0  0  0  0
  -26.4510  -11.7270   20.1180 N   0  0  0  0  0  0  0  0  0  0  0  0
  -24.4310  -10.5990   20.7940 C   0  0  0  0  0  0  0  0  0  0  0  0
  -24.8070   -9.6310   21.7510 C   0  0  0  0  0  3  0  0  0  0  0  0
  -24.0260   -8.4710   21.9410 C   0  0  0  0  0  3  0  0  0  0  0  0
  -22.8530   -8.2730   21.1730 C   0  0  0  0  0  0  0  0  0  0  0  0
  -22.4980   -9.2280   20.2040 C   0  0  0  0  0  3  0  0  0  0  0  0
  -23.2790  -10.3780   20.0130 C   0  0  0  0  0  3  0  0  0  0  0  0
  -22.0440   -7.1670   21.2720 O   0  0  0  0  0  0  0  0  0  0  0  0
  -21.7940   -6.5650   22.4780 C   0  0  0  0  0  0  0  0  0  0  0  0
  -21.1780   -7.2590   23.5430 C   0  0  0  0  0  3  0  0  0  0  0  0
  -20.8740   -6.5820   24.7410 C   0  0  0  0  0  3  0  0  0  0  0  0
  -21.1760   -5.2140   24.8740 C   0  0  0  0  0  0  0  0  0  0  0  0
  -21.7840   -4.5210   23.8130 C   0  0  0  0  0  3  0  0  0  0  0  0
  -22.0900   -5.1950   22.6170 C   0  0  0  0  0  0  0  0  0  0  0  0
  -22.6570   -4.5170   21.5910 F   0  0  0  0  0  0  0  0  0  0  0  0
  -20.8770   -4.5610   26.0220 F   0  0  0  0  0  0  0  0  0  0  0  0
  -23.5430  -13.7410   21.2360 C   0  0  0  0  0  0  0  0  0  0  0  0
  -22.8860  -13.0390   22.1530 N   0  0  0  0  0  0  0  0  0  0  0  0
  -23.1110  -14.8200   20.8290 O   0  0  0  0  0  0  0  0  0  0  0  0
  -23.2480  -12.1640   22.4990 H   0  0  0  0  0  0  0  0  0  0  0  0
  -22.0030  -13.3780   22.5110 H   0  0  0  0  0  0  0  0  0  0  0  0
  -26.1630  -15.2920   20.1930 N   0  0  0  0  0  0  0  0  0  0  0  0
  -25.4710  -15.9880   20.4500 H   0  0  0  0  0  0  0  0  0  0  0  0
  -27.0150  -15.6980   19.8260 H   0  0  0  0  0  0  0  0  0  0  0  0
  -28.3090  -24.5250   20.5840 C   0  0  0  0  0  0  0  0  0  0  0  0
  -28.7950  -23.2850   20.3650 N   0  0  0  0  0  0  0  0  0  0  0  0
  -27.7300  -24.8080   21.6350 O   0  0  0  0  0  0  0  0  0  0  0  0
  -29.2960  -23.1070   19.5060 H   0  0  0  0  0  0  0  0  0  0  0  0
  -28.4890  -25.6000   19.4810 C   0  0  0  0  0  2  0  0  0  0  0  0
  -28.4230  -26.9510   19.9950 O   0  0  0  0  0  0  0  0  0  0  0  0
  -24.6800  -31.9470   23.4100 C   0  0  0  0  0  0  0  0  0  0  0  0
  -27.2310  -27.6570   20.0320 C   0  0  0  0  0  0  0  0  0  0  0  0
  -23.4280  -30.6420   21.7240 C   0  0  0  0  0  3  0  0  0  0  0  0
  -24.8380  -29.1770   20.1830 C   0  0  0  0  0  0  0  0  0  0  0  0
  -25.9480  -31.0030   21.4790 C   0  0  0  0  0  2  0  0  0  0  0  0
  -26.0130  -29.6650   20.7680 C   0  0  0  0  0  0  0  0  0  0  0  0
  -27.2080  -28.9130   20.6860 C   0  0  0  0  0  3  0  0  0  0  0  0
  -26.0310  -27.1860   19.4490 C   0  0  0  0  0  3  0  0  0  0  0  0
  -24.8430  -27.9370   19.5210 C   0  0  0  0  0  3  0  0  0  0  0  0
  -23.6000  -30.0380   20.3040 C   0  0  0  0  0  2  0  0  0  0  0  0
  -24.7060  -31.2070   22.2640 N   0  0  0  0  0  0  0  0  0  0  0  0
  -23.6130  -32.1920   23.9910 O   0  0  0  0  0  0  0  0  0  0  0  0
  -22.7960  -29.5710   22.6430 C   0  0  0  0  0  0  0  0  0  0  0  0
  -21.4890  -29.3230   22.4610 N   0  0  0  0  0  0  0  0  0  0  0  0
  -23.4800  -28.9690   23.4740 O   0  0  0  0  0  0  0  0  0  0  0  0
  -20.9940  -29.8630   21.7650 H   0  0  0  0  0  0  0  0  0  0  0  0
  -18.1960  -27.8610   22.7250 C   0  0  0  0  0  0  0  0  0  0  0  0
  -20.6950  -28.3300   23.1860 C   0  0  0  0  0  3  0  0  0  0  0  0
  -20.9580  -26.9060   22.6430 C   0  0  0  0  0  2  0  0  0  0  0  0
  -19.9680  -26.4840   21.5530 C   0  0  0  0  0  2  0  0  0  0  0  0
  -18.5330  -26.5220   22.0880 C   0  0  0  0  0  2  0  0  0  0  0  0
  -19.2120  -28.7170   23.2250 C   0  0  0  0  0  0  0  0  0  0  0  0
  -18.8470  -29.9660   23.7730 C   0  0  0  0  0  3  0  0  0  0  0  0
  -17.4980  -30.3600   23.8290 C   0  0  0  0  0  3  0  0  0  0  0  0
  -16.4950  -29.5040   23.3450 C   0  0  0  0  0  3  0  0  0  0  0  0
  -16.8440  -28.2550   22.7980 C   0  0  0  0  0  3  0  0  0  0  0  0
  -25.9850  -32.5390   24.0300 C   0  0  0  0  0  3  0  0  0  0  0  0
  -26.4950  -31.7310   25.2850 C   0  0  1  0  0  0  0  0  0  0  0  0
  -25.4000  -31.4690   26.3430 C   0  0  0  0  0  1  0  0  0  0  0  0
  -27.0690  -30.3620   24.8500 C   0  0  0  0  0  1  0  0  0  0  0  0
  -27.6510  -32.4980   25.9720 C   0  0  0  0  0  1  0  0  0  0  0  0
  -25.7110  -33.9360   24.3900 N   0  0  0  0  0  0  0  0  0  0  0  0
  -26.0560  -34.9950   23.6430 C   0  0  0  0  0  0  0  0  0  0  0  0
  -26.7110  -34.8950   22.6020 O   0  0  0  0  0  0  0  0  0  0  0  0
  -25.1380  -34.0910   25.2050 H   0  0  0  0  0  0  0  0  0  0  0  0
  -24.3580  -36.8220   23.3340 C   0  0  0  0  0  1  0  0  0  0  0  0
  -25.6000  -36.3850   24.1270 C   0  0  0  0  0  3  0  0  0  0  0  0
  -27.7540  -37.2210   24.9520 C   0  0  0  0  0  1  0  0  0  0  0  0
  -26.6490  -37.4210   24.0180 N   0  0  0  0  0  0  0  0  0  0  0  0
  -26.2610  -38.3470   24.1800 H   0  0  0  0  0  0  0  0  0  0  0  0
  2  6  1  0
  4  2  2  0
  4  7  1  0
  5  3  1  0
  6  1  1  0
  6  3  2  0
  7  5  2  0
  8 17  1  0
  8  7  1  0
  9 15  1  0
  9 17  1  0
 10 15  1  0
 11 12  1  0
 11 10  1  0
 13 12  1  0
 13 22  1  0
 13 14  1  0
 15 14  1  0
 16  9  2  0
 17 18  1  0
 19 20  2  0
 20 39  1  0
 21 20  1  0
 21 24  1  0
 22 23  1  0
 22 19  1  0
 23 21  2  0
 24 25  1  0
 25 26  2  0
 27 30  1  0
 27 26  1  0
 28 27  2  0
 29 28  1  0
 29 24  2  0
 30 31  1  0
 31 36  2  0
 31 32  1  0
 32 33  2  0
 33 34  1  0
 34 38  1  0
 35 34  2  0
 36 35  1  0
 37 36  1  0
 39 40  1  0
 40 42  1  0
 40 43  1  0
 41 39  2  0
 44 19  1  0
 44 45  1  0
 46 44  1  0
 47 49  2  0
 48 47  1  0
 48  1  1  0
 50 48  1  0
 51 52  1  0
 51 47  1  0
 52 54  1  0
 53 64  2  0
 54 59  1  0
 55 63  1  0
 55 65  1  0
 56 62  1  0
 56 58  1  0
 57 63  1  0
 58 57  1  0
 59 58  2  0
 60 61  1  0
 60 54  2  0
 61 56  2  0
 62 55  1  0
 63 53  1  0
 65 67  2  0
 66 65  1  0
 68 66  1  0
 69 78  2  0
 69 74  1  0
 70 66  1  0
 70 74  1  0
 71 70  1  0
 72 73  1  0
 72 71  1  0
 73 69  1  0
 74 75  2  0
 75 76  1  0
 77 76  2  0
 78 77  1  0
 79 53  1  0
 79 84  1  0
 79 80  1  0
 80 83  1  1
 80 81  1  0
 82 80  1  0
 84 87  1  0
 85 89  1  0
 85 84  1  0
 86 85  2  0
 89 88  1  0
 91 89  1  0
 91 92  1  0
 91 90  1  0
M  ISO  4   9 100  17 100  51 101  52 101
M  END
>  <TORSDO>  (15) 
F 20

>  <SCORE>  (15) 
-12.266

>  <name>  (15) 
14

>  <ligand_id>  (15) 
14

>  <original_smiles>  (15) 
[H]c1c([H])c([H])c2c(c1[H])C([H])([H])C([H])([H])C([H])([H])C2([H])N([H])C(=O)C1([H])N(C(=O)C([H])(N([H])C(=O)C([H])(N([H])C([H])([H])[H])C([H])([H])[H])C(C([H])([H])[H])(C([H])([H])[H])C([H])([H])[H])C([H])([H])c2c([H])c(OC([H])([H])C(=O)N([H])C([H])([H])c3c([H])c([H])c(C([H])([H])N([H])C(=O)N4C([H])([H])C([H])([H])C([H])([H])C([H])(n5nc(-c6c([H])c([H])c(Oc7c([H])c([H])c(F)c([H])c7F)c([H])c6[H])c(C(=O)N([H])[H])c5N([H])[H])C4([H])[H])c([H])c3[H])c([H])c([H])c2C1([H])[H]

>  <smiles>  (15) 
[H]c1c([H])c([H])c2c(c1[H])C([H])([H])C([H])([H])C([H])([H])C2([H])N([H])C(=O)C1([H])N(C(=O)C([H])(N([H])C(=O)C([H])(N([H])C([H])([H])[H])C([H])([H])[H])C(C([H])([H])[H])(C([H])([H])[H])C([H])([H])[H])C([H])([H])c2c([H])c(OC([H])([H])C(=O)N([H])C([H])([H])c3c([H])c([H])c(C([H])([H])N([H])C(=O)N4C([H])([H])C([H])([H])C([H])([H])C([H])(n5nc(-c6c([H])c([H])c(Oc7c([H])c([H])c(F)c([H])c7F)c([H])c6[H])c(C(=O)N([H])[H])c5N([H])[H])C4([H])[H])c([H])c3[H])c([H])c([H])c2C1([H])[H]

$$$$
15:0:0
     RDKit          3D

 92100  0  0  1  0  0  0  0  0999 V2000
  -29.7460  -17.6580   20.4100 C   0  0  0  0  0  0  0  0  0  0  0  0
  -29.4880  -19.8620   19.2910 C   0  0  0  0  0  2  0  0  0  0  0  0
  -30.9480  -19.7070   21.2440 C   0  0  0  0  0  2  0  0  0  0  0  0
  -28.8350  -21.1430   19.8610 C   0  0  0  0  0  2  0  0  0  0  0  0
  -30.3010  -20.9850   21.8260 C   0  0  0  0  0  2  0  0  0  0  0  0
  -30.0200  -18.9910   20.3540 N   0  0  0  0  0  0  0  0  0  0  0  0
  -29.7440  -21.8830   20.7760 N   0  0  2  0  0  4  0  0  0  0  0  0
  -28.9500  -17.1230   19.6310 O   0  0  0  0  0  0  0  0  0  0  0  0
  -30.5350  -22.1870   20.2280 H   0  0  0  0  0  0  0  0  0  0  0  0
  -30.4330  -16.7670   21.4700 C   0  0  0  0  0  2  0  0  0  0  0  0
  -30.6810  -14.4420   20.5660 C   0  0  0  0  0  0  0  0  0  0  0  0
  -30.3610  -12.3390   19.3150 C   0  0  0  0  0  2  0  0  0  0  0  0
  -29.4170  -12.5850   18.1210 C   0  0  0  0  0  2  0  0  0  0  0  0
  -27.9430  -12.4500   18.5460 C   0  0  0  0  0  2  0  0  0  0  0  0
  -27.6150  -13.2550   19.8310 C   0  0  0  0  0  3  0  0  0  0  0  0
  -28.6630  -12.9740   20.9310 C   0  0  0  0  0  2  0  0  0  0  0  0
  -29.9970  -13.2820   20.3820 N   0  0  0  0  0  0  0  0  0  0  0  0
  -31.7530  -14.6930   20.0080 O   0  0  0  0  0  0  0  0  0  0  0  0
  -30.0700  -15.3470   21.3440 N   0  0  0  0  0  0  0  0  0  0  0  0
  -29.1850  -15.0710   21.7400 H   0  0  0  0  0  0  0  0  0  0  0  0
  -25.2110  -13.8720   20.5160 C   0  0  0  0  0  0  0  0  0  0  0  0
  -24.1390  -13.1030   20.8820 C   0  0  0  0  0  0  0  0  0  0  0  0
  -24.5970  -11.7510   20.8610 C   0  0  0  0  0  0  0  0  0  0  0  0
  -26.2560  -12.9880   20.2990 N   0  0  0  0  0  0  0  0  0  0  0  0
  -25.8890  -11.7070   20.5600 N   0  0  0  0  0  0  0  0  0  0  0  0
  -23.8680  -10.4890   21.0540 C   0  0  0  0  0  0  0  0  0  0  0  0
  -24.3040   -9.5190   21.9830 C   0  0  0  0  0  3  0  0  0  0  0  0
  -23.5770   -8.3240   22.1630 C   0  0  0  0  0  3  0  0  0  0  0  0
  -22.4000   -8.0890   21.4130 C   0  0  0  0  0  0  0  0  0  0  0  0
  -21.9840   -9.0470   20.4730 C   0  0  0  0  0  3  0  0  0  0  0  0
  -22.7120  -10.2350   20.2910 C   0  0  0  0  0  3  0  0  0  0  0  0
  -21.6440   -6.9440   21.5020 O   0  0  0  0  0  0  0  0  0  0  0  0
  -21.6080   -6.1930   22.6490 C   0  0  0  0  0  0  0  0  0  0  0  0
  -21.2120   -6.7420   23.8880 C   0  0  0  0  0  3  0  0  0  0  0  0
  -21.1230   -5.9180   25.0270 C   0  0  0  0  0  3  0  0  0  0  0  0
  -21.4190   -4.5450   24.9290 C   0  0  0  0  0  0  0  0  0  0  0  0
  -21.8080   -3.9950   23.6950 C   0  0  0  0  0  3  0  0  0  0  0  0
  -21.8990   -4.8170   22.5580 C   0  0  0  0  0  0  0  0  0  0  0  0
  -22.2540   -4.2780   21.3660 F   0  0  0  0  0  0  0  0  0  0  0  0
  -21.3260   -3.7500   26.0210 F   0  0  0  0  0  0  0  0  0  0  0  0
  -22.7400  -13.5830   21.1460 C   0  0  0  0  0  0  0  0  0  0  0  0
  -22.0070  -12.8910   22.0120 N   0  0  0  0  0  0  0  0  0  0  0  0
  -22.3050  -14.6070   20.6200 O   0  0  0  0  0  0  0  0  0  0  0  0
  -22.3710  -12.0640   22.4600 H   0  0  0  0  0  0  0  0  0  0  0  0
  -21.0690  -13.1950   22.2310 H   0  0  0  0  0  0  0  0  0  0  0  0
  -25.3800  -15.2420   20.3330 N   0  0  0  0  0  0  0  0  0  0  0  0
  -24.6150  -15.9000   20.4310 H   0  0  0  0  0  0  0  0  0  0  0  0
  -26.2390  -15.6740   20.0130 H   0  0  0  0  0  0  0  0  0  0  0  0
  -29.1340  -23.1190   21.3560 C   0  0  0  0  0  2  0  0  0  0  0  0
  -29.0680  -24.3330   20.3920 C   0  0  0  0  0  2  0  0  0  0  0  0
  -28.4450  -25.5790   21.0650 C   0  0  0  0  0  2  0  0  0  0  0  0
  -28.4820  -26.7380   20.2200 O   0  0  0  0  0  0  0  0  0  0  0  0
  -24.6160  -31.9010   23.2470 C   0  0  0  0  0  0  0  0  0  0  0  0
  -27.3190  -27.4710   20.2170 C   0  0  0  0  0  0  0  0  0  0  0  0
  -23.4350  -30.4860   21.5970 C   0  0  0  0  0  3  0  0  0  0  0  0
  -24.9130  -28.9490   20.1960 C   0  0  0  0  0  0  0  0  0  0  0  0
  -25.9590  -30.8630   21.4210 C   0  0  0  0  0  2  0  0  0  0  0  0
  -26.0610  -29.4890   20.7910 C   0  0  0  0  0  0  0  0  0  0  0  0
  -27.2700  -28.7580   20.7970 C   0  0  0  0  0  3  0  0  0  0  0  0
  -26.1580  -26.9390   19.6190 C   0  0  0  0  0  3  0  0  0  0  0  0
  -24.9550  -27.6720   19.6070 C   0  0  0  0  0  3  0  0  0  0  0  0
  -23.6620  -29.7990   20.2240 C   0  0  0  0  0  2  0  0  0  0  0  0
  -24.6870  -31.0990   22.1470 N   0  0  0  0  0  0  0  0  0  0  0  0
  -23.5290  -32.1700   23.7740 O   0  0  0  0  0  0  0  0  0  0  0  0
  -22.7790  -29.4670   22.5560 C   0  0  0  0  0  0  0  0  0  0  0  0
  -21.4560  -29.2780   22.4140 N   0  0  0  0  0  0  0  0  0  0  0  0
  -23.4560  -28.8470   23.3810 O   0  0  0  0  0  0  0  0  0  0  0  0
  -20.9710  -29.8290   21.7210 H   0  0  0  0  0  0  0  0  0  0  0  0
  -18.0830  -28.0680   22.8730 C   0  0  0  0  0  0  0  0  0  0  0  0
  -20.6350  -28.3400   23.1790 C   0  0  0  0  0  3  0  0  0  0  0  0
  -20.7530  -26.9070   22.6120 C   0  0  0  0  0  2  0  0  0  0  0  0
  -19.6670  -26.5730   21.5840 C   0  0  0  0  0  2  0  0  0  0  0  0
  -18.2760  -26.7160   22.2080 C   0  0  0  0  0  2  0  0  0  0  0  0
  -19.1920  -28.8380   23.3150 C   0  0  0  0  0  0  0  0  0  0  0  0
  -18.9590  -30.1040   23.8940 C   0  0  0  0  0  3  0  0  0  0  0  0
  -17.6500  -30.6000   24.0380 C   0  0  0  0  0  3  0  0  0  0  0  0
  -16.5550  -29.8280   23.6130 C   0  0  0  0  0  3  0  0  0  0  0  0
  -16.7730  -28.5630   23.0370 C   0  0  0  0  0  3  0  0  0  0  0  0
  -25.8930  -32.5410   23.8780 C   0  0  0  0  0  3  0  0  0  0  0  0
  -26.4030  -31.7750   25.1600 C   0  0  1  0  0  0  0  0  0  0  0  0
  -25.3040  -31.5370   26.2200 C   0  0  0  0  0  1  0  0  0  0  0  0
  -26.9940  -30.3990   24.7740 C   0  0  0  0  0  1  0  0  0  0  0  0
  -27.5460  -32.5750   25.8280 C   0  0  0  0  0  1  0  0  0  0  0  0
  -25.5760  -33.9380   24.1980 N   0  0  0  0  0  0  0  0  0  0  0  0
  -25.9130  -34.9880   23.4350 C   0  0  0  0  0  0  0  0  0  0  0  0
  -26.5940  -34.8810   22.4130 O   0  0  0  0  0  0  0  0  0  0  0  0
  -24.9730  -34.0950   24.9920 H   0  0  0  0  0  0  0  0  0  0  0  0
  -24.1790  -36.7690   23.0520 C   0  0  0  0  0  1  0  0  0  0  0  0
  -25.4140  -36.3760   23.8800 C   0  0  0  0  0  3  0  0  0  0  0  0
  -27.5390  -37.2730   24.7240 C   0  0  0  0  0  1  0  0  0  0  0  0
  -26.4420  -37.4340   23.7720 N   0  0  0  0  0  0  0  0  0  0  0  0
  -26.0300  -38.3520   23.9160 H   0  0  0  0  0  0  0  0  0  0  0  0
  1 10  1  0
  2  4  1  0
  2  6  1  0
  3  5  1  0
  4  7  1  0
  6  1  1  0
  6  3  1  0
  7 49  1  0
  7  5  1  0
  8  1  2  0
  7  9  1  6
 11 19  1  0
 12 17  1  0
 13 14  1  0
 13 12  1  0
 15 14  1  0
 15 24  1  0
 15 16  1  0
 17 11  1  0
 17 16  1  0
 18 11  2  0
 19 10  1  0
 19 20  1  0
 21 22  2  0
 22 41  1  0
 23 22  1  0
 23 26  1  0
 24 21  1  0
 24 25  1  0
 25 23  2  0
 26 27  1  0
 27 28  2  0
 29 32  1  0
 29 28  1  0
 30 29  2  0
 31 30  1  0
 31 26  2  0
 32 33  1  0
 33 34  1  0
 34 35  2  0
 36 35  1  0
 36 40  1  0
 37 36  2  0
 38 33  2  0
 38 37  1  0
 39 38  1  0
 41 42  1  0
 42 45  1  0
 42 44  1  0
 43 41  2  0
 46 47  1  0
 46 21  1  0
 48 46  1  0
 50 51  1  0
 50 49  1  0
 52 51  1  0
 53 64  2  0
 54 52  1  0
 54 59  1  0
 55 63  1  0
 55 65  1  0
 56 62  1  0
 56 58  1  0
 57 63  1  0
 58 59  2  0
 58 57  1  0
 60 54  2  0
 61 60  1  0
 61 56  2  0
 62 55  1  0
 63 53  1  0
 65 67  2  0
 66 65  1  0
 68 66  1  0
 69 78  2  0
 69 74  1  0
 70 66  1  0
 70 74  1  0
 71 70  1  0
 72 73  1  0
 72 71  1  0
 73 69  1  0
 74 75  2  0
 75 76  1  0
 77 76  2  0
 78 77  1  0
 79 53  1  0
 79 84  1  0
 79 80  1  0
 80 83  1  1
 80 81  1  0
 82 80  1  0
 84 87  1  0
 85 89  1  0
 85 84  1  0
 86 85  2  0
 89 88  1  0
 91 89  1  0
 91 92  1  0
 91 90  1  0
M  ISO  4  11 100  19 100  51 101  52 101
M  END
>  <TORSDO>  (16) 
F 20

>  <SCORE>  (16) 
-14.142

>  <name>  (16) 
15

>  <ligand_id>  (16) 
15

>  <original_smiles>  (16) 
[H]c1c([H])c([H])c2c(c1[H])C([H])([H])C([H])([H])C([H])([H])C2([H])N([H])C(=O)C1([H])N(C(=O)C([H])(N([H])C(=O)C([H])(N([H])C([H])([H])[H])C([H])([H])[H])C(C([H])([H])[H])(C([H])([H])[H])C([H])([H])[H])C([H])([H])c2c([H])c(OC([H])([H])C([H])([H])C([H])([H])[N+]3([H])C([H])([H])C([H])([H])N(C(=O)C([H])([H])N([H])C(=O)N4C([H])([H])C([H])([H])C([H])([H])C([H])(n5nc(-c6c([H])c([H])c(Oc7c([H])c([H])c(F)c([H])c7F)c([H])c6[H])c(C(=O)N([H])[H])c5N([H])[H])C4([H])[H])C([H])([H])C3([H])[H])c([H])c([H])c2C1([H])[H]

>  <smiles>  (16) 
[H]c1c([H])c([H])c2c(c1[H])C([H])([H])C([H])([H])C([H])([H])C2([H])N([H])C(=O)C1([H])N(C(=O)C([H])(N([H])C(=O)C([H])(N([H])C([H])([H])[H])C([H])([H])[H])C(C([H])([H])[H])(C([H])([H])[H])C([H])([H])[H])C([H])([H])c2c([H])c(OC([H])([H])C([H])([H])C([H])([H])[N+]3([H])C([H])([H])C([H])([H])N(C(=O)C([H])([H])N([H])C(=O)N4C([H])([H])C([H])([H])C([H])([H])C([H])(n5nc(-c6c([H])c([H])c(Oc7c([H])c([H])c(F)c([H])c7F)c([H])c6[H])c(C(=O)N([H])[H])c5N([H])[H])C4([H])[H])C([H])([H])C3([H])[H])c([H])c([H])c2C1([H])[H]

$$$$
16:0:0
     RDKit          3D

 96103  0  0  1  0  0  0  0  0999 V2000
  -30.6810  -26.3500   20.9890 C   0  0  0  0  0  3  0  0  0  0  0  0
  -31.5280  -27.2680   20.0980 C   0  0  0  0  0  0  0  0  0  0  0  0
  -32.0830  -28.3350   20.6600 N   0  0  0  0  0  0  0  0  0  0  0  0
  -31.6890  -27.0170   18.9030 O   0  0  0  0  0  0  0  0  0  0  0  0
  -31.9470  -28.5270   21.6430 H   0  0  0  0  0  0  0  0  0  0  0  0
  -32.6540  -28.9640   20.1120 H   0  0  0  0  0  0  0  0  0  0  0  0
  -30.4180  -23.9010   21.1640 C   0  0  0  0  0  0  0  0  0  0  0  0
  -30.6480  -25.0010   20.4490 N   0  0  0  0  0  0  0  0  0  0  0  0
  -30.1380  -23.9400   22.3640 O   0  0  0  0  0  0  0  0  0  0  0  0
  -30.8700  -24.9260   19.4660 H   0  0  0  0  0  0  0  0  0  0  0  0
  -30.5190  -22.5690   20.4230 C   0  0  0  0  0  2  0  0  0  0  0  0
  -30.8230  -21.3880   21.3590 C   0  0  0  0  0  2  0  0  0  0  0  0
  -30.7480  -20.0420   20.6320 C   0  0  0  0  0  2  0  0  0  0  0  0
  -31.0620  -18.8700   21.5620 C   0  0  0  0  0  2  0  0  0  0  0  0
  -30.6760  -17.5290   20.9330 C   0  0  0  0  0  2  0  0  0  0  0  0
  -30.9580  -16.3520   21.8790 C   0  0  0  0  0  2  0  0  0  0  0  0
  -30.7410  -14.3640   20.3920 C   0  0  0  0  0  0  0  0  0  0  0  0
  -30.3160  -12.3190   19.0880 C   0  0  0  0  0  2  0  0  0  0  0  0
  -29.3410  -12.5810   17.9240 C   0  0  0  0  0  2  0  0  0  0  0  0
  -27.8800  -12.4480   18.3930 C   0  0  0  0  0  2  0  0  0  0  0  0
  -27.5920  -13.2590   19.6840 C   0  0  0  0  0  3  0  0  0  0  0  0
  -28.6680  -12.9730   20.7560 C   0  0  0  0  0  2  0  0  0  0  0  0
  -29.9950  -13.2520   20.1740 N   0  0  0  0  0  0  0  0  0  0  0  0
  -31.7440  -14.6530   19.7330 O   0  0  0  0  0  0  0  0  0  0  0  0
  -30.3310  -15.1240   21.4090 N   0  0  0  0  0  0  0  0  0  0  0  0
  -29.5140  -14.8050   21.9090 H   0  0  0  0  0  0  0  0  0  0  0  0
  -25.2070  -13.8820   20.4390 C   0  0  0  0  0  0  0  0  0  0  0  0
  -24.1440  -13.1130   20.8320 C   0  0  0  0  0  0  0  0  0  0  0  0
  -24.6000  -11.7600   20.7950 C   0  0  0  0  0  0  0  0  0  0  0  0
  -26.2450  -12.9970   20.1900 N   0  0  0  0  0  0  0  0  0  0  0  0
  -25.8840  -11.7160   20.4590 N   0  0  0  0  0  0  0  0  0  0  0  0
  -23.8740  -10.4990   21.0000 C   0  0  0  0  0  0  0  0  0  0  0  0
  -24.3300   -9.5240   21.9160 C   0  0  0  0  0  3  0  0  0  0  0  0
  -23.6050   -8.3290   22.1100 C   0  0  0  0  0  3  0  0  0  0  0  0
  -22.4110   -8.0980   21.3870 C   0  0  0  0  0  0  0  0  0  0  0  0
  -21.9740   -9.0610   20.4600 C   0  0  0  0  0  3  0  0  0  0  0  0
  -22.7010  -10.2480   20.2640 C   0  0  0  0  0  3  0  0  0  0  0  0
  -21.6550   -6.9560   21.4920 O   0  0  0  0  0  0  0  0  0  0  0  0
  -21.6450   -6.2010   22.6390 C   0  0  0  0  0  0  0  0  0  0  0  0
  -21.2860   -6.7500   23.8890 C   0  0  0  0  0  3  0  0  0  0  0  0
  -21.2200   -5.9240   25.0280 C   0  0  0  0  0  3  0  0  0  0  0  0
  -21.5050   -4.5490   24.9200 C   0  0  0  0  0  0  0  0  0  0  0  0
  -21.8570   -4.0000   23.6750 C   0  0  0  0  0  3  0  0  0  0  0  0
  -21.9230   -4.8230   22.5370 C   0  0  0  0  0  0  0  0  0  0  0  0
  -22.2410   -4.2840   21.3350 F   0  0  0  0  0  0  0  0  0  0  0  0
  -21.4350   -3.7530   26.0120 F   0  0  0  0  0  0  0  0  0  0  0  0
  -22.7520  -13.5940   21.1310 C   0  0  0  0  0  0  0  0  0  0  0  0
  -22.0400  -12.9040   22.0160 N   0  0  0  0  0  0  0  0  0  0  0  0
  -22.3050  -14.6160   20.6140 O   0  0  0  0  0  0  0  0  0  0  0  0
  -22.4120  -12.0780   22.4580 H   0  0  0  0  0  0  0  0  0  0  0  0
  -21.1070  -13.2120   22.2550 H   0  0  0  0  0  0  0  0  0  0  0  0
  -25.3750  -15.2520   20.2550 N   0  0  0  0  0  0  0  0  0  0  0  0
  -24.6280  -15.9220   20.3940 H   0  0  0  0  0  0  0  0  0  0  0  0
  -26.2340  -15.6780   19.9260 H   0  0  0  0  0  0  0  0  0  0  0  0
  -29.2620  -26.8740   21.2650 C   0  0  0  0  0  2  0  0  0  0  0  0
  -28.4130  -26.7540   20.1120 O   0  0  0  0  0  0  0  0  0  0  0  0
  -24.6010  -31.8710   23.2140 C   0  0  0  0  0  0  0  0  0  0  0  0
  -27.2490  -27.4880   20.1350 C   0  0  0  0  0  0  0  0  0  0  0  0
  -23.3740  -30.4700   21.5750 C   0  0  0  0  0  3  0  0  0  0  0  0
  -24.8190  -28.9350   20.1390 C   0  0  0  0  0  0  0  0  0  0  0  0
  -25.8820  -30.8600   21.3400 C   0  0  0  0  0  2  0  0  0  0  0  0
  -25.9670  -29.4890   20.7120 C   0  0  0  0  0  0  0  0  0  0  0  0
  -27.1780  -28.7820   20.7010 C   0  0  0  0  0  3  0  0  0  0  0  0
  -26.0890  -26.9420   19.5460 C   0  0  0  0  0  3  0  0  0  0  0  0
  -24.8730  -27.6580   19.5490 C   0  0  0  0  0  3  0  0  0  0  0  0
  -23.5680  -29.7800   20.1930 C   0  0  0  0  0  2  0  0  0  0  0  0
  -24.6380  -31.0800   22.1040 N   0  0  0  0  0  0  0  0  0  0  0  0
  -23.5260  -32.1410   23.7680 O   0  0  0  0  0  0  0  0  0  0  0  0
  -22.7360  -29.4510   22.5400 C   0  0  0  0  0  0  0  0  0  0  0  0
  -21.4120  -29.2690   22.4230 N   0  0  0  0  0  0  0  0  0  0  0  0
  -23.4280  -28.8250   23.3490 O   0  0  0  0  0  0  0  0  0  0  0  0
  -20.9160  -29.8270   21.7420 H   0  0  0  0  0  0  0  0  0  0  0  0
  -18.0420  -28.0790   22.9250 C   0  0  0  0  0  0  0  0  0  0  0  0
  -20.5990  -28.3310   23.1960 C   0  0  0  0  0  3  0  0  0  0  0  0
  -20.7020  -26.9020   22.6170 C   0  0  0  0  0  2  0  0  0  0  0  0
  -19.5970  -26.5810   21.6060 C   0  0  0  0  0  2  0  0  0  0  0  0
  -18.2160  -26.7290   22.2500 C   0  0  0  0  0  2  0  0  0  0  0  0
  -19.1620  -28.8380   23.3550 C   0  0  0  0  0  0  0  0  0  0  0  0
  -18.9470  -30.1040   23.9430 C   0  0  0  0  0  3  0  0  0  0  0  0
  -17.6440  -30.6090   24.1090 C   0  0  0  0  0  3  0  0  0  0  0  0
  -16.5390  -29.8460   23.6970 C   0  0  0  0  0  3  0  0  0  0  0  0
  -16.7380  -28.5820   23.1110 C   0  0  0  0  0  3  0  0  0  0  0  0
  -25.8950  -32.4950   23.8240 C   0  0  0  0  0  3  0  0  0  0  0  0
  -26.4370  -31.7080   25.0800 C   0  0  1  0  0  0  0  0  0  0  0  0
  -25.3650  -31.4540   26.1640 C   0  0  0  0  0  1  0  0  0  0  0  0
  -27.0160  -30.3380   24.6530 C   0  0  0  0  0  1  0  0  0  0  0  0
  -27.5990  -32.4930   25.7310 C   0  0  0  0  0  1  0  0  0  0  0  0
  -25.5930  -33.8890   24.1740 N   0  0  0  0  0  0  0  0  0  0  0  0
  -25.9200  -34.9490   23.4210 C   0  0  0  0  0  0  0  0  0  0  0  0
  -26.5790  -34.8560   22.3830 O   0  0  0  0  0  0  0  0  0  0  0  0
  -25.0100  -34.0360   24.9850 H   0  0  0  0  0  0  0  0  0  0  0  0
  -24.1870  -36.7400   23.0980 C   0  0  0  0  0  1  0  0  0  0  0  0
  -25.4350  -36.3320   23.8960 C   0  0  0  0  0  3  0  0  0  0  0  0
  -27.5790  -37.2060   24.7130 C   0  0  0  0  0  1  0  0  0  0  0  0
  -26.4670  -37.3860   23.7850 N   0  0  0  0  0  0  0  0  0  0  0  0
  -26.0630  -38.3050   23.9460 H   0  0  0  0  0  0  0  0  0  0  0  0
  1 55  1  0
  2  3  1  0
  2  1  1  0
  3  5  1  0
  4  2  2  0
  6  3  1  0
  7  9  2  0
  8  1  1  0
  8  7  1  0
 10  8  1  0
 11  7  1  0
 11 12  1  0
 13 12  1  0
 13 14  1  0
 15 14  1  0
 15 16  1  0
 17 25  1  0
 18 23  1  0
 19 20  1  0
 19 18  1  0
 21 20  1  0
 21 30  1  0
 21 22  1  0
 23 17  1  0
 23 22  1  0
 24 17  2  0
 25 16  1  0
 25 26  1  0
 27 28  2  0
 28 47  1  0
 29 28  1  0
 29 32  1  0
 30 27  1  0
 30 31  1  0
 31 29  2  0
 32 33  1  0
 33 34  2  0
 35 38  1  0
 35 34  1  0
 36 35  2  0
 37 36  1  0
 37 32  2  0
 38 39  1  0
 39 40  1  0
 40 41  2  0
 42 41  1  0
 42 46  1  0
 43 42  2  0
 44 39  2  0
 44 43  1  0
 45 44  1  0
 47 48  1  0
 48 51  1  0
 48 50  1  0
 49 47  2  0
 52 53  1  0
 52 27  1  0
 54 52  1  0
 56 58  1  0
 56 55  1  0
 57 68  2  0
 58 63  1  0
 59 67  1  0
 59 69  1  0
 60 66  1  0
 60 62  1  0
 61 67  1  0
 62 61  1  0
 63 62  2  0
 64 65  1  0
 64 58  2  0
 65 60  2  0
 66 59  1  0
 67 57  1  0
 69 71  2  0
 70 69  1  0
 72 70  1  0
 73 82  2  0
 73 78  1  0
 74 70  1  0
 74 78  1  0
 75 74  1  0
 76 77  1  0
 76 75  1  0
 77 73  1  0
 78 79  2  0
 79 80  1  0
 81 80  2  0
 82 81  1  0
 83 57  1  0
 83 88  1  0
 83 84  1  0
 84 87  1  1
 84 85  1  0
 86 84  1  0
 88 91  1  0
 89 93  1  0
 89 88  1  0
 90 89  2  0
 93 92  1  0
 95 93  1  0
 95 96  1  0
 95 94  1  0
M  ISO  4  17 100  25 100  55 101  56 101
M  END
>  <TORSDO>  (17) 
F 25

>  <SCORE>  (17) 
-12.358

>  <name>  (17) 
16

>  <ligand_id>  (17) 
16

>  <original_smiles>  (17) 
[H]c1c([H])c([H])c2c(c1[H])C([H])([H])C([H])([H])C([H])([H])C2([H])N([H])C(=O)C1([H])N(C(=O)C([H])(N([H])C(=O)C([H])(N([H])C([H])([H])[H])C([H])([H])[H])C(C([H])([H])[H])(C([H])([H])[H])C([H])([H])[H])C([H])([H])c2c([H])c(OC([H])([H])C([H])(C(=O)N([H])[H])N([H])C(=O)C([H])([H])C([H])([H])C([H])([H])C([H])([H])C([H])([H])C([H])([H])N([H])C(=O)N3C([H])([H])C([H])([H])C([H])([H])C([H])(n4nc(-c5c([H])c([H])c(Oc6c([H])c([H])c(F)c([H])c6F)c([H])c5[H])c(C(=O)N([H])[H])c4N([H])[H])C3([H])[H])c([H])c([H])c2C1([H])[H]

>  <smiles>  (17) 
[H]c1c([H])c([H])c2c(c1[H])C([H])([H])C([H])([H])C([H])([H])C2([H])N([H])C(=O)C1([H])N(C(=O)C([H])(N([H])C(=O)C([H])(N([H])C([H])([H])[H])C([H])([H])[H])C(C([H])([H])[H])(C([H])([H])[H])C([H])([H])[H])C([H])([H])c2c([H])c(OC([H])([H])C([H])(C(=O)N([H])[H])N([H])C(=O)C([H])([H])C([H])([H])C([H])([H])C([H])([H])C([H])([H])C([H])([H])N([H])C(=O)N3C([H])([H])C([H])([H])C([H])([H])C([H])(n4nc(-c5c([H])c([H])c(Oc6c([H])c([H])c(F)c([H])c6F)c([H])c5[H])c(C(=O)N([H])[H])c4N([H])[H])C3([H])[H])c([H])c([H])c2C1([H])[H]

$$$$
17:0:0
     RDKit          3D

 90 97  0  0  1  0  0  0  0  0999 V2000
  -28.6120  -22.7580   19.8810 C   0  0  0  0  0  0  0  0  0  0  0  0
  -29.1240  -21.4600   20.4180 N   0  0  0  0  0  4  0  0  0  0  0  0
  -28.3620  -22.7580   18.6730 O   0  0  0  0  0  0  0  0  0  0  0  0
  -29.4760  -21.6270   21.3520 H   0  0  0  0  0  0  0  0  0  0  0  0
  -28.1750  -24.2670   20.6950 C   0  0  0  0  0  2  0  0  0  0  0  0
  -28.2870  -25.8700   20.2710 O   0  0  0  0  0  0  0  0  0  0  0  0
  -24.6420  -31.8740   23.2710 C   0  0  0  0  0  0  0  0  0  0  0  0
  -27.2600  -26.9590   20.3250 C   0  0  0  0  0  0  0  0  0  0  0  0
  -23.4860  -30.4620   21.6220 C   0  0  0  0  0  3  0  0  0  0  0  0
  -24.9620  -28.8440   20.2450 C   0  0  0  0  0  0  0  0  0  0  0  0
  -26.0550  -30.6730   21.5200 C   0  0  0  0  0  2  0  0  0  0  0  0
  -26.1420  -29.2520   20.8780 C   0  0  0  0  0  0  0  0  0  0  0  0
  -27.2920  -28.3360   20.8850 C   0  0  0  0  0  3  0  0  0  0  0  0
  -26.0460  -26.7040   19.6530 C   0  0  0  0  0  3  0  0  0  0  0  0
  -24.9380  -27.5900   19.6110 C   0  0  0  0  0  3  0  0  0  0  0  0
  -23.7460  -29.7700   20.2570 C   0  0  0  0  0  2  0  0  0  0  0  0
  -24.7500  -31.0320   22.1910 N   0  0  0  0  0  0  0  0  0  0  0  0
  -23.5410  -32.1590   23.7690 O   0  0  0  0  0  0  0  0  0  0  0  0
  -22.7800  -29.4670   22.5800 C   0  0  0  0  0  0  0  0  0  0  0  0
  -21.4530  -29.2960   22.4320 N   0  0  0  0  0  0  0  0  0  0  0  0
  -23.4330  -28.8490   23.4240 O   0  0  0  0  0  0  0  0  0  0  0  0
  -20.9770  -29.8470   21.7320 H   0  0  0  0  0  0  0  0  0  0  0  0
  -18.0650  -28.0840   22.9080 C   0  0  0  0  0  0  0  0  0  0  0  0
  -20.6210  -28.3570   23.1940 C   0  0  0  0  0  3  0  0  0  0  0  0
  -20.7310  -26.9250   22.6220 C   0  0  0  0  0  2  0  0  0  0  0  0
  -19.6390  -26.6010   21.5960 C   0  0  0  0  0  2  0  0  0  0  0  0
  -18.2520  -26.7390   22.2270 C   0  0  0  0  0  2  0  0  0  0  0  0
  -19.1760  -28.8520   23.3470 C   0  0  0  0  0  0  0  0  0  0  0  0
  -18.9420  -30.1120   23.9420 C   0  0  0  0  0  3  0  0  0  0  0  0
  -17.6310  -30.6000   24.1040 C   0  0  0  0  0  3  0  0  0  0  0  0
  -16.5360  -29.8320   23.6720 C   0  0  0  0  0  3  0  0  0  0  0  0
  -16.7540  -28.5740   23.0800 C   0  0  0  0  0  3  0  0  0  0  0  0
  -25.8940  -32.5270   23.9270 C   0  0  0  0  0  3  0  0  0  0  0  0
  -25.5710  -33.9340   24.2260 N   0  0  0  0  0  0  0  0  0  0  0  0
  -25.9300  -34.9810   23.4710 C   0  0  0  0  0  0  0  0  0  0  0  0
  -26.6260  -34.8640   22.4600 O   0  0  0  0  0  0  0  0  0  0  0  0
  -24.9550  -34.0960   25.0100 H   0  0  0  0  0  0  0  0  0  0  0  0
  -24.2120  -36.7790   23.0630 C   0  0  0  0  0  1  0  0  0  0  0  0
  -25.4370  -36.3790   23.9030 C   0  0  0  0  0  3  0  0  0  0  0  0
  -27.5550  -37.2740   24.7620 C   0  0  0  0  0  1  0  0  0  0  0  0
  -26.4720  -37.4280   23.7960 N   0  0  0  0  0  0  0  0  0  0  0  0
  -26.0660  -38.3520   23.9250 H   0  0  0  0  0  0  0  0  0  0  0  0
  -26.3620  -31.7900   25.2430 C   0  0  1  0  0  0  0  0  0  0  0  0
  -25.2290  -31.5790   26.2760 C   0  0  0  0  0  1  0  0  0  0  0  0
  -26.9600  -30.4040   24.9120 C   0  0  0  0  0  1  0  0  0  0  0  0
  -27.4900  -32.5990   25.9250 C   0  0  0  0  0  1  0  0  0  0  0  0
  -29.0780  -19.7830   20.1520 C   0  0  0  0  0  0  0  0  0  0  0  0
  -27.0870  -18.3590   19.4400 C   0  0  0  0  0  1  0  0  0  0  0  0
  -28.1020  -19.4310   18.9790 C   0  0  0  0  0  3  0  0  0  0  0  0
  -27.9240  -18.8840   16.4510 C   0  0  0  0  0  1  0  0  0  0  0  0
  -28.8340  -18.9950   17.6860 C   0  0  0  0  0  2  0  0  0  0  0  0
  -30.1980  -18.3870   20.4940 C   0  0  0  0  0  2  0  0  0  0  0  0
  -30.7280  -15.4520   20.6720 C   0  0  0  0  0  0  0  0  0  0  0  0
  -30.8040  -12.9700   19.9000 C   0  0  0  0  0  2  0  0  0  0  0  0
  -29.9870  -12.6690   18.6200 C   0  0  0  0  0  2  0  0  0  0  0  0
  -28.5190  -12.3800   18.9690 C   0  0  0  0  0  2  0  0  0  0  0  0
  -27.9630  -13.4050   19.9910 C   0  0  0  0  0  3  0  0  0  0  0  0
  -28.9100  -13.6340   21.1880 C   0  0  0  0  0  2  0  0  0  0  0  0
  -30.1790  -14.1350   20.6320 N   0  0  0  0  0  0  0  0  0  0  0  0
  -31.9610  -15.4480   20.5310 O   0  0  0  0  0  0  0  0  0  0  0  0
  -29.9510  -16.7240   20.6740 N   0  0  0  0  0  0  0  0  0  0  0  0
  -28.9670  -16.5180   20.7770 H   0  0  0  0  0  0  0  0  0  0  0  0
  -25.5520  -13.9910   20.5690 C   0  0  0  0  0  0  0  0  0  0  0  0
  -24.4600  -13.2270   20.8740 C   0  0  0  0  0  0  0  0  0  0  0  0
  -24.9220  -11.8740   20.9070 C   0  0  0  0  0  0  0  0  0  0  0  0
  -26.6020  -13.1060   20.4120 N   0  0  0  0  0  0  0  0  0  0  0  0
  -26.2320  -11.8260   20.6880 N   0  0  0  0  0  0  0  0  0  0  0  0
  -24.1760  -10.6190   21.0720 C   0  0  0  0  0  0  0  0  0  0  0  0
  -24.5380   -9.6730   22.0550 C   0  0  0  0  0  3  0  0  0  0  0  0
  -23.7950   -8.4840   22.2130 C   0  0  0  0  0  3  0  0  0  0  0  0
  -22.6750   -8.2310   21.3840 C   0  0  0  0  0  0  0  0  0  0  0  0
  -22.3300   -9.1690   20.3960 C   0  0  0  0  0  3  0  0  0  0  0  0
  -23.0740  -10.3500   20.2370 C   0  0  0  0  0  3  0  0  0  0  0  0
  -21.9080   -7.0940   21.4480 O   0  0  0  0  0  0  0  0  0  0  0  0
  -21.7680   -6.3830   22.6130 C   0  0  0  0  0  0  0  0  0  0  0  0
  -21.2370   -6.9690   23.7840 C   0  0  0  0  0  3  0  0  0  0  0  0
  -21.0390   -6.1820   24.9370 C   0  0  0  0  0  3  0  0  0  0  0  0
  -21.3650   -4.8130   24.9200 C   0  0  0  0  0  0  0  0  0  0  0  0
  -21.8920   -4.2280   23.7550 C   0  0  0  0  0  3  0  0  0  0  0  0
  -22.0880   -5.0100   22.6050 C   0  0  0  0  0  0  0  0  0  0  0  0
  -22.5720   -4.4360   21.4770 F   0  0  0  0  0  0  0  0  0  0  0  0
  -21.1720   -4.0580   26.0280 F   0  0  0  0  0  0  0  0  0  0  0  0
  -23.0480  -13.7150   21.0220 C   0  0  0  0  0  0  0  0  0  0  0  0
  -22.2560  -13.0600   21.8650 N   0  0  0  0  0  0  0  0  0  0  0  0
  -22.6520  -14.7140   20.4260 O   0  0  0  0  0  0  0  0  0  0  0  0
  -22.5880  -12.2580   22.3780 H   0  0  0  0  0  0  0  0  0  0  0  0
  -21.3040  -13.3720   21.9970 H   0  0  0  0  0  0  0  0  0  0  0  0
  -25.7340  -15.3600   20.3860 N   0  0  0  0  0  0  0  0  0  0  0  0
  -24.9580  -16.0120   20.4450 H   0  0  0  0  0  0  0  0  0  0  0  0
  -26.6000  -15.8020   20.1120 H   0  0  0  0  0  0  0  0  0  0  0  0
  1  2  1  0
  1  5  1  0
  2  4  1  0
  3  1  2  0
  6  8  1  0
  6  5  1  0
  7 18  2  0
  8 13  1  0
  9 17  1  0
  9 19  1  0
 10 16  1  0
 10 12  1  0
 11 17  1  0
 12 13  2  0
 12 11  1  0
 14  8  2  0
 15 14  1  0
 15 10  2  0
 16  9  1  0
 17  7  1  0
 19 21  2  0
 20 19  1  0
 22 20  1  0
 23 32  2  0
 23 28  1  0
 24 20  1  0
 24 28  1  0
 25 24  1  0
 26 27  1  0
 26 25  1  0
 27 23  1  0
 28 29  2  0
 29 30  1  0
 31 30  2  0
 32 31  1  0
 33  7  1  0
 33 34  1  0
 33 43  1  0
 34 37  1  0
 35 39  1  0
 35 34  1  0
 36 35  2  0
 39 38  1  0
 41 39  1  0
 41 42  1  0
 41 40  1  0
 43 46  1  1
 43 44  1  0
 45 43  1  0
 47  2  2  0
 47 52  1  0
 49 48  1  0
 49 47  1  0
 50 51  1  0
 51 49  1  0
 52 61  1  0
 53 61  1  0
 54 59  1  0
 55 56  1  0
 55 54  1  0
 57 56  1  0
 57 66  1  0
 57 58  1  0
 59 53  1  0
 59 58  1  0
 60 53  2  0
 61 62  1  0
 63 64  2  0
 64 65  1  0
 64 83  1  0
 65 68  1  0
 66 63  1  0
 66 67  1  0
 67 65  2  0
 68 69  1  0
 69 70  2  0
 71 74  1  0
 71 70  1  0
 72 71  2  0
 73 72  1  0
 73 68  2  0
 74 75  1  0
 75 76  1  0
 76 77  2  0
 78 77  1  0
 78 82  1  0
 79 78  2  0
 80 75  2  0
 80 79  1  0
 81 80  1  0
 83 84  1  0
 84 87  1  0
 84 86  1  0
 85 83  2  0
 88 89  1  0
 88 63  1  0
 90 88  1  0
M  ISO  4   5 101   6 101  53 100  61 100
M  END
>  <TORSDO>  (18) 
F 21

>  <SCORE>  (18) 
-15.808

>  <name>  (18) 
17

>  <ligand_id>  (18) 
17

>  <original_smiles>  (18) 
[H]c1c([H])c([H])c2c(c1[H])C([H])([H])C([H])([H])C([H])([H])C2([H])N([H])C(=O)C1([H])N(C(=O)C([H])(N([H])C(=O)C([H])(N([H])C([H])([H])[H])C([H])([H])[H])C(C([H])([H])[H])(C([H])([H])[H])C([H])([H])[H])C([H])([H])c2c([H])c(OC([H])([H])C(=O)N([H])C([H])(C([H])([H])N([H])C(=O)N3C([H])([H])C([H])([H])C([H])([H])C([H])(n4nc(-c5c([H])c([H])c(Oc6c([H])c([H])c(F)c([H])c6F)c([H])c5[H])c(C(=O)N([H])[H])c4N([H])[H])C3([H])[H])C([H])(C([H])([H])[H])C([H])([H])C([H])([H])[H])c([H])c([H])c2C1([H])[H]

>  <smiles>  (18) 
[H]c1c([H])c([H])c2c(c1[H])C([H])([H])C([H])([H])C([H])([H])C2([H])N([H])C(=O)C1([H])N(C(=O)C([H])(N([H])C(=O)C([H])(N([H])C([H])([H])[H])C([H])([H])[H])C(C([H])([H])[H])(C([H])([H])[H])C([H])([H])[H])C([H])([H])c2c([H])c(OC([H])([H])C(=O)N([H])C([H])(C([H])([H])N([H])C(=O)N3C([H])([H])C([H])([H])C([H])([H])C([H])(n4nc(-c5c([H])c([H])c(Oc6c([H])c([H])c(F)c([H])c6F)c([H])c5[H])c(C(=O)N([H])[H])c4N([H])[H])C3([H])[H])C([H])(C([H])([H])[H])C([H])([H])C([H])([H])[H])c([H])c([H])c2C1([H])[H]

$$$$
18:0:0
     RDKit          3D

 92 99  0  0  1  0  0  0  0  0999 V2000
  -29.4270  -21.8030   20.9080 C   0  0  0  0  0  0  0  0  0  0  0  0
  -28.7220  -22.9080   20.6140 N   0  0  0  0  0  0  0  0  0  0  0  0
  -30.6310  -21.8450   21.1800 O   0  0  0  0  0  0  0  0  0  0  0  0
  -27.7470  -22.7750   20.3780 H   0  0  0  0  0  0  0  0  0  0  0  0
  -28.6780  -20.4520   20.9160 C   0  0  0  0  0  2  0  0  0  0  0  0
  -29.2950  -18.0260   20.7420 C   0  0  0  0  0  0  0  0  0  0  0  0
  -29.6060  -19.3170   20.9280 N   0  0  0  0  0  0  0  0  0  0  0  0
  -28.1300  -17.6210   20.6740 O   0  0  0  0  0  0  0  0  0  0  0  0
  -30.5850  -19.5750   20.9930 H   0  0  0  0  0  0  0  0  0  0  0  0
  -31.1300  -17.3890   19.1920 C   0  0  0  0  0  1  0  0  0  0  0  0
  -30.4670  -17.0410   20.5530 C   0  0  0  0  0  3  0  0  0  0  0  0
  -30.6890  -14.5210   20.3200 C   0  0  0  0  0  0  0  0  0  0  0  0
  -30.3510  -12.3340   19.2460 C   0  0  0  0  0  2  0  0  0  0  0  0
  -29.4130  -12.5170   18.0380 C   0  0  0  0  0  2  0  0  0  0  0  0
  -27.9400  -12.3870   18.4780 C   0  0  0  0  0  2  0  0  0  0  0  0
  -27.6020  -13.2540   19.7230 C   0  0  0  0  0  3  0  0  0  0  0  0
  -28.6670  -13.0930   20.8310 C   0  0  0  0  0  2  0  0  0  0  0  0
  -29.9850  -13.3610   20.2340 N   0  0  0  0  0  0  0  0  0  0  0  0
  -31.8640  -14.5980   19.9600 O   0  0  0  0  0  0  0  0  0  0  0  0
  -29.9880  -15.6370   20.6010 N   0  0  0  0  0  0  0  0  0  0  0  0
  -29.0050  -15.5390   20.8240 H   0  0  0  0  0  0  0  0  0  0  0  0
  -25.2150  -13.8570   20.4660 C   0  0  0  0  0  0  0  0  0  0  0  0
  -24.1510  -13.0850   20.8440 C   0  0  0  0  0  0  0  0  0  0  0  0
  -24.6100  -11.7320   20.8110 C   0  0  0  0  0  0  0  0  0  0  0  0
  -26.2560  -12.9750   20.2220 N   0  0  0  0  0  0  0  0  0  0  0  0
  -25.8970  -11.6920   20.4890 N   0  0  0  0  0  0  0  0  0  0  0  0
  -23.8830  -10.4730   21.0100 C   0  0  0  0  0  0  0  0  0  0  0  0
  -24.3210   -9.5060   21.9390 C   0  0  0  0  0  3  0  0  0  0  0  0
  -23.5940   -8.3100   22.1250 C   0  0  0  0  0  3  0  0  0  0  0  0
  -22.4130   -8.0730   21.3800 C   0  0  0  0  0  0  0  0  0  0  0  0
  -21.9950   -9.0290   20.4380 C   0  0  0  0  0  3  0  0  0  0  0  0
  -22.7220  -10.2170   20.2510 C   0  0  0  0  0  3  0  0  0  0  0  0
  -21.6560   -6.9310   21.4750 O   0  0  0  0  0  0  0  0  0  0  0  0
  -21.6110   -6.1900   22.6300 C   0  0  0  0  0  0  0  0  0  0  0  0
  -21.1940   -6.7470   23.8590 C   0  0  0  0  0  3  0  0  0  0  0  0
  -21.0970   -5.9310   25.0030 C   0  0  0  0  0  3  0  0  0  0  0  0
  -21.4070   -4.5600   24.9200 C   0  0  0  0  0  0  0  0  0  0  0  0
  -21.8190   -4.0030   23.6970 C   0  0  0  0  0  3  0  0  0  0  0  0
  -21.9180   -4.8160   22.5540 C   0  0  0  0  0  0  0  0  0  0  0  0
  -22.2930   -4.2700   21.3720 F   0  0  0  0  0  0  0  0  0  0  0  0
  -21.3090   -3.7730   26.0190 F   0  0  0  0  0  0  0  0  0  0  0  0
  -22.7560  -13.5650   21.1280 C   0  0  0  0  0  0  0  0  0  0  0  0
  -22.0350  -12.8750   22.0060 N   0  0  0  0  0  0  0  0  0  0  0  0
  -22.3120  -14.5860   20.6070 O   0  0  0  0  0  0  0  0  0  0  0  0
  -22.4020  -12.0500   22.4580 H   0  0  0  0  0  0  0  0  0  0  0  0
  -21.0990  -13.1780   22.2310 H   0  0  0  0  0  0  0  0  0  0  0  0
  -25.3790  -15.2290   20.2900 N   0  0  0  0  0  0  0  0  0  0  0  0
  -24.6200  -15.8830   20.4390 H   0  0  0  0  0  0  0  0  0  0  0  0
  -26.2460  -15.6890   20.0360 H   0  0  0  0  0  0  0  0  0  0  0  0
  -29.2070  -24.3000   20.6450 C   0  0  0  0  0  2  0  0  0  0  0  0
  -28.1790  -25.2530   19.9920 C   0  0  0  0  0  2  0  0  0  0  0  0
  -28.3920  -26.6660   20.2140 O   0  0  0  0  0  0  0  0  0  0  0  0
  -24.6540  -31.9080   23.2890 C   0  0  0  0  0  0  0  0  0  0  0  0
  -27.2520  -27.4570   20.1630 C   0  0  0  0  0  0  0  0  0  0  0  0
  -23.4380  -30.5280   21.6410 C   0  0  0  0  0  3  0  0  0  0  0  0
  -24.8780  -29.0080   20.1900 C   0  0  0  0  0  0  0  0  0  0  0  0
  -25.9700  -30.8670   21.4440 C   0  0  0  0  0  2  0  0  0  0  0  0
  -26.0450  -29.5040   20.7870 C   0  0  0  0  0  0  0  0  0  0  0  0
  -27.2350  -28.7360   20.7720 C   0  0  0  0  0  3  0  0  0  0  0  0
  -26.0690  -27.0050   19.5290 C   0  0  0  0  0  3  0  0  0  0  0  0
  -24.8870  -27.7600   19.5540 C   0  0  0  0  0  3  0  0  0  0  0  0
  -23.6400  -29.8700   20.2520 C   0  0  0  0  0  2  0  0  0  0  0  0
  -24.7060  -31.1150   22.1820 N   0  0  0  0  0  0  0  0  0  0  0  0
  -23.5750  -32.1800   23.8340 O   0  0  0  0  0  0  0  0  0  0  0  0
  -22.7860  -29.4960   22.5900 C   0  0  0  0  0  0  0  0  0  0  0  0
  -21.4610  -29.3130   22.4570 N   0  0  0  0  0  0  0  0  0  0  0  0
  -23.4670  -28.8680   23.4040 O   0  0  0  0  0  0  0  0  0  0  0  0
  -20.9710  -29.8790   21.7790 H   0  0  0  0  0  0  0  0  0  0  0  0
  -18.0880  -28.0970   22.9200 C   0  0  0  0  0  0  0  0  0  0  0  0
  -20.6420  -28.3690   23.2200 C   0  0  0  0  0  3  0  0  0  0  0  0
  -20.7580  -26.9370   22.6470 C   0  0  0  0  0  2  0  0  0  0  0  0
  -19.6680  -26.6080   21.6210 C   0  0  0  0  0  2  0  0  0  0  0  0
  -18.2780  -26.7470   22.2490 C   0  0  0  0  0  2  0  0  0  0  0  0
  -19.1980  -28.8650   23.3610 C   0  0  0  0  0  0  0  0  0  0  0  0
  -18.9660  -30.1280   23.9490 C   0  0  0  0  0  3  0  0  0  0  0  0
  -17.6570  -30.6220   24.1000 C   0  0  0  0  0  3  0  0  0  0  0  0
  -16.5610  -29.8500   23.6750 C   0  0  0  0  0  3  0  0  0  0  0  0
  -16.7780  -28.5900   23.0900 C   0  0  0  0  0  3  0  0  0  0  0  0
  -25.9430  -32.5290   23.9110 C   0  0  0  0  0  3  0  0  0  0  0  0
  -25.6430  -33.9290   24.2420 N   0  0  0  0  0  0  0  0  0  0  0  0
  -25.9620  -34.9780   23.4710 C   0  0  0  0  0  0  0  0  0  0  0  0
  -26.6120  -34.8690   22.4280 O   0  0  0  0  0  0  0  0  0  0  0  0
  -25.0670  -34.0880   25.0560 H   0  0  0  0  0  0  0  0  0  0  0  0
  -24.2210  -36.7660   23.1510 C   0  0  0  0  0  1  0  0  0  0  0  0
  -25.4840  -36.3690   23.9300 C   0  0  0  0  0  3  0  0  0  0  0  0
  -27.6400  -37.2670   24.6900 C   0  0  0  0  0  1  0  0  0  0  0  0
  -26.5110  -37.4250   23.7780 N   0  0  0  0  0  0  0  0  0  0  0  0
  -26.1070  -38.3430   23.9300 H   0  0  0  0  0  0  0  0  0  0  0  0
  -26.4550  -31.7510   25.1860 C   0  0  1  0  0  0  0  0  0  0  0  0
  -25.3630  -31.5180   26.2560 C   0  0  0  0  0  1  0  0  0  0  0  0
  -27.0280  -30.3700   24.7890 C   0  0  0  0  0  1  0  0  0  0  0  0
  -27.6080  -32.5380   25.8510 C   0  0  0  0  0  1  0  0  0  0  0  0
  1  5  1  0
  1  3  2  0
  2 50  1  0
  2  1  1  0
  4  2  1  0
  5  7  1  0
  6  7  1  0
  7  9  1  0
  8  6  2  0
 11 10  1  0
 11 20  1  0
 11  6  1  0
 12 20  1  0
 13 18  1  0
 14 15  1  0
 14 13  1  0
 16 15  1  0
 16 25  1  0
 16 17  1  0
 18 12  1  0
 18 17  1  0
 19 12  2  0
 20 21  1  0
 22 23  2  0
 23 42  1  0
 24 23  1  0
 24 27  1  0
 25 22  1  0
 25 26  1  0
 26 24  2  0
 27 28  1  0
 28 29  2  0
 30 33  1  0
 30 29  1  0
 31 30  2  0
 32 31  1  0
 32 27  2  0
 33 34  1  0
 34 35  1  0
 35 36  2  0
 37 36  1  0
 37 41  1  0
 38 37  2  0
 39 34  2  0
 39 38  1  0
 40 39  1  0
 42 43  1  0
 43 46  1  0
 43 45  1  0
 44 42  2  0
 47 48  1  0
 47 22  1  0
 49 47  1  0
 51 52  1  0
 51 50  1  0
 53 64  2  0
 54 52  1  0
 54 59  1  0
 55 63  1  0
 55 65  1  0
 56 62  1  0
 56 58  1  0
 57 63  1  0
 58 57  1  0
 59 58  2  0
 60 61  1  0
 60 54  2  0
 61 56  2  0
 62 55  1  0
 63 53  1  0
 65 67  2  0
 66 65  1  0
 68 66  1  0
 69 78  2  0
 69 74  1  0
 70 66  1  0
 70 74  1  0
 71 70  1  0
 72 73  1  0
 72 71  1  0
 73 69  1  0
 74 75  2  0
 75 76  1  0
 77 76  2  0
 78 77  1  0
 79 53  1  0
 79 80  1  0
 79 89  1  0
 80 83  1  0
 81 85  1  0
 81 80  1  0
 82 81  2  0
 85 84  1  0
 87 85  1  0
 87 88  1  0
 87 86  1  0
 89 92  1  1
 89 90  1  0
 91 89  1  0
M  ISO  4  12 100  20 100  51 101  52 101
M  END
>  <TORSDO>  (19) 
F 21

>  <SCORE>  (19) 
-13.664

>  <name>  (19) 
18

>  <ligand_id>  (19) 
18

>  <original_smiles>  (19) 
[H]c1c([H])c([H])c2c(c1[H])C([H])([H])C([H])([H])C([H])([H])C2([H])N([H])C(=O)C1([H])N(C(=O)C([H])(N([H])C(=O)C([H])(N([H])C([H])([H])[H])C([H])([H])[H])C(C([H])([H])[H])(C([H])([H])[H])C([H])([H])[H])C([H])([H])c2c([H])c(OC([H])([H])C([H])([H])N([H])C(=O)C([H])([H])N([H])C(=O)C([H])(N([H])C(=O)N3C([H])([H])C([H])([H])C([H])([H])C([H])(n4nc(-c5c([H])c([H])c(Oc6c([H])c([H])c(F)c([H])c6F)c([H])c5[H])c(C(=O)N([H])[H])c4N([H])[H])C3([H])[H])C([H])([H])[H])c([H])c([H])c2C1([H])[H]

>  <smiles>  (19) 
[H]c1c([H])c([H])c2c(c1[H])C([H])([H])C([H])([H])C([H])([H])C2([H])N([H])C(=O)C1([H])N(C(=O)C([H])(N([H])C(=O)C([H])(N([H])C([H])([H])[H])C([H])([H])[H])C(C([H])([H])[H])(C([H])([H])[H])C([H])([H])[H])C([H])([H])c2c([H])c(OC([H])([H])C([H])([H])N([H])C(=O)C([H])([H])N([H])C(=O)C([H])(N([H])C(=O)N3C([H])([H])C([H])([H])C([H])([H])C([H])(n4nc(-c5c([H])c([H])c(Oc6c([H])c([H])c(F)c([H])c6F)c([H])c5[H])c(C(=O)N([H])[H])c4N([H])[H])C3([H])[H])C([H])([H])[H])c([H])c([H])c2C1([H])[H]

$$$$
19:0:0
     RDKit          3D

 98107  0  0  1  0  0  0  0  0999 V2000
  -27.8900  -24.3620   18.8780 C   0  0  0  0  0  0  0  0  0  0  0  0
  -28.9810  -18.5580   19.1260 C   0  0  0  0  0  0  0  0  0  0  0  0
  -29.2930  -22.4560   19.9820 C   0  0  0  0  0  2  0  0  0  0  0  0
  -27.4110  -21.9280   18.5360 C   0  0  0  0  0  2  0  0  0  0  0  0
  -29.2310  -20.8800   20.3110 C   0  0  0  0  0  2  0  0  0  0  0  0
  -28.2800  -20.7200   18.0770 C   0  0  0  0  0  2  0  0  0  0  0  0
  -28.2060  -23.0260   19.1310 N   0  0  0  0  0  0  0  0  0  0  0  0
  -28.8520  -19.9470   19.2060 N   0  0  0  0  0  0  0  0  0  0  0  0
  -27.0440  -24.6430   18.0210 O   0  0  0  0  0  0  0  0  0  0  0  0
  -28.5710  -17.9540   18.1290 O   0  0  0  0  0  0  0  0  0  0  0  0
  -28.4890  -25.5970   19.6590 C   0  0  0  0  0  2  0  0  0  0  0  0
  -28.3270  -26.9260   19.0000 O   0  0  0  0  0  0  0  0  0  0  0  0
  -24.6730  -31.7890   22.8850 C   0  0  0  0  0  0  0  0  0  0  0  0
  -27.1550  -27.6710   19.1870 C   0  0  0  0  0  0  0  0  0  0  0  0
  -23.3640  -30.4820   21.2450 C   0  0  0  0  0  3  0  0  0  0  0  0
  -24.7260  -29.1370   19.5460 C   0  0  0  0  0  0  0  0  0  0  0  0
  -25.8500  -30.9560   20.8380 C   0  0  0  0  0  2  0  0  0  0  0  0
  -25.9250  -29.6440   20.0650 C   0  0  0  0  0  0  0  0  0  0  0  0
  -27.1410  -28.9260   19.8690 C   0  0  0  0  0  3  0  0  0  0  0  0
  -25.9330  -27.2050   18.6610 C   0  0  0  0  0  3  0  0  0  0  0  0
  -24.7310  -27.9240   18.8340 C   0  0  0  0  0  3  0  0  0  0  0  0
  -23.4630  -29.9380   19.7930 C   0  0  0  0  0  2  0  0  0  0  0  0
  -24.6520  -31.0890   21.7120 N   0  0  0  0  0  0  0  0  0  0  0  0
  -23.6410  -31.9580   23.5510 O   0  0  0  0  0  0  0  0  0  0  0  0
  -22.8500  -29.3520   22.1670 C   0  0  0  0  0  0  0  0  0  0  0  0
  -21.5360  -29.0740   22.1080 N   0  0  0  0  0  0  0  0  0  0  0  0
  -23.6290  -28.7280   22.8930 O   0  0  0  0  0  0  0  0  0  0  0  0
  -20.9610  -29.6350   21.4960 H   0  0  0  0  0  0  0  0  0  0  0  0
  -18.3140  -27.5310   22.6710 C   0  0  0  0  0  0  0  0  0  0  0  0
  -20.8450  -28.0200   22.8530 C   0  0  0  0  0  3  0  0  0  0  0  0
  -21.0550  -26.6390   22.1900 C   0  0  0  0  0  2  0  0  0  0  0  0
  -19.9440  -26.2690   21.2030 C   0  0  0  0  0  2  0  0  0  0  0  0
  -18.5850  -26.2440   21.9100 C   0  0  0  0  0  2  0  0  0  0  0  0
  -19.3740  -28.3730   23.1000 C   0  0  0  0  0  0  0  0  0  0  0  0
  -19.0640  -29.5750   23.7730 C   0  0  0  0  0  3  0  0  0  0  0  0
  -17.7260  -29.9370   24.0220 C   0  0  0  0  0  3  0  0  0  0  0  0
  -16.6820  -29.0920   23.6090 C   0  0  0  0  0  3  0  0  0  0  0  0
  -16.9760  -27.8910   22.9400 C   0  0  0  0  0  3  0  0  0  0  0  0
  -25.9860  -32.4270   23.4350 C   0  0  0  0  0  3  0  0  0  0  0  0
  -26.7010  -31.5360   24.5250 C   0  0  1  0  0  0  0  0  0  0  0  0
  -25.7670  -31.0810   25.6710 C   0  0  0  0  0  1  0  0  0  0  0  0
  -27.3090  -30.2680   23.8820 C   0  0  0  0  0  1  0  0  0  0  0  0
  -27.8780  -32.3190   25.1530 C   0  0  0  0  0  1  0  0  0  0  0  0
  -25.6430  -33.7440   23.9890 N   0  0  0  0  0  0  0  0  0  0  0  0
  -25.8610  -34.9110   23.3690 C   0  0  0  0  0  0  0  0  0  0  0  0
  -26.4470  -34.9930   22.2850 O   0  0  0  0  0  0  0  0  0  0  0  0
  -25.1160  -33.7480   24.8500 H   0  0  0  0  0  0  0  0  0  0  0  0
  -24.0570  -36.6640   23.3810 C   0  0  0  0  0  1  0  0  0  0  0  0
  -25.3530  -36.1910   24.0600 C   0  0  0  0  0  3  0  0  0  0  0  0
  -27.4940  -37.0300   24.9200 C   0  0  0  0  0  1  0  0  0  0  0  0
  -26.3410  -37.2920   24.0640 N   0  0  0  0  0  0  0  0  0  0  0  0
  -25.9100  -38.1610   24.3680 H   0  0  0  0  0  0  0  0  0  0  0  0
  -29.6540  -17.6330   20.2150 C   0  0  0  0  0  3  0  0  0  0  0  0
  -30.4230  -15.1160   19.7530 C   0  0  0  0  0  0  0  0  0  0  0  0
  -30.3880  -12.7680   18.9140 C   0  0  0  0  0  2  0  0  0  0  0  0
  -29.3380  -12.6630   17.7870 C   0  0  0  0  0  2  0  0  0  0  0  0
  -27.9360  -12.3890   18.3680 C   0  0  0  0  0  2  0  0  0  0  0  0
  -27.5840  -13.3320   19.5500 C   0  0  0  0  0  3  0  0  0  0  0  0
  -28.7400  -13.4130   20.5680 C   0  0  0  0  0  2  0  0  0  0  0  0
  -29.9400  -13.8340   19.8320 N   0  0  0  0  0  0  0  0  0  0  0  0
  -31.5430  -15.3410   19.2890 O   0  0  0  0  0  0  0  0  0  0  0  0
  -29.5380  -16.1210   20.0630 N   0  0  0  0  0  0  0  0  0  0  0  0
  -28.6300  -15.7710   20.3230 H   0  0  0  0  0  0  0  0  0  0  0  0
  -25.3140  -13.7940   20.6620 C   0  0  0  0  0  0  0  0  0  0  0  0
  -24.3170  -12.9610   21.0900 C   0  0  0  0  0  0  0  0  0  0  0  0
  -24.7790  -11.6310   20.8440 C   0  0  0  0  0  0  0  0  0  0  0  0
  -26.3200  -12.9670   20.1850 N   0  0  0  0  0  0  0  0  0  0  0  0
  -26.0130  -11.6560   20.3540 N   0  0  0  0  0  0  0  0  0  0  0  0
  -24.0950  -10.3400   20.9910 C   0  0  0  0  0  0  0  0  0  0  0  0
  -24.4660   -9.4180   21.9940 C   0  0  0  0  0  3  0  0  0  0  0  0
  -23.7830   -8.1900   22.1270 C   0  0  0  0  0  3  0  0  0  0  0  0
  -22.7140   -7.8760   21.2540 C   0  0  0  0  0  0  0  0  0  0  0  0
  -22.3640   -8.7870   20.2420 C   0  0  0  0  0  3  0  0  0  0  0  0
  -23.0490  -10.0070   20.1080 C   0  0  0  0  0  3  0  0  0  0  0  0
  -22.0090   -6.6970   21.2900 O   0  0  0  0  0  0  0  0  0  0  0  0
  -21.6670   -6.1000   22.4770 C   0  0  0  0  0  0  0  0  0  0  0  0
  -20.8500   -6.7480   23.4300 C   0  0  0  0  0  3  0  0  0  0  0  0
  -20.4660   -6.0700   24.6050 C   0  0  0  0  0  3  0  0  0  0  0  0
  -20.8870   -4.7450   24.8250 C   0  0  0  0  0  0  0  0  0  0  0  0
  -21.6960   -4.0960   23.8750 C   0  0  0  0  0  3  0  0  0  0  0  0
  -22.0820   -4.7710   22.7030 C   0  0  0  0  0  0  0  0  0  0  0  0
  -22.8440   -4.1340   21.7810 F   0  0  0  0  0  0  0  0  0  0  0  0
  -20.5130   -4.0920   25.9490 F   0  0  0  0  0  0  0  0  0  0  0  0
  -22.9670  -13.3750   21.6040 C   0  0  0  0  0  0  0  0  0  0  0  0
  -22.3940  -12.6010   22.5190 N   0  0  0  0  0  0  0  0  0  0  0  0
  -22.4320  -14.4170   21.2290 O   0  0  0  0  0  0  0  0  0  0  0  0
  -22.8430  -11.7580   22.8460 H   0  0  0  0  0  0  0  0  0  0  0  0
  -21.4940  -12.8560   22.8990 H   0  0  0  0  0  0  0  0  0  0  0  0
  -25.4420  -15.1790   20.6150 N   0  0  0  0  0  0  0  0  0  0  0  0
  -24.6820  -15.7940   20.8820 H   0  0  0  0  0  0  0  0  0  0  0  0
  -26.2110  -15.6690   20.1760 H   0  0  0  0  0  0  0  0  0  0  0  0
  -31.0880  -18.0600   20.6140 C   0  0  0  0  0  2  0  0  0  0  0  0
  -31.1170  -20.5330   24.1890 C   0  0  0  0  0  3  0  0  0  0  0  0
  -31.0240  -21.1300   22.9160 C   0  0  0  0  0  3  0  0  0  0  0  0
  -31.2380  -19.1340   24.3020 C   0  0  0  0  0  3  0  0  0  0  0  0
  -31.0320  -20.3280   21.7570 C   0  0  0  0  0  3  0  0  0  0  0  0
  -31.2580  -18.3340   23.1430 C   0  0  0  0  0  3  0  0  0  0  0  0
  -31.1380  -18.9250   21.8670 C   0  0  0  0  0  0  0  0  0  0  0  0
  1  7  1  0
  1 11  1  0
  2  8  1  0
  2 53  1  0
  3  5  1  0
  4  7  1  0
  6  4  1  0
  6  8  1  0
  7  3  1  0
  8  5  1  0
  9  1  2  0
 10  2  2  0
 12 14  1  0
 12 11  1  0
 13 24  2  0
 14 19  1  0
 15 23  1  0
 15 25  1  0
 16 22  1  0
 16 18  1  0
 17 23  1  0
 18 17  1  0
 19 18  2  0
 20 21  1  0
 20 14  2  0
 21 16  2  0
 22 15  1  0
 23 13  1  0
 25 27  2  0
 26 25  1  0
 28 26  1  0
 29 38  2  0
 29 34  1  0
 30 26  1  0
 30 34  1  0
 31 30  1  0
 32 33  1  0
 32 31  1  0
 33 29  1  0
 34 35  2  0
 35 36  1  0
 37 36  2  0
 38 37  1  0
 39 13  1  0
 39 44  1  0
 39 40  1  0
 40 43  1  1
 40 41  1  0
 42 40  1  0
 44 47  1  0
 45 44  1  0
 45 49  1  0
 46 45  2  0
 49 48  1  0
 49 51  1  0
 51 52  1  0
 51 50  1  0
 53 92  1  0
 54 60  1  0
 54 62  1  0
 55 60  1  0
 56 57  1  0
 56 55  1  0
 58 57  1  0
 58 67  1  0
 58 59  1  0
 60 59  1  0
 61 54  2  0
 62 53  1  0
 62 63  1  0
 64 65  2  0
 65 84  1  0
 66 69  1  0
 66 65  1  0
 67 68  1  0
 67 64  1  0
 68 66  2  0
 69 70  1  0
 70 71  2  0
 72 75  1  0
 72 71  1  0
 73 72  2  0
 74 73  1  0
 74 69  2  0
 75 76  1  0
 76 81  2  0
 76 77  1  0
 77 78  2  0
 78 79  1  0
 79 83  1  0
 80 79  2  0
 81 80  1  0
 82 81  1  0
 84 85  1  0
 85 87  1  0
 85 88  1  0
 86 84  2  0
 89 64  1  0
 89 90  1  0
 91 89  1  0
 92 98  1  0
 93 95  1  0
 94 93  2  0
 96 98  2  0
 96 94  1  0
 97 95  2  0
 98 97  1  0
M  ISO  4  11 101  12 101  54 100  62 100
M  END
>  <TORSDO>  (20) 
F 20

>  <SCORE>  (20) 
-11.324

>  <name>  (20) 
19

>  <ligand_id>  (20) 
19

>  <original_smiles>  (20) 
[H]c1c([H])c([H])c(C([H])([H])C([H])(C(=O)N2C([H])([H])C([H])([H])N(C(=O)C([H])([H])Oc3c([H])c([H])c4c(c3[H])C([H])([H])N(C(=O)C([H])(N([H])C(=O)C([H])(N([H])C([H])([H])[H])C([H])([H])[H])C(C([H])([H])[H])(C([H])([H])[H])C([H])([H])[H])C([H])(C(=O)N([H])C3([H])c5c([H])c([H])c([H])c([H])c5C([H])([H])C([H])([H])C3([H])[H])C4([H])[H])C([H])([H])C2([H])[H])N([H])C(=O)N2C([H])([H])C([H])([H])C([H])([H])C([H])(n3nc(-c4c([H])c([H])c(Oc5c([H])c([H])c(F)c([H])c5F)c([H])c4[H])c(C(=O)N([H])[H])c3N([H])[H])C2([H])[H])c([H])c1[H]

>  <smiles>  (20) 
[H]c1c([H])c([H])c(C([H])([H])C([H])(C(=O)N2C([H])([H])C([H])([H])N(C(=O)C([H])([H])Oc3c([H])c([H])c4c(c3[H])C([H])([H])N(C(=O)C([H])(N([H])C(=O)C([H])(N([H])C([H])([H])[H])C([H])([H])[H])C(C([H])([H])[H])(C([H])([H])[H])C([H])([H])[H])C([H])(C(=O)N([H])C3([H])c5c([H])c([H])c([H])c([H])c5C([H])([H])C([H])([H])C3([H])[H])C4([H])[H])C([H])([H])C2([H])[H])N([H])C(=O)N2C([H])([H])C([H])([H])C([H])([H])C([H])(n3nc(-c4c([H])c([H])c(Oc5c([H])c([H])c(F)c([H])c5F)c([H])c4[H])c(C(=O)N([H])[H])c3N([H])[H])C2([H])[H])c([H])c1[H]

$$$$
20:0:0
     RDKit          3D

 97104  0  0  1  0  0  0  0  0999 V2000
  -29.9940  -19.8910   20.6140 C   0  0  0  0  0  2  0  0  0  0  0  0
  -30.1500  -20.7370   19.3250 C   0  0  0  0  0  2  0  0  0  0  0  0
  -30.5440  -22.2260   19.5310 C   0  0  0  0  0  2  0  0  0  0  0  0
  -29.4790  -24.4730   19.7510 C   0  0  0  0  0  0  0  0  0  0  0  0
  -29.4200  -23.1270   19.8110 N   0  0  0  0  0  0  0  0  0  0  0  0
  -30.5370  -25.0790   19.5540 O   0  0  0  0  0  0  0  0  0  0  0  0
  -28.5220  -22.7090   20.0160 H   0  0  0  0  0  0  0  0  0  0  0  0
  -28.1520  -25.2420   19.9100 C   0  0  0  0  0  2  0  0  0  0  0  0
  -28.2740  -26.6320   19.5370 O   0  0  0  0  0  0  0  0  0  0  0  0
  -24.5070  -31.5530   23.0580 C   0  0  0  0  0  0  0  0  0  0  0  0
  -27.1040  -27.3650   19.5990 C   0  0  0  0  0  0  0  0  0  0  0  0
  -23.2730  -30.2750   21.3390 C   0  0  0  0  0  3  0  0  0  0  0  0
  -24.7030  -28.8600   19.7720 C   0  0  0  0  0  0  0  0  0  0  0  0
  -25.7940  -30.6600   21.1180 C   0  0  0  0  0  2  0  0  0  0  0  0
  -25.8730  -29.3430   20.3720 C   0  0  0  0  0  0  0  0  0  0  0  0
  -27.0780  -28.6070   20.2760 C   0  0  0  0  0  3  0  0  0  0  0  0
  -25.9150  -26.9050   18.9870 C   0  0  0  0  0  3  0  0  0  0  0  0
  -24.7200  -27.6420   19.0760 C   0  0  0  0  0  3  0  0  0  0  0  0
  -23.4550  -29.7040   19.9080 C   0  0  0  0  0  2  0  0  0  0  0  0
  -24.5440  -30.8390   21.8960 N   0  0  0  0  0  0  0  0  0  0  0  0
  -23.4370  -31.7780   23.6390 O   0  0  0  0  0  0  0  0  0  0  0  0
  -22.6450  -29.1790   22.2300 C   0  0  0  0  0  0  0  0  0  0  0  0
  -21.3260  -28.9690   22.0820 N   0  0  0  0  0  0  0  0  0  0  0  0
  -23.3410  -28.5230   23.0090 O   0  0  0  0  0  0  0  0  0  0  0  0
  -20.8260  -29.5540   21.4270 H   0  0  0  0  0  0  0  0  0  0  0  0
  -17.9890  -27.6370   22.4540 C   0  0  0  0  0  0  0  0  0  0  0  0
  -20.5310  -27.9660   22.7890 C   0  0  0  0  0  3  0  0  0  0  0  0
  -20.6940  -26.5710   22.1430 C   0  0  0  0  0  2  0  0  0  0  0  0
  -19.6220  -26.2640   21.0920 C   0  0  0  0  0  2  0  0  0  0  0  0
  -18.2250  -26.3300   21.7150 C   0  0  0  0  0  2  0  0  0  0  0  0
  -19.0730  -28.4130   22.9430 C   0  0  0  0  0  0  0  0  0  0  0  0
  -18.8010  -29.6380   23.5920 C   0  0  0  0  0  3  0  0  0  0  0  0
  -17.4770  -30.0870   23.7560 C   0  0  0  0  0  3  0  0  0  0  0  0
  -16.4070  -29.3060   23.2840 C   0  0  0  0  0  3  0  0  0  0  0  0
  -16.6640  -28.0840   22.6390 C   0  0  0  0  0  3  0  0  0  0  0  0
  -25.8030  -32.1410   23.6980 C   0  0  0  0  0  3  0  0  0  0  0  0
  -26.3450  -31.2840   24.9060 C   0  0  1  0  0  0  0  0  0  0  0  0
  -25.2640  -30.9350   25.9560 C   0  0  0  0  0  1  0  0  0  0  0  0
  -26.9570  -29.9560   24.4020 C   0  0  0  0  0  1  0  0  0  0  0  0
  -27.4800  -32.0510   25.6260 C   0  0  0  0  0  1  0  0  0  0  0  0
  -25.5030  -33.5130   24.1260 N   0  0  0  0  0  0  0  0  0  0  0  0
  -25.8190  -34.6140   23.4300 C   0  0  0  0  0  0  0  0  0  0  0  0
  -26.4670  -34.5800   22.3810 O   0  0  0  0  0  0  0  0  0  0  0  0
  -24.9250  -33.6130   24.9480 H   0  0  0  0  0  0  0  0  0  0  0  0
  -24.0750  -36.4150   23.2370 C   0  0  0  0  0  1  0  0  0  0  0  0
  -25.3390  -35.9670   23.9880 C   0  0  0  0  0  3  0  0  0  0  0  0
  -27.4940  -36.8050   24.8150 C   0  0  0  0  0  1  0  0  0  0  0  0
  -26.3650  -37.0300   23.9160 N   0  0  0  0  0  0  0  0  0  0  0  0
  -25.9600  -37.9370   24.1370 H   0  0  0  0  0  0  0  0  0  0  0  0
  -30.2050  -18.3570   20.4010 C   0  0  0  0  0  2  0  0  0  0  0  0
  -30.2550  -17.4900   21.7000 C   0  0  0  0  0  3  0  0  0  0  0  0
  -30.6140  -18.7120   23.8590 C   0  0  0  0  0  0  0  0  0  0  0  0
  -31.6530  -19.3990   24.7360 C   0  0  0  0  0  1  0  0  0  0  0  0
  -31.0580  -18.1850   22.7110 N   0  0  0  0  0  0  0  0  0  0  0  0
  -29.4390  -18.6660   24.2210 O   0  0  0  0  0  0  0  0  0  0  0  0
  -32.0430  -18.2960   22.5100 H   0  0  0  0  0  0  0  0  0  0  0  0
  -30.6680  -15.9660   21.5380 C   0  0  0  0  0  3  0  0  0  0  0  0
  -31.3810  -14.5090   19.5590 C   0  0  0  0  0  0  0  0  0  0  0  0
  -30.7230  -12.4910   18.3000 C   0  0  0  0  0  2  0  0  0  0  0  0
  -29.6700  -12.8870   17.2430 C   0  0  0  0  0  2  0  0  0  0  0  0
  -28.2510  -12.8330   17.8470 C   0  0  0  0  0  2  0  0  0  0  0  0
  -28.1570  -13.5780   19.2080 C   0  0  0  0  0  3  0  0  0  0  0  0
  -29.3130  -13.1560   20.1420 C   0  0  0  0  0  2  0  0  0  0  0  0
  -30.5760  -13.4150   19.4370 N   0  0  0  0  0  0  0  0  0  0  0  0
  -32.4320  -14.6280   18.9280 O   0  0  0  0  0  0  0  0  0  0  0  0
  -30.8500  -15.6170   20.1160 N   0  0  0  0  0  0  0  0  0  0  0  0
  -31.1980  -16.4270   19.6260 H   0  0  0  0  0  0  0  0  0  0  0  0
  -25.9240  -14.3320   20.2440 C   0  0  0  0  0  0  0  0  0  0  0  0
  -24.8450  -13.6260   20.7050 C   0  0  0  0  0  0  0  0  0  0  0  0
  -25.1790  -12.2460   20.5480 C   0  0  0  0  0  0  0  0  0  0  0  0
  -26.8520  -13.3850   19.8360 N   0  0  0  0  0  0  0  0  0  0  0  0
  -26.4130  -12.1230   20.0750 N   0  0  0  0  0  0  0  0  0  0  0  0
  -24.3750  -11.0380   20.7690 C   0  0  0  0  0  0  0  0  0  0  0  0
  -24.7730  -10.0500   21.6990 C   0  0  0  0  0  3  0  0  0  0  0  0
  -23.9780   -8.9010   21.9070 C   0  0  0  0  0  3  0  0  0  0  0  0
  -22.7720   -8.7340   21.1870 C   0  0  0  0  0  0  0  0  0  0  0  0
  -22.3930   -9.7080   20.2480 C   0  0  0  0  0  3  0  0  0  0  0  0
  -23.1860  -10.8480   20.0370 C   0  0  0  0  0  3  0  0  0  0  0  0
  -21.9500   -7.6400   21.3050 O   0  0  0  0  0  0  0  0  0  0  0  0
  -21.7720   -7.0000   22.5050 C   0  0  0  0  0  0  0  0  0  0  0  0
  -21.3590   -7.6910   23.6650 C   0  0  0  0  0  3  0  0  0  0  0  0
  -21.1230   -6.9820   24.8600 C   0  0  0  0  0  3  0  0  0  0  0  0
  -21.2890   -5.5840   24.8940 C   0  0  0  0  0  0  0  0  0  0  0  0
  -21.6930   -4.8930   23.7370 C   0  0  0  0  0  3  0  0  0  0  0  0
  -21.9320   -5.6010   22.5460 C   0  0  0  0  0  0  0  0  0  0  0  0
  -22.3050   -4.9280   21.4290 F   0  0  0  0  0  0  0  0  0  0  0  0
  -21.0510   -4.9020   26.0380 F   0  0  0  0  0  0  0  0  0  0  0  0
  -23.5380  -14.1950   21.1780 C   0  0  0  0  0  0  0  0  0  0  0  0
  -22.9150  -13.5660   22.1680 N   0  0  0  0  0  0  0  0  0  0  0  0
  -23.0840  -15.2350   20.7010 O   0  0  0  0  0  0  0  0  0  0  0  0
  -23.2960  -12.7260   22.5760 H   0  0  0  0  0  0  0  0  0  0  0  0
  -22.0430  -13.9340   22.5230 H   0  0  0  0  0  0  0  0  0  0  0  0
  -26.1850  -15.6940   20.1190 N   0  0  0  0  0  0  0  0  0  0  0  0
  -25.5050  -16.3990   20.3820 H   0  0  0  0  0  0  0  0  0  0  0  0
  -27.0280  -16.0850   19.7190 H   0  0  0  0  0  0  0  0  0  0  0  0
  -31.8590  -15.4850   22.4230 C   0  0  0  0  0  2  0  0  0  0  0  0
  -31.4150  -15.4100   24.1530 Cl  0  0  0  0  0  0  0  0  0  0  0  0
  2  3  1  0
  2  1  1  0
  3  5  1  0
  4  5  1  0
  4  8  1  0
  5  7  1  0
  6  4  2  0
  9 11  1  0
  9  8  1  0
 10 21  2  0
 11 16  1  0
 12 20  1  0
 12 22  1  0
 13 19  1  0
 13 15  1  0
 14 20  1  0
 15 14  1  0
 16 15  2  0
 17 18  1  0
 17 11  2  0
 18 13  2  0
 19 12  1  0
 20 10  1  0
 22 24  2  0
 23 22  1  0
 25 23  1  0
 26 35  2  0
 26 31  1  0
 27 23  1  0
 27 31  1  0
 28 27  1  0
 29 30  1  0
 29 28  1  0
 30 26  1  0
 31 32  2  0
 32 33  1  0
 34 33  2  0
 35 34  1  0
 36 10  1  0
 36 41  1  0
 36 37  1  0
 37 40  1  1
 37 38  1  0
 39 37  1  0
 41 44  1  0
 42 46  1  0
 42 41  1  0
 43 42  2  0
 46 45  1  0
 48 46  1  0
 48 49  1  0
 48 47  1  0
 50  1  1  0
 51 50  1  0
 51 54  1  0
 52 55  2  0
 52 53  1  0
 54 52  1  0
 56 54  1  0
 57 51  1  0
 57 96  1  0
 58 66  1  0
 59 64  1  0
 60 61  1  0
 60 59  1  0
 62 61  1  0
 62 71  1  0
 62 63  1  0
 64 58  1  0
 64 63  1  0
 65 58  2  0
 66 57  1  0
 67 66  1  0
 68 69  2  0
 69 88  1  0
 70 69  1  0
 70 73  1  0
 71 72  1  0
 71 68  1  0
 72 70  2  0
 73 74  1  0
 74 75  2  0
 76 79  1  0
 76 75  1  0
 77 76  2  0
 78 77  1  0
 78 73  2  0
 79 80  1  0
 80 85  2  0
 80 81  1  0
 81 82  2  0
 82 83  1  0
 83 87  1  0
 84 83  2  0
 85 84  1  0
 86 85  1  0
 88 89  1  0
 89 92  1  0
 89 91  1  0
 90 88  2  0
 93 68  1  0
 93 94  1  0
 95 93  1  0
 96 97  1  0
M  ISO  4   8 101   9 101  58 100  66 100
M  END
>  <TORSDO>  (21) 
F 25

>  <SCORE>  (21) 
-1.482

>  <name>  (21) 
20

>  <ligand_id>  (21) 
20

>  <original_smiles>  (21) 
[H]c1c([H])c([H])c2c(c1[H])C([H])([H])C([H])([H])C([H])([H])C2([H])N([H])C(=O)C1([H])N(C(=O)C([H])(N([H])C(=O)C([H])(N([H])C([H])([H])[H])C([H])([H])[H])C(C([H])([H])[H])(C([H])([H])[H])C([H])([H])[H])C([H])([H])c2c([H])c(OC([H])([H])C(=O)N([H])C([H])([H])C([H])([H])C([H])([H])C([H])([H])C([H])(N([H])C(=O)C([H])([H])[H])C([H])(N([H])C(=O)N3C([H])([H])C([H])([H])C([H])([H])C([H])(n4nc(-c5c([H])c([H])c(Oc6c([H])c([H])c(F)c([H])c6F)c([H])c5[H])c(C(=O)N([H])[H])c4N([H])[H])C3([H])[H])C([H])([H])Cl)c([H])c([H])c2C1([H])[H]

>  <smiles>  (21) 
[H]c1c([H])c([H])c2c(c1[H])C([H])([H])C([H])([H])C([H])([H])C2([H])N([H])C(=O)C1([H])N(C(=O)C([H])(N([H])C(=O)C([H])(N([H])C([H])([H])[H])C([H])([H])[H])C(C([H])([H])[H])(C([H])([H])[H])C([H])([H])[H])C([H])([H])c2c([H])c(OC([H])([H])C(=O)N([H])C([H])([H])C([H])([H])C([H])([H])C([H])([H])C([H])(N([H])C(=O)C([H])([H])[H])C([H])(N([H])C(=O)N3C([H])([H])C([H])([H])C([H])([H])C([H])(n4nc(-c5c([H])c([H])c(Oc6c([H])c([H])c(F)c([H])c6F)c([H])c5[H])c(C(=O)N([H])[H])c4N([H])[H])C3([H])[H])C([H])([H])Cl)c([H])c([H])c2C1([H])[H]

$$$$
21:0:0
     RDKit          3D

 92 99  0  0  1  0  0  0  0  0999 V2000
  -28.4370  -21.6470   20.4360 C   0  0  0  0  0  3  0  0  0  0  0  0
  -27.5300  -21.5390   21.6740 C   0  0  0  0  0  0  0  0  0  0  0  0
  -26.2190  -21.4620   21.4910 N   0  0  0  0  0  0  0  0  0  0  0  0
  -28.0200  -21.5280   22.8030 O   0  0  0  0  0  0  0  0  0  0  0  0
  -25.8410  -21.4080   20.5560 H   0  0  0  0  0  0  0  0  0  0  0  0
  -25.5920  -21.3770   22.2800 H   0  0  0  0  0  0  0  0  0  0  0  0
  -29.0320  -18.9760   20.4390 C   0  0  0  0  0  0  0  0  0  0  0  0
  -29.3750  -20.3600   20.4500 N   0  0  0  0  0  0  0  0  0  0  0  0
  -27.8340  -18.7020   20.3370 O   0  0  0  0  0  0  0  0  0  0  0  0
  -30.3620  -20.5530   20.5400 H   0  0  0  0  0  0  0  0  0  0  0  0
  -30.0420  -17.6580   20.5330 C   0  0  0  0  0  2  0  0  0  0  0  0
  -30.5490  -14.9300   20.4340 C   0  0  0  0  0  0  0  0  0  0  0  0
  -30.4450  -12.5800   19.4980 C   0  0  0  0  0  2  0  0  0  0  0  0
  -29.5220  -12.5190   18.2590 C   0  0  0  0  0  2  0  0  0  0  0  0
  -28.0570  -12.3010   18.6810 C   0  0  0  0  0  2  0  0  0  0  0  0
  -27.6320  -13.2420   19.8390 C   0  0  0  0  0  3  0  0  0  0  0  0
  -28.6730  -13.2660   20.9780 C   0  0  0  0  0  2  0  0  0  0  0  0
  -29.9520  -13.6730   20.3830 N   0  0  0  0  0  0  0  0  0  0  0  0
  -31.7490  -15.0040   20.1550 O   0  0  0  0  0  0  0  0  0  0  0  0
  -29.7640  -16.0990   20.6000 N   0  0  0  0  0  0  0  0  0  0  0  0
  -28.7920  -15.8920   20.7740 H   0  0  0  0  0  0  0  0  0  0  0  0
  -25.2470  -13.8200   20.5700 C   0  0  0  0  0  0  0  0  0  0  0  0
  -24.1780  -13.0440   20.9220 C   0  0  0  0  0  0  0  0  0  0  0  0
  -24.6390  -11.6930   20.8760 C   0  0  0  0  0  0  0  0  0  0  0  0
  -26.2890  -12.9430   20.3240 N   0  0  0  0  0  0  0  0  0  0  0  0
  -25.9320  -11.6560   20.5730 N   0  0  0  0  0  0  0  0  0  0  0  0
  -23.9070  -10.4290   21.0410 C   0  0  0  0  0  0  0  0  0  0  0  0
  -24.3620   -9.4200   21.9190 C   0  0  0  0  0  3  0  0  0  0  0  0
  -23.6290   -8.2230   22.0750 C   0  0  0  0  0  3  0  0  0  0  0  0
  -22.4270   -8.0280   21.3540 C   0  0  0  0  0  0  0  0  0  0  0  0
  -21.9910   -9.0250   20.4650 C   0  0  0  0  0  3  0  0  0  0  0  0
  -22.7250  -10.2130   20.3060 C   0  0  0  0  0  3  0  0  0  0  0  0
  -21.6640   -6.8880   21.4240 O   0  0  0  0  0  0  0  0  0  0  0  0
  -21.6860   -6.0730   22.5280 C   0  0  0  0  0  0  0  0  0  0  0  0
  -21.4010   -6.5640   23.8220 C   0  0  0  0  0  3  0  0  0  0  0  0
  -21.3660   -5.6790   24.9180 C   0  0  0  0  0  3  0  0  0  0  0  0
  -21.6040   -4.3060   24.7230 C   0  0  0  0  0  0  0  0  0  0  0  0
  -21.8820   -3.8140   23.4350 C   0  0  0  0  0  3  0  0  0  0  0  0
  -21.9190   -4.6960   22.3410 C   0  0  0  0  0  0  0  0  0  0  0  0
  -22.1660   -4.2150   21.0990 F   0  0  0  0  0  0  0  0  0  0  0  0
  -21.5630   -3.4540   25.7740 F   0  0  0  0  0  0  0  0  0  0  0  0
  -22.7800  -13.5210   21.1880 C   0  0  0  0  0  0  0  0  0  0  0  0
  -22.0450  -12.8190   22.0440 N   0  0  0  0  0  0  0  0  0  0  0  0
  -22.3490  -14.5530   20.6750 O   0  0  0  0  0  0  0  0  0  0  0  0
  -22.4070  -11.9850   22.4830 H   0  0  0  0  0  0  0  0  0  0  0  0
  -21.1070  -13.1220   22.2640 H   0  0  0  0  0  0  0  0  0  0  0  0
  -25.4150  -15.1930   20.4130 N   0  0  0  0  0  0  0  0  0  0  0  0
  -24.6480  -15.8450   20.5340 H   0  0  0  0  0  0  0  0  0  0  0  0
  -26.2580  -15.6400   20.0770 H   0  0  0  0  0  0  0  0  0  0  0  0
  -28.9710  -23.2590   20.3740 C   0  0  0  0  0  3  0  0  0  0  0  0
  -27.9510  -24.6010   20.1770 C   0  0  0  0  0  3  0  0  0  0  0  0
  -28.2620  -26.1330   20.2410 O   0  0  0  0  0  0  0  0  0  0  0  0
  -24.6450  -31.8460   23.1860 C   0  0  0  0  0  0  0  0  0  0  0  0
  -27.2150  -27.1280   20.1650 C   0  0  0  0  0  0  0  0  0  0  0  0
  -23.4460  -30.4670   21.5310 C   0  0  0  0  0  3  0  0  0  0  0  0
  -24.8990  -28.8930   20.1100 C   0  0  0  0  0  0  0  0  0  0  0  0
  -26.0050  -30.7180   21.3880 C   0  0  0  0  0  2  0  0  0  0  0  0
  -26.0770  -29.3300   20.7280 C   0  0  0  0  0  0  0  0  0  0  0  0
  -27.2380  -28.4660   20.7350 C   0  0  0  0  0  3  0  0  0  0  0  0
  -26.0080  -26.7940   19.5110 C   0  0  0  0  0  3  0  0  0  0  0  0
  -24.8790  -27.6390   19.4840 C   0  0  0  0  0  3  0  0  0  0  0  0
  -23.6740  -29.7950   20.1510 C   0  0  0  0  0  2  0  0  0  0  0  0
  -24.7180  -31.0330   22.0890 N   0  0  0  0  0  0  0  0  0  0  0  0
  -23.5570  -32.1360   23.7080 O   0  0  0  0  0  0  0  0  0  0  0  0
  -22.7550  -29.4590   22.4840 C   0  0  0  0  0  0  0  0  0  0  0  0
  -21.4250  -29.3070   22.3590 N   0  0  0  0  0  0  0  0  0  0  0  0
  -23.4190  -28.8140   23.3000 O   0  0  0  0  0  0  0  0  0  0  0  0
  -20.9450  -29.8730   21.6720 H   0  0  0  0  0  0  0  0  0  0  0  0
  -18.0320  -28.1390   22.8480 C   0  0  0  0  0  0  0  0  0  0  0  0
  -20.5930  -28.3740   23.1230 C   0  0  0  0  0  3  0  0  0  0  0  0
  -20.6810  -26.9440   22.5400 C   0  0  0  0  0  2  0  0  0  0  0  0
  -19.5780  -26.6390   21.5210 C   0  0  0  0  0  2  0  0  0  0  0  0
  -18.1960  -26.7930   22.1620 C   0  0  0  0  0  2  0  0  0  0  0  0
  -19.1560  -28.8880   23.2840 C   0  0  0  0  0  0  0  0  0  0  0  0
  -18.9470  -30.1470   23.8870 C   0  0  0  0  0  3  0  0  0  0  0  0
  -17.6470  -30.6580   24.0560 C   0  0  0  0  0  3  0  0  0  0  0  0
  -16.5360  -29.9070   23.6330 C   0  0  0  0  0  3  0  0  0  0  0  0
  -16.7290  -28.6480   23.0360 C   0  0  0  0  0  3  0  0  0  0  0  0
  -25.9230  -32.4690   23.8260 C   0  0  0  0  0  3  0  0  0  0  0  0
  -25.5970  -33.8490   24.2190 N   0  0  0  0  0  0  0  0  0  0  0  0
  -25.9070  -34.9410   23.5070 C   0  0  0  0  0  0  0  0  0  0  0  0
  -26.5650  -34.8910   22.4640 O   0  0  0  0  0  0  0  0  0  0  0  0
  -25.0120  -33.9600   25.0350 H   0  0  0  0  0  0  0  0  0  0  0  0
  -24.1490  -36.7260   23.2640 C   0  0  0  0  0  1  0  0  0  0  0  0
  -25.4120  -36.3030   24.0320 C   0  0  0  0  0  3  0  0  0  0  0  0
  -27.5570  -37.1780   24.8470 C   0  0  0  0  0  1  0  0  0  0  0  0
  -26.4290  -37.3740   23.9400 N   0  0  0  0  0  0  0  0  0  0  0  0
  -26.0160  -38.2810   24.1390 H   0  0  0  0  0  0  0  0  0  0  0  0
  -26.4540  -31.6540   25.0700 C   0  0  1  0  0  0  0  0  0  0  0  0
  -25.3720  -31.3720   26.1380 C   0  0  0  0  0  1  0  0  0  0  0  0
  -27.0420  -30.2930   24.6310 C   0  0  0  0  0  1  0  0  0  0  0  0
  -27.6060  -32.4300   25.7480 C   0  0  0  0  0  1  0  0  0  0  0  0
  1 50  1  0
  1  8  1  0
  1  2  1  0
  2  4  2  0
  3  2  1  0
  3  6  1  0
  5  3  1  0
  7  8  1  0
  7 11  1  0
  8 10  1  0
  9  7  2  0
 11 20  1  0
 12 20  1  0
 13 18  1  0
 14 15  1  0
 14 13  1  0
 16 15  1  0
 16 25  1  0
 16 17  1  0
 18 12  1  0
 18 17  1  0
 19 12  2  0
 20 21  1  0
 22 23  2  0
 23 42  1  0
 24 23  1  0
 24 27  1  0
 25 22  1  0
 25 26  1  0
 26 24  2  0
 27 28  1  0
 28 29  2  0
 30 33  1  0
 30 29  1  0
 31 30  2  0
 32 31  1  0
 32 27  2  0
 33 34  1  0
 34 35  1  0
 35 36  2  0
 37 36  1  0
 37 41  1  0
 38 37  2  0
 39 34  2  0
 39 38  1  0
 40 39  1  0
 42 43  1  0
 43 46  1  0
 43 45  1  0
 44 42  2  0
 47 48  1  0
 47 22  1  0
 49 47  1  0
 51 52  1  0
 51 50  2  0
 53 64  2  0
 54 52  1  0
 54 59  1  0
 55 63  1  0
 55 65  1  0
 56 62  1  0
 56 58  1  0
 57 63  1  0
 58 59  2  0
 58 57  1  0
 60 54  2  0
 61 60  1  0
 61 56  2  0
 62 55  1  0
 63 53  1  0
 65 67  2  0
 66 65  1  0
 68 66  1  0
 69 78  2  0
 69 74  1  0
 70 66  1  0
 70 74  1  0
 71 70  1  0
 72 73  1  0
 72 71  1  0
 73 69  1  0
 74 75  2  0
 75 76  1  0
 77 76  2  0
 78 77  1  0
 79 53  1  0
 79 80  1  0
 79 89  1  0
 80 83  1  0
 81 85  1  0
 81 80  1  0
 82 81  2  0
 85 84  1  0
 87 85  1  0
 87 88  1  0
 87 86  1  0
 89 92  1  1
 89 90  1  0
 91 89  1  0
M  ISO  4  12 100  20 100  51 101  52 101
M  END
>  <TORSDO>  (22) 
F 21

>  <SCORE>  (22) 
-10.150

>  <name>  (22) 
21

>  <ligand_id>  (22) 
21

>  <original_smiles>  (22) 
[H]c1c([H])c([H])c2c(c1[H])C([H])([H])C([H])([H])C([H])([H])C2([H])N([H])C(=O)C1([H])N(C(=O)C([H])(N([H])C(=O)C([H])(N([H])C([H])([H])[H])C([H])([H])[H])C(C([H])([H])[H])(C([H])([H])[H])C([H])([H])[H])C([H])([H])c2c([H])c(OC([H])([H])C([H])([H])C([H])(C(=O)N([H])[H])N([H])C(=O)C([H])([H])N([H])C(=O)N3C([H])([H])C([H])([H])C([H])([H])C([H])(n4nc(-c5c([H])c([H])c(Oc6c([H])c([H])c(F)c([H])c6F)c([H])c5[H])c(C(=O)N([H])[H])c4N([H])[H])C3([H])[H])c([H])c([H])c2C1([H])[H]

>  <smiles>  (22) 
[H]c1c([H])c([H])c2c(c1[H])C([H])([H])C([H])([H])C([H])([H])C2([H])N([H])C(=O)C1([H])N(C(=O)C([H])(N([H])C(=O)C([H])(N([H])C([H])([H])[H])C([H])([H])[H])C(C([H])([H])[H])(C([H])([H])[H])C([H])([H])[H])C([H])([H])c2c([H])c(OC([H])([H])C([H])([H])C([H])(C(=O)N([H])[H])N([H])C(=O)C([H])([H])N([H])C(=O)N3C([H])([H])C([H])([H])C([H])([H])C([H])(n4nc(-c5c([H])c([H])c(Oc6c([H])c([H])c(F)c([H])c6F)c([H])c5[H])c(C(=O)N([H])[H])c4N([H])[H])C3([H])[H])c([H])c([H])c2C1([H])[H]

$$$$
22:0:0
     RDKit          3D

 96103  0  0  1  0  0  0  0  0999 V2000
  -28.4730  -24.0560   18.7240 C   0  0  0  0  0  3  0  0  0  0  0  0
  -27.0460  -23.6280   18.3130 C   0  0  0  0  0  0  0  0  0  0  0  0
  -26.8150  -23.2950   17.0420 N   0  0  0  0  0  0  0  0  0  0  0  0
  -26.1510  -23.5220   19.1510 O   0  0  0  0  0  0  0  0  0  0  0  0
  -27.5560  -23.3230   16.3530 H   0  0  0  0  0  0  0  0  0  0  0  0
  -25.9090  -22.9470   16.7630 H   0  0  0  0  0  0  0  0  0  0  0  0
  -29.3890  -21.8600   19.5340 C   0  0  0  0  0  0  0  0  0  0  0  0
  -28.9180  -23.1130   19.7950 N   0  0  0  0  0  0  0  0  0  0  0  0
  -29.8190  -21.5580   18.4180 O   0  0  0  0  0  0  0  0  0  0  0  0
  -28.5840  -23.3060   20.7270 H   0  0  0  0  0  0  0  0  0  0  0  0
  -29.3760  -20.7440   20.6260 C   0  0  0  0  0  2  0  0  0  0  0  0
  -29.7350  -18.2120   20.6270 C   0  0  0  0  0  0  0  0  0  0  0  0
  -30.0210  -19.4660   20.2020 N   0  0  0  0  0  0  0  0  0  0  0  0
  -28.8270  -17.9890   21.4280 O   0  0  0  0  0  0  0  0  0  0  0  0
  -30.7500  -19.5750   19.5080 H   0  0  0  0  0  0  0  0  0  0  0  0
  -30.5970  -17.0290   20.1070 C   0  0  0  0  0  2  0  0  0  0  0  0
  -30.7550  -14.5350   20.0250 C   0  0  0  0  0  0  0  0  0  0  0  0
  -30.3720  -12.3500   18.9420 C   0  0  0  0  0  2  0  0  0  0  0  0
  -29.3860  -12.5650   17.7740 C   0  0  0  0  0  2  0  0  0  0  0  0
  -27.9340  -12.4290   18.2690 C   0  0  0  0  0  2  0  0  0  0  0  0
  -27.6580  -13.2680   19.5460 C   0  0  0  0  0  3  0  0  0  0  0  0
  -28.7660  -13.0800   20.6060 C   0  0  0  0  0  2  0  0  0  0  0  0
  -30.0560  -13.3630   19.9660 N   0  0  0  0  0  0  0  0  0  0  0  0
  -31.8960  -14.6300   19.5710 O   0  0  0  0  0  0  0  0  0  0  0  0
  -30.0820  -15.6550   20.3750 N   0  0  0  0  0  0  0  0  0  0  0  0
  -29.1350  -15.5860   20.7170 H   0  0  0  0  0  0  0  0  0  0  0  0
  -25.3070  -13.8800   20.3920 C   0  0  0  0  0  0  0  0  0  0  0  0
  -24.2500  -13.1140   20.8030 C   0  0  0  0  0  0  0  0  0  0  0  0
  -24.6970  -11.7590   20.7290 C   0  0  0  0  0  0  0  0  0  0  0  0
  -26.3300  -12.9950   20.0920 N   0  0  0  0  0  0  0  0  0  0  0  0
  -25.9700  -11.7130   20.3570 N   0  0  0  0  0  0  0  0  0  0  0  0
  -23.9680  -10.5000   20.9360 C   0  0  0  0  0  0  0  0  0  0  0  0
  -24.4180   -9.5340   21.8600 C   0  0  0  0  0  3  0  0  0  0  0  0
  -23.6910   -8.3410   22.0580 C   0  0  0  0  0  3  0  0  0  0  0  0
  -22.5030   -8.1040   21.3290 C   0  0  0  0  0  0  0  0  0  0  0  0
  -22.0750   -9.0620   20.3920 C   0  0  0  0  0  3  0  0  0  0  0  0
  -22.8010  -10.2460   20.1910 C   0  0  0  0  0  3  0  0  0  0  0  0
  -21.7460   -6.9630   21.4340 O   0  0  0  0  0  0  0  0  0  0  0  0
  -21.6850   -6.2430   22.5990 C   0  0  0  0  0  0  0  0  0  0  0  0
  -21.2490   -6.8240   23.8110 C   0  0  0  0  0  3  0  0  0  0  0  0
  -21.1350   -6.0300   24.9700 C   0  0  0  0  0  3  0  0  0  0  0  0
  -21.4450   -4.6570   24.9180 C   0  0  0  0  0  0  0  0  0  0  0  0
  -21.8710   -4.0760   23.7100 C   0  0  0  0  0  3  0  0  0  0  0  0
  -21.9850   -4.8670   22.5530 C   0  0  0  0  0  0  0  0  0  0  0  0
  -22.3770   -4.2990   21.3880 F   0  0  0  0  0  0  0  0  0  0  0  0
  -21.3290   -3.8930   26.0290 F   0  0  0  0  0  0  0  0  0  0  0  0
  -22.8740  -13.6030   21.1510 C   0  0  0  0  0  0  0  0  0  0  0  0
  -22.1850  -12.9030   22.0450 N   0  0  0  0  0  0  0  0  0  0  0  0
  -22.4210  -14.6370   20.6630 O   0  0  0  0  0  0  0  0  0  0  0  0
  -22.5670  -12.0690   22.4670 H   0  0  0  0  0  0  0  0  0  0  0  0
  -21.2590  -13.2100   22.3160 H   0  0  0  0  0  0  0  0  0  0  0  0
  -25.4790  -15.2500   20.2180 N   0  0  0  0  0  0  0  0  0  0  0  0
  -24.7260  -15.9130   20.3550 H   0  0  0  0  0  0  0  0  0  0  0  0
  -26.3120  -15.6780   19.8340 H   0  0  0  0  0  0  0  0  0  0  0  0
  -28.6460  -25.6430   18.9500 C   0  0  0  0  0  2  0  0  0  0  0  0
  -28.3080  -26.4850   20.1090 O   0  0  0  0  0  0  0  0  0  0  0  0
  -24.6070  -31.8710   23.2170 C   0  0  0  0  0  0  0  0  0  0  0  0
  -27.1970  -27.3340   20.0840 C   0  0  0  0  0  0  0  0  0  0  0  0
  -23.3920  -30.4750   21.5840 C   0  0  0  0  0  3  0  0  0  0  0  0
  -24.8300  -28.9260   20.1480 C   0  0  0  0  0  0  0  0  0  0  0  0
  -25.9350  -30.7820   21.4010 C   0  0  0  0  0  2  0  0  0  0  0  0
  -26.0040  -29.4110   20.7390 C   0  0  0  0  0  0  0  0  0  0  0  0
  -27.1880  -28.6170   20.7130 C   0  0  0  0  0  3  0  0  0  0  0  0
  -25.9970  -26.8970   19.4960 C   0  0  0  0  0  3  0  0  0  0  0  0
  -24.8240  -27.6670   19.5320 C   0  0  0  0  0  3  0  0  0  0  0  0
  -23.5980  -29.8020   20.2030 C   0  0  0  0  0  2  0  0  0  0  0  0
  -24.6630  -31.0620   22.1210 N   0  0  0  0  0  0  0  0  0  0  0  0
  -23.5260  -32.1530   23.7550 O   0  0  0  0  0  0  0  0  0  0  0  0
  -22.7370  -29.4570   22.5460 C   0  0  0  0  0  0  0  0  0  0  0  0
  -21.4110  -29.2720   22.4180 N   0  0  0  0  0  0  0  0  0  0  0  0
  -23.4160  -28.8330   23.3660 O   0  0  0  0  0  0  0  0  0  0  0  0
  -20.9200  -29.8250   21.7270 H   0  0  0  0  0  0  0  0  0  0  0  0
  -18.0420  -28.0570   22.9020 C   0  0  0  0  0  0  0  0  0  0  0  0
  -20.5940  -28.3350   23.1890 C   0  0  0  0  0  3  0  0  0  0  0  0
  -20.7110  -26.9000   22.6270 C   0  0  0  0  0  2  0  0  0  0  0  0
  -19.6200  -26.5620   21.6070 C   0  0  0  0  0  2  0  0  0  0  0  0
  -18.2320  -26.7030   22.2400 C   0  0  0  0  0  2  0  0  0  0  0  0
  -19.1510  -28.8310   23.3330 C   0  0  0  0  0  0  0  0  0  0  0  0
  -18.9180  -30.0980   23.9100 C   0  0  0  0  0  3  0  0  0  0  0  0
  -17.6090  -30.5910   24.0620 C   0  0  0  0  0  3  0  0  0  0  0  0
  -16.5120  -29.8130   23.6490 C   0  0  0  0  0  3  0  0  0  0  0  0
  -16.7300  -28.5490   23.0730 C   0  0  0  0  0  3  0  0  0  0  0  0
  -25.8950  -32.5010   23.8340 C   0  0  0  0  0  3  0  0  0  0  0  0
  -25.5830  -33.8970   24.1720 N   0  0  0  0  0  0  0  0  0  0  0  0
  -25.8980  -34.9550   23.4130 C   0  0  0  0  0  0  0  0  0  0  0  0
  -26.5510  -34.8590   22.3710 O   0  0  0  0  0  0  0  0  0  0  0  0
  -24.9990  -34.0450   24.9810 H   0  0  0  0  0  0  0  0  0  0  0  0
  -24.1490  -36.7360   23.1070 C   0  0  0  0  0  1  0  0  0  0  0  0
  -25.4110  -36.3370   23.8870 C   0  0  0  0  0  3  0  0  0  0  0  0
  -27.5590  -37.2330   24.6680 C   0  0  0  0  0  1  0  0  0  0  0  0
  -26.4300  -37.4000   23.7570 N   0  0  0  0  0  0  0  0  0  0  0  0
  -26.0180  -38.3130   23.9270 H   0  0  0  0  0  0  0  0  0  0  0  0
  -26.4200  -31.7260   25.1050 C   0  0  1  0  0  0  0  0  0  0  0  0
  -25.3360  -31.4880   26.1820 C   0  0  0  0  0  1  0  0  0  0  0  0
  -26.9990  -30.3480   24.7100 C   0  0  0  0  0  1  0  0  0  0  0  0
  -27.5740  -32.5210   25.7610 C   0  0  0  0  0  1  0  0  0  0  0  0
  1 55  1  0
  1  8  1  0
  2  1  1  0
  2  4  2  0
  3  2  1  0
  5  3  1  0
  6  3  1  0
  7  8  1  0
  7 11  1  0
  8 10  1  0
  9  7  2  0
 12 14  2  0
 13 11  1  0
 13 12  1  0
 15 13  1  0
 16 25  1  0
 16 12  1  0
 17 25  1  0
 18 23  1  0
 19 20  1  0
 19 18  1  0
 21 20  1  0
 21 30  1  0
 21 22  1  0
 23 17  1  0
 23 22  1  0
 24 17  2  0
 25 26  1  0
 27 28  2  0
 28 47  1  0
 29 28  1  0
 29 32  1  0
 30 31  1  0
 30 27  1  0
 31 29  2  0
 32 33  1  0
 33 34  2  0
 35 38  1  0
 35 34  1  0
 36 35  2  0
 37 36  1  0
 37 32  2  0
 38 39  1  0
 39 40  1  0
 40 41  2  0
 42 41  1  0
 42 46  1  0
 43 42  2  0
 44 39  2  0
 44 43  1  0
 45 44  1  0
 47 48  1  0
 48 51  1  0
 48 50  1  0
 49 47  2  0
 52 53  1  0
 52 27  1  0
 54 52  1  0
 55 56  1  0
 57 68  2  0
 58 56  1  0
 58 63  1  0
 59 67  1  0
 59 69  1  0
 60 66  1  0
 60 62  1  0
 61 67  1  0
 62 61  1  0
 63 62  2  0
 64 65  1  0
 64 58  2  0
 65 60  2  0
 66 59  1  0
 67 57  1  0
 69 71  2  0
 70 69  1  0
 72 70  1  0
 73 82  2  0
 73 78  1  0
 74 70  1  0
 74 78  1  0
 75 74  1  0
 76 77  1  0
 76 75  1  0
 77 73  1  0
 78 79  2  0
 79 80  1  0
 81 80  2  0
 82 81  1  0
 83 57  1  0
 83 84  1  0
 83 93  1  0
 84 87  1  0
 85 89  1  0
 85 84  1  0
 86 85  2  0
 89 88  1  0
 91 89  1  0
 91 92  1  0
 91 90  1  0
 93 96  1  1
 93 94  1  0
 95 93  1  0
M  ISO  4  17 100  25 100  55 101  56 101
M  END
>  <TORSDO>  (23) 
F 22

>  <SCORE>  (23) 
-12.319

>  <name>  (23) 
22

>  <ligand_id>  (23) 
22

>  <original_smiles>  (23) 
[H]c1c([H])c([H])c2c(c1[H])C([H])([H])C([H])([H])C([H])([H])C2([H])N([H])C(=O)C1([H])N(C(=O)C([H])(N([H])C(=O)C([H])(N([H])C([H])([H])[H])C([H])([H])[H])C(C([H])([H])[H])(C([H])([H])[H])C([H])([H])[H])C([H])([H])c2c([H])c(OC([H])([H])C([H])(C(=O)N([H])[H])N([H])C(=O)C([H])([H])N([H])C(=O)C([H])([H])N([H])C(=O)N3C([H])([H])C([H])([H])C([H])([H])C([H])(n4nc(-c5c([H])c([H])c(Oc6c([H])c([H])c(F)c([H])c6F)c([H])c5[H])c(C(=O)N([H])[H])c4N([H])[H])C3([H])[H])c([H])c([H])c2C1([H])[H]

>  <smiles>  (23) 
[H]c1c([H])c([H])c2c(c1[H])C([H])([H])C([H])([H])C([H])([H])C2([H])N([H])C(=O)C1([H])N(C(=O)C([H])(N([H])C(=O)C([H])(N([H])C([H])([H])[H])C([H])([H])[H])C(C([H])([H])[H])(C([H])([H])[H])C([H])([H])[H])C([H])([H])c2c([H])c(OC([H])([H])C([H])(C(=O)N([H])[H])N([H])C(=O)C([H])([H])N([H])C(=O)C([H])([H])N([H])C(=O)N3C([H])([H])C([H])([H])C([H])([H])C([H])(n4nc(-c5c([H])c([H])c(Oc6c([H])c([H])c(F)c([H])c6F)c([H])c5[H])c(C(=O)N([H])[H])c4N([H])[H])C3([H])[H])c([H])c([H])c2C1([H])[H]

$$$$
23:0:0
     RDKit          3D

 95102  0  0  1  0  0  0  0  0999 V2000
  -27.4810  -22.6720   21.7390 C   0  0  0  0  0  2  0  0  0  0  0  0
  -26.7800  -23.8720   22.4030 C   0  0  0  0  0  2  0  0  0  0  0  0
  -25.3260  -24.0590   21.9200 C   0  0  0  0  0  2  0  0  0  0  0  0
  -24.4000  -24.6430   23.0140 C   0  0  0  0  0  2  0  0  0  0  0  0
  -23.5250  -26.8010   23.9300 C   0  0  0  0  0  1  0  0  0  0  0  0
  -23.8320  -25.9950   22.7180 N   0  0  2  0  0  4  0  0  0  0  0  0
  -24.5590  -26.5130   22.2450 H   0  0  0  0  0  0  0  0  0  0  0  0
  -22.7280  -24.8070   20.7520 C   0  0  0  0  0  1  0  0  0  0  0  0
  -22.6910  -25.9860   21.7470 C   0  0  0  0  0  3  0  0  0  0  0  0
  -22.5000  -27.3370   21.0180 C   0  0  0  0  0  2  0  0  0  0  0  0
  -24.7380  -27.8960   21.8200 C   0  0  0  0  0  0  0  0  0  0  0  0
  -27.0820  -27.1320   21.8450 C   0  0  0  0  0  2  0  0  0  0  0  0
  -27.9810  -28.1550   21.1220 C   0  0  0  0  0  2  0  0  0  0  0  0
  -28.0090  -27.8910   19.6020 C   0  0  0  0  0  2  0  0  0  0  0  0
  -26.5910  -27.7080   19.0030 C   0  0  0  0  0  3  0  0  0  0  0  0
  -25.7730  -26.7100   19.8460 C   0  0  0  0  0  2  0  0  0  0  0  0
  -25.7450  -27.1940   21.2370 N   0  0  0  0  0  0  0  0  0  0  0  0
  -24.8130  -28.3850   22.9490 O   0  0  0  0  0  0  0  0  0  0  0  0
  -23.6900  -28.1910   21.0370 N   0  0  0  0  0  0  0  0  0  0  0  0
  -23.4080  -29.1400   21.2430 H   0  0  0  0  0  0  0  0  0  0  0  0
  -25.8160  -27.6430   16.5490 C   0  0  0  0  0  0  0  0  0  0  0  0
  -26.3490  -27.0500   15.4360 C   0  0  0  0  0  0  0  0  0  0  0  0
  -27.5220  -26.3660   15.8780 C   0  0  0  0  0  0  0  0  0  0  0  0
  -26.6530  -27.3030   17.6000 N   0  0  0  0  0  0  0  0  0  0  0  0
  -27.6540  -26.4820   17.1930 N   0  0  0  0  0  0  0  0  0  0  0  0
  -28.5590  -25.6540   15.1180 C   0  0  0  0  0  0  0  0  0  0  0  0
  -29.1240  -24.4490   15.5920 C   0  0  0  0  0  3  0  0  0  0  0  0
  -30.1070  -23.7750   14.8380 C   0  0  0  0  0  3  0  0  0  0  0  0
  -30.5330  -24.3020   13.5960 C   0  0  0  0  0  0  0  0  0  0  0  0
  -29.9840  -25.5130   13.1380 C   0  0  0  0  0  3  0  0  0  0  0  0
  -29.0080  -26.1860   13.8920 C   0  0  0  0  0  3  0  0  0  0  0  0
  -31.5010  -23.7280   12.8060 O   0  0  0  0  0  0  0  0  0  0  0  0
  -31.8790  -22.4190   12.9680 C   0  0  0  0  0  0  0  0  0  0  0  0
  -30.9430  -21.3630   12.9270 C   0  0  0  0  0  3  0  0  0  0  0  0
  -31.3830  -20.0280   13.0280 C   0  0  0  0  0  3  0  0  0  0  0  0
  -32.7560  -19.7470   13.1590 C   0  0  0  0  0  0  0  0  0  0  0  0
  -33.6910  -20.7970   13.1950 C   0  0  0  0  0  3  0  0  0  0  0  0
  -33.2520  -22.1300   13.0970 C   0  0  0  0  0  0  0  0  0  0  0  0
  -34.1580  -23.1370   13.1100 F   0  0  0  0  0  0  0  0  0  0  0  0
  -33.1810  -18.4660   13.2480 F   0  0  0  0  0  0  0  0  0  0  0  0
  -25.8570  -27.1920   14.0230 C   0  0  0  0  0  0  0  0  0  0  0  0
  -25.9770  -26.1360   13.2260 N   0  0  0  0  0  0  0  0  0  0  0  0
  -25.3210  -28.2270   13.6330 O   0  0  0  0  0  0  0  0  0  0  0  0
  -26.4010  -25.2790   13.5500 H   0  0  0  0  0  0  0  0  0  0  0  0
  -25.6370  -26.1850   12.2750 H   0  0  0  0  0  0  0  0  0  0  0  0
  -24.7050  -28.4570   16.7540 N   0  0  0  0  0  0  0  0  0  0  0  0
  -24.2370  -28.8550   15.9480 H   0  0  0  0  0  0  0  0  0  0  0  0
  -24.6430  -29.0530   17.5690 H   0  0  0  0  0  0  0  0  0  0  0  0
  -27.1820  -22.5280   20.2350 C   0  0  0  0  0  2  0  0  0  0  0  0
  -25.4790  -23.2850   18.6030 C   0  0  0  0  0  0  0  0  0  0  0  0
  -25.9180  -23.1590   19.8620 N   0  0  0  0  0  0  0  0  0  0  0  0
  -26.0810  -22.7910   17.6450 O   0  0  0  0  0  0  0  0  0  0  0  0
  -25.3720  -23.5890   20.5960 H   0  0  0  0  0  0  0  0  0  0  0  0
  -24.1780  -24.0820   18.3850 C   0  0  0  0  0  2  0  0  0  0  0  0
  -24.1580  -24.6960   17.0870 O   0  0  0  0  0  0  0  0  0  0  0  0
  -17.1380  -25.1400   18.0090 C   0  0  0  0  0  0  0  0  0  0  0  0
  -22.9780  -25.2180   16.5980 C   0  0  0  0  0  0  0  0  0  0  0  0
  -17.9900  -26.0670   15.8790 C   0  0  0  0  0  3  0  0  0  0  0  0
  -20.5230  -26.3120   15.7160 C   0  0  0  0  0  0  0  0  0  0  0  0
  -19.4700  -26.0170   17.9640 C   0  0  0  0  0  2  0  0  0  0  0  0
  -20.6620  -25.8860   17.0410 C   0  0  0  0  0  0  0  0  0  0  0  0
  -21.8880  -25.3450   17.4860 C   0  0  0  0  0  3  0  0  0  0  0  0
  -22.8210  -25.6540   15.2610 C   0  0  0  0  0  3  0  0  0  0  0  0
  -21.5990  -26.1980   14.8200 C   0  0  0  0  0  3  0  0  0  0  0  0
  -19.1820  -26.8910   15.3200 C   0  0  0  0  0  2  0  0  0  0  0  0
  -18.1750  -25.6950   17.3200 N   0  0  0  0  0  0  0  0  0  0  0  0
  -16.0310  -24.9780   17.4780 O   0  0  0  0  0  0  0  0  0  0  0  0
  -17.7590  -24.8490   14.9570 C   0  0  0  0  0  0  0  0  0  0  0  0
  -17.2240  -25.1050   13.7520 N   0  0  0  0  0  0  0  0  0  0  0  0
  -18.0790  -23.7130   15.3150 O   0  0  0  0  0  0  0  0  0  0  0  0
  -16.9800  -26.0620   13.5350 H   0  0  0  0  0  0  0  0  0  0  0  0
  -16.0440  -24.7210   10.3600 C   0  0  0  0  0  0  0  0  0  0  0  0
  -16.9530  -24.1220   12.7040 C   0  0  0  0  0  3  0  0  0  0  0  0
  -18.2530  -23.7040   11.9830 C   0  0  0  0  0  2  0  0  0  0  0  0
  -18.5410  -24.5360   10.7280 C   0  0  0  0  0  2  0  0  0  0  0  0
  -17.3890  -24.4120    9.7250 C   0  0  0  0  0  2  0  0  0  0  0  0
  -15.8430  -24.6000   11.7610 C   0  0  0  0  0  0  0  0  0  0  0  0
  -14.5840  -24.9330   12.3040 C   0  0  0  0  0  3  0  0  0  0  0  0
  -13.5360  -25.3770   11.4750 C   0  0  0  0  0  3  0  0  0  0  0  0
  -13.7350  -25.4810   10.0870 C   0  0  0  0  0  3  0  0  0  0  0  0
  -14.9850  -25.1490    9.5320 C   0  0  0  0  0  3  0  0  0  0  0  0
  -17.2840  -24.7070   19.5010 C   0  0  0  0  0  3  0  0  0  0  0  0
  -18.6770  -24.0340   19.8200 C   0  0  1  0  0  0  0  0  0  0  0  0
  -19.2660  -23.2310   18.6370 C   0  0  0  0  0  1  0  0  0  0  0  0
  -19.7150  -25.1050   20.2280 C   0  0  0  0  0  1  0  0  0  0  0  0
  -18.5320  -23.0760   21.0240 C   0  0  0  0  0  1  0  0  0  0  0  0
  -16.1810  -23.7880   19.8050 N   0  0  0  0  0  0  0  0  0  0  0  0
  -15.1190  -24.0980   20.5610 C   0  0  0  0  0  0  0  0  0  0  0  0
  -15.0030  -25.1820   21.1400 O   0  0  0  0  0  0  0  0  0  0  0  0
  -16.1840  -22.9020   19.3210 H   0  0  0  0  0  0  0  0  0  0  0  0
  -12.8600  -23.3720   19.7290 C   0  0  0  0  0  1  0  0  0  0  0  0
  -14.0090  -23.0390   20.6940 C   0  0  0  0  0  3  0  0  0  0  0  0
  -14.4210  -22.2820   22.9930 C   0  0  0  0  0  1  0  0  0  0  0  0
  -13.4800  -22.9110   22.0700 N   0  0  0  0  0  0  0  0  0  0  0  0
  -12.6200  -22.3690   22.0780 H   0  0  0  0  0  0  0  0  0  0  0  0
  1  2  1  0
  3  2  1  0
  3  4  1  0
  6  4  1  0
  6  5  1  0
  6  7  1  6
  9  8  1  0
  9  6  1  0
 10 19  1  0
 10  9  1  0
 11 18  2  0
 13 12  1  0
 14 13  1  0
 15 24  1  0
 15 14  1  0
 15 16  1  0
 16 17  1  0
 17 11  1  0
 17 12  1  0
 19 20  1  0
 19 11  1  0
 21 46  1  0
 21 24  1  0
 22 23  1  0
 22 21  2  0
 23 25  2  0
 25 24  1  0
 26 27  1  0
 26 23  1  0
 28 27  2  0
 29 28  1  0
 30 29  2  0
 30 31  1  0
 31 26  2  0
 32 33  1  0
 32 29  1  0
 33 38  1  0
 34 33  2  0
 34 35  1  0
 35 36  2  0
 36 37  1  0
 36 40  1  0
 38 39  1  0
 38 37  2  0
 41 22  1  0
 42 44  1  0
 42 41  1  0
 43 41  2  0
 45 42  1  0
 46 48  1  0
 47 46  1  0
 49  1  1  0
 50 51  1  0
 51 49  1  0
 51 53  1  0
 52 50  2  0
 54 50  1  0
 55 54  1  0
 57 55  1  0
 57 62  1  0
 58 68  1  0
 58 66  1  0
 59 61  1  0
 61 62  2  0
 61 60  1  0
 63 57  2  0
 64 63  1  0
 64 59  2  0
 65 59  1  0
 65 58  1  0
 66 60  1  0
 66 56  1  0
 67 56  2  0
 68 70  2  0
 69 68  1  0
 71 69  1  0
 72 77  1  0
 73 69  1  0
 74 73  1  0
 75 74  1  0
 76 72  1  0
 76 75  1  0
 77 78  2  0
 77 73  1  0
 79 78  1  0
 80 79  2  0
 81 80  1  0
 81 72  2  0
 82 56  1  0
 82 87  1  0
 82 83  1  0
 83 85  1  1
 83 86  1  0
 84 83  1  0
 87 88  1  0
 88 92  1  0
 88 89  2  0
 90 87  1  0
 92 91  1  0
 92 94  1  0
 94 95  1  0
 94 93  1  0
M  ISO  4  11 100  19 100  54 101  55 101
M  END
>  <TORSDO>  (24) 
F 25

>  <SCORE>  (24) 
-5.837

>  <name>  (24) 
23

>  <ligand_id>  (24) 
23

>  <original_smiles>  (24) 
[H]c1c([H])c([H])c2c(c1[H])C([H])([H])C([H])([H])C([H])([H])C2([H])N([H])C(=O)C1([H])N(C(=O)C([H])(N([H])C(=O)C([H])(N([H])C([H])([H])[H])C([H])([H])[H])C(C([H])([H])[H])(C([H])([H])[H])C([H])([H])[H])C([H])([H])c2c([H])c(OC([H])([H])C(=O)N([H])C([H])([H])C([H])([H])C([H])([H])C([H])([H])C([H])([H])[N+]([H])(C([H])([H])[H])C([H])(C([H])([H])[H])C([H])([H])N([H])C(=O)N3C([H])([H])C([H])([H])C([H])([H])C([H])(n4nc(-c5c([H])c([H])c(Oc6c([H])c([H])c(F)c([H])c6F)c([H])c5[H])c(C(=O)N([H])[H])c4N([H])[H])C3([H])[H])c([H])c([H])c2C1([H])[H]

>  <smiles>  (24) 
[H]c1c([H])c([H])c2c(c1[H])C([H])([H])C([H])([H])C([H])([H])C2([H])N([H])C(=O)C1([H])N(C(=O)C([H])(N([H])C(=O)C([H])(N([H])C([H])([H])[H])C([H])([H])[H])C(C([H])([H])[H])(C([H])([H])[H])C([H])([H])[H])C([H])([H])c2c([H])c(OC([H])([H])C(=O)N([H])C([H])([H])C([H])([H])C([H])([H])C([H])([H])C([H])([H])[N+]([H])(C([H])([H])[H])C([H])(C([H])([H])[H])C([H])([H])N([H])C(=O)N3C([H])([H])C([H])([H])C([H])([H])C([H])(n4nc(-c5c([H])c([H])c(Oc6c([H])c([H])c(F)c([H])c6F)c([H])c5[H])c(C(=O)N([H])[H])c4N([H])[H])C3([H])[H])c([H])c([H])c2C1([H])[H]

$$$$
24:0:0
     RDKit          3D

 92 99  0  0  1  0  0  0  0  0999 V2000
  -28.5160  -23.7560   19.9260 C   0  0  0  0  0  3  0  0  0  0  0  0
  -29.3950  -24.0900   18.7920 N   0  0  0  0  0  4  0  0  0  0  0  0
  -30.2890  -24.4060   19.1310 H   0  0  0  0  0  0  0  0  0  0  0  0
  -28.9930  -24.8190   18.2310 H   0  0  0  0  0  0  0  0  0  0  0  0
  -29.5490  -23.2790   18.2170 H   0  0  0  0  0  0  0  0  0  0  0  0
  -29.1580  -22.4950   20.6650 C   0  0  0  0  0  0  0  0  0  0  0  0
  -28.9600  -21.1910   20.2470 N   0  0  0  0  0  0  0  0  0  0  0  0
  -29.9400  -22.7120   21.5920 O   0  0  0  0  0  0  0  0  0  0  0  0
  -28.2970  -21.0420   19.4970 H   0  0  0  0  0  0  0  0  0  0  0  0
  -29.7080  -19.9600   20.7480 C   0  0  0  0  0  2  0  0  0  0  0  0
  -29.2420  -18.4680   20.3560 C   0  0  0  0  0  3  0  0  0  0  0  0
  -30.2290  -17.2590   20.7710 C   0  0  0  0  0  3  0  0  0  0  0  0
  -30.5640  -14.6930   20.4010 C   0  0  0  0  0  0  0  0  0  0  0  0
  -30.3560  -12.4370   19.3620 C   0  0  0  0  0  2  0  0  0  0  0  0
  -29.4090  -12.5230   18.1450 C   0  0  0  0  0  2  0  0  0  0  0  0
  -27.9390  -12.3660   18.5800 C   0  0  0  0  0  2  0  0  0  0  0  0
  -27.5770  -13.2480   19.8050 C   0  0  0  0  0  3  0  0  0  0  0  0
  -28.6380  -13.1320   20.9200 C   0  0  0  0  0  2  0  0  0  0  0  0
  -29.9330  -13.4770   20.3230 N   0  0  0  0  0  0  0  0  0  0  0  0
  -31.7480  -14.8090   20.0710 O   0  0  0  0  0  0  0  0  0  0  0  0
  -29.7910  -15.8080   20.6550 N   0  0  0  0  0  0  0  0  0  0  0  0
  -28.8200  -15.6170   20.8530 H   0  0  0  0  0  0  0  0  0  0  0  0
  -25.1890  -13.8470   20.5320 C   0  0  0  0  0  0  0  0  0  0  0  0
  -24.1230  -13.0740   20.9050 C   0  0  0  0  0  0  0  0  0  0  0  0
  -24.5870  -11.7220   20.8760 C   0  0  0  0  0  0  0  0  0  0  0  0
  -26.2330  -12.9650   20.2980 N   0  0  0  0  0  0  0  0  0  0  0  0
  -25.8770  -11.6830   20.5670 N   0  0  0  0  0  0  0  0  0  0  0  0
  -23.8610  -10.4590   21.0690 C   0  0  0  0  0  0  0  0  0  0  0  0
  -24.3060   -9.4820   21.9870 C   0  0  0  0  0  3  0  0  0  0  0  0
  -23.5800   -8.2860   22.1690 C   0  0  0  0  0  3  0  0  0  0  0  0
  -22.3950   -8.0580   21.4310 C   0  0  0  0  0  0  0  0  0  0  0  0
  -21.9680   -9.0210   20.5010 C   0  0  0  0  0  3  0  0  0  0  0  0
  -22.6950  -10.2100   20.3180 C   0  0  0  0  0  3  0  0  0  0  0  0
  -21.6400   -6.9130   21.5220 O   0  0  0  0  0  0  0  0  0  0  0  0
  -21.6210   -6.1530   22.6620 C   0  0  0  0  0  0  0  0  0  0  0  0
  -21.2410   -6.6920   23.9110 C   0  0  0  0  0  3  0  0  0  0  0  0
  -21.1660   -5.8580   25.0450 C   0  0  0  0  0  3  0  0  0  0  0  0
  -21.4640   -4.4860   24.9320 C   0  0  0  0  0  0  0  0  0  0  0  0
  -21.8370   -3.9480   23.6880 C   0  0  0  0  0  3  0  0  0  0  0  0
  -21.9110   -4.7780   22.5560 C   0  0  0  0  0  0  0  0  0  0  0  0
  -22.2510   -4.2490   21.3560 F   0  0  0  0  0  0  0  0  0  0  0  0
  -21.3840   -3.6830   26.0180 F   0  0  0  0  0  0  0  0  0  0  0  0
  -22.7260  -13.5490   21.1770 C   0  0  0  0  0  0  0  0  0  0  0  0
  -22.0020  -12.8540   22.0480 N   0  0  0  0  0  0  0  0  0  0  0  0
  -22.2870  -14.5730   20.6550 O   0  0  0  0  0  0  0  0  0  0  0  0
  -22.3730  -12.0250   22.4870 H   0  0  0  0  0  0  0  0  0  0  0  0
  -21.0650  -13.1540   22.2770 H   0  0  0  0  0  0  0  0  0  0  0  0
  -25.3520  -15.2170   20.3480 N   0  0  0  0  0  0  0  0  0  0  0  0
  -24.5810  -15.8680   20.4530 H   0  0  0  0  0  0  0  0  0  0  0  0
  -26.1900  -15.6520   19.9820 H   0  0  0  0  0  0  0  0  0  0  0  0
  -28.2430  -25.1010   20.7780 C   0  0  0  0  0  2  0  0  0  0  0  0
  -28.3410  -26.4600   20.1600 O   0  0  0  0  0  0  0  0  0  0  0  0
  -24.6190  -31.8720   23.2260 C   0  0  0  0  0  0  0  0  0  0  0  0
  -27.2190  -27.3030   20.1730 C   0  0  0  0  0  0  0  0  0  0  0  0
  -23.4090  -30.4720   21.5910 C   0  0  0  0  0  3  0  0  0  0  0  0
  -24.8530  -28.9120   20.1640 C   0  0  0  0  0  0  0  0  0  0  0  0
  -25.9480  -30.7890   21.3930 C   0  0  0  0  0  2  0  0  0  0  0  0
  -26.0260  -29.4080   20.7510 C   0  0  0  0  0  0  0  0  0  0  0  0
  -27.2160  -28.6190   20.7350 C   0  0  0  0  0  3  0  0  0  0  0  0
  -26.0250  -26.8540   19.5720 C   0  0  0  0  0  3  0  0  0  0  0  0
  -24.8560  -27.6420   19.5630 C   0  0  0  0  0  3  0  0  0  0  0  0
  -23.6170  -29.7900   20.2120 C   0  0  0  0  0  2  0  0  0  0  0  0
  -24.6780  -31.0620   22.1270 N   0  0  0  0  0  0  0  0  0  0  0  0
  -23.5370  -32.1480   23.7650 O   0  0  0  0  0  0  0  0  0  0  0  0
  -22.7510  -29.4580   22.5550 C   0  0  0  0  0  0  0  0  0  0  0  0
  -21.4250  -29.2810   22.4310 N   0  0  0  0  0  0  0  0  0  0  0  0
  -23.4310  -28.8320   23.3720 O   0  0  0  0  0  0  0  0  0  0  0  0
  -20.9370  -29.8350   21.7410 H   0  0  0  0  0  0  0  0  0  0  0  0
  -18.0510  -28.0760   22.9390 C   0  0  0  0  0  0  0  0  0  0  0  0
  -20.6090  -28.3430   23.2040 C   0  0  0  0  0  3  0  0  0  0  0  0
  -20.7130  -26.9110   22.6320 C   0  0  0  0  0  2  0  0  0  0  0  0
  -19.6100  -26.5820   21.6200 C   0  0  0  0  0  2  0  0  0  0  0  0
  -18.2290  -26.7250   22.2650 C   0  0  0  0  0  2  0  0  0  0  0  0
  -19.1680  -28.8420   23.3640 C   0  0  0  0  0  0  0  0  0  0  0  0
  -18.9470  -30.1060   23.9550 C   0  0  0  0  0  3  0  0  0  0  0  0
  -17.6400  -30.6030   24.1220 C   0  0  0  0  0  3  0  0  0  0  0  0
  -16.5380  -29.8350   23.7110 C   0  0  0  0  0  3  0  0  0  0  0  0
  -16.7430  -28.5740   23.1260 C   0  0  0  0  0  3  0  0  0  0  0  0
  -25.9030  -32.5040   23.8440 C   0  0  0  0  0  3  0  0  0  0  0  0
  -25.5940  -33.9020   24.1790 N   0  0  0  0  0  0  0  0  0  0  0  0
  -25.9170  -34.9570   23.4200 C   0  0  0  0  0  0  0  0  0  0  0  0
  -26.5790  -34.8560   22.3830 O   0  0  0  0  0  0  0  0  0  0  0  0
  -25.0060  -34.0550   24.9850 H   0  0  0  0  0  0  0  0  0  0  0  0
  -24.1810  -36.7470   23.0870 C   0  0  0  0  0  1  0  0  0  0  0  0
  -25.4320  -36.3440   23.8840 C   0  0  0  0  0  3  0  0  0  0  0  0
  -27.5760  -37.2300   24.6910 C   0  0  0  0  0  1  0  0  0  0  0  0
  -26.4620  -37.4000   23.7620 N   0  0  0  0  0  0  0  0  0  0  0  0
  -26.0560  -38.3180   23.9150 H   0  0  0  0  0  0  0  0  0  0  0  0
  -26.4240  -31.7340   25.1210 C   0  0  1  0  0  0  0  0  0  0  0  0
  -25.3340  -31.4980   26.1930 C   0  0  0  0  0  1  0  0  0  0  0  0
  -27.0050  -30.3550   24.7290 C   0  0  0  0  0  1  0  0  0  0  0  0
  -27.5780  -32.5290   25.7760 C   0  0  0  0  0  1  0  0  0  0  0  0
  1  6  1  0
  1 51  1  0
  2  3  1  0
  2  1  1  0
  4  2  1  0
  5  2  1  0
  6  8  2  0
  7  6  1  0
  7 10  1  0
  9  7  1  0
 11 10  1  0
 11 12  2  0
 13 21  1  0
 14 19  1  0
 15 16  1  0
 15 14  1  0
 17 16  1  0
 17 26  1  0
 17 18  1  0
 19 13  1  0
 19 18  1  0
 20 13  2  0
 21 12  1  0
 21 22  1  0
 23 24  2  0
 24 43  1  0
 25 24  1  0
 25 28  1  0
 26 23  1  0
 26 27  1  0
 27 25  2  0
 28 29  1  0
 29 30  2  0
 31 34  1  0
 31 30  1  0
 32 31  2  0
 33 32  1  0
 33 28  2  0
 34 35  1  0
 35 36  1  0
 36 37  2  0
 38 37  1  0
 38 42  1  0
 39 38  2  0
 40 35  2  0
 40 39  1  0
 41 40  1  0
 43 44  1  0
 44 47  1  0
 44 46  1  0
 45 43  2  0
 48 49  1  0
 48 23  1  0
 50 48  1  0
 52 54  1  0
 52 51  1  0
 53 64  2  0
 54 59  1  0
 55 63  1  0
 55 65  1  0
 56 62  1  0
 56 58  1  0
 57 63  1  0
 58 57  1  0
 59 58  2  0
 60 54  2  0
 61 60  1  0
 61 56  2  0
 62 55  1  0
 63 53  1  0
 65 67  2  0
 66 65  1  0
 68 66  1  0
 69 78  2  0
 69 74  1  0
 70 66  1  0
 70 74  1  0
 71 70  1  0
 72 73  1  0
 72 71  1  0
 73 69  1  0
 74 75  2  0
 75 76  1  0
 77 76  2  0
 78 77  1  0
 79 53  1  0
 79 80  1  0
 79 89  1  0
 80 83  1  0
 81 85  1  0
 81 80  1  0
 82 81  2  0
 85 84  1  0
 87 85  1  0
 87 88  1  0
 87 86  1  0
 89 92  1  1
 89 90  1  0
 91 89  1  0
M  ISO  4  13 100  21 100  51 101  52 101
M  END
>  <TORSDO>  (25) 
F 22

>  <SCORE>  (25) 
-13.178

>  <name>  (25) 
24

>  <ligand_id>  (25) 
24

>  <original_smiles>  (25) 
[H]c1c([H])c([H])c2c(c1[H])C([H])([H])C([H])([H])C([H])([H])C2([H])N([H])C(=O)C1([H])N(C(=O)C([H])(N([H])C(=O)C([H])(N([H])C([H])([H])[H])C([H])([H])[H])C(C([H])([H])[H])(C([H])([H])[H])C([H])([H])[H])C([H])([H])c2c([H])c(OC([H])([H])C([H])(C(=O)N([H])C([H])([H])C([H])([H])C([H])([H])N([H])C(=O)N3C([H])([H])C([H])([H])C([H])([H])C([H])(n4nc(-c5c([H])c([H])c(Oc6c([H])c([H])c(F)c([H])c6F)c([H])c5[H])c(C(=O)N([H])[H])c4N([H])[H])C3([H])[H])[N+]([H])([H])[H])c([H])c([H])c2C1([H])[H]

>  <smiles>  (25) 
[H]c1c([H])c([H])c2c(c1[H])C([H])([H])C([H])([H])C([H])([H])C2([H])N([H])C(=O)C1([H])N(C(=O)C([H])(N([H])C(=O)C([H])(N([H])C([H])([H])[H])C([H])([H])[H])C(C([H])([H])[H])(C([H])([H])[H])C([H])([H])[H])C([H])([H])c2c([H])c(OC([H])([H])C([H])(C(=O)N([H])C([H])([H])C([H])([H])C([H])([H])N([H])C(=O)N3C([H])([H])C([H])([H])C([H])([H])C([H])(n4nc(-c5c([H])c([H])c(Oc6c([H])c([H])c(F)c([H])c6F)c([H])c5[H])c(C(=O)N([H])[H])c4N([H])[H])C3([H])[H])[N+]([H])([H])[H])c([H])c([H])c2C1([H])[H]

$$$$
25:0:0
     RDKit          3D

 94101  0  0  1  0  0  0  0  0999 V2000
  -27.1640  -22.3280   21.3710 C   0  0  0  0  0  1  0  0  0  0  0  0
  -28.3610  -22.0050   20.4390 C   0  0  0  0  0  3  0  0  0  0  0  0
  -28.6270  -20.4670   20.6290 C   0  0  0  0  0  0  0  0  0  0  0  0
  -27.5260  -19.7080   20.8040 N   0  0  0  0  0  4  0  0  0  0  0  0
  -29.8320  -19.8110   20.6210 N   0  0  0  0  0  0  0  0  0  0  0  0
  -27.5310  -18.7020   20.8570 H   0  0  0  0  0  0  0  0  0  0  0  0
  -26.6300  -20.1660   20.8970 H   0  0  0  0  0  0  0  0  0  0  0  0
  -30.6660  -20.3420   20.3950 H   0  0  0  0  0  0  0  0  0  0  0  0
  -30.0540  -18.3870   21.1070 C   0  0  0  0  0  2  0  0  0  0  0  0
  -30.5540  -17.2970   20.0830 C   0  0  0  0  0  2  0  0  0  0  0  0
  -30.9650  -14.7680   20.1070 C   0  0  0  0  0  0  0  0  0  0  0  0
  -30.6310  -12.5750   19.0070 C   0  0  0  0  0  2  0  0  0  0  0  0
  -29.6730  -12.7970   17.8170 C   0  0  0  0  0  2  0  0  0  0  0  0
  -28.2080  -12.6630   18.2760 C   0  0  0  0  0  2  0  0  0  0  0  0
  -27.9010  -13.4880   19.5540 C   0  0  0  0  0  3  0  0  0  0  0  0
  -28.9870  -13.2850   20.6370 C   0  0  0  0  0  2  0  0  0  0  0  0
  -30.2910  -13.5810   20.0310 N   0  0  0  0  0  0  0  0  0  0  0  0
  -32.1180  -14.8870   19.6900 O   0  0  0  0  0  0  0  0  0  0  0  0
  -30.2280  -15.8690   20.4250 N   0  0  0  0  0  0  0  0  0  0  0  0
  -29.2840  -15.6800   20.7270 H   0  0  0  0  0  0  0  0  0  0  0  0
  -25.5200  -14.0920   20.3180 C   0  0  0  0  0  0  0  0  0  0  0  0
  -24.4570  -13.3210   20.7040 C   0  0  0  0  0  0  0  0  0  0  0  0
  -24.9140  -11.9690   20.6610 C   0  0  0  0  0  0  0  0  0  0  0  0
  -26.5590  -13.2100   20.0640 N   0  0  0  0  0  0  0  0  0  0  0  0
  -26.2000  -11.9270   20.3310 N   0  0  0  0  0  0  0  0  0  0  0  0
  -24.1870  -10.7090   20.8620 C   0  0  0  0  0  0  0  0  0  0  0  0
  -24.5830   -9.7750   21.8420 C   0  0  0  0  0  3  0  0  0  0  0  0
  -23.8550   -8.5800   22.0290 C   0  0  0  0  0  3  0  0  0  0  0  0
  -22.7180   -8.3100   21.2320 C   0  0  0  0  0  0  0  0  0  0  0  0
  -22.3390   -9.2330   20.2420 C   0  0  0  0  0  3  0  0  0  0  0  0
  -23.0670  -10.4200   20.0540 C   0  0  0  0  0  3  0  0  0  0  0  0
  -21.9660   -7.1640   21.3240 O   0  0  0  0  0  0  0  0  0  0  0  0
  -21.8070   -6.5010   22.5140 C   0  0  0  0  0  0  0  0  0  0  0  0
  -21.2520   -7.1330   23.6490 C   0  0  0  0  0  3  0  0  0  0  0  0
  -21.0410   -6.3950   24.8320 C   0  0  0  0  0  3  0  0  0  0  0  0
  -21.3740   -5.0280   24.8790 C   0  0  0  0  0  0  0  0  0  0  0  0
  -21.9230   -4.3980   23.7480 C   0  0  0  0  0  3  0  0  0  0  0  0
  -22.1340   -5.1320   22.5690 C   0  0  0  0  0  0  0  0  0  0  0  0
  -22.6430   -4.5140   21.4760 F   0  0  0  0  0  0  0  0  0  0  0  0
  -21.1650   -4.3180   26.0130 F   0  0  0  0  0  0  0  0  0  0  0  0
  -23.0680  -13.8040   21.0060 C   0  0  0  0  0  0  0  0  0  0  0  0
  -22.3620  -13.1120   21.8930 N   0  0  0  0  0  0  0  0  0  0  0  0
  -22.6210  -14.8290   20.4940 O   0  0  0  0  0  0  0  0  0  0  0  0
  -22.7440  -12.2830   22.3240 H   0  0  0  0  0  0  0  0  0  0  0  0
  -21.4320  -13.4150   22.1450 H   0  0  0  0  0  0  0  0  0  0  0  0
  -25.6830  -15.4600   20.1390 N   0  0  0  0  0  0  0  0  0  0  0  0
  -24.9030  -16.1030   20.2350 H   0  0  0  0  0  0  0  0  0  0  0  0
  -26.5030  -15.8890   19.7300 H   0  0  0  0  0  0  0  0  0  0  0  0
  -29.5010  -24.3490   20.6020 C   0  0  0  0  0  0  0  0  0  0  0  0
  -29.4510  -22.9800   20.7050 N   0  0  0  0  0  0  0  0  0  0  0  0
  -30.5140  -24.9210   21.0090 O   0  0  0  0  0  0  0  0  0  0  0  0
  -30.2940  -22.5760   21.0830 H   0  0  0  0  0  0  0  0  0  0  0  0
  -28.3750  -25.2490   19.9730 C   0  0  0  0  0  2  0  0  0  0  0  0
  -28.5270  -26.6890   20.2470 O   0  0  0  0  0  0  0  0  0  0  0  0
  -24.6110  -31.8870   23.2800 C   0  0  0  0  0  0  0  0  0  0  0  0
  -27.3800  -27.4860   20.1860 C   0  0  0  0  0  0  0  0  0  0  0  0
  -23.4630  -30.4890   21.5990 C   0  0  0  0  0  3  0  0  0  0  0  0
  -24.9700  -29.0040   20.1790 C   0  0  0  0  0  0  0  0  0  0  0  0
  -25.9910  -30.8880   21.4530 C   0  0  0  0  0  2  0  0  0  0  0  0
  -26.1170  -29.5260   20.7880 C   0  0  0  0  0  0  0  0  0  0  0  0
  -27.3260  -28.7760   20.7880 C   0  0  0  0  0  3  0  0  0  0  0  0
  -26.2100  -27.0180   19.5420 C   0  0  0  0  0  3  0  0  0  0  0  0
  -25.0120  -27.7510   19.5570 C   0  0  0  0  0  3  0  0  0  0  0  0
  -23.7120  -29.8390   20.2140 C   0  0  0  0  0  2  0  0  0  0  0  0
  -24.7060  -31.1040   22.1680 N   0  0  0  0  0  0  0  0  0  0  0  0
  -23.5140  -32.1260   23.8040 O   0  0  0  0  0  0  0  0  0  0  0  0
  -22.8160  -29.4400   22.5340 C   0  0  0  0  0  0  0  0  0  0  0  0
  -21.5030  -29.2100   22.3620 N   0  0  0  0  0  0  0  0  0  0  0  0
  -23.4920  -28.8350   23.3700 O   0  0  0  0  0  0  0  0  0  0  0  0
  -21.0170  -29.7520   21.6600 H   0  0  0  0  0  0  0  0  0  0  0  0
  -18.1630  -27.8690   22.7260 C   0  0  0  0  0  0  0  0  0  0  0  0
  -20.6950  -28.2360   23.0950 C   0  0  0  0  0  3  0  0  0  0  0  0
  -20.8820  -26.8110   22.5220 C   0  0  0  0  0  2  0  0  0  0  0  0
  -19.8320  -26.4430   21.4690 C   0  0  0  0  0  2  0  0  0  0  0  0
  -18.4230  -26.5280   22.0620 C   0  0  0  0  0  2  0  0  0  0  0  0
  -19.2300  -28.6770   23.1970 C   0  0  0  0  0  0  0  0  0  0  0  0
  -18.9360  -29.9310   23.7750 C   0  0  0  0  0  3  0  0  0  0  0  0
  -17.6050  -30.3770   23.8870 C   0  0  0  0  0  3  0  0  0  0  0  0
  -16.5500  -29.5660   23.4350 C   0  0  0  0  0  3  0  0  0  0  0  0
  -16.8300  -28.3140   22.8600 C   0  0  0  0  0  3  0  0  0  0  0  0
  -25.8710  -32.5370   23.9320 C   0  0  0  0  0  3  0  0  0  0  0  0
  -25.5430  -33.9390   24.2260 N   0  0  0  0  0  0  0  0  0  0  0  0
  -25.9040  -34.9790   23.4630 C   0  0  0  0  0  0  0  0  0  0  0  0
  -26.6160  -34.8620   22.4630 O   0  0  0  0  0  0  0  0  0  0  0  0
  -24.9150  -34.1040   24.9970 H   0  0  0  0  0  0  0  0  0  0  0  0
  -24.1910  -36.7630   23.0040 C   0  0  0  0  0  1  0  0  0  0  0  0
  -25.3940  -36.3740   23.8780 C   0  0  0  0  0  3  0  0  0  0  0  0
  -27.4840  -37.2770   24.7980 C   0  0  0  0  0  1  0  0  0  0  0  0
  -26.4290  -37.4270   23.7970 N   0  0  0  0  0  0  0  0  0  0  0  0
  -26.0140  -38.3480   23.9130 H   0  0  0  0  0  0  0  0  0  0  0  0
  -26.3500  -31.7900   25.2380 C   0  0  1  0  0  0  0  0  0  0  0  0
  -25.2210  -31.5640   26.2710 C   0  0  0  0  0  1  0  0  0  0  0  0
  -26.9550  -30.4110   24.8900 C   0  0  0  0  0  1  0  0  0  0  0  0
  -27.4700  -32.6030   25.9270 C   0  0  0  0  0  1  0  0  0  0  0  0
  2  3  1  0
  2 50  1  0
  2  1  1  0
  3  4  2  0
  4  6  1  0
  4  7  1  0
  5  3  1  0
  5  9  1  0
  8  5  1  0
 10 19  1  0
 10  9  1  0
 11 19  1  0
 12 17  1  0
 13 14  1  0
 13 12  1  0
 15 14  1  0
 15 24  1  0
 15 16  1  0
 17 11  1  0
 17 16  1  0
 18 11  2  0
 19 20  1  0
 21 22  2  0
 22 41  1  0
 23 22  1  0
 23 26  1  0
 24 21  1  0
 24 25  1  0
 25 23  2  0
 26 27  1  0
 27 28  2  0
 29 32  1  0
 29 28  1  0
 30 29  2  0
 31 30  1  0
 31 26  2  0
 32 33  1  0
 33 38  2  0
 33 34  1  0
 34 35  2  0
 35 36  1  0
 36 40  1  0
 37 36  2  0
 38 37  1  0
 39 38  1  0
 41 42  1  0
 42 45  1  0
 42 44  1  0
 43 41  2  0
 46 47  1  0
 46 21  1  0
 48 46  1  0
 49 50  1  0
 49 51  2  0
 50 52  1  0
 53 54  1  0
 53 49  1  0
 55 66  2  0
 56 54  1  0
 56 61  1  0
 57 65  1  0
 57 67  1  0
 58 64  1  0
 58 60  1  0
 59 65  1  0
 60 59  1  0
 61 60  2  0
 62 63  1  0
 62 56  2  0
 63 58  2  0
 64 57  1  0
 65 55  1  0
 67 69  2  0
 68 67  1  0
 70 68  1  0
 71 80  2  0
 71 76  1  0
 72 68  1  0
 72 76  1  0
 73 72  1  0
 74 75  1  0
 74 73  1  0
 75 71  1  0
 76 77  2  0
 77 78  1  0
 79 78  2  0
 80 79  1  0
 81 55  1  0
 81 82  1  0
 81 91  1  0
 82 85  1  0
 83 87  1  0
 83 82  1  0
 84 83  2  0
 87 86  1  0
 89 87  1  0
 89 90  1  0
 89 88  1  0
 91 94  1  1
 91 92  1  0
 93 91  1  0
M  ISO  4  11 100  19 100  53 101  54 101
M  END
>  <TORSDO>  (26) 
F 21

>  <SCORE>  (26) 
-12.907

>  <name>  (26) 
25

>  <ligand_id>  (26) 
25

>  <original_smiles>  (26) 
[H]c1c([H])c([H])c2c(c1[H])C([H])([H])C([H])([H])C([H])([H])C2([H])N([H])C(=O)C1([H])N(C(=O)C([H])(N([H])C(=O)C([H])(N([H])C([H])([H])[H])C([H])([H])[H])C(C([H])([H])[H])(C([H])([H])[H])C([H])([H])[H])C([H])([H])c2c([H])c(OC([H])([H])C(=O)N([H])C([H])(C(N([H])[H])=[N+]([H])C([H])([H])C([H])([H])N([H])C(=O)N3C([H])([H])C([H])([H])C([H])([H])C([H])(n4nc(-c5c([H])c([H])c(Oc6c([H])c([H])c(F)c([H])c6F)c([H])c5[H])c(C(=O)N([H])[H])c4N([H])[H])C3([H])[H])C([H])([H])[H])c([H])c([H])c2C1([H])[H]

>  <smiles>  (26) 
[H]c1c([H])c([H])c2c(c1[H])C([H])([H])C([H])([H])C([H])([H])C2([H])N([H])C(=O)C1([H])N(C(=O)C([H])(N([H])C(=O)C([H])(N([H])C([H])([H])[H])C([H])([H])[H])C(C([H])([H])[H])(C([H])([H])[H])C([H])([H])[H])C([H])([H])c2c([H])c(OC([H])([H])C(=O)N([H])C([H])(C(N([H])[H])=[N+]([H])C([H])([H])C([H])([H])N([H])C(=O)N3C([H])([H])C([H])([H])C([H])([H])C([H])(n4nc(-c5c([H])c([H])c(Oc6c([H])c([H])c(F)c([H])c6F)c([H])c5[H])c(C(=O)N([H])[H])c4N([H])[H])C3([H])[H])C([H])([H])[H])c([H])c([H])c2C1([H])[H]

$$$$
26:0:0
     RDKit          3D

 94102  0  0  1  0  0  0  0  0999 V2000
  -29.2970  -21.6990   20.5740 C   0  0  0  0  0  0  0  0  0  0  0  0
  -29.0830  -22.9410   21.0910 N   0  0  0  0  0  0  0  0  0  0  0  0
  -29.4260  -21.5180   19.3600 O   0  0  0  0  0  0  0  0  0  0  0  0
  -28.9580  -22.9960   22.0940 H   0  0  0  0  0  0  0  0  0  0  0  0
  -30.7850  -20.6040   22.2720 C   0  0  0  0  0  1  0  0  0  0  0  0
  -29.4260  -20.4730   21.5420 C   0  0  0  0  0  3  0  0  0  0  0  0
  -29.6740  -17.8910   21.1430 C   0  0  0  0  0  0  0  0  0  0  0  0
  -29.3020  -19.1650   20.8210 N   0  0  0  0  0  0  0  0  0  0  0  0
  -30.3190  -17.6410   22.1630 O   0  0  0  0  0  0  0  0  0  0  0  0
  -28.8360  -19.2690   19.9300 H   0  0  0  0  0  0  0  0  0  0  0  0
  -30.9410  -14.7220   20.6000 C   0  0  0  0  0  0  0  0  0  0  0  0
  -30.7230  -12.4350   19.7010 C   0  0  0  0  0  2  0  0  0  0  0  0
  -29.8440  -12.4740   18.4320 C   0  0  0  0  0  2  0  0  0  0  0  0
  -28.3560  -12.3460   18.7980 C   0  0  0  0  0  2  0  0  0  0  0  0
  -27.9250  -13.2790   19.9600 C   0  0  0  0  0  3  0  0  0  0  0  0
  -28.9370  -13.2560   21.1270 C   0  0  0  0  0  2  0  0  0  0  0  0
  -30.2610  -13.5370   20.5630 N   0  0  0  0  0  0  0  0  0  0  0  0
  -32.1720  -14.7210   20.5630 O   0  0  0  0  0  0  0  0  0  0  0  0
  -30.0290  -17.2920   18.0520 C   0  0  0  0  0  2  0  0  0  0  0  0
  -28.7450  -17.1270   18.8530 C   0  0  0  0  0  2  0  0  0  0  0  0
  -30.9200  -16.1690   18.6020 C   0  0  0  0  0  2  0  0  0  0  0  0
  -29.2370  -16.6760   20.2440 C   0  0  0  0  0  3  0  0  0  0  0  0
  -30.3470  -15.7420   19.8990 N   0  0  0  0  0  0  0  0  0  0  0  0
  -25.4950  -13.8810   20.5610 C   0  0  0  0  0  0  0  0  0  0  0  0
  -24.4120  -13.1100   20.8880 C   0  0  0  0  0  0  0  0  0  0  0  0
  -24.8810  -11.7610   20.9020 C   0  0  0  0  0  0  0  0  0  0  0  0
  -26.5540  -13.0020   20.3940 N   0  0  0  0  0  0  0  0  0  0  0  0
  -26.1870  -11.7220   20.6620 N   0  0  0  0  0  0  0  0  0  0  0  0
  -24.1490  -10.4980   21.0690 C   0  0  0  0  0  0  0  0  0  0  0  0
  -24.5400   -9.5390   22.0310 C   0  0  0  0  0  3  0  0  0  0  0  0
  -23.8100   -8.3410   22.1850 C   0  0  0  0  0  3  0  0  0  0  0  0
  -22.6780   -8.0920   21.3720 C   0  0  0  0  0  0  0  0  0  0  0  0
  -22.3080   -9.0390   20.4000 C   0  0  0  0  0  3  0  0  0  0  0  0
  -23.0390  -10.2290   20.2440 C   0  0  0  0  0  3  0  0  0  0  0  0
  -21.9240   -6.9470   21.4330 O   0  0  0  0  0  0  0  0  0  0  0  0
  -21.8200   -6.2110   22.5870 C   0  0  0  0  0  0  0  0  0  0  0  0
  -21.3190   -6.7730   23.7810 C   0  0  0  0  0  3  0  0  0  0  0  0
  -21.1610   -5.9660   24.9270 C   0  0  0  0  0  3  0  0  0  0  0  0
  -21.4950   -4.6000   24.8770 C   0  0  0  0  0  0  0  0  0  0  0  0
  -21.9910   -4.0380   23.6900 C   0  0  0  0  0  3  0  0  0  0  0  0
  -22.1520   -4.8410   22.5460 C   0  0  0  0  0  0  0  0  0  0  0  0
  -22.6080   -4.2910   21.3960 F   0  0  0  0  0  0  0  0  0  0  0  0
  -21.3390   -3.8240   25.9760 F   0  0  0  0  0  0  0  0  0  0  0  0
  -23.0000  -13.5900   21.0630 C   0  0  0  0  0  0  0  0  0  0  0  0
  -22.2180  -12.9160   21.8960 N   0  0  0  0  0  0  0  0  0  0  0  0
  -22.5930  -14.6030   20.4970 O   0  0  0  0  0  0  0  0  0  0  0  0
  -22.5550  -12.1050   22.3920 H   0  0  0  0  0  0  0  0  0  0  0  0
  -21.2690  -13.2260   22.0460 H   0  0  0  0  0  0  0  0  0  0  0  0
  -25.6570  -15.2470   20.3580 N   0  0  0  0  0  0  0  0  0  0  0  0
  -24.8670  -15.8780   20.4090 H   0  0  0  0  0  0  0  0  0  0  0  0
  -26.4620  -15.6560   19.9060 H   0  0  0  0  0  0  0  0  0  0  0  0
  -29.1780  -24.2400   20.3630 C   0  0  0  0  0  3  0  0  0  0  0  0
  -28.1560  -25.3380   20.8080 C   0  0  0  0  0  3  0  0  0  0  0  0
  -28.3440  -26.6490   20.1970 O   0  0  0  0  0  0  0  0  0  0  0  0
  -24.5880  -31.9110   23.2480 C   0  0  0  0  0  0  0  0  0  0  0  0
  -27.2150  -27.4550   20.1580 C   0  0  0  0  0  0  0  0  0  0  0  0
  -23.3790  -30.5230   21.6000 C   0  0  0  0  0  3  0  0  0  0  0  0
  -24.8310  -28.9980   20.1620 C   0  0  0  0  0  0  0  0  0  0  0  0
  -25.9070  -30.8840   21.3960 C   0  0  0  0  0  2  0  0  0  0  0  0
  -25.9990  -29.5160   20.7390 C   0  0  0  0  0  0  0  0  0  0  0  0
  -27.1980  -28.7590   20.7180 C   0  0  0  0  0  3  0  0  0  0  0  0
  -26.0340  -26.9740   19.5540 C   0  0  0  0  0  3  0  0  0  0  0  0
  -24.8460  -27.7270   19.5640 C   0  0  0  0  0  3  0  0  0  0  0  0
  -23.5860  -29.8520   20.2180 C   0  0  0  0  0  2  0  0  0  0  0  0
  -24.6430  -31.1210   22.1400 N   0  0  0  0  0  0  0  0  0  0  0  0
  -23.5070  -32.1740   23.7940 O   0  0  0  0  0  0  0  0  0  0  0  0
  -22.7310  -29.4920   22.5540 C   0  0  0  0  0  0  0  0  0  0  0  0
  -21.4100  -29.2970   22.4140 N   0  0  0  0  0  0  0  0  0  0  0  0
  -23.4150  -28.8700   23.3710 O   0  0  0  0  0  0  0  0  0  0  0  0
  -20.9180  -29.8460   21.7230 H   0  0  0  0  0  0  0  0  0  0  0  0
  -18.0450  -28.0680   22.8930 C   0  0  0  0  0  0  0  0  0  0  0  0
  -20.6000  -28.3480   23.1790 C   0  0  0  0  0  3  0  0  0  0  0  0
  -20.7160  -26.9180   22.5970 C   0  0  0  0  0  2  0  0  0  0  0  0
  -19.6230  -26.5910   21.5740 C   0  0  0  0  0  2  0  0  0  0  0  0
  -18.2380  -26.7230   22.2110 C   0  0  0  0  0  2  0  0  0  0  0  0
  -19.1550  -28.8380   23.3320 C   0  0  0  0  0  0  0  0  0  0  0  0
  -18.9240  -30.0990   23.9240 C   0  0  0  0  0  3  0  0  0  0  0  0
  -17.6140  -30.5890   24.0820 C   0  0  0  0  0  3  0  0  0  0  0  0
  -16.5190  -29.8150   23.6610 C   0  0  0  0  0  3  0  0  0  0  0  0
  -16.7350  -28.5550   23.0750 C   0  0  0  0  0  3  0  0  0  0  0  0
  -25.8740  -32.5400   23.8710 C   0  0  0  0  0  3  0  0  0  0  0  0
  -26.3850  -31.7740   25.1530 C   0  0  1  0  0  0  0  0  0  0  0  0
  -25.2870  -31.5490   26.2190 C   0  0  0  0  0  1  0  0  0  0  0  0
  -26.9650  -30.3930   24.7690 C   0  0  0  0  0  1  0  0  0  0  0  0
  -27.5330  -32.5710   25.8180 C   0  0  0  0  0  1  0  0  0  0  0  0
  -25.5650  -33.9400   24.1900 N   0  0  0  0  0  0  0  0  0  0  0  0
  -25.9140  -34.9870   23.4310 C   0  0  0  0  0  0  0  0  0  0  0  0
  -26.5990  -34.8780   22.4110 O   0  0  0  0  0  0  0  0  0  0  0  0
  -24.9590  -34.1010   24.9810 H   0  0  0  0  0  0  0  0  0  0  0  0
  -24.2090  -36.7920   23.0370 C   0  0  0  0  0  1  0  0  0  0  0  0
  -25.4260  -36.3790   23.8790 C   0  0  0  0  0  3  0  0  0  0  0  0
  -27.5470  -37.2450   24.7640 C   0  0  0  0  0  1  0  0  0  0  0  0
  -26.4690  -37.4250   23.7940 N   0  0  0  0  0  0  0  0  0  0  0  0
  -26.0650  -38.3450   23.9400 H   0  0  0  0  0  0  0  0  0  0  0  0
  1  2  1  0
  1  6  1  0
  2  4  1  0
  3  1  2  0
  6  5  1  0
  7  9  2  0
  8  7  1  0
  8  6  1  0
 10  8  1  0
 12 17  1  0
 13 14  1  0
 13 12  1  0
 15 14  1  0
 15 27  1  0
 15 16  1  0
 17 11  1  0
 17 16  1  0
 18 11  2  0
 19 21  1  0
 19 20  1  0
 20 22  1  0
 21 23  1  0
 22  7  1  0
 23 22  1  0
 23 11  1  0
 24 25  2  0
 25 26  1  0
 25 44  1  0
 26 29  1  0
 27 24  1  0
 27 28  1  0
 28 26  2  0
 29 30  1  0
 30 31  2  0
 32 35  1  0
 32 31  1  0
 33 32  2  0
 34 33  1  0
 34 29  2  0
 35 36  1  0
 36 37  1  0
 37 38  2  0
 39 38  1  0
 39 43  1  0
 40 39  2  0
 41 36  2  0
 41 40  1  0
 42 41  1  0
 44 45  1  0
 45 48  1  0
 45 47  1  0
 46 44  2  0
 49 50  1  0
 49 24  1  0
 51 49  1  0
 52 53  2  0
 52  2  1  0
 54 53  1  0
 55 66  2  0
 56 54  1  0
 56 61  1  0
 57 65  1  0
 57 67  1  0
 58 64  1  0
 58 60  1  0
 59 65  1  0
 60 59  1  0
 61 60  2  0
 62 63  1  0
 62 56  2  0
 63 58  2  0
 64 57  1  0
 65 55  1  0
 67 69  2  0
 68 67  1  0
 70 68  1  0
 71 80  2  0
 71 76  1  0
 72 68  1  0
 72 76  1  0
 73 72  1  0
 74 75  1  0
 74 73  1  0
 75 71  1  0
 76 77  2  0
 77 78  1  0
 79 78  2  0
 80 79  1  0
 81 55  1  0
 81 86  1  0
 81 82  1  0
 82 85  1  1
 82 83  1  0
 84 82  1  0
 86 89  1  0
 87 91  1  0
 87 86  1  0
 88 87  2  0
 91 90  1  0
 93 91  1  0
 93 94  1  0
 93 92  1  0
M  ISO  4  11 100  23 100  53 101  54 101
M  END
>  <TORSDO>  (27) 
F 20

>  <SCORE>  (27) 
-13.500

>  <name>  (27) 
26

>  <ligand_id>  (27) 
26

>  <original_smiles>  (27) 
[H]c1c([H])c([H])c2c(c1[H])C([H])([H])C([H])([H])C([H])([H])C2([H])N([H])C(=O)C1([H])N(C(=O)C([H])(N([H])C(=O)C([H])(N([H])C([H])([H])[H])C([H])([H])[H])C(C([H])([H])[H])(C([H])([H])[H])C([H])([H])[H])C([H])([H])c2c([H])c(OC([H])([H])C([H])([H])N([H])C(=O)C([H])(N([H])C(=O)C3([H])N(C(=O)N4C([H])([H])C([H])([H])C([H])([H])C([H])(n5nc(-c6c([H])c([H])c(Oc7c([H])c([H])c(F)c([H])c7F)c([H])c6[H])c(C(=O)N([H])[H])c5N([H])[H])C4([H])[H])C([H])([H])C([H])([H])C3([H])[H])C([H])([H])[H])c([H])c([H])c2C1([H])[H]

>  <smiles>  (27) 
[H]c1c([H])c([H])c2c(c1[H])C([H])([H])C([H])([H])C([H])([H])C2([H])N([H])C(=O)C1([H])N(C(=O)C([H])(N([H])C(=O)C([H])(N([H])C([H])([H])[H])C([H])([H])[H])C(C([H])([H])[H])(C([H])([H])[H])C([H])([H])[H])C([H])([H])c2c([H])c(OC([H])([H])C([H])([H])N([H])C(=O)C([H])(N([H])C(=O)C3([H])N(C(=O)N4C([H])([H])C([H])([H])C([H])([H])C([H])(n5nc(-c6c([H])c([H])c(Oc7c([H])c([H])c(F)c([H])c7F)c([H])c6[H])c(C(=O)N([H])[H])c5N([H])[H])C4([H])[H])C([H])([H])C([H])([H])C3([H])[H])C([H])([H])[H])c([H])c([H])c2C1([H])[H]

$$$$
27:0:0
     RDKit          3D

 88 95  0  0  1  0  0  0  0  0999 V2000
  -29.1200  -19.7700   20.4800 C   0  0  0  0  0  0  0  0  0  0  0  0
  -29.1050  -21.1760   19.9800 N   0  0  0  0  0  0  0  0  0  0  0  0
  -28.4730  -19.5760   21.5090 O   0  0  0  0  0  0  0  0  0  0  0  0
  -29.5830  -21.2310   19.0890 H   0  0  0  0  0  0  0  0  0  0  0  0
  -31.4180  -18.6010   20.3970 C   0  0  0  0  0  1  0  0  0  0  0  0
  -29.9510  -18.4290   18.3830 C   0  0  0  0  0  1  0  0  0  0  0  0
  -29.9770  -18.3280   19.9180 C   0  0  2  0  0  0  0  0  0  0  0  0
  -30.4550  -15.3920   20.0520 C   0  0  0  0  0  0  0  0  0  0  0  0
  -30.3830  -12.9540   19.1480 C   0  0  0  0  0  2  0  0  0  0  0  0
  -29.4260  -12.7750   17.9400 C   0  0  0  0  0  2  0  0  0  0  0  0
  -27.9930  -12.4990   18.4230 C   0  0  0  0  0  2  0  0  0  0  0  0
  -27.5830  -13.4370   19.5850 C   0  0  0  0  0  3  0  0  0  0  0  0
  -28.6670  -13.5730   20.6780 C   0  0  0  0  0  2  0  0  0  0  0  0
  -29.8760  -14.0870   20.0130 N   0  0  0  0  0  0  0  0  0  0  0  0
  -31.6560  -15.3640   19.7420 O   0  0  0  0  0  0  0  0  0  0  0  0
  -29.7330  -16.6880   20.2290 N   0  0  0  0  0  0  0  0  0  0  0  0
  -28.7810  -16.5240   20.5270 H   0  0  0  0  0  0  0  0  0  0  0  0
  -25.2380  -13.9760   20.4220 C   0  0  0  0  0  0  0  0  0  0  0  0
  -24.1920  -13.1920   20.8170 C   0  0  0  0  0  0  0  0  0  0  0  0
  -24.6620  -11.8450   20.7600 C   0  0  0  0  0  0  0  0  0  0  0  0
  -26.2750  -13.1070   20.1360 N   0  0  0  0  0  0  0  0  0  0  0  0
  -25.9440  -11.8170   20.4070 N   0  0  0  0  0  0  0  0  0  0  0  0
  -23.9440  -10.5790   20.9620 C   0  0  0  0  0  0  0  0  0  0  0  0
  -24.4020   -9.6030   21.8740 C   0  0  0  0  0  3  0  0  0  0  0  0
  -23.6810   -8.4050   22.0660 C   0  0  0  0  0  3  0  0  0  0  0  0
  -22.4860   -8.1740   21.3440 C   0  0  0  0  0  0  0  0  0  0  0  0
  -22.0440   -9.1380   20.4210 C   0  0  0  0  0  3  0  0  0  0  0  0
  -22.7670  -10.3280   20.2280 C   0  0  0  0  0  3  0  0  0  0  0  0
  -21.7300   -7.0310   21.4460 O   0  0  0  0  0  0  0  0  0  0  0  0
  -21.7050   -6.2860   22.5990 C   0  0  0  0  0  0  0  0  0  0  0  0
  -21.2880   -6.8330   23.8310 C   0  0  0  0  0  3  0  0  0  0  0  0
  -21.2100   -6.0140   24.9750 C   0  0  0  0  0  3  0  0  0  0  0  0
  -21.5400   -4.6480   24.8880 C   0  0  0  0  0  0  0  0  0  0  0  0
  -21.9500   -4.1000   23.6600 C   0  0  0  0  0  3  0  0  0  0  0  0
  -22.0290   -4.9170   22.5180 C   0  0  0  0  0  0  0  0  0  0  0  0
  -22.4040   -4.3790   21.3330 F   0  0  0  0  0  0  0  0  0  0  0  0
  -21.4570   -3.8590   25.9850 F   0  0  0  0  0  0  0  0  0  0  0  0
  -22.8040  -13.6640   21.1310 C   0  0  0  0  0  0  0  0  0  0  0  0
  -22.1000  -12.9620   22.0110 N   0  0  0  0  0  0  0  0  0  0  0  0
  -22.3510  -14.6940   20.6310 O   0  0  0  0  0  0  0  0  0  0  0  0
  -22.4790  -12.1290   22.4390 H   0  0  0  0  0  0  0  0  0  0  0  0
  -21.1690  -13.2620   22.2600 H   0  0  0  0  0  0  0  0  0  0  0  0
  -25.3890  -15.3500   20.2560 N   0  0  0  0  0  0  0  0  0  0  0  0
  -24.6290  -15.9990   20.4250 H   0  0  0  0  0  0  0  0  0  0  0  0
  -26.2250  -15.8020   19.9090 H   0  0  0  0  0  0  0  0  0  0  0  0
  -28.7570  -22.7200   20.5660 C   0  0  0  0  0  2  0  0  0  0  0  0
  -28.1340  -24.2790   19.8630 C   0  0  0  0  0  2  0  0  0  0  0  0
  -28.1990  -25.8920   20.2750 O   0  0  0  0  0  0  0  0  0  0  0  0
  -24.6200  -31.8790   23.1820 C   0  0  0  0  0  0  0  0  0  0  0  0
  -27.1840  -26.9890   20.1690 C   0  0  0  0  0  0  0  0  0  0  0  0
  -23.4250  -30.4670   21.5580 C   0  0  0  0  0  3  0  0  0  0  0  0
  -24.8740  -28.8650   20.1280 C   0  0  0  0  0  0  0  0  0  0  0  0
  -25.9890  -30.6890   21.3970 C   0  0  0  0  0  2  0  0  0  0  0  0
  -26.0620  -29.2770   20.7440 C   0  0  0  0  0  0  0  0  0  0  0  0
  -27.2070  -28.3570   20.7410 C   0  0  0  0  0  3  0  0  0  0  0  0
  -25.9690  -26.7390   19.4900 C   0  0  0  0  0  3  0  0  0  0  0  0
  -24.8540  -27.6200   19.4800 C   0  0  0  0  0  3  0  0  0  0  0  0
  -23.6490  -29.7790   20.1840 C   0  0  0  0  0  2  0  0  0  0  0  0
  -24.7000  -31.0390   22.0990 N   0  0  0  0  0  0  0  0  0  0  0  0
  -23.5320  -32.1650   23.7090 O   0  0  0  0  0  0  0  0  0  0  0  0
  -22.7410  -29.4720   22.5340 C   0  0  0  0  0  0  0  0  0  0  0  0
  -21.4110  -29.3020   22.4210 N   0  0  0  0  0  0  0  0  0  0  0  0
  -23.4160  -28.8540   23.3610 O   0  0  0  0  0  0  0  0  0  0  0  0
  -20.9190  -29.8510   21.7310 H   0  0  0  0  0  0  0  0  0  0  0  0
  -18.0380  -28.0780   22.9640 C   0  0  0  0  0  0  0  0  0  0  0  0
  -20.5990  -28.3630   23.2040 C   0  0  0  0  0  3  0  0  0  0  0  0
  -20.7050  -26.9290   22.6340 C   0  0  0  0  0  2  0  0  0  0  0  0
  -19.5960  -26.5960   21.6310 C   0  0  0  0  0  2  0  0  0  0  0  0
  -18.2200  -26.7310   22.2870 C   0  0  0  0  0  2  0  0  0  0  0  0
  -19.1550  -28.8520   23.3800 C   0  0  0  0  0  0  0  0  0  0  0  0
  -18.9290  -30.1120   23.9760 C   0  0  0  0  0  3  0  0  0  0  0  0
  -17.6200  -30.5980   24.1590 C   0  0  0  0  0  3  0  0  0  0  0  0
  -16.5200  -29.8230   23.7570 C   0  0  0  0  0  3  0  0  0  0  0  0
  -16.7300  -28.5650   23.1640 C   0  0  0  0  0  3  0  0  0  0  0  0
  -25.8910  -32.5330   23.8050 C   0  0  0  0  0  3  0  0  0  0  0  0
  -26.3940  -31.7940   25.1070 C   0  0  1  0  0  0  0  0  0  0  0  0
  -25.2920  -31.5870   26.1720 C   0  0  0  0  0  1  0  0  0  0  0  0
  -26.9750  -30.4030   24.7630 C   0  0  0  0  0  1  0  0  0  0  0  0
  -27.5440  -32.6010   25.7560 C   0  0  0  0  0  1  0  0  0  0  0  0
  -25.5730  -33.9400   24.1120 N   0  0  0  0  0  0  0  0  0  0  0  0
  -25.9120  -34.9890   23.3510 C   0  0  0  0  0  0  0  0  0  0  0  0
  -26.5860  -34.8740   22.3240 O   0  0  0  0  0  0  0  0  0  0  0  0
  -24.9720  -34.1020   24.9080 H   0  0  0  0  0  0  0  0  0  0  0  0
  -24.1960  -36.7940   22.9750 C   0  0  0  0  0  1  0  0  0  0  0  0
  -25.4290  -36.3840   23.7960 C   0  0  0  0  0  3  0  0  0  0  0  0
  -27.5580  -37.2720   24.6410 C   0  0  0  0  0  1  0  0  0  0  0  0
  -26.4680  -37.4320   23.6830 N   0  0  0  0  0  0  0  0  0  0  0  0
  -26.0640  -38.3560   23.8150 H   0  0  0  0  0  0  0  0  0  0  0  0
  1  3  2  0
  2  1  1  0
  2 46  1  0
  4  2  1  0
  7  6  1  6
  7 16  1  0
  7  5  1  0
  7  1  1  0
  8 16  1  0
  9 14  1  0
 10 11  1  0
 10  9  1  0
 12 11  1  0
 12 21  1  0
 12 13  1  0
 14  8  1  0
 14 13  1  0
 15  8  2  0
 16 17  1  0
 18 19  2  0
 19 38  1  0
 20 19  1  0
 20 23  1  0
 21 22  1  0
 21 18  1  0
 22 20  2  0
 23 24  1  0
 24 25  2  0
 26 29  1  0
 26 25  1  0
 27 26  2  0
 28 27  1  0
 28 23  2  0
 29 30  1  0
 30 31  1  0
 31 32  2  0
 33 32  1  0
 33 37  1  0
 34 33  2  0
 35 30  2  0
 35 34  1  0
 36 35  1  0
 38 39  1  0
 39 42  1  0
 39 41  1  0
 40 38  2  0
 43 18  1  0
 43 44  1  0
 45 43  1  0
 47 48  1  0
 47 46  1  0
 49 60  2  0
 50 48  1  0
 50 55  1  0
 51 59  1  0
 51 61  1  0
 52 58  1  0
 52 54  1  0
 53 59  1  0
 54 53  1  0
 55 54  2  0
 56 50  2  0
 57 56  1  0
 57 52  2  0
 58 51  1  0
 59 49  1  0
 61 63  2  0
 62 61  1  0
 64 62  1  0
 65 74  2  0
 65 70  1  0
 66 62  1  0
 66 70  1  0
 67 66  1  0
 68 69  1  0
 68 67  1  0
 69 65  1  0
 70 71  2  0
 71 72  1  0
 73 72  2  0
 74 73  1  0
 75 49  1  0
 75 80  1  0
 75 76  1  0
 76 79  1  1
 76 77  1  0
 78 76  1  0
 80 83  1  0
 81 85  1  0
 81 80  1  0
 82 81  2  0
 85 84  1  0
 87 85  1  0
 87 88  1  0
 87 86  1  0
M  ISO  4   8 100  16 100  47 101  48 101
M  END
>  <TORSDO>  (28) 
F 19

>  <SCORE>  (28) 
-15.757

>  <name>  (28) 
27

>  <ligand_id>  (28) 
27

>  <original_smiles>  (28) 
[H]c1c([H])c([H])c2c(c1[H])C([H])([H])C([H])([H])C([H])([H])C2([H])N([H])C(=O)C1([H])N(C(=O)C([H])(N([H])C(=O)C([H])(N([H])C([H])([H])[H])C([H])([H])[H])C(C([H])([H])[H])(C([H])([H])[H])C([H])([H])[H])C([H])([H])c2c([H])c(OC([H])([H])C([H])([H])N([H])C(=O)C(N([H])C(=O)N3C([H])([H])C([H])([H])C([H])([H])C([H])(n4nc(-c5c([H])c([H])c(Oc6c([H])c([H])c(F)c([H])c6F)c([H])c5[H])c(C(=O)N([H])[H])c4N([H])[H])C3([H])[H])(C([H])([H])[H])C([H])([H])[H])c([H])c([H])c2C1([H])[H]

>  <smiles>  (28) 
[H]c1c([H])c([H])c2c(c1[H])C([H])([H])C([H])([H])C([H])([H])C2([H])N([H])C(=O)C1([H])N(C(=O)C([H])(N([H])C(=O)C([H])(N([H])C([H])([H])[H])C([H])([H])[H])C(C([H])([H])[H])(C([H])([H])[H])C([H])([H])[H])C([H])([H])c2c([H])c(OC([H])([H])C([H])([H])N([H])C(=O)C(N([H])C(=O)N3C([H])([H])C([H])([H])C([H])([H])C([H])(n4nc(-c5c([H])c([H])c(Oc6c([H])c([H])c(F)c([H])c6F)c([H])c5[H])c(C(=O)N([H])[H])c4N([H])[H])C3([H])[H])(C([H])([H])[H])C([H])([H])[H])c([H])c([H])c2C1([H])[H]

$$$$
28:0:0
     RDKit          3D

104111  0  0  1  0  0  0  0  0999 V2000
  -27.5220  -23.1220   23.3590 C   0  0  0  0  0  3  0  0  0  0  0  0
  -27.9720  -24.5530   23.2940 N   0  0  0  0  0  4  0  0  0  0  0  0
  -28.9780  -24.5790   23.3280 H   0  0  0  0  0  0  0  0  0  0  0  0
  -27.6510  -25.0090   24.1420 H   0  0  0  0  0  0  0  0  0  0  0  0
  -27.4910  -25.5150   22.2690 C   0  0  0  0  0  3  0  0  0  0  0  0
  -26.6620  -26.4940   23.1210 C   0  0  0  0  0  0  0  0  0  0  0  0
  -25.4200  -26.7760   22.7620 N   0  0  0  0  0  0  0  0  0  0  0  0
  -27.1370  -26.9210   24.1740 O   0  0  0  0  0  0  0  0  0  0  0  0
  -25.0270  -26.3730   21.9250 H   0  0  0  0  0  0  0  0  0  0  0  0
  -24.8410  -27.4160   23.2990 H   0  0  0  0  0  0  0  0  0  0  0  0
  -28.6660  -26.2420   21.5230 C   0  0  0  0  0  2  0  0  0  0  0  0
  -28.3480  -26.6790   20.1830 O   0  0  0  0  0  0  0  0  0  0  0  0
  -24.6080  -31.8670   23.2140 C   0  0  0  0  0  0  0  0  0  0  0  0
  -27.2430  -27.4840   20.0980 C   0  0  0  0  0  0  0  0  0  0  0  0
  -23.3950  -30.4930   21.5490 C   0  0  0  0  0  3  0  0  0  0  0  0
  -24.8520  -28.9700   20.1020 C   0  0  0  0  0  0  0  0  0  0  0  0
  -25.9180  -30.8550   21.3580 C   0  0  0  0  0  2  0  0  0  0  0  0
  -26.0060  -29.4960   20.7010 C   0  0  0  0  0  0  0  0  0  0  0  0
  -27.2080  -28.7630   20.6920 C   0  0  0  0  0  3  0  0  0  0  0  0
  -26.0910  -26.9770   19.4630 C   0  0  0  0  0  3  0  0  0  0  0  0
  -24.8900  -27.7100   19.4770 C   0  0  0  0  0  3  0  0  0  0  0  0
  -23.6040  -29.8210   20.1650 C   0  0  0  0  0  2  0  0  0  0  0  0
  -24.6590  -31.0840   22.1010 N   0  0  0  0  0  0  0  0  0  0  0  0
  -23.5270  -32.1410   23.7570 O   0  0  0  0  0  0  0  0  0  0  0  0
  -22.7380  -29.4690   22.4990 C   0  0  0  0  0  0  0  0  0  0  0  0
  -21.4100  -29.3050   22.3730 N   0  0  0  0  0  0  0  0  0  0  0  0
  -23.4150  -28.8240   23.3050 O   0  0  0  0  0  0  0  0  0  0  0  0
  -20.9220  -29.8770   21.6980 H   0  0  0  0  0  0  0  0  0  0  0  0
  -18.0280  -28.1390   22.8520 C   0  0  0  0  0  0  0  0  0  0  0  0
  -20.5860  -28.3700   23.1360 C   0  0  0  0  0  3  0  0  0  0  0  0
  -20.6760  -26.9420   22.5480 C   0  0  0  0  0  2  0  0  0  0  0  0
  -19.5760  -26.6480   21.5240 C   0  0  0  0  0  2  0  0  0  0  0  0
  -18.1940  -26.7970   22.1680 C   0  0  0  0  0  2  0  0  0  0  0  0
  -19.1500  -28.8860   23.2940 C   0  0  0  0  0  0  0  0  0  0  0  0
  -18.9470  -30.1460   23.8920 C   0  0  0  0  0  3  0  0  0  0  0  0
  -17.6500  -30.6630   24.0510 C   0  0  0  0  0  3  0  0  0  0  0  0
  -16.5370  -29.9140   23.6290 C   0  0  0  0  0  3  0  0  0  0  0  0
  -16.7260  -28.6530   23.0390 C   0  0  0  0  0  3  0  0  0  0  0  0
  -25.8990  -32.4820   23.8420 C   0  0  0  0  0  3  0  0  0  0  0  0
  -25.5870  -33.8600   24.2350 N   0  0  0  0  0  0  0  0  0  0  0  0
  -25.9030  -34.9470   23.5130 C   0  0  0  0  0  0  0  0  0  0  0  0
  -26.5560  -34.8920   22.4680 O   0  0  0  0  0  0  0  0  0  0  0  0
  -25.0060  -33.9750   25.0530 H   0  0  0  0  0  0  0  0  0  0  0  0
  -24.1510  -36.7340   23.2630 C   0  0  0  0  0  1  0  0  0  0  0  0
  -25.4120  -36.3110   24.0340 C   0  0  0  0  0  3  0  0  0  0  0  0
  -27.5600  -37.1820   24.8460 C   0  0  0  0  0  1  0  0  0  0  0  0
  -26.4320  -37.3780   23.9390 N   0  0  0  0  0  0  0  0  0  0  0  0
  -26.0230  -38.2870   24.1320 H   0  0  0  0  0  0  0  0  0  0  0  0
  -26.4450  -31.6590   25.0730 C   0  0  1  0  0  0  0  0  0  0  0  0
  -25.3700  -31.3670   26.1450 C   0  0  0  0  0  1  0  0  0  0  0  0
  -27.0290  -30.3040   24.6080 C   0  0  0  0  0  1  0  0  0  0  0  0
  -27.6050  -32.4290   25.7480 C   0  0  0  0  0  1  0  0  0  0  0  0
  -25.9920  -22.8830   23.0840 C   0  0  0  0  0  0  0  0  0  0  0  0
  -25.2080  -23.7440   22.6890 O   0  0  0  0  0  0  0  0  0  0  0  0
  -25.4130  -21.4840   23.3520 C   0  0  0  0  0  2  0  0  0  0  0  0
  -25.4270  -20.5030   22.1680 C   0  0  0  0  0  2  0  0  0  0  0  0
  -26.8260  -20.0060   21.7450 C   0  0  0  0  0  2  0  0  0  0  0  0
  -26.7830  -18.6010   21.1120 C   0  0  0  0  0  2  0  0  0  0  0  0
  -28.8160  -17.3610   21.8590 C   0  0  0  0  0  0  0  0  0  0  0  0
  -28.1200  -18.0300   20.9250 N   0  0  0  0  0  0  0  0  0  0  0  0
  -28.4160  -17.2210   23.0160 O   0  0  0  0  0  0  0  0  0  0  0  0
  -28.5180  -18.0820   19.9990 H   0  0  0  0  0  0  0  0  0  0  0  0
  -31.3460  -17.1730   22.3040 C   0  0  0  0  0  1  0  0  0  0  0  0
  -30.1540  -16.7370   21.4400 C   0  0  0  0  0  3  0  0  0  0  0  0
  -30.6710  -14.4210   20.6500 C   0  0  0  0  0  0  0  0  0  0  0  0
  -30.4630  -12.3160   19.3960 C   0  0  0  0  0  2  0  0  0  0  0  0
  -29.4970  -12.4580   18.2050 C   0  0  0  0  0  2  0  0  0  0  0  0
  -28.0190  -12.3370   18.6260 C   0  0  0  0  0  2  0  0  0  0  0  0
  -27.6730  -13.1730   19.8810 C   0  0  0  0  0  3  0  0  0  0  0  0
  -28.7050  -12.8860   20.9910 C   0  0  0  0  0  2  0  0  0  0  0  0
  -30.0420  -13.2360   20.4650 N   0  0  0  0  0  0  0  0  0  0  0  0
  -31.7210  -14.7290   20.0820 O   0  0  0  0  0  0  0  0  0  0  0  0
  -30.0060  -15.2840   21.4330 N   0  0  0  0  0  0  0  0  0  0  0  0
  -29.1800  -14.9400   21.8980 H   0  0  0  0  0  0  0  0  0  0  0  0
  -25.2660  -13.8130   20.5580 C   0  0  0  0  0  0  0  0  0  0  0  0
  -24.1880  -13.0460   20.9120 C   0  0  0  0  0  0  0  0  0  0  0  0
  -24.6350  -11.6890   20.8690 C   0  0  0  0  0  0  0  0  0  0  0  0
  -26.3050  -12.9230   20.3340 N   0  0  0  0  0  0  0  0  0  0  0  0
  -25.9230  -11.6410   20.5660 N   0  0  0  0  0  0  0  0  0  0  0  0
  -23.9000  -10.4290   21.0350 C   0  0  0  0  0  0  0  0  0  0  0  0
  -24.3610   -9.4240   21.9140 C   0  0  0  0  0  3  0  0  0  0  0  0
  -23.6310   -8.2260   22.0750 C   0  0  0  0  0  3  0  0  0  0  0  0
  -22.4280   -8.0290   21.3550 C   0  0  0  0  0  0  0  0  0  0  0  0
  -21.9860   -9.0250   20.4630 C   0  0  0  0  0  3  0  0  0  0  0  0
  -22.7160  -10.2130   20.3000 C   0  0  0  0  0  3  0  0  0  0  0  0
  -21.6650   -6.8880   21.4250 O   0  0  0  0  0  0  0  0  0  0  0  0
  -21.6840   -6.0740   22.5280 C   0  0  0  0  0  0  0  0  0  0  0  0
  -21.4010   -6.5650   23.8230 C   0  0  0  0  0  3  0  0  0  0  0  0
  -21.3640   -5.6790   24.9170 C   0  0  0  0  0  3  0  0  0  0  0  0
  -21.6030   -4.3050   24.7180 C   0  0  0  0  0  0  0  0  0  0  0  0
  -21.8860   -3.8160   23.4310 C   0  0  0  0  0  3  0  0  0  0  0  0
  -21.9230   -4.6980   22.3380 C   0  0  0  0  0  0  0  0  0  0  0  0
  -22.1720   -4.2180   21.0940 F   0  0  0  0  0  0  0  0  0  0  0  0
  -21.5590   -3.4540   25.7690 F   0  0  0  0  0  0  0  0  0  0  0  0
  -22.7940  -13.5330   21.1800 C   0  0  0  0  0  0  0  0  0  0  0  0
  -22.0550  -12.8380   22.0380 N   0  0  0  0  0  0  0  0  0  0  0  0
  -22.3660  -14.5620   20.6600 O   0  0  0  0  0  0  0  0  0  0  0  0
  -22.4140  -12.0040   22.4790 H   0  0  0  0  0  0  0  0  0  0  0  0
  -21.1090  -13.1300   22.2310 H   0  0  0  0  0  0  0  0  0  0  0  0
  -25.4390  -15.1850   20.3950 N   0  0  0  0  0  0  0  0  0  0  0  0
  -24.6570  -15.8250   20.4650 H   0  0  0  0  0  0  0  0  0  0  0  0
  -26.2850  -15.6250   20.0600 H   0  0  0  0  0  0  0  0  0  0  0  0
  -27.1350  -23.1500   25.9450 C   0  0  0  0  0  1  0  0  0  0  0  0
  -27.9270  -22.5600   24.7520 C   0  0  0  0  0  2  0  0  0  0  0  0
  1104  1  0
  2  3  1  0
  2  1  1  0
  2  4  1  0
  5 11  1  0
  5  6  1  0
  5  2  1  0
  6  8  2  0
  7  6  1  0
  7 10  1  0
  9  7  1  0
 12 11  1  0
 13 24  2  0
 14 12  1  0
 14 19  1  0
 15 23  1  0
 15 25  1  0
 16 22  1  0
 16 18  1  0
 17 23  1  0
 18 17  1  0
 19 18  2  0
 20 21  1  0
 20 14  2  0
 21 16  2  0
 22 15  1  0
 23 13  1  0
 25 27  2  0
 26 25  1  0
 28 26  1  0
 29 38  2  0
 29 34  1  0
 30 26  1  0
 30 34  1  0
 31 30  1  0
 32 33  1  0
 32 31  1  0
 33 29  1  0
 34 35  2  0
 35 36  1  0
 37 36  2  0
 38 37  1  0
 39 13  1  0
 39 40  1  0
 39 49  1  0
 40 43  1  0
 41 45  1  0
 41 40  1  0
 42 41  2  0
 45 44  1  0
 47 45  1  0
 47 48  1  0
 47 46  1  0
 49 52  1  1
 49 50  1  0
 51 49  1  0
 53 55  1  0
 53  1  1  0
 54 53  2  0
 56 55  1  0
 57 56  1  0
 58 57  1  0
 59 61  2  0
 60 58  1  0
 60 59  1  0
 62 60  1  0
 64 59  1  0
 64 63  1  0
 65 73  1  0
 66 71  1  0
 67 68  1  0
 67 66  1  0
 69 68  1  0
 69 78  1  0
 69 70  1  0
 71 65  1  0
 71 70  1  0
 72 65  2  0
 73 64  1  0
 73 74  1  0
 75 76  2  0
 76 95  1  0
 77 76  1  0
 77 80  1  0
 78 75  1  0
 78 79  1  0
 79 77  2  0
 80 81  1  0
 81 82  2  0
 83 86  1  0
 83 82  1  0
 84 83  2  0
 85 84  1  0
 85 80  2  0
 86 87  1  0
 87 88  1  0
 88 89  2  0
 90 89  1  0
 90 94  1  0
 91 90  2  0
 92 87  2  0
 92 91  1  0
 93 92  1  0
 95 96  1  0
 96 99  1  0
 96 98  1  0
 97 95  2  0
100101  1  0
100 75  1  0
102100  1  0
104103  1  0
M  ISO  4  11 101  12 101  65 100  73 100
M  END
>  <TORSDO>  (29) 
F 28

>  <SCORE>  (29) 
27.643

>  <name>  (29) 
28

>  <ligand_id>  (29) 
28

>  <original_smiles>  (29) 
[H]c1c([H])c([H])c2c(c1[H])C([H])([H])C([H])([H])C([H])([H])C2([H])N([H])C(=O)C1([H])N(C(=O)C([H])(N([H])C(=O)C([H])(N([H])C([H])([H])[H])C([H])([H])[H])C(C([H])([H])[H])(C([H])([H])[H])C([H])([H])[H])C([H])([H])c2c([H])c(OC([H])([H])C([H])(C(=O)N([H])[H])[N+]([H])([H])C([H])(C(=O)C([H])([H])C([H])([H])C([H])([H])C([H])([H])N([H])C(=O)C([H])(N([H])C(=O)N3C([H])([H])C([H])([H])C([H])([H])C([H])(n4nc(-c5c([H])c([H])c(Oc6c([H])c([H])c(F)c([H])c6F)c([H])c5[H])c(C(=O)N([H])[H])c4N([H])[H])C3([H])[H])C([H])([H])[H])C([H])([H])C([H])([H])[H])c([H])c([H])c2C1([H])[H]

>  <smiles>  (29) 
[H]c1c([H])c([H])c2c(c1[H])C([H])([H])C([H])([H])C([H])([H])C2([H])N([H])C(=O)C1([H])N(C(=O)C([H])(N([H])C(=O)C([H])(N([H])C([H])([H])[H])C([H])([H])[H])C(C([H])([H])[H])(C([H])([H])[H])C([H])([H])[H])C([H])([H])c2c([H])c(OC([H])([H])C([H])(C(=O)N([H])[H])[N+]([H])([H])C([H])(C(=O)C([H])([H])C([H])([H])C([H])([H])C([H])([H])N([H])C(=O)C([H])(N([H])C(=O)N3C([H])([H])C([H])([H])C([H])([H])C([H])(n4nc(-c5c([H])c([H])c(Oc6c([H])c([H])c(F)c([H])c6F)c([H])c5[H])c(C(=O)N([H])[H])c4N([H])[H])C3([H])[H])C([H])([H])[H])C([H])([H])C([H])([H])[H])c([H])c([H])c2C1([H])[H]

$$$$
29:0:0
     RDKit          3D

 89 96  0  0  1  0  0  0  0  0999 V2000
  -29.5540  -20.6780   20.3080 C   0  0  0  0  0  0  0  0  0  0  0  0
  -28.7280  -21.8310   20.1510 N   0  0  0  0  0  0  0  0  0  0  0  0
  -30.7210  -20.8780   20.6450 O   0  0  0  0  0  0  0  0  0  0  0  0
  -27.7790  -21.6240   19.8640 H   0  0  0  0  0  0  0  0  0  0  0  0
  -29.1200  -19.0760   20.1010 C   0  0  2  0  0  0  0  0  0  0  0  0
  -28.6230  -18.9690   18.8680 F   0  0  0  0  0  0  0  0  0  0  0  0
  -28.1140  -18.8470   20.9440 F   0  0  0  0  0  0  0  0  0  0  0  0
  -30.1740  -17.7590   20.2880 C   0  0  0  0  0  2  0  0  0  0  0  0
  -30.5250  -15.0250   20.1970 C   0  0  0  0  0  0  0  0  0  0  0  0
  -30.3680  -12.6750   19.2600 C   0  0  0  0  0  2  0  0  0  0  0  0
  -29.4080  -12.6360   18.0490 C   0  0  0  0  0  2  0  0  0  0  0  0
  -27.9540  -12.4280   18.5150 C   0  0  0  0  0  2  0  0  0  0  0  0
  -27.5760  -13.3500   19.7050 C   0  0  0  0  0  3  0  0  0  0  0  0
  -28.6590  -13.3640   20.8040 C   0  0  0  0  0  2  0  0  0  0  0  0
  -29.9150  -13.7720   20.1610 N   0  0  0  0  0  0  0  0  0  0  0  0
  -31.7250  -15.0730   19.9040 O   0  0  0  0  0  0  0  0  0  0  0  0
  -29.7710  -16.2220   20.3510 N   0  0  0  0  0  0  0  0  0  0  0  0
  -28.7900  -16.0670   20.5270 H   0  0  0  0  0  0  0  0  0  0  0  0
  -25.2220  -13.9270   20.5250 C   0  0  0  0  0  0  0  0  0  0  0  0
  -24.1630  -13.1520   20.9100 C   0  0  0  0  0  0  0  0  0  0  0  0
  -24.6180  -11.7990   20.8390 C   0  0  0  0  0  0  0  0  0  0  0  0
  -26.2520  -13.0470   20.2360 N   0  0  0  0  0  0  0  0  0  0  0  0
  -25.8990  -11.7610   20.4930 N   0  0  0  0  0  0  0  0  0  0  0  0
  -23.8860  -10.5380   21.0220 C   0  0  0  0  0  0  0  0  0  0  0  0
  -24.3150   -9.5600   21.9460 C   0  0  0  0  0  3  0  0  0  0  0  0
  -23.5830   -8.3660   22.1190 C   0  0  0  0  0  3  0  0  0  0  0  0
  -22.4050   -8.1410   21.3670 C   0  0  0  0  0  0  0  0  0  0  0  0
  -21.9940   -9.1070   20.4320 C   0  0  0  0  0  3  0  0  0  0  0  0
  -22.7280  -10.2920   20.2580 C   0  0  0  0  0  3  0  0  0  0  0  0
  -21.6430   -7.0000   21.4490 O   0  0  0  0  0  0  0  0  0  0  0  0
  -21.5740   -6.2630   22.6040 C   0  0  0  0  0  0  0  0  0  0  0  0
  -21.0840   -6.8090   23.8090 C   0  0  0  0  0  3  0  0  0  0  0  0
  -20.9660   -5.9960   24.9540 C   0  0  0  0  0  3  0  0  0  0  0  0
  -21.3280   -4.6380   24.8940 C   0  0  0  0  0  0  0  0  0  0  0  0
  -21.8110   -4.0900   23.6930 C   0  0  0  0  0  3  0  0  0  0  0  0
  -21.9310   -4.9000   22.5500 C   0  0  0  0  0  0  0  0  0  0  0  0
  -22.3770   -4.3630   21.3890 F   0  0  0  0  0  0  0  0  0  0  0  0
  -21.2070   -3.8540   25.9910 F   0  0  0  0  0  0  0  0  0  0  0  0
  -22.7770  -13.6330   21.2250 C   0  0  0  0  0  0  0  0  0  0  0  0
  -22.0650  -12.9250   22.0940 N   0  0  0  0  0  0  0  0  0  0  0  0
  -22.3350  -14.6720   20.7370 O   0  0  0  0  0  0  0  0  0  0  0  0
  -22.4350  -12.0850   22.5120 H   0  0  0  0  0  0  0  0  0  0  0  0
  -21.1350  -13.2310   22.3470 H   0  0  0  0  0  0  0  0  0  0  0  0
  -25.3870  -15.3000   20.3680 N   0  0  0  0  0  0  0  0  0  0  0  0
  -24.6200  -15.9490   20.5020 H   0  0  0  0  0  0  0  0  0  0  0  0
  -26.2120  -15.7410   19.9830 H   0  0  0  0  0  0  0  0  0  0  0  0
  -29.0200  -23.3750   20.4040 C   0  0  0  0  0  3  0  0  0  0  0  0
  -27.9910  -24.6750   20.0520 C   0  0  0  0  0  3  0  0  0  0  0  0
  -28.2320  -26.2010   20.3130 O   0  0  0  0  0  0  0  0  0  0  0  0
  -24.6190  -31.9240   23.2660 C   0  0  0  0  0  0  0  0  0  0  0  0
  -27.1760  -27.1870   20.2420 C   0  0  0  0  0  0  0  0  0  0  0  0
  -23.4090  -30.5240   21.6370 C   0  0  0  0  0  3  0  0  0  0  0  0
  -24.8490  -28.9380   20.2130 C   0  0  0  0  0  0  0  0  0  0  0  0
  -25.9630  -30.7810   21.4610 C   0  0  0  0  0  2  0  0  0  0  0  0
  -26.0320  -29.3860   20.8140 C   0  0  0  0  0  0  0  0  0  0  0  0
  -27.1960  -28.5260   20.8110 C   0  0  0  0  0  3  0  0  0  0  0  0
  -25.9650  -26.8420   19.6040 C   0  0  0  0  0  3  0  0  0  0  0  0
  -24.8290  -27.6800   19.5920 C   0  0  0  0  0  3  0  0  0  0  0  0
  -23.6220  -29.8380   20.2610 C   0  0  0  0  0  2  0  0  0  0  0  0
  -24.6840  -31.0990   22.1760 N   0  0  0  0  0  0  0  0  0  0  0  0
  -23.5350  -32.2150   23.7960 O   0  0  0  0  0  0  0  0  0  0  0  0
  -22.7320  -29.5230   22.6070 C   0  0  0  0  0  0  0  0  0  0  0  0
  -21.4050  -29.3430   22.4740 N   0  0  0  0  0  0  0  0  0  0  0  0
  -23.4010  -28.9120   23.4420 O   0  0  0  0  0  0  0  0  0  0  0  0
  -20.9200  -29.8880   21.7740 H   0  0  0  0  0  0  0  0  0  0  0  0
  -18.0280  -28.1290   22.9740 C   0  0  0  0  0  0  0  0  0  0  0  0
  -20.5840  -28.4090   23.2510 C   0  0  0  0  0  3  0  0  0  0  0  0
  -20.6960  -26.9710   22.6920 C   0  0  0  0  0  2  0  0  0  0  0  0
  -19.6010  -26.6310   21.6760 C   0  0  0  0  0  2  0  0  0  0  0  0
  -18.2160  -26.7750   22.3120 C   0  0  0  0  0  2  0  0  0  0  0  0
  -19.1400  -28.9040   23.4000 C   0  0  0  0  0  0  0  0  0  0  0  0
  -18.9090  -30.1690   23.9810 C   0  0  0  0  0  3  0  0  0  0  0  0
  -17.6010  -30.6620   24.1390 C   0  0  0  0  0  3  0  0  0  0  0  0
  -16.5030  -29.8860   23.7260 C   0  0  0  0  0  3  0  0  0  0  0  0
  -16.7170  -28.6220   23.1510 C   0  0  0  0  0  3  0  0  0  0  0  0
  -25.9010  -32.5600   23.8860 C   0  0  0  0  0  3  0  0  0  0  0  0
  -26.4090  -31.7990   25.1730 C   0  0  1  0  0  0  0  0  0  0  0  0
  -25.3100  -31.5720   26.2370 C   0  0  0  0  0  1  0  0  0  0  0  0
  -26.9920  -30.4180   24.8000 C   0  0  0  0  0  1  0  0  0  0  0  0
  -27.5580  -32.5980   25.8340 C   0  0  0  0  0  1  0  0  0  0  0  0
  -25.5940  -33.9620   24.2090 N   0  0  0  0  0  0  0  0  0  0  0  0
  -25.9050  -35.0100   23.4350 C   0  0  0  0  0  0  0  0  0  0  0  0
  -26.5470  -34.8990   22.3870 O   0  0  0  0  0  0  0  0  0  0  0  0
  -25.0200  -34.1230   25.0240 H   0  0  0  0  0  0  0  0  0  0  0  0
  -24.1620  -36.7990   23.1240 C   0  0  0  0  0  1  0  0  0  0  0  0
  -25.4310  -36.4040   23.8940 C   0  0  0  0  0  3  0  0  0  0  0  0
  -27.5830  -37.3130   24.6520 C   0  0  0  0  0  1  0  0  0  0  0  0
  -26.4570  -37.4580   23.7340 N   0  0  0  0  0  0  0  0  0  0  0  0
  -26.0510  -38.3800   23.8720 H   0  0  0  0  0  0  0  0  0  0  0  0
  1  3  2  0
  2  1  1  0
  2 47  1  0
  4  2  1  0
  5  8  1  0
  5  1  1  0
  5  7  1  1
  6  5  1  0
  8 17  1  0
  9 17  1  0
 10 15  1  0
 11 12  1  0
 11 10  1  0
 13 12  1  0
 13 22  1  0
 13 14  1  0
 15  9  1  0
 15 14  1  0
 16  9  2  0
 17 18  1  0
 19 20  2  0
 20 39  1  0
 21 20  1  0
 21 24  1  0
 22 23  1  0
 22 19  1  0
 23 21  2  0
 24 25  1  0
 25 26  2  0
 27 30  1  0
 27 26  1  0
 28 27  2  0
 29 28  1  0
 29 24  2  0
 30 31  1  0
 31 32  1  0
 32 33  2  0
 34 33  1  0
 34 38  1  0
 35 34  2  0
 36 31  2  0
 36 35  1  0
 37 36  1  0
 39 40  1  0
 40 43  1  0
 40 42  1  0
 41 39  2  0
 44 45  1  0
 44 19  1  0
 46 44  1  0
 48 49  1  0
 48 47  2  0
 50 61  2  0
 51 49  1  0
 51 56  1  0
 52 60  1  0
 52 62  1  0
 53 59  1  0
 53 55  1  0
 54 60  1  0
 55 54  1  0
 56 55  2  0
 57 51  2  0
 58 57  1  0
 58 53  2  0
 59 52  1  0
 60 50  1  0
 62 64  2  0
 63 62  1  0
 65 63  1  0
 66 75  2  0
 66 71  1  0
 67 63  1  0
 67 71  1  0
 68 67  1  0
 69 70  1  0
 69 68  1  0
 70 66  1  0
 71 72  2  0
 72 73  1  0
 74 73  2  0
 75 74  1  0
 76 50  1  0
 76 81  1  0
 76 77  1  0
 77 80  1  1
 77 78  1  0
 79 77  1  0
 81 84  1  0
 82 86  1  0
 82 81  1  0
 83 82  2  0
 86 85  1  0
 88 89  1  0
 88 86  1  0
 88 87  1  0
M  ISO  4   9 100  17 100  48 101  49 101
M  END
>  <TORSDO>  (30) 
F 20

>  <SCORE>  (30) 
-15.149

>  <name>  (30) 
29

>  <ligand_id>  (30) 
29

>  <original_smiles>  (30) 
[H]c1c([H])c([H])c2c(c1[H])C([H])([H])C([H])([H])C([H])([H])C2([H])N([H])C(=O)C1([H])N(C(=O)C([H])(N([H])C(=O)C([H])(N([H])C([H])([H])[H])C([H])([H])[H])C(C([H])([H])[H])(C([H])([H])[H])C([H])([H])[H])C([H])([H])c2c([H])c(OC([H])([H])C([H])([H])N([H])C(=O)C(F)(F)C([H])([H])N([H])C(=O)N3C([H])([H])C([H])([H])C([H])([H])C([H])(n4nc(-c5c([H])c([H])c(Oc6c([H])c([H])c(F)c([H])c6F)c([H])c5[H])c(C(=O)N([H])[H])c4N([H])[H])C3([H])[H])c([H])c([H])c2C1([H])[H]

>  <smiles>  (30) 
[H]c1c([H])c([H])c2c(c1[H])C([H])([H])C([H])([H])C([H])([H])C2([H])N([H])C(=O)C1([H])N(C(=O)C([H])(N([H])C(=O)C([H])(N([H])C([H])([H])[H])C([H])([H])[H])C(C([H])([H])[H])(C([H])([H])[H])C([H])([H])[H])C([H])([H])c2c([H])c(OC([H])([H])C([H])([H])N([H])C(=O)C(F)(F)C([H])([H])N([H])C(=O)N3C([H])([H])C([H])([H])C([H])([H])C([H])(n4nc(-c5c([H])c([H])c(Oc6c([H])c([H])c(F)c([H])c6F)c([H])c5[H])c(C(=O)N([H])[H])c4N([H])[H])C3([H])[H])c([H])c([H])c2C1([H])[H]

$$$$
30:0:0
     RDKit          3D

111118  0  0  1  0  0  0  0  0999 V2000
  -26.3380  -19.2160   18.8330 C   0  0  0  0  0  3  0  0  0  0  0  0
  -26.1260  -20.1000   17.6610 N   0  0  0  0  0  4  0  0  0  0  0  0
  -26.6480  -20.9330   17.8820 H   0  0  0  0  0  0  0  0  0  0  0  0
  -26.5510  -19.7110   16.8360 H   0  0  0  0  0  0  0  0  0  0  0  0
  -24.7150  -20.4730   17.3830 C   0  0  0  0  0  2  0  0  0  0  0  0
  -24.3960  -21.9400   17.7560 C   0  0  0  0  0  2  0  0  0  0  0  0
  -25.2490  -23.0180   17.0450 C   0  0  0  0  0  2  0  0  0  0  0  0
  -25.0150  -24.4390   17.6160 C   0  0  0  0  0  2  0  0  0  0  0  0
  -25.7970  -25.4920   16.9410 N   0  0  0  0  0  4  0  0  0  0  0  0
  -26.7830  -25.3130   16.9830 H   0  0  0  0  0  0  0  0  0  0  0  0
  -25.6330  -26.3760   17.3950 H   0  0  0  0  0  0  0  0  0  0  0  0
  -25.5290  -25.5900   15.9790 H   0  0  0  0  0  0  0  0  0  0  0  0
  -26.8240  -17.7990   18.4200 C   0  0  0  0  0  2  0  0  0  0  0  0
  -28.6170  -16.1750   19.0260 C   0  0  0  0  0  0  0  0  0  0  0  0
  -28.0970  -17.4090   19.0410 N   0  0  0  0  0  0  0  0  0  0  0  0
  -27.9650  -15.2040   18.6520 O   0  0  0  0  0  0  0  0  0  0  0  0
  -28.7020  -18.1390   19.3980 H   0  0  0  0  0  0  0  0  0  0  0  0
  -30.0680  -15.9910   19.5070 C   0  0  0  0  0  3  0  0  0  0  0  0
  -31.0170  -14.1690   20.8660 C   0  0  0  0  0  0  0  0  0  0  0  0
  -30.9080  -11.8260   20.2260 C   0  0  0  0  0  2  0  0  0  0  0  0
  -30.0660  -11.7780   18.9310 C   0  0  0  0  0  2  0  0  0  0  0  0
  -28.5630  -11.6360   19.2620 C   0  0  0  0  0  2  0  0  0  0  0  0
  -28.0940  -12.6730   20.3120 C   0  0  0  0  0  3  0  0  0  0  0  0
  -29.0560  -12.7290   21.5240 C   0  0  0  0  0  2  0  0  0  0  0  0
  -30.4280  -12.9610   21.0270 N   0  0  0  0  0  0  0  0  0  0  0  0
  -32.2000  -14.3090   20.5330 O   0  0  0  0  0  0  0  0  0  0  0  0
  -30.1310  -15.1630   20.7200 N   0  0  0  0  0  0  0  0  0  0  0  0
  -29.2270  -14.9920   21.1340 H   0  0  0  0  0  0  0  0  0  0  0  0
  -25.7170  -13.3880   20.9770 C   0  0  0  0  0  0  0  0  0  0  0  0
  -24.6010  -12.6650   21.2830 C   0  0  0  0  0  0  0  0  0  0  0  0
  -24.9920  -11.2910   21.2160 C   0  0  0  0  0  0  0  0  0  0  0  0
  -26.7190  -12.4590   20.7340 N   0  0  0  0  0  0  0  0  0  0  0  0
  -26.2860  -11.1910   20.9390 N   0  0  0  0  0  0  0  0  0  0  0  0
  -24.1970  -10.0690   21.3360 C   0  0  0  0  0  0  0  0  0  0  0  0
  -24.5000   -9.0920   22.3090 C   0  0  0  0  0  3  0  0  0  0  0  0
  -23.7240   -7.9170   22.4060 C   0  0  0  0  0  3  0  0  0  0  0  0
  -22.6270   -7.7210   21.5340 C   0  0  0  0  0  0  0  0  0  0  0  0
  -22.3400   -8.6890   20.5540 C   0  0  0  0  0  3  0  0  0  0  0  0
  -23.1150   -9.8560   20.4560 C   0  0  0  0  0  3  0  0  0  0  0  0
  -21.8210   -6.6050   21.5460 O   0  0  0  0  0  0  0  0  0  0  0  0
  -21.5550   -5.9210   22.7030 C   0  0  0  0  0  0  0  0  0  0  0  0
  -20.8780   -6.5290   23.7840 C   0  0  0  0  0  3  0  0  0  0  0  0
  -20.5600   -5.7770   24.9340 C   0  0  0  0  0  3  0  0  0  0  0  0
  -20.9030   -4.4120   24.9960 C   0  0  0  0  0  0  0  0  0  0  0  0
  -21.5740   -3.8010   23.9220 C   0  0  0  0  0  3  0  0  0  0  0  0
  -21.8980   -4.5560   22.7790 C   0  0  0  0  0  0  0  0  0  0  0  0
  -22.5230   -3.9570   21.7350 F   0  0  0  0  0  0  0  0  0  0  0  0
  -20.5910   -3.6860   26.0950 F   0  0  0  0  0  0  0  0  0  0  0  0
  -23.2190  -13.2080   21.5240 C   0  0  0  0  0  0  0  0  0  0  0  0
  -22.4220  -12.5190   22.3270 N   0  0  0  0  0  0  0  0  0  0  0  0
  -22.8640  -14.2860   21.0440 O   0  0  0  0  0  0  0  0  0  0  0  0
  -22.7300  -11.6490   22.7290 H   0  0  0  0  0  0  0  0  0  0  0  0
  -21.4990  -12.8660   22.5490 H   0  0  0  0  0  0  0  0  0  0  0  0
  -25.9590  -14.7530   20.8570 N   0  0  0  0  0  0  0  0  0  0  0  0
  -25.1490  -15.3570   20.8160 H   0  0  0  0  0  0  0  0  0  0  0  0
  -26.6870  -15.0410   20.2100 H   0  0  0  0  0  0  0  0  0  0  0  0
  -30.9970  -17.2350   19.5170 C   0  0  0  0  0  2  0  0  0  0  0  0
  -31.3560  -17.2910   16.9680 C   0  0  0  0  0  1  0  0  0  0  0  0
  -31.8920  -19.3190   18.3290 C   0  0  0  0  0  1  0  0  0  0  0  0
  -30.9660  -18.0980   18.2240 C   0  0  0  0  0  3  0  0  0  0  0  0
  -27.2830  -19.9490   19.8070 C   0  0  0  0  0  2  0  0  0  0  0  0
  -28.4610  -20.4560   19.1130 N   0  0  0  0  0  0  0  0  0  0  0  0
  -28.8940  -19.6820   18.6180 H   0  0  0  0  0  0  0  0  0  0  0  0
  -29.4280  -21.0020   20.0890 C   0  0  0  0  0  2  0  0  0  0  0  0
  -30.2730  -22.0800   19.4160 C   0  0  0  0  0  0  0  0  0  0  0  0
  -29.6270  -23.2020   19.1110 N   0  0  0  0  0  0  0  0  0  0  0  0
  -31.4410  -21.8620   19.0920 O   0  0  0  0  0  0  0  0  0  0  0  0
  -28.6840  -23.2900   19.4650 H   0  0  0  0  0  0  0  0  0  0  0  0
  -30.1130  -24.2590   18.2390 C   0  0  0  0  0  2  0  0  0  0  0  0
  -30.5640  -25.5030   19.0120 C   0  0  0  0  0  2  0  0  0  0  0  0
  -30.3000  -26.6420   18.2000 O   0  0  0  0  0  0  0  0  0  0  0  0
  -25.7500  -28.6290   23.2300 C   0  0  0  0  0  0  0  0  0  0  0  0
  -29.0890  -27.2190   18.4770 C   0  0  0  0  0  0  0  0  0  0  0  0
  -24.8570  -28.6630   20.9180 C   0  0  0  0  0  3  0  0  0  0  0  0
  -26.5960  -28.3800   19.0710 C   0  0  0  0  0  0  0  0  0  0  0  0
  -27.3460  -29.0270   21.3690 C   0  0  0  0  0  2  0  0  0  0  0  0
  -27.6190  -28.3810   20.0290 C   0  0  0  0  0  0  0  0  0  0  0  0
  -28.8650  -27.7920   19.7410 C   0  0  0  0  0  3  0  0  0  0  0  0
  -28.0630  -27.2320   17.5100 C   0  0  0  0  0  3  0  0  0  0  0  0
  -26.8090  -27.7980   17.8090 C   0  0  0  0  0  3  0  0  0  0  0  0
  -25.2900  -29.0320   19.4740 C   0  0  0  0  0  2  0  0  0  0  0  0
  -25.9920  -28.7420   21.8950 N   0  0  0  0  0  0  0  0  0  0  0  0
  -24.5940  -28.5050   23.6590 O   0  0  0  0  0  0  0  0  0  0  0  0
  -24.1700  -27.2780   20.8900 C   0  0  0  0  0  0  0  0  0  0  0  0
  -22.9060  -27.2500   20.4430 N   0  0  0  0  0  0  0  0  0  0  0  0
  -24.7790  -26.2600   21.2300 O   0  0  0  0  0  0  0  0  0  0  0  0
  -22.4650  -28.1330   20.2130 H   0  0  0  0  0  0  0  0  0  0  0  0
  -19.7060  -26.0900   19.2620 C   0  0  0  0  0  0  0  0  0  0  0  0
  -22.0730  -26.0610   20.2850 C   0  0  0  0  0  3  0  0  0  0  0  0
  -22.4950  -25.2410   19.0420 C   0  0  0  0  0  2  0  0  0  0  0  0
  -21.7020  -25.6070   17.7870 C   0  0  0  0  0  2  0  0  0  0  0  0
  -20.2030  -25.3950   18.0030 C   0  0  0  0  0  2  0  0  0  0  0  0
  -20.5840  -26.4140   20.3270 C   0  0  0  0  0  0  0  0  0  0  0  0
  -20.0720  -27.0770   21.4640 C   0  0  0  0  0  3  0  0  0  0  0  0
  -18.7090  -27.4150   21.5470 C   0  0  0  0  0  3  0  0  0  0  0  0
  -17.8390  -27.0800   20.4950 C   0  0  0  0  0  3  0  0  0  0  0  0
  -18.3380  -26.4170   19.3580 C   0  0  0  0  0  3  0  0  0  0  0  0
  -26.9050  -28.6730   24.2810 C   0  0  0  0  0  3  0  0  0  0  0  0
  -27.3200  -27.2420   24.8080 C   0  0  1  0  0  0  0  0  0  0  0  0
  -26.1300  -26.3860   25.2980 C   0  0  0  0  0  1  0  0  0  0  0  0
  -28.0450  -26.4460   23.6980 C   0  0  0  0  0  1  0  0  0  0  0  0
  -28.3180  -27.3830   25.9820 C   0  0  0  0  0  1  0  0  0  0  0  0
  -26.4590  -29.5290   25.3840 N   0  0  0  0  0  0  0  0  0  0  0  0
  -26.8550  -30.7940   25.5720 C   0  0  0  0  0  0  0  0  0  0  0  0
  -27.7020  -31.3430   24.8590 O   0  0  0  0  0  0  0  0  0  0  0  0
  -25.7310  -29.1630   25.9790 H   0  0  0  0  0  0  0  0  0  0  0  0
  -25.1080  -32.4950   26.1890 C   0  0  0  0  0  1  0  0  0  0  0  0
  -26.2120  -31.5760   26.7320 C   0  0  0  0  0  3  0  0  0  0  0  0
  -28.1060  -31.5670   28.2970 C   0  0  0  0  0  1  0  0  0  0  0  0
  -27.1820  -32.3800   27.5100 N   0  0  0  0  0  0  0  0  0  0  0  0
  -26.6990  -33.0120   28.1460 H   0  0  0  0  0  0  0  0  0  0  0  0
  1 13  1  0
  1 61  1  0
  2  3  1  0
  2  1  1  0
  4  2  1  0
  5  2  1  0
  5  6  1  0
  7  8  1  0
  7  6  1  0
  9 10  1  0
  9 11  1  0
  9  8  1  0
 12  9  1  0
 13 15  1  0
 14 15  1  0
 14 18  1  0
 15 17  1  0
 16 14  2  0
 18 57  1  0
 18 27  1  0
 19 25  1  0
 20 25  1  0
 21 22  1  0
 21 20  1  0
 23 22  1  0
 23 32  1  0
 23 24  1  0
 25 24  1  0
 26 19  2  0
 27 19  1  0
 27 28  1  0
 29 30  2  0
 30 49  1  0
 31 30  1  0
 31 34  1  0
 32 33  1  0
 32 29  1  0
 33 31  2  0
 34 35  1  0
 35 36  2  0
 37 40  1  0
 37 36  1  0
 38 37  2  0
 39 38  1  0
 39 34  2  0
 40 41  1  0
 41 46  2  0
 41 42  1  0
 42 43  2  0
 43 44  1  0
 44 48  1  0
 45 44  2  0
 46 45  1  0
 47 46  1  0
 49 50  1  0
 50 53  1  0
 50 52  1  0
 51 49  2  0
 54 29  1  0
 55 54  1  0
 56 54  1  0
 58 60  1  0
 60 59  1  0
 60 57  1  0
 62 61  1  0
 62 64  1  0
 63 62  1  0
 65 64  1  0
 66 65  1  0
 66 68  1  0
 67 65  2  0
 69 70  1  0
 69 66  1  0
 71 73  1  0
 71 70  1  0
 72 83  2  0
 73 78  1  0
 74 84  1  0
 74 82  1  0
 75 81  1  0
 75 77  1  0
 76 82  1  0
 77 76  1  0
 78 77  2  0
 79 80  1  0
 79 73  2  0
 80 75  2  0
 81 74  1  0
 82 72  1  0
 84 86  2  0
 85 84  1  0
 87 85  1  0
 88 97  2  0
 88 93  1  0
 89 93  1  0
 89 85  1  0
 90 89  1  0
 91 92  1  0
 91 90  1  0
 92 88  1  0
 93 94  2  0
 94 95  1  0
 96 95  2  0
 97 96  1  0
 98 72  1  0
 98 99  1  0
 98103  1  0
 99100  1  1
 99102  1  0
101 99  1  0
103104  1  0
103106  1  0
104108  1  0
105104  2  0
108107  1  0
108110  1  0
110111  1  0
110109  1  0
M  ISO  4  19 100  27 100  70 101  71 101
M  END
>  <TORSDO>  (31) 
F 33

>  <SCORE>  (31) 
-4.914

>  <name>  (31) 
30

>  <ligand_id>  (31) 
30

>  <original_smiles>  (31) 
[H]c1c([H])c([H])c2c(c1[H])C([H])([H])C([H])([H])C([H])([H])C2([H])N([H])C(=O)C1([H])N(C(=O)C([H])(N([H])C(=O)C([H])(N([H])C([H])([H])[H])C([H])([H])[H])C(C([H])([H])[H])(C([H])([H])[H])C([H])([H])[H])C([H])([H])c2c([H])c(OC([H])([H])C([H])([H])N([H])C(=O)C([H])([H])N([H])C([H])([H])C([H])(C([H])([H])N([H])C(=O)C([H])(N([H])C(=O)N3C([H])([H])C([H])([H])C([H])([H])C([H])(n4nc(-c5c([H])c([H])c(Oc6c([H])c([H])c(F)c([H])c6F)c([H])c5[H])c(C(=O)N([H])[H])c4N([H])[H])C3([H])[H])C([H])([H])C([H])(C([H])([H])[H])C([H])([H])[H])[N+]([H])([H])C([H])([H])C([H])([H])C([H])([H])C([H])([H])[N+]([H])([H])[H])c([H])c([H])c2C1([H])[H]

>  <smiles>  (31) 
[H]c1c([H])c([H])c2c(c1[H])C([H])([H])C([H])([H])C([H])([H])C2([H])N([H])C(=O)C1([H])N(C(=O)C([H])(N([H])C(=O)C([H])(N([H])C([H])([H])[H])C([H])([H])[H])C(C([H])([H])[H])(C([H])([H])[H])C([H])([H])[H])C([H])([H])c2c([H])c(OC([H])([H])C([H])([H])N([H])C(=O)C([H])([H])N([H])C([H])([H])C([H])(C([H])([H])N([H])C(=O)C([H])(N([H])C(=O)N3C([H])([H])C([H])([H])C([H])([H])C([H])(n4nc(-c5c([H])c([H])c(Oc6c([H])c([H])c(F)c([H])c6F)c([H])c5[H])c(C(=O)N([H])[H])c4N([H])[H])C3([H])[H])C([H])([H])C([H])(C([H])([H])[H])C([H])([H])[H])[N+]([H])([H])C([H])([H])C([H])([H])C([H])([H])C([H])([H])[N+]([H])([H])[H])c([H])c([H])c2C1([H])[H]

$$$$
31:0:0
     RDKit          3D

 93100  0  0  1  0  0  0  0  0999 V2000
  -28.6980  -22.9530   20.7280 C   0  0  0  0  0  0  0  0  0  0  0  0
  -28.9990  -21.8930   19.9650 N   0  0  0  0  0  0  0  0  0  0  0  0
  -28.2890  -22.8320   21.8850 O   0  0  0  0  0  0  0  0  0  0  0  0
  -29.3380  -22.0740   19.0260 H   0  0  0  0  0  0  0  0  0  0  0  0
  -28.8580  -24.3420   20.0880 C   0  0  0  0  0  2  0  0  0  0  0  0
  -28.1630  -25.4730   20.8750 C   0  0  0  0  0  2  0  0  0  0  0  0
  -28.3310  -26.7440   20.2250 O   0  0  0  0  0  0  0  0  0  0  0  0
  -24.5640  -31.9240   23.2920 C   0  0  0  0  0  0  0  0  0  0  0  0
  -27.1880  -27.5030   20.1980 C   0  0  0  0  0  0  0  0  0  0  0  0
  -23.3500  -30.5310   21.6470 C   0  0  0  0  0  3  0  0  0  0  0  0
  -24.7990  -29.0030   20.2070 C   0  0  0  0  0  0  0  0  0  0  0  0
  -25.8730  -30.8940   21.4430 C   0  0  0  0  0  2  0  0  0  0  0  0
  -25.9570  -29.5280   20.7940 C   0  0  0  0  0  0  0  0  0  0  0  0
  -27.1590  -28.7860   20.7850 C   0  0  0  0  0  3  0  0  0  0  0  0
  -26.0200  -26.9940   19.5930 C   0  0  0  0  0  3  0  0  0  0  0  0
  -24.8240  -27.7340   19.5990 C   0  0  0  0  0  3  0  0  0  0  0  0
  -23.5540  -29.8560   20.2640 C   0  0  0  0  0  2  0  0  0  0  0  0
  -24.6130  -31.1300   22.1860 N   0  0  0  0  0  0  0  0  0  0  0  0
  -23.4840  -32.1990   23.8370 O   0  0  0  0  0  0  0  0  0  0  0  0
  -22.7020  -29.5070   22.6070 C   0  0  0  0  0  0  0  0  0  0  0  0
  -21.3780  -29.3280   22.4800 N   0  0  0  0  0  0  0  0  0  0  0  0
  -23.3860  -28.8780   23.4180 O   0  0  0  0  0  0  0  0  0  0  0  0
  -20.8890  -29.8900   21.7970 H   0  0  0  0  0  0  0  0  0  0  0  0
  -18.0040  -28.1250   22.9590 C   0  0  0  0  0  0  0  0  0  0  0  0
  -20.5590  -28.3890   23.2480 C   0  0  0  0  0  3  0  0  0  0  0  0
  -20.6700  -26.9590   22.6730 C   0  0  0  0  0  2  0  0  0  0  0  0
  -19.5740  -26.6310   21.6540 C   0  0  0  0  0  2  0  0  0  0  0  0
  -18.1880  -26.7740   22.2880 C   0  0  0  0  0  2  0  0  0  0  0  0
  -19.1190  -28.8890   23.3950 C   0  0  0  0  0  0  0  0  0  0  0  0
  -18.8940  -30.1540   23.9790 C   0  0  0  0  0  3  0  0  0  0  0  0
  -17.5860  -30.6530   24.1350 C   0  0  0  0  0  3  0  0  0  0  0  0
  -16.4870  -29.8850   23.7160 C   0  0  0  0  0  3  0  0  0  0  0  0
  -16.6960  -28.6230   23.1330 C   0  0  0  0  0  3  0  0  0  0  0  0
  -25.8530  -32.5470   23.9140 C   0  0  0  0  0  3  0  0  0  0  0  0
  -25.5560  -33.9480   24.2400 N   0  0  0  0  0  0  0  0  0  0  0  0
  -25.9030  -34.9940   23.4770 C   0  0  0  0  0  0  0  0  0  0  0  0
  -26.5770  -34.8790   22.4500 O   0  0  0  0  0  0  0  0  0  0  0  0
  -24.9560  -34.1130   25.0360 H   0  0  0  0  0  0  0  0  0  0  0  0
  -24.1950  -36.8010   23.0990 C   0  0  0  0  0  1  0  0  0  0  0  0
  -25.4240  -36.3870   23.9260 C   0  0  0  0  0  3  0  0  0  0  0  0
  -27.5590  -37.2510   24.7740 C   0  0  0  0  0  1  0  0  0  0  0  0
  -26.4670  -37.4290   23.8200 N   0  0  0  0  0  0  0  0  0  0  0  0
  -26.0690  -38.3530   23.9650 H   0  0  0  0  0  0  0  0  0  0  0  0
  -26.3670  -31.7730   25.1890 C   0  0  1  0  0  0  0  0  0  0  0  0
  -25.2710  -31.5410   26.2550 C   0  0  0  0  0  1  0  0  0  0  0  0
  -26.9460  -30.3940   24.7970 C   0  0  0  0  0  1  0  0  0  0  0  0
  -27.5230  -32.5630   25.8500 C   0  0  0  0  0  1  0  0  0  0  0  0
  -28.7250  -20.4940   20.3040 C   0  0  0  0  0  2  0  0  0  0  0  0
  -29.9000  -19.7780   21.0010 C   0  0  0  0  0  2  0  0  0  0  0  0
  -29.6030  -18.2770   21.2310 C   0  0  0  0  0  2  0  0  0  0  0  0
  -30.7670  -17.4610   21.8490 C   0  0  0  0  0  2  0  0  0  0  0  0
  -31.5430  -16.5230   20.8880 C   0  0  0  0  0  3  0  0  0  0  0  0
  -31.2150  -14.2340   19.8600 C   0  0  0  0  0  0  0  0  0  0  0  0
  -30.7400  -11.9970   18.9450 C   0  0  0  0  0  2  0  0  0  0  0  0
  -29.7690  -12.0810   17.7540 C   0  0  0  0  0  2  0  0  0  0  0  0
  -28.3150  -12.0110   18.2530 C   0  0  0  0  0  2  0  0  0  0  0  0
  -28.0330  -13.0130   19.4060 C   0  0  0  0  0  3  0  0  0  0  0  0
  -29.1250  -12.9410   20.4980 C   0  0  0  0  0  2  0  0  0  0  0  0
  -30.4400  -13.1150   19.8560 N   0  0  0  0  0  0  0  0  0  0  0  0
  -32.2690  -14.2910   19.2250 O   0  0  0  0  0  0  0  0  0  0  0  0
  -30.7900  -15.2770   20.5990 N   0  0  0  0  0  0  0  0  0  0  0  0
  -29.9080  -15.1570   21.0720 H   0  0  0  0  0  0  0  0  0  0  0  0
  -25.7090  -13.7530   20.2270 C   0  0  0  0  0  0  0  0  0  0  0  0
  -24.6230  -13.0430   20.6670 C   0  0  0  0  0  0  0  0  0  0  0  0
  -25.0120  -11.6690   20.6380 C   0  0  0  0  0  0  0  0  0  0  0  0
  -26.6940  -12.8160   19.9610 N   0  0  0  0  0  0  0  0  0  0  0  0
  -26.2810  -11.5580   20.2650 N   0  0  0  0  0  0  0  0  0  0  0  0
  -24.2340  -10.4490   20.8930 C   0  0  0  0  0  0  0  0  0  0  0  0
  -24.6330   -9.5100   21.8690 C   0  0  0  0  0  3  0  0  0  0  0  0
  -23.8600   -8.3530   22.1070 C   0  0  0  0  0  3  0  0  0  0  0  0
  -22.6730   -8.1300   21.3700 C   0  0  0  0  0  0  0  0  0  0  0  0
  -22.2930   -9.0550   20.3820 C   0  0  0  0  0  3  0  0  0  0  0  0
  -23.0670  -10.2040   20.1430 C   0  0  0  0  0  3  0  0  0  0  0  0
  -21.8700   -7.0240   21.5160 O   0  0  0  0  0  0  0  0  0  0  0  0
  -21.7620   -6.3660   22.7150 C   0  0  0  0  0  0  0  0  0  0  0  0
  -21.3260   -7.0220   23.8870 C   0  0  0  0  0  3  0  0  0  0  0  0
  -21.1620   -6.2940   25.0820 C   0  0  0  0  0  3  0  0  0  0  0  0
  -21.4230   -4.9100   25.1050 C   0  0  0  0  0  0  0  0  0  0  0  0
  -21.8500   -4.2550   23.9360 C   0  0  0  0  0  3  0  0  0  0  0  0
  -22.0150   -4.9800   22.7450 C   0  0  0  0  0  0  0  0  0  0  0  0
  -22.4070   -4.3390   21.6170 F   0  0  0  0  0  0  0  0  0  0  0  0
  -21.2560   -4.2080   26.2500 F   0  0  0  0  0  0  0  0  0  0  0  0
  -23.2680  -13.5970   21.0030 C   0  0  0  0  0  0  0  0  0  0  0  0
  -22.5570  -12.9620   21.9290 N   0  0  0  0  0  0  0  0  0  0  0  0
  -22.8500  -14.6280   20.4780 O   0  0  0  0  0  0  0  0  0  0  0  0
  -22.9070  -12.1300   22.3790 H   0  0  0  0  0  0  0  0  0  0  0  0
  -21.6470  -13.3140   22.1900 H   0  0  0  0  0  0  0  0  0  0  0  0
  -25.9310  -15.1090   20.0120 N   0  0  0  0  0  0  0  0  0  0  0  0
  -25.2060  -15.8060   20.1470 H   0  0  0  0  0  0  0  0  0  0  0  0
  -26.7880  -15.4970   19.6380 H   0  0  0  0  0  0  0  0  0  0  0  0
  -32.1040  -17.2830   19.6580 C   0  0  0  0  0  0  0  0  0  0  0  0
  -33.5500  -17.7530   19.7340 C   0  0  0  0  0  1  0  0  0  0  0  0
  -31.4390  -17.5260   18.6480 O   0  0  0  0  0  0  0  0  0  0  0  0
  1  3  2  0
  2 48  1  0
  2  1  1  0
  4  2  1  0
  5  1  1  0
  5  6  1  0
  7  6  1  0
  8 19  2  0
  9  7  1  0
  9 14  1  0
 10 18  1  0
 10 20  1  0
 11 17  1  0
 11 13  1  0
 12 18  1  0
 13 12  1  0
 14 13  2  0
 15 16  1  0
 15  9  2  0
 16 11  2  0
 17 10  1  0
 18  8  1  0
 20 22  2  0
 21 20  1  0
 23 21  1  0
 24 33  2  0
 24 29  1  0
 25 21  1  0
 25 29  1  0
 26 25  1  0
 27 28  1  0
 27 26  1  0
 28 24  1  0
 29 30  2  0
 30 31  1  0
 32 31  2  0
 33 32  1  0
 34  8  1  0
 34 35  1  0
 34 44  1  0
 35 38  1  0
 36 40  1  0
 36 35  1  0
 37 36  2  0
 40 39  1  0
 42 40  1  0
 42 43  1  0
 42 41  1  0
 44 47  1  1
 44 45  1  0
 46 44  1  0
 48 49  1  0
 49 50  1  0
 50 51  1  0
 52 51  1  0
 53 61  1  0
 54 59  1  0
 55 56  1  0
 55 54  1  0
 57 56  1  0
 57 66  1  0
 57 58  1  0
 59 53  1  0
 59 58  1  0
 60 53  2  0
 61 52  1  0
 61 62  1  0
 63 64  2  0
 64 83  1  0
 65 64  1  0
 65 68  1  0
 66 63  1  0
 66 67  1  0
 67 65  2  0
 68 69  1  0
 69 70  2  0
 71 74  1  0
 71 70  1  0
 72 71  2  0
 73 72  1  0
 73 68  2  0
 74 75  1  0
 75 80  2  0
 75 76  1  0
 76 77  2  0
 77 78  1  0
 78 82  1  0
 79 78  2  0
 80 79  1  0
 81 80  1  0
 83 84  1  0
 84 87  1  0
 84 86  1  0
 85 83  2  0
 88 89  1  0
 88 63  1  0
 90 88  1  0
 91 92  1  0
 91 52  1  0
 93 91  2  0
M  ISO  4   6 101   7 101  53 100  61 100
M  END
>  <TORSDO>  (32) 
F 24

>  <SCORE>  (32) 
-12.094

>  <name>  (32) 
31

>  <ligand_id>  (32) 
31

>  <original_smiles>  (32) 
[H]c1c([H])c([H])c2c(c1[H])C([H])([H])C([H])([H])C([H])([H])C2([H])N([H])C(=O)C1([H])N(C(=O)C([H])(N([H])C(=O)C([H])(N([H])C([H])([H])[H])C([H])([H])[H])C(C([H])([H])[H])(C([H])([H])[H])C([H])([H])[H])C([H])([H])c2c([H])c(OC([H])([H])C([H])([H])C(=O)N([H])C([H])([H])C([H])([H])C([H])([H])C([H])([H])C([H])(C(=O)C([H])([H])[H])N([H])C(=O)N3C([H])([H])C([H])([H])C([H])([H])C([H])(n4nc(-c5c([H])c([H])c(Oc6c([H])c([H])c(F)c([H])c6F)c([H])c5[H])c(C(=O)N([H])[H])c4N([H])[H])C3([H])[H])c([H])c([H])c2C1([H])[H]

>  <smiles>  (32) 
[H]c1c([H])c([H])c2c(c1[H])C([H])([H])C([H])([H])C([H])([H])C2([H])N([H])C(=O)C1([H])N(C(=O)C([H])(N([H])C(=O)C([H])(N([H])C([H])([H])[H])C([H])([H])[H])C(C([H])([H])[H])(C([H])([H])[H])C([H])([H])[H])C([H])([H])c2c([H])c(OC([H])([H])C([H])([H])C(=O)N([H])C([H])([H])C([H])([H])C([H])([H])C([H])([H])C([H])(C(=O)C([H])([H])[H])N([H])C(=O)N3C([H])([H])C([H])([H])C([H])([H])C([H])(n4nc(-c5c([H])c([H])c(Oc6c([H])c([H])c(F)c([H])c6F)c([H])c5[H])c(C(=O)N([H])[H])c4N([H])[H])C3([H])[H])c([H])c([H])c2C1([H])[H]

$$$$
32:0:0
     RDKit          3D

103110  0  0  1  0  0  0  0  0999 V2000
  -30.0390  -17.7520   20.9970 C   0  0  0  0  0  0  0  0  0  0  0  0
  -29.4900  -18.8660   20.4470 N   0  0  0  0  0  0  0  0  0  0  0  0
  -31.1260  -17.8000   21.5730 O   0  0  0  0  0  0  0  0  0  0  0  0
  -28.6730  -18.6970   19.8730 H   0  0  0  0  0  0  0  0  0  0  0  0
  -29.6500  -20.2740   20.9240 C   0  0  0  0  0  2  0  0  0  0  0  0
  -29.7940  -21.4080   19.8460 C   0  0  0  0  0  2  0  0  0  0  0  0
  -29.3730  -23.9550   19.8340 C   0  0  0  0  0  0  0  0  0  0  0  0
  -29.1100  -22.6810   20.2320 N   0  0  0  0  0  0  0  0  0  0  0  0
  -30.2600  -24.2170   19.0160 O   0  0  0  0  0  0  0  0  0  0  0  0
  -28.3330  -22.5820   20.8730 H   0  0  0  0  0  0  0  0  0  0  0  0
  -28.5160  -25.1020   20.4600 C   0  0  0  0  0  2  0  0  0  0  0  0
  -28.6530  -26.4120   19.8210 O   0  0  0  0  0  0  0  0  0  0  0  0
  -24.6290  -31.3870   23.0710 C   0  0  0  0  0  0  0  0  0  0  0  0
  -27.4970  -27.1790   19.8170 C   0  0  0  0  0  0  0  0  0  0  0  0
  -23.5180  -30.0440   21.3220 C   0  0  0  0  0  3  0  0  0  0  0  0
  -25.0630  -28.6460   19.8420 C   0  0  0  0  0  0  0  0  0  0  0  0
  -26.0420  -30.4840   21.2210 C   0  0  0  0  0  2  0  0  0  0  0  0
  -26.1920  -29.1580   20.4970 C   0  0  0  0  0  0  0  0  0  0  0  0
  -27.4170  -28.4380   20.4700 C   0  0  0  0  0  3  0  0  0  0  0  0
  -26.3510  -26.7040   19.1430 C   0  0  0  0  0  3  0  0  0  0  0  0
  -25.1410  -27.4250   19.1510 C   0  0  0  0  0  3  0  0  0  0  0  0
  -23.7880  -29.4600   19.9080 C   0  0  0  0  0  2  0  0  0  0  0  0
  -24.7460  -30.6540   21.9280 N   0  0  0  0  0  0  0  0  0  0  0  0
  -23.5250  -31.5880   23.5970 O   0  0  0  0  0  0  0  0  0  0  0  0
  -22.8820  -28.9470   22.2050 C   0  0  0  0  0  0  0  0  0  0  0  0
  -21.5600  -28.7480   22.0590 N   0  0  0  0  0  0  0  0  0  0  0  0
  -23.5730  -28.2760   22.9780 O   0  0  0  0  0  0  0  0  0  0  0  0
  -21.0660  -29.3400   21.4060 H   0  0  0  0  0  0  0  0  0  0  0  0
  -18.1990  -27.4760   22.4750 C   0  0  0  0  0  0  0  0  0  0  0  0
  -20.7580  -27.7430   22.7560 C   0  0  0  0  0  3  0  0  0  0  0  0
  -20.8750  -26.3650   22.0670 C   0  0  0  0  0  2  0  0  0  0  0  0
  -19.7700  -26.1080   21.0370 C   0  0  0  0  0  2  0  0  0  0  0  0
  -18.3880  -26.1850   21.6960 C   0  0  0  0  0  2  0  0  0  0  0  0
  -19.3120  -28.2130   22.9590 C   0  0  0  0  0  0  0  0  0  0  0  0
  -19.0810  -29.4230   23.6520 C   0  0  0  0  0  3  0  0  0  0  0  0
  -17.7710  -29.8940   23.8630 C   0  0  0  0  0  3  0  0  0  0  0  0
  -16.6740  -29.1510   23.3970 C   0  0  0  0  0  3  0  0  0  0  0  0
  -16.8890  -27.9430   22.7070 C   0  0  0  0  0  3  0  0  0  0  0  0
  -25.8720  -32.0290   23.7610 C   0  0  0  0  0  3  0  0  0  0  0  0
  -26.3470  -31.2390   25.0440 C   0  0  1  0  0  0  0  0  0  0  0  0
  -25.2160  -30.9710   26.0660 C   0  0  0  0  0  1  0  0  0  0  0  0
  -26.9620  -29.8760   24.6520 C   0  0  0  0  0  1  0  0  0  0  0  0
  -27.4580  -32.0380   25.7640 C   0  0  0  0  0  1  0  0  0  0  0  0
  -25.5230  -33.4130   24.1090 N   0  0  0  0  0  0  0  0  0  0  0  0
  -25.8960  -34.4900   23.4060 C   0  0  0  0  0  0  0  0  0  0  0  0
  -26.6380  -34.4250   22.4250 O   0  0  0  0  0  0  0  0  0  0  0  0
  -24.8740  -33.5340   24.8720 H   0  0  0  0  0  0  0  0  0  0  0  0
  -24.1870  -36.2810   22.9690 C   0  0  0  0  0  1  0  0  0  0  0  0
  -25.3600  -35.8600   23.8680 C   0  0  0  0  0  3  0  0  0  0  0  0
  -27.4050  -36.7330   24.9090 C   0  0  0  0  0  1  0  0  0  0  0  0
  -26.3890  -36.9220   23.8760 N   0  0  0  0  0  0  0  0  0  0  0  0
  -25.9670  -37.8370   24.0090 H   0  0  0  0  0  0  0  0  0  0  0  0
  -29.2510  -16.3960   20.9980 C   0  0  0  0  0  3  0  0  0  0  0  0
  -30.7330  -14.4100   21.4140 C   0  0  0  0  0  0  0  0  0  0  0  0
  -31.0090  -11.9570   21.4630 C   0  0  0  0  0  2  0  0  0  0  0  0
  -30.6480  -11.3870   20.0700 C   0  0  0  0  0  2  0  0  0  0  0  0
  -29.1380  -11.0970   19.9760 C   0  0  0  0  0  2  0  0  0  0  0  0
  -28.2700  -12.2950   20.4510 C   0  0  0  0  0  3  0  0  0  0  0  0
  -28.7780  -12.8320   21.8110 C   0  0  0  0  0  2  0  0  0  0  0  0
  -30.1960  -13.1750   21.6450 N   0  0  0  0  0  0  0  0  0  0  0  0
  -31.9410  -14.6200   21.5280 O   0  0  0  0  0  0  0  0  0  0  0  0
  -30.0500  -15.2290   20.5800 N   0  0  0  0  0  0  0  0  0  0  0  0
  -30.6690  -15.5220   19.8370 H   0  0  0  0  0  0  0  0  0  0  0  0
  -25.7570  -12.6760   20.0320 C   0  0  0  0  0  0  0  0  0  0  0  0
  -24.6690  -11.8690   20.2170 C   0  0  0  0  0  0  0  0  0  0  0  0
  -25.1710  -10.6490   20.7610 C   0  0  0  0  0  0  0  0  0  0  0  0
  -26.8520  -11.9510   20.4790 N   0  0  0  0  0  0  0  0  0  0  0  0
  -26.4780  -10.7380   20.9650 N   0  0  0  0  0  0  0  0  0  0  0  0
  -24.4960   -9.3790   21.0430 C   0  0  0  0  0  0  0  0  0  0  0  0
  -24.8130   -8.6060   22.1830 C   0  0  0  0  0  3  0  0  0  0  0  0
  -24.1340   -7.3970   22.4350 C   0  0  0  0  0  3  0  0  0  0  0  0
  -23.1220   -6.9500   21.5510 C   0  0  0  0  0  0  0  0  0  0  0  0
  -22.8350   -7.7080   20.4020 C   0  0  0  0  0  3  0  0  0  0  0  0
  -23.5150   -8.9100   20.1460 C   0  0  0  0  0  3  0  0  0  0  0  0
  -22.4270   -5.7740   21.7060 O   0  0  0  0  0  0  0  0  0  0  0  0
  -22.1570   -5.2610   22.9500 C   0  0  0  0  0  0  0  0  0  0  0  0
  -21.5530   -6.0360   23.9650 C   0  0  0  0  0  3  0  0  0  0  0  0
  -21.2260   -5.4490   25.2020 C   0  0  0  0  0  3  0  0  0  0  0  0
  -21.4940   -4.0870   25.4290 C   0  0  0  0  0  0  0  0  0  0  0  0
  -22.0900   -3.3080   24.4230 C   0  0  0  0  0  3  0  0  0  0  0  0
  -22.4190   -3.8960   23.1850 C   0  0  0  0  0  0  0  0  0  0  0  0
  -22.9740   -3.1390   22.2100 F   0  0  0  0  0  0  0  0  0  0  0  0
  -21.1750   -3.5180   26.6150 F   0  0  0  0  0  0  0  0  0  0  0  0
  -23.2510  -12.1800   19.8300 C   0  0  0  0  0  0  0  0  0  0  0  0
  -22.2870  -11.5710   20.5100 N   0  0  0  0  0  0  0  0  0  0  0  0
  -22.9910  -13.0180   18.9640 O   0  0  0  0  0  0  0  0  0  0  0  0
  -22.5050  -10.9350   21.2620 H   0  0  0  0  0  0  0  0  0  0  0  0
  -21.3150  -11.7740   20.3210 H   0  0  0  0  0  0  0  0  0  0  0  0
  -25.9050  -13.9470   19.4840 N   0  0  0  0  0  0  0  0  0  0  0  0
  -25.1300  -14.3950   19.0080 H   0  0  0  0  0  0  0  0  0  0  0  0
  -26.8010  -14.3740   19.2830 H   0  0  0  0  0  0  0  0  0  0  0  0
  -27.9080  -16.4580   20.2190 C   0  0  0  0  0  2  0  0  0  0  0  0
  -26.6810  -16.6090   21.1330 C   0  0  0  0  0  2  0  0  0  0  0  0
  -25.3530  -16.4400   20.3750 C   0  0  0  0  0  2  0  0  0  0  0  0
  -23.1740  -15.2420   20.6930 C   0  0  0  0  0  0  0  0  0  0  0  0
  -22.3510  -14.5950   21.5170 N   0  0  0  0  0  0  0  0  0  0  0  0
  -22.8280  -15.3950   19.4130 N   0  0  0  0  0  4  0  0  0  0  0  0
  -24.3300  -15.7330   21.1630 N   0  0  0  0  0  0  0  0  0  0  0  0
  -21.4560  -14.2300   21.2220 H   0  0  0  0  0  0  0  0  0  0  0  0
  -22.5630  -14.4530   22.4960 H   0  0  0  0  0  0  0  0  0  0  0  0
  -21.9420  -15.0730   19.0500 H   0  0  0  0  0  0  0  0  0  0  0  0
  -23.4220  -15.8860   18.7600 H   0  0  0  0  0  0  0  0  0  0  0  0
  -24.5490  -15.6490   22.1490 H   0  0  0  0  0  0  0  0  0  0  0  0
  1 53  1  0
  1  3  2  0
  2  5  1  0
  2  1  1  0
  4  2  1  0
  6  8  1  0
  6  5  1  0
  7  8  1  0
  7 11  1  0
  8 10  1  0
  9  7  2  0
 12 11  1  0
 13 24  2  0
 14 12  1  0
 14 19  1  0
 15 23  1  0
 15 25  1  0
 16 22  1  0
 16 18  1  0
 17 23  1  0
 18 17  1  0
 19 18  2  0
 20 21  1  0
 20 14  2  0
 21 16  2  0
 22 15  1  0
 23 13  1  0
 25 27  2  0
 26 25  1  0
 28 26  1  0
 29 38  2  0
 29 34  1  0
 30 26  1  0
 30 34  1  0
 31 30  1  0
 32 33  1  0
 32 31  1  0
 33 29  1  0
 34 35  2  0
 35 36  1  0
 37 36  2  0
 38 37  1  0
 39 13  1  0
 39 44  1  0
 39 40  1  0
 40 43  1  1
 40 41  1  0
 42 40  1  0
 44 47  1  0
 45 49  1  0
 45 44  1  0
 46 45  2  0
 49 48  1  0
 49 51  1  0
 51 52  1  0
 51 50  1  0
 53 92  1  0
 54 61  2  0
 54 60  1  0
 55 60  1  0
 56 55  1  0
 57 56  1  0
 58 57  1  0
 58 67  1  0
 58 59  1  0
 60 59  1  0
 62 53  1  0
 62 54  1  0
 63 62  1  0
 64 65  2  0
 64 67  1  0
 65 66  1  0
 66 68  2  0
 66 69  1  0
 67 68  1  0
 69 70  1  0
 70 71  2  0
 72 75  1  0
 72 71  1  0
 73 72  2  0
 74 73  1  0
 74 69  2  0
 75 76  1  0
 76 81  2  0
 76 77  1  0
 77 78  2  0
 78 79  1  0
 79 83  1  0
 80 79  2  0
 81 80  1  0
 82 81  1  0
 84 65  1  0
 84 85  1  0
 85 87  1  0
 86 84  2  0
 88 85  1  0
 89 64  1  0
 90 89  1  0
 91 89  1  0
 92 93  1  0
 94 93  1  0
 94 98  1  0
 95 98  1  0
 95 96  1  0
 96100  1  0
 97 95  2  0
 98103  1  0
 99 96  1  0
101 97  1  0
102 97  1  0
M  ISO  4  11 101  12 101  54 100  62 100
M  END
>  <TORSDO>  (33) 
F 25

>  <SCORE>  (33) 
-3.590

>  <name>  (33) 
32

>  <ligand_id>  (33) 
32

>  <original_smiles>  (33) 
[H]c1c([H])c([H])c2c(c1[H])C([H])([H])C([H])([H])C([H])([H])C2([H])N([H])C(=O)C1([H])N(C(=O)C([H])(N([H])C(=O)C([H])(N([H])C([H])([H])[H])C([H])([H])[H])C(C([H])([H])[H])(C([H])([H])[H])C([H])([H])[H])C([H])([H])c2c([H])c(OC([H])([H])C(=O)N([H])C([H])([H])C([H])([H])N([H])C(=O)C([H])(N([H])C(=O)N3C([H])([H])C([H])([H])C([H])([H])C([H])(n4nc(-c5c([H])c([H])c(Oc6c([H])c([H])c(F)c([H])c6F)c([H])c5[H])c(C(=O)N([H])[H])c4N([H])[H])C3([H])[H])C([H])([H])C([H])([H])C([H])([H])N([H])C(N([H])[H])=[N+]([H])[H])c([H])c([H])c2C1([H])[H]

>  <smiles>  (33) 
[H]c1c([H])c([H])c2c(c1[H])C([H])([H])C([H])([H])C([H])([H])C2([H])N([H])C(=O)C1([H])N(C(=O)C([H])(N([H])C(=O)C([H])(N([H])C([H])([H])[H])C([H])([H])[H])C(C([H])([H])[H])(C([H])([H])[H])C([H])([H])[H])C([H])([H])c2c([H])c(OC([H])([H])C(=O)N([H])C([H])([H])C([H])([H])N([H])C(=O)C([H])(N([H])C(=O)N3C([H])([H])C([H])([H])C([H])([H])C([H])(n4nc(-c5c([H])c([H])c(Oc6c([H])c([H])c(F)c([H])c6F)c([H])c5[H])c(C(=O)N([H])[H])c4N([H])[H])C3([H])[H])C([H])([H])C([H])([H])C([H])([H])N([H])C(N([H])[H])=[N+]([H])[H])c([H])c([H])c2C1([H])[H]

$$$$
33:0:0
     RDKit          3D

 82 86  0  0  1  0  0  0  0  0999 V2000
  -28.2030  -25.2140   20.1870 O   0  0  0  0  0  1  0  0  0  0  0  0
  -24.6590  -31.8230   23.1160 C   0  0  0  0  0  0  0  0  0  0  0  0
  -27.2270  -26.5180   20.2190 C   0  0  0  0  0  0  0  0  0  0  0  0
  -23.5030  -30.4040   21.4840 C   0  0  0  0  0  3  0  0  0  0  0  0
  -24.9680  -28.6960   20.1210 C   0  0  0  0  0  0  0  0  0  0  0  0
  -26.0920  -30.4850   21.4080 C   0  0  0  0  0  2  0  0  0  0  0  0
  -26.1660  -29.0180   20.7700 C   0  0  0  0  0  0  0  0  0  0  0  0
  -27.2690  -27.9690   20.7710 C   0  0  0  0  0  3  0  0  0  0  0  0
  -25.9850  -26.4690   19.5130 C   0  0  0  0  0  3  0  0  0  0  0  0
  -24.9320  -27.4500   19.4670 C   0  0  0  0  0  3  0  0  0  0  0  0
  -23.7680  -29.6710   20.1330 C   0  0  0  0  0  2  0  0  0  0  0  0
  -24.7790  -30.9440   22.0540 N   0  0  0  0  0  0  0  0  0  0  0  0
  -23.5550  -32.1300   23.6020 O   0  0  0  0  0  0  0  0  0  0  0  0
  -22.7610  -29.4600   22.4680 C   0  0  0  0  0  0  0  0  0  0  0  0
  -21.4220  -29.3490   22.3610 N   0  0  0  0  0  0  0  0  0  0  0  0
  -23.4040  -28.8170   23.3000 O   0  0  0  0  0  0  0  0  0  0  0  0
  -20.9470  -29.9240   21.6780 H   0  0  0  0  0  0  0  0  0  0  0  0
  -18.0030  -28.1330   22.8590 C   0  0  0  0  0  0  0  0  0  0  0  0
  -20.5950  -28.3830   23.0970 C   0  0  0  0  0  0  0  0  0  0  0  0
  -20.7720  -26.9760   22.4620 C   0  0  0  0  0  3  0  0  0  0  0  0
  -19.5380  -26.4150   21.7220 C   0  0  0  0  0  3  0  0  0  0  0  0
  -18.0990  -26.8440   22.0560 C   0  0  0  0  0  3  0  0  0  0  0  0
  -19.1450  -28.8670   23.2920 C   0  0  0  0  0  0  0  0  0  0  0  0
  -18.9400  -30.1130   23.9270 C   0  0  0  0  0  3  0  0  0  0  0  0
  -17.6430  -30.6230   24.1300 C   0  0  0  0  0  3  0  0  0  0  0  0
  -16.5250  -29.8800   23.7210 C   0  0  0  0  0  3  0  0  0  0  0  0
  -16.7080  -28.6360   23.0960 C   0  0  0  0  0  3  0  0  0  0  0  0
  -25.9010  -32.4970   23.7720 C   0  0  0  0  0  3  0  0  0  0  0  0
  -25.5540  -33.8960   24.1020 N   0  0  0  0  0  0  0  0  0  0  0  0
  -25.8860  -34.9730   23.3740 C   0  0  0  0  0  0  0  0  0  0  0  0
  -26.5670  -34.8910   22.3500 O   0  0  0  0  0  0  0  0  0  0  0  0
  -24.9460  -34.0310   24.8960 H   0  0  0  0  0  0  0  0  0  0  0  0
  -24.1500  -36.7720   23.0460 C   0  0  0  0  0  1  0  0  0  0  0  0
  -25.3900  -36.3550   23.8530 C   0  0  0  0  0  3  0  0  0  0  0  0
  -27.5120  -37.2520   24.7100 C   0  0  0  0  0  1  0  0  0  0  0  0
  -26.4160  -37.4190   23.7590 N   0  0  0  0  0  0  0  0  0  0  0  0
  -26.0000  -38.3340   23.9110 H   0  0  0  0  0  0  0  0  0  0  0  0
  -26.3860  -31.7540   25.0790 C   0  0  1  0  0  0  0  0  0  0  0  0
  -25.2660  -31.5290   26.1240 C   0  0  0  0  0  1  0  0  0  0  0  0
  -26.9880  -30.3730   24.7440 C   0  0  0  0  0  1  0  0  0  0  0  0
  -27.5140  -32.5680   25.7560 C   0  0  0  0  0  1  0  0  0  0  0  0
  -28.2300  -23.3320   20.4390 C   0  0  0  0  0 15  0  0  0  0  0  0
  -28.7870  -21.3790   19.8640 C   0  0  0  0  0 15  0  0  0  0  0  0
  -29.3980  -19.4400   20.4120 C   0  0  0  0  0  1  0  0  0  0  0  0
  -30.1690  -16.0920   20.0360 C   0  0  0  0  0  0  0  0  0  0  0  0
  -30.3590  -13.4710   19.1990 C   0  0  0  0  0  2  0  0  0  0  0  0
  -29.4770  -12.8700   18.0550 C   0  0  0  0  0  2  0  0  0  0  0  0
  -28.1030  -12.4290   18.5740 C   0  0  0  0  0  2  0  0  0  0  0  0
  -27.5630  -13.4490   19.5940 C   0  0  0  0  0  3  0  0  0  0  0  0
  -28.6020  -13.9210   20.6470 C   0  0  0  0  0  2  0  0  0  0  0  0
  -29.6750  -14.6720   19.9180 N   0  0  0  0  0  0  0  0  0  0  0  0
  -31.4150  -15.9560   19.9590 O   0  0  0  0  0  0  0  0  0  0  0  0
  -29.4220  -17.5600   20.0550 N   0  0  0  0  0  0  0  0  0  0  0  0
  -28.4530  -17.3130   19.9040 H   0  0  0  0  0  0  0  0  0  0  0  0
  -25.2310  -13.9310   20.4500 C   0  0  0  0  0  0  0  0  0  0  0  0
  -24.1900  -13.1380   20.8360 C   0  0  0  0  0  0  0  0  0  0  0  0
  -24.6710  -11.7930   20.7770 C   0  0  0  0  0  0  0  0  0  0  0  0
  -26.2760  -13.0750   20.1660 N   0  0  0  0  0  0  0  0  0  0  0  0
  -25.9570  -11.7790   20.4270 N   0  0  0  0  0  0  0  0  0  0  0  0
  -23.9560  -10.5240   20.9740 C   0  0  0  0  0  0  0  0  0  0  0  0
  -24.4050   -9.5560   21.8990 C   0  0  0  0  0  3  0  0  0  0  0  0
  -23.6830   -8.3560   22.0890 C   0  0  0  0  0  3  0  0  0  0  0  0
  -22.4960   -8.1180   21.3550 C   0  0  0  0  0  0  0  0  0  0  0  0
  -22.0660   -9.0740   20.4200 C   0  0  0  0  0  3  0  0  0  0  0  0
  -22.7890  -10.2650   20.2280 C   0  0  0  0  0  3  0  0  0  0  0  0
  -21.7460   -6.9710   21.4550 O   0  0  0  0  0  0  0  0  0  0  0  0
  -21.7090   -6.2310   22.6100 C   0  0  0  0  0  0  0  0  0  0  0  0
  -21.2840   -6.7860   23.8360 C   0  0  0  0  0  3  0  0  0  0  0  0
  -21.1960   -5.9730   24.9840 C   0  0  0  0  0  3  0  0  0  0  0  0
  -21.5230   -4.6050   24.9060 C   0  0  0  0  0  0  0  0  0  0  0  0
  -21.9420   -4.0500   23.6840 C   0  0  0  0  0  3  0  0  0  0  0  0
  -22.0320   -4.8600   22.5390 C   0  0  0  0  0  0  0  0  0  0  0  0
  -22.4140   -4.3150   21.3590 F   0  0  0  0  0  0  0  0  0  0  0  0
  -21.4320   -3.8220   26.0060 F   0  0  0  0  0  0  0  0  0  0  0  0
  -22.7960  -13.6030   21.1400 C   0  0  0  0  0  0  0  0  0  0  0  0
  -22.0920  -12.8960   22.0160 N   0  0  0  0  0  0  0  0  0  0  0  0
  -22.3430  -14.6300   20.6380 O   0  0  0  0  0  0  0  0  0  0  0  0
  -22.4740  -12.0650   22.4440 H   0  0  0  0  0  0  0  0  0  0  0  0
  -21.1580  -13.1890   22.2630 H   0  0  0  0  0  0  0  0  0  0  0  0
  -25.3710  -15.3060   20.2780 N   0  0  0  0  0  0  0  0  0  0  0  0
  -24.5980  -15.9490   20.4140 H   0  0  0  0  0  0  0  0  0  0  0  0
  -26.2020  -15.7550   19.9170 H   0  0  0  0  0  0  0  0  0  0  0  0
  1  3  1  0
  2 13  2  0
  3  8  1  0
  4 12  1  0
  4 14  1  0
  5 11  1  0
  5  7  1  0
  6 12  1  0
  7  8  2  0
  7  6  1  0
  9  3  2  0
 10  9  1  0
 10  5  2  0
 11  4  1  0
 12  2  1  0
 14 16  2  0
 15 14  1  0
 15 19  1  0
 17 15  1  0
 18 27  2  0
 18 23  1  0
 19 23  1  0
 20 19  2  0
 21 22  2  0
 21 20  1  0
 22 18  1  0
 23 24  2  0
 24 25  1  0
 26 25  2  0
 27 26  1  0
 28  2  1  0
 28 29  1  0
 28 38  1  0
 29 32  1  0
 30 34  1  0
 30 29  1  0
 31 30  2  0
 34 33  1  0
 36 34  1  0
 36 37  1  0
 36 35  1  0
 38 41  1  1
 38 39  1  0
 40 38  1  0
 45 53  1  0
 46 51  1  0
 47 48  1  0
 47 46  1  0
 49 48  1  0
 49 58  1  0
 49 50  1  0
 51 45  1  0
 51 50  1  0
 52 45  2  0
 53 44  1  0
 54 53  1  0
 55 56  2  0
 56 75  1  0
 57 56  1  0
 57 60  1  0
 58 59  1  0
 58 55  1  0
 59 57  2  0
 60 61  1  0
 61 62  2  0
 63 66  1  0
 63 62  1  0
 64 63  2  0
 65 64  1  0
 65 60  2  0
 66 67  1  0
 67 68  1  0
 68 69  2  0
 70 69  1  0
 70 74  1  0
 71 70  2  0
 72 67  2  0
 72 71  1  0
 73 72  1  0
 75 76  1  0
 76 79  1  0
 76 78  1  0
 77 75  2  0
 80 81  1  0
 80 55  1  0
 82 80  1  0
M  ISO  4   1 101  42 101  45 100  53 100
M  END
>  <TORSDO>  (34) 
F 18

>  <SCORE>  (34) 
-16.165

>  <name>  (34) 
33

>  <ligand_id>  (34) 
33

>  <original_smiles>  (34) 
[H]c1c([H])c([H])c2c(c1[H])C([H])([H])C([H])([H])C([H])([H])C2([H])N([H])C(=O)C1([H])N(C(=O)C([H])(N([H])C(=O)C([H])(N([H])C([H])([H])[H])C([H])([H])[H])C(C([H])([H])[H])(C([H])([H])[H])C([H])([H])[H])C([H])([H])c2c([H])c(OC([H])([H])C([H])([H])C([H])([H])N([H])C(=O)N3C([H])([H])C([H])([H])C([H])([H])C([H])(n4nc(-c5c([H])c([H])c(Oc6c([H])c([H])c(F)c([H])c6F)c([H])c5[H])c(C(=O)N([H])[H])c4N([H])[H])C3([H])[H])c([H])c([H])c2C1([H])[H]

>  <smiles>  (34) 
[H]c1c([H])c([H])c2c(c1[H])C([H])([H])C([H])([H])C([H])([H])C2([H])N([H])C(=O)C1([H])N(C(=O)C([H])(N([H])C(=O)C([H])(N([H])C([H])([H])[H])C([H])([H])[H])C(C([H])([H])[H])(C([H])([H])[H])C([H])([H])[H])C([H])([H])c2c([H])c(OC([H])([H])C([H])([H])C([H])([H])N([H])C(=O)N3C([H])([H])C([H])([H])C([H])([H])C([H])(n4nc(-c5c([H])c([H])c(Oc6c([H])c([H])c(F)c([H])c6F)c([H])c5[H])c(C(=O)N([H])[H])c4N([H])[H])C3([H])[H])c([H])c([H])c2C1([H])[H]

$$$$
34:0:0
     RDKit          3D

 92 99  0  0  1  0  0  0  0  0999 V2000
  -28.8020  -22.7370   20.6230 C   0  0  0  0  0  3  0  0  0  0  0  0
  -30.1480  -23.0680   21.3000 C   0  0  0  0  0  0  0  0  0  0  0  0
  -30.6700  -22.1570   22.1120 N   0  0  0  0  0  0  0  0  0  0  0  0
  -30.7540  -24.1140   21.0710 O   0  0  0  0  0  0  0  0  0  0  0  0
  -30.1620  -21.2850   22.2440 H   0  0  0  0  0  0  0  0  0  0  0  0
  -31.5570  -22.3050   22.5680 H   0  0  0  0  0  0  0  0  0  0  0  0
  -29.2820  -19.8130   20.5030 C   0  0  0  0  0  0  0  0  0  0  0  0
  -29.0190  -21.1870   19.9800 N   0  0  0  0  0  0  0  0  0  0  0  0
  -29.1580  -19.7080   21.7230 O   0  0  0  0  0  0  0  0  0  0  0  0
  -29.1160  -21.2260   18.9750 H   0  0  0  0  0  0  0  0  0  0  0  0
  -29.4750  -18.3930   18.2460 C   0  0  0  0  0  1  0  0  0  0  0  0
  -29.7990  -18.3060   19.7450 C   0  0  0  0  0  0  0  0  0  0  0  0
  -30.4620  -15.4030   19.9490 C   0  0  0  0  0  0  0  0  0  0  0  0
  -30.3860  -12.9660   19.0410 C   0  0  0  0  0  2  0  0  0  0  0  0
  -29.4070  -12.7980   17.8500 C   0  0  0  0  0  2  0  0  0  0  0  0
  -27.9810  -12.5190   18.3540 C   0  0  0  0  0  2  0  0  0  0  0  0
  -27.5940  -13.4560   19.5250 C   0  0  0  0  0  3  0  0  0  0  0  0
  -28.6950  -13.5750   20.6010 C   0  0  0  0  0  2  0  0  0  0  0  0
  -29.8970  -14.0910   19.9270 N   0  0  0  0  0  0  0  0  0  0  0  0
  -31.6520  -15.4040   19.5980 O   0  0  0  0  0  0  0  0  0  0  0  0
  -29.7110  -16.6740   20.1540 N   0  0  0  0  0  4  0  0  0  0  0  0
  -28.8010  -16.4680   20.5410 H   0  0  0  0  0  0  0  0  0  0  0  0
  -25.2620  -14.0040   20.3940 C   0  0  0  0  0  0  0  0  0  0  0  0
  -24.2190  -13.2230   20.8040 C   0  0  0  0  0  0  0  0  0  0  0  0
  -24.6820  -11.8730   20.7360 C   0  0  0  0  0  0  0  0  0  0  0  0
  -26.2910  -13.1320   20.0910 N   0  0  0  0  0  0  0  0  0  0  0  0
  -25.9580  -11.8430   20.3650 N   0  0  0  0  0  0  0  0  0  0  0  0
  -23.9630  -10.6100   20.9460 C   0  0  0  0  0  0  0  0  0  0  0  0
  -24.4220   -9.6390   21.8630 C   0  0  0  0  0  3  0  0  0  0  0  0
  -23.6980   -8.4430   22.0620 C   0  0  0  0  0  3  0  0  0  0  0  0
  -22.5010   -8.2090   21.3450 C   0  0  0  0  0  0  0  0  0  0  0  0
  -22.0610   -9.1690   20.4160 C   0  0  0  0  0  3  0  0  0  0  0  0
  -22.7850  -10.3560   20.2150 C   0  0  0  0  0  3  0  0  0  0  0  0
  -21.7480   -7.0660   21.4550 O   0  0  0  0  0  0  0  0  0  0  0  0
  -21.7220   -6.3290   22.6120 C   0  0  0  0  0  0  0  0  0  0  0  0
  -21.3090   -6.8860   23.8410 C   0  0  0  0  0  3  0  0  0  0  0  0
  -21.2310   -6.0750   24.9910 C   0  0  0  0  0  3  0  0  0  0  0  0
  -21.5560   -4.7080   24.9120 C   0  0  0  0  0  0  0  0  0  0  0  0
  -21.9610   -4.1490   23.6870 C   0  0  0  0  0  3  0  0  0  0  0  0
  -22.0400   -4.9570   22.5400 C   0  0  0  0  0  0  0  0  0  0  0  0
  -22.4120   -4.4100   21.3570 F   0  0  0  0  0  0  0  0  0  0  0  0
  -21.4730   -3.9260   26.0150 F   0  0  0  0  0  0  0  0  0  0  0  0
  -22.8360  -13.6990   21.1410 C   0  0  0  0  0  0  0  0  0  0  0  0
  -22.1490  -13.0000   22.0360 N   0  0  0  0  0  0  0  0  0  0  0  0
  -22.3770  -14.7270   20.6440 O   0  0  0  0  0  0  0  0  0  0  0  0
  -22.5360  -12.1690   22.4590 H   0  0  0  0  0  0  0  0  0  0  0  0
  -21.2230  -13.3020   22.3060 H   0  0  0  0  0  0  0  0  0  0  0  0
  -25.4160  -15.3770   20.2220 N   0  0  0  0  0  0  0  0  0  0  0  0
  -24.6500  -16.0260   20.3660 H   0  0  0  0  0  0  0  0  0  0  0  0
  -26.2340  -15.8160   19.8190 H   0  0  0  0  0  0  0  0  0  0  0  0
  -28.1990  -24.2960   19.8910 C   0  0  0  0  0  2  0  0  0  0  0  0
  -28.2050  -25.9040   20.3360 O   0  0  0  0  0  0  0  0  0  0  0  0
  -24.6210  -31.8800   23.2440 C   0  0  0  0  0  0  0  0  0  0  0  0
  -27.1880  -26.9970   20.2200 C   0  0  0  0  0  0  0  0  0  0  0  0
  -23.4320  -30.4850   21.6010 C   0  0  0  0  0  3  0  0  0  0  0  0
  -24.8850  -28.8830   20.1730 C   0  0  0  0  0  0  0  0  0  0  0  0
  -25.9980  -30.6950   21.4590 C   0  0  0  0  0  2  0  0  0  0  0  0
  -26.0700  -29.2850   20.8000 C   0  0  0  0  0  0  0  0  0  0  0  0
  -27.2100  -28.3620   20.8030 C   0  0  0  0  0  3  0  0  0  0  0  0
  -25.9770  -26.7530   19.5330 C   0  0  0  0  0  3  0  0  0  0  0  0
  -24.8640  -27.6380   19.5190 C   0  0  0  0  0  3  0  0  0  0  0  0
  -23.6650  -29.8030   20.2230 C   0  0  0  0  0  2  0  0  0  0  0  0
  -24.7060  -31.0480   22.1550 N   0  0  0  0  0  0  0  0  0  0  0  0
  -23.5310  -32.1680   23.7630 O   0  0  0  0  0  0  0  0  0  0  0  0
  -22.7370  -29.4890   22.5650 C   0  0  0  0  0  0  0  0  0  0  0  0
  -21.4080  -29.3190   22.4340 N   0  0  0  0  0  0  0  0  0  0  0  0
  -23.4000  -28.8690   23.3990 O   0  0  0  0  0  0  0  0  0  0  0  0
  -20.9250  -29.8720   21.7400 H   0  0  0  0  0  0  0  0  0  0  0  0
  -18.0320  -28.0780   22.9150 C   0  0  0  0  0  0  0  0  0  0  0  0
  -20.5870  -28.3770   23.2020 C   0  0  0  0  0  3  0  0  0  0  0  0
  -20.7100  -26.9420   22.6390 C   0  0  0  0  0  2  0  0  0  0  0  0
  -19.6220  -26.6000   21.6150 C   0  0  0  0  0  2  0  0  0  0  0  0
  -18.2320  -26.7290   22.2440 C   0  0  0  0  0  2  0  0  0  0  0  0
  -19.1370  -28.8580   23.3500 C   0  0  0  0  0  0  0  0  0  0  0  0
  -18.8940  -30.1170   23.9410 C   0  0  0  0  0  3  0  0  0  0  0  0
  -17.5800  -30.5980   24.0980 C   0  0  0  0  0  3  0  0  0  0  0  0
  -16.4900  -29.8170   23.6770 C   0  0  0  0  0  3  0  0  0  0  0  0
  -16.7170  -28.5580   23.0910 C   0  0  0  0  0  3  0  0  0  0  0  0
  -25.8910  -32.5250   23.8800 C   0  0  0  0  0  3  0  0  0  0  0  0
  -26.3830  -31.7730   25.1770 C   0  0  1  0  0  0  0  0  0  0  0  0
  -25.2730  -31.5560   26.2320 C   0  0  0  0  0  1  0  0  0  0  0  0
  -26.9670  -30.3860   24.8230 C   0  0  0  0  0  1  0  0  0  0  0  0
  -27.5280  -32.5720   25.8440 C   0  0  0  0  0  1  0  0  0  0  0  0
  -25.5740  -33.9290   24.2000 N   0  0  0  0  0  0  0  0  0  0  0  0
  -25.9100  -34.9850   23.4460 C   0  0  0  0  0  0  0  0  0  0  0  0
  -26.5800  -34.8800   22.4150 O   0  0  0  0  0  0  0  0  0  0  0  0
  -24.9800  -34.0850   25.0010 H   0  0  0  0  0  0  0  0  0  0  0  0
  -24.1840  -36.7880   23.1070 C   0  0  0  0  0  1  0  0  0  0  0  0
  -25.4300  -36.3780   23.9070 C   0  0  0  0  0  3  0  0  0  0  0  0
  -27.5710  -37.2650   24.7220 C   0  0  0  0  0  1  0  0  0  0  0  0
  -26.4640  -37.4290   23.7840 N   0  0  0  0  0  0  0  0  0  0  0  0
  -26.0590  -38.3500   23.9300 H   0  0  0  0  0  0  0  0  0  0  0  0
  1 51  1  0
  1  2  1  0
  2  3  1  0
  3  5  1  0
  3  6  1  0
  4  2  2  0
  7  9  2  0
  8  7  1  0
  8  1  1  0
 10  8  1  0
 11 12  1  0
 12 21  2  0
 12  7  1  0
 13 21  1  0
 14 19  1  0
 15 16  1  0
 15 14  1  0
 17 16  1  0
 17 26  1  0
 17 18  1  0
 19 13  1  0
 19 18  1  0
 20 13  2  0
 21 22  1  0
 23 24  2  0
 24 43  1  0
 25 24  1  0
 25 28  1  0
 26 27  1  0
 26 23  1  0
 27 25  2  0
 28 29  1  0
 29 30  2  0
 31 34  1  0
 31 30  1  0
 32 31  2  0
 33 32  1  0
 33 28  2  0
 34 35  1  0
 35 36  1  0
 36 37  2  0
 38 37  1  0
 38 42  1  0
 39 38  2  0
 40 35  2  0
 40 39  1  0
 41 40  1  0
 43 44  1  0
 44 47  1  0
 44 46  1  0
 45 43  2  0
 48 49  1  0
 48 23  1  0
 50 48  1  0
 51 52  1  0
 53 64  2  0
 54 52  1  0
 54 59  1  0
 55 63  1  0
 55 65  1  0
 56 62  1  0
 56 58  1  0
 57 63  1  0
 58 59  2  0
 58 57  1  0
 60 54  2  0
 61 60  1  0
 61 56  2  0
 62 55  1  0
 63 53  1  0
 65 67  2  0
 66 65  1  0
 68 66  1  0
 69 78  2  0
 69 74  1  0
 70 66  1  0
 70 74  1  0
 71 70  1  0
 72 73  1  0
 72 71  1  0
 73 69  1  0
 74 75  2  0
 75 76  1  0
 77 76  2  0
 78 77  1  0
 79 53  1  0
 79 84  1  0
 79 80  1  0
 80 83  1  1
 80 81  1  0
 82 80  1  0
 84 87  1  0
 85 89  1  0
 85 84  1  0
 86 85  2  0
 89 88  1  0
 91 89  1  0
 91 92  1  0
 91 90  1  0
M  ISO  4  13 100  21 100  51 101  52 101
M  END
>  <TORSDO>  (35) 
F 20

>  <SCORE>  (35) 
-15.942

>  <name>  (35) 
34

>  <ligand_id>  (35) 
34

>  <original_smiles>  (35) 
[H]c1c([H])c([H])c2c(c1[H])C([H])([H])C([H])([H])C([H])([H])C2([H])N([H])C(=O)C1([H])N(C(=O)C([H])(N([H])C(=O)C([H])(N([H])C([H])([H])[H])C([H])([H])[H])C(C([H])([H])[H])(C([H])([H])[H])C([H])([H])[H])C([H])([H])c2c([H])c(OC([H])([H])C([H])(C(=O)N([H])[H])N([H])C(=O)C([H])(N([H])C(=O)N3C([H])([H])C([H])([H])C([H])([H])C([H])(n4nc(-c5c([H])c([H])c(Oc6c([H])c([H])c(F)c([H])c6F)c([H])c5[H])c(C(=O)N([H])[H])c4N([H])[H])C3([H])[H])C([H])([H])[H])c([H])c([H])c2C1([H])[H]

>  <smiles>  (35) 
[H]c1c([H])c([H])c2c(c1[H])C([H])([H])C([H])([H])C([H])([H])C2([H])N([H])C(=O)C1([H])N(C(=O)C([H])(N([H])C(=O)C([H])(N([H])C([H])([H])[H])C([H])([H])[H])C(C([H])([H])[H])(C([H])([H])[H])C([H])([H])[H])C([H])([H])c2c([H])c(OC([H])([H])C([H])(C(=O)N([H])[H])N([H])C(=O)C([H])(N([H])C(=O)N3C([H])([H])C([H])([H])C([H])([H])C([H])(n4nc(-c5c([H])c([H])c(Oc6c([H])c([H])c(F)c([H])c6F)c([H])c5[H])c(C(=O)N([H])[H])c4N([H])[H])C3([H])[H])C([H])([H])[H])c([H])c([H])c2C1([H])[H]

$$$$
35:0:0
     RDKit          3D

 99106  0  0  1  0  0  0  0  0999 V2000
  -30.3840  -18.3060   20.7320 C   0  0  0  0  0  0  0  0  0  0  0  0
  -29.8310  -19.5390   20.6540 N   0  0  0  0  0  0  0  0  0  0  0  0
  -31.5160  -18.1190   21.1790 O   0  0  0  0  0  0  0  0  0  0  0  0
  -28.8600  -19.6010   20.3770 H   0  0  0  0  0  0  0  0  0  0  0  0
  -31.3910  -21.0650   19.5150 C   0  0  0  0  0  1  0  0  0  0  0  0
  -30.5210  -20.8440   20.7710 C   0  0  0  0  0  3  0  0  0  0  0  0
  -29.5970  -22.0550   21.1140 C   0  0  0  0  0  0  0  0  0  0  0  0
  -30.0340  -23.2960   20.8010 N   0  0  0  0  0  0  0  0  0  0  0  0
  -28.5200  -21.8680   21.6850 O   0  0  0  0  0  0  0  0  0  0  0  0
  -30.9070  -23.3270   20.2910 H   0  0  0  0  0  0  0  0  0  0  0  0
  -29.5160  -24.6120   21.2460 C   0  0  0  0  0  2  0  0  0  0  0  0
  -28.6390  -25.3830   20.2150 C   0  0  0  0  0  2  0  0  0  0  0  0
  -28.6300  -26.8220   20.4370 O   0  0  0  0  0  0  0  0  0  0  0  0
  -24.5980  -31.9870   23.2640 C   0  0  0  0  0  0  0  0  0  0  0  0
  -27.4410  -27.5370   20.3380 C   0  0  0  0  0  0  0  0  0  0  0  0
  -23.4750  -30.5190   21.6220 C   0  0  0  0  0  3  0  0  0  0  0  0
  -25.0070  -29.0060   20.2530 C   0  0  0  0  0  0  0  0  0  0  0  0
  -25.9960  -30.9410   21.4820 C   0  0  0  0  0  2  0  0  0  0  0  0
  -26.1360  -29.5620   20.8650 C   0  0  0  0  0  0  0  0  0  0  0  0
  -27.3520  -28.8350   20.9040 C   0  0  0  0  0  3  0  0  0  0  0  0
  -26.2950  -27.0180   19.6910 C   0  0  0  0  0  3  0  0  0  0  0  0
  -25.0840  -27.7370   19.6590 C   0  0  0  0  0  3  0  0  0  0  0  0
  -23.7380  -29.8290   20.2570 C   0  0  0  0  0  2  0  0  0  0  0  0
  -24.7050  -31.1670   22.1790 N   0  0  0  0  0  0  0  0  0  0  0  0
  -23.4970  -32.2340   23.7750 O   0  0  0  0  0  0  0  0  0  0  0  0
  -22.8360  -29.4930   22.5870 C   0  0  0  0  0  0  0  0  0  0  0  0
  -21.5190  -29.2730   22.4410 N   0  0  0  0  0  0  0  0  0  0  0  0
  -23.5210  -28.9000   23.4240 O   0  0  0  0  0  0  0  0  0  0  0  0
  -21.0260  -29.8040   21.7360 H   0  0  0  0  0  0  0  0  0  0  0  0
  -18.1640  -28.0160   22.9240 C   0  0  0  0  0  0  0  0  0  0  0  0
  -20.7140  -28.3260   23.2130 C   0  0  0  0  0  3  0  0  0  0  0  0
  -20.8500  -26.8930   22.6490 C   0  0  0  0  0  2  0  0  0  0  0  0
  -19.7620  -26.5420   21.6290 C   0  0  0  0  0  2  0  0  0  0  0  0
  -18.3730  -26.6650   22.2610 C   0  0  0  0  0  2  0  0  0  0  0  0
  -19.2640  -28.8020   23.3580 C   0  0  0  0  0  0  0  0  0  0  0  0
  -19.0180  -30.0660   23.9370 C   0  0  0  0  0  3  0  0  0  0  0  0
  -17.7030  -30.5420   24.0910 C   0  0  0  0  0  3  0  0  0  0  0  0
  -16.6160  -29.7530   23.6760 C   0  0  0  0  0  3  0  0  0  0  0  0
  -16.8480  -28.4930   23.0970 C   0  0  0  0  0  3  0  0  0  0  0  0
  -25.8500  -32.6690   23.9000 C   0  0  0  0  0  3  0  0  0  0  0  0
  -25.4810  -34.0560   24.2160 N   0  0  0  0  0  0  0  0  0  0  0  0
  -25.7790  -35.1150   23.4520 C   0  0  0  0  0  0  0  0  0  0  0  0
  -26.4640  -35.0320   22.4290 O   0  0  0  0  0  0  0  0  0  0  0  0
  -24.8730  -34.1920   25.0100 H   0  0  0  0  0  0  0  0  0  0  0  0
  -23.9850  -36.8360   23.0640 C   0  0  0  0  0  1  0  0  0  0  0  0
  -25.2300  -36.4870   23.8940 C   0  0  0  0  0  3  0  0  0  0  0  0
  -27.3200  -37.4600   24.7410 C   0  0  0  0  0  1  0  0  0  0  0  0
  -26.2210  -37.5800   23.7860 N   0  0  0  0  0  0  0  0  0  0  0  0
  -25.7760  -38.4840   23.9250 H   0  0  0  0  0  0  0  0  0  0  0  0
  -26.3790  -31.9250   25.1860 C   0  0  1  0  0  0  0  0  0  0  0  0
  -25.2780  -31.6200   26.2280 C   0  0  0  0  0  1  0  0  0  0  0  0
  -27.0540  -30.5850   24.8060 C   0  0  0  0  0  1  0  0  0  0  0  0
  -27.4640  -32.7830   25.8780 C   0  0  0  0  0  1  0  0  0  0  0  0
  -29.5830  -17.1190   20.1310 C   0  0  0  0  0  3  0  0  0  0  0  0
  -30.6320  -14.7790   20.0300 C   0  0  0  0  0  0  0  0  0  0  0  0
  -30.2460  -12.7800   18.6360 C   0  0  0  0  0  2  0  0  0  0  0  0
  -29.2350  -13.1830   17.5390 C   0  0  0  0  0  2  0  0  0  0  0  0
  -27.7800  -13.0450   18.0400 C   0  0  0  0  0  2  0  0  0  0  0  0
  -27.5570  -13.6700   19.4430 C   0  0  0  0  0  3  0  0  0  0  0  0
  -28.6740  -13.2390   20.4250 C   0  0  0  0  0  2  0  0  0  0  0  0
  -29.9710  -13.6020   19.8270 N   0  0  0  0  0  0  0  0  0  0  0  0
  -31.7270  -15.0240   19.5180 O   0  0  0  0  0  0  0  0  0  0  0  0
  -29.8770  -15.7390   20.6120 N   0  0  0  0  0  0  0  0  0  0  0  0
  -29.1220  -15.3530   21.1580 H   0  0  0  0  0  0  0  0  0  0  0  0
  -25.1700  -14.2330   20.2160 C   0  0  0  0  0  0  0  0  0  0  0  0
  -24.1330  -13.4430   20.6340 C   0  0  0  0  0  0  0  0  0  0  0  0
  -24.6260  -12.1030   20.6140 C   0  0  0  0  0  0  0  0  0  0  0  0
  -26.2270  -13.3710   19.9670 N   0  0  0  0  0  0  0  0  0  0  0  0
  -25.9060  -12.0870   20.2640 N   0  0  0  0  0  0  0  0  0  0  0  0
  -23.9390  -10.8280   20.8520 C   0  0  0  0  0  0  0  0  0  0  0  0
  -24.4060   -9.9060   21.8140 C   0  0  0  0  0  3  0  0  0  0  0  0
  -23.7180   -8.6940   22.0350 C   0  0  0  0  0  3  0  0  0  0  0  0
  -22.5480   -8.3970   21.2970 C   0  0  0  0  0  0  0  0  0  0  0  0
  -22.0990   -9.3100   20.3250 C   0  0  0  0  0  3  0  0  0  0  0  0
  -22.7890  -10.5120   20.1020 C   0  0  0  0  0  3  0  0  0  0  0  0
  -21.8280   -7.2340   21.4290 O   0  0  0  0  0  0  0  0  0  0  0  0
  -21.7960   -6.5360   22.6100 C   0  0  0  0  0  0  0  0  0  0  0  0
  -21.3840   -7.1370   23.8200 C   0  0  0  0  0  3  0  0  0  0  0  0
  -21.3010   -6.3640   24.9960 C   0  0  0  0  0  3  0  0  0  0  0  0
  -21.6200   -4.9940   24.9630 C   0  0  0  0  0  0  0  0  0  0  0  0
  -22.0260   -4.3940   23.7580 C   0  0  0  0  0  3  0  0  0  0  0  0
  -22.1110   -5.1640   22.5830 C   0  0  0  0  0  0  0  0  0  0  0  0
  -22.4820   -4.5770   21.4210 F   0  0  0  0  0  0  0  0  0  0  0  0
  -21.5330   -4.2490   26.0900 F   0  0  0  0  0  0  0  0  0  0  0  0
  -22.7340  -13.8940   20.9410 C   0  0  0  0  0  0  0  0  0  0  0  0
  -22.0620  -13.2200   21.8700 N   0  0  0  0  0  0  0  0  0  0  0  0
  -22.2430  -14.8790   20.3890 O   0  0  0  0  0  0  0  0  0  0  0  0
  -22.4700  -12.4240   22.3360 H   0  0  0  0  0  0  0  0  0  0  0  0
  -21.1260  -13.5070   22.1150 H   0  0  0  0  0  0  0  0  0  0  0  0
  -25.2960  -15.6030   20.0070 N   0  0  0  0  0  0  0  0  0  0  0  0
  -24.5150  -16.2380   20.1270 H   0  0  0  0  0  0  0  0  0  0  0  0
  -26.1130  -16.0490   19.6130 H   0  0  0  0  0  0  0  0  0  0  0  0
  -29.4320  -17.1790   18.5840 C   0  0  0  0  0  2  0  0  0  0  0  0
  -28.8240  -18.4860   18.0200 C   0  0  0  0  0  2  0  0  0  0  0  0
  -29.0470  -18.6660   16.5130 C   0  0  0  0  0  0  0  0  0  0  0  0
  -28.8970  -19.8880   16.0200 N   0  0  0  0  0  0  0  0  0  0  0  0
  -29.3570  -17.7220   15.7890 O   0  0  0  0  0  0  0  0  0  0  0  0
  -28.6480  -20.6610   16.6200 H   0  0  0  0  0  0  0  0  0  0  0  0
  -29.0210  -20.0560   15.0290 H   0  0  0  0  0  0  0  0  0  0  0  0
  1  3  2  0
  2  1  1  0
  2  6  1  0
  4  2  1  0
  6  5  1  0
  6  7  1  0
  7  9  2  0
  8  7  1  0
  8 11  1  0
 10  8  1  0
 12 13  1  0
 12 11  1  0
 14 25  2  0
 15 13  1  0
 15 20  1  0
 16 24  1  0
 16 26  1  0
 17 23  1  0
 17 19  1  0
 18 24  1  0
 19 20  2  0
 19 18  1  0
 21 15  2  0
 22 21  1  0
 22 17  2  0
 23 16  1  0
 24 14  1  0
 26 28  2  0
 27 26  1  0
 29 27  1  0
 30 39  2  0
 30 35  1  0
 31 27  1  0
 31 35  1  0
 32 31  1  0
 33 34  1  0
 33 32  1  0
 34 30  1  0
 35 36  2  0
 36 37  1  0
 38 37  2  0
 39 38  1  0
 40 14  1  0
 40 41  1  0
 40 50  1  0
 41 44  1  0
 42 46  1  0
 42 41  1  0
 43 42  2  0
 46 45  1  0
 48 46  1  0
 48 49  1  0
 48 47  1  0
 50 53  1  1
 50 51  1  0
 52 50  1  0
 54 93  1  0
 54 63  1  0
 54  1  1  0
 55 63  1  0
 56 61  1  0
 57 58  1  0
 57 56  1  0
 59 58  1  0
 59 68  1  0
 59 60  1  0
 61 55  1  0
 61 60  1  0
 62 55  2  0
 63 64  1  0
 65 66  2  0
 66 85  1  0
 67 66  1  0
 67 70  1  0
 68 65  1  0
 68 69  1  0
 69 67  2  0
 70 71  1  0
 71 72  2  0
 73 76  1  0
 73 72  1  0
 74 73  2  0
 75 74  1  0
 75 70  2  0
 76 77  1  0
 77 78  1  0
 78 79  2  0
 80 79  1  0
 80 84  1  0
 81 80  2  0
 82 77  2  0
 82 81  1  0
 83 82  1  0
 85 86  1  0
 86 89  1  0
 86 88  1  0
 87 85  2  0
 90 91  1  0
 90 65  1  0
 92 90  1  0
 94 93  1  0
 95 94  1  0
 96 95  1  0
 96 98  1  0
 97 95  2  0
 99 96  1  0
M  ISO  4  12 101  13 101  55 100  63 100
M  END
>  <TORSDO>  (36) 
F 24

>  <SCORE>  (36) 
-10.998

>  <name>  (36) 
35

>  <ligand_id>  (36) 
35

>  <original_smiles>  (36) 
[H]c1c([H])c([H])c2c(c1[H])C([H])([H])C([H])([H])C([H])([H])C2([H])N([H])C(=O)C1([H])N(C(=O)C([H])(N([H])C(=O)C([H])(N([H])C([H])([H])[H])C([H])([H])[H])C(C([H])([H])[H])(C([H])([H])[H])C([H])([H])[H])C([H])([H])c2c([H])c(OC([H])([H])C([H])([H])N([H])C(=O)C([H])(N([H])C(=O)C([H])(N([H])C(=O)N3C([H])([H])C([H])([H])C([H])([H])C([H])(n4nc(-c5c([H])c([H])c(Oc6c([H])c([H])c(F)c([H])c6F)c([H])c5[H])c(C(=O)N([H])[H])c4N([H])[H])C3([H])[H])C([H])([H])C([H])([H])C(=O)N([H])[H])C([H])([H])[H])c([H])c([H])c2C1([H])[H]

>  <smiles>  (36) 
[H]c1c([H])c([H])c2c(c1[H])C([H])([H])C([H])([H])C([H])([H])C2([H])N([H])C(=O)C1([H])N(C(=O)C([H])(N([H])C(=O)C([H])(N([H])C([H])([H])[H])C([H])([H])[H])C(C([H])([H])[H])(C([H])([H])[H])C([H])([H])[H])C([H])([H])c2c([H])c(OC([H])([H])C([H])([H])N([H])C(=O)C([H])(N([H])C(=O)C([H])(N([H])C(=O)N3C([H])([H])C([H])([H])C([H])([H])C([H])(n4nc(-c5c([H])c([H])c(Oc6c([H])c([H])c(F)c([H])c6F)c([H])c5[H])c(C(=O)N([H])[H])c4N([H])[H])C3([H])[H])C([H])([H])C([H])([H])C(=O)N([H])[H])C([H])([H])[H])c([H])c([H])c2C1([H])[H]

$$$$
37:0:0
     RDKit          3D

 95102  0  0  1  0  0  0  0  0999 V2000
  -29.2470  -21.9760   20.7030 N   0  0  0  0  0  4  0  0  0  0  0  0
  -29.2430  -22.2820   21.6630 H   0  0  0  0  0  0  0  0  0  0  0  0
  -28.3710  -21.5110   20.5320 H   0  0  0  0  0  0  0  0  0  0  0  0
  -30.3560  -21.0120   20.5180 C   0  0  0  0  0  2  0  0  0  0  0  0
  -30.0840  -19.6830   21.2480 C   0  0  0  0  0  2  0  0  0  0  0  0
  -31.2980  -17.4760   21.2090 C   0  0  0  0  0  0  0  0  0  0  0  0
  -31.2650  -18.8160   21.2460 N   0  0  0  0  0  0  0  0  0  0  0  0
  -32.3580  -16.8830   21.3960 O   0  0  0  0  0  0  0  0  0  0  0  0
  -32.1550  -19.2770   21.3930 H   0  0  0  0  0  0  0  0  0  0  0  0
  -29.9970  -16.7040   20.9520 C   0  0  0  0  0  2  0  0  0  0  0  0
  -30.6420  -14.4120   20.1920 C   0  0  0  0  0  0  0  0  0  0  0  0
  -30.2750  -12.3280   18.9310 C   0  0  0  0  0  2  0  0  0  0  0  0
  -29.2740  -12.6070   17.7910 C   0  0  0  0  0  2  0  0  0  0  0  0
  -27.8180  -12.4730   18.2820 C   0  0  0  0  0  2  0  0  0  0  0  0
  -27.5600  -13.2520   19.5980 C   0  0  0  0  0  3  0  0  0  0  0  0
  -28.6560  -12.9330   20.6420 C   0  0  0  0  0  2  0  0  0  0  0  0
  -29.9730  -13.2400   20.0450 N   0  0  0  0  0  0  0  0  0  0  0  0
  -31.6200  -14.7250   19.5040 O   0  0  0  0  0  0  0  0  0  0  0  0
  -30.0730  -15.2490   21.0680 N   0  0  0  0  0  0  0  0  0  0  0  0
  -29.3810  -14.8260   21.6700 H   0  0  0  0  0  0  0  0  0  0  0  0
  -25.1940  -13.8730   20.4060 C   0  0  0  0  0  0  0  0  0  0  0  0
  -24.1410  -13.1060   20.8240 C   0  0  0  0  0  0  0  0  0  0  0  0
  -24.5940  -11.7520   20.7680 C   0  0  0  0  0  0  0  0  0  0  0  0
  -26.2240  -12.9880   20.1250 N   0  0  0  0  0  0  0  0  0  0  0  0
  -25.8660  -11.7070   20.3980 N   0  0  0  0  0  0  0  0  0  0  0  0
  -23.8750  -10.4900   20.9920 C   0  0  0  0  0  0  0  0  0  0  0  0
  -24.3370   -9.5330   21.9220 C   0  0  0  0  0  3  0  0  0  0  0  0
  -23.6210   -8.3360   22.1340 C   0  0  0  0  0  3  0  0  0  0  0  0
  -22.4280   -8.0870   21.4130 C   0  0  0  0  0  0  0  0  0  0  0  0
  -21.9820   -9.0360   20.4770 C   0  0  0  0  0  3  0  0  0  0  0  0
  -22.6990  -10.2250   20.2640 C   0  0  0  0  0  3  0  0  0  0  0  0
  -21.6790   -6.9420   21.5320 O   0  0  0  0  0  0  0  0  0  0  0  0
  -21.6580   -6.2150   22.6940 C   0  0  0  0  0  0  0  0  0  0  0  0
  -21.2640   -6.7840   23.9240 C   0  0  0  0  0  3  0  0  0  0  0  0
  -21.1890   -5.9830   25.0810 C   0  0  0  0  0  3  0  0  0  0  0  0
  -21.4990   -4.6120   25.0090 C   0  0  0  0  0  0  0  0  0  0  0  0
  -21.8850   -4.0400   23.7840 C   0  0  0  0  0  3  0  0  0  0  0  0
  -21.9620   -4.8390   22.6300 C   0  0  0  0  0  0  0  0  0  0  0  0
  -22.3140   -4.2790   21.4490 F   0  0  0  0  0  0  0  0  0  0  0  0
  -21.4190   -3.8400   26.1180 F   0  0  0  0  0  0  0  0  0  0  0  0
  -22.7590  -13.5870   21.1650 C   0  0  0  0  0  0  0  0  0  0  0  0
  -22.0680  -12.8860   22.0580 N   0  0  0  0  0  0  0  0  0  0  0  0
  -22.3020  -14.6180   20.6740 O   0  0  0  0  0  0  0  0  0  0  0  0
  -22.4520  -12.0510   22.4760 H   0  0  0  0  0  0  0  0  0  0  0  0
  -21.1440  -13.1890   22.3270 H   0  0  0  0  0  0  0  0  0  0  0  0
  -25.3550  -15.2440   20.2270 N   0  0  0  0  0  0  0  0  0  0  0  0
  -24.6030  -15.9050   20.3970 H   0  0  0  0  0  0  0  0  0  0  0  0
  -26.1930  -15.6820   19.8650 H   0  0  0  0  0  0  0  0  0  0  0  0
  -29.3120  -23.1730   19.8350 C   0  0  0  0  0  2  0  0  0  0  0  0
  -28.3990  -24.3190   20.3500 C   0  0  0  0  0  3  0  0  0  0  0  0
  -27.0100  -23.8770   20.4340 N   0  0  0  0  0  0  0  0  0  0  0  0
  -26.7010  -23.4320   19.5750 H   0  0  0  0  0  0  0  0  0  0  0  0
  -26.8510  -23.2050   21.1770 H   0  0  0  0  0  0  0  0  0  0  0  0
  -28.4860  -25.5740   19.4410 C   0  0  0  0  0  2  0  0  0  0  0  0
  -28.2960  -26.7960   20.1640 O   0  0  0  0  0  0  0  0  0  0  0  0
  -24.5010  -31.9300   23.2710 C   0  0  0  0  0  0  0  0  0  0  0  0
  -27.0870  -27.4660   20.1620 C   0  0  0  0  0  0  0  0  0  0  0  0
  -23.2660  -30.5360   21.6410 C   0  0  0  0  0  3  0  0  0  0  0  0
  -24.6920  -28.9780   20.2100 C   0  0  0  0  0  0  0  0  0  0  0  0
  -25.7900  -30.8740   21.4180 C   0  0  0  0  0  2  0  0  0  0  0  0
  -25.8580  -29.4990   20.7830 C   0  0  0  0  0  0  0  0  0  0  0  0
  -27.0510  -28.7450   20.7630 C   0  0  0  0  0  3  0  0  0  0  0  0
  -25.8990  -26.9540   19.5910 C   0  0  0  0  0  3  0  0  0  0  0  0
  -24.7050  -27.7020   19.6170 C   0  0  0  0  0  3  0  0  0  0  0  0
  -23.4590  -29.8500   20.2600 C   0  0  0  0  0  2  0  0  0  0  0  0
  -24.5380  -31.1270   22.1690 N   0  0  0  0  0  0  0  0  0  0  0  0
  -23.4270  -32.2160   23.8180 O   0  0  0  0  0  0  0  0  0  0  0  0
  -22.6130  -29.5240   22.6080 C   0  0  0  0  0  0  0  0  0  0  0  0
  -21.2880  -29.3430   22.4810 N   0  0  0  0  0  0  0  0  0  0  0  0
  -23.2940  -28.9030   23.4290 O   0  0  0  0  0  0  0  0  0  0  0  0
  -20.7990  -29.8990   21.7940 H   0  0  0  0  0  0  0  0  0  0  0  0
  -17.9120  -28.1530   22.9720 C   0  0  0  0  0  0  0  0  0  0  0  0
  -20.4680  -28.4130   23.2570 C   0  0  0  0  0  3  0  0  0  0  0  0
  -20.5730  -26.9750   22.7010 C   0  0  0  0  0  2  0  0  0  0  0  0
  -19.4780  -26.6400   21.6820 C   0  0  0  0  0  2  0  0  0  0  0  0
  -18.0920  -26.7940   22.3150 C   0  0  0  0  0  2  0  0  0  0  0  0
  -19.0280  -28.9200   23.3980 C   0  0  0  0  0  0  0  0  0  0  0  0
  -18.8090  -30.1910   23.9710 C   0  0  0  0  0  3  0  0  0  0  0  0
  -17.5050  -30.6960   24.1230 C   0  0  0  0  0  3  0  0  0  0  0  0
  -16.4010  -29.9280   23.7130 C   0  0  0  0  0  3  0  0  0  0  0  0
  -16.6050  -28.6580   23.1430 C   0  0  0  0  0  3  0  0  0  0  0  0
  -25.7990  -32.5480   23.8770 C   0  0  0  0  0  3  0  0  0  0  0  0
  -25.5110  -33.9510   24.2040 N   0  0  0  0  0  0  0  0  0  0  0  0
  -25.8550  -34.9940   23.4390 C   0  0  0  0  0  0  0  0  0  0  0  0
  -26.5190  -34.8770   22.4050 O   0  0  0  0  0  0  0  0  0  0  0  0
  -24.9270  -34.1170   25.0090 H   0  0  0  0  0  0  0  0  0  0  0  0
  -24.1470  -36.8020   23.0730 C   0  0  0  0  0  1  0  0  0  0  0  0
  -25.3830  -36.3890   23.8890 C   0  0  0  0  0  3  0  0  0  0  0  0
  -27.5280  -37.2440   24.7200 C   0  0  0  0  0  1  0  0  0  0  0  0
  -26.4280  -37.4300   23.7770 N   0  0  0  0  0  0  0  0  0  0  0  0
  -26.0330  -38.3520   23.9350 H   0  0  0  0  0  0  0  0  0  0  0  0
  -26.3220  -31.7750   25.1500 C   0  0  1  0  0  0  0  0  0  0  0  0
  -25.2390  -31.5490   26.2290 C   0  0  0  0  0  1  0  0  0  0  0  0
  -26.8860  -30.3910   24.7500 C   0  0  0  0  0  1  0  0  0  0  0  0
  -27.4870  -32.5570   25.7980 C   0  0  0  0  0  1  0  0  0  0  0  0
  1  2  1  0
  3  1  1  0
  4  1  1  0
  4  5  1  0
  6  7  1  0
  6  8  2  0
  7  5  1  0
  7  9  1  0
 10 19  1  0
 10  6  1  0
 11 19  1  0
 12 17  1  0
 13 14  1  0
 13 12  1  0
 15 14  1  0
 15 24  1  0
 15 16  1  0
 17 11  1  0
 17 16  1  0
 18 11  2  0
 19 20  1  0
 21 22  2  0
 22 41  1  0
 23 22  1  0
 23 26  1  0
 24 25  1  0
 24 21  1  0
 25 23  2  0
 26 27  1  0
 27 28  2  0
 29 32  1  0
 29 28  1  0
 30 29  2  0
 31 30  1  0
 31 26  2  0
 32 33  1  0
 33 34  1  0
 34 35  2  0
 36 35  1  0
 36 40  1  0
 37 36  2  0
 38 33  2  0
 38 37  1  0
 39 38  1  0
 41 42  1  0
 42 45  1  0
 42 44  1  0
 43 41  2  0
 46 47  1  0
 46 21  1  0
 48 46  1  0
 49 50  1  0
 49  1  1  0
 50 54  1  0
 50 51  1  0
 51 53  1  0
 52 51  1  0
 54 55  1  0
 56 67  2  0
 57 55  1  0
 57 62  1  0
 58 66  1  0
 58 68  1  0
 59 65  1  0
 59 61  1  0
 60 66  1  0
 61 60  1  0
 62 61  2  0
 63 64  1  0
 63 57  2  0
 64 59  2  0
 65 58  1  0
 66 56  1  0
 68 70  2  0
 69 68  1  0
 71 69  1  0
 72 81  2  0
 72 77  1  0
 73 69  1  0
 73 77  1  0
 74 73  1  0
 75 76  1  0
 75 74  1  0
 76 72  1  0
 77 78  2  0
 78 79  1  0
 80 79  2  0
 81 80  1  0
 82 56  1  0
 82 83  1  0
 82 92  1  0
 83 86  1  0
 84 88  1  0
 84 83  1  0
 85 84  2  0
 88 87  1  0
 90 88  1  0
 90 91  1  0
 90 89  1  0
 92 95  1  1
 92 93  1  0
 94 92  1  0
M  ISO  4  11 100  19 100  54 101  55 101
M  END
>  <TORSDO>  (37) 
F 24

>  <SCORE>  (37) 
-12.260

>  <name>  (37) 
37

>  <ligand_id>  (37) 
37

>  <original_smiles>  (37) 
[H]c1c([H])c([H])c2c(c1[H])C([H])([H])C([H])([H])C([H])([H])C2([H])N([H])C(=O)C1([H])N(C(=O)C([H])(N([H])C(=O)C([H])(N([H])C([H])([H])[H])C([H])([H])[H])C(C([H])([H])[H])(C([H])([H])[H])C([H])([H])[H])C([H])([H])c2c([H])c(OC([H])([H])C([H])(N([H])[H])C([H])([H])[N+]([H])([H])C([H])([H])C([H])([H])N([H])C(=O)C([H])([H])N([H])C(=O)N3C([H])([H])C([H])([H])C([H])([H])C([H])(n4nc(-c5c([H])c([H])c(Oc6c([H])c([H])c(F)c([H])c6F)c([H])c5[H])c(C(=O)N([H])[H])c4N([H])[H])C3([H])[H])c([H])c([H])c2C1([H])[H]

>  <smiles>  (37) 
[H]c1c([H])c([H])c2c(c1[H])C([H])([H])C([H])([H])C([H])([H])C2([H])N([H])C(=O)C1([H])N(C(=O)C([H])(N([H])C(=O)C([H])(N([H])C([H])([H])[H])C([H])([H])[H])C(C([H])([H])[H])(C([H])([H])[H])C([H])([H])[H])C([H])([H])c2c([H])c(OC([H])([H])C([H])(N([H])[H])C([H])([H])[N+]([H])([H])C([H])([H])C([H])([H])N([H])C(=O)C([H])([H])N([H])C(=O)N3C([H])([H])C([H])([H])C([H])([H])C([H])(n4nc(-c5c([H])c([H])c(Oc6c([H])c([H])c(F)c([H])c6F)c([H])c5[H])c(C(=O)N([H])[H])c4N([H])[H])C3([H])[H])c([H])c([H])c2C1([H])[H]

$$$$
38:0:0
     RDKit          3D

 91 98  0  0  1  0  0  0  0  0999 V2000
  -28.4960  -21.8070   20.2590 C   0  0  0  0  0  0  0  0  0  0  0  0
  -28.5380  -22.9880   20.9140 N   0  0  0  0  0  0  0  0  0  0  0  0
  -28.1330  -21.7180   19.0830 O   0  0  0  0  0  0  0  0  0  0  0  0
  -28.9290  -22.9440   21.8470 H   0  0  0  0  0  0  0  0  0  0  0  0
  -28.8320  -20.5240   21.0750 C   0  0  0  0  0  2  0  0  0  0  0  0
  -29.2490  -18.0670   20.6440 C   0  0  0  0  0  0  0  0  0  0  0  0
  -29.4360  -19.3760   20.3520 N   0  0  0  0  0  0  0  0  0  0  0  0
  -28.4070  -17.6930   21.4640 O   0  0  0  0  0  0  0  0  0  0  0  0
  -30.1100  -19.6100   19.6370 H   0  0  0  0  0  0  0  0  0  0  0  0
  -30.1410  -17.0080   19.9510 C   0  0  0  0  0  2  0  0  0  0  0  0
  -30.6560  -14.5430   20.0410 C   0  0  0  0  0  0  0  0  0  0  0  0
  -30.3410  -12.3650   18.9340 C   0  0  0  0  0  2  0  0  0  0  0  0
  -29.3500  -12.5980   17.7740 C   0  0  0  0  0  2  0  0  0  0  0  0
  -27.8950  -12.4590   18.2670 C   0  0  0  0  0  2  0  0  0  0  0  0
  -27.6190  -13.2600   19.5680 C   0  0  0  0  0  3  0  0  0  0  0  0
  -28.7280  -13.0200   20.6180 C   0  0  0  0  0  2  0  0  0  0  0  0
  -30.0150  -13.3420   19.9860 N   0  0  0  0  0  0  0  0  0  0  0  0
  -31.7900  -14.7070   19.5830 O   0  0  0  0  0  0  0  0  0  0  0  0
  -29.8890  -15.6060   20.3700 N   0  0  0  0  0  0  0  0  0  0  0  0
  -28.9790  -15.4270   20.7710 H   0  0  0  0  0  0  0  0  0  0  0  0
  -25.2580  -13.8510   20.3980 C   0  0  0  0  0  0  0  0  0  0  0  0
  -24.2070  -13.0750   20.8070 C   0  0  0  0  0  0  0  0  0  0  0  0
  -24.6660  -11.7240   20.7350 C   0  0  0  0  0  0  0  0  0  0  0  0
  -26.2900  -12.9740   20.1060 N   0  0  0  0  0  0  0  0  0  0  0  0
  -25.9400  -11.6880   20.3650 N   0  0  0  0  0  0  0  0  0  0  0  0
  -23.9480  -10.4590   20.9420 C   0  0  0  0  0  0  0  0  0  0  0  0
  -24.3990   -9.4970   21.8720 C   0  0  0  0  0  3  0  0  0  0  0  0
  -23.6810   -8.2970   22.0670 C   0  0  0  0  0  3  0  0  0  0  0  0
  -22.4980   -8.0490   21.3290 C   0  0  0  0  0  0  0  0  0  0  0  0
  -22.0670   -9.0000   20.3880 C   0  0  0  0  0  3  0  0  0  0  0  0
  -22.7860  -10.1910   20.1930 C   0  0  0  0  0  3  0  0  0  0  0  0
  -21.7520   -6.9000   21.4320 O   0  0  0  0  0  0  0  0  0  0  0  0
  -21.6910   -6.1840   22.6000 C   0  0  0  0  0  0  0  0  0  0  0  0
  -21.2530   -6.7670   23.8090 C   0  0  0  0  0  3  0  0  0  0  0  0
  -21.1400   -5.9740   24.9700 C   0  0  0  0  0  3  0  0  0  0  0  0
  -21.4540   -4.6040   24.9240 C   0  0  0  0  0  0  0  0  0  0  0  0
  -21.8870   -4.0230   23.7190 C   0  0  0  0  0  3  0  0  0  0  0  0
  -22.0020   -4.8110   22.5610 C   0  0  0  0  0  0  0  0  0  0  0  0
  -22.3980   -4.2410   21.3970 F   0  0  0  0  0  0  0  0  0  0  0  0
  -21.3380   -3.8420   26.0360 F   0  0  0  0  0  0  0  0  0  0  0  0
  -22.8260  -13.5510   21.1500 C   0  0  0  0  0  0  0  0  0  0  0  0
  -22.1380  -12.8460   22.0430 N   0  0  0  0  0  0  0  0  0  0  0  0
  -22.3640  -14.5830   20.6640 O   0  0  0  0  0  0  0  0  0  0  0  0
  -22.5230  -12.0130   22.4610 H   0  0  0  0  0  0  0  0  0  0  0  0
  -21.2130  -13.1480   22.3150 H   0  0  0  0  0  0  0  0  0  0  0  0
  -25.4140  -15.2240   20.2320 N   0  0  0  0  0  0  0  0  0  0  0  0
  -24.6560  -15.8770   20.3890 H   0  0  0  0  0  0  0  0  0  0  0  0
  -26.2530  -15.6700   19.8860 H   0  0  0  0  0  0  0  0  0  0  0  0
  -27.8310  -24.2590   20.6120 C   0  0  0  0  0  2  0  0  0  0  0  0
  -28.5580  -25.3200   19.7270 C   0  0  0  0  0  2  0  0  0  0  0  0
  -28.4480  -26.6950   20.1850 O   0  0  0  0  0  0  0  0  0  0  0  0
  -24.6030  -31.8790   23.2260 C   0  0  0  0  0  0  0  0  0  0  0  0
  -27.2540  -27.4030   20.1490 C   0  0  0  0  0  0  0  0  0  0  0  0
  -23.3970  -30.4710   21.5870 C   0  0  0  0  0  3  0  0  0  0  0  0
  -24.8510  -28.9220   20.1670 C   0  0  0  0  0  0  0  0  0  0  0  0
  -25.9240  -30.8230   21.3880 C   0  0  0  0  0  2  0  0  0  0  0  0
  -26.0090  -29.4460   20.7540 C   0  0  0  0  0  0  0  0  0  0  0  0
  -27.2080  -28.6930   20.7410 C   0  0  0  0  0  3  0  0  0  0  0  0
  -26.0770  -26.9040   19.5490 C   0  0  0  0  0  3  0  0  0  0  0  0
  -24.8810  -27.6510   19.5650 C   0  0  0  0  0  3  0  0  0  0  0  0
  -23.6060  -29.7810   20.2110 C   0  0  0  0  0  2  0  0  0  0  0  0
  -24.6600  -31.0740   22.1250 N   0  0  0  0  0  0  0  0  0  0  0  0
  -23.5190  -32.1530   23.7650 O   0  0  0  0  0  0  0  0  0  0  0  0
  -22.7440  -29.4580   22.5530 C   0  0  0  0  0  0  0  0  0  0  0  0
  -21.4220  -29.2630   22.4170 N   0  0  0  0  0  0  0  0  0  0  0  0
  -23.4250  -28.8460   23.3800 O   0  0  0  0  0  0  0  0  0  0  0  0
  -20.9340  -29.8020   21.7150 H   0  0  0  0  0  0  0  0  0  0  0  0
  -18.0620  -28.0210   22.8780 C   0  0  0  0  0  0  0  0  0  0  0  0
  -20.6090  -28.3250   23.1890 C   0  0  0  0  0  3  0  0  0  0  0  0
  -20.7450  -26.8880   22.6360 C   0  0  0  0  0  2  0  0  0  0  0  0
  -19.6680  -26.5310   21.6080 C   0  0  0  0  0  2  0  0  0  0  0  0
  -18.2720  -26.6650   22.2250 C   0  0  0  0  0  2  0  0  0  0  0  0
  -19.1610  -28.8070   23.3160 C   0  0  0  0  0  0  0  0  0  0  0  0
  -18.9130  -30.0750   23.8850 C   0  0  0  0  0  3  0  0  0  0  0  0
  -17.5990  -30.5580   24.0230 C   0  0  0  0  0  3  0  0  0  0  0  0
  -16.5130  -29.7700   23.6020 C   0  0  0  0  0  3  0  0  0  0  0  0
  -16.7460  -28.5030   23.0350 C   0  0  0  0  0  3  0  0  0  0  0  0
  -25.8870  -32.5140   23.8440 C   0  0  0  0  0  3  0  0  0  0  0  0
  -25.5770  -33.9120   24.1720 N   0  0  0  0  0  0  0  0  0  0  0  0
  -25.9100  -34.9650   23.4130 C   0  0  0  0  0  0  0  0  0  0  0  0
  -26.5820  -34.8610   22.3830 O   0  0  0  0  0  0  0  0  0  0  0  0
  -24.9820  -34.0670   24.9730 H   0  0  0  0  0  0  0  0  0  0  0  0
  -24.1820  -36.7560   23.0520 C   0  0  0  0  0  1  0  0  0  0  0  0
  -25.4200  -36.3530   23.8680 C   0  0  0  0  0  3  0  0  0  0  0  0
  -27.5520  -37.2400   24.7040 C   0  0  0  0  0  1  0  0  0  0  0  0
  -26.4520  -37.4070   23.7570 N   0  0  0  0  0  0  0  0  0  0  0  0
  -26.0440  -38.3260   23.9030 H   0  0  0  0  0  0  0  0  0  0  0  0
  -26.4090  -31.7450   25.1190 C   0  0  1  0  0  0  0  0  0  0  0  0
  -25.3220  -31.5040   26.1930 C   0  0  0  0  0  1  0  0  0  0  0  0
  -26.9940  -30.3690   24.7240 C   0  0  0  0  0  1  0  0  0  0  0  0
  -27.5580  -32.5440   25.7780 C   0  0  0  0  0  1  0  0  0  0  0  0
  1  2  1  0
  1  5  1  0
  2  4  1  0
  3  1  2  0
  6  8  2  0
  7  6  1  0
  7  5  1  0
  9  7  1  0
 10 19  1  0
 10  6  1  0
 11 19  1  0
 12 17  1  0
 13 14  1  0
 13 12  1  0
 15 14  1  0
 15 24  1  0
 15 16  1  0
 17 11  1  0
 17 16  1  0
 18 11  2  0
 19 20  1  0
 21 22  2  0
 22 41  1  0
 23 22  1  0
 23 26  1  0
 24 25  1  0
 24 21  1  0
 25 23  2  0
 26 27  1  0
 27 28  2  0
 29 32  1  0
 29 28  1  0
 30 29  2  0
 31 30  1  0
 31 26  2  0
 32 33  1  0
 33 34  1  0
 34 35  2  0
 36 35  1  0
 36 40  1  0
 37 36  2  0
 38 33  2  0
 38 37  1  0
 39 38  1  0
 41 42  1  0
 42 45  1  0
 42 44  1  0
 43 41  2  0
 46 47  1  0
 46 21  1  0
 48 46  1  0
 49  2  1  0
 50 51  1  0
 50 49  1  0
 52 63  2  0
 53 51  1  0
 53 58  1  0
 54 62  1  0
 54 64  1  0
 55 61  1  0
 55 57  1  0
 56 62  1  0
 57 56  1  0
 58 57  2  0
 59 60  1  0
 59 53  2  0
 60 55  2  0
 61 54  1  0
 62 52  1  0
 64 66  2  0
 65 64  1  0
 67 65  1  0
 68 77  2  0
 68 73  1  0
 69 65  1  0
 69 73  1  0
 70 69  1  0
 71 72  1  0
 71 70  1  0
 72 68  1  0
 73 74  2  0
 74 75  1  0
 76 75  2  0
 77 76  1  0
 78 52  1  0
 78 79  1  0
 78 88  1  0
 79 82  1  0
 80 84  1  0
 80 79  1  0
 81 80  2  0
 84 83  1  0
 86 84  1  0
 86 87  1  0
 86 85  1  0
 88 91  1  1
 88 89  1  0
 90 88  1  0
M  ISO  4  11 100  19 100  50 101  51 101
M  END
>  <TORSDO>  (38) 
F 21

>  <SCORE>  (38) 
-12.796

>  <name>  (38) 
38

>  <ligand_id>  (38) 
38

>  <original_smiles>  (38) 
[H]c1c([H])c([H])c2c(c1[H])C([H])([H])C([H])([H])C([H])([H])C2([H])N([H])C(=O)C1([H])N(C(=O)C([H])(N([H])C(=O)C([H])(N([H])C([H])([H])[H])C([H])([H])[H])C(C([H])([H])[H])(C([H])([H])[H])C([H])([H])[H])C([H])([H])c2c([H])c(OC([H])([H])C([H])([H])N([H])C(=O)C([H])([H])N([H])C(=O)C([H])([H])N([H])C(=O)N3C([H])([H])C([H])([H])C([H])([H])C([H])(n4nc(-c5c([H])c([H])c(Oc6c([H])c([H])c(F)c([H])c6F)c([H])c5[H])c(C(=O)N([H])[H])c4N([H])[H])C3([H])[H])c([H])c([H])c2C1([H])[H]

>  <smiles>  (38) 
[H]c1c([H])c([H])c2c(c1[H])C([H])([H])C([H])([H])C([H])([H])C2([H])N([H])C(=O)C1([H])N(C(=O)C([H])(N([H])C(=O)C([H])(N([H])C([H])([H])[H])C([H])([H])[H])C(C([H])([H])[H])(C([H])([H])[H])C([H])([H])[H])C([H])([H])c2c([H])c(OC([H])([H])C([H])([H])N([H])C(=O)C([H])([H])N([H])C(=O)C([H])([H])N([H])C(=O)N3C([H])([H])C([H])([H])C([H])([H])C([H])(n4nc(-c5c([H])c([H])c(Oc6c([H])c([H])c(F)c([H])c6F)c([H])c5[H])c(C(=O)N([H])[H])c4N([H])[H])C3([H])[H])c([H])c([H])c2C1([H])[H]

$$$$
39:0:0
     RDKit          3D

 92100  0  0  1  0  0  0  0  0999 V2000
  -27.9390  -21.8940   20.7260 C   0  0  0  0  0  2  0  0  0  0  0  0
  -28.5030  -18.0980   20.3010 C   0  0  0  0  0  3  0  0  0  0  0  0
  -30.3620  -19.0050   21.5730 C   0  0  0  0  0  3  0  0  0  0  0  0
  -27.9810  -19.4010   20.1350 C   0  0  0  0  0  3  0  0  0  0  0  0
  -29.8390  -20.3090   21.4100 C   0  0  0  0  0  3  0  0  0  0  0  0
  -29.6800  -17.8830   21.0510 C   0  0  0  0  0  0  0  0  0  0  0  0
  -28.6260  -20.5190   20.7140 C   0  0  0  0  0  0  0  0  0  0  0  0
  -30.1700  -16.4620   21.3430 C   0  0  0  0  0  2  0  0  0  0  0  0
  -31.0560  -14.5510   20.0630 C   0  0  0  0  0  0  0  0  0  0  0  0
  -30.6810  -12.3980   18.9380 C   0  0  0  0  0  2  0  0  0  0  0  0
  -29.7080  -12.6510   17.7690 C   0  0  0  0  0  2  0  0  0  0  0  0
  -28.2430  -12.5570   18.2430 C   0  0  0  0  0  2  0  0  0  0  0  0
  -27.9700  -13.3750   19.5340 C   0  0  0  0  0  3  0  0  0  0  0  0
  -29.0610  -13.1150   20.5980 C   0  0  0  0  0  2  0  0  0  0  0  0
  -30.3650  -13.3850   19.9780 N   0  0  0  0  0  0  0  0  0  0  0  0
  -32.2140  -14.6810   19.6640 O   0  0  0  0  0  0  0  0  0  0  0  0
  -30.2870  -15.6440   20.1430 N   0  0  0  0  0  0  0  0  0  0  0  0
  -30.4810  -16.2510   19.3630 H   0  0  0  0  0  0  0  0  0  0  0  0
  -25.6080  -14.0360   20.3140 C   0  0  0  0  0  0  0  0  0  0  0  0
  -24.5330  -13.2840   20.7100 C   0  0  0  0  0  0  0  0  0  0  0  0
  -24.9640  -11.9230   20.6640 C   0  0  0  0  0  0  0  0  0  0  0  0
  -26.6270  -13.1320   20.0540 N   0  0  0  0  0  0  0  0  0  0  0  0
  -26.2450  -11.8580   20.3220 N   0  0  0  0  0  0  0  0  0  0  0  0
  -24.2170  -10.6750   20.8720 C   0  0  0  0  0  0  0  0  0  0  0  0
  -24.6290   -9.7210   21.8290 C   0  0  0  0  0  3  0  0  0  0  0  0
  -23.8870   -8.5360   22.0260 C   0  0  0  0  0  3  0  0  0  0  0  0
  -22.7170   -8.2970   21.2640 C   0  0  0  0  0  0  0  0  0  0  0  0
  -22.3240   -9.2380   20.2970 C   0  0  0  0  0  3  0  0  0  0  0  0
  -23.0670  -10.4140   20.0990 C   0  0  0  0  0  3  0  0  0  0  0  0
  -21.9490   -7.1630   21.3690 O   0  0  0  0  0  0  0  0  0  0  0  0
  -21.8380   -6.4740   22.5490 C   0  0  0  0  0  0  0  0  0  0  0  0
  -21.3720   -7.0910   23.7310 C   0  0  0  0  0  3  0  0  0  0  0  0
  -21.2050   -6.3280   24.9040 C   0  0  0  0  0  3  0  0  0  0  0  0
  -21.4970   -4.9510   24.8960 C   0  0  0  0  0  0  0  0  0  0  0  0
  -21.9580   -4.3350   23.7190 C   0  0  0  0  0  3  0  0  0  0  0  0
  -22.1260   -5.0940   22.5490 C   0  0  0  0  0  0  0  0  0  0  0  0
  -22.5500   -4.4920   21.4110 F   0  0  0  0  0  0  0  0  0  0  0  0
  -21.3300   -4.2160   26.0200 F   0  0  0  0  0  0  0  0  0  0  0  0
  -23.1520  -13.7880   21.0170 C   0  0  0  0  0  0  0  0  0  0  0  0
  -22.4380  -13.1120   21.9110 N   0  0  0  0  0  0  0  0  0  0  0  0
  -22.7150  -14.8150   20.5010 O   0  0  0  0  0  0  0  0  0  0  0  0
  -22.8050  -12.2800   22.3490 H   0  0  0  0  0  0  0  0  0  0  0  0
  -21.5120  -13.4310   22.1610 H   0  0  0  0  0  0  0  0  0  0  0  0
  -25.7970  -15.4030   20.1300 N   0  0  0  0  0  0  0  0  0  0  0  0
  -25.0570  -16.0870   20.2520 H   0  0  0  0  0  0  0  0  0  0  0  0
  -26.6570  -15.8080   19.7820 H   0  0  0  0  0  0  0  0  0  0  0  0
  -28.5620  -22.9720   19.9180 N   0  0  0  0  0  4  0  0  0  0  0  0
  -28.4370  -22.7490   18.9420 H   0  0  0  0  0  0  0  0  0  0  0  0
  -29.5560  -22.9820   20.0950 H   0  0  0  0  0  0  0  0  0  0  0  0
  -27.9680  -24.3100   20.2340 C   0  0  0  0  0  2  0  0  0  0  0  0
  -28.4670  -25.4940   19.3680 C   0  0  0  0  0  2  0  0  0  0  0  0
  -28.3300  -26.7680   20.0270 O   0  0  0  0  0  0  0  0  0  0  0  0
  -24.5210  -31.8890   23.2090 C   0  0  0  0  0  0  0  0  0  0  0  0
  -27.1290  -27.4560   20.0400 C   0  0  0  0  0  0  0  0  0  0  0  0
  -23.2920  -30.4980   21.5740 C   0  0  0  0  0  3  0  0  0  0  0  0
  -24.7260  -28.9640   20.1190 C   0  0  0  0  0  0  0  0  0  0  0  0
  -25.8150  -30.8470   21.3490 C   0  0  0  0  0  2  0  0  0  0  0  0
  -25.8910  -29.4780   20.7000 C   0  0  0  0  0  0  0  0  0  0  0  0
  -27.0900  -28.7280   20.6650 C   0  0  0  0  0  3  0  0  0  0  0  0
  -25.9420  -26.9580   19.4540 C   0  0  0  0  0  3  0  0  0  0  0  0
  -24.7460  -27.7060   19.4930 C   0  0  0  0  0  3  0  0  0  0  0  0
  -23.4860  -29.8290   20.1860 C   0  0  0  0  0  2  0  0  0  0  0  0
  -24.5610  -31.0940   22.1020 N   0  0  0  0  0  0  0  0  0  0  0  0
  -23.4480  -32.1600   23.7670 O   0  0  0  0  0  0  0  0  0  0  0  0
  -22.6550  -29.4700   22.5360 C   0  0  0  0  0  0  0  0  0  0  0  0
  -21.3330  -29.2660   22.4040 N   0  0  0  0  0  0  0  0  0  0  0  0
  -23.3420  -28.8610   23.3570 O   0  0  0  0  0  0  0  0  0  0  0  0
  -20.8420  -29.7830   21.6870 H   0  0  0  0  0  0  0  0  0  0  0  0
  -17.9680  -28.0630   22.9410 C   0  0  0  0  0  0  0  0  0  0  0  0
  -20.5260  -28.3420   23.1980 C   0  0  0  0  0  3  0  0  0  0  0  0
  -20.6290  -26.8990   22.6550 C   0  0  0  0  0  2  0  0  0  0  0  0
  -19.5370  -26.5770   21.6290 C   0  0  0  0  0  2  0  0  0  0  0  0
  -18.1580  -26.7070   22.2830 C   0  0  0  0  0  2  0  0  0  0  0  0
  -19.0830  -28.8410   23.3540 C   0  0  0  0  0  0  0  0  0  0  0  0
  -18.8570  -30.1100   23.9260 C   0  0  0  0  0  3  0  0  0  0  0  0
  -17.5500  -30.6030   24.0910 C   0  0  0  0  0  3  0  0  0  0  0  0
  -16.4510  -29.8240   23.6990 C   0  0  0  0  0  3  0  0  0  0  0  0
  -16.6610  -28.5540   23.1300 C   0  0  0  0  0  3  0  0  0  0  0  0
  -25.8160  -32.5160   23.8150 C   0  0  0  0  0  3  0  0  0  0  0  0
  -25.5160  -33.9130   24.1530 N   0  0  0  0  0  0  0  0  0  0  0  0
  -25.8470  -34.9670   23.3940 C   0  0  0  0  0  0  0  0  0  0  0  0
  -26.5090  -34.8620   22.3570 O   0  0  0  0  0  0  0  0  0  0  0  0
  -24.9280  -34.0720   24.9590 H   0  0  0  0  0  0  0  0  0  0  0  0
  -24.1240  -36.7680   23.0500 C   0  0  0  0  0  1  0  0  0  0  0  0
  -25.3660  -36.3560   23.8570 C   0  0  0  0  0  3  0  0  0  0  0  0
  -27.5080  -37.2260   24.6850 C   0  0  0  0  0  1  0  0  0  0  0  0
  -26.4020  -37.4050   23.7460 N   0  0  0  0  0  0  0  0  0  0  0  0
  -26.0020  -38.3270   23.8980 H   0  0  0  0  0  0  0  0  0  0  0  0
  -26.3510  -31.7380   25.0780 C   0  0  1  0  0  0  0  0  0  0  0  0
  -25.2740  -31.4920   26.1610 C   0  0  0  0  0  1  0  0  0  0  0  0
  -26.9270  -30.3650   24.6660 C   0  0  0  0  0  1  0  0  0  0  0  0
  -27.5130  -32.5270   25.7260 C   0  0  0  0  0  1  0  0  0  0  0  0
  2  6  1  0
  4  2  2  0
  4  7  1  0
  5  3  1  0
  6  8  1  0
  6  3  2  0
  7  1  1  0
  7  5  2  0
  9 17  1  0
 10 15  1  0
 11 12  1  0
 11 10  1  0
 13 12  1  0
 13 22  1  0
 13 14  1  0
 15  9  1  0
 15 14  1  0
 16  9  2  0
 17  8  1  0
 18 17  1  0
 19 20  2  0
 20 39  1  0
 21 20  1  0
 21 24  1  0
 22 19  1  0
 22 23  1  0
 23 21  2  0
 24 25  1  0
 25 26  2  0
 27 30  1  0
 27 26  1  0
 28 27  2  0
 29 28  1  0
 29 24  2  0
 30 31  1  0
 31 32  1  0
 32 33  2  0
 34 33  1  0
 34 38  1  0
 35 34  2  0
 36 31  2  0
 36 35  1  0
 37 36  1  0
 39 40  1  0
 40 43  1  0
 40 42  1  0
 41 39  2  0
 44 45  1  0
 44 19  1  0
 46 44  1  0
 47 49  1  0
 47 50  1  0
 47  1  1  0
 48 47  1  0
 51 52  1  0
 51 50  1  0
 52 54  1  0
 53 64  2  0
 54 59  1  0
 55 63  1  0
 55 65  1  0
 56 62  1  0
 56 58  1  0
 57 63  1  0
 58 57  1  0
 59 58  2  0
 60 61  1  0
 60 54  2  0
 61 56  2  0
 62 55  1  0
 63 53  1  0
 65 67  2  0
 66 65  1  0
 68 66  1  0
 69 78  2  0
 69 74  1  0
 70 66  1  0
 70 74  1  0
 71 70  1  0
 72 73  1  0
 72 71  1  0
 73 69  1  0
 74 75  2  0
 75 76  1  0
 77 76  2  0
 78 77  1  0
 79 53  1  0
 79 80  1  0
 79 89  1  0
 80 83  1  0
 81 85  1  0
 81 80  1  0
 82 81  2  0
 85 84  1  0
 87 85  1  0
 87 88  1  0
 87 86  1  0
 89 92  1  1
 89 90  1  0
 91 89  1  0
M  ISO  4   9 100  17 100  51 101  52 101
M  END
>  <TORSDO>  (39) 
F 21

>  <SCORE>  (39) 
-13.256

>  <name>  (39) 
39

>  <ligand_id>  (39) 
39

>  <original_smiles>  (39) 
[H]c1c([H])c([H])c2c(c1[H])C([H])([H])C([H])([H])C([H])([H])C2([H])N([H])C(=O)C1([H])N(C(=O)C([H])(N([H])C(=O)C([H])(N([H])C([H])([H])[H])C([H])([H])[H])C(C([H])([H])[H])(C([H])([H])[H])C([H])([H])[H])C([H])([H])c2c([H])c(OC([H])([H])C([H])([H])[N+]([H])([H])C([H])([H])c3c([H])c([H])c(C([H])([H])N([H])C(=O)N4C([H])([H])C([H])([H])C([H])([H])C([H])(n5nc(-c6c([H])c([H])c(Oc7c([H])c([H])c(F)c([H])c7F)c([H])c6[H])c(C(=O)N([H])[H])c5N([H])[H])C4([H])[H])c([H])c3[H])c([H])c([H])c2C1([H])[H]

>  <smiles>  (39) 
[H]c1c([H])c([H])c2c(c1[H])C([H])([H])C([H])([H])C([H])([H])C2([H])N([H])C(=O)C1([H])N(C(=O)C([H])(N([H])C(=O)C([H])(N([H])C([H])([H])[H])C([H])([H])[H])C(C([H])([H])[H])(C([H])([H])[H])C([H])([H])[H])C([H])([H])c2c([H])c(OC([H])([H])C([H])([H])[N+]([H])([H])C([H])([H])c3c([H])c([H])c(C([H])([H])N([H])C(=O)N4C([H])([H])C([H])([H])C([H])([H])C([H])(n5nc(-c6c([H])c([H])c(Oc7c([H])c([H])c(F)c([H])c7F)c([H])c6[H])c(C(=O)N([H])[H])c5N([H])[H])C4([H])[H])c([H])c3[H])c([H])c([H])c2C1([H])[H]

$$$$
40:0:0
     RDKit          3D

 92 99  0  0  1  0  0  0  0  0999 V2000
  -29.9190  -21.8510   20.8100 C   0  0  0  0  0  2  0  0  0  0  0  0
  -29.3150  -24.2910   20.4450 C   0  0  0  0  0  0  0  0  0  0  0  0
  -29.0490  -22.9690   20.4050 N   0  0  0  0  0  0  0  0  0  0  0  0
  -30.3860  -24.7380   20.8630 O   0  0  0  0  0  0  0  0  0  0  0  0
  -28.1350  -22.6820   20.0740 H   0  0  0  0  0  0  0  0  0  0  0  0
  -28.2020  -25.2290   19.9220 C   0  0  0  0  0  2  0  0  0  0  0  0
  -28.3950  -26.6400   20.2150 O   0  0  0  0  0  0  0  0  0  0  0  0
  -24.6080  -31.8890   23.2570 C   0  0  0  0  0  0  0  0  0  0  0  0
  -27.2500  -27.4280   20.1630 C   0  0  0  0  0  0  0  0  0  0  0  0
  -23.4080  -30.4970   21.6070 C   0  0  0  0  0  3  0  0  0  0  0  0
  -24.8640  -28.9760   20.1720 C   0  0  0  0  0  0  0  0  0  0  0  0
  -25.9400  -30.8460   21.4230 C   0  0  0  0  0  2  0  0  0  0  0  0
  -26.0260  -29.4790   20.7700 C   0  0  0  0  0  0  0  0  0  0  0  0
  -27.2210  -28.7130   20.7630 C   0  0  0  0  0  3  0  0  0  0  0  0
  -26.0650  -26.9660   19.5360 C   0  0  0  0  0  3  0  0  0  0  0  0
  -24.8810  -27.7210   19.5500 C   0  0  0  0  0  3  0  0  0  0  0  0
  -23.6210  -29.8350   20.2220 C   0  0  0  0  0  2  0  0  0  0  0  0
  -24.6700  -31.0920   22.1530 N   0  0  0  0  0  0  0  0  0  0  0  0
  -23.5230  -32.1590   23.7930 O   0  0  0  0  0  0  0  0  0  0  0  0
  -22.7540  -29.4670   22.5570 C   0  0  0  0  0  0  0  0  0  0  0  0
  -21.4290  -29.2860   22.4260 N   0  0  0  0  0  0  0  0  0  0  0  0
  -23.4350  -28.8360   23.3690 O   0  0  0  0  0  0  0  0  0  0  0  0
  -20.9400  -29.8480   21.7430 H   0  0  0  0  0  0  0  0  0  0  0  0
  -18.0520  -28.0970   22.9180 C   0  0  0  0  0  0  0  0  0  0  0  0
  -20.6100  -28.3440   23.1900 C   0  0  0  0  0  3  0  0  0  0  0  0
  -20.7080  -26.9180   22.6010 C   0  0  0  0  0  2  0  0  0  0  0  0
  -19.6030  -26.6080   21.5850 C   0  0  0  0  0  2  0  0  0  0  0  0
  -18.2220  -26.7530   22.2320 C   0  0  0  0  0  2  0  0  0  0  0  0
  -19.1730  -28.8510   23.3540 C   0  0  0  0  0  0  0  0  0  0  0  0
  -18.9590  -30.1110   23.9550 C   0  0  0  0  0  3  0  0  0  0  0  0
  -17.6560  -30.6160   24.1250 C   0  0  0  0  0  3  0  0  0  0  0  0
  -16.5490  -29.8580   23.7060 C   0  0  0  0  0  3  0  0  0  0  0  0
  -16.7480  -28.6000   23.1080 C   0  0  0  0  0  3  0  0  0  0  0  0
  -25.8900  -32.5190   23.8820 C   0  0  0  0  0  3  0  0  0  0  0  0
  -26.4030  -31.7440   25.1580 C   0  0  1  0  0  0  0  0  0  0  0  0
  -25.3070  -31.5000   26.2210 C   0  0  0  0  0  1  0  0  0  0  0  0
  -26.9900  -30.3690   24.7630 C   0  0  0  0  0  1  0  0  0  0  0  0
  -27.5510  -32.5380   25.8260 C   0  0  0  0  0  1  0  0  0  0  0  0
  -25.5800  -33.9160   24.2140 N   0  0  0  0  0  0  0  0  0  0  0  0
  -25.8970  -34.9670   23.4470 C   0  0  0  0  0  0  0  0  0  0  0  0
  -26.5540  -34.8630   22.4070 O   0  0  0  0  0  0  0  0  0  0  0  0
  -24.9960  -34.0710   25.0230 H   0  0  0  0  0  0  0  0  0  0  0  0
  -24.1490  -36.7450   23.1180 C   0  0  0  0  0  1  0  0  0  0  0  0
  -25.4090  -36.3550   23.9060 C   0  0  0  0  0  3  0  0  0  0  0  0
  -27.5520  -37.2600   24.6910 C   0  0  0  0  0  1  0  0  0  0  0  0
  -26.4320  -37.4140   23.7660 N   0  0  0  0  0  0  0  0  0  0  0  0
  -26.0210  -38.3320   23.9140 H   0  0  0  0  0  0  0  0  0  0  0  0
  -29.1500  -20.5070   20.8590 C   0  0  0  0  0  0  0  0  0  0  0  0
  -29.8440  -19.3660   21.0320 N   0  0  0  0  0  0  0  0  0  0  0  0
  -27.9210  -20.5060   20.7420 O   0  0  0  0  0  0  0  0  0  0  0  0
  -30.8540  -19.4170   21.0910 H   0  0  0  0  0  0  0  0  0  0  0  0
  -29.2840  -18.0020   21.1230 C   0  0  0  0  0  2  0  0  0  0  0  0
  -30.6980  -14.5410   20.4830 C   0  0  0  0  0  0  0  0  0  0  0  0
  -30.3860  -12.3610   19.3670 C   0  0  0  0  0  2  0  0  0  0  0  0
  -29.4630  -12.5510   18.1470 C   0  0  0  0  0  2  0  0  0  0  0  0
  -27.9850  -12.4190   18.5610 C   0  0  0  0  0  2  0  0  0  0  0  0
  -27.6320  -13.2720   19.8100 C   0  0  0  0  0  3  0  0  0  0  0  0
  -28.6780  -13.0840   20.9340 C   0  0  0  0  0  2  0  0  0  0  0  0
  -30.0050  -13.3720   20.3690 N   0  0  0  0  0  0  0  0  0  0  0  0
  -31.8590  -14.6350   20.0760 O   0  0  0  0  0  0  0  0  0  0  0  0
  -30.3690  -16.9160   20.9380 C   0  0  0  0  0  0  0  0  0  0  0  0
  -29.9710  -15.6200   20.8730 N   0  0  0  0  0  0  0  0  0  0  0  0
  -31.5450  -17.2950   20.8470 O   0  0  0  0  0  0  0  0  0  0  0  0
  -29.0000  -15.4430   21.0640 H   0  0  0  0  0  0  0  0  0  0  0  0
  -25.2290  -13.8840   20.4930 C   0  0  0  0  0  0  0  0  0  0  0  0
  -24.1560  -13.1160   20.8550 C   0  0  0  0  0  0  0  0  0  0  0  0
  -24.6150  -11.7630   20.8380 C   0  0  0  0  0  0  0  0  0  0  0  0
  -26.2750  -13.0000   20.2790 N   0  0  0  0  0  0  0  0  0  0  0  0
  -25.9090  -11.7200   20.5450 N   0  0  0  0  0  0  0  0  0  0  0  0
  -23.8830  -10.5040   21.0250 C   0  0  0  0  0  0  0  0  0  0  0  0
  -24.3010   -9.5410   21.9710 C   0  0  0  0  0  3  0  0  0  0  0  0
  -23.5710   -8.3460   22.1460 C   0  0  0  0  0  3  0  0  0  0  0  0
  -22.4080   -8.1050   21.3750 C   0  0  0  0  0  0  0  0  0  0  0  0
  -22.0110   -9.0550   20.4200 C   0  0  0  0  0  3  0  0  0  0  0  0
  -22.7420  -10.2420   20.2430 C   0  0  0  0  0  3  0  0  0  0  0  0
  -21.6510   -6.9620   21.4600 O   0  0  0  0  0  0  0  0  0  0  0  0
  -21.5780   -6.2300   22.6180 C   0  0  0  0  0  0  0  0  0  0  0  0
  -21.1190   -6.7940   23.8280 C   0  0  0  0  0  3  0  0  0  0  0  0
  -20.9940   -5.9890   24.9780 C   0  0  0  0  0  3  0  0  0  0  0  0
  -21.3190   -4.6200   24.9180 C   0  0  0  0  0  0  0  0  0  0  0  0
  -21.7700   -4.0550   23.7130 C   0  0  0  0  0  3  0  0  0  0  0  0
  -21.8970   -4.8580   22.5650 C   0  0  0  0  0  0  0  0  0  0  0  0
  -22.3130   -4.3040   21.4000 F   0  0  0  0  0  0  0  0  0  0  0  0
  -21.1910   -3.8440   26.0200 F   0  0  0  0  0  0  0  0  0  0  0  0
  -22.7560  -13.5980   21.1070 C   0  0  0  0  0  0  0  0  0  0  0  0
  -22.0170  -12.9100   21.9710 N   0  0  0  0  0  0  0  0  0  0  0  0
  -22.3260  -14.6190   20.5740 O   0  0  0  0  0  0  0  0  0  0  0  0
  -22.3780  -12.0840   22.4250 H   0  0  0  0  0  0  0  0  0  0  0  0
  -21.0780  -13.2150   22.1820 H   0  0  0  0  0  0  0  0  0  0  0  0
  -25.3980  -15.2530   20.3060 N   0  0  0  0  0  0  0  0  0  0  0  0
  -24.6260  -15.9040   20.3910 H   0  0  0  0  0  0  0  0  0  0  0  0
  -26.2360  -15.6830   19.9360 H   0  0  0  0  0  0  0  0  0  0  0  0
  1 48  1  0
  2  4  2  0
  3  2  1  0
  3  1  1  0
  5  3  1  0
  6  7  1  0
  6  2  1  0
  8 19  2  0
  9  7  1  0
  9 14  1  0
 10 18  1  0
 10 20  1  0
 11 17  1  0
 11 13  1  0
 12 18  1  0
 13 12  1  0
 14 13  2  0
 15 16  1  0
 15  9  2  0
 16 11  2  0
 17 10  1  0
 18  8  1  0
 20 22  2  0
 21 20  1  0
 23 21  1  0
 24 33  2  0
 24 29  1  0
 25 21  1  0
 25 29  1  0
 26 25  1  0
 27 28  1  0
 27 26  1  0
 28 24  1  0
 29 30  2  0
 30 31  1  0
 32 31  2  0
 33 32  1  0
 34  8  1  0
 34 39  1  0
 34 35  1  0
 35 38  1  1
 35 36  1  0
 37 35  1  0
 39 42  1  0
 40 44  1  0
 40 39  1  0
 41 40  2  0
 44 43  1  0
 46 44  1  0
 46 47  1  0
 46 45  1  0
 48 49  1  0
 49 51  1  0
 49 52  1  0
 50 48  2  0
 53 62  1  0
 54 59  1  0
 55 56  1  0
 55 54  1  0
 57 56  1  0
 57 68  1  0
 57 58  1  0
 59 53  1  0
 59 58  1  0
 60 53  2  0
 61 52  1  0
 62 61  1  0
 62 64  1  0
 63 61  2  0
 65 66  2  0
 66 85  1  0
 67 66  1  0
 67 70  1  0
 68 65  1  0
 68 69  1  0
 69 67  2  0
 70 71  1  0
 71 72  2  0
 73 76  1  0
 73 72  1  0
 74 73  2  0
 75 74  1  0
 75 70  2  0
 76 77  1  0
 77 78  1  0
 78 79  2  0
 80 79  1  0
 80 84  1  0
 81 80  2  0
 82 77  2  0
 82 81  1  0
 83 82  1  0
 85 86  1  0
 86 89  1  0
 86 88  1  0
 87 85  2  0
 90 91  1  0
 90 65  1  0
 92 90  1  0
M  ISO  4   6 101   7 101  53 100  62 100
M  END
>  <TORSDO>  (40) 
F 20

>  <SCORE>  (40) 
-13.844

>  <name>  (40) 
40

>  <ligand_id>  (40) 
40

>  <original_smiles>  (40) 
[H]c1c([H])c([H])c2c(c1[H])C([H])([H])C([H])([H])C([H])([H])C2([H])N([H])C(=O)C1([H])N(C(=O)C([H])(N([H])C(=O)C([H])(N([H])C([H])([H])[H])C([H])([H])[H])C(C([H])([H])[H])(C([H])([H])[H])C([H])([H])[H])C([H])([H])c2c([H])c(OC([H])([H])C(=O)N([H])C([H])([H])C(=O)N([H])C([H])([H])C(=O)N([H])C(=O)N3C([H])([H])C([H])([H])C([H])([H])C([H])(n4nc(-c5c([H])c([H])c(Oc6c([H])c([H])c(F)c([H])c6F)c([H])c5[H])c(C(=O)N([H])[H])c4N([H])[H])C3([H])[H])c([H])c([H])c2C1([H])[H]

>  <smiles>  (40) 
[H]c1c([H])c([H])c2c(c1[H])C([H])([H])C([H])([H])C([H])([H])C2([H])N([H])C(=O)C1([H])N(C(=O)C([H])(N([H])C(=O)C([H])(N([H])C([H])([H])[H])C([H])([H])[H])C(C([H])([H])[H])(C([H])([H])[H])C([H])([H])[H])C([H])([H])c2c([H])c(OC([H])([H])C(=O)N([H])C([H])([H])C(=O)N([H])C([H])([H])C(=O)N([H])C(=O)N3C([H])([H])C([H])([H])C([H])([H])C([H])(n4nc(-c5c([H])c([H])c(Oc6c([H])c([H])c(F)c([H])c6F)c([H])c5[H])c(C(=O)N([H])[H])c4N([H])[H])C3([H])[H])c([H])c([H])c2C1([H])[H]

$$$$
41:0:0
     RDKit          3D

 92 99  0  0  1  0  0  0  0  0999 V2000
  -27.4110  -22.0570   20.4410 C   0  0  0  0  0  2  0  0  0  0  0  0
  -28.1090  -24.4570   20.1990 C   0  0  0  0  0  0  0  0  0  0  0  0
  -27.9430  -23.2160   19.7150 N   0  0  0  0  0  0  0  0  0  0  0  0
  -27.8750  -24.7430   21.3760 O   0  0  0  0  0  0  0  0  0  0  0  0
  -28.2150  -23.0450   18.7560 H   0  0  0  0  0  0  0  0  0  0  0  0
  -28.5900  -25.5360   19.2010 C   0  0  0  0  0  2  0  0  0  0  0  0
  -28.5380  -26.8630   19.7540 O   0  0  0  0  0  0  0  0  0  0  0  0
  -24.7880  -31.8390   23.1710 C   0  0  0  0  0  0  0  0  0  0  0  0
  -27.3390  -27.5530   19.7990 C   0  0  0  0  0  0  0  0  0  0  0  0
  -23.5280  -30.4990   21.5200 C   0  0  0  0  0  3  0  0  0  0  0  0
  -24.9320  -29.0390   19.9750 C   0  0  0  0  0  0  0  0  0  0  0  0
  -26.0450  -30.8850   21.2430 C   0  0  0  0  0  2  0  0  0  0  0  0
  -26.1100  -29.5460   20.5350 C   0  0  0  0  0  0  0  0  0  0  0  0
  -27.3120  -28.8110   20.4460 C   0  0  0  0  0  3  0  0  0  0  0  0
  -26.1360  -27.0560   19.2410 C   0  0  0  0  0  3  0  0  0  0  0  0
  -24.9410  -27.7910   19.3300 C   0  0  0  0  0  3  0  0  0  0  0  0
  -23.6860  -29.8820   20.1070 C   0  0  0  0  0  2  0  0  0  0  0  0
  -24.8060  -31.0880   22.0350 N   0  0  0  0  0  0  0  0  0  0  0  0
  -23.7270  -32.0780   23.7650 O   0  0  0  0  0  0  0  0  0  0  0  0
  -22.9230  -29.4300   22.4580 C   0  0  0  0  0  0  0  0  0  0  0  0
  -21.6050  -29.2040   22.3350 N   0  0  0  0  0  0  0  0  0  0  0  0
  -23.6350  -28.8070   23.2490 O   0  0  0  0  0  0  0  0  0  0  0  0
  -21.0910  -29.7630   21.6700 H   0  0  0  0  0  0  0  0  0  0  0  0
  -18.2850  -27.8600   22.7900 C   0  0  0  0  0  0  0  0  0  0  0  0
  -20.8260  -28.2200   23.0840 C   0  0  0  0  0  3  0  0  0  0  0  0
  -20.9950  -26.8050   22.4850 C   0  0  0  0  0  2  0  0  0  0  0  0
  -19.9130  -26.4520   21.4580 C   0  0  0  0  0  2  0  0  0  0  0  0
  -18.5230  -26.5290   22.0960 C   0  0  0  0  0  2  0  0  0  0  0  0
  -19.3670  -28.6610   23.2400 C   0  0  0  0  0  0  0  0  0  0  0  0
  -19.0920  -29.9070   23.8450 C   0  0  0  0  0  3  0  0  0  0  0  0
  -17.7670  -30.3500   24.0080 C   0  0  0  0  0  3  0  0  0  0  0  0
  -16.6980  -29.5450   23.5780 C   0  0  0  0  0  3  0  0  0  0  0  0
  -16.9580  -28.3010   22.9750 C   0  0  0  0  0  3  0  0  0  0  0  0
  -26.0930  -32.4520   23.7680 C   0  0  0  0  0  3  0  0  0  0  0  0
  -25.7970  -33.8410   24.1400 N   0  0  0  0  0  0  0  0  0  0  0  0
  -26.1270  -34.9110   23.4040 C   0  0  0  0  0  0  0  0  0  0  0  0
  -26.7840  -34.8310   22.3630 O   0  0  0  0  0  0  0  0  0  0  0  0
  -25.2110  -33.9780   24.9500 H   0  0  0  0  0  0  0  0  0  0  0  0
  -24.4100  -36.7240   23.1070 C   0  0  0  0  0  1  0  0  0  0  0  0
  -25.6520  -36.2890   23.9030 C   0  0  0  0  0  3  0  0  0  0  0  0
  -27.7950  -37.1330   24.7530 C   0  0  0  0  0  1  0  0  0  0  0  0
  -26.6920  -37.3360   23.8160 N   0  0  0  0  0  0  0  0  0  0  0  0
  -26.2940  -38.2550   23.9900 H   0  0  0  0  0  0  0  0  0  0  0  0
  -26.6460  -31.6490   25.0100 C   0  0  1  0  0  0  0  0  0  0  0  0
  -25.5860  -31.3780   26.1010 C   0  0  0  0  0  1  0  0  0  0  0  0
  -27.2220  -30.2850   24.5620 C   0  0  0  0  0  1  0  0  0  0  0  0
  -27.8120  -32.4290   25.6590 C   0  0  0  0  0  1  0  0  0  0  0  0
  -28.4430  -20.9380   20.6740 C   0  0  0  0  0  0  0  0  0  0  0  0
  -27.9470  -19.7260   20.9690 N   0  0  0  0  0  0  0  0  0  0  0  0
  -29.6530  -21.1640   20.5930 O   0  0  0  0  0  0  0  0  0  0  0  0
  -26.9360  -19.6680   21.0090 H   0  0  0  0  0  0  0  0  0  0  0  0
  -28.6600  -18.4990   21.3470 C   0  0  0  0  0  2  0  0  0  0  0  0
  -29.3380  -17.7460   20.1790 C   0  0  0  0  0  2  0  0  0  0  0  0
  -29.7730  -16.3120   20.5700 C   0  0  0  0  0  2  0  0  0  0  0  0
  -31.1800  -14.5240   19.4660 C   0  0  0  0  0  0  0  0  0  0  0  0
  -30.6890  -12.3570   18.4260 C   0  0  0  0  0  2  0  0  0  0  0  0
  -29.6070  -12.5980   17.3520 C   0  0  0  0  0  2  0  0  0  0  0  0
  -28.1960  -12.5120   17.9690 C   0  0  0  0  0  2  0  0  0  0  0  0
  -28.0520  -13.3550   19.2660 C   0  0  0  0  0  3  0  0  0  0  0  0
  -29.2390  -13.1000   20.2260 C   0  0  0  0  0  2  0  0  0  0  0  0
  -30.4730  -13.3640   19.4760 N   0  0  0  0  0  0  0  0  0  0  0  0
  -32.3060  -14.6130   18.9770 O   0  0  0  0  0  0  0  0  0  0  0  0
  -30.4370  -15.6430   19.4470 N   0  0  0  0  0  0  0  0  0  0  0  0
  -30.8410  -16.3120   18.8110 H   0  0  0  0  0  0  0  0  0  0  0  0
  -25.8340  -14.0490   20.3630 C   0  0  0  0  0  0  0  0  0  0  0  0
  -24.7710  -13.3160   20.8180 C   0  0  0  0  0  0  0  0  0  0  0  0
  -25.1170  -11.9460   20.6050 C   0  0  0  0  0  0  0  0  0  0  0  0
  -26.7640  -13.1260   19.9130 N   0  0  0  0  0  0  0  0  0  0  0  0
  -26.3440  -11.8520   20.1120 N   0  0  0  0  0  0  0  0  0  0  0  0
  -24.3290  -10.7200   20.7890 C   0  0  0  0  0  0  0  0  0  0  0  0
  -24.7180   -9.7250   21.7130 C   0  0  0  0  0  3  0  0  0  0  0  0
  -23.9330   -8.5640   21.8850 C   0  0  0  0  0  3  0  0  0  0  0  0
  -22.7460   -8.3920   21.1350 C   0  0  0  0  0  0  0  0  0  0  0  0
  -22.3770   -9.3750   20.2010 C   0  0  0  0  0  3  0  0  0  0  0  0
  -23.1610  -10.5280   20.0260 C   0  0  0  0  0  3  0  0  0  0  0  0
  -21.9380   -7.2860   21.2180 O   0  0  0  0  0  0  0  0  0  0  0  0
  -21.7420   -6.6250   22.4040 C   0  0  0  0  0  0  0  0  0  0  0  0
  -21.2080   -7.2750   23.5380 C   0  0  0  0  0  3  0  0  0  0  0  0
  -20.9580   -6.5430   24.7160 C   0  0  0  0  0  3  0  0  0  0  0  0
  -21.2300   -5.1600   24.7560 C   0  0  0  0  0  0  0  0  0  0  0  0
  -21.7520   -4.5110   23.6250 C   0  0  0  0  0  3  0  0  0  0  0  0
  -22.0040   -5.2420   22.4510 C   0  0  0  0  0  0  0  0  0  0  0  0
  -22.4910   -4.6060   21.3560 F   0  0  0  0  0  0  0  0  0  0  0  0
  -20.9820   -4.4550   25.8850 F   0  0  0  0  0  0  0  0  0  0  0  0
  -23.4680  -13.8530   21.3320 C   0  0  0  0  0  0  0  0  0  0  0  0
  -22.8330  -13.1400   22.2560 N   0  0  0  0  0  0  0  0  0  0  0  0
  -23.0270  -14.9380   20.9520 O   0  0  0  0  0  0  0  0  0  0  0  0
  -23.2040  -12.2590   22.5810 H   0  0  0  0  0  0  0  0  0  0  0  0
  -21.9660  -13.4800   22.6440 H   0  0  0  0  0  0  0  0  0  0  0  0
  -26.0780  -15.4180   20.2720 N   0  0  0  0  0  0  0  0  0  0  0  0
  -25.3770  -16.1090   20.5080 H   0  0  0  0  0  0  0  0  0  0  0  0
  -26.8880  -15.8110   19.8100 H   0  0  0  0  0  0  0  0  0  0  0  0
  1 48  1  0
  2  4  2  0
  3  2  1  0
  3  1  1  0
  5  3  1  0
  6  7  1  0
  6  2  1  0
  7  9  1  0
  8 19  2  0
  9 14  1  0
 10 18  1  0
 10 20  1  0
 11 17  1  0
 11 13  1  0
 12 18  1  0
 13 12  1  0
 14 13  2  0
 15 16  1  0
 15  9  2  0
 16 11  2  0
 17 10  1  0
 18  8  1  0
 20 22  2  0
 21 20  1  0
 23 21  1  0
 24 33  2  0
 24 29  1  0
 25 21  1  0
 25 29  1  0
 26 25  1  0
 27 28  1  0
 27 26  1  0
 28 24  1  0
 29 30  2  0
 30 31  1  0
 32 31  2  0
 33 32  1  0
 34  8  1  0
 34 35  1  0
 34 44  1  0
 35 38  1  0
 36 40  1  0
 36 35  1  0
 37 36  2  0
 40 39  1  0
 42 40  1  0
 42 43  1  0
 42 41  1  0
 44 47  1  1
 44 45  1  0
 46 44  1  0
 48 49  1  0
 49 51  1  0
 49 52  1  0
 50 48  2  0
 53 54  1  0
 53 52  1  0
 55 61  1  0
 56 61  1  0
 57 58  1  0
 57 56  1  0
 59 58  1  0
 59 68  1  0
 59 60  1  0
 61 60  1  0
 62 55  2  0
 63 55  1  0
 63 54  1  0
 64 63  1  0
 65 66  2  0
 66 85  1  0
 67 70  1  0
 67 66  1  0
 68 69  1  0
 68 65  1  0
 69 67  2  0
 70 71  1  0
 71 72  2  0
 73 76  1  0
 73 72  1  0
 74 73  2  0
 75 74  1  0
 75 70  2  0
 76 77  1  0
 77 82  2  0
 77 78  1  0
 78 79  2  0
 79 80  1  0
 80 84  1  0
 81 80  2  0
 82 81  1  0
 83 82  1  0
 85 86  1  0
 86 88  1  0
 86 89  1  0
 87 85  2  0
 90 65  1  0
 90 91  1  0
 92 90  1  0
M  ISO  4   6 101   7 101  55 100  63 100
M  END
>  <TORSDO>  (41) 
F 22

>  <SCORE>  (41) 
-10.816

>  <name>  (41) 
41

>  <ligand_id>  (41) 
41

>  <original_smiles>  (41) 
[H]c1c([H])c([H])c2c(c1[H])C([H])([H])C([H])([H])C([H])([H])C2([H])N([H])C(=O)C1([H])N(C(=O)C([H])(N([H])C(=O)C([H])(N([H])C([H])([H])[H])C([H])([H])[H])C(C([H])([H])[H])(C([H])([H])[H])C([H])([H])[H])C([H])([H])c2c([H])c(OC([H])([H])C(=O)N([H])C([H])([H])C(=O)N([H])C([H])([H])C([H])([H])C([H])([H])N([H])C(=O)N3C([H])([H])C([H])([H])C([H])([H])C([H])(n4nc(-c5c([H])c([H])c(Oc6c([H])c([H])c(F)c([H])c6F)c([H])c5[H])c(C(=O)N([H])[H])c4N([H])[H])C3([H])[H])c([H])c([H])c2C1([H])[H]

>  <smiles>  (41) 
[H]c1c([H])c([H])c2c(c1[H])C([H])([H])C([H])([H])C([H])([H])C2([H])N([H])C(=O)C1([H])N(C(=O)C([H])(N([H])C(=O)C([H])(N([H])C([H])([H])[H])C([H])([H])[H])C(C([H])([H])[H])(C([H])([H])[H])C([H])([H])[H])C([H])([H])c2c([H])c(OC([H])([H])C(=O)N([H])C([H])([H])C(=O)N([H])C([H])([H])C([H])([H])C([H])([H])N([H])C(=O)N3C([H])([H])C([H])([H])C([H])([H])C([H])(n4nc(-c5c([H])c([H])c(Oc6c([H])c([H])c(F)c([H])c6F)c([H])c5[H])c(C(=O)N([H])[H])c4N([H])[H])C3([H])[H])c([H])c([H])c2C1([H])[H]

$$$$
42:0:0
     RDKit          3D

 98102  0  0  1  0  0  0  0  0999 V2000
  -25.7180  -15.8930   21.0100 C   0  0  0  0  0  2  0  0  0  0  0  0
  -25.7050  -14.1780   21.3710 C   0  0  0  0  0  2  0  0  0  0  0  0
  -25.5670  -12.6210   20.4910 C   0  0  0  0  0  3  0  0  0  0  0  0
  -26.4580  -11.5790   19.2830 C   0  0  0  0  0  3  0  0  0  0  0  0
  -27.8990  -11.7460   18.1410 C   0  0  0  0  0  2  0  0  0  0  0  0
  -29.6690  -12.2820   18.2850 C   0  0  0  0  0  2  0  0  0  0  0  0
  -32.2840  -10.9000   19.3120 C   0  0  0  0  0  0  0  0  0  0  0  0
  -31.1090  -11.6150   18.8190 N   0  0  0  0  0  0  0  0  0  0  0  0
  -33.2940  -11.5940   19.1960 O   0  0  0  0  0  0  0  0  0  0  0  0
  -30.6370  -10.7370   18.9930 H   0  0  0  0  0  0  0  0  0  0  0  0
  -32.6760   -9.3170   19.8860 C   0  0  0  0  0  2  0  0  0  0  0  0
  -34.8920   -8.5990   22.1650 C   0  0  2  0  0  0  0  0  0  0  0  0
  -35.7460   -7.8030   21.0880 C   0  0  0  0  0  1  0  0  0  0  0  0
  -35.7740   -9.4950   20.1870 C   0  0  0  0  0  1  0  0  0  0  0  0
  -34.8020  -10.8260   20.9520 C   0  0  0  0  0  2  0  0  0  0  0  0
  -33.7310  -10.6010   22.4290 C   0  0  0  0  0  2  0  0  0  0  0  0
  -33.7860   -8.9280   23.2740 C   0  0  0  0  0  1  0  0  0  0  0  0
  -34.7450   -7.6730   22.5340 N   0  0  0  0  0  1  0  0  0  0  0  0
  -35.9880   -9.2250   22.7810 O   0  0  0  0  0  1  0  0  0  0  0  0
  -33.6060   -8.5630   21.0400 N   0  0  0  0  0  2  0  0  0  0  0  0
  -33.2120   -7.6420   21.1550 H   0  0  0  0  0  0  0  0  0  0  0  0
  -31.9780  -12.1890   21.8750 C   0  0  0  0  0  0  0  0  0  0  0  0
  -30.6380  -12.2400   21.8030 C   0  0  0  0  0  0  0  0  0  0  0  0
  -30.1360  -10.8370   22.2250 C   0  0  0  0  0  3  0  0  0  0  0  0
  -32.3230  -10.9810   22.3120 N   0  0  0  0  0  0  0  0  0  0  0  0
  -31.2220  -10.2330   22.6760 N   0  0  0  0  0  2  0  0  0  0  0  0
  -28.8740   -9.8310   22.0630 C   0  0  0  0  0  0  0  0  0  0  0  0
  -27.9220   -9.5880   23.0790 C   0  0  0  0  0  3  0  0  0  0  0  0
  -26.6270   -9.0370   22.8010 C   0  0  0  0  0  3  0  0  0  0  0  0
  -26.1940   -8.7860   21.4700 C   0  0  0  0  0  0  0  0  0  0  0  0
  -27.1460   -8.8430   20.4890 C   0  0  0  0  0  3  0  0  0  0  0  0
  -28.4580   -9.0790   20.8920 C   0  0  0  0  0  3  0  0  0  0  0  0
  -24.9710   -8.3480   21.0300 O   0  0  0  0  0  0  0  0  0  0  0  0
  -23.9490   -8.1590   21.9030 C   0  0  0  0  0  0  0  0  0  0  0  0
  -23.2990   -9.2650   22.4850 C   0  0  0  0  0  3  0  0  0  0  0  0
  -22.2310   -9.0560   23.3720 C   0  0  0  0  0  3  0  0  0  0  0  0
  -21.8030   -7.7450   23.6550 C   0  0  0  0  0  0  0  0  0  0  0  0
  -22.4340   -6.6450   23.0500 C   0  0  0  0  0  3  0  0  0  0  0  0
  -23.5090   -6.8480   22.1710 C   0  0  0  0  0  0  0  0  0  0  0  0
  -24.1050   -5.7890   21.5720 F   0  0  0  0  0  0  0  0  0  0  0  0
  -20.7680   -7.5500   24.5030 F   0  0  0  0  0  0  0  0  0  0  0  0
  -30.1410  -13.6140   21.1440 C   0  0  0  0  0  0  0  0  0  0  0  0
  -29.0190  -14.3070   21.3370 N   0  0  0  0  0  0  0  0  0  0  0  0
  -30.7930  -14.2080   20.3270 O   0  0  0  0  0  0  0  0  0  0  0  0
  -28.3650  -13.9500   22.0200 H   0  0  0  0  0  0  0  0  0  0  0  0
  -28.8370  -15.1700   20.8480 H   0  0  0  0  0  0  0  0  0  0  0  0
  -32.9570  -13.1240   21.5830 N   0  0  0  0  0  0  0  0  0  0  0  0
  -32.6980  -13.9950   21.1350 H   0  0  0  0  0  0  0  0  0  0  0  0
  -33.9510  -12.9410   21.5610 H   0  0  0  0  0  0  0  0  0  0  0  0
  -26.9610  -16.8470   20.2700 C   0  0  0  0  0  3  0  0  0  0  0  0
  -26.8890  -17.9410   18.9230 C   0  0  0  0  0  3  0  0  0  0  0  0
  -28.1810  -18.7100   18.0570 C   0  0  0  0  0  2  0  0  0  0  0  0
  -29.5110  -21.1460   17.5170 C   0  0  0  0  0  0  0  0  0  0  0  0
  -28.3690  -20.2690   17.6740 N   0  0  0  0  0  0  0  0  0  0  0  0
  -30.6290  -20.6580   17.6900 O   0  0  0  0  0  0  0  0  0  0  0  0
  -27.4940  -20.7390   17.4830 H   0  0  0  0  0  0  0  0  0  0  0  0
  -29.4750  -22.7790   17.1020 C   0  0  0  0  0  2  0  0  0  0  0  0
  -30.3590  -23.9910   17.6830 O   0  0  0  0  0  0  0  0  0  0  0  0
  -25.0100  -27.7400   20.7900 C   0  0  0  0  0  0  0  0  0  0  0  0
  -29.6830  -25.2600   17.7500 C   0  0  0  0  0  0  0  0  0  0  0  0
  -25.2710  -27.7640   18.3450 C   0  0  0  0  0  3  0  0  0  0  0  0
  -27.5930  -27.1910   17.4390 C   0  0  0  0  0  0  0  0  0  0  0  0
  -27.3480  -27.6750   19.8590 C   0  0  0  0  0  2  0  0  0  0  0  0
  -28.0830  -26.9390   18.7290 C   0  0  0  0  0  0  0  0  0  0  0  0
  -29.1430  -25.9720   18.8970 C   0  0  0  0  0  3  0  0  0  0  0  0
  -29.3230  -25.7790   16.4980 C   0  0  0  0  0  3  0  0  0  0  0  0
  -28.2440  -26.6510   16.3300 C   0  0  0  0  0  3  0  0  0  0  0  0
  -26.3540  -28.0460   17.2750 C   0  0  0  0  0  2  0  0  0  0  0  0
  -25.8600  -27.7120   19.7210 N   0  0  0  0  0  0  0  0  0  0  0  0
  -23.7820  -27.8150   20.6390 O   0  0  0  0  0  0  0  0  0  0  0  0
  -24.4840  -26.4800   17.9740 C   0  0  0  0  0  0  0  0  0  0  0  0
  -23.5280  -26.5960   17.0360 N   0  0  0  0  0  0  0  0  0  0  0  0
  -24.7450  -25.4050   18.5210 O   0  0  0  0  0  0  0  0  0  0  0  0
  -23.3590  -27.5120   16.6420 H   0  0  0  0  0  0  0  0  0  0  0  0
  -20.7560  -25.8280   14.8380 C   0  0  0  0  0  0  0  0  0  0  0  0
  -22.6900  -25.5100   16.5240 C   0  0  0  0  0  3  0  0  0  0  0  0
  -23.4100  -24.7370   15.3940 C   0  0  0  0  0  2  0  0  0  0  0  0
  -23.0750  -25.2640   13.9950 C   0  0  0  0  0  2  0  0  0  0  0  0
  -21.5680  -25.1740   13.7320 C   0  0  0  0  0  2  0  0  0  0  0  0
  -21.2880  -26.0000   16.1430 C   0  0  0  0  0  0  0  0  0  0  0  0
  -20.5010  -26.6420   17.1240 C   0  0  0  0  0  3  0  0  0  0  0  0
  -19.2090  -27.1100   16.8190 C   0  0  0  0  0  3  0  0  0  0  0  0
  -18.6830  -26.9270   15.5290 C   0  0  0  0  0  3  0  0  0  0  0  0
  -19.4520  -26.2830   14.5430 C   0  0  0  0  0  3  0  0  0  0  0  0
  -25.5450  -27.7050   22.2520 C   0  0  0  0  0  3  0  0  0  0  0  0
  -24.7540  -28.6660   23.0360 N   0  0  0  0  0  0  0  0  0  0  0  0
  -25.1340  -29.9170   23.3230 C   0  0  0  0  0  0  0  0  0  0  0  0
  -26.2370  -30.3700   23.0060 O   0  0  0  0  0  0  0  0  0  0  0  0
  -23.8140  -28.3850   23.2780 H   0  0  0  0  0  0  0  0  0  0  0  0
  -23.4120  -31.7390   23.0980 C   0  0  0  0  0  1  0  0  0  0  0  0
  -24.1340  -30.8090   24.0860 C   0  0  0  0  0  3  0  0  0  0  0  0
  -25.2040  -30.8130   26.2960 C   0  0  0  0  0  1  0  0  0  0  0  0
  -24.7590  -31.6140   25.1570 N   0  0  0  0  0  0  0  0  0  0  0  0
  -24.1160  -32.3220   25.4990 H   0  0  0  0  0  0  0  0  0  0  0  0
  -25.4760  -26.2680   22.9030 C   0  0  1  0  0  0  0  0  0  0  0  0
  -24.0870  -25.6000   22.7870 C   0  0  0  0  0  1  0  0  0  0  0  0
  -26.5060  -25.3140   22.2580 C   0  0  0  0  0  1  0  0  0  0  0  0
  -25.8390  -26.3570   24.4050 C   0  0  0  0  0  1  0  0  0  0  0  0
  1  2  1  0
  3  2  1  0
  4  3  2  0
  5  6  1  0
  5  4  1  0
  6  8  1  0
  7 11  1  0
  8 10  1  0
  8  7  1  0
  9  7  2  0
 11 20  1  0
 12 18  1  0
 12 19  1  0
 12 17  1  6
 13 12  1  0
 14 15  1  0
 15 16  1  0
 20 21  1  0
 22 25  1  0
 23 22  2  0
 23 24  1  0
 24 27  1  0
 24 26  1  0
 25 16  1  0
 25 26  1  0
 27 28  1  0
 29 28  2  0
 30 29  1  0
 31 32  1  0
 31 30  2  0
 32 27  2  0
 33 30  1  0
 33 34  1  0
 34 39  2  0
 34 35  1  0
 35 36  2  0
 36 37  1  0
 37 41  1  0
 38 37  2  0
 39 38  1  0
 40 39  1  0
 42 43  1  0
 42 23  1  0
 43 45  1  0
 44 42  2  0
 46 43  1  0
 47 22  1  0
 48 47  1  0
 49 47  1  0
 50  1  1  0
 51 50  2  0
 52 51  1  0
 53 54  1  0
 53 55  2  0
 54 52  1  0
 56 54  1  0
 57 53  1  0
 57 58  1  0
 58 60  1  0
 60 65  1  0
 61 71  1  0
 61 69  1  0
 62 64  1  0
 64 65  2  0
 64 63  1  0
 66 60  2  0
 67 66  1  0
 67 62  2  0
 68 62  1  0
 68 61  1  0
 69 63  1  0
 69 59  1  0
 70 59  2  0
 71 73  2  0
 72 71  1  0
 74 72  1  0
 75 80  1  0
 76 72  1  0
 77 76  1  0
 78 77  1  0
 79 78  1  0
 79 75  1  0
 80 76  1  0
 80 81  2  0
 82 81  1  0
 83 82  2  0
 84 75  2  0
 84 83  1  0
 85 59  1  0
 85 95  1  0
 85 86  1  0
 86 89  1  0
 86 87  1  0
 87 91  1  0
 88 87  2  0
 91 90  1  0
 91 93  1  0
 93 94  1  0
 93 92  1  0
 95 98  1  1
 96 95  1  0
 97 95  1  0
M  ISO  4  12 100  20 100  57 101  58 101
M  END
>  <TORSDO>  (42) 
F 28

>  <SCORE>  (42) 
-7.748

>  <name>  (42) 
42

>  <ligand_id>  (42) 
42

>  <original_smiles>  (42) 
[H]c1c([H])c([H])c2c(c1[H])C([H])([H])C([H])([H])C([H])([H])C2([H])N([H])C(=O)C1([H])N(C(=O)C([H])(N([H])C(=O)C([H])(N([H])C([H])([H])[H])C([H])([H])[H])C(C([H])([H])[H])(C([H])([H])[H])C([H])([H])[H])C([H])([H])c2c([H])c(OC([H])([H])C(=O)N([H])C([H])([H])C([H])([H])C([H])([H])C([H])([H])C([H])([H])C([H])([H])C([H])([H])C([H])([H])C([H])([H])N([H])C(=O)C([H])([H])N([H])C(=O)N3C([H])([H])C([H])([H])C([H])([H])C([H])(n4nc(-c5c([H])c([H])c(Oc6c([H])c([H])c(F)c([H])c6F)c([H])c5[H])c(C(=O)N([H])[H])c4N([H])[H])C3([H])[H])c([H])c([H])c2C1([H])[H]

>  <smiles>  (42) 
[H]c1c([H])c([H])c2c(c1[H])C([H])([H])C([H])([H])C([H])([H])C2([H])N([H])C(=O)C1([H])N(C(=O)C([H])(N([H])C(=O)C([H])(N([H])C([H])([H])[H])C([H])([H])[H])C(C([H])([H])[H])(C([H])([H])[H])C([H])([H])[H])C([H])([H])c2c([H])c(OC([H])([H])C(=O)N([H])C([H])([H])C([H])([H])C([H])([H])C([H])([H])C([H])([H])C([H])([H])C([H])([H])C([H])([H])C([H])([H])N([H])C(=O)C([H])([H])N([H])C(=O)N3C([H])([H])C([H])([H])C([H])([H])C([H])(n4nc(-c5c([H])c([H])c(Oc6c([H])c([H])c(F)c([H])c6F)c([H])c5[H])c(C(=O)N([H])[H])c4N([H])[H])C3([H])[H])c([H])c([H])c2C1([H])[H]

$$$$
43:0:0
     RDKit          3D

 97105  0  0  1  0  0  0  0  0999 V2000
  -30.1110  -22.5390   21.1440 C   0  0  0  0  0  0  0  0  0  0  0  0
  -30.7020  -21.3400   21.1390 N   0  0  0  0  0  0  0  0  0  0  0  0
  -28.9790  -22.7160   21.6070 O   0  0  0  0  0  0  0  0  0  0  0  0
  -31.6280  -21.2840   20.7370 H   0  0  0  0  0  0  0  0  0  0  0  0
  -32.3220  -23.8520   21.1460 C   0  0  0  0  0  1  0  0  0  0  0  0
  -30.9090  -23.7130   20.5490 C   0  0  0  0  0  3  0  0  0  0  0  0
  -30.3070  -26.1340   20.1900 C   0  0  0  0  0  0  0  0  0  0  0  0
  -30.1410  -24.9350   20.7580 N   0  0  0  0  0  0  0  0  0  0  0  0
  -31.2060  -26.3840   19.3840 O   0  0  0  0  0  0  0  0  0  0  0  0
  -29.3080  -24.8040   21.3210 H   0  0  0  0  0  0  0  0  0  0  0  0
  -29.2800  -27.1920   20.5950 C   0  0  0  0  0  2  0  0  0  0  0  0
  -28.0230  -26.7480   20.1090 O   0  0  0  0  0  0  0  0  0  0  0  0
  -24.4730  -32.0510   23.3650 C   0  0  0  0  0  0  0  0  0  0  0  0
  -26.9240  -27.5630   20.2250 C   0  0  0  0  0  0  0  0  0  0  0  0
  -23.1740  -30.6540   21.7890 C   0  0  0  0  0  3  0  0  0  0  0  0
  -24.5430  -29.0770   20.3270 C   0  0  0  0  0  0  0  0  0  0  0  0
  -25.6910  -30.9730   21.4830 C   0  0  0  0  0  2  0  0  0  0  0  0
  -25.7290  -29.5950   20.8620 C   0  0  0  0  0  0  0  0  0  0  0  0
  -26.9240  -28.8470   20.8160 C   0  0  0  0  0  3  0  0  0  0  0  0
  -25.7210  -27.0480   19.7000 C   0  0  0  0  0  3  0  0  0  0  0  0
  -24.5310  -27.7980   19.7470 C   0  0  0  0  0  3  0  0  0  0  0  0
  -23.3150  -29.9540   20.4100 C   0  0  0  0  0  2  0  0  0  0  0  0
  -24.4660  -31.2400   22.2700 N   0  0  0  0  0  0  0  0  0  0  0  0
  -23.4210  -32.3500   23.9470 O   0  0  0  0  0  0  0  0  0  0  0  0
  -22.5470  -29.6540   22.7850 C   0  0  0  0  0  0  0  0  0  0  0  0
  -21.2280  -29.4370   22.6630 N   0  0  0  0  0  0  0  0  0  0  0  0
  -23.2430  -29.0740   23.6230 O   0  0  0  0  0  0  0  0  0  0  0  0
  -20.7290  -29.9600   21.9580 H   0  0  0  0  0  0  0  0  0  0  0  0
  -17.8950  -28.1300   23.1260 C   0  0  0  0  0  0  0  0  0  0  0  0
  -20.4290  -28.5110   23.4630 C   0  0  0  0  0  3  0  0  0  0  0  0
  -20.6100  -27.0550   22.9770 C   0  0  0  0  0  2  0  0  0  0  0  0
  -19.5570  -26.6260   21.9520 C   0  0  0  0  0  2  0  0  0  0  0  0
  -18.1490  -26.7510   22.5410 C   0  0  0  0  0  2  0  0  0  0  0  0
  -18.9670  -28.9630   23.5430 C   0  0  0  0  0  0  0  0  0  0  0  0
  -18.6770  -30.2510   24.0450 C   0  0  0  0  0  3  0  0  0  0  0  0
  -17.3480  -30.7040   24.1400 C   0  0  0  0  0  3  0  0  0  0  0  0
  -16.2900  -29.8680   23.7430 C   0  0  0  0  0  3  0  0  0  0  0  0
  -16.5650  -28.5840   23.2400 C   0  0  0  0  0  3  0  0  0  0  0  0
  -25.7960  -32.6610   23.9260 C   0  0  0  0  0  3  0  0  0  0  0  0
  -26.3360  -31.9080   25.2030 C   0  0  1  0  0  0  0  0  0  0  0  0
  -25.2700  -31.7160   26.3070 C   0  0  0  0  0  1  0  0  0  0  0  0
  -26.8800  -30.5100   24.8230 C   0  0  0  0  0  1  0  0  0  0  0  0
  -27.5210  -32.6920   25.8150 C   0  0  0  0  0  1  0  0  0  0  0  0
  -25.5410  -34.0750   24.2240 N   0  0  0  0  0  0  0  0  0  0  0  0
  -25.9070  -35.0950   23.4370 C   0  0  0  0  0  0  0  0  0  0  0  0
  -26.5690  -34.9420   22.4070 O   0  0  0  0  0  0  0  0  0  0  0  0
  -24.9550  -34.2720   25.0220 H   0  0  0  0  0  0  0  0  0  0  0  0
  -24.2520  -36.9410   23.0260 C   0  0  0  0  0  1  0  0  0  0  0  0
  -25.4680  -36.5090   23.8590 C   0  0  0  0  0  3  0  0  0  0  0  0
  -27.6260  -37.3310   24.6950 C   0  0  0  0  0  1  0  0  0  0  0  0
  -26.5420  -37.5200   23.7370 N   0  0  0  0  0  0  0  0  0  0  0  0
  -26.1690  -38.4570   23.8600 H   0  0  0  0  0  0  0  0  0  0  0  0
  -30.0860  -20.0750   21.5450 C   0  0  0  0  0  2  0  0  0  0  0  0
  -31.0070  -14.3460   19.9150 C   0  0  0  0  0  0  0  0  0  0  0  0
  -30.6350  -12.1730   18.8340 C   0  0  0  0  0  2  0  0  0  0  0  0
  -29.6360  -12.3730   17.6760 C   0  0  0  0  0  2  0  0  0  0  0  0
  -28.1880  -12.2490   18.1900 C   0  0  0  0  0  2  0  0  0  0  0  0
  -27.9190  -13.1320   19.4390 C   0  0  0  0  0  3  0  0  0  0  0  0
  -29.0200  -12.9300   20.5060 C   0  0  0  0  0  2  0  0  0  0  0  0
  -30.3210  -13.1760   19.8600 N   0  0  0  0  0  0  0  0  0  0  0  0
  -32.1470  -14.4880   19.4570 O   0  0  0  0  0  0  0  0  0  0  0  0
  -29.4610  -19.3370   20.3500 C   0  0  0  0  0  0  0  0  0  0  0  0
  -28.7540  -17.2270   19.2960 C   0  0  0  0  0  2  0  0  0  0  0  0
  -29.2480  -17.1770   21.6500 C   0  0  0  0  0  2  0  0  0  0  0  0
  -29.9380  -16.2910   19.0000 C   0  0  0  0  0  2  0  0  0  0  0  0
  -30.4020  -16.1720   21.4180 C   0  0  0  0  0  2  0  0  0  0  0  0
  -29.1140  -18.0320   20.4620 N   0  0  0  0  0  0  0  0  0  0  0  0
  -30.2350  -15.4270   20.1580 N   0  0  0  0  0  0  0  0  0  0  0  0
  -29.3090  -19.9550   19.2890 O   0  0  0  0  0  0  0  0  0  0  0  0
  -25.5630  -13.8020   20.2300 C   0  0  0  0  0  0  0  0  0  0  0  0
  -24.5010  -13.0570   20.6620 C   0  0  0  0  0  0  0  0  0  0  0  0
  -24.9420  -11.7010   20.6530 C   0  0  0  0  0  0  0  0  0  0  0  0
  -26.5860  -12.8990   19.9840 N   0  0  0  0  0  0  0  0  0  0  0  0
  -26.2170  -11.6330   20.2950 N   0  0  0  0  0  0  0  0  0  0  0  0
  -24.2080  -10.4570   20.9150 C   0  0  0  0  0  0  0  0  0  0  0  0
  -24.6110   -9.5640   21.9310 C   0  0  0  0  0  3  0  0  0  0  0  0
  -23.8790   -8.3830   22.1760 C   0  0  0  0  0  3  0  0  0  0  0  0
  -22.7330   -8.0850   21.4010 C   0  0  0  0  0  0  0  0  0  0  0  0
  -22.3490   -8.9690   20.3750 C   0  0  0  0  0  3  0  0  0  0  0  0
  -23.0820  -10.1410   20.1300 C   0  0  0  0  0  3  0  0  0  0  0  0
  -21.9790   -6.9470   21.5480 O   0  0  0  0  0  0  0  0  0  0  0  0
  -21.8180   -6.3420   22.7670 C   0  0  0  0  0  0  0  0  0  0  0  0
  -21.2670   -7.0290   23.8700 C   0  0  0  0  0  3  0  0  0  0  0  0
  -21.0500   -6.3470   25.0840 C   0  0  0  0  0  3  0  0  0  0  0  0
  -21.3800   -4.9830   25.1980 C   0  0  0  0  0  0  0  0  0  0  0  0
  -21.9270   -4.2990   24.0990 C   0  0  0  0  0  3  0  0  0  0  0  0
  -22.1420   -4.9760   22.8860 C   0  0  0  0  0  0  0  0  0  0  0  0
  -22.6490   -4.3040   21.8240 F   0  0  0  0  0  0  0  0  0  0  0  0
  -21.1660   -4.3300   26.3650 F   0  0  0  0  0  0  0  0  0  0  0  0
  -23.1240  -13.5670   20.9790 C   0  0  0  0  0  0  0  0  0  0  0  0
  -22.4320  -12.9240   21.9110 N   0  0  0  0  0  0  0  0  0  0  0  0
  -22.6740  -14.5720   20.4310 O   0  0  0  0  0  0  0  0  0  0  0  0
  -22.8060  -12.1040   22.3650 H   0  0  0  0  0  0  0  0  0  0  0  0
  -21.5130  -13.2570   22.1670 H   0  0  0  0  0  0  0  0  0  0  0  0
  -25.7350  -15.1630   20.0140 N   0  0  0  0  0  0  0  0  0  0  0  0
  -24.9980  -15.8420   20.1720 H   0  0  0  0  0  0  0  0  0  0  0  0
  -26.6000  -15.5820   19.6990 H   0  0  0  0  0  0  0  0  0  0  0  0
  1  3  2  0
  2  1  1  0
  2 53  1  0
  4  2  1  0
  6  8  1  0
  6  1  1  0
  6  5  1  0
  7 11  1  0
  7  8  1  0
  8 10  1  0
  9  7  2  0
 12 14  1  0
 12 11  1  0
 13 24  2  0
 14 19  1  0
 15 23  1  0
 15 25  1  0
 16 22  1  0
 16 18  1  0
 17 23  1  0
 18 17  1  0
 19 18  2  0
 20 21  1  0
 20 14  2  0
 21 16  2  0
 22 15  1  0
 23 13  1  0
 25 27  2  0
 26 25  1  0
 28 26  1  0
 29 38  2  0
 29 34  1  0
 30 26  1  0
 30 34  1  0
 31 30  1  0
 32 33  1  0
 32 31  1  0
 33 29  1  0
 34 35  2  0
 35 36  1  0
 37 36  2  0
 38 37  1  0
 39 13  1  0
 39 44  1  0
 39 40  1  0
 40 43  1  1
 40 41  1  0
 42 40  1  0
 44 47  1  0
 45 49  1  0
 45 44  1  0
 46 45  2  0
 49 48  1  0
 51 49  1  0
 51 52  1  0
 51 50  1  0
 54 68  1  0
 55 60  1  0
 56 57  1  0
 56 55  1  0
 58 57  1  0
 58 73  1  0
 58 59  1  0
 60 54  1  0
 60 59  1  0
 61 54  2  0
 62 67  1  0
 62 53  1  0
 63 67  1  0
 65 63  1  0
 65 68  1  0
 66 64  1  0
 67 64  1  0
 68 66  1  0
 69 62  2  0
 70 71  2  0
 71 90  1  0
 72 71  1  0
 72 75  1  0
 73 70  1  0
 73 74  1  0
 74 72  2  0
 75 76  1  0
 76 77  2  0
 78 81  1  0
 78 77  1  0
 79 78  2  0
 80 79  1  0
 80 75  2  0
 81 82  1  0
 82 87  2  0
 82 83  1  0
 83 84  2  0
 84 85  1  0
 85 89  1  0
 86 85  2  0
 87 86  1  0
 88 87  1  0
 90 91  1  0
 91 94  1  0
 91 93  1  0
 92 90  2  0
 95 96  1  0
 95 70  1  0
 97 95  1  0
M  ISO  4  11 101  12 101  54 100  68 100
M  END
>  <TORSDO>  (43) 
F 20

>  <SCORE>  (43) 
-11.875

>  <name>  (43) 
43

>  <ligand_id>  (43) 
43

>  <original_smiles>  (43) 
[H]c1c([H])c([H])c2c(c1[H])C([H])([H])C([H])([H])C([H])([H])C2([H])N([H])C(=O)C1([H])N(C(=O)C([H])(N([H])C(=O)C([H])(N([H])C([H])([H])[H])C([H])([H])[H])C(C([H])([H])[H])(C([H])([H])[H])C([H])([H])[H])C([H])([H])c2c([H])c(OC([H])([H])C(=O)N([H])C([H])(C(=O)N([H])C([H])([H])C(=O)N3C([H])([H])C([H])([H])N(C(=O)N4C([H])([H])C([H])([H])C([H])([H])C([H])(n5nc(-c6c([H])c([H])c(Oc7c([H])c([H])c(F)c([H])c7F)c([H])c6[H])c(C(=O)N([H])[H])c5N([H])[H])C4([H])[H])C([H])([H])C3([H])[H])C([H])([H])[H])c([H])c([H])c2C1([H])[H]

>  <smiles>  (43) 
[H]c1c([H])c([H])c2c(c1[H])C([H])([H])C([H])([H])C([H])([H])C2([H])N([H])C(=O)C1([H])N(C(=O)C([H])(N([H])C(=O)C([H])(N([H])C([H])([H])[H])C([H])([H])[H])C(C([H])([H])[H])(C([H])([H])[H])C([H])([H])[H])C([H])([H])c2c([H])c(OC([H])([H])C(=O)N([H])C([H])(C(=O)N([H])C([H])([H])C(=O)N3C([H])([H])C([H])([H])N(C(=O)N4C([H])([H])C([H])([H])C([H])([H])C([H])(n5nc(-c6c([H])c([H])c(Oc7c([H])c([H])c(F)c([H])c7F)c([H])c6[H])c(C(=O)N([H])[H])c5N([H])[H])C4([H])[H])C([H])([H])C3([H])[H])C([H])([H])[H])c([H])c([H])c2C1([H])[H]

$$$$
44:0:0
     RDKit          3D

 99106  0  0  1  0  0  0  0  0999 V2000
  -27.1990  -22.5310   20.4010 C   0  0  0  0  0  0  0  0  0  0  0  0
  -27.1740  -21.1970   20.5400 N   0  0  0  0  0  0  0  0  0  0  0  0
  -27.2530  -23.0780   19.2960 O   0  0  0  0  0  0  0  0  0  0  0  0
  -27.1080  -20.8310   21.4810 H   0  0  0  0  0  0  0  0  0  0  0  0
  -27.1250  -23.3720   21.6840 C   0  0  0  0  0  2  0  0  0  0  0  0
  -28.9990  -25.0150   21.5950 C   0  0  0  0  0  0  0  0  0  0  0  0
  -27.7000  -24.7070   21.5170 N   0  0  0  0  0  0  0  0  0  0  0  0
  -29.8640  -24.1820   21.8780 O   0  0  0  0  0  0  0  0  0  0  0  0
  -27.0730  -25.4390   21.2130 H   0  0  0  0  0  0  0  0  0  0  0  0
  -29.3870  -26.4740   21.3150 C   0  0  0  0  0  2  0  0  0  0  0  0
  -28.8350  -26.8800   20.0610 O   0  0  0  0  0  0  0  0  0  0  0  0
  -24.6650  -31.7100   23.2380 C   0  0  0  0  0  0  0  0  0  0  0  0
  -27.6320  -27.5400   20.1150 C   0  0  0  0  0  0  0  0  0  0  0  0
  -23.5640  -30.2500   21.5670 C   0  0  0  0  0  3  0  0  0  0  0  0
  -25.1300  -28.8380   20.1320 C   0  0  0  0  0  0  0  0  0  0  0  0
  -26.0510  -30.8000   21.3830 C   0  0  0  0  0  2  0  0  0  0  0  0
  -26.2390  -29.4450   20.7360 C   0  0  0  0  0  0  0  0  0  0  0  0
  -27.4940  -28.8030   20.7290 C   0  0  0  0  0  3  0  0  0  0  0  0
  -26.5160  -26.9410   19.5020 C   0  0  0  0  0  3  0  0  0  0  0  0
  -25.2610  -27.5810   19.5140 C   0  0  0  0  0  3  0  0  0  0  0  0
  -23.8270  -29.6010   20.1800 C   0  0  0  0  0  2  0  0  0  0  0  0
  -24.7770  -30.9330   22.1230 N   0  0  0  0  0  0  0  0  0  0  0  0
  -23.5660  -31.8980   23.7780 O   0  0  0  0  0  0  0  0  0  0  0  0
  -22.9840  -29.1740   22.5110 C   0  0  0  0  0  0  0  0  0  0  0  0
  -21.6860  -28.8730   22.3450 N   0  0  0  0  0  0  0  0  0  0  0  0
  -23.6990  -28.6120   23.3450 O   0  0  0  0  0  0  0  0  0  0  0  0
  -21.1670  -29.3850   21.6450 H   0  0  0  0  0  0  0  0  0  0  0  0
  -18.4170  -27.3920   22.7520 C   0  0  0  0  0  0  0  0  0  0  0  0
  -20.9360  -27.8650   23.0910 C   0  0  0  0  0  3  0  0  0  0  0  0
  -21.1740  -26.4520   22.5120 C   0  0  0  0  0  2  0  0  0  0  0  0
  -20.1290  -26.0420   21.4680 C   0  0  0  0  0  2  0  0  0  0  0  0
  -18.7250  -26.0660   22.0770 C   0  0  0  0  0  2  0  0  0  0  0  0
  -19.4560  -28.2440   23.2130 C   0  0  0  0  0  0  0  0  0  0  0  0
  -19.1160  -29.4830   23.8010 C   0  0  0  0  0  3  0  0  0  0  0  0
  -17.7690  -29.8710   23.9340 C   0  0  0  0  0  3  0  0  0  0  0  0
  -16.7450  -29.0180   23.4890 C   0  0  0  0  0  3  0  0  0  0  0  0
  -17.0690  -27.7810   22.9040 C   0  0  0  0  0  3  0  0  0  0  0  0
  -25.9030  -32.4180   23.8720 C   0  0  0  0  0  3  0  0  0  0  0  0
  -26.4470  -31.6840   25.1590 C   0  0  1  0  0  0  0  0  0  0  0  0
  -25.3490  -31.3620   26.2000 C   0  0  0  0  0  1  0  0  0  0  0  0
  -27.1410  -30.3560   24.7760 C   0  0  0  0  0  1  0  0  0  0  0  0
  -27.5160  -32.5600   25.8510 C   0  0  0  0  0  1  0  0  0  0  0  0
  -25.5130  -33.7980   24.1840 N   0  0  0  0  0  0  0  0  0  0  0  0
  -25.7760  -34.8560   23.4060 C   0  0  0  0  0  0  0  0  0  0  0  0
  -26.4460  -34.7780   22.3730 O   0  0  0  0  0  0  0  0  0  0  0  0
  -24.9140  -33.9290   24.9870 H   0  0  0  0  0  0  0  0  0  0  0  0
  -23.9210  -36.5180   23.0510 C   0  0  0  0  0  1  0  0  0  0  0  0
  -25.2040  -36.2190   23.8440 C   0  0  0  0  0  3  0  0  0  0  0  0
  -27.2860  -37.2710   24.6130 C   0  0  0  0  0  1  0  0  0  0  0  0
  -26.1590  -37.3360   23.6850 N   0  0  0  0  0  0  0  0  0  0  0  0
  -25.6920  -38.2310   23.8150 H   0  0  0  0  0  0  0  0  0  0  0  0
  -27.1590  -20.2290   19.4420 C   0  0  0  0  0  2  0  0  0  0  0  0
  -28.5590  -19.6590   19.1360 C   0  0  0  0  0  2  0  0  0  0  0  0
  -28.9140  -18.3490   19.8790 C   0  0  0  0  0  2  0  0  0  0  0  0
  -30.3960  -17.9720   19.6640 C   0  0  0  0  0  2  0  0  0  0  0  0
  -30.7200  -16.4930   19.3160 C   0  0  0  0  0  3  0  0  0  0  0  0
  -31.5070  -14.4780   20.5600 C   0  0  0  0  0  0  0  0  0  0  0  0
  -31.1070  -12.2990   19.5150 C   0  0  0  0  0  2  0  0  0  0  0  0
  -30.2560  -12.5000   18.2480 C   0  0  0  0  0  2  0  0  0  0  0  0
  -28.7530  -12.5010   18.5860 C   0  0  0  0  0  2  0  0  0  0  0  0
  -28.3960  -13.4090   19.7950 C   0  0  0  0  0  3  0  0  0  0  0  0
  -29.3760  -13.1970   20.9680 C   0  0  0  0  0  2  0  0  0  0  0  0
  -30.7370  -13.3680   20.4460 N   0  0  0  0  0  0  0  0  0  0  0  0
  -32.7280  -14.4600   20.4060 O   0  0  0  0  0  0  0  0  0  0  0  0
  -30.8530  -15.6540   20.5340 N   0  0  0  0  0  0  0  0  0  0  0  0
  -31.1760  -16.2330   21.2940 H   0  0  0  0  0  0  0  0  0  0  0  0
  -26.0090  -14.1800   20.3510 C   0  0  0  0  0  0  0  0  0  0  0  0
  -24.8720  -13.4840   20.6660 C   0  0  0  0  0  0  0  0  0  0  0  0
  -25.2470  -12.1070   20.6880 C   0  0  0  0  0  0  0  0  0  0  0  0
  -27.0060  -13.2290   20.2040 N   0  0  0  0  0  0  0  0  0  0  0  0
  -26.5480  -11.9790   20.4650 N   0  0  0  0  0  0  0  0  0  0  0  0
  -24.4290  -10.8990   20.8460 C   0  0  0  0  0  0  0  0  0  0  0  0
  -24.7640   -9.9050   21.7930 C   0  0  0  0  0  3  0  0  0  0  0  0
  -23.9540   -8.7580   21.9410 C   0  0  0  0  0  3  0  0  0  0  0  0
  -22.7980   -8.5970   21.1410 C   0  0  0  0  0  0  0  0  0  0  0  0
  -22.4850   -9.5770   20.1830 C   0  0  0  0  0  3  0  0  0  0  0  0
  -23.2930  -10.7170   20.0340 C   0  0  0  0  0  3  0  0  0  0  0  0
  -21.9640   -7.5080   21.2010 O   0  0  0  0  0  0  0  0  0  0  0  0
  -21.7620   -6.8190   22.3700 C   0  0  0  0  0  0  0  0  0  0  0  0
  -21.2670   -7.4500   23.5320 C   0  0  0  0  0  3  0  0  0  0  0  0
  -21.0120   -6.6890   24.6920 C   0  0  0  0  0  3  0  0  0  0  0  0
  -21.2420   -5.3000   24.6880 C   0  0  0  0  0  0  0  0  0  0  0  0
  -21.7280   -4.6690   23.5290 C   0  0  0  0  0  3  0  0  0  0  0  0
  -21.9880   -5.4270   22.3730 C   0  0  0  0  0  0  0  0  0  0  0  0
  -22.4370   -4.8130   21.2530 F   0  0  0  0  0  0  0  0  0  0  0  0
  -20.9890   -4.5680   25.7970 F   0  0  0  0  0  0  0  0  0  0  0  0
  -23.4930  -14.0550   20.8370 C   0  0  0  0  0  0  0  0  0  0  0  0
  -22.6780  -13.4420   21.6900 N   0  0  0  0  0  0  0  0  0  0  0  0
  -23.1480  -15.0760   20.2490 O   0  0  0  0  0  0  0  0  0  0  0  0
  -22.9760  -12.6190   22.1910 H   0  0  0  0  0  0  0  0  0  0  0  0
  -21.7420  -13.7950   21.8360 H   0  0  0  0  0  0  0  0  0  0  0  0
  -26.2710  -15.5300   20.1570 N   0  0  0  0  0  0  0  0  0  0  0  0
  -25.5430  -16.2340   20.2040 H   0  0  0  0  0  0  0  0  0  0  0  0
  -27.1730  -15.9000   19.8910 H   0  0  0  0  0  0  0  0  0  0  0  0
  -31.8940  -16.4330   18.3070 C   0  0  0  0  0  0  0  0  0  0  0  0
  -31.6840  -15.8400   17.1410 N   0  0  0  0  0  0  0  0  0  0  0  0
  -32.9730  -16.9640   18.5630 O   0  0  0  0  0  0  0  0  0  0  0  0
  -30.7780  -15.4640   16.9050 H   0  0  0  0  0  0  0  0  0  0  0  0
  -32.4260  -15.7970   16.4560 H   0  0  0  0  0  0  0  0  0  0  0  0
  1  2  1  0
  1  5  1  0
  2  4  1  0
  3  1  2  0
  6  8  2  0
  7  6  1  0
  7  5  1  0
  9  7  1  0
 10  6  1  0
 11 13  1  0
 11 10  1  0
 12 23  2  0
 13 18  1  0
 14 22  1  0
 14 24  1  0
 15 21  1  0
 15 17  1  0
 16 22  1  0
 17 16  1  0
 18 17  2  0
 19 20  1  0
 19 13  2  0
 20 15  2  0
 21 14  1  0
 22 12  1  0
 24 26  2  0
 25 24  1  0
 27 25  1  0
 28 37  2  0
 28 33  1  0
 29 25  1  0
 29 33  1  0
 30 29  1  0
 31 32  1  0
 31 30  1  0
 32 28  1  0
 33 34  2  0
 34 35  1  0
 36 35  2  0
 37 36  1  0
 38 12  1  0
 38 43  1  0
 38 39  1  0
 39 42  1  1
 39 40  1  0
 41 39  1  0
 43 46  1  0
 44 48  1  0
 44 43  1  0
 45 44  2  0
 48 47  1  0
 50 51  1  0
 50 48  1  0
 50 49  1  0
 52  2  1  0
 53 52  1  0
 53 54  1  0
 55 54  1  0
 56 55  1  0
 56 65  1  0
 58 63  1  0
 59 60  1  0
 59 58  1  0
 61 60  1  0
 61 70  1  0
 61 62  1  0
 63 57  1  0
 63 62  1  0
 64 57  2  0
 65 57  1  0
 65 66  1  0
 67 68  2  0
 68 69  1  0
 68 87  1  0
 69 72  1  0
 70 67  1  0
 70 71  1  0
 71 69  2  0
 72 73  1  0
 73 74  2  0
 75 78  1  0
 75 74  1  0
 76 75  2  0
 77 76  1  0
 77 72  2  0
 78 79  1  0
 79 84  2  0
 79 80  1  0
 80 81  2  0
 82 81  1  0
 82 86  1  0
 83 82  2  0
 84 83  1  0
 85 84  1  0
 87 88  1  0
 88 91  1  0
 88 90  1  0
 89 87  2  0
 92 93  1  0
 92 67  1  0
 94 92  1  0
 95 97  2  0
 95 56  1  0
 96 95  1  0
 98 96  1  0
 99 96  1  0
M  ISO  4  10 101  11 101  57 100  65 100
M  END
>  <TORSDO>  (44) 
F 25

>  <SCORE>  (44) 
-11.133

>  <name>  (44) 
44

>  <ligand_id>  (44) 
44

>  <original_smiles>  (44) 
[H]c1c([H])c([H])c2c(c1[H])C([H])([H])C([H])([H])C([H])([H])C2([H])N([H])C(=O)C1([H])N(C(=O)C([H])(N([H])C(=O)C([H])(N([H])C([H])([H])[H])C([H])([H])[H])C(C([H])([H])[H])(C([H])([H])[H])C([H])([H])[H])C([H])([H])c2c([H])c(OC([H])([H])C(=O)N([H])C([H])([H])C(=O)N([H])C([H])([H])C([H])([H])C([H])([H])C([H])([H])C([H])(C(=O)N([H])[H])N([H])C(=O)N3C([H])([H])C([H])([H])C([H])([H])C([H])(n4nc(-c5c([H])c([H])c(Oc6c([H])c([H])c(F)c([H])c6F)c([H])c5[H])c(C(=O)N([H])[H])c4N([H])[H])C3([H])[H])c([H])c([H])c2C1([H])[H]

>  <smiles>  (44) 
[H]c1c([H])c([H])c2c(c1[H])C([H])([H])C([H])([H])C([H])([H])C2([H])N([H])C(=O)C1([H])N(C(=O)C([H])(N([H])C(=O)C([H])(N([H])C([H])([H])[H])C([H])([H])[H])C(C([H])([H])[H])(C([H])([H])[H])C([H])([H])[H])C([H])([H])c2c([H])c(OC([H])([H])C(=O)N([H])C([H])([H])C(=O)N([H])C([H])([H])C([H])([H])C([H])([H])C([H])([H])C([H])(C(=O)N([H])[H])N([H])C(=O)N3C([H])([H])C([H])([H])C([H])([H])C([H])(n4nc(-c5c([H])c([H])c(Oc6c([H])c([H])c(F)c([H])c6F)c([H])c5[H])c(C(=O)N([H])[H])c4N([H])[H])C3([H])[H])c([H])c([H])c2C1([H])[H]

$$$$
45:0:0
     RDKit          3D

 94101  0  0  1  0  0  0  0  0999 V2000
  -28.8560  -24.4070   20.6590 C   0  0  0  0  0  0  0  0  0  0  0  0
  -29.2240  -24.8310   21.8770 N   0  0  0  0  0  4  0  0  0  0  0  0
  -28.7800  -23.0910   20.3510 N   0  0  0  0  0  0  0  0  0  0  0  0
  -29.2650  -25.8280   22.0350 H   0  0  0  0  0  0  0  0  0  0  0  0
  -29.4710  -24.2170   22.6330 H   0  0  0  0  0  0  0  0  0  0  0  0
  -28.5070  -22.8600   19.4060 H   0  0  0  0  0  0  0  0  0  0  0  0
  -28.5600  -25.4510   19.6090 C   0  0  0  0  0  2  0  0  0  0  0  0
  -28.4140  -26.7790   20.1610 O   0  0  0  0  0  0  0  0  0  0  0  0
  -24.5720  -31.9140   23.2460 C   0  0  0  0  0  0  0  0  0  0  0  0
  -27.2070  -27.4590   20.1490 C   0  0  0  0  0  0  0  0  0  0  0  0
  -23.3630  -30.5210   21.5990 C   0  0  0  0  0  3  0  0  0  0  0  0
  -24.8110  -28.9820   20.1730 C   0  0  0  0  0  0  0  0  0  0  0  0
  -25.8900  -30.8700   21.4010 C   0  0  0  0  0  2  0  0  0  0  0  0
  -25.9700  -29.4980   20.7610 C   0  0  0  0  0  0  0  0  0  0  0  0
  -27.1650  -28.7440   20.7470 C   0  0  0  0  0  3  0  0  0  0  0  0
  -26.0170  -26.9580   19.5670 C   0  0  0  0  0  3  0  0  0  0  0  0
  -24.8300  -27.7130   19.5760 C   0  0  0  0  0  3  0  0  0  0  0  0
  -23.5700  -29.8450   20.2170 C   0  0  0  0  0  2  0  0  0  0  0  0
  -24.6270  -31.1170   22.1410 N   0  0  0  0  0  0  0  0  0  0  0  0
  -23.4920  -32.1860   23.7870 O   0  0  0  0  0  0  0  0  0  0  0  0
  -22.7090  -29.4980   22.5560 C   0  0  0  0  0  0  0  0  0  0  0  0
  -21.3850  -29.3150   22.4230 N   0  0  0  0  0  0  0  0  0  0  0  0
  -23.3900  -28.8720   23.3730 O   0  0  0  0  0  0  0  0  0  0  0  0
  -20.8980  -29.8720   21.7350 H   0  0  0  0  0  0  0  0  0  0  0  0
  -18.0110  -28.1070   22.8910 C   0  0  0  0  0  0  0  0  0  0  0  0
  -20.5660  -28.3750   23.1890 C   0  0  0  0  0  3  0  0  0  0  0  0
  -20.6800  -26.9440   22.6170 C   0  0  0  0  0  2  0  0  0  0  0  0
  -19.5890  -26.6140   21.5920 C   0  0  0  0  0  2  0  0  0  0  0  0
  -18.2000  -26.7560   22.2230 C   0  0  0  0  0  2  0  0  0  0  0  0
  -19.1230  -28.8740   23.3320 C   0  0  0  0  0  0  0  0  0  0  0  0
  -18.8950  -30.1380   23.9160 C   0  0  0  0  0  3  0  0  0  0  0  0
  -17.5870  -30.6370   24.0660 C   0  0  0  0  0  3  0  0  0  0  0  0
  -16.4890  -29.8670   23.6420 C   0  0  0  0  0  3  0  0  0  0  0  0
  -16.7030  -28.6050   23.0610 C   0  0  0  0  0  3  0  0  0  0  0  0
  -25.8600  -32.5380   23.8700 C   0  0  0  0  0  3  0  0  0  0  0  0
  -25.5560  -33.9360   24.2040 N   0  0  0  0  0  0  0  0  0  0  0  0
  -25.8900  -34.9890   23.4460 C   0  0  0  0  0  0  0  0  0  0  0  0
  -26.5600  -34.8860   22.4150 O   0  0  0  0  0  0  0  0  0  0  0  0
  -24.9610  -34.0890   25.0050 H   0  0  0  0  0  0  0  0  0  0  0  0
  -24.1650  -36.7840   23.0950 C   0  0  0  0  0  1  0  0  0  0  0  0
  -25.4050  -36.3780   23.9070 C   0  0  0  0  0  3  0  0  0  0  0  0
  -27.5430  -37.2530   24.7380 C   0  0  0  0  0  1  0  0  0  0  0  0
  -26.4400  -37.4280   23.7960 N   0  0  0  0  0  0  0  0  0  0  0  0
  -26.0360  -38.3480   23.9470 H   0  0  0  0  0  0  0  0  0  0  0  0
  -26.3760  -31.7590   25.1420 C   0  0  1  0  0  0  0  0  0  0  0  0
  -25.2840  -31.5190   26.2100 C   0  0  0  0  0  1  0  0  0  0  0  0
  -26.9530  -30.3830   24.7380 C   0  0  0  0  0  1  0  0  0  0  0  0
  -27.5290  -32.5460   25.8070 C   0  0  0  0  0  1  0  0  0  0  0  0
  -29.1410  -21.9500   21.2210 C   0  0  0  0  0  2  0  0  0  0  0  0
  -28.8400  -20.5660   20.5870 C   0  0  0  0  0  2  0  0  0  0  0  0
  -29.6220  -19.3990   21.2430 C   0  0  0  0  0  2  0  0  0  0  0  0
  -29.3570  -17.9950   20.6200 C   0  0  0  0  0  2  0  0  0  0  0  0
  -30.5180  -16.9590   20.7790 C   0  0  0  0  0  3  0  0  0  0  0  0
  -30.7180  -14.4870   20.0330 C   0  0  0  0  0  0  0  0  0  0  0  0
  -30.3100  -12.2970   18.9730 C   0  0  0  0  0  2  0  0  0  0  0  0
  -29.3170  -12.4750   17.8090 C   0  0  0  0  0  2  0  0  0  0  0  0
  -27.8670  -12.3630   18.3170 C   0  0  0  0  0  2  0  0  0  0  0  0
  -27.5980  -13.2440   19.5670 C   0  0  0  0  0  3  0  0  0  0  0  0
  -28.7080  -13.0710   20.6280 C   0  0  0  0  0  2  0  0  0  0  0  0
  -30.0010  -13.3320   19.9740 N   0  0  0  0  0  0  0  0  0  0  0  0
  -31.8430  -14.5610   19.5420 O   0  0  0  0  0  0  0  0  0  0  0  0
  -30.0560  -15.5660   20.5140 N   0  0  0  0  0  0  0  0  0  0  0  0
  -29.1180  -15.3650   20.8230 H   0  0  0  0  0  0  0  0  0  0  0  0
  -25.2650  -13.8940   20.4330 C   0  0  0  0  0  0  0  0  0  0  0  0
  -24.2020  -13.1400   20.8520 C   0  0  0  0  0  0  0  0  0  0  0  0
  -24.6260  -11.7780   20.7700 C   0  0  0  0  0  0  0  0  0  0  0  0
  -26.2720  -12.9930   20.1240 N   0  0  0  0  0  0  0  0  0  0  0  0
  -25.8940  -11.7140   20.3840 N   0  0  0  0  0  0  0  0  0  0  0  0
  -23.8800  -10.5320   20.9820 C   0  0  0  0  0  0  0  0  0  0  0  0
  -24.3350   -9.5420   21.8810 C   0  0  0  0  0  3  0  0  0  0  0  0
  -23.5910   -8.3590   22.0820 C   0  0  0  0  0  3  0  0  0  0  0  0
  -22.3760   -8.1580   21.3840 C   0  0  0  0  0  0  0  0  0  0  0  0
  -21.9390   -9.1360   20.4730 C   0  0  0  0  0  3  0  0  0  0  0  0
  -22.6840  -10.3100   20.2700 C   0  0  0  0  0  3  0  0  0  0  0  0
  -21.6000   -7.0290   21.4960 O   0  0  0  0  0  0  0  0  0  0  0  0
  -21.5850   -6.2770   22.6420 C   0  0  0  0  0  0  0  0  0  0  0  0
  -21.2420   -6.8330   23.8940 C   0  0  0  0  0  3  0  0  0  0  0  0
  -21.1720   -6.0080   25.0350 C   0  0  0  0  0  3  0  0  0  0  0  0
  -21.4360   -4.6300   24.9260 C   0  0  0  0  0  0  0  0  0  0  0  0
  -21.7720   -4.0730   23.6790 C   0  0  0  0  0  3  0  0  0  0  0  0
  -21.8440   -4.8950   22.5400 C   0  0  0  0  0  0  0  0  0  0  0  0
  -22.1490   -4.3500   21.3370 F   0  0  0  0  0  0  0  0  0  0  0  0
  -21.3600   -3.8360   26.0190 F   0  0  0  0  0  0  0  0  0  0  0  0
  -22.8350  -13.6460   21.2160 C   0  0  0  0  0  0  0  0  0  0  0  0
  -22.1440  -12.9530   22.1130 N   0  0  0  0  0  0  0  0  0  0  0  0
  -22.3940  -14.6920   20.7410 O   0  0  0  0  0  0  0  0  0  0  0  0
  -22.5160  -12.1080   22.5200 H   0  0  0  0  0  0  0  0  0  0  0  0
  -21.2290  -13.2720   22.3990 H   0  0  0  0  0  0  0  0  0  0  0  0
  -25.4520  -15.2630   20.2700 N   0  0  0  0  0  0  0  0  0  0  0  0
  -24.7040  -15.9280   20.4340 H   0  0  0  0  0  0  0  0  0  0  0  0
  -26.2870  -15.6900   19.8890 H   0  0  0  0  0  0  0  0  0  0  0  0
  -31.8200  -17.3920   20.0710 C   0  0  0  0  0  0  0  0  0  0  0  0
  -32.8760  -17.4040   20.7360 O   0  0  0  0  0  1  0  0  0  0  0  0
  -31.7700  -17.7340   18.8720 O   0  0  0  0  0  0  0  0  0  0  0  0
  1  2  2  0
  2  4  1  0
  2  5  1  0
  3  1  1  0
  3 49  1  0
  6  3  1  0
  7  8  1  0
  7  1  1  0
  9 20  2  0
 10  8  1  0
 10 15  1  0
 11 19  1  0
 11 21  1  0
 12 18  1  0
 12 14  1  0
 13 19  1  0
 14 13  1  0
 15 14  2  0
 16 17  1  0
 16 10  2  0
 17 12  2  0
 18 11  1  0
 19  9  1  0
 21 23  2  0
 22 21  1  0
 24 22  1  0
 25 34  2  0
 25 30  1  0
 26 22  1  0
 26 30  1  0
 27 26  1  0
 28 29  1  0
 28 27  1  0
 29 25  1  0
 30 31  2  0
 31 32  1  0
 33 32  2  0
 34 33  1  0
 35  9  1  0
 35 36  1  0
 35 45  1  0
 36 39  1  0
 37 41  1  0
 37 36  1  0
 38 37  2  0
 41 40  1  0
 43 41  1  0
 43 44  1  0
 43 42  1  0
 45 48  1  1
 45 46  1  0
 47 45  1  0
 50 49  1  0
 50 51  1  0
 52 51  1  0
 53 52  1  0
 54 62  1  0
 55 60  1  0
 56 57  1  0
 56 55  1  0
 58 57  1  0
 58 67  1  0
 58 59  1  0
 60 54  1  0
 60 59  1  0
 61 54  2  0
 62 53  1  0
 62 63  1  0
 64 65  2  0
 65 84  1  0
 66 65  1  0
 66 69  1  0
 67 68  1  0
 67 64  1  0
 68 66  2  0
 69 70  1  0
 70 71  2  0
 72 75  1  0
 72 71  1  0
 73 72  2  0
 74 73  1  0
 74 69  2  0
 75 76  1  0
 76 77  1  0
 77 78  2  0
 79 78  1  0
 79 83  1  0
 80 79  2  0
 81 76  2  0
 81 80  1  0
 82 81  1  0
 84 85  1  0
 85 88  1  0
 85 87  1  0
 86 84  2  0
 89 64  1  0
 89 90  1  0
 91 89  1  0
 92 93  1  0
 92 53  1  0
 94 92  2  0
M  ISO  4   7 101   8 101  54 100  62 100
M  END
>  <TORSDO>  (45) 
F 23

>  <SCORE>  (45) 
-12.691

>  <name>  (45) 
45

>  <ligand_id>  (45) 
45

>  <original_smiles>  (45) 
[H]c1c([H])c([H])c2c(c1[H])C([H])([H])C([H])([H])C([H])([H])C2([H])N([H])C(=O)C1([H])N(C(=O)C([H])(N([H])C(=O)C([H])(N([H])C([H])([H])[H])C([H])([H])[H])C(C([H])([H])[H])(C([H])([H])[H])C([H])([H])[H])C([H])([H])c2c([H])c(OC([H])([H])C(N([H])[H])=[N+]([H])C([H])([H])C([H])([H])C([H])([H])C([H])([H])C([H])(C(=O)[O-])N([H])C(=O)N3C([H])([H])C([H])([H])C([H])([H])C([H])(n4nc(-c5c([H])c([H])c(Oc6c([H])c([H])c(F)c([H])c6F)c([H])c5[H])c(C(=O)N([H])[H])c4N([H])[H])C3([H])[H])c([H])c([H])c2C1([H])[H]

>  <smiles>  (45) 
[H]c1c([H])c([H])c2c(c1[H])C([H])([H])C([H])([H])C([H])([H])C2([H])N([H])C(=O)C1([H])N(C(=O)C([H])(N([H])C(=O)C([H])(N([H])C([H])([H])[H])C([H])([H])[H])C(C([H])([H])[H])(C([H])([H])[H])C([H])([H])[H])C([H])([H])c2c([H])c(OC([H])([H])C(N([H])[H])=[N+]([H])C([H])([H])C([H])([H])C([H])([H])C([H])([H])C([H])(C(=O)[O-])N([H])C(=O)N3C([H])([H])C([H])([H])C([H])([H])C([H])(n4nc(-c5c([H])c([H])c(Oc6c([H])c([H])c(F)c([H])c6F)c([H])c5[H])c(C(=O)N([H])[H])c4N([H])[H])C3([H])[H])c([H])c([H])c2C1([H])[H]

$$$$
46:0:0
     RDKit          3D

 87 94  0  0  1  0  0  0  0  0999 V2000
  -29.1770  -19.7480   20.0010 C   0  0  0  0  0  0  0  0  0  0  0  0
  -29.0550  -21.1280   20.5480 N   0  0  0  0  0  0  0  0  0  0  0  0
  -28.8260  -19.6230   18.8280 O   0  0  0  0  0  0  0  0  0  0  0  0
  -29.2990  -21.1410   21.5310 H   0  0  0  0  0  0  0  0  0  0  0  0
  -31.3310  -18.4880   20.7550 C   0  0  0  0  0  1  0  0  0  0  0  0
  -29.8120  -18.2540   20.6910 C   0  0  0  0  0  3  0  0  0  0  0  0
  -30.3810  -15.3300   20.2710 C   0  0  0  0  0  0  0  0  0  0  0  0
  -30.3620  -12.8880   19.3580 C   0  0  0  0  0  2  0  0  0  0  0  0
  -29.4350  -12.6640   18.1370 C   0  0  0  0  0  2  0  0  0  0  0  0
  -27.9910  -12.3830   18.5890 C   0  0  0  0  0  2  0  0  0  0  0  0
  -27.5400  -13.3440   19.7160 C   0  0  0  0  0  3  0  0  0  0  0  0
  -28.5940  -13.5020   20.8320 C   0  0  0  0  0  2  0  0  0  0  0  0
  -29.8090  -14.0260   20.1830 N   0  0  0  0  0  0  0  0  0  0  0  0
  -31.6100  -15.3100   20.1030 O   0  0  0  0  0  0  0  0  0  0  0  0
  -29.6170  -16.6090   20.3670 N   0  0  0  0  0  0  0  0  0  0  0  0
  -28.6310  -16.3970   20.3270 H   0  0  0  0  0  0  0  0  0  0  0  0
  -25.1710  -13.8920   20.4800 C   0  0  0  0  0  0  0  0  0  0  0  0
  -24.1140  -13.1110   20.8520 C   0  0  0  0  0  0  0  0  0  0  0  0
  -24.5880  -11.7630   20.8230 C   0  0  0  0  0  0  0  0  0  0  0  0
  -26.2170  -13.0210   20.2340 N   0  0  0  0  0  0  0  0  0  0  0  0
  -25.8790  -11.7340   20.5100 N   0  0  0  0  0  0  0  0  0  0  0  0
  -23.8660  -10.4970   21.0130 C   0  0  0  0  0  0  0  0  0  0  0  0
  -24.2950   -9.5360   21.9550 C   0  0  0  0  0  3  0  0  0  0  0  0
  -23.5690   -8.3380   22.1350 C   0  0  0  0  0  3  0  0  0  0  0  0
  -22.4020   -8.0930   21.3740 C   0  0  0  0  0  0  0  0  0  0  0  0
  -21.9940   -9.0430   20.4210 C   0  0  0  0  0  3  0  0  0  0  0  0
  -22.7190  -10.2320   20.2380 C   0  0  0  0  0  3  0  0  0  0  0  0
  -21.6490   -6.9460   21.4620 O   0  0  0  0  0  0  0  0  0  0  0  0
  -21.5880   -6.2150   22.6210 C   0  0  0  0  0  0  0  0  0  0  0  0
  -21.1350   -6.7770   23.8340 C   0  0  0  0  0  3  0  0  0  0  0  0
  -21.0210   -5.9710   24.9840 C   0  0  0  0  0  3  0  0  0  0  0  0
  -21.3480   -4.6040   24.9230 C   0  0  0  0  0  0  0  0  0  0  0  0
  -21.7950   -4.0410   23.7150 C   0  0  0  0  0  3  0  0  0  0  0  0
  -21.9100   -4.8440   22.5660 C   0  0  0  0  0  0  0  0  0  0  0  0
  -22.3200   -4.2910   21.3990 F   0  0  0  0  0  0  0  0  0  0  0  0
  -21.2320   -3.8280   26.0260 F   0  0  0  0  0  0  0  0  0  0  0  0
  -22.7150  -13.5820   21.1160 C   0  0  0  0  0  0  0  0  0  0  0  0
  -21.9850  -12.8830   21.9780 N   0  0  0  0  0  0  0  0  0  0  0  0
  -22.2770  -14.6070   20.5940 O   0  0  0  0  0  0  0  0  0  0  0  0
  -22.3540  -12.0560   22.4230 H   0  0  0  0  0  0  0  0  0  0  0  0
  -21.0450  -13.1810   22.1990 H   0  0  0  0  0  0  0  0  0  0  0  0
  -25.3230  -15.2640   20.2980 N   0  0  0  0  0  0  0  0  0  0  0  0
  -24.5460  -15.9070   20.4030 H   0  0  0  0  0  0  0  0  0  0  0  0
  -26.1520  -15.7050   19.9220 H   0  0  0  0  0  0  0  0  0  0  0  0
  -28.8450  -22.6990   19.9660 C   0  0  0  0  0  2  0  0  0  0  0  0
  -28.0870  -24.2320   20.5820 C   0  0  0  0  0  2  0  0  0  0  0  0
  -28.2550  -25.8650   20.3110 O   0  0  0  0  0  0  0  0  0  0  0  0
  -24.6380  -31.8680   23.2360 C   0  0  0  0  0  0  0  0  0  0  0  0
  -27.2220  -26.9480   20.3000 C   0  0  0  0  0  0  0  0  0  0  0  0
  -23.4570  -30.4490   21.6080 C   0  0  0  0  0  3  0  0  0  0  0  0
  -24.9170  -28.8260   20.2180 C   0  0  0  0  0  0  0  0  0  0  0  0
  -26.0250  -30.6630   21.4710 C   0  0  0  0  0  2  0  0  0  0  0  0
  -26.1030  -29.2430   20.8360 C   0  0  0  0  0  0  0  0  0  0  0  0
  -27.2520  -28.3280   20.8450 C   0  0  0  0  0  3  0  0  0  0  0  0
  -26.0020  -26.6820   19.6400 C   0  0  0  0  0  3  0  0  0  0  0  0
  -24.8920  -27.5660   19.5990 C   0  0  0  0  0  3  0  0  0  0  0  0
  -23.6970  -29.7470   20.2430 C   0  0  0  0  0  2  0  0  0  0  0  0
  -24.7280  -31.0220   22.1590 N   0  0  0  0  0  0  0  0  0  0  0  0
  -23.5440  -32.1600   23.7480 O   0  0  0  0  0  0  0  0  0  0  0  0
  -22.7590  -29.4640   22.5820 C   0  0  0  0  0  0  0  0  0  0  0  0
  -21.4290  -29.3000   22.4570 N   0  0  0  0  0  0  0  0  0  0  0  0
  -23.4230  -28.8460   23.4190 O   0  0  0  0  0  0  0  0  0  0  0  0
  -20.9470  -29.8490   21.7580 H   0  0  0  0  0  0  0  0  0  0  0  0
  -18.0450  -28.0940   22.9700 C   0  0  0  0  0  0  0  0  0  0  0  0
  -20.6050  -28.3690   23.2350 C   0  0  0  0  0  3  0  0  0  0  0  0
  -20.7100  -26.9320   22.6750 C   0  0  0  0  0  2  0  0  0  0  0  0
  -19.6100  -26.5970   21.6620 C   0  0  0  0  0  2  0  0  0  0  0  0
  -18.2270  -26.7410   22.3020 C   0  0  0  0  0  2  0  0  0  0  0  0
  -19.1610  -28.8650   23.3930 C   0  0  0  0  0  0  0  0  0  0  0  0
  -18.9340  -30.1290   23.9800 C   0  0  0  0  0  3  0  0  0  0  0  0
  -17.6270  -30.6230   24.1460 C   0  0  0  0  0  3  0  0  0  0  0  0
  -16.5270  -29.8510   23.7360 C   0  0  0  0  0  3  0  0  0  0  0  0
  -16.7360  -28.5880   23.1540 C   0  0  0  0  0  3  0  0  0  0  0  0
  -25.9030  -32.5220   23.8700 C   0  0  0  0  0  3  0  0  0  0  0  0
  -26.3990  -31.7780   25.1700 C   0  0  1  0  0  0  0  0  0  0  0  0
  -25.2910  -31.5630   26.2280 C   0  0  0  0  0  1  0  0  0  0  0  0
  -26.9880  -30.3920   24.8250 C   0  0  0  0  0  1  0  0  0  0  0  0
  -27.5400  -32.5860   25.8330 C   0  0  0  0  0  1  0  0  0  0  0  0
  -25.5790  -33.9250   24.1820 N   0  0  0  0  0  0  0  0  0  0  0  0
  -25.9180  -34.9790   23.4280 C   0  0  0  0  0  0  0  0  0  0  0  0
  -26.5980  -34.8730   22.4040 O   0  0  0  0  0  0  0  0  0  0  0  0
  -24.9750  -34.0820   24.9760 H   0  0  0  0  0  0  0  0  0  0  0  0
  -24.1960  -36.7800   23.0550 C   0  0  0  0  0  1  0  0  0  0  0  0
  -25.4290  -36.3720   23.8780 C   0  0  0  0  0  3  0  0  0  0  0  0
  -27.5550  -37.2630   24.7290 C   0  0  0  0  0  1  0  0  0  0  0  0
  -26.4640  -37.4250   23.7710 N   0  0  0  0  0  0  0  0  0  0  0  0
  -26.0560  -38.3460   23.9080 H   0  0  0  0  0  0  0  0  0  0  0  0
  1  2  1  0
  1  6  1  0
  2  4  1  0
  3  1  2  0
  6  5  1  0
  7 15  1  0
  8 13  1  0
  9 10  1  0
  9  8  1  0
 11 10  1  0
 11 20  1  0
 11 12  1  0
 13  7  1  0
 13 12  1  0
 14  7  2  0
 15  6  1  0
 16 15  1  0
 17 18  2  0
 18 37  1  0
 19 18  1  0
 19 22  1  0
 20 17  1  0
 20 21  1  0
 21 19  2  0
 22 23  1  0
 23 24  2  0
 25 28  1  0
 25 24  1  0
 26 25  2  0
 27 26  1  0
 27 22  2  0
 28 29  1  0
 29 30  1  0
 30 31  2  0
 32 31  1  0
 32 36  1  0
 33 32  2  0
 34 29  2  0
 34 33  1  0
 35 34  1  0
 37 38  1  0
 38 41  1  0
 38 40  1  0
 39 37  2  0
 42 43  1  0
 42 17  1  0
 44 42  1  0
 45  2  1  0
 45 46  1  0
 47 46  1  0
 48 59  2  0
 49 47  1  0
 49 54  1  0
 50 58  1  0
 50 60  1  0
 51 57  1  0
 51 53  1  0
 52 58  1  0
 53 54  2  0
 53 52  1  0
 55 49  2  0
 56 55  1  0
 56 51  2  0
 57 50  1  0
 58 48  1  0
 60 62  2  0
 61 60  1  0
 63 61  1  0
 64 73  2  0
 64 69  1  0
 65 61  1  0
 65 69  1  0
 66 65  1  0
 67 68  1  0
 67 66  1  0
 68 64  1  0
 69 70  2  0
 70 71  1  0
 72 71  2  0
 73 72  1  0
 74 48  1  0
 74 79  1  0
 74 75  1  0
 75 78  1  1
 75 76  1  0
 77 75  1  0
 79 82  1  0
 80 84  1  0
 80 79  1  0
 81 80  2  0
 84 83  1  0
 86 84  1  0
 86 87  1  0
 86 85  1  0
M  ISO  4   7 100  15 100  46 101  47 101
M  END
>  <TORSDO>  (46) 
F 19

>  <SCORE>  (46) 
-16.531

>  <name>  (46) 
46

>  <ligand_id>  (46) 
46

>  <original_smiles>  (46) 
[H]c1c([H])c([H])c2c(c1[H])C([H])([H])C([H])([H])C([H])([H])C2([H])N([H])C(=O)C1([H])N(C(=O)C([H])(N([H])C(=O)C([H])(N([H])C([H])([H])[H])C([H])([H])[H])C(C([H])([H])[H])(C([H])([H])[H])C([H])([H])[H])C([H])([H])c2c([H])c(OC([H])([H])C([H])([H])N([H])C(=O)C([H])(N([H])C(=O)N3C([H])([H])C([H])([H])C([H])([H])C([H])(n4nc(-c5c([H])c([H])c(Oc6c([H])c([H])c(F)c([H])c6F)c([H])c5[H])c(C(=O)N([H])[H])c4N([H])[H])C3([H])[H])C([H])([H])[H])c([H])c([H])c2C1([H])[H]

>  <smiles>  (46) 
[H]c1c([H])c([H])c2c(c1[H])C([H])([H])C([H])([H])C([H])([H])C2([H])N([H])C(=O)C1([H])N(C(=O)C([H])(N([H])C(=O)C([H])(N([H])C([H])([H])[H])C([H])([H])[H])C(C([H])([H])[H])(C([H])([H])[H])C([H])([H])[H])C([H])([H])c2c([H])c(OC([H])([H])C([H])([H])N([H])C(=O)C([H])(N([H])C(=O)N3C([H])([H])C([H])([H])C([H])([H])C([H])(n4nc(-c5c([H])c([H])c(Oc6c([H])c([H])c(F)c([H])c6F)c([H])c5[H])c(C(=O)N([H])[H])c4N([H])[H])C3([H])[H])C([H])([H])[H])c([H])c([H])c2C1([H])[H]

$$$$
47:0:0
     RDKit          3D

 96103  0  0  1  0  0  0  0  0999 V2000
  -30.5590  -22.3940   22.0320 C   0  0  0  0  0  2  0  0  0  0  0  0
  -29.6460  -23.1800   22.8990 N   0  0  0  0  0  4  0  0  0  0  0  0
  -28.6840  -23.0070   22.6450 H   0  0  0  0  0  0  0  0  0  0  0  0
  -29.7790  -22.8990   23.8570 H   0  0  0  0  0  0  0  0  0  0  0  0
  -29.8150  -24.6500   22.8280 C   0  0  0  0  0  2  0  0  0  0  0  0
  -28.7710  -25.2190   21.8630 C   0  0  0  0  0  0  0  0  0  0  0  0
  -27.7680  -24.5620   21.5550 O   0  0  0  0  0  0  0  0  0  0  0  0
  -29.0230  -26.6310   21.3170 C   0  0  0  0  0  2  0  0  0  0  0  0
  -28.2940  -26.8230   20.1000 O   0  0  0  0  0  0  0  0  0  0  0  0
  -24.5090  -31.9650   23.2890 C   0  0  0  0  0  0  0  0  0  0  0  0
  -27.1400  -27.5680   20.1770 C   0  0  0  0  0  0  0  0  0  0  0  0
  -23.2870  -30.5710   21.6470 C   0  0  0  0  0  3  0  0  0  0  0  0
  -24.7330  -29.0400   20.2100 C   0  0  0  0  0  0  0  0  0  0  0  0
  -25.8040  -30.9400   21.4320 C   0  0  0  0  0  2  0  0  0  0  0  0
  -25.8880  -29.5710   20.7950 C   0  0  0  0  0  0  0  0  0  0  0  0
  -27.0960  -28.8430   20.7830 C   0  0  0  0  0  3  0  0  0  0  0  0
  -25.9750  -27.0480   19.5790 C   0  0  0  0  0  3  0  0  0  0  0  0
  -24.7670  -27.7730   19.5990 C   0  0  0  0  0  3  0  0  0  0  0  0
  -23.4870  -29.8940   20.2630 C   0  0  0  0  0  2  0  0  0  0  0  0
  -24.5510  -31.1740   22.1820 N   0  0  0  0  0  0  0  0  0  0  0  0
  -23.4330  -32.2350   23.8410 O   0  0  0  0  0  0  0  0  0  0  0  0
  -22.6470  -29.5450   22.6090 C   0  0  0  0  0  0  0  0  0  0  0  0
  -21.3290  -29.3420   22.4710 N   0  0  0  0  0  0  0  0  0  0  0  0
  -23.3340  -28.9340   23.4330 O   0  0  0  0  0  0  0  0  0  0  0  0
  -20.8400  -29.8840   21.7710 H   0  0  0  0  0  0  0  0  0  0  0  0
  -17.9670  -28.1000   22.9370 C   0  0  0  0  0  0  0  0  0  0  0  0
  -20.5160  -28.4000   23.2390 C   0  0  0  0  0  3  0  0  0  0  0  0
  -20.6510  -26.9670   22.6770 C   0  0  0  0  0  2  0  0  0  0  0  0
  -19.5680  -26.6160   21.6510 C   0  0  0  0  0  2  0  0  0  0  0  0
  -18.1750  -26.7460   22.2760 C   0  0  0  0  0  2  0  0  0  0  0  0
  -19.0690  -28.8820   23.3730 C   0  0  0  0  0  0  0  0  0  0  0  0
  -18.8250  -30.1470   23.9510 C   0  0  0  0  0  3  0  0  0  0  0  0
  -17.5130  -30.6330   24.0950 C   0  0  0  0  0  3  0  0  0  0  0  0
  -16.4250  -29.8490   23.6740 C   0  0  0  0  0  3  0  0  0  0  0  0
  -16.6520  -28.5830   23.1020 C   0  0  0  0  0  3  0  0  0  0  0  0
  -25.8030  -32.5890   23.8990 C   0  0  0  0  0  3  0  0  0  0  0  0
  -26.3170  -31.8270   25.1820 C   0  0  1  0  0  0  0  0  0  0  0  0
  -25.2210  -31.6000   26.2500 C   0  0  0  0  0  1  0  0  0  0  0  0
  -26.8970  -30.4450   24.7990 C   0  0  0  0  0  1  0  0  0  0  0  0
  -27.4700  -32.6220   25.8380 C   0  0  0  0  0  1  0  0  0  0  0  0
  -25.5120  -33.9940   24.2120 N   0  0  0  0  0  0  0  0  0  0  0  0
  -25.8720  -35.0330   23.4450 C   0  0  0  0  0  0  0  0  0  0  0  0
  -26.5570  -34.9080   22.4240 O   0  0  0  0  0  0  0  0  0  0  0  0
  -24.9110  -34.1690   25.0030 H   0  0  0  0  0  0  0  0  0  0  0  0
  -24.1900  -36.8510   23.0210 C   0  0  0  0  0  1  0  0  0  0  0  0
  -25.3980  -36.4320   23.8760 C   0  0  0  0  0  3  0  0  0  0  0  0
  -27.5160  -37.2840   24.7750 C   0  0  0  0  0  1  0  0  0  0  0  0
  -26.4540  -37.4660   23.7910 N   0  0  0  0  0  0  0  0  0  0  0  0
  -26.0600  -38.3940   23.9180 H   0  0  0  0  0  0  0  0  0  0  0  0
  -30.5210  -20.8770   22.3370 C   0  0  0  0  0  2  0  0  0  0  0  0
  -29.3910  -20.0920   21.6300 C   0  0  0  0  0  2  0  0  0  0  0  0
  -29.8810  -19.1460   20.5130 C   0  0  0  0  0  2  0  0  0  0  0  0
  -31.2450  -14.3500   20.1790 C   0  0  0  0  0  0  0  0  0  0  0  0
  -30.8320  -12.1960   19.0680 C   0  0  0  0  0  2  0  0  0  0  0  0
  -29.8750  -12.4050   17.8760 C   0  0  0  0  0  2  0  0  0  0  0  0
  -28.4030  -12.3580   18.3300 C   0  0  0  0  0  2  0  0  0  0  0  0
  -28.1300  -13.2500   19.5690 C   0  0  0  0  0  3  0  0  0  0  0  0
  -29.1860  -13.0010   20.6720 C   0  0  0  0  0  2  0  0  0  0  0  0
  -30.5220  -13.2080   20.0890 N   0  0  0  0  0  0  0  0  0  0  0  0
  -32.3590  -14.5080   19.6540 O   0  0  0  0  0  0  0  0  0  0  0  0
  -30.8420  -16.7920   20.5500 C   0  0  0  0  0  0  0  0  0  0  0  0
  -30.5400  -15.4820   20.7230 N   0  0  0  0  0  0  0  0  0  0  0  0
  -29.9240  -17.7190   20.9070 N   0  0  0  0  0  0  0  0  0  0  0  0
  -31.9860  -17.2160   19.9920 N   0  0  0  0  0  4  0  0  0  0  0  0
  -29.6630  -15.3220   21.1880 H   0  0  0  0  0  0  0  0  0  0  0  0
  -29.0790  -17.3990   21.3650 H   0  0  0  0  0  0  0  0  0  0  0  0
  -32.6800  -16.5170   19.7390 H   0  0  0  0  0  0  0  0  0  0  0  0
  -32.1900  -18.1880   19.8230 H   0  0  0  0  0  0  0  0  0  0  0  0
  -25.7900  -14.0140   20.3220 C   0  0  0  0  0  0  0  0  0  0  0  0
  -24.6840  -13.3090   20.7170 C   0  0  0  0  0  0  0  0  0  0  0  0
  -25.0590  -11.9320   20.6780 C   0  0  0  0  0  0  0  0  0  0  0  0
  -26.7740  -13.0670   20.0740 N   0  0  0  0  0  0  0  0  0  0  0  0
  -26.3360  -11.8110   20.3420 N   0  0  0  0  0  0  0  0  0  0  0  0
  -24.2600  -10.7170   20.8880 C   0  0  0  0  0  0  0  0  0  0  0  0
  -24.6340   -9.7440   21.8390 C   0  0  0  0  0  3  0  0  0  0  0  0
  -23.8430   -8.5910   22.0340 C   0  0  0  0  0  3  0  0  0  0  0  0
  -22.6630   -8.4040   21.2750 C   0  0  0  0  0  0  0  0  0  0  0  0
  -22.3090   -9.3650   20.3110 C   0  0  0  0  0  3  0  0  0  0  0  0
  -23.1000  -10.5090   20.1150 C   0  0  0  0  0  3  0  0  0  0  0  0
  -21.8480   -7.3030   21.3770 O   0  0  0  0  0  0  0  0  0  0  0  0
  -21.7240   -6.6030   22.5500 C   0  0  0  0  0  0  0  0  0  0  0  0
  -21.2550   -7.2130   23.7360 C   0  0  0  0  0  3  0  0  0  0  0  0
  -21.0800   -6.4420   24.9000 C   0  0  0  0  0  3  0  0  0  0  0  0
  -21.3610   -5.0630   24.8820 C   0  0  0  0  0  0  0  0  0  0  0  0
  -21.8220   -4.4520   23.7030 C   0  0  0  0  0  3  0  0  0  0  0  0
  -22.0000   -5.2200   22.5390 C   0  0  0  0  0  0  0  0  0  0  0  0
  -22.4260   -4.6250   21.3990 F   0  0  0  0  0  0  0  0  0  0  0  0
  -21.1820   -4.3200   26.0010 F   0  0  0  0  0  0  0  0  0  0  0  0
  -23.3270  -13.8720   21.0170 C   0  0  0  0  0  0  0  0  0  0  0  0
  -22.5840  -13.2310   21.9120 N   0  0  0  0  0  0  0  0  0  0  0  0
  -22.9350  -14.9150   20.4960 O   0  0  0  0  0  0  0  0  0  0  0  0
  -22.9200  -12.3880   22.3520 H   0  0  0  0  0  0  0  0  0  0  0  0
  -21.6700  -13.5850   22.1580 H   0  0  0  0  0  0  0  0  0  0  0  0
  -26.0380  -15.3720   20.1360 N   0  0  0  0  0  0  0  0  0  0  0  0
  -25.2910  -16.0560   20.2050 H   0  0  0  0  0  0  0  0  0  0  0  0
  -26.8740  -15.7430   19.7050 H   0  0  0  0  0  0  0  0  0  0  0  0
  1 50  1  0
  1  2  1  0
  2  4  1  0
  3  2  1  0
  5  2  1  0
  6  5  1  0
  7  6  2  0
  8  6  1  0
  9 11  1  0
  9  8  1  0
 10 21  2  0
 11 16  1  0
 12 20  1  0
 12 22  1  0
 13 19  1  0
 13 15  1  0
 14 20  1  0
 15 14  1  0
 16 15  2  0
 17 18  1  0
 17 11  2  0
 18 13  2  0
 19 12  1  0
 20 10  1  0
 22 24  2  0
 23 22  1  0
 25 23  1  0
 26 35  2  0
 26 31  1  0
 27 23  1  0
 27 31  1  0
 28 27  1  0
 29 30  1  0
 29 28  1  0
 30 26  1  0
 31 32  2  0
 32 33  1  0
 34 33  2  0
 35 34  1  0
 36 10  1  0
 36 41  1  0
 36 37  1  0
 37 40  1  1
 37 38  1  0
 39 37  1  0
 41 44  1  0
 42 46  1  0
 42 41  1  0
 43 42  2  0
 46 45  1  0
 48 46  1  0
 48 49  1  0
 48 47  1  0
 51 50  1  0
 52 63  1  0
 52 51  1  0
 53 62  1  0
 54 59  1  0
 55 56  1  0
 55 54  1  0
 57 56  1  0
 57 72  1  0
 57 58  1  0
 59 53  1  0
 59 58  1  0
 60 53  2  0
 61 62  1  0
 61 63  1  0
 62 65  1  0
 63 66  1  0
 64 61  2  0
 67 64  1  0
 68 64  1  0
 69 70  2  0
 70 89  1  0
 71 70  1  0
 71 74  1  0
 72 69  1  0
 72 73  1  0
 73 71  2  0
 74 75  1  0
 75 76  2  0
 77 80  1  0
 77 76  1  0
 78 77  2  0
 79 78  1  0
 79 74  2  0
 80 81  1  0
 81 82  1  0
 82 83  2  0
 84 83  1  0
 84 88  1  0
 85 84  2  0
 86 81  2  0
 86 85  1  0
 87 86  1  0
 89 90  1  0
 90 93  1  0
 90 92  1  0
 91 89  2  0
 94 95  1  0
 94 69  1  0
 96 94  1  0
M  ISO  4   8 101   9 101  53 100  62 100
M  END
>  <TORSDO>  (47) 
F 23

>  <SCORE>  (47) 
-12.379

>  <name>  (47) 
47

>  <ligand_id>  (47) 
47

>  <original_smiles>  (47) 
[H]c1c([H])c([H])c2c(c1[H])C([H])([H])C([H])([H])C([H])([H])C2([H])N([H])C(=O)C1([H])N(C(=O)C([H])(N([H])C(=O)C([H])(N([H])C([H])([H])[H])C([H])([H])[H])C(C([H])([H])[H])(C([H])([H])[H])C([H])([H])[H])C([H])([H])c2c([H])c(OC([H])([H])C(=O)C([H])([H])[N+]([H])([H])C([H])([H])C([H])([H])C([H])([H])C([H])([H])N([H])C(N([H])C(=O)N3C([H])([H])C([H])([H])C([H])([H])C([H])(n4nc(-c5c([H])c([H])c(Oc6c([H])c([H])c(F)c([H])c6F)c([H])c5[H])c(C(=O)N([H])[H])c4N([H])[H])C3([H])[H])=[N+]([H])[H])c([H])c([H])c2C1([H])[H]

>  <smiles>  (47) 
[H]c1c([H])c([H])c2c(c1[H])C([H])([H])C([H])([H])C([H])([H])C2([H])N([H])C(=O)C1([H])N(C(=O)C([H])(N([H])C(=O)C([H])(N([H])C([H])([H])[H])C([H])([H])[H])C(C([H])([H])[H])(C([H])([H])[H])C([H])([H])[H])C([H])([H])c2c([H])c(OC([H])([H])C(=O)C([H])([H])[N+]([H])([H])C([H])([H])C([H])([H])C([H])([H])C([H])([H])N([H])C(N([H])C(=O)N3C([H])([H])C([H])([H])C([H])([H])C([H])(n4nc(-c5c([H])c([H])c(Oc6c([H])c([H])c(F)c([H])c6F)c([H])c5[H])c(C(=O)N([H])[H])c4N([H])[H])C3([H])[H])=[N+]([H])[H])c([H])c([H])c2C1([H])[H]

$$$$
48:0:0
     RDKit          3D

 87 94  0  0  1  0  0  0  0  0999 V2000
  -29.1770  -19.7480   20.0010 C   0  0  0  0  0  0  0  0  0  0  0  0
  -29.0550  -21.1280   20.5480 N   0  0  0  0  0  0  0  0  0  0  0  0
  -28.8260  -19.6230   18.8280 O   0  0  0  0  0  0  0  0  0  0  0  0
  -29.2990  -21.1410   21.5310 H   0  0  0  0  0  0  0  0  0  0  0  0
  -31.3310  -18.4880   20.7550 C   0  0  0  0  0  1  0  0  0  0  0  0
  -29.8120  -18.2540   20.6910 C   0  0  0  0  0  3  0  0  0  0  0  0
  -30.3810  -15.3300   20.2710 C   0  0  0  0  0  0  0  0  0  0  0  0
  -30.3620  -12.8880   19.3580 C   0  0  0  0  0  2  0  0  0  0  0  0
  -29.4350  -12.6640   18.1370 C   0  0  0  0  0  2  0  0  0  0  0  0
  -27.9910  -12.3830   18.5890 C   0  0  0  0  0  2  0  0  0  0  0  0
  -27.5400  -13.3440   19.7160 C   0  0  0  0  0  3  0  0  0  0  0  0
  -28.5940  -13.5020   20.8320 C   0  0  0  0  0  2  0  0  0  0  0  0
  -29.8090  -14.0260   20.1830 N   0  0  0  0  0  0  0  0  0  0  0  0
  -31.6100  -15.3100   20.1030 O   0  0  0  0  0  0  0  0  0  0  0  0
  -29.6170  -16.6090   20.3670 N   0  0  0  0  0  0  0  0  0  0  0  0
  -28.6310  -16.3970   20.3270 H   0  0  0  0  0  0  0  0  0  0  0  0
  -25.1710  -13.8920   20.4800 C   0  0  0  0  0  0  0  0  0  0  0  0
  -24.1140  -13.1110   20.8520 C   0  0  0  0  0  0  0  0  0  0  0  0
  -24.5880  -11.7630   20.8230 C   0  0  0  0  0  0  0  0  0  0  0  0
  -26.2170  -13.0210   20.2340 N   0  0  0  0  0  0  0  0  0  0  0  0
  -25.8790  -11.7340   20.5100 N   0  0  0  0  0  0  0  0  0  0  0  0
  -23.8660  -10.4970   21.0130 C   0  0  0  0  0  0  0  0  0  0  0  0
  -24.2950   -9.5360   21.9550 C   0  0  0  0  0  3  0  0  0  0  0  0
  -23.5690   -8.3380   22.1350 C   0  0  0  0  0  3  0  0  0  0  0  0
  -22.4020   -8.0930   21.3740 C   0  0  0  0  0  0  0  0  0  0  0  0
  -21.9940   -9.0430   20.4210 C   0  0  0  0  0  3  0  0  0  0  0  0
  -22.7190  -10.2320   20.2380 C   0  0  0  0  0  3  0  0  0  0  0  0
  -21.6490   -6.9460   21.4620 O   0  0  0  0  0  0  0  0  0  0  0  0
  -21.5880   -6.2150   22.6210 C   0  0  0  0  0  0  0  0  0  0  0  0
  -21.1350   -6.7770   23.8340 C   0  0  0  0  0  3  0  0  0  0  0  0
  -21.0210   -5.9710   24.9840 C   0  0  0  0  0  3  0  0  0  0  0  0
  -21.3480   -4.6040   24.9230 C   0  0  0  0  0  0  0  0  0  0  0  0
  -21.7950   -4.0410   23.7150 C   0  0  0  0  0  3  0  0  0  0  0  0
  -21.9100   -4.8440   22.5660 C   0  0  0  0  0  0  0  0  0  0  0  0
  -22.3200   -4.2910   21.3990 F   0  0  0  0  0  0  0  0  0  0  0  0
  -21.2320   -3.8280   26.0260 F   0  0  0  0  0  0  0  0  0  0  0  0
  -22.7150  -13.5820   21.1160 C   0  0  0  0  0  0  0  0  0  0  0  0
  -21.9850  -12.8830   21.9780 N   0  0  0  0  0  0  0  0  0  0  0  0
  -22.2770  -14.6070   20.5940 O   0  0  0  0  0  0  0  0  0  0  0  0
  -22.3540  -12.0560   22.4230 H   0  0  0  0  0  0  0  0  0  0  0  0
  -21.0450  -13.1810   22.1990 H   0  0  0  0  0  0  0  0  0  0  0  0
  -25.3230  -15.2640   20.2980 N   0  0  0  0  0  0  0  0  0  0  0  0
  -24.5460  -15.9070   20.4030 H   0  0  0  0  0  0  0  0  0  0  0  0
  -26.1520  -15.7050   19.9220 H   0  0  0  0  0  0  0  0  0  0  0  0
  -28.8450  -22.6990   19.9660 C   0  0  0  0  0  2  0  0  0  0  0  0
  -28.0870  -24.2320   20.5820 C   0  0  0  0  0  2  0  0  0  0  0  0
  -28.2550  -25.8650   20.3110 O   0  0  0  0  0  0  0  0  0  0  0  0
  -24.6380  -31.8680   23.2360 C   0  0  0  0  0  0  0  0  0  0  0  0
  -27.2220  -26.9480   20.3000 C   0  0  0  0  0  0  0  0  0  0  0  0
  -23.4570  -30.4490   21.6080 C   0  0  0  0  0  3  0  0  0  0  0  0
  -24.9170  -28.8260   20.2180 C   0  0  0  0  0  0  0  0  0  0  0  0
  -26.0250  -30.6630   21.4710 C   0  0  0  0  0  2  0  0  0  0  0  0
  -26.1030  -29.2430   20.8360 C   0  0  0  0  0  0  0  0  0  0  0  0
  -27.2520  -28.3280   20.8450 C   0  0  0  0  0  3  0  0  0  0  0  0
  -26.0020  -26.6820   19.6400 C   0  0  0  0  0  3  0  0  0  0  0  0
  -24.8920  -27.5660   19.5990 C   0  0  0  0  0  3  0  0  0  0  0  0
  -23.6970  -29.7470   20.2430 C   0  0  0  0  0  2  0  0  0  0  0  0
  -24.7280  -31.0220   22.1590 N   0  0  0  0  0  0  0  0  0  0  0  0
  -23.5440  -32.1600   23.7480 O   0  0  0  0  0  0  0  0  0  0  0  0
  -22.7590  -29.4640   22.5820 C   0  0  0  0  0  0  0  0  0  0  0  0
  -21.4290  -29.3000   22.4570 N   0  0  0  0  0  0  0  0  0  0  0  0
  -23.4230  -28.8460   23.4190 O   0  0  0  0  0  0  0  0  0  0  0  0
  -20.9470  -29.8490   21.7580 H   0  0  0  0  0  0  0  0  0  0  0  0
  -18.0450  -28.0940   22.9700 C   0  0  0  0  0  0  0  0  0  0  0  0
  -20.6050  -28.3690   23.2350 C   0  0  0  0  0  3  0  0  0  0  0  0
  -20.7100  -26.9320   22.6750 C   0  0  0  0  0  2  0  0  0  0  0  0
  -19.6100  -26.5970   21.6620 C   0  0  0  0  0  2  0  0  0  0  0  0
  -18.2270  -26.7410   22.3020 C   0  0  0  0  0  2  0  0  0  0  0  0
  -19.1610  -28.8650   23.3930 C   0  0  0  0  0  0  0  0  0  0  0  0
  -18.9340  -30.1290   23.9800 C   0  0  0  0  0  3  0  0  0  0  0  0
  -17.6270  -30.6230   24.1460 C   0  0  0  0  0  3  0  0  0  0  0  0
  -16.5270  -29.8510   23.7360 C   0  0  0  0  0  3  0  0  0  0  0  0
  -16.7360  -28.5880   23.1540 C   0  0  0  0  0  3  0  0  0  0  0  0
  -25.9030  -32.5220   23.8700 C   0  0  0  0  0  3  0  0  0  0  0  0
  -26.3990  -31.7780   25.1700 C   0  0  1  0  0  0  0  0  0  0  0  0
  -25.2910  -31.5630   26.2280 C   0  0  0  0  0  1  0  0  0  0  0  0
  -26.9880  -30.3920   24.8250 C   0  0  0  0  0  1  0  0  0  0  0  0
  -27.5400  -32.5860   25.8330 C   0  0  0  0  0  1  0  0  0  0  0  0
  -25.5790  -33.9250   24.1820 N   0  0  0  0  0  0  0  0  0  0  0  0
  -25.9180  -34.9790   23.4280 C   0  0  0  0  0  0  0  0  0  0  0  0
  -26.5980  -34.8730   22.4040 O   0  0  0  0  0  0  0  0  0  0  0  0
  -24.9750  -34.0820   24.9760 H   0  0  0  0  0  0  0  0  0  0  0  0
  -24.1960  -36.7800   23.0550 C   0  0  0  0  0  1  0  0  0  0  0  0
  -25.4290  -36.3720   23.8780 C   0  0  0  0  0  3  0  0  0  0  0  0
  -27.5550  -37.2630   24.7290 C   0  0  0  0  0  1  0  0  0  0  0  0
  -26.4640  -37.4250   23.7710 N   0  0  0  0  0  0  0  0  0  0  0  0
  -26.0560  -38.3460   23.9080 H   0  0  0  0  0  0  0  0  0  0  0  0
  1  2  1  0
  1  6  1  0
  2  4  1  0
  3  1  2  0
  6  5  1  0
  7 15  1  0
  8 13  1  0
  9 10  1  0
  9  8  1  0
 11 10  1  0
 11 20  1  0
 11 12  1  0
 13  7  1  0
 13 12  1  0
 14  7  2  0
 15  6  1  0
 16 15  1  0
 17 18  2  0
 18 37  1  0
 19 18  1  0
 19 22  1  0
 20 17  1  0
 20 21  1  0
 21 19  2  0
 22 23  1  0
 23 24  2  0
 25 28  1  0
 25 24  1  0
 26 25  2  0
 27 26  1  0
 27 22  2  0
 28 29  1  0
 29 30  1  0
 30 31  2  0
 32 31  1  0
 32 36  1  0
 33 32  2  0
 34 29  2  0
 34 33  1  0
 35 34  1  0
 37 38  1  0
 38 41  1  0
 38 40  1  0
 39 37  2  0
 42 43  1  0
 42 17  1  0
 44 42  1  0
 45  2  1  0
 45 46  1  0
 47 46  1  0
 48 59  2  0
 49 47  1  0
 49 54  1  0
 50 58  1  0
 50 60  1  0
 51 57  1  0
 51 53  1  0
 52 58  1  0
 53 54  2  0
 53 52  1  0
 55 49  2  0
 56 55  1  0
 56 51  2  0
 57 50  1  0
 58 48  1  0
 60 62  2  0
 61 60  1  0
 63 61  1  0
 64 73  2  0
 64 69  1  0
 65 61  1  0
 65 69  1  0
 66 65  1  0
 67 68  1  0
 67 66  1  0
 68 64  1  0
 69 70  2  0
 70 71  1  0
 72 71  2  0
 73 72  1  0
 74 48  1  0
 74 79  1  0
 74 75  1  0
 75 78  1  1
 75 76  1  0
 77 75  1  0
 79 82  1  0
 80 84  1  0
 80 79  1  0
 81 80  2  0
 84 83  1  0
 86 84  1  0
 86 87  1  0
 86 85  1  0
M  ISO  4   7 100  15 100  46 101  47 101
M  END
>  <TORSDO>  (48) 
F 19

>  <SCORE>  (48) 
-16.531

>  <name>  (48) 
48

>  <ligand_id>  (48) 
48

>  <original_smiles>  (48) 
[H]c1c([H])c([H])c2c(c1[H])C([H])([H])C([H])([H])C([H])([H])C2([H])N([H])C(=O)C1([H])N(C(=O)C([H])(N([H])C(=O)C([H])(N([H])C([H])([H])[H])C([H])([H])[H])C(C([H])([H])[H])(C([H])([H])[H])C([H])([H])[H])C([H])([H])c2c([H])c(OC([H])([H])C([H])([H])N([H])C(=O)C([H])(N([H])C(=O)N3C([H])([H])C([H])([H])C([H])([H])C([H])(n4nc(-c5c([H])c([H])c(Oc6c([H])c([H])c(F)c([H])c6F)c([H])c5[H])c(C(=O)N([H])[H])c4N([H])[H])C3([H])[H])C([H])([H])[H])c([H])c([H])c2C1([H])[H]

>  <smiles>  (48) 
[H]c1c([H])c([H])c2c(c1[H])C([H])([H])C([H])([H])C([H])([H])C2([H])N([H])C(=O)C1([H])N(C(=O)C([H])(N([H])C(=O)C([H])(N([H])C([H])([H])[H])C([H])([H])[H])C(C([H])([H])[H])(C([H])([H])[H])C([H])([H])[H])C([H])([H])c2c([H])c(OC([H])([H])C([H])([H])N([H])C(=O)C([H])(N([H])C(=O)N3C([H])([H])C([H])([H])C([H])([H])C([H])(n4nc(-c5c([H])c([H])c(Oc6c([H])c([H])c(F)c([H])c6F)c([H])c5[H])c(C(=O)N([H])[H])c4N([H])[H])C3([H])[H])C([H])([H])[H])c([H])c([H])c2C1([H])[H]

$$$$
49:0:0
     RDKit          3D

 88 96  0  0  1  0  0  0  0  0999 V2000
  -29.4230  -19.8930   20.5590 C   0  0  0  0  0  0  0  0  0  0  0  0
  -29.1680  -21.2530   20.0090 N   0  0  0  0  0  0  0  0  0  0  0  0
  -29.3020  -19.7920   21.7800 O   0  0  0  0  0  0  0  0  0  0  0  0
  -29.2470  -21.2500   19.0000 H   0  0  0  0  0  0  0  0  0  0  0  0
  -30.4150  -15.4330   20.1630 C   0  0  0  0  0  0  0  0  0  0  0  0
  -30.3810  -12.9570   19.3350 C   0  0  0  0  0  2  0  0  0  0  0  0
  -29.4540  -12.6850   18.1220 C   0  0  0  0  0  2  0  0  0  0  0  0
  -28.0180  -12.3790   18.5850 C   0  0  0  0  0  2  0  0  0  0  0  0
  -27.5460  -13.3600   19.6800 C   0  0  0  0  0  3  0  0  0  0  0  0
  -28.6090  -13.6080   20.7810 C   0  0  0  0  0  2  0  0  0  0  0  0
  -29.8280  -14.1220   20.1190 N   0  0  0  0  0  0  0  0  0  0  0  0
  -31.6520  -15.3850   20.0740 O   0  0  0  0  0  0  0  0  0  0  0  0
  -28.0350  -17.8380   18.5500 C   0  0  0  0  0  2  0  0  0  0  0  0
  -29.3650  -18.5320   18.3570 C   0  0  0  0  0  2  0  0  0  0  0  0
  -28.4540  -16.5410   19.2380 C   0  0  0  0  0  2  0  0  0  0  0  0
  -29.9170  -18.3960   19.7730 C   0  0  0  0  0  3  0  0  0  0  0  0
  -29.6720  -16.7420   20.0380 N   0  0  0  0  0  0  0  0  0  0  0  0
  -25.1840  -13.9500   20.4480 C   0  0  0  0  0  0  0  0  0  0  0  0
  -24.1200  -13.1830   20.8220 C   0  0  0  0  0  0  0  0  0  0  0  0
  -24.5860  -11.8320   20.8000 C   0  0  0  0  0  0  0  0  0  0  0  0
  -26.2250  -13.0670   20.2100 N   0  0  0  0  0  0  0  0  0  0  0  0
  -25.8760  -11.7870   20.4900 N   0  0  0  0  0  0  0  0  0  0  0  0
  -23.8570  -10.5760   20.9930 C   0  0  0  0  0  0  0  0  0  0  0  0
  -24.2810   -9.6170   21.9370 C   0  0  0  0  0  3  0  0  0  0  0  0
  -23.5510   -8.4240   22.1190 C   0  0  0  0  0  3  0  0  0  0  0  0
  -22.3830   -8.1850   21.3580 C   0  0  0  0  0  0  0  0  0  0  0  0
  -21.9780   -9.1340   20.4020 C   0  0  0  0  0  3  0  0  0  0  0  0
  -22.7090  -10.3180   20.2180 C   0  0  0  0  0  3  0  0  0  0  0  0
  -21.6240   -7.0450   21.4510 O   0  0  0  0  0  0  0  0  0  0  0  0
  -21.5610   -6.3170   22.6110 C   0  0  0  0  0  0  0  0  0  0  0  0
  -21.1110   -6.8840   23.8230 C   0  0  0  0  0  3  0  0  0  0  0  0
  -20.9960   -6.0810   24.9760 C   0  0  0  0  0  3  0  0  0  0  0  0
  -21.3220   -4.7130   24.9170 C   0  0  0  0  0  0  0  0  0  0  0  0
  -21.7660   -4.1450   23.7100 C   0  0  0  0  0  3  0  0  0  0  0  0
  -21.8830   -4.9460   22.5600 C   0  0  0  0  0  0  0  0  0  0  0  0
  -22.2910   -4.3900   21.3930 F   0  0  0  0  0  0  0  0  0  0  0  0
  -21.2030   -3.9400   26.0220 F   0  0  0  0  0  0  0  0  0  0  0  0
  -22.7250  -13.6690   21.0800 C   0  0  0  0  0  0  0  0  0  0  0  0
  -21.9880  -12.9840   21.9460 N   0  0  0  0  0  0  0  0  0  0  0  0
  -22.2970  -14.6950   20.5510 O   0  0  0  0  0  0  0  0  0  0  0  0
  -22.3470  -12.1560   22.3990 H   0  0  0  0  0  0  0  0  0  0  0  0
  -21.0520  -13.2930   22.1640 H   0  0  0  0  0  0  0  0  0  0  0  0
  -25.3270  -15.3200   20.2600 N   0  0  0  0  0  0  0  0  0  0  0  0
  -24.5480  -15.9590   20.3720 H   0  0  0  0  0  0  0  0  0  0  0  0
  -26.1610  -15.7720   19.9150 H   0  0  0  0  0  0  0  0  0  0  0  0
  -28.9490  -22.8160   20.5850 C   0  0  0  0  0  3  0  0  0  0  0  0
  -28.1640  -24.3180   19.9460 C   0  0  0  0  0  3  0  0  0  0  0  0
  -28.2370  -25.9320   20.3130 O   0  0  0  0  0  0  0  0  0  0  0  0
  -24.6210  -31.8740   23.2320 C   0  0  0  0  0  0  0  0  0  0  0  0
  -27.2060  -27.0090   20.2120 C   0  0  0  0  0  0  0  0  0  0  0  0
  -23.4310  -30.4730   21.5930 C   0  0  0  0  0  3  0  0  0  0  0  0
  -24.8870  -28.8720   20.1670 C   0  0  0  0  0  0  0  0  0  0  0  0
  -25.9950  -30.6950   21.4450 C   0  0  0  0  0  2  0  0  0  0  0  0
  -26.0720  -29.2850   20.7890 C   0  0  0  0  0  0  0  0  0  0  0  0
  -27.2210  -28.3740   20.7880 C   0  0  0  0  0  3  0  0  0  0  0  0
  -25.9910  -26.7480   19.5370 C   0  0  0  0  0  3  0  0  0  0  0  0
  -24.8720  -27.6250   19.5210 C   0  0  0  0  0  3  0  0  0  0  0  0
  -23.6620  -29.7870   20.2180 C   0  0  0  0  0  2  0  0  0  0  0  0
  -24.7040  -31.0420   22.1440 N   0  0  0  0  0  0  0  0  0  0  0  0
  -23.5310  -32.1620   23.7540 O   0  0  0  0  0  0  0  0  0  0  0  0
  -22.7390  -29.4780   22.5610 C   0  0  0  0  0  0  0  0  0  0  0  0
  -21.4100  -29.3100   22.4360 N   0  0  0  0  0  0  0  0  0  0  0  0
  -23.4060  -28.8580   23.3930 O   0  0  0  0  0  0  0  0  0  0  0  0
  -20.9240  -29.8610   21.7420 H   0  0  0  0  0  0  0  0  0  0  0  0
  -18.0330  -28.0780   22.9370 C   0  0  0  0  0  0  0  0  0  0  0  0
  -20.5900  -28.3690   23.2090 C   0  0  0  0  0  3  0  0  0  0  0  0
  -20.7060  -26.9350   22.6420 C   0  0  0  0  0  2  0  0  0  0  0  0
  -19.6110  -26.5980   21.6250 C   0  0  0  0  0  2  0  0  0  0  0  0
  -18.2250  -26.7300   22.2630 C   0  0  0  0  0  2  0  0  0  0  0  0
  -19.1430  -28.8540   23.3660 C   0  0  0  0  0  0  0  0  0  0  0  0
  -18.9060  -30.1130   23.9610 C   0  0  0  0  0  3  0  0  0  0  0  0
  -17.5960  -30.5980   24.1260 C   0  0  0  0  0  3  0  0  0  0  0  0
  -16.5010  -29.8200   23.7100 C   0  0  0  0  0  3  0  0  0  0  0  0
  -16.7200  -28.5620   23.1220 C   0  0  0  0  0  3  0  0  0  0  0  0
  -25.8910  -32.5210   23.8640 C   0  0  0  0  0  3  0  0  0  0  0  0
  -25.5720  -33.9230   24.1920 N   0  0  0  0  0  0  0  0  0  0  0  0
  -25.9020  -34.9820   23.4410 C   0  0  0  0  0  0  0  0  0  0  0  0
  -26.5700  -34.8820   22.4090 O   0  0  0  0  0  0  0  0  0  0  0  0
  -24.9750  -34.0730   24.9920 H   0  0  0  0  0  0  0  0  0  0  0  0
  -24.1720  -36.7820   23.1060 C   0  0  0  0  0  1  0  0  0  0  0  0
  -25.4200  -36.3720   23.9060 C   0  0  0  0  0  3  0  0  0  0  0  0
  -27.5570  -37.2610   24.7260 C   0  0  0  0  0  1  0  0  0  0  0  0
  -26.4510  -37.4260   23.7870 N   0  0  0  0  0  0  0  0  0  0  0  0
  -26.0450  -38.3460   23.9330 H   0  0  0  0  0  0  0  0  0  0  0  0
  -26.3920  -31.7650   25.1570 C   0  0  1  0  0  0  0  0  0  0  0  0
  -25.2880  -31.5430   26.2180 C   0  0  0  0  0  1  0  0  0  0  0  0
  -26.9760  -30.3800   24.7950 C   0  0  0  0  0  1  0  0  0  0  0  0
  -27.5390  -32.5640   25.8200 C   0  0  0  0  0  1  0  0  0  0  0  0
  1  3  2  0
  2  1  1  0
  2 46  1  0
  4  2  1  0
  6 11  1  0
  7  8  1  0
  7  6  1  0
  9  8  1  0
  9 21  1  0
  9 10  1  0
 11  5  1  0
 11 10  1  0
 12  5  2  0
 13 15  1  0
 14 13  1  0
 14 16  1  0
 15 17  1  0
 16 17  1  0
 16  1  1  0
 17  5  1  0
 18 19  2  0
 19 38  1  0
 20 19  1  0
 20 23  1  0
 21 18  1  0
 21 22  1  0
 22 20  2  0
 23 24  1  0
 24 25  2  0
 26 29  1  0
 26 25  1  0
 27 26  2  0
 28 27  1  0
 28 23  2  0
 29 30  1  0
 30 31  1  0
 31 32  2  0
 33 32  1  0
 33 37  1  0
 34 33  2  0
 35 30  2  0
 35 34  1  0
 36 35  1  0
 38 39  1  0
 39 42  1  0
 39 41  1  0
 40 38  2  0
 43 44  1  0
 43 18  1  0
 45 43  1  0
 47 48  1  0
 47 46  2  0
 49 60  2  0
 50 48  1  0
 50 55  1  0
 51 59  1  0
 51 61  1  0
 52 58  1  0
 52 54  1  0
 53 59  1  0
 54 53  1  0
 55 54  2  0
 56 50  2  0
 57 56  1  0
 57 52  2  0
 58 51  1  0
 59 49  1  0
 61 63  2  0
 62 61  1  0
 64 62  1  0
 65 74  2  0
 65 70  1  0
 66 62  1  0
 66 70  1  0
 67 66  1  0
 68 69  1  0
 68 67  1  0
 69 65  1  0
 70 71  2  0
 71 72  1  0
 73 72  2  0
 74 73  1  0
 75 49  1  0
 75 76  1  0
 75 85  1  0
 76 79  1  0
 77 81  1  0
 77 76  1  0
 78 77  2  0
 81 80  1  0
 83 81  1  0
 83 84  1  0
 83 82  1  0
 85 88  1  1
 85 86  1  0
 87 85  1  0
M  ISO  4   5 100  17 100  47 101  48 101
M  END
>  <TORSDO>  (49) 
F 18

>  <SCORE>  (49) 
-16.300

>  <name>  (49) 
49

>  <ligand_id>  (49) 
49

>  <original_smiles>  (49) 
[H]c1c([H])c([H])c2c(c1[H])C([H])([H])C([H])([H])C([H])([H])C2([H])N([H])C(=O)C1([H])N(C(=O)C([H])(N([H])C(=O)C([H])(N([H])C([H])([H])[H])C([H])([H])[H])C(C([H])([H])[H])(C([H])([H])[H])C([H])([H])[H])C([H])([H])c2c([H])c(OC([H])([H])C([H])([H])N([H])C(=O)C3([H])N(C(=O)N4C([H])([H])C([H])([H])C([H])([H])C([H])(n5nc(-c6c([H])c([H])c(Oc7c([H])c([H])c(F)c([H])c7F)c([H])c6[H])c(C(=O)N([H])[H])c5N([H])[H])C4([H])[H])C([H])([H])C([H])([H])C3([H])[H])c([H])c([H])c2C1([H])[H]

>  <smiles>  (49) 
[H]c1c([H])c([H])c2c(c1[H])C([H])([H])C([H])([H])C([H])([H])C2([H])N([H])C(=O)C1([H])N(C(=O)C([H])(N([H])C(=O)C([H])(N([H])C([H])([H])[H])C([H])([H])[H])C(C([H])([H])[H])(C([H])([H])[H])C([H])([H])[H])C([H])([H])c2c([H])c(OC([H])([H])C([H])([H])N([H])C(=O)C3([H])N(C(=O)N4C([H])([H])C([H])([H])C([H])([H])C([H])(n5nc(-c6c([H])c([H])c(Oc7c([H])c([H])c(F)c([H])c7F)c([H])c6[H])c(C(=O)N([H])[H])c5N([H])[H])C4([H])[H])C([H])([H])C([H])([H])C3([H])[H])c([H])c([H])c2C1([H])[H]

$$$$
50:0:0
     RDKit          3D

 99106  0  0  1  0  0  0  0  0999 V2000
  -27.3840  -19.6690   16.9350 C   0  0  0  0  0  0  0  0  0  0  0  0
  -28.3610  -19.6110   16.0250 N   0  0  0  0  0  0  0  0  0  0  0  0
  -27.0600  -18.7000   17.6230 O   0  0  0  0  0  0  0  0  0  0  0  0
  -28.5670  -20.4540   15.5060 H   0  0  0  0  0  0  0  0  0  0  0  0
  -29.2820  -18.4920   15.8450 C   0  0  0  0  0  2  0  0  0  0  0  0
  -30.1810  -18.3280   17.0800 C   0  0  0  0  0  2  0  0  0  0  0  0
  -30.7840  -19.5890   17.3730 O   0  0  0  0  0  0  0  0  0  0  0  0
  -31.5480  -19.6350   18.5800 C   0  0  0  0  0  2  0  0  0  0  0  0
  -30.6350  -19.6830   19.8170 C   0  0  0  0  0  0  0  0  0  0  0  0
  -30.9000  -18.8080   20.7890 N   0  0  0  0  0  0  0  0  0  0  0  0
  -29.6890  -20.4690   19.8710 O   0  0  0  0  0  0  0  0  0  0  0  0
  -31.7210  -18.2150   20.6880 H   0  0  0  0  0  0  0  0  0  0  0  0
  -30.0550  -18.5310   21.9440 C   0  0  0  0  0  2  0  0  0  0  0  0
  -30.5950  -17.3220   22.7370 C   0  0  0  0  0  2  0  0  0  0  0  0
  -30.8150  -15.3830   21.1770 C   0  0  0  0  0  0  0  0  0  0  0  0
  -30.6880  -13.5380   19.5530 C   0  0  0  0  0  2  0  0  0  0  0  0
  -29.7430  -13.9070   18.3930 C   0  0  0  0  0  2  0  0  0  0  0  0
  -28.2870  -13.5470   18.7430 C   0  0  0  0  0  2  0  0  0  0  0  0
  -27.8600  -14.0820   20.1350 C   0  0  0  0  0  3  0  0  0  0  0  0
  -28.9130  -13.7260   21.2070 C   0  0  0  0  0  2  0  0  0  0  0  0
  -30.2220  -14.2360   20.7600 N   0  0  0  0  0  0  0  0  0  0  0  0
  -31.8290  -15.8530   20.6540 O   0  0  0  0  0  0  0  0  0  0  0  0
  -30.1880  -16.0350   22.1650 N   0  0  0  0  0  0  0  0  0  0  0  0
  -29.3530  -15.6070   22.5380 H   0  0  0  0  0  0  0  0  0  0  0  0
  -25.3640  -14.3140   20.7290 C   0  0  0  0  0  0  0  0  0  0  0  0
  -24.3940  -13.3820   20.9810 C   0  0  0  0  0  0  0  0  0  0  0  0
  -25.0360  -12.1090   20.8880 C   0  0  0  0  0  0  0  0  0  0  0  0
  -26.5310  -13.5990   20.5050 N   0  0  0  0  0  0  0  0  0  0  0  0
  -26.3340  -12.2630   20.6540 N   0  0  0  0  0  0  0  0  0  0  0  0
  -24.4800  -10.7510   20.9500 C   0  0  0  0  0  0  0  0  0  0  0  0
  -24.8650   -9.8400   21.9590 C   0  0  0  0  0  3  0  0  0  0  0  0
  -24.3020   -8.5470   22.0090 C   0  0  0  0  0  3  0  0  0  0  0  0
  -23.3420   -8.1540   21.0470 C   0  0  0  0  0  0  0  0  0  0  0  0
  -22.9770   -9.0560   20.0330 C   0  0  0  0  0  3  0  0  0  0  0  0
  -23.5420  -10.3420   19.9820 C   0  0  0  0  0  3  0  0  0  0  0  0
  -22.7610   -6.9090   21.0020 O   0  0  0  0  0  0  0  0  0  0  0  0
  -22.3280   -6.2740   22.1400 C   0  0  0  0  0  0  0  0  0  0  0  0
  -21.4020   -6.8740   23.0200 C   0  0  0  0  0  3  0  0  0  0  0  0
  -20.9310   -6.1590   24.1400 C   0  0  0  0  0  3  0  0  0  0  0  0
  -21.3770   -4.8440   24.3760 C   0  0  0  0  0  0  0  0  0  0  0  0
  -22.2950   -4.2440   23.4960 C   0  0  0  0  0  3  0  0  0  0  0  0
  -22.7670   -4.9570   22.3800 C   0  0  0  0  0  0  0  0  0  0  0  0
  -23.6360   -4.3650   21.5250 F   0  0  0  0  0  0  0  0  0  0  0  0
  -20.9190   -4.1550   25.4460 F   0  0  0  0  0  0  0  0  0  0  0  0
  -22.9320  -13.6480   21.2020 C   0  0  0  0  0  0  0  0  0  0  0  0
  -22.2710  -12.8140   21.9970 N   0  0  0  0  0  0  0  0  0  0  0  0
  -22.3800  -14.6300   20.7090 O   0  0  0  0  0  0  0  0  0  0  0  0
  -22.7280  -12.0200   22.4190 H   0  0  0  0  0  0  0  0  0  0  0  0
  -21.2920  -12.9750   22.1870 H   0  0  0  0  0  0  0  0  0  0  0  0
  -25.3480  -15.7040   20.6560 N   0  0  0  0  0  0  0  0  0  0  0  0
  -24.4900  -16.2350   20.7520 H   0  0  0  0  0  0  0  0  0  0  0  0
  -26.1430  -16.2800   20.4130 H   0  0  0  0  0  0  0  0  0  0  0  0
  -26.6880  -21.0220   17.1150 C   0  0  0  0  0  2  0  0  0  0  0  0
  -27.1880  -21.7740   18.3610 C   0  0  0  0  0  2  0  0  0  0  0  0
  -27.4510  -23.2670   18.1070 C   0  0  0  0  0  2  0  0  0  0  0  0
  -28.3320  -23.8750   19.2060 C   0  0  0  0  0  2  0  0  0  0  0  0
  -28.8760  -25.2720   18.8630 C   0  0  0  0  0  2  0  0  0  0  0  0
  -29.3990  -25.9860   20.1230 C   0  0  0  0  0  2  0  0  0  0  0  0
  -29.2960  -27.4060   20.0370 O   0  0  0  0  0  0  0  0  0  0  0  0
  -25.0790  -31.6170   23.8980 C   0  0  0  0  0  0  0  0  0  0  0  0
  -28.0400  -27.9580   20.1640 C   0  0  0  0  0  0  0  0  0  0  0  0
  -23.9590  -30.3460   22.0960 C   0  0  0  0  0  3  0  0  0  0  0  0
  -25.5050  -29.1780   20.4460 C   0  0  0  0  0  0  0  0  0  0  0  0
  -26.4280  -30.9900   21.9000 C   0  0  0  0  0  2  0  0  0  0  0  0
  -26.6250  -29.7390   21.0690 C   0  0  0  0  0  0  0  0  0  0  0  0
  -27.8950  -29.1410   20.9190 C   0  0  0  0  0  3  0  0  0  0  0  0
  -26.8910  -27.3920   19.5600 C   0  0  0  0  0  3  0  0  0  0  0  0
  -25.6300  -28.0010   19.6910 C   0  0  0  0  0  3  0  0  0  0  0  0
  -24.1860  -29.8920   20.6310 C   0  0  0  0  0  2  0  0  0  0  0  0
  -25.1740  -30.9900   22.6920 N   0  0  0  0  0  0  0  0  0  0  0  0
  -23.9940  -31.7000   24.4910 O   0  0  0  0  0  0  0  0  0  0  0  0
  -23.4420  -29.1390   22.9110 C   0  0  0  0  0  0  0  0  0  0  0  0
  -22.3400  -28.5320   22.4440 N   0  0  0  0  0  0  0  0  0  0  0  0
  -24.0420  -28.7520   23.9170 O   0  0  0  0  0  0  0  0  0  0  0  0
  -21.9040  -28.9150   21.6160 H   0  0  0  0  0  0  0  0  0  0  0  0
  -19.8360  -25.9980   21.8480 C   0  0  0  0  0  0  0  0  0  0  0  0
  -21.6950  -27.3550   23.0240 C   0  0  0  0  0  3  0  0  0  0  0  0
  -22.5770  -26.0970   22.8590 C   0  0  0  0  0  2  0  0  0  0  0  0
  -22.2530  -25.2940   21.5950 C   0  0  0  0  0  2  0  0  0  0  0  0
  -20.7900  -24.8410   21.6080 C   0  0  0  0  0  2  0  0  0  0  0  0
  -20.2640  -27.1850   22.5000 C   0  0  0  0  0  0  0  0  0  0  0  0
  -19.3460  -28.2430   22.6680 C   0  0  0  0  0  3  0  0  0  0  0  0
  -18.0230  -28.1300   22.2000 C   0  0  0  0  0  3  0  0  0  0  0  0
  -17.6000  -26.9470   21.5710 C   0  0  0  0  0  3  0  0  0  0  0  0
  -18.5040  -25.8820   21.4000 C   0  0  0  0  0  3  0  0  0  0  0  0
  -26.3180  -32.2780   24.5780 C   0  0  0  0  0  3  0  0  0  0  0  0
  -25.9340  -33.6440   24.9610 N   0  0  0  0  0  0  0  0  0  0  0  0
  -26.2580  -34.7450   24.2680 C   0  0  0  0  0  0  0  0  0  0  0  0
  -26.9800  -34.7190   23.2680 O   0  0  0  0  0  0  0  0  0  0  0  0
  -25.2960  -33.7340   25.7370 H   0  0  0  0  0  0  0  0  0  0  0  0
  -24.4800  -36.4860   23.9040 C   0  0  0  0  0  1  0  0  0  0  0  0
  -25.6890  -36.0870   24.7650 C   0  0  0  0  0  3  0  0  0  0  0  0
  -27.7360  -37.0060   25.7630 C   0  0  0  0  0  1  0  0  0  0  0  0
  -26.6830  -37.1820   24.7650 N   0  0  0  0  0  0  0  0  0  0  0  0
  -26.2330  -38.0770   24.9360 H   0  0  0  0  0  0  0  0  0  0  0  0
  -26.8430  -31.4730   25.8290 C   0  0  1  0  0  0  0  0  0  0  0  0
  -25.7270  -31.0630   26.8180 C   0  0  0  0  0  1  0  0  0  0  0  0
  -27.5750  -30.1870   25.3800 C   0  0  0  0  0  1  0  0  0  0  0  0
  -27.8780  -32.3230   26.6030 C   0  0  0  0  0  1  0  0  0  0  0  0
  1 53  1  0
  1  3  2  0
  2  1  1  0
  4  2  1  0
  5  2  1  0
  5  6  1  0
  6  7  1  0
  7  8  1  0
  8  9  1  0
  9 11  2  0
  9 10  1  0
 10 13  1  0
 12 10  1  0
 13 14  1  0
 15 23  1  0
 16 21  1  0
 17 18  1  0
 17 16  1  0
 19 18  1  0
 19 28  1  0
 19 20  1  0
 21 15  1  0
 21 20  1  0
 22 15  2  0
 23 24  1  0
 23 14  1  0
 25 26  2  0
 26 45  1  0
 27 30  1  0
 27 26  1  0
 28 29  1  0
 28 25  1  0
 29 27  2  0
 30 31  1  0
 31 32  2  0
 33 32  1  0
 34 33  2  0
 35 34  1  0
 35 30  2  0
 36 33  1  0
 36 37  1  0
 37 42  2  0
 37 38  1  0
 38 39  2  0
 39 40  1  0
 40 44  1  0
 41 40  2  0
 42 41  1  0
 43 42  1  0
 45 46  1  0
 46 49  1  0
 46 48  1  0
 47 45  2  0
 50 25  1  0
 50 51  1  0
 52 50  1  0
 53 54  1  0
 55 54  1  0
 55 56  1  0
 57 56  1  0
 57 58  1  0
 59 58  1  0
 59 61  1  0
 60 71  2  0
 61 66  1  0
 62 70  1  0
 62 72  1  0
 63 69  1  0
 63 65  1  0
 64 70  1  0
 65 64  1  0
 66 65  2  0
 67 68  1  0
 67 61  2  0
 68 63  2  0
 69 62  1  0
 70 60  1  0
 72 74  2  0
 73 72  1  0
 75 73  1  0
 76 81  1  0
 77 73  1  0
 78 77  1  0
 79 80  1  0
 79 78  1  0
 80 76  1  0
 81 82  2  0
 81 77  1  0
 83 82  1  0
 84 83  2  0
 85 84  1  0
 85 76  2  0
 86 60  1  0
 86 87  1  0
 86 96  1  0
 87 90  1  0
 88 92  1  0
 88 87  1  0
 89 88  2  0
 92 91  1  0
 94 92  1  0
 94 95  1  0
 94 93  1  0
 96 99  1  1
 96 97  1  0
 98 96  1  0
M  ISO  4  15 100  23 100  58 101  59 101
M  END
>  <TORSDO>  (50) 
F 29

>  <SCORE>  (50) 
-7.216

>  <name>  (50) 
50

>  <ligand_id>  (50) 
50

>  <original_smiles>  (50) 
[H]c1c([H])c([H])c2c(c1[H])C([H])([H])C([H])([H])C([H])([H])C2([H])N([H])C(=O)C1([H])N(C(=O)C([H])(N([H])C(=O)C([H])(N([H])C([H])([H])[H])C([H])([H])[H])C(C([H])([H])[H])(C([H])([H])[H])C([H])([H])[H])C([H])([H])c2c([H])c(OC([H])([H])C([H])([H])C([H])([H])C([H])([H])C([H])([H])C([H])([H])C(=O)N([H])C([H])([H])C([H])([H])OC([H])([H])C(=O)N([H])C([H])([H])C([H])([H])N([H])C(=O)N3C([H])([H])C([H])([H])C([H])([H])C([H])(n4nc(-c5c([H])c([H])c(Oc6c([H])c([H])c(F)c([H])c6F)c([H])c5[H])c(C(=O)N([H])[H])c4N([H])[H])C3([H])[H])c([H])c([H])c2C1([H])[H]

>  <smiles>  (50) 
[H]c1c([H])c([H])c2c(c1[H])C([H])([H])C([H])([H])C([H])([H])C2([H])N([H])C(=O)C1([H])N(C(=O)C([H])(N([H])C(=O)C([H])(N([H])C([H])([H])[H])C([H])([H])[H])C(C([H])([H])[H])(C([H])([H])[H])C([H])([H])[H])C([H])([H])c2c([H])c(OC([H])([H])C([H])([H])C([H])([H])C([H])([H])C([H])([H])C([H])([H])C(=O)N([H])C([H])([H])C([H])([H])OC([H])([H])C(=O)N([H])C([H])([H])C([H])([H])N([H])C(=O)N3C([H])([H])C([H])([H])C([H])([H])C([H])(n4nc(-c5c([H])c([H])c(Oc6c([H])c([H])c(F)c([H])c6F)c([H])c5[H])c(C(=O)N([H])[H])c4N([H])[H])C3([H])[H])c([H])c([H])c2C1([H])[H]

$$$$
51:0:0
     RDKit          3D

 92 99  0  0  1  0  0  0  0  0999 V2000
  -28.1130  -23.7320   23.1490 C   0  0  0  0  0  2  0  0  0  0  0  0
  -28.5080  -25.4600   21.3950 C   0  0  0  0  0  0  0  0  0  0  0  0
  -28.8460  -24.8350   22.5320 N   0  0  0  0  0  0  0  0  0  0  0  0
  -27.6290  -25.0250   20.6460 O   0  0  0  0  0  0  0  0  0  0  0  0
  -29.5990  -25.2420   23.0720 H   0  0  0  0  0  0  0  0  0  0  0  0
  -29.2630  -26.7650   21.0750 C   0  0  0  0  0  2  0  0  0  0  0  0
  -28.7690  -27.3740   19.8790 O   0  0  0  0  0  0  0  0  0  0  0  0
  -24.6620  -32.0300   23.4030 C   0  0  0  0  0  0  0  0  0  0  0  0
  -27.5740  -28.0400   19.9950 C   0  0  0  0  0  0  0  0  0  0  0  0
  -23.5370  -30.6760   21.6630 C   0  0  0  0  0  3  0  0  0  0  0  0
  -25.0810  -29.3510   20.1260 C   0  0  0  0  0  0  0  0  0  0  0  0
  -26.0300  -31.2210   21.4890 C   0  0  0  0  0  2  0  0  0  0  0  0
  -26.2010  -29.9080   20.7570 C   0  0  0  0  0  0  0  0  0  0  0  0
  -27.4500  -29.2550   20.7010 C   0  0  0  0  0  3  0  0  0  0  0  0
  -26.4460  -27.4970   19.3490 C   0  0  0  0  0  3  0  0  0  0  0  0
  -25.1940  -28.1390   19.4240 C   0  0  0  0  0  3  0  0  0  0  0  0
  -23.7820  -30.1140   20.2360 C   0  0  0  0  0  2  0  0  0  0  0  0
  -24.7610  -31.3200   22.2440 N   0  0  0  0  0  0  0  0  0  0  0  0
  -23.5700  -32.1890   23.9640 O   0  0  0  0  0  0  0  0  0  0  0  0
  -22.9640  -29.5460   22.5450 C   0  0  0  0  0  0  0  0  0  0  0  0
  -21.6650  -29.2540   22.3710 N   0  0  0  0  0  0  0  0  0  0  0  0
  -23.6830  -28.9370   23.3410 O   0  0  0  0  0  0  0  0  0  0  0  0
  -21.1410  -29.8050   21.7040 H   0  0  0  0  0  0  0  0  0  0  0  0
  -18.4120  -27.7100   22.6660 C   0  0  0  0  0  0  0  0  0  0  0  0
  -20.9180  -28.2030   23.0640 C   0  0  0  0  0  3  0  0  0  0  0  0
  -21.1880  -26.8190   22.4310 C   0  0  0  0  0  2  0  0  0  0  0  0
  -20.1650  -26.4380   21.3550 C   0  0  0  0  0  2  0  0  0  0  0  0
  -18.7500  -26.4170   21.9420 C   0  0  0  0  0  2  0  0  0  0  0  0
  -19.4310  -28.5560   23.1790 C   0  0  0  0  0  0  0  0  0  0  0  0
  -19.0640  -29.7640   23.8120 C   0  0  0  0  0  3  0  0  0  0  0  0
  -17.7100  -30.1280   23.9400 C   0  0  0  0  0  3  0  0  0  0  0  0
  -16.7050  -29.2770   23.4460 C   0  0  0  0  0  3  0  0  0  0  0  0
  -17.0560  -28.0720   22.8140 C   0  0  0  0  0  3  0  0  0  0  0  0
  -25.9110  -32.6940   24.0640 C   0  0  0  0  0  3  0  0  0  0  0  0
  -26.3710  -31.9710   25.3890 C   0  0  1  0  0  0  0  0  0  0  0  0
  -25.2240  -31.7360   26.3990 C   0  0  0  0  0  1  0  0  0  0  0  0
  -27.0090  -30.6000   25.0660 C   0  0  0  0  0  1  0  0  0  0  0  0
  -27.4640  -32.8110   26.0920 C   0  0  0  0  0  1  0  0  0  0  0  0
  -25.5770  -34.1000   24.3270 N   0  0  0  0  0  0  0  0  0  0  0  0
  -25.9360  -35.1250   23.5430 C   0  0  0  0  0  0  0  0  0  0  0  0
  -26.6530  -34.9890   22.5480 O   0  0  0  0  0  0  0  0  0  0  0  0
  -24.9470  -34.2800   25.0950 H   0  0  0  0  0  0  0  0  0  0  0  0
  -24.2040  -36.8770   23.0440 C   0  0  0  0  0  1  0  0  0  0  0  0
  -25.4150  -36.5250   23.9230 C   0  0  0  0  0  3  0  0  0  0  0  0
  -27.5040  -37.4670   24.8030 C   0  0  0  0  0  1  0  0  0  0  0  0
  -26.4400  -37.5850   23.8100 N   0  0  0  0  0  0  0  0  0  0  0  0
  -26.0190  -38.5060   23.9000 H   0  0  0  0  0  0  0  0  0  0  0  0
  -27.9780  -22.4760   22.2650 C   0  0  0  0  0  2  0  0  0  0  0  0
  -29.2960  -21.9740   21.6550 C   0  0  0  0  0  2  0  0  0  0  0  0
  -29.1430  -20.5520   21.0940 C   0  0  0  0  0  2  0  0  0  0  0  0
  -30.4670  -19.9530   20.6090 C   0  0  0  0  0  2  0  0  0  0  0  0
  -30.4380  -18.4170   20.6110 C   0  0  0  0  0  2  0  0  0  0  0  0
  -31.7700  -17.8120   20.1460 C   0  0  0  0  0  2  0  0  0  0  0  0
  -32.0790  -16.4440   20.7770 C   0  0  0  0  0  2  0  0  0  0  0  0
  -31.2810  -14.5390   19.3990 C   0  0  0  0  0  0  0  0  0  0  0  0
  -30.8850  -12.1990   18.7360 C   0  0  0  0  0  2  0  0  0  0  0  0
  -29.8470  -12.0400   17.6150 C   0  0  0  0  0  2  0  0  0  0  0  0
  -28.4250  -11.9700   18.2000 C   0  0  0  0  0  2  0  0  0  0  0  0
  -28.1380  -13.1250   19.1940 C   0  0  0  0  0  3  0  0  0  0  0  0
  -29.2740  -13.2620   20.2330 C   0  0  0  0  0  2  0  0  0  0  0  0
  -30.5570  -13.4000   19.5180 N   0  0  0  0  0  0  0  0  0  0  0  0
  -32.1520  -14.7070   18.5400 O   0  0  0  0  0  0  0  0  0  0  0  0
  -31.1270  -15.3980   20.4130 N   0  0  0  0  0  0  0  0  0  0  0  0
  -30.4100  -15.1710   21.0870 H   0  0  0  0  0  0  0  0  0  0  0  0
  -25.9290  -13.9190   20.2560 C   0  0  0  0  0  0  0  0  0  0  0  0
  -24.8420  -13.2330   20.7270 C   0  0  0  0  0  0  0  0  0  0  0  0
  -25.1480  -11.8480   20.5610 C   0  0  0  0  0  0  0  0  0  0  0  0
  -26.8360  -12.9570   19.8380 N   0  0  0  0  0  0  0  0  0  0  0  0
  -26.3740  -11.7020   20.0760 N   0  0  0  0  0  0  0  0  0  0  0  0
  -24.3220  -10.6540   20.7830 C   0  0  0  0  0  0  0  0  0  0  0  0
  -24.7090   -9.6470   21.6960 C   0  0  0  0  0  3  0  0  0  0  0  0
  -23.8910   -8.5170   21.9060 C   0  0  0  0  0  3  0  0  0  0  0  0
  -22.6690   -8.3850   21.2030 C   0  0  0  0  0  0  0  0  0  0  0  0
  -22.2990   -9.3780   20.2790 C   0  0  0  0  0  3  0  0  0  0  0  0
  -23.1180  -10.5000   20.0670 C   0  0  0  0  0  3  0  0  0  0  0  0
  -21.8230   -7.3100   21.3240 O   0  0  0  0  0  0  0  0  0  0  0  0
  -21.6820   -6.6330   22.5080 C   0  0  0  0  0  0  0  0  0  0  0  0
  -21.2610   -7.2800   23.6910 C   0  0  0  0  0  3  0  0  0  0  0  0
  -21.0620   -6.5330   24.8700 C   0  0  0  0  0  3  0  0  0  0  0  0
  -21.2750   -5.1410   24.8670 C   0  0  0  0  0  0  0  0  0  0  0  0
  -21.6890   -4.4940   23.6880 C   0  0  0  0  0  3  0  0  0  0  0  0
  -21.8890   -5.2380   22.5120 C   0  0  0  0  0  0  0  0  0  0  0  0
  -22.2670   -4.6070   21.3750 F   0  0  0  0  0  0  0  0  0  0  0  0
  -21.0770   -4.4210   25.9950 F   0  0  0  0  0  0  0  0  0  0  0  0
  -23.5520  -13.8260   21.2160 C   0  0  0  0  0  0  0  0  0  0  0  0
  -22.8920  -13.1660   22.1620 N   0  0  0  0  0  0  0  0  0  0  0  0
  -23.1450  -14.9080   20.7950 O   0  0  0  0  0  0  0  0  0  0  0  0
  -23.2370  -12.2890   22.5240 H   0  0  0  0  0  0  0  0  0  0  0  0
  -22.0300  -13.5440   22.5290 H   0  0  0  0  0  0  0  0  0  0  0  0
  -26.2140  -15.2750   20.1310 N   0  0  0  0  0  0  0  0  0  0  0  0
  -25.5490  -15.9960   20.3870 H   0  0  0  0  0  0  0  0  0  0  0  0
  -27.0670  -15.6460   19.7290 H   0  0  0  0  0  0  0  0  0  0  0  0
  2  3  1  0
  3  5  1  0
  3  1  1  0
  4  2  2  0
  6  2  1  0
  7  9  1  0
  7  6  1  0
  8 19  2  0
  9 14  1  0
 10 18  1  0
 10 20  1  0
 11 17  1  0
 11 13  1  0
 12 18  1  0
 13 12  1  0
 14 13  2  0
 15 16  1  0
 15  9  2  0
 16 11  2  0
 17 10  1  0
 18  8  1  0
 20 22  2  0
 21 20  1  0
 23 21  1  0
 24 33  2  0
 24 29  1  0
 25 21  1  0
 25 29  1  0
 26 25  1  0
 27 28  1  0
 27 26  1  0
 28 24  1  0
 29 30  2  0
 30 31  1  0
 32 31  2  0
 33 32  1  0
 34  8  1  0
 34 39  1  0
 34 35  1  0
 35 38  1  1
 35 36  1  0
 37 35  1  0
 39 42  1  0
 40 44  1  0
 40 39  1  0
 41 40  2  0
 44 43  1  0
 46 47  1  0
 46 44  1  0
 46 45  1  0
 48  1  1  0
 49 48  1  0
 50 49  1  0
 51 52  1  0
 51 50  1  0
 53 52  1  0
 53 54  1  0
 55 61  1  0
 55 63  1  0
 56 61  1  0
 57 58  1  0
 57 56  1  0
 59 58  1  0
 59 68  1  0
 59 60  1  0
 61 60  1  0
 62 55  2  0
 63 54  1  0
 63 64  1  0
 65 66  2  0
 66 85  1  0
 67 66  1  0
 67 70  1  0
 68 69  1  0
 68 65  1  0
 69 67  2  0
 70 71  1  0
 71 72  2  0
 73 76  1  0
 73 72  1  0
 74 73  2  0
 75 74  1  0
 75 70  2  0
 76 77  1  0
 77 82  2  0
 77 78  1  0
 78 79  2  0
 80 79  1  0
 80 84  1  0
 81 80  2  0
 82 81  1  0
 83 82  1  0
 85 86  1  0
 86 88  1  0
 86 89  1  0
 87 85  2  0
 90 65  1  0
 90 91  1  0
 92 90  1  0
M  ISO  4   6 101   7 101  55 100  63 100
M  END
>  <TORSDO>  (51) 
F 25

>  <SCORE>  (51) 
-9.928

>  <name>  (51) 
51

>  <ligand_id>  (51) 
51

>  <original_smiles>  (51) 
[H]c1c([H])c([H])c2c(c1[H])C([H])([H])C([H])([H])C([H])([H])C2([H])N([H])C(=O)C1([H])N(C(=O)C([H])(N([H])C(=O)C([H])(N([H])C([H])([H])[H])C([H])([H])[H])C(C([H])([H])[H])(C([H])([H])[H])C([H])([H])[H])C([H])([H])c2c([H])c(OC([H])([H])C(=O)N([H])C([H])([H])C([H])([H])C([H])([H])C([H])([H])C([H])([H])C([H])([H])C([H])([H])C([H])([H])N([H])C(=O)N3C([H])([H])C([H])([H])C([H])([H])C([H])(n4nc(-c5c([H])c([H])c(Oc6c([H])c([H])c(F)c([H])c6F)c([H])c5[H])c(C(=O)N([H])[H])c4N([H])[H])C3([H])[H])c([H])c([H])c2C1([H])[H]

>  <smiles>  (51) 
[H]c1c([H])c([H])c2c(c1[H])C([H])([H])C([H])([H])C([H])([H])C2([H])N([H])C(=O)C1([H])N(C(=O)C([H])(N([H])C(=O)C([H])(N([H])C([H])([H])[H])C([H])([H])[H])C(C([H])([H])[H])(C([H])([H])[H])C([H])([H])[H])C([H])([H])c2c([H])c(OC([H])([H])C(=O)N([H])C([H])([H])C([H])([H])C([H])([H])C([H])([H])C([H])([H])C([H])([H])C([H])([H])C([H])([H])N([H])C(=O)N3C([H])([H])C([H])([H])C([H])([H])C([H])(n4nc(-c5c([H])c([H])c(Oc6c([H])c([H])c(F)c([H])c6F)c([H])c5[H])c(C(=O)N([H])[H])c4N([H])[H])C3([H])[H])c([H])c([H])c2C1([H])[H]

$$$$
52:0:0
     RDKit          3D

 91 98  0  0  1  0  0  0  0  0999 V2000
  -28.6870  -24.2710   19.8180 C   0  0  0  0  0  0  0  0  0  0  0  0
  -28.6640  -23.0330   20.3340 N   0  0  0  0  0  0  0  0  0  0  0  0
  -28.9710  -24.4920   18.6380 O   0  0  0  0  0  0  0  0  0  0  0  0
  -28.4210  -22.9600   21.3150 H   0  0  0  0  0  0  0  0  0  0  0  0
  -28.3490  -25.4200   20.7860 C   0  0  0  0  0  2  0  0  0  0  0  0
  -28.4370  -26.7030   20.1440 O   0  0  0  0  0  0  0  0  0  0  0  0
  -24.6180  -31.8700   23.2070 C   0  0  0  0  0  0  0  0  0  0  0  0
  -27.2710  -27.4290   20.1410 C   0  0  0  0  0  0  0  0  0  0  0  0
  -23.4190  -30.4700   21.5550 C   0  0  0  0  0  3  0  0  0  0  0  0
  -24.8790  -28.9280   20.1400 C   0  0  0  0  0  0  0  0  0  0  0  0
  -25.9460  -30.8240   21.3730 C   0  0  0  0  0  2  0  0  0  0  0  0
  -26.0330  -29.4540   20.7350 C   0  0  0  0  0  0  0  0  0  0  0  0
  -27.2350  -28.7130   20.7300 C   0  0  0  0  0  3  0  0  0  0  0  0
  -26.1060  -26.9110   19.5410 C   0  0  0  0  0  3  0  0  0  0  0  0
  -24.9110  -27.6570   19.5390 C   0  0  0  0  0  3  0  0  0  0  0  0
  -23.6360  -29.7870   20.1770 C   0  0  0  0  0  2  0  0  0  0  0  0
  -24.6780  -31.0690   22.1030 N   0  0  0  0  0  0  0  0  0  0  0  0
  -23.5340  -32.1430   23.7390 O   0  0  0  0  0  0  0  0  0  0  0  0
  -22.7590  -29.4500   22.5110 C   0  0  0  0  0  0  0  0  0  0  0  0
  -21.4340  -29.2750   22.3800 N   0  0  0  0  0  0  0  0  0  0  0  0
  -23.4380  -28.8180   23.3250 O   0  0  0  0  0  0  0  0  0  0  0  0
  -20.9510  -29.8360   21.6910 H   0  0  0  0  0  0  0  0  0  0  0  0
  -18.0530  -28.0980   22.8610 C   0  0  0  0  0  0  0  0  0  0  0  0
  -20.6100  -28.3400   23.1450 C   0  0  0  0  0  3  0  0  0  0  0  0
  -20.7090  -26.9090   22.5660 C   0  0  0  0  0  2  0  0  0  0  0  0
  -19.6090  -26.5960   21.5470 C   0  0  0  0  0  2  0  0  0  0  0  0
  -18.2250  -26.7490   22.1850 C   0  0  0  0  0  2  0  0  0  0  0  0
  -19.1740  -28.8520   23.2980 C   0  0  0  0  0  0  0  0  0  0  0  0
  -18.9610  -30.1170   23.8880 C   0  0  0  0  0  3  0  0  0  0  0  0
  -17.6590  -30.6250   24.0510 C   0  0  0  0  0  3  0  0  0  0  0  0
  -16.5520  -29.8680   23.6310 C   0  0  0  0  0  3  0  0  0  0  0  0
  -16.7490  -28.6060   23.0390 C   0  0  0  0  0  3  0  0  0  0  0  0
  -25.9020  -32.4940   23.8370 C   0  0  0  0  0  3  0  0  0  0  0  0
  -25.5960  -33.8920   24.1710 N   0  0  0  0  0  0  0  0  0  0  0  0
  -25.9300  -34.9440   23.4140 C   0  0  0  0  0  0  0  0  0  0  0  0
  -26.6010  -34.8440   22.3820 O   0  0  0  0  0  0  0  0  0  0  0  0
  -25.0100  -34.0470   24.9790 H   0  0  0  0  0  0  0  0  0  0  0  0
  -24.2030  -36.7350   23.0590 C   0  0  0  0  0  1  0  0  0  0  0  0
  -25.4420  -36.3320   23.8740 C   0  0  0  0  0  3  0  0  0  0  0  0
  -27.5760  -37.2100   24.7110 C   0  0  0  0  0  1  0  0  0  0  0  0
  -26.4740  -37.3850   23.7670 N   0  0  0  0  0  0  0  0  0  0  0  0
  -26.0690  -38.3060   23.9190 H   0  0  0  0  0  0  0  0  0  0  0  0
  -26.4160  -31.7160   25.1090 C   0  0  1  0  0  0  0  0  0  0  0  0
  -25.3190  -31.4730   26.1720 C   0  0  0  0  0  1  0  0  0  0  0  0
  -26.9950  -30.3390   24.7080 C   0  0  0  0  0  1  0  0  0  0  0  0
  -27.5690  -32.5020   25.7740 C   0  0  0  0  0  1  0  0  0  0  0  0
  -28.9750  -21.7710   19.6550 C   0  0  0  0  0  2  0  0  0  0  0  0
  -30.1540  -21.0670   20.3520 C   0  0  0  0  0  2  0  0  0  0  0  0
  -30.4500  -19.6480   19.8340 C   0  0  0  0  0  2  0  0  0  0  0  0
  -31.5140  -18.9200   20.6850 C   0  0  0  0  0  2  0  0  0  0  0  0
  -31.5280  -17.3870   20.4980 C   0  0  0  0  0  2  0  0  0  0  0  0
  -30.7970  -14.4340   20.3110 C   0  0  0  0  0  0  0  0  0  0  0  0
  -30.4040  -12.3550   19.0590 C   0  0  0  0  0  2  0  0  0  0  0  0
  -29.4160  -12.6460   17.9120 C   0  0  0  0  0  2  0  0  0  0  0  0
  -27.9540  -12.5330   18.3960 C   0  0  0  0  0  2  0  0  0  0  0  0
  -27.6920  -13.3150   19.7100 C   0  0  0  0  0  3  0  0  0  0  0  0
  -28.7790  -12.9860   20.7570 C   0  0  0  0  0  2  0  0  0  0  0  0
  -30.0980  -13.2790   20.1590 N   0  0  0  0  0  0  0  0  0  0  0  0
  -31.8640  -14.6470   19.7250 O   0  0  0  0  0  0  0  0  0  0  0  0
  -30.4290  -16.6360   21.2820 C   0  0  0  0  0  0  0  0  0  0  0  0
  -30.1850  -15.3310   21.0960 N   0  0  0  0  0  0  0  0  0  0  0  0
  -29.7280  -17.2570   22.0840 O   0  0  0  0  0  0  0  0  0  0  0  0
  -29.3830  -14.9720   21.5840 H   0  0  0  0  0  0  0  0  0  0  0  0
  -25.3160  -13.9520   20.4840 C   0  0  0  0  0  0  0  0  0  0  0  0
  -24.2490  -13.1890   20.8780 C   0  0  0  0  0  0  0  0  0  0  0  0
  -24.6930  -11.8320   20.8230 C   0  0  0  0  0  0  0  0  0  0  0  0
  -26.3470  -13.0600   20.2220 N   0  0  0  0  0  0  0  0  0  0  0  0
  -25.9740  -11.7820   20.4780 N   0  0  0  0  0  0  0  0  0  0  0  0
  -23.9580  -10.5770   21.0200 C   0  0  0  0  0  0  0  0  0  0  0  0
  -24.4070   -9.5940   21.9280 C   0  0  0  0  0  3  0  0  0  0  0  0
  -23.6750   -8.4020   22.1170 C   0  0  0  0  0  3  0  0  0  0  0  0
  -22.4760   -8.1850   21.3980 C   0  0  0  0  0  0  0  0  0  0  0  0
  -22.0430   -9.1560   20.4770 C   0  0  0  0  0  3  0  0  0  0  0  0
  -22.7770  -10.3390   20.2880 C   0  0  0  0  0  3  0  0  0  0  0  0
  -21.7120   -7.0470   21.4980 O   0  0  0  0  0  0  0  0  0  0  0  0
  -21.6880   -6.2940   22.6440 C   0  0  0  0  0  0  0  0  0  0  0  0
  -21.3130   -6.8430   23.8880 C   0  0  0  0  0  3  0  0  0  0  0  0
  -21.2370   -6.0160   25.0260 C   0  0  0  0  0  3  0  0  0  0  0  0
  -21.5240   -4.6430   24.9220 C   0  0  0  0  0  0  0  0  0  0  0  0
  -21.8920   -4.0940   23.6810 C   0  0  0  0  0  3  0  0  0  0  0  0
  -21.9710   -4.9150   22.5430 C   0  0  0  0  0  0  0  0  0  0  0  0
  -22.3050   -4.3770   21.3450 F   0  0  0  0  0  0  0  0  0  0  0  0
  -21.4420   -3.8480   26.0130 F   0  0  0  0  0  0  0  0  0  0  0  0
  -22.8660  -13.6800   21.1970 C   0  0  0  0  0  0  0  0  0  0  0  0
  -22.1570  -12.9830   22.0780 N   0  0  0  0  0  0  0  0  0  0  0  0
  -22.4220  -14.7150   20.7010 O   0  0  0  0  0  0  0  0  0  0  0  0
  -22.5300  -12.1470   22.5030 H   0  0  0  0  0  0  0  0  0  0  0  0
  -21.2300  -13.2920   22.3340 H   0  0  0  0  0  0  0  0  0  0  0  0
  -25.4930  -15.3190   20.3090 N   0  0  0  0  0  0  0  0  0  0  0  0
  -24.7430  -15.9890   20.4420 H   0  0  0  0  0  0  0  0  0  0  0  0
  -26.3440  -15.7440   19.9600 H   0  0  0  0  0  0  0  0  0  0  0  0
  1  2  1  0
  1  5  1  0
  2  4  1  0
  3  1  2  0
  6  5  1  0
  7 18  2  0
  8  6  1  0
  8 13  1  0
  9 17  1  0
  9 19  1  0
 10 16  1  0
 10 12  1  0
 11 17  1  0
 12 11  1  0
 13 12  2  0
 14  8  2  0
 15 14  1  0
 15 10  2  0
 16  9  1  0
 17  7  1  0
 19 21  2  0
 20 19  1  0
 22 20  1  0
 23 32  2  0
 23 28  1  0
 24 20  1  0
 24 28  1  0
 25 24  1  0
 26 27  1  0
 26 25  1  0
 27 23  1  0
 28 29  2  0
 29 30  1  0
 31 30  2  0
 32 31  1  0
 33  7  1  0
 33 34  1  0
 33 43  1  0
 34 37  1  0
 35 39  1  0
 35 34  1  0
 36 35  2  0
 39 38  1  0
 41 39  1  0
 41 42  1  0
 41 40  1  0
 43 46  1  1
 43 44  1  0
 45 43  1  0
 47  2  1  0
 47 48  1  0
 49 48  1  0
 49 50  1  0
 51 50  1  0
 51 60  1  0
 52 61  1  0
 53 58  1  0
 54 55  1  0
 54 53  1  0
 56 55  1  0
 56 67  1  0
 56 57  1  0
 58 52  1  0
 58 57  1  0
 59 52  2  0
 60 62  2  0
 61 60  1  0
 61 63  1  0
 64 65  2  0
 65 84  1  0
 66 65  1  0
 66 69  1  0
 67 68  1  0
 67 64  1  0
 68 66  2  0
 69 70  1  0
 70 71  2  0
 72 75  1  0
 72 71  1  0
 73 72  2  0
 74 73  1  0
 74 69  2  0
 75 76  1  0
 76 77  1  0
 77 78  2  0
 79 78  1  0
 79 83  1  0
 80 79  2  0
 81 76  2  0
 81 80  1  0
 82 81  1  0
 84 85  1  0
 85 88  1  0
 85 87  1  0
 86 84  2  0
 89 90  1  0
 89 64  1  0
 91 89  1  0
M  ISO  4   5 101   6 101  52 100  61 100
M  END
>  <TORSDO>  (52) 
F 22

>  <SCORE>  (52) 
-13.103

>  <name>  (52) 
52

>  <ligand_id>  (52) 
52

>  <original_smiles>  (52) 
[H]c1c([H])c([H])c2c(c1[H])C([H])([H])C([H])([H])C([H])([H])C2([H])N([H])C(=O)C1([H])N(C(=O)C([H])(N([H])C(=O)C([H])(N([H])C([H])([H])[H])C([H])([H])[H])C(C([H])([H])[H])(C([H])([H])[H])C([H])([H])[H])C([H])([H])c2c([H])c(OC([H])([H])C(=O)N([H])C([H])([H])C([H])([H])C([H])([H])C([H])([H])C([H])([H])C(=O)N([H])C(=O)N3C([H])([H])C([H])([H])C([H])([H])C([H])(n4nc(-c5c([H])c([H])c(Oc6c([H])c([H])c(F)c([H])c6F)c([H])c5[H])c(C(=O)N([H])[H])c4N([H])[H])C3([H])[H])c([H])c([H])c2C1([H])[H]

>  <smiles>  (52) 
[H]c1c([H])c([H])c2c(c1[H])C([H])([H])C([H])([H])C([H])([H])C2([H])N([H])C(=O)C1([H])N(C(=O)C([H])(N([H])C(=O)C([H])(N([H])C([H])([H])[H])C([H])([H])[H])C(C([H])([H])[H])(C([H])([H])[H])C([H])([H])[H])C([H])([H])c2c([H])c(OC([H])([H])C(=O)N([H])C([H])([H])C([H])([H])C([H])([H])C([H])([H])C([H])([H])C(=O)N([H])C(=O)N3C([H])([H])C([H])([H])C([H])([H])C([H])(n4nc(-c5c([H])c([H])c(Oc6c([H])c([H])c(F)c([H])c6F)c([H])c5[H])c(C(=O)N([H])[H])c4N([H])[H])C3([H])[H])c([H])c([H])c2C1([H])[H]

$$$$
53:0:0
     RDKit          3D

 95102  0  0  1  0  0  0  0  0999 V2000
  -29.9840  -20.6010   20.1970 C   0  0  0  0  0  3  0  0  0  0  0  0
  -29.1010  -21.7330   20.8090 C   0  0  0  0  0  0  0  0  0  0  0  0
  -28.9710  -22.9010   20.1370 N   0  0  0  0  0  0  0  0  0  0  0  0
  -28.5950  -21.5670   21.9220 O   0  0  0  0  0  0  0  0  0  0  0  0
  -29.4160  -22.9470   19.2290 H   0  0  0  0  0  0  0  0  0  0  0  0
  -28.4200  -24.1720   20.6660 C   0  0  0  0  0  2  0  0  0  0  0  0
  -28.4780  -25.3570   19.6460 C   0  0  0  0  0  2  0  0  0  0  0  0
  -28.3560  -26.6920   20.2130 O   0  0  0  0  0  0  0  0  0  0  0  0
  -24.5180  -31.8880   23.2830 C   0  0  0  0  0  0  0  0  0  0  0  0
  -27.1710  -27.4210   20.1820 C   0  0  0  0  0  0  0  0  0  0  0  0
  -23.3270  -30.5160   21.6100 C   0  0  0  0  0  3  0  0  0  0  0  0
  -24.7860  -28.9790   20.1850 C   0  0  0  0  0  0  0  0  0  0  0  0
  -25.8630  -30.8460   21.4520 C   0  0  0  0  0  2  0  0  0  0  0  0
  -25.9440  -29.4790   20.7920 C   0  0  0  0  0  0  0  0  0  0  0  0
  -27.1350  -28.7100   20.7820 C   0  0  0  0  0  3  0  0  0  0  0  0
  -25.9820  -26.9410   19.5810 C   0  0  0  0  0  3  0  0  0  0  0  0
  -24.8010  -27.7110   19.5820 C   0  0  0  0  0  3  0  0  0  0  0  0
  -23.5500  -29.8520   20.2270 C   0  0  0  0  0  2  0  0  0  0  0  0
  -24.5870  -31.0990   22.1710 N   0  0  0  0  0  0  0  0  0  0  0  0
  -23.4320  -32.1600   23.8120 O   0  0  0  0  0  0  0  0  0  0  0  0
  -22.6580  -29.4840   22.5490 C   0  0  0  0  0  0  0  0  0  0  0  0
  -21.3400  -29.2840   22.3820 N   0  0  0  0  0  0  0  0  0  0  0  0
  -23.3230  -28.8660   23.3860 O   0  0  0  0  0  0  0  0  0  0  0  0
  -20.8620  -29.8330   21.6810 H   0  0  0  0  0  0  0  0  0  0  0  0
  -17.9720  -28.0320   22.7620 C   0  0  0  0  0  0  0  0  0  0  0  0
  -20.5140  -28.3350   23.1280 C   0  0  0  0  0  3  0  0  0  0  0  0
  -20.6630  -26.9050   22.5610 C   0  0  0  0  0  2  0  0  0  0  0  0
  -19.6040  -26.5590   21.5090 C   0  0  0  0  0  2  0  0  0  0  0  0
  -18.1970  -26.6830   22.1000 C   0  0  0  0  0  2  0  0  0  0  0  0
  -19.0600  -28.8160   23.2300 C   0  0  0  0  0  0  0  0  0  0  0  0
  -18.7970  -30.0790   23.8050 C   0  0  0  0  0  3  0  0  0  0  0  0
  -17.4780  -30.5550   23.9230 C   0  0  0  0  0  3  0  0  0  0  0  0
  -16.4050  -29.7680   23.4730 C   0  0  0  0  0  3  0  0  0  0  0  0
  -16.6520  -28.5100   22.8950 C   0  0  0  0  0  3  0  0  0  0  0  0
  -25.7970  -32.5100   23.9260 C   0  0  0  0  0  3  0  0  0  0  0  0
  -25.5040  -33.9200   24.2210 N   0  0  0  0  0  0  0  0  0  0  0  0
  -25.8730  -34.9500   23.4510 C   0  0  0  0  0  0  0  0  0  0  0  0
  -26.5650  -34.8160   22.4380 O   0  0  0  0  0  0  0  0  0  0  0  0
  -24.8970  -34.1020   25.0080 H   0  0  0  0  0  0  0  0  0  0  0  0
  -24.1960  -36.7730   23.0100 C   0  0  0  0  0  1  0  0  0  0  0  0
  -25.3990  -36.3550   23.8710 C   0  0  0  0  0  3  0  0  0  0  0  0
  -27.5100  -37.2190   24.7800 C   0  0  0  0  0  1  0  0  0  0  0  0
  -26.4560  -37.3830   23.7800 N   0  0  0  0  0  0  0  0  0  0  0  0
  -26.0640  -38.3150   23.8850 H   0  0  0  0  0  0  0  0  0  0  0  0
  -26.2630  -31.7570   25.2330 C   0  0  1  0  0  0  0  0  0  0  0  0
  -25.1350  -31.5590   26.2720 C   0  0  0  0  0  1  0  0  0  0  0  0
  -26.8380  -30.3640   24.8840 C   0  0  0  0  0  1  0  0  0  0  0  0
  -27.4070  -32.5470   25.9140 C   0  0  0  0  0  1  0  0  0  0  0  0
  -29.8990  -18.0470   20.2000 C   0  0  0  0  0  0  0  0  0  0  0  0
  -29.6940  -19.2590   20.7670 N   0  0  0  0  0  0  0  0  0  0  0  0
  -29.9840  -17.8820   18.9810 O   0  0  0  0  0  0  0  0  0  0  0  0
  -29.4940  -19.2730   21.7590 H   0  0  0  0  0  0  0  0  0  0  0  0
  -30.1620  -16.8670   21.1670 C   0  0  0  0  0  2  0  0  0  0  0  0
  -30.5430  -14.5180   20.2620 C   0  0  0  0  0  0  0  0  0  0  0  0
  -30.2900  -12.3280   19.1410 C   0  0  0  0  0  2  0  0  0  0  0  0
  -29.2950  -12.4960   17.9740 C   0  0  0  0  0  2  0  0  0  0  0  0
  -27.8390  -12.3350   18.4590 C   0  0  0  0  0  2  0  0  0  0  0  0
  -27.5310  -13.1860   19.7200 C   0  0  0  0  0  3  0  0  0  0  0  0
  -28.6260  -12.9700   20.7860 C   0  0  0  0  0  2  0  0  0  0  0  0
  -29.9200  -13.3110   20.1680 N   0  0  0  0  0  0  0  0  0  0  0  0
  -31.6770  -14.7260   19.8250 O   0  0  0  0  0  0  0  0  0  0  0  0
  -29.7690  -15.5040   20.7590 N   0  0  0  0  0  0  0  0  0  0  0  0
  -28.8330  -15.2300   21.0140 H   0  0  0  0  0  0  0  0  0  0  0  0
  -25.1640  -13.7900   20.5310 C   0  0  0  0  0  0  0  0  0  0  0  0
  -24.1110  -13.0140   20.9300 C   0  0  0  0  0  0  0  0  0  0  0  0
  -24.5720  -11.6620   20.8680 C   0  0  0  0  0  0  0  0  0  0  0  0
  -26.2000  -12.9110   20.2490 N   0  0  0  0  0  0  0  0  0  0  0  0
  -25.8470  -11.6270   20.5090 N   0  0  0  0  0  0  0  0  0  0  0  0
  -23.8570  -10.3960   21.0670 C   0  0  0  0  0  0  0  0  0  0  0  0
  -24.3050   -9.4360   22.0010 C   0  0  0  0  0  3  0  0  0  0  0  0
  -23.5920   -8.2330   22.1880 C   0  0  0  0  0  3  0  0  0  0  0  0
  -22.4170   -7.9820   21.4400 C   0  0  0  0  0  0  0  0  0  0  0  0
  -21.9880   -8.9300   20.4940 C   0  0  0  0  0  3  0  0  0  0  0  0
  -22.7030  -10.1240   20.3050 C   0  0  0  0  0  3  0  0  0  0  0  0
  -21.6740   -6.8320   21.5360 O   0  0  0  0  0  0  0  0  0  0  0  0
  -21.6140   -6.1090   22.6990 C   0  0  0  0  0  0  0  0  0  0  0  0
  -21.0920   -6.6550   23.8910 C   0  0  0  0  0  3  0  0  0  0  0  0
  -20.9870   -5.8550   25.0460 C   0  0  0  0  0  3  0  0  0  0  0  0
  -21.3900   -4.5080   25.0090 C   0  0  0  0  0  0  0  0  0  0  0  0
  -21.9050   -3.9580   23.8220 C   0  0  0  0  0  3  0  0  0  0  0  0
  -22.0120   -4.7560   22.6690 C   0  0  0  0  0  0  0  0  0  0  0  0
  -22.4890   -4.2180   21.5220 F   0  0  0  0  0  0  0  0  0  0  0  0
  -21.2790   -3.7350   26.1160 F   0  0  0  0  0  0  0  0  0  0  0  0
  -22.7230  -13.4820   21.2600 C   0  0  0  0  0  0  0  0  0  0  0  0
  -22.0280  -12.7670   22.1380 N   0  0  0  0  0  0  0  0  0  0  0  0
  -22.2640  -14.5170   20.7750 O   0  0  0  0  0  0  0  0  0  0  0  0
  -22.4130  -11.9280   22.5460 H   0  0  0  0  0  0  0  0  0  0  0  0
  -21.1010  -13.0620   22.4050 H   0  0  0  0  0  0  0  0  0  0  0  0
  -25.3220  -15.1650   20.3640 N   0  0  0  0  0  0  0  0  0  0  0  0
  -24.5570  -15.8150   20.5140 H   0  0  0  0  0  0  0  0  0  0  0  0
  -26.1460  -15.6070   19.9760 H   0  0  0  0  0  0  0  0  0  0  0  0
  -31.4990  -20.8580   20.4260 C   0  0  0  0  0  2  0  0  0  0  0  0
  -33.6300  -21.3980   19.1340 C   0  0  0  0  0  1  0  0  0  0  0  0
  -32.2880  -23.2690   20.1110 C   0  0  0  0  0  1  0  0  0  0  0  0
  -32.2110  -21.8650   19.4860 C   0  0  0  0  0  3  0  0  0  0  0  0
  1 92  1  0
  1 50  1  0
  1  2  1  0
  2  4  2  0
  3  6  1  0
  3  2  1  0
  5  3  1  0
  7  8  1  0
  7  6  1  0
  9 20  2  0
 10  8  1  0
 10 15  1  0
 11 19  1  0
 11 21  1  0
 12 18  1  0
 12 14  1  0
 13 19  1  0
 14 13  1  0
 15 14  2  0
 16 17  1  0
 16 10  2  0
 17 12  2  0
 18 11  1  0
 19  9  1  0
 21 23  2  0
 22 21  1  0
 24 22  1  0
 25 34  2  0
 25 30  1  0
 26 22  1  0
 26 30  1  0
 27 26  1  0
 28 29  1  0
 28 27  1  0
 29 25  1  0
 30 31  2  0
 31 32  1  0
 33 32  2  0
 34 33  1  0
 35  9  1  0
 35 36  1  0
 35 45  1  0
 36 39  1  0
 37 41  1  0
 37 36  1  0
 38 37  2  0
 41 40  1  0
 43 41  1  0
 43 44  1  0
 43 42  1  0
 45 48  1  1
 45 46  1  0
 47 45  1  0
 49 50  1  0
 49 53  1  0
 50 52  1  0
 51 49  2  0
 54 62  1  0
 55 60  1  0
 56 57  1  0
 56 55  1  0
 58 57  1  0
 58 67  1  0
 58 59  1  0
 60 54  1  0
 60 59  1  0
 61 54  2  0
 62 63  1  0
 62 53  1  0
 64 65  2  0
 65 84  1  0
 66 65  1  0
 66 69  1  0
 67 68  1  0
 67 64  1  0
 68 66  2  0
 69 70  1  0
 70 71  2  0
 72 75  1  0
 72 71  1  0
 73 72  2  0
 74 73  1  0
 74 69  2  0
 75 76  1  0
 76 77  1  0
 77 78  2  0
 79 78  1  0
 79 83  1  0
 80 79  2  0
 81 76  2  0
 81 80  1  0
 82 81  1  0
 84 85  1  0
 85 88  1  0
 85 87  1  0
 86 84  2  0
 89 90  1  0
 89 64  1  0
 91 89  1  0
 93 95  1  0
 95 94  1  0
 95 92  1  0
M  ISO  4   7 101   8 101  54 100  62 100
M  END
>  <TORSDO>  (53) 
F 23

>  <SCORE>  (53) 
-12.967

>  <name>  (53) 
53

>  <ligand_id>  (53) 
53

>  <original_smiles>  (53) 
[H]c1c([H])c([H])c2c(c1[H])C([H])([H])C([H])([H])C([H])([H])C2([H])N([H])C(=O)C1([H])N(C(=O)C([H])(N([H])C(=O)C([H])(N([H])C([H])([H])[H])C([H])([H])[H])C(C([H])([H])[H])(C([H])([H])[H])C([H])([H])[H])C([H])([H])c2c([H])c(OC([H])([H])C([H])([H])N([H])C(=O)C([H])(N([H])C(=O)C([H])([H])N([H])C(=O)N3C([H])([H])C([H])([H])C([H])([H])C([H])(n4nc(-c5c([H])c([H])c(Oc6c([H])c([H])c(F)c([H])c6F)c([H])c5[H])c(C(=O)N([H])[H])c4N([H])[H])C3([H])[H])C([H])([H])C([H])(C([H])([H])[H])C([H])([H])[H])c([H])c([H])c2C1([H])[H]

>  <smiles>  (53) 
[H]c1c([H])c([H])c2c(c1[H])C([H])([H])C([H])([H])C([H])([H])C2([H])N([H])C(=O)C1([H])N(C(=O)C([H])(N([H])C(=O)C([H])(N([H])C([H])([H])[H])C([H])([H])[H])C(C([H])([H])[H])(C([H])([H])[H])C([H])([H])[H])C([H])([H])c2c([H])c(OC([H])([H])C([H])([H])N([H])C(=O)C([H])(N([H])C(=O)C([H])([H])N([H])C(=O)N3C([H])([H])C([H])([H])C([H])([H])C([H])(n4nc(-c5c([H])c([H])c(Oc6c([H])c([H])c(F)c([H])c6F)c([H])c5[H])c(C(=O)N([H])[H])c4N([H])[H])C3([H])[H])C([H])([H])C([H])(C([H])([H])[H])C([H])([H])[H])c([H])c([H])c2C1([H])[H]

$$$$
54:0:0
     RDKit          3D

 89 96  0  0  1  0  0  0  0  0999 V2000
  -29.1290  -19.8420   20.4030 C   0  0  0  0  0  0  0  0  0  0  0  0
  -29.0930  -21.2510   19.9180 N   0  0  0  0  0  0  0  0  0  0  0  0
  -28.5030  -19.6410   21.4440 O   0  0  0  0  0  0  0  0  0  0  0  0
  -29.5610  -21.3290   19.0230 H   0  0  0  0  0  0  0  0  0  0  0  0
  -28.7070  -22.7760   20.5230 C   0  0  0  0  0  2  0  0  0  0  0  0
  -28.1280  -24.3490   19.8220 C   0  0  0  0  0  2  0  0  0  0  0  0
  -28.1790  -25.9520   20.2640 O   0  0  0  0  0  0  0  0  0  0  0  0
  -24.5810  -31.9000   23.2140 C   0  0  0  0  0  0  0  0  0  0  0  0
  -27.1650  -27.0490   20.1590 C   0  0  0  0  0  0  0  0  0  0  0  0
  -23.3980  -30.5140   21.5590 C   0  0  0  0  0  3  0  0  0  0  0  0
  -24.8590  -28.9280   20.1200 C   0  0  0  0  0  0  0  0  0  0  0  0
  -25.9640  -30.7330   21.4250 C   0  0  0  0  0  2  0  0  0  0  0  0
  -26.0410  -29.3300   20.7540 C   0  0  0  0  0  0  0  0  0  0  0  0
  -27.1840  -28.4090   20.7520 C   0  0  0  0  0  3  0  0  0  0  0  0
  -25.9560  -26.8090   19.4680 C   0  0  0  0  0  3  0  0  0  0  0  0
  -24.8420  -27.6910   19.4570 C   0  0  0  0  0  3  0  0  0  0  0  0
  -23.6350  -29.8450   20.1760 C   0  0  0  0  0  2  0  0  0  0  0  0
  -24.6700  -31.0770   22.1190 N   0  0  0  0  0  0  0  0  0  0  0  0
  -23.4890  -32.1820   23.7340 O   0  0  0  0  0  0  0  0  0  0  0  0
  -22.7050  -29.5080   22.5140 C   0  0  0  0  0  0  0  0  0  0  0  0
  -21.3770  -29.3340   22.3790 N   0  0  0  0  0  0  0  0  0  0  0  0
  -23.3690  -28.8850   23.3450 O   0  0  0  0  0  0  0  0  0  0  0  0
  -20.8940  -29.8880   21.6860 H   0  0  0  0  0  0  0  0  0  0  0  0
  -18.0010  -28.0920   22.8580 C   0  0  0  0  0  0  0  0  0  0  0  0
  -20.5570  -28.3830   23.1390 C   0  0  0  0  0  3  0  0  0  0  0  0
  -20.6770  -26.9560   22.5570 C   0  0  0  0  0  2  0  0  0  0  0  0
  -19.5840  -26.6280   21.5340 C   0  0  0  0  0  2  0  0  0  0  0  0
  -18.1970  -26.7510   22.1700 C   0  0  0  0  0  2  0  0  0  0  0  0
  -19.1090  -28.8650   23.2980 C   0  0  0  0  0  0  0  0  0  0  0  0
  -18.8700  -30.1170   23.9050 C   0  0  0  0  0  3  0  0  0  0  0  0
  -17.5570  -30.5980   24.0720 C   0  0  0  0  0  3  0  0  0  0  0  0
  -16.4650  -29.8230   23.6450 C   0  0  0  0  0  3  0  0  0  0  0  0
  -16.6870  -28.5720   23.0440 C   0  0  0  0  0  3  0  0  0  0  0  0
  -25.8470  -32.5440   23.8570 C   0  0  0  0  0  3  0  0  0  0  0  0
  -26.3230  -31.7990   25.1660 C   0  0  1  0  0  0  0  0  0  0  0  0
  -25.2000  -31.5960   26.2110 C   0  0  0  0  0  1  0  0  0  0  0  0
  -26.9040  -30.4060   24.8310 C   0  0  0  0  0  1  0  0  0  0  0  0
  -27.4630  -32.6000   25.8390 C   0  0  0  0  0  1  0  0  0  0  0  0
  -25.5360  -33.9520   24.1620 N   0  0  0  0  0  0  0  0  0  0  0  0
  -25.8930  -34.9990   23.4060 C   0  0  0  0  0  0  0  0  0  0  0  0
  -26.5810  -34.8810   22.3880 O   0  0  0  0  0  0  0  0  0  0  0  0
  -24.9270  -34.1170   24.9490 H   0  0  0  0  0  0  0  0  0  0  0  0
  -24.1960  -36.8180   23.0100 C   0  0  0  0  0  1  0  0  0  0  0  0
  -25.4160  -36.3990   23.8470 C   0  0  0  0  0  3  0  0  0  0  0  0
  -27.5380  -37.2730   24.7230 C   0  0  0  0  0  1  0  0  0  0  0  0
  -26.4640  -37.4390   23.7480 N   0  0  0  0  0  0  0  0  0  0  0  0
  -26.0650  -38.3660   23.8700 H   0  0  0  0  0  0  0  0  0  0  0  0
  -29.9600  -18.3950   19.8110 C   0  0  0  0  0  3  0  0  0  0  0  0
  -30.4580  -15.4500   19.8890 C   0  0  0  0  0  0  0  0  0  0  0  0
  -30.3550  -13.0210   18.9630 C   0  0  0  0  0  2  0  0  0  0  0  0
  -29.3670  -12.8510   17.7830 C   0  0  0  0  0  2  0  0  0  0  0  0
  -27.9480  -12.5670   18.3020 C   0  0  0  0  0  2  0  0  0  0  0  0
  -27.5690  -13.4960   19.4810 C   0  0  0  0  0  3  0  0  0  0  0  0
  -28.6840  -13.6230   20.5440 C   0  0  0  0  0  2  0  0  0  0  0  0
  -29.8730  -14.1470   19.8540 N   0  0  0  0  0  0  0  0  0  0  0  0
  -31.6460  -15.4180   19.5400 O   0  0  0  0  0  0  0  0  0  0  0  0
  -29.7480  -16.7460   20.1160 N   0  0  0  0  0  0  0  0  0  0  0  0
  -28.8090  -16.5760   20.4450 H   0  0  0  0  0  0  0  0  0  0  0  0
  -25.2450  -14.0250   20.3820 C   0  0  0  0  0  0  0  0  0  0  0  0
  -24.2110  -13.2360   20.7990 C   0  0  0  0  0  0  0  0  0  0  0  0
  -24.6820  -11.8890   20.7170 C   0  0  0  0  0  0  0  0  0  0  0  0
  -26.2770  -13.1600   20.0620 N   0  0  0  0  0  0  0  0  0  0  0  0
  -25.9540  -11.8680   20.3310 N   0  0  0  0  0  0  0  0  0  0  0  0
  -23.9720  -10.6200   20.9250 C   0  0  0  0  0  0  0  0  0  0  0  0
  -24.4370   -9.6530   21.8440 C   0  0  0  0  0  3  0  0  0  0  0  0
  -23.7230   -8.4520   22.0420 C   0  0  0  0  0  3  0  0  0  0  0  0
  -22.5290   -8.2070   21.3230 C   0  0  0  0  0  0  0  0  0  0  0  0
  -22.0830   -9.1630   20.3930 C   0  0  0  0  0  3  0  0  0  0  0  0
  -22.7980  -10.3550   20.1920 C   0  0  0  0  0  3  0  0  0  0  0  0
  -21.7840   -7.0580   21.4320 O   0  0  0  0  0  0  0  0  0  0  0  0
  -21.7550   -6.3270   22.5920 C   0  0  0  0  0  0  0  0  0  0  0  0
  -21.2990   -6.8780   23.8090 C   0  0  0  0  0  3  0  0  0  0  0  0
  -21.2200   -6.0700   24.9620 C   0  0  0  0  0  3  0  0  0  0  0  0
  -21.5870   -4.7130   24.8980 C   0  0  0  0  0  0  0  0  0  0  0  0
  -22.0350   -4.1610   23.6850 C   0  0  0  0  0  3  0  0  0  0  0  0
  -22.1150   -4.9660   22.5350 C   0  0  0  0  0  0  0  0  0  0  0  0
  -22.5280   -4.4230   21.3640 F   0  0  0  0  0  0  0  0  0  0  0  0
  -21.5030   -3.9350   26.0030 F   0  0  0  0  0  0  0  0  0  0  0  0
  -22.8300  -13.7010   21.1530 C   0  0  0  0  0  0  0  0  0  0  0  0
  -22.1510  -12.9850   22.0420 N   0  0  0  0  0  0  0  0  0  0  0  0
  -22.3640  -14.7360   20.6770 O   0  0  0  0  0  0  0  0  0  0  0  0
  -22.5430  -12.1480   22.4470 H   0  0  0  0  0  0  0  0  0  0  0  0
  -21.2260  -13.2780   22.3220 H   0  0  0  0  0  0  0  0  0  0  0  0
  -25.3890  -15.4000   20.2180 N   0  0  0  0  0  0  0  0  0  0  0  0
  -24.6220  -16.0430   20.3800 H   0  0  0  0  0  0  0  0  0  0  0  0
  -26.2010  -15.8480   19.8140 H   0  0  0  0  0  0  0  0  0  0  0  0
  -31.8640  -18.6960   21.5400 C   0  0  0  0  0  1  0  0  0  0  0  0
  -32.0780  -19.8620   19.3010 C   0  0  0  0  0  1  0  0  0  0  0  0
  -31.4850  -18.6510   20.0470 C   0  0  0  0  0  3  0  0  0  0  0  0
  1  3  2  0
  2  1  1  0
  2  5  1  0
  4  2  1  0
  6  7  1  0
  6  5  1  0
  8 19  2  0
  9  7  1  0
  9 14  1  0
 10 18  1  0
 10 20  1  0
 11 17  1  0
 11 13  1  0
 12 18  1  0
 13 12  1  0
 14 13  2  0
 15  9  2  0
 16 15  1  0
 16 11  2  0
 17 10  1  0
 18  8  1  0
 20 22  2  0
 21 20  1  0
 23 21  1  0
 24 33  2  0
 24 29  1  0
 25 21  1  0
 25 29  1  0
 26 25  1  0
 27 28  1  0
 27 26  1  0
 28 24  1  0
 29 30  2  0
 30 31  1  0
 32 31  2  0
 33 32  1  0
 34  8  1  0
 34 39  1  0
 34 35  1  0
 35 38  1  1
 35 36  1  0
 37 35  1  0
 39 42  1  0
 40 44  1  0
 40 39  1  0
 41 40  2  0
 44 43  1  0
 46 44  1  0
 46 47  1  0
 46 45  1  0
 48 89  1  0
 48 57  1  0
 48  1  1  0
 49 57  1  0
 50 55  1  0
 51 52  1  0
 51 50  1  0
 53 52  1  0
 53 62  1  0
 53 54  1  0
 55 49  1  0
 55 54  1  0
 56 49  2  0
 57 58  1  0
 59 60  2  0
 60 79  1  0
 61 60  1  0
 61 64  1  0
 62 63  1  0
 62 59  1  0
 63 61  2  0
 64 65  1  0
 65 66  2  0
 67 70  1  0
 67 66  1  0
 68 67  2  0
 69 68  1  0
 69 64  2  0
 70 71  1  0
 71 72  1  0
 72 73  2  0
 74 73  1  0
 74 78  1  0
 75 74  2  0
 76 71  2  0
 76 75  1  0
 77 76  1  0
 79 80  1  0
 80 83  1  0
 80 82  1  0
 81 79  2  0
 84 85  1  0
 84 59  1  0
 86 84  1  0
 88 89  1  0
 89 87  1  0
M  ISO  4   6 101   7 101  49 100  57 100
M  END
>  <TORSDO>  (54) 
F 20

>  <SCORE>  (54) 
-15.647

>  <name>  (54) 
54

>  <ligand_id>  (54) 
54

>  <original_smiles>  (54) 
[H]c1c([H])c([H])c2c(c1[H])C([H])([H])C([H])([H])C([H])([H])C2([H])N([H])C(=O)C1([H])N(C(=O)C([H])(N([H])C(=O)C([H])(N([H])C([H])([H])[H])C([H])([H])[H])C(C([H])([H])[H])(C([H])([H])[H])C([H])([H])[H])C([H])([H])c2c([H])c(OC([H])([H])C([H])([H])N([H])C(=O)C([H])(N([H])C(=O)N3C([H])([H])C([H])([H])C([H])([H])C([H])(n4nc(-c5c([H])c([H])c(Oc6c([H])c([H])c(F)c([H])c6F)c([H])c5[H])c(C(=O)N([H])[H])c4N([H])[H])C3([H])[H])C([H])(C([H])([H])[H])C([H])([H])[H])c([H])c([H])c2C1([H])[H]

>  <smiles>  (54) 
[H]c1c([H])c([H])c2c(c1[H])C([H])([H])C([H])([H])C([H])([H])C2([H])N([H])C(=O)C1([H])N(C(=O)C([H])(N([H])C(=O)C([H])(N([H])C([H])([H])[H])C([H])([H])[H])C(C([H])([H])[H])(C([H])([H])[H])C([H])([H])[H])C([H])([H])c2c([H])c(OC([H])([H])C([H])([H])N([H])C(=O)C([H])(N([H])C(=O)N3C([H])([H])C([H])([H])C([H])([H])C([H])(n4nc(-c5c([H])c([H])c(Oc6c([H])c([H])c(F)c([H])c6F)c([H])c5[H])c(C(=O)N([H])[H])c4N([H])[H])C3([H])[H])C([H])(C([H])([H])[H])C([H])([H])[H])c([H])c([H])c2C1([H])[H]

$$$$
55:0:0
     RDKit          3D

101108  0  0  1  0  0  0  0  0999 V2000
  -28.0620  -21.9590   19.7850 C   0  0  0  0  0  3  0  0  0  0  0  0
  -29.0010  -20.8620   19.2310 C   0  0  0  0  0  0  0  0  0  0  0  0
  -28.8500  -19.6030   19.6850 N   0  0  0  0  0  0  0  0  0  0  0  0
  -29.8270  -21.1610   18.3640 O   0  0  0  0  0  0  0  0  0  0  0  0
  -28.1370  -19.4720   20.3880 H   0  0  0  0  0  0  0  0  0  0  0  0
  -29.4250  -18.3900   19.0720 C   0  0  0  0  0  2  0  0  0  0  0  0
  -31.4490  -16.9370   18.6440 C   0  0  0  0  0  1  0  0  0  0  0  0
  -31.7430  -19.0980   19.8220 C   0  0  0  0  0  1  0  0  0  0  0  0
  -30.7870  -17.8940   19.6620 C   0  0  1  0  0  0  0  0  0  0  0  0
  -30.6260  -17.1920   21.0510 C   0  0  0  0  0  2  0  0  0  0  0  0
  -30.8390  -14.7060   20.9150 C   0  0  0  0  0  0  0  0  0  0  0  0
  -30.6080  -12.4930   19.8840 C   0  0  0  0  0  2  0  0  0  0  0  0
  -29.7870  -12.6590   18.5930 C   0  0  0  0  0  2  0  0  0  0  0  0
  -28.2910  -12.5020   18.9250 C   0  0  0  0  0  2  0  0  0  0  0  0
  -27.8300  -13.4150   20.0980 C   0  0  0  0  0  3  0  0  0  0  0  0
  -28.7950  -13.2940   21.3020 C   0  0  0  0  0  2  0  0  0  0  0  0
  -30.1560  -13.5380   20.8100 N   0  0  0  0  0  0  0  0  0  0  0  0
  -32.0420  -14.7930   20.6910 O   0  0  0  0  0  0  0  0  0  0  0  0
  -30.0850  -15.8140   21.0470 N   0  0  0  0  0  0  0  0  0  0  0  0
  -29.0850  -15.6930   21.1440 H   0  0  0  0  0  0  0  0  0  0  0  0
  -25.3900  -14.0340   20.6340 C   0  0  0  0  0  0  0  0  0  0  0  0
  -24.2960  -13.2650   20.9370 C   0  0  0  0  0  0  0  0  0  0  0  0
  -24.7620  -11.9140   20.9590 C   0  0  0  0  0  0  0  0  0  0  0  0
  -26.4480  -13.1490   20.4840 N   0  0  0  0  0  0  0  0  0  0  0  0
  -26.0700  -11.8720   20.7470 N   0  0  0  0  0  0  0  0  0  0  0  0
  -24.0250  -10.6540   21.1150 C   0  0  0  0  0  0  0  0  0  0  0  0
  -24.4110   -9.6840   22.0650 C   0  0  0  0  0  3  0  0  0  0  0  0
  -23.6790   -8.4830   22.2020 C   0  0  0  0  0  3  0  0  0  0  0  0
  -22.5430   -8.2510   21.3920 C   0  0  0  0  0  0  0  0  0  0  0  0
  -22.1790   -9.2100   20.4320 C   0  0  0  0  0  3  0  0  0  0  0  0
  -22.9100  -10.4000   20.2920 C   0  0  0  0  0  3  0  0  0  0  0  0
  -21.7860   -7.1070   21.4350 O   0  0  0  0  0  0  0  0  0  0  0  0
  -21.6970   -6.3530   22.5770 C   0  0  0  0  0  0  0  0  0  0  0  0
  -21.2500   -6.8980   23.8000 C   0  0  0  0  0  3  0  0  0  0  0  0
  -21.1090   -6.0700   24.9320 C   0  0  0  0  0  3  0  0  0  0  0  0
  -21.4050   -4.6960   24.8390 C   0  0  0  0  0  0  0  0  0  0  0  0
  -21.8430   -4.1520   23.6200 C   0  0  0  0  0  3  0  0  0  0  0  0
  -21.9870   -4.9770   22.4910 C   0  0  0  0  0  0  0  0  0  0  0  0
  -22.3900   -4.4430   21.3130 F   0  0  0  0  0  0  0  0  0  0  0  0
  -21.2600   -3.8950   25.9190 F   0  0  0  0  0  0  0  0  0  0  0  0
  -22.8820  -13.7470   21.0920 C   0  0  0  0  0  0  0  0  0  0  0  0
  -22.0990  -13.0690   21.9280 N   0  0  0  0  0  0  0  0  0  0  0  0
  -22.4760  -14.7550   20.5130 O   0  0  0  0  0  0  0  0  0  0  0  0
  -22.4390  -12.2520   22.4140 H   0  0  0  0  0  0  0  0  0  0  0  0
  -21.1500  -13.3670   22.0900 H   0  0  0  0  0  0  0  0  0  0  0  0
  -25.5640  -15.3980   20.4410 N   0  0  0  0  0  0  0  0  0  0  0  0
  -26.3950  -15.7990   20.0260 H   0  0  0  0  0  0  0  0  0  0  0  0
  -24.7810  -16.0440   20.4690 H   0  0  0  0  0  0  0  0  0  0  0  0
  -28.4270  -24.3830   20.3460 C   0  0  0  0  0  0  0  0  0  0  0  0
  -28.7600  -23.2470   19.7220 N   0  0  0  0  0  0  0  0  0  0  0  0
  -27.5940  -24.4090   21.2560 O   0  0  0  0  0  0  0  0  0  0  0  0
  -29.5610  -23.2570   19.1000 H   0  0  0  0  0  0  0  0  0  0  0  0
  -29.0860  -25.6740   19.8150 C   0  0  0  0  0  2  0  0  0  0  0  0
  -28.7820  -26.8060   20.6390 O   0  0  0  0  0  0  0  0  0  0  0  0
  -24.6560  -31.9040   23.3490 C   0  0  0  0  0  0  0  0  0  0  0  0
  -27.5610  -27.4420   20.5420 C   0  0  0  0  0  0  0  0  0  0  0  0
  -23.5770  -30.4470   21.6690 C   0  0  0  0  0  3  0  0  0  0  0  0
  -25.1320  -28.8910   20.3910 C   0  0  0  0  0  0  0  0  0  0  0  0
  -26.1060  -30.8370   21.6240 C   0  0  0  0  0  2  0  0  0  0  0  0
  -26.2470  -29.4560   21.0200 C   0  0  0  0  0  0  0  0  0  0  0  0
  -27.4610  -28.7430   21.0840 C   0  0  0  0  0  3  0  0  0  0  0  0
  -26.4090  -26.8650   19.9540 C   0  0  0  0  0  3  0  0  0  0  0  0
  -25.2070  -27.5920   19.8590 C   0  0  0  0  0  3  0  0  0  0  0  0
  -23.8800  -29.7350   20.3270 C   0  0  0  0  0  2  0  0  0  0  0  0
  -24.7960  -31.0770   22.2760 N   0  0  0  0  0  0  0  0  0  0  0  0
  -23.5350  -32.1750   23.8040 O   0  0  0  0  0  0  0  0  0  0  0  0
  -22.8770  -29.4400   22.6080 C   0  0  0  0  0  0  0  0  0  0  0  0
  -21.5600  -29.2670   22.4130 N   0  0  0  0  0  0  0  0  0  0  0  0
  -23.5130  -28.8190   23.4640 O   0  0  0  0  0  0  0  0  0  0  0  0
  -21.1140  -29.8250   21.6980 H   0  0  0  0  0  0  0  0  0  0  0  0
  -18.1460  -28.1480   22.8180 C   0  0  0  0  0  0  0  0  0  0  0  0
  -20.6990  -28.3460   23.1550 C   0  0  0  0  0  3  0  0  0  0  0  0
  -20.7820  -26.9160   22.5760 C   0  0  0  0  0  2  0  0  0  0  0  0
  -19.6990  -26.6250   21.5300 C   0  0  0  0  0  2  0  0  0  0  0  0
  -18.3050  -26.7990   22.1380 C   0  0  0  0  0  2  0  0  0  0  0  0
  -19.2690  -28.8810   23.2800 C   0  0  0  0  0  0  0  0  0  0  0  0
  -19.0630  -30.1440   23.8750 C   0  0  0  0  0  3  0  0  0  0  0  0
  -17.7660  -30.6740   24.0110 C   0  0  0  0  0  3  0  0  0  0  0  0
  -16.6560  -29.9410   23.5570 C   0  0  0  0  0  3  0  0  0  0  0  0
  -16.8460  -28.6790   22.9670 C   0  0  0  0  0  3  0  0  0  0  0  0
  -25.8890  -32.5650   24.0430 C   0  0  0  0  0  3  0  0  0  0  0  0
  -26.3300  -31.8330   25.3690 C   0  0  1  0  0  0  0  0  0  0  0  0
  -25.1690  -31.5870   26.3610 C   0  0  0  0  0  1  0  0  0  0  0  0
  -26.9690  -30.4630   25.0430 C   0  0  0  0  0  1  0  0  0  0  0  0
  -27.4150  -32.6680   26.0910 C   0  0  0  0  0  1  0  0  0  0  0  0
  -25.5450  -33.9690   24.3120 N   0  0  0  0  0  0  0  0  0  0  0  0
  -25.9030  -35.0010   23.5380 C   0  0  0  0  0  0  0  0  0  0  0  0
  -26.6290  -34.8740   22.5480 O   0  0  0  0  0  0  0  0  0  0  0  0
  -24.9120  -34.1410   25.0790 H   0  0  0  0  0  0  0  0  0  0  0  0
  -24.1630  -36.7470   23.0380 C   0  0  0  0  0  1  0  0  0  0  0  0
  -25.3720  -36.4000   23.9200 C   0  0  0  0  0  3  0  0  0  0  0  0
  -27.4560  -37.3420   24.8090 C   0  0  0  0  0  1  0  0  0  0  0  0
  -26.3900  -37.4670   23.8170 N   0  0  0  0  0  0  0  0  0  0  0  0
  -25.9650  -38.3840   23.9250 H   0  0  0  0  0  0  0  0  0  0  0  0
  -26.7200  -22.0840   19.0010 C   0  0  0  0  0  2  0  0  0  0  0  0
  -26.0410  -20.7650   18.5760 C   0  0  0  0  0  2  0  0  0  0  0  0
  -24.8920  -20.9920   17.5940 C   0  0  0  0  0  0  0  0  0  0  0  0
  -25.0020  -20.4250   16.3970 N   0  0  0  0  0  0  0  0  0  0  0  0
  -23.9130  -21.6670   17.9030 O   0  0  0  0  0  0  0  0  0  0  0  0
  -25.8350  -19.9110   16.1490 H   0  0  0  0  0  0  0  0  0  0  0  0
  -24.2790  -20.5350   15.7030 H   0  0  0  0  0  0  0  0  0  0  0  0
  1 95  1  0
  2  3  1  0
  2  1  1  0
  3  5  1  0
  4  2  2  0
  6  9  1  0
  6  3  1  0
  9  7  1  6
  9  8  1  0
  9 10  1  0
 11 19  1  0
 12 17  1  0
 13 14  1  0
 13 12  1  0
 15 14  1  0
 15 24  1  0
 15 16  1  0
 17 11  1  0
 17 16  1  0
 18 11  2  0
 19 10  1  0
 19 20  1  0
 21 22  2  0
 22 23  1  0
 22 41  1  0
 23 26  1  0
 24 21  1  0
 24 25  1  0
 25 23  2  0
 26 27  1  0
 27 28  2  0
 29 32  1  0
 29 28  1  0
 30 29  2  0
 31 30  1  0
 31 26  2  0
 32 33  1  0
 33 34  1  0
 34 35  2  0
 36 35  1  0
 36 40  1  0
 37 36  2  0
 38 33  2  0
 38 37  1  0
 39 38  1  0
 41 42  1  0
 42 45  1  0
 42 44  1  0
 43 41  2  0
 46 48  1  0
 46 21  1  0
 47 46  1  0
 49 51  2  0
 50  1  1  0
 50 49  1  0
 52 50  1  0
 53 49  1  0
 53 54  1  0
 55 66  2  0
 56 54  1  0
 56 61  1  0
 57 65  1  0
 57 67  1  0
 58 60  1  0
 59 65  1  0
 60 61  2  0
 60 59  1  0
 62 56  2  0
 63 62  1  0
 63 58  2  0
 64 58  1  0
 64 57  1  0
 65 55  1  0
 67 69  2  0
 68 67  1  0
 70 68  1  0
 71 80  2  0
 71 76  1  0
 72 68  1  0
 72 76  1  0
 73 72  1  0
 74 75  1  0
 74 73  1  0
 75 71  1  0
 76 77  2  0
 77 78  1  0
 79 78  2  0
 80 79  1  0
 81 55  1  0
 81 86  1  0
 81 82  1  0
 82 85  1  1
 82 83  1  0
 84 82  1  0
 86 89  1  0
 87 91  1  0
 87 86  1  0
 88 87  2  0
 91 90  1  0
 93 91  1  0
 93 94  1  0
 93 92  1  0
 96 95  1  0
 97 99  2  0
 97 96  1  0
 98 97  1  0
100 98  1  0
101 98  1  0
M  ISO  4  11 100  19 100  53 101  54 101
M  END
>  <TORSDO>  (55) 
F 25

>  <SCORE>  (55) 
-11.994

>  <name>  (55) 
55

>  <ligand_id>  (55) 
55

>  <original_smiles>  (55) 
[H]c1c([H])c([H])c2c(c1[H])C([H])([H])C([H])([H])C([H])([H])C2([H])N([H])C(=O)C1([H])N(C(=O)C([H])(N([H])C(=O)C([H])(N([H])C([H])([H])[H])C([H])([H])[H])C(C([H])([H])[H])(C([H])([H])[H])C([H])([H])[H])C([H])([H])c2c([H])c(OC([H])([H])C(=O)N([H])C([H])(C(=O)N([H])C([H])([H])C(C([H])([H])[H])(C([H])([H])[H])C([H])([H])N([H])C(=O)N3C([H])([H])C([H])([H])C([H])([H])C([H])(n4nc(-c5c([H])c([H])c(Oc6c([H])c([H])c(F)c([H])c6F)c([H])c5[H])c(C(=O)N([H])[H])c4N([H])[H])C3([H])[H])C([H])([H])C([H])([H])C(=O)N([H])[H])c([H])c([H])c2C1([H])[H]

>  <smiles>  (55) 
[H]c1c([H])c([H])c2c(c1[H])C([H])([H])C([H])([H])C([H])([H])C2([H])N([H])C(=O)C1([H])N(C(=O)C([H])(N([H])C(=O)C([H])(N([H])C([H])([H])[H])C([H])([H])[H])C(C([H])([H])[H])(C([H])([H])[H])C([H])([H])[H])C([H])([H])c2c([H])c(OC([H])([H])C(=O)N([H])C([H])(C(=O)N([H])C([H])([H])C(C([H])([H])[H])(C([H])([H])[H])C([H])([H])N([H])C(=O)N3C([H])([H])C([H])([H])C([H])([H])C([H])(n4nc(-c5c([H])c([H])c(Oc6c([H])c([H])c(F)c([H])c6F)c([H])c5[H])c(C(=O)N([H])[H])c4N([H])[H])C3([H])[H])C([H])([H])C([H])([H])C(=O)N([H])[H])c([H])c([H])c2C1([H])[H]

$$$$
56:0:0
     RDKit          3D

 96104  0  0  1  0  0  0  0  0999 V2000
  -28.8670  -20.6730   21.2780 C   0  0  0  0  0  2  0  0  0  0  0  0
  -29.5750  -18.3200   20.7580 C   0  0  0  0  0  0  0  0  0  0  0  0
  -32.3580  -19.1840   20.8830 C   0  0  0  0  0  2  0  0  0  0  0  0
  -32.0210  -17.7060   21.0430 C   0  0  0  0  0  2  0  0  0  0  0  0
  -31.2450  -20.0230   21.4990 C   0  0  0  0  0  2  0  0  0  0  0  0
  -30.6930  -17.2960   20.3310 C   0  0  1  0  0  0  0  0  0  0  0  0
  -29.8920  -19.6140   21.0850 N   0  0  0  0  0  0  0  0  0  0  0  0
  -28.4050  -17.9250   20.7420 O   0  0  0  0  0  0  0  0  0  0  0  0
  -30.9760  -14.7500   20.6040 C   0  0  0  0  0  0  0  0  0  0  0  0
  -30.6270  -12.6070   19.4690 C   0  0  0  0  0  2  0  0  0  0  0  0
  -29.7380  -12.8600   18.2350 C   0  0  0  0  0  2  0  0  0  0  0  0
  -28.2510  -12.7510   18.6170 C   0  0  0  0  0  2  0  0  0  0  0  0
  -27.8880  -13.5530   19.8990 C   0  0  0  0  0  3  0  0  0  0  0  0
  -28.9170  -13.3330   21.0320 C   0  0  0  0  0  2  0  0  0  0  0  0
  -30.2510  -13.6040   20.4830 N   0  0  0  0  0  0  0  0  0  0  0  0
  -32.1770  -14.7680   20.3460 O   0  0  0  0  0  0  0  0  0  0  0  0
  -30.2790  -15.9050   20.7220 N   0  0  0  0  0  0  0  0  0  0  0  0
  -29.2940  -15.8200   20.9280 H   0  0  0  0  0  0  0  0  0  0  0  0
  -25.4630  -14.1450   20.5050 C   0  0  0  0  0  0  0  0  0  0  0  0
  -24.3870  -13.3680   20.8360 C   0  0  0  0  0  0  0  0  0  0  0  0
  -24.8580  -12.0190   20.8440 C   0  0  0  0  0  0  0  0  0  0  0  0
  -26.5230  -13.2690   20.3340 N   0  0  0  0  0  0  0  0  0  0  0  0
  -26.1620  -11.9870   20.5980 N   0  0  0  0  0  0  0  0  0  0  0  0
  -24.1320  -10.7540   21.0190 C   0  0  0  0  0  0  0  0  0  0  0  0
  -24.5120   -9.8140   22.0010 C   0  0  0  0  0  3  0  0  0  0  0  0
  -23.7870   -8.6140   22.1640 C   0  0  0  0  0  3  0  0  0  0  0  0
  -22.6650   -8.3470   21.3440 C   0  0  0  0  0  0  0  0  0  0  0  0
  -22.3030   -9.2750   20.3530 C   0  0  0  0  0  3  0  0  0  0  0  0
  -23.0300  -10.4670   20.1880 C   0  0  0  0  0  3  0  0  0  0  0  0
  -21.9160   -7.1980   21.4130 O   0  0  0  0  0  0  0  0  0  0  0  0
  -21.7740   -6.4990   22.5850 C   0  0  0  0  0  0  0  0  0  0  0  0
  -21.2130   -7.0860   23.7410 C   0  0  0  0  0  3  0  0  0  0  0  0
  -21.0210   -6.3120   24.9020 C   0  0  0  0  0  3  0  0  0  0  0  0
  -21.3840   -4.9510   24.9100 C   0  0  0  0  0  0  0  0  0  0  0  0
  -21.9380   -4.3630   23.7580 C   0  0  0  0  0  3  0  0  0  0  0  0
  -22.1280   -5.1350   22.5990 C   0  0  0  0  0  0  0  0  0  0  0  0
  -22.6430   -4.5590   21.4870 F   0  0  0  0  0  0  0  0  0  0  0  0
  -21.1940   -4.2030   26.0220 F   0  0  0  0  0  0  0  0  0  0  0  0
  -22.9760  -13.8380   21.0390 C   0  0  0  0  0  0  0  0  0  0  0  0
  -22.2230  -13.1550   21.8940 N   0  0  0  0  0  0  0  0  0  0  0  0
  -22.5490  -14.8460   20.4780 O   0  0  0  0  0  0  0  0  0  0  0  0
  -22.5820  -12.3430   22.3740 H   0  0  0  0  0  0  0  0  0  0  0  0
  -21.2730  -13.4500   22.0720 H   0  0  0  0  0  0  0  0  0  0  0  0
  -25.6240  -15.5150   20.3170 N   0  0  0  0  0  0  0  0  0  0  0  0
  -24.8510  -16.1620   20.4290 H   0  0  0  0  0  0  0  0  0  0  0  0
  -26.4870  -15.9790   20.0590 H   0  0  0  0  0  0  0  0  0  0  0  0
  -32.0190  -16.6880   18.1070 C   0  0  0  0  0  1  0  0  0  0  0  0
  -29.5530  -16.9260   17.9770 C   0  0  0  0  0  1  0  0  0  0  0  0
  -30.8070  -17.3920   18.7530 C   0  0  0  0  0  3  0  0  0  0  0  0
  -28.9190  -21.8290   20.2480 C   0  0  0  0  0  0  0  0  0  0  0  0
  -28.6790  -23.0770   20.6990 N   0  0  0  0  0  0  0  0  0  0  0  0
  -29.1610  -21.5940   19.0630 O   0  0  0  0  0  0  0  0  0  0  0  0
  -28.5040  -23.1790   21.6900 H   0  0  0  0  0  0  0  0  0  0  0  0
  -28.6660  -24.3240   19.9070 C   0  0  0  0  0  2  0  0  0  0  0  0
  -28.4610  -25.5760   20.8090 C   0  0  0  0  0  2  0  0  0  0  0  0
  -28.4780  -26.8510   20.1300 O   0  0  0  0  0  0  0  0  0  0  0  0
  -24.5870  -31.9700   23.2610 C   0  0  0  0  0  0  0  0  0  0  0  0
  -27.3040  -27.5750   20.1540 C   0  0  0  0  0  0  0  0  0  0  0  0
  -23.4100  -30.5640   21.6040 C   0  0  0  0  0  3  0  0  0  0  0  0
  -24.8880  -29.0540   20.1730 C   0  0  0  0  0  0  0  0  0  0  0  0
  -25.9310  -30.9580   21.4120 C   0  0  0  0  0  2  0  0  0  0  0  0
  -26.0400  -29.5900   20.7630 C   0  0  0  0  0  0  0  0  0  0  0  0
  -27.2530  -28.8630   20.7410 C   0  0  0  0  0  3  0  0  0  0  0  0
  -26.1350  -27.0520   19.5640 C   0  0  0  0  0  3  0  0  0  0  0  0
  -24.9320  -27.7850   19.5670 C   0  0  0  0  0  3  0  0  0  0  0  0
  -23.6330  -29.8970   20.2210 C   0  0  0  0  0  2  0  0  0  0  0  0
  -24.6620  -31.1790   22.1510 N   0  0  0  0  0  0  0  0  0  0  0  0
  -23.5000  -32.2220   23.7990 O   0  0  0  0  0  0  0  0  0  0  0  0
  -22.7690  -29.5270   22.5540 C   0  0  0  0  0  0  0  0  0  0  0  0
  -21.4460  -29.3320   22.4250 N   0  0  0  0  0  0  0  0  0  0  0  0
  -23.4580  -28.9000   23.3640 O   0  0  0  0  0  0  0  0  0  0  0  0
  -20.9510  -29.8910   21.7450 H   0  0  0  0  0  0  0  0  0  0  0  0
  -18.0820  -28.1060   22.9190 C   0  0  0  0  0  0  0  0  0  0  0  0
  -20.6390  -28.3760   23.1850 C   0  0  0  0  0  3  0  0  0  0  0  0
  -20.7480  -26.9570   22.5840 C   0  0  0  0  0  2  0  0  0  0  0  0
  -19.6430  -26.6420   21.5700 C   0  0  0  0  0  2  0  0  0  0  0  0
  -18.2640  -26.7670   22.2230 C   0  0  0  0  0  2  0  0  0  0  0  0
  -19.1960  -28.8680   23.3570 C   0  0  0  0  0  0  0  0  0  0  0  0
  -18.9730  -30.1210   23.9680 C   0  0  0  0  0  3  0  0  0  0  0  0
  -17.6650  -30.6110   24.1470 C   0  0  0  0  0  3  0  0  0  0  0  0
  -16.5640  -29.8450   23.7270 C   0  0  0  0  0  3  0  0  0  0  0  0
  -16.7730  -28.5940   23.1190 C   0  0  0  0  0  3  0  0  0  0  0  0
  -25.8600  -32.6160   23.8910 C   0  0  0  0  0  3  0  0  0  0  0  0
  -25.5400  -34.0150   24.2070 N   0  0  0  0  0  0  0  0  0  0  0  0
  -25.8820  -35.0640   23.4470 C   0  0  0  0  0  0  0  0  0  0  0  0
  -26.5730  -34.9560   22.4300 O   0  0  0  0  0  0  0  0  0  0  0  0
  -24.9260  -34.1730   24.9930 H   0  0  0  0  0  0  0  0  0  0  0  0
  -24.1610  -36.8520   23.0390 C   0  0  0  0  0  1  0  0  0  0  0  0
  -25.3780  -36.4520   23.8870 C   0  0  0  0  0  3  0  0  0  0  0  0
  -27.4850  -37.3440   24.7800 C   0  0  0  0  0  1  0  0  0  0  0  0
  -26.4120  -37.5060   23.8010 N   0  0  0  0  0  0  0  0  0  0  0  0
  -26.0000  -38.4270   23.9310 H   0  0  0  0  0  0  0  0  0  0  0  0
  -26.3700  -31.8570   25.1760 C   0  0  1  0  0  0  0  0  0  0  0  0
  -25.2690  -31.6070   26.2340 C   0  0  0  0  0  1  0  0  0  0  0  0
  -26.9760  -30.4870   24.7930 C   0  0  0  0  0  1  0  0  0  0  0  0
  -27.5060  -32.6660   25.8470 C   0  0  0  0  0  1  0  0  0  0  0  0
  2  7  1  0
  3  4  1  0
  3  5  1  0
  6 49  1  6
  6 17  1  0
  6  2  1  0
  6  4  1  0
  7  1  1  0
  7  5  1  0
  8  2  2  0
  9 17  1  0
 10 15  1  0
 11 12  1  0
 11 10  1  0
 13 12  1  0
 13 22  1  0
 13 14  1  0
 15  9  1  0
 15 14  1  0
 16  9  2  0
 17 18  1  0
 19 20  2  0
 20 21  1  0
 20 39  1  0
 21 24  1  0
 22 19  1  0
 22 23  1  0
 23 21  2  0
 24 25  1  0
 25 26  2  0
 27 30  1  0
 27 26  1  0
 28 27  2  0
 29 28  1  0
 29 24  2  0
 30 31  1  0
 31 36  2  0
 31 32  1  0
 32 33  2  0
 33 34  1  0
 34 38  1  0
 35 34  2  0
 36 35  1  0
 37 36  1  0
 39 40  1  0
 40 43  1  0
 40 42  1  0
 41 39  2  0
 44 45  1  0
 44 19  1  0
 46 44  1  0
 47 49  1  0
 48 49  1  0
 50 51  1  0
 50  1  1  0
 51 53  1  0
 52 50  2  0
 54 51  1  0
 54 55  1  0
 56 58  1  0
 56 55  1  0
 57 68  2  0
 58 63  1  0
 59 67  1  0
 59 69  1  0
 60 66  1  0
 60 62  1  0
 61 67  1  0
 62 61  1  0
 63 62  2  0
 64 65  1  0
 64 58  2  0
 65 60  2  0
 66 59  1  0
 67 57  1  0
 69 71  2  0
 70 69  1  0
 72 70  1  0
 73 82  2  0
 73 78  1  0
 74 70  1  0
 74 78  1  0
 75 74  1  0
 76 77  1  0
 76 75  1  0
 77 73  1  0
 78 79  2  0
 79 80  1  0
 81 80  2  0
 82 81  1  0
 83 57  1  0
 83 84  1  0
 83 93  1  0
 84 87  1  0
 85 89  1  0
 85 84  1  0
 86 85  2  0
 89 88  1  0
 91 89  1  0
 91 92  1  0
 91 90  1  0
 93 96  1  1
 93 94  1  0
 95 93  1  0
M  ISO  4   9 100  17 100  55 101  56 101
M  END
>  <TORSDO>  (56) 
F 21

>  <SCORE>  (56) 
-13.110

>  <name>  (56) 
56

>  <ligand_id>  (56) 
56

>  <original_smiles>  (56) 
[H]c1c([H])c([H])c2c(c1[H])C([H])([H])C([H])([H])C([H])([H])C2([H])N([H])C(=O)C1([H])N(C(=O)C([H])(N([H])C(=O)C([H])(N([H])C([H])([H])[H])C([H])([H])[H])C(C([H])([H])[H])(C([H])([H])[H])C([H])([H])[H])C([H])([H])c2c([H])c(OC([H])([H])C([H])([H])N([H])C(=O)C([H])([H])N3C(=O)C(N([H])C(=O)N4C([H])([H])C([H])([H])C([H])([H])C([H])(n5nc(-c6c([H])c([H])c(Oc7c([H])c([H])c(F)c([H])c7F)c([H])c6[H])c(C(=O)N([H])[H])c5N([H])[H])C4([H])[H])(C([H])(C([H])([H])[H])C([H])([H])[H])C([H])([H])C([H])([H])C3([H])[H])c([H])c([H])c2C1([H])[H]

>  <smiles>  (56) 
[H]c1c([H])c([H])c2c(c1[H])C([H])([H])C([H])([H])C([H])([H])C2([H])N([H])C(=O)C1([H])N(C(=O)C([H])(N([H])C(=O)C([H])(N([H])C([H])([H])[H])C([H])([H])[H])C(C([H])([H])[H])(C([H])([H])[H])C([H])([H])[H])C([H])([H])c2c([H])c(OC([H])([H])C([H])([H])N([H])C(=O)C([H])([H])N3C(=O)C(N([H])C(=O)N4C([H])([H])C([H])([H])C([H])([H])C([H])(n5nc(-c6c([H])c([H])c(Oc7c([H])c([H])c(F)c([H])c7F)c([H])c6[H])c(C(=O)N([H])[H])c5N([H])[H])C4([H])[H])(C([H])(C([H])([H])[H])C([H])([H])[H])C([H])([H])C([H])([H])C3([H])[H])c([H])c([H])c2C1([H])[H]

$$$$
57:0:0
     RDKit          3D

 93100  0  0  1  0  0  0  0  0999 V2000
  -28.0090  -23.6240   19.4670 C   0  0  0  0  0  0  0  0  0  0  0  0
  -26.4800  -23.5020   19.5430 C   0  0  0  0  0  0  0  0  0  0  0  0
  -25.7740  -23.5820   18.4150 N   0  0  0  0  0  0  0  0  0  0  0  0
  -25.9230  -23.2810   20.6200 O   0  0  0  0  0  0  0  0  0  0  0  0
  -26.2190  -23.7680   17.5240 H   0  0  0  0  0  0  0  0  0  0  0  0
  -24.7680  -23.4780   18.4350 H   0  0  0  0  0  0  0  0  0  0  0  0
  -29.1950  -21.3150   19.8740 C   0  0  0  0  0  0  0  0  0  0  0  0
  -28.5770  -22.4800   20.3090 N   0  0  0  0  0  4  0  0  0  0  0  0
  -29.9060  -21.3300   18.8720 O   0  0  0  0  0  0  0  0  0  0  0  0
  -28.1110  -22.4000   21.2030 H   0  0  0  0  0  0  0  0  0  0  0  0
  -28.8840  -19.9000   20.5570 C   0  0  0  0  0  2  0  0  0  0  0  0
  -29.9550  -18.6800   20.7500 C   0  0  0  0  0  2  0  0  0  0  0  0
  -29.9150  -17.3040   19.8850 C   0  0  0  0  0  2  0  0  0  0  0  0
  -30.5850  -14.7790   20.2920 C   0  0  0  0  0  0  0  0  0  0  0  0
  -30.3960  -12.4820   19.3500 C   0  0  0  0  0  2  0  0  0  0  0  0
  -29.4750  -12.5410   18.1120 C   0  0  0  0  0  2  0  0  0  0  0  0
  -27.9990  -12.3740   18.5320 C   0  0  0  0  0  2  0  0  0  0  0  0
  -27.6110  -13.2910   19.7250 C   0  0  0  0  0  3  0  0  0  0  0  0
  -28.6590  -13.2280   20.8620 C   0  0  0  0  0  2  0  0  0  0  0  0
  -29.9660  -13.5490   20.2780 N   0  0  0  0  0  0  0  0  0  0  0  0
  -31.7530  -14.8770   19.9050 O   0  0  0  0  0  0  0  0  0  0  0  0
  -29.8140  -15.9080   20.5210 N   0  0  0  0  0  0  0  0  0  0  0  0
  -28.9120  -15.6910   20.9230 H   0  0  0  0  0  0  0  0  0  0  0  0
  -25.2140  -13.8990   20.4390 C   0  0  0  0  0  0  0  0  0  0  0  0
  -24.1440  -13.1340   20.8140 C   0  0  0  0  0  0  0  0  0  0  0  0
  -24.6000  -11.7810   20.7950 C   0  0  0  0  0  0  0  0  0  0  0  0
  -26.2560  -13.0120   20.2090 N   0  0  0  0  0  0  0  0  0  0  0  0
  -25.8920  -11.7350   20.4920 N   0  0  0  0  0  0  0  0  0  0  0  0
  -23.8640  -10.5230   20.9960 C   0  0  0  0  0  0  0  0  0  0  0  0
  -24.2890   -9.5660   21.9390 C   0  0  0  0  0  3  0  0  0  0  0  0
  -23.5580   -8.3700   22.1250 C   0  0  0  0  0  3  0  0  0  0  0  0
  -22.3900   -8.1270   21.3660 C   0  0  0  0  0  0  0  0  0  0  0  0
  -21.9810   -9.0820   20.4160 C   0  0  0  0  0  3  0  0  0  0  0  0
  -22.7120  -10.2640   20.2230 C   0  0  0  0  0  3  0  0  0  0  0  0
  -21.6240   -6.9900   21.4670 O   0  0  0  0  0  0  0  0  0  0  0  0
  -21.5770   -6.2540   22.6230 C   0  0  0  0  0  0  0  0  0  0  0  0
  -21.1570   -6.8190   23.8500 C   0  0  0  0  0  3  0  0  0  0  0  0
  -21.0460   -6.0050   24.9980 C   0  0  0  0  0  3  0  0  0  0  0  0
  -21.3530   -4.6330   24.9220 C   0  0  0  0  0  0  0  0  0  0  0  0
  -21.7690   -4.0720   23.7030 C   0  0  0  0  0  3  0  0  0  0  0  0
  -21.8780   -4.8780   22.5570 C   0  0  0  0  0  0  0  0  0  0  0  0
  -22.2530   -4.3220   21.3800 F   0  0  0  0  0  0  0  0  0  0  0  0
  -21.2450   -3.8540   26.0230 F   0  0  0  0  0  0  0  0  0  0  0  0
  -22.7440  -13.6210   21.0710 C   0  0  0  0  0  0  0  0  0  0  0  0
  -22.0030  -12.9390   21.9360 N   0  0  0  0  0  0  0  0  0  0  0  0
  -22.3170  -14.6390   20.5340 O   0  0  0  0  0  0  0  0  0  0  0  0
  -22.3660  -12.1170   22.3940 H   0  0  0  0  0  0  0  0  0  0  0  0
  -21.0660  -13.2520   22.1480 H   0  0  0  0  0  0  0  0  0  0  0  0
  -25.3890  -15.2680   20.2510 N   0  0  0  0  0  0  0  0  0  0  0  0
  -24.6260  -15.9270   20.3750 H   0  0  0  0  0  0  0  0  0  0  0  0
  -26.2390  -15.7010   19.9060 H   0  0  0  0  0  0  0  0  0  0  0  0
  -28.5880  -25.1620   19.4650 C   0  0  0  0  0  2  0  0  0  0  0  0
  -28.2990  -26.4040   20.2640 O   0  0  0  0  0  0  0  0  0  0  0  0
  -24.6180  -31.8800   23.2300 C   0  0  0  0  0  0  0  0  0  0  0  0
  -27.2060  -27.2910   20.1290 C   0  0  0  0  0  0  0  0  0  0  0  0
  -23.4080  -30.4860   21.5930 C   0  0  0  0  0  3  0  0  0  0  0  0
  -24.8490  -28.9420   20.1450 C   0  0  0  0  0  0  0  0  0  0  0  0
  -25.9500  -30.7930   21.3970 C   0  0  0  0  0  2  0  0  0  0  0  0
  -26.0190  -29.4110   20.7500 C   0  0  0  0  0  0  0  0  0  0  0  0
  -27.1930  -28.5880   20.7460 C   0  0  0  0  0  3  0  0  0  0  0  0
  -26.0210  -26.9130   19.4670 C   0  0  0  0  0  3  0  0  0  0  0  0
  -24.8520  -27.6990   19.4960 C   0  0  0  0  0  3  0  0  0  0  0  0
  -23.6150  -29.8200   20.2060 C   0  0  0  0  0  2  0  0  0  0  0  0
  -24.6790  -31.0700   22.1300 N   0  0  0  0  0  0  0  0  0  0  0  0
  -23.5380  -32.1540   23.7690 O   0  0  0  0  0  0  0  0  0  0  0  0
  -22.7460  -29.4660   22.5510 C   0  0  0  0  0  0  0  0  0  0  0  0
  -21.4170  -29.2890   22.4320 N   0  0  0  0  0  0  0  0  0  0  0  0
  -23.4270  -28.8360   23.3640 O   0  0  0  0  0  0  0  0  0  0  0  0
  -20.9260  -29.8530   21.7540 H   0  0  0  0  0  0  0  0  0  0  0  0
  -18.0430  -28.0770   22.9390 C   0  0  0  0  0  0  0  0  0  0  0  0
  -20.6010  -28.3470   23.2040 C   0  0  0  0  0  3  0  0  0  0  0  0
  -20.7050  -26.9140   22.6320 C   0  0  0  0  0  2  0  0  0  0  0  0
  -19.6040  -26.5870   21.6170 C   0  0  0  0  0  2  0  0  0  0  0  0
  -18.2240  -26.7320   22.2610 C   0  0  0  0  0  2  0  0  0  0  0  0
  -19.1590  -28.8450   23.3670 C   0  0  0  0  0  0  0  0  0  0  0  0
  -18.9310  -30.1050   23.9600 C   0  0  0  0  0  3  0  0  0  0  0  0
  -17.6250  -30.6040   24.1200 C   0  0  0  0  0  3  0  0  0  0  0  0
  -16.5250  -29.8330   23.7090 C   0  0  0  0  0  3  0  0  0  0  0  0
  -16.7340  -28.5710   23.1280 C   0  0  0  0  0  3  0  0  0  0  0  0
  -25.9020  -32.5110   23.8470 C   0  0  0  0  0  3  0  0  0  0  0  0
  -25.5920  -33.9090   24.1810 N   0  0  0  0  0  0  0  0  0  0  0  0
  -25.9190  -34.9640   23.4210 C   0  0  0  0  0  0  0  0  0  0  0  0
  -26.5800  -34.8610   22.3850 O   0  0  0  0  0  0  0  0  0  0  0  0
  -25.0110  -34.0630   24.9900 H   0  0  0  0  0  0  0  0  0  0  0  0
  -24.1970  -36.7640   23.0810 C   0  0  0  0  0  1  0  0  0  0  0  0
  -25.4400  -36.3530   23.8860 C   0  0  0  0  0  3  0  0  0  0  0  0
  -27.5840  -37.2280   24.7040 C   0  0  0  0  0  1  0  0  0  0  0  0
  -26.4750  -37.4020   23.7710 N   0  0  0  0  0  0  0  0  0  0  0  0
  -26.0740  -38.3230   23.9220 H   0  0  0  0  0  0  0  0  0  0  0  0
  -26.4200  -31.7410   25.1220 C   0  0  1  0  0  0  0  0  0  0  0  0
  -25.3330  -31.5090   26.1970 C   0  0  0  0  0  1  0  0  0  0  0  0
  -26.9970  -30.3630   24.7230 C   0  0  0  0  0  1  0  0  0  0  0  0
  -27.5760  -32.5340   25.7740 C   0  0  0  0  0  1  0  0  0  0  0  0
  1  2  1  0
  1  8  2  3
  2  4  2  0
  3  6  1  0
  3  2  1  0
  5  3  1  0
  7  8  1  0
  7 11  1  0
  8 10  1  0
  9  7  2  0
 11 12  1  0
 13 22  1  0
 13 12  1  0
 14 22  1  0
 15 20  1  0
 16 17  1  0
 16 15  1  0
 18 17  1  0
 18 27  1  0
 18 19  1  0
 20 14  1  0
 20 19  1  0
 21 14  2  0
 22 23  1  0
 24 25  2  0
 25 44  1  0
 26 25  1  0
 26 29  1  0
 27 24  1  0
 27 28  1  0
 28 26  2  0
 29 30  1  0
 30 31  2  0
 32 35  1  0
 32 31  1  0
 33 32  2  0
 34 33  1  0
 34 29  2  0
 35 36  1  0
 36 37  1  0
 37 38  2  0
 39 38  1  0
 39 43  1  0
 40 39  2  0
 41 36  2  0
 41 40  1  0
 42 41  1  0
 44 45  1  0
 45 48  1  0
 45 47  1  0
 46 44  2  0
 49 50  1  0
 49 24  1  0
 51 49  1  0
 52  1  1  0
 52 53  1  0
 54 65  2  0
 55 53  1  0
 55 60  1  0
 56 64  1  0
 56 66  1  0
 57 63  1  0
 57 59  1  0
 58 64  1  0
 59 58  1  0
 60 59  2  0
 61 62  1  0
 61 55  2  0
 62 57  2  0
 63 56  1  0
 64 54  1  0
 66 68  2  0
 67 66  1  0
 69 67  1  0
 70 79  2  0
 70 75  1  0
 71 67  1  0
 71 75  1  0
 72 71  1  0
 73 74  1  0
 73 72  1  0
 74 70  1  0
 75 76  2  0
 76 77  1  0
 78 77  2  0
 79 78  1  0
 80 54  1  0
 80 81  1  0
 80 90  1  0
 81 84  1  0
 82 86  1  0
 82 81  1  0
 83 82  2  0
 86 85  1  0
 88 86  1  0
 88 89  1  0
 88 87  1  0
 90 93  1  1
 90 91  1  0
 92 90  1  0
M  ISO  4  14 100  22 100  52 101  53 101
M  END
>  <TORSDO>  (57) 
F 22

>  <SCORE>  (57) 
-13.055

>  <name>  (57) 
57

>  <ligand_id>  (57) 
57

>  <original_smiles>  (57) 
[H]c1c([H])c([H])c2c(c1[H])C([H])([H])C([H])([H])C([H])([H])C2([H])N([H])C(=O)C1([H])N(C(=O)C([H])(N([H])C(=O)C([H])(N([H])C([H])([H])[H])C([H])([H])[H])C(C([H])([H])[H])(C([H])([H])[H])C([H])([H])[H])C([H])([H])c2c([H])c(OC([H])([H])C([H])(C(=O)N([H])[H])N([H])C(=O)C([H])([H])C([H])([H])C([H])([H])N([H])C(=O)N3C([H])([H])C([H])([H])C([H])([H])C([H])(n4nc(-c5c([H])c([H])c(Oc6c([H])c([H])c(F)c([H])c6F)c([H])c5[H])c(C(=O)N([H])[H])c4N([H])[H])C3([H])[H])c([H])c([H])c2C1([H])[H]

>  <smiles>  (57) 
[H]c1c([H])c([H])c2c(c1[H])C([H])([H])C([H])([H])C([H])([H])C2([H])N([H])C(=O)C1([H])N(C(=O)C([H])(N([H])C(=O)C([H])(N([H])C([H])([H])[H])C([H])([H])[H])C(C([H])([H])[H])(C([H])([H])[H])C([H])([H])[H])C([H])([H])c2c([H])c(OC([H])([H])C([H])(C(=O)N([H])[H])N([H])C(=O)C([H])([H])C([H])([H])C([H])([H])N([H])C(=O)N3C([H])([H])C([H])([H])C([H])([H])C([H])(n4nc(-c5c([H])c([H])c(Oc6c([H])c([H])c(F)c([H])c6F)c([H])c5[H])c(C(=O)N([H])[H])c4N([H])[H])C3([H])[H])c([H])c([H])c2C1([H])[H]

$$$$
58:0:0
     RDKit          3D

 86 93  0  0  1  0  0  0  0  0999 V2000
  -28.8370  -22.7640   20.5210 C   0  0  0  0  0  3  0  0  0  0  0  0
  -29.3040  -19.8370   20.4720 C   0  0  0  0  0  0  0  0  0  0  0  0
  -29.1010  -21.2080   19.9240 N   0  0  0  0  0  0  0  0  0  0  0  0
  -29.0370  -19.7210   21.6680 O   0  0  0  0  0  0  0  0  0  0  0  0
  -29.2830  -21.2270   18.9280 H   0  0  0  0  0  0  0  0  0  0  0  0
  -29.9160  -18.3420   19.7690 C   0  0  0  0  0  2  0  0  0  0  0  0
  -30.5450  -15.4350   19.9120 C   0  0  0  0  0  0  0  0  0  0  0  0
  -30.4730  -13.0020   18.9930 C   0  0  0  0  0  2  0  0  0  0  0  0
  -29.4800  -12.8250   17.8150 C   0  0  0  0  0  2  0  0  0  0  0  0
  -28.0620  -12.5370   18.3380 C   0  0  0  0  0  2  0  0  0  0  0  0
  -27.6820  -13.4660   19.5160 C   0  0  0  0  0  3  0  0  0  0  0  0
  -28.7990  -13.5920   20.5770 C   0  0  0  0  0  2  0  0  0  0  0  0
  -29.9860  -14.1210   19.8860 N   0  0  0  0  0  0  0  0  0  0  0  0
  -31.7310  -15.4470   19.5520 O   0  0  0  0  0  0  0  0  0  0  0  0
  -29.7910  -16.7020   20.1270 N   0  0  0  0  0  0  0  0  0  0  0  0
  -28.8680  -16.4950   20.4780 H   0  0  0  0  0  0  0  0  0  0  0  0
  -25.3690  -13.9960   20.4450 C   0  0  0  0  0  0  0  0  0  0  0  0
  -24.3330  -13.2060   20.8550 C   0  0  0  0  0  0  0  0  0  0  0  0
  -24.7930  -11.8580   20.7430 C   0  0  0  0  0  0  0  0  0  0  0  0
  -26.3910  -13.1300   20.1000 N   0  0  0  0  0  0  0  0  0  0  0  0
  -26.0610  -11.8360   20.3460 N   0  0  0  0  0  0  0  0  0  0  0  0
  -24.0760  -10.5890   20.9320 C   0  0  0  0  0  0  0  0  0  0  0  0
  -24.5270   -9.6140   21.8480 C   0  0  0  0  0  3  0  0  0  0  0  0
  -23.8060   -8.4140   22.0280 C   0  0  0  0  0  3  0  0  0  0  0  0
  -22.6190   -8.1800   21.2940 C   0  0  0  0  0  0  0  0  0  0  0  0
  -22.1860   -9.1460   20.3670 C   0  0  0  0  0  3  0  0  0  0  0  0
  -22.9080  -10.3370   20.1840 C   0  0  0  0  0  3  0  0  0  0  0  0
  -21.8680   -7.0330   21.3840 O   0  0  0  0  0  0  0  0  0  0  0  0
  -21.8000   -6.3070   22.5460 C   0  0  0  0  0  0  0  0  0  0  0  0
  -21.3120   -6.8670   23.7470 C   0  0  0  0  0  3  0  0  0  0  0  0
  -21.1940   -6.0650   24.9000 C   0  0  0  0  0  3  0  0  0  0  0  0
  -21.5530   -4.7060   24.8530 C   0  0  0  0  0  0  0  0  0  0  0  0
  -22.0340   -4.1450   23.6560 C   0  0  0  0  0  3  0  0  0  0  0  0
  -22.1530   -4.9440   22.5060 C   0  0  0  0  0  0  0  0  0  0  0  0
  -22.5970   -4.3930   21.3500 F   0  0  0  0  0  0  0  0  0  0  0  0
  -21.4340   -3.9340   25.9590 F   0  0  0  0  0  0  0  0  0  0  0  0
  -22.9580  -13.6740   21.2300 C   0  0  0  0  0  0  0  0  0  0  0  0
  -22.2850  -12.9510   22.1170 N   0  0  0  0  0  0  0  0  0  0  0  0
  -22.4910  -14.7170   20.7720 O   0  0  0  0  0  0  0  0  0  0  0  0
  -22.6760  -12.1070   22.5080 H   0  0  0  0  0  0  0  0  0  0  0  0
  -21.3640  -13.2450   22.4110 H   0  0  0  0  0  0  0  0  0  0  0  0
  -25.5210  -15.3730   20.3060 N   0  0  0  0  0  0  0  0  0  0  0  0
  -24.7590  -16.0170   20.4850 H   0  0  0  0  0  0  0  0  0  0  0  0
  -26.3290  -15.8220   19.8970 H   0  0  0  0  0  0  0  0  0  0  0  0
  -28.1150  -24.3050   19.8790 C   0  0  0  0  0  3  0  0  0  0  0  0
  -28.1940  -25.9180   20.2780 O   0  0  0  0  0  0  0  0  0  0  0  0
  -24.5950  -31.8880   23.1940 C   0  0  0  0  0  0  0  0  0  0  0  0
  -27.1750  -27.0110   20.1740 C   0  0  0  0  0  0  0  0  0  0  0  0
  -23.4050  -30.4810   21.5610 C   0  0  0  0  0  3  0  0  0  0  0  0
  -24.8610  -28.8830   20.1320 C   0  0  0  0  0  0  0  0  0  0  0  0
  -25.9690  -30.7060   21.4070 C   0  0  0  0  0  2  0  0  0  0  0  0
  -26.0460  -29.2950   20.7520 C   0  0  0  0  0  0  0  0  0  0  0  0
  -27.1940  -28.3790   20.7500 C   0  0  0  0  0  3  0  0  0  0  0  0
  -25.9610  -26.7580   19.4960 C   0  0  0  0  0  3  0  0  0  0  0  0
  -24.8440  -27.6370   19.4830 C   0  0  0  0  0  3  0  0  0  0  0  0
  -23.6350  -29.7950   20.1850 C   0  0  0  0  0  2  0  0  0  0  0  0
  -24.6780  -31.0530   22.1080 N   0  0  0  0  0  0  0  0  0  0  0  0
  -23.5050  -32.1710   23.7190 O   0  0  0  0  0  0  0  0  0  0  0  0
  -22.7210  -29.4820   22.5320 C   0  0  0  0  0  0  0  0  0  0  0  0
  -21.3910  -29.3080   22.4130 N   0  0  0  0  0  0  0  0  0  0  0  0
  -23.3930  -28.8650   23.3630 O   0  0  0  0  0  0  0  0  0  0  0  0
  -20.9010  -29.8570   21.7200 H   0  0  0  0  0  0  0  0  0  0  0  0
  -18.0190  -28.0780   22.9440 C   0  0  0  0  0  0  0  0  0  0  0  0
  -20.5790  -28.3650   23.1900 C   0  0  0  0  0  3  0  0  0  0  0  0
  -20.6870  -26.9330   22.6150 C   0  0  0  0  0  2  0  0  0  0  0  0
  -19.5810  -26.6030   21.6070 C   0  0  0  0  0  2  0  0  0  0  0  0
  -18.2020  -26.7330   22.2610 C   0  0  0  0  0  2  0  0  0  0  0  0
  -19.1340  -28.8510   23.3650 C   0  0  0  0  0  0  0  0  0  0  0  0
  -18.9060  -30.1080   23.9670 C   0  0  0  0  0  3  0  0  0  0  0  0
  -17.5960  -30.5930   24.1480 C   0  0  0  0  0  3  0  0  0  0  0  0
  -16.4970  -29.8180   23.7400 C   0  0  0  0  0  3  0  0  0  0  0  0
  -16.7080  -28.5620   23.1440 C   0  0  0  0  0  3  0  0  0  0  0  0
  -25.8630  -32.5410   23.8220 C   0  0  0  0  0  3  0  0  0  0  0  0
  -26.3680  -31.7940   25.1190 C   0  0  1  0  0  0  0  0  0  0  0  0
  -25.2640  -31.5700   26.1790 C   0  0  0  0  0  1  0  0  0  0  0  0
  -26.9610  -30.4120   24.7640 C   0  0  0  0  0  1  0  0  0  0  0  0
  -27.5080  -32.6040   25.7790 C   0  0  0  0  0  1  0  0  0  0  0  0
  -25.5400  -33.9440   24.1420 N   0  0  0  0  0  0  0  0  0  0  0  0
  -25.8640  -35.0000   23.3830 C   0  0  0  0  0  0  0  0  0  0  0  0
  -26.5290  -34.8960   22.3480 O   0  0  0  0  0  0  0  0  0  0  0  0
  -24.9480  -34.0970   24.9440 H   0  0  0  0  0  0  0  0  0  0  0  0
  -24.1290  -36.7940   23.0420 C   0  0  0  0  0  1  0  0  0  0  0  0
  -25.3790  -36.3910   23.8420 C   0  0  0  0  0  3  0  0  0  0  0  0
  -27.5130  -37.2930   24.6600 C   0  0  0  0  0  1  0  0  0  0  0  0
  -26.4080  -37.4470   23.7170 N   0  0  0  0  0  0  0  0  0  0  0  0
  -25.9980  -38.3670   23.8570 H   0  0  0  0  0  0  0  0  0  0  0  0
  2  4  2  0
  3  2  1  0
  3  1  1  0
  5  3  1  0
  6 15  1  0
  6  2  1  0
  7 15  1  0
  8 13  1  0
  9 10  1  0
  9  8  1  0
 11 10  1  0
 11 20  1  0
 11 12  1  0
 13  7  1  0
 13 12  1  0
 14  7  2  0
 15 16  1  0
 17 18  2  0
 18 37  1  0
 19 18  1  0
 19 22  1  0
 20 21  1  0
 20 17  1  0
 21 19  2  0
 22 23  1  0
 23 24  2  0
 25 28  1  0
 25 24  1  0
 26 25  2  0
 27 26  1  0
 27 22  2  0
 28 29  1  0
 29 30  1  0
 30 31  2  0
 32 31  1  0
 32 36  1  0
 33 32  2  0
 34 29  2  0
 34 33  1  0
 35 34  1  0
 37 38  1  0
 38 41  1  0
 38 40  1  0
 39 37  2  0
 42 17  1  0
 42 43  1  0
 44 42  1  0
 45 46  1  0
 45  1  2  0
 47 58  2  0
 48 46  1  0
 48 53  1  0
 49 57  1  0
 49 59  1  0
 50 56  1  0
 50 52  1  0
 51 57  1  0
 52 51  1  0
 53 52  2  0
 54 48  2  0
 55 54  1  0
 55 50  2  0
 56 49  1  0
 57 47  1  0
 59 61  2  0
 60 59  1  0
 62 60  1  0
 63 72  2  0
 63 68  1  0
 64 60  1  0
 64 68  1  0
 65 64  1  0
 66 67  1  0
 66 65  1  0
 67 63  1  0
 68 69  2  0
 69 70  1  0
 71 70  2  0
 72 71  1  0
 73 47  1  0
 73 78  1  0
 73 74  1  0
 74 77  1  1
 74 75  1  0
 76 74  1  0
 78 81  1  0
 79 83  1  0
 79 78  1  0
 80 79  2  0
 83 82  1  0
 85 83  1  0
 85 86  1  0
 85 84  1  0
M  ISO  4   7 100  15 100  45 101  46 101
M  END
>  <TORSDO>  (58) 
F 19

>  <SCORE>  (58) 
-15.612

>  <name>  (58) 
58

>  <ligand_id>  (58) 
58

>  <original_smiles>  (58) 
[H]c1c([H])c([H])c2c(c1[H])C([H])([H])C([H])([H])C([H])([H])C2([H])N([H])C(=O)C1([H])N(C(=O)C([H])(N([H])C(=O)C([H])(N([H])C([H])([H])[H])C([H])([H])[H])C(C([H])([H])[H])(C([H])([H])[H])C([H])([H])[H])C([H])([H])c2c([H])c(OC([H])([H])C([H])([H])N([H])C(=O)C([H])([H])N([H])C(=O)N3C([H])([H])C([H])([H])C([H])([H])C([H])(n4nc(-c5c([H])c([H])c(Oc6c([H])c([H])c(F)c([H])c6F)c([H])c5[H])c(C(=O)N([H])[H])c4N([H])[H])C3([H])[H])c([H])c([H])c2C1([H])[H]

>  <smiles>  (58) 
[H]c1c([H])c([H])c2c(c1[H])C([H])([H])C([H])([H])C([H])([H])C2([H])N([H])C(=O)C1([H])N(C(=O)C([H])(N([H])C(=O)C([H])(N([H])C([H])([H])[H])C([H])([H])[H])C(C([H])([H])[H])(C([H])([H])[H])C([H])([H])[H])C([H])([H])c2c([H])c(OC([H])([H])C([H])([H])N([H])C(=O)C([H])([H])N([H])C(=O)N3C([H])([H])C([H])([H])C([H])([H])C([H])(n4nc(-c5c([H])c([H])c(Oc6c([H])c([H])c(F)c([H])c6F)c([H])c5[H])c(C(=O)N([H])[H])c4N([H])[H])C3([H])[H])c([H])c([H])c2C1([H])[H]

$$$$
59:0:0
     RDKit          3D

 90 97  0  0  1  0  0  0  0  0999 V2000
  -28.7600  -24.4870   20.7740 C   0  0  0  0  0  0  0  0  0  0  0  0
  -28.8400  -23.1890   20.4400 N   0  0  0  0  0  0  0  0  0  0  0  0
  -28.9070  -24.8760   21.9360 O   0  0  0  0  0  0  0  0  0  0  0  0
  -28.6860  -22.9500   19.4690 H   0  0  0  0  0  0  0  0  0  0  0  0
  -28.5590  -25.4920   19.6270 C   0  0  0  0  0  2  0  0  0  0  0  0
  -28.4220  -26.8280   20.1370 O   0  0  0  0  0  0  0  0  0  0  0  0
  -24.5720  -31.9090   23.2700 C   0  0  0  0  0  0  0  0  0  0  0  0
  -27.2050  -27.4800   20.1550 C   0  0  0  0  0  0  0  0  0  0  0  0
  -23.3580  -30.5160   21.6250 C   0  0  0  0  0  3  0  0  0  0  0  0
  -24.8030  -28.9820   20.1940 C   0  0  0  0  0  0  0  0  0  0  0  0
  -25.8830  -30.8740   21.4190 C   0  0  0  0  0  2  0  0  0  0  0  0
  -25.9630  -29.5040   20.7770 C   0  0  0  0  0  0  0  0  0  0  0  0
  -27.1630  -28.7590   20.7570 C   0  0  0  0  0  3  0  0  0  0  0  0
  -26.0150  -26.9630   19.5850 C   0  0  0  0  0  3  0  0  0  0  0  0
  -24.8230  -27.7100   19.6000 C   0  0  0  0  0  3  0  0  0  0  0  0
  -23.5620  -29.8440   20.2420 C   0  0  0  0  0  2  0  0  0  0  0  0
  -24.6230  -31.1150   22.1630 N   0  0  0  0  0  0  0  0  0  0  0  0
  -23.4910  -32.1800   23.8140 O   0  0  0  0  0  0  0  0  0  0  0  0
  -22.7120  -29.4900   22.5830 C   0  0  0  0  0  0  0  0  0  0  0  0
  -21.3880  -29.3050   22.4550 N   0  0  0  0  0  0  0  0  0  0  0  0
  -23.3970  -28.8630   23.3960 O   0  0  0  0  0  0  0  0  0  0  0  0
  -20.8960  -29.8610   21.7710 H   0  0  0  0  0  0  0  0  0  0  0  0
  -18.0170  -28.0980   22.9390 C   0  0  0  0  0  0  0  0  0  0  0  0
  -20.5720  -28.3620   23.2220 C   0  0  0  0  0  3  0  0  0  0  0  0
  -20.6830  -26.9330   22.6450 C   0  0  0  0  0  2  0  0  0  0  0  0
  -19.5860  -26.6070   21.6260 C   0  0  0  0  0  2  0  0  0  0  0  0
  -18.2010  -26.7490   22.2650 C   0  0  0  0  0  2  0  0  0  0  0  0
  -19.1310  -28.8630   23.3740 C   0  0  0  0  0  0  0  0  0  0  0  0
  -18.9060  -30.1280   23.9610 C   0  0  0  0  0  3  0  0  0  0  0  0
  -17.6000  -30.6260   24.1200 C   0  0  0  0  0  3  0  0  0  0  0  0
  -16.5000  -29.8580   23.7010 C   0  0  0  0  0  3  0  0  0  0  0  0
  -16.7090  -28.5950   23.1160 C   0  0  0  0  0  3  0  0  0  0  0  0
  -25.8590  -32.5360   23.8890 C   0  0  0  0  0  3  0  0  0  0  0  0
  -25.5590  -33.9370   24.2110 N   0  0  0  0  0  0  0  0  0  0  0  0
  -25.8990  -34.9830   23.4480 C   0  0  0  0  0  0  0  0  0  0  0  0
  -26.5710  -34.8710   22.4180 O   0  0  0  0  0  0  0  0  0  0  0  0
  -24.9660  -34.1000   25.0120 H   0  0  0  0  0  0  0  0  0  0  0  0
  -24.1760  -36.7770   23.0820 C   0  0  0  0  0  1  0  0  0  0  0  0
  -25.4150  -36.3750   23.8960 C   0  0  0  0  0  3  0  0  0  0  0  0
  -27.5550  -37.2540   24.7210 C   0  0  0  0  0  1  0  0  0  0  0  0
  -26.4520  -37.4240   23.7790 N   0  0  0  0  0  0  0  0  0  0  0  0
  -26.0500  -38.3460   23.9230 H   0  0  0  0  0  0  0  0  0  0  0  0
  -26.3740  -31.7670   25.1650 C   0  0  1  0  0  0  0  0  0  0  0  0
  -25.2830  -31.5360   26.2360 C   0  0  0  0  0  1  0  0  0  0  0  0
  -26.9500  -30.3870   24.7720 C   0  0  0  0  0  1  0  0  0  0  0  0
  -27.5290  -32.5580   25.8250 C   0  0  0  0  0  1  0  0  0  0  0  0
  -29.3690  -22.1490   21.3200 C   0  0  0  0  0  2  0  0  0  0  0  0
  -29.1820  -20.7220   20.7580 C   0  0  0  0  0  2  0  0  0  0  0  0
  -30.2840  -19.7780   21.2770 C   0  0  0  0  0  2  0  0  0  0  0  0
  -30.0640  -18.2720   21.0230 C   0  0  0  0  0  2  0  0  0  0  0  0
  -31.3710  -17.4790   21.2410 C   0  0  0  0  0  2  0  0  0  0  0  0
  -31.2260  -16.1090   21.9340 C   0  0  0  0  0  2  0  0  0  0  0  0
  -30.7900  -14.3600   20.2000 C   0  0  0  0  0  0  0  0  0  0  0  0
  -30.3380  -12.2880   18.9310 C   0  0  0  0  0  2  0  0  0  0  0  0
  -29.3430  -12.5170   17.7800 C   0  0  0  0  0  2  0  0  0  0  0  0
  -27.8900  -12.3970   18.2800 C   0  0  0  0  0  2  0  0  0  0  0  0
  -27.6280  -13.2380   19.5570 C   0  0  0  0  0  3  0  0  0  0  0  0
  -28.7200  -12.9750   20.6150 C   0  0  0  0  0  2  0  0  0  0  0  0
  -30.0330  -13.2500   20.0010 N   0  0  0  0  0  0  0  0  0  0  0  0
  -31.8000  -14.6210   19.5400 O   0  0  0  0  0  0  0  0  0  0  0  0
  -30.4030  -15.1280   21.2290 N   0  0  0  0  0  0  0  0  0  0  0  0
  -29.5530  -14.8390   21.6890 H   0  0  0  0  0  0  0  0  0  0  0  0
  -25.2750  -13.8960   20.3720 C   0  0  0  0  0  0  0  0  0  0  0  0
  -24.2080  -13.1450   20.7870 C   0  0  0  0  0  0  0  0  0  0  0  0
  -24.6380  -11.7830   20.7310 C   0  0  0  0  0  0  0  0  0  0  0  0
  -26.2900  -12.9930   20.0930 N   0  0  0  0  0  0  0  0  0  0  0  0
  -25.9110  -11.7180   20.3640 N   0  0  0  0  0  0  0  0  0  0  0  0
  -23.8950  -10.5360   20.9490 C   0  0  0  0  0  0  0  0  0  0  0  0
  -24.3430   -9.5610   21.8670 C   0  0  0  0  0  3  0  0  0  0  0  0
  -23.6010   -8.3780   22.0720 C   0  0  0  0  0  3  0  0  0  0  0  0
  -22.3970   -8.1630   21.3620 C   0  0  0  0  0  0  0  0  0  0  0  0
  -21.9680   -9.1260   20.4310 C   0  0  0  0  0  3  0  0  0  0  0  0
  -22.7100  -10.3010   20.2240 C   0  0  0  0  0  3  0  0  0  0  0  0
  -21.6240   -7.0320   21.4770 O   0  0  0  0  0  0  0  0  0  0  0  0
  -21.5990   -6.2930   22.6330 C   0  0  0  0  0  0  0  0  0  0  0  0
  -21.2400   -6.8620   23.8740 C   0  0  0  0  0  3  0  0  0  0  0  0
  -21.1600   -6.0510   25.0240 C   0  0  0  0  0  3  0  0  0  0  0  0
  -21.4270   -4.6720   24.9330 C   0  0  0  0  0  0  0  0  0  0  0  0
  -21.7800   -4.1030   23.6970 C   0  0  0  0  0  3  0  0  0  0  0  0
  -21.8620   -4.9110   22.5500 C   0  0  0  0  0  0  0  0  0  0  0  0
  -22.1820   -4.3530   21.3570 F   0  0  0  0  0  0  0  0  0  0  0  0
  -21.3420   -3.8920   26.0350 F   0  0  0  0  0  0  0  0  0  0  0  0
  -22.8340  -13.6500   21.1220 C   0  0  0  0  0  0  0  0  0  0  0  0
  -22.1300  -12.9660   22.0170 N   0  0  0  0  0  0  0  0  0  0  0  0
  -22.3950  -14.6870   20.6260 O   0  0  0  0  0  0  0  0  0  0  0  0
  -22.4970  -12.1270   22.4410 H   0  0  0  0  0  0  0  0  0  0  0  0
  -21.2090  -13.2860   22.2820 H   0  0  0  0  0  0  0  0  0  0  0  0
  -25.4620  -15.2640   20.1920 N   0  0  0  0  0  0  0  0  0  0  0  0
  -24.7180  -15.9370   20.3440 H   0  0  0  0  0  0  0  0  0  0  0  0
  -26.3130  -15.6850   19.8390 H   0  0  0  0  0  0  0  0  0  0  0  0
  1  3  2  0
  2  1  1  0
  2 47  1  0
  4  2  1  0
  5  6  1  0
  5  1  1  0
  6  8  1  0
  7 18  2  0
  8 13  1  0
  9 17  1  0
  9 19  1  0
 10 16  1  0
 10 12  1  0
 11 17  1  0
 12 11  1  0
 13 12  2  0
 14 15  1  0
 14  8  2  0
 15 10  2  0
 16  9  1  0
 17  7  1  0
 19 21  2  0
 20 19  1  0
 22 20  1  0
 23 32  2  0
 23 28  1  0
 24 20  1  0
 24 28  1  0
 25 24  1  0
 26 27  1  0
 26 25  1  0
 27 23  1  0
 28 29  2  0
 29 30  1  0
 31 30  2  0
 32 31  1  0
 33  7  1  0
 33 34  1  0
 33 43  1  0
 34 37  1  0
 35 39  1  0
 35 34  1  0
 36 35  2  0
 39 38  1  0
 41 39  1  0
 41 42  1  0
 41 40  1  0
 43 46  1  1
 43 44  1  0
 45 43  1  0
 48 49  1  0
 48 47  1  0
 50 51  1  0
 50 49  1  0
 51 52  1  0
 53 61  1  0
 54 59  1  0
 55 56  1  0
 55 54  1  0
 57 56  1  0
 57 66  1  0
 57 58  1  0
 59 53  1  0
 59 58  1  0
 60 53  2  0
 61 62  1  0
 61 52  1  0
 63 64  2  0
 64 83  1  0
 65 64  1  0
 65 68  1  0
 66 67  1  0
 66 63  1  0
 67 65  2  0
 68 69  1  0
 69 70  2  0
 71 74  1  0
 71 70  1  0
 72 71  2  0
 73 72  1  0
 73 68  2  0
 74 75  1  0
 75 76  1  0
 76 77  2  0
 78 77  1  0
 78 82  1  0
 79 78  2  0
 80 75  2  0
 80 79  1  0
 81 80  1  0
 83 84  1  0
 84 87  1  0
 84 86  1  0
 85 83  2  0
 88 89  1  0
 88 63  1  0
 90 88  1  0
M  ISO  4   5 101   6 101  53 100  61 100
M  END
>  <TORSDO>  (59) 
F 23

>  <SCORE>  (59) 
-12.625

>  <name>  (59) 
59

>  <ligand_id>  (59) 
59

>  <original_smiles>  (59) 
[H]c1c([H])c([H])c2c(c1[H])C([H])([H])C([H])([H])C([H])([H])C2([H])N([H])C(=O)C1([H])N(C(=O)C([H])(N([H])C(=O)C([H])(N([H])C([H])([H])[H])C([H])([H])[H])C(C([H])([H])[H])(C([H])([H])[H])C([H])([H])[H])C([H])([H])c2c([H])c(OC([H])([H])C(=O)N([H])C([H])([H])C([H])([H])C([H])([H])C([H])([H])C([H])([H])C([H])([H])N([H])C(=O)N3C([H])([H])C([H])([H])C([H])([H])C([H])(n4nc(-c5c([H])c([H])c(Oc6c([H])c([H])c(F)c([H])c6F)c([H])c5[H])c(C(=O)N([H])[H])c4N([H])[H])C3([H])[H])c([H])c([H])c2C1([H])[H]

>  <smiles>  (59) 
[H]c1c([H])c([H])c2c(c1[H])C([H])([H])C([H])([H])C([H])([H])C2([H])N([H])C(=O)C1([H])N(C(=O)C([H])(N([H])C(=O)C([H])(N([H])C([H])([H])[H])C([H])([H])[H])C(C([H])([H])[H])(C([H])([H])[H])C([H])([H])[H])C([H])([H])c2c([H])c(OC([H])([H])C(=O)N([H])C([H])([H])C([H])([H])C([H])([H])C([H])([H])C([H])([H])C([H])([H])N([H])C(=O)N3C([H])([H])C([H])([H])C([H])([H])C([H])(n4nc(-c5c([H])c([H])c(Oc6c([H])c([H])c(F)c([H])c6F)c([H])c5[H])c(C(=O)N([H])[H])c4N([H])[H])C3([H])[H])c([H])c([H])c2C1([H])[H]

$$$$
60:0:0
     RDKit          3D

 95102  0  0  1  0  0  0  0  0999 V2000
  -29.3600  -20.6230   21.2830 C   0  0  0  0  0  2  0  0  0  0  0  0
  -29.9860  -18.1860   21.1250 C   0  0  0  0  0  0  0  0  0  0  0  0
  -30.1330  -19.4780   20.7760 N   0  0  0  0  0  0  0  0  0  0  0  0
  -29.1980  -17.8250   22.0000 O   0  0  0  0  0  0  0  0  0  0  0  0
  -30.7810  -19.7030   20.0330 H   0  0  0  0  0  0  0  0  0  0  0  0
  -30.8270  -17.1380   20.3580 C   0  0  0  0  0  3  0  0  0  0  0  0
  -31.3210  -14.6640   20.5150 C   0  0  0  0  0  0  0  0  0  0  0  0
  -30.9560  -12.5940   19.2450 C   0  0  0  0  0  2  0  0  0  0  0  0
  -30.0540  -12.9530   18.0430 C   0  0  0  0  0  2  0  0  0  0  0  0
  -28.5650  -12.8670   18.4350 C   0  0  0  0  0  2  0  0  0  0  0  0
  -28.2440  -13.6080   19.7600 C   0  0  0  0  0  3  0  0  0  0  0  0
  -29.2670  -13.2470   20.8660 C   0  0  0  0  0  2  0  0  0  0  0  0
  -30.6150  -13.5140   20.3420 N   0  0  0  0  0  0  0  0  0  0  0  0
  -32.4990  -14.7840   20.1680 O   0  0  0  0  0  0  0  0  0  0  0  0
  -30.5710  -15.7450   20.7960 N   0  0  0  0  0  0  0  0  0  0  0  0
  -29.6430  -15.5730   21.1510 H   0  0  0  0  0  0  0  0  0  0  0  0
  -25.8400  -14.2790   20.3840 C   0  0  0  0  0  0  0  0  0  0  0  0
  -24.7380  -13.5360   20.7130 C   0  0  0  0  0  0  0  0  0  0  0  0
  -25.1650  -12.1730   20.6940 C   0  0  0  0  0  0  0  0  0  0  0  0
  -26.8690  -13.3700   20.1910 N   0  0  0  0  0  0  0  0  0  0  0  0
  -26.4640  -12.0990   20.4350 N   0  0  0  0  0  0  0  0  0  0  0  0
  -24.3980  -10.9300   20.8540 C   0  0  0  0  0  0  0  0  0  0  0  0
  -24.7740   -9.9480   21.7960 C   0  0  0  0  0  3  0  0  0  0  0  0
  -24.0120   -8.7690   21.9430 C   0  0  0  0  0  3  0  0  0  0  0  0
  -22.8600   -8.5640   21.1470 C   0  0  0  0  0  0  0  0  0  0  0  0
  -22.5030   -9.5350   20.1960 C   0  0  0  0  0  3  0  0  0  0  0  0
  -23.2650  -10.7050   20.0460 C   0  0  0  0  0  3  0  0  0  0  0  0
  -22.0740   -7.4390   21.2030 O   0  0  0  0  0  0  0  0  0  0  0  0
  -21.9400   -6.7110   22.3590 C   0  0  0  0  0  0  0  0  0  0  0  0
  -21.4980   -7.2990   23.5640 C   0  0  0  0  0  3  0  0  0  0  0  0
  -21.3090   -6.5000   24.7090 C   0  0  0  0  0  3  0  0  0  0  0  0
  -21.5510   -5.1150   24.6490 C   0  0  0  0  0  0  0  0  0  0  0  0
  -21.9870   -4.5260   23.4480 C   0  0  0  0  0  3  0  0  0  0  0  0
  -22.1780   -5.3230   22.3060 C   0  0  0  0  0  0  0  0  0  0  0  0
  -22.5770   -4.7470   21.1460 F   0  0  0  0  0  0  0  0  0  0  0  0
  -21.3630   -4.3450   25.7460 F   0  0  0  0  0  0  0  0  0  0  0  0
  -23.3450  -14.0520   20.9330 C   0  0  0  0  0  0  0  0  0  0  0  0
  -22.5770  -13.3900   21.7900 N   0  0  0  0  0  0  0  0  0  0  0  0
  -22.9470  -15.0760   20.3790 O   0  0  0  0  0  0  0  0  0  0  0  0
  -22.9100  -12.5620   22.2590 H   0  0  0  0  0  0  0  0  0  0  0  0
  -21.6410  -13.7190   21.9810 H   0  0  0  0  0  0  0  0  0  0  0  0
  -26.0440  -15.6460   20.2150 N   0  0  0  0  0  0  0  0  0  0  0  0
  -25.2800  -16.3080   20.2880 H   0  0  0  0  0  0  0  0  0  0  0  0
  -26.9060  -16.0710   19.8970 H   0  0  0  0  0  0  0  0  0  0  0  0
  -30.6310  -17.2580   18.8170 C   0  0  0  0  0  2  0  0  0  0  0  0
  -32.9020  -18.2560   18.1940 C   0  0  0  0  0  1  0  0  0  0  0  0
  -31.5410  -17.0290   16.4620 C   0  0  0  0  0  1  0  0  0  0  0  0
  -31.9030  -17.1110   17.9540 C   0  0  0  0  0  3  0  0  0  0  0  0
  -29.3710  -21.8200   20.3030 C   0  0  0  0  0  0  0  0  0  0  0  0
  -28.8280  -22.9840   20.7100 N   0  0  0  0  0  0  0  0  0  0  0  0
  -29.8720  -21.6920   19.1830 O   0  0  0  0  0  0  0  0  0  0  0  0
  -28.4390  -23.0150   21.6440 H   0  0  0  0  0  0  0  0  0  0  0  0
  -28.7540  -24.2220   19.9120 C   0  0  0  0  0  2  0  0  0  0  0  0
  -28.2850  -25.4460   20.7460 C   0  0  0  0  0  2  0  0  0  0  0  0
  -28.3240  -26.6870   20.0130 O   0  0  0  0  0  0  0  0  0  0  0  0
  -24.5980  -31.8720   23.1860 C   0  0  0  0  0  0  0  0  0  0  0  0
  -27.1650  -27.4330   20.0400 C   0  0  0  0  0  0  0  0  0  0  0  0
  -23.3540  -30.4850   21.5600 C   0  0  0  0  0  3  0  0  0  0  0  0
  -24.7760  -28.9470   20.0980 C   0  0  0  0  0  0  0  0  0  0  0  0
  -25.8760  -30.8360   21.3110 C   0  0  0  0  0  2  0  0  0  0  0  0
  -25.9470  -29.4670   20.6640 C   0  0  0  0  0  0  0  0  0  0  0  0
  -27.1470  -28.7200   20.6280 C   0  0  0  0  0  3  0  0  0  0  0  0
  -25.9800  -26.9250   19.4690 C   0  0  0  0  0  3  0  0  0  0  0  0
  -24.7870  -27.6740   19.4990 C   0  0  0  0  0  3  0  0  0  0  0  0
  -23.5340  -29.8080   20.1730 C   0  0  0  0  0  2  0  0  0  0  0  0
  -24.6290  -31.0780   22.0780 N   0  0  0  0  0  0  0  0  0  0  0  0
  -23.5280  -32.1450   23.7490 O   0  0  0  0  0  0  0  0  0  0  0  0
  -22.7160  -29.4610   22.5260 C   0  0  0  0  0  0  0  0  0  0  0  0
  -21.3890  -29.2840   22.4190 N   0  0  0  0  0  0  0  0  0  0  0  0
  -23.4110  -28.8310   23.3270 O   0  0  0  0  0  0  0  0  0  0  0  0
  -20.8890  -29.8420   21.7410 H   0  0  0  0  0  0  0  0  0  0  0  0
  -18.0230  -28.0850   22.9540 C   0  0  0  0  0  0  0  0  0  0  0  0
  -20.5830  -28.3440   23.1970 C   0  0  0  0  0  3  0  0  0  0  0  0
  -20.6810  -26.9140   22.6170 C   0  0  0  0  0  2  0  0  0  0  0  0
  -19.5670  -26.5920   21.6150 C   0  0  0  0  0  2  0  0  0  0  0  0
  -18.1930  -26.7360   22.2750 C   0  0  0  0  0  2  0  0  0  0  0  0
  -19.1470  -28.8460   23.3720 C   0  0  0  0  0  0  0  0  0  0  0  0
  -18.9360  -30.1100   23.9660 C   0  0  0  0  0  3  0  0  0  0  0  0
  -17.6340  -30.6120   24.1450 C   0  0  0  0  0  3  0  0  0  0  0  0
  -16.5240  -29.8480   23.7460 C   0  0  0  0  0  3  0  0  0  0  0  0
  -16.7190  -28.5870   23.1550 C   0  0  0  0  0  3  0  0  0  0  0  0
  -25.9000  -32.4930   23.7850 C   0  0  0  0  0  3  0  0  0  0  0  0
  -25.6010  -33.8860   24.1420 N   0  0  0  0  0  0  0  0  0  0  0  0
  -25.9290  -34.9490   23.3940 C   0  0  0  0  0  0  0  0  0  0  0  0
  -26.5870  -34.8590   22.3540 O   0  0  0  0  0  0  0  0  0  0  0  0
  -25.0160  -34.0310   24.9510 H   0  0  0  0  0  0  0  0  0  0  0  0
  -24.2080  -36.7550   23.0810 C   0  0  0  0  0  1  0  0  0  0  0  0
  -25.4510  -36.3310   23.8790 C   0  0  0  0  0  3  0  0  0  0  0  0
  -27.5960  -37.1870   24.7120 C   0  0  0  0  0  1  0  0  0  0  0  0
  -26.4890  -37.3810   23.7780 N   0  0  0  0  0  0  0  0  0  0  0  0
  -26.0900  -38.2990   23.9470 H   0  0  0  0  0  0  0  0  0  0  0  0
  -26.4480  -31.7010   25.0330 C   0  0  1  0  0  0  0  0  0  0  0  0
  -25.3830  -31.4460   26.1260 C   0  0  0  0  0  1  0  0  0  0  0  0
  -27.0190  -30.3300   24.6030 C   0  0  0  0  0  1  0  0  0  0  0  0
  -27.6150  -32.4850   25.6790 C   0  0  0  0  0  1  0  0  0  0  0  0
  2  4  2  0
  3  2  1  0
  3  1  1  0
  5  3  1  0
  6 45  1  0
  6 15  1  0
  6  2  1  0
  7 15  1  0
  8 13  1  0
  9 10  1  0
  9  8  1  0
 11 10  1  0
 11 20  1  0
 11 12  1  0
 13  7  1  0
 13 12  1  0
 14  7  2  0
 15 16  1  0
 17 18  2  0
 18 37  1  0
 19 18  1  0
 19 22  1  0
 20 17  1  0
 20 21  1  0
 21 19  2  0
 22 23  1  0
 23 24  2  0
 25 28  1  0
 25 24  1  0
 26 25  2  0
 27 26  1  0
 27 22  2  0
 28 29  1  0
 29 30  1  0
 30 31  2  0
 32 31  1  0
 32 36  1  0
 33 32  2  0
 34 29  2  0
 34 33  1  0
 35 34  1  0
 37 38  1  0
 38 41  1  0
 38 40  1  0
 39 37  2  0
 42 43  1  0
 42 17  1  0
 44 42  1  0
 47 48  1  0
 48 46  1  0
 48 45  1  0
 49 50  1  0
 49  1  1  0
 50 52  1  0
 51 49  2  0
 53 50  1  0
 53 54  1  0
 55 57  1  0
 55 54  1  0
 56 67  2  0
 57 62  1  0
 58 66  1  0
 58 68  1  0
 59 65  1  0
 59 61  1  0
 60 66  1  0
 61 60  1  0
 62 61  2  0
 63 64  1  0
 63 57  2  0
 64 59  2  0
 65 58  1  0
 66 56  1  0
 68 70  2  0
 69 68  1  0
 71 69  1  0
 72 81  2  0
 72 77  1  0
 73 69  1  0
 73 77  1  0
 74 73  1  0
 75 76  1  0
 75 74  1  0
 76 72  1  0
 77 78  2  0
 78 79  1  0
 80 79  2  0
 81 80  1  0
 82 56  1  0
 82 83  1  0
 82 92  1  0
 83 86  1  0
 84 88  1  0
 84 83  1  0
 85 84  2  0
 88 87  1  0
 90 88  1  0
 90 91  1  0
 90 89  1  0
 92 95  1  1
 92 93  1  0
 94 92  1  0
M  ISO  4   7 100  15 100  54 101  55 101
M  END
>  <TORSDO>  (60) 
F 23

>  <SCORE>  (60) 
-11.525

>  <name>  (60) 
60

>  <ligand_id>  (60) 
60

>  <original_smiles>  (60) 
[H]c1c([H])c([H])c2c(c1[H])C([H])([H])C([H])([H])C([H])([H])C2([H])N([H])C(=O)C1([H])N(C(=O)C([H])(N([H])C(=O)C([H])(N([H])C([H])([H])[H])C([H])([H])[H])C(C([H])([H])[H])(C([H])([H])[H])C([H])([H])[H])C([H])([H])c2c([H])c(OC([H])([H])C([H])([H])N([H])C(=O)C([H])([H])N([H])C(=O)C([H])(N([H])C(=O)N3C([H])([H])C([H])([H])C([H])([H])C([H])(n4nc(-c5c([H])c([H])c(Oc6c([H])c([H])c(F)c([H])c6F)c([H])c5[H])c(C(=O)N([H])[H])c4N([H])[H])C3([H])[H])C([H])([H])C([H])(C([H])([H])[H])C([H])([H])[H])c([H])c([H])c2C1([H])[H]

>  <smiles>  (60) 
[H]c1c([H])c([H])c2c(c1[H])C([H])([H])C([H])([H])C([H])([H])C2([H])N([H])C(=O)C1([H])N(C(=O)C([H])(N([H])C(=O)C([H])(N([H])C([H])([H])[H])C([H])([H])[H])C(C([H])([H])[H])(C([H])([H])[H])C([H])([H])[H])C([H])([H])c2c([H])c(OC([H])([H])C([H])([H])N([H])C(=O)C([H])([H])N([H])C(=O)C([H])(N([H])C(=O)N3C([H])([H])C([H])([H])C([H])([H])C([H])(n4nc(-c5c([H])c([H])c(Oc6c([H])c([H])c(F)c([H])c6F)c([H])c5[H])c(C(=O)N([H])[H])c4N([H])[H])C3([H])[H])C([H])([H])C([H])(C([H])([H])[H])C([H])([H])[H])c([H])c([H])c2C1([H])[H]

$$$$
61:0:0
     RDKit          3D

 99104  0  0  1  0  0  0  0  0999 V2000
  -24.5780  -25.4300   23.9530 C   0  0  0  0  0  0  0  0  0  0  0  0
  -23.3510  -26.1720   24.4560 N   0  0  0  0  0  0  0  0  0  0  0  0
  -25.4400  -26.2040   23.5560 O   0  0  0  0  0  0  0  0  0  0  0  0
  -22.5880  -25.5020   24.5190 H   0  0  0  0  0  0  0  0  0  0  0  0
  -22.8190  -27.7310   25.0930 C   0  0  0  0  0  1  0  0  0  0  0  0
  -22.0050  -29.4500   24.5290 C   0  0  0  0  0 15  0  0  0  0  0  0
  -21.3140  -30.2200   22.8240 C   0  0  0  0  0  1  0  0  0  0  0  0
  -21.2890  -29.4610   21.0230 C   0  0  0  0  0  3  0  0  0  0  0  0
  -22.3690  -28.0850   20.1340 C   0  0  0  0  0  3  0  0  0  0  0  0
  -23.8580  -26.9170   20.4930 C   0  0  0  0  0  2  0  0  0  0  0  0
  -25.5400  -26.8560   20.7820 O   0  0  0  0  0  0  0  0  0  0  0  0
  -24.7150  -31.8830   23.2180 C   0  0  0  0  0  0  0  0  0  0  0  0
  -26.6370  -27.3090   20.0700 C   0  0  0  0  0  3  0  0  0  0  0  0
  -23.7240  -30.3300   21.5780 C   0  0  0  0  0  3  0  0  0  0  0  0
  -25.0900  -29.3960   19.7540 C   0  0  0  0  0  3  0  0  0  0  0  0
  -26.1730  -30.7920   21.5150 C   0  0  0  0  0  2  0  0  0  0  0  0
  -26.1660  -29.5520   20.6240 C   0  0  0  0  0  3  0  0  0  0  0  0
  -27.1030  -28.5100   20.6690 C   0  0  0  0  0  2  0  0  0  0  0  0
  -26.0580  -27.3810   18.8310 C   0  0  0  0  0  2  0  0  0  0  0  0
  -25.1190  -28.4120   18.7340 C   0  0  0  0  0  2  0  0  0  0  0  0
  -23.9630  -30.2980   20.0300 C   0  0  0  0  0  2  0  0  0  0  0  0
  -24.8720  -31.0240   22.1770 N   0  0  0  0  0  0  0  0  0  0  0  0
  -23.6060  -32.1760   23.6920 O   0  0  0  0  0  0  0  0  0  0  0  0
  -23.4900  -28.9110   22.4280 C   0  0  0  0  0  0  0  0  0  0  0  0
  -22.3570  -27.9690   22.6360 N   0  0  0  0  0  0  0  0  0  0  0  0
  -24.3990  -28.6590   23.1750 O   0  0  0  0  0  0  0  0  0  0  0  0
  -22.8370  -27.3240   23.2560 H   0  0  0  0  0  0  0  0  0  0  0  0
  -18.0760  -27.9860   22.7220 C   0  0  0  0  0  0  0  0  0  0  0  0
  -20.7410  -27.6910   22.9860 C   0  0  0  0  0  3  0  0  0  0  0  0
  -20.5130  -26.3600   22.3400 C   0  0  0  0  0  2  0  0  0  0  0  0
  -19.3960  -26.3190   21.3280 C   0  0  0  0  0  2  0  0  0  0  0  0
  -18.0890  -26.6530   22.0240 C   0  0  0  0  0  2  0  0  0  0  0  0
  -19.2780  -28.5210   23.2730 C   0  0  0  0  0  0  0  0  0  0  0  0
  -18.9510  -29.6470   24.1430 C   0  0  0  0  0  3  0  0  0  0  0  0
  -17.7290  -30.3410   24.1800 C   0  0  0  0  0  3  0  0  0  0  0  0
  -16.6190  -29.7910   23.5380 C   0  0  0  0  0  3  0  0  0  0  0  0
  -16.8020  -28.5880   22.8480 C   0  0  0  0  0  3  0  0  0  0  0  0
  -25.9680  -32.5340   23.8610 C   0  0  0  0  0  3  0  0  0  0  0  0
  -25.6020  -33.9020   24.2420 N   0  0  0  0  0  0  0  0  0  0  0  0
  -25.8880  -34.9850   23.5120 C   0  0  0  0  0  0  0  0  0  0  0  0
  -26.5320  -34.9340   22.4640 O   0  0  0  0  0  0  0  0  0  0  0  0
  -25.0560  -34.0170   25.0810 H   0  0  0  0  0  0  0  0  0  0  0  0
  -24.1420  -36.7460   23.2600 C   0  0  0  0  0  1  0  0  0  0  0  0
  -25.4110  -36.3510   24.0360 C   0  0  0  0  0  3  0  0  0  0  0  0
  -27.5670  -37.2000   24.8420 C   0  0  0  0  0  1  0  0  0  0  0  0
  -26.4420  -37.4110   23.9300 N   0  0  0  0  0  0  0  0  0  0  0  0
  -26.0390  -38.3180   24.1590 H   0  0  0  0  0  0  0  0  0  0  0  0
  -26.4700  -31.7180   25.1060 C   0  0  1  0  0  0  0  0  0  0  0  0
  -25.3400  -31.4600   26.1250 C   0  0  0  0  0  1  0  0  0  0  0  0
  -27.0540  -30.3500   24.7020 C   0  0  0  0  0  1  0  0  0  0  0  0
  -27.6250  -32.4700   25.7990 C   0  0  0  0  0  1  0  0  0  0  0  0
  -25.2590  -23.7590   24.0360 C   0  0  0  0  0  0  0  0  0  0  0  0
  -24.7710  -22.7140   26.2900 C   0  0  0  0  0  0  0  0  0  0  0  0
  -25.2980  -22.7200   27.7070 C   0  0  0  0  0  1  0  0  0  0  0  0
  -25.3480  -23.5790   25.4730 N   0  0  0  0  0  4  0  0  0  0  0  0
  -23.8990  -21.9420   25.9080 O   0  0  0  0  0  0  0  0  0  0  0  0
  -25.8510  -24.3320   25.9190 H   0  0  0  0  0  0  0  0  0  0  0  0
  -25.6720  -22.2160   23.0550 C   0  0  0  0  0  3  0  0  0  0  0  0
  -27.0660  -20.9650   22.9020 C   0  0  0  0  0  3  0  0  0  0  0  0
  -27.3830  -19.2580   22.1570 C   0  0  0  0  0  3  0  0  0  0  0  0
  -28.8590  -18.1220   21.8510 C   0  0  0  0  0  3  0  0  0  0  0  0
  -30.1120  -15.3500   20.8490 C   0  0  0  0  0  0  0  0  0  0  0  0
  -30.4100  -12.9890   19.6760 C   0  0  0  0  0  2  0  0  0  0  0  0
  -29.5510  -12.6930   18.4010 C   0  0  0  0  0  2  0  0  0  0  0  0
  -28.1010  -12.3320   18.7620 C   0  0  0  0  0  2  0  0  0  0  0  0
  -27.5880  -13.2630   19.8830 C   0  0  0  0  0  3  0  0  0  0  0  0
  -28.5400  -13.3420   21.0870 C   0  0  0  0  0  2  0  0  0  0  0  0
  -29.7210  -14.0060   20.5840 N   0  0  0  0  0  0  0  0  0  0  0  0
  -31.3070  -15.4980   20.5060 O   0  0  0  0  0  0  0  0  0  0  0  0
  -29.2300  -16.4960   21.3500 N   0  0  0  0  0  0  0  0  0  0  0  0
  -30.1660  -16.8930   21.2990 H   0  0  0  0  0  0  0  0  0  0  0  0
  -25.2150  -13.8120   20.5780 C   0  0  0  0  0  0  0  0  0  0  0  0
  -24.1560  -13.0430   20.9210 C   0  0  0  0  0  0  0  0  0  0  0  0
  -24.6170  -11.6840   20.8700 C   0  0  0  0  0  0  0  0  0  0  0  0
  -26.2520  -12.9400   20.3140 N   0  0  0  0  0  0  0  0  0  0  0  0
  -25.9110  -11.6530   20.5680 N   0  0  0  0  0  0  0  0  0  0  0  0
  -23.8910  -10.4250   21.0360 C   0  0  0  0  0  0  0  0  0  0  0  0
  -24.3530   -9.4190   21.9140 C   0  0  0  0  0  3  0  0  0  0  0  0
  -23.6250   -8.2200   22.0720 C   0  0  0  0  0  3  0  0  0  0  0  0
  -22.4230   -8.0210   21.3510 C   0  0  0  0  0  0  0  0  0  0  0  0
  -21.9830   -9.0160   20.4600 C   0  0  0  0  0  3  0  0  0  0  0  0
  -22.7090  -10.2050   20.3010 C   0  0  0  0  0  3  0  0  0  0  0  0
  -21.6600   -6.8820   21.4230 O   0  0  0  0  0  0  0  0  0  0  0  0
  -21.6860   -6.0680   22.5270 C   0  0  0  0  0  0  0  0  0  0  0  0
  -21.4010   -6.5600   23.8200 C   0  0  0  0  0  3  0  0  0  0  0  0
  -21.3650   -5.6770   24.9170 C   0  0  0  0  0  3  0  0  0  0  0  0
  -21.6050   -4.3030   24.7240 C   0  0  0  0  0  0  0  0  0  0  0  0
  -21.8820   -3.8100   23.4360 C   0  0  0  0  0  3  0  0  0  0  0  0
  -21.9180   -4.6910   22.3410 C   0  0  0  0  0  0  0  0  0  0  0  0
  -22.1660   -4.2110   21.0990 F   0  0  0  0  0  0  0  0  0  0  0  0
  -21.5630   -3.4510   25.7750 F   0  0  0  0  0  0  0  0  0  0  0  0
  -22.7560  -13.5090   21.1970 C   0  0  0  0  0  0  0  0  0  0  0  0
  -22.0290  -12.8120   22.0510 N   0  0  0  0  0  0  0  0  0  0  0  0
  -22.3280  -14.5430   20.6780 O   0  0  0  0  0  0  0  0  0  0  0  0
  -22.3980  -11.9790   22.4910 H   0  0  0  0  0  0  0  0  0  0  0  0
  -21.0910  -13.1090   22.2760 H   0  0  0  0  0  0  0  0  0  0  0  0
  -25.3860  -15.1970   20.4360 N   0  0  0  0  0  0  0  0  0  0  0  0
  -24.6230  -15.8450   20.6100 H   0  0  0  0  0  0  0  0  0  0  0  0
  -26.2510  -15.6510   20.1830 H   0  0  0  0  0  0  0  0  0  0  0  0
  1 52  1  0
  1  2  1  0
  2  4  1  0
  2  5  1  0
  3  1  2  0
  8  7  1  0
  9 10  1  0
  9  8  2  0
 10 11  1  0
 12 23  2  0
 13 18  1  0
 13 11  1  0
 14 22  1  0
 14 24  1  0
 15 20  1  0
 15 21  1  0
 15 17  1  0
 16 22  1  0
 17 18  1  0
 17 16  1  0
 19 13  1  0
 20 19  1  0
 21 14  1  0
 22 12  1  0
 24 25  1  0
 24 26  2  0
 25 27  1  0
 28 37  2  0
 28 33  1  0
 29 25  1  0
 29 33  1  0
 30 29  1  0
 31 32  1  0
 31 30  1  0
 32 28  1  0
 33 34  2  0
 34 35  1  0
 36 35  2  0
 37 36  1  0
 38 12  1  0
 38 39  1  0
 38 48  1  0
 39 42  1  0
 40 44  1  0
 40 39  1  0
 41 40  2  0
 44 43  1  0
 46 44  1  0
 46 47  1  0
 46 45  1  0
 48 51  1  1
 48 49  1  0
 50 48  1  0
 52 55  2  0
 53 54  1  0
 55 57  1  0
 55 53  1  0
 56 53  2  0
 58 52  1  0
 59 58  2  0
 60 59  1  0
 61 60  2  0
 62 70  1  0
 63 68  1  0
 64 65  1  0
 64 63  1  0
 66 65  1  0
 66 75  1  0
 66 67  1  0
 68 62  1  0
 68 67  1  0
 69 62  2  0
 70 61  1  0
 71 70  1  0
 72 73  2  0
 73 92  1  0
 74 73  1  0
 74 77  1  0
 75 76  1  0
 75 72  1  0
 76 74  2  0
 77 78  1  0
 78 79  2  0
 80 83  1  0
 80 79  1  0
 81 80  2  0
 82 81  1  0
 82 77  2  0
 83 84  1  0
 84 85  1  0
 85 86  2  0
 87 86  1  0
 87 91  1  0
 88 87  2  0
 89 84  2  0
 89 88  1  0
 90 89  1  0
 92 93  1  0
 93 96  1  0
 93 95  1  0
 94 92  2  0
 97 72  1  0
 97 98  1  0
 99 97  1  0
M  ISO  4  10 101  11 101  62 100  70 100
M  END
>  <TORSDO>  (61) 
F 28

>  <SCORE>  (61) 
31.839

>  <name>  (61) 
61

>  <ligand_id>  (61) 
61

>  <original_smiles>  (61) 
[H]c1c([H])c([H])c2c(c1[H])C([H])([H])C([H])([H])C([H])([H])C2([H])N([H])C(=O)C1([H])N(C(=O)C([H])(N([H])C(=O)C([H])(N([H])C([H])([H])[H])C([H])([H])[H])C(C([H])([H])[H])(C([H])([H])[H])C([H])([H])[H])C([H])([H])c2c([H])c(OC([H])([H])C([H])([H])C([H])([H])C([H])([H])C([H])([H])C([H])([H])N([H])C(=O)C([H])(N([H])C(=O)C([H])([H])[H])C([H])([H])C([H])([H])C([H])([H])C([H])([H])N([H])C(=O)N3C([H])([H])C([H])([H])C([H])([H])C([H])(n4nc(-c5c([H])c([H])c(Oc6c([H])c([H])c(F)c([H])c6F)c([H])c5[H])c(C(=O)N([H])[H])c4N([H])[H])C3([H])[H])c([H])c([H])c2C1([H])[H]

>  <smiles>  (61) 
[H]c1c([H])c([H])c2c(c1[H])C([H])([H])C([H])([H])C([H])([H])C2([H])N([H])C(=O)C1([H])N(C(=O)C([H])(N([H])C(=O)C([H])(N([H])C([H])([H])[H])C([H])([H])[H])C(C([H])([H])[H])(C([H])([H])[H])C([H])([H])[H])C([H])([H])c2c([H])c(OC([H])([H])C([H])([H])C([H])([H])C([H])([H])C([H])([H])C([H])([H])N([H])C(=O)C([H])(N([H])C(=O)C([H])([H])[H])C([H])([H])C([H])([H])C([H])([H])C([H])([H])N([H])C(=O)N3C([H])([H])C([H])([H])C([H])([H])C([H])(n4nc(-c5c([H])c([H])c(Oc6c([H])c([H])c(F)c([H])c6F)c([H])c5[H])c(C(=O)N([H])[H])c4N([H])[H])C3([H])[H])c([H])c([H])c2C1([H])[H]

$$$$
62:0:0
     RDKit          3D

101109  0  0  1  0  0  0  0  0999 V2000
  -29.9680  -17.0250   20.5880 C   0  0  0  0  0  3  0  0  0  0  0  0
  -30.4740  -14.5080   20.1970 C   0  0  0  0  0  0  0  0  0  0  0  0
  -30.1930  -12.3500   19.0470 C   0  0  0  0  0  2  0  0  0  0  0  0
  -29.1900  -12.5520   17.8920 C   0  0  0  0  0  2  0  0  0  0  0  0
  -27.7410  -12.3560   18.3890 C   0  0  0  0  0  2  0  0  0  0  0  0
  -27.4390  -13.1570   19.6860 C   0  0  0  0  0  3  0  0  0  0  0  0
  -28.5580  -12.9590   20.7360 C   0  0  0  0  0  2  0  0  0  0  0  0
  -29.8340  -13.3110   20.0980 N   0  0  0  0  0  0  0  0  0  0  0  0
  -31.6400  -14.6560   19.8260 O   0  0  0  0  0  0  0  0  0  0  0  0
  -29.6760  -15.5610   20.5120 N   0  0  0  0  0  0  0  0  0  0  0  0
  -28.7280  -15.3050   20.7360 H   0  0  0  0  0  0  0  0  0  0  0  0
  -25.0600  -13.6820   20.5060 C   0  0  0  0  0  0  0  0  0  0  0  0
  -24.0380  -12.8730   20.9260 C   0  0  0  0  0  0  0  0  0  0  0  0
  -24.5430  -11.5390   20.8700 C   0  0  0  0  0  0  0  0  0  0  0  0
  -26.1230  -12.8370   20.2270 N   0  0  0  0  0  0  0  0  0  0  0  0
  -25.8190  -11.5430   20.5060 N   0  0  0  0  0  0  0  0  0  0  0  0
  -23.8690  -10.2520   21.0870 C   0  0  0  0  0  0  0  0  0  0  0  0
  -24.3470   -9.3170   22.0320 C   0  0  0  0  0  3  0  0  0  0  0  0
  -23.6710   -8.0950   22.2350 C   0  0  0  0  0  3  0  0  0  0  0  0
  -22.5030   -7.7970   21.4920 C   0  0  0  0  0  0  0  0  0  0  0  0
  -22.0460   -8.7220   20.5350 C   0  0  0  0  0  3  0  0  0  0  0  0
  -22.7230   -9.9350   20.3310 C   0  0  0  0  0  3  0  0  0  0  0  0
  -21.7970   -6.6240   21.6030 O   0  0  0  0  0  0  0  0  0  0  0  0
  -21.7390   -5.9280   22.7820 C   0  0  0  0  0  0  0  0  0  0  0  0
  -21.2290   -6.5060   23.9660 C   0  0  0  0  0  3  0  0  0  0  0  0
  -21.1260   -5.7310   25.1390 C   0  0  0  0  0  3  0  0  0  0  0  0
  -21.5220   -4.3800   25.1300 C   0  0  0  0  0  0  0  0  0  0  0  0
  -22.0250   -3.8030   23.9510 C   0  0  0  0  0  3  0  0  0  0  0  0
  -22.1310   -4.5740   22.7810 C   0  0  0  0  0  0  0  0  0  0  0  0
  -22.5950   -4.0060   21.6420 F   0  0  0  0  0  0  0  0  0  0  0  0
  -21.4180   -3.6350   26.2550 F   0  0  0  0  0  0  0  0  0  0  0  0
  -22.6360  -13.3020   21.2590 C   0  0  0  0  0  0  0  0  0  0  0  0
  -21.9720  -12.5870   22.1600 N   0  0  0  0  0  0  0  0  0  0  0  0
  -22.1390  -14.3060   20.7510 O   0  0  0  0  0  0  0  0  0  0  0  0
  -22.3840  -11.7720   22.5920 H   0  0  0  0  0  0  0  0  0  0  0  0
  -21.0350  -12.8570   22.4240 H   0  0  0  0  0  0  0  0  0  0  0  0
  -25.1700  -15.0580   20.3170 N   0  0  0  0  0  0  0  0  0  0  0  0
  -24.3770  -15.6790   20.4370 H   0  0  0  0  0  0  0  0  0  0  0  0
  -25.9670  -15.5150   19.8950 H   0  0  0  0  0  0  0  0  0  0  0  0
  -31.1770  -17.4940   19.7420 C   0  0  0  0  0  0  0  0  0  0  0  0
  -34.1440  -19.5360   20.5340 C   0  0  0  0  0  2  0  0  0  0  0  0
  -33.2400  -18.8380   19.5180 C   0  0  0  0  0  2  0  0  0  0  0  0
  -32.1310  -18.8180   21.6500 C   0  0  0  0  0  2  0  0  0  0  0  0
  -33.2550  -19.8630   21.7370 C   0  0  0  0  0  3  0  0  0  0  0  0
  -32.1070  -18.3180   20.2760 N   0  0  0  0  0  0  0  0  0  0  0  0
  -31.2400  -17.1240   18.5650 O   0  0  0  0  0  0  0  0  0  0  0  0
  -32.7130  -21.3120   21.7580 C   0  0  0  0  0  2  0  0  0  0  0  0
  -30.7140  -22.5140   22.6400 C   0  0  0  0  0  1  0  0  0  0  0  0
  -31.7620  -21.5030   22.8770 N   0  0  0  0  0  4  0  0  0  0  0  0
  -31.3030  -20.6300   23.0740 H   0  0  0  0  0  0  0  0  0  0  0  0
  -32.2770  -21.7660   23.7040 H   0  0  0  0  0  0  0  0  0  0  0  0
  -28.6850  -17.8690   20.2670 C   0  0  0  0  0  2  0  0  0  0  0  0
  -28.6250  -19.3850   20.6830 C   0  0  0  0  0  2  0  0  0  0  0  0
  -29.3860  -20.4210   19.7980 C   0  0  0  0  0  2  0  0  0  0  0  0
  -28.5780  -21.6510   19.2620 C   0  0  0  0  0  2  0  0  0  0  0  0
  -28.3190  -24.1220   19.6830 C   0  0  0  0  0  0  0  0  0  0  0  0
  -28.5410  -22.8570   20.1190 N   0  0  0  0  0  0  0  0  0  0  0  0
  -28.2010  -24.3800   18.4820 O   0  0  0  0  0  0  0  0  0  0  0  0
  -28.6420  -22.7270   21.1170 H   0  0  0  0  0  0  0  0  0  0  0  0
  -28.1960  -25.2600   20.7340 C   0  0  0  0  0  2  0  0  0  0  0  0
  -28.3180  -26.5950   20.1660 O   0  0  0  0  0  0  0  0  0  0  0  0
  -24.6510  -31.8540   23.3260 C   0  0  0  0  0  0  0  0  0  0  0  0
  -27.1770  -27.3780   20.1780 C   0  0  0  0  0  0  0  0  0  0  0  0
  -23.4030  -30.4980   21.6750 C   0  0  0  0  0  3  0  0  0  0  0  0
  -24.8140  -28.9470   20.2210 C   0  0  0  0  0  0  0  0  0  0  0  0
  -25.9340  -30.8090   21.4570 C   0  0  0  0  0  2  0  0  0  0  0  0
  -25.9890  -29.4410   20.8010 C   0  0  0  0  0  0  0  0  0  0  0  0
  -27.1770  -28.6670   20.7690 C   0  0  0  0  0  3  0  0  0  0  0  0
  -25.9850  -26.9050   19.5910 C   0  0  0  0  0  3  0  0  0  0  0  0
  -24.8100  -27.6800   19.6150 C   0  0  0  0  0  3  0  0  0  0  0  0
  -23.5840  -29.8250   20.2870 C   0  0  0  0  0  2  0  0  0  0  0  0
  -24.6820  -31.0680   22.2120 N   0  0  0  0  0  0  0  0  0  0  0  0
  -23.5800  -32.1380   23.8800 O   0  0  0  0  0  0  0  0  0  0  0  0
  -22.7380  -29.4800   22.6300 C   0  0  0  0  0  0  0  0  0  0  0  0
  -21.4160  -29.2930   22.4820 N   0  0  0  0  0  0  0  0  0  0  0  0
  -23.4110  -28.8600   23.4570 O   0  0  0  0  0  0  0  0  0  0  0  0
  -20.9310  -29.8500   21.7930 H   0  0  0  0  0  0  0  0  0  0  0  0
  -18.0500  -28.0420   22.8910 C   0  0  0  0  0  0  0  0  0  0  0  0
  -20.5940  -28.3480   23.2370 C   0  0  0  0  0  3  0  0  0  0  0  0
  -20.7370  -26.9100   22.6860 C   0  0  0  0  0  2  0  0  0  0  0  0
  -19.6730  -26.5540   21.6430 C   0  0  0  0  0  2  0  0  0  0  0  0
  -18.2700  -26.6860   22.2400 C   0  0  0  0  0  2  0  0  0  0  0  0
  -19.1420  -28.8290   23.3440 C   0  0  0  0  0  0  0  0  0  0  0  0
  -18.8870  -30.0980   23.9070 C   0  0  0  0  0  3  0  0  0  0  0  0
  -17.5690  -30.5800   24.0270 C   0  0  0  0  0  3  0  0  0  0  0  0
  -16.4900  -29.7890   23.5920 C   0  0  0  0  0  3  0  0  0  0  0  0
  -16.7310  -28.5230   23.0280 C   0  0  0  0  0  3  0  0  0  0  0  0
  -25.9530  -32.4530   23.9420 C   0  0  0  0  0  3  0  0  0  0  0  0
  -26.4410  -31.6880   25.2330 C   0  0  1  0  0  0  0  0  0  0  0  0
  -25.3380  -31.5020   26.3010 C   0  0  0  0  0  1  0  0  0  0  0  0
  -26.9840  -30.2880   24.8660 C   0  0  0  0  0  1  0  0  0  0  0  0
  -27.6100  -32.4610   25.8910 C   0  0  0  0  0  1  0  0  0  0  0  0
  -25.6930  -33.8670   24.2500 N   0  0  0  0  0  0  0  0  0  0  0  0
  -26.0620  -34.8950   23.4740 C   0  0  0  0  0  0  0  0  0  0  0  0
  -26.7300  -34.7520   22.4470 O   0  0  0  0  0  0  0  0  0  0  0  0
  -25.1140  -34.0550   25.0540 H   0  0  0  0  0  0  0  0  0  0  0  0
  -24.3960  -36.7380   23.0830 C   0  0  0  0  0  1  0  0  0  0  0  0
  -25.6190  -36.3050   23.9080 C   0  0  0  0  0  3  0  0  0  0  0  0
  -27.7720  -37.1370   24.7450 C   0  0  0  0  0  1  0  0  0  0  0  0
  -26.6850  -37.3230   23.7860 N   0  0  0  0  0  0  0  0  0  0  0  0
  -26.3060  -38.2580   23.9130 H   0  0  0  0  0  0  0  0  0  0  0  0
  1 52  1  0
  2 10  1  0
  3  8  1  0
  4  5  1  0
  4  3  1  0
  6  5  1  0
  6 15  1  0
  6  7  1  0
  8  2  1  0
  8  7  1  0
  9  2  2  0
 10  1  1  0
 10 11  1  0
 12 13  2  0
 13 32  1  0
 14 13  1  0
 14 17  1  0
 15 16  1  0
 15 12  1  0
 16 14  2  0
 17 18  1  0
 18 19  2  0
 20 23  1  0
 20 19  1  0
 21 20  2  0
 22 21  1  0
 22 17  2  0
 23 24  1  0
 24 25  1  0
 25 26  2  0
 27 26  1  0
 27 31  1  0
 28 27  2  0
 29 24  2  0
 29 28  1  0
 30 29  1  0
 32 33  1  0
 33 36  1  0
 33 35  1  0
 34 32  2  0
 37 38  1  0
 37 12  1  0
 39 37  1  0
 40 45  1  0
 40  1  1  0
 41 44  1  0
 42 45  1  0
 42 41  1  0
 43 44  1  0
 44 47  1  0
 45 43  1  0
 46 40  2  0
 47 49  1  0
 48 49  1  0
 49 50  1  0
 49 51  1  0
 52 53  1  0
 54 53  1  0
 55 54  1  0
 55 57  1  0
 56 57  1  0
 56 60  1  0
 57 59  1  0
 58 56  2  0
 61 63  1  0
 61 60  1  0
 62 73  2  0
 63 68  1  0
 64 72  1  0
 64 74  1  0
 65 71  1  0
 65 67  1  0
 66 72  1  0
 67 66  1  0
 68 67  2  0
 69 70  1  0
 69 63  2  0
 70 65  2  0
 71 64  1  0
 72 62  1  0
 74 76  2  0
 75 74  1  0
 77 75  1  0
 78 87  2  0
 78 83  1  0
 79 75  1  0
 79 83  1  0
 80 79  1  0
 81 82  1  0
 81 80  1  0
 82 78  1  0
 83 84  2  0
 84 85  1  0
 86 85  2  0
 87 86  1  0
 88 62  1  0
 88 93  1  0
 88 89  1  0
 89 92  1  1
 89 90  1  0
 91 89  1  0
 93 96  1  0
 94 98  1  0
 94 93  1  0
 95 94  2  0
 98 97  1  0
100 98  1  0
100101  1  0
100 99  1  0
M  ISO  4   2 100  10 100  60 101  61 101
M  END
>  <TORSDO>  (62) 
F 25

>  <SCORE>  (62) 
-12.332

>  <name>  (62) 
62

>  <ligand_id>  (62) 
62

>  <original_smiles>  (62) 
[H]c1c([H])c([H])c2c(c1[H])C([H])([H])C([H])([H])C([H])([H])C2([H])N([H])C(=O)C1([H])N(C(=O)C([H])(N([H])C(=O)C([H])(N([H])C([H])([H])[H])C([H])([H])[H])C(C([H])([H])[H])(C([H])([H])[H])C([H])([H])[H])C([H])([H])c2c([H])c(OC([H])([H])C(=O)N([H])C([H])([H])C([H])([H])C([H])([H])C([H])([H])C([H])(C(=O)N3C([H])([H])C([H])([H])C([H])(C([H])([H])[N+]([H])([H])C([H])([H])[H])C3([H])[H])N([H])C(=O)N3C([H])([H])C([H])([H])C([H])([H])C([H])(n4nc(-c5c([H])c([H])c(Oc6c([H])c([H])c(F)c([H])c6F)c([H])c5[H])c(C(=O)N([H])[H])c4N([H])[H])C3([H])[H])c([H])c([H])c2C1([H])[H]

>  <smiles>  (62) 
[H]c1c([H])c([H])c2c(c1[H])C([H])([H])C([H])([H])C([H])([H])C2([H])N([H])C(=O)C1([H])N(C(=O)C([H])(N([H])C(=O)C([H])(N([H])C([H])([H])[H])C([H])([H])[H])C(C([H])([H])[H])(C([H])([H])[H])C([H])([H])[H])C([H])([H])c2c([H])c(OC([H])([H])C(=O)N([H])C([H])([H])C([H])([H])C([H])([H])C([H])([H])C([H])(C(=O)N3C([H])([H])C([H])([H])C([H])(C([H])([H])[N+]([H])([H])C([H])([H])[H])C3([H])[H])N([H])C(=O)N3C([H])([H])C([H])([H])C([H])([H])C([H])(n4nc(-c5c([H])c([H])c(Oc6c([H])c([H])c(F)c([H])c6F)c([H])c5[H])c(C(=O)N([H])[H])c4N([H])[H])C3([H])[H])c([H])c([H])c2C1([H])[H]

$$$$
63:0:0
     RDKit          3D

 85 92  0  0  1  0  0  0  0  0999 V2000
  -29.0070  -23.4420   20.3590 C   0  0  0  0  0  3  0  0  0  0  0  0
  -28.5670  -21.8280   20.2590 C   0  0  0  0  0  3  0  0  0  0  0  0
  -29.5960  -20.5120   20.3810 C   0  0  0  0  0  3  0  0  0  0  0  0
  -29.1360  -18.9010   20.3870 C   0  0  0  0  0  3  0  0  0  0  0  0
  -30.2010  -17.6110   20.4040 C   0  0  0  0  0  3  0  0  0  0  0  0
  -30.5520  -14.9210   20.3340 C   0  0  0  0  0  0  0  0  0  0  0  0
  -30.4060  -12.5910   19.3770 C   0  0  0  0  0  2  0  0  0  0  0  0
  -29.4680  -12.5760   18.1480 C   0  0  0  0  0  2  0  0  0  0  0  0
  -28.0050  -12.3750   18.5850 C   0  0  0  0  0  2  0  0  0  0  0  0
  -27.6070  -13.2870   19.7750 C   0  0  0  0  0  3  0  0  0  0  0  0
  -28.6680  -13.2770   20.8960 C   0  0  0  0  0  2  0  0  0  0  0  0
  -29.9420  -13.6740   20.2840 N   0  0  0  0  0  0  0  0  0  0  0  0
  -31.7500  -14.9900   20.0420 O   0  0  0  0  0  0  0  0  0  0  0  0
  -29.7900  -16.0990   20.4990 N   0  0  0  0  0  0  0  0  0  0  0  0
  -28.8120  -15.9330   20.6850 H   0  0  0  0  0  0  0  0  0  0  0  0
  -25.2220  -13.8540   20.5160 C   0  0  0  0  0  0  0  0  0  0  0  0
  -24.1640  -13.0730   20.8890 C   0  0  0  0  0  0  0  0  0  0  0  0
  -24.6380  -11.7260   20.8590 C   0  0  0  0  0  0  0  0  0  0  0  0
  -26.2710  -12.9830   20.2750 N   0  0  0  0  0  0  0  0  0  0  0  0
  -25.9280  -11.6980   20.5490 N   0  0  0  0  0  0  0  0  0  0  0  0
  -23.9190  -10.4590   21.0510 C   0  0  0  0  0  0  0  0  0  0  0  0
  -24.3620   -9.4910   21.9800 C   0  0  0  0  0  3  0  0  0  0  0  0
  -23.6420   -8.2900   22.1610 C   0  0  0  0  0  3  0  0  0  0  0  0
  -22.4650   -8.0490   21.4120 C   0  0  0  0  0  0  0  0  0  0  0  0
  -22.0420   -9.0040   20.4720 C   0  0  0  0  0  3  0  0  0  0  0  0
  -22.7630  -10.1970   20.2900 C   0  0  0  0  0  3  0  0  0  0  0  0
  -21.7160   -6.9000   21.5030 O   0  0  0  0  0  0  0  0  0  0  0  0
  -21.6820   -6.1510   22.6510 C   0  0  0  0  0  0  0  0  0  0  0  0
  -21.2690   -6.6990   23.8860 C   0  0  0  0  0  3  0  0  0  0  0  0
  -21.1830   -5.8770   25.0270 C   0  0  0  0  0  3  0  0  0  0  0  0
  -21.4980   -4.5080   24.9350 C   0  0  0  0  0  0  0  0  0  0  0  0
  -21.9040   -3.9590   23.7060 C   0  0  0  0  0  3  0  0  0  0  0  0
  -21.9930   -4.7790   22.5670 C   0  0  0  0  0  0  0  0  0  0  0  0
  -22.3640   -4.2410   21.3790 F   0  0  0  0  0  0  0  0  0  0  0  0
  -21.4080   -3.7150   26.0290 F   0  0  0  0  0  0  0  0  0  0  0  0
  -22.7630  -13.5410   21.1570 C   0  0  0  0  0  0  0  0  0  0  0  0
  -22.0420  -12.8460   22.0300 N   0  0  0  0  0  0  0  0  0  0  0  0
  -22.3170  -14.5590   20.6290 O   0  0  0  0  0  0  0  0  0  0  0  0
  -22.4160  -12.0240   22.4790 H   0  0  0  0  0  0  0  0  0  0  0  0
  -21.1020  -13.1420   22.2540 H   0  0  0  0  0  0  0  0  0  0  0  0
  -25.3730  -15.2260   20.3340 N   0  0  0  0  0  0  0  0  0  0  0  0
  -24.5980  -15.8700   20.4460 H   0  0  0  0  0  0  0  0  0  0  0  0
  -26.2070  -15.6720   19.9740 H   0  0  0  0  0  0  0  0  0  0  0  0
  -27.9610  -24.7240   20.1180 C   0  0  0  0  0  3  0  0  0  0  0  0
  -28.2540  -26.2370   20.2540 O   0  0  0  0  0  0  0  0  0  0  0  0
  -24.6510  -31.8960   23.2470 C   0  0  0  0  0  0  0  0  0  0  0  0
  -27.1910  -27.2030   20.1940 C   0  0  0  0  0  0  0  0  0  0  0  0
  -23.4330  -30.5090   21.6140 C   0  0  0  0  0  3  0  0  0  0  0  0
  -24.8640  -28.9350   20.1790 C   0  0  0  0  0  0  0  0  0  0  0  0
  -25.9850  -30.7730   21.4300 C   0  0  0  0  0  2  0  0  0  0  0  0
  -26.0490  -29.3850   20.7760 C   0  0  0  0  0  0  0  0  0  0  0  0
  -27.2150  -28.5350   20.7650 C   0  0  0  0  0  3  0  0  0  0  0  0
  -25.9780  -26.8470   19.5650 C   0  0  0  0  0  3  0  0  0  0  0  0
  -24.8390  -27.6780   19.5590 C   0  0  0  0  0  3  0  0  0  0  0  0
  -23.6400  -29.8340   20.2340 C   0  0  0  0  0  2  0  0  0  0  0  0
  -24.7090  -31.0800   22.1520 N   0  0  0  0  0  0  0  0  0  0  0  0
  -23.5690  -32.1840   23.7830 O   0  0  0  0  0  0  0  0  0  0  0  0
  -22.7570  -29.5020   22.5790 C   0  0  0  0  0  0  0  0  0  0  0  0
  -21.4290  -29.3350   22.4560 N   0  0  0  0  0  0  0  0  0  0  0  0
  -23.4320  -28.8740   23.4000 O   0  0  0  0  0  0  0  0  0  0  0  0
  -20.9420  -29.8920   21.7690 H   0  0  0  0  0  0  0  0  0  0  0  0
  -18.0480  -28.1350   22.9600 C   0  0  0  0  0  0  0  0  0  0  0  0
  -20.6070  -28.4010   23.2320 C   0  0  0  0  0  3  0  0  0  0  0  0
  -20.7100  -26.9650   22.6660 C   0  0  0  0  0  2  0  0  0  0  0  0
  -19.6110  -26.6360   21.6510 C   0  0  0  0  0  2  0  0  0  0  0  0
  -18.2280  -26.7820   22.2910 C   0  0  0  0  0  2  0  0  0  0  0  0
  -19.1660  -28.9020   23.3870 C   0  0  0  0  0  0  0  0  0  0  0  0
  -18.9430  -30.1670   23.9730 C   0  0  0  0  0  3  0  0  0  0  0  0
  -17.6370  -30.6660   24.1360 C   0  0  0  0  0  3  0  0  0  0  0  0
  -16.5350  -29.8970   23.7250 C   0  0  0  0  0  3  0  0  0  0  0  0
  -16.7410  -28.6330   23.1430 C   0  0  0  0  0  3  0  0  0  0  0  0
  -25.9360  -32.5240   23.8670 C   0  0  0  0  0  3  0  0  0  0  0  0
  -25.6300  -33.9210   24.2100 N   0  0  0  0  0  0  0  0  0  0  0  0
  -25.9390  -34.9800   23.4500 C   0  0  0  0  0  0  0  0  0  0  0  0
  -26.5800  -34.8840   22.4000 O   0  0  0  0  0  0  0  0  0  0  0  0
  -25.0520  -34.0680   25.0240 H   0  0  0  0  0  0  0  0  0  0  0  0
  -24.1860  -36.7660   23.1770 C   0  0  0  0  0  1  0  0  0  0  0  0
  -25.4650  -36.3660   23.9300 C   0  0  0  0  0  3  0  0  0  0  0  0
  -27.6300  -37.2640   24.6640 C   0  0  0  0  0  1  0  0  0  0  0  0
  -26.4850  -37.4260   23.7710 N   0  0  0  0  0  0  0  0  0  0  0  0
  -26.0800  -38.3440   23.9390 H   0  0  0  0  0  0  0  0  0  0  0  0
  -26.4540  -31.7460   25.1390 C   0  0  1  0  0  0  0  0  0  0  0  0
  -25.3650  -31.5130   26.2130 C   0  0  0  0  0  1  0  0  0  0  0  0
  -27.0270  -30.3650   24.7460 C   0  0  0  0  0  1  0  0  0  0  0  0
  -27.6140  -32.5320   25.7960 C   0  0  0  0  0  1  0  0  0  0  0  0
  2  1  1  0
  2  3  2  0
  3  4  1  0
  4  5  2  0
  5 14  1  0
  6 14  1  0
  7 12  1  0
  8  9  1  0
  8  7  1  0
 10  9  1  0
 10 19  1  0
 10 11  1  0
 12  6  1  0
 12 11  1  0
 13  6  2  0
 14 15  1  0
 16 17  2  0
 17 36  1  0
 18 17  1  0
 18 21  1  0
 19 16  1  0
 19 20  1  0
 20 18  2  0
 21 22  1  0
 22 23  2  0
 24 27  1  0
 24 23  1  0
 25 24  2  0
 26 25  1  0
 26 21  2  0
 27 28  1  0
 28 29  1  0
 29 30  2  0
 31 30  1  0
 31 35  1  0
 32 31  2  0
 33 28  2  0
 33 32  1  0
 34 33  1  0
 36 37  1  0
 37 40  1  0
 37 39  1  0
 38 36  2  0
 41 42  1  0
 41 16  1  0
 43 41  1  0
 44 45  1  0
 44  1  2  0
 46 57  2  0
 47 45  1  0
 47 52  1  0
 48 56  1  0
 48 58  1  0
 49 55  1  0
 49 51  1  0
 50 56  1  0
 51 50  1  0
 52 51  2  0
 53 47  2  0
 54 53  1  0
 54 49  2  0
 55 48  1  0
 56 46  1  0
 58 60  2  0
 59 58  1  0
 61 59  1  0
 62 71  2  0
 62 67  1  0
 63 59  1  0
 63 67  1  0
 64 63  1  0
 65 66  1  0
 65 64  1  0
 66 62  1  0
 67 68  2  0
 68 69  1  0
 70 69  2  0
 71 70  1  0
 72 46  1  0
 72 73  1  0
 72 82  1  0
 73 76  1  0
 74 78  1  0
 74 73  1  0
 75 74  2  0
 78 77  1  0
 80 78  1  0
 80 81  1  0
 80 79  1  0
 82 85  1  1
 82 83  1  0
 84 82  1  0
M  ISO  4   6 100  14 100  44 101  45 101
M  END
>  <TORSDO>  (63) 
F 21

>  <SCORE>  (63) 
-13.163

>  <name>  (63) 
63

>  <ligand_id>  (63) 
63

>  <original_smiles>  (63) 
[H]c1c([H])c([H])c2c(c1[H])C([H])([H])C([H])([H])C([H])([H])C2([H])N([H])C(=O)C1([H])N(C(=O)C([H])(N([H])C(=O)C([H])(N([H])C([H])([H])[H])C([H])([H])[H])C(C([H])([H])[H])(C([H])([H])[H])C([H])([H])[H])C([H])([H])c2c([H])c(OC([H])([H])C([H])([H])C([H])([H])C([H])([H])C([H])([H])C([H])([H])N([H])C(=O)N3C([H])([H])C([H])([H])C([H])([H])C([H])(n4nc(-c5c([H])c([H])c(Oc6c([H])c([H])c(F)c([H])c6F)c([H])c5[H])c(C(=O)N([H])[H])c4N([H])[H])C3([H])[H])c([H])c([H])c2C1([H])[H]

>  <smiles>  (63) 
[H]c1c([H])c([H])c2c(c1[H])C([H])([H])C([H])([H])C([H])([H])C2([H])N([H])C(=O)C1([H])N(C(=O)C([H])(N([H])C(=O)C([H])(N([H])C([H])([H])[H])C([H])([H])[H])C(C([H])([H])[H])(C([H])([H])[H])C([H])([H])[H])C([H])([H])c2c([H])c(OC([H])([H])C([H])([H])C([H])([H])C([H])([H])C([H])([H])C([H])([H])N([H])C(=O)N3C([H])([H])C([H])([H])C([H])([H])C([H])(n4nc(-c5c([H])c([H])c(Oc6c([H])c([H])c(F)c([H])c6F)c([H])c5[H])c(C(=O)N([H])[H])c4N([H])[H])C3([H])[H])c([H])c([H])c2C1([H])[H]

$$$$
64:0:0
     RDKit          3D

 93101  0  0  1  0  0  0  0  0999 V2000
  -28.8220  -24.0840   19.1800 C   0  0  0  0  0  0  0  0  0  0  0  0
  -27.7360  -23.0640   22.5710 C   0  0  0  0  0  2  0  0  0  0  0  0
  -28.5580  -21.8580   22.1590 C   0  0  0  0  0  2  0  0  0  0  0  0
  -28.1000  -24.1340   21.5420 C   0  0  0  0  0  2  0  0  0  0  0  0
  -28.6040  -21.9320   20.6280 C   0  0  0  0  0  3  0  0  0  0  0  0
  -28.5880  -23.4270   20.3540 N   0  0  0  0  0  0  0  0  0  0  0  0
  -29.1210  -23.4180   18.1850 O   0  0  0  0  0  0  0  0  0  0  0  0
  -29.6920  -20.9110   20.1020 C   0  0  0  0  0  0  0  0  0  0  0  0
  -29.4170  -19.5730   20.2220 N   0  0  0  0  0  0  0  0  0  0  0  0
  -30.7690  -21.3140   19.6600 O   0  0  0  0  0  0  0  0  0  0  0  0
  -28.4980  -19.3710   20.5910 H   0  0  0  0  0  0  0  0  0  0  0  0
  -30.2010  -18.3590   19.8080 C   0  0  0  0  0  2  0  0  0  0  0  0
  -30.3380  -17.2030   20.8930 C   0  0  0  0  0  2  0  0  0  0  0  0
  -30.7190  -14.7140   20.1980 C   0  0  0  0  0  0  0  0  0  0  0  0
  -30.4550  -12.4960   19.1110 C   0  0  0  0  0  2  0  0  0  0  0  0
  -29.4940  -12.6330   17.9110 C   0  0  0  0  0  2  0  0  0  0  0  0
  -28.0260  -12.4890   18.3620 C   0  0  0  0  0  2  0  0  0  0  0  0
  -27.6910  -13.3500   19.6110 C   0  0  0  0  0  3  0  0  0  0  0  0
  -28.7670  -13.1900   20.7080 C   0  0  0  0  0  2  0  0  0  0  0  0
  -30.0680  -13.5150   20.1040 N   0  0  0  0  0  0  0  0  0  0  0  0
  -31.8890  -14.8520   19.8330 O   0  0  0  0  0  0  0  0  0  0  0  0
  -29.9530  -15.7910   20.5430 N   0  0  0  0  0  0  0  0  0  0  0  0
  -28.9890  -15.5610   20.7280 H   0  0  0  0  0  0  0  0  0  0  0  0
  -25.3070  -13.9610   20.3510 C   0  0  0  0  0  0  0  0  0  0  0  0
  -24.2430  -13.1950   20.7400 C   0  0  0  0  0  0  0  0  0  0  0  0
  -24.7030  -11.8410   20.7250 C   0  0  0  0  0  0  0  0  0  0  0  0
  -26.3480  -13.0770   20.1160 N   0  0  0  0  0  0  0  0  0  0  0  0
  -25.9900  -11.7980   20.4030 N   0  0  0  0  0  0  0  0  0  0  0  0
  -23.9770  -10.5830   20.9410 C   0  0  0  0  0  0  0  0  0  0  0  0
  -24.4220   -9.6280   21.8810 C   0  0  0  0  0  3  0  0  0  0  0  0
  -23.6980   -8.4340   22.0860 C   0  0  0  0  0  3  0  0  0  0  0  0
  -22.5150   -8.1860   21.3500 C   0  0  0  0  0  0  0  0  0  0  0  0
  -22.0880   -9.1300   20.4000 C   0  0  0  0  0  3  0  0  0  0  0  0
  -22.8120  -10.3150   20.1940 C   0  0  0  0  0  3  0  0  0  0  0  0
  -21.7650   -7.0390   21.4610 O   0  0  0  0  0  0  0  0  0  0  0  0
  -21.7360   -6.3070   22.6200 C   0  0  0  0  0  0  0  0  0  0  0  0
  -21.3380   -6.8760   23.8500 C   0  0  0  0  0  3  0  0  0  0  0  0
  -21.2530   -6.0690   25.0040 C   0  0  0  0  0  3  0  0  0  0  0  0
  -21.5610   -4.6970   24.9280 C   0  0  0  0  0  0  0  0  0  0  0  0
  -21.9520   -4.1300   23.7030 C   0  0  0  0  0  3  0  0  0  0  0  0
  -22.0380   -4.9330   22.5520 C   0  0  0  0  0  0  0  0  0  0  0  0
  -22.3950   -4.3750   21.3700 F   0  0  0  0  0  0  0  0  0  0  0  0
  -21.4730   -3.9220   26.0340 F   0  0  0  0  0  0  0  0  0  0  0  0
  -22.8480  -13.6750   21.0180 C   0  0  0  0  0  0  0  0  0  0  0  0
  -22.1290  -12.9960   21.9040 N   0  0  0  0  0  0  0  0  0  0  0  0
  -22.4040  -14.6920   20.4840 O   0  0  0  0  0  0  0  0  0  0  0  0
  -22.5020  -12.1760   22.3600 H   0  0  0  0  0  0  0  0  0  0  0  0
  -21.1930  -13.3000   22.1320 H   0  0  0  0  0  0  0  0  0  0  0  0
  -25.4720  -15.3290   20.1530 N   0  0  0  0  0  0  0  0  0  0  0  0
  -24.7110  -15.9870   20.2840 H   0  0  0  0  0  0  0  0  0  0  0  0
  -26.3150  -15.7650   19.8030 H   0  0  0  0  0  0  0  0  0  0  0  0
  -28.7120  -25.6550   18.9300 C   0  0  0  0  0  2  0  0  0  0  0  0
  -28.4210  -26.6040   20.0080 O   0  0  0  0  0  0  0  0  0  0  0  0
  -24.6330  -31.8480   23.1450 C   0  0  0  0  0  0  0  0  0  0  0  0
  -27.2760  -27.4070   19.9620 C   0  0  0  0  0  0  0  0  0  0  0  0
  -23.4270  -30.4700   21.4860 C   0  0  0  0  0  3  0  0  0  0  0  0
  -24.8820  -28.9620   20.0190 C   0  0  0  0  0  0  0  0  0  0  0  0
  -25.9590  -30.8190   21.2940 C   0  0  0  0  0  2  0  0  0  0  0  0
  -26.0440  -29.4570   20.6200 C   0  0  0  0  0  0  0  0  0  0  0  0
  -27.2380  -28.6840   20.5960 C   0  0  0  0  0  3  0  0  0  0  0  0
  -26.0880  -26.9480   19.3510 C   0  0  0  0  0  3  0  0  0  0  0  0
  -24.9030  -27.7110   19.3770 C   0  0  0  0  0  3  0  0  0  0  0  0
  -23.6350  -29.8200   20.0920 C   0  0  0  0  0  2  0  0  0  0  0  0
  -24.6910  -31.0630   22.0300 N   0  0  0  0  0  0  0  0  0  0  0  0
  -23.5540  -32.1070   23.6960 O   0  0  0  0  0  0  0  0  0  0  0  0
  -22.7810  -29.4320   22.4340 C   0  0  0  0  0  0  0  0  0  0  0  0
  -21.4590  -29.2320   22.3020 N   0  0  0  0  0  0  0  0  0  0  0  0
  -23.4700  -28.8090   23.2480 O   0  0  0  0  0  0  0  0  0  0  0  0
  -20.9620  -29.7870   21.6200 H   0  0  0  0  0  0  0  0  0  0  0  0
  -18.1080  -27.9530   22.7580 C   0  0  0  0  0  0  0  0  0  0  0  0
  -20.6550  -28.2750   23.0630 C   0  0  0  0  0  3  0  0  0  0  0  0
  -20.7990  -26.8470   22.4890 C   0  0  0  0  0  2  0  0  0  0  0  0
  -19.7210  -26.4990   21.4590 C   0  0  0  0  0  2  0  0  0  0  0  0
  -18.3260  -26.6110   22.0840 C   0  0  0  0  0  2  0  0  0  0  0  0
  -19.2010  -28.7410   23.2040 C   0  0  0  0  0  0  0  0  0  0  0  0
  -18.9440  -29.9970   23.7960 C   0  0  0  0  0  3  0  0  0  0  0  0
  -17.6250  -30.4670   23.9440 C   0  0  0  0  0  3  0  0  0  0  0  0
  -16.5450  -29.6760   23.5140 C   0  0  0  0  0  3  0  0  0  0  0  0
  -16.7880  -28.4210   22.9280 C   0  0  0  0  0  3  0  0  0  0  0  0
  -25.9200  -32.4800   23.7650 C   0  0  0  0  0  3  0  0  0  0  0  0
  -26.4520  -31.6940   25.0270 C   0  0  1  0  0  0  0  0  0  0  0  0
  -25.3710  -31.4390   26.1010 C   0  0  0  0  0  1  0  0  0  0  0  0
  -27.0380  -30.3230   24.6140 C   0  0  0  0  0  1  0  0  0  0  0  0
  -27.6000  -32.4870   25.6930 C   0  0  0  0  0  1  0  0  0  0  0  0
  -25.6030  -33.8700   24.1200 N   0  0  0  0  0  0  0  0  0  0  0  0
  -25.9250  -34.9390   23.3800 C   0  0  0  0  0  0  0  0  0  0  0  0
  -26.5910  -34.8590   22.3460 O   0  0  0  0  0  0  0  0  0  0  0  0
  -25.0100  -34.0050   24.9270 H   0  0  0  0  0  0  0  0  0  0  0  0
  -24.1870  -36.7300   23.0660 C   0  0  0  0  0  1  0  0  0  0  0  0
  -25.4310  -36.3140   23.8670 C   0  0  0  0  0  3  0  0  0  0  0  0
  -27.5590  -37.1960   24.7160 C   0  0  0  0  0  1  0  0  0  0  0  0
  -26.4560  -37.3750   23.7760 N   0  0  0  0  0  0  0  0  0  0  0  0
  -26.0420  -38.2900   23.9430 H   0  0  0  0  0  0  0  0  0  0  0  0
  1  6  1  0
  3  2  1  0
  4  2  1  0
  5  8  1  0
  5  3  1  0
  6  5  1  0
  6  4  1  0
  7  1  2  0
  8  9  1  0
  9 11  1  0
 10  8  2  0
 12  9  1  0
 12 13  1  0
 14 22  1  0
 15 20  1  0
 16 17  1  0
 16 15  1  0
 18 17  1  0
 18 27  1  0
 18 19  1  0
 20 14  1  0
 20 19  1  0
 21 14  2  0
 22 23  1  0
 22 13  1  0
 24 25  2  0
 25 44  1  0
 26 25  1  0
 26 29  1  0
 27 24  1  0
 27 28  1  0
 28 26  2  0
 29 30  1  0
 30 31  2  0
 32 35  1  0
 32 31  1  0
 33 32  2  0
 34 33  1  0
 34 29  2  0
 35 36  1  0
 36 37  1  0
 37 38  2  0
 39 38  1  0
 39 43  1  0
 40 39  2  0
 41 36  2  0
 41 40  1  0
 42 41  1  0
 44 45  1  0
 45 48  1  0
 45 47  1  0
 46 44  2  0
 49 50  1  0
 49 24  1  0
 51 49  1  0
 52  1  1  0
 52 53  1  0
 54 65  2  0
 55 53  1  0
 55 60  1  0
 56 64  1  0
 56 66  1  0
 57 63  1  0
 57 59  1  0
 58 64  1  0
 59 58  1  0
 60 59  2  0
 61 62  1  0
 61 55  2  0
 62 57  2  0
 63 56  1  0
 64 54  1  0
 66 68  2  0
 67 66  1  0
 69 67  1  0
 70 79  2  0
 70 75  1  0
 71 67  1  0
 71 75  1  0
 72 71  1  0
 73 74  1  0
 73 72  1  0
 74 70  1  0
 75 76  2  0
 76 77  1  0
 78 77  2  0
 79 78  1  0
 80 54  1  0
 80 85  1  0
 80 81  1  0
 81 84  1  1
 81 82  1  0
 83 81  1  0
 85 88  1  0
 86 90  1  0
 86 85  1  0
 87 86  2  0
 90 89  1  0
 92 90  1  0
 92 93  1  0
 92 91  1  0
M  ISO  4  14 100  22 100  52 101  53 101
M  END
>  <TORSDO>  (64) 
F 20

>  <SCORE>  (64) 
-13.016

>  <name>  (64) 
64

>  <ligand_id>  (64) 
64

>  <original_smiles>  (64) 
[H]c1c([H])c([H])c2c(c1[H])C([H])([H])C([H])([H])C([H])([H])C2([H])N([H])C(=O)C1([H])N(C(=O)C([H])(N([H])C(=O)C([H])(N([H])C([H])([H])[H])C([H])([H])[H])C(C([H])([H])[H])(C([H])([H])[H])C([H])([H])[H])C([H])([H])c2c([H])c(OC([H])([H])C(=O)N3C([H])([H])C([H])([H])C([H])([H])C3([H])C(=O)N([H])C([H])([H])C([H])([H])N([H])C(=O)N3C([H])([H])C([H])([H])C([H])([H])C([H])(n4nc(-c5c([H])c([H])c(Oc6c([H])c([H])c(F)c([H])c6F)c([H])c5[H])c(C(=O)N([H])[H])c4N([H])[H])C3([H])[H])c([H])c([H])c2C1([H])[H]

>  <smiles>  (64) 
[H]c1c([H])c([H])c2c(c1[H])C([H])([H])C([H])([H])C([H])([H])C2([H])N([H])C(=O)C1([H])N(C(=O)C([H])(N([H])C(=O)C([H])(N([H])C([H])([H])[H])C([H])([H])[H])C(C([H])([H])[H])(C([H])([H])[H])C([H])([H])[H])C([H])([H])c2c([H])c(OC([H])([H])C(=O)N3C([H])([H])C([H])([H])C([H])([H])C3([H])C(=O)N([H])C([H])([H])C([H])([H])N([H])C(=O)N3C([H])([H])C([H])([H])C([H])([H])C([H])(n4nc(-c5c([H])c([H])c(Oc6c([H])c([H])c(F)c([H])c6F)c([H])c5[H])c(C(=O)N([H])[H])c4N([H])[H])C3([H])[H])c([H])c([H])c2C1([H])[H]

$$$$
65:0:0
     RDKit          3D

105112  0  0  1  0  0  0  0  0999 V2000
  -30.6140  -19.1700   21.0340 C   0  0  0  0  0  3  0  0  0  0  0  0
  -30.3220  -17.7470   21.5260 C   0  0  0  0  0  0  0  0  0  0  0  0
  -31.3690  -17.0690   22.0030 N   0  0  0  0  0  0  0  0  0  0  0  0
  -29.1860  -17.2730   21.4510 O   0  0  0  0  0  0  0  0  0  0  0  0
  -32.2600  -17.5500   22.0180 H   0  0  0  0  0  0  0  0  0  0  0  0
  -31.3750  -15.6830   22.4420 C   0  0  0  0  0  2  0  0  0  0  0  0
  -32.6070  -13.5900   21.7090 C   0  0  0  0  0  1  0  0  0  0  0  0
  -31.7040  -14.7500   21.2640 C   0  0  0  0  0  3  0  0  0  0  0  0
  -30.2260  -13.9790   19.4070 C   0  0  0  0  0  0  0  0  0  0  0  0
  -29.4630  -12.1050   18.0100 C   0  0  0  0  0  2  0  0  0  0  0  0
  -28.2670  -12.3960   17.0930 C   0  0  0  0  0  2  0  0  0  0  0  0
  -26.9440  -12.1870   17.8460 C   0  0  0  0  0  2  0  0  0  0  0  0
  -26.9120  -12.9360   19.2010 C   0  0  0  0  0  3  0  0  0  0  0  0
  -28.1850  -12.6530   20.0280 C   0  0  0  0  0  2  0  0  0  0  0  0
  -29.3710  -12.9510   19.2050 N   0  0  0  0  0  0  0  0  0  0  0  0
  -30.9110  -14.4900   18.5160 O   0  0  0  0  0  0  0  0  0  0  0  0
  -30.4810  -14.1800   20.7050 N   0  0  0  0  0  0  0  0  0  0  0  0
  -29.8820  -13.6800   21.3440 H   0  0  0  0  0  0  0  0  0  0  0  0
  -24.7260  -13.4640   20.4570 C   0  0  0  0  0  0  0  0  0  0  0  0
  -23.7680  -12.6550   21.0060 C   0  0  0  0  0  0  0  0  0  0  0  0
  -24.2170  -11.3150   20.7970 C   0  0  0  0  0  0  0  0  0  0  0  0
  -25.6990  -12.6160   19.9520 N   0  0  0  0  0  0  0  0  0  0  0  0
  -25.4070  -11.3140   20.2100 N   0  0  0  0  0  0  0  0  0  0  0  0
  -23.5560  -10.0320   21.0690 C   0  0  0  0  0  0  0  0  0  0  0  0
  -24.1260   -9.0770   21.9400 C   0  0  0  0  0  3  0  0  0  0  0  0
  -23.4640   -7.8590   22.2010 C   0  0  0  0  0  3  0  0  0  0  0  0
  -22.2160   -7.5850   21.5900 C   0  0  0  0  0  0  0  0  0  0  0  0
  -21.6640   -8.5300   20.7070 C   0  0  0  0  0  3  0  0  0  0  0  0
  -22.3270   -9.7400   20.4450 C   0  0  0  0  0  3  0  0  0  0  0  0
  -21.5120   -6.4180   21.7640 O   0  0  0  0  0  0  0  0  0  0  0  0
  -21.5680   -5.7110   22.9380 C   0  0  0  0  0  0  0  0  0  0  0  0
  -21.2030   -6.2890   24.1740 C   0  0  0  0  0  3  0  0  0  0  0  0
  -21.2090   -5.5060   25.3450 C   0  0  0  0  0  3  0  0  0  0  0  0
  -21.5710   -4.1470   25.2840 C   0  0  0  0  0  0  0  0  0  0  0  0
  -21.9300   -3.5700   24.0530 C   0  0  0  0  0  3  0  0  0  0  0  0
  -21.9250   -4.3490   22.8840 C   0  0  0  0  0  0  0  0  0  0  0  0
  -22.2520   -3.7820   21.6970 F   0  0  0  0  0  0  0  0  0  0  0  0
  -21.5690   -3.3930   26.4080 F   0  0  0  0  0  0  0  0  0  0  0  0
  -22.4640  -13.0920   21.6080 C   0  0  0  0  0  0  0  0  0  0  0  0
  -21.9580  -12.3450   22.5830 N   0  0  0  0  0  0  0  0  0  0  0  0
  -21.9090  -14.1300   21.2490 O   0  0  0  0  0  0  0  0  0  0  0  0
  -22.4240  -11.5060   22.8940 H   0  0  0  0  0  0  0  0  0  0  0  0
  -21.0920  -12.6180   23.0270 H   0  0  0  0  0  0  0  0  0  0  0  0
  -24.8420  -14.8450   20.3270 N   0  0  0  0  0  0  0  0  0  0  0  0
  -24.1240  -15.4840   20.6500 H   0  0  0  0  0  0  0  0  0  0  0  0
  -25.6240  -15.3160   19.8890 H   0  0  0  0  0  0  0  0  0  0  0  0
  -29.2930  -21.2560   20.7480 C   0  0  0  0  0  0  0  0  0  0  0  0
  -29.3810  -19.9240   20.8190 N   0  0  0  0  0  0  0  0  0  0  0  0
  -30.2850  -21.9840   20.8570 O   0  0  0  0  0  0  0  0  0  0  0  0
  -28.5350  -19.3710   20.7730 H   0  0  0  0  0  0  0  0  0  0  0  0
  -27.9040  -21.8590   20.5020 C   0  0  0  0  0  2  0  0  0  0  0  0
  -28.1300  -24.3290   20.3560 C   0  0  0  0  0  0  0  0  0  0  0  0
  -28.0110  -23.1280   19.7820 N   0  0  0  0  0  0  0  0  0  0  0  0
  -27.9710  -24.5030   21.5670 O   0  0  0  0  0  0  0  0  0  0  0  0
  -28.1830  -23.0670   18.7870 H   0  0  0  0  0  0  0  0  0  0  0  0
  -28.5130  -25.4940   19.4280 C   0  0  0  0  0  2  0  0  0  0  0  0
  -28.3680  -26.7500   20.0930 O   0  0  0  0  0  0  0  0  0  0  0  0
  -24.4660  -31.8020   23.1870 C   0  0  0  0  0  0  0  0  0  0  0  0
  -27.1460  -27.3900   20.1030 C   0  0  0  0  0  0  0  0  0  0  0  0
  -23.2640  -30.3790   21.5590 C   0  0  0  0  0  3  0  0  0  0  0  0
  -24.7240  -28.8480   20.1420 C   0  0  0  0  0  0  0  0  0  0  0  0
  -25.7840  -30.7660   21.3470 C   0  0  0  0  0  2  0  0  0  0  0  0
  -25.8780  -29.3930   20.7170 C   0  0  0  0  0  0  0  0  0  0  0  0
  -27.0880  -28.6670   20.7000 C   0  0  0  0  0  3  0  0  0  0  0  0
  -25.9650  -26.8440   19.5450 C   0  0  0  0  0  3  0  0  0  0  0  0
  -24.7590  -27.5690   19.5620 C   0  0  0  0  0  3  0  0  0  0  0  0
  -23.4730  -29.6960   20.1840 C   0  0  0  0  0  2  0  0  0  0  0  0
  -24.5220  -30.9980   22.0890 N   0  0  0  0  0  0  0  0  0  0  0  0
  -23.3870  -32.0660   23.7330 O   0  0  0  0  0  0  0  0  0  0  0  0
  -22.6320  -29.3560   22.5290 C   0  0  0  0  0  0  0  0  0  0  0  0
  -21.3120  -29.1470   22.3980 N   0  0  0  0  0  0  0  0  0  0  0  0
  -23.3250  -28.7510   23.3510 O   0  0  0  0  0  0  0  0  0  0  0  0
  -20.8170  -29.6870   21.7020 H   0  0  0  0  0  0  0  0  0  0  0  0
  -17.9540  -27.9120   22.8940 C   0  0  0  0  0  0  0  0  0  0  0  0
  -20.5060  -28.2060   23.1760 C   0  0  0  0  0  3  0  0  0  0  0  0
  -20.6320  -26.7720   22.6130 C   0  0  0  0  0  2  0  0  0  0  0  0
  -19.5390  -26.4230   21.5990 C   0  0  0  0  0  2  0  0  0  0  0  0
  -18.1520  -26.5570   22.2350 C   0  0  0  0  0  2  0  0  0  0  0  0
  -19.0600  -28.6930   23.3210 C   0  0  0  0  0  0  0  0  0  0  0  0
  -18.8210  -29.9610   23.8940 C   0  0  0  0  0  3  0  0  0  0  0  0
  -17.5080  -30.4460   24.0490 C   0  0  0  0  0  3  0  0  0  0  0  0
  -16.4170  -29.6590   23.6410 C   0  0  0  0  0  3  0  0  0  0  0  0
  -16.6410  -28.3950   23.0680 C   0  0  0  0  0  3  0  0  0  0  0  0
  -25.7510  -32.4500   23.7940 C   0  0  0  0  0  3  0  0  0  0  0  0
  -26.2980  -31.6810   25.0600 C   0  0  1  0  0  0  0  0  0  0  0  0
  -25.2210  -31.3960   26.1320 C   0  0  0  0  0  1  0  0  0  0  0  0
  -26.9200  -30.3270   24.6480 C   0  0  0  0  0  1  0  0  0  0  0  0
  -27.4290  -32.5040   25.7230 C   0  0  0  0  0  1  0  0  0  0  0  0
  -25.4270  -33.8410   24.1310 N   0  0  0  0  0  0  0  0  0  0  0  0
  -25.7470  -34.8990   23.3750 C   0  0  0  0  0  0  0  0  0  0  0  0
  -26.4190  -34.8090   22.3440 O   0  0  0  0  0  0  0  0  0  0  0  0
  -24.8330  -33.9850   24.9350 H   0  0  0  0  0  0  0  0  0  0  0  0
  -24.0050  -36.6760   23.0180 C   0  0  0  0  0  1  0  0  0  0  0  0
  -25.2420  -36.2790   23.8380 C   0  0  0  0  0  3  0  0  0  0  0  0
  -27.3600  -37.1750   24.6970 C   0  0  0  0  0  1  0  0  0  0  0  0
  -26.2650  -37.3440   23.7440 N   0  0  0  0  0  0  0  0  0  0  0  0
  -25.8470  -38.2580   23.9000 H   0  0  0  0  0  0  0  0  0  0  0  0
  -31.5440  -19.2350   19.8000 C   0  0  0  0  0  2  0  0  0  0  0  0
  -30.9250  -18.7300   18.4810 C   0  0  0  0  0  2  0  0  0  0  0  0
  -31.8850  -18.9240   17.2950 C   0  0  0  0  0  2  0  0  0  0  0  0
  -31.3220  -18.3970   15.9630 C   0  0  0  0  0  2  0  0  0  0  0  0
  -32.2490  -18.6400   14.8440 N   0  0  0  0  0  4  0  0  0  0  0  0
  -32.4050  -19.6240   14.7180 H   0  0  0  0  0  0  0  0  0  0  0  0
  -31.8660  -18.2750   13.9910 H   0  0  0  0  0  0  0  0  0  0  0  0
  -33.1330  -18.1930   15.0060 H   0  0  0  0  0  0  0  0  0  0  0  0
  1 98  1  0
  1  2  1  0
  2  3  1  0
  3  5  1  0
  3  6  1  0
  4  2  2  0
  8  7  1  0
  8  6  1  0
  9 17  1  0
 10 15  1  0
 11 12  1  0
 11 10  1  0
 13 12  1  0
 13 22  1  0
 13 14  1  0
 15  9  1  0
 15 14  1  0
 16  9  2  0
 17  8  1  0
 17 18  1  0
 19 20  2  0
 20 39  1  0
 21 20  1  0
 21 24  1  0
 22 23  1  0
 22 19  1  0
 23 21  2  0
 24 25  1  0
 25 26  2  0
 27 30  1  0
 27 26  1  0
 28 27  2  0
 29 28  1  0
 29 24  2  0
 30 31  1  0
 31 32  1  0
 32 33  2  0
 34 33  1  0
 34 38  1  0
 35 34  2  0
 36 31  2  0
 36 35  1  0
 37 36  1  0
 39 40  1  0
 40 42  1  0
 40 43  1  0
 41 39  2  0
 44 19  1  0
 44 45  1  0
 46 44  1  0
 47 48  1  0
 47 49  2  0
 48  1  1  0
 50 48  1  0
 51 47  1  0
 52 54  2  0
 53 52  1  0
 53 51  1  0
 55 53  1  0
 56 57  1  0
 56 52  1  0
 57 59  1  0
 58 69  2  0
 59 64  1  0
 60 68  1  0
 60 70  1  0
 61 67  1  0
 61 63  1  0
 62 68  1  0
 63 62  1  0
 64 63  2  0
 65 66  1  0
 65 59  2  0
 66 61  2  0
 67 60  1  0
 68 58  1  0
 70 72  2  0
 71 70  1  0
 73 71  1  0
 74 83  2  0
 74 79  1  0
 75 71  1  0
 75 79  1  0
 76 75  1  0
 77 78  1  0
 77 76  1  0
 78 74  1  0
 79 80  2  0
 80 81  1  0
 82 81  2  0
 83 82  1  0
 84 58  1  0
 84 89  1  0
 84 85  1  0
 85 88  1  1
 85 86  1  0
 87 85  1  0
 89 92  1  0
 90 94  1  0
 90 89  1  0
 91 90  2  0
 94 93  1  0
 96 94  1  0
 96 97  1  0
 96 95  1  0
 99 98  1  0
100 99  1  0
101100  1  0
102105  1  0
102101  1  0
103102  1  0
104102  1  0
M  ISO  4   9 100  17 100  56 101  57 101
M  END
>  <TORSDO>  (65) 
F 28

>  <SCORE>  (65) 
-8.750

>  <name>  (65) 
65

>  <ligand_id>  (65) 
65

>  <original_smiles>  (65) 
[H]c1c([H])c([H])c2c(c1[H])C([H])([H])C([H])([H])C([H])([H])C2([H])N([H])C(=O)C1([H])N(C(=O)C([H])(N([H])C(=O)C([H])(N([H])C([H])([H])[H])C([H])([H])[H])C(C([H])([H])[H])(C([H])([H])[H])C([H])([H])[H])C([H])([H])c2c([H])c(OC([H])([H])C(=O)N([H])C([H])([H])C(=O)N([H])C([H])(C(=O)N([H])C([H])([H])C([H])(N([H])C(=O)N3C([H])([H])C([H])([H])C([H])([H])C([H])(n4nc(-c5c([H])c([H])c(Oc6c([H])c([H])c(F)c([H])c6F)c([H])c5[H])c(C(=O)N([H])[H])c4N([H])[H])C3([H])[H])C([H])([H])[H])C([H])([H])C([H])([H])C([H])([H])C([H])([H])[N+]([H])([H])[H])c([H])c([H])c2C1([H])[H]

>  <smiles>  (65) 
[H]c1c([H])c([H])c2c(c1[H])C([H])([H])C([H])([H])C([H])([H])C2([H])N([H])C(=O)C1([H])N(C(=O)C([H])(N([H])C(=O)C([H])(N([H])C([H])([H])[H])C([H])([H])[H])C(C([H])([H])[H])(C([H])([H])[H])C([H])([H])[H])C([H])([H])c2c([H])c(OC([H])([H])C(=O)N([H])C([H])([H])C(=O)N([H])C([H])(C(=O)N([H])C([H])([H])C([H])(N([H])C(=O)N3C([H])([H])C([H])([H])C([H])([H])C([H])(n4nc(-c5c([H])c([H])c(Oc6c([H])c([H])c(F)c([H])c6F)c([H])c5[H])c(C(=O)N([H])[H])c4N([H])[H])C3([H])[H])C([H])([H])[H])C([H])([H])C([H])([H])C([H])([H])C([H])([H])[N+]([H])([H])[H])c([H])c([H])c2C1([H])[H]

$$$$
66:0:0
     RDKit          3D

 95102  0  0  1  0  0  0  0  0999 V2000
  -28.4200  -24.1900   20.3500 C   0  0  0  0  0  3  0  0  0  0  0  0
  -27.0150  -23.7350   19.8840 C   0  0  0  0  0  0  0  0  0  0  0  0
  -26.0920  -23.4620   20.8100 N   0  0  0  0  0  0  0  0  0  0  0  0
  -26.7610  -23.5880   18.6910 O   0  0  0  0  0  0  0  0  0  0  0  0
  -26.2900  -23.5670   21.7930 H   0  0  0  0  0  0  0  0  0  0  0  0
  -25.1600  -23.1770   20.5430 H   0  0  0  0  0  0  0  0  0  0  0  0
  -29.4270  -22.0560   21.1370 C   0  0  0  0  0  0  0  0  0  0  0  0
  -28.8140  -23.2230   21.3900 N   0  0  0  0  0  0  0  0  0  0  0  0
  -30.1310  -21.8850   20.1400 O   0  0  0  0  0  0  0  0  0  0  0  0
  -28.3020  -23.2750   22.2580 H   0  0  0  0  0  0  0  0  0  0  0  0
  -29.0960  -20.8820   22.0760 C   0  0  0  0  0  2  0  0  0  0  0  0
  -30.2290  -19.9040   22.4960 C   0  0  0  0  0  2  0  0  0  0  0  0
  -30.9080  -19.0860   21.3780 C   0  0  0  0  0  2  0  0  0  0  0  0
  -31.5240  -17.7640   21.8840 C   0  0  0  0  0  2  0  0  0  0  0  0
  -32.0760  -16.8900   20.7340 C   0  0  0  0  0  2  0  0  0  0  0  0
  -31.8930  -14.5570   19.9130 C   0  0  0  0  0  0  0  0  0  0  0  0
  -31.3740  -12.3510   18.9360 C   0  0  0  0  0  2  0  0  0  0  0  0
  -30.4220  -12.4880   17.7320 C   0  0  0  0  0  2  0  0  0  0  0  0
  -28.9550  -12.4900   18.2000 C   0  0  0  0  0  2  0  0  0  0  0  0
  -28.7030  -13.4860   19.3640 C   0  0  0  0  0  3  0  0  0  0  0  0
  -29.7660  -13.3200   20.4740 C   0  0  0  0  0  2  0  0  0  0  0  0
  -31.1030  -13.4540   19.8710 N   0  0  0  0  0  0  0  0  0  0  0  0
  -32.9310  -14.6680   19.2530 O   0  0  0  0  0  0  0  0  0  0  0  0
  -31.4670  -15.5570   20.6970 N   0  0  0  0  0  0  0  0  0  0  0  0
  -30.6340  -15.3980   21.2450 H   0  0  0  0  0  0  0  0  0  0  0  0
  -26.4200  -14.3510   20.1790 C   0  0  0  0  0  0  0  0  0  0  0  0
  -25.2890  -13.6960   20.5970 C   0  0  0  0  0  0  0  0  0  0  0  0
  -25.6040  -12.3030   20.5520 C   0  0  0  0  0  0  0  0  0  0  0  0
  -27.3500  -13.3610   19.9020 N   0  0  0  0  0  0  0  0  0  0  0  0
  -26.8660  -12.1250   20.1860 N   0  0  0  0  0  0  0  0  0  0  0  0
  -24.7540  -11.1240   20.7730 C   0  0  0  0  0  0  0  0  0  0  0  0
  -25.0890  -10.1280   21.7190 C   0  0  0  0  0  3  0  0  0  0  0  0
  -24.2370   -9.0190   21.9210 C   0  0  0  0  0  3  0  0  0  0  0  0
  -23.0400   -8.9000   21.1780 C   0  0  0  0  0  0  0  0  0  0  0  0
  -22.7220   -9.8820   20.2230 C   0  0  0  0  0  3  0  0  0  0  0  0
  -23.5720  -10.9830   20.0200 C   0  0  0  0  0  3  0  0  0  0  0  0
  -22.1700   -7.8410   21.2880 O   0  0  0  0  0  0  0  0  0  0  0  0
  -22.0170   -7.1580   22.4680 C   0  0  0  0  0  0  0  0  0  0  0  0
  -21.6410   -7.8140   23.6610 C   0  0  0  0  0  3  0  0  0  0  0  0
  -21.4260   -7.0670   24.8360 C   0  0  0  0  0  3  0  0  0  0  0  0
  -21.5790   -5.6680   24.8180 C   0  0  0  0  0  0  0  0  0  0  0  0
  -21.9470   -5.0130   23.6310 C   0  0  0  0  0  3  0  0  0  0  0  0
  -22.1610   -5.7550   22.4570 C   0  0  0  0  0  0  0  0  0  0  0  0
  -22.4990   -5.1190   21.3100 F   0  0  0  0  0  0  0  0  0  0  0  0
  -21.3620   -4.9520   25.9440 F   0  0  0  0  0  0  0  0  0  0  0  0
  -23.9700  -14.3290   20.9300 C   0  0  0  0  0  0  0  0  0  0  0  0
  -23.2160  -13.7350   21.8470 N   0  0  0  0  0  0  0  0  0  0  0  0
  -23.6190  -15.3870   20.4130 O   0  0  0  0  0  0  0  0  0  0  0  0
  -23.5100  -12.8770   22.2880 H   0  0  0  0  0  0  0  0  0  0  0  0
  -22.3350  -14.1530   22.1120 H   0  0  0  0  0  0  0  0  0  0  0  0
  -26.7250  -15.6950   20.0040 N   0  0  0  0  0  0  0  0  0  0  0  0
  -26.0540  -16.4340   20.1750 H   0  0  0  0  0  0  0  0  0  0  0  0
  -27.6180  -16.0400   19.6730 H   0  0  0  0  0  0  0  0  0  0  0  0
  -28.3710  -25.6360   20.9460 C   0  0  0  0  0  2  0  0  0  0  0  0
  -28.4070  -26.7370   20.0040 O   0  0  0  0  0  0  0  0  0  0  0  0
  -24.6630  -31.8010   23.3370 C   0  0  0  0  0  0  0  0  0  0  0  0
  -27.2760  -27.5280   20.0160 C   0  0  0  0  0  0  0  0  0  0  0  0
  -23.4500  -30.4900   21.6240 C   0  0  0  0  0  3  0  0  0  0  0  0
  -24.8950  -29.0510   20.1000 C   0  0  0  0  0  0  0  0  0  0  0  0
  -25.9710  -30.8590   21.4410 C   0  0  0  0  0  2  0  0  0  0  0  0
  -26.0520  -29.5270   20.7290 C   0  0  0  0  0  0  0  0  0  0  0  0
  -27.2460  -28.7660   20.6980 C   0  0  0  0  0  3  0  0  0  0  0  0
  -26.1200  -27.1060   19.3280 C   0  0  0  0  0  3  0  0  0  0  0  0
  -24.9240  -27.8440   19.3870 C   0  0  0  0  0  3  0  0  0  0  0  0
  -23.6470  -29.8960   20.2050 C   0  0  0  0  0  2  0  0  0  0  0  0
  -24.7130  -31.0600   22.1930 N   0  0  0  0  0  0  0  0  0  0  0  0
  -23.5870  -32.0460   23.8980 O   0  0  0  0  0  0  0  0  0  0  0  0
  -22.8020  -29.4160   22.5300 C   0  0  0  0  0  0  0  0  0  0  0  0
  -21.4810  -29.2250   22.3850 N   0  0  0  0  0  0  0  0  0  0  0  0
  -23.4900  -28.7620   23.3190 O   0  0  0  0  0  0  0  0  0  0  0  0
  -20.9890  -29.8130   21.7280 H   0  0  0  0  0  0  0  0  0  0  0  0
  -18.1370  -27.9110   22.7450 C   0  0  0  0  0  0  0  0  0  0  0  0
  -20.6740  -28.2400   23.1020 C   0  0  0  0  0  3  0  0  0  0  0  0
  -20.8420  -26.8310   22.4870 C   0  0  0  0  0  2  0  0  0  0  0  0
  -19.7850  -26.5180   21.4250 C   0  0  0  0  0  2  0  0  0  0  0  0
  -18.3800  -26.5910   22.0300 C   0  0  0  0  0  2  0  0  0  0  0  0
  -19.2170  -28.6910   23.2340 C   0  0  0  0  0  0  0  0  0  0  0  0
  -18.9450  -29.9290   23.8560 C   0  0  0  0  0  3  0  0  0  0  0  0
  -17.6220  -30.3900   23.9900 C   0  0  0  0  0  3  0  0  0  0  0  0
  -16.5560  -29.6050   23.5150 C   0  0  0  0  0  3  0  0  0  0  0  0
  -16.8130  -28.3670   22.8990 C   0  0  0  0  0  3  0  0  0  0  0  0
  -25.9550  -32.3930   23.9830 C   0  0  0  0  0  3  0  0  0  0  0  0
  -25.6530  -33.7730   24.3810 N   0  0  0  0  0  0  0  0  0  0  0  0
  -25.9940  -34.8600   23.6770 C   0  0  0  0  0  0  0  0  0  0  0  0
  -26.6710  -34.8050   22.6460 O   0  0  0  0  0  0  0  0  0  0  0  0
  -25.0530  -33.8920   25.1860 H   0  0  0  0  0  0  0  0  0  0  0  0
  -24.2760  -36.6750   23.3900 C   0  0  0  0  0  1  0  0  0  0  0  0
  -25.5020  -36.2220   24.1970 C   0  0  0  0  0  3  0  0  0  0  0  0
  -27.6300  -37.0570   25.0940 C   0  0  0  0  0  1  0  0  0  0  0  0
  -26.5380  -37.2740   24.1510 N   0  0  0  0  0  0  0  0  0  0  0  0
  -26.1320  -38.1870   24.3400 H   0  0  0  0  0  0  0  0  0  0  0  0
  -26.4760  -31.5550   25.2120 C   0  0  1  0  0  0  0  0  0  0  0  0
  -25.3890  -31.2690   26.2750 C   0  0  0  0  0  1  0  0  0  0  0  0
  -27.0580  -30.1970   24.7530 C   0  0  0  0  0  1  0  0  0  0  0  0
  -27.6290  -32.3130   25.9070 C   0  0  0  0  0  1  0  0  0  0  0  0
  1 54  1  0
  1  8  1  0
  2  1  1  0
  2  3  1  0
  3  5  1  0
  4  2  2  0
  6  3  1  0
  7  8  1  0
  7 11  1  0
  8 10  1  0
  9  7  2  0
 11 12  1  0
 13 14  1  0
 13 12  1  0
 15 14  1  0
 16 24  1  0
 17 22  1  0
 18 19  1  0
 18 17  1  0
 20 19  1  0
 20 29  1  0
 20 21  1  0
 22 16  1  0
 22 21  1  0
 23 16  2  0
 24 15  1  0
 24 25  1  0
 26 27  2  0
 27 46  1  0
 28 27  1  0
 28 31  1  0
 29 26  1  0
 29 30  1  0
 30 28  2  0
 31 32  1  0
 32 33  2  0
 34 37  1  0
 34 33  1  0
 35 34  2  0
 36 35  1  0
 36 31  2  0
 37 38  1  0
 38 39  1  0
 39 40  2  0
 41 40  1  0
 41 45  1  0
 42 41  2  0
 43 38  2  0
 43 42  1  0
 44 43  1  0
 46 47  1  0
 47 50  1  0
 47 49  1  0
 48 46  2  0
 51 52  1  0
 51 26  1  0
 53 51  1  0
 55 57  1  0
 55 54  1  0
 56 67  2  0
 57 62  1  0
 58 66  1  0
 58 68  1  0
 59 65  1  0
 59 61  1  0
 60 66  1  0
 61 60  1  0
 62 61  2  0
 63 64  1  0
 63 57  2  0
 64 59  2  0
 65 58  1  0
 66 56  1  0
 68 70  2  0
 69 68  1  0
 71 69  1  0
 72 81  2  0
 72 77  1  0
 73 69  1  0
 73 77  1  0
 74 73  1  0
 75 76  1  0
 75 74  1  0
 76 72  1  0
 77 78  2  0
 78 79  1  0
 80 79  2  0
 81 80  1  0
 82 56  1  0
 82 83  1  0
 82 92  1  0
 83 86  1  0
 84 88  1  0
 84 83  1  0
 85 84  2  0
 88 87  1  0
 90 88  1  0
 90 91  1  0
 90 89  1  0
 92 95  1  1
 92 93  1  0
 94 92  1  0
M  ISO  4  16 100  24 100  54 101  55 101
M  END
>  <TORSDO>  (66) 
F 24

>  <SCORE>  (66) 
-10.380

>  <name>  (66) 
66

>  <ligand_id>  (66) 
66

>  <original_smiles>  (66) 
[H]c1c([H])c([H])c2c(c1[H])C([H])([H])C([H])([H])C([H])([H])C2([H])N([H])C(=O)C1([H])N(C(=O)C([H])(N([H])C(=O)C([H])(N([H])C([H])([H])[H])C([H])([H])[H])C(C([H])([H])[H])(C([H])([H])[H])C([H])([H])[H])C([H])([H])c2c([H])c(OC([H])([H])C([H])(C(=O)N([H])[H])N([H])C(=O)C([H])([H])C([H])([H])C([H])([H])C([H])([H])C([H])([H])N([H])C(=O)N3C([H])([H])C([H])([H])C([H])([H])C([H])(n4nc(-c5c([H])c([H])c(Oc6c([H])c([H])c(F)c([H])c6F)c([H])c5[H])c(C(=O)N([H])[H])c4N([H])[H])C3([H])[H])c([H])c([H])c2C1([H])[H]

>  <smiles>  (66) 
[H]c1c([H])c([H])c2c(c1[H])C([H])([H])C([H])([H])C([H])([H])C2([H])N([H])C(=O)C1([H])N(C(=O)C([H])(N([H])C(=O)C([H])(N([H])C([H])([H])[H])C([H])([H])[H])C(C([H])([H])[H])(C([H])([H])[H])C([H])([H])[H])C([H])([H])c2c([H])c(OC([H])([H])C([H])(C(=O)N([H])[H])N([H])C(=O)C([H])([H])C([H])([H])C([H])([H])C([H])([H])C([H])([H])N([H])C(=O)N3C([H])([H])C([H])([H])C([H])([H])C([H])(n4nc(-c5c([H])c([H])c(Oc6c([H])c([H])c(F)c([H])c6F)c([H])c5[H])c(C(=O)N([H])[H])c4N([H])[H])C3([H])[H])c([H])c([H])c2C1([H])[H]

$$$$
67:0:0
     RDKit          3D

 88 95  0  0  1  0  0  0  0  0999 V2000
  -28.6030  -22.3210   20.8340 C   0  0  0  0  0  2  0  0  0  0  0  0
  -27.8520  -23.7220   20.4300 C   0  0  0  0  0  2  0  0  0  0  0  0
  -28.5010  -25.0460   19.7690 C   0  0  0  0  0  2  0  0  0  0  0  0
  -28.3500  -26.4480   20.2940 O   0  0  0  0  0  0  0  0  0  0  0  0
  -24.6330  -31.8920   23.2420 C   0  0  0  0  0  0  0  0  0  0  0  0
  -27.2160  -27.2820   20.1920 C   0  0  0  0  0  0  0  0  0  0  0  0
  -23.4170  -30.4900   21.6110 C   0  0  0  0  0  3  0  0  0  0  0  0
  -24.8550  -28.9200   20.1780 C   0  0  0  0  0  0  0  0  0  0  0  0
  -25.9550  -30.7920   21.4140 C   0  0  0  0  0  2  0  0  0  0  0  0
  -26.0250  -29.4070   20.7700 C   0  0  0  0  0  0  0  0  0  0  0  0
  -27.2030  -28.5980   20.7670 C   0  0  0  0  0  3  0  0  0  0  0  0
  -26.0250  -26.8520   19.5720 C   0  0  0  0  0  3  0  0  0  0  0  0
  -24.8590  -27.6510   19.5680 C   0  0  0  0  0  3  0  0  0  0  0  0
  -23.6210  -29.8030   20.2320 C   0  0  0  0  0  2  0  0  0  0  0  0
  -24.6880  -31.0780   22.1450 N   0  0  0  0  0  0  0  0  0  0  0  0
  -23.5530  -32.1750   23.7810 O   0  0  0  0  0  0  0  0  0  0  0  0
  -22.7540  -29.4840   22.5820 C   0  0  0  0  0  0  0  0  0  0  0  0
  -21.4270  -29.3090   22.4630 N   0  0  0  0  0  0  0  0  0  0  0  0
  -23.4340  -28.8620   23.4020 O   0  0  0  0  0  0  0  0  0  0  0  0
  -20.9370  -29.8620   21.7730 H   0  0  0  0  0  0  0  0  0  0  0  0
  -18.0530  -28.1050   22.9690 C   0  0  0  0  0  0  0  0  0  0  0  0
  -20.6100  -28.3760   23.2400 C   0  0  0  0  0  3  0  0  0  0  0  0
  -20.7170  -26.9390   22.6770 C   0  0  0  0  0  2  0  0  0  0  0  0
  -19.6180  -26.6040   21.6640 C   0  0  0  0  0  2  0  0  0  0  0  0
  -18.2350  -26.7510   22.3040 C   0  0  0  0  0  2  0  0  0  0  0  0
  -19.1680  -28.8750   23.3950 C   0  0  0  0  0  0  0  0  0  0  0  0
  -18.9430  -30.1420   23.9750 C   0  0  0  0  0  3  0  0  0  0  0  0
  -17.6360  -30.6400   24.1360 C   0  0  0  0  0  3  0  0  0  0  0  0
  -16.5350  -29.8670   23.7260 C   0  0  0  0  0  3  0  0  0  0  0  0
  -16.7440  -28.6020   23.1500 C   0  0  0  0  0  3  0  0  0  0  0  0
  -25.9210  -32.5240   23.8560 C   0  0  0  0  0  3  0  0  0  0  0  0
  -25.6150  -33.9230   24.1900 N   0  0  0  0  0  0  0  0  0  0  0  0
  -25.9450  -34.9770   23.4330 C   0  0  0  0  0  0  0  0  0  0  0  0
  -26.6070  -34.8750   22.3960 O   0  0  0  0  0  0  0  0  0  0  0  0
  -25.0270  -34.0760   24.9970 H   0  0  0  0  0  0  0  0  0  0  0  0
  -24.2160  -36.7750   23.1020 C   0  0  0  0  0  1  0  0  0  0  0  0
  -25.4660  -36.3670   23.8990 C   0  0  0  0  0  3  0  0  0  0  0  0
  -27.6130  -37.2460   24.7020 C   0  0  0  0  0  1  0  0  0  0  0  0
  -26.4980  -37.4180   23.7740 N   0  0  0  0  0  0  0  0  0  0  0  0
  -26.0960  -38.3390   23.9290 H   0  0  0  0  0  0  0  0  0  0  0  0
  -26.4440  -31.7540   25.1310 C   0  0  1  0  0  0  0  0  0  0  0  0
  -25.3590  -31.5230   26.2090 C   0  0  0  0  0  1  0  0  0  0  0  0
  -27.0180  -30.3720   24.7390 C   0  0  0  0  0  1  0  0  0  0  0  0
  -27.6030  -32.5440   25.7830 C   0  0  0  0  0  1  0  0  0  0  0  0
  -29.2130  -21.2180   19.8230 C   0  0  0  0  0  2  0  0  0  0  0  0
  -29.7670  -18.6570   20.4490 C   0  0  0  0  0  0  0  0  0  0  0  0
  -28.9880  -19.7030   19.9760 N   0  0  0  0  0  0  0  0  0  0  0  0
  -30.6640  -18.8620   21.2680 O   0  0  0  0  0  0  0  0  0  0  0  0
  -28.2300  -19.3730   19.3910 H   0  0  0  0  0  0  0  0  0  0  0  0
  -29.6140  -17.1830   19.8340 C   0  0  0  0  0  2  0  0  0  0  0  0
  -30.5370  -14.7620   20.3200 C   0  0  0  0  0  0  0  0  0  0  0  0
  -30.3620  -12.4730   19.3320 C   0  0  0  0  0  2  0  0  0  0  0  0
  -29.4140  -12.5590   18.1140 C   0  0  0  0  0  2  0  0  0  0  0  0
  -27.9460  -12.3870   18.5510 C   0  0  0  0  0  2  0  0  0  0  0  0
  -27.5860  -13.2620   19.7810 C   0  0  0  0  0  3  0  0  0  0  0  0
  -28.6530  -13.1550   20.8950 C   0  0  0  0  0  2  0  0  0  0  0  0
  -29.9480  -13.5150   20.3030 N   0  0  0  0  0  0  0  0  0  0  0  0
  -31.6860  -14.9040   19.8910 O   0  0  0  0  0  0  0  0  0  0  0  0
  -29.7300  -15.8550   20.5890 N   0  0  0  0  0  0  0  0  0  0  0  0
  -28.8850  -15.6090   21.0810 H   0  0  0  0  0  0  0  0  0  0  0  0
  -25.2020  -13.8500   20.5260 C   0  0  0  0  0  0  0  0  0  0  0  0
  -24.1410  -13.0750   20.9070 C   0  0  0  0  0  0  0  0  0  0  0  0
  -24.6050  -11.7250   20.8700 C   0  0  0  0  0  0  0  0  0  0  0  0
  -26.2440  -12.9720   20.2800 N   0  0  0  0  0  0  0  0  0  0  0  0
  -25.8920  -11.6890   20.5470 N   0  0  0  0  0  0  0  0  0  0  0  0
  -23.8820  -10.4610   21.0670 C   0  0  0  0  0  0  0  0  0  0  0  0
  -24.3390   -9.4810   21.9740 C   0  0  0  0  0  3  0  0  0  0  0  0
  -23.6160   -8.2830   22.1590 C   0  0  0  0  0  3  0  0  0  0  0  0
  -22.4190   -8.0570   21.4360 C   0  0  0  0  0  0  0  0  0  0  0  0
  -21.9810   -9.0260   20.5170 C   0  0  0  0  0  3  0  0  0  0  0  0
  -22.7060  -10.2140   20.3290 C   0  0  0  0  0  3  0  0  0  0  0  0
  -21.6650   -6.9130   21.5320 O   0  0  0  0  0  0  0  0  0  0  0  0
  -21.6680   -6.1430   22.6680 C   0  0  0  0  0  0  0  0  0  0  0  0
  -21.3140   -6.6720   23.9280 C   0  0  0  0  0  3  0  0  0  0  0  0
  -21.2610   -5.8300   25.0560 C   0  0  0  0  0  3  0  0  0  0  0  0
  -21.5510   -4.4580   24.9250 C   0  0  0  0  0  0  0  0  0  0  0  0
  -21.8980   -3.9280   23.6700 C   0  0  0  0  0  3  0  0  0  0  0  0
  -21.9520   -4.7670   22.5440 C   0  0  0  0  0  0  0  0  0  0  0  0
  -22.2660   -4.2480   21.3330 F   0  0  0  0  0  0  0  0  0  0  0  0
  -21.4940   -3.6470   26.0070 F   0  0  0  0  0  0  0  0  0  0  0  0
  -22.7460  -13.5510   21.1920 C   0  0  0  0  0  0  0  0  0  0  0  0
  -22.0270  -12.8540   22.0660 N   0  0  0  0  0  0  0  0  0  0  0  0
  -22.3010  -14.5750   20.6760 O   0  0  0  0  0  0  0  0  0  0  0  0
  -22.4000  -12.0260   22.5070 H   0  0  0  0  0  0  0  0  0  0  0  0
  -21.0920  -13.1540   22.3000 H   0  0  0  0  0  0  0  0  0  0  0  0
  -25.3630  -15.2210   20.3460 N   0  0  0  0  0  0  0  0  0  0  0  0
  -24.5930  -15.8730   20.4580 H   0  0  0  0  0  0  0  0  0  0  0  0
  -26.1970  -15.6570   19.9770 H   0  0  0  0  0  0  0  0  0  0  0  0
  2  1  1  0
  3  4  1  0
  3  2  1  0
  5 16  2  0
  6  4  1  0
  6 11  1  0
  7 15  1  0
  7 17  1  0
  8 14  1  0
  8 10  1  0
  9 15  1  0
 10  9  1  0
 11 10  2  0
 12  6  2  0
 13 12  1  0
 13  8  2  0
 14  7  1  0
 15  5  1  0
 17 19  2  0
 18 17  1  0
 20 18  1  0
 21 30  2  0
 21 26  1  0
 22 18  1  0
 22 26  1  0
 23 22  1  0
 24 25  1  0
 24 23  1  0
 25 21  1  0
 26 27  2  0
 27 28  1  0
 29 28  2  0
 30 29  1  0
 31  5  1  0
 31 32  1  0
 31 41  1  0
 32 35  1  0
 33 37  1  0
 33 32  1  0
 34 33  2  0
 37 36  1  0
 39 37  1  0
 39 40  1  0
 39 38  1  0
 41 44  1  1
 41 42  1  0
 43 41  1  0
 45 47  1  0
 45  1  1  0
 46 48  2  0
 47 46  1  0
 49 47  1  0
 50 46  1  0
 50 59  1  0
 51 59  1  0
 52 57  1  0
 53 54  1  0
 53 52  1  0
 55 54  1  0
 55 64  1  0
 55 56  1  0
 57 51  1  0
 57 56  1  0
 58 51  2  0
 59 60  1  0
 61 62  2  0
 62 81  1  0
 63 62  1  0
 63 66  1  0
 64 61  1  0
 64 65  1  0
 65 63  2  0
 66 67  1  0
 67 68  2  0
 69 72  1  0
 69 68  1  0
 70 69  2  0
 71 70  1  0
 71 66  2  0
 72 73  1  0
 73 74  1  0
 74 75  2  0
 76 75  1  0
 76 80  1  0
 77 76  2  0
 78 73  2  0
 78 77  1  0
 79 78  1  0
 81 82  1  0
 82 85  1  0
 82 84  1  0
 83 81  2  0
 86 87  1  0
 86 61  1  0
 88 86  1  0
M  ISO  4   3 101   4 101  51 100  59 100
M  END
>  <TORSDO>  (67) 
F 21

>  <SCORE>  (67) 
-13.301

>  <name>  (67) 
67

>  <ligand_id>  (67) 
67

>  <original_smiles>  (67) 
[H]c1c([H])c([H])c2c(c1[H])C([H])([H])C([H])([H])C([H])([H])C2([H])N([H])C(=O)C1([H])N(C(=O)C([H])(N([H])C(=O)C([H])(N([H])C([H])([H])[H])C([H])([H])[H])C(C([H])([H])[H])(C([H])([H])[H])C([H])([H])[H])C([H])([H])c2c([H])c(OC([H])([H])C([H])([H])C([H])([H])C([H])([H])N([H])C(=O)C([H])([H])N([H])C(=O)N3C([H])([H])C([H])([H])C([H])([H])C([H])(n4nc(-c5c([H])c([H])c(Oc6c([H])c([H])c(F)c([H])c6F)c([H])c5[H])c(C(=O)N([H])[H])c4N([H])[H])C3([H])[H])c([H])c([H])c2C1([H])[H]

>  <smiles>  (67) 
[H]c1c([H])c([H])c2c(c1[H])C([H])([H])C([H])([H])C([H])([H])C2([H])N([H])C(=O)C1([H])N(C(=O)C([H])(N([H])C(=O)C([H])(N([H])C([H])([H])[H])C([H])([H])[H])C(C([H])([H])[H])(C([H])([H])[H])C([H])([H])[H])C([H])([H])c2c([H])c(OC([H])([H])C([H])([H])C([H])([H])C([H])([H])N([H])C(=O)C([H])([H])N([H])C(=O)N3C([H])([H])C([H])([H])C([H])([H])C([H])(n4nc(-c5c([H])c([H])c(Oc6c([H])c([H])c(F)c([H])c6F)c([H])c5[H])c(C(=O)N([H])[H])c4N([H])[H])C3([H])[H])c([H])c([H])c2C1([H])[H]

$$$$
68:0:0
     RDKit          3D

102109  0  0  1  0  0  0  0  0999 V2000
  -29.5750  -20.8480   21.2690 C   0  0  0  0  0  3  0  0  0  0  0  0
  -30.3740  -18.4140   21.1780 C   0  0  0  0  0  0  0  0  0  0  0  0
  -30.1360  -19.6330   20.6440 N   0  0  0  0  0  0  0  0  0  0  0  0
  -30.3620  -18.1970   22.3910 O   0  0  0  0  0  0  0  0  0  0  0  0
  -30.2690  -19.7100   19.6460 H   0  0  0  0  0  0  0  0  0  0  0  0
  -30.5600  -17.2500   20.1670 C   0  0  0  0  0  0  0  0  0  0  0  0
  -31.2570  -14.7630   20.6000 C   0  0  0  0  0  0  0  0  0  0  0  0
  -31.0020  -12.5330   19.5840 C   0  0  0  0  0  2  0  0  0  0  0  0
  -30.1330  -12.6830   18.3160 C   0  0  0  0  0  2  0  0  0  0  0  0
  -28.6300  -12.6330   18.6620 C   0  0  0  0  0  2  0  0  0  0  0  0
  -28.2470  -13.5320   19.8670 C   0  0  0  0  0  3  0  0  0  0  0  0
  -29.2320  -13.3300   21.0430 C   0  0  0  0  0  2  0  0  0  0  0  0
  -30.5900  -13.5770   20.5340 N   0  0  0  0  0  0  0  0  0  0  0  0
  -32.4620  -14.8520   20.3700 O   0  0  0  0  0  0  0  0  0  0  0  0
  -30.4390  -15.8410   20.6450 N   0  0  0  0  0  4  0  0  0  0  0  0
  -29.4970  -15.5960   20.9050 H   0  0  0  0  0  0  0  0  0  0  0  0
  -25.8520  -14.2510   20.4750 C   0  0  0  0  0  0  0  0  0  0  0  0
  -24.7280  -13.5270   20.7720 C   0  0  0  0  0  0  0  0  0  0  0  0
  -25.1220  -12.1550   20.7360 C   0  0  0  0  0  0  0  0  0  0  0  0
  -26.8610  -13.3220   20.2760 N   0  0  0  0  0  0  0  0  0  0  0  0
  -26.4220  -12.0550   20.4950 N   0  0  0  0  0  0  0  0  0  0  0  0
  -24.3240  -10.9280   20.8570 C   0  0  0  0  0  0  0  0  0  0  0  0
  -24.6690   -9.9120   21.7750 C   0  0  0  0  0  3  0  0  0  0  0  0
  -23.8790   -8.7470   21.8860 C   0  0  0  0  0  3  0  0  0  0  0  0
  -22.7270   -8.5920   21.0770 C   0  0  0  0  0  0  0  0  0  0  0  0
  -22.4010   -9.5940   20.1470 C   0  0  0  0  0  3  0  0  0  0  0  0
  -23.1920  -10.7510   20.0340 C   0  0  0  0  0  3  0  0  0  0  0  0
  -21.9140   -7.4850   21.0980 O   0  0  0  0  0  0  0  0  0  0  0  0
  -21.7710   -6.7190   22.2260 C   0  0  0  0  0  0  0  0  0  0  0  0
  -21.3310   -7.2700   23.4510 C   0  0  0  0  0  3  0  0  0  0  0  0
  -21.1350   -6.4340   24.5670 C   0  0  0  0  0  3  0  0  0  0  0  0
  -21.3660   -5.0490   24.4600 C   0  0  0  0  0  0  0  0  0  0  0  0
  -21.7950   -4.4990   23.2390 C   0  0  0  0  0  3  0  0  0  0  0  0
  -21.9960   -5.3320   22.1260 C   0  0  0  0  0  0  0  0  0  0  0  0
  -22.3920   -4.7940   20.9460 F   0  0  0  0  0  0  0  0  0  0  0  0
  -21.1680   -4.2430   25.5300 F   0  0  0  0  0  0  0  0  0  0  0  0
  -23.3420  -14.0680   20.9780 C   0  0  0  0  0  0  0  0  0  0  0  0
  -22.5370  -13.4010   21.7990 N   0  0  0  0  0  0  0  0  0  0  0  0
  -22.9780  -15.1160   20.4450 O   0  0  0  0  0  0  0  0  0  0  0  0
  -22.8360  -12.5510   22.2510 H   0  0  0  0  0  0  0  0  0  0  0  0
  -21.6060  -13.7480   21.9770 H   0  0  0  0  0  0  0  0  0  0  0  0
  -26.0930  -15.6140   20.3360 N   0  0  0  0  0  0  0  0  0  0  0  0
  -25.3450  -16.2970   20.4030 H   0  0  0  0  0  0  0  0  0  0  0  0
  -26.9630  -16.0140   20.0160 H   0  0  0  0  0  0  0  0  0  0  0  0
  -32.9940  -17.4860   19.1860 C   0  0  0  0  0  1  0  0  0  0  0  0
  -31.0900  -16.7180   17.6870 C   0  0  0  0  0  1  0  0  0  0  0  0
  -31.4780  -17.5340   18.9290 C   0  0  0  0  0  3  0  0  0  0  0  0
  -30.2870  -22.1620   20.8160 C   0  0  0  0  0  0  0  0  0  0  0  0
  -29.6210  -23.3250   20.9810 N   0  0  0  0  0  0  0  0  0  0  0  0
  -31.4090  -22.1170   20.3070 O   0  0  0  0  0  0  0  0  0  0  0  0
  -28.7080  -23.2440   21.4060 H   0  0  0  0  0  0  0  0  0  0  0  0
  -30.0390  -24.7010   20.6370 C   0  0  0  0  0  2  0  0  0  0  0  0
  -28.9450  -25.4900   19.8590 C   0  0  0  0  0  2  0  0  0  0  0  0
  -28.9640  -26.9110   20.1230 O   0  0  0  0  0  0  0  0  0  0  0  0
  -24.7200  -31.7280   23.2500 C   0  0  0  0  0  0  0  0  0  0  0  0
  -27.7540  -27.5890   20.0760 C   0  0  0  0  0  0  0  0  0  0  0  0
  -23.6770  -30.3690   21.4670 C   0  0  0  0  0  3  0  0  0  0  0  0
  -25.2820  -28.9910   20.0400 C   0  0  0  0  0  0  0  0  0  0  0  0
  -26.1910  -30.8580   21.4310 C   0  0  0  0  0  2  0  0  0  0  0  0
  -26.3820  -29.5330   20.7150 C   0  0  0  0  0  0  0  0  0  0  0  0
  -27.6200  -28.8450   20.7220 C   0  0  0  0  0  3  0  0  0  0  0  0
  -26.6280  -27.0670   19.3960 C   0  0  0  0  0  3  0  0  0  0  0  0
  -25.4010  -27.7570   19.3770 C   0  0  0  0  0  3  0  0  0  0  0  0
  -23.9940  -29.7830   20.0650 C   0  0  0  0  0  2  0  0  0  0  0  0
  -24.8780  -30.9980   22.1090 N   0  0  0  0  0  0  0  0  0  0  0  0
  -23.5990  -31.9140   23.7420 O   0  0  0  0  0  0  0  0  0  0  0  0
  -23.0280  -29.2630   22.3310 C   0  0  0  0  0  0  0  0  0  0  0  0
  -21.7120  -29.0610   22.1530 N   0  0  0  0  0  0  0  0  0  0  0  0
  -23.7060  -28.5930   23.1120 O   0  0  0  0  0  0  0  0  0  0  0  0
  -21.2260  -29.6590   21.5000 H   0  0  0  0  0  0  0  0  0  0  0  0
  -18.3410  -27.8160   22.5400 C   0  0  0  0  0  0  0  0  0  0  0  0
  -20.8990  -28.0480   22.8270 C   0  0  0  0  0  3  0  0  0  0  0  0
  -21.0000  -26.6840   22.1070 C   0  0  0  0  0  2  0  0  0  0  0  0
  -19.8950  -26.4670   21.0680 C   0  0  0  0  0  2  0  0  0  0  0  0
  -18.5160  -26.5440   21.7290 C   0  0  0  0  0  2  0  0  0  0  0  0
  -19.4610  -28.5310   23.0420 C   0  0  0  0  0  0  0  0  0  0  0  0
  -19.2440  -29.7280   23.7590 C   0  0  0  0  0  3  0  0  0  0  0  0
  -17.9390  -30.2080   23.9810 C   0  0  0  0  0  3  0  0  0  0  0  0
  -16.8340  -29.4870   23.4980 C   0  0  0  0  0  3  0  0  0  0  0  0
  -17.0340  -28.2940   22.7820 C   0  0  0  0  0  3  0  0  0  0  0  0
  -25.9360  -32.3820   23.9760 C   0  0  0  0  0  3  0  0  0  0  0  0
  -26.3570  -31.6220   25.2930 C   0  0  1  0  0  0  0  0  0  0  0  0
  -25.1850  -31.3720   26.2700 C   0  0  0  0  0  1  0  0  0  0  0  0
  -26.9860  -30.2510   24.9540 C   0  0  0  0  0  1  0  0  0  0  0  0
  -27.4420  -32.4330   26.0410 C   0  0  0  0  0  1  0  0  0  0  0  0
  -25.5760  -33.7750   24.2720 N   0  0  0  0  0  0  0  0  0  0  0  0
  -25.9460  -34.8310   23.5330 C   0  0  0  0  0  0  0  0  0  0  0  0
  -26.6930  -34.7340   22.5560 O   0  0  0  0  0  0  0  0  0  0  0  0
  -24.9160  -33.9230   25.0210 H   0  0  0  0  0  0  0  0  0  0  0  0
  -24.2090  -36.5820   23.0430 C   0  0  0  0  0  1  0  0  0  0  0  0
  -25.4000  -36.2120   23.9420 C   0  0  0  0  0  3  0  0  0  0  0  0
  -27.4540  -37.1480   24.9050 C   0  0  0  0  0  1  0  0  0  0  0  0
  -26.4150  -37.2860   23.8890 N   0  0  0  0  0  0  0  0  0  0  0  0
  -25.9810  -38.1980   24.0030 H   0  0  0  0  0  0  0  0  0  0  0  0
  -28.0430  -20.8680   21.0220 C   0  0  0  0  0  2  0  0  0  0  0  0
  -27.6490  -21.2400   19.5720 C   0  0  0  0  0  2  0  0  0  0  0  0
  -26.3500  -22.0530   19.4750 C   0  0  0  0  0  2  0  0  0  0  0  0
  -26.0640  -22.5230   18.0370 C   0  0  0  0  0  2  0  0  0  0  0  0
  -24.9190  -23.4460   17.9720 N   0  0  0  0  0  4  0  0  0  0  0  0
  -24.0870  -23.0120   18.3300 H   0  0  0  0  0  0  0  0  0  0  0  0
  -24.7460  -23.7120   17.0190 H   0  0  0  0  0  0  0  0  0  0  0  0
  -25.1010  -24.2800   18.5000 H   0  0  0  0  0  0  0  0  0  0  0  0
  1 95  1  0
  2  4  2  0
  3  2  1  0
  3  1  1  0
  5  3  1  0
  6 15  2  0
  6  2  1  0
  7 15  1  0
  8 13  1  0
  9 10  1  0
  9  8  1  0
 11 10  1  0
 11 20  1  0
 11 12  1  0
 13  7  1  0
 13 12  1  0
 14  7  2  0
 15 16  1  0
 17 18  2  0
 18 37  1  0
 19 18  1  0
 19 22  1  0
 20 17  1  0
 20 21  1  0
 21 19  2  0
 22 23  1  0
 23 24  2  0
 25 28  1  0
 25 24  1  0
 26 25  2  0
 27 26  1  0
 27 22  2  0
 28 29  1  0
 29 30  1  0
 30 31  2  0
 32 31  1  0
 32 36  1  0
 33 32  2  0
 34 29  2  0
 34 33  1  0
 35 34  1  0
 37 38  1  0
 38 41  1  0
 38 40  1  0
 39 37  2  0
 42 43  1  0
 42 17  1  0
 44 42  1  0
 46 47  1  0
 47 45  1  0
 47  6  1  0
 48 49  1  0
 48  1  1  0
 49 51  1  0
 50 48  2  0
 52 49  1  0
 53 54  1  0
 53 52  1  0
 55 66  2  0
 56 54  1  0
 56 61  1  0
 57 65  1  0
 57 67  1  0
 58 64  1  0
 58 60  1  0
 59 65  1  0
 60 61  2  0
 60 59  1  0
 62 56  2  0
 63 62  1  0
 63 58  2  0
 64 57  1  0
 65 55  1  0
 67 69  2  0
 68 67  1  0
 70 68  1  0
 71 80  2  0
 71 76  1  0
 72 68  1  0
 72 76  1  0
 73 72  1  0
 74 75  1  0
 74 73  1  0
 75 71  1  0
 76 77  2  0
 77 78  1  0
 79 78  2  0
 80 79  1  0
 81 55  1  0
 81 86  1  0
 81 82  1  0
 82 85  1  1
 82 83  1  0
 84 82  1  0
 86 89  1  0
 87 91  1  0
 87 86  1  0
 88 87  2  0
 91 90  1  0
 93 91  1  0
 93 94  1  0
 93 92  1  0
 96 95  1  0
 97 96  1  0
 98 97  1  0
 99 98  1  0
 99100  1  0
 99102  1  0
101 99  1  0
M  ISO  4   7 100  15 100  53 101  54 101
M  END
>  <TORSDO>  (68) 
F 27

>  <SCORE>  (68) 
-10.615

>  <name>  (68) 
68

>  <ligand_id>  (68) 
68

>  <original_smiles>  (68) 
[H]c1c([H])c([H])c2c(c1[H])C([H])([H])C([H])([H])C([H])([H])C2([H])N([H])C(=O)C1([H])N(C(=O)C([H])(N([H])C(=O)C([H])(N([H])C([H])([H])[H])C([H])([H])[H])C(C([H])([H])[H])(C([H])([H])[H])C([H])([H])[H])C([H])([H])c2c([H])c(OC([H])([H])C([H])([H])N([H])C(=O)C([H])(N([H])C(=O)C([H])(N([H])C(=O)N3C([H])([H])C([H])([H])C([H])([H])C([H])(n4nc(-c5c([H])c([H])c(Oc6c([H])c([H])c(F)c([H])c6F)c([H])c5[H])c(C(=O)N([H])[H])c4N([H])[H])C3([H])[H])C([H])(C([H])([H])[H])C([H])([H])[H])C([H])([H])C([H])([H])C([H])([H])C([H])([H])[N+]([H])([H])[H])c([H])c([H])c2C1([H])[H]

>  <smiles>  (68) 
[H]c1c([H])c([H])c2c(c1[H])C([H])([H])C([H])([H])C([H])([H])C2([H])N([H])C(=O)C1([H])N(C(=O)C([H])(N([H])C(=O)C([H])(N([H])C([H])([H])[H])C([H])([H])[H])C(C([H])([H])[H])(C([H])([H])[H])C([H])([H])[H])C([H])([H])c2c([H])c(OC([H])([H])C([H])([H])N([H])C(=O)C([H])(N([H])C(=O)C([H])(N([H])C(=O)N3C([H])([H])C([H])([H])C([H])([H])C([H])(n4nc(-c5c([H])c([H])c(Oc6c([H])c([H])c(F)c([H])c6F)c([H])c5[H])c(C(=O)N([H])[H])c4N([H])[H])C3([H])[H])C([H])(C([H])([H])[H])C([H])([H])[H])C([H])([H])C([H])([H])C([H])([H])C([H])([H])[N+]([H])([H])[H])c([H])c([H])c2C1([H])[H]

$$$$
69:0:0
     RDKit          3D

 86 93  0  0  1  0  0  0  0  0999 V2000
  -28.8370  -22.7640   20.5210 C   0  0  0  0  0  3  0  0  0  0  0  0
  -29.3040  -19.8370   20.4720 C   0  0  0  0  0  0  0  0  0  0  0  0
  -29.1010  -21.2080   19.9240 N   0  0  0  0  0  0  0  0  0  0  0  0
  -29.0370  -19.7210   21.6680 O   0  0  0  0  0  0  0  0  0  0  0  0
  -29.2830  -21.2270   18.9280 H   0  0  0  0  0  0  0  0  0  0  0  0
  -29.9160  -18.3420   19.7690 C   0  0  0  0  0  2  0  0  0  0  0  0
  -30.5450  -15.4350   19.9120 C   0  0  0  0  0  0  0  0  0  0  0  0
  -30.4730  -13.0020   18.9930 C   0  0  0  0  0  2  0  0  0  0  0  0
  -29.4800  -12.8250   17.8150 C   0  0  0  0  0  2  0  0  0  0  0  0
  -28.0620  -12.5370   18.3380 C   0  0  0  0  0  2  0  0  0  0  0  0
  -27.6820  -13.4660   19.5160 C   0  0  0  0  0  3  0  0  0  0  0  0
  -28.7990  -13.5920   20.5770 C   0  0  0  0  0  2  0  0  0  0  0  0
  -29.9860  -14.1210   19.8860 N   0  0  0  0  0  0  0  0  0  0  0  0
  -31.7310  -15.4470   19.5520 O   0  0  0  0  0  0  0  0  0  0  0  0
  -29.7910  -16.7020   20.1270 N   0  0  0  0  0  0  0  0  0  0  0  0
  -28.8680  -16.4950   20.4780 H   0  0  0  0  0  0  0  0  0  0  0  0
  -25.3690  -13.9960   20.4450 C   0  0  0  0  0  0  0  0  0  0  0  0
  -24.3330  -13.2060   20.8550 C   0  0  0  0  0  0  0  0  0  0  0  0
  -24.7930  -11.8580   20.7430 C   0  0  0  0  0  0  0  0  0  0  0  0
  -26.3910  -13.1300   20.1000 N   0  0  0  0  0  0  0  0  0  0  0  0
  -26.0610  -11.8360   20.3460 N   0  0  0  0  0  0  0  0  0  0  0  0
  -24.0760  -10.5890   20.9320 C   0  0  0  0  0  0  0  0  0  0  0  0
  -24.5270   -9.6140   21.8480 C   0  0  0  0  0  3  0  0  0  0  0  0
  -23.8060   -8.4140   22.0280 C   0  0  0  0  0  3  0  0  0  0  0  0
  -22.6190   -8.1800   21.2940 C   0  0  0  0  0  0  0  0  0  0  0  0
  -22.1860   -9.1460   20.3670 C   0  0  0  0  0  3  0  0  0  0  0  0
  -22.9080  -10.3370   20.1840 C   0  0  0  0  0  3  0  0  0  0  0  0
  -21.8680   -7.0330   21.3840 O   0  0  0  0  0  0  0  0  0  0  0  0
  -21.8000   -6.3070   22.5460 C   0  0  0  0  0  0  0  0  0  0  0  0
  -21.3120   -6.8670   23.7470 C   0  0  0  0  0  3  0  0  0  0  0  0
  -21.1940   -6.0650   24.9000 C   0  0  0  0  0  3  0  0  0  0  0  0
  -21.5530   -4.7060   24.8530 C   0  0  0  0  0  0  0  0  0  0  0  0
  -22.0340   -4.1450   23.6560 C   0  0  0  0  0  3  0  0  0  0  0  0
  -22.1530   -4.9440   22.5060 C   0  0  0  0  0  0  0  0  0  0  0  0
  -22.5970   -4.3930   21.3500 F   0  0  0  0  0  0  0  0  0  0  0  0
  -21.4340   -3.9340   25.9590 F   0  0  0  0  0  0  0  0  0  0  0  0
  -22.9580  -13.6740   21.2300 C   0  0  0  0  0  0  0  0  0  0  0  0
  -22.2850  -12.9510   22.1170 N   0  0  0  0  0  0  0  0  0  0  0  0
  -22.4910  -14.7170   20.7720 O   0  0  0  0  0  0  0  0  0  0  0  0
  -22.6760  -12.1070   22.5080 H   0  0  0  0  0  0  0  0  0  0  0  0
  -21.3640  -13.2450   22.4110 H   0  0  0  0  0  0  0  0  0  0  0  0
  -25.5210  -15.3730   20.3060 N   0  0  0  0  0  0  0  0  0  0  0  0
  -24.7590  -16.0170   20.4850 H   0  0  0  0  0  0  0  0  0  0  0  0
  -26.3290  -15.8220   19.8970 H   0  0  0  0  0  0  0  0  0  0  0  0
  -28.1150  -24.3050   19.8790 C   0  0  0  0  0  3  0  0  0  0  0  0
  -28.1940  -25.9180   20.2780 O   0  0  0  0  0  0  0  0  0  0  0  0
  -24.5950  -31.8880   23.1940 C   0  0  0  0  0  0  0  0  0  0  0  0
  -27.1750  -27.0110   20.1740 C   0  0  0  0  0  0  0  0  0  0  0  0
  -23.4050  -30.4810   21.5610 C   0  0  0  0  0  3  0  0  0  0  0  0
  -24.8610  -28.8830   20.1320 C   0  0  0  0  0  0  0  0  0  0  0  0
  -25.9690  -30.7060   21.4070 C   0  0  0  0  0  2  0  0  0  0  0  0
  -26.0460  -29.2950   20.7520 C   0  0  0  0  0  0  0  0  0  0  0  0
  -27.1940  -28.3790   20.7500 C   0  0  0  0  0  3  0  0  0  0  0  0
  -25.9610  -26.7580   19.4960 C   0  0  0  0  0  3  0  0  0  0  0  0
  -24.8440  -27.6370   19.4830 C   0  0  0  0  0  3  0  0  0  0  0  0
  -23.6350  -29.7950   20.1850 C   0  0  0  0  0  2  0  0  0  0  0  0
  -24.6780  -31.0530   22.1080 N   0  0  0  0  0  0  0  0  0  0  0  0
  -23.5050  -32.1710   23.7190 O   0  0  0  0  0  0  0  0  0  0  0  0
  -22.7210  -29.4820   22.5320 C   0  0  0  0  0  0  0  0  0  0  0  0
  -21.3910  -29.3080   22.4130 N   0  0  0  0  0  0  0  0  0  0  0  0
  -23.3930  -28.8650   23.3630 O   0  0  0  0  0  0  0  0  0  0  0  0
  -20.9010  -29.8570   21.7200 H   0  0  0  0  0  0  0  0  0  0  0  0
  -18.0190  -28.0780   22.9440 C   0  0  0  0  0  0  0  0  0  0  0  0
  -20.5790  -28.3650   23.1900 C   0  0  0  0  0  3  0  0  0  0  0  0
  -20.6870  -26.9330   22.6150 C   0  0  0  0  0  2  0  0  0  0  0  0
  -19.5810  -26.6030   21.6070 C   0  0  0  0  0  2  0  0  0  0  0  0
  -18.2020  -26.7330   22.2610 C   0  0  0  0  0  2  0  0  0  0  0  0
  -19.1340  -28.8510   23.3650 C   0  0  0  0  0  0  0  0  0  0  0  0
  -18.9060  -30.1080   23.9670 C   0  0  0  0  0  3  0  0  0  0  0  0
  -17.5960  -30.5930   24.1480 C   0  0  0  0  0  3  0  0  0  0  0  0
  -16.4970  -29.8180   23.7400 C   0  0  0  0  0  3  0  0  0  0  0  0
  -16.7080  -28.5620   23.1440 C   0  0  0  0  0  3  0  0  0  0  0  0
  -25.8630  -32.5410   23.8220 C   0  0  0  0  0  3  0  0  0  0  0  0
  -26.3680  -31.7940   25.1190 C   0  0  1  0  0  0  0  0  0  0  0  0
  -25.2640  -31.5700   26.1790 C   0  0  0  0  0  1  0  0  0  0  0  0
  -26.9610  -30.4120   24.7640 C   0  0  0  0  0  1  0  0  0  0  0  0
  -27.5080  -32.6040   25.7790 C   0  0  0  0  0  1  0  0  0  0  0  0
  -25.5400  -33.9440   24.1420 N   0  0  0  0  0  0  0  0  0  0  0  0
  -25.8640  -35.0000   23.3830 C   0  0  0  0  0  0  0  0  0  0  0  0
  -26.5290  -34.8960   22.3480 O   0  0  0  0  0  0  0  0  0  0  0  0
  -24.9480  -34.0970   24.9440 H   0  0  0  0  0  0  0  0  0  0  0  0
  -24.1290  -36.7940   23.0420 C   0  0  0  0  0  1  0  0  0  0  0  0
  -25.3790  -36.3910   23.8420 C   0  0  0  0  0  3  0  0  0  0  0  0
  -27.5130  -37.2930   24.6600 C   0  0  0  0  0  1  0  0  0  0  0  0
  -26.4080  -37.4470   23.7170 N   0  0  0  0  0  0  0  0  0  0  0  0
  -25.9980  -38.3670   23.8570 H   0  0  0  0  0  0  0  0  0  0  0  0
  2  4  2  0
  3  2  1  0
  3  1  1  0
  5  3  1  0
  6 15  1  0
  6  2  1  0
  7 15  1  0
  8 13  1  0
  9 10  1  0
  9  8  1  0
 11 10  1  0
 11 20  1  0
 11 12  1  0
 13  7  1  0
 13 12  1  0
 14  7  2  0
 15 16  1  0
 17 18  2  0
 18 37  1  0
 19 18  1  0
 19 22  1  0
 20 21  1  0
 20 17  1  0
 21 19  2  0
 22 23  1  0
 23 24  2  0
 25 28  1  0
 25 24  1  0
 26 25  2  0
 27 26  1  0
 27 22  2  0
 28 29  1  0
 29 30  1  0
 30 31  2  0
 32 31  1  0
 32 36  1  0
 33 32  2  0
 34 29  2  0
 34 33  1  0
 35 34  1  0
 37 38  1  0
 38 41  1  0
 38 40  1  0
 39 37  2  0
 42 17  1  0
 42 43  1  0
 44 42  1  0
 45 46  1  0
 45  1  2  0
 47 58  2  0
 48 46  1  0
 48 53  1  0
 49 57  1  0
 49 59  1  0
 50 56  1  0
 50 52  1  0
 51 57  1  0
 52 51  1  0
 53 52  2  0
 54 48  2  0
 55 54  1  0
 55 50  2  0
 56 49  1  0
 57 47  1  0
 59 61  2  0
 60 59  1  0
 62 60  1  0
 63 72  2  0
 63 68  1  0
 64 60  1  0
 64 68  1  0
 65 64  1  0
 66 67  1  0
 66 65  1  0
 67 63  1  0
 68 69  2  0
 69 70  1  0
 71 70  2  0
 72 71  1  0
 73 47  1  0
 73 78  1  0
 73 74  1  0
 74 77  1  1
 74 75  1  0
 76 74  1  0
 78 81  1  0
 79 83  1  0
 79 78  1  0
 80 79  2  0
 83 82  1  0
 85 83  1  0
 85 86  1  0
 85 84  1  0
M  ISO  4   7 100  15 100  45 101  46 101
M  END
>  <TORSDO>  (69) 
F 19

>  <SCORE>  (69) 
-15.612

>  <name>  (69) 
69

>  <ligand_id>  (69) 
69

>  <original_smiles>  (69) 
[H]c1c([H])c([H])c2c(c1[H])C([H])([H])C([H])([H])C([H])([H])C2([H])N([H])C(=O)C1([H])N(C(=O)C([H])(N([H])C(=O)C([H])(N([H])C([H])([H])[H])C([H])([H])[H])C(C([H])([H])[H])(C([H])([H])[H])C([H])([H])[H])C([H])([H])c2c([H])c(OC([H])([H])C([H])([H])N([H])C(=O)C([H])([H])N([H])C(=O)N3C([H])([H])C([H])([H])C([H])([H])C([H])(n4nc(-c5c([H])c([H])c(Oc6c([H])c([H])c(F)c([H])c6F)c([H])c5[H])c(C(=O)N([H])[H])c4N([H])[H])C3([H])[H])c([H])c([H])c2C1([H])[H]

>  <smiles>  (69) 
[H]c1c([H])c([H])c2c(c1[H])C([H])([H])C([H])([H])C([H])([H])C2([H])N([H])C(=O)C1([H])N(C(=O)C([H])(N([H])C(=O)C([H])(N([H])C([H])([H])[H])C([H])([H])[H])C(C([H])([H])[H])(C([H])([H])[H])C([H])([H])[H])C([H])([H])c2c([H])c(OC([H])([H])C([H])([H])N([H])C(=O)C([H])([H])N([H])C(=O)N3C([H])([H])C([H])([H])C([H])([H])C([H])(n4nc(-c5c([H])c([H])c(Oc6c([H])c([H])c(F)c([H])c6F)c([H])c5[H])c(C(=O)N([H])[H])c4N([H])[H])C3([H])[H])c([H])c([H])c2C1([H])[H]

$$$$
70:0:0
     RDKit          3D

 94101  0  0  1  0  0  0  0  0999 V2000
  -27.6300  -23.1590   20.7230 C   0  0  0  0  0  0  0  0  0  0  0  0
  -28.4900  -22.1400   20.7130 N   0  0  0  0  0  0  0  0  0  0  0  0
  -26.4340  -23.0260   20.4500 O   0  0  0  0  0  0  0  0  0  0  0  0
  -29.4540  -22.3220   20.9580 H   0  0  0  0  0  0  0  0  0  0  0  0
  -28.0840  -20.7530   20.5620 C   0  0  0  0  0  2  0  0  0  0  0  0
  -29.3010  -19.8230   20.5680 C   0  0  0  0  0  2  0  0  0  0  0  0
  -28.8700  -18.3830   20.8540 C   0  0  0  0  0  2  0  0  0  0  0  0
  -30.0420  -17.4080   20.9650 C   0  0  0  0  0  2  0  0  0  0  0  0
  -29.5190  -16.0080   21.3110 C   0  0  0  0  0  2  0  0  0  0  0  0
  -30.8140  -14.3080   20.1670 C   0  0  0  0  0  0  0  0  0  0  0  0
  -30.3410  -12.2360   18.9230 C   0  0  0  0  0  2  0  0  0  0  0  0
  -29.3330  -12.4560   17.7800 C   0  0  0  0  0  2  0  0  0  0  0  0
  -27.8880  -12.3270   18.2940 C   0  0  0  0  0  2  0  0  0  0  0  0
  -27.6330  -13.1710   19.5660 C   0  0  0  0  0  3  0  0  0  0  0  0
  -28.7410  -12.9280   20.6170 C   0  0  0  0  0  2  0  0  0  0  0  0
  -30.0500  -13.1980   19.9950 N   0  0  0  0  0  0  0  0  0  0  0  0
  -31.7870  -14.5860   19.4630 O   0  0  0  0  0  0  0  0  0  0  0  0
  -30.5850  -15.0170   21.2730 N   0  0  0  0  0  0  0  0  0  0  0  0
  -31.4450  -15.3930   21.6470 H   0  0  0  0  0  0  0  0  0  0  0  0
  -25.2800  -13.8070   20.3980 C   0  0  0  0  0  0  0  0  0  0  0  0
  -24.2240  -13.0460   20.8190 C   0  0  0  0  0  0  0  0  0  0  0  0
  -24.6660  -11.6880   20.7580 C   0  0  0  0  0  0  0  0  0  0  0  0
  -26.3010  -12.9160   20.1110 N   0  0  0  0  0  0  0  0  0  0  0  0
  -25.9370  -11.6360   20.3840 N   0  0  0  0  0  0  0  0  0  0  0  0
  -23.9380  -10.4330   20.9800 C   0  0  0  0  0  0  0  0  0  0  0  0
  -24.3880   -9.4740   21.9140 C   0  0  0  0  0  3  0  0  0  0  0  0
  -23.6600   -8.2820   22.1240 C   0  0  0  0  0  3  0  0  0  0  0  0
  -22.4690   -8.0430   21.3990 C   0  0  0  0  0  0  0  0  0  0  0  0
  -22.0350   -8.9910   20.4550 C   0  0  0  0  0  3  0  0  0  0  0  0
  -22.7640  -10.1740   20.2430 C   0  0  0  0  0  3  0  0  0  0  0  0
  -21.7110   -6.9020   21.5160 O   0  0  0  0  0  0  0  0  0  0  0  0
  -21.6630   -6.1870   22.6870 C   0  0  0  0  0  0  0  0  0  0  0  0
  -21.2600   -6.7770   23.9050 C   0  0  0  0  0  3  0  0  0  0  0  0
  -21.1560   -5.9900   25.0700 C   0  0  0  0  0  3  0  0  0  0  0  0
  -21.4470   -4.6130   25.0170 C   0  0  0  0  0  0  0  0  0  0  0  0
  -21.8460   -4.0230   23.8060 C   0  0  0  0  0  3  0  0  0  0  0  0
  -21.9510   -4.8070   22.6430 C   0  0  0  0  0  0  0  0  0  0  0  0
  -22.3140   -4.2280   21.4730 F   0  0  0  0  0  0  0  0  0  0  0  0
  -21.3410   -3.8560   26.1340 F   0  0  0  0  0  0  0  0  0  0  0  0
  -22.8500  -13.5350   21.1720 C   0  0  0  0  0  0  0  0  0  0  0  0
  -22.1680  -12.8460   22.0800 N   0  0  0  0  0  0  0  0  0  0  0  0
  -22.3890  -14.5640   20.6760 O   0  0  0  0  0  0  0  0  0  0  0  0
  -22.5550  -12.0130   22.4960 H   0  0  0  0  0  0  0  0  0  0  0  0
  -21.2500  -13.1570   22.3660 H   0  0  0  0  0  0  0  0  0  0  0  0
  -25.4560  -15.1770   20.2170 N   0  0  0  0  0  0  0  0  0  0  0  0
  -24.7210  -15.8530   20.3890 H   0  0  0  0  0  0  0  0  0  0  0  0
  -26.2980  -15.5960   19.8460 H   0  0  0  0  0  0  0  0  0  0  0  0
  -28.1580  -24.5240   21.1530 C   0  0  0  0  0  3  0  0  0  0  0  0
  -27.1660  -25.0980   22.0860 N   0  0  0  0  0  4  0  0  0  0  0  0
  -26.2590  -25.1170   21.6470 H   0  0  0  0  0  0  0  0  0  0  0  0
  -27.4310  -26.0200   22.3800 H   0  0  0  0  0  0  0  0  0  0  0  0
  -27.0910  -24.5010   22.8920 H   0  0  0  0  0  0  0  0  0  0  0  0
  -28.4480  -25.4120   19.9130 C   0  0  0  0  0  2  0  0  0  0  0  0
  -28.4490  -26.8130   20.2190 O   0  0  0  0  0  0  0  0  0  0  0  0
  -24.5950  -31.9210   23.2860 C   0  0  0  0  0  0  0  0  0  0  0  0
  -27.2570  -27.5060   20.1850 C   0  0  0  0  0  0  0  0  0  0  0  0
  -23.4000  -30.5250   21.6330 C   0  0  0  0  0  3  0  0  0  0  0  0
  -24.8590  -29.0020   20.2130 C   0  0  0  0  0  0  0  0  0  0  0  0
  -25.9300  -30.8860   21.4560 C   0  0  0  0  0  2  0  0  0  0  0  0
  -26.0150  -29.5230   20.8050 C   0  0  0  0  0  0  0  0  0  0  0  0
  -27.2150  -28.7840   20.7860 C   0  0  0  0  0  3  0  0  0  0  0  0
  -26.0720  -26.9960   19.5960 C   0  0  0  0  0  3  0  0  0  0  0  0
  -24.8810  -27.7360   19.6120 C   0  0  0  0  0  3  0  0  0  0  0  0
  -23.6180  -29.8590   20.2510 C   0  0  0  0  0  2  0  0  0  0  0  0
  -24.6590  -31.1280   22.1800 N   0  0  0  0  0  0  0  0  0  0  0  0
  -23.5110  -32.1890   23.8220 O   0  0  0  0  0  0  0  0  0  0  0  0
  -22.7520  -29.4930   22.5840 C   0  0  0  0  0  0  0  0  0  0  0  0
  -21.4280  -29.3120   22.4510 N   0  0  0  0  0  0  0  0  0  0  0  0
  -23.4340  -28.8600   23.3930 O   0  0  0  0  0  0  0  0  0  0  0  0
  -20.9430  -29.8750   21.7670 H   0  0  0  0  0  0  0  0  0  0  0  0
  -18.0470  -28.1270   22.9300 C   0  0  0  0  0  0  0  0  0  0  0  0
  -20.6050  -28.3710   23.2120 C   0  0  0  0  0  3  0  0  0  0  0  0
  -20.7020  -26.9430   22.6260 C   0  0  0  0  0  2  0  0  0  0  0  0
  -19.6010  -26.6320   21.6070 C   0  0  0  0  0  2  0  0  0  0  0  0
  -18.2190  -26.7800   22.2490 C   0  0  0  0  0  2  0  0  0  0  0  0
  -19.1680  -28.8810   23.3690 C   0  0  0  0  0  0  0  0  0  0  0  0
  -18.9550  -30.1410   23.9650 C   0  0  0  0  0  3  0  0  0  0  0  0
  -17.6520  -30.6490   24.1280 C   0  0  0  0  0  3  0  0  0  0  0  0
  -16.5450  -29.8940   23.7050 C   0  0  0  0  0  3  0  0  0  0  0  0
  -16.7430  -28.6340   23.1130 C   0  0  0  0  0  3  0  0  0  0  0  0
  -25.8790  -32.5490   23.9150 C   0  0  0  0  0  3  0  0  0  0  0  0
  -26.3750  -31.7900   25.2060 C   0  0  1  0  0  0  0  0  0  0  0  0
  -25.2690  -31.5720   26.2640 C   0  0  0  0  0  1  0  0  0  0  0  0
  -26.9550  -30.4040   24.8390 C   0  0  0  0  0  1  0  0  0  0  0  0
  -27.5210  -32.5870   25.8730 C   0  0  0  0  0  1  0  0  0  0  0  0
  -25.5750  -33.9520   24.2190 N   0  0  0  0  0  0  0  0  0  0  0  0
  -25.9240  -34.9910   23.4480 C   0  0  0  0  0  0  0  0  0  0  0  0
  -26.6070  -34.8680   22.4280 O   0  0  0  0  0  0  0  0  0  0  0  0
  -24.9660  -34.1220   25.0070 H   0  0  0  0  0  0  0  0  0  0  0  0
  -24.2060  -36.7840   23.0420 C   0  0  0  0  0  1  0  0  0  0  0  0
  -25.4370  -36.3880   23.8760 C   0  0  0  0  0  3  0  0  0  0  0  0
  -27.5660  -37.2760   24.7160 C   0  0  0  0  0  1  0  0  0  0  0  0
  -26.4760  -37.4340   23.7580 N   0  0  0  0  0  0  0  0  0  0  0  0
  -26.0720  -38.3590   23.8850 H   0  0  0  0  0  0  0  0  0  0  0  0
  1 48  1  0
  2  1  1  0
  2  4  1  0
  3  1  2  0
  5  6  1  0
  5  2  1  0
  6  7  1  0
  7  8  1  0
  8  9  1  0
 10 18  1  0
 11 16  1  0
 12 13  1  0
 12 11  1  0
 14 13  1  0
 14 23  1  0
 14 15  1  0
 16 10  1  0
 16 15  1  0
 17 10  2  0
 18  9  1  0
 18 19  1  0
 20 21  2  0
 21 40  1  0
 22 21  1  0
 22 25  1  0
 23 24  1  0
 23 20  1  0
 24 22  2  0
 25 26  1  0
 26 27  2  0
 28 31  1  0
 28 27  1  0
 29 28  2  0
 30 29  1  0
 30 25  2  0
 31 32  1  0
 32 33  1  0
 33 34  2  0
 35 34  1  0
 35 39  1  0
 36 35  2  0
 37 32  2  0
 37 36  1  0
 38 37  1  0
 40 41  1  0
 41 44  1  0
 41 43  1  0
 42 40  2  0
 45 46  1  0
 45 20  1  0
 47 45  1  0
 48 53  1  0
 48 49  1  0
 49 51  1  0
 49 52  1  0
 50 49  1  0
 53 54  1  0
 55 66  2  0
 56 54  1  0
 56 61  1  0
 57 65  1  0
 57 67  1  0
 58 64  1  0
 58 60  1  0
 59 65  1  0
 60 59  1  0
 61 60  2  0
 62 63  1  0
 62 56  2  0
 63 58  2  0
 64 57  1  0
 65 55  1  0
 67 69  2  0
 68 67  1  0
 70 68  1  0
 71 80  2  0
 71 76  1  0
 72 68  1  0
 72 76  1  0
 73 72  1  0
 74 75  1  0
 74 73  1  0
 75 71  1  0
 76 77  2  0
 77 78  1  0
 79 78  2  0
 80 79  1  0
 81 55  1  0
 81 86  1  0
 81 82  1  0
 82 85  1  1
 82 83  1  0
 84 82  1  0
 86 89  1  0
 87 91  1  0
 87 86  1  0
 88 87  2  0
 91 90  1  0
 93 91  1  0
 93 94  1  0
 93 92  1  0
M  ISO  4  10 100  18 100  53 101  54 101
M  END
>  <TORSDO>  (70) 
F 24

>  <SCORE>  (70) 
-12.459

>  <name>  (70) 
70

>  <ligand_id>  (70) 
70

>  <original_smiles>  (70) 
[H]c1c([H])c([H])c2c(c1[H])C([H])([H])C([H])([H])C([H])([H])C2([H])N([H])C(=O)C1([H])N(C(=O)C([H])(N([H])C(=O)C([H])(N([H])C([H])([H])[H])C([H])([H])[H])C(C([H])([H])[H])(C([H])([H])[H])C([H])([H])[H])C([H])([H])c2c([H])c(OC([H])([H])C([H])(C(=O)N([H])C([H])([H])C([H])([H])C([H])([H])C([H])([H])C([H])([H])N([H])C(=O)N3C([H])([H])C([H])([H])C([H])([H])C([H])(n4nc(-c5c([H])c([H])c(Oc6c([H])c([H])c(F)c([H])c6F)c([H])c5[H])c(C(=O)N([H])[H])c4N([H])[H])C3([H])[H])[N+]([H])([H])[H])c([H])c([H])c2C1([H])[H]

>  <smiles>  (70) 
[H]c1c([H])c([H])c2c(c1[H])C([H])([H])C([H])([H])C([H])([H])C2([H])N([H])C(=O)C1([H])N(C(=O)C([H])(N([H])C(=O)C([H])(N([H])C([H])([H])[H])C([H])([H])[H])C(C([H])([H])[H])(C([H])([H])[H])C([H])([H])[H])C([H])([H])c2c([H])c(OC([H])([H])C([H])(C(=O)N([H])C([H])([H])C([H])([H])C([H])([H])C([H])([H])C([H])([H])N([H])C(=O)N3C([H])([H])C([H])([H])C([H])([H])C([H])(n4nc(-c5c([H])c([H])c(Oc6c([H])c([H])c(F)c([H])c6F)c([H])c5[H])c(C(=O)N([H])[H])c4N([H])[H])C3([H])[H])[N+]([H])([H])[H])c([H])c([H])c2C1([H])[H]

$$$$
72:0:0
     RDKit          3D

 93101  0  0  1  0  0  0  0  0999 V2000
  -29.1110  -21.6690   20.7490 C   0  0  0  0  0  0  0  0  0  0  0  0
  -29.1970  -22.9560   20.3180 N   0  0  0  0  0  0  0  0  0  0  0  0
  -28.0740  -21.1820   21.1990 O   0  0  0  0  0  0  0  0  0  0  0  0
  -30.1050  -23.2110   19.9510 H   0  0  0  0  0  0  0  0  0  0  0  0
  -30.0430  -18.3080   20.7740 C   0  0  0  0  0  0  0  0  0  0  0  0
  -32.2960  -20.7470   22.4210 C   0  0  0  0  0  2  0  0  0  0  0  0
  -31.3170  -21.7060   21.7950 C   0  0  0  0  0  2  0  0  0  0  0  0
  -31.6180  -19.3880   22.3340 C   0  0  0  0  0  2  0  0  0  0  0  0
  -30.4660  -20.8870   20.7910 C   0  0  0  0  0  3  0  0  0  0  0  0
  -30.5740  -19.4670   21.2900 N   0  0  0  0  0  0  0  0  0  0  0  0
  -29.2140  -18.3060   19.8600 O   0  0  0  0  0  0  0  0  0  0  0  0
  -30.5790  -16.9360   21.3250 C   0  0  0  0  0  2  0  0  0  0  0  0
  -30.6520  -14.5750   20.4150 C   0  0  0  0  0  0  0  0  0  0  0  0
  -30.3530  -12.3800   19.2930 C   0  0  0  0  0  2  0  0  0  0  0  0
  -29.4080  -12.5450   18.0840 C   0  0  0  0  0  2  0  0  0  0  0  0
  -27.9370  -12.4030   18.5200 C   0  0  0  0  0  2  0  0  0  0  0  0
  -27.5990  -13.2540   19.7720 C   0  0  0  0  0  3  0  0  0  0  0  0
  -28.6620  -13.0840   20.8780 C   0  0  0  0  0  2  0  0  0  0  0  0
  -29.9720  -13.3970   20.2880 N   0  0  0  0  0  0  0  0  0  0  0  0
  -31.8090  -14.7000   20.0000 O   0  0  0  0  0  0  0  0  0  0  0  0
  -29.9720  -15.6420   20.9050 N   0  0  0  0  0  0  0  0  0  0  0  0
  -28.9960  -15.5050   21.1280 H   0  0  0  0  0  0  0  0  0  0  0  0
  -25.2100  -13.8520   20.5060 C   0  0  0  0  0  0  0  0  0  0  0  0
  -24.1480  -13.0760   20.8820 C   0  0  0  0  0  0  0  0  0  0  0  0
  -24.6120  -11.7260   20.8500 C   0  0  0  0  0  0  0  0  0  0  0  0
  -26.2550  -12.9730   20.2660 N   0  0  0  0  0  0  0  0  0  0  0  0
  -25.9010  -11.6900   20.5360 N   0  0  0  0  0  0  0  0  0  0  0  0
  -23.8910  -10.4600   21.0430 C   0  0  0  0  0  0  0  0  0  0  0  0
  -24.3320   -9.4930   21.9730 C   0  0  0  0  0  3  0  0  0  0  0  0
  -23.6110   -8.2930   22.1560 C   0  0  0  0  0  3  0  0  0  0  0  0
  -22.4340   -8.0530   21.4060 C   0  0  0  0  0  0  0  0  0  0  0  0
  -22.0120   -9.0090   20.4640 C   0  0  0  0  0  3  0  0  0  0  0  0
  -22.7350  -10.2000   20.2810 C   0  0  0  0  0  3  0  0  0  0  0  0
  -21.6840   -6.9050   21.4960 O   0  0  0  0  0  0  0  0  0  0  0  0
  -21.6500   -6.1570   22.6460 C   0  0  0  0  0  0  0  0  0  0  0  0
  -21.2250   -6.7030   23.8770 C   0  0  0  0  0  3  0  0  0  0  0  0
  -21.1370   -5.8820   25.0180 C   0  0  0  0  0  3  0  0  0  0  0  0
  -21.4630   -4.5160   24.9300 C   0  0  0  0  0  0  0  0  0  0  0  0
  -21.8790   -3.9680   23.7030 C   0  0  0  0  0  3  0  0  0  0  0  0
  -21.9680   -4.7860   22.5640 C   0  0  0  0  0  0  0  0  0  0  0  0
  -22.3500   -4.2510   21.3800 F   0  0  0  0  0  0  0  0  0  0  0  0
  -21.3700   -3.7230   26.0230 F   0  0  0  0  0  0  0  0  0  0  0  0
  -22.7500  -13.5480   21.1590 C   0  0  0  0  0  0  0  0  0  0  0  0
  -22.0270  -12.8450   22.0250 N   0  0  0  0  0  0  0  0  0  0  0  0
  -22.3050  -14.5740   20.6440 O   0  0  0  0  0  0  0  0  0  0  0  0
  -22.3980  -12.0140   22.4570 H   0  0  0  0  0  0  0  0  0  0  0  0
  -21.0890  -13.1420   22.2550 H   0  0  0  0  0  0  0  0  0  0  0  0
  -25.3750  -15.2230   20.3260 N   0  0  0  0  0  0  0  0  0  0  0  0
  -24.6090  -15.8820   20.4310 H   0  0  0  0  0  0  0  0  0  0  0  0
  -26.2180  -15.6540   19.9670 H   0  0  0  0  0  0  0  0  0  0  0  0
  -28.2840  -24.1020   20.5570 C   0  0  0  0  0  2  0  0  0  0  0  0
  -28.5960  -25.3570   19.6610 C   0  0  0  0  0  2  0  0  0  0  0  0
  -28.4230  -26.6730   20.2530 O   0  0  0  0  0  0  0  0  0  0  0  0
  -24.5710  -31.8740   23.2380 C   0  0  0  0  0  0  0  0  0  0  0  0
  -27.2390  -27.3940   20.1820 C   0  0  0  0  0  0  0  0  0  0  0  0
  -23.3810  -30.4750   21.5800 C   0  0  0  0  0  3  0  0  0  0  0  0
  -24.8450  -28.9350   20.1600 C   0  0  0  0  0  0  0  0  0  0  0  0
  -25.9060  -30.8270   21.4020 C   0  0  0  0  0  2  0  0  0  0  0  0
  -25.9980  -29.4500   20.7640 C   0  0  0  0  0  0  0  0  0  0  0  0
  -27.1900  -28.6850   20.7740 C   0  0  0  0  0  3  0  0  0  0  0  0
  -26.0670  -26.9040   19.5610 C   0  0  0  0  0  3  0  0  0  0  0  0
  -24.8780  -27.6640   19.5530 C   0  0  0  0  0  3  0  0  0  0  0  0
  -23.6030  -29.7970   20.1990 C   0  0  0  0  0  2  0  0  0  0  0  0
  -24.6380  -31.0750   22.1320 N   0  0  0  0  0  0  0  0  0  0  0  0
  -23.4870  -32.1390   23.7720 O   0  0  0  0  0  0  0  0  0  0  0  0
  -22.7170  -29.4540   22.5350 C   0  0  0  0  0  0  0  0  0  0  0  0
  -21.3910  -29.2860   22.4100 N   0  0  0  0  0  0  0  0  0  0  0  0
  -23.3950  -28.8120   23.3440 O   0  0  0  0  0  0  0  0  0  0  0  0
  -20.9050  -29.8590   21.7340 H   0  0  0  0  0  0  0  0  0  0  0  0
  -18.0050  -28.1290   22.9130 C   0  0  0  0  0  0  0  0  0  0  0  0
  -20.5670  -28.3480   23.1720 C   0  0  0  0  0  3  0  0  0  0  0  0
  -20.6460  -26.9220   22.5750 C   0  0  0  0  0  2  0  0  0  0  0  0
  -19.5350  -26.6350   21.5610 C   0  0  0  0  0  2  0  0  0  0  0  0
  -18.1600  -26.7870   22.2180 C   0  0  0  0  0  2  0  0  0  0  0  0
  -19.1360  -28.8680   23.3470 C   0  0  0  0  0  0  0  0  0  0  0  0
  -18.9390  -30.1250   23.9590 C   0  0  0  0  0  3  0  0  0  0  0  0
  -17.6440  -30.6400   24.1450 C   0  0  0  0  0  3  0  0  0  0  0  0
  -16.5250  -29.8970   23.7280 C   0  0  0  0  0  3  0  0  0  0  0  0
  -16.7070  -28.6440   23.1150 C   0  0  0  0  0  3  0  0  0  0  0  0
  -25.8500  -32.5040   23.8710 C   0  0  0  0  0  3  0  0  0  0  0  0
  -26.3450  -31.7400   25.1580 C   0  0  1  0  0  0  0  0  0  0  0  0
  -25.2400  -31.5120   26.2160 C   0  0  0  0  0  1  0  0  0  0  0  0
  -26.9270  -30.3600   24.7740 C   0  0  0  0  0  1  0  0  0  0  0  0
  -27.4920  -32.5320   25.8280 C   0  0  0  0  0  1  0  0  0  0  0  0
  -25.5410  -33.9060   24.1890 N   0  0  0  0  0  0  0  0  0  0  0  0
  -25.8930  -34.9530   23.4310 C   0  0  0  0  0  0  0  0  0  0  0  0
  -26.5790  -34.8400   22.4100 O   0  0  0  0  0  0  0  0  0  0  0  0
  -24.9270  -34.0660   24.9740 H   0  0  0  0  0  0  0  0  0  0  0  0
  -24.1850  -36.7560   23.0270 C   0  0  0  0  0  1  0  0  0  0  0  0
  -25.4040  -36.3470   23.8700 C   0  0  0  0  0  3  0  0  0  0  0  0
  -27.5270  -37.2220   24.7370 C   0  0  0  0  0  1  0  0  0  0  0  0
  -26.4460  -37.3920   23.7720 N   0  0  0  0  0  0  0  0  0  0  0  0
  -26.0460  -38.3170   23.9040 H   0  0  0  0  0  0  0  0  0  0  0  0
  1  3  2  0
  2 51  1  0
  2  1  1  0
  4  2  1  0
  5 10  1  0
  5 12  1  0
  7  6  1  0
  8  6  1  0
  9  1  1  0
  9 10  1  0
  9  7  1  0
 10  8  1  0
 11  5  2  0
 13 21  1  0
 14 19  1  0
 15 16  1  0
 15 14  1  0
 17 16  1  0
 17 26  1  0
 17 18  1  0
 19 13  1  0
 19 18  1  0
 20 13  2  0
 21 22  1  0
 21 12  1  0
 23 24  2  0
 24 43  1  0
 25 24  1  0
 25 28  1  0
 26 23  1  0
 26 27  1  0
 27 25  2  0
 28 29  1  0
 29 30  2  0
 31 34  1  0
 31 30  1  0
 32 31  2  0
 33 32  1  0
 33 28  2  0
 34 35  1  0
 35 36  1  0
 36 37  2  0
 38 37  1  0
 38 42  1  0
 39 38  2  0
 40 35  2  0
 40 39  1  0
 41 40  1  0
 43 44  1  0
 44 47  1  0
 44 46  1  0
 45 43  2  0
 48 49  1  0
 48 23  1  0
 50 48  1  0
 52 53  1  0
 52 51  1  0
 54 65  2  0
 55 53  1  0
 55 60  1  0
 56 64  1  0
 56 66  1  0
 57 63  1  0
 57 59  1  0
 58 64  1  0
 59 60  2  0
 59 58  1  0
 61 55  2  0
 62 61  1  0
 62 57  2  0
 63 56  1  0
 64 54  1  0
 66 68  2  0
 67 66  1  0
 69 67  1  0
 70 79  2  0
 70 75  1  0
 71 67  1  0
 71 75  1  0
 72 71  1  0
 73 74  1  0
 73 72  1  0
 74 70  1  0
 75 76  2  0
 76 77  1  0
 78 77  2  0
 79 78  1  0
 80 54  1  0
 80 85  1  0
 80 81  1  0
 81 84  1  1
 81 82  1  0
 83 81  1  0
 85 88  1  0
 86 90  1  0
 86 85  1  0
 87 86  2  0
 90 89  1  0
 92 90  1  0
 92 93  1  0
 92 91  1  0
M  ISO  4  13 100  21 100  52 101  53 101
M  END
>  <TORSDO>  (71) 
F 20

>  <SCORE>  (71) 
-14.254

>  <name>  (71) 
72

>  <ligand_id>  (71) 
72

>  <original_smiles>  (71) 
[H]c1c([H])c([H])c2c(c1[H])C([H])([H])C([H])([H])C([H])([H])C2([H])N([H])C(=O)C1([H])N(C(=O)C([H])(N([H])C(=O)C([H])(N([H])C([H])([H])[H])C([H])([H])[H])C(C([H])([H])[H])(C([H])([H])[H])C([H])([H])[H])C([H])([H])c2c([H])c(OC([H])([H])C([H])([H])N([H])C(=O)C3([H])N(C(=O)C([H])([H])N([H])C(=O)N4C([H])([H])C([H])([H])C([H])([H])C([H])(n5nc(-c6c([H])c([H])c(Oc7c([H])c([H])c(F)c([H])c7F)c([H])c6[H])c(C(=O)N([H])[H])c5N([H])[H])C4([H])[H])C([H])([H])C([H])([H])C3([H])[H])c([H])c([H])c2C1([H])[H]

>  <smiles>  (71) 
[H]c1c([H])c([H])c2c(c1[H])C([H])([H])C([H])([H])C([H])([H])C2([H])N([H])C(=O)C1([H])N(C(=O)C([H])(N([H])C(=O)C([H])(N([H])C([H])([H])[H])C([H])([H])[H])C(C([H])([H])[H])(C([H])([H])[H])C([H])([H])[H])C([H])([H])c2c([H])c(OC([H])([H])C([H])([H])N([H])C(=O)C3([H])N(C(=O)C([H])([H])N([H])C(=O)N4C([H])([H])C([H])([H])C([H])([H])C([H])(n5nc(-c6c([H])c([H])c(Oc7c([H])c([H])c(F)c([H])c7F)c([H])c6[H])c(C(=O)N([H])[H])c5N([H])[H])C4([H])[H])C([H])([H])C([H])([H])C3([H])[H])c([H])c([H])c2C1([H])[H]

$$$$
73:0:0
     RDKit          3D

105112  0  0  1  0  0  0  0  0999 V2000
  -31.3160  -21.5560   17.8440 C   0  0  0  0  0  3  0  0  0  0  0  0
  -30.8890  -20.1520   17.3570 C   0  0  0  0  0  0  0  0  0  0  0  0
  -29.9200  -19.5350   18.0460 N   0  0  0  0  0  0  0  0  0  0  0  0
  -31.4370  -19.6330   16.3830 O   0  0  0  0  0  0  0  0  0  0  0  0
  -29.5340  -20.0540   18.8240 H   0  0  0  0  0  0  0  0  0  0  0  0
  -29.4360  -18.1750   17.8550 C   0  0  0  0  0  2  0  0  0  0  0  0
  -30.0640  -17.2340   18.8970 C   0  0  0  0  0  2  0  0  0  0  0  0
  -29.7860  -17.6390   20.3650 C   0  0  0  0  0  2  0  0  0  0  0  0
  -30.4950  -16.7640   21.4200 C   0  0  0  0  0  2  0  0  0  0  0  0
  -30.7300  -14.4220   20.6150 C   0  0  0  0  0  0  0  0  0  0  0  0
  -30.3930  -12.3360   19.3520 C   0  0  0  0  0  2  0  0  0  0  0  0
  -29.4680  -12.6050   18.1500 C   0  0  0  0  0  2  0  0  0  0  0  0
  -27.9850  -12.4890   18.5560 C   0  0  0  0  0  2  0  0  0  0  0  0
  -27.6530  -13.2760   19.8540 C   0  0  0  0  0  3  0  0  0  0  0  0
  -28.6880  -12.9780   20.9590 C   0  0  0  0  0  2  0  0  0  0  0  0
  -30.0290  -13.2760   20.4230 N   0  0  0  0  0  0  0  0  0  0  0  0
  -31.8210  -14.6480   20.0820 O   0  0  0  0  0  0  0  0  0  0  0  0
  -30.0970  -15.3590   21.3300 N   0  0  0  0  0  0  0  0  0  0  0  0
  -29.2250  -15.0910   21.7620 H   0  0  0  0  0  0  0  0  0  0  0  0
  -25.2380  -13.8940   20.5060 C   0  0  0  0  0  0  0  0  0  0  0  0
  -24.1610  -13.1250   20.8560 C   0  0  0  0  0  0  0  0  0  0  0  0
  -24.6200  -11.7740   20.8400 C   0  0  0  0  0  0  0  0  0  0  0  0
  -26.2870  -13.0110   20.3040 N   0  0  0  0  0  0  0  0  0  0  0  0
  -25.9150  -11.7310   20.5570 N   0  0  0  0  0  0  0  0  0  0  0  0
  -23.8920  -10.5140   21.0270 C   0  0  0  0  0  0  0  0  0  0  0  0
  -24.3040   -9.5550   21.9800 C   0  0  0  0  0  3  0  0  0  0  0  0
  -23.5770   -8.3590   22.1530 C   0  0  0  0  0  3  0  0  0  0  0  0
  -22.4230   -8.1120   21.3730 C   0  0  0  0  0  0  0  0  0  0  0  0
  -22.0300   -9.0590   20.4100 C   0  0  0  0  0  3  0  0  0  0  0  0
  -22.7580  -10.2460   20.2370 C   0  0  0  0  0  3  0  0  0  0  0  0
  -21.6680   -6.9670   21.4530 O   0  0  0  0  0  0  0  0  0  0  0  0
  -21.5850   -6.2370   22.6130 C   0  0  0  0  0  0  0  0  0  0  0  0
  -21.1150   -6.8040   23.8180 C   0  0  0  0  0  3  0  0  0  0  0  0
  -20.9830   -6.0020   24.9700 C   0  0  0  0  0  3  0  0  0  0  0  0
  -21.3090   -4.6330   24.9150 C   0  0  0  0  0  0  0  0  0  0  0  0
  -21.7710   -4.0660   23.7150 C   0  0  0  0  0  3  0  0  0  0  0  0
  -21.9050   -4.8660   22.5660 C   0  0  0  0  0  0  0  0  0  0  0  0
  -22.3300   -4.3090   21.4070 F   0  0  0  0  0  0  0  0  0  0  0  0
  -21.1750   -3.8600   26.0180 F   0  0  0  0  0  0  0  0  0  0  0  0
  -22.7580  -13.6030   21.0970 C   0  0  0  0  0  0  0  0  0  0  0  0
  -22.0150  -12.9140   21.9530 N   0  0  0  0  0  0  0  0  0  0  0  0
  -22.3290  -14.6250   20.5610 O   0  0  0  0  0  0  0  0  0  0  0  0
  -22.3750  -12.0910   22.4150 H   0  0  0  0  0  0  0  0  0  0  0  0
  -21.0690  -13.2120   22.1490 H   0  0  0  0  0  0  0  0  0  0  0  0
  -25.4130  -15.2630   20.3300 N   0  0  0  0  0  0  0  0  0  0  0  0
  -24.6560  -15.9260   20.4550 H   0  0  0  0  0  0  0  0  0  0  0  0
  -26.2840  -15.7020   20.0590 H   0  0  0  0  0  0  0  0  0  0  0  0
  -29.6880  -22.7030   19.3530 C   0  0  0  0  0  0  0  0  0  0  0  0
  -30.7040  -21.8630   19.1420 N   0  0  0  0  0  0  0  0  0  0  0  0
  -29.1000  -23.2890   18.4400 O   0  0  0  0  0  0  0  0  0  0  0  0
  -31.1090  -21.4100   19.9490 H   0  0  0  0  0  0  0  0  0  0  0  0
  -29.2750  -22.9180   20.8130 C   0  0  0  0  0  2  0  0  0  0  0  0
  -29.8250  -25.3070   21.2140 C   0  0  0  0  0  0  0  0  0  0  0  0
  -28.9400  -24.3180   21.0400 N   0  0  0  0  0  0  0  0  0  0  0  0
  -31.0370  -25.1110   21.3390 O   0  0  0  0  0  0  0  0  0  0  0  0
  -27.9880  -24.5980   20.8480 H   0  0  0  0  0  0  0  0  0  0  0  0
  -29.2430  -26.7210   21.1830 C   0  0  0  0  0  2  0  0  0  0  0  0
  -28.4050  -26.7860   20.0330 O   0  0  0  0  0  0  0  0  0  0  0  0
  -24.5800  -31.9030   23.2290 C   0  0  0  0  0  0  0  0  0  0  0  0
  -27.2550  -27.5250   20.1250 C   0  0  0  0  0  0  0  0  0  0  0  0
  -23.3740  -30.4940   21.5870 C   0  0  0  0  0  3  0  0  0  0  0  0
  -24.8380  -28.9700   20.1580 C   0  0  0  0  0  0  0  0  0  0  0  0
  -25.8890  -30.8840   21.3770 C   0  0  0  0  0  2  0  0  0  0  0  0
  -25.9870  -29.5120   20.7490 C   0  0  0  0  0  0  0  0  0  0  0  0
  -27.2000  -28.7910   20.7460 C   0  0  0  0  0  3  0  0  0  0  0  0
  -26.0980  -26.9930   19.5250 C   0  0  0  0  0  3  0  0  0  0  0  0
  -24.8840  -27.7030   19.5500 C   0  0  0  0  0  3  0  0  0  0  0  0
  -23.5830  -29.8100   20.2090 C   0  0  0  0  0  2  0  0  0  0  0  0
  -24.6320  -31.1100   22.1240 N   0  0  0  0  0  0  0  0  0  0  0  0
  -23.5010  -32.1640   23.7780 O   0  0  0  0  0  0  0  0  0  0  0  0
  -22.7390  -29.4680   22.5520 C   0  0  0  0  0  0  0  0  0  0  0  0
  -21.4170  -29.2700   22.4230 N   0  0  0  0  0  0  0  0  0  0  0  0
  -23.4310  -28.8520   23.3670 O   0  0  0  0  0  0  0  0  0  0  0  0
  -20.9250  -29.8120   21.7270 H   0  0  0  0  0  0  0  0  0  0  0  0
  -18.0570  -28.0390   22.9150 C   0  0  0  0  0  0  0  0  0  0  0  0
  -20.6110  -28.3260   23.1950 C   0  0  0  0  0  3  0  0  0  0  0  0
  -20.7330  -26.8960   22.6200 C   0  0  0  0  0  2  0  0  0  0  0  0
  -19.6380  -26.5580   21.6050 C   0  0  0  0  0  2  0  0  0  0  0  0
  -18.2520  -26.6910   22.2430 C   0  0  0  0  0  2  0  0  0  0  0  0
  -19.1660  -28.8140   23.3460 C   0  0  0  0  0  0  0  0  0  0  0  0
  -18.9300  -30.0770   23.9320 C   0  0  0  0  0  3  0  0  0  0  0  0
  -17.6200  -30.5630   24.0940 C   0  0  0  0  0  3  0  0  0  0  0  0
  -16.5250  -29.7840   23.6790 C   0  0  0  0  0  3  0  0  0  0  0  0
  -16.7450  -28.5260   23.0940 C   0  0  0  0  0  3  0  0  0  0  0  0
  -25.8660  -32.5380   23.8440 C   0  0  0  0  0  3  0  0  0  0  0  0
  -25.5620  -33.9380   24.1640 N   0  0  0  0  0  0  0  0  0  0  0  0
  -25.8990  -34.9820   23.3950 C   0  0  0  0  0  0  0  0  0  0  0  0
  -26.5720  -34.8690   22.3660 O   0  0  0  0  0  0  0  0  0  0  0  0
  -24.9680  -34.1010   24.9640 H   0  0  0  0  0  0  0  0  0  0  0  0
  -24.1810  -36.7750   23.0070 C   0  0  0  0  0  1  0  0  0  0  0  0
  -25.4100  -36.3750   23.8360 C   0  0  0  0  0  3  0  0  0  0  0  0
  -27.5400  -37.2530   24.6860 C   0  0  0  0  0  1  0  0  0  0  0  0
  -26.4490  -37.4230   23.7290 N   0  0  0  0  0  0  0  0  0  0  0  0
  -26.0460  -38.3450   23.8700 H   0  0  0  0  0  0  0  0  0  0  0  0
  -26.3910  -31.7740   25.1210 C   0  0  1  0  0  0  0  0  0  0  0  0
  -25.3020  -31.5360   26.1940 C   0  0  0  0  0  1  0  0  0  0  0  0
  -26.9750  -30.3970   24.7270 C   0  0  0  0  0  1  0  0  0  0  0  0
  -27.5480  -32.5710   25.7710 C   0  0  0  0  0  1  0  0  0  0  0  0
  -32.8550  -21.6120   18.0160 C   0  0  0  0  0  2  0  0  0  0  0  0
  -33.3800  -22.9110   18.6760 C   0  0  0  0  0  2  0  0  0  0  0  0
  -32.9830  -24.1770   17.9160 C   0  0  0  0  0  0  0  0  0  0  0  0
  -32.4300  -25.1640   18.6080 N   0  0  0  0  0  0  0  0  0  0  0  0
  -33.1600  -24.2660   16.7020 O   0  0  0  0  0  0  0  0  0  0  0  0
  -32.2590  -25.0640   19.6030 H   0  0  0  0  0  0  0  0  0  0  0  0
  -32.1380  -26.0110   18.1410 H   0  0  0  0  0  0  0  0  0  0  0  0
  1 99  1  0
  1 49  1  0
  2  1  1  0
  2  3  1  0
  3  5  1  0
  4  2  2  0
  6  3  1  0
  6  7  1  0
  7  8  1  0
  8  9  1  0
 10 18  1  0
 11 16  1  0
 12 13  1  0
 12 11  1  0
 14 13  1  0
 14 23  1  0
 14 15  1  0
 16 10  1  0
 16 15  1  0
 17 10  2  0
 18  9  1  0
 18 19  1  0
 20 21  2  0
 21 40  1  0
 22 21  1  0
 22 25  1  0
 23 20  1  0
 23 24  1  0
 24 22  2  0
 25 26  1  0
 26 27  2  0
 28 31  1  0
 28 27  1  0
 29 28  2  0
 30 29  1  0
 30 25  2  0
 31 32  1  0
 32 33  1  0
 33 34  2  0
 35 34  1  0
 35 39  1  0
 36 35  2  0
 37 32  2  0
 37 36  1  0
 38 37  1  0
 40 41  1  0
 41 44  1  0
 41 43  1  0
 42 40  2  0
 45 46  1  0
 45 20  1  0
 47 45  1  0
 48 52  1  0
 49 48  1  0
 49 51  1  0
 50 48  2  0
 52 54  1  0
 53 55  2  0
 54 53  1  0
 56 54  1  0
 57 53  1  0
 58 60  1  0
 58 57  1  0
 59 70  2  0
 60 65  1  0
 61 69  1  0
 61 71  1  0
 62 68  1  0
 62 64  1  0
 63 69  1  0
 64 63  1  0
 65 64  2  0
 66 67  1  0
 66 60  2  0
 67 62  2  0
 68 61  1  0
 69 59  1  0
 71 73  2  0
 72 71  1  0
 74 72  1  0
 75 84  2  0
 75 80  1  0
 76 72  1  0
 76 80  1  0
 77 76  1  0
 78 79  1  0
 78 77  1  0
 79 75  1  0
 80 81  2  0
 81 82  1  0
 83 82  2  0
 84 83  1  0
 85 59  1  0
 85 86  1  0
 85 95  1  0
 86 89  1  0
 87 91  1  0
 87 86  1  0
 88 87  2  0
 91 90  1  0
 93 91  1  0
 93 94  1  0
 93 92  1  0
 95 98  1  1
 95 96  1  0
 97 95  1  0
 99100  1  0
101102  1  0
101100  1  0
102104  1  0
103101  2  0
105102  1  0
M  ISO  4  10 100  18 100  57 101  58 101
M  END
>  <TORSDO>  (72) 
F 28

>  <SCORE>  (72) 
-11.512

>  <name>  (72) 
73

>  <ligand_id>  (72) 
73

>  <original_smiles>  (72) 
[H]c1c([H])c([H])c2c(c1[H])C([H])([H])C([H])([H])C([H])([H])C2([H])N([H])C(=O)C1([H])N(C(=O)C([H])(N([H])C(=O)C([H])(N([H])C([H])([H])[H])C([H])([H])[H])C(C([H])([H])[H])(C([H])([H])[H])C([H])([H])[H])C([H])([H])c2c([H])c(OC([H])([H])C(=O)N([H])C([H])([H])C(=O)N([H])C([H])(C(=O)N([H])C([H])([H])C([H])([H])C([H])([H])C([H])([H])N([H])C(=O)N3C([H])([H])C([H])([H])C([H])([H])C([H])(n4nc(-c5c([H])c([H])c(Oc6c([H])c([H])c(F)c([H])c6F)c([H])c5[H])c(C(=O)N([H])[H])c4N([H])[H])C3([H])[H])C([H])([H])C([H])([H])C(=O)N([H])[H])c([H])c([H])c2C1([H])[H]

>  <smiles>  (72) 
[H]c1c([H])c([H])c2c(c1[H])C([H])([H])C([H])([H])C([H])([H])C2([H])N([H])C(=O)C1([H])N(C(=O)C([H])(N([H])C(=O)C([H])(N([H])C([H])([H])[H])C([H])([H])[H])C(C([H])([H])[H])(C([H])([H])[H])C([H])([H])[H])C([H])([H])c2c([H])c(OC([H])([H])C(=O)N([H])C([H])([H])C(=O)N([H])C([H])(C(=O)N([H])C([H])([H])C([H])([H])C([H])([H])C([H])([H])N([H])C(=O)N3C([H])([H])C([H])([H])C([H])([H])C([H])(n4nc(-c5c([H])c([H])c(Oc6c([H])c([H])c(F)c([H])c6F)c([H])c5[H])c(C(=O)N([H])[H])c4N([H])[H])C3([H])[H])C([H])([H])C([H])([H])C(=O)N([H])[H])c([H])c([H])c2C1([H])[H]

$$$$
74:0:0
     RDKit          3D

105113  0  0  1  0  0  0  0  0999 V2000
  -28.9770  -21.0560   20.2390 C   0  0  0  0  0  3  0  0  0  0  0  0
  -29.7620  -22.4020   20.2420 C   0  0  0  0  0  0  0  0  0  0  0  0
  -29.2470  -23.4710   19.6000 N   0  0  0  0  0  0  0  0  0  0  0  0
  -30.8260  -22.4780   20.8590 O   0  0  0  0  0  0  0  0  0  0  0  0
  -28.3970  -23.3190   19.0740 H   0  0  0  0  0  0  0  0  0  0  0  0
  -29.7590  -24.8620   19.6440 C   0  0  0  0  0  2  0  0  0  0  0  0
  -28.6490  -25.8840   19.2710 C   0  0  0  0  0  2  0  0  0  0  0  0
  -28.7190  -27.2150   19.8550 O   0  0  0  0  0  0  0  0  0  0  0  0
  -24.5070  -31.8310   23.3520 C   0  0  0  0  0  0  0  0  0  0  0  0
  -27.5300  -27.9390   19.8540 C   0  0  0  0  0  0  0  0  0  0  0  0
  -23.4500  -30.5600   21.5180 C   0  0  0  0  0  3  0  0  0  0  0  0
  -25.0440  -29.3160   19.9660 C   0  0  0  0  0  0  0  0  0  0  0  0
  -25.9560  -31.0940   21.4580 C   0  0  0  0  0  2  0  0  0  0  0  0
  -26.1540  -29.8210   20.6550 C   0  0  0  0  0  0  0  0  0  0  0  0
  -27.3990  -29.1410   20.5990 C   0  0  0  0  0  3  0  0  0  0  0  0
  -26.3950  -27.4830   19.1360 C   0  0  0  0  0  3  0  0  0  0  0  0
  -25.1630  -28.1490   19.2000 C   0  0  0  0  0  3  0  0  0  0  0  0
  -23.7440  -30.0790   20.0740 C   0  0  0  0  0  2  0  0  0  0  0  0
  -24.6530  -31.1710   22.1680 N   0  0  0  0  0  0  0  0  0  0  0  0
  -23.3940  -31.9630   23.8810 O   0  0  0  0  0  0  0  0  0  0  0  0
  -22.8460  -29.3850   22.3240 C   0  0  0  0  0  0  0  0  0  0  0  0
  -21.5280  -29.1680   22.1770 N   0  0  0  0  0  0  0  0  0  0  0  0
  -23.5600  -28.6800   23.0420 O   0  0  0  0  0  0  0  0  0  0  0  0
  -21.0100  -29.7960   21.5780 H   0  0  0  0  0  0  0  0  0  0  0  0
  -18.2140  -27.7590   22.4870 C   0  0  0  0  0  0  0  0  0  0  0  0
  -20.7560  -28.1000   22.8100 C   0  0  0  0  0  3  0  0  0  0  0  0
  -20.9280  -26.7640   22.0510 C   0  0  0  0  0  2  0  0  0  0  0  0
  -19.8440  -26.5270   20.9940 C   0  0  0  0  0  2  0  0  0  0  0  0
  -18.4550  -26.5210   21.6400 C   0  0  0  0  0  2  0  0  0  0  0  0
  -19.2940  -28.5100   23.0230 C   0  0  0  0  0  0  0  0  0  0  0  0
  -19.0130  -29.6720   23.7730 C   0  0  0  0  0  3  0  0  0  0  0  0
  -17.6860  -30.0870   23.9920 C   0  0  0  0  0  3  0  0  0  0  0  0
  -16.6210  -29.3300   23.4740 C   0  0  0  0  0  3  0  0  0  0  0  0
  -16.8850  -28.1690   22.7270 C   0  0  0  0  0  3  0  0  0  0  0  0
  -25.7270  -32.4700   24.0870 C   0  0  0  0  0  3  0  0  0  0  0  0
  -25.4210  -33.8900   24.3040 N   0  0  0  0  0  0  0  0  0  0  0  0
  -25.7920  -34.8820   23.4830 C   0  0  0  0  0  0  0  0  0  0  0  0
  -26.4990  -34.6980   22.4890 O   0  0  0  0  0  0  0  0  0  0  0  0
  -24.8040  -34.1080   25.0730 H   0  0  0  0  0  0  0  0  0  0  0  0
  -24.0660  -36.6350   22.9660 C   0  0  0  0  0  1  0  0  0  0  0  0
  -25.3000  -36.3030   23.8190 C   0  0  0  0  0  3  0  0  0  0  0  0
  -27.4150  -37.2700   24.6060 C   0  0  0  0  0  1  0  0  0  0  0  0
  -26.3340  -37.3430   23.6270 N   0  0  0  0  0  0  0  0  0  0  0  0
  -25.9230  -38.2730   23.6770 H   0  0  0  0  0  0  0  0  0  0  0  0
  -26.0720  -31.7570   25.4520 C   0  0  1  0  0  0  0  0  0  0  0  0
  -24.8610  -31.6130   26.4020 C   0  0  0  0  0  1  0  0  0  0  0  0
  -26.6430  -30.3430   25.2000 C   0  0  0  0  0  1  0  0  0  0  0  0
  -27.1720  -32.5520   26.1930 C   0  0  0  0  0  1  0  0  0  0  0  0
  -29.7100  -18.6070   20.2460 C   0  0  0  0  0  0  0  0  0  0  0  0
  -29.9170  -19.9300   20.4490 N   0  0  0  0  0  0  0  0  0  0  0  0
  -28.5810  -18.1290   20.1050 O   0  0  0  0  0  0  0  0  0  0  0  0
  -30.8750  -20.2230   20.5970 H   0  0  0  0  0  0  0  0  0  0  0  0
  -31.2540  -15.2410   20.5390 C   0  0  0  0  0  0  0  0  0  0  0  0
  -31.0670  -12.8620   19.9580 C   0  0  0  0  0  2  0  0  0  0  0  0
  -30.2770  -12.7030   18.6430 C   0  0  0  0  0  2  0  0  0  0  0  0
  -28.7590  -12.6930   18.9030 C   0  0  0  0  0  2  0  0  0  0  0  0
  -28.2710  -13.7790   19.9020 C   0  0  0  0  0  3  0  0  0  0  0  0
  -29.1990  -13.8950   21.1280 C   0  0  0  0  0  2  0  0  0  0  0  0
  -30.5650  -14.0700   20.6250 N   0  0  0  0  0  0  0  0  0  0  0  0
  -32.4810  -15.2880   20.6330 O   0  0  0  0  0  0  0  0  0  0  0  0
  -31.0080  -17.4250   17.7300 C   0  0  0  0  0  2  0  0  0  0  0  0
  -31.7720  -18.1160   18.8420 C   0  0  0  0  0  2  0  0  0  0  0  0
  -30.7180  -16.0700   18.3690 C   0  0  0  0  0  2  0  0  0  0  0  0
  -30.9600  -17.6940   20.0800 C   0  0  0  0  0  3  0  0  0  0  0  0
  -30.6530  -16.2480   19.8440 N   0  0  0  0  0  0  0  0  0  0  0  0
  -25.8550  -14.4890   20.4070 C   0  0  0  0  0  0  0  0  0  0  0  0
  -24.7260  -13.7630   20.6700 C   0  0  0  0  0  0  0  0  0  0  0  0
  -25.1320  -12.3940   20.7010 C   0  0  0  0  0  0  0  0  0  0  0  0
  -26.8790  -13.5640   20.2810 N   0  0  0  0  0  0  0  0  0  0  0  0
  -26.4430  -12.3000   20.5260 N   0  0  0  0  0  0  0  0  0  0  0  0
  -24.3400  -11.1630   20.8330 C   0  0  0  0  0  0  0  0  0  0  0  0
  -24.7000  -10.1470   21.7460 C   0  0  0  0  0  3  0  0  0  0  0  0
  -23.9120   -8.9820   21.8650 C   0  0  0  0  0  3  0  0  0  0  0  0
  -22.7520   -8.8250   21.0690 C   0  0  0  0  0  0  0  0  0  0  0  0
  -22.4140   -9.8280   20.1430 C   0  0  0  0  0  3  0  0  0  0  0  0
  -23.2010  -10.9860   20.0230 C   0  0  0  0  0  3  0  0  0  0  0  0
  -21.9400   -7.7160   21.1010 O   0  0  0  0  0  0  0  0  0  0  0  0
  -21.8140   -6.9480   22.2310 C   0  0  0  0  0  0  0  0  0  0  0  0
  -21.4750   -7.5120   23.4810 C   0  0  0  0  0  3  0  0  0  0  0  0
  -21.2860   -6.6780   24.6010 C   0  0  0  0  0  3  0  0  0  0  0  0
  -21.4270   -5.2840   24.4740 C   0  0  0  0  0  0  0  0  0  0  0  0
  -21.7590   -4.7190   23.2280 C   0  0  0  0  0  3  0  0  0  0  0  0
  -21.9480   -5.5510   22.1100 C   0  0  0  0  0  0  0  0  0  0  0  0
  -22.2480   -5.0010   20.9070 F   0  0  0  0  0  0  0  0  0  0  0  0
  -21.2390   -4.4800   25.5460 F   0  0  0  0  0  0  0  0  0  0  0  0
  -23.3280  -14.2980   20.8030 C   0  0  0  0  0  0  0  0  0  0  0  0
  -22.5190  -13.6900   21.6630 N   0  0  0  0  0  0  0  0  0  0  0  0
  -22.9620  -15.2920   20.1780 O   0  0  0  0  0  0  0  0  0  0  0  0
  -22.8260  -12.8850   22.1880 H   0  0  0  0  0  0  0  0  0  0  0  0
  -21.5790  -14.0350   21.7990 H   0  0  0  0  0  0  0  0  0  0  0  0
  -26.0960  -15.8500   20.2430 N   0  0  0  0  0  0  0  0  0  0  0  0
  -25.3620  -16.5430   20.3220 H   0  0  0  0  0  0  0  0  0  0  0  0
  -27.0190  -16.2630   20.1590 H   0  0  0  0  0  0  0  0  0  0  0  0
  -27.8270  -21.0390   21.2910 C   0  0  0  0  0  2  0  0  0  0  0  0
  -26.5820  -21.8990   20.9580 C   0  0  0  0  0  2  0  0  0  0  0  0
  -26.7980  -23.4180   20.7950 C   0  0  0  0  0  2  0  0  0  0  0  0
  -26.1270  -25.1370   22.5250 C   0  0  0  0  0  0  0  0  0  0  0  0
  -26.3870  -25.6870   23.7110 N   0  0  0  0  0  0  0  0  0  0  0  0
  -25.1180  -25.6100   21.7910 N   0  0  0  0  0  4  0  0  0  0  0  0
  -26.8850  -24.1170   22.0910 N   0  0  0  0  0  0  0  0  0  0  0  0
  -25.8450  -26.4540   24.0850 H   0  0  0  0  0  0  0  0  0  0  0  0
  -27.1420  -25.3680   24.3040 H   0  0  0  0  0  0  0  0  0  0  0  0
  -24.5300  -26.3720   22.1030 H   0  0  0  0  0  0  0  0  0  0  0  0
  -24.8860  -25.2120   20.8930 H   0  0  0  0  0  0  0  0  0  0  0  0
  -27.6490  -23.7990   22.6790 H   0  0  0  0  0  0  0  0  0  0  0  0
  1  2  1  0
  1 50  1  0
  1 94  1  0
  2  4  2  0
  3  6  1  0
  3  2  1  0
  5  3  1  0
  7  6  1  0
  7  8  1  0
  9 20  2  0
 10  8  1  0
 10 15  1  0
 11 19  1  0
 11 21  1  0
 12 18  1  0
 12 14  1  0
 13 19  1  0
 14 13  1  0
 15 14  2  0
 16 17  1  0
 16 10  2  0
 17 12  2  0
 18 11  1  0
 19  9  1  0
 21 23  2  0
 22 21  1  0
 24 22  1  0
 25 34  2  0
 25 30  1  0
 26 22  1  0
 26 30  1  0
 27 26  1  0
 28 29  1  0
 28 27  1  0
 29 25  1  0
 30 31  2  0
 31 32  1  0
 33 32  2  0
 34 33  1  0
 35  9  1  0
 35 36  1  0
 35 45  1  0
 36 39  1  0
 37 41  1  0
 37 36  1  0
 38 37  2  0
 41 40  1  0
 43 44  1  0
 43 41  1  0
 43 42  1  0
 45 48  1  1
 45 46  1  0
 47 45  1  0
 49 50  1  0
 50 52  1  0
 51 49  2  0
 53 59  1  0
 53 60  2  0
 54 59  1  0
 55 56  1  0
 55 54  1  0
 57 56  1  0
 57 69  1  0
 57 58  1  0
 59 58  1  0
 61 63  1  0
 61 62  1  0
 62 64  1  0
 63 65  1  0
 64 49  1  0
 65 64  1  0
 65 53  1  0
 66 67  2  0
 67 68  1  0
 67 86  1  0
 68 71  1  0
 69 66  1  0
 69 70  1  0
 70 68  2  0
 71 72  1  0
 72 73  2  0
 74 77  1  0
 74 73  1  0
 75 74  2  0
 76 75  1  0
 76 71  2  0
 77 78  1  0
 78 79  1  0
 79 80  2  0
 81 80  1  0
 81 85  1  0
 82 81  2  0
 83 78  2  0
 83 82  1  0
 84 83  1  0
 86 87  1  0
 87 90  1  0
 87 89  1  0
 88 86  2  0
 91 92  1  0
 91 66  1  0
 93 91  1  0
 95 94  1  0
 96 95  1  0
 96100  1  0
 97 98  1  0
 98101  1  0
 98102  1  0
 99103  1  0
 99 97  2  0
100 97  1  0
100105  1  0
104 99  1  0
M  ISO  4   7 101   8 101  53 100  65 100
M  END
>  <TORSDO>  (73) 
F 24

>  <SCORE>  (73) 
-10.295

>  <name>  (73) 
74

>  <ligand_id>  (73) 
74

>  <original_smiles>  (73) 
[H]c1c([H])c([H])c2c(c1[H])C([H])([H])C([H])([H])C([H])([H])C2([H])N([H])C(=O)C1([H])N(C(=O)C([H])(N([H])C(=O)C([H])(N([H])C([H])([H])[H])C([H])([H])[H])C(C([H])([H])[H])(C([H])([H])[H])C([H])([H])[H])C([H])([H])c2c([H])c(OC([H])([H])C([H])([H])N([H])C(=O)C([H])(N([H])C(=O)C3([H])N(C(=O)N4C([H])([H])C([H])([H])C([H])([H])C([H])(n5nc(-c6c([H])c([H])c(Oc7c([H])c([H])c(F)c([H])c7F)c([H])c6[H])c(C(=O)N([H])[H])c5N([H])[H])C4([H])[H])C([H])([H])C([H])([H])C3([H])[H])C([H])([H])C([H])([H])C([H])([H])N([H])C(N([H])[H])=[N+]([H])[H])c([H])c([H])c2C1([H])[H]

>  <smiles>  (73) 
[H]c1c([H])c([H])c2c(c1[H])C([H])([H])C([H])([H])C([H])([H])C2([H])N([H])C(=O)C1([H])N(C(=O)C([H])(N([H])C(=O)C([H])(N([H])C([H])([H])[H])C([H])([H])[H])C(C([H])([H])[H])(C([H])([H])[H])C([H])([H])[H])C([H])([H])c2c([H])c(OC([H])([H])C([H])([H])N([H])C(=O)C([H])(N([H])C(=O)C3([H])N(C(=O)N4C([H])([H])C([H])([H])C([H])([H])C([H])(n5nc(-c6c([H])c([H])c(Oc7c([H])c([H])c(F)c([H])c7F)c([H])c6[H])c(C(=O)N([H])[H])c5N([H])[H])C4([H])[H])C([H])([H])C([H])([H])C3([H])[H])C([H])([H])C([H])([H])C([H])([H])N([H])C(N([H])[H])=[N+]([H])[H])c([H])c([H])c2C1([H])[H]

$$$$
75:0:0
     RDKit          3D

 95102  0  0  1  0  0  0  0  0999 V2000
  -30.2330  -20.4570   20.2180 C   0  0  0  0  0  0  0  0  0  0  0  0
  -30.4860  -19.3280   20.9330 N   0  0  0  0  0  0  0  0  0  0  0  0
  -30.2420  -20.4650   18.9860 O   0  0  0  0  0  0  0  0  0  0  0  0
  -30.4840  -19.4420   21.9390 H   0  0  0  0  0  0  0  0  0  0  0  0
  -29.9150  -21.7800   20.9910 C   0  0  0  0  0  2  0  0  0  0  0  0
  -29.0130  -24.1360   20.6100 C   0  0  0  0  0  0  0  0  0  0  0  0
  -29.4710  -22.9360   20.1600 N   0  0  0  0  0  0  0  0  0  0  0  0
  -28.9300  -24.3710   21.8180 O   0  0  0  0  0  0  0  0  0  0  0  0
  -29.5320  -22.7940   19.1590 H   0  0  0  0  0  0  0  0  0  0  0  0
  -28.5770  -25.2280   19.5750 C   0  0  0  0  0  2  0  0  0  0  0  0
  -28.4470  -26.5800   20.1410 O   0  0  0  0  0  0  0  0  0  0  0  0
  -24.6080  -31.8240   23.1780 C   0  0  0  0  0  0  0  0  0  0  0  0
  -27.2640  -27.3270   20.0870 C   0  0  0  0  0  0  0  0  0  0  0  0
  -23.4140  -30.4350   21.5210 C   0  0  0  0  0  3  0  0  0  0  0  0
  -24.8720  -28.8960   20.0990 C   0  0  0  0  0  0  0  0  0  0  0  0
  -25.9500  -30.7660   21.3530 C   0  0  0  0  0  2  0  0  0  0  0  0
  -26.0320  -29.3950   20.6990 C   0  0  0  0  0  0  0  0  0  0  0  0
  -27.2250  -28.6190   20.6890 C   0  0  0  0  0  3  0  0  0  0  0  0
  -26.0710  -26.8660   19.4750 C   0  0  0  0  0  3  0  0  0  0  0  0
  -24.8900  -27.6320   19.4890 C   0  0  0  0  0  3  0  0  0  0  0  0
  -23.6370  -29.7670   20.1390 C   0  0  0  0  0  2  0  0  0  0  0  0
  -24.6750  -31.0240   22.0740 N   0  0  0  0  0  0  0  0  0  0  0  0
  -23.5230  -32.0980   23.7110 O   0  0  0  0  0  0  0  0  0  0  0  0
  -22.7480  -29.4130   22.4700 C   0  0  0  0  0  0  0  0  0  0  0  0
  -21.4190  -29.2570   22.3540 N   0  0  0  0  0  0  0  0  0  0  0  0
  -23.4260  -28.7630   23.2720 O   0  0  0  0  0  0  0  0  0  0  0  0
  -20.9330  -29.8360   21.6820 H   0  0  0  0  0  0  0  0  0  0  0  0
  -18.0250  -28.1240   22.8860 C   0  0  0  0  0  0  0  0  0  0  0  0
  -20.5940  -28.3200   23.1160 C   0  0  0  0  0  3  0  0  0  0  0  0
  -20.6550  -26.9010   22.5070 C   0  0  0  0  0  2  0  0  0  0  0  0
  -19.5280  -26.6270   21.5050 C   0  0  0  0  0  2  0  0  0  0  0  0
  -18.1600  -26.7870   22.1760 C   0  0  0  0  0  2  0  0  0  0  0  0
  -19.1690  -28.8500   23.3130 C   0  0  0  0  0  0  0  0  0  0  0  0
  -18.9900  -30.1040   23.9360 C   0  0  0  0  0  3  0  0  0  0  0  0
  -17.7010  -30.6310   24.1390 C   0  0  0  0  0  3  0  0  0  0  0  0
  -16.5720  -29.9010   23.7280 C   0  0  0  0  0  3  0  0  0  0  0  0
  -16.7360  -28.6510   23.1060 C   0  0  0  0  0  3  0  0  0  0  0  0
  -25.8920  -32.4520   23.8110 C   0  0  0  0  0  3  0  0  0  0  0  0
  -26.4090  -31.6650   25.0770 C   0  0  1  0  0  0  0  0  0  0  0  0
  -25.3180  -31.4140   26.1430 C   0  0  0  0  0  1  0  0  0  0  0  0
  -26.9950  -30.2930   24.6700 C   0  0  0  0  0  1  0  0  0  0  0  0
  -27.5550  -32.4540   25.7520 C   0  0  0  0  0  1  0  0  0  0  0  0
  -25.5770  -33.8450   24.1570 N   0  0  0  0  0  0  0  0  0  0  0  0
  -25.9050  -34.9100   23.4140 C   0  0  0  0  0  0  0  0  0  0  0  0
  -26.5740  -34.8230   22.3810 O   0  0  0  0  0  0  0  0  0  0  0  0
  -24.9840  -33.9870   24.9630 H   0  0  0  0  0  0  0  0  0  0  0  0
  -24.1650  -36.6980   23.0910 C   0  0  0  0  0  1  0  0  0  0  0  0
  -25.4130  -36.2900   23.8910 C   0  0  0  0  0  3  0  0  0  0  0  0
  -27.5480  -37.1740   24.7190 C   0  0  0  0  0  1  0  0  0  0  0  0
  -26.4380  -37.3490   23.7860 N   0  0  0  0  0  0  0  0  0  0  0  0
  -26.0280  -38.2650   23.9510 H   0  0  0  0  0  0  0  0  0  0  0  0
  -30.7090  -17.9250   20.4660 C   0  0  0  0  0  2  0  0  0  0  0  0
  -29.5380  -16.9480   20.8750 C   0  0  0  0  0  3  0  0  0  0  0  0
  -30.5810  -14.5190   20.4670 C   0  0  0  0  0  0  0  0  0  0  0  0
  -30.4640  -12.1980   19.5740 C   0  0  0  0  0  2  0  0  0  0  0  0
  -29.5330  -12.1980   18.3410 C   0  0  0  0  0  2  0  0  0  0  0  0
  -28.0430  -12.0870   18.7360 C   0  0  0  0  0  2  0  0  0  0  0  0
  -27.6520  -13.0350   19.9000 C   0  0  0  0  0  3  0  0  0  0  0  0
  -28.6920  -12.9410   21.0440 C   0  0  0  0  0  2  0  0  0  0  0  0
  -30.0190  -13.2710   20.4790 N   0  0  0  0  0  0  0  0  0  0  0  0
  -31.6760  -14.7580   19.9510 O   0  0  0  0  0  0  0  0  0  0  0  0
  -29.7570  -15.4720   20.9620 N   0  0  0  0  0  0  0  0  0  0  0  0
  -28.9740  -15.0280   21.4150 H   0  0  0  0  0  0  0  0  0  0  0  0
  -25.2500  -13.6800   20.5720 C   0  0  0  0  0  0  0  0  0  0  0  0
  -24.1690  -12.9330   20.9520 C   0  0  0  0  0  0  0  0  0  0  0  0
  -24.6080  -11.5740   20.9330 C   0  0  0  0  0  0  0  0  0  0  0  0
  -26.2880  -12.7830   20.3640 N   0  0  0  0  0  0  0  0  0  0  0  0
  -25.9000  -11.5080   20.6300 N   0  0  0  0  0  0  0  0  0  0  0  0
  -23.8550  -10.3280   21.1210 C   0  0  0  0  0  0  0  0  0  0  0  0
  -24.2950   -9.3340   22.0220 C   0  0  0  0  0  3  0  0  0  0  0  0
  -23.5470   -8.1500   22.2000 C   0  0  0  0  0  3  0  0  0  0  0  0
  -22.3440   -7.9570   21.4820 C   0  0  0  0  0  0  0  0  0  0  0  0
  -21.9210   -8.9400   20.5700 C   0  0  0  0  0  3  0  0  0  0  0  0
  -22.6690  -10.1140   20.3890 C   0  0  0  0  0  3  0  0  0  0  0  0
  -21.5660   -6.8290   21.5770 O   0  0  0  0  0  0  0  0  0  0  0  0
  -21.5650   -6.0470   22.7030 C   0  0  0  0  0  0  0  0  0  0  0  0
  -21.2400   -6.5700   23.9750 C   0  0  0  0  0  3  0  0  0  0  0  0
  -21.1840   -5.7160   25.0950 C   0  0  0  0  0  3  0  0  0  0  0  0
  -21.4400   -4.3400   24.9430 C   0  0  0  0  0  0  0  0  0  0  0  0
  -21.7570   -3.8160   23.6780 C   0  0  0  0  0  3  0  0  0  0  0  0
  -21.8160   -4.6680   22.5600 C   0  0  0  0  0  0  0  0  0  0  0  0
  -22.1020   -4.1550   21.3390 F   0  0  0  0  0  0  0  0  0  0  0  0
  -21.3760   -3.5170   26.0160 F   0  0  0  0  0  0  0  0  0  0  0  0
  -22.7810  -13.4420   21.2160 C   0  0  0  0  0  0  0  0  0  0  0  0
  -22.0410  -12.7710   22.0920 N   0  0  0  0  0  0  0  0  0  0  0  0
  -22.3580  -14.4660   20.6840 O   0  0  0  0  0  0  0  0  0  0  0  0
  -22.3970  -11.9460   22.5470 H   0  0  0  0  0  0  0  0  0  0  0  0
  -21.1070  -13.0870   22.3070 H   0  0  0  0  0  0  0  0  0  0  0  0
  -25.4170  -15.0400   20.3700 N   0  0  0  0  0  0  0  0  0  0  0  0
  -24.6400  -15.6840   20.4630 H   0  0  0  0  0  0  0  0  0  0  0  0
  -26.2600  -15.4760   20.0220 H   0  0  0  0  0  0  0  0  0  0  0  0
  -28.5350  -16.9920   18.5090 C   0  0  0  0  0  1  0  0  0  0  0  0
  -28.2460  -17.1290   20.0190 C   0  0  0  0  0  3  0  0  0  0  0  0
  -26.1470  -18.5700   19.5170 C   0  0  0  0  0  1  0  0  0  0  0  0
  -27.4050  -18.3780   20.3790 C   0  0  0  0  0  2  0  0  0  0  0  0
  1  2  1  0
  1  5  1  0
  2  4  1  0
  3  1  2  0
  6  8  2  0
  7  6  1  0
  7  5  1  0
  9  7  1  0
 10 11  1  0
 10  6  1  0
 12 23  2  0
 13 11  1  0
 13 18  1  0
 14 22  1  0
 14 24  1  0
 15 21  1  0
 15 17  1  0
 16 22  1  0
 17 16  1  0
 18 17  2  0
 19 20  1  0
 19 13  2  0
 20 15  2  0
 21 14  1  0
 22 12  1  0
 24 26  2  0
 25 24  1  0
 27 25  1  0
 28 37  2  0
 28 33  1  0
 29 25  1  0
 29 33  1  0
 30 29  1  0
 31 32  1  0
 31 30  1  0
 32 28  1  0
 33 34  2  0
 34 35  1  0
 36 35  2  0
 37 36  1  0
 38 12  1  0
 38 43  1  0
 38 39  1  0
 39 42  1  1
 39 40  1  0
 41 39  1  0
 43 46  1  0
 44 48  1  0
 44 43  1  0
 45 44  2  0
 48 47  1  0
 50 48  1  0
 50 51  1  0
 50 49  1  0
 52  2  1  0
 53 52  1  0
 53 62  1  0
 54 60  1  0
 54 62  1  0
 55 60  1  0
 56 57  1  0
 56 55  1  0
 58 57  1  0
 58 67  1  0
 58 59  1  0
 60 59  1  0
 61 54  2  0
 62 63  1  0
 64 65  2  0
 65 84  1  0
 66 65  1  0
 66 69  1  0
 67 64  1  0
 67 68  1  0
 68 66  2  0
 69 70  1  0
 70 71  2  0
 72 75  1  0
 72 71  1  0
 73 72  2  0
 74 73  1  0
 74 69  2  0
 75 76  1  0
 76 77  1  0
 77 78  2  0
 79 78  1  0
 79 83  1  0
 80 79  2  0
 81 76  2  0
 81 80  1  0
 82 81  1  0
 84 85  1  0
 85 88  1  0
 85 87  1  0
 86 84  2  0
 89 90  1  0
 89 64  1  0
 91 89  1  0
 93 92  1  0
 93 95  1  0
 93 53  1  0
 94 95  1  0
M  ISO  4  10 101  11 101  54 100  62 100
M  END
>  <TORSDO>  (74) 
F 23

>  <SCORE>  (74) 
-12.397

>  <name>  (74) 
75

>  <ligand_id>  (74) 
75

>  <original_smiles>  (74) 
[H]c1c([H])c([H])c2c(c1[H])C([H])([H])C([H])([H])C([H])([H])C2([H])N([H])C(=O)C1([H])N(C(=O)C([H])(N([H])C(=O)C([H])(N([H])C([H])([H])[H])C([H])([H])[H])C(C([H])([H])[H])(C([H])([H])[H])C([H])([H])[H])C([H])([H])c2c([H])c(OC([H])([H])C(=O)N([H])C([H])([H])C(=O)N([H])C([H])([H])C([H])(N([H])C(=O)N3C([H])([H])C([H])([H])C([H])([H])C([H])(n4nc(-c5c([H])c([H])c(Oc6c([H])c([H])c(F)c([H])c6F)c([H])c5[H])c(C(=O)N([H])[H])c4N([H])[H])C3([H])[H])C([H])(C([H])([H])[H])C([H])([H])C([H])([H])[H])c([H])c([H])c2C1([H])[H]

>  <smiles>  (74) 
[H]c1c([H])c([H])c2c(c1[H])C([H])([H])C([H])([H])C([H])([H])C2([H])N([H])C(=O)C1([H])N(C(=O)C([H])(N([H])C(=O)C([H])(N([H])C([H])([H])[H])C([H])([H])[H])C(C([H])([H])[H])(C([H])([H])[H])C([H])([H])[H])C([H])([H])c2c([H])c(OC([H])([H])C(=O)N([H])C([H])([H])C(=O)N([H])C([H])([H])C([H])(N([H])C(=O)N3C([H])([H])C([H])([H])C([H])([H])C([H])(n4nc(-c5c([H])c([H])c(Oc6c([H])c([H])c(F)c([H])c6F)c([H])c5[H])c(C(=O)N([H])[H])c4N([H])[H])C3([H])[H])C([H])(C([H])([H])[H])C([H])([H])C([H])([H])[H])c([H])c([H])c2C1([H])[H]

$$$$
76:0:0
     RDKit          3D

103110  0  0  1  0  0  0  0  0999 V2000
  -29.0830  -20.6290   20.1520 C   0  0  0  0  0  3  0  0  0  0  0  0
  -29.7210  -21.9870   20.5820 C   0  0  0  0  0  0  0  0  0  0  0  0
  -29.2970  -23.1140   19.9730 N   0  0  0  0  0  0  0  0  0  0  0  0
  -30.5690  -22.0120   21.4770 O   0  0  0  0  0  0  0  0  0  0  0  0
  -28.6150  -22.9880   19.2400 H   0  0  0  0  0  0  0  0  0  0  0  0
  -29.6330  -24.5160   20.3040 C   0  0  0  0  0  2  0  0  0  0  0  0
  -28.5260  -25.4830   19.7980 C   0  0  0  0  0  2  0  0  0  0  0  0
  -28.6730  -26.8920   20.1160 O   0  0  0  0  0  0  0  0  0  0  0  0
  -24.6230  -31.7970   23.3850 C   0  0  0  0  0  0  0  0  0  0  0  0
  -27.5130  -27.6600   20.0700 C   0  0  0  0  0  0  0  0  0  0  0  0
  -23.5420  -30.5420   21.5520 C   0  0  0  0  0  3  0  0  0  0  0  0
  -25.1040  -29.1700   20.0760 C   0  0  0  0  0  0  0  0  0  0  0  0
  -26.0750  -30.9390   21.5440 C   0  0  0  0  0  2  0  0  0  0  0  0
  -26.2210  -29.6360   20.7790 C   0  0  0  0  0  0  0  0  0  0  0  0
  -27.4290  -28.8920   20.7720 C   0  0  0  0  0  3  0  0  0  0  0  0
  -26.3710  -27.2310   19.3490 C   0  0  0  0  0  3  0  0  0  0  0  0
  -25.1760  -27.9690   19.3550 C   0  0  0  0  0  3  0  0  0  0  0  0
  -23.8450  -30.0050   20.1300 C   0  0  0  0  0  2  0  0  0  0  0  0
  -24.7610  -31.1030   22.2190 N   0  0  0  0  0  0  0  0  0  0  0  0
  -23.5050  -32.0040   23.8790 O   0  0  0  0  0  0  0  0  0  0  0  0
  -22.8540  -29.4250   22.3700 C   0  0  0  0  0  0  0  0  0  0  0  0
  -21.5320  -29.2710   22.1840 N   0  0  0  0  0  0  0  0  0  0  0  0
  -23.5080  -28.7020   23.1260 O   0  0  0  0  0  0  0  0  0  0  0  0
  -21.0670  -29.9060   21.5510 H   0  0  0  0  0  0  0  0  0  0  0  0
  -18.1260  -28.0990   22.4890 C   0  0  0  0  0  0  0  0  0  0  0  0
  -20.6850  -28.2610   22.8190 C   0  0  0  0  0  3  0  0  0  0  0  0
  -20.7650  -26.9130   22.0650 C   0  0  0  0  0  2  0  0  0  0  0  0
  -19.6690  -26.7470   21.0080 C   0  0  0  0  0  2  0  0  0  0  0  0
  -18.2830  -26.8410   21.6500 C   0  0  0  0  0  2  0  0  0  0  0  0
  -19.2550  -28.7740   23.0250 C   0  0  0  0  0  0  0  0  0  0  0  0
  -19.0550  -29.9560   23.7690 C   0  0  0  0  0  3  0  0  0  0  0  0
  -17.7590  -30.4640   23.9820 C   0  0  0  0  0  3  0  0  0  0  0  0
  -16.6440  -29.7830   23.4620 C   0  0  0  0  0  3  0  0  0  0  0  0
  -16.8290  -28.6020   22.7220 C   0  0  0  0  0  3  0  0  0  0  0  0
  -25.8570  -32.3830   24.1380 C   0  0  0  0  0  3  0  0  0  0  0  0
  -26.2740  -31.5370   25.4020 C   0  0  1  0  0  0  0  0  0  0  0  0
  -25.1040  -31.2530   26.3720 C   0  0  0  0  0  1  0  0  0  0  0  0
  -26.8740  -30.1760   24.9750 C   0  0  0  0  0  1  0  0  0  0  0  0
  -27.3800  -32.2790   26.1890 C   0  0  0  0  0  1  0  0  0  0  0  0
  -25.5260  -33.7620   24.5230 N   0  0  0  0  0  0  0  0  0  0  0  0
  -25.9040  -34.8530   23.8440 C   0  0  0  0  0  0  0  0  0  0  0  0
  -26.6380  -34.8040   22.8540 O   0  0  0  0  0  0  0  0  0  0  0  0
  -24.8820  -33.8740   25.2930 H   0  0  0  0  0  0  0  0  0  0  0  0
  -24.1870  -36.6560   23.4860 C   0  0  0  0  0  1  0  0  0  0  0  0
  -25.3840  -36.2150   24.3430 C   0  0  0  0  0  3  0  0  0  0  0  0
  -27.4640  -37.0620   25.3340 C   0  0  0  0  0  1  0  0  0  0  0  0
  -26.4150  -37.2740   24.3410 N   0  0  0  0  0  0  0  0  0  0  0  0
  -25.9970  -38.1850   24.5100 H   0  0  0  0  0  0  0  0  0  0  0  0
  -29.6220  -18.1860   20.5660 C   0  0  0  0  0  0  0  0  0  0  0  0
  -29.6830  -19.4940   20.8900 N   0  0  0  0  0  0  0  0  0  0  0  0
  -29.0570  -17.7870   19.5450 O   0  0  0  0  0  0  0  0  0  0  0  0
  -30.2060  -19.7610   21.7160 H   0  0  0  0  0  0  0  0  0  0  0  0
  -30.2620  -17.1620   21.5290 C   0  0  0  0  0  2  0  0  0  0  0  0
  -30.5110  -14.8230   20.6060 C   0  0  0  0  0  0  0  0  0  0  0  0
  -30.2430  -12.7530   19.2830 C   0  0  0  0  0  2  0  0  0  0  0  0
  -29.3130  -13.0340   18.0860 C   0  0  0  0  0  2  0  0  0  0  0  0
  -27.8350  -12.8520   18.4850 C   0  0  0  0  0  2  0  0  0  0  0  0
  -27.4760  -13.5830   19.8060 C   0  0  0  0  0  3  0  0  0  0  0  0
  -28.5230  -13.2920   20.9050 C   0  0  0  0  0  2  0  0  0  0  0  0
  -29.8460  -13.6560   20.3750 N   0  0  0  0  0  0  0  0  0  0  0  0
  -31.6300  -15.0560   20.1410 O   0  0  0  0  0  0  0  0  0  0  0  0
  -29.8320  -15.7670   21.2840 N   0  0  0  0  0  0  0  0  0  0  0  0
  -28.8930  -15.5320   21.5680 H   0  0  0  0  0  0  0  0  0  0  0  0
  -25.0660  -14.1110   20.5370 C   0  0  0  0  0  0  0  0  0  0  0  0
  -24.0000  -13.3050   20.8340 C   0  0  0  0  0  0  0  0  0  0  0  0
  -24.4730  -11.9630   20.7020 C   0  0  0  0  0  0  0  0  0  0  0  0
  -26.1210  -13.2590   20.2480 N   0  0  0  0  0  0  0  0  0  0  0  0
  -25.7660  -11.9570   20.4040 N   0  0  0  0  0  0  0  0  0  0  0  0
  -23.7550  -10.6850   20.7880 C   0  0  0  0  0  0  0  0  0  0  0  0
  -24.2260   -9.6260   21.5940 C   0  0  0  0  0  3  0  0  0  0  0  0
  -23.5110   -8.4110   21.6730 C   0  0  0  0  0  3  0  0  0  0  0  0
  -22.3060   -8.2490   20.9460 C   0  0  0  0  0  0  0  0  0  0  0  0
  -21.8540   -9.2990   20.1270 C   0  0  0  0  0  3  0  0  0  0  0  0
  -22.5710  -10.5040   20.0450 C   0  0  0  0  0  3  0  0  0  0  0  0
  -21.5560   -7.0990   20.9420 O   0  0  0  0  0  0  0  0  0  0  0  0
  -21.6040   -6.2070   21.9830 C   0  0  0  0  0  0  0  0  0  0  0  0
  -21.3160   -6.5930   23.3100 C   0  0  0  0  0  3  0  0  0  0  0  0
  -21.3090   -5.6280   24.3380 C   0  0  0  0  0  3  0  0  0  0  0  0
  -21.5760   -4.2780   24.0390 C   0  0  0  0  0  0  0  0  0  0  0  0
  -21.8560   -3.8920   22.7170 C   0  0  0  0  0  3  0  0  0  0  0  0
  -21.8670   -4.8530   21.6910 C   0  0  0  0  0  0  0  0  0  0  0  0
  -22.1170   -4.4720   20.4160 F   0  0  0  0  0  0  0  0  0  0  0  0
  -21.5600   -3.3500   25.0240 F   0  0  0  0  0  0  0  0  0  0  0  0
  -22.5970  -13.7500   21.1280 C   0  0  0  0  0  0  0  0  0  0  0  0
  -21.8760  -13.0020   21.9560 N   0  0  0  0  0  0  0  0  0  0  0  0
  -22.1470  -14.7960   20.6620 O   0  0  0  0  0  0  0  0  0  0  0  0
  -22.2540  -12.1590   22.3600 H   0  0  0  0  0  0  0  0  0  0  0  0
  -20.9340  -13.2790   22.1900 H   0  0  0  0  0  0  0  0  0  0  0  0
  -25.2200  -15.4930   20.4710 N   0  0  0  0  0  0  0  0  0  0  0  0
  -24.4400  -16.1240   20.6180 H   0  0  0  0  0  0  0  0  0  0  0  0
  -26.0690  -15.9700   20.1870 H   0  0  0  0  0  0  0  0  0  0  0  0
  -27.5410  -20.6120   20.3410 C   0  0  0  0  0  2  0  0  0  0  0  0
  -26.7440  -21.3880   19.2720 C   0  0  0  0  0  2  0  0  0  0  0  0
  -25.3130  -21.7310   19.7130 C   0  0  0  0  0  2  0  0  0  0  0  0
  -24.9600  -24.1690   20.2880 C   0  0  0  0  0  0  0  0  0  0  0  0
  -24.9980  -25.1080   21.2300 N   0  0  0  0  0  0  0  0  0  0  0  0
  -24.5970  -24.4960   19.0450 N   0  0  0  0  0  4  0  0  0  0  0  0
  -25.2980  -22.9090   20.6010 N   0  0  0  0  0  0  0  0  0  0  0  0
  -24.7610  -26.0750   21.0500 H   0  0  0  0  0  0  0  0  0  0  0  0
  -25.2610  -24.9050   22.1860 H   0  0  0  0  0  0  0  0  0  0  0  0
  -24.3230  -25.4340   18.7870 H   0  0  0  0  0  0  0  0  0  0  0  0
  -24.5460  -23.8030   18.3140 H   0  0  0  0  0  0  0  0  0  0  0  0
  -25.5590  -22.6980   21.5590 H   0  0  0  0  0  0  0  0  0  0  0  0
  1 92  1  0
  1  2  1  0
  1 50  1  0
  2  4  2  0
  3  6  1  0
  3  2  1  0
  5  3  1  0
  7  8  1  0
  7  6  1  0
  9 20  2  0
 10  8  1  0
 10 15  1  0
 11 19  1  0
 11 21  1  0
 12 18  1  0
 12 14  1  0
 13 19  1  0
 14 13  1  0
 15 14  2  0
 16 17  1  0
 16 10  2  0
 17 12  2  0
 18 11  1  0
 19  9  1  0
 21 23  2  0
 22 21  1  0
 24 22  1  0
 25 34  2  0
 25 30  1  0
 26 22  1  0
 26 30  1  0
 27 26  1  0
 28 29  1  0
 28 27  1  0
 29 25  1  0
 30 31  2  0
 31 32  1  0
 33 32  2  0
 34 33  1  0
 35  9  1  0
 35 40  1  0
 35 36  1  0
 36 39  1  1
 36 37  1  0
 38 36  1  0
 40 43  1  0
 41 45  1  0
 41 40  1  0
 42 41  2  0
 45 44  1  0
 47 45  1  0
 47 48  1  0
 47 46  1  0
 49 50  1  0
 49 53  1  0
 50 52  1  0
 51 49  2  0
 54 62  1  0
 55 60  1  0
 56 57  1  0
 56 55  1  0
 58 57  1  0
 58 67  1  0
 58 59  1  0
 60 54  1  0
 60 59  1  0
 61 54  2  0
 62 53  1  0
 62 63  1  0
 64 65  2  0
 65 84  1  0
 66 69  1  0
 66 65  1  0
 67 68  1  0
 67 64  1  0
 68 66  2  0
 69 70  1  0
 70 71  2  0
 72 71  1  0
 73 72  2  0
 74 73  1  0
 74 69  2  0
 75 72  1  0
 75 76  1  0
 76 77  1  0
 77 78  2  0
 79 78  1  0
 79 83  1  0
 80 79  2  0
 81 76  2  0
 81 80  1  0
 82 81  1  0
 84 85  1  0
 85 88  1  0
 85 87  1  0
 86 84  2  0
 89 64  1  0
 89 90  1  0
 91 89  1  0
 93 94  1  0
 93 92  1  0
 94 98  1  0
 95 98  1  0
 95 96  1  0
 96100  1  0
 97 95  2  0
 98103  1  0
 99 96  1  0
101 97  1  0
102 97  1  0
M  ISO  4   7 101   8 101  54 100  62 100
M  END
>  <TORSDO>  (75) 
F 25

>  <SCORE>  (75) 
-10.925

>  <name>  (75) 
76

>  <ligand_id>  (75) 
76

>  <original_smiles>  (75) 
[H]c1c([H])c([H])c2c(c1[H])C([H])([H])C([H])([H])C([H])([H])C2([H])N([H])C(=O)C1([H])N(C(=O)C([H])(N([H])C(=O)C([H])(N([H])C([H])([H])[H])C([H])([H])[H])C(C([H])([H])[H])(C([H])([H])[H])C([H])([H])[H])C([H])([H])c2c([H])c(OC([H])([H])C([H])([H])N([H])C(=O)C([H])(N([H])C(=O)C([H])([H])N([H])C(=O)N3C([H])([H])C([H])([H])C([H])([H])C([H])(n4nc(-c5c([H])c([H])c(Oc6c([H])c([H])c(F)c([H])c6F)c([H])c5[H])c(C(=O)N([H])[H])c4N([H])[H])C3([H])[H])C([H])([H])C([H])([H])C([H])([H])N([H])C(N([H])[H])=[N+]([H])[H])c([H])c([H])c2C1([H])[H]

>  <smiles>  (75) 
[H]c1c([H])c([H])c2c(c1[H])C([H])([H])C([H])([H])C([H])([H])C2([H])N([H])C(=O)C1([H])N(C(=O)C([H])(N([H])C(=O)C([H])(N([H])C([H])([H])[H])C([H])([H])[H])C(C([H])([H])[H])(C([H])([H])[H])C([H])([H])[H])C([H])([H])c2c([H])c(OC([H])([H])C([H])([H])N([H])C(=O)C([H])(N([H])C(=O)C([H])([H])N([H])C(=O)N3C([H])([H])C([H])([H])C([H])([H])C([H])(n4nc(-c5c([H])c([H])c(Oc6c([H])c([H])c(F)c([H])c6F)c([H])c5[H])c(C(=O)N([H])[H])c4N([H])[H])C3([H])[H])C([H])([H])C([H])([H])C([H])([H])N([H])C(N([H])[H])=[N+]([H])[H])c([H])c([H])c2C1([H])[H]

$$$$
77:0:0
     RDKit          3D

 93100  0  0  1  0  0  0  0  0999 V2000
  -31.8500  -24.0390   18.1300 C   0  0  0  0  0  2  0  0  0  0  0  0
  -29.9930  -25.0910   19.4180 C   0  0  0  0  0  0  0  0  0  0  0  0
  -30.6000  -24.7860   18.2670 N   0  0  0  0  0  0  0  0  0  0  0  0
  -30.5320  -24.9380   20.5170 O   0  0  0  0  0  0  0  0  0  0  0  0
  -30.0910  -24.9800   17.4140 H   0  0  0  0  0  0  0  0  0  0  0  0
  -28.5590  -25.6170   19.3250 C   0  0  0  0  0  2  0  0  0  0  0  0
  -28.4460  -26.8030   20.1020 O   0  0  0  0  0  0  0  0  0  0  0  0
  -24.6310  -31.8790   23.2530 C   0  0  0  0  0  0  0  0  0  0  0  0
  -27.2380  -27.4620   20.1190 C   0  0  0  0  0  0  0  0  0  0  0  0
  -23.4000  -30.4830   21.6240 C   0  0  0  0  0  3  0  0  0  0  0  0
  -24.8320  -28.9440   20.1810 C   0  0  0  0  0  0  0  0  0  0  0  0
  -25.9210  -30.8410   21.3950 C   0  0  0  0  0  2  0  0  0  0  0  0
  -25.9940  -29.4720   20.7550 C   0  0  0  0  0  0  0  0  0  0  0  0
  -27.1940  -28.7330   20.7290 C   0  0  0  0  0  3  0  0  0  0  0  0
  -26.0500  -26.9350   19.5530 C   0  0  0  0  0  3  0  0  0  0  0  0
  -24.8510  -27.6710   19.5850 C   0  0  0  0  0  3  0  0  0  0  0  0
  -23.5910  -29.8060   20.2400 C   0  0  0  0  0  2  0  0  0  0  0  0
  -24.6700  -31.0810   22.1500 N   0  0  0  0  0  0  0  0  0  0  0  0
  -23.5590  -32.1520   23.8080 O   0  0  0  0  0  0  0  0  0  0  0  0
  -22.7620  -29.4590   22.5880 C   0  0  0  0  0  0  0  0  0  0  0  0
  -21.4370  -29.2740   22.4700 N   0  0  0  0  0  0  0  0  0  0  0  0
  -23.4520  -28.8370   23.3990 O   0  0  0  0  0  0  0  0  0  0  0  0
  -20.9410  -29.8290   21.7860 H   0  0  0  0  0  0  0  0  0  0  0  0
  -18.0700  -28.0640   22.9730 C   0  0  0  0  0  0  0  0  0  0  0  0
  -20.6260  -28.3360   23.2460 C   0  0  0  0  0  3  0  0  0  0  0  0
  -20.7380  -26.9020   22.6790 C   0  0  0  0  0  2  0  0  0  0  0  0
  -19.6390  -26.5670   21.6660 C   0  0  0  0  0  2  0  0  0  0  0  0
  -18.2550  -26.7100   22.3080 C   0  0  0  0  0  2  0  0  0  0  0  0
  -19.1850  -28.8340   23.3990 C   0  0  0  0  0  0  0  0  0  0  0  0
  -18.9600  -30.1020   23.9790 C   0  0  0  0  0  3  0  0  0  0  0  0
  -17.6530  -30.5980   24.1380 C   0  0  0  0  0  3  0  0  0  0  0  0
  -16.5530  -29.8250   23.7290 C   0  0  0  0  0  3  0  0  0  0  0  0
  -16.7630  -28.5590   23.1510 C   0  0  0  0  0  3  0  0  0  0  0  0
  -25.9280  -32.5030   23.8580 C   0  0  0  0  0  3  0  0  0  0  0  0
  -26.4660  -31.7240   25.1190 C   0  0  1  0  0  0  0  0  0  0  0  0
  -25.3910  -31.4810   26.2040 C   0  0  0  0  0  1  0  0  0  0  0  0
  -27.0390  -30.3470   24.7070 C   0  0  0  0  0  1  0  0  0  0  0  0
  -27.6300  -32.5110   25.7670 C   0  0  0  0  0  1  0  0  0  0  0  0
  -25.6300  -33.8990   24.1970 N   0  0  0  0  0  0  0  0  0  0  0  0
  -25.9520  -34.9520   23.4350 C   0  0  0  0  0  0  0  0  0  0  0  0
  -26.6050  -34.8510   22.3930 O   0  0  0  0  0  0  0  0  0  0  0  0
  -25.0480  -34.0540   25.0080 H   0  0  0  0  0  0  0  0  0  0  0  0
  -24.2190  -36.7450   23.1110 C   0  0  0  0  0  1  0  0  0  0  0  0
  -25.4730  -36.3390   23.9020 C   0  0  0  0  0  3  0  0  0  0  0  0
  -27.6230  -37.2190   24.6970 C   0  0  0  0  0  1  0  0  0  0  0  0
  -26.5040  -37.3920   23.7720 N   0  0  0  0  0  0  0  0  0  0  0  0
  -26.1020  -38.3130   23.9300 H   0  0  0  0  0  0  0  0  0  0  0  0
  -31.6450  -22.5350   18.4160 C   0  0  0  0  0  2  0  0  0  0  0  0
  -30.5090  -21.8880   17.5960 C   0  0  0  0  0  2  0  0  0  0  0  0
  -29.7180  -20.8140   18.3620 C   0  0  0  0  0  2  0  0  0  0  0  0
  -28.3820  -20.4890   17.6660 C   0  0  0  0  0  2  0  0  0  0  0  0
  -27.5530  -19.3860   18.3460 C   0  0  0  0  0  2  0  0  0  0  0  0
  -28.2820  -18.0310   18.3680 C   0  0  0  0  0  2  0  0  0  0  0  0
  -28.6940  -17.5760   19.7790 C   0  0  0  0  0  2  0  0  0  0  0  0
  -29.9430  -16.6810   19.7730 C   0  0  0  0  0  2  0  0  0  0  0  0
  -30.6240  -14.4800   20.5240 C   0  0  0  0  0  0  0  0  0  0  0  0
  -30.3530  -12.3100   19.4390 C   0  0  0  0  0  2  0  0  0  0  0  0
  -29.4370  -12.5580   18.2220 C   0  0  0  0  0  2  0  0  0  0  0  0
  -27.9550  -12.4270   18.6250 C   0  0  0  0  0  2  0  0  0  0  0  0
  -27.5970  -13.2570   19.8860 C   0  0  0  0  0  3  0  0  0  0  0  0
  -28.6370  -13.0220   21.0090 C   0  0  0  0  0  2  0  0  0  0  0  0
  -29.9790  -13.2910   20.4640 N   0  0  0  0  0  0  0  0  0  0  0  0
  -31.7850  -14.6610   20.1500 O   0  0  0  0  0  0  0  0  0  0  0  0
  -29.7880  -15.5150   20.6350 N   0  0  0  0  0  0  0  0  0  0  0  0
  -28.8480  -15.2740   20.9130 H   0  0  0  0  0  0  0  0  0  0  0  0
  -25.1870  -13.8700   20.5580 C   0  0  0  0  0  0  0  0  0  0  0  0
  -24.1190  -13.0910   20.9210 C   0  0  0  0  0  0  0  0  0  0  0  0
  -24.5890  -11.7430   20.9040 C   0  0  0  0  0  0  0  0  0  0  0  0
  -26.2380  -12.9880   20.3480 N   0  0  0  0  0  0  0  0  0  0  0  0
  -25.8820  -11.7060   20.6140 N   0  0  0  0  0  0  0  0  0  0  0  0
  -23.8680  -10.4790   21.0930 C   0  0  0  0  0  0  0  0  0  0  0  0
  -24.3140   -9.5090   22.0180 C   0  0  0  0  0  3  0  0  0  0  0  0
  -23.5980   -8.3050   22.1940 C   0  0  0  0  0  3  0  0  0  0  0  0
  -22.4200   -8.0670   21.4430 C   0  0  0  0  0  0  0  0  0  0  0  0
  -21.9970   -9.0230   20.5050 C   0  0  0  0  0  3  0  0  0  0  0  0
  -22.7140  -10.2200   20.3280 C   0  0  0  0  0  3  0  0  0  0  0  0
  -21.6710   -6.9180   21.5320 O   0  0  0  0  0  0  0  0  0  0  0  0
  -21.6510   -6.1570   22.6740 C   0  0  0  0  0  0  0  0  0  0  0  0
  -21.2650   -6.6950   23.9210 C   0  0  0  0  0  3  0  0  0  0  0  0
  -21.1900   -5.8620   25.0540 C   0  0  0  0  0  3  0  0  0  0  0  0
  -21.4910   -4.4900   24.9400 C   0  0  0  0  0  0  0  0  0  0  0  0
  -21.8720   -3.9530   23.6990 C   0  0  0  0  0  3  0  0  0  0  0  0
  -21.9480   -4.7830   22.5670 C   0  0  0  0  0  0  0  0  0  0  0  0
  -22.2940   -4.2570   21.3670 F   0  0  0  0  0  0  0  0  0  0  0  0
  -21.4130   -3.6860   26.0250 F   0  0  0  0  0  0  0  0  0  0  0  0
  -22.7140  -13.5630   21.1680 C   0  0  0  0  0  0  0  0  0  0  0  0
  -21.9770  -12.8670   22.0300 N   0  0  0  0  0  0  0  0  0  0  0  0
  -22.2750  -14.5790   20.6360 O   0  0  0  0  0  0  0  0  0  0  0  0
  -22.3430  -12.0450   22.4860 H   0  0  0  0  0  0  0  0  0  0  0  0
  -21.0350  -13.1600   22.2370 H   0  0  0  0  0  0  0  0  0  0  0  0
  -25.3390  -15.2400   20.3710 N   0  0  0  0  0  0  0  0  0  0  0  0
  -24.5500  -15.8740   20.4610 H   0  0  0  0  0  0  0  0  0  0  0  0
  -26.1710  -15.6890   20.0140 H   0  0  0  0  0  0  0  0  0  0  0  0
  1  3  1  0
  1 48  1  0
  2  4  2  0
  3  2  1  0
  5  3  1  0
  6  2  1  0
  6  7  1  0
  7  9  1  0
  8 19  2  0
  9 14  1  0
 10 18  1  0
 10 20  1  0
 11 17  1  0
 11 13  1  0
 12 18  1  0
 13 12  1  0
 14 13  2  0
 15 16  1  0
 15  9  2  0
 16 11  2  0
 17 10  1  0
 18  8  1  0
 20 22  2  0
 21 20  1  0
 23 21  1  0
 24 33  2  0
 24 29  1  0
 25 21  1  0
 25 29  1  0
 26 25  1  0
 27 28  1  0
 27 26  1  0
 28 24  1  0
 29 30  2  0
 30 31  1  0
 32 31  2  0
 33 32  1  0
 34  8  1  0
 34 39  1  0
 34 35  1  0
 35 38  1  1
 35 36  1  0
 37 35  1  0
 39 42  1  0
 40 44  1  0
 40 39  1  0
 41 40  2  0
 44 43  1  0
 46 44  1  0
 46 47  1  0
 46 45  1  0
 49 50  1  0
 49 48  1  0
 51 52  1  0
 51 50  1  0
 52 53  1  0
 53 54  1  0
 55 54  1  0
 55 64  1  0
 56 64  1  0
 57 62  1  0
 58 59  1  0
 58 57  1  0
 60 59  1  0
 60 69  1  0
 60 61  1  0
 62 56  1  0
 62 61  1  0
 63 56  2  0
 64 65  1  0
 66 67  2  0
 67 86  1  0
 68 67  1  0
 68 71  1  0
 69 66  1  0
 69 70  1  0
 70 68  2  0
 71 72  1  0
 72 73  2  0
 74 77  1  0
 74 73  1  0
 75 74  2  0
 76 75  1  0
 76 71  2  0
 77 78  1  0
 78 79  1  0
 79 80  2  0
 81 80  1  0
 81 85  1  0
 82 81  2  0
 83 78  2  0
 83 82  1  0
 84 83  1  0
 86 87  1  0
 87 90  1  0
 87 89  1  0
 88 86  2  0
 91 92  1  0
 91 66  1  0
 93 91  1  0
M  ISO  4   6 101   7 101  56 100  64 100
M  END
>  <TORSDO>  (76) 
F 26

>  <SCORE>  (76) 
-11.892

>  <name>  (76) 
77

>  <ligand_id>  (76) 
77

>  <original_smiles>  (76) 
[H]c1c([H])c([H])c2c(c1[H])C([H])([H])C([H])([H])C([H])([H])C2([H])N([H])C(=O)C1([H])N(C(=O)C([H])(N([H])C(=O)C([H])(N([H])C([H])([H])[H])C([H])([H])[H])C(C([H])([H])[H])(C([H])([H])[H])C([H])([H])[H])C([H])([H])c2c([H])c(OC([H])([H])C(=O)N([H])C([H])([H])C([H])([H])C([H])([H])C([H])([H])C([H])([H])C([H])([H])C([H])([H])C([H])([H])C([H])([H])N([H])C(=O)N3C([H])([H])C([H])([H])C([H])([H])C([H])(n4nc(-c5c([H])c([H])c(Oc6c([H])c([H])c(F)c([H])c6F)c([H])c5[H])c(C(=O)N([H])[H])c4N([H])[H])C3([H])[H])c([H])c([H])c2C1([H])[H]

>  <smiles>  (76) 
[H]c1c([H])c([H])c2c(c1[H])C([H])([H])C([H])([H])C([H])([H])C2([H])N([H])C(=O)C1([H])N(C(=O)C([H])(N([H])C(=O)C([H])(N([H])C([H])([H])[H])C([H])([H])[H])C(C([H])([H])[H])(C([H])([H])[H])C([H])([H])[H])C([H])([H])c2c([H])c(OC([H])([H])C(=O)N([H])C([H])([H])C([H])([H])C([H])([H])C([H])([H])C([H])([H])C([H])([H])C([H])([H])C([H])([H])C([H])([H])N([H])C(=O)N3C([H])([H])C([H])([H])C([H])([H])C([H])(n4nc(-c5c([H])c([H])c(Oc6c([H])c([H])c(F)c([H])c6F)c([H])c5[H])c(C(=O)N([H])[H])c4N([H])[H])C3([H])[H])c([H])c([H])c2C1([H])[H]

$$$$
78:0:0
     RDKit          3D

 94101  0  0  1  0  0  0  0  0999 V2000
  -28.2300  -20.5510   20.6100 C   0  0  0  0  0  2  0  0  0  0  0  0
  -29.0130  -19.4010   19.9070 C   0  0  0  0  0  2  0  0  0  0  0  0
  -29.3780  -18.1360   20.7570 C   0  0  0  0  0  2  0  0  0  0  0  0
  -29.9030  -16.9280   19.9070 C   0  0  0  0  0  0  0  0  0  0  0  0
  -30.7120  -14.5410   20.3660 C   0  0  0  0  0  0  0  0  0  0  0  0
  -30.4040  -12.3590   19.2770 C   0  0  0  0  0  2  0  0  0  0  0  0
  -29.4740  -12.5900   18.0680 C   0  0  0  0  0  2  0  0  0  0  0  0
  -27.9980  -12.4630   18.4940 C   0  0  0  0  0  2  0  0  0  0  0  0
  -27.6670  -13.2960   19.7620 C   0  0  0  0  0  3  0  0  0  0  0  0
  -28.7200  -13.0780   20.8730 C   0  0  0  0  0  2  0  0  0  0  0  0
  -30.0450  -13.3560   20.3000 N   0  0  0  0  0  0  0  0  0  0  0  0
  -31.8780  -14.6480   19.9830 O   0  0  0  0  0  0  0  0  0  0  0  0
  -29.9380  -15.6210   20.6310 N   0  0  0  0  0  4  0  0  0  0  0  0
  -29.0570  -15.3740   21.0540 H   0  0  0  0  0  0  0  0  0  0  0  0
  -25.2730  -13.9210   20.4670 C   0  0  0  0  0  0  0  0  0  0  0  0
  -24.2000  -13.1550   20.8390 C   0  0  0  0  0  0  0  0  0  0  0  0
  -24.6550  -11.8020   20.8200 C   0  0  0  0  0  0  0  0  0  0  0  0
  -26.3130  -13.0330   20.2420 N   0  0  0  0  0  0  0  0  0  0  0  0
  -25.9460  -11.7530   20.5120 N   0  0  0  0  0  0  0  0  0  0  0  0
  -23.9230  -10.5440   21.0190 C   0  0  0  0  0  0  0  0  0  0  0  0
  -24.3590   -9.5750   21.9500 C   0  0  0  0  0  3  0  0  0  0  0  0
  -23.6300   -8.3820   22.1360 C   0  0  0  0  0  3  0  0  0  0  0  0
  -22.4480   -8.1490   21.3920 C   0  0  0  0  0  0  0  0  0  0  0  0
  -22.0300   -9.1060   20.4500 C   0  0  0  0  0  3  0  0  0  0  0  0
  -22.7610  -10.2910   20.2620 C   0  0  0  0  0  3  0  0  0  0  0  0
  -21.6890   -7.0080   21.4880 O   0  0  0  0  0  0  0  0  0  0  0  0
  -21.6560   -6.2600   22.6370 C   0  0  0  0  0  0  0  0  0  0  0  0
  -21.2670   -6.8140   23.8770 C   0  0  0  0  0  3  0  0  0  0  0  0
  -21.1810   -5.9930   25.0180 C   0  0  0  0  0  3  0  0  0  0  0  0
  -21.4730   -4.6190   24.9230 C   0  0  0  0  0  0  0  0  0  0  0  0
  -21.8540   -4.0650   23.6890 C   0  0  0  0  0  3  0  0  0  0  0  0
  -21.9440   -4.8820   22.5490 C   0  0  0  0  0  0  0  0  0  0  0  0
  -22.2910   -4.3390   21.3570 F   0  0  0  0  0  0  0  0  0  0  0  0
  -21.3820   -3.8290   26.0180 F   0  0  0  0  0  0  0  0  0  0  0  0
  -22.8050  -13.6410   21.1060 C   0  0  0  0  0  0  0  0  0  0  0  0
  -22.0730  -12.9550   21.9760 N   0  0  0  0  0  0  0  0  0  0  0  0
  -22.3730  -14.6640   20.5760 O   0  0  0  0  0  0  0  0  0  0  0  0
  -22.4350  -12.1280   22.4260 H   0  0  0  0  0  0  0  0  0  0  0  0
  -21.1350  -13.2620   22.1960 H   0  0  0  0  0  0  0  0  0  0  0  0
  -25.4470  -15.2890   20.2850 N   0  0  0  0  0  0  0  0  0  0  0  0
  -24.6850  -15.9480   20.4090 H   0  0  0  0  0  0  0  0  0  0  0  0
  -26.3000  -15.7280   19.9690 H   0  0  0  0  0  0  0  0  0  0  0  0
  -31.1190  -17.2640   19.0180 C   0  0  0  0  0  0  0  0  0  0  0  0
  -31.0450  -16.9310   17.7350 N   0  0  0  0  0  0  0  0  0  0  0  0
  -32.1090  -17.8220   19.4860 O   0  0  0  0  0  0  0  0  0  0  0  0
  -30.2230  -16.4730   17.3680 H   0  0  0  0  0  0  0  0  0  0  0  0
  -31.8140  -17.1220   17.1100 H   0  0  0  0  0  0  0  0  0  0  0  0
  -29.0440  -21.8070   21.0410 C   0  0  0  0  0  2  0  0  0  0  0  0
  -28.5090  -24.2530   20.6290 C   0  0  0  0  0  0  0  0  0  0  0  0
  -28.8170  -23.0060   20.2010 N   0  0  0  0  0  0  0  0  0  0  0  0
  -28.2320  -24.4880   21.8080 O   0  0  0  0  0  0  0  0  0  0  0  0
  -29.0210  -22.9110   19.2140 H   0  0  0  0  0  0  0  0  0  0  0  0
  -28.5630  -25.4090   19.5960 C   0  0  0  0  0  2  0  0  0  0  0  0
  -28.4310  -26.7200   20.2040 O   0  0  0  0  0  0  0  0  0  0  0  0
  -24.5950  -31.9010   23.2630 C   0  0  0  0  0  0  0  0  0  0  0  0
  -27.2340  -27.4220   20.1880 C   0  0  0  0  0  0  0  0  0  0  0  0
  -23.3880  -30.4960   21.6250 C   0  0  0  0  0  3  0  0  0  0  0  0
  -24.8380  -28.9520   20.2040 C   0  0  0  0  0  0  0  0  0  0  0  0
  -25.9160  -30.8460   21.4280 C   0  0  0  0  0  2  0  0  0  0  0  0
  -25.9990  -29.4710   20.7890 C   0  0  0  0  0  0  0  0  0  0  0  0
  -27.1950  -28.7130   20.7750 C   0  0  0  0  0  3  0  0  0  0  0  0
  -26.0420  -26.9190   19.6140 C   0  0  0  0  0  3  0  0  0  0  0  0
  -24.8550  -27.6760   19.6170 C   0  0  0  0  0  3  0  0  0  0  0  0
  -23.5960  -29.8140   20.2470 C   0  0  0  0  0  2  0  0  0  0  0  0
  -24.6510  -31.0970   22.1620 N   0  0  0  0  0  0  0  0  0  0  0  0
  -23.5130  -32.1740   23.8010 O   0  0  0  0  0  0  0  0  0  0  0  0
  -22.7370  -29.4780   22.5870 C   0  0  0  0  0  0  0  0  0  0  0  0
  -21.4130  -29.2940   22.4600 N   0  0  0  0  0  0  0  0  0  0  0  0
  -23.4190  -28.8540   23.4050 O   0  0  0  0  0  0  0  0  0  0  0  0
  -20.9230  -29.8480   21.7710 H   0  0  0  0  0  0  0  0  0  0  0  0
  -18.0390  -28.0930   22.9520 C   0  0  0  0  0  0  0  0  0  0  0  0
  -20.5960  -28.3580   23.2320 C   0  0  0  0  0  3  0  0  0  0  0  0
  -20.7020  -26.9240   22.6620 C   0  0  0  0  0  2  0  0  0  0  0  0
  -19.6040  -26.5950   21.6450 C   0  0  0  0  0  2  0  0  0  0  0  0
  -18.2200  -26.7410   22.2840 C   0  0  0  0  0  2  0  0  0  0  0  0
  -19.1550  -28.8580   23.3830 C   0  0  0  0  0  0  0  0  0  0  0  0
  -18.9320  -30.1250   23.9670 C   0  0  0  0  0  3  0  0  0  0  0  0
  -17.6260  -30.6250   24.1250 C   0  0  0  0  0  3  0  0  0  0  0  0
  -16.5250  -29.8570   23.7110 C   0  0  0  0  0  3  0  0  0  0  0  0
  -16.7320  -28.5930   23.1310 C   0  0  0  0  0  3  0  0  0  0  0  0
  -25.8810  -32.5340   23.8800 C   0  0  0  0  0  3  0  0  0  0  0  0
  -25.5740  -33.9340   24.2030 N   0  0  0  0  0  0  0  0  0  0  0  0
  -25.9090  -34.9810   23.4380 C   0  0  0  0  0  0  0  0  0  0  0  0
  -26.5820  -34.8710   22.4080 O   0  0  0  0  0  0  0  0  0  0  0  0
  -24.9770  -34.0940   25.0010 H   0  0  0  0  0  0  0  0  0  0  0  0
  -24.1840  -36.7730   23.0670 C   0  0  0  0  0  1  0  0  0  0  0  0
  -25.4220  -36.3730   23.8850 C   0  0  0  0  0  3  0  0  0  0  0  0
  -27.5570  -37.2580   24.7150 C   0  0  0  0  0  1  0  0  0  0  0  0
  -26.4570  -37.4240   23.7690 N   0  0  0  0  0  0  0  0  0  0  0  0
  -26.0530  -38.3450   23.9110 H   0  0  0  0  0  0  0  0  0  0  0  0
  -26.3980  -31.7670   25.1600 C   0  0  1  0  0  0  0  0  0  0  0  0
  -25.3050  -31.5370   26.2290 C   0  0  0  0  0  1  0  0  0  0  0  0
  -26.9780  -30.3880   24.7720 C   0  0  0  0  0  1  0  0  0  0  0  0
  -27.5500  -32.5640   25.8180 C   0  0  0  0  0  1  0  0  0  0  0  0
  1 48  1  0
  2  1  1  0
  2  3  1  0
  4 13  2  0
  4  3  1  0
  5 13  1  0
  6 11  1  0
  7  8  1  0
  7  6  1  0
  9  8  1  0
  9 18  1  0
  9 10  1  0
 11  5  1  0
 11 10  1  0
 12  5  2  0
 13 14  1  0
 15 16  2  0
 16 35  1  0
 17 16  1  0
 17 20  1  0
 18 15  1  0
 18 19  1  0
 19 17  2  0
 20 21  1  0
 21 22  2  0
 23 26  1  0
 23 22  1  0
 24 23  2  0
 25 24  1  0
 25 20  2  0
 26 27  1  0
 27 28  1  0
 28 29  2  0
 30 29  1  0
 30 34  1  0
 31 30  2  0
 32 27  2  0
 32 31  1  0
 33 32  1  0
 35 36  1  0
 36 39  1  0
 36 38  1  0
 37 35  2  0
 40 41  1  0
 40 15  1  0
 42 40  1  0
 43 45  2  0
 43  4  1  0
 44 43  1  0
 46 44  1  0
 47 44  1  0
 49 51  2  0
 50 49  1  0
 50 48  1  0
 52 50  1  0
 53 54  1  0
 53 49  1  0
 55 66  2  0
 56 54  1  0
 56 61  1  0
 57 65  1  0
 57 67  1  0
 58 64  1  0
 58 60  1  0
 59 65  1  0
 60 59  1  0
 61 60  2  0
 62 63  1  0
 62 56  2  0
 63 58  2  0
 64 57  1  0
 65 55  1  0
 67 69  2  0
 68 67  1  0
 70 68  1  0
 71 80  2  0
 71 76  1  0
 72 68  1  0
 72 76  1  0
 73 72  1  0
 74 75  1  0
 74 73  1  0
 75 71  1  0
 76 77  2  0
 77 78  1  0
 79 78  2  0
 80 79  1  0
 81 55  1  0
 81 82  1  0
 81 91  1  0
 82 85  1  0
 83 87  1  0
 83 82  1  0
 84 83  2  0
 87 86  1  0
 89 87  1  0
 89 90  1  0
 89 88  1  0
 91 94  1  1
 91 92  1  0
 93 91  1  0
M  ISO  4   5 100  13 100  53 101  54 101
M  END
>  <TORSDO>  (77) 
F 23

>  <SCORE>  (77) 
-12.993

>  <name>  (77) 
78

>  <ligand_id>  (77) 
78

>  <original_smiles>  (77) 
[H]c1c([H])c([H])c2c(c1[H])C([H])([H])C([H])([H])C([H])([H])C2([H])N([H])C(=O)C1([H])N(C(=O)C([H])(N([H])C(=O)C([H])(N([H])C([H])([H])[H])C([H])([H])[H])C(C([H])([H])[H])(C([H])([H])[H])C([H])([H])[H])C([H])([H])c2c([H])c(OC([H])([H])C(=O)N([H])C([H])([H])C([H])([H])C([H])([H])C([H])([H])C([H])(C(=O)N([H])[H])N([H])C(=O)N3C([H])([H])C([H])([H])C([H])([H])C([H])(n4nc(-c5c([H])c([H])c(Oc6c([H])c([H])c(F)c([H])c6F)c([H])c5[H])c(C(=O)N([H])[H])c4N([H])[H])C3([H])[H])c([H])c([H])c2C1([H])[H]

>  <smiles>  (77) 
[H]c1c([H])c([H])c2c(c1[H])C([H])([H])C([H])([H])C([H])([H])C2([H])N([H])C(=O)C1([H])N(C(=O)C([H])(N([H])C(=O)C([H])(N([H])C([H])([H])[H])C([H])([H])[H])C(C([H])([H])[H])(C([H])([H])[H])C([H])([H])[H])C([H])([H])c2c([H])c(OC([H])([H])C(=O)N([H])C([H])([H])C([H])([H])C([H])([H])C([H])([H])C([H])(C(=O)N([H])[H])N([H])C(=O)N3C([H])([H])C([H])([H])C([H])([H])C([H])(n4nc(-c5c([H])c([H])c(Oc6c([H])c([H])c(F)c([H])c6F)c([H])c5[H])c(C(=O)N([H])[H])c4N([H])[H])C3([H])[H])c([H])c([H])c2C1([H])[H]

$$$$
79:0:0
     RDKit          3D

 95102  0  0  1  0  0  0  0  0999 V2000
  -29.9000  -21.0520   21.1520 C   0  0  0  0  0  2  0  0  0  0  0  0
  -30.5080  -19.6930   20.6610 C   0  0  0  0  0  2  0  0  0  0  0  0
  -30.4130  -18.4110   21.5680 C   0  0  0  0  0  2  0  0  0  0  0  0
  -30.0280  -17.1330   20.7450 C   0  0  0  0  0  3  0  0  0  0  0  0
  -30.8860  -14.7940   21.2620 C   0  0  0  0  0  0  0  0  0  0  0  0
  -30.8150  -12.5180   20.3100 C   0  0  0  0  0  2  0  0  0  0  0  0
  -30.0330  -12.5770   18.9790 C   0  0  0  0  0  2  0  0  0  0  0  0
  -28.5170  -12.4400   19.2200 C   0  0  0  0  0  2  0  0  0  0  0  0
  -27.9990  -13.3670   20.3520 C   0  0  0  0  0  3  0  0  0  0  0  0
  -28.9030  -13.2690   21.6030 C   0  0  0  0  0  2  0  0  0  0  0  0
  -30.2860  -13.5720   21.1930 N   0  0  0  0  0  0  0  0  0  0  0  0
  -32.0660  -14.9760   20.9460 O   0  0  0  0  0  0  0  0  0  0  0  0
  -30.0390  -15.8320   21.4760 N   0  0  0  0  0  0  0  0  0  0  0  0
  -29.1310  -15.5260   21.7950 H   0  0  0  0  0  0  0  0  0  0  0  0
  -25.5330  -13.9840   20.7730 C   0  0  0  0  0  0  0  0  0  0  0  0
  -24.4290  -13.2170   21.0270 C   0  0  0  0  0  0  0  0  0  0  0  0
  -24.8890  -11.8660   21.0600 C   0  0  0  0  0  0  0  0  0  0  0  0
  -26.5970  -13.1010   20.6720 N   0  0  0  0  0  0  0  0  0  0  0  0
  -26.2060  -11.8230   20.9020 N   0  0  0  0  0  0  0  0  0  0  0  0
  -24.1460  -10.6070   21.1740 C   0  0  0  0  0  0  0  0  0  0  0  0
  -24.4880   -9.6340   22.1380 C   0  0  0  0  0  3  0  0  0  0  0  0
  -23.7470   -8.4360   22.2390 C   0  0  0  0  0  3  0  0  0  0  0  0
  -22.6510   -8.2050   21.3730 C   0  0  0  0  0  0  0  0  0  0  0  0
  -22.3310   -9.1670   20.3990 C   0  0  0  0  0  3  0  0  0  0  0  0
  -23.0720  -10.3550   20.2960 C   0  0  0  0  0  3  0  0  0  0  0  0
  -21.8890   -7.0620   21.3840 O   0  0  0  0  0  0  0  0  0  0  0  0
  -21.7460   -6.3050   22.5180 C   0  0  0  0  0  0  0  0  0  0  0  0
  -21.2100   -6.8400   23.7110 C   0  0  0  0  0  3  0  0  0  0  0  0
  -21.0160   -6.0080   24.8320 C   0  0  0  0  0  3  0  0  0  0  0  0
  -21.3450   -4.6410   24.7600 C   0  0  0  0  0  0  0  0  0  0  0  0
  -21.8720   -4.1050   23.5710 C   0  0  0  0  0  3  0  0  0  0  0  0
  -22.0680   -4.9350   22.4540 C   0  0  0  0  0  0  0  0  0  0  0  0
  -22.5570   -4.4070   21.3060 F   0  0  0  0  0  0  0  0  0  0  0  0
  -21.1490   -3.8410   25.8350 F   0  0  0  0  0  0  0  0  0  0  0  0
  -23.0100  -13.7000   21.1310 C   0  0  0  0  0  0  0  0  0  0  0  0
  -22.1850  -13.0140   21.9160 N   0  0  0  0  0  0  0  0  0  0  0  0
  -22.6360  -14.7190   20.5530 O   0  0  0  0  0  0  0  0  0  0  0  0
  -22.4950  -12.1890   22.4070 H   0  0  0  0  0  0  0  0  0  0  0  0
  -21.2290  -13.3210   22.0270 H   0  0  0  0  0  0  0  0  0  0  0  0
  -25.7090  -15.3510   20.6020 N   0  0  0  0  0  0  0  0  0  0  0  0
  -24.9360  -16.0060   20.6210 H   0  0  0  0  0  0  0  0  0  0  0  0
  -26.5800  -15.7790   20.3230 H   0  0  0  0  0  0  0  0  0  0  0  0
  -28.6060  -17.3520   20.1470 C   0  0  0  0  0  2  0  0  0  0  0  0
  -28.4600  -17.0450   18.6480 C   0  0  0  0  0  0  0  0  0  0  0  0
  -27.5660  -17.7430   17.9590 N   0  0  0  0  0  0  0  0  0  0  0  0
  -29.1370  -16.1780   18.1040 O   0  0  0  0  0  0  0  0  0  0  0  0
  -27.0200  -18.4660   18.4060 H   0  0  0  0  0  0  0  0  0  0  0  0
  -27.4190  -17.5610   16.9760 H   0  0  0  0  0  0  0  0  0  0  0  0
  -29.6160  -22.0150   19.9510 C   0  0  0  0  0  2  0  0  0  0  0  0
  -28.4220  -24.2370   19.9050 C   0  0  0  0  0  0  0  0  0  0  0  0
  -29.4950  -23.4710   20.2100 N   0  0  0  0  0  0  0  0  0  0  0  0
  -27.2740  -23.7870   19.9580 O   0  0  0  0  0  0  0  0  0  0  0  0
  -30.3730  -23.9780   20.2120 H   0  0  0  0  0  0  0  0  0  0  0  0
  -28.6780  -25.6580   19.3180 C   0  0  0  0  0  2  0  0  0  0  0  0
  -28.3840  -26.7570   20.2050 O   0  0  0  0  0  0  0  0  0  0  0  0
  -24.5660  -31.9230   23.2270 C   0  0  0  0  0  0  0  0  0  0  0  0
  -27.2020  -27.4790   20.1240 C   0  0  0  0  0  0  0  0  0  0  0  0
  -23.3480  -30.5220   21.5880 C   0  0  0  0  0  3  0  0  0  0  0  0
  -24.7970  -28.9910   20.1400 C   0  0  0  0  0  0  0  0  0  0  0  0
  -25.8700  -30.8840   21.3720 C   0  0  0  0  0  2  0  0  0  0  0  0
  -25.9520  -29.5110   20.7340 C   0  0  0  0  0  0  0  0  0  0  0  0
  -27.1480  -28.7550   20.7340 C   0  0  0  0  0  3  0  0  0  0  0  0
  -26.0270  -26.9800   19.5100 C   0  0  0  0  0  3  0  0  0  0  0  0
  -24.8300  -27.7250   19.5270 C   0  0  0  0  0  3  0  0  0  0  0  0
  -23.5470  -29.8410   20.2040 C   0  0  0  0  0  2  0  0  0  0  0  0
  -24.6140  -31.1270   22.1210 N   0  0  0  0  0  0  0  0  0  0  0  0
  -23.4920  -32.1910   23.7820 O   0  0  0  0  0  0  0  0  0  0  0  0
  -22.7080  -29.5000   22.5560 C   0  0  0  0  0  0  0  0  0  0  0  0
  -21.3830  -29.3130   22.4390 N   0  0  0  0  0  0  0  0  0  0  0  0
  -23.4010  -28.8770   23.3630 O   0  0  0  0  0  0  0  0  0  0  0  0
  -20.8840  -29.8650   21.7560 H   0  0  0  0  0  0  0  0  0  0  0  0
  -18.0230  -28.0920   22.9560 C   0  0  0  0  0  0  0  0  0  0  0  0
  -20.5810  -28.3680   23.2150 C   0  0  0  0  0  3  0  0  0  0  0  0
  -20.6900  -26.9380   22.6370 C   0  0  0  0  0  2  0  0  0  0  0  0
  -19.5870  -26.6090   21.6270 C   0  0  0  0  0  2  0  0  0  0  0  0
  -18.2060  -26.7450   22.2780 C   0  0  0  0  0  2  0  0  0  0  0  0
  -19.1390  -28.8620   23.3820 C   0  0  0  0  0  0  0  0  0  0  0  0
  -18.9150  -30.1240   23.9740 C   0  0  0  0  0  3  0  0  0  0  0  0
  -17.6080  -30.6180   24.1450 C   0  0  0  0  0  3  0  0  0  0  0  0
  -16.5070  -29.8450   23.7370 C   0  0  0  0  0  3  0  0  0  0  0  0
  -16.7150  -28.5840   23.1490 C   0  0  0  0  0  3  0  0  0  0  0  0
  -25.8590  -32.5550   23.8350 C   0  0  0  0  0  3  0  0  0  0  0  0
  -25.5520  -33.9510   24.1740 N   0  0  0  0  0  0  0  0  0  0  0  0
  -25.8850  -35.0090   23.4230 C   0  0  0  0  0  0  0  0  0  0  0  0
  -26.5550  -34.9130   22.3910 O   0  0  0  0  0  0  0  0  0  0  0  0
  -24.9560  -34.1000   24.9760 H   0  0  0  0  0  0  0  0  0  0  0  0
  -24.1600  -36.8050   23.0780 C   0  0  0  0  0  1  0  0  0  0  0  0
  -25.3970  -36.3930   23.8900 C   0  0  0  0  0  3  0  0  0  0  0  0
  -27.5290  -37.2710   24.7350 C   0  0  0  0  0  1  0  0  0  0  0  0
  -26.4310  -37.4460   23.7890 N   0  0  0  0  0  0  0  0  0  0  0  0
  -26.0250  -38.3650   23.9430 H   0  0  0  0  0  0  0  0  0  0  0  0
  -26.3990  -31.7790   25.0990 C   0  0  1  0  0  0  0  0  0  0  0  0
  -25.3230  -31.5320   26.1810 C   0  0  0  0  0  1  0  0  0  0  0  0
  -26.9810  -30.4050   24.6920 C   0  0  0  0  0  1  0  0  0  0  0  0
  -27.5570  -32.5740   25.7490 C   0  0  0  0  0  1  0  0  0  0  0  0
  2  1  1  0
  2  3  1  0
  4 43  1  0
  4 13  1  0
  4  3  1  0
  5 13  1  0
  6 11  1  0
  7  8  1  0
  7  6  1  0
  9  8  1  0
  9 18  1  0
  9 10  1  0
 11  5  1  0
 11 10  1  0
 12  5  2  0
 13 14  1  0
 15 16  2  0
 16 17  1  0
 16 35  1  0
 17 20  1  0
 18 15  1  0
 18 19  1  0
 19 17  2  0
 20 21  1  0
 21 22  2  0
 23 26  1  0
 23 22  1  0
 24 23  2  0
 25 24  1  0
 25 20  2  0
 26 27  1  0
 27 28  1  0
 28 29  2  0
 30 29  1  0
 30 34  1  0
 31 30  2  0
 32 27  2  0
 32 31  1  0
 33 32  1  0
 35 36  1  0
 36 39  1  0
 36 38  1  0
 37 35  2  0
 40 41  1  0
 40 15  1  0
 42 40  1  0
 44 43  1  0
 45 47  1  0
 45 44  1  0
 46 44  2  0
 48 45  1  0
 49 51  1  0
 49  1  1  0
 50 52  2  0
 50 51  1  0
 51 53  1  0
 54 50  1  0
 54 55  1  0
 56 67  2  0
 57 55  1  0
 57 62  1  0
 58 66  1  0
 58 68  1  0
 59 65  1  0
 59 61  1  0
 60 66  1  0
 61 62  2  0
 61 60  1  0
 63 64  1  0
 63 57  2  0
 64 59  2  0
 65 58  1  0
 66 56  1  0
 68 70  2  0
 69 68  1  0
 71 69  1  0
 72 81  2  0
 72 77  1  0
 73 69  1  0
 73 77  1  0
 74 73  1  0
 75 76  1  0
 75 74  1  0
 76 72  1  0
 77 78  2  0
 78 79  1  0
 80 79  2  0
 81 80  1  0
 82 56  1  0
 82 83  1  0
 82 92  1  0
 83 86  1  0
 84 88  1  0
 84 83  1  0
 85 84  2  0
 88 87  1  0
 90 88  1  0
 90 91  1  0
 90 89  1  0
 92 95  1  1
 92 93  1  0
 94 92  1  0
M  ISO  4   5 100  13 100  54 101  55 101
M  END
>  <TORSDO>  (78) 
F 24

>  <SCORE>  (78) 
-11.374

>  <name>  (78) 
79

>  <ligand_id>  (78) 
79

>  <original_smiles>  (78) 
[H]c1c([H])c([H])c2c(c1[H])C([H])([H])C([H])([H])C([H])([H])C2([H])N([H])C(=O)C1([H])N(C(=O)C([H])(N([H])C(=O)C([H])(N([H])C([H])([H])[H])C([H])([H])[H])C(C([H])([H])[H])(C([H])([H])[H])C([H])([H])[H])C([H])([H])c2c([H])c(OC([H])([H])C(=O)N([H])C([H])([H])C([H])([H])C([H])([H])C([H])([H])C([H])(N([H])C(=O)N3C([H])([H])C([H])([H])C([H])([H])C([H])(n4nc(-c5c([H])c([H])c(Oc6c([H])c([H])c(F)c([H])c6F)c([H])c5[H])c(C(=O)N([H])[H])c4N([H])[H])C3([H])[H])C([H])([H])C(=O)N([H])[H])c([H])c([H])c2C1([H])[H]

>  <smiles>  (78) 
[H]c1c([H])c([H])c2c(c1[H])C([H])([H])C([H])([H])C([H])([H])C2([H])N([H])C(=O)C1([H])N(C(=O)C([H])(N([H])C(=O)C([H])(N([H])C([H])([H])[H])C([H])([H])[H])C(C([H])([H])[H])(C([H])([H])[H])C([H])([H])[H])C([H])([H])c2c([H])c(OC([H])([H])C(=O)N([H])C([H])([H])C([H])([H])C([H])([H])C([H])([H])C([H])(N([H])C(=O)N3C([H])([H])C([H])([H])C([H])([H])C([H])(n4nc(-c5c([H])c([H])c(Oc6c([H])c([H])c(F)c([H])c6F)c([H])c5[H])c(C(=O)N([H])[H])c4N([H])[H])C3([H])[H])C([H])([H])C(=O)N([H])[H])c([H])c([H])c2C1([H])[H]

$$$$
80:0:0
     RDKit          3D

 98107  0  0  1  0  0  0  0  0999 V2000
  -30.3120  -21.6680   22.6160 C   0  0  0  0  0  3  0  0  0  0  0  0
  -32.2130  -22.2990   21.2310 C   0  0  0  0  0  3  0  0  0  0  0  0
  -30.5710  -20.3070   22.3550 C   0  0  0  0  0  3  0  0  0  0  0  0
  -32.4690  -20.9420   20.9610 C   0  0  0  0  0  3  0  0  0  0  0  0
  -31.1180  -22.6710   22.0370 C   0  0  0  0  0  0  0  0  0  0  0  0
  -31.6360  -19.9370   21.4970 C   0  0  0  0  0  0  0  0  0  0  0  0
  -30.9850  -17.5850   21.1550 C   0  0  0  0  0  0  0  0  0  0  0  0
  -31.8380  -18.6110   21.0250 N   0  0  0  0  0  0  0  0  0  0  0  0
  -30.5540  -17.1880   22.2430 O   0  0  0  0  0  0  0  0  0  0  0  0
  -32.3910  -18.5700   20.1800 H   0  0  0  0  0  0  0  0  0  0  0  0
  -30.3570  -14.4570   20.0660 C   0  0  0  0  0  0  0  0  0  0  0  0
  -29.9630  -12.2580   19.0380 C   0  0  0  0  0  2  0  0  0  0  0  0
  -28.9470  -12.3520   17.8860 C   0  0  0  0  0  2  0  0  0  0  0  0
  -27.5170  -12.1360   18.4180 C   0  0  0  0  0  2  0  0  0  0  0  0
  -27.2030  -13.0010   19.6610 C   0  0  0  0  0  3  0  0  0  0  0  0
  -28.3570  -12.9940   20.7000 C   0  0  0  0  0  2  0  0  0  0  0  0
  -29.6060  -13.3170   19.9970 N   0  0  0  0  0  0  0  0  0  0  0  0
  -31.5650  -14.4250   19.8450 O   0  0  0  0  0  0  0  0  0  0  0  0
  -28.2520  -17.5430   19.6670 C   0  0  0  0  0  2  0  0  0  0  0  0
  -29.6080  -17.8870   19.0920 C   0  0  0  0  0  2  0  0  0  0  0  0
  -28.3500  -16.0290   19.8080 C   0  0  0  0  0  2  0  0  0  0  0  0
  -30.5610  -16.9240   19.8290 C   0  0  0  0  0  3  0  0  0  0  0  0
  -29.7620  -15.6860   20.0100 N   0  0  0  0  0  0  0  0  0  0  0  0
  -24.8610  -13.5610   20.5380 C   0  0  0  0  0  0  0  0  0  0  0  0
  -23.8390  -12.7610   20.9690 C   0  0  0  0  0  0  0  0  0  0  0  0
  -24.3390  -11.4250   20.9150 C   0  0  0  0  0  0  0  0  0  0  0  0
  -25.9110  -12.7010   20.2480 N   0  0  0  0  0  0  0  0  0  0  0  0
  -25.6090  -11.4150   20.5410 N   0  0  0  0  0  0  0  0  0  0  0  0
  -23.6680  -10.1440   21.1420 C   0  0  0  0  0  0  0  0  0  0  0  0
  -24.1780   -9.2020   22.0620 C   0  0  0  0  0  3  0  0  0  0  0  0
  -23.5060   -7.9800   22.2760 C   0  0  0  0  0  3  0  0  0  0  0  0
  -22.3140   -7.6940   21.5700 C   0  0  0  0  0  0  0  0  0  0  0  0
  -21.8260   -8.6260   20.6380 C   0  0  0  0  0  3  0  0  0  0  0  0
  -22.4980   -9.8390   20.4210 C   0  0  0  0  0  3  0  0  0  0  0  0
  -21.6050   -6.5240   21.6960 O   0  0  0  0  0  0  0  0  0  0  0  0
  -21.6270   -5.7940   22.8570 C   0  0  0  0  0  0  0  0  0  0  0  0
  -21.2150   -6.3430   24.0910 C   0  0  0  0  0  3  0  0  0  0  0  0
  -21.1870   -5.5370   25.2450 C   0  0  0  0  0  3  0  0  0  0  0  0
  -21.5610   -4.1830   25.1680 C   0  0  0  0  0  0  0  0  0  0  0  0
  -21.9670   -3.6320   23.9400 C   0  0  0  0  0  3  0  0  0  0  0  0
  -21.9980   -4.4350   22.7870 C   0  0  0  0  0  0  0  0  0  0  0  0
  -22.3710   -3.8960   21.6010 F   0  0  0  0  0  0  0  0  0  0  0  0
  -21.5270   -3.4060   26.2770 F   0  0  0  0  0  0  0  0  0  0  0  0
  -22.4460  -13.1990   21.3160 C   0  0  0  0  0  0  0  0  0  0  0  0
  -21.7920  -12.4800   22.2220 N   0  0  0  0  0  0  0  0  0  0  0  0
  -21.9490  -14.2100   20.8230 O   0  0  0  0  0  0  0  0  0  0  0  0
  -22.2080  -11.6590   22.6340 H   0  0  0  0  0  0  0  0  0  0  0  0
  -20.8630  -12.7550   22.5080 H   0  0  0  0  0  0  0  0  0  0  0  0
  -24.9700  -14.9350   20.3410 N   0  0  0  0  0  0  0  0  0  0  0  0
  -24.1880  -15.5660   20.4820 H   0  0  0  0  0  0  0  0  0  0  0  0
  -25.7770  -15.3950   19.9420 H   0  0  0  0  0  0  0  0  0  0  0  0
  -30.7950  -24.1450   22.2480 C   0  0  0  0  0  2  0  0  0  0  0  0
  -29.3630  -24.7290   20.2910 C   0  0  0  0  0  0  0  0  0  0  0  0
  -29.5510  -24.5600   21.6060 N   0  0  0  0  0  0  0  0  0  0  0  0
  -30.2420  -24.5080   19.4530 O   0  0  0  0  0  0  0  0  0  0  0  0
  -28.7820  -24.8010   22.2170 H   0  0  0  0  0  0  0  0  0  0  0  0
  -27.9940  -25.2630   19.8510 C   0  0  0  0  0  2  0  0  0  0  0  0
  -28.0400  -26.6850   19.9090 O   0  0  0  0  0  0  0  0  0  0  0  0
  -24.4330  -31.8190   23.1790 C   0  0  0  0  0  0  0  0  0  0  0  0
  -26.8520  -27.3760   19.9470 C   0  0  0  0  0  0  0  0  0  0  0  0
  -23.1250  -30.4640   21.5720 C   0  0  0  0  0  3  0  0  0  0  0  0
  -24.4820  -28.9100   20.0740 C   0  0  0  0  0  0  0  0  0  0  0  0
  -25.6440  -30.7770   21.2700 C   0  0  0  0  0  2  0  0  0  0  0  0
  -25.6710  -29.4120   20.6140 C   0  0  0  0  0  0  0  0  0  0  0  0
  -26.8570  -28.6540   20.5440 C   0  0  0  0  0  3  0  0  0  0  0  0
  -25.6440  -26.8760   19.4070 C   0  0  0  0  0  3  0  0  0  0  0  0
  -24.4630  -27.6400   19.4680 C   0  0  0  0  0  3  0  0  0  0  0  0
  -23.2590  -29.7920   20.1790 C   0  0  0  0  0  2  0  0  0  0  0  0
  -24.4220  -31.0330   22.0650 N   0  0  0  0  0  0  0  0  0  0  0  0
  -23.3820  -32.1110   23.7670 O   0  0  0  0  0  0  0  0  0  0  0  0
  -22.4920  -29.4480   22.5490 C   0  0  0  0  0  0  0  0  0  0  0  0
  -21.1640  -29.2730   22.4480 N   0  0  0  0  0  0  0  0  0  0  0  0
  -23.1890  -28.8220   23.3510 O   0  0  0  0  0  0  0  0  0  0  0  0
  -20.6650  -29.8290   21.7670 H   0  0  0  0  0  0  0  0  0  0  0  0
  -17.8010  -28.0660   22.9740 C   0  0  0  0  0  0  0  0  0  0  0  0
  -20.3570  -28.3420   23.2340 C   0  0  0  0  0  3  0  0  0  0  0  0
  -20.4670  -26.9040   22.6770 C   0  0  0  0  0  2  0  0  0  0  0  0
  -19.3630  -26.5610   21.6720 C   0  0  0  0  0  2  0  0  0  0  0  0
  -17.9820  -26.7090   22.3180 C   0  0  0  0  0  2  0  0  0  0  0  0
  -18.9160  -28.8410   23.3890 C   0  0  0  0  0  0  0  0  0  0  0  0
  -18.6930  -30.1130   23.9600 C   0  0  0  0  0  3  0  0  0  0  0  0
  -17.3870  -30.6110   24.1210 C   0  0  0  0  0  3  0  0  0  0  0  0
  -16.2850  -29.8320   23.7240 C   0  0  0  0  0  3  0  0  0  0  0  0
  -16.4920  -28.5630   23.1560 C   0  0  0  0  0  3  0  0  0  0  0  0
  -25.7600  -32.4110   23.7510 C   0  0  0  0  0  3  0  0  0  0  0  0
  -26.3210  -31.6000   24.9840 C   0  0  1  0  0  0  0  0  0  0  0  0
  -25.2750  -31.3580   26.0970 C   0  0  0  0  0  1  0  0  0  0  0  0
  -26.8550  -30.2210   24.5310 C   0  0  0  0  0  1  0  0  0  0  0  0
  -27.5170  -32.3560   25.6080 C   0  0  0  0  0  1  0  0  0  0  0  0
  -25.4980  -33.8070   24.1210 N   0  0  0  0  0  0  0  0  0  0  0  0
  -25.8400  -34.8660   23.3770 C   0  0  0  0  0  0  0  0  0  0  0  0
  -26.4810  -34.7690   22.3260 O   0  0  0  0  0  0  0  0  0  0  0  0
  -24.9300  -33.9590   24.9420 H   0  0  0  0  0  0  0  0  0  0  0  0
  -24.1540  -36.7110   23.0990 C   0  0  0  0  0  1  0  0  0  0  0  0
  -25.4000  -36.2560   23.8750 C   0  0  0  0  0  3  0  0  0  0  0  0
  -27.5740  -37.0630   24.6840 C   0  0  0  0  0  1  0  0  0  0  0  0
  -26.4590  -37.2830   23.7670 N   0  0  0  0  0  0  0  0  0  0  0  0
  -26.0810  -38.2100   23.9440 H   0  0  0  0  0  0  0  0  0  0  0  0
  2  5  1  0
  3  1  1  0
  4  2  2  0
  4  6  1  0
  5 52  1  0
  5  1  2  0
  6  3  2  0
  7  9  2  0
  8  7  1  0
  8  6  1  0
 10  8  1  0
 12 17  1  0
 13 14  1  0
 13 12  1  0
 15 14  1  0
 15 27  1  0
 15 16  1  0
 17 11  1  0
 17 16  1  0
 18 11  2  0
 19 21  1  0
 20 19  1  0
 20 22  1  0
 21 23  1  0
 22 23  1  0
 22  7  1  0
 23 11  1  0
 24 25  2  0
 25 44  1  0
 26 25  1  0
 26 29  1  0
 27 24  1  0
 27 28  1  0
 28 26  2  0
 29 30  1  0
 30 31  2  0
 32 35  1  0
 32 31  1  0
 33 32  2  0
 34 33  1  0
 34 29  2  0
 35 36  1  0
 36 37  1  0
 37 38  2  0
 39 38  1  0
 39 43  1  0
 40 39  2  0
 41 36  2  0
 41 40  1  0
 42 41  1  0
 44 45  1  0
 45 48  1  0
 45 47  1  0
 46 44  2  0
 49 50  1  0
 49 24  1  0
 51 49  1  0
 53 54  1  0
 54 56  1  0
 54 52  1  0
 55 53  2  0
 57 58  1  0
 57 53  1  0
 58 60  1  0
 59 70  2  0
 60 65  1  0
 61 69  1  0
 61 71  1  0
 62 68  1  0
 62 64  1  0
 63 69  1  0
 64 63  1  0
 65 64  2  0
 66 67  1  0
 66 60  2  0
 67 62  2  0
 68 61  1  0
 69 59  1  0
 71 73  2  0
 72 71  1  0
 74 72  1  0
 75 84  2  0
 75 80  1  0
 76 72  1  0
 76 80  1  0
 77 76  1  0
 78 79  1  0
 78 77  1  0
 79 75  1  0
 80 81  2  0
 81 82  1  0
 83 82  2  0
 84 83  1  0
 85 59  1  0
 85 90  1  0
 85 86  1  0
 86 89  1  1
 86 87  1  0
 88 86  1  0
 90 93  1  0
 91 95  1  0
 91 90  1  0
 92 91  2  0
 95 94  1  0
 97 95  1  0
 97 98  1  0
 97 96  1  0
M  ISO  4  11 100  23 100  57 101  58 101
M  END
>  <TORSDO>  (79) 
F 20

>  <SCORE>  (79) 
-12.713

>  <name>  (79) 
80

>  <ligand_id>  (79) 
80

>  <original_smiles>  (79) 
[H]c1c([H])c([H])c2c(c1[H])C([H])([H])C([H])([H])C([H])([H])C2([H])N([H])C(=O)C1([H])N(C(=O)C([H])(N([H])C(=O)C([H])(N([H])C([H])([H])[H])C([H])([H])[H])C(C([H])([H])[H])(C([H])([H])[H])C([H])([H])[H])C([H])([H])c2c([H])c(OC([H])([H])C(=O)N([H])C([H])([H])c3c([H])c([H])c(N([H])C(=O)C4([H])N(C(=O)N5C([H])([H])C([H])([H])C([H])([H])C([H])(n6nc(-c7c([H])c([H])c(Oc8c([H])c([H])c(F)c([H])c8F)c([H])c7[H])c(C(=O)N([H])[H])c6N([H])[H])C5([H])[H])C([H])([H])C([H])([H])C4([H])[H])c([H])c3[H])c([H])c([H])c2C1([H])[H]

>  <smiles>  (79) 
[H]c1c([H])c([H])c2c(c1[H])C([H])([H])C([H])([H])C([H])([H])C2([H])N([H])C(=O)C1([H])N(C(=O)C([H])(N([H])C(=O)C([H])(N([H])C([H])([H])[H])C([H])([H])[H])C(C([H])([H])[H])(C([H])([H])[H])C([H])([H])[H])C([H])([H])c2c([H])c(OC([H])([H])C(=O)N([H])C([H])([H])c3c([H])c([H])c(N([H])C(=O)C4([H])N(C(=O)N5C([H])([H])C([H])([H])C([H])([H])C([H])(n6nc(-c7c([H])c([H])c(Oc8c([H])c([H])c(F)c([H])c8F)c([H])c7[H])c(C(=O)N([H])[H])c6N([H])[H])C5([H])[H])C([H])([H])C([H])([H])C4([H])[H])c([H])c3[H])c([H])c([H])c2C1([H])[H]

$$$$
81:0:0
     RDKit          3D

107114  0  0  1  0  0  0  0  0999 V2000
  -30.9730  -17.3980   22.0170 C   0  0  0  0  0  0  0  0  0  0  0  0
  -31.6430  -18.5520   21.9020 N   0  0  0  0  0  0  0  0  0  0  0  0
  -30.7560  -16.8450   23.0970 O   0  0  0  0  0  0  0  0  0  0  0  0
  -31.7880  -18.9000   20.9650 H   0  0  0  0  0  0  0  0  0  0  0  0
  -32.1300  -19.3960   22.9900 C   0  0  0  0  0  2  0  0  0  0  0  0
  -31.6390  -20.8500   22.8240 C   0  0  0  0  0  2  0  0  0  0  0  0
  -31.8670  -21.4220   21.4120 C   0  0  0  0  0  2  0  0  0  0  0  0
  -31.4720  -22.9040   21.2650 C   0  0  0  0  0  2  0  0  0  0  0  0
  -31.6970  -23.4080   19.8280 C   0  0  0  0  0  2  0  0  0  0  0  0
  -31.7220  -24.9410   19.6730 C   0  0  0  0  0  2  0  0  0  0  0  0
  -29.4710  -25.9310   19.2690 C   0  0  0  0  0  0  0  0  0  0  0  0
  -30.4820  -25.6010   20.0850 N   0  0  0  0  0  0  0  0  0  0  0  0
  -29.4190  -25.5530   18.0950 O   0  0  0  0  0  0  0  0  0  0  0  0
  -30.4420  -25.9510   21.0340 H   0  0  0  0  0  0  0  0  0  0  0  0
  -28.3880  -26.8590   19.8430 C   0  0  0  0  0  2  0  0  0  0  0  0
  -27.2890  -26.9540   18.9330 O   0  0  0  0  0  0  0  0  0  0  0  0
  -24.5310  -31.9320   23.2580 C   0  0  0  0  0  0  0  0  0  0  0  0
  -26.2340  -27.7620   19.2970 C   0  0  0  0  0  0  0  0  0  0  0  0
  -22.9350  -30.8040   21.7370 C   0  0  0  0  0  3  0  0  0  0  0  0
  -23.9830  -29.3600   19.9130 C   0  0  0  0  0  0  0  0  0  0  0  0
  -25.3960  -31.0500   21.0990 C   0  0  0  0  0  2  0  0  0  0  0  0
  -25.2600  -29.7550   20.3290 C   0  0  0  0  0  0  0  0  0  0  0  0
  -26.3860  -28.9630   20.0280 C   0  0  0  0  0  3  0  0  0  0  0  0
  -24.9440  -27.3810   18.8720 C   0  0  0  0  0  3  0  0  0  0  0  0
  -23.8170  -28.1670   19.1860 C   0  0  0  0  0  3  0  0  0  0  0  0
  -22.8340  -30.2720   20.2810 C   0  0  0  0  0  2  0  0  0  0  0  0
  -24.3170  -31.2690   22.0880 N   0  0  0  0  0  0  0  0  0  0  0  0
  -23.5940  -32.2000   24.0230 O   0  0  0  0  0  0  0  0  0  0  0  0
  -22.3940  -29.7180   22.6940 C   0  0  0  0  0  0  0  0  0  0  0  0
  -21.0830  -29.4430   22.6040 N   0  0  0  0  0  0  0  0  0  0  0  0
  -23.1490  -29.1250   23.4700 O   0  0  0  0  0  0  0  0  0  0  0  0
  -20.5310  -29.9770   21.9480 H   0  0  0  0  0  0  0  0  0  0  0  0
  -17.9220  -27.7250   22.9040 C   0  0  0  0  0  0  0  0  0  0  0  0
  -20.3620  -28.4330   23.3770 C   0  0  0  0  0  3  0  0  0  0  0  0
  -20.7560  -27.0060   22.9300 C   0  0  0  0  0  2  0  0  0  0  0  0
  -19.8280  -26.4350   21.8540 C   0  0  0  0  0  2  0  0  0  0  0  0
  -18.3840  -26.3830   22.3600 C   0  0  0  0  0  2  0  0  0  0  0  0
  -18.8520  -28.6930   23.3670 C   0  0  0  0  0  0  0  0  0  0  0  0
  -18.3720  -29.9380   23.8280 C   0  0  0  0  0  3  0  0  0  0  0  0
  -16.9930  -30.2190   23.8390 C   0  0  0  0  0  3  0  0  0  0  0  0
  -16.0760  -29.2520   23.3960 C   0  0  0  0  0  3  0  0  0  0  0  0
  -16.5410  -28.0070   22.9330 C   0  0  0  0  0  3  0  0  0  0  0  0
  -25.9590  -32.4040   23.6830 C   0  0  0  0  0  3  0  0  0  0  0  0
  -25.8410  -33.7870   24.1630 N   0  0  0  0  0  0  0  0  0  0  0  0
  -26.1450  -34.8720   23.4380 C   0  0  0  0  0  0  0  0  0  0  0  0
  -26.6280  -34.8070   22.3050 O   0  0  0  0  0  0  0  0  0  0  0  0
  -25.4000  -33.9160   25.0620 H   0  0  0  0  0  0  0  0  0  0  0  0
  -24.5630  -36.8260   23.4980 C   0  0  0  0  0  1  0  0  0  0  0  0
  -25.8660  -36.2480   24.0720 C   0  0  0  0  0  3  0  0  0  0  0  0
  -28.1750  -36.8760   24.6270 C   0  0  0  0  0  1  0  0  0  0  0  0
  -26.9670  -37.2180   23.8800 N   0  0  0  0  0  0  0  0  0  0  0  0
  -26.6760  -38.1510   24.1590 H   0  0  0  0  0  0  0  0  0  0  0  0
  -26.6200  -31.4840   24.7800 C   0  0  1  0  0  0  0  0  0  0  0  0
  -25.7230  -31.2550   26.0190 C   0  0  0  0  0  1  0  0  0  0  0  0
  -26.9780  -30.1000   24.1880 C   0  0  0  0  0  1  0  0  0  0  0  0
  -27.9470  -32.1150   25.2620 C   0  0  0  0  0  1  0  0  0  0  0  0
  -30.4290  -16.8090   20.7050 C   0  0  0  0  0  3  0  0  0  0  0  0
  -30.7090  -14.3490   20.4790 C   0  0  0  0  0  0  0  0  0  0  0  0
  -30.4640  -12.0380   19.6660 C   0  0  0  0  0  2  0  0  0  0  0  0
  -29.5890  -12.0350   18.3960 C   0  0  0  0  0  2  0  0  0  0  0  0
  -28.0950  -11.9530   18.7620 C   0  0  0  0  0  2  0  0  0  0  0  0
  -27.6880  -12.9870   19.8460 C   0  0  0  0  0  3  0  0  0  0  0  0
  -28.6770  -12.9590   21.0330 C   0  0  0  0  0  2  0  0  0  0  0  0
  -30.0370  -13.1690   20.5050 N   0  0  0  0  0  0  0  0  0  0  0  0
  -31.8330  -14.4770   19.9850 O   0  0  0  0  0  0  0  0  0  0  0  0
  -30.0100  -15.4140   20.8870 N   0  0  0  0  0  0  0  0  0  0  0  0
  -29.1210  -15.2490   21.3330 H   0  0  0  0  0  0  0  0  0  0  0  0
  -25.2830  -13.7110   20.4240 C   0  0  0  0  0  0  0  0  0  0  0  0
  -24.1790  -12.9960   20.7990 C   0  0  0  0  0  0  0  0  0  0  0  0
  -24.5960  -11.6320   20.8620 C   0  0  0  0  0  0  0  0  0  0  0  0
  -26.3070  -12.7870   20.2850 N   0  0  0  0  0  0  0  0  0  0  0  0
  -25.8940  -11.5340   20.6040 N   0  0  0  0  0  0  0  0  0  0  0  0
  -23.8230  -10.4060   21.0980 C   0  0  0  0  0  0  0  0  0  0  0  0
  -24.2700   -9.4140   21.9980 C   0  0  0  0  0  3  0  0  0  0  0  0
  -23.5010   -8.2510   22.2220 C   0  0  0  0  0  3  0  0  0  0  0  0
  -22.2710   -8.0730   21.5460 C   0  0  0  0  0  0  0  0  0  0  0  0
  -21.8420   -9.0530   20.6340 C   0  0  0  0  0  3  0  0  0  0  0  0
  -22.6110  -10.2060   20.4080 C   0  0  0  0  0  3  0  0  0  0  0  0
  -21.4700   -6.9650   21.6810 O   0  0  0  0  0  0  0  0  0  0  0  0
  -21.5600   -6.1410   22.7740 C   0  0  0  0  0  0  0  0  0  0  0  0
  -21.2590   -6.5940   24.0760 C   0  0  0  0  0  3  0  0  0  0  0  0
  -21.2980   -5.6960   25.1620 C   0  0  0  0  0  3  0  0  0  0  0  0
  -21.6270   -4.3440   24.9460 C   0  0  0  0  0  0  0  0  0  0  0  0
  -21.9200   -3.8900   23.6480 C   0  0  0  0  0  3  0  0  0  0  0  0
  -21.8840   -4.7850   22.5650 C   0  0  0  0  0  0  0  0  0  0  0  0
  -22.1470   -4.3370   21.3140 F   0  0  0  0  0  0  0  0  0  0  0  0
  -21.6540   -3.4790   25.9860 F   0  0  0  0  0  0  0  0  0  0  0  0
  -22.7900  -13.5310   20.9930 C   0  0  0  0  0  0  0  0  0  0  0  0
  -22.0140  -12.9170   21.8800 N   0  0  0  0  0  0  0  0  0  0  0  0
  -22.4000  -14.5310   20.3920 O   0  0  0  0  0  0  0  0  0  0  0  0
  -22.3410  -12.1090   22.3880 H   0  0  0  0  0  0  0  0  0  0  0  0
  -21.0800  -13.2600   22.0520 H   0  0  0  0  0  0  0  0  0  0  0  0
  -25.4980  -15.0620   20.1710 N   0  0  0  0  0  0  0  0  0  0  0  0
  -24.7440  -15.7400   20.1970 H   0  0  0  0  0  0  0  0  0  0  0  0
  -26.3660  -15.4400   19.8210 H   0  0  0  0  0  0  0  0  0  0  0  0
  -29.2080  -17.6570   20.2770 C   0  0  0  0  0  2  0  0  0  0  0  0
  -28.6480  -17.2700   18.8950 C   0  0  0  0  0  2  0  0  0  0  0  0
  -27.7690  -18.3690   18.2770 C   0  0  0  0  0  2  0  0  0  0  0  0
  -28.1770  -20.6480   17.2840 C   0  0  0  0  0  0  0  0  0  0  0  0
  -29.0490  -21.4920   16.7360 N   0  0  0  0  0  4  0  0  0  0  0  0
  -26.9030  -21.0160   17.4360 N   0  0  0  0  0  0  0  0  0  0  0  0
  -28.5910  -19.4360   17.6770 N   0  0  0  0  0  0  0  0  0  0  0  0
  -28.7890  -22.4140   16.4130 H   0  0  0  0  0  0  0  0  0  0  0  0
  -30.0240  -21.2530   16.6040 H   0  0  0  0  0  0  0  0  0  0  0  0
  -26.5620  -21.9230   17.1490 H   0  0  0  0  0  0  0  0  0  0  0  0
  -26.2210  -20.3950   17.8430 H   0  0  0  0  0  0  0  0  0  0  0  0
  -29.5580  -19.1740   17.5160 H   0  0  0  0  0  0  0  0  0  0  0  0
  1  3  2  0
  2  1  1  0
  2  5  1  0
  4  2  1  0
  6  5  1  0
  7  6  1  0
  8  7  1  0
  9  8  1  0
 10  9  1  0
 10 12  1  0
 11 15  1  0
 11 12  1  0
 12 14  1  0
 13 11  2  0
 16 18  1  0
 16 15  1  0
 17 28  2  0
 18 23  1  0
 19 27  1  0
 19 29  1  0
 20 26  1  0
 20 22  1  0
 21 27  1  0
 22 21  1  0
 23 22  2  0
 24 25  1  0
 24 18  2  0
 25 20  2  0
 26 19  1  0
 27 17  1  0
 29 31  2  0
 30 29  1  0
 32 30  1  0
 33 42  2  0
 33 38  1  0
 34 30  1  0
 35 34  1  0
 36 37  1  0
 36 35  1  0
 37 33  1  0
 38 34  1  0
 38 39  2  0
 39 40  1  0
 41 40  2  0
 42 41  1  0
 43 17  1  0
 43 44  1  0
 43 53  1  0
 44 47  1  0
 45 49  1  0
 45 44  1  0
 46 45  2  0
 49 48  1  0
 51 49  1  0
 51 52  1  0
 51 50  1  0
 53 56  1  1
 53 54  1  0
 55 53  1  0
 57 96  1  0
 57 66  1  0
 57  1  1  0
 58 64  1  0
 58 66  1  0
 59 64  1  0
 60 61  1  0
 60 59  1  0
 62 61  1  0
 62 71  1  0
 62 63  1  0
 64 63  1  0
 65 58  2  0
 66 67  1  0
 68 69  2  0
 69 70  1  0
 69 88  1  0
 70 73  1  0
 71 68  1  0
 71 72  1  0
 72 70  2  0
 73 74  1  0
 74 75  2  0
 76 79  1  0
 76 75  1  0
 77 76  2  0
 78 77  1  0
 78 73  2  0
 79 80  1  0
 80 81  1  0
 81 82  2  0
 83 82  1  0
 83 87  1  0
 84 83  2  0
 85 80  2  0
 85 84  1  0
 86 85  1  0
 88 89  1  0
 89 92  1  0
 89 91  1  0
 90 88  2  0
 93 94  1  0
 93 68  1  0
 95 93  1  0
 97 96  1  0
 98 97  1  0
 99101  1  0
 99102  1  0
100 99  2  0
101106  1  0
102 98  1  0
103100  1  0
104100  1  0
105101  1  0
107102  1  0
M  ISO  4  15 101  16 101  58 100  66 100
M  END
>  <TORSDO>  (80) 
F 29

>  <SCORE>  (80) 
-10.135

>  <name>  (80) 
81

>  <ligand_id>  (80) 
81

>  <original_smiles>  (80) 
[H]c1c([H])c([H])c2c(c1[H])C([H])([H])C([H])([H])C([H])([H])C2([H])N([H])C(=O)C1([H])N(C(=O)C([H])(N([H])C(=O)C([H])(N([H])C([H])([H])[H])C([H])([H])[H])C(C([H])([H])[H])(C([H])([H])[H])C([H])([H])[H])C([H])([H])c2c([H])c(OC([H])([H])C(=O)N([H])C([H])([H])C([H])([H])C([H])([H])C([H])([H])C([H])([H])C([H])([H])N([H])C(=O)C([H])(N([H])C(=O)N3C([H])([H])C([H])([H])C([H])([H])C([H])(n4nc(-c5c([H])c([H])c(Oc6c([H])c([H])c(F)c([H])c6F)c([H])c5[H])c(C(=O)N([H])[H])c4N([H])[H])C3([H])[H])C([H])([H])C([H])([H])C([H])([H])N([H])C(N([H])[H])=[N+]([H])[H])c([H])c([H])c2C1([H])[H]

>  <smiles>  (80) 
[H]c1c([H])c([H])c2c(c1[H])C([H])([H])C([H])([H])C([H])([H])C2([H])N([H])C(=O)C1([H])N(C(=O)C([H])(N([H])C(=O)C([H])(N([H])C([H])([H])[H])C([H])([H])[H])C(C([H])([H])[H])(C([H])([H])[H])C([H])([H])[H])C([H])([H])c2c([H])c(OC([H])([H])C(=O)N([H])C([H])([H])C([H])([H])C([H])([H])C([H])([H])C([H])([H])C([H])([H])N([H])C(=O)C([H])(N([H])C(=O)N3C([H])([H])C([H])([H])C([H])([H])C([H])(n4nc(-c5c([H])c([H])c(Oc6c([H])c([H])c(F)c([H])c6F)c([H])c5[H])c(C(=O)N([H])[H])c4N([H])[H])C3([H])[H])C([H])([H])C([H])([H])C([H])([H])N([H])C(N([H])[H])=[N+]([H])[H])c([H])c([H])c2C1([H])[H]

$$$$
82:0:0
     RDKit          3D

 88 95  0  0  1  0  0  0  0  0999 V2000
  -29.2880  -19.8860   20.5380 C   0  0  0  0  0  0  0  0  0  0  0  0
  -29.0990  -21.2580   19.9850 N   0  0  0  0  0  0  0  0  0  0  0  0
  -29.0310  -19.7770   21.7360 O   0  0  0  0  0  0  0  0  0  0  0  0
  -29.2710  -21.2690   18.9880 H   0  0  0  0  0  0  0  0  0  0  0  0
  -28.8500  -22.8190   20.5720 C   0  0  0  0  0  3  0  0  0  0  0  0
  -28.1330  -24.3590   19.9210 C   0  0  0  0  0  3  0  0  0  0  0  0
  -28.2130  -25.9750   20.3130 O   0  0  0  0  0  0  0  0  0  0  0  0
  -24.6160  -31.9480   23.2250 C   0  0  0  0  0  0  0  0  0  0  0  0
  -27.1950  -27.0690   20.2100 C   0  0  0  0  0  0  0  0  0  0  0  0
  -23.4270  -30.5420   21.5930 C   0  0  0  0  0  3  0  0  0  0  0  0
  -24.8830  -28.9420   20.1640 C   0  0  0  0  0  0  0  0  0  0  0  0
  -25.9920  -30.7640   21.4410 C   0  0  0  0  0  2  0  0  0  0  0  0
  -26.0690  -29.3530   20.7860 C   0  0  0  0  0  0  0  0  0  0  0  0
  -27.2160  -28.4360   20.7850 C   0  0  0  0  0  3  0  0  0  0  0  0
  -25.9820  -26.8170   19.5290 C   0  0  0  0  0  3  0  0  0  0  0  0
  -24.8650  -27.6960   19.5160 C   0  0  0  0  0  3  0  0  0  0  0  0
  -23.6580  -29.8570   20.2160 C   0  0  0  0  0  2  0  0  0  0  0  0
  -24.7010  -31.1130   22.1400 N   0  0  0  0  0  0  0  0  0  0  0  0
  -23.5260  -32.2320   23.7490 O   0  0  0  0  0  0  0  0  0  0  0  0
  -22.7400  -29.5440   22.5620 C   0  0  0  0  0  0  0  0  0  0  0  0
  -21.4110  -29.3700   22.4400 N   0  0  0  0  0  0  0  0  0  0  0  0
  -23.4120  -28.9280   23.3930 O   0  0  0  0  0  0  0  0  0  0  0  0
  -20.9230  -29.9200   21.7470 H   0  0  0  0  0  0  0  0  0  0  0  0
  -18.0390  -28.1330   22.9550 C   0  0  0  0  0  0  0  0  0  0  0  0
  -20.5970  -28.4280   23.2160 C   0  0  0  0  0  3  0  0  0  0  0  0
  -20.7130  -26.9950   22.6480 C   0  0  0  0  0  2  0  0  0  0  0  0
  -19.6140  -26.6560   21.6350 C   0  0  0  0  0  2  0  0  0  0  0  0
  -18.2310  -26.7850   22.2800 C   0  0  0  0  0  2  0  0  0  0  0  0
  -19.1500  -28.9110   23.3790 C   0  0  0  0  0  0  0  0  0  0  0  0
  -18.9140  -30.1690   23.9740 C   0  0  0  0  0  3  0  0  0  0  0  0
  -17.6020  -30.6500   24.1470 C   0  0  0  0  0  3  0  0  0  0  0  0
  -16.5070  -29.8700   23.7360 C   0  0  0  0  0  3  0  0  0  0  0  0
  -16.7270  -28.6140   23.1450 C   0  0  0  0  0  3  0  0  0  0  0  0
  -25.8850  -32.6010   23.8540 C   0  0  0  0  0  3  0  0  0  0  0  0
  -26.3750  -31.8640   25.1630 C   0  0  1  0  0  0  0  0  0  0  0  0
  -25.2640  -31.6590   26.2190 C   0  0  0  0  0  1  0  0  0  0  0  0
  -26.9620  -30.4750   24.8280 C   0  0  0  0  0  1  0  0  0  0  0  0
  -27.5170  -32.6740   25.8220 C   0  0  0  0  0  1  0  0  0  0  0  0
  -25.5680  -34.0080   24.1580 N   0  0  0  0  0  0  0  0  0  0  0  0
  -25.9060  -35.0550   23.3920 C   0  0  0  0  0  0  0  0  0  0  0  0
  -26.5780  -34.9370   22.3650 O   0  0  0  0  0  0  0  0  0  0  0  0
  -24.9690  -34.1730   24.9520 H   0  0  0  0  0  0  0  0  0  0  0  0
  -24.1920  -36.8610   23.0110 C   0  0  0  0  0  1  0  0  0  0  0  0
  -25.4250  -36.4530   23.8330 C   0  0  0  0  0  3  0  0  0  0  0  0
  -27.5530  -37.3460   24.6760 C   0  0  0  0  0  1  0  0  0  0  0  0
  -26.4640  -37.5000   23.7150 N   0  0  0  0  0  0  0  0  0  0  0  0
  -26.0610  -38.4250   23.8380 H   0  0  0  0  0  0  0  0  0  0  0  0
  -29.8680  -18.3760   19.8260 C   0  0  0  0  0  0  0  0  0  0  0  0
  -30.5140  -15.4780   20.0660 C   0  0  0  0  0  0  0  0  0  0  0  0
  -30.4640  -13.0340   19.1810 C   0  0  0  0  0  2  0  0  0  0  0  0
  -29.5040  -12.8410   17.9780 C   0  0  0  0  0  2  0  0  0  0  0  0
  -28.0730  -12.5580   18.4650 C   0  0  0  0  0  2  0  0  0  0  0  0
  -27.6610  -13.5070   19.6180 C   0  0  0  0  0  3  0  0  0  0  0  0
  -28.7450  -13.6460   20.7080 C   0  0  0  0  0  2  0  0  0  0  0  0
  -29.9540  -14.1650   20.0440 N   0  0  0  0  0  0  0  0  0  0  0  0
  -31.7110  -15.4820   19.7430 O   0  0  0  0  0  0  0  0  0  0  0  0
  -29.7520  -16.7470   20.2330 N   0  0  0  0  0  4  0  0  0  0  0  0
  -28.8250  -16.5470   20.5780 H   0  0  0  0  0  0  0  0  0  0  0  0
  -25.3160  -14.0470   20.4560 C   0  0  0  0  0  0  0  0  0  0  0  0
  -24.2700  -13.2620   20.8540 C   0  0  0  0  0  0  0  0  0  0  0  0
  -24.7410  -11.9140   20.7930 C   0  0  0  0  0  0  0  0  0  0  0  0
  -26.3520  -13.1790   20.1680 N   0  0  0  0  0  0  0  0  0  0  0  0
  -26.0210  -11.8890   20.4390 N   0  0  0  0  0  0  0  0  0  0  0  0
  -24.0240  -10.6470   20.9950 C   0  0  0  0  0  0  0  0  0  0  0  0
  -24.4670   -9.6860   21.9300 C   0  0  0  0  0  3  0  0  0  0  0  0
  -23.7460   -8.4870   22.1200 C   0  0  0  0  0  3  0  0  0  0  0  0
  -22.5690   -8.2400   21.3750 C   0  0  0  0  0  0  0  0  0  0  0  0
  -22.1430   -9.1900   20.4310 C   0  0  0  0  0  3  0  0  0  0  0  0
  -22.8650  -10.3810   20.2380 C   0  0  0  0  0  3  0  0  0  0  0  0
  -21.8190   -7.0920   21.4760 O   0  0  0  0  0  0  0  0  0  0  0  0
  -21.7600   -6.3710   22.6410 C   0  0  0  0  0  0  0  0  0  0  0  0
  -21.2720   -6.9310   23.8410 C   0  0  0  0  0  3  0  0  0  0  0  0
  -21.1630   -6.1330   24.9970 C   0  0  0  0  0  3  0  0  0  0  0  0
  -21.5320   -4.7750   24.9540 C   0  0  0  0  0  0  0  0  0  0  0  0
  -22.0140   -4.2150   23.7590 C   0  0  0  0  0  3  0  0  0  0  0  0
  -22.1240   -5.0100   22.6050 C   0  0  0  0  0  0  0  0  0  0  0  0
  -22.5680   -4.4580   21.4500 F   0  0  0  0  0  0  0  0  0  0  0  0
  -21.4210   -4.0070   26.0640 F   0  0  0  0  0  0  0  0  0  0  0  0
  -22.8810  -13.7330   21.1710 C   0  0  0  0  0  0  0  0  0  0  0  0
  -22.1800  -13.0230   22.0480 N   0  0  0  0  0  0  0  0  0  0  0  0
  -22.4280  -14.7650   20.6770 O   0  0  0  0  0  0  0  0  0  0  0  0
  -22.5590  -12.1880   22.4690 H   0  0  0  0  0  0  0  0  0  0  0  0
  -21.2500  -13.3220   22.3060 H   0  0  0  0  0  0  0  0  0  0  0  0
  -25.4650  -15.4190   20.2840 N   0  0  0  0  0  0  0  0  0  0  0  0
  -24.6940  -16.0640   20.4210 H   0  0  0  0  0  0  0  0  0  0  0  0
  -26.2850  -15.8640   19.8940 H   0  0  0  0  0  0  0  0  0  0  0  0
  -28.2470  -18.1710   17.8390 C   0  0  0  0  0  1  0  0  0  0  0  0
  -29.6890  -18.4430   18.2970 C   0  0  0  0  0  2  0  0  0  0  0  0
  1  3  2  0
  2  1  1  0
  2  5  1  0
  4  2  1  0
  6  7  1  0
  6  5  2  0
  8 19  2  0
  9  7  1  0
  9 14  1  0
 10 18  1  0
 10 20  1  0
 11 17  1  0
 11 13  1  0
 12 18  1  0
 13 12  1  0
 14 13  2  0
 15  9  2  0
 16 15  1  0
 16 11  2  0
 17 10  1  0
 18  8  1  0
 20 22  2  0
 21 20  1  0
 23 21  1  0
 24 33  2  0
 24 29  1  0
 25 21  1  0
 25 29  1  0
 26 25  1  0
 27 28  1  0
 27 26  1  0
 28 24  1  0
 29 30  2  0
 30 31  1  0
 32 31  2  0
 33 32  1  0
 34  8  1  0
 34 39  1  0
 34 35  1  0
 35 38  1  1
 35 36  1  0
 37 35  1  0
 39 42  1  0
 40 44  1  0
 40 39  1  0
 41 40  2  0
 44 43  1  0
 46 44  1  0
 46 47  1  0
 46 45  1  0
 48 57  2  0
 48  1  1  0
 49 57  1  0
 50 55  1  0
 51 52  1  0
 51 50  1  0
 53 52  1  0
 53 62  1  0
 53 54  1  0
 55 49  1  0
 55 54  1  0
 56 49  2  0
 57 58  1  0
 59 60  2  0
 60 79  1  0
 61 60  1  0
 61 64  1  0
 62 63  1  0
 62 59  1  0
 63 61  2  0
 64 65  1  0
 65 66  2  0
 67 70  1  0
 67 66  1  0
 68 67  2  0
 69 68  1  0
 69 64  2  0
 70 71  1  0
 71 72  1  0
 72 73  2  0
 74 73  1  0
 74 78  1  0
 75 74  2  0
 76 71  2  0
 76 75  1  0
 77 76  1  0
 79 80  1  0
 80 83  1  0
 80 82  1  0
 81 79  2  0
 84 85  1  0
 84 59  1  0
 86 84  1  0
 87 88  1  0
 88 48  1  0
M  ISO  4   6 101   7 101  49 100  57 100
M  END
>  <TORSDO>  (81) 
F 20

>  <SCORE>  (81) 
-15.702

>  <name>  (81) 
82

>  <ligand_id>  (81) 
82

>  <original_smiles>  (81) 
[H]c1c([H])c([H])c2c(c1[H])C([H])([H])C([H])([H])C([H])([H])C2([H])N([H])C(=O)C1([H])N(C(=O)C([H])(N([H])C(=O)C([H])(N([H])C([H])([H])[H])C([H])([H])[H])C(C([H])([H])[H])(C([H])([H])[H])C([H])([H])[H])C([H])([H])c2c([H])c(OC([H])([H])C([H])([H])N([H])C(=O)C([H])(N([H])C(=O)N3C([H])([H])C([H])([H])C([H])([H])C([H])(n4nc(-c5c([H])c([H])c(Oc6c([H])c([H])c(F)c([H])c6F)c([H])c5[H])c(C(=O)N([H])[H])c4N([H])[H])C3([H])[H])C([H])([H])C([H])([H])[H])c([H])c([H])c2C1([H])[H]

>  <smiles>  (81) 
[H]c1c([H])c([H])c2c(c1[H])C([H])([H])C([H])([H])C([H])([H])C2([H])N([H])C(=O)C1([H])N(C(=O)C([H])(N([H])C(=O)C([H])(N([H])C([H])([H])[H])C([H])([H])[H])C(C([H])([H])[H])(C([H])([H])[H])C([H])([H])[H])C([H])([H])c2c([H])c(OC([H])([H])C([H])([H])N([H])C(=O)C([H])(N([H])C(=O)N3C([H])([H])C([H])([H])C([H])([H])C([H])(n4nc(-c5c([H])c([H])c(Oc6c([H])c([H])c(F)c([H])c6F)c([H])c5[H])c(C(=O)N([H])[H])c4N([H])[H])C3([H])[H])C([H])([H])C([H])([H])[H])c([H])c([H])c2C1([H])[H]

$$$$
83:0:0
     RDKit          3D

 89 96  0  0  1  0  0  0  0  0999 V2000
  -29.1290  -19.8420   20.4030 C   0  0  0  0  0  0  0  0  0  0  0  0
  -29.0930  -21.2510   19.9180 N   0  0  0  0  0  0  0  0  0  0  0  0
  -28.5030  -19.6410   21.4440 O   0  0  0  0  0  0  0  0  0  0  0  0
  -29.5610  -21.3290   19.0230 H   0  0  0  0  0  0  0  0  0  0  0  0
  -28.7070  -22.7760   20.5230 C   0  0  0  0  0  2  0  0  0  0  0  0
  -28.1280  -24.3490   19.8220 C   0  0  0  0  0  2  0  0  0  0  0  0
  -28.1790  -25.9520   20.2640 O   0  0  0  0  0  0  0  0  0  0  0  0
  -24.5810  -31.9000   23.2140 C   0  0  0  0  0  0  0  0  0  0  0  0
  -27.1650  -27.0490   20.1590 C   0  0  0  0  0  0  0  0  0  0  0  0
  -23.3980  -30.5140   21.5590 C   0  0  0  0  0  3  0  0  0  0  0  0
  -24.8590  -28.9280   20.1200 C   0  0  0  0  0  0  0  0  0  0  0  0
  -25.9640  -30.7330   21.4250 C   0  0  0  0  0  2  0  0  0  0  0  0
  -26.0410  -29.3300   20.7540 C   0  0  0  0  0  0  0  0  0  0  0  0
  -27.1840  -28.4090   20.7520 C   0  0  0  0  0  3  0  0  0  0  0  0
  -25.9560  -26.8090   19.4680 C   0  0  0  0  0  3  0  0  0  0  0  0
  -24.8420  -27.6910   19.4570 C   0  0  0  0  0  3  0  0  0  0  0  0
  -23.6350  -29.8450   20.1760 C   0  0  0  0  0  2  0  0  0  0  0  0
  -24.6700  -31.0770   22.1190 N   0  0  0  0  0  0  0  0  0  0  0  0
  -23.4890  -32.1820   23.7340 O   0  0  0  0  0  0  0  0  0  0  0  0
  -22.7050  -29.5080   22.5140 C   0  0  0  0  0  0  0  0  0  0  0  0
  -21.3770  -29.3340   22.3790 N   0  0  0  0  0  0  0  0  0  0  0  0
  -23.3690  -28.8850   23.3450 O   0  0  0  0  0  0  0  0  0  0  0  0
  -20.8940  -29.8880   21.6860 H   0  0  0  0  0  0  0  0  0  0  0  0
  -18.0010  -28.0920   22.8580 C   0  0  0  0  0  0  0  0  0  0  0  0
  -20.5570  -28.3830   23.1390 C   0  0  0  0  0  3  0  0  0  0  0  0
  -20.6770  -26.9560   22.5570 C   0  0  0  0  0  2  0  0  0  0  0  0
  -19.5840  -26.6280   21.5340 C   0  0  0  0  0  2  0  0  0  0  0  0
  -18.1970  -26.7510   22.1700 C   0  0  0  0  0  2  0  0  0  0  0  0
  -19.1090  -28.8650   23.2980 C   0  0  0  0  0  0  0  0  0  0  0  0
  -18.8700  -30.1170   23.9050 C   0  0  0  0  0  3  0  0  0  0  0  0
  -17.5570  -30.5980   24.0720 C   0  0  0  0  0  3  0  0  0  0  0  0
  -16.4650  -29.8230   23.6450 C   0  0  0  0  0  3  0  0  0  0  0  0
  -16.6870  -28.5720   23.0440 C   0  0  0  0  0  3  0  0  0  0  0  0
  -25.8470  -32.5440   23.8570 C   0  0  0  0  0  3  0  0  0  0  0  0
  -26.3230  -31.7990   25.1660 C   0  0  1  0  0  0  0  0  0  0  0  0
  -25.2000  -31.5960   26.2110 C   0  0  0  0  0  1  0  0  0  0  0  0
  -26.9040  -30.4060   24.8310 C   0  0  0  0  0  1  0  0  0  0  0  0
  -27.4630  -32.6000   25.8390 C   0  0  0  0  0  1  0  0  0  0  0  0
  -25.5360  -33.9520   24.1620 N   0  0  0  0  0  0  0  0  0  0  0  0
  -25.8930  -34.9990   23.4060 C   0  0  0  0  0  0  0  0  0  0  0  0
  -26.5810  -34.8810   22.3880 O   0  0  0  0  0  0  0  0  0  0  0  0
  -24.9270  -34.1170   24.9490 H   0  0  0  0  0  0  0  0  0  0  0  0
  -24.1960  -36.8180   23.0100 C   0  0  0  0  0  1  0  0  0  0  0  0
  -25.4160  -36.3990   23.8470 C   0  0  0  0  0  3  0  0  0  0  0  0
  -27.5380  -37.2730   24.7230 C   0  0  0  0  0  1  0  0  0  0  0  0
  -26.4640  -37.4390   23.7480 N   0  0  0  0  0  0  0  0  0  0  0  0
  -26.0650  -38.3660   23.8700 H   0  0  0  0  0  0  0  0  0  0  0  0
  -29.9600  -18.3950   19.8110 C   0  0  0  0  0  3  0  0  0  0  0  0
  -30.4580  -15.4500   19.8890 C   0  0  0  0  0  0  0  0  0  0  0  0
  -30.3550  -13.0210   18.9630 C   0  0  0  0  0  2  0  0  0  0  0  0
  -29.3670  -12.8510   17.7830 C   0  0  0  0  0  2  0  0  0  0  0  0
  -27.9480  -12.5670   18.3020 C   0  0  0  0  0  2  0  0  0  0  0  0
  -27.5690  -13.4960   19.4810 C   0  0  0  0  0  3  0  0  0  0  0  0
  -28.6840  -13.6230   20.5440 C   0  0  0  0  0  2  0  0  0  0  0  0
  -29.8730  -14.1470   19.8540 N   0  0  0  0  0  0  0  0  0  0  0  0
  -31.6460  -15.4180   19.5400 O   0  0  0  0  0  0  0  0  0  0  0  0
  -29.7480  -16.7460   20.1160 N   0  0  0  0  0  0  0  0  0  0  0  0
  -28.8090  -16.5760   20.4450 H   0  0  0  0  0  0  0  0  0  0  0  0
  -25.2450  -14.0250   20.3820 C   0  0  0  0  0  0  0  0  0  0  0  0
  -24.2110  -13.2360   20.7990 C   0  0  0  0  0  0  0  0  0  0  0  0
  -24.6820  -11.8890   20.7170 C   0  0  0  0  0  0  0  0  0  0  0  0
  -26.2770  -13.1600   20.0620 N   0  0  0  0  0  0  0  0  0  0  0  0
  -25.9540  -11.8680   20.3310 N   0  0  0  0  0  0  0  0  0  0  0  0
  -23.9720  -10.6200   20.9250 C   0  0  0  0  0  0  0  0  0  0  0  0
  -24.4370   -9.6530   21.8440 C   0  0  0  0  0  3  0  0  0  0  0  0
  -23.7230   -8.4520   22.0420 C   0  0  0  0  0  3  0  0  0  0  0  0
  -22.5290   -8.2070   21.3230 C   0  0  0  0  0  0  0  0  0  0  0  0
  -22.0830   -9.1630   20.3930 C   0  0  0  0  0  3  0  0  0  0  0  0
  -22.7980  -10.3550   20.1920 C   0  0  0  0  0  3  0  0  0  0  0  0
  -21.7840   -7.0580   21.4320 O   0  0  0  0  0  0  0  0  0  0  0  0
  -21.7550   -6.3270   22.5920 C   0  0  0  0  0  0  0  0  0  0  0  0
  -21.2990   -6.8780   23.8090 C   0  0  0  0  0  3  0  0  0  0  0  0
  -21.2200   -6.0700   24.9620 C   0  0  0  0  0  3  0  0  0  0  0  0
  -21.5870   -4.7130   24.8980 C   0  0  0  0  0  0  0  0  0  0  0  0
  -22.0350   -4.1610   23.6850 C   0  0  0  0  0  3  0  0  0  0  0  0
  -22.1150   -4.9660   22.5350 C   0  0  0  0  0  0  0  0  0  0  0  0
  -22.5280   -4.4230   21.3640 F   0  0  0  0  0  0  0  0  0  0  0  0
  -21.5030   -3.9350   26.0030 F   0  0  0  0  0  0  0  0  0  0  0  0
  -22.8300  -13.7010   21.1530 C   0  0  0  0  0  0  0  0  0  0  0  0
  -22.1510  -12.9850   22.0420 N   0  0  0  0  0  0  0  0  0  0  0  0
  -22.3640  -14.7360   20.6770 O   0  0  0  0  0  0  0  0  0  0  0  0
  -22.5430  -12.1480   22.4470 H   0  0  0  0  0  0  0  0  0  0  0  0
  -21.2260  -13.2780   22.3220 H   0  0  0  0  0  0  0  0  0  0  0  0
  -25.3890  -15.4000   20.2180 N   0  0  0  0  0  0  0  0  0  0  0  0
  -24.6220  -16.0430   20.3800 H   0  0  0  0  0  0  0  0  0  0  0  0
  -26.2010  -15.8480   19.8140 H   0  0  0  0  0  0  0  0  0  0  0  0
  -31.8640  -18.6960   21.5400 C   0  0  0  0  0  1  0  0  0  0  0  0
  -32.0780  -19.8620   19.3010 C   0  0  0  0  0  1  0  0  0  0  0  0
  -31.4850  -18.6510   20.0470 C   0  0  0  0  0  3  0  0  0  0  0  0
  1  3  2  0
  2  1  1  0
  2  5  1  0
  4  2  1  0
  6  7  1  0
  6  5  1  0
  8 19  2  0
  9  7  1  0
  9 14  1  0
 10 18  1  0
 10 20  1  0
 11 17  1  0
 11 13  1  0
 12 18  1  0
 13 12  1  0
 14 13  2  0
 15  9  2  0
 16 15  1  0
 16 11  2  0
 17 10  1  0
 18  8  1  0
 20 22  2  0
 21 20  1  0
 23 21  1  0
 24 33  2  0
 24 29  1  0
 25 21  1  0
 25 29  1  0
 26 25  1  0
 27 28  1  0
 27 26  1  0
 28 24  1  0
 29 30  2  0
 30 31  1  0
 32 31  2  0
 33 32  1  0
 34  8  1  0
 34 39  1  0
 34 35  1  0
 35 38  1  1
 35 36  1  0
 37 35  1  0
 39 42  1  0
 40 44  1  0
 40 39  1  0
 41 40  2  0
 44 43  1  0
 46 44  1  0
 46 47  1  0
 46 45  1  0
 48 89  1  0
 48 57  1  0
 48  1  1  0
 49 57  1  0
 50 55  1  0
 51 52  1  0
 51 50  1  0
 53 52  1  0
 53 62  1  0
 53 54  1  0
 55 49  1  0
 55 54  1  0
 56 49  2  0
 57 58  1  0
 59 60  2  0
 60 79  1  0
 61 60  1  0
 61 64  1  0
 62 63  1  0
 62 59  1  0
 63 61  2  0
 64 65  1  0
 65 66  2  0
 67 70  1  0
 67 66  1  0
 68 67  2  0
 69 68  1  0
 69 64  2  0
 70 71  1  0
 71 72  1  0
 72 73  2  0
 74 73  1  0
 74 78  1  0
 75 74  2  0
 76 71  2  0
 76 75  1  0
 77 76  1  0
 79 80  1  0
 80 83  1  0
 80 82  1  0
 81 79  2  0
 84 85  1  0
 84 59  1  0
 86 84  1  0
 88 89  1  0
 89 87  1  0
M  ISO  4   6 101   7 101  49 100  57 100
M  END
>  <TORSDO>  (82) 
F 20

>  <SCORE>  (82) 
-15.647

>  <name>  (82) 
83

>  <ligand_id>  (82) 
83

>  <original_smiles>  (82) 
[H]c1c([H])c([H])c2c(c1[H])C([H])([H])C([H])([H])C([H])([H])C2([H])N([H])C(=O)C1([H])N(C(=O)C([H])(N([H])C(=O)C([H])(N([H])C([H])([H])[H])C([H])([H])[H])C(C([H])([H])[H])(C([H])([H])[H])C([H])([H])[H])C([H])([H])c2c([H])c(OC([H])([H])C([H])([H])N([H])C(=O)C([H])(N([H])C(=O)N3C([H])([H])C([H])([H])C([H])([H])C([H])(n4nc(-c5c([H])c([H])c(Oc6c([H])c([H])c(F)c([H])c6F)c([H])c5[H])c(C(=O)N([H])[H])c4N([H])[H])C3([H])[H])C([H])(C([H])([H])[H])C([H])([H])[H])c([H])c([H])c2C1([H])[H]

>  <smiles>  (82) 
[H]c1c([H])c([H])c2c(c1[H])C([H])([H])C([H])([H])C([H])([H])C2([H])N([H])C(=O)C1([H])N(C(=O)C([H])(N([H])C(=O)C([H])(N([H])C([H])([H])[H])C([H])([H])[H])C(C([H])([H])[H])(C([H])([H])[H])C([H])([H])[H])C([H])([H])c2c([H])c(OC([H])([H])C([H])([H])N([H])C(=O)C([H])(N([H])C(=O)N3C([H])([H])C([H])([H])C([H])([H])C([H])(n4nc(-c5c([H])c([H])c(Oc6c([H])c([H])c(F)c([H])c6F)c([H])c5[H])c(C(=O)N([H])[H])c4N([H])[H])C3([H])[H])C([H])(C([H])([H])[H])C([H])([H])[H])c([H])c([H])c2C1([H])[H]

$$$$
84:0:0
     RDKit          3D

 92 99  0  0  1  0  0  0  0  0999 V2000
  -29.9450  -21.9660   20.6080 C   0  0  0  0  0  0  0  0  0  0  0  0
  -29.2340  -23.0980   20.7790 N   0  0  0  0  0  0  0  0  0  0  0  0
  -30.9720  -21.9310   19.9230 O   0  0  0  0  0  0  0  0  0  0  0  0
  -28.4190  -23.0170   21.3710 H   0  0  0  0  0  0  0  0  0  0  0  0
  -29.3340  -20.8350   22.8540 C   0  0  0  0  0  1  0  0  0  0  0  0
  -29.4390  -20.6810   21.3220 C   0  0  0  0  0  3  0  0  0  0  0  0
  -29.7910  -18.2200   20.8110 C   0  0  0  0  0  0  0  0  0  0  0  0
  -30.2370  -19.4800   20.9890 N   0  0  0  0  0  0  0  0  0  0  0  0
  -28.5950  -17.9250   20.8850 O   0  0  0  0  0  0  0  0  0  0  0  0
  -31.2260  -19.6510   20.8610 H   0  0  0  0  0  0  0  0  0  0  0  0
  -30.8330  -17.1240   20.5070 C   0  0  0  0  0  2  0  0  0  0  0  0
  -30.9670  -14.6740   20.0850 C   0  0  0  0  0  0  0  0  0  0  0  0
  -30.6280  -12.4850   18.9910 C   0  0  0  0  0  2  0  0  0  0  0  0
  -29.6730  -12.6650   17.7950 C   0  0  0  0  0  2  0  0  0  0  0  0
  -28.2060  -12.5410   18.2500 C   0  0  0  0  0  2  0  0  0  0  0  0
  -27.8880  -13.3970   19.5060 C   0  0  0  0  0  3  0  0  0  0  0  0
  -28.9650  -13.2100   20.5990 C   0  0  0  0  0  2  0  0  0  0  0  0
  -30.2780  -13.5010   20.0000 N   0  0  0  0  0  0  0  0  0  0  0  0
  -32.0820  -14.8180   19.5760 O   0  0  0  0  0  0  0  0  0  0  0  0
  -30.3260  -15.7370   20.6110 N   0  0  0  0  0  0  0  0  0  0  0  0
  -29.3990  -15.6110   20.9950 H   0  0  0  0  0  0  0  0  0  0  0  0
  -25.5000  -13.9990   20.2570 C   0  0  0  0  0  0  0  0  0  0  0  0
  -24.4410  -13.2260   20.6480 C   0  0  0  0  0  0  0  0  0  0  0  0
  -24.9050  -11.8740   20.6160 C   0  0  0  0  0  0  0  0  0  0  0  0
  -26.5450  -13.1220   20.0150 N   0  0  0  0  0  0  0  0  0  0  0  0
  -26.1910  -11.8390   20.2880 N   0  0  0  0  0  0  0  0  0  0  0  0
  -24.1850  -10.6110   20.8290 C   0  0  0  0  0  0  0  0  0  0  0  0
  -24.5880   -9.6890   21.8220 C   0  0  0  0  0  3  0  0  0  0  0  0
  -23.8690   -8.4900   22.0200 C   0  0  0  0  0  3  0  0  0  0  0  0
  -22.7340   -8.2040   21.2250 C   0  0  0  0  0  0  0  0  0  0  0  0
  -22.3490   -9.1160   20.2250 C   0  0  0  0  0  3  0  0  0  0  0  0
  -23.0680  -10.3060   20.0260 C   0  0  0  0  0  3  0  0  0  0  0  0
  -21.9890   -7.0540   21.3270 O   0  0  0  0  0  0  0  0  0  0  0  0
  -21.8400   -6.3980   22.5220 C   0  0  0  0  0  0  0  0  0  0  0  0
  -21.2710   -7.0270   23.6510 C   0  0  0  0  0  3  0  0  0  0  0  0
  -21.0680   -6.2950   24.8380 C   0  0  0  0  0  3  0  0  0  0  0  0
  -21.4270   -4.9360   24.8980 C   0  0  0  0  0  0  0  0  0  0  0  0
  -21.9910   -4.3050   23.7740 C   0  0  0  0  0  3  0  0  0  0  0  0
  -22.1940   -5.0340   22.5890 C   0  0  0  0  0  0  0  0  0  0  0  0
  -22.7160   -4.4170   21.5010 F   0  0  0  0  0  0  0  0  0  0  0  0
  -21.2290   -4.2310   26.0370 F   0  0  0  0  0  0  0  0  0  0  0  0
  -23.0450  -13.7000   20.9490 C   0  0  0  0  0  0  0  0  0  0  0  0
  -22.3400  -13.0110   21.8380 N   0  0  0  0  0  0  0  0  0  0  0  0
  -22.5900  -14.7170   20.4280 O   0  0  0  0  0  0  0  0  0  0  0  0
  -22.7250  -12.1900   22.2830 H   0  0  0  0  0  0  0  0  0  0  0  0
  -21.4050  -13.3120   22.0810 H   0  0  0  0  0  0  0  0  0  0  0  0
  -25.6540  -15.3690   20.0640 N   0  0  0  0  0  0  0  0  0  0  0  0
  -24.8860  -16.0240   20.1870 H   0  0  0  0  0  0  0  0  0  0  0  0
  -26.5040  -15.8180   19.7450 H   0  0  0  0  0  0  0  0  0  0  0  0
  -29.5600  -24.4560   20.2960 C   0  0  0  0  0  2  0  0  0  0  0  0
  -28.2840  -25.3190   20.1010 C   0  0  0  0  0  2  0  0  0  0  0  0
  -28.4730  -26.7540   20.0190 O   0  0  0  0  0  0  0  0  0  0  0  0
  -24.6460  -31.9050   23.1780 C   0  0  0  0  0  0  0  0  0  0  0  0
  -27.3080  -27.5120   20.0070 C   0  0  0  0  0  0  0  0  0  0  0  0
  -23.4400  -30.5090   21.5340 C   0  0  0  0  0  3  0  0  0  0  0  0
  -24.8970  -29.0150   20.0680 C   0  0  0  0  0  0  0  0  0  0  0  0
  -25.9630  -30.8950   21.3160 C   0  0  0  0  0  2  0  0  0  0  0  0
  -26.0600  -29.5370   20.6460 C   0  0  0  0  0  0  0  0  0  0  0  0
  -27.2690  -28.7980   20.6070 C   0  0  0  0  0  3  0  0  0  0  0  0
  -26.1180  -27.0210   19.4180 C   0  0  0  0  0  3  0  0  0  0  0  0
  -24.9220  -27.7600   19.4440 C   0  0  0  0  0  3  0  0  0  0  0  0
  -23.6420  -29.8560   20.1430 C   0  0  0  0  0  2  0  0  0  0  0  0
  -24.7000  -31.1190   22.0650 N   0  0  0  0  0  0  0  0  0  0  0  0
  -23.5680  -32.1540   23.7360 O   0  0  0  0  0  0  0  0  0  0  0  0
  -22.8200  -29.4610   22.4870 C   0  0  0  0  0  0  0  0  0  0  0  0
  -21.4980  -29.2480   22.3690 N   0  0  0  0  0  0  0  0  0  0  0  0
  -23.5250  -28.8420   23.2880 O   0  0  0  0  0  0  0  0  0  0  0  0
  -20.9850  -29.8050   21.7000 H   0  0  0  0  0  0  0  0  0  0  0  0
  -18.1620  -27.9560   22.8670 C   0  0  0  0  0  0  0  0  0  0  0  0
  -20.7110  -28.2850   23.1370 C   0  0  0  0  0  3  0  0  0  0  0  0
  -20.8510  -26.8580   22.5580 C   0  0  0  0  0  2  0  0  0  0  0  0
  -19.7600  -26.5090   21.5410 C   0  0  0  0  0  2  0  0  0  0  0  0
  -18.3750  -26.6130   22.1870 C   0  0  0  0  0  2  0  0  0  0  0  0
  -19.2600  -28.7490   23.2980 C   0  0  0  0  0  0  0  0  0  0  0  0
  -19.0070  -30.0050   23.8890 C   0  0  0  0  0  3  0  0  0  0  0  0
  -17.6890  -30.4700   24.0590 C   0  0  0  0  0  3  0  0  0  0  0  0
  -16.6060  -29.6740   23.6440 C   0  0  0  0  0  3  0  0  0  0  0  0
  -16.8440  -28.4200   23.0540 C   0  0  0  0  0  3  0  0  0  0  0  0
  -25.9300  -32.5490   23.7830 C   0  0  0  0  0  3  0  0  0  0  0  0
  -25.6100  -33.9430   24.1150 N   0  0  0  0  0  0  0  0  0  0  0  0
  -25.9330  -34.9990   23.3590 C   0  0  0  0  0  0  0  0  0  0  0  0
  -26.6070  -34.9070   22.3300 O   0  0  0  0  0  0  0  0  0  0  0  0
  -25.0170  -34.0890   24.9170 H   0  0  0  0  0  0  0  0  0  0  0  0
  -24.1950  -36.7830   23.0000 C   0  0  0  0  0  1  0  0  0  0  0  0
  -25.4300  -36.3820   23.8200 C   0  0  0  0  0  3  0  0  0  0  0  0
  -27.5470  -37.2810   24.6830 C   0  0  0  0  0  1  0  0  0  0  0  0
  -26.4560  -37.4420   23.7250 N   0  0  0  0  0  0  0  0  0  0  0  0
  -26.0420  -38.3590   23.8690 H   0  0  0  0  0  0  0  0  0  0  0  0
  -26.4690  -31.7830   25.0530 C   0  0  1  0  0  0  0  0  0  0  0  0
  -25.3860  -31.5360   26.1300 C   0  0  0  0  0  1  0  0  0  0  0  0
  -27.0680  -30.4130   24.6570 C   0  0  0  0  0  1  0  0  0  0  0  0
  -27.6130  -32.5960   25.7070 C   0  0  0  0  0  1  0  0  0  0  0  0
  1  2  1  0
  1  6  1  0
  2  4  1  0
  3  1  2  0
  6  5  1  0
  7  9  2  0
  7  8  1  0
  8  6  1  0
 10  8  1  0
 11 20  1  0
 11  7  1  0
 12 20  1  0
 13 18  1  0
 14 15  1  0
 14 13  1  0
 16 15  1  0
 16 25  1  0
 16 17  1  0
 18 12  1  0
 18 17  1  0
 19 12  2  0
 20 21  1  0
 22 23  2  0
 23 42  1  0
 24 23  1  0
 24 27  1  0
 25 22  1  0
 25 26  1  0
 26 24  2  0
 27 28  1  0
 28 29  2  0
 30 33  1  0
 30 29  1  0
 31 30  2  0
 32 31  1  0
 32 27  2  0
 33 34  1  0
 34 39  2  0
 34 35  1  0
 35 36  2  0
 36 37  1  0
 37 41  1  0
 38 37  2  0
 39 38  1  0
 40 39  1  0
 42 43  1  0
 43 46  1  0
 43 45  1  0
 44 42  2  0
 47 48  1  0
 47 22  1  0
 49 47  1  0
 50  2  1  0
 51 50  1  0
 52 51  1  0
 53 64  2  0
 54 52  1  0
 54 59  1  0
 55 63  1  0
 55 65  1  0
 56 62  1  0
 56 58  1  0
 57 63  1  0
 58 57  1  0
 59 58  2  0
 60 61  1  0
 60 54  2  0
 61 56  2  0
 62 55  1  0
 63 53  1  0
 65 67  2  0
 66 65  1  0
 68 66  1  0
 69 78  2  0
 69 74  1  0
 70 66  1  0
 70 74  1  0
 71 70  1  0
 72 73  1  0
 72 71  1  0
 73 69  1  0
 74 75  2  0
 75 76  1  0
 77 76  2  0
 78 77  1  0
 79 53  1  0
 79 80  1  0
 79 89  1  0
 80 83  1  0
 81 85  1  0
 81 80  1  0
 82 81  2  0
 85 84  1  0
 87 85  1  0
 87 88  1  0
 87 86  1  0
 89 92  1  1
 89 90  1  0
 91 89  1  0
M  ISO  4  12 100  20 100  51 101  52 101
M  END
>  <TORSDO>  (83) 
F 21

>  <SCORE>  (83) 
-12.340

>  <name>  (83) 
84

>  <ligand_id>  (83) 
84

>  <original_smiles>  (83) 
[H]c1c([H])c([H])c2c(c1[H])C([H])([H])C([H])([H])C([H])([H])C2([H])N([H])C(=O)C1([H])N(C(=O)C([H])(N([H])C(=O)C([H])(N([H])C([H])([H])[H])C([H])([H])[H])C(C([H])([H])[H])(C([H])([H])[H])C([H])([H])[H])C([H])([H])c2c([H])c(OC([H])([H])C([H])([H])N([H])C(=O)C([H])(N([H])C(=O)C([H])([H])N([H])C(=O)N3C([H])([H])C([H])([H])C([H])([H])C([H])(n4nc(-c5c([H])c([H])c(Oc6c([H])c([H])c(F)c([H])c6F)c([H])c5[H])c(C(=O)N([H])[H])c4N([H])[H])C3([H])[H])C([H])([H])[H])c([H])c([H])c2C1([H])[H]

>  <smiles>  (83) 
[H]c1c([H])c([H])c2c(c1[H])C([H])([H])C([H])([H])C([H])([H])C2([H])N([H])C(=O)C1([H])N(C(=O)C([H])(N([H])C(=O)C([H])(N([H])C([H])([H])[H])C([H])([H])[H])C(C([H])([H])[H])(C([H])([H])[H])C([H])([H])[H])C([H])([H])c2c([H])c(OC([H])([H])C([H])([H])N([H])C(=O)C([H])(N([H])C(=O)C([H])([H])N([H])C(=O)N3C([H])([H])C([H])([H])C([H])([H])C([H])(n4nc(-c5c([H])c([H])c(Oc6c([H])c([H])c(F)c([H])c6F)c([H])c5[H])c(C(=O)N([H])[H])c4N([H])[H])C3([H])[H])C([H])([H])[H])c([H])c([H])c2C1([H])[H]

$$$$
85:0:0
     RDKit          3D

106108  0  0  1  0  0  0  0  0999 V2000
  -25.0110  -16.4200   19.0190 C   0  0  0  0  0  0  0  0  0  0  0  0
  -25.7750  -19.2130   18.7750 C   0  0  0  0  0  0  0  0  0  0  0  0
  -25.4080  -17.9570   19.3700 N   0  0  0  0  0  4  0  0  0  0  0  0
  -26.0150  -19.2410   17.5650 O   0  0  0  0  0  0  0  0  0  0  0  0
  -25.2790  -18.0970   20.3650 H   0  0  0  0  0  0  0  0  0  0  0  0
  -25.8970  -20.6900   19.5890 C   0  0  0  0  0  2  0  0  0  0  0  0
  -26.8660  -23.3140   19.7380 C   0  0  0  0  0  0  0  0  0  0  0  0
  -26.3790  -22.1350   19.0690 N   0  0  0  0  0  0  0  0  0  0  0  0
  -27.0930  -23.1960   20.9490 O   0  0  0  0  0  0  0  0  0  0  0  0
  -26.2680  -22.2690   18.0720 H   0  0  0  0  0  0  0  0  0  0  0  0
  -27.1350  -24.8380   19.0470 C   0  0  0  0  0  2  0  0  0  0  0  0
  -27.6610  -26.2610   19.5620 O   0  0  0  0  0  0  0  0  0  0  0  0
  -24.5060  -31.9800   23.1790 C   0  0  0  0  0  0  0  0  0  0  0  0
  -26.7660  -27.3890   19.6590 C   0  0  0  0  0  0  0  0  0  0  0  0
  -23.2050  -30.6070   21.6200 C   0  0  0  0  0  3  0  0  0  0  0  0
  -24.5240  -29.1720   19.9730 C   0  0  0  0  0  0  0  0  0  0  0  0
  -25.7390  -30.9150   21.2390 C   0  0  0  0  0  2  0  0  0  0  0  0
  -25.7590  -29.5590   20.5100 C   0  0  0  0  0  0  0  0  0  0  0  0
  -26.8960  -28.6680   20.3580 C   0  0  0  0  0  3  0  0  0  0  0  0
  -25.5230  -27.1720   19.0510 C   0  0  0  0  0  3  0  0  0  0  0  0
  -24.4220  -28.0040   19.2290 C   0  0  0  0  0  3  0  0  0  0  0  0
  -23.3040  -30.0400   20.1890 C   0  0  0  0  0  2  0  0  0  0  0  0
  -24.5100  -31.1940   22.0600 N   0  0  0  0  0  0  0  0  0  0  0  0
  -23.4640  -32.2030   23.8150 O   0  0  0  0  0  0  0  0  0  0  0  0
  -22.6720  -29.5160   22.5850 C   0  0  0  0  0  0  0  0  0  0  0  0
  -21.3870  -29.1420   22.4420 N   0  0  0  0  0  0  0  0  0  0  0  0
  -23.4130  -29.0160   23.4360 O   0  0  0  0  0  0  0  0  0  0  0  0
  -20.8380  -29.6060   21.7310 H   0  0  0  0  0  0  0  0  0  0  0  0
  -18.2550  -27.3590   22.8200 C   0  0  0  0  0  0  0  0  0  0  0  0
  -20.6950  -28.1160   23.2270 C   0  0  0  0  0  3  0  0  0  0  0  0
  -21.1020  -26.6950   22.7710 C   0  0  0  0  0  2  0  0  0  0  0  0
  -20.1590  -26.1080   21.7160 C   0  0  0  0  0  2  0  0  0  0  0  0
  -18.7300  -26.0270   22.2600 C   0  0  0  0  0  2  0  0  0  0  0  0
  -19.1790  -28.3450   23.2600 C   0  0  0  0  0  0  0  0  0  0  0  0
  -18.6870  -29.5750   23.7460 C   0  0  0  0  0  3  0  0  0  0  0  0
  -17.3040  -29.8300   23.7920 C   0  0  0  0  0  3  0  0  0  0  0  0
  -16.3940  -28.8470   23.3680 C   0  0  0  0  0  3  0  0  0  0  0  0
  -16.8680  -27.6130   22.8890 C   0  0  0  0  0  3  0  0  0  0  0  0
  -25.8090  -32.6540   23.6990 C   0  0  0  0  0  3  0  0  0  0  0  0
  -26.4480  -31.8930   24.9280 C   0  0  1  0  0  0  0  0  0  0  0  0
  -25.4500  -31.5980   26.0710 C   0  0  0  0  0  1  0  0  0  0  0  0
  -27.0590  -30.5430   24.4860 C   0  0  0  0  0  1  0  0  0  0  0  0
  -27.6030  -32.7340   25.5200 C   0  0  0  0  0  1  0  0  0  0  0  0
  -25.4710  -34.0370   24.0750 N   0  0  0  0  0  0  0  0  0  0  0  0
  -25.7190  -35.1210   23.3260 C   0  0  0  0  0  0  0  0  0  0  0  0
  -26.3320  -35.0630   22.2570 O   0  0  0  0  0  0  0  0  0  0  0  0
  -24.9140  -34.1510   24.9090 H   0  0  0  0  0  0  0  0  0  0  0  0
  -23.9290  -36.8810   23.1050 C   0  0  0  0  0  1  0  0  0  0  0  0
  -25.2160  -36.4830   23.8460 C   0  0  0  0  0  3  0  0  0  0  0  0
  -27.3570  -37.4160   24.6090 C   0  0  0  0  0  1  0  0  0  0  0  0
  -26.2130  -37.5700   23.7160 N   0  0  0  0  0  0  0  0  0  0  0  0
  -25.7860  -38.4740   23.9000 H   0  0  0  0  0  0  0  0  0  0  0  0
  -26.0830  -15.2000   18.5690 C   0  0  0  0  0  2  0  0  0  0  0  0
  -27.1910  -12.4820   19.0720 C   0  0  0  0  0  0  0  0  0  0  0  0
  -26.1880  -13.5450   18.7160 N   0  0  0  0  0  0  0  0  0  0  0  0
  -26.8950  -11.3400   18.7330 O   0  0  0  0  0  0  0  0  0  0  0  0
  -25.3720  -13.0790   18.3400 H   0  0  0  0  0  0  0  0  0  0  0  0
  -30.7970  -14.3750   21.8140 C   0  0  0  0  0  3  0  0  0  0  0  0
  -31.7940  -13.0210   19.8980 C   0  0  0  0  0 15  0  0  0  0  0  0
  -30.8080  -13.6110   17.9190 C   0  0  0  0  0 15  0  0  0  0  0  0
  -28.6490  -14.4680   18.4410 C   0  0  0  0  0 15  0  0  0  0  0  0
  -27.7230  -14.4620   20.8140 C   0  0  0  0  0  1  0  0  0  0  0  0
  -28.9170  -13.5670   22.2520 C   0  0  0  0  0 15  0  0  0  0  0  0
  -30.6930  -13.1960   21.5750 N   0  0  0  0  0  2  0  0  0  0  0  0
  -31.8220  -15.1200   21.9020 O   0  0  0  0  0  1  0  0  0  0  0  0
  -30.5190  -15.0410   19.5990 C   0  0  0  0  0  2  0  0  0  0  0  0
  -29.5880  -12.6260   19.4700 C   0  0  0  0  0  1  0  0  0  0  0  0
  -29.8420  -15.7750   20.4990 C   0  0  0  0  0  2  0  0  0  0  0  0
  -28.8000  -12.6490   20.0520 C   0  0  0  0  0  2  0  0  0  0  0  0
  -30.0160  -14.2680   20.5690 N   0  0  2  0  0  4  0  0  0  0  0  0
  -25.3240  -14.1580   21.5920 C   0  0  0  0  0  0  0  0  0  0  0  0
  -24.4250  -13.1320   21.6370 C   0  0  0  0  0  0  0  0  0  0  0  0
  -25.1390  -11.9000   21.5550 C   0  0  0  0  0  3  0  0  0  0  0  0
  -26.5280  -13.6330   21.3710 N   0  0  0  0  0  0  0  0  0  0  0  0
  -26.4320  -12.2280   21.5910 N   0  0  0  0  0  2  0  0  0  0  0  0
  -24.6340  -10.4820   21.4890 C   0  0  0  0  0  0  0  0  0  0  0  0
  -24.9920   -9.4860   22.4340 C   0  0  0  0  0  3  0  0  0  0  0  0
  -24.3930   -8.1970   22.4260 C   0  0  0  0  0  3  0  0  0  0  0  0
  -23.4070   -7.8670   21.4580 C   0  0  0  0  0  0  0  0  0  0  0  0
  -23.0680   -8.8390   20.4920 C   0  0  0  0  0  3  0  0  0  0  0  0
  -23.6820  -10.1140   20.5040 C   0  0  0  0  0  3  0  0  0  0  0  0
  -22.7860   -6.6360   21.3720 O   0  0  0  0  0  0  0  0  0  0  0  0
  -22.4110   -5.9240   22.4900 C   0  0  0  0  0  0  0  0  0  0  0  0
  -21.5460   -6.4660   23.4660 C   0  0  0  0  0  3  0  0  0  0  0  0
  -21.1560   -5.6870   24.5770 C   0  0  0  0  0  3  0  0  0  0  0  0
  -21.6030   -4.3580   24.6950 C   0  0  0  0  0  0  0  0  0  0  0  0
  -22.4450   -3.8080   23.7150 C   0  0  0  0  0  3  0  0  0  0  0  0
  -22.8460   -4.5870   22.6150 C   0  0  0  0  0  0  0  0  0  0  0  0
  -23.6480   -4.0470   21.6640 F   0  0  0  0  0  0  0  0  0  0  0  0
  -21.2160   -3.6040   25.7510 F   0  0  0  0  0  0  0  0  0  0  0  0
  -22.9620  -13.3370   21.7410 C   0  0  0  0  0  0  0  0  0  0  0  0
  -22.2820  -12.4850   22.4960 N   0  0  0  0  0  0  0  0  0  0  0  0
  -22.4350  -14.3140   21.2160 O   0  0  0  0  0  0  0  0  0  0  0  0
  -22.7210  -11.7100   22.9570 H   0  0  0  0  0  0  0  0  0  0  0  0
  -21.2830  -12.5880   22.6090 H   0  0  0  0  0  0  0  0  0  0  0  0
  -25.2620  -15.5290   21.7470 N   0  0  0  0  0  0  0  0  0  0  0  0
  -24.3830  -15.9340   22.0380 H   0  0  0  0  0  0  0  0  0  0  0  0
  -26.0610  -16.1050   21.9930 H   0  0  0  0  0  0  0  0  0  0  0  0
  -23.6260  -16.2040   18.3590 C   0  0  0  0  0  3  0  0  0  0  0  0
  -22.6720  -13.9280   18.1330 C   0  0  0  0  0  0  0  0  0  0  0  0
  -22.2670  -12.6680   18.8830 C   0  0  0  0  0  1  0  0  0  0  0  0
  -22.9590  -15.0100   18.8760 N   0  0  0  0  0  0  0  0  0  0  0  0
  -22.7370  -13.9090   16.9040 O   0  0  0  0  0  0  0  0  0  0  0  0
  -22.8640  -14.9310   19.8810 H   0  0  0  0  0  0  0  0  0  0  0  0
  -22.0780  -17.7840   17.2090 C   0  0  0  0  0  2  0  0  0  0  0  0
  -22.6850  -17.3890   18.3410 C   0  0  0  0  0  3  0  0  0  0  0  0
  1  3  2  3
  2  3  1  0
  2  6  1  0
  3  5  1  0
  4  2  2  0
  7  9  2  0
  8  6  1  0
  8  7  1  0
 10  8  1  0
 11 12  1  0
 11  7  1  0
 12 14  1  0
 13 24  2  0
 14 19  1  0
 15 23  1  0
 15 25  1  0
 16 22  1  0
 16 18  1  0
 17 23  1  0
 18 17  1  0
 19 18  2  0
 20 21  1  0
 20 14  2  0
 21 16  2  0
 22 15  1  0
 23 13  1  0
 25 27  2  0
 26 25  1  0
 28 26  1  0
 29 38  2  0
 29 34  1  0
 30 26  1  0
 30 34  1  0
 31 30  1  0
 32 33  1  0
 32 31  1  0
 33 29  1  0
 34 35  2  0
 35 36  1  0
 37 36  2  0
 38 37  1  0
 39 13  1  0
 39 44  1  0
 39 40  1  0
 40 43  1  1
 40 41  1  0
 42 40  1  0
 44 47  1  0
 45 49  1  0
 45 44  1  0
 46 45  2  0
 49 48  1  0
 51 49  1  0
 51 52  1  0
 51 50  1  0
 53 55  1  0
 53  1  1  0
 54 69  1  0
 55 54  1  0
 56 54  2  0
 57 55  1  0
 58 65  1  0
 62 74  1  0
 64 58  1  0
 66 68  1  0
 70 66  1  1
 67 69  1  0
 68 70  1  0
 70 64  1  0
 70 58  1  0
 71 72  2  0
 71 96  1  0
 72 91  1  0
 73 76  1  0
 73 75  1  0
 73 72  1  0
 74 75  1  0
 74 71  1  0
 76 77  1  0
 78 77  2  0
 79 78  1  0
 80 81  1  0
 80 79  2  0
 81 76  2  0
 82 79  1  0
 82 83  1  0
 83 88  2  0
 83 84  1  0
 84 85  2  0
 85 86  1  0
 86 90  1  0
 87 86  2  0
 88 87  1  0
 89 88  1  0
 91 92  1  0
 92 95  1  0
 92 94  1  0
 93 91  2  0
 96 98  1  0
 96 97  1  0
 99106  1  0
 99102  1  0
 99  1  1  0
100102  1  0
100101  1  0
102104  1  0
103100  2  0
105106  2  0
M  ISO  4  11 101  12 101  58 100  70 100
M  END
>  <TORSDO>  (84) 
F 25

>  <SCORE>  (84) 
17.725

>  <name>  (84) 
85

>  <ligand_id>  (84) 
85

>  <original_smiles>  (84) 
[H]C([H])=C([H])C([H])(N([H])C(=O)C([H])([H])[H])C([H])(N([H])C(=O)C([H])([H])N([H])C(=O)C([H])([H])Oc1c([H])c([H])c2c(c1[H])C([H])([H])N(C(=O)C([H])(N([H])C(=O)C([H])(N([H])C([H])([H])[H])C([H])([H])[H])C(C([H])([H])[H])(C([H])([H])[H])C([H])([H])[H])C([H])(C(=O)N([H])C1([H])c3c([H])c([H])c([H])c([H])c3C([H])([H])C([H])([H])C1([H])[H])C2([H])[H])C([H])([H])N([H])C(=O)C1([H])N(C(=O)N2C([H])([H])C([H])([H])C([H])([H])C([H])(n3nc(-c4c([H])c([H])c(Oc5c([H])c([H])c(F)c([H])c5F)c([H])c4[H])c(C(=O)N([H])[H])c3N([H])[H])C2([H])[H])C([H])([H])C([H])([H])C1([H])[H]

>  <smiles>  (84) 
[H]C([H])=C([H])C([H])(N([H])C(=O)C([H])([H])[H])C([H])(N([H])C(=O)C([H])([H])N([H])C(=O)C([H])([H])Oc1c([H])c([H])c2c(c1[H])C([H])([H])N(C(=O)C([H])(N([H])C(=O)C([H])(N([H])C([H])([H])[H])C([H])([H])[H])C(C([H])([H])[H])(C([H])([H])[H])C([H])([H])[H])C([H])(C(=O)N([H])C1([H])c3c([H])c([H])c([H])c([H])c3C([H])([H])C([H])([H])C1([H])[H])C2([H])[H])C([H])([H])N([H])C(=O)C1([H])N(C(=O)N2C([H])([H])C([H])([H])C([H])([H])C([H])(n3nc(-c4c([H])c([H])c(Oc5c([H])c([H])c(F)c([H])c5F)c([H])c4[H])c(C(=O)N([H])[H])c3N([H])[H])C2([H])[H])C([H])([H])C([H])([H])C1([H])[H]

$$$$
86:0:0
     RDKit          3D

 91 98  0  0  1  0  0  0  0  0999 V2000
  -28.9120  -22.7510   20.5630 C   0  0  0  0  0  3  0  0  0  0  0  0
  -30.3970  -23.1280   20.5890 C   0  0  0  0  0  0  0  0  0  0  0  0
  -30.9430  -23.4660   21.7510 N   0  0  0  0  0  0  0  0  0  0  0  0
  -31.0710  -23.0970   19.5590 O   0  0  0  0  0  0  0  0  0  0  0  0
  -30.3870  -23.4700   22.5950 H   0  0  0  0  0  0  0  0  0  0  0  0
  -31.9220  -23.7120   21.8020 H   0  0  0  0  0  0  0  0  0  0  0  0
  -29.3280  -19.8310   20.5300 C   0  0  0  0  0  0  0  0  0  0  0  0
  -29.0170  -21.1770   19.9720 N   0  0  0  0  0  0  0  0  0  0  0  0
  -29.2670  -19.7640   21.7580 O   0  0  0  0  0  0  0  0  0  0  0  0
  -29.0590  -21.1800   18.9620 H   0  0  0  0  0  0  0  0  0  0  0  0
  -29.8340  -18.3070   19.8000 C   0  0  0  0  0  2  0  0  0  0  0  0
  -30.4810  -15.4000   19.9950 C   0  0  0  0  0  0  0  0  0  0  0  0
  -30.4090  -12.9570   19.0990 C   0  0  0  0  0  2  0  0  0  0  0  0
  -29.4270  -12.7720   17.9140 C   0  0  0  0  0  2  0  0  0  0  0  0
  -28.0020  -12.4930   18.4270 C   0  0  0  0  0  2  0  0  0  0  0  0
  -27.6160  -13.4360   19.5910 C   0  0  0  0  0  3  0  0  0  0  0  0
  -28.7220  -13.5690   20.6630 C   0  0  0  0  0  2  0  0  0  0  0  0
  -29.9180  -14.0870   19.9780 N   0  0  0  0  0  0  0  0  0  0  0  0
  -31.6700  -15.4040   19.6430 O   0  0  0  0  0  0  0  0  0  0  0  0
  -29.7310  -16.6730   20.1960 N   0  0  0  0  0  0  0  0  0  0  0  0
  -28.8100  -16.4680   20.5560 H   0  0  0  0  0  0  0  0  0  0  0  0
  -25.2950  -13.9850   20.4900 C   0  0  0  0  0  0  0  0  0  0  0  0
  -24.2510  -13.2050   20.9000 C   0  0  0  0  0  0  0  0  0  0  0  0
  -24.7060  -11.8530   20.8080 C   0  0  0  0  0  0  0  0  0  0  0  0
  -26.3170  -13.1120   20.1650 N   0  0  0  0  0  0  0  0  0  0  0  0
  -25.9790  -11.8200   20.4240 N   0  0  0  0  0  0  0  0  0  0  0  0
  -23.9810  -10.5900   21.0040 C   0  0  0  0  0  0  0  0  0  0  0  0
  -24.4390   -9.6070   21.9080 C   0  0  0  0  0  3  0  0  0  0  0  0
  -23.7120   -8.4120   22.0960 C   0  0  0  0  0  3  0  0  0  0  0  0
  -22.5120   -8.1910   21.3810 C   0  0  0  0  0  0  0  0  0  0  0  0
  -22.0720   -9.1640   20.4650 C   0  0  0  0  0  3  0  0  0  0  0  0
  -22.7990  -10.3500   20.2750 C   0  0  0  0  0  3  0  0  0  0  0  0
  -21.7520   -7.0500   21.4800 O   0  0  0  0  0  0  0  0  0  0  0  0
  -21.7230   -6.3040   22.6300 C   0  0  0  0  0  0  0  0  0  0  0  0
  -21.3060   -6.8510   23.8630 C   0  0  0  0  0  3  0  0  0  0  0  0
  -21.2230   -6.0300   25.0060 C   0  0  0  0  0  3  0  0  0  0  0  0
  -21.5470   -4.6630   24.9170 C   0  0  0  0  0  0  0  0  0  0  0  0
  -21.9570   -4.1150   23.6890 C   0  0  0  0  0  3  0  0  0  0  0  0
  -22.0410   -4.9320   22.5480 C   0  0  0  0  0  0  0  0  0  0  0  0
  -22.4160   -4.3950   21.3620 F   0  0  0  0  0  0  0  0  0  0  0  0
  -21.4600   -3.8720   26.0120 F   0  0  0  0  0  0  0  0  0  0  0  0
  -22.8740  -13.6830   21.2540 C   0  0  0  0  0  0  0  0  0  0  0  0
  -22.1880  -12.9740   22.1430 N   0  0  0  0  0  0  0  0  0  0  0  0
  -22.4170  -14.7230   20.7800 O   0  0  0  0  0  0  0  0  0  0  0  0
  -22.5720  -12.1330   22.5500 H   0  0  0  0  0  0  0  0  0  0  0  0
  -21.2660  -13.2780   22.4240 H   0  0  0  0  0  0  0  0  0  0  0  0
  -25.4550  -15.3590   20.3380 N   0  0  0  0  0  0  0  0  0  0  0  0
  -24.6940  -16.0100   20.5050 H   0  0  0  0  0  0  0  0  0  0  0  0
  -26.2680  -15.8000   19.9280 H   0  0  0  0  0  0  0  0  0  0  0  0
  -28.1250  -24.2680   19.9270 C   0  0  0  0  0  2  0  0  0  0  0  0
  -28.2120  -25.8910   20.3010 O   0  0  0  0  0  0  0  0  0  0  0  0
  -24.6540  -31.8930   23.2060 C   0  0  0  0  0  0  0  0  0  0  0  0
  -27.2010  -26.9910   20.1970 C   0  0  0  0  0  0  0  0  0  0  0  0
  -23.4580  -30.4950   21.5710 C   0  0  0  0  0  3  0  0  0  0  0  0
  -24.9030  -28.8840   20.1460 C   0  0  0  0  0  0  0  0  0  0  0  0
  -26.0240  -30.6990   21.4220 C   0  0  0  0  0  2  0  0  0  0  0  0
  -26.0910  -29.2860   20.7690 C   0  0  0  0  0  0  0  0  0  0  0  0
  -27.2310  -28.3600   20.7710 C   0  0  0  0  0  3  0  0  0  0  0  0
  -25.9870  -26.7470   19.5160 C   0  0  0  0  0  3  0  0  0  0  0  0
  -24.8780  -27.6360   19.4980 C   0  0  0  0  0  3  0  0  0  0  0  0
  -23.6850  -29.8070   20.1950 C   0  0  0  0  0  2  0  0  0  0  0  0
  -24.7340  -31.0580   22.1190 N   0  0  0  0  0  0  0  0  0  0  0  0
  -23.5660  -32.1860   23.7270 O   0  0  0  0  0  0  0  0  0  0  0  0
  -22.7610  -29.5050   22.5400 C   0  0  0  0  0  0  0  0  0  0  0  0
  -21.4300  -29.3450   22.4210 N   0  0  0  0  0  0  0  0  0  0  0  0
  -23.4270  -28.8790   23.3700 O   0  0  0  0  0  0  0  0  0  0  0  0
  -20.9460  -29.9010   21.7300 H   0  0  0  0  0  0  0  0  0  0  0  0
  -18.0450  -28.1460   22.9430 C   0  0  0  0  0  0  0  0  0  0  0  0
  -20.6070  -28.4100   23.1960 C   0  0  0  0  0  3  0  0  0  0  0  0
  -20.7040  -26.9770   22.6230 C   0  0  0  0  0  2  0  0  0  0  0  0
  -19.5970  -26.6550   21.6120 C   0  0  0  0  0  2  0  0  0  0  0  0
  -18.2190  -26.7990   22.2630 C   0  0  0  0  0  2  0  0  0  0  0  0
  -19.1660  -28.9100   23.3670 C   0  0  0  0  0  0  0  0  0  0  0  0
  -18.9470  -30.1680   23.9670 C   0  0  0  0  0  3  0  0  0  0  0  0
  -17.6420  -30.6650   24.1450 C   0  0  0  0  0  3  0  0  0  0  0  0
  -16.5370  -29.8990   23.7350 C   0  0  0  0  0  3  0  0  0  0  0  0
  -16.7390  -28.6410   23.1400 C   0  0  0  0  0  3  0  0  0  0  0  0
  -25.9250  -32.5380   23.8360 C   0  0  0  0  0  3  0  0  0  0  0  0
  -26.4280  -31.7790   25.1280 C   0  0  1  0  0  0  0  0  0  0  0  0
  -25.3230  -31.5570   26.1900 C   0  0  0  0  0  1  0  0  0  0  0  0
  -27.0090  -30.3950   24.7650 C   0  0  0  0  0  1  0  0  0  0  0  0
  -27.5760  -32.5770   25.7910 C   0  0  0  0  0  1  0  0  0  0  0  0
  -25.6100  -33.9400   24.1650 N   0  0  0  0  0  0  0  0  0  0  0  0
  -25.9370  -34.9980   23.4120 C   0  0  0  0  0  0  0  0  0  0  0  0
  -26.5980  -34.8980   22.3760 O   0  0  0  0  0  0  0  0  0  0  0  0
  -25.0200  -34.0900   24.9700 H   0  0  0  0  0  0  0  0  0  0  0  0
  -24.2080  -36.8020   23.0890 C   0  0  0  0  0  1  0  0  0  0  0  0
  -25.4590  -36.3890   23.8820 C   0  0  0  0  0  3  0  0  0  0  0  0
  -27.6030  -37.2760   24.6890 C   0  0  0  0  0  1  0  0  0  0  0  0
  -26.4910  -37.4420   23.7560 N   0  0  0  0  0  0  0  0  0  0  0  0
  -26.0880  -38.3630   23.9030 H   0  0  0  0  0  0  0  0  0  0  0  0
  1 50  1  0
  1  2  1  0
  2  3  1  0
  3  6  1  0
  3  5  1  0
  4  2  2  0
  7  9  2  0
  8  7  1  0
  8  1  1  0
 10  8  1  0
 11 20  1  0
 11  7  1  0
 12 20  1  0
 13 18  1  0
 14 15  1  0
 14 13  1  0
 16 15  1  0
 16 25  1  0
 16 17  1  0
 18 12  1  0
 18 17  1  0
 19 12  2  0
 20 21  1  0
 22 23  2  0
 23 42  1  0
 24 23  1  0
 24 27  1  0
 25 26  1  0
 25 22  1  0
 26 24  2  0
 27 28  1  0
 28 29  2  0
 30 33  1  0
 30 29  1  0
 31 30  2  0
 32 31  1  0
 32 27  2  0
 33 34  1  0
 34 35  1  0
 35 36  2  0
 37 36  1  0
 37 41  1  0
 38 37  2  0
 39 34  2  0
 39 38  1  0
 40 39  1  0
 42 43  1  0
 43 46  1  0
 43 45  1  0
 44 42  2  0
 47 22  1  0
 47 48  1  0
 49 47  1  0
 50 51  1  0
 52 63  2  0
 53 51  1  0
 53 58  1  0
 54 62  1  0
 54 64  1  0
 55 61  1  0
 55 57  1  0
 56 62  1  0
 57 58  2  0
 57 56  1  0
 59 53  2  0
 60 59  1  0
 60 55  2  0
 61 54  1  0
 62 52  1  0
 64 66  2  0
 65 64  1  0
 67 65  1  0
 68 77  2  0
 68 73  1  0
 69 65  1  0
 69 73  1  0
 70 69  1  0
 71 72  1  0
 71 70  1  0
 72 68  1  0
 73 74  2  0
 74 75  1  0
 76 75  2  0
 77 76  1  0
 78 52  1  0
 78 83  1  0
 78 79  1  0
 79 82  1  1
 79 80  1  0
 81 79  1  0
 83 86  1  0
 84 88  1  0
 84 83  1  0
 85 84  2  0
 88 87  1  0
 90 88  1  0
 90 91  1  0
 90 89  1  0
M  ISO  4  12 100  20 100  50 101  51 101
M  END
>  <TORSDO>  (85) 
F 20

>  <SCORE>  (85) 
-15.950

>  <name>  (85) 
86

>  <ligand_id>  (85) 
86

>  <original_smiles>  (85) 
[H]c1c([H])c([H])c2c(c1[H])C([H])([H])C([H])([H])C([H])([H])C2([H])N([H])C(=O)C1([H])N(C(=O)C([H])(N([H])C(=O)C([H])(N([H])C([H])([H])[H])C([H])([H])[H])C(C([H])([H])[H])(C([H])([H])[H])C([H])([H])[H])C([H])([H])c2c([H])c(OC([H])([H])C([H])(C(=O)N([H])[H])N([H])C(=O)C([H])([H])N([H])C(=O)N3C([H])([H])C([H])([H])C([H])([H])C([H])(n4nc(-c5c([H])c([H])c(Oc6c([H])c([H])c(F)c([H])c6F)c([H])c5[H])c(C(=O)N([H])[H])c4N([H])[H])C3([H])[H])c([H])c([H])c2C1([H])[H]

>  <smiles>  (85) 
[H]c1c([H])c([H])c2c(c1[H])C([H])([H])C([H])([H])C([H])([H])C2([H])N([H])C(=O)C1([H])N(C(=O)C([H])(N([H])C(=O)C([H])(N([H])C([H])([H])[H])C([H])([H])[H])C(C([H])([H])[H])(C([H])([H])[H])C([H])([H])[H])C([H])([H])c2c([H])c(OC([H])([H])C([H])(C(=O)N([H])[H])N([H])C(=O)C([H])([H])N([H])C(=O)N3C([H])([H])C([H])([H])C([H])([H])C([H])(n4nc(-c5c([H])c([H])c(Oc6c([H])c([H])c(F)c([H])c6F)c([H])c5[H])c(C(=O)N([H])[H])c4N([H])[H])C3([H])[H])c([H])c([H])c2C1([H])[H]

$$$$
87:0:0
     RDKit          3D

 95102  0  0  1  0  0  0  0  0999 V2000
  -28.2180  -20.6090   19.3190 C   0  0  0  0  0  2  0  0  0  0  0  0
  -29.0170  -19.6980   20.2800 C   0  0  0  0  0  2  0  0  0  0  0  0
  -29.3640  -18.3150   19.6700 C   0  0  0  0  0  2  0  0  0  0  0  0
  -30.4080  -17.5290   20.4950 C   0  0  0  0  0  2  0  0  0  0  0  0
  -30.2800  -15.9780   20.5010 C   0  0  0  0  0  3  0  0  0  0  0  0
  -31.3660  -14.2210   18.9710 C   0  0  0  0  0  0  0  0  0  0  0  0
  -30.7760  -12.0020   18.0810 C   0  0  0  0  0  2  0  0  0  0  0  0
  -29.6560  -12.1460   17.0310 C   0  0  0  0  0  2  0  0  0  0  0  0
  -28.2710  -12.1100   17.7070 C   0  0  0  0  0  2  0  0  0  0  0  0
  -28.1780  -13.0640   18.9290 C   0  0  0  0  0  3  0  0  0  0  0  0
  -29.3930  -12.8740   19.8600 C   0  0  0  0  0  2  0  0  0  0  0  0
  -30.6060  -13.0920   19.0590 N   0  0  0  0  0  0  0  0  0  0  0  0
  -32.4050  -14.2590   18.3120 O   0  0  0  0  0  0  0  0  0  0  0  0
  -30.7980  -15.4100   19.2490 N   0  0  0  0  0  0  0  0  0  0  0  0
  -31.2670  -16.1250   18.7160 H   0  0  0  0  0  0  0  0  0  0  0  0
  -26.0260  -13.8600   20.0950 C   0  0  0  0  0  0  0  0  0  0  0  0
  -24.9710  -13.1750   20.6350 C   0  0  0  0  0  0  0  0  0  0  0  0
  -25.2780  -11.7880   20.4760 C   0  0  0  0  0  0  0  0  0  0  0  0
  -26.9160  -12.8960   19.6450 N   0  0  0  0  0  0  0  0  0  0  0  0
  -26.4770  -11.6420   19.9290 N   0  0  0  0  0  0  0  0  0  0  0  0
  -24.4740  -10.5910   20.7590 C   0  0  0  0  0  0  0  0  0  0  0  0
  -24.8720   -9.6490   21.7340 C   0  0  0  0  0  3  0  0  0  0  0  0
  -24.0740   -8.5170   22.0020 C   0  0  0  0  0  3  0  0  0  0  0  0
  -22.8640   -8.3170   21.2940 C   0  0  0  0  0  0  0  0  0  0  0  0
  -22.4840   -9.2450   20.3090 C   0  0  0  0  0  3  0  0  0  0  0  0
  -23.2820  -10.3700   20.0400 C   0  0  0  0  0  3  0  0  0  0  0  0
  -22.0410   -7.2290   21.4680 O   0  0  0  0  0  0  0  0  0  0  0  0
  -21.8610   -6.6520   22.6990 C   0  0  0  0  0  0  0  0  0  0  0  0
  -21.4070   -7.3960   23.8100 C   0  0  0  0  0  3  0  0  0  0  0  0
  -21.1690   -6.7490   25.0390 C   0  0  0  0  0  3  0  0  0  0  0  0
  -21.3740   -5.3610   25.1570 C   0  0  0  0  0  0  0  0  0  0  0  0
  -21.8220   -4.6180   24.0490 C   0  0  0  0  0  3  0  0  0  0  0  0
  -22.0620   -5.2620   22.8230 C   0  0  0  0  0  0  0  0  0  0  0  0
  -22.4730   -4.5400   21.7530 F   0  0  0  0  0  0  0  0  0  0  0  0
  -21.1400   -4.7360   26.3340 F   0  0  0  0  0  0  0  0  0  0  0  0
  -23.7040  -13.7670   21.1820 C   0  0  0  0  0  0  0  0  0  0  0  0
  -23.1620  -13.1810   22.2430 N   0  0  0  0  0  0  0  0  0  0  0  0
  -23.2110  -14.7850   20.6980 O   0  0  0  0  0  0  0  0  0  0  0  0
  -23.5850  -12.3660   22.6630 H   0  0  0  0  0  0  0  0  0  0  0  0
  -22.3190  -13.5600   22.6520 H   0  0  0  0  0  0  0  0  0  0  0  0
  -26.2970  -15.2150   19.9340 N   0  0  0  0  0  0  0  0  0  0  0  0
  -25.6280  -15.9330   20.1870 H   0  0  0  0  0  0  0  0  0  0  0  0
  -27.1040  -15.5780   19.4430 H   0  0  0  0  0  0  0  0  0  0  0  0
  -30.9230  -15.3770   21.7660 C   0  0  0  0  0  0  0  0  0  0  0  0
  -30.1670  -15.2840   22.8500 N   0  0  0  0  0  0  0  0  0  0  0  0
  -32.1000  -15.0230   21.7760 O   0  0  0  0  0  0  0  0  0  0  0  0
  -29.2060  -15.5970   22.8360 H   0  0  0  0  0  0  0  0  0  0  0  0
  -30.5530  -14.9200   23.7100 H   0  0  0  0  0  0  0  0  0  0  0  0
  -27.2360  -21.6090   19.9810 C   0  0  0  0  0  2  0  0  0  0  0  0
  -27.9540  -24.0130   19.9050 C   0  0  0  0  0  0  0  0  0  0  0  0
  -27.8430  -22.8280   20.5360 N   0  0  0  0  0  0  0  0  0  0  0  0
  -27.7900  -24.1260   18.6880 O   0  0  0  0  0  0  0  0  0  0  0  0
  -28.0190  -22.8290   21.5330 H   0  0  0  0  0  0  0  0  0  0  0  0
  -28.2530  -25.2550   20.7770 C   0  0  0  0  0  2  0  0  0  0  0  0
  -28.3090  -26.4810   20.0180 O   0  0  0  0  0  0  0  0  0  0  0  0
  -24.4930  -31.6950   23.0280 C   0  0  0  0  0  0  0  0  0  0  0  0
  -27.1510  -27.2280   20.0060 C   0  0  0  0  0  0  0  0  0  0  0  0
  -23.3060  -30.3060   21.3610 C   0  0  0  0  0  3  0  0  0  0  0  0
  -24.7730  -28.7550   19.9660 C   0  0  0  0  0  0  0  0  0  0  0  0
  -25.8370  -30.6450   21.2080 C   0  0  0  0  0  2  0  0  0  0  0  0
  -25.9250  -29.2710   20.5740 C   0  0  0  0  0  0  0  0  0  0  0  0
  -27.1200  -28.5170   20.5860 C   0  0  0  0  0  3  0  0  0  0  0  0
  -25.9830  -26.7240   19.3950 C   0  0  0  0  0  3  0  0  0  0  0  0
  -24.7980  -27.4800   19.3730 C   0  0  0  0  0  3  0  0  0  0  0  0
  -23.5350  -29.6230   19.9860 C   0  0  0  0  0  2  0  0  0  0  0  0
  -24.5640  -30.8960   21.9250 N   0  0  0  0  0  0  0  0  0  0  0  0
  -23.4040  -31.9770   23.5470 O   0  0  0  0  0  0  0  0  0  0  0  0
  -22.6270  -29.2890   22.3080 C   0  0  0  0  0  0  0  0  0  0  0  0
  -21.2920  -29.1770   22.2060 N   0  0  0  0  0  0  0  0  0  0  0  0
  -23.2960  -28.6060   23.0870 O   0  0  0  0  0  0  0  0  0  0  0  0
  -20.8160  -29.7780   21.5480 H   0  0  0  0  0  0  0  0  0  0  0  0
  -17.8670  -28.1970   22.8100 C   0  0  0  0  0  0  0  0  0  0  0  0
  -20.4460  -28.2580   22.9680 C   0  0  0  0  0  3  0  0  0  0  0  0
  -20.4180  -26.8560   22.3150 C   0  0  0  0  0  2  0  0  0  0  0  0
  -19.2500  -26.6680   21.3410 C   0  0  0  0  0  2  0  0  0  0  0  0
  -17.9140  -26.8760   22.0590 C   0  0  0  0  0  2  0  0  0  0  0  0
  -19.0570  -28.8530   23.2210 C   0  0  0  0  0  0  0  0  0  0  0  0
  -18.9590  -30.0960   23.8840 C   0  0  0  0  0  3  0  0  0  0  0  0
  -17.7030  -30.6790   24.1380 C   0  0  0  0  0  3  0  0  0  0  0  0
  -16.5280  -30.0180   23.7410 C   0  0  0  0  0  3  0  0  0  0  0  0
  -16.6120  -28.7780   23.0830 C   0  0  0  0  0  3  0  0  0  0  0  0
  -25.7730  -32.3120   23.6750 C   0  0  0  0  0  3  0  0  0  0  0  0
  -25.4490  -33.6910   24.0660 N   0  0  0  0  0  0  0  0  0  0  0  0
  -25.7550  -34.7770   23.3430 C   0  0  0  0  0  0  0  0  0  0  0  0
  -26.4120  -34.7240   22.3000 O   0  0  0  0  0  0  0  0  0  0  0  0
  -24.8640  -33.8040   24.8800 H   0  0  0  0  0  0  0  0  0  0  0  0
  -24.0070  -36.5640   23.0690 C   0  0  0  0  0  1  0  0  0  0  0  0
  -25.2530  -36.1380   23.8620 C   0  0  0  0  0  3  0  0  0  0  0  0
  -27.3710  -37.0170   24.7400 C   0  0  0  0  0  1  0  0  0  0  0  0
  -26.2740  -37.2060   23.7950 N   0  0  0  0  0  0  0  0  0  0  0  0
  -25.8560  -38.1150   23.9730 H   0  0  0  0  0  0  0  0  0  0  0  0
  -26.3030  -31.4890   24.9120 C   0  0  1  0  0  0  0  0  0  0  0  0
  -25.2120  -31.1810   25.9640 C   0  0  0  0  0  1  0  0  0  0  0  0
  -26.9100  -30.1430   24.4510 C   0  0  0  0  0  1  0  0  0  0  0  0
  -27.4370  -32.2710   25.6150 C   0  0  0  0  0  1  0  0  0  0  0  0
  1 49  1  0
  1  2  1  0
  3  2  1  0
  3  4  1  0
  5  4  1  0
  5 44  1  0
  6 12  1  0
  6 14  1  0
  7 12  1  0
  8  9  1  0
  8  7  1  0
 10  9  1  0
 10 19  1  0
 10 11  1  0
 12 11  1  0
 13  6  2  0
 14  5  1  0
 15 14  1  0
 16 17  2  0
 17 36  1  0
 18 17  1  0
 18 21  1  0
 19 20  1  0
 19 16  1  0
 20 18  2  0
 21 22  1  0
 22 23  2  0
 24 27  1  0
 24 23  1  0
 25 24  2  0
 26 25  1  0
 26 21  2  0
 27 28  1  0
 28 33  2  0
 28 29  1  0
 29 30  2  0
 30 31  1  0
 31 35  1  0
 32 31  2  0
 33 32  1  0
 34 33  1  0
 36 37  1  0
 37 40  1  0
 37 39  1  0
 38 36  2  0
 41 16  1  0
 41 42  1  0
 43 41  1  0
 44 46  2  0
 44 45  1  0
 45 48  1  0
 47 45  1  0
 49 51  1  0
 50 51  1  0
 50 54  1  0
 51 53  1  0
 52 50  2  0
 55 54  1  0
 56 67  2  0
 57 55  1  0
 57 62  1  0
 58 66  1  0
 58 68  1  0
 59 65  1  0
 59 61  1  0
 60 66  1  0
 61 62  2  0
 61 60  1  0
 63 57  2  0
 64 63  1  0
 64 59  2  0
 65 58  1  0
 66 56  1  0
 68 70  2  0
 69 68  1  0
 71 69  1  0
 72 81  2  0
 72 77  1  0
 73 69  1  0
 73 77  1  0
 74 73  1  0
 75 76  1  0
 75 74  1  0
 76 72  1  0
 77 78  2  0
 78 79  1  0
 80 79  2  0
 81 80  1  0
 82 56  1  0
 82 83  1  0
 82 92  1  0
 83 86  1  0
 84 88  1  0
 84 83  1  0
 85 84  2  0
 88 87  1  0
 90 88  1  0
 90 91  1  0
 90 89  1  0
 92 95  1  1
 92 93  1  0
 94 92  1  0
M  ISO  4   6 100  14 100  54 101  55 101
M  END
>  <TORSDO>  (86) 
F 24

>  <SCORE>  (86) 
-8.239

>  <name>  (86) 
87

>  <ligand_id>  (86) 
87

>  <original_smiles>  (86) 
[H]c1c([H])c([H])c2c(c1[H])C([H])([H])C([H])([H])C([H])([H])C2([H])N([H])C(=O)C1([H])N(C(=O)C([H])(N([H])C(=O)C([H])(N([H])C([H])([H])[H])C([H])([H])[H])C(C([H])([H])[H])(C([H])([H])[H])C([H])([H])[H])C([H])([H])c2c([H])c(OC([H])([H])C(=O)N([H])C([H])([H])C([H])([H])C([H])([H])C([H])([H])C([H])([H])C([H])(C(=O)N([H])[H])N([H])C(=O)N3C([H])([H])C([H])([H])C([H])([H])C([H])(n4nc(-c5c([H])c([H])c(Oc6c([H])c([H])c(F)c([H])c6F)c([H])c5[H])c(C(=O)N([H])[H])c4N([H])[H])C3([H])[H])c([H])c([H])c2C1([H])[H]

>  <smiles>  (86) 
[H]c1c([H])c([H])c2c(c1[H])C([H])([H])C([H])([H])C([H])([H])C2([H])N([H])C(=O)C1([H])N(C(=O)C([H])(N([H])C(=O)C([H])(N([H])C([H])([H])[H])C([H])([H])[H])C(C([H])([H])[H])(C([H])([H])[H])C([H])([H])[H])C([H])([H])c2c([H])c(OC([H])([H])C(=O)N([H])C([H])([H])C([H])([H])C([H])([H])C([H])([H])C([H])([H])C([H])(C(=O)N([H])[H])N([H])C(=O)N3C([H])([H])C([H])([H])C([H])([H])C([H])(n4nc(-c5c([H])c([H])c(Oc6c([H])c([H])c(F)c([H])c6F)c([H])c5[H])c(C(=O)N([H])[H])c4N([H])[H])C3([H])[H])c([H])c([H])c2C1([H])[H]

$$$$
88:0:0
     RDKit          3D

 96103  0  0  1  0  0  0  0  0999 V2000
  -32.6930  -25.1420   16.0650 C   0  0  0  0  0  0  0  0  0  0  0  0
  -31.4490  -25.3750   16.4990 N   0  0  0  0  0  0  0  0  0  0  0  0
  -33.6090  -25.9560   16.1840 O   0  0  0  0  0  0  0  0  0  0  0  0
  -30.7670  -24.6430   16.3430 H   0  0  0  0  0  0  0  0  0  0  0  0
  -31.0190  -26.5320   17.2800 C   0  0  0  0  0  2  0  0  0  0  0  0
  -29.8620  -26.1450   18.2170 C   0  0  0  0  0  2  0  0  0  0  0  0
  -29.4120  -27.2790   19.1500 C   0  0  0  0  0  2  0  0  0  0  0  0
  -28.4060  -26.7540   20.0130 O   0  0  0  0  0  0  0  0  0  0  0  0
  -24.6080  -31.8730   23.2090 C   0  0  0  0  0  0  0  0  0  0  0  0
  -27.2490  -27.4870   20.0690 C   0  0  0  0  0  0  0  0  0  0  0  0
  -23.3930  -30.4940   21.5490 C   0  0  0  0  0  3  0  0  0  0  0  0
  -24.8470  -28.9580   20.1200 C   0  0  0  0  0  0  0  0  0  0  0  0
  -25.9190  -30.8510   21.3570 C   0  0  0  0  0  2  0  0  0  0  0  0
  -26.0030  -29.4870   20.7080 C   0  0  0  0  0  0  0  0  0  0  0  0
  -27.2100  -28.7580   20.6830 C   0  0  0  0  0  3  0  0  0  0  0  0
  -26.0750  -26.9480   19.5080 C   0  0  0  0  0  3  0  0  0  0  0  0
  -24.8740  -27.6840   19.5220 C   0  0  0  0  0  3  0  0  0  0  0  0
  -23.6030  -29.8180   20.1660 C   0  0  0  0  0  2  0  0  0  0  0  0
  -24.6570  -31.0860   22.0970 N   0  0  0  0  0  0  0  0  0  0  0  0
  -23.5280  -32.1470   23.7500 O   0  0  0  0  0  0  0  0  0  0  0  0
  -22.7380  -29.4670   22.5000 C   0  0  0  0  0  0  0  0  0  0  0  0
  -21.4120  -29.3020   22.3740 N   0  0  0  0  0  0  0  0  0  0  0  0
  -23.4180  -28.8250   23.3050 O   0  0  0  0  0  0  0  0  0  0  0  0
  -20.9260  -29.8790   21.7010 H   0  0  0  0  0  0  0  0  0  0  0  0
  -18.0280  -28.1350   22.8470 C   0  0  0  0  0  0  0  0  0  0  0  0
  -20.5870  -28.3620   23.1310 C   0  0  0  0  0  3  0  0  0  0  0  0
  -20.6770  -26.9350   22.5410 C   0  0  0  0  0  2  0  0  0  0  0  0
  -19.5750  -26.6340   21.5180 C   0  0  0  0  0  2  0  0  0  0  0  0
  -18.1920  -26.7880   22.1600 C   0  0  0  0  0  2  0  0  0  0  0  0
  -19.1530  -28.8800   23.2900 C   0  0  0  0  0  0  0  0  0  0  0  0
  -18.9460  -30.1420   23.8870 C   0  0  0  0  0  3  0  0  0  0  0  0
  -17.6460  -30.6550   24.0550 C   0  0  0  0  0  3  0  0  0  0  0  0
  -16.5350  -29.9040   23.6320 C   0  0  0  0  0  3  0  0  0  0  0  0
  -16.7270  -28.6480   23.0300 C   0  0  0  0  0  3  0  0  0  0  0  0
  -25.8990  -32.4850   23.8400 C   0  0  0  0  0  3  0  0  0  0  0  0
  -25.5870  -33.8650   24.2350 N   0  0  0  0  0  0  0  0  0  0  0  0
  -25.9030  -34.9490   23.5140 C   0  0  0  0  0  0  0  0  0  0  0  0
  -26.5580  -34.8920   22.4690 O   0  0  0  0  0  0  0  0  0  0  0  0
  -25.0080  -33.9850   25.0540 H   0  0  0  0  0  0  0  0  0  0  0  0
  -24.1500  -36.7300   23.2640 C   0  0  0  0  0  1  0  0  0  0  0  0
  -25.4110  -36.3120   24.0360 C   0  0  0  0  0  3  0  0  0  0  0  0
  -27.5580  -37.1800   24.8480 C   0  0  0  0  0  1  0  0  0  0  0  0
  -26.4300  -37.3790   23.9420 N   0  0  0  0  0  0  0  0  0  0  0  0
  -26.0200  -38.2870   24.1370 H   0  0  0  0  0  0  0  0  0  0  0  0
  -26.4440  -31.6590   25.0700 C   0  0  1  0  0  0  0  0  0  0  0  0
  -25.3720  -31.3650   26.1460 C   0  0  0  0  0  1  0  0  0  0  0  0
  -27.0290  -30.3060   24.5990 C   0  0  0  0  0  1  0  0  0  0  0  0
  -27.6040  -32.4280   25.7460 C   0  0  0  0  0  1  0  0  0  0  0  0
  -32.9550  -23.7740   15.4370 C   0  0  0  0  0  2  0  0  0  0  0  0
  -33.6880  -22.8070   16.3870 C   0  0  0  0  0  2  0  0  0  0  0  0
  -32.9270  -22.5150   17.6920 C   0  0  0  0  0  2  0  0  0  0  0  0
  -33.5000  -21.3120   18.4500 C   0  0  0  0  0  2  0  0  0  0  0  0
  -32.6510  -20.9310   19.6710 C   0  0  0  0  0  2  0  0  0  0  0  0
  -33.0020  -19.5360   20.1940 C   0  0  0  0  0  2  0  0  0  0  0  0
  -32.0750  -19.0670   21.3210 C   0  0  0  0  0  2  0  0  0  0  0  0
  -32.2880  -17.5750   21.5850 C   0  0  0  0  0  2  0  0  0  0  0  0
  -31.4270  -17.0210   22.7230 C   0  0  0  0  0  2  0  0  0  0  0  0
  -31.5590  -15.4950   22.8640 C   0  0  0  0  0  2  0  0  0  0  0  0
  -30.8390  -14.2740   20.7820 C   0  0  0  0  0  0  0  0  0  0  0  0
  -30.4070  -12.2900   19.3860 C   0  0  0  0  0  2  0  0  0  0  0  0
  -29.4760  -12.5350   18.1900 C   0  0  0  0  0  2  0  0  0  0  0  0
  -28.0060  -12.3710   18.6110 C   0  0  0  0  0  2  0  0  0  0  0  0
  -27.6630  -13.2030   19.8720 C   0  0  0  0  0  3  0  0  0  0  0  0
  -28.6950  -12.9700   20.9960 C   0  0  0  0  0  2  0  0  0  0  0  0
  -30.0490  -13.2200   20.4650 N   0  0  0  0  0  0  0  0  0  0  0  0
  -31.7880  -14.6440   20.0870 O   0  0  0  0  0  0  0  0  0  0  0  0
  -30.6290  -14.7420   22.0210 N   0  0  0  0  0  0  0  0  0  0  0  0
  -29.8340  -14.3420   22.4960 H   0  0  0  0  0  0  0  0  0  0  0  0
  -25.2590  -13.8170   20.5640 C   0  0  0  0  0  0  0  0  0  0  0  0
  -24.1830  -13.0450   20.9160 C   0  0  0  0  0  0  0  0  0  0  0  0
  -24.6390  -11.6920   20.8740 C   0  0  0  0  0  0  0  0  0  0  0  0
  -26.3020  -12.9330   20.3310 N   0  0  0  0  0  0  0  0  0  0  0  0
  -25.9310  -11.6500   20.5730 N   0  0  0  0  0  0  0  0  0  0  0  0
  -23.9060  -10.4300   21.0410 C   0  0  0  0  0  0  0  0  0  0  0  0
  -24.3610   -9.4220   21.9190 C   0  0  0  0  0  3  0  0  0  0  0  0
  -23.6300   -8.2250   22.0760 C   0  0  0  0  0  3  0  0  0  0  0  0
  -22.4280   -8.0280   21.3540 C   0  0  0  0  0  0  0  0  0  0  0  0
  -21.9910   -9.0260   20.4650 C   0  0  0  0  0  3  0  0  0  0  0  0
  -22.7240  -10.2140   20.3060 C   0  0  0  0  0  3  0  0  0  0  0  0
  -21.6650   -6.8880   21.4240 O   0  0  0  0  0  0  0  0  0  0  0  0
  -21.6860   -6.0730   22.5280 C   0  0  0  0  0  0  0  0  0  0  0  0
  -21.4020   -6.5650   23.8210 C   0  0  0  0  0  3  0  0  0  0  0  0
  -21.3660   -5.6800   24.9170 C   0  0  0  0  0  3  0  0  0  0  0  0
  -21.6050   -4.3070   24.7230 C   0  0  0  0  0  0  0  0  0  0  0  0
  -21.8820   -3.8150   23.4350 C   0  0  0  0  0  3  0  0  0  0  0  0
  -21.9200   -4.6960   22.3410 C   0  0  0  0  0  0  0  0  0  0  0  0
  -22.1660   -4.2150   21.0980 F   0  0  0  0  0  0  0  0  0  0  0  0
  -21.5630   -3.4550   25.7740 F   0  0  0  0  0  0  0  0  0  0  0  0
  -22.7870  -13.5260   21.1820 C   0  0  0  0  0  0  0  0  0  0  0  0
  -22.0520  -12.8250   22.0380 N   0  0  0  0  0  0  0  0  0  0  0  0
  -22.3560  -14.5570   20.6680 O   0  0  0  0  0  0  0  0  0  0  0  0
  -22.4140  -11.9890   22.4740 H   0  0  0  0  0  0  0  0  0  0  0  0
  -21.1130  -13.1260   22.2600 H   0  0  0  0  0  0  0  0  0  0  0  0
  -25.4340  -15.1870   20.4070 N   0  0  0  0  0  0  0  0  0  0  0  0
  -24.6740  -15.8490   20.5230 H   0  0  0  0  0  0  0  0  0  0  0  0
  -26.3000  -15.6250   20.1160 H   0  0  0  0  0  0  0  0  0  0  0  0
  1  3  2  0
  1  2  1  0
  2  5  1  0
  4  2  1  0
  5  6  1  0
  6  7  1  0
  7  8  1  0
  8 10  1  0
  9 20  2  0
 10 15  1  0
 11 19  1  0
 11 21  1  0
 12 18  1  0
 12 14  1  0
 13 19  1  0
 14 13  1  0
 15 14  2  0
 16 17  1  0
 16 10  2  0
 17 12  2  0
 18 11  1  0
 19  9  1  0
 21 23  2  0
 22 21  1  0
 24 22  1  0
 25 34  2  0
 25 30  1  0
 26 22  1  0
 26 30  1  0
 27 26  1  0
 28 29  1  0
 28 27  1  0
 29 25  1  0
 30 31  2  0
 31 32  1  0
 33 32  2  0
 34 33  1  0
 35  9  1  0
 35 36  1  0
 35 45  1  0
 36 39  1  0
 37 41  1  0
 37 36  1  0
 38 37  2  0
 41 40  1  0
 43 41  1  0
 43 44  1  0
 43 42  1  0
 45 48  1  1
 45 46  1  0
 47 45  1  0
 49  1  1  0
 49 50  1  0
 50 51  1  0
 51 52  1  0
 52 53  1  0
 53 54  1  0
 54 55  1  0
 55 56  1  0
 56 57  1  0
 57 58  1  0
 59 67  1  0
 60 65  1  0
 61 62  1  0
 61 60  1  0
 63 62  1  0
 63 72  1  0
 63 64  1  0
 65 59  1  0
 65 64  1  0
 66 59  2  0
 67 68  1  0
 67 58  1  0
 69 70  2  0
 70 89  1  0
 71 70  1  0
 71 74  1  0
 72 69  1  0
 72 73  1  0
 73 71  2  0
 74 75  1  0
 75 76  2  0
 77 80  1  0
 77 76  1  0
 78 77  2  0
 79 78  1  0
 79 74  2  0
 80 81  1  0
 81 82  1  0
 82 83  2  0
 84 83  1  0
 84 88  1  0
 85 84  2  0
 86 81  2  0
 86 85  1  0
 87 86  1  0
 89 90  1  0
 90 93  1  0
 90 92  1  0
 91 89  2  0
 94 95  1  0
 94 69  1  0
 96 94  1  0
M  ISO  4   7 101   8 101  59 100  67 100
M  END
>  <TORSDO>  (87) 
F 29

>  <SCORE>  (87) 
-8.090

>  <name>  (87) 
88

>  <ligand_id>  (87) 
88

>  <original_smiles>  (87) 
[H]c1c([H])c([H])c2c(c1[H])C([H])([H])C([H])([H])C([H])([H])C2([H])N([H])C(=O)C1([H])N(C(=O)C([H])(N([H])C(=O)C([H])(N([H])C([H])([H])[H])C([H])([H])[H])C(C([H])([H])[H])(C([H])([H])[H])C([H])([H])[H])C([H])([H])c2c([H])c(OC([H])([H])C([H])([H])C([H])([H])N([H])C(=O)C([H])([H])C([H])([H])C([H])([H])C([H])([H])C([H])([H])C([H])([H])C([H])([H])C([H])([H])C([H])([H])C([H])([H])N([H])C(=O)N3C([H])([H])C([H])([H])C([H])([H])C([H])(n4nc(-c5c([H])c([H])c(Oc6c([H])c([H])c(F)c([H])c6F)c([H])c5[H])c(C(=O)N([H])[H])c4N([H])[H])C3([H])[H])c([H])c([H])c2C1([H])[H]

>  <smiles>  (87) 
[H]c1c([H])c([H])c2c(c1[H])C([H])([H])C([H])([H])C([H])([H])C2([H])N([H])C(=O)C1([H])N(C(=O)C([H])(N([H])C(=O)C([H])(N([H])C([H])([H])[H])C([H])([H])[H])C(C([H])([H])[H])(C([H])([H])[H])C([H])([H])[H])C([H])([H])c2c([H])c(OC([H])([H])C([H])([H])C([H])([H])N([H])C(=O)C([H])([H])C([H])([H])C([H])([H])C([H])([H])C([H])([H])C([H])([H])C([H])([H])C([H])([H])C([H])([H])C([H])([H])N([H])C(=O)N3C([H])([H])C([H])([H])C([H])([H])C([H])(n4nc(-c5c([H])c([H])c(Oc6c([H])c([H])c(F)c([H])c6F)c([H])c5[H])c(C(=O)N([H])[H])c4N([H])[H])C3([H])[H])c([H])c([H])c2C1([H])[H]

$$$$
89:0:0
     RDKit          3D

 90 88  0  0  1  0  0  0  0  0999 V2000
  -21.9390  -28.4660   20.7670 C   0  0  0  0  0  1  0  0  0  0  0  0
  -21.1970  -29.3570   19.7930 N   0  0  0  0  0  4  0  0  0  0  0  0
  -21.6260  -29.8820   19.0310 H   0  0  0  0  0  0  0  0  0  0  0  0
  -20.7120  -30.0320   20.3660 H   0  0  0  0  0  0  0  0  0  0  0  0
  -20.4520  -28.7880   19.3990 H   0  0  0  0  0  0  0  0  0  0  0  0
  -22.8250  -26.5100   19.8840 C   0  0  0  0  0 15  0  0  0  0  0  0
  -23.7800  -24.5490   20.2080 C   0  0  0  0  0 15  0  0  0  0  0  0
  -25.3320  -23.0090   19.9310 C   0  0  0  0  0 15  0  0  0  0  0  0
  -26.0740  -20.9250   19.8480 C   0  0  0  0  0 15  0  0  0  0  0  0
  -27.7020  -19.4240   19.9740 C   0  0  0  0  0 15  0  0  0  0  0  0
  -29.5810  -16.3020   19.8810 C   0  0  0  0  0  0  0  0  0  0  0  0
  -30.4340  -13.7000   19.1970 C   0  0  0  0  0  2  0  0  0  0  0  0
  -29.6920  -12.9000   18.0770 C   0  0  0  0  0  2  0  0  0  0  0  0
  -28.3430  -12.3660   18.5770 C   0  0  0  0  0  2  0  0  0  0  0  0
  -27.7120  -13.4010   19.5270 C   0  0  0  0  0  3  0  0  0  0  0  0
  -28.6350  -13.9120   20.6270 C   0  0  0  0  0  2  0  0  0  0  0  0
  -29.5280  -14.7910   19.8850 N   0  0  0  0  0  0  0  0  0  0  0  0
  -30.8380  -16.4150   19.7040 O   0  0  0  0  0  0  0  0  0  0  0  0
  -28.3780  -17.5320   19.9300 N   0  0  0  0  0  2  0  0  0  0  0  0
  -27.5290  -16.9960   20.0530 H   0  0  0  0  0  0  0  0  0  0  0  0
  -25.4540  -13.9480   20.4200 C   0  0  0  0  0  0  0  0  0  0  0  0
  -24.4180  -13.1720   20.8430 C   0  0  0  0  0  0  0  0  0  0  0  0
  -24.8750  -11.8240   20.7620 C   0  0  0  0  0  0  0  0  0  0  0  0
  -26.4480  -13.0550   20.0870 N   0  0  0  0  0  0  0  0  0  0  0  0
  -26.1380  -11.7740   20.3660 N   0  0  0  0  0  0  0  0  0  0  0  0
  -24.1520  -10.5670   20.9600 C   0  0  0  0  0  0  0  0  0  0  0  0
  -24.5960   -9.5970   21.8820 C   0  0  0  0  0  3  0  0  0  0  0  0
  -23.8640   -8.4030   22.0690 C   0  0  0  0  0  3  0  0  0  0  0  0
  -22.6840   -8.1750   21.3220 C   0  0  0  0  0  0  0  0  0  0  0  0
  -22.2640   -9.1340   20.3830 C   0  0  0  0  0  3  0  0  0  0  0  0
  -22.9960  -10.3160   20.1970 C   0  0  0  0  0  3  0  0  0  0  0  0
  -21.9230   -7.0380   21.4160 O   0  0  0  0  0  0  0  0  0  0  0  0
  -21.8410   -6.3260   22.5860 C   0  0  0  0  0  0  0  0  0  0  0  0
  -21.4050   -6.9190   23.7910 C   0  0  0  0  0  3  0  0  0  0  0  0
  -21.2720   -6.1330   24.9530 C   0  0  0  0  0  3  0  0  0  0  0  0
  -21.5620   -4.7560   24.9090 C   0  0  0  0  0  0  0  0  0  0  0  0
  -21.9900   -4.1640   23.7090 C   0  0  0  0  0  3  0  0  0  0  0  0
  -22.1270   -4.9470   22.5490 C   0  0  0  0  0  0  0  0  0  0  0  0
  -22.5220   -4.3680   21.3890 F   0  0  0  0  0  0  0  0  0  0  0  0
  -21.4240   -4.0010   26.0220 F   0  0  0  0  0  0  0  0  0  0  0  0
  -23.0440  -13.6660   21.1740 C   0  0  0  0  0  0  0  0  0  0  0  0
  -22.3510  -12.9700   22.0670 N   0  0  0  0  0  0  0  0  0  0  0  0
  -22.6090  -14.7030   20.6840 O   0  0  0  0  0  0  0  0  0  0  0  0
  -22.7330  -12.1330   22.4820 H   0  0  0  0  0  0  0  0  0  0  0  0
  -21.4310  -13.2830   22.3410 H   0  0  0  0  0  0  0  0  0  0  0  0
  -25.6230  -15.3220   20.2520 N   0  0  0  0  0  0  0  0  0  0  0  0
  -24.7870  -15.8970   20.3320 H   0  0  0  0  0  0  0  0  0  0  0  0
  -26.2550  -15.6620   19.5430 H   0  0  0  0  0  0  0  0  0  0  0  0
  -22.9190  -29.5550   22.8620 C   0  0  0  0  0 15  0  0  0  0  0  0
  -25.1790  -28.8920   22.8730 O   0  0  0  0  0  1  0  0  0  0  0  0
  -24.6360  -31.6050   22.8660 C   0  0  0  0  0  0  0  0  0  0  0  0
  -26.2000  -28.0090   21.9800 C   0  0  0  0  0  3  0  0  0  0  0  0
  -24.0490  -29.2190   20.9950 C   0  0  0  0  0  2  0  0  0  0  0  0
  -25.5440  -28.7280   19.6500 C   0  0  0  0  0  3  0  0  0  0  0  0
  -26.0450  -30.8760   20.9700 C   0  0  0  0  0  2  0  0  0  0  0  0
  -26.4490  -29.5010   20.4770 C   0  0  0  0  0  3  0  0  0  0  0  0
  -27.1900  -28.7900   21.4180 C   0  0  0  0  0  2  0  0  0  0  0  0
  -25.9750  -26.9210   21.0040 C   0  0  0  0  0  2  0  0  0  0  0  0
  -25.6070  -27.3290   19.7170 C   0  0  0  0  0  2  0  0  0  0  0  0
  -24.1880  -29.2120   19.5190 C   0  0  0  0  0  2  0  0  0  0  0  0
  -24.7270  -30.7710   21.6130 N   0  0  0  0  0  0  0  0  0  0  0  0
  -23.5680  -31.9900   23.4040 O   0  0  0  0  0  0  0  0  0  0  0  0
  -23.5270  -27.3400   22.3720 C   0  0  0  0  0  2  0  0  0  0  0  0
  -22.1890  -27.2520   23.1020 N   0  0  0  0  0  0  0  0  0  0  0  0
  -24.0250  -27.0550   23.4310 O   0  0  0  0  0  1  0  0  0  0  0  0
  -22.5490  -26.8060   23.9290 H   0  0  0  0  0  0  0  0  0  0  0  0
  -18.0390  -27.8470   22.7320 C   0  0  0  0  0  0  0  0  0  0  0  0
  -20.6010  -27.4110   23.2770 C   0  0  0  0  0  3  0  0  0  0  0  0
  -20.2840  -26.1200   22.5590 C   0  0  0  0  0  2  0  0  0  0  0  0
  -19.2690  -26.1560   21.4060 C   0  0  0  0  0  2  0  0  0  0  0  0
  -17.9900  -26.4420   22.1450 C   0  0  0  0  0  2  0  0  0  0  0  0
  -19.2930  -28.4450   23.1700 C   0  0  0  0  0  0  0  0  0  0  0  0
  -19.1300  -29.7860   23.6850 C   0  0  0  0  0  3  0  0  0  0  0  0
  -17.8450  -30.4160   23.7760 C   0  0  0  0  0  3  0  0  0  0  0  0
  -16.6660  -29.7640   23.3870 C   0  0  0  0  0  3  0  0  0  0  0  0
  -16.7730  -28.4780   22.8550 C   0  0  0  0  0  3  0  0  0  0  0  0
  -25.8080  -32.2380   23.7790 C   0  0  0  0  0  3  0  0  0  0  0  0
  -26.0930  -31.5610   25.2330 C   0  0  1  0  0  0  0  0  0  0  0  0
  -24.8350  -31.4210   26.1530 C   0  0  0  0  0  1  0  0  0  0  0  0
  -26.6870  -30.1300   25.1940 C   0  0  0  0  0  1  0  0  0  0  0  0
  -27.2280  -32.3420   25.9880 C   0  0  0  0  0  1  0  0  0  0  0  0
  -25.4530  -33.6550   24.1120 N   0  0  0  0  0  0  0  0  0  0  0  0
  -25.8130  -34.7390   23.4100 C   0  0  0  0  0  0  0  0  0  0  0  0
  -26.5380  -34.6540   22.4190 O   0  0  0  0  0  0  0  0  0  0  0  0
  -24.8610  -33.7730   24.9230 H   0  0  0  0  0  0  0  0  0  0  0  0
  -24.0900  -36.5450   23.0250 C   0  0  0  0  0  1  0  0  0  0  0  0
  -25.3110  -36.1310   23.8670 C   0  0  0  0  0  3  0  0  0  0  0  0
  -27.4110  -37.0780   24.7470 C   0  0  0  0  0  1  0  0  0  0  0  0
  -26.3320  -37.2010   23.7700 N   0  0  0  0  0  0  0  0  0  0  0  0
  -25.9010  -38.1190   23.8810 H   0  0  0  0  0  0  0  0  0  0  0  0
  2  4  1  0
  2  1  1  0
  3  2  1  0
  5  2  1  0
 11 17  1  0
 11 19  1  0
 12 17  1  0
 13 14  1  0
 13 12  1  0
 15 14  1  0
 15 24  1  0
 15 16  1  0
 17 16  1  0
 18 11  2  0
 19 20  1  0
 21 22  2  0
 22 41  1  0
 23 22  1  0
 23 26  1  0
 24 25  1  0
 24 21  1  0
 25 23  2  0
 26 27  1  0
 27 28  2  0
 29 32  1  0
 29 28  1  0
 30 29  2  0
 31 30  1  0
 31 26  2  0
 32 33  1  0
 33 34  1  0
 34 35  2  0
 36 35  1  0
 36 40  1  0
 37 36  2  0
 38 33  2  0
 38 37  1  0
 39 38  1  0
 41 42  1  0
 42 45  1  0
 42 44  1  0
 43 41  2  0
 46 47  1  0
 46 21  1  0
 48 46  1  0
 51 62  2  0
 52 50  1  0
 53 61  1  0
 54 60  1  0
 54 59  1  0
 54 56  1  0
 55 61  1  0
 56 55  1  0
 56 57  1  0
 57 52  1  0
 58 52  1  0
 59 58  1  0
 60 53  1  0
 61 51  1  0
 63 64  1  0
 63 65  1  0
 64 66  1  0
 67 76  2  0
 67 72  1  0
 68 64  1  0
 69 68  1  0
 70 71  1  0
 70 69  1  0
 71 67  1  0
 72 68  1  0
 72 73  2  0
 73 74  1  0
 75 74  2  0
 76 75  1  0
 77 51  1  0
 77 82  1  0
 77 78  1  0
 78 81  1  1
 78 79  1  0
 80 78  1  0
 82 85  1  0
 83 87  1  0
 83 82  1  0
 84 83  2  0
 87 86  1  0
 89 87  1  0
 89 90  1  0
 89 88  1  0
M  ISO  4  11 100  19 100  49 101  50 101
M  END
>  <TORSDO>  (88) 
F 23

>  <SCORE>  (88) 
-13.380

>  <name>  (88) 
89

>  <ligand_id>  (88) 
89

>  <original_smiles>  (88) 
[H]c1c([H])c([H])c2c(c1[H])C([H])([H])C([H])([H])C([H])([H])C2([H])N([H])C(=O)C1([H])N(C(=O)C([H])(N([H])C(=O)C([H])(N([H])C([H])([H])[H])C([H])([H])[H])C(C([H])([H])[H])(C([H])([H])[H])C([H])([H])[H])C([H])([H])c2c([H])c(OC([H])([H])C([H])(C([H])([H])C([H])([H])C([H])([H])C([H])([H])C([H])([H])N([H])C(=O)N3C([H])([H])C([H])([H])C([H])([H])C([H])(n4nc(-c5c([H])c([H])c(Oc6c([H])c([H])c(F)c([H])c6F)c([H])c5[H])c(C(=O)N([H])[H])c4N([H])[H])C3([H])[H])[N+]([H])([H])[H])c([H])c([H])c2C1([H])[H]

>  <smiles>  (88) 
[H]c1c([H])c([H])c2c(c1[H])C([H])([H])C([H])([H])C([H])([H])C2([H])N([H])C(=O)C1([H])N(C(=O)C([H])(N([H])C(=O)C([H])(N([H])C([H])([H])[H])C([H])([H])[H])C(C([H])([H])[H])(C([H])([H])[H])C([H])([H])[H])C([H])([H])c2c([H])c(OC([H])([H])C([H])(C([H])([H])C([H])([H])C([H])([H])C([H])([H])C([H])([H])N([H])C(=O)N3C([H])([H])C([H])([H])C([H])([H])C([H])(n4nc(-c5c([H])c([H])c(Oc6c([H])c([H])c(F)c([H])c6F)c([H])c5[H])c(C(=O)N([H])[H])c4N([H])[H])C3([H])[H])[N+]([H])([H])[H])c([H])c([H])c2C1([H])[H]

$$$$
90:0:0
     RDKit          3D

 86 93  0  0  1  0  0  0  0  0999 V2000
  -28.5270  -21.7930   20.2500 C   0  0  0  0  0  2  0  0  0  0  0  0
  -29.5410  -20.4560   20.4130 C   0  0  0  0  0  3  0  0  0  0  0  0
  -29.0770  -18.8350   20.3940 C   0  0  0  0  0  3  0  0  0  0  0  0
  -30.5320  -14.9860   20.3110 C   0  0  0  0  0  0  0  0  0  0  0  0
  -30.3750  -12.6460   19.3630 C   0  0  0  0  0  2  0  0  0  0  0  0
  -29.4290  -12.6180   18.1410 C   0  0  0  0  0  2  0  0  0  0  0  0
  -27.9720  -12.4080   18.5910 C   0  0  0  0  0  2  0  0  0  0  0  0
  -27.5790  -13.3260   19.7790 C   0  0  0  0  0  3  0  0  0  0  0  0
  -28.6490  -13.3370   20.8910 C   0  0  0  0  0  2  0  0  0  0  0  0
  -29.9140  -13.7390   20.2650 N   0  0  0  0  0  0  0  0  0  0  0  0
  -31.7370  -15.0100   20.0380 O   0  0  0  0  0  0  0  0  0  0  0  0
  -30.1210  -17.5550   20.3810 C   0  0  0  0  0  0  0  0  0  0  0  0
  -29.7640  -16.1780   20.4400 N   0  0  0  0  0  0  0  0  0  0  0  0
  -31.3100  -17.8760   20.3010 O   0  0  0  0  0  0  0  0  0  0  0  0
  -28.7770  -16.0180   20.5600 H   0  0  0  0  0  0  0  0  0  0  0  0
  -25.2080  -13.8910   20.5580 C   0  0  0  0  0  0  0  0  0  0  0  0
  -24.1510  -13.1090   20.9330 C   0  0  0  0  0  0  0  0  0  0  0  0
  -24.6180  -11.7600   20.8810 C   0  0  0  0  0  0  0  0  0  0  0  0
  -26.2490  -13.0180   20.2930 N   0  0  0  0  0  0  0  0  0  0  0  0
  -25.9060  -11.7300   20.5540 N   0  0  0  0  0  0  0  0  0  0  0  0
  -23.8960  -10.4930   21.0630 C   0  0  0  0  0  0  0  0  0  0  0  0
  -24.3320   -9.5210   21.9900 C   0  0  0  0  0  3  0  0  0  0  0  0
  -23.6090   -8.3200   22.1620 C   0  0  0  0  0  3  0  0  0  0  0  0
  -22.4350   -8.0840   21.4080 C   0  0  0  0  0  0  0  0  0  0  0  0
  -22.0190   -9.0460   20.4700 C   0  0  0  0  0  3  0  0  0  0  0  0
  -22.7430  -10.2370   20.2960 C   0  0  0  0  0  3  0  0  0  0  0  0
  -21.6830   -6.9380   21.4890 O   0  0  0  0  0  0  0  0  0  0  0  0
  -21.6260   -6.1960   22.6420 C   0  0  0  0  0  0  0  0  0  0  0  0
  -21.1550   -6.7400   23.8560 C   0  0  0  0  0  3  0  0  0  0  0  0
  -21.0460   -5.9220   24.9990 C   0  0  0  0  0  3  0  0  0  0  0  0
  -21.3990   -4.5620   24.9290 C   0  0  0  0  0  0  0  0  0  0  0  0
  -21.8640   -4.0170   23.7190 C   0  0  0  0  0  3  0  0  0  0  0  0
  -21.9730   -4.8300   22.5770 C   0  0  0  0  0  0  0  0  0  0  0  0
  -22.4010   -4.2960   21.4090 F   0  0  0  0  0  0  0  0  0  0  0  0
  -21.2890   -3.7740   26.0240 F   0  0  0  0  0  0  0  0  0  0  0  0
  -22.7560  -13.5790   21.2250 C   0  0  0  0  0  0  0  0  0  0  0  0
  -22.0410  -12.8760   22.0950 N   0  0  0  0  0  0  0  0  0  0  0  0
  -22.3090  -14.6060   20.7160 O   0  0  0  0  0  0  0  0  0  0  0  0
  -22.4160  -12.0450   22.5280 H   0  0  0  0  0  0  0  0  0  0  0  0
  -21.1050  -13.1730   22.3320 H   0  0  0  0  0  0  0  0  0  0  0  0
  -25.3640  -15.2640   20.3920 N   0  0  0  0  0  0  0  0  0  0  0  0
  -24.5880  -15.9070   20.5110 H   0  0  0  0  0  0  0  0  0  0  0  0
  -26.1850  -15.7060   20.0040 H   0  0  0  0  0  0  0  0  0  0  0  0
  -28.9660  -23.4160   20.3720 C   0  0  0  0  0  3  0  0  0  0  0  0
  -27.9410  -24.7220   20.1070 C   0  0  0  0  0  3  0  0  0  0  0  0
  -28.2340  -26.2390   20.2740 O   0  0  0  0  0  0  0  0  0  0  0  0
  -24.6250  -31.9250   23.2500 C   0  0  0  0  0  0  0  0  0  0  0  0
  -27.1780  -27.2190   20.2080 C   0  0  0  0  0  0  0  0  0  0  0  0
  -23.4170  -30.5390   21.6100 C   0  0  0  0  0  3  0  0  0  0  0  0
  -24.8560  -28.9640   20.1800 C   0  0  0  0  0  0  0  0  0  0  0  0
  -25.9710  -30.7970   21.4410 C   0  0  0  0  0  2  0  0  0  0  0  0
  -26.0380  -29.4070   20.7870 C   0  0  0  0  0  0  0  0  0  0  0  0
  -27.2020  -28.5510   20.7830 C   0  0  0  0  0  3  0  0  0  0  0  0
  -25.9690  -26.8730   19.5640 C   0  0  0  0  0  3  0  0  0  0  0  0
  -24.8340  -27.7090   19.5530 C   0  0  0  0  0  3  0  0  0  0  0  0
  -23.6330  -29.8640   20.2300 C   0  0  0  0  0  2  0  0  0  0  0  0
  -24.6920  -31.1070   22.1550 N   0  0  0  0  0  0  0  0  0  0  0  0
  -23.5420  -32.2130   23.7790 O   0  0  0  0  0  0  0  0  0  0  0  0
  -22.7360  -29.5310   22.5700 C   0  0  0  0  0  0  0  0  0  0  0  0
  -21.4090  -29.3610   22.4380 N   0  0  0  0  0  0  0  0  0  0  0  0
  -23.4040  -28.9050   23.3970 O   0  0  0  0  0  0  0  0  0  0  0  0
  -20.9250  -29.9170   21.7460 H   0  0  0  0  0  0  0  0  0  0  0  0
  -18.0220  -28.1750   22.9370 C   0  0  0  0  0  0  0  0  0  0  0  0
  -20.5820  -28.4270   23.2080 C   0  0  0  0  0  3  0  0  0  0  0  0
  -20.6790  -26.9940   22.6330 C   0  0  0  0  0  2  0  0  0  0  0  0
  -19.5760  -26.6760   21.6170 C   0  0  0  0  0  2  0  0  0  0  0  0
  -18.1940  -26.8250   22.2590 C   0  0  0  0  0  2  0  0  0  0  0  0
  -19.1430  -28.9340   23.3680 C   0  0  0  0  0  0  0  0  0  0  0  0
  -18.9270  -30.1950   23.9620 C   0  0  0  0  0  3  0  0  0  0  0  0
  -17.6220  -30.6990   24.1300 C   0  0  0  0  0  3  0  0  0  0  0  0
  -16.5160  -29.9380   23.7140 C   0  0  0  0  0  3  0  0  0  0  0  0
  -16.7170  -28.6770   23.1240 C   0  0  0  0  0  3  0  0  0  0  0  0
  -25.9070  -32.5530   23.8770 C   0  0  0  0  0  3  0  0  0  0  0  0
  -26.4130  -31.7820   25.1590 C   0  0  1  0  0  0  0  0  0  0  0  0
  -25.3120  -31.5510   26.2210 C   0  0  0  0  0  1  0  0  0  0  0  0
  -26.9910  -30.4000   24.7760 C   0  0  0  0  0  1  0  0  0  0  0  0
  -27.5630  -32.5710   25.8240 C   0  0  0  0  0  1  0  0  0  0  0  0
  -25.6020  -33.9540   24.2100 N   0  0  0  0  0  0  0  0  0  0  0  0
  -25.9170  -35.0070   23.4430 C   0  0  0  0  0  0  0  0  0  0  0  0
  -26.5630  -34.9020   22.3970 O   0  0  0  0  0  0  0  0  0  0  0  0
  -25.0270  -34.1090   25.0240 H   0  0  0  0  0  0  0  0  0  0  0  0
  -24.1740  -36.7980   23.1440 C   0  0  0  0  0  1  0  0  0  0  0  0
  -25.4440  -36.3980   23.9130 C   0  0  0  0  0  3  0  0  0  0  0  0
  -27.6020  -37.2970   24.6680 C   0  0  0  0  0  1  0  0  0  0  0  0
  -26.4700  -37.4530   23.7570 N   0  0  0  0  0  0  0  0  0  0  0  0
  -26.0660  -38.3730   23.9080 H   0  0  0  0  0  0  0  0  0  0  0  0
  1 44  1  0
  1  2  1  0
  3  2  2  0
  4 13  1  0
  5 10  1  0
  6  7  1  0
  6  5  1  0
  8  7  1  0
  8 19  1  0
  8  9  1  0
 10  4  1  0
 10  9  1  0
 11  4  2  0
 12  3  1  0
 12 13  1  0
 13 15  1  0
 14 12  2  0
 16 17  2  0
 17 36  1  0
 18 17  1  0
 18 21  1  0
 19 20  1  0
 19 16  1  0
 20 18  2  0
 21 22  1  0
 22 23  2  0
 24 27  1  0
 24 23  1  0
 25 24  2  0
 26 25  1  0
 26 21  2  0
 27 28  1  0
 28 29  1  0
 29 30  2  0
 31 30  1  0
 31 35  1  0
 32 31  2  0
 33 28  2  0
 33 32  1  0
 34 33  1  0
 36 37  1  0
 37 40  1  0
 37 39  1  0
 38 36  2  0
 41 42  1  0
 41 16  1  0
 43 41  1  0
 45 46  1  0
 45 44  2  0
 47 58  2  0
 48 46  1  0
 48 53  1  0
 49 57  1  0
 49 59  1  0
 50 56  1  0
 50 52  1  0
 51 57  1  0
 52 51  1  0
 53 52  2  0
 54 48  2  0
 55 54  1  0
 55 50  2  0
 56 49  1  0
 57 47  1  0
 59 61  2  0
 60 59  1  0
 62 60  1  0
 63 72  2  0
 63 68  1  0
 64 60  1  0
 64 68  1  0
 65 64  1  0
 66 67  1  0
 66 65  1  0
 67 63  1  0
 68 69  2  0
 69 70  1  0
 71 70  2  0
 72 71  1  0
 73 47  1  0
 73 78  1  0
 73 74  1  0
 74 77  1  1
 74 75  1  0
 76 74  1  0
 78 81  1  0
 79 83  1  0
 79 78  1  0
 80 79  2  0
 83 82  1  0
 85 86  1  0
 85 83  1  0
 85 84  1  0
M  ISO  4   4 100  13 100  45 101  46 101
M  END
>  <TORSDO>  (89) 
F 20

>  <SCORE>  (89) 
-13.628

>  <name>  (89) 
90

>  <ligand_id>  (89) 
90

>  <original_smiles>  (89) 
[H]c1c([H])c([H])c2c(c1[H])C([H])([H])C([H])([H])C([H])([H])C2([H])N([H])C(=O)C1([H])N(C(=O)C([H])(N([H])C(=O)C([H])(N([H])C([H])([H])[H])C([H])([H])[H])C(C([H])([H])[H])(C([H])([H])[H])C([H])([H])[H])C([H])([H])c2c([H])c(OC([H])([H])C([H])([H])C([H])([H])C([H])([H])C([H])([H])C(=O)N([H])C(=O)N3C([H])([H])C([H])([H])C([H])([H])C([H])(n4nc(-c5c([H])c([H])c(Oc6c([H])c([H])c(F)c([H])c6F)c([H])c5[H])c(C(=O)N([H])[H])c4N([H])[H])C3([H])[H])c([H])c([H])c2C1([H])[H]

>  <smiles>  (89) 
[H]c1c([H])c([H])c2c(c1[H])C([H])([H])C([H])([H])C([H])([H])C2([H])N([H])C(=O)C1([H])N(C(=O)C([H])(N([H])C(=O)C([H])(N([H])C([H])([H])[H])C([H])([H])[H])C(C([H])([H])[H])(C([H])([H])[H])C([H])([H])[H])C([H])([H])c2c([H])c(OC([H])([H])C([H])([H])C([H])([H])C([H])([H])C([H])([H])C(=O)N([H])C(=O)N3C([H])([H])C([H])([H])C([H])([H])C([H])(n4nc(-c5c([H])c([H])c(Oc6c([H])c([H])c(F)c([H])c6F)c([H])c5[H])c(C(=O)N([H])[H])c4N([H])[H])C3([H])[H])c([H])c([H])c2C1([H])[H]

$$$$
91:0:0
     RDKit          3D

105112  0  0  1  0  0  0  0  0999 V2000
  -24.8820  -19.5300   18.7400 C   0  0  0  0  0  2  0  0  0  0  0  0
  -27.2930  -18.9470   18.6130 C   0  0  0  0  0  0  0  0  0  0  0  0
  -26.3060  -19.8040   18.8730 N   0  0  0  0  0  0  0  0  0  0  0  0
  -27.0850  -17.7610   18.3500 O   0  0  0  0  0  0  0  0  0  0  0  0
  -26.5640  -20.7550   19.0820 H   0  0  0  0  0  0  0  0  0  0  0  0
  -29.3350  -19.3340   17.1790 C   0  0  0  0  0  1  0  0  0  0  0  0
  -28.7190  -19.5320   18.5750 C   0  0  0  0  0  3  0  0  0  0  0  0
  -29.6450  -19.0250   19.7130 C   0  0  0  0  0  3  0  0  0  0  0  0
  -29.7700  -17.4960   19.8800 C   0  0  0  0  0  3  0  0  0  0  0  0
  -31.0050  -17.0030   20.6780 C   0  0  0  0  0  3  0  0  0  0  0  0
  -31.4340  -14.5830   20.2460 C   0  0  0  0  0  0  0  0  0  0  0  0
  -31.0820  -12.2990   19.3860 C   0  0  0  0  0  2  0  0  0  0  0  0
  -30.1530  -12.3570   18.1540 C   0  0  0  0  0  2  0  0  0  0  0  0
  -28.6680  -12.3370   18.5710 C   0  0  0  0  0  2  0  0  0  0  0  0
  -28.3520  -13.3670   19.6870 C   0  0  0  0  0  3  0  0  0  0  0  0
  -29.3810  -13.2540   20.8340 C   0  0  0  0  0  2  0  0  0  0  0  0
  -30.7360  -13.4200   20.2710 N   0  0  0  0  0  0  0  0  0  0  0  0
  -32.4780  -14.7470   19.6040 O   0  0  0  0  0  0  0  0  0  0  0  0
  -30.8490  -15.5780   20.9140 N   0  0  0  0  0  0  0  0  0  0  0  0
  -30.0710  -15.3340   21.5100 H   0  0  0  0  0  0  0  0  0  0  0  0
  -26.0620  -14.1950   20.5300 C   0  0  0  0  0  0  0  0  0  0  0  0
  -24.9140  -13.5230   20.8610 C   0  0  0  0  0  0  0  0  0  0  0  0
  -25.2000  -12.1370   20.6760 C   0  0  0  0  0  0  0  0  0  0  0  0
  -26.9830  -13.2180   20.1780 N   0  0  0  0  0  0  0  0  0  0  0  0
  -26.4650  -11.9700   20.3130 N   0  0  0  0  0  0  0  0  0  0  0  0
  -24.3230  -10.9590   20.7690 C   0  0  0  0  0  0  0  0  0  0  0  0
  -24.6260   -9.8770   21.6260 C   0  0  0  0  0  3  0  0  0  0  0  0
  -23.7600   -8.7660   21.7110 C   0  0  0  0  0  3  0  0  0  0  0  0
  -22.5760   -8.7300   20.9370 C   0  0  0  0  0  0  0  0  0  0  0  0
  -22.2900   -9.7990   20.0690 C   0  0  0  0  0  3  0  0  0  0  0  0
  -23.1550  -10.9020   19.9820 C   0  0  0  0  0  3  0  0  0  0  0  0
  -21.6910   -7.6790   20.9330 O   0  0  0  0  0  0  0  0  0  0  0  0
  -21.4890   -6.9050   22.0480 C   0  0  0  0  0  0  0  0  0  0  0  0
  -21.0480   -7.4610   23.2690 C   0  0  0  0  0  3  0  0  0  0  0  0
  -20.7850   -6.6210   24.3690 C   0  0  0  0  0  3  0  0  0  0  0  0
  -20.9520   -5.2280   24.2490 C   0  0  0  0  0  0  0  0  0  0  0  0
  -21.3830   -4.6730   23.0310 C   0  0  0  0  0  3  0  0  0  0  0  0
  -21.6470   -5.5100   21.9340 C   0  0  0  0  0  0  0  0  0  0  0  0
  -22.0430   -4.9680   20.7570 F   0  0  0  0  0  0  0  0  0  0  0  0
  -20.6930   -4.4190   25.3030 F   0  0  0  0  0  0  0  0  0  0  0  0
  -23.5960  -14.1390   21.2310 C   0  0  0  0  0  0  0  0  0  0  0  0
  -22.8200  -13.4630   22.0730 N   0  0  0  0  0  0  0  0  0  0  0  0
  -23.2620  -15.2460   20.8140 O   0  0  0  0  0  0  0  0  0  0  0  0
  -23.0970  -12.5610   22.4350 H   0  0  0  0  0  0  0  0  0  0  0  0
  -21.9370  -13.8580   22.3630 H   0  0  0  0  0  0  0  0  0  0  0  0
  -26.3870  -15.5470   20.4800 N   0  0  0  0  0  0  0  0  0  0  0  0
  -25.6900  -16.2650   20.6290 H   0  0  0  0  0  0  0  0  0  0  0  0
  -27.2400  -15.9200   20.0800 H   0  0  0  0  0  0  0  0  0  0  0  0
  -31.2270  -17.6820   22.0340 C   0  0  0  0  0  0  0  0  0  0  0  0
  -32.1290  -18.6500   22.1010 N   0  0  0  0  0  0  0  0  0  0  0  0
  -30.5840  -17.3340   23.0230 O   0  0  0  0  0  0  0  0  0  0  0  0
  -32.6600  -18.9090   21.2800 H   0  0  0  0  0  0  0  0  0  0  0  0
  -32.3020  -19.1330   22.9720 H   0  0  0  0  0  0  0  0  0  0  0  0
  -24.0070  -20.7380   19.1490 C   0  0  0  0  0  2  0  0  0  0  0  0
  -24.6720  -22.1330   19.0680 C   0  0  0  0  0  2  0  0  0  0  0  0
  -25.3450  -22.5530   20.3930 C   0  0  0  0  0  2  0  0  0  0  0  0
  -25.4820  -24.0710   20.5940 C   0  0  0  0  0  2  0  0  0  0  0  0
  -27.5220  -25.4950   20.1850 C   0  0  0  0  0  0  0  0  0  0  0  0
  -27.6950  -25.7670   21.4860 N   0  0  0  0  0  4  0  0  0  0  0  0
  -26.5400  -24.6730   19.7590 N   0  0  0  0  0  0  0  0  0  0  0  0
  -28.4590  -26.3640   21.7600 H   0  0  0  0  0  0  0  0  0  0  0  0
  -27.0960  -25.4080   22.2100 H   0  0  0  0  0  0  0  0  0  0  0  0
  -26.4580  -24.5260   18.7620 H   0  0  0  0  0  0  0  0  0  0  0  0
  -28.4640  -26.1410   19.1990 C   0  0  0  0  0  2  0  0  0  0  0  0
  -28.5740  -27.5500   19.4280 O   0  0  0  0  0  0  0  0  0  0  0  0
  -24.7440  -31.9150   23.5190 C   0  0  0  0  0  0  0  0  0  0  0  0
  -27.3880  -28.2420   19.5590 C   0  0  0  0  0  0  0  0  0  0  0  0
  -23.5230  -30.8330   21.6620 C   0  0  0  0  0  3  0  0  0  0  0  0
  -24.9680  -29.6540   19.9300 C   0  0  0  0  0  0  0  0  0  0  0  0
  -26.0340  -31.2890   21.4850 C   0  0  0  0  0  2  0  0  0  0  0  0
  -26.1320  -30.0780   20.5810 C   0  0  0  0  0  0  0  0  0  0  0  0
  -27.3470  -29.3830   20.3940 C   0  0  0  0  0  3  0  0  0  0  0  0
  -26.2060  -27.8460   18.8920 C   0  0  0  0  0  3  0  0  0  0  0  0
  -25.0010  -28.5390   19.0800 C   0  0  0  0  0  3  0  0  0  0  0  0
  -23.7110  -30.4530   20.1700 C   0  0  0  0  0  2  0  0  0  0  0  0
  -24.7870  -31.3480   22.2820 N   0  0  0  0  0  0  0  0  0  0  0  0
  -23.6740  -32.0460   24.1260 O   0  0  0  0  0  0  0  0  0  0  0  0
  -22.9220  -29.6220   22.4110 C   0  0  0  0  0  0  0  0  0  0  0  0
  -21.6030  -29.4130   22.2650 N   0  0  0  0  0  0  0  0  0  0  0  0
  -23.6390  -28.8790   23.0870 O   0  0  0  0  0  0  0  0  0  0  0  0
  -21.0810  -30.0730   21.7060 H   0  0  0  0  0  0  0  0  0  0  0  0
  -18.2970  -27.9760   22.4610 C   0  0  0  0  0  0  0  0  0  0  0  0
  -20.8330  -28.3120   22.8440 C   0  0  0  0  0  3  0  0  0  0  0  0
  -21.0200  -27.0130   22.0230 C   0  0  0  0  0  2  0  0  0  0  0  0
  -19.9540  -26.8350   20.9360 C   0  0  0  0  0  2  0  0  0  0  0  0
  -18.5610  -26.7740   21.5690 C   0  0  0  0  0  2  0  0  0  0  0  0
  -19.3640  -28.7060   23.0500 C   0  0  0  0  0  0  0  0  0  0  0  0
  -19.0650  -29.8380   23.8410 C   0  0  0  0  0  3  0  0  0  0  0  0
  -17.7310  -30.2400   24.0470 C   0  0  0  0  0  3  0  0  0  0  0  0
  -16.6790  -29.5030   23.4750 C   0  0  0  0  0  3  0  0  0  0  0  0
  -16.9620  -28.3700   22.6910 C   0  0  0  0  0  3  0  0  0  0  0  0
  -26.0320  -32.4490   24.2190 C   0  0  0  0  0  3  0  0  0  0  0  0
  -25.7670  -33.8300   24.6410 N   0  0  0  0  0  0  0  0  0  0  0  0
  -26.1860  -34.9200   23.9850 C   0  0  0  0  0  0  0  0  0  0  0  0
  -26.9060  -34.8630   22.9850 O   0  0  0  0  0  0  0  0  0  0  0  0
  -25.1400  -33.9460   25.4240 H   0  0  0  0  0  0  0  0  0  0  0  0
  -24.5760  -36.8230   23.6640 C   0  0  0  0  0  1  0  0  0  0  0  0
  -25.7340  -36.2890   24.5240 C   0  0  0  0  0  3  0  0  0  0  0  0
  -27.8410  -36.9890   25.5710 C   0  0  0  0  0  1  0  0  0  0  0  0
  -26.8210  -37.2900   24.5700 N   0  0  0  0  0  0  0  0  0  0  0  0
  -26.4510  -38.2170   24.7670 H   0  0  0  0  0  0  0  0  0  0  0  0
  -26.4810  -31.5660   25.4470 C   0  0  1  0  0  0  0  0  0  0  0  0
  -25.3530  -31.3060   26.4720 C   0  0  0  0  0  1  0  0  0  0  0  0
  -27.0090  -30.1940   24.9690 C   0  0  0  0  0  1  0  0  0  0  0  0
  -27.6550  -32.2500   26.1860 C   0  0  0  0  0  1  0  0  0  0  0  0
  1  3  1  0
  1 54  1  0
  2  3  1  0
  3  5  1  0
  4  2  2  0
  7  6  1  0
  7  2  1  0
  7  8  1  0
  8  9  2  0
 10  9  1  0
 10 19  1  0
 10 49  1  0
 11 17  1  0
 11 19  1  0
 12 17  1  0
 13 14  1  0
 13 12  1  0
 15 14  1  0
 15 24  1  0
 15 16  1  0
 17 16  1  0
 18 11  2  0
 19 20  1  0
 21 22  2  0
 22 41  1  0
 23 26  1  0
 23 22  1  0
 24 25  1  0
 24 21  1  0
 25 23  2  0
 26 27  1  0
 27 28  2  0
 29 28  1  0
 30 29  2  0
 31 30  1  0
 31 26  2  0
 32 29  1  0
 32 33  1  0
 33 34  1  0
 34 35  2  0
 36 35  1  0
 36 40  1  0
 37 36  2  0
 38 33  2  0
 38 37  1  0
 39 38  1  0
 41 42  1  0
 42 45  1  0
 42 44  1  0
 43 41  2  0
 46 21  1  0
 46 47  1  0
 48 46  1  0
 49 50  1  0
 49 51  2  0
 50 53  1  0
 52 50  1  0
 55 54  1  0
 55 56  1  0
 56 57  1  0
 58 59  2  0
 59 61  1  0
 59 62  1  0
 60 58  1  0
 60 57  1  0
 63 60  1  0
 64 65  1  0
 64 58  1  0
 65 67  1  0
 66 77  2  0
 67 72  1  0
 68 76  1  0
 68 78  1  0
 69 75  1  0
 69 71  1  0
 70 76  1  0
 71 70  1  0
 72 71  2  0
 73 74  1  0
 73 67  2  0
 74 69  2  0
 75 68  1  0
 76 66  1  0
 78 80  2  0
 79 78  1  0
 81 79  1  0
 82 91  2  0
 82 87  1  0
 83 79  1  0
 83 87  1  0
 84 83  1  0
 85 86  1  0
 85 84  1  0
 86 82  1  0
 87 88  2  0
 88 89  1  0
 90 89  2  0
 91 90  1  0
 92 66  1  0
 92 93  1  0
 92102  1  0
 93 96  1  0
 94 98  1  0
 94 93  1  0
 95 94  2  0
 98 97  1  0
 98100  1  0
100101  1  0
100 99  1  0
102105  1  1
102103  1  0
104102  1  0
M  ISO  4  11 100  19 100  64 101  65 101
M  END
>  <TORSDO>  (90) 
F 28

>  <SCORE>  (90) 
-7.028

>  <name>  (90) 
91

>  <ligand_id>  (90) 
91

>  <original_smiles>  (90) 
[H]c1c([H])c([H])c2c(c1[H])C([H])([H])C([H])([H])C([H])([H])C2([H])N([H])C(=O)C1([H])N(C(=O)C([H])(N([H])C(=O)C([H])(N([H])C([H])([H])[H])C([H])([H])[H])C(C([H])([H])[H])(C([H])([H])[H])C([H])([H])[H])C([H])([H])c2c([H])c(OC([H])([H])C(N([H])[H])=[N+]([H])C([H])([H])C([H])([H])C([H])([H])C([H])([H])C([H])([H])N([H])C(=O)C([H])(C([H])([H])[H])C([H])([H])C([H])([H])C([H])(C(=O)N([H])[H])N([H])C(=O)N3C([H])([H])C([H])([H])C([H])([H])C([H])(n4nc(-c5c([H])c([H])c(Oc6c([H])c([H])c(F)c([H])c6F)c([H])c5[H])c(C(=O)N([H])[H])c4N([H])[H])C3([H])[H])c([H])c([H])c2C1([H])[H]

>  <smiles>  (90) 
[H]c1c([H])c([H])c2c(c1[H])C([H])([H])C([H])([H])C([H])([H])C2([H])N([H])C(=O)C1([H])N(C(=O)C([H])(N([H])C(=O)C([H])(N([H])C([H])([H])[H])C([H])([H])[H])C(C([H])([H])[H])(C([H])([H])[H])C([H])([H])[H])C([H])([H])c2c([H])c(OC([H])([H])C(N([H])[H])=[N+]([H])C([H])([H])C([H])([H])C([H])([H])C([H])([H])C([H])([H])N([H])C(=O)C([H])(C([H])([H])[H])C([H])([H])C([H])([H])C([H])(C(=O)N([H])[H])N([H])C(=O)N3C([H])([H])C([H])([H])C([H])([H])C([H])(n4nc(-c5c([H])c([H])c(Oc6c([H])c([H])c(F)c([H])c6F)c([H])c5[H])c(C(=O)N([H])[H])c4N([H])[H])C3([H])[H])c([H])c([H])c2C1([H])[H]

$$$$
92:0:0
     RDKit          3D

 87 94  0  0  1  0  0  0  0  0999 V2000
  -28.9150  -21.1730   19.8310 C   0  0  0  0  0  2  0  0  0  0  0  0
  -29.2710  -19.6020   20.4930 C   0  0  0  0  0  0  0  0  0  0  0  0
  -28.9670  -19.4900   21.6820 O   0  0  0  0  0  0  0  0  0  0  0  0
  -30.0000  -18.1470   19.7410 C   0  0  0  0  0  3  0  0  0  0  0  0
  -30.5080  -15.2640   19.9240 C   0  0  0  0  0  0  0  0  0  0  0  0
  -30.3620  -12.8610   18.9930 C   0  0  0  0  0  2  0  0  0  0  0  0
  -29.3780  -12.7480   17.8050 C   0  0  0  0  0  2  0  0  0  0  0  0
  -27.9470  -12.4970   18.3120 C   0  0  0  0  0  2  0  0  0  0  0  0
  -27.5820  -13.4170   19.5040 C   0  0  0  0  0  3  0  0  0  0  0  0
  -28.6930  -13.5010   20.5740 C   0  0  0  0  0  2  0  0  0  0  0  0
  -29.9050  -13.9790   19.8940 N   0  0  0  0  0  0  0  0  0  0  0  0
  -31.6960  -15.2380   19.5780 O   0  0  0  0  0  0  0  0  0  0  0  0
  -29.7980  -16.5420   20.1350 N   0  0  0  0  0  0  0  0  0  0  0  0
  -28.8600  -16.3740   20.4700 H   0  0  0  0  0  0  0  0  0  0  0  0
  -25.2550  -13.9700   20.3900 C   0  0  0  0  0  0  0  0  0  0  0  0
  -24.2130  -13.1910   20.8060 C   0  0  0  0  0  0  0  0  0  0  0  0
  -24.6740  -11.8400   20.7300 C   0  0  0  0  0  0  0  0  0  0  0  0
  -26.2810  -13.0980   20.0770 N   0  0  0  0  0  0  0  0  0  0  0  0
  -25.9460  -11.8100   20.3500 N   0  0  0  0  0  0  0  0  0  0  0  0
  -23.9530  -10.5770   20.9380 C   0  0  0  0  0  0  0  0  0  0  0  0
  -24.4160   -9.6030   21.8510 C   0  0  0  0  0  3  0  0  0  0  0  0
  -23.6920   -8.4070   22.0500 C   0  0  0  0  0  3  0  0  0  0  0  0
  -22.4910   -8.1770   21.3370 C   0  0  0  0  0  0  0  0  0  0  0  0
  -22.0460   -9.1410   20.4140 C   0  0  0  0  0  3  0  0  0  0  0  0
  -22.7700  -10.3270   20.2130 C   0  0  0  0  0  3  0  0  0  0  0  0
  -21.7350   -7.0340   21.4480 O   0  0  0  0  0  0  0  0  0  0  0  0
  -21.7160   -6.2920   22.6010 C   0  0  0  0  0  0  0  0  0  0  0  0
  -21.3100   -6.8440   23.8360 C   0  0  0  0  0  3  0  0  0  0  0  0
  -21.2390   -6.0280   24.9820 C   0  0  0  0  0  3  0  0  0  0  0  0
  -21.5620   -4.6600   24.8960 C   0  0  0  0  0  0  0  0  0  0  0  0
  -21.9600   -4.1080   23.6660 C   0  0  0  0  0  3  0  0  0  0  0  0
  -22.0340   -4.9220   22.5220 C   0  0  0  0  0  0  0  0  0  0  0  0
  -22.4000   -4.3790   21.3350 F   0  0  0  0  0  0  0  0  0  0  0  0
  -21.4870   -3.8750   25.9950 F   0  0  0  0  0  0  0  0  0  0  0  0
  -22.8340  -13.6680   21.1510 C   0  0  0  0  0  0  0  0  0  0  0  0
  -22.1440  -12.9640   22.0420 N   0  0  0  0  0  0  0  0  0  0  0  0
  -22.3760  -14.7030   20.6660 O   0  0  0  0  0  0  0  0  0  0  0  0
  -22.5280  -12.1290   22.4590 H   0  0  0  0  0  0  0  0  0  0  0  0
  -21.2200  -13.2670   22.3140 H   0  0  0  0  0  0  0  0  0  0  0  0
  -25.4070  -15.3440   20.2250 N   0  0  0  0  0  0  0  0  0  0  0  0
  -24.6340  -15.9850   20.3720 H   0  0  0  0  0  0  0  0  0  0  0  0
  -26.2190  -15.7940   19.8210 H   0  0  0  0  0  0  0  0  0  0  0  0
  -32.0320  -19.7230   19.1400 C   0  0  0  0  0  1  0  0  0  0  0  0
  -31.5340  -18.3940   19.7370 C   0  0  0  0  0  2  0  0  0  0  0  0
  -28.7810  -22.8130   20.5300 C   0  0  0  0  0  3  0  0  0  0  0  0
  -28.0330  -24.3360   19.9620 C   0  0  0  0  0  3  0  0  0  0  0  0
  -28.1880  -25.9240   20.3280 O   0  0  0  0  0  0  0  0  0  0  0  0
  -24.6060  -31.8650   23.1920 C   0  0  0  0  0  0  0  0  0  0  0  0
  -27.1790  -27.0060   20.2080 C   0  0  0  0  0  0  0  0  0  0  0  0
  -23.4230  -30.4680   21.5440 C   0  0  0  0  0  3  0  0  0  0  0  0
  -24.8810  -28.8650   20.1330 C   0  0  0  0  0  0  0  0  0  0  0  0
  -25.9870  -30.6840   21.4170 C   0  0  0  0  0  2  0  0  0  0  0  0
  -26.0600  -29.2760   20.7660 C   0  0  0  0  0  0  0  0  0  0  0  0
  -27.2030  -28.3650   20.7830 C   0  0  0  0  0  3  0  0  0  0  0  0
  -25.9770  -26.7420   19.5160 C   0  0  0  0  0  3  0  0  0  0  0  0
  -24.8630  -27.6180   19.4870 C   0  0  0  0  0  3  0  0  0  0  0  0
  -23.6600  -29.7800   20.1700 C   0  0  0  0  0  2  0  0  0  0  0  0
  -24.6930  -31.0330   22.1040 N   0  0  0  0  0  0  0  0  0  0  0  0
  -23.5130  -32.1550   23.7040 O   0  0  0  0  0  0  0  0  0  0  0  0
  -22.7220  -29.4730   22.5060 C   0  0  0  0  0  0  0  0  0  0  0  0
  -21.3940  -29.3030   22.3660 N   0  0  0  0  0  0  0  0  0  0  0  0
  -23.3800  -28.8540   23.3460 O   0  0  0  0  0  0  0  0  0  0  0  0
  -20.9170  -29.8530   21.6650 H   0  0  0  0  0  0  0  0  0  0  0  0
  -18.0120  -28.0740   22.8290 C   0  0  0  0  0  0  0  0  0  0  0  0
  -20.5660  -28.3650   23.1320 C   0  0  0  0  0  3  0  0  0  0  0  0
  -20.6870  -26.9290   22.5730 C   0  0  0  0  0  2  0  0  0  0  0  0
  -19.6050  -26.5870   21.5430 C   0  0  0  0  0  2  0  0  0  0  0  0
  -18.2130  -26.7230   22.1640 C   0  0  0  0  0  2  0  0  0  0  0  0
  -19.1160  -28.8520   23.2690 C   0  0  0  0  0  0  0  0  0  0  0  0
  -18.8730  -30.1140   23.8540 C   0  0  0  0  0  3  0  0  0  0  0  0
  -17.5610  -30.6020   23.9960 C   0  0  0  0  0  3  0  0  0  0  0  0
  -16.4710  -29.8220   23.5700 C   0  0  0  0  0  3  0  0  0  0  0  0
  -16.6970  -28.5600   22.9950 C   0  0  0  0  0  3  0  0  0  0  0  0
  -25.8730  -32.5070   23.8320 C   0  0  0  0  0  3  0  0  0  0  0  0
  -25.5590  -33.9100   24.1520 N   0  0  0  0  0  0  0  0  0  0  0  0
  -25.9020  -34.9630   23.3970 C   0  0  0  0  0  0  0  0  0  0  0  0
  -26.5780  -34.8550   22.3710 O   0  0  0  0  0  0  0  0  0  0  0  0
  -24.9570  -34.0670   24.9460 H   0  0  0  0  0  0  0  0  0  0  0  0
  -24.1810  -36.7680   23.0370 C   0  0  0  0  0  1  0  0  0  0  0  0
  -25.4200  -36.3580   23.8500 C   0  0  0  0  0  3  0  0  0  0  0  0
  -27.5550  -37.2420   24.6850 C   0  0  0  0  0  1  0  0  0  0  0  0
  -26.4570  -37.4070   23.7360 N   0  0  0  0  0  0  0  0  0  0  0  0
  -26.0530  -38.3290   23.8770 H   0  0  0  0  0  0  0  0  0  0  0  0
  -26.3610  -31.7510   25.1320 C   0  0  1  0  0  0  0  0  0  0  0  0
  -25.2470  -31.5340   26.1830 C   0  0  0  0  0  1  0  0  0  0  0  0
  -26.9420  -30.3630   24.7780 C   0  0  0  0  0  1  0  0  0  0  0  0
  -27.5060  -32.5460   25.8020 C   0  0  0  0  0  1  0  0  0  0  0  0
  1  2  1  0
  1 45  1  0
  2  3  2  0
  4 44  1  0
  4 13  1  0
  4  2  1  0
  5 13  1  0
  6 11  1  0
  7  8  1  0
  7  6  1  0
  9  8  1  0
  9 18  1  0
  9 10  1  0
 11  5  1  0
 11 10  1  0
 12  5  2  0
 13 14  1  0
 15 16  2  0
 16 35  1  0
 17 16  1  0
 17 20  1  0
 18 19  1  0
 18 15  1  0
 19 17  2  0
 20 21  1  0
 21 22  2  0
 23 26  1  0
 23 22  1  0
 24 23  2  0
 25 24  1  0
 25 20  2  0
 26 27  1  0
 27 28  1  0
 28 29  2  0
 30 29  1  0
 30 34  1  0
 31 30  2  0
 32 27  2  0
 32 31  1  0
 33 32  1  0
 35 36  1  0
 36 39  1  0
 36 38  1  0
 37 35  2  0
 40 41  1  0
 40 15  1  0
 42 40  1  0
 43 44  1  0
 46 47  1  0
 46 45  2  0
 48 59  2  0
 49 47  1  0
 49 54  1  0
 50 58  1  0
 50 60  1  0
 51 57  1  0
 51 53  1  0
 52 58  1  0
 53 54  2  0
 53 52  1  0
 55 49  2  0
 56 55  1  0
 56 51  2  0
 57 50  1  0
 58 48  1  0
 60 62  2  0
 61 60  1  0
 63 61  1  0
 64 73  2  0
 64 69  1  0
 65 61  1  0
 65 69  1  0
 66 65  1  0
 67 68  1  0
 67 66  1  0
 68 64  1  0
 69 70  2  0
 70 71  1  0
 72 71  2  0
 73 72  1  0
 74 48  1  0
 74 75  1  0
 74 84  1  0
 75 78  1  0
 76 80  1  0
 76 75  1  0
 77 76  2  0
 80 79  1  0
 82 80  1  0
 82 83  1  0
 82 81  1  0
 84 87  1  1
 84 85  1  0
 86 84  1  0
M  ISO  4   5 100  13 100  46 101  47 101
M  END
>  <TORSDO>  (91) 
F 21

>  <SCORE>  (91) 
-14.264

>  <name>  (91) 
92

>  <ligand_id>  (91) 
92

>  <original_smiles>  (91) 
[H]c1c([H])c([H])c2c(c1[H])C([H])([H])C([H])([H])C([H])([H])C2([H])N([H])C(=O)C1([H])N(C(=O)C([H])(N([H])C(=O)C([H])(N([H])C([H])([H])[H])C([H])([H])[H])C(C([H])([H])[H])(C([H])([H])[H])C([H])([H])[H])C([H])([H])c2c([H])c(OC([H])([H])C([H])([H])C([H])([H])C(=O)C([H])(N([H])C(=O)N3C([H])([H])C([H])([H])C([H])([H])C([H])(n4nc(-c5c([H])c([H])c(Oc6c([H])c([H])c(F)c([H])c6F)c([H])c5[H])c(C(=O)N([H])[H])c4N([H])[H])C3([H])[H])C([H])([H])C([H])([H])[H])c([H])c([H])c2C1([H])[H]

>  <smiles>  (91) 
[H]c1c([H])c([H])c2c(c1[H])C([H])([H])C([H])([H])C([H])([H])C2([H])N([H])C(=O)C1([H])N(C(=O)C([H])(N([H])C(=O)C([H])(N([H])C([H])([H])[H])C([H])([H])[H])C(C([H])([H])[H])(C([H])([H])[H])C([H])([H])[H])C([H])([H])c2c([H])c(OC([H])([H])C([H])([H])C([H])([H])C(=O)C([H])(N([H])C(=O)N3C([H])([H])C([H])([H])C([H])([H])C([H])(n4nc(-c5c([H])c([H])c(Oc6c([H])c([H])c(F)c([H])c6F)c([H])c5[H])c(C(=O)N([H])[H])c4N([H])[H])C3([H])[H])C([H])([H])C([H])([H])[H])c([H])c([H])c2C1([H])[H]

$$$$
93:0:0
     RDKit          3D

 93100  0  0  1  0  0  0  0  0999 V2000
  -29.7650  -20.7960   19.9540 C   0  0  0  0  0  2  0  0  0  0  0  0
  -29.1370  -23.4730   20.1550 C   0  0  0  0  0  0  0  0  0  0  0  0
  -28.8670  -22.0750   20.2440 N   0  0  0  0  0  0  0  0  0  0  0  0
  -30.3080  -23.8200   19.9890 O   0  0  0  0  0  0  0  0  0  0  0  0
  -27.8870  -21.8660   20.3890 H   0  0  0  0  0  0  0  0  0  0  0  0
  -28.0030  -24.6880   20.1960 C   0  0  0  0  0  2  0  0  0  0  0  0
  -28.3400  -26.2210   20.2200 O   0  0  0  0  0  0  0  0  0  0  0  0
  -24.6730  -31.8900   23.2440 C   0  0  0  0  0  0  0  0  0  0  0  0
  -27.2830  -27.2090   20.1760 C   0  0  0  0  0  0  0  0  0  0  0  0
  -23.4770  -30.4820   21.6160 C   0  0  0  0  0  3  0  0  0  0  0  0
  -24.9340  -28.9350   20.1720 C   0  0  0  0  0  0  0  0  0  0  0  0
  -26.0280  -30.7810   21.4270 C   0  0  0  0  0  2  0  0  0  0  0  0
  -26.1160  -29.3910   20.7700 C   0  0  0  0  0  0  0  0  0  0  0  0
  -27.2910  -28.5460   20.7540 C   0  0  0  0  0  3  0  0  0  0  0  0
  -26.0710  -26.8650   19.5360 C   0  0  0  0  0  3  0  0  0  0  0  0
  -24.9250  -27.6860   19.5390 C   0  0  0  0  0  3  0  0  0  0  0  0
  -23.6950  -29.8150   20.2330 C   0  0  0  0  0  2  0  0  0  0  0  0
  -24.7460  -31.0740   22.1500 N   0  0  0  0  0  0  0  0  0  0  0  0
  -23.5870  -32.1580   23.7830 O   0  0  0  0  0  0  0  0  0  0  0  0
  -22.8240  -29.4610   22.5810 C   0  0  0  0  0  0  0  0  0  0  0  0
  -21.5000  -29.2580   22.4560 N   0  0  0  0  0  0  0  0  0  0  0  0
  -23.5100  -28.8540   23.4070 O   0  0  0  0  0  0  0  0  0  0  0  0
  -21.0010  -29.7980   21.7650 H   0  0  0  0  0  0  0  0  0  0  0  0
  -18.1500  -27.9740   22.9610 C   0  0  0  0  0  0  0  0  0  0  0  0
  -20.7010  -28.3050   23.2320 C   0  0  0  0  0  3  0  0  0  0  0  0
  -20.8420  -26.8720   22.6700 C   0  0  0  0  0  2  0  0  0  0  0  0
  -19.7500  -26.5120   21.6550 C   0  0  0  0  0  2  0  0  0  0  0  0
  -18.3640  -26.6240   22.2950 C   0  0  0  0  0  2  0  0  0  0  0  0
  -19.2470  -28.7690   23.3870 C   0  0  0  0  0  0  0  0  0  0  0  0
  -18.9910  -30.0280   23.9720 C   0  0  0  0  0  3  0  0  0  0  0  0
  -17.6720  -30.4930   24.1340 C   0  0  0  0  0  3  0  0  0  0  0  0
  -16.5910  -29.6950   23.7230 C   0  0  0  0  0  3  0  0  0  0  0  0
  -16.8300  -28.4370   23.1420 C   0  0  0  0  0  3  0  0  0  0  0  0
  -25.9460  -32.5450   23.8590 C   0  0  0  0  0  3  0  0  0  0  0  0
  -25.6220  -33.9460   24.1750 N   0  0  0  0  0  0  0  0  0  0  0  0
  -25.9510  -34.9980   23.4140 C   0  0  0  0  0  0  0  0  0  0  0  0
  -26.6260  -34.8910   22.3870 O   0  0  0  0  0  0  0  0  0  0  0  0
  -25.0220  -34.1000   24.9730 H   0  0  0  0  0  0  0  0  0  0  0  0
  -24.2300  -36.7930   23.0280 C   0  0  0  0  0  1  0  0  0  0  0  0
  -25.4560  -36.3870   23.8630 C   0  0  0  0  0  3  0  0  0  0  0  0
  -27.5670  -37.2810   24.7430 C   0  0  0  0  0  1  0  0  0  0  0  0
  -26.4900  -37.4400   23.7690 N   0  0  0  0  0  0  0  0  0  0  0  0
  -26.0800  -38.3610   23.8970 H   0  0  0  0  0  0  0  0  0  0  0  0
  -26.4650  -31.7970   25.1490 C   0  0  1  0  0  0  0  0  0  0  0  0
  -25.3710  -31.5620   26.2170 C   0  0  0  0  0  1  0  0  0  0  0  0
  -27.0640  -30.4190   24.7840 C   0  0  0  0  0  1  0  0  0  0  0  0
  -27.6050  -32.6110   25.8030 C   0  0  0  0  0  1  0  0  0  0  0  0
  -29.4560  -19.1760   20.3910 C   0  0  0  0  0  3  0  0  0  0  0  0
  -29.3710  -19.0840   21.8550 N   0  0  0  0  0  4  0  0  0  0  0  0
  -30.2790  -19.1990   22.2690 H   0  0  0  0  0  0  0  0  0  0  0  0
  -29.0070  -18.1920   22.1330 H   0  0  0  0  0  0  0  0  0  0  0  0
  -28.7660  -19.8010   22.2130 H   0  0  0  0  0  0  0  0  0  0  0  0
  -30.3180  -17.8260   19.7980 C   0  0  0  0  0  3  0  0  0  0  0  0
  -30.7980  -15.0980   20.0230 C   0  0  0  0  0  0  0  0  0  0  0  0
  -30.6080  -12.7870   19.0000 C   0  0  0  0  0  2  0  0  0  0  0  0
  -29.6220  -12.7990   17.8090 C   0  0  0  0  0  2  0  0  0  0  0  0
  -28.1790  -12.5800   18.2970 C   0  0  0  0  0  2  0  0  0  0  0  0
  -27.8320  -13.4590   19.5270 C   0  0  0  0  0  3  0  0  0  0  0  0
  -28.9350  -13.4240   20.6060 C   0  0  0  0  0  2  0  0  0  0  0  0
  -30.1810  -13.8500   19.9560 N   0  0  0  0  0  0  0  0  0  0  0  0
  -31.9950  -15.1410   19.7190 O   0  0  0  0  0  0  0  0  0  0  0  0
  -30.0410  -16.3000   20.1820 N   0  0  0  0  0  0  0  0  0  0  0  0
  -29.0790  -16.1110   20.4160 H   0  0  0  0  0  0  0  0  0  0  0  0
  -25.4790  -14.0150   20.3630 C   0  0  0  0  0  0  0  0  0  0  0  0
  -24.4330  -13.2290   20.7640 C   0  0  0  0  0  0  0  0  0  0  0  0
  -24.9040  -11.8820   20.7000 C   0  0  0  0  0  0  0  0  0  0  0  0
  -26.5160  -13.1460   20.0730 N   0  0  0  0  0  0  0  0  0  0  0  0
  -26.1830  -11.8570   20.3420 N   0  0  0  0  0  0  0  0  0  0  0  0
  -24.1910  -10.6130   20.9000 C   0  0  0  0  0  0  0  0  0  0  0  0
  -24.6190   -9.6670   21.8570 C   0  0  0  0  0  3  0  0  0  0  0  0
  -23.9030   -8.4640   22.0440 C   0  0  0  0  0  3  0  0  0  0  0  0
  -22.7450   -8.1990   21.2750 C   0  0  0  0  0  0  0  0  0  0  0  0
  -22.3370   -9.1340   20.3070 C   0  0  0  0  0  3  0  0  0  0  0  0
  -23.0530  -10.3280   20.1180 C   0  0  0  0  0  3  0  0  0  0  0  0
  -22.0020   -7.0470   21.3700 O   0  0  0  0  0  0  0  0  0  0  0  0
  -21.8880   -6.3610   22.5530 C   0  0  0  0  0  0  0  0  0  0  0  0
  -21.3240   -6.9510   23.7040 C   0  0  0  0  0  3  0  0  0  0  0  0
  -21.1610   -6.1880   24.8780 C   0  0  0  0  0  3  0  0  0  0  0  0
  -21.5510   -4.8360   24.8990 C   0  0  0  0  0  0  0  0  0  0  0  0
  -22.1070   -4.2450   23.7510 C   0  0  0  0  0  3  0  0  0  0  0  0
  -22.2720   -5.0050   22.5800 C   0  0  0  0  0  0  0  0  0  0  0  0
  -22.7880   -4.4250   21.4710 F   0  0  0  0  0  0  0  0  0  0  0  0
  -21.3880   -4.1010   26.0240 F   0  0  0  0  0  0  0  0  0  0  0  0
  -23.0440  -13.6950   21.0870 C   0  0  0  0  0  0  0  0  0  0  0  0
  -22.3520  -12.9920   21.9760 N   0  0  0  0  0  0  0  0  0  0  0  0
  -22.5820  -14.7200   20.5860 O   0  0  0  0  0  0  0  0  0  0  0  0
  -22.7400  -12.1630   22.4030 H   0  0  0  0  0  0  0  0  0  0  0  0
  -21.4210  -13.2870   22.2340 H   0  0  0  0  0  0  0  0  0  0  0  0
  -25.6270  -15.3880   20.1910 N   0  0  0  0  0  0  0  0  0  0  0  0
  -24.8460  -16.0240   20.3090 H   0  0  0  0  0  0  0  0  0  0  0  0
  -26.4220  -15.8200   19.7400 H   0  0  0  0  0  0  0  0  0  0  0  0
  -31.2810  -17.1610   17.4310 C   0  0  0  0  0  1  0  0  0  0  0  0
  -30.2600  -17.9610   18.2510 C   0  0  0  0  0  2  0  0  0  0  0  0
  1  3  1  0
  2  6  1  0
  2  3  1  0
  3  5  1  0
  4  2  2  0
  6  7  1  0
  8 19  2  0
  9  7  1  0
  9 14  1  0
 10 18  1  0
 10 20  1  0
 11 17  1  0
 11 13  1  0
 12 18  1  0
 13 12  1  0
 14 13  2  0
 15 16  1  0
 15  9  2  0
 16 11  2  0
 17 10  1  0
 18  8  1  0
 20 22  2  0
 21 20  1  0
 23 21  1  0
 24 33  2  0
 24 29  1  0
 25 21  1  0
 25 29  1  0
 26 25  1  0
 27 28  1  0
 27 26  1  0
 28 24  1  0
 29 30  2  0
 30 31  1  0
 32 31  2  0
 33 32  1  0
 34  8  1  0
 34 35  1  0
 34 44  1  0
 35 38  1  0
 36 40  1  0
 36 35  1  0
 37 36  2  0
 40 39  1  0
 42 40  1  0
 42 43  1  0
 42 41  1  0
 44 47  1  1
 44 45  1  0
 46 44  1  0
 48  1  1  0
 48 49  1  0
 49 51  1  0
 49 52  1  0
 49 50  1  0
 53 93  1  0
 53 62  1  0
 53 48  1  0
 54 62  1  0
 55 60  1  0
 56 57  1  0
 56 55  1  0
 58 57  1  0
 58 67  1  0
 58 59  1  0
 60 54  1  0
 60 59  1  0
 61 54  2  0
 62 63  1  0
 64 65  2  0
 65 84  1  0
 66 65  1  0
 66 69  1  0
 67 68  1  0
 67 64  1  0
 68 66  2  0
 69 70  1  0
 70 71  2  0
 72 75  1  0
 72 71  1  0
 73 72  2  0
 74 73  1  0
 74 69  2  0
 75 76  1  0
 76 81  2  0
 76 77  1  0
 77 78  2  0
 78 79  1  0
 79 83  1  0
 80 79  2  0
 81 80  1  0
 82 81  1  0
 84 85  1  0
 85 88  1  0
 85 87  1  0
 86 84  2  0
 89 90  1  0
 89 64  1  0
 91 89  1  0
 92 93  1  0
M  ISO  4   6 101   7 101  54 100  62 100
M  END
>  <TORSDO>  (92) 
F 22

>  <SCORE>  (92) 
-13.329

>  <name>  (92) 
93

>  <ligand_id>  (92) 
93

>  <original_smiles>  (92) 
[H]c1c([H])c([H])c2c(c1[H])C([H])([H])C([H])([H])C([H])([H])C2([H])N([H])C(=O)C1([H])N(C(=O)C([H])(N([H])C(=O)C([H])(N([H])C([H])([H])[H])C([H])([H])[H])C(C([H])([H])[H])(C([H])([H])[H])C([H])([H])[H])C([H])([H])c2c([H])c(OC([H])([H])C(=O)N([H])C([H])([H])C([H])(C([H])(N([H])C(=O)N3C([H])([H])C([H])([H])C([H])([H])C([H])(n4nc(-c5c([H])c([H])c(Oc6c([H])c([H])c(F)c([H])c6F)c([H])c5[H])c(C(=O)N([H])[H])c4N([H])[H])C3([H])[H])C([H])([H])C([H])([H])[H])[N+]([H])([H])[H])c([H])c([H])c2C1([H])[H]

>  <smiles>  (92) 
[H]c1c([H])c([H])c2c(c1[H])C([H])([H])C([H])([H])C([H])([H])C2([H])N([H])C(=O)C1([H])N(C(=O)C([H])(N([H])C(=O)C([H])(N([H])C([H])([H])[H])C([H])([H])[H])C(C([H])([H])[H])(C([H])([H])[H])C([H])([H])[H])C([H])([H])c2c([H])c(OC([H])([H])C(=O)N([H])C([H])([H])C([H])(C([H])(N([H])C(=O)N3C([H])([H])C([H])([H])C([H])([H])C([H])(n4nc(-c5c([H])c([H])c(Oc6c([H])c([H])c(F)c([H])c6F)c([H])c5[H])c(C(=O)N([H])[H])c4N([H])[H])C3([H])[H])C([H])([H])C([H])([H])[H])[N+]([H])([H])[H])c([H])c([H])c2C1([H])[H]

$$$$
94:0:0
     RDKit          3D

 86 93  0  0  1  0  0  0  0  0999 V2000
  -28.7250  -22.7500   20.5790 C   0  0  0  0  0  0  0  0  0  0  0  0
  -28.8410  -21.3510   20.0620 N   0  0  0  0  0  0  0  0  0  0  0  0
  -29.1550  -22.9050   21.7240 O   0  0  0  0  0  0  0  0  0  0  0  0
  -28.5310  -21.3120   19.0990 H   0  0  0  0  0  0  0  0  0  0  0  0
  -28.0220  -24.2200   19.8880 C   0  0  0  0  0  2  0  0  0  0  0  0
  -28.1810  -25.8160   20.3270 O   0  0  0  0  0  0  0  0  0  0  0  0
  -24.6460  -31.8650   23.1900 C   0  0  0  0  0  0  0  0  0  0  0  0
  -27.1910  -26.9380   20.2110 C   0  0  0  0  0  0  0  0  0  0  0  0
  -23.4510  -30.4600   21.5590 C   0  0  0  0  0  3  0  0  0  0  0  0
  -24.9000  -28.8410   20.1460 C   0  0  0  0  0  0  0  0  0  0  0  0
  -26.0200  -30.6560   21.4210 C   0  0  0  0  0  2  0  0  0  0  0  0
  -26.0860  -29.2400   20.7720 C   0  0  0  0  0  0  0  0  0  0  0  0
  -27.2230  -28.3080   20.7840 C   0  0  0  0  0  3  0  0  0  0  0  0
  -25.9790  -26.7040   19.5210 C   0  0  0  0  0  3  0  0  0  0  0  0
  -24.8730  -27.5950   19.4990 C   0  0  0  0  0  3  0  0  0  0  0  0
  -23.6830  -29.7660   20.1870 C   0  0  0  0  0  2  0  0  0  0  0  0
  -24.7280  -31.0220   22.1090 N   0  0  0  0  0  0  0  0  0  0  0  0
  -23.5560  -32.1610   23.7070 O   0  0  0  0  0  0  0  0  0  0  0  0
  -22.7510  -29.4750   22.5310 C   0  0  0  0  0  0  0  0  0  0  0  0
  -21.4200  -29.3200   22.4100 N   0  0  0  0  0  0  0  0  0  0  0  0
  -23.4130  -28.8500   23.3630 O   0  0  0  0  0  0  0  0  0  0  0  0
  -20.9380  -29.8750   21.7160 H   0  0  0  0  0  0  0  0  0  0  0  0
  -18.0300  -28.1280   22.9270 C   0  0  0  0  0  0  0  0  0  0  0  0
  -20.5920  -28.3910   23.1880 C   0  0  0  0  0  3  0  0  0  0  0  0
  -20.6890  -26.9540   22.6240 C   0  0  0  0  0  2  0  0  0  0  0  0
  -19.5860  -26.6270   21.6110 C   0  0  0  0  0  2  0  0  0  0  0  0
  -18.2040  -26.7760   22.2560 C   0  0  0  0  0  2  0  0  0  0  0  0
  -19.1510  -28.8920   23.3510 C   0  0  0  0  0  0  0  0  0  0  0  0
  -18.9320  -30.1550   23.9430 C   0  0  0  0  0  3  0  0  0  0  0  0
  -17.6260  -30.6550   24.1130 C   0  0  0  0  0  3  0  0  0  0  0  0
  -16.5220  -29.8880   23.7040 C   0  0  0  0  0  3  0  0  0  0  0  0
  -16.7240  -28.6260   23.1170 C   0  0  0  0  0  3  0  0  0  0  0  0
  -25.9170  -32.5090   23.8220 C   0  0  0  0  0  3  0  0  0  0  0  0
  -26.4230  -31.7460   25.1090 C   0  0  1  0  0  0  0  0  0  0  0  0
  -25.3230  -31.5200   26.1740 C   0  0  0  0  0  1  0  0  0  0  0  0
  -27.0050  -30.3630   24.7410 C   0  0  0  0  0  1  0  0  0  0  0  0
  -27.5730  -32.5420   25.7720 C   0  0  0  0  0  1  0  0  0  0  0  0
  -25.5980  -33.9090   24.1570 N   0  0  0  0  0  0  0  0  0  0  0  0
  -25.9300  -34.9720   23.4130 C   0  0  0  0  0  0  0  0  0  0  0  0
  -26.5990  -34.8790   22.3820 O   0  0  0  0  0  0  0  0  0  0  0  0
  -25.0020  -34.0540   24.9580 H   0  0  0  0  0  0  0  0  0  0  0  0
  -24.2010  -36.7750   23.0900 C   0  0  0  0  0  1  0  0  0  0  0  0
  -25.4470  -36.3590   23.8880 C   0  0  0  0  0  3  0  0  0  0  0  0
  -27.5870  -37.2400   24.7120 C   0  0  0  0  0  1  0  0  0  0  0  0
  -26.4790  -37.4140   23.7760 N   0  0  0  0  0  0  0  0  0  0  0  0
  -26.0740  -38.3320   23.9320 H   0  0  0  0  0  0  0  0  0  0  0  0
  -29.1200  -19.7980   20.6660 C   0  0  0  0  0  2  0  0  0  0  0  0
  -29.8280  -18.2610   19.9970 C   0  0  0  0  0  2  0  0  0  0  0  0
  -30.4160  -15.3400   20.2120 C   0  0  0  0  0  0  0  0  0  0  0  0
  -30.3850  -12.8860   19.3430 C   0  0  0  0  0  2  0  0  0  0  0  0
  -29.4590  -12.6810   18.1170 C   0  0  0  0  0  2  0  0  0  0  0  0
  -28.0130  -12.4050   18.5670 C   0  0  0  0  0  2  0  0  0  0  0  0
  -27.5720  -13.3620   19.7030 C   0  0  0  0  0  3  0  0  0  0  0  0
  -28.6280  -13.5140   20.8190 C   0  0  0  0  0  2  0  0  0  0  0  0
  -29.8530  -14.0280   20.1810 N   0  0  0  0  0  0  0  0  0  0  0  0
  -31.6220  -15.3370   19.9210 O   0  0  0  0  0  0  0  0  0  0  0  0
  -29.6630  -16.6220   20.3640 N   0  0  0  0  0  0  0  0  0  0  0  0
  -28.7150  -16.4170   20.6450 H   0  0  0  0  0  0  0  0  0  0  0  0
  -25.2070  -13.9120   20.4730 C   0  0  0  0  0  0  0  0  0  0  0  0
  -24.1500  -13.1320   20.8510 C   0  0  0  0  0  0  0  0  0  0  0  0
  -24.6210  -11.7830   20.8200 C   0  0  0  0  0  0  0  0  0  0  0  0
  -26.2500  -13.0390   20.2220 N   0  0  0  0  0  0  0  0  0  0  0  0
  -25.9100  -11.7530   20.5000 N   0  0  0  0  0  0  0  0  0  0  0  0
  -23.8980  -10.5200   21.0170 C   0  0  0  0  0  0  0  0  0  0  0  0
  -24.3420   -9.5490   21.9430 C   0  0  0  0  0  3  0  0  0  0  0  0
  -23.6160   -8.3540   22.1300 C   0  0  0  0  0  3  0  0  0  0  0  0
  -22.4320   -8.1180   21.3930 C   0  0  0  0  0  0  0  0  0  0  0  0
  -22.0070   -9.0770   20.4550 C   0  0  0  0  0  3  0  0  0  0  0  0
  -22.7330  -10.2640   20.2660 C   0  0  0  0  0  3  0  0  0  0  0  0
  -21.6760   -6.9750   21.4890 O   0  0  0  0  0  0  0  0  0  0  0  0
  -21.6500   -6.2250   22.6370 C   0  0  0  0  0  0  0  0  0  0  0  0
  -21.2600   -6.7740   23.8780 C   0  0  0  0  0  3  0  0  0  0  0  0
  -21.1810   -5.9500   25.0190 C   0  0  0  0  0  3  0  0  0  0  0  0
  -21.4810   -4.5790   24.9200 C   0  0  0  0  0  0  0  0  0  0  0  0
  -21.8640   -4.0290   23.6840 C   0  0  0  0  0  3  0  0  0  0  0  0
  -21.9440   -4.8490   22.5460 C   0  0  0  0  0  0  0  0  0  0  0  0
  -22.2930   -4.3090   21.3530 F   0  0  0  0  0  0  0  0  0  0  0  0
  -21.3980   -3.7860   26.0150 F   0  0  0  0  0  0  0  0  0  0  0  0
  -22.7530  -13.6070   21.1260 C   0  0  0  0  0  0  0  0  0  0  0  0
  -22.0320  -12.9140   22.0000 N   0  0  0  0  0  0  0  0  0  0  0  0
  -22.3120  -14.6280   20.6000 O   0  0  0  0  0  0  0  0  0  0  0  0
  -22.4040  -12.0890   22.4460 H   0  0  0  0  0  0  0  0  0  0  0  0
  -21.0950  -13.2140   22.2270 H   0  0  0  0  0  0  0  0  0  0  0  0
  -25.3620  -15.2830   20.2890 N   0  0  0  0  0  0  0  0  0  0  0  0
  -24.5880  -15.9300   20.3980 H   0  0  0  0  0  0  0  0  0  0  0  0
  -26.1930  -15.7200   19.9130 H   0  0  0  0  0  0  0  0  0  0  0  0
  1  3  2  0
  2  1  1  0
  2 47  1  0
  4  2  1  0
  5  6  1  0
  5  1  1  0
  7 18  2  0
  8  6  1  0
  8 13  1  0
  9 17  1  0
  9 19  1  0
 10 16  1  0
 10 12  1  0
 11 17  1  0
 12 13  2  0
 12 11  1  0
 14  8  2  0
 15 14  1  0
 15 10  2  0
 16  9  1  0
 17  7  1  0
 19 21  2  0
 20 19  1  0
 22 20  1  0
 23 32  2  0
 23 28  1  0
 24 20  1  0
 24 28  1  0
 25 24  1  0
 26 27  1  0
 26 25  1  0
 27 23  1  0
 28 29  2  0
 29 30  1  0
 31 30  2  0
 32 31  1  0
 33  7  1  0
 33 38  1  0
 33 34  1  0
 34 37  1  1
 34 35  1  0
 36 34  1  0
 38 41  1  0
 39 43  1  0
 39 38  1  0
 40 39  2  0
 43 42  1  0
 45 43  1  0
 45 46  1  0
 45 44  1  0
 48 57  1  0
 48 47  1  0
 49 57  1  0
 50 55  1  0
 51 52  1  0
 51 50  1  0
 53 52  1  0
 53 62  1  0
 53 54  1  0
 55 49  1  0
 55 54  1  0
 56 49  2  0
 57 58  1  0
 59 60  2  0
 60 79  1  0
 61 60  1  0
 61 64  1  0
 62 59  1  0
 62 63  1  0
 63 61  2  0
 64 65  1  0
 65 66  2  0
 67 70  1  0
 67 66  1  0
 68 67  2  0
 69 68  1  0
 69 64  2  0
 70 71  1  0
 71 72  1  0
 72 73  2  0
 74 73  1  0
 74 78  1  0
 75 74  2  0
 76 71  2  0
 76 75  1  0
 77 76  1  0
 79 80  1  0
 80 83  1  0
 80 82  1  0
 81 79  2  0
 84 85  1  0
 84 59  1  0
 86 84  1  0
M  ISO  4   5 101   6 101  49 100  57 100
M  END
>  <TORSDO>  (93) 
F 19

>  <SCORE>  (93) 
-16.442

>  <name>  (93) 
94

>  <ligand_id>  (93) 
94

>  <original_smiles>  (93) 
[H]c1c([H])c([H])c2c(c1[H])C([H])([H])C([H])([H])C([H])([H])C2([H])N([H])C(=O)C1([H])N(C(=O)C([H])(N([H])C(=O)C([H])(N([H])C([H])([H])[H])C([H])([H])[H])C(C([H])([H])[H])(C([H])([H])[H])C([H])([H])[H])C([H])([H])c2c([H])c(OC([H])([H])C(=O)N([H])C([H])([H])C([H])([H])N([H])C(=O)N3C([H])([H])C([H])([H])C([H])([H])C([H])(n4nc(-c5c([H])c([H])c(Oc6c([H])c([H])c(F)c([H])c6F)c([H])c5[H])c(C(=O)N([H])[H])c4N([H])[H])C3([H])[H])c([H])c([H])c2C1([H])[H]

>  <smiles>  (93) 
[H]c1c([H])c([H])c2c(c1[H])C([H])([H])C([H])([H])C([H])([H])C2([H])N([H])C(=O)C1([H])N(C(=O)C([H])(N([H])C(=O)C([H])(N([H])C([H])([H])[H])C([H])([H])[H])C(C([H])([H])[H])(C([H])([H])[H])C([H])([H])[H])C([H])([H])c2c([H])c(OC([H])([H])C(=O)N([H])C([H])([H])C([H])([H])N([H])C(=O)N3C([H])([H])C([H])([H])C([H])([H])C([H])(n4nc(-c5c([H])c([H])c(Oc6c([H])c([H])c(F)c([H])c6F)c([H])c5[H])c(C(=O)N([H])[H])c4N([H])[H])C3([H])[H])c([H])c([H])c2C1([H])[H]

$$$$
95:0:0
     RDKit          3D

 94101  0  0  1  0  0  0  0  0999 V2000
  -29.6110  -22.6940   21.0930 C   0  0  0  0  0  0  0  0  0  0  0  0
  -29.4360  -23.9180   20.5770 N   0  0  0  0  0  0  0  0  0  0  0  0
  -30.1580  -22.5030   22.1800 O   0  0  0  0  0  0  0  0  0  0  0  0
  -28.9870  -23.9850   19.6730 H   0  0  0  0  0  0  0  0  0  0  0  0
  -29.0750  -21.5160   20.2660 C   0  0  0  0  0  2  0  0  0  0  0  0
  -29.1120  -20.1370   20.9660 C   0  0  0  0  0  2  0  0  0  0  0  0
  -30.4950  -19.4420   21.0050 C   0  0  0  0  0  2  0  0  0  0  0  0
  -30.4010  -17.9760   21.4860 C   0  0  0  0  0  0  0  0  0  0  0  0
  -30.0400  -17.7770   22.6520 O   0  0  0  0  0  0  0  0  0  0  0  0
  -30.7920  -16.8100   20.5680 C   0  0  0  0  0  0  0  0  0  0  0  0
  -30.7880  -15.6060   21.0470 N   0  0  0  0  0  0  0  0  0  0  0  0
  -31.3880  -14.5600   20.3630 C   0  0  0  0  0  0  0  0  0  0  0  0
  -30.9000  -12.5190   19.0720 C   0  0  0  0  0  2  0  0  0  0  0  0
  -29.9750  -12.8890   17.8990 C   0  0  0  0  0  2  0  0  0  0  0  0
  -28.4960  -12.8210   18.3300 C   0  0  0  0  0  2  0  0  0  0  0  0
  -28.2230  -13.5710   19.6630 C   0  0  0  0  0  3  0  0  0  0  0  0
  -29.2740  -13.2110   20.7330 C   0  0  0  0  0  2  0  0  0  0  0  0
  -30.6100  -13.4600   20.1630 N   0  0  0  0  0  0  0  0  0  0  0  0
  -32.5170  -14.6350   19.8740 O   0  0  0  0  0  0  0  0  0  0  0  0
  -25.8470  -14.2590   20.3710 C   0  0  0  0  0  0  0  0  0  0  0  0
  -24.7510  -13.5250   20.7370 C   0  0  0  0  0  0  0  0  0  0  0  0
  -25.1620  -12.1560   20.6960 C   0  0  0  0  0  0  0  0  0  0  0  0
  -26.8610  -13.3420   20.1390 N   0  0  0  0  0  0  0  0  0  0  0  0
  -26.4510  -12.0710   20.3900 N   0  0  0  0  0  0  0  0  0  0  0  0
  -24.3890  -10.9200   20.8780 C   0  0  0  0  0  0  0  0  0  0  0  0
  -24.7680   -9.9500   21.8300 C   0  0  0  0  0  3  0  0  0  0  0  0
  -24.0000   -8.7780   22.0040 C   0  0  0  0  0  3  0  0  0  0  0  0
  -22.8380   -8.5690   21.2230 C   0  0  0  0  0  0  0  0  0  0  0  0
  -22.4760   -9.5300   20.2620 C   0  0  0  0  0  3  0  0  0  0  0  0
  -23.2450  -10.6940   20.0880 C   0  0  0  0  0  3  0  0  0  0  0  0
  -22.0450   -7.4490   21.3010 O   0  0  0  0  0  0  0  0  0  0  0  0
  -21.9100   -6.7420   22.4690 C   0  0  0  0  0  0  0  0  0  0  0  0
  -21.4500   -7.3500   23.6590 C   0  0  0  0  0  3  0  0  0  0  0  0
  -21.2580   -6.5720   24.8170 C   0  0  0  0  0  3  0  0  0  0  0  0
  -21.5180   -5.1890   24.7890 C   0  0  0  0  0  0  0  0  0  0  0  0
  -21.9690   -4.5810   23.6040 C   0  0  0  0  0  3  0  0  0  0  0  0
  -22.1630   -5.3560   22.4480 C   0  0  0  0  0  0  0  0  0  0  0  0
  -22.5770   -4.7630   21.3020 F   0  0  0  0  0  0  0  0  0  0  0  0
  -21.3260   -4.4390   25.8990 F   0  0  0  0  0  0  0  0  0  0  0  0
  -23.3720  -14.0520   21.0120 C   0  0  0  0  0  0  0  0  0  0  0  0
  -22.6280  -13.3890   21.8910 N   0  0  0  0  0  0  0  0  0  0  0  0
  -22.9620  -15.0820   20.4810 O   0  0  0  0  0  0  0  0  0  0  0  0
  -22.9700  -12.5600   22.3510 H   0  0  0  0  0  0  0  0  0  0  0  0
  -21.6990  -13.7230   22.1080 H   0  0  0  0  0  0  0  0  0  0  0  0
  -26.0630  -15.6220   20.1970 N   0  0  0  0  0  0  0  0  0  0  0  0
  -25.3250  -16.3100   20.3080 H   0  0  0  0  0  0  0  0  0  0  0  0
  -26.9430  -16.0280   19.9090 H   0  0  0  0  0  0  0  0  0  0  0  0
  -31.1720  -17.2200   19.1070 C   0  0  0  0  0  2  0  0  0  0  0  0
  -30.7930  -18.8260   17.1650 C   0  0  0  0  0  1  0  0  0  0  0  0
  -28.8890  -17.3560   17.9250 C   0  0  0  0  0  1  0  0  0  0  0  0
  -30.1430  -18.1220   18.3660 C   0  0  0  0  0  3  0  0  0  0  0  0
  -29.8050  -25.1860   21.2110 C   0  0  0  0  0  2  0  0  0  0  0  0
  -28.6000  -26.1380   21.3110 C   0  0  0  0  0  2  0  0  0  0  0  0
  -28.2380  -26.6590   20.0330 O   0  0  0  0  0  0  0  0  0  0  0  0
  -24.5440  -31.8690   23.2100 C   0  0  0  0  0  0  0  0  0  0  0  0
  -27.1020  -27.4270   20.0740 C   0  0  0  0  0  0  0  0  0  0  0  0
  -23.2960  -30.4790   21.5850 C   0  0  0  0  0  3  0  0  0  0  0  0
  -24.7130  -28.9280   20.1370 C   0  0  0  0  0  0  0  0  0  0  0  0
  -25.8170  -30.8220   21.3440 C   0  0  0  0  0  2  0  0  0  0  0  0
  -25.8820  -29.4490   20.7070 C   0  0  0  0  0  0  0  0  0  0  0  0
  -27.0800  -28.7050   20.6790 C   0  0  0  0  0  3  0  0  0  0  0  0
  -25.9220  -26.9170   19.4980 C   0  0  0  0  0  3  0  0  0  0  0  0
  -24.7250  -27.6570   19.5340 C   0  0  0  0  0  3  0  0  0  0  0  0
  -23.4770  -29.7930   20.2040 C   0  0  0  0  0  2  0  0  0  0  0  0
  -24.5710  -31.0710   22.1050 N   0  0  0  0  0  0  0  0  0  0  0  0
  -23.4760  -32.1480   23.7720 O   0  0  0  0  0  0  0  0  0  0  0  0
  -22.6520  -29.4650   22.5570 C   0  0  0  0  0  0  0  0  0  0  0  0
  -21.3260  -29.2870   22.4470 N   0  0  0  0  0  0  0  0  0  0  0  0
  -23.3440  -28.8360   23.3630 O   0  0  0  0  0  0  0  0  0  0  0  0
  -20.8260  -29.8480   21.7700 H   0  0  0  0  0  0  0  0  0  0  0  0
  -17.9590  -28.0940   22.9800 C   0  0  0  0  0  0  0  0  0  0  0  0
  -20.5170  -28.3560   23.2320 C   0  0  0  0  0  3  0  0  0  0  0  0
  -20.6170  -26.9190   22.6680 C   0  0  0  0  0  2  0  0  0  0  0  0
  -19.5110  -26.5860   21.6630 C   0  0  0  0  0  2  0  0  0  0  0  0
  -18.1330  -26.7370   22.3130 C   0  0  0  0  0  2  0  0  0  0  0  0
  -19.0800  -28.8580   23.3960 C   0  0  0  0  0  0  0  0  0  0  0  0
  -18.8660  -30.1270   23.9780 C   0  0  0  0  0  3  0  0  0  0  0  0
  -17.5630  -30.6320   24.1460 C   0  0  0  0  0  3  0  0  0  0  0  0
  -16.4560  -29.8640   23.7470 C   0  0  0  0  0  3  0  0  0  0  0  0
  -16.6550  -28.5960   23.1700 C   0  0  0  0  0  3  0  0  0  0  0  0
  -25.8470  -32.4880   23.8050 C   0  0  0  0  0  3  0  0  0  0  0  0
  -26.3930  -31.7030   25.0620 C   0  0  1  0  0  0  0  0  0  0  0  0
  -25.3300  -31.4610   26.1580 C   0  0  0  0  0  1  0  0  0  0  0  0
  -26.9590  -30.3260   24.6390 C   0  0  0  0  0  1  0  0  0  0  0  0
  -27.5640  -32.4860   25.7030 C   0  0  0  0  0  1  0  0  0  0  0  0
  -25.5550  -33.8850   24.1520 N   0  0  0  0  0  0  0  0  0  0  0  0
  -25.8940  -34.9410   23.4000 C   0  0  0  0  0  0  0  0  0  0  0  0
  -26.5560  -34.8410   22.3640 O   0  0  0  0  0  0  0  0  0  0  0  0
  -24.9700  -34.0380   24.9600 H   0  0  0  0  0  0  0  0  0  0  0  0
  -24.1840  -36.7560   23.0720 C   0  0  0  0  0  1  0  0  0  0  0  0
  -25.4230  -36.3290   23.8740 C   0  0  0  0  0  3  0  0  0  0  0  0
  -27.5710  -37.1810   24.7080 C   0  0  0  0  0  1  0  0  0  0  0  0
  -26.4670  -37.3720   23.7710 N   0  0  0  0  0  0  0  0  0  0  0  0
  -26.0700  -38.2930   23.9340 H   0  0  0  0  0  0  0  0  0  0  0  0
  1  3  2  0
  2  1  1  0
  2 52  1  0
  4  2  1  0
  5  6  1  0
  5  1  1  0
  6  7  1  0
  7  8  1  0
  8  9  2  0
 10 11  2  0
 10  8  1  0
 12 11  1  0
 13 18  1  0
 14 15  1  0
 14 13  1  0
 16 15  1  0
 16 23  1  0
 16 17  1  0
 18 12  1  0
 18 17  1  0
 19 12  2  0
 20 21  2  0
 21 40  1  0
 22 21  1  0
 22 25  1  0
 23 20  1  0
 23 24  1  0
 24 22  2  0
 25 26  1  0
 26 27  2  0
 28 31  1  0
 28 27  1  0
 29 28  2  0
 30 29  1  0
 30 25  2  0
 31 32  1  0
 32 33  1  0
 33 34  2  0
 35 34  1  0
 35 39  1  0
 36 35  2  0
 37 32  2  0
 37 36  1  0
 38 37  1  0
 40 41  1  0
 41 44  1  0
 41 43  1  0
 42 40  2  0
 45 46  1  0
 45 20  1  0
 47 45  1  0
 48 10  1  0
 49 51  1  0
 50 51  1  0
 51 48  1  0
 52 53  1  0
 54 56  1  0
 54 53  1  0
 55 66  2  0
 56 61  1  0
 57 65  1  0
 57 67  1  0
 58 64  1  0
 58 60  1  0
 59 65  1  0
 60 59  1  0
 61 60  2  0
 62 63  1  0
 62 56  2  0
 63 58  2  0
 64 57  1  0
 65 55  1  0
 67 69  2  0
 68 67  1  0
 70 68  1  0
 71 80  2  0
 71 76  1  0
 72 68  1  0
 72 76  1  0
 73 72  1  0
 74 75  1  0
 74 73  1  0
 75 71  1  0
 76 77  2  0
 77 78  1  0
 79 78  2  0
 80 79  1  0
 81 55  1  0
 81 86  1  0
 81 82  1  0
 82 85  1  1
 82 83  1  0
 84 82  1  0
 86 89  1  0
 87 91  1  0
 87 86  1  0
 88 87  2  0
 91 90  1  0
 93 91  1  0
 93 94  1  0
 93 92  1  0
M  ISO  4  11 100  12 100  53 101  54 101
M  END
>  <TORSDO>  (94) 
F 25

>  <SCORE>  (94) 
-11.372

>  <name>  (94) 
95

>  <ligand_id>  (94) 
95

>  <original_smiles>  (94) 
[H]c1c([H])c([H])c2c(c1[H])C([H])([H])C([H])([H])C([H])([H])C2([H])N([H])C(=O)C1([H])N(C(=O)C([H])(N([H])C(=O)C([H])(N([H])C([H])([H])[H])C([H])([H])[H])C(C([H])([H])[H])(C([H])([H])[H])C([H])([H])[H])C([H])([H])c2c([H])c(OC([H])([H])C([H])([H])N([H])C(=O)C([H])([H])C([H])([H])C([H])([H])C(=O)C(=NC(=O)N3C([H])([H])C([H])([H])C([H])([H])C([H])(n4nc(-c5c([H])c([H])c(Oc6c([H])c([H])c(F)c([H])c6F)c([H])c5[H])c(C(=O)N([H])[H])c4N([H])[H])C3([H])[H])C([H])([H])C([H])(C([H])([H])[H])C([H])([H])[H])c([H])c([H])c2C1([H])[H]

>  <smiles>  (94) 
[H]c1c([H])c([H])c2c(c1[H])C([H])([H])C([H])([H])C([H])([H])C2([H])N([H])C(=O)C1([H])N(C(=O)C([H])(N([H])C(=O)C([H])(N([H])C([H])([H])[H])C([H])([H])[H])C(C([H])([H])[H])(C([H])([H])[H])C([H])([H])[H])C([H])([H])c2c([H])c(OC([H])([H])C([H])([H])N([H])C(=O)C([H])([H])C([H])([H])C([H])([H])C(=O)C(=NC(=O)N3C([H])([H])C([H])([H])C([H])([H])C([H])(n4nc(-c5c([H])c([H])c(Oc6c([H])c([H])c(F)c([H])c6F)c([H])c5[H])c(C(=O)N([H])[H])c4N([H])[H])C3([H])[H])C([H])([H])C([H])(C([H])([H])[H])C([H])([H])[H])c([H])c([H])c2C1([H])[H]

$$$$
96:0:0
     RDKit          3D

 97105  0  0  1  0  0  0  0  0999 V2000
  -29.7200  -22.8570   17.7990 C   0  0  0  0  0  0  0  0  0  0  0  0
  -29.0770  -17.9400   20.2880 C   0  0  0  0  0  0  0  0  0  0  0  0
  -28.3710  -21.6410   19.5250 C   0  0  0  0  0  2  0  0  0  0  0  0
  -30.4210  -20.6260   18.5020 C   0  0  0  0  0  2  0  0  0  0  0  0
  -28.0810  -20.2020   20.0730 C   0  0  0  0  0  2  0  0  0  0  0  0
  -30.5100  -19.9540   19.8710 C   0  0  0  0  0  2  0  0  0  0  0  0
  -29.5000  -21.7650   18.5720 N   0  0  0  0  0  0  0  0  0  0  0  0
  -29.2350  -19.2800   20.1170 N   0  0  0  0  0  0  0  0  0  0  0  0
  -30.6610  -22.9110   16.9980 O   0  0  0  0  0  0  0  0  0  0  0  0
  -27.9680  -17.4330   20.5150 O   0  0  0  0  0  0  0  0  0  0  0  0
  -30.7390  -16.9290   18.6690 C   0  0  0  0  0  1  0  0  0  0  0  0
  -30.2920  -16.9900   20.1550 C   0  0  0  0  0  3  0  0  0  0  0  0
  -30.7430  -14.5680   20.6040 C   0  0  0  0  0  0  0  0  0  0  0  0
  -30.4920  -12.3980   19.5220 C   0  0  0  0  0  2  0  0  0  0  0  0
  -29.5900  -12.6030   18.2870 C   0  0  0  0  0  2  0  0  0  0  0  0
  -28.1030  -12.4680   18.6750 C   0  0  0  0  0  2  0  0  0  0  0  0
  -27.7180  -13.3140   19.9220 C   0  0  0  0  0  3  0  0  0  0  0  0
  -28.7450  -13.1180   21.0640 C   0  0  0  0  0  2  0  0  0  0  0  0
  -30.0840  -13.3870   20.5230 N   0  0  0  0  0  0  0  0  0  0  0  0
  -31.9400  -14.6950   20.3520 O   0  0  0  0  0  0  0  0  0  0  0  0
  -29.9380  -15.6420   20.6280 N   0  0  0  0  0  0  0  0  0  0  0  0
  -28.9520  -15.5010   20.7920 H   0  0  0  0  0  0  0  0  0  0  0  0
  -25.2970  -13.9150   20.5570 C   0  0  0  0  0  0  0  0  0  0  0  0
  -24.2200  -13.1410   20.8960 C   0  0  0  0  0  0  0  0  0  0  0  0
  -24.6890  -11.7900   20.8910 C   0  0  0  0  0  0  0  0  0  0  0  0
  -26.3530  -13.0370   20.3630 N   0  0  0  0  0  0  0  0  0  0  0  0
  -25.9880  -11.7550   20.6250 N   0  0  0  0  0  0  0  0  0  0  0  0
  -23.9640  -10.5260   21.0700 C   0  0  0  0  0  0  0  0  0  0  0  0
  -24.3690   -9.5710   22.0280 C   0  0  0  0  0  3  0  0  0  0  0  0
  -23.6440   -8.3700   22.1920 C   0  0  0  0  0  3  0  0  0  0  0  0
  -22.5030   -8.1160   21.3960 C   0  0  0  0  0  0  0  0  0  0  0  0
  -22.1180   -9.0590   20.4280 C   0  0  0  0  0  3  0  0  0  0  0  0
  -22.8430  -10.2520   20.2630 C   0  0  0  0  0  3  0  0  0  0  0  0
  -21.7580   -6.9630   21.4660 O   0  0  0  0  0  0  0  0  0  0  0  0
  -21.6650   -6.2340   22.6250 C   0  0  0  0  0  0  0  0  0  0  0  0
  -21.1660   -6.7950   23.8190 C   0  0  0  0  0  3  0  0  0  0  0  0
  -21.0200   -5.9900   24.9670 C   0  0  0  0  0  3  0  0  0  0  0  0
  -21.3690   -4.6260   24.9210 C   0  0  0  0  0  0  0  0  0  0  0  0
  -21.8640   -4.0650   23.7290 C   0  0  0  0  0  3  0  0  0  0  0  0
  -22.0070   -4.8670   22.5830 C   0  0  0  0  0  0  0  0  0  0  0  0
  -22.4640   -4.3180   21.4310 F   0  0  0  0  0  0  0  0  0  0  0  0
  -21.2230   -3.8500   26.0200 F   0  0  0  0  0  0  0  0  0  0  0  0
  -22.8130  -13.6140   21.1180 C   0  0  0  0  0  0  0  0  0  0  0  0
  -22.0550  -12.9210   21.9640 N   0  0  0  0  0  0  0  0  0  0  0  0
  -22.3900  -14.6330   20.5760 O   0  0  0  0  0  0  0  0  0  0  0  0
  -22.4050  -12.1020   22.4370 H   0  0  0  0  0  0  0  0  0  0  0  0
  -21.1080  -13.2260   22.1420 H   0  0  0  0  0  0  0  0  0  0  0  0
  -25.4630  -15.2880   20.3800 N   0  0  0  0  0  0  0  0  0  0  0  0
  -24.6930  -15.9380   20.4900 H   0  0  0  0  0  0  0  0  0  0  0  0
  -26.3340  -15.7580   20.1510 H   0  0  0  0  0  0  0  0  0  0  0  0
  -28.7750  -24.0670   17.9130 C   0  0  0  0  0  2  0  0  0  0  0  0
  -29.2830  -25.3590   17.2160 C   0  0  0  0  0  2  0  0  0  0  0  0
  -30.5790  -25.9930   17.7800 C   0  0  0  0  0  2  0  0  0  0  0  0
  -30.5060  -26.3080   19.2750 C   0  0  0  0  0  0  0  0  0  0  0  0
  -31.1800  -25.6730   20.0920 O   0  0  0  0  0  0  0  0  0  0  0  0
  -29.5170  -27.3800   19.7180 C   0  0  0  0  0  2  0  0  0  0  0  0
  -28.3490  -26.7070   20.1540 O   0  0  0  0  0  0  0  0  0  0  0  0
  -24.5300  -31.8730   23.2350 C   0  0  0  0  0  0  0  0  0  0  0  0
  -27.2110  -27.4630   20.1860 C   0  0  0  0  0  0  0  0  0  0  0  0
  -23.3360  -30.4610   21.5910 C   0  0  0  0  0  3  0  0  0  0  0  0
  -24.8030  -28.9200   20.1900 C   0  0  0  0  0  0  0  0  0  0  0  0
  -25.8550  -30.8390   21.4010 C   0  0  0  0  0  2  0  0  0  0  0  0
  -25.9530  -29.4670   20.7740 C   0  0  0  0  0  0  0  0  0  0  0  0
  -27.1630  -28.7440   20.7760 C   0  0  0  0  0  3  0  0  0  0  0  0
  -26.0450  -26.9120   19.6190 C   0  0  0  0  0  3  0  0  0  0  0  0
  -24.8390  -27.6370   19.6170 C   0  0  0  0  0  3  0  0  0  0  0  0
  -23.5540  -29.7710   20.2180 C   0  0  0  0  0  2  0  0  0  0  0  0
  -24.5920  -31.0720   22.1350 N   0  0  0  0  0  0  0  0  0  0  0  0
  -23.4460  -32.1430   23.7700 O   0  0  0  0  0  0  0  0  0  0  0  0
  -22.6860  -29.4410   22.5510 C   0  0  0  0  0  0  0  0  0  0  0  0
  -21.3610  -29.2580   22.4190 N   0  0  0  0  0  0  0  0  0  0  0  0
  -23.3660  -28.8150   23.3690 O   0  0  0  0  0  0  0  0  0  0  0  0
  -20.8730  -29.8130   21.7300 H   0  0  0  0  0  0  0  0  0  0  0  0
  -17.9810  -28.1000   22.9330 C   0  0  0  0  0  0  0  0  0  0  0  0
  -20.5440  -28.3240   23.1880 C   0  0  0  0  0  3  0  0  0  0  0  0
  -20.6240  -26.8970   22.5990 C   0  0  0  0  0  2  0  0  0  0  0  0
  -19.5130  -26.5980   21.5880 C   0  0  0  0  0  2  0  0  0  0  0  0
  -18.1370  -26.7550   22.2430 C   0  0  0  0  0  2  0  0  0  0  0  0
  -19.1120  -28.8430   23.3620 C   0  0  0  0  0  0  0  0  0  0  0  0
  -18.9160  -30.1040   23.9650 C   0  0  0  0  0  3  0  0  0  0  0  0
  -17.6190  -30.6220   24.1430 C   0  0  0  0  0  3  0  0  0  0  0  0
  -16.5020  -29.8740   23.7310 C   0  0  0  0  0  3  0  0  0  0  0  0
  -16.6840  -28.6150   23.1340 C   0  0  0  0  0  3  0  0  0  0  0  0
  -25.8120  -32.5070   23.8600 C   0  0  0  0  0  3  0  0  0  0  0  0
  -25.4990  -33.9060   24.1770 N   0  0  0  0  0  0  0  0  0  0  0  0
  -25.8470  -34.9520   23.4180 C   0  0  0  0  0  0  0  0  0  0  0  0
  -26.5370  -34.8440   22.4010 O   0  0  0  0  0  0  0  0  0  0  0  0
  -24.8870  -34.0650   24.9640 H   0  0  0  0  0  0  0  0  0  0  0  0
  -24.1380  -36.7500   23.0090 C   0  0  0  0  0  1  0  0  0  0  0  0
  -25.3520  -36.3440   23.8590 C   0  0  0  0  0  3  0  0  0  0  0  0
  -27.4620  -37.2210   24.7550 C   0  0  0  0  0  1  0  0  0  0  0  0
  -26.3920  -37.3920   23.7750 N   0  0  0  0  0  0  0  0  0  0  0  0
  -25.9860  -38.3140   23.9090 H   0  0  0  0  0  0  0  0  0  0  0  0
  -26.3240  -31.7430   25.1420 C   0  0  1  0  0  0  0  0  0  0  0  0
  -25.2260  -31.5110   26.2070 C   0  0  0  0  0  1  0  0  0  0  0  0
  -26.9090  -30.3640   24.7570 C   0  0  0  0  0  1  0  0  0  0  0  0
  -27.4730  -32.5400   25.8020 C   0  0  0  0  0  1  0  0  0  0  0  0
  1 51  1  0
  1  7  1  0
  2 10  2  0
  3  5  1  0
  4  7  1  0
  4  6  1  0
  5  8  1  0
  6  8  1  0
  7  3  1  0
  8  2  1  0
  9  1  2  0
 12 11  1  0
 12  2  1  0
 12 21  1  0
 13 21  1  0
 14 19  1  0
 15 16  1  0
 15 14  1  0
 17 16  1  0
 17 26  1  0
 17 18  1  0
 19 13  1  0
 19 18  1  0
 20 13  2  0
 21 22  1  0
 23 24  2  0
 24 43  1  0
 25 24  1  0
 25 28  1  0
 26 23  1  0
 26 27  1  0
 27 25  2  0
 28 29  1  0
 29 30  2  0
 31 34  1  0
 31 30  1  0
 32 31  2  0
 33 32  1  0
 33 28  2  0
 34 35  1  0
 35 36  1  0
 36 37  2  0
 38 37  1  0
 38 42  1  0
 39 38  2  0
 40 35  2  0
 40 39  1  0
 41 40  1  0
 43 44  1  0
 44 47  1  0
 44 46  1  0
 45 43  2  0
 48 49  1  0
 48 23  1  0
 50 48  1  0
 52 53  1  0
 52 51  1  0
 53 54  1  0
 54 56  1  0
 54 55  2  0
 56 57  1  0
 57 59  1  0
 58 69  2  0
 59 64  1  0
 60 68  1  0
 60 70  1  0
 61 67  1  0
 61 63  1  0
 62 68  1  0
 63 64  2  0
 63 62  1  0
 65 59  2  0
 66 65  1  0
 66 61  2  0
 67 60  1  0
 68 58  1  0
 70 72  2  0
 71 70  1  0
 73 71  1  0
 74 83  2  0
 74 79  1  0
 75 71  1  0
 75 79  1  0
 76 75  1  0
 77 78  1  0
 77 76  1  0
 78 74  1  0
 79 80  2  0
 80 81  1  0
 82 81  2  0
 83 82  1  0
 84 58  1  0
 84 85  1  0
 84 94  1  0
 85 88  1  0
 86 90  1  0
 86 85  1  0
 87 86  2  0
 90 89  1  0
 92 90  1  0
 92 93  1  0
 92 91  1  0
 94 97  1  1
 94 95  1  0
 96 94  1  0
M  ISO  4  13 100  21 100  56 101  57 101
M  END
>  <TORSDO>  (95) 
F 22

>  <SCORE>  (95) 
-13.383

>  <name>  (95) 
96

>  <ligand_id>  (95) 
96

>  <original_smiles>  (95) 
[H]c1c([H])c([H])c2c(c1[H])C([H])([H])C([H])([H])C([H])([H])C2([H])N([H])C(=O)C1([H])N(C(=O)C([H])(N([H])C(=O)C([H])(N([H])C([H])([H])[H])C([H])([H])[H])C(C([H])([H])[H])(C([H])([H])[H])C([H])([H])[H])C([H])([H])c2c([H])c(OC([H])([H])C(=O)C([H])([H])C([H])([H])C([H])([H])C(=O)N3C([H])([H])C([H])([H])N(C(=O)C([H])(N([H])C(=O)N4C([H])([H])C([H])([H])C([H])([H])C([H])(n5nc(-c6c([H])c([H])c(Oc7c([H])c([H])c(F)c([H])c7F)c([H])c6[H])c(C(=O)N([H])[H])c5N([H])[H])C4([H])[H])C([H])([H])[H])C([H])([H])C3([H])[H])c([H])c([H])c2C1([H])[H]

>  <smiles>  (95) 
[H]c1c([H])c([H])c2c(c1[H])C([H])([H])C([H])([H])C([H])([H])C2([H])N([H])C(=O)C1([H])N(C(=O)C([H])(N([H])C(=O)C([H])(N([H])C([H])([H])[H])C([H])([H])[H])C(C([H])([H])[H])(C([H])([H])[H])C([H])([H])[H])C([H])([H])c2c([H])c(OC([H])([H])C(=O)C([H])([H])C([H])([H])C([H])([H])C(=O)N3C([H])([H])C([H])([H])N(C(=O)C([H])(N([H])C(=O)N4C([H])([H])C([H])([H])C([H])([H])C([H])(n5nc(-c6c([H])c([H])c(Oc7c([H])c([H])c(F)c([H])c7F)c([H])c6[H])c(C(=O)N([H])[H])c5N([H])[H])C4([H])[H])C([H])([H])[H])C([H])([H])C3([H])[H])c([H])c([H])c2C1([H])[H]

$$$$
97:0:0
     RDKit          3D

 94101  0  0  1  0  0  0  0  0999 V2000
  -28.9420  -22.3120   20.3300 C   0  0  0  0  0  3  0  0  0  0  0  0
  -27.4490  -22.4270   20.6950 C   0  0  0  0  0  0  0  0  0  0  0  0
  -27.1460  -22.8610   21.9130 N   0  0  0  0  0  0  0  0  0  0  0  0
  -26.5760  -22.1620   19.8740 O   0  0  0  0  0  0  0  0  0  0  0  0
  -27.8880  -23.0710   22.5680 H   0  0  0  0  0  0  0  0  0  0  0  0
  -26.1830  -22.9480   22.2040 H   0  0  0  0  0  0  0  0  0  0  0  0
  -29.6530  -24.7580   20.7630 C   0  0  0  0  0  0  0  0  0  0  0  0
  -29.7410  -23.4160   20.8930 N   0  0  0  0  0  0  0  0  0  0  0  0
  -30.5070  -25.4550   21.3150 O   0  0  0  0  0  0  0  0  0  0  0  0
  -30.5350  -23.1150   21.4360 H   0  0  0  0  0  0  0  0  0  0  0  0
  -28.5260  -25.4480   19.9620 C   0  0  0  0  0  2  0  0  0  0  0  0
  -28.5960  -26.8800   20.1440 O   0  0  0  0  0  0  0  0  0  0  0  0
  -24.5540  -31.8300   23.2780 C   0  0  0  0  0  0  0  0  0  0  0  0
  -27.4070  -27.5840   20.1070 C   0  0  0  0  0  0  0  0  0  0  0  0
  -23.4370  -30.4740   21.5380 C   0  0  0  0  0  3  0  0  0  0  0  0
  -24.9750  -29.0380   20.0970 C   0  0  0  0  0  0  0  0  0  0  0  0
  -25.9580  -30.9040   21.4370 C   0  0  0  0  0  2  0  0  0  0  0  0
  -26.1020  -29.5640   20.7420 C   0  0  0  0  0  0  0  0  0  0  0  0
  -27.3200  -28.8460   20.7420 C   0  0  0  0  0  3  0  0  0  0  0  0
  -26.2620  -27.0780   19.4510 C   0  0  0  0  0  3  0  0  0  0  0  0
  -25.0510  -27.7940   19.4510 C   0  0  0  0  0  3  0  0  0  0  0  0
  -23.7100  -29.8660   20.1360 C   0  0  0  0  0  2  0  0  0  0  0  0
  -24.6670  -31.0810   22.1450 N   0  0  0  0  0  0  0  0  0  0  0  0
  -23.4480  -32.0510   23.7940 O   0  0  0  0  0  0  0  0  0  0  0  0
  -22.7810  -29.3930   22.4290 C   0  0  0  0  0  0  0  0  0  0  0  0
  -21.4610  -29.2060   22.2720 N   0  0  0  0  0  0  0  0  0  0  0  0
  -23.4590  -28.7290   23.2190 O   0  0  0  0  0  0  0  0  0  0  0  0
  -20.9760  -29.7930   21.6090 H   0  0  0  0  0  0  0  0  0  0  0  0
  -18.0860  -27.9840   22.6900 C   0  0  0  0  0  0  0  0  0  0  0  0
  -20.6440  -28.2190   22.9770 C   0  0  0  0  0  3  0  0  0  0  0  0
  -20.7410  -26.8280   22.3060 C   0  0  0  0  0  2  0  0  0  0  0  0
  -19.6390  -26.5740   21.2730 C   0  0  0  0  0  2  0  0  0  0  0  0
  -18.2600  -26.6810   21.9280 C   0  0  0  0  0  2  0  0  0  0  0  0
  -19.2070  -28.7110   23.1720 C   0  0  0  0  0  0  0  0  0  0  0  0
  -18.9920  -29.9330   23.8470 C   0  0  0  0  0  3  0  0  0  0  0  0
  -17.6890  -30.4280   24.0450 C   0  0  0  0  0  3  0  0  0  0  0  0
  -16.5830  -29.6940   23.5800 C   0  0  0  0  0  3  0  0  0  0  0  0
  -16.7810  -28.4770   22.9070 C   0  0  0  0  0  3  0  0  0  0  0  0
  -25.8020  -32.4670   23.9640 C   0  0  0  0  0  3  0  0  0  0  0  0
  -25.4770  -33.8690   24.2590 N   0  0  0  0  0  0  0  0  0  0  0  0
  -25.8310  -34.9090   23.4920 C   0  0  0  0  0  0  0  0  0  0  0  0
  -26.5360  -34.7890   22.4850 O   0  0  0  0  0  0  0  0  0  0  0  0
  -24.8610  -34.0360   25.0410 H   0  0  0  0  0  0  0  0  0  0  0  0
  -24.0990  -36.6770   23.0560 C   0  0  0  0  0  1  0  0  0  0  0  0
  -25.3230  -36.3030   23.9070 C   0  0  0  0  0  3  0  0  0  0  0  0
  -27.4190  -37.2320   24.7820 C   0  0  0  0  0  1  0  0  0  0  0  0
  -26.3500  -37.3610   23.7950 N   0  0  0  0  0  0  0  0  0  0  0  0
  -25.9330  -38.2810   23.9020 H   0  0  0  0  0  0  0  0  0  0  0  0
  -26.2440  -31.7090   25.2740 C   0  0  1  0  0  0  0  0  0  0  0  0
  -25.0900  -31.4710   26.2750 C   0  0  0  0  0  1  0  0  0  0  0  0
  -26.8560  -30.3330   24.9230 C   0  0  0  0  0  1  0  0  0  0  0  0
  -27.3490  -32.5130   25.9980 C   0  0  0  0  0  1  0  0  0  0  0  0
  -29.5200  -20.9620   20.8740 C   0  0  0  0  0  3  0  0  0  0  0  0
  -29.1280  -19.6570   20.1010 C   0  0  0  0  0  3  0  0  0  0  0  0
  -29.6090  -18.2850   20.7200 C   0  0  0  0  0  2  0  0  0  0  0  0
  -30.5690  -17.1550   20.1830 C   0  0  0  0  0  2  0  0  0  0  0  0
  -30.8500  -14.6800   20.0680 C   0  0  0  0  0  0  0  0  0  0  0  0
  -30.4870  -12.5140   18.9560 C   0  0  0  0  0  2  0  0  0  0  0  0
  -29.4920  -12.7320   17.7960 C   0  0  0  0  0  2  0  0  0  0  0  0
  -28.0400  -12.5950   18.2980 C   0  0  0  0  0  2  0  0  0  0  0  0
  -27.7670  -13.4160   19.5890 C   0  0  0  0  0  3  0  0  0  0  0  0
  -28.8820  -13.2080   20.6410 C   0  0  0  0  0  2  0  0  0  0  0  0
  -30.1700  -13.5030   19.9960 N   0  0  0  0  0  0  0  0  0  0  0  0
  -31.9820  -14.8230   19.5990 O   0  0  0  0  0  0  0  0  0  0  0  0
  -30.1410  -15.7610   20.4590 N   0  0  0  0  0  0  0  0  0  0  0  0
  -29.2060  -15.6040   20.8040 H   0  0  0  0  0  0  0  0  0  0  0  0
  -25.4160  -14.0010   20.4490 C   0  0  0  0  0  0  0  0  0  0  0  0
  -24.3690  -13.2200   20.8590 C   0  0  0  0  0  0  0  0  0  0  0  0
  -24.8270  -11.8690   20.7700 C   0  0  0  0  0  0  0  0  0  0  0  0
  -26.4450  -13.1270   20.1390 N   0  0  0  0  0  0  0  0  0  0  0  0
  -26.0980  -11.8380   20.3910 N   0  0  0  0  0  0  0  0  0  0  0  0
  -24.1100  -10.6020   20.9700 C   0  0  0  0  0  0  0  0  0  0  0  0
  -24.5570   -9.6420   21.9050 C   0  0  0  0  0  3  0  0  0  0  0  0
  -23.8420   -8.4390   22.0920 C   0  0  0  0  0  3  0  0  0  0  0  0
  -22.6670   -8.1870   21.3440 C   0  0  0  0  0  0  0  0  0  0  0  0
  -22.2390   -9.1350   20.3990 C   0  0  0  0  0  3  0  0  0  0  0  0
  -22.9530  -10.3310   20.2110 C   0  0  0  0  0  3  0  0  0  0  0  0
  -21.9220   -7.0370   21.4430 O   0  0  0  0  0  0  0  0  0  0  0  0
  -21.8510   -6.3230   22.6110 C   0  0  0  0  0  0  0  0  0  0  0  0
  -21.3380   -6.8870   23.8000 C   0  0  0  0  0  3  0  0  0  0  0  0
  -21.2190   -6.0960   24.9590 C   0  0  0  0  0  3  0  0  0  0  0  0
  -21.6010   -4.7410   24.9310 C   0  0  0  0  0  0  0  0  0  0  0  0
  -22.1060   -4.1760   23.7480 C   0  0  0  0  0  3  0  0  0  0  0  0
  -22.2290   -4.9650   22.5900 C   0  0  0  0  0  0  0  0  0  0  0  0
  -22.6970   -4.4100   21.4470 F   0  0  0  0  0  0  0  0  0  0  0  0
  -21.4770   -3.9790   26.0430 F   0  0  0  0  0  0  0  0  0  0  0  0
  -22.9900  -13.6910   21.2200 C   0  0  0  0  0  0  0  0  0  0  0  0
  -22.3100  -12.9700   22.1060 N   0  0  0  0  0  0  0  0  0  0  0  0
  -22.5260  -14.7310   20.7560 O   0  0  0  0  0  0  0  0  0  0  0  0
  -22.6950  -12.1250   22.5010 H   0  0  0  0  0  0  0  0  0  0  0  0
  -21.3890  -13.2680   22.3940 H   0  0  0  0  0  0  0  0  0  0  0  0
  -25.5750  -15.3740   20.2910 N   0  0  0  0  0  0  0  0  0  0  0  0
  -24.8230  -16.0330   20.4610 H   0  0  0  0  0  0  0  0  0  0  0  0
  -26.4040  -15.8130   19.9100 H   0  0  0  0  0  0  0  0  0  0  0  0
  1  2  1  0
  1 53  1  0
  1  8  1  0
  2  3  1  0
  3  6  1  0
  3  5  1  0
  4  2  2  0
  7  8  1  0
  7  9  2  0
  8 10  1  0
 11 12  1  0
 11  7  1  0
 13 24  2  0
 14 12  1  0
 14 19  1  0
 15 23  1  0
 15 25  1  0
 16 22  1  0
 16 18  1  0
 17 23  1  0
 18 17  1  0
 19 18  2  0
 20 14  2  0
 21 20  1  0
 21 16  2  0
 22 15  1  0
 23 13  1  0
 25 27  2  0
 26 25  1  0
 28 26  1  0
 29 38  2  0
 29 34  1  0
 30 26  1  0
 30 34  1  0
 31 30  1  0
 32 33  1  0
 32 31  1  0
 33 29  1  0
 34 35  2  0
 35 36  1  0
 37 36  2  0
 38 37  1  0
 39 13  1  0
 39 40  1  0
 39 49  1  0
 40 43  1  0
 41 45  1  0
 41 40  1  0
 42 41  2  0
 45 44  1  0
 47 48  1  0
 47 45  1  0
 47 46  1  0
 49 52  1  1
 49 50  1  0
 51 49  1  0
 54 55  1  0
 54 53  2  0
 56 65  1  0
 56 55  1  0
 57 65  1  0
 58 63  1  0
 59 60  1  0
 59 58  1  0
 61 60  1  0
 61 70  1  0
 61 62  1  0
 63 57  1  0
 63 62  1  0
 64 57  2  0
 65 66  1  0
 67 68  2  0
 68 87  1  0
 69 68  1  0
 69 72  1  0
 70 71  1  0
 70 67  1  0
 71 69  2  0
 72 73  1  0
 73 74  2  0
 75 78  1  0
 75 74  1  0
 76 75  2  0
 77 76  1  0
 77 72  2  0
 78 79  1  0
 79 80  1  0
 80 81  2  0
 82 81  1  0
 82 86  1  0
 83 82  2  0
 84 79  2  0
 84 83  1  0
 85 84  1  0
 87 88  1  0
 88 91  1  0
 88 90  1  0
 89 87  2  0
 92 67  1  0
 92 93  1  0
 94 92  1  0
M  ISO  4  11 101  12 101  57 100  65 100
M  END
>  <TORSDO>  (96) 
F 23

>  <SCORE>  (96) 
-12.721

>  <name>  (96) 
97

>  <ligand_id>  (96) 
97

>  <original_smiles>  (96) 
[H]c1c([H])c([H])c2c(c1[H])C([H])([H])C([H])([H])C([H])([H])C2([H])N([H])C(=O)C1([H])N(C(=O)C([H])(N([H])C(=O)C([H])(N([H])C([H])([H])[H])C([H])([H])[H])C(C([H])([H])[H])(C([H])([H])[H])C([H])([H])[H])C([H])([H])c2c([H])c(OC([H])([H])C(=O)N([H])C([H])(C(=O)N([H])[H])C([H])([H])C([H])([H])C([H])([H])C([H])([H])N([H])C(=O)N3C([H])([H])C([H])([H])C([H])([H])C([H])(n4nc(-c5c([H])c([H])c(Oc6c([H])c([H])c(F)c([H])c6F)c([H])c5[H])c(C(=O)N([H])[H])c4N([H])[H])C3([H])[H])c([H])c([H])c2C1([H])[H]

>  <smiles>  (96) 
[H]c1c([H])c([H])c2c(c1[H])C([H])([H])C([H])([H])C([H])([H])C2([H])N([H])C(=O)C1([H])N(C(=O)C([H])(N([H])C(=O)C([H])(N([H])C([H])([H])[H])C([H])([H])[H])C(C([H])([H])[H])(C([H])([H])[H])C([H])([H])[H])C([H])([H])c2c([H])c(OC([H])([H])C(=O)N([H])C([H])(C(=O)N([H])[H])C([H])([H])C([H])([H])C([H])([H])C([H])([H])N([H])C(=O)N3C([H])([H])C([H])([H])C([H])([H])C([H])(n4nc(-c5c([H])c([H])c(Oc6c([H])c([H])c(F)c([H])c6F)c([H])c5[H])c(C(=O)N([H])[H])c4N([H])[H])C3([H])[H])c([H])c([H])c2C1([H])[H]

$$$$
98:0:0
     RDKit          3D

 96103  0  0  1  0  0  0  0  0999 V2000
  -27.9340  -20.7900   19.7270 C   0  0  0  0  0  0  0  0  0  0  0  0
  -28.3520  -19.5420   19.4300 N   0  0  0  0  0  0  0  0  0  0  0  0
  -26.7610  -21.0360   20.0160 O   0  0  0  0  0  0  0  0  0  0  0  0
  -29.3190  -19.4280   19.1550 H   0  0  0  0  0  0  0  0  0  0  0  0
  -27.5600  -18.3000   19.5260 C   0  0  0  0  0  2  0  0  0  0  0  0
  -31.0960  -13.3010   20.7000 C   0  0  1  0  0  0  0  0  0  0  0  0
  -30.9070  -12.7990   18.0520 C   0  0  0  0  0  3  0  0  0  0  0  0
  -29.3510  -12.1880   17.4350 C   0  0  0  0  0  3  0  0  0  0  0  0
  -27.7250  -12.3840   18.1940 C   0  0  0  0  0  2  0  0  0  0  0  0
  -27.5790  -13.5510   19.6330 C   0  0  0  0  0  2  0  0  0  0  0  0
  -30.0360  -14.5710   20.0170 C   0  0  0  0  0  2  0  0  0  0  0  0
  -31.0860  -13.6970   19.4080 N   0  0  0  0  0  0  0  0  0  0  0  0
  -32.1450  -13.7800   21.1470 O   0  0  0  0  0  1  0  0  0  0  0  0
  -28.1330  -17.1170   18.6860 C   0  0  0  0  0  0  0  0  0  0  0  0
  -28.9090  -14.5090   18.1370 C   0  0  0  0  0  1  0  0  0  0  0  0
  -28.1210  -15.6040   20.9720 C   0  0  0  0  0  2  0  0  0  0  0  0
  -29.4090  -12.3370   19.8960 C   0  0  0  0  0  1  0  0  0  0  0  0
  -28.7380  -14.0480   21.9470 C   0  0  0  0  0  2  0  0  0  0  0  0
  -28.2310  -15.8520   19.1960 N   0  0  0  0  0  0  0  0  0  0  0  0
  -29.8150  -12.8430   21.3090 N   0  0  0  0  0  0  0  0  0  0  0  0
  -28.4750  -17.3580   17.5270 O   0  0  0  0  0  0  0  0  0  0  0  0
  -25.3620  -13.9330   20.6720 C   0  0  0  0  0  0  0  0  0  0  0  0
  -24.3920  -13.0990   21.0800 C   0  0  0  0  0  0  0  0  0  0  0  0
  -24.9180  -11.7820   20.9510 C   0  0  0  0  0  0  0  0  0  0  0  0
  -26.4810  -13.1500   20.4660 N   0  0  0  0  0  0  0  0  0  0  0  0
  -26.2060  -11.8300   20.6430 N   0  0  0  0  0  0  0  0  0  0  0  0
  -24.2280  -10.4960   21.0410 C   0  0  0  0  0  0  0  0  0  0  0  0
  -24.6090   -9.5280   21.9910 C   0  0  0  0  0  3  0  0  0  0  0  0
  -23.8770   -8.3300   22.1180 C   0  0  0  0  0  3  0  0  0  0  0  0
  -22.7550   -8.0930   21.2900 C   0  0  0  0  0  0  0  0  0  0  0  0
  -22.4040   -9.0450   20.3160 C   0  0  0  0  0  3  0  0  0  0  0  0
  -23.1380  -10.2340   20.1840 C   0  0  0  0  0  3  0  0  0  0  0  0
  -21.9890   -6.9550   21.3430 O   0  0  0  0  0  0  0  0  0  0  0  0
  -21.7210   -6.3280   22.5330 C   0  0  0  0  0  0  0  0  0  0  0  0
  -21.0270   -6.9740   23.5790 C   0  0  0  0  0  3  0  0  0  0  0  0
  -20.7130   -6.2680   24.7570 C   0  0  0  0  0  3  0  0  0  0  0  0
  -21.0840   -4.9170   24.8890 C   0  0  0  0  0  0  0  0  0  0  0  0
  -21.7720   -4.2710   23.8480 C   0  0  0  0  0  3  0  0  0  0  0  0
  -22.0880   -4.9750   22.6730 C   0  0  0  0  0  0  0  0  0  0  0  0
  -22.7320   -4.3390   21.6630 F   0  0  0  0  0  0  0  0  0  0  0  0
  -20.7770   -4.2380   26.0190 F   0  0  0  0  0  0  0  0  0  0  0  0
  -22.9990  -13.5360   21.3830 C   0  0  0  0  0  0  0  0  0  0  0  0
  -22.3320  -12.8120   22.2640 N   0  0  0  0  0  0  0  0  0  0  0  0
  -22.5310  -14.5690   20.9000 O   0  0  0  0  0  0  0  0  0  0  0  0
  -22.7370  -11.9840   22.6710 H   0  0  0  0  0  0  0  0  0  0  0  0
  -21.3950  -13.0820   22.5260 H   0  0  0  0  0  0  0  0  0  0  0  0
  -25.2720  -15.2710   20.3170 N   0  0  0  0  0  0  0  0  0  0  0  0
  -24.3450  -15.6830   20.2780 H   0  0  0  0  0  0  0  0  0  0  0  0
  -25.9190  -15.6720   19.6560 H   0  0  0  0  0  0  0  0  0  0  0  0
  -28.9940  -21.9150   19.7680 C   0  0  0  0  0  2  0  0  0  0  0  0
  -28.8920  -24.4250   19.9590 C   0  0  0  0  0  0  0  0  0  0  0  0
  -28.5390  -23.2650   19.3600 N   0  0  0  0  0  0  0  0  0  0  0  0
  -29.4400  -24.4380   21.0650 O   0  0  0  0  0  0  0  0  0  0  0  0
  -28.0380  -23.3200   18.4850 H   0  0  0  0  0  0  0  0  0  0  0  0
  -28.6910  -25.7560   19.1860 C   0  0  0  0  0  2  0  0  0  0  0  0
  -28.5240  -26.9010   20.0630 O   0  0  0  0  0  0  0  0  0  0  0  0
  -24.5600  -31.9430   23.2500 C   0  0  0  0  0  0  0  0  0  0  0  0
  -27.3240  -27.5980   20.0830 C   0  0  0  0  0  0  0  0  0  0  0  0
  -23.4060  -30.5570   21.5640 C   0  0  0  0  0  3  0  0  0  0  0  0
  -24.9030  -29.0800   20.1260 C   0  0  0  0  0  0  0  0  0  0  0  0
  -25.9320  -30.9580   21.4100 C   0  0  0  0  0  2  0  0  0  0  0  0
  -26.0490  -29.6030   20.7360 C   0  0  0  0  0  0  0  0  0  0  0  0
  -27.2620  -28.8680   20.7130 C   0  0  0  0  0  3  0  0  0  0  0  0
  -26.1400  -27.0820   19.5060 C   0  0  0  0  0  3  0  0  0  0  0  0
  -24.9440  -27.8180   19.5150 C   0  0  0  0  0  3  0  0  0  0  0  0
  -23.6470  -29.9160   20.1730 C   0  0  0  0  0  2  0  0  0  0  0  0
  -24.6510  -31.1680   22.1330 N   0  0  0  0  0  0  0  0  0  0  0  0
  -23.4640  -32.1810   23.7810 O   0  0  0  0  0  0  0  0  0  0  0  0
  -22.7640  -29.4980   22.4910 C   0  0  0  0  0  0  0  0  0  0  0  0
  -21.4470  -29.2850   22.3340 N   0  0  0  0  0  0  0  0  0  0  0  0
  -23.4470  -28.8730   23.3060 O   0  0  0  0  0  0  0  0  0  0  0  0
  -20.9550  -29.8430   21.6480 H   0  0  0  0  0  0  0  0  0  0  0  0
  -18.0910  -28.0100   22.7580 C   0  0  0  0  0  0  0  0  0  0  0  0
  -20.6390  -28.3120   23.0700 C   0  0  0  0  0  3  0  0  0  0  0  0
  -20.7780  -26.8980   22.4580 C   0  0  0  0  0  2  0  0  0  0  0  0
  -19.6950  -26.5800   21.4220 C   0  0  0  0  0  2  0  0  0  0  0  0
  -18.3030  -26.6820   22.0520 C   0  0  0  0  0  2  0  0  0  0  0  0
  -19.1880  -28.7830   23.2220 C   0  0  0  0  0  0  0  0  0  0  0  0
  -18.9370  -30.0270   23.8410 C   0  0  0  0  0  3  0  0  0  0  0  0
  -17.6200  -30.4980   24.0000 C   0  0  0  0  0  3  0  0  0  0  0  0
  -16.5380  -29.7220   23.5530 C   0  0  0  0  0  3  0  0  0  0  0  0
  -16.7740  -28.4800   22.9380 C   0  0  0  0  0  3  0  0  0  0  0  0
  -25.8220  -32.5870   23.9020 C   0  0  0  0  0  3  0  0  0  0  0  0
  -26.3110  -31.8250   25.1950 C   0  0  1  0  0  0  0  0  0  0  0  0
  -25.1900  -31.5780   26.2330 C   0  0  0  0  0  1  0  0  0  0  0  0
  -26.9200  -30.4540   24.8260 C   0  0  0  0  0  1  0  0  0  0  0  0
  -27.4330  -32.6360   25.8870 C   0  0  0  0  0  1  0  0  0  0  0  0
  -25.4930  -33.9840   24.2170 N   0  0  0  0  0  0  0  0  0  0  0  0
  -25.8520  -35.0370   23.4690 C   0  0  0  0  0  0  0  0  0  0  0  0
  -26.5660  -34.9340   22.4680 O   0  0  0  0  0  0  0  0  0  0  0  0
  -24.8630  -34.1370   24.9910 H   0  0  0  0  0  0  0  0  0  0  0  0
  -24.1480  -36.8300   23.0180 C   0  0  0  0  0  1  0  0  0  0  0  0
  -25.3380  -36.4230   23.9020 C   0  0  0  0  0  3  0  0  0  0  0  0
  -27.4130  -37.3090   24.8690 C   0  0  0  0  0  1  0  0  0  0  0  0
  -26.3760  -37.4760   23.8540 N   0  0  0  0  0  0  0  0  0  0  0  0
  -25.9610  -38.3970   23.9740 H   0  0  0  0  0  0  0  0  0  0  0  0
  1 50  1  0
  1  3  2  0
  2  5  1  0
  2  1  1  0
  4  2  1  0
  6 13  1  1
  6 20  1  0
  7 12  1  0
  8  7  2  0
  8  9  1  0
  9 10  1  0
 10 25  1  0
 11  6  1  0
 12 11  1  0
 12  6  1  0
 14 19  1  0
 14  5  1  0
 15 19  1  0
 16 18  1  0
 17 20  1  0
 19 16  1  0
 20 18  1  0
 21 14  2  0
 22 23  2  0
 23 42  1  0
 24 27  1  0
 24 23  1  0
 25 26  1  0
 25 22  1  0
 26 24  2  0
 27 28  1  0
 28 29  2  0
 30 33  1  0
 30 29  1  0
 31 30  2  0
 32 31  1  0
 32 27  2  0
 33 34  1  0
 34 39  2  0
 34 35  1  0
 35 36  2  0
 36 37  1  0
 37 41  1  0
 38 37  2  0
 39 38  1  0
 40 39  1  0
 42 43  1  0
 43 46  1  0
 43 45  1  0
 44 42  2  0
 47 22  1  0
 48 47  1  0
 49 47  1  0
 51 53  2  0
 52 50  1  0
 52 51  1  0
 54 52  1  0
 55 51  1  0
 55 56  1  0
 56 58  1  0
 57 68  2  0
 58 63  1  0
 59 67  1  0
 59 69  1  0
 60 66  1  0
 60 62  1  0
 61 67  1  0
 62 61  1  0
 63 62  2  0
 64 65  1  0
 64 58  2  0
 65 60  2  0
 66 59  1  0
 67 57  1  0
 69 71  2  0
 70 69  1  0
 72 70  1  0
 73 82  2  0
 73 78  1  0
 74 70  1  0
 74 78  1  0
 75 74  1  0
 76 77  1  0
 76 75  1  0
 77 73  1  0
 78 79  2  0
 79 80  1  0
 81 80  2  0
 82 81  1  0
 83 57  1  0
 83 88  1  0
 83 84  1  0
 84 87  1  1
 84 85  1  0
 86 84  1  0
 88 91  1  0
 89 93  1  0
 89 88  1  0
 90 89  2  0
 93 92  1  0
 95 93  1  0
 95 96  1  0
 95 94  1  0
M  ISO  4   6 100  20 100  55 101  56 101
M  END
>  <TORSDO>  (97) 
F 20

>  <SCORE>  (97) 
-10.843

>  <name>  (97) 
98

>  <ligand_id>  (97) 
98

>  <original_smiles>  (97) 
[H]c1c([H])c([H])c2c(c1[H])C([H])([H])C([H])([H])C([H])([H])C2([H])N([H])C(=O)C1([H])N(C(=O)C([H])(N([H])C(=O)C([H])(N([H])C([H])([H])[H])C([H])([H])[H])C(C([H])([H])[H])(C([H])([H])[H])C([H])([H])[H])C([H])([H])c2c([H])c(OC([H])([H])C(=O)N([H])C([H])([H])C(=O)N([H])C([H])([H])C(=O)N3C([H])([H])C([H])([H])N(C(=O)N4C([H])([H])C([H])([H])C([H])([H])C([H])(n5nc(-c6c([H])c([H])c(Oc7c([H])c([H])c(F)c([H])c7F)c([H])c6[H])c(C(=O)N([H])[H])c5N([H])[H])C4([H])[H])C([H])([H])C3([H])[H])c([H])c([H])c2C1([H])[H]

>  <smiles>  (97) 
[H]c1c([H])c([H])c2c(c1[H])C([H])([H])C([H])([H])C([H])([H])C2([H])N([H])C(=O)C1([H])N(C(=O)C([H])(N([H])C(=O)C([H])(N([H])C([H])([H])[H])C([H])([H])[H])C(C([H])([H])[H])(C([H])([H])[H])C([H])([H])[H])C([H])([H])c2c([H])c(OC([H])([H])C(=O)N([H])C([H])([H])C(=O)N([H])C([H])([H])C(=O)N3C([H])([H])C([H])([H])N(C(=O)N4C([H])([H])C([H])([H])C([H])([H])C([H])(n5nc(-c6c([H])c([H])c(Oc7c([H])c([H])c(F)c([H])c7F)c([H])c6[H])c(C(=O)N([H])[H])c5N([H])[H])C4([H])[H])C([H])([H])C3([H])[H])c([H])c([H])c2C1([H])[H]

$$$$
